
  -OEChem-04052320153D

 86 95  0     1  0  0  0  0  0999 V2000
  -16.3200  -26.8733   22.1208 C   0  0  0  0  0  0  0  0  0  0  0  0
  -17.4858  -26.6600   21.3922 C   0  0  0  0  0  0  0  0  0  0  0  0
  -22.8487   -9.5500   19.9475 C   0  0  0  0  0  0  0  0  0  0  0  0
  -24.5774   -8.7474   21.4323 C   0  0  0  0  0  0  0  0  0  0  0  0
  -16.0716  -28.1232   22.6864 C   0  0  0  0  0  0  0  0  0  0  0  0
  -18.4034  -27.6971   21.2278 C   0  0  0  0  0  0  0  0  0  0  0  0
  -23.1836  -26.1965   21.9649 C   0  0  0  0  0  0  0  0  0  0  0  0
  -21.8762   -8.9997   20.7824 C   0  0  0  0  0  0  0  0  0  0  0  0
  -23.6049   -8.1971   22.2672 C   0  0  0  0  0  0  0  0  0  0  0  0
  -23.7987  -25.4974   20.9272 C   0  0  0  0  0  0  0  0  0  0  0  0
  -21.6457   -5.4425   22.3317 C   0  0  0  0  0  0  0  0  0  0  0  0
  -21.8560   -4.1478   22.8061 C   0  0  0  0  0  0  0  0  0  0  0  0
  -24.9281  -27.5166   20.2444 C   0  0  0  0  0  0  0  0  0  0  0  0
  -21.8050   -4.9716   25.0768 C   0  0  0  0  0  0  0  0  0  0  0  0
  -24.1994   -9.4237   20.2724 C   0  0  0  0  0  0  0  0  0  0  0  0
  -25.4385   -9.6800   18.0573 C   0  0  0  0  0  0  0  0  0  0  0  0
  -16.9912  -29.1733   22.5369 C   0  0  0  0  0  0  0  0  0  0  0  0
  -23.4282  -27.5657   22.1437 C   0  0  0  0  0  0  0  0  0  0  0  0
  -18.1664  -28.9626   21.7907 C   0  0  0  0  0  0  0  0  0  0  0  0
  -24.3169  -28.2302   21.2866 C   0  0  0  0  0  0  0  0  0  0  0  0
  -22.2543   -8.3233   21.9422 C   0  0  0  0  0  0  0  0  0  0  0  0
  -24.6689  -26.1581   20.0650 C   0  0  0  0  0  0  0  0  0  0  0  0
  -21.5151   -6.5018   23.2298 C   0  0  0  0  0  0  0  0  0  0  0  0
  -21.9356   -3.9123   24.1787 C   0  0  0  0  0  0  0  0  0  0  0  0
  -21.5947   -6.2663   24.6023 C   0  0  0  0  0  0  0  0  0  0  0  0
  -25.2045   -9.9914   19.4101 C   0  0  0  0  0  0  0  0  0  0  0  0
  -26.4918  -10.4844   17.6970 C   0  0  0  0  0  0  0  0  0  0  0  0
  -24.7639   -8.7470   17.2028 C   0  0  0  0  0  0  0  0  0  0  0  0
  -21.6397  -30.1924   22.0682 C   0  0  0  0  0  0  0  0  0  0  0  0
  -24.3789  -31.6162   23.0643 C   0  0  0  0  0  0  0  0  0  0  0  0
  -27.7862  -31.5389   23.2397 C   0  0  0  0  0  0  0  0  0  0  0  0
  -28.3704  -15.6765   19.7869 C   0  0  0  0  0  0  0  0  0  0  0  0
  -16.6568  -30.5206   23.1266 C   0  0  0  0  0  0  0  0  0  0  0  0
  -22.7775  -28.2995   23.2841 C   0  0  0  0  0  0  0  0  0  0  0  0
  -24.6288  -29.6948   21.4483 C   0  0  0  0  0  0  0  0  0  0  0  0
  -17.8573  -31.4585   23.2223 C   0  0  0  0  0  0  0  0  0  0  0  0
  -31.2989  -19.2752   21.7980 C   0  0  0  0  0  0  0  0  0  0  0  0
  -31.0492  -20.7609   21.5525 C   0  0  0  0  0  0  0  0  0  0  0  0
  -30.3444  -12.6542   19.5292 C   0  0  0  0  0  0  0  0  0  0  0  0
  -18.6447  -31.4529   21.9159 C   0  0  0  0  0  0  0  0  0  0  0  0
  -29.9979  -18.5149   22.0562 C   0  0  0  0  0  0  0  0  0  0  0  0
  -29.2565  -11.5957   19.3393 C   0  0  0  0  0  0  0  0  0  0  0  0
  -30.0238  -20.9946   20.4452 C   0  0  0  0  0  0  0  0  0  0  0  0
  -26.5762  -22.0606   18.1874 C   0  0  0  0  0  0  0  0  0  0  0  0
  -26.8527  -22.4662   20.6734 C   0  0  0  0  0  0  0  0  0  0  0  0
  -26.1655  -23.5189   17.9985 C   0  0  0  0  0  0  0  0  0  0  0  0
  -26.4409  -23.9234   20.4785 C   0  0  0  0  0  0  0  0  0  0  0  0
  -29.8957  -13.7394   20.5035 C   0  0  0  0  0  0  0  0  0  0  0  0
  -27.5271  -13.3514   19.9446 C   0  0  0  0  0  0  0  0  0  0  0  0
  -19.1977  -30.0554   21.6112 C   0  0  1  0  0  0  0  0  0  0  0  0
  -22.7013  -29.8064   23.0591 C   0  0  1  0  0  0  0  0  0  0  0  0
  -28.9543  -18.7186   20.9427 C   0  0  1  0  0  0  0  0  0  0  0  0
  -27.9110  -12.2380   18.9531 C   0  0  2  0  0  0  0  0  0  0  0  0
  -27.4889  -21.9072   19.4024 C   0  0  0  0  0  0  0  0  0  0  0  0
  -28.7316  -20.2273   20.7243 C   0  0  2  0  0  0  0  0  0  0  0  0
  -25.5295  -24.0947   19.2629 C   0  0  0  0  0  0  0  0  0  1  0  0
  -29.7459  -32.8611   24.0816 C   0  0  0  0  0  0  0  0  0  0  0  0
  -24.0797  -33.5471   20.7207 C   0  0  0  0  0  0  0  0  0  0  0  0
  -26.4768  -34.1957   21.0396 C   0  0  0  0  0  0  0  0  0  0  0  0
  -24.8219  -34.6095   22.8596 C   0  0  0  0  0  0  0  0  0  0  0  0
  -28.6258  -29.3579   25.0555 C   0  0  0  0  0  0  0  0  0  0  0  0
  -26.5299  -19.6377   19.7654 C   0  0  0  0  0  0  0  0  0  0  0  0
  -29.3558  -17.9511   19.6761 C   0  0  0  0  0  0  0  0  0  0  0  0
  -25.5688  -32.2426   22.3782 C   0  0  1  0  0  0  0  0  0  0  0  0
  -28.7406  -31.7649   24.3983 C   0  0  2  0  0  0  0  0  0  0  0  0
  -25.2296  -33.6216   21.7450 C   0  0  0  0  0  0  0  0  0  0  0  0
  -26.0420  -10.9210   19.8775 N   0  0  0  0  0  0  0  0  0  0  0  0
  -26.8125  -11.2006   18.8126 N   0  0  0  0  0  0  0  0  0  0  0  0
  -23.9629  -30.3700   22.5744 N   0  0  0  0  0  0  0  0  0  0  0  0
  -28.6189  -14.3229   20.0686 N   0  0  0  0  0  0  0  0  0  0  0  0
  -27.1659  -10.6418   16.5380 N   0  0  0  0  0  0  0  0  0  0  0  0
  -25.2394   -7.4299   17.1444 N   0  0  0  0  0  0  0  0  0  0  0  0
  -20.3667  -29.7868   22.4210 N   0  0  0  0  0  0  0  0  0  0  0  0
  -26.6359  -32.2876   23.3719 N   0  0  0  0  0  0  0  0  0  0  0  0
  -29.4553  -16.5320   19.9353 N   0  0  0  0  0  0  0  0  0  0  0  0
  -29.4903  -30.5136   24.7035 N   0  3  0  0  0  0  0  0  0  0  0  0
  -27.7813  -20.4634   19.6054 N   0  3  1  0  0  0  0  0  0  0  0  0
  -23.7789   -9.0759   16.4991 O   0  0  0  0  0  0  0  0  0  0  0  0
  -21.9522  -30.8134   21.0591 O   0  0  0  0  0  0  0  0  0  0  0  0
  -23.8428  -32.2073   24.0049 O   0  0  0  0  0  0  0  0  0  0  0  0
  -28.0378  -30.7774   22.3083 O   0  0  0  0  0  0  0  0  0  0  0  0
  -27.2644  -16.0917   19.4245 O   0  0  0  0  0  0  0  0  0  0  0  0
  -21.3055   -7.7865   22.7572 O   0  0  0  0  0  0  0  0  0  0  0  0
  -25.2701  -25.4782   19.0510 O   0  0  0  0  0  0  0  0  0  1  0  0
  -22.1360   -2.6687   24.6342 F   0  0  0  0  0  0  0  0  0  0  0  0
  -21.4688   -7.2798   25.4700 F   0  0  0  0  0  0  0  0  0  0  0  0
  1  2  1  0  0  0  0
  1  5  2  0  0  0  0
  2  6  2  0  0  0  0
  3  8  2  0  0  0  0
  3 15  1  0  0  0  0
  4  9  1  0  0  0  0
  4 15  2  0  0  0  0
  5 17  1  0  0  0  0
  6 19  1  0  0  0  0
  7 10  2  0  0  0  0
  7 18  1  0  0  0  0
  8 21  1  0  0  0  0
  9 21  2  0  0  0  0
 10 22  1  0  0  0  0
 11 12  2  0  0  0  0
 11 23  1  0  0  0  0
 12 24  1  0  0  0  0
 13 20  1  0  0  0  0
 13 22  2  0  0  0  0
 14 24  2  0  0  0  0
 14 25  1  0  0  0  0
 15 26  1  0  0  0  0
 16 26  1  0  0  0  0
 16 27  2  0  0  0  0
 16 28  1  0  0  0  0
 17 19  2  0  0  0  0
 17 33  1  0  0  0  0
 18 20  2  0  0  0  0
 18 34  1  0  0  0  0
 19 50  1  0  0  0  0
 20 35  1  0  0  0  0
 21 83  1  0  0  0  0
 22 84  1  0  0  0  0
 23 25  2  0  0  0  0
 23 83  1  0  0  0  0
 24 85  1  0  0  0  0
 25 86  1  0  0  0  0
 26 67  2  0  0  0  0
 27 68  1  0  0  0  0
 27 71  1  0  0  0  0
 28 72  1  0  0  0  0
 28 78  2  0  0  0  0
 29 51  1  0  0  0  0
 29 73  1  0  0  0  0
 29 79  2  0  0  0  0
 30 64  1  0  0  0  0
 30 69  1  0  0  0  0
 30 80  2  0  0  0  0
 31 65  1  0  0  0  0
 31 74  1  0  0  0  0
 31 81  2  0  0  0  0
 32 70  1  0  0  0  0
 32 75  1  0  0  0  0
 32 82  2  0  0  0  0
 33 36  1  0  0  0  0
 34 51  1  0  0  0  0
 35 69  1  0  0  0  0
 36 40  1  0  0  0  0
 37 38  1  0  0  0  0
 37 41  1  0  0  0  0
 38 43  1  0  0  0  0
 39 42  1  0  0  0  0
 39 48  1  0  0  0  0
 40 50  1  0  0  0  0
 41 52  1  0  0  0  0
 42 53  1  0  0  0  0
 43 55  1  0  0  0  0
 44 46  1  0  0  0  0
 44 54  1  0  0  0  0
 45 47  1  0  0  0  0
 45 54  1  0  0  0  0
 46 56  1  0  0  0  0
 47 56  1  0  0  0  0
 48 70  1  0  0  0  0
 49 53  1  0  0  0  0
 49 70  1  0  0  0  0
 50 73  1  0  0  0  0
 51 69  1  0  0  0  0
 52 55  1  0  0  0  0
 52 63  1  0  0  0  0
 53 68  1  0  0  0  0
 54 77  1  0  0  0  0
 55 77  1  0  0  0  0
 56 84  1  0  0  0  0
 57 65  1  0  0  0  0
 58 66  1  0  0  0  0
 59 66  1  0  0  0  0
 60 66  1  0  0  0  0
 61 76  1  0  0  0  0
 62 77  1  0  0  0  0
 63 75  1  0  0  0  0
 64 66  1  0  0  0  0
 64 74  1  0  0  0  0
 65 76  1  0  0  0  0
 67 68  1  0  0  0  0
M  CHG  2  76   1  77   1
M  ISO  4  32 100  56 101  75 100  84 101
M  END
> <Batch ID>
0117

> <Smiles>
CNC(C)C(=O)NC(C(=O)N1Cc2cc([101O:1][101CH:1]3CCC(N(C)C4CCCCC4C[100NH:0][100C:0](=O)N4CCCC(n5nc(-c6ccc(Oc7ccc(F)cc7F)cc6)c(C(N)=O)c5N)C4)CC3)ccc2CC1C(=O)NC1CCCc2ccccc21)C(C)(C)C

> <Shape>
0.313

> <Color>
0.086

> <Negative vol penalty>
0.000

$$$$

  -OEChem-04052320153D

 82 90  0     1  0  0  0  0  0999 V2000
  -27.2735  -34.1087   26.2994 C   0  0  0  0  0  0  0  0  0  0  0  0
  -27.4820  -32.7923   25.9006 C   0  0  0  0  0  0  0  0  0  0  0  0
  -26.0560  -13.7982   21.4347 C   0  0  0  0  0  0  0  0  0  0  0  0
  -25.5224  -12.7603   19.3193 C   0  0  0  0  0  0  0  0  0  0  0  0
  -25.9952  -34.6614   26.2344 C   0  0  0  0  0  0  0  0  0  0  0  0
  -26.4120  -32.0275   25.4374 C   0  0  0  0  0  0  0  0  0  0  0  0
  -27.5616  -29.4071   21.2593 C   0  0  0  0  0  0  0  0  0  0  0  0
  -25.0210  -13.0887   22.0439 C   0  0  0  0  0  0  0  0  0  0  0  0
  -24.4874  -12.0508   19.9284 C   0  0  0  0  0  0  0  0  0  0  0  0
  -28.3125  -28.2440   21.4237 C   0  0  0  0  0  0  0  0  0  0  0  0
  -21.9353   -9.6942   21.0013 C   0  0  0  0  0  0  0  0  0  0  0  0
  -21.8126   -8.3379   20.6997 C   0  0  0  0  0  0  0  0  0  0  0  0
  -26.2991  -26.9268   21.2491 C   0  0  0  0  0  0  0  0  0  0  0  0
  -24.0332   -7.9443   21.5665 C   0  0  0  0  0  0  0  0  0  0  0  0
  -26.3067  -13.6340   20.0724 C   0  0  0  0  0  0  0  0  0  0  0  0
  -28.7164  -13.9626   19.3024 C   0  0  0  0  0  0  0  0  0  0  0  0
  -24.9107  -33.9060   25.7611 C   0  0  0  0  0  0  0  0  0  0  0  0
  -26.1702  -29.3394   21.0992 C   0  0  0  0  0  0  0  0  0  0  0  0
  -25.1176  -32.5702   25.3672 C   0  0  0  0  0  0  0  0  0  0  0  0
  -25.5332  -28.0904   21.0804 C   0  0  0  0  0  0  0  0  0  0  0  0
  -24.2368  -12.2150   21.2908 C   0  0  0  0  0  0  0  0  0  0  0  0
  -27.6809  -27.0037   21.4215 C   0  0  0  0  0  0  0  0  0  0  0  0
  -23.1069  -10.1756   21.5854 C   0  0  0  0  0  0  0  0  0  0  0  0
  -22.8615   -7.4629   20.9824 C   0  0  0  0  0  0  0  0  0  0  0  0
  -24.1559   -9.3007   21.8680 C   0  0  0  0  0  0  0  0  0  0  0  0
  -27.3753  -14.3671   19.4425 C   0  0  0  0  0  0  0  0  0  0  0  0
  -29.3210  -15.0022   18.6389 C   0  0  0  0  0  0  0  0  0  0  0  0
  -29.3582  -12.7552   19.7334 C   0  0  0  0  0  0  0  0  0  0  0  0
  -28.3100  -24.8052   17.2503 C   0  0  0  0  0  0  0  0  0  0  0  0
  -23.6686  -30.4136   22.7400 C   0  0  0  0  0  0  0  0  0  0  0  0
  -22.0060  -29.2768   20.1972 C   0  0  0  0  0  0  0  0  0  0  0  0
  -21.8696  -27.1233   17.5533 C   0  0  0  0  0  0  0  0  0  0  0  0
  -29.0894  -20.7399   18.5866 C   0  0  0  0  0  0  0  0  0  0  0  0
  -23.5384  -34.5318   25.7535 C   0  0  0  0  0  0  0  0  0  0  0  0
  -25.3778  -30.6017   20.8963 C   0  0  0  0  0  0  0  0  0  0  0  0
  -24.0444  -27.9623   20.8917 C   0  0  0  0  0  0  0  0  0  0  0  0
  -22.5275  -33.7727   24.8979 C   0  0  0  0  0  0  0  0  0  0  0  0
  -27.7676  -18.7152   15.7998 C   0  0  0  0  0  0  0  0  0  0  0  0
  -22.6025  -32.2763   25.1846 C   0  0  0  0  0  0  0  0  0  0  0  0
  -27.6128  -17.3549   16.4732 C   0  0  0  0  0  0  0  0  0  0  0  0
  -27.5032  -19.8678   16.7677 C   0  0  0  0  0  0  0  0  0  0  0  0
  -28.1748  -18.4426   18.6814 C   0  0  0  0  0  0  0  0  0  0  0  0
  -23.9868  -31.7164   24.8358 C   0  0  1  0  0  0  0  0  0  0  0  0
  -29.4877  -24.5169   18.0783 C   0  0  1  0  0  0  0  0  0  0  0  0
  -23.9035  -30.4462   21.2563 C   0  0  1  0  0  0  0  0  0  0  0  0
  -29.2894  -23.9988   19.4802 C   0  0  1  0  0  0  0  0  0  0  0  0
  -28.4845  -17.2721   17.7356 C   0  0  1  0  0  0  0  0  0  0  0  0
  -29.8521  -23.0899   18.4188 C   0  0  1  0  0  0  0  0  0  0  0  0
  -27.5269  -27.1899   17.3795 C   0  0  0  0  0  0  0  0  0  0  0  0
  -20.3668  -26.3979   15.6790 C   0  0  0  0  0  0  0  0  0  0  0  0
  -30.2078  -23.5018   21.7491 C   0  0  0  0  0  0  0  0  0  0  0  0
  -20.3096  -27.6894   22.1751 C   0  0  0  0  0  0  0  0  0  0  0  0
  -19.4973  -26.3007   20.2568 C   0  0  0  0  0  0  0  0  0  0  0  0
  -19.0216  -28.7489   20.3115 C   0  0  0  0  0  0  0  0  0  0  0  0
  -23.8298  -27.9638   15.5014 C   0  0  0  0  0  0  0  0  0  0  0  0
  -29.7567  -25.8866   21.1071 C   0  0  0  0  0  0  0  0  0  1  0  0
  -27.2809  -25.7603   17.8295 C   0  0  1  0  0  0  0  0  0  0  0  0
  -21.3744  -27.9536   19.8380 C   0  0  1  0  0  0  0  0  0  0  0  0
  -21.4874  -27.3360   16.0996 C   0  0  2  0  0  0  0  0  0  0  0  0
  -30.1831  -24.4977   20.6169 C   0  0  2  0  0  0  0  0  0  0  0  0
  -20.0785  -27.6753   20.6509 C   0  0  0  0  0  0  0  0  0  0  0  0
  -27.1412  -15.5698   18.9109 N   0  0  0  0  0  0  0  0  0  0  0  0
  -28.3435  -15.9301   18.4304 N   0  0  0  0  0  0  0  0  0  0  0  0
  -23.3125  -29.2258   20.7035 N   0  0  0  0  0  0  0  0  0  0  0  0
  -28.3004  -19.7355   17.9974 N   0  0  0  0  0  0  0  0  0  0  0  0
  -30.5882  -15.2040   18.2195 N   0  0  0  0  0  0  0  0  0  0  0  0
  -28.5898  -11.7916   20.4008 N   0  0  0  0  0  0  0  0  0  0  0  0
  -24.1147  -31.5397   23.4051 N   0  0  0  0  0  0  0  0  0  0  0  0
  -21.1802  -27.9732   18.3922 N   0  0  0  0  0  0  0  0  0  0  0  0
  -29.0972  -21.9664   17.9318 N   0  0  0  0  0  0  0  0  0  0  0  0
  -25.9089  -25.3653   17.3986 N   0  3  0  0  0  0  0  0  0  0  0  0
  -22.6613  -27.0924   15.2144 N   0  3  0  0  0  0  0  0  0  0  0  0
  -30.5806  -12.5443   19.5472 O   0  0  0  0  0  0  0  0  0  0  0  0
  -28.1856  -24.2977   16.1353 O   0  0  0  0  0  0  0  0  0  0  0  0
  -23.1217  -29.4396   23.2439 O   0  0  0  0  0  0  0  0  0  0  0  0
  -21.3665  -30.3180   20.0280 O   0  0  0  0  0  0  0  0  0  0  0  0
  -22.6942  -26.2845   17.9093 O   0  0  0  0  0  0  0  0  0  0  0  0
  -29.7366  -20.5608   19.6243 O   0  0  0  0  0  0  0  0  0  0  0  0
  -23.2269  -11.5223   21.8849 O   0  0  0  0  0  0  0  0  0  0  0  0
  -28.4113  -25.8669   21.5824 O   0  0  0  0  0  0  0  0  0  1  0  0
  -22.7429   -6.1602   20.6941 F   0  0  0  0  0  0  0  0  0  0  0  0
  -25.2834   -9.7571   22.4302 F   0  0  0  0  0  0  0  0  0  0  0  0
  1  2  1  0  0  0  0
  1  5  2  0  0  0  0
  2  6  2  0  0  0  0
  3  8  2  0  0  0  0
  3 15  1  0  0  0  0
  4  9  1  0  0  0  0
  4 15  2  0  0  0  0
  5 17  1  0  0  0  0
  6 19  1  0  0  0  0
  7 10  2  0  0  0  0
  7 18  1  0  0  0  0
  8 21  1  0  0  0  0
  9 21  2  0  0  0  0
 10 22  1  0  0  0  0
 11 12  2  0  0  0  0
 11 23  1  0  0  0  0
 12 24  1  0  0  0  0
 13 20  1  0  0  0  0
 13 22  2  0  0  0  0
 14 24  2  0  0  0  0
 14 25  1  0  0  0  0
 15 26  1  0  0  0  0
 16 26  1  0  0  0  0
 16 27  2  0  0  0  0
 16 28  1  0  0  0  0
 17 19  2  0  0  0  0
 17 34  1  0  0  0  0
 18 20  2  0  0  0  0
 18 35  1  0  0  0  0
 19 43  1  0  0  0  0
 20 36  1  0  0  0  0
 21 79  1  0  0  0  0
 22 80  1  0  0  0  0
 23 25  2  0  0  0  0
 23 79  1  0  0  0  0
 24 81  1  0  0  0  0
 25 82  1  0  0  0  0
 26 62  2  0  0  0  0
 27 63  1  0  0  0  0
 27 66  1  0  0  0  0
 28 67  1  0  0  0  0
 28 73  2  0  0  0  0
 29 44  1  0  0  0  0
 29 57  1  0  0  0  0
 29 74  2  0  0  0  0
 30 45  1  0  0  0  0
 30 68  1  0  0  0  0
 30 75  2  0  0  0  0
 31 58  1  0  0  0  0
 31 64  1  0  0  0  0
 31 76  2  0  0  0  0
 32 59  1  0  0  0  0
 32 69  1  0  0  0  0
 32 77  2  0  0  0  0
 33 65  1  0  0  0  0
 33 70  1  0  0  0  0
 33 78  2  0  0  0  0
 34 37  1  0  0  0  0
 35 45  1  0  0  0  0
 36 64  1  0  0  0  0
 37 39  1  0  0  0  0
 38 40  1  0  0  0  0
 38 41  1  0  0  0  0
 39 43  1  0  0  0  0
 40 47  1  0  0  0  0
 41 65  1  0  0  0  0
 42 47  1  0  0  0  0
 42 65  1  0  0  0  0
 43 68  1  0  0  0  0
 44 46  1  0  0  0  0
 44 48  1  0  0  0  0
 45 64  1  0  0  0  0
 46 48  1  0  0  0  0
 46 60  1  0  0  0  0
 47 63  1  0  0  0  0
 48 70  1  0  0  0  0
 49 57  1  0  0  0  0
 50 59  1  0  0  0  0
 51 60  1  0  0  0  0
 52 61  1  0  0  0  0
 53 61  1  0  0  0  0
 54 61  1  0  0  0  0
 55 72  1  0  0  0  0
 56 60  1  0  0  0  0
 56 80  1  0  0  0  0
 57 71  1  0  0  0  0
 58 61  1  0  0  0  0
 58 69  1  0  0  0  0
 59 72  1  0  0  0  0
 62 63  1  0  0  0  0
M  CHG  2  71   1  72   1
M  ISO  4  33 100  56 101  70 100  80 101
M  END
> <Batch ID>
0117

> <Smiles>
CNC(C)C(=O)NC(C(=O)N1Cc2cc([101O:1][101CH2:1]C(C)C3C([100NH:0][100C:0](=O)N4CCCC(n5nc(-c6ccc(Oc7ccc(F)cc7F)cc6)c(C(N)=O)c5N)C4)C3C(=O)C(C)N)ccc2CC1C(=O)NC1CCCc2ccccc21)C(C)(C)C

> <Shape>
0.298

> <Color>
0.072

> <Negative vol penalty>
0.000

$$$$

  -OEChem-04052320153D

 87 95  0     1  0  0  0  0  0999 V2000
  -20.0529  -26.1867   22.4591 C   0  0  0  0  0  0  0  0  0  0  0  0
  -20.1354  -25.1034   21.5901 C   0  0  0  0  0  0  0  0  0  0  0  0
  -26.6795  -28.5665   18.9861 C   0  0  0  0  0  0  0  0  0  0  0  0
  -26.3298  -27.8926   21.2797 C   0  0  0  0  0  0  0  0  0  0  0  0
  -20.9742  -26.3178   23.4973 C   0  0  0  0  0  0  0  0  0  0  0  0
  -21.1399  -24.1511   21.7583 C   0  0  0  0  0  0  0  0  0  0  0  0
  -22.3890  -17.1469   20.9230 C   0  0  0  0  0  0  0  0  0  0  0  0
  -30.7871  -15.7713   21.9072 C   0  0  0  0  0  0  0  0  0  0  0  0
  -25.3671  -29.0346   18.9235 C   0  0  0  0  0  0  0  0  0  0  0  0
  -25.0174  -28.3608   21.2172 C   0  0  0  0  0  0  0  0  0  0  0  0
  -23.3031  -16.2795   20.3265 C   0  0  0  0  0  0  0  0  0  0  0  0
  -21.6861  -29.7061   21.7750 C   0  0  0  0  0  0  0  0  0  0  0  0
  -21.2157  -30.4649   22.8467 C   0  0  0  0  0  0  0  0  0  0  0  0
  -31.3323  -17.0344   22.1088 C   0  0  0  0  0  0  0  0  0  0  0  0
  -24.7912  -16.5667   22.2033 C   0  0  0  0  0  0  0  0  0  0  0  0
  -22.9527  -32.0974   22.4532 C   0  0  0  0  0  0  0  0  0  0  0  0
  -27.1609  -27.9955   20.1642 C   0  0  0  0  0  0  0  0  0  0  0  0
  -29.6600  -28.2351   20.6165 C   0  0  0  0  0  0  0  0  0  0  0  0
  -21.9847  -25.3614   23.6841 C   0  0  0  0  0  0  0  0  0  0  0  0
  -22.6744  -17.7403   22.1611 C   0  0  0  0  0  0  0  0  0  0  0  0
  -22.0765  -24.2702   22.7992 C   0  0  0  0  0  0  0  0  0  0  0  0
  -23.8779  -17.4393   22.8145 C   0  0  0  0  0  0  0  0  0  0  0  0
  -29.9835  -15.5363   20.7971 C   0  0  0  0  0  0  0  0  0  0  0  0
  -24.5360  -28.9318   20.0390 C   0  0  0  0  0  0  0  0  0  0  0  0
  -24.5056  -15.9915   20.9653 C   0  0  0  0  0  0  0  0  0  0  0  0
  -22.7899  -30.1428   21.0425 C   0  0  0  0  0  0  0  0  0  0  0  0
  -21.8490  -31.6606   23.1858 C   0  0  0  0  0  0  0  0  0  0  0  0
  -23.4232  -31.3385   21.3816 C   0  0  0  0  0  0  0  0  0  0  0  0
  -28.5164  -27.5112   20.2293 C   0  0  0  0  0  0  0  0  0  0  0  0
  -29.7573  -16.5893   19.9255 C   0  0  0  0  0  0  0  0  0  0  0  0
  -31.0459  -18.0204   21.1784 C   0  0  0  0  0  0  0  0  0  0  0  0
  -30.6900  -27.3328   20.5094 C   0  0  0  0  0  0  0  0  0  0  0  0
  -29.7805  -29.6009   21.0357 C   0  0  0  0  0  0  0  0  0  0  0  0
  -23.0490  -20.7263   23.1842 C   0  0  0  0  0  0  0  0  0  0  0  0
  -23.2126  -19.2964   26.0913 C   0  0  0  0  0  0  0  0  0  0  0  0
  -23.8741  -16.4800   27.9015 C   0  0  0  0  0  0  0  0  0  0  0  0
  -30.7797  -21.4252   20.8301 C   0  0  0  0  0  0  0  0  0  0  0  0
  -22.9866  -25.5708   24.7919 C   0  0  0  0  0  0  0  0  0  0  0  0
  -21.6662  -18.6529   22.8038 C   0  0  0  0  0  0  0  0  0  0  0  0
  -24.2232  -18.0344   24.1544 C   0  0  0  0  0  0  0  0  0  0  0  0
  -23.7927  -24.3190   25.1288 C   0  0  0  0  0  0  0  0  0  0  0  0
  -32.0209  -23.4363   18.0765 C   0  0  0  0  0  0  0  0  0  0  0  0
  -24.3015  -23.6528   23.8544 C   0  0  0  0  0  0  0  0  0  0  0  0
  -31.3535  -24.7832   18.3576 C   0  0  0  0  0  0  0  0  0  0  0  0
  -31.0973  -22.2742   18.4310 C   0  0  0  0  0  0  0  0  0  0  0  0
  -29.9285  -23.6434   20.1182 C   0  0  0  0  0  0  0  0  0  0  0  0
  -23.1368  -23.2032   22.9640 C   0  0  1  0  0  0  0  0  0  0  0  0
  -22.2852  -19.6022   23.8250 C   0  0  1  0  0  0  0  0  0  0  0  0
  -30.8259  -24.8531   19.8022 C   0  0  2  0  0  0  0  0  0  0  0  0
  -29.0265  -17.5504   17.7280 C   0  0  0  0  0  0  0  0  0  0  0  0
  -23.9580  -15.6292   30.2609 C   0  0  0  0  0  0  0  0  0  0  0  0
  -24.9758  -13.5757   18.6175 C   0  0  0  0  0  0  0  0  0  0  0  0
  -25.8584  -20.7544   26.5204 C   0  0  0  0  0  0  0  0  0  0  0  0
  -26.3431  -19.1757   28.4021 C   0  0  0  0  0  0  0  0  0  0  0  0
  -24.3652  -20.6907   28.5256 C   0  0  0  0  0  0  0  0  0  0  0  0
  -21.7797  -14.4577   27.3697 C   0  0  0  0  0  0  0  0  0  0  0  0
  -29.3922  -14.1754   20.5745 C   0  0  0  0  0  0  0  0  0  0  0  0
  -28.9017  -16.3951   18.7165 C   0  0  0  0  0  0  0  0  0  0  0  0
  -27.3094  -12.7975   20.6211 C   0  0  0  0  0  0  0  0  0  0  0  0
  -24.3217  -18.7224   26.9394 C   0  0  1  0  0  0  0  0  0  0  0  0
  -23.1027  -15.7935   29.0142 C   0  0  2  0  0  0  0  0  0  0  0  0
  -25.8122  -12.8268   20.9539 C   0  0  1  0  0  0  0  0  0  0  0  0
  -24.9593  -13.8137   20.1243 C   0  0  1  0  0  0  0  0  0  1  0  0
  -25.2168  -19.8260   27.5707 C   0  0  0  0  0  0  0  0  0  0  0  0
  -28.7934  -26.2466   19.9005 N   0  0  0  0  0  0  0  0  0  0  0  0
  -30.2696  -17.8298   20.0881 N   0  0  0  0  0  0  0  0  0  0  0  0
  -30.1229  -26.1688   20.0808 N   0  0  0  0  0  0  0  0  0  0  0  0
  -23.2077  -18.9257   24.7391 N   0  0  0  0  0  0  0  0  0  0  0  0
  -30.6303  -22.3906   19.8194 N   0  0  0  0  0  0  0  0  0  0  0  0
  -32.0165  -27.4295   20.7408 N   0  0  0  0  0  0  0  0  0  0  0  0
  -28.6221  -30.3879   21.0896 N   0  0  0  0  0  0  0  0  0  0  0  0
  -25.2988  -11.4596   20.8137 N   0  0  0  0  0  0  0  0  0  0  0  0
  -31.6024  -19.2868   21.3950 N   0  0  0  0  0  0  0  0  0  0  0  0
  -22.5517  -21.9823   23.4755 N   0  0  0  0  0  0  0  0  0  0  0  0
  -23.6795  -17.8450   27.9121 N   0  0  0  0  0  0  0  0  0  0  0  0
  -31.4313  -20.2624   20.4513 N   0  0  0  0  0  0  0  0  0  0  0  0
  -22.6496  -14.4437   28.5739 N   0  3  0  0  0  0  0  0  0  0  0  0
  -27.9385  -14.1122   20.8903 N   0  3  0  0  0  0  0  0  0  0  0  0
  -30.8852  -30.1129   21.3374 O   0  0  0  0  0  0  0  0  0  0  0  0
  -24.0186  -20.4730   22.4790 O   0  0  0  0  0  0  0  0  0  0  0  0
  -22.3772  -20.0405   26.6110 O   0  0  0  0  0  0  0  0  0  0  0  0
  -24.5817  -15.8672   27.1052 O   0  0  0  0  0  0  0  0  0  0  0  0
  -30.3591  -21.5939   21.9801 O   0  0  0  0  0  0  0  0  0  0  0  0
  -23.2553  -29.3887   19.9784 O   0  0  0  0  0  0  0  0  0  0  0  0
  -25.3999  -15.1457   20.3850 O   0  0  0  0  0  0  0  0  0  1  0  0
  -21.3961  -32.3900   24.2139 F   0  0  0  0  0  0  0  0  0  0  0  0
  -24.4833  -31.7638   20.6808 F   0  0  0  0  0  0  0  0  0  0  0  0
  1  2  1  0  0  0  0
  1  5  2  0  0  0  0
  2  6  2  0  0  0  0
  3  9  2  0  0  0  0
  3 17  1  0  0  0  0
  4 10  1  0  0  0  0
  4 17  2  0  0  0  0
  5 19  1  0  0  0  0
  6 21  1  0  0  0  0
  7 11  2  0  0  0  0
  7 20  1  0  0  0  0
  8 14  2  0  0  0  0
  8 23  1  0  0  0  0
  9 24  1  0  0  0  0
 10 24  2  0  0  0  0
 11 25  1  0  0  0  0
 12 13  2  0  0  0  0
 12 26  1  0  0  0  0
 13 27  1  0  0  0  0
 14 31  1  0  0  0  0
 15 22  1  0  0  0  0
 15 25  2  0  0  0  0
 16 27  2  0  0  0  0
 16 28  1  0  0  0  0
 17 29  1  0  0  0  0
 18 29  1  0  0  0  0
 18 32  2  0  0  0  0
 18 33  1  0  0  0  0
 19 21  2  0  0  0  0
 19 38  1  0  0  0  0
 20 22  2  0  0  0  0
 20 39  1  0  0  0  0
 21 47  1  0  0  0  0
 22 40  1  0  0  0  0
 23 30  2  0  0  0  0
 23 57  1  0  0  0  0
 24 84  1  0  0  0  0
 25 85  1  0  0  0  0
 26 28  2  0  0  0  0
 26 84  1  0  0  0  0
 27 86  1  0  0  0  0
 28 87  1  0  0  0  0
 29 65  2  0  0  0  0
 30 58  1  0  0  0  0
 30 66  1  0  0  0  0
 31 66  2  0  0  0  0
 31 73  1  0  0  0  0
 32 67  1  0  0  0  0
 32 70  1  0  0  0  0
 33 71  1  0  0  0  0
 33 79  2  0  0  0  0
 34 48  1  0  0  0  0
 34 74  1  0  0  0  0
 34 80  2  0  0  0  0
 35 60  1  0  0  0  0
 35 68  1  0  0  0  0
 35 81  2  0  0  0  0
 36 61  1  0  0  0  0
 36 75  1  0  0  0  0
 36 82  2  0  0  0  0
 37 69  1  0  0  0  0
 37 76  1  0  0  0  0
 37 83  2  0  0  0  0
 38 41  1  0  0  0  0
 39 48  1  0  0  0  0
 40 68  1  0  0  0  0
 41 43  1  0  0  0  0
 42 44  1  0  0  0  0
 42 45  1  0  0  0  0
 43 47  1  0  0  0  0
 44 49  1  0  0  0  0
 45 69  1  0  0  0  0
 46 49  1  0  0  0  0
 46 69  1  0  0  0  0
 47 74  1  0  0  0  0
 48 68  1  0  0  0  0
 49 67  1  0  0  0  0
 50 58  1  0  0  0  0
 51 61  1  0  0  0  0
 52 63  1  0  0  0  0
 53 64  1  0  0  0  0
 54 64  1  0  0  0  0
 55 64  1  0  0  0  0
 56 77  1  0  0  0  0
 57 78  1  0  0  0  0
 59 62  1  0  0  0  0
 59 78  1  0  0  0  0
 60 64  1  0  0  0  0
 60 75  1  0  0  0  0
 61 77  1  0  0  0  0
 62 63  1  0  0  0  0
 62 72  1  0  0  0  0
 63 85  1  0  0  0  0
 65 67  1  0  0  0  0
 73 76  1  0  0  0  0
M  CHG  2  77   1  78   1
M  ISO  4  37 100  63 101  76 100  85 101
M  END
> <Batch ID>
0117

> <Smiles>
CCc1nc(N[100NH:0][100C:0](=O)N2CCCC(n3nc(-c4ccc(Oc5ccc(F)cc5F)cc4)c(C(N)=O)c3N)C2)ccc1CNCC(N)[101CH:1](C)[101O:1]c1ccc2c(c1)CN(C(=O)C(NC(=O)C(C)NC)C(C)(C)C)C(C(=O)NC1CCCc3ccccc31)C2

> <Shape>
0.222

> <Color>
0.061

> <Negative vol penalty>
0.000

$$$$

  -OEChem-04052320153D

 89 97  0     1  0  0  0  0  0999 V2000
  -16.4453  -26.6151   22.0046 C   0  0  0  0  0  0  0  0  0  0  0  0
  -17.6723  -26.3860   21.3904 C   0  0  0  0  0  0  0  0  0  0  0  0
  -22.0919  -15.0658   22.2836 C   0  0  0  0  0  0  0  0  0  0  0  0
  -24.3391  -14.1808   22.3478 C   0  0  0  0  0  0  0  0  0  0  0  0
  -16.3271  -27.6106   22.9736 C   0  0  0  0  0  0  0  0  0  0  0  0
  -18.7817  -27.1532   21.7440 C   0  0  0  0  0  0  0  0  0  0  0  0
  -22.9509  -24.3540   22.3973 C   0  0  0  0  0  0  0  0  0  0  0  0
  -29.7860  -24.2102   21.2338 C   0  0  0  0  0  0  0  0  0  0  0  0
  -21.5809  -13.7820   22.4745 C   0  0  0  0  0  0  0  0  0  0  0  0
  -23.8281  -12.8971   22.5387 C   0  0  0  0  0  0  0  0  0  0  0  0
  -23.6192  -23.9296   21.2497 C   0  0  0  0  0  0  0  0  0  0  0  0
  -22.4419  -10.4608   20.6482 C   0  0  0  0  0  0  0  0  0  0  0  0
  -22.9932   -9.4250   19.8941 C   0  0  0  0  0  0  0  0  0  0  0  0
  -30.5646  -24.7165   20.1990 C   0  0  0  0  0  0  0  0  0  0  0  0
  -25.2199  -25.7125   21.5298 C   0  0  0  0  0  0  0  0  0  0  0  0
  -23.6590   -8.2999   21.9258 C   0  0  0  0  0  0  0  0  0  0  0  0
  -23.4711  -15.2652   22.2202 C   0  0  0  0  0  0  0  0  0  0  0  0
  -24.3401  -17.5274   23.0168 C   0  0  0  0  0  0  0  0  0  0  0  0
  -17.4379  -28.3838   23.3462 C   0  0  0  0  0  0  0  0  0  0  0  0
  -23.4066  -25.4693   23.1149 C   0  0  0  0  0  0  0  0  0  0  0  0
  -18.6780  -28.1609   22.7179 C   0  0  0  0  0  0  0  0  0  0  0  0
  -24.5571  -26.1474   22.6876 C   0  0  0  0  0  0  0  0  0  0  0  0
  -28.9267  -23.1441   20.9923 C   0  0  0  0  0  0  0  0  0  0  0  0
  -22.4490  -12.6977   22.6021 C   0  0  0  0  0  0  0  0  0  0  0  0
  -24.7522  -24.6106   20.8141 C   0  0  0  0  0  0  0  0  0  0  0  0
  -22.4992  -10.4162   22.0413 C   0  0  0  0  0  0  0  0  0  0  0  0
  -23.6017   -8.3446   20.5328 C   0  0  0  0  0  0  0  0  0  0  0  0
  -23.1077   -9.3358   22.6800 C   0  0  0  0  0  0  0  0  0  0  0  0
  -23.9995  -16.5910   22.0224 C   0  0  0  0  0  0  0  0  0  0  0  0
  -30.4479  -24.1261   18.9510 C   0  0  0  0  0  0  0  0  0  0  0  0
  -28.8832  -22.6243   19.7087 C   0  0  0  0  0  0  0  0  0  0  0  0
  -24.7915  -18.6207   22.3187 C   0  0  0  0  0  0  0  0  0  0  0  0
  -24.2561  -17.4187   24.4440 C   0  0  0  0  0  0  0  0  0  0  0  0
  -22.1931  -28.3146   23.8464 C   0  0  0  0  0  0  0  0  0  0  0  0
  -24.8947  -28.5764   25.6227 C   0  0  0  0  0  0  0  0  0  0  0  0
  -29.2305  -25.2872   16.4638 C   0  0  0  0  0  0  0  0  0  0  0  0
  -28.1222  -27.6000   26.1485 C   0  0  0  0  0  0  0  0  0  0  0  0
  -27.8268  -20.8775   18.2325 C   0  0  0  0  0  0  0  0  0  0  0  0
  -17.2504  -29.4803   24.3647 C   0  0  0  0  0  0  0  0  0  0  0  0
  -22.6900  -25.8982   24.3658 C   0  0  0  0  0  0  0  0  0  0  0  0
  -25.0987  -27.3383   23.4338 C   0  0  0  0  0  0  0  0  0  0  0  0
  -18.5614  -29.9973   24.9514 C   0  0  0  0  0  0  0  0  0  0  0  0
  -24.5819  -19.6888   17.3753 C   0  0  0  0  0  0  0  0  0  0  0  0
  -19.5789  -30.2506   23.8436 C   0  0  0  0  0  0  0  0  0  0  0  0
  -24.1691  -18.8539   18.5897 C   0  0  0  0  0  0  0  0  0  0  0  0
  -26.0732  -19.5521   17.0735 C   0  0  0  0  0  0  0  0  0  0  0  0
  -26.5511  -18.9882   19.4236 C   0  0  0  0  0  0  0  0  0  0  0  0
  -19.9103  -28.9556   23.0922 C   0  0  1  0  0  0  0  0  0  0  0  0
  -22.9437  -27.3580   24.7291 C   0  0  1  0  0  0  0  0  0  0  0  0
  -25.0702  -19.1445   19.8060 C   0  0  2  0  0  0  0  0  0  0  0  0
  -30.3447  -27.4286   27.3012 C   0  0  0  0  0  0  0  0  0  0  0  0
  -29.3968  -22.6158   24.0887 C   0  0  0  0  0  0  0  0  0  0  0  0
  -26.8824  -22.7701   24.0838 C   0  0  0  0  0  0  0  0  0  0  0  0
  -25.4370  -31.2108   24.1819 C   0  0  0  0  0  0  0  0  0  0  0  0
  -27.8000  -31.0918   25.0007 C   0  0  0  0  0  0  0  0  0  0  0  0
  -25.9217  -31.2444   26.6352 C   0  0  0  0  0  0  0  0  0  0  0  0
  -27.2224  -25.3109   27.7945 C   0  0  0  0  0  0  0  0  0  0  0  0
  -31.2784  -24.6477   17.8070 C   0  0  0  0  0  0  0  0  0  0  0  0
  -30.5547  -25.7540   17.0418 C   0  0  0  0  0  0  0  0  0  0  0  0
  -26.1118  -24.7651   17.4713 C   0  0  0  0  0  0  0  0  0  0  0  0
  -26.8000  -25.7785   16.5668 C   0  0  0  0  0  0  0  0  0  0  0  0
  -26.0819  -25.1984   18.9320 C   0  0  0  0  0  0  0  0  0  1  0  0
  -26.2935  -29.0859   25.3724 C   0  0  1  0  0  0  0  0  0  0  0  0
  -28.8507  -27.1650   27.4073 C   0  0  2  0  0  0  0  0  0  0  0  0
  -28.1694  -23.1566   23.3697 C   0  0  0  0  0  0  0  0  0  0  0  0
  -26.3520  -30.6370   25.2822 C   0  0  0  0  0  0  0  0  0  0  0  0
  -24.2159  -17.0494   20.7867 N   0  0  0  0  0  0  0  0  0  0  0  0
  -29.6243  -23.0894   18.6782 N   0  0  0  0  0  0  0  0  0  0  0  0
  -24.6972  -18.2859   20.9999 N   0  0  0  0  0  0  0  0  0  0  0  0
  -24.3594  -27.7229   24.6475 N   0  0  0  0  0  0  0  0  0  0  0  0
  -26.8645  -19.8463   18.2703 N   0  0  0  0  0  0  0  0  0  0  0  0
  -25.2558  -19.8263   22.7104 N   0  0  0  0  0  0  0  0  0  0  0  0
  -23.7697  -16.2256   24.9957 N   0  0  0  0  0  0  0  0  0  0  0  0
  -28.1365  -22.6313   22.0382 N   0  0  0  0  0  0  0  0  0  0  0  0
  -28.0140  -21.5361   19.4473 N   0  0  0  0  0  0  0  0  0  0  0  0
  -20.8223  -28.1413   23.8665 N   0  0  0  0  0  0  0  0  0  0  0  0
  -28.1601  -26.0256   16.9581 N   0  0  0  0  0  0  0  0  0  0  0  0
  -27.1296  -28.5166   26.4237 N   0  0  0  0  0  0  0  0  0  0  0  0
  -28.6462  -25.7084   27.6469 N   0  3  0  0  0  0  0  0  0  0  0  0
  -24.5866  -18.3579   25.2070 O   0  0  0  0  0  0  0  0  0  0  0  0
  -22.8116  -29.1492   23.1965 O   0  0  0  0  0  0  0  0  0  0  0  0
  -24.3016  -28.9172   26.6492 O   0  0  0  0  0  0  0  0  0  0  0  0
  -29.1342  -24.3652   15.6582 O   0  0  0  0  0  0  0  0  0  0  0  0
  -28.4079  -27.1725   25.0322 O   0  0  0  0  0  0  0  0  0  0  0  0
  -28.4201  -21.1737   17.1922 O   0  0  0  0  0  0  0  0  0  0  0  0
  -21.9507  -11.4449   22.7886 O   0  0  0  0  0  0  0  0  0  0  0  0
  -25.4060  -24.1989   19.6939 O   0  0  0  0  0  0  0  0  0  1  0  0
  -24.1298   -7.3492   19.8085 F   0  0  0  0  0  0  0  0  0  0  0  0
  -23.1647   -9.2868   24.0180 F   0  0  0  0  0  0  0  0  0  0  0  0
  1  2  1  0  0  0  0
  1  5  2  0  0  0  0
  2  6  2  0  0  0  0
  3  9  2  0  0  0  0
  3 17  1  0  0  0  0
  4 10  1  0  0  0  0
  4 17  2  0  0  0  0
  5 19  1  0  0  0  0
  6 21  1  0  0  0  0
  7 11  2  0  0  0  0
  7 20  1  0  0  0  0
  8 14  2  0  0  0  0
  8 23  1  0  0  0  0
  9 24  1  0  0  0  0
 10 24  2  0  0  0  0
 11 25  1  0  0  0  0
 12 13  2  0  0  0  0
 12 26  1  0  0  0  0
 13 27  1  0  0  0  0
 14 30  1  0  0  0  0
 15 22  1  0  0  0  0
 15 25  2  0  0  0  0
 16 27  2  0  0  0  0
 16 28  1  0  0  0  0
 17 29  1  0  0  0  0
 18 29  1  0  0  0  0
 18 32  2  0  0  0  0
 18 33  1  0  0  0  0
 19 21  2  0  0  0  0
 19 39  1  0  0  0  0
 20 22  2  0  0  0  0
 20 40  1  0  0  0  0
 21 48  1  0  0  0  0
 22 41  1  0  0  0  0
 23 31  2  0  0  0  0
 23 74  1  0  0  0  0
 24 86  1  0  0  0  0
 25 87  1  0  0  0  0
 26 28  2  0  0  0  0
 26 86  1  0  0  0  0
 27 88  1  0  0  0  0
 28 89  1  0  0  0  0
 29 67  2  0  0  0  0
 30 58  1  0  0  0  0
 30 68  2  0  0  0  0
 31 68  1  0  0  0  0
 31 75  1  0  0  0  0
 32 69  1  0  0  0  0
 32 72  1  0  0  0  0
 33 73  1  0  0  0  0
 33 80  2  0  0  0  0
 34 49  1  0  0  0  0
 34 76  1  0  0  0  0
 34 81  2  0  0  0  0
 35 63  1  0  0  0  0
 35 70  1  0  0  0  0
 35 82  2  0  0  0  0
 36 59  1  0  0  0  0
 36 77  1  0  0  0  0
 36 83  2  0  0  0  0
 37 64  1  0  0  0  0
 37 78  1  0  0  0  0
 37 84  2  0  0  0  0
 38 71  1  0  0  0  0
 38 75  1  0  0  0  0
 38 85  2  0  0  0  0
 39 42  1  0  0  0  0
 40 49  1  0  0  0  0
 41 70  1  0  0  0  0
 42 44  1  0  0  0  0
 43 45  1  0  0  0  0
 43 46  1  0  0  0  0
 44 48  1  0  0  0  0
 45 50  1  0  0  0  0
 46 71  1  0  0  0  0
 47 50  1  0  0  0  0
 47 71  1  0  0  0  0
 48 76  1  0  0  0  0
 49 70  1  0  0  0  0
 50 69  1  0  0  0  0
 51 64  1  0  0  0  0
 52 65  1  0  0  0  0
 53 65  1  0  0  0  0
 54 66  1  0  0  0  0
 55 66  1  0  0  0  0
 56 66  1  0  0  0  0
 57 79  1  0  0  0  0
 58 59  1  0  0  0  0
 60 61  1  0  0  0  0
 60 62  1  0  0  0  0
 61 77  1  0  0  0  0
 62 87  1  0  0  0  0
 63 66  1  0  0  0  0
 63 78  1  0  0  0  0
 64 79  1  0  0  0  0
 65 74  1  0  0  0  0
 67 69  1  0  0  0  0
M  CHG  1  79   1
M  ISO  4  38 100  62 101  75 100  87 101
M  END
> <Batch ID>
0117

> <Smiles>
CNC(C)C(=O)NC(C(=O)N1Cc2cc([101O:1][101CH2:1]CCNC(=O)CCc3ccc(NC(C)C)c([100NH:0][100C:0](=O)N4CCCC(n5nc(-c6ccc(Oc7ccc(F)cc7F)cc6)c(C(N)=O)c5N)C4)n3)ccc2CC1C(=O)NC1CCCc2ccccc21)C(C)(C)C

> <Shape>
0.199

> <Color>
0.065

> <Negative vol penalty>
0.000

$$$$

  -OEChem-04052320153D

 90 98  0     1  0  0  0  0  0999 V2000
  -32.3432  -15.8445   20.6275 C   0  0  0  0  0  0  0  0  0  0  0  0
  -31.3509  -16.6456   21.1834 C   0  0  0  0  0  0  0  0  0  0  0  0
  -28.6546  -25.0297   20.9422 C   0  0  0  0  0  0  0  0  0  0  0  0
  -29.2043  -26.1448   18.8707 C   0  0  0  0  0  0  0  0  0  0  0  0
  -31.9977  -14.8144   19.7537 C   0  0  0  0  0  0  0  0  0  0  0  0
  -30.0126  -16.4177   20.8650 C   0  0  0  0  0  0  0  0  0  0  0  0
  -25.1776  -17.1277   24.5562 C   0  0  0  0  0  0  0  0  0  0  0  0
  -28.8141  -23.7923   20.3184 C   0  0  0  0  0  0  0  0  0  0  0  0
  -29.3639  -24.9075   18.2469 C   0  0  0  0  0  0  0  0  0  0  0  0
  -24.2516  -18.1598   24.7010 C   0  0  0  0  0  0  0  0  0  0  0  0
  -27.0332  -21.7976   18.2512 C   0  0  0  0  0  0  0  0  0  0  0  0
  -26.0630  -20.8236   18.4875 C   0  0  0  0  0  0  0  0  0  0  0  0
  -22.7317  -16.9937   23.2349 C   0  0  0  0  0  0  0  0  0  0  0  0
  -27.7521  -19.3661   19.4146 C   0  0  0  0  0  0  0  0  0  0  0  0
  -28.8497  -26.2060   20.2183 C   0  0  0  0  0  0  0  0  0  0  0  0
  -29.6721  -28.2349   21.5278 C   0  0  0  0  0  0  0  0  0  0  0  0
  -30.6538  -14.5676   19.4319 C   0  0  0  0  0  0  0  0  0  0  0  0
  -24.8915  -16.0241   23.7397 C   0  0  0  0  0  0  0  0  0  0  0  0
  -29.6489  -15.3842   19.9850 C   0  0  0  0  0  0  0  0  0  0  0  0
  -23.6547  -15.9477   23.0835 C   0  0  0  0  0  0  0  0  0  0  0  0
  -29.1687  -23.7312   18.9708 C   0  0  0  0  0  0  0  0  0  0  0  0
  -23.0296  -18.0944   24.0380 C   0  0  0  0  0  0  0  0  0  0  0  0
  -28.3628  -21.5557   18.5965 C   0  0  0  0  0  0  0  0  0  0  0  0
  -26.4225  -19.6079   19.0693 C   0  0  0  0  0  0  0  0  0  0  0  0
  -28.7223  -20.3400   19.1782 C   0  0  0  0  0  0  0  0  0  0  0  0
  -28.6845  -27.4845   20.8619 C   0  0  0  0  0  0  0  0  0  0  0  0
  -29.0149  -29.3614   21.9588 C   0  0  0  0  0  0  0  0  0  0  0  0
  -31.0594  -27.9402   21.7378 C   0  0  0  0  0  0  0  0  0  0  0  0
  -26.1827  -14.7817   21.1142 C   0  0  0  0  0  0  0  0  0  0  0  0
  -24.0112  -12.4278   21.6303 C   0  0  0  0  0  0  0  0  0  0  0  0
  -21.0449  -11.4775   23.0246 C   0  0  0  0  0  0  0  0  0  0  0  0
  -23.4355  -30.6174   23.2838 C   0  0  0  0  0  0  0  0  0  0  0  0
  -30.3327  -13.4728   18.4456 C   0  0  0  0  0  0  0  0  0  0  0  0
  -25.8902  -14.9063   23.6152 C   0  0  0  0  0  0  0  0  0  0  0  0
  -23.2909  -14.7749   22.2113 C   0  0  0  0  0  0  0  0  0  0  0  0
  -28.8635  -13.0585   18.4523 C   0  0  0  0  0  0  0  0  0  0  0  0
  -25.3352  -32.2083   20.8717 C   0  0  0  0  0  0  0  0  0  0  0  0
  -27.9619  -14.2889   18.4359 C   0  0  0  0  0  0  0  0  0  0  0  0
  -26.5128  -31.2593   20.6510 C   0  0  0  0  0  0  0  0  0  0  0  0
  -24.0314  -31.4332   21.0231 C   0  0  0  0  0  0  0  0  0  0  0  0
  -25.2304  -29.4618   21.9148 C   0  0  0  0  0  0  0  0  0  0  0  0
  -22.6800  -28.2003   23.2947 C   0  0  0  0  0  0  0  0  0  0  0  0
  -21.1899  -29.1798   25.5979 C   0  0  0  0  0  0  0  0  0  0  0  0
  -28.1842  -15.1524   19.6834 C   0  0  1  0  0  0  0  0  0  0  0  0
  -25.7019  -14.0750   22.3500 C   0  0  1  0  0  0  0  0  0  0  0  0
  -26.5788  -30.1941   21.7599 C   0  0  1  0  0  0  0  0  0  0  0  0
  -22.6555  -29.5514   25.3875 C   0  0  1  0  0  0  0  0  0  0  0  0
  -21.2076  -27.8124   23.4938 C   0  0  1  0  0  0  0  0  0  0  0  0
  -23.6099  -28.7175   26.2471 C   0  0  0  0  0  0  0  0  0  0  0  0
  -19.5153   -9.5002   23.2443 C   0  0  0  0  0  0  0  0  0  0  0  0
  -18.9089  -27.1958   20.7192 C   0  0  0  0  0  0  0  0  0  0  0  0
  -20.7794  -27.4993   19.0848 C   0  0  0  0  0  0  0  0  0  0  0  0
  -18.5259  -28.4722   24.6990 C   0  0  0  0  0  0  0  0  0  0  0  0
  -19.3141  -27.3295   26.8078 C   0  0  0  0  0  0  0  0  0  0  0  0
  -23.0608  -12.8474   18.7614 C   0  0  0  0  0  0  0  0  0  0  0  0
  -20.9843  -11.5723   19.3367 C   0  0  0  0  0  0  0  0  0  0  0  0
  -23.2101  -10.4540   19.4715 C   0  0  0  0  0  0  0  0  0  0  0  0
  -21.3095  -11.4536   25.9722 C   0  0  0  0  0  0  0  0  0  0  0  0
  -22.2347  -22.8807   24.0093 C   0  0  0  0  0  0  0  0  0  0  0  0
  -21.3103  -23.9118   23.3556 C   0  0  0  0  0  0  0  0  0  0  0  0
  -21.7171  -21.4553   23.7944 C   0  0  0  0  0  0  0  0  0  0  0  0
  -21.8124  -25.3395   23.5987 C   0  0  0  0  0  0  0  0  0  0  0  0
  -21.2219  -26.4707   21.3803 C   0  0  0  0  0  0  0  0  0  0  0  0
  -22.6357  -20.4094   24.4142 C   0  0  0  0  0  0  0  0  0  1  0  0
  -22.5829  -12.1799   21.2093 C   0  0  1  0  0  0  0  0  0  0  0  0
  -20.6681  -10.2721   23.8671 C   0  0  2  0  0  0  0  0  0  0  0  0
  -20.9578  -26.4246   22.9060 C   0  0  2  0  0  0  0  0  0  0  0  0
  -20.4039  -27.4943   20.5667 C   0  0  0  0  0  0  0  0  0  0  0  0
  -19.4608  -27.4340   25.2983 C   0  0  0  0  0  0  0  0  0  0  0  0
  -22.4669  -11.7866   19.7095 C   0  0  0  0  0  0  0  0  0  0  0  0
  -27.4907  -28.0836   20.8671 N   0  0  0  0  0  0  0  0  0  0  0  0
  -27.7239  -29.2224   21.5415 N   0  0  0  0  0  0  0  0  0  0  0  0
  -24.3032  -13.7102   22.1163 N   0  0  0  0  0  0  0  0  0  0  0  0
  -24.1344  -30.4288   22.0815 N   0  0  0  0  0  0  0  0  0  0  0  0
  -23.0173  -29.4622   23.9661 N   0  0  0  0  0  0  0  0  0  0  0  0
  -29.4213  -30.4472   22.6503 N   0  0  0  0  0  0  0  0  0  0  0  0
  -31.5719  -26.7393   21.2282 N   0  0  0  0  0  0  0  0  0  0  0  0
  -27.5176  -14.5686   20.8276 N   0  0  0  0  0  0  0  0  0  0  0  0
  -22.0529  -11.1815   22.1316 N   0  0  0  0  0  0  0  0  0  0  0  0
  -20.8824  -27.8308   24.9818 N   0  3  2  0  0  0  0  0  0  0  0  0
  -20.2611  -10.7027   25.2345 N   0  3  0  0  0  0  0  0  0  0  0  0
  -31.8182  -28.7109   22.3731 O   0  0  0  0  0  0  0  0  0  0  0  0
  -25.4001  -15.4683   20.4678 O   0  0  0  0  0  0  0  0  0  0  0  0
  -24.8359  -11.5151   21.5383 O   0  0  0  0  0  0  0  0  0  0  0  0
  -20.4969  -12.5711   23.1441 O   0  0  0  0  0  0  0  0  0  0  0  0
  -23.1991  -31.7509   23.7201 O   0  0  0  0  0  0  0  0  0  0  0  0
  -29.3247  -22.5239   18.3619 O   0  0  0  0  0  0  0  0  0  0  0  0
  -22.1174  -19.1084   24.1781 O   0  0  0  0  0  0  0  0  0  1  0  0
  -25.4905  -18.6733   19.2976 F   0  0  0  0  0  0  0  0  0  0  0  0
  -29.9979  -20.1024   19.5132 F   0  0  0  0  0  0  0  0  0  0  0  0
  1  2  1  0  0  0  0
  1  5  2  0  0  0  0
  2  6  2  0  0  0  0
  3  8  2  0  0  0  0
  3 15  1  0  0  0  0
  4  9  1  0  0  0  0
  4 15  2  0  0  0  0
  5 17  1  0  0  0  0
  6 19  1  0  0  0  0
  7 10  2  0  0  0  0
  7 18  1  0  0  0  0
  8 21  1  0  0  0  0
  9 21  2  0  0  0  0
 10 22  1  0  0  0  0
 11 12  2  0  0  0  0
 11 23  1  0  0  0  0
 12 24  1  0  0  0  0
 13 20  1  0  0  0  0
 13 22  2  0  0  0  0
 14 24  2  0  0  0  0
 14 25  1  0  0  0  0
 15 26  1  0  0  0  0
 16 26  1  0  0  0  0
 16 27  2  0  0  0  0
 16 28  1  0  0  0  0
 17 19  2  0  0  0  0
 17 33  1  0  0  0  0
 18 20  2  0  0  0  0
 18 34  1  0  0  0  0
 19 44  1  0  0  0  0
 20 35  1  0  0  0  0
 21 87  1  0  0  0  0
 22 88  1  0  0  0  0
 23 25  2  0  0  0  0
 23 87  1  0  0  0  0
 24 89  1  0  0  0  0
 25 90  1  0  0  0  0
 26 71  2  0  0  0  0
 27 72  1  0  0  0  0
 27 76  1  0  0  0  0
 28 77  1  0  0  0  0
 28 82  2  0  0  0  0
 29 45  1  0  0  0  0
 29 78  1  0  0  0  0
 29 83  2  0  0  0  0
 30 65  1  0  0  0  0
 30 73  1  0  0  0  0
 30 84  2  0  0  0  0
 31 66  1  0  0  0  0
 31 79  1  0  0  0  0
 31 85  2  0  0  0  0
 32 74  1  0  0  0  0
 32 75  1  0  0  0  0
 32 86  2  0  0  0  0
 33 36  1  0  0  0  0
 34 45  1  0  0  0  0
 35 73  1  0  0  0  0
 36 38  1  0  0  0  0
 37 39  1  0  0  0  0
 37 40  1  0  0  0  0
 38 44  1  0  0  0  0
 39 46  1  0  0  0  0
 40 74  1  0  0  0  0
 41 46  1  0  0  0  0
 41 74  1  0  0  0  0
 42 48  1  0  0  0  0
 42 75  1  0  0  0  0
 43 47  1  0  0  0  0
 43 80  1  0  0  0  0
 44 78  1  0  0  0  0
 45 73  1  0  0  0  0
 46 72  1  0  0  0  0
 47 49  1  0  0  0  0
 47 75  1  0  0  0  0
 48 67  1  0  0  0  0
 48 80  1  0  0  0  0
 50 66  1  0  0  0  0
 51 68  1  0  0  0  0
 52 68  1  0  0  0  0
 53 69  1  0  0  0  0
 54 69  1  0  0  0  0
 55 70  1  0  0  0  0
 56 70  1  0  0  0  0
 57 70  1  0  0  0  0
 58 81  1  0  0  0  0
 59 60  1  0  0  0  0
 59 61  1  0  0  0  0
 60 62  1  0  0  0  0
 61 64  1  0  0  0  0
 62 67  1  0  0  0  0
 63 67  1  0  0  0  0
 63 68  1  0  0  0  0
 64 88  1  0  0  0  0
 65 70  1  0  0  0  0
 65 79  1  0  0  0  0
 66 81  1  0  0  0  0
 69 80  1  0  0  0  0
 71 72  1  0  0  0  0
M  CHG  2  80   1  81   1
M  ISO  4  32 100  64 101  75 100  88 101
M  END
> <Batch ID>
0117

> <Smiles>
CNC(C)C(=O)NC(C(=O)N1Cc2cc([101O:1][101CH2:1]CCCCC(CC(C)C)C3C[100N:0]([100C:0](=O)N4CCCC(n5nc(-c6ccc(Oc7ccc(F)cc7F)cc6)c(C(N)=O)c5N)C4)C(C)CN3C(C)C)ccc2CC1C(=O)NC1CCCc2ccccc21)C(C)(C)C

> <Shape>
0.255

> <Color>
0.054

> <Negative vol penalty>
0.000

$$$$

  -OEChem-04052320153D

 89 97  0     1  0  0  0  0  0999 V2000
  -23.8167  -33.5060   23.2512 C   0  0  0  0  0  0  0  0  0  0  0  0
  -22.5519  -33.1017   22.8364 C   0  0  0  0  0  0  0  0  0  0  0  0
  -31.6358  -20.7654   19.5685 C   0  0  0  0  0  0  0  0  0  0  0  0
  -29.5717  -21.2848   20.7116 C   0  0  0  0  0  0  0  0  0  0  0  0
  -24.9437  -32.7940   22.8428 C   0  0  0  0  0  0  0  0  0  0  0  0
  -22.4134  -31.9857   22.0119 C   0  0  0  0  0  0  0  0  0  0  0  0
  -18.4492  -26.3307   24.0604 C   0  0  0  0  0  0  0  0  0  0  0  0
  -31.6946  -22.0711   19.0812 C   0  0  0  0  0  0  0  0  0  0  0  0
  -29.6305  -22.5905   20.2244 C   0  0  0  0  0  0  0  0  0  0  0  0
  -17.5381  -25.2994   24.2898 C   0  0  0  0  0  0  0  0  0  0  0  0
  -31.2773  -25.4491   20.9572 C   0  0  0  0  0  0  0  0  0  0  0  0
  -31.0115  -26.4856   21.8519 C   0  0  0  0  0  0  0  0  0  0  0  0
  -18.2237  -24.2225   22.2360 C   0  0  0  0  0  0  0  0  0  0  0  0
  -21.7694  -14.1402   21.8607 C   0  0  0  0  0  0  0  0  0  0  0  0
  -23.6876  -15.5801   21.6823 C   0  0  0  0  0  0  0  0  0  0  0  0
  -29.1596  -27.1997   20.4744 C   0  0  0  0  0  0  0  0  0  0  0  0
  -30.5744  -20.3723   20.3836 C   0  0  0  0  0  0  0  0  0  0  0  0
  -31.0580  -18.5398   22.0912 C   0  0  0  0  0  0  0  0  0  0  0  0
  -24.8183  -31.6631   22.0207 C   0  0  0  0  0  0  0  0  0  0  0  0
  -19.2628  -26.3038   22.9243 C   0  0  0  0  0  0  0  0  0  0  0  0
  -23.5399  -31.2587   21.5909 C   0  0  0  0  0  0  0  0  0  0  0  0
  -19.1469  -25.2463   22.0072 C   0  0  0  0  0  0  0  0  0  0  0  0
  -30.6919  -22.9836   19.4092 C   0  0  0  0  0  0  0  0  0  0  0  0
  -17.4255  -24.2481   23.3797 C   0  0  0  0  0  0  0  0  0  0  0  0
  -30.4843  -25.2879   19.8210 C   0  0  0  0  0  0  0  0  0  0  0  0
  -22.4131  -15.3308   22.1791 C   0  0  0  0  0  0  0  0  0  0  0  0
  -29.9527  -27.3609   21.6106 C   0  0  0  0  0  0  0  0  0  0  0  0
  -29.4255  -26.1632   19.5797 C   0  0  0  0  0  0  0  0  0  0  0  0
  -30.5128  -19.0235   20.8868 C   0  0  0  0  0  0  0  0  0  0  0  0
  -22.4379  -13.2388   21.0481 C   0  0  0  0  0  0  0  0  0  0  0  0
  -24.2703  -14.6141   20.8779 C   0  0  0  0  0  0  0  0  0  0  0  0
  -30.7294  -17.2063   22.1057 C   0  0  0  0  0  0  0  0  0  0  0  0
  -31.7953  -19.2339   23.1063 C   0  0  0  0  0  0  0  0  0  0  0  0
  -21.9686  -27.9790   20.9373 C   0  0  0  0  0  0  0  0  0  0  0  0
  -22.5397  -24.9661   20.8572 C   0  0  0  0  0  0  0  0  0  0  0  0
  -23.1351  -21.4095   20.8063 C   0  0  0  0  0  0  0  0  0  0  0  0
  -26.3398  -14.0556   19.5544 C   0  0  0  0  0  0  0  0  0  0  0  0
  -26.0691  -30.9534   21.5665 C   0  0  0  0  0  0  0  0  0  0  0  0
  -20.2146  -27.4246   22.6054 C   0  0  0  0  0  0  0  0  0  0  0  0
  -20.0181  -25.2768   20.7813 C   0  0  0  0  0  0  0  0  0  0  0  0
  -25.8073  -29.5609   20.9985 C   0  0  0  0  0  0  0  0  0  0  0  0
  -29.8401  -13.5365   19.1602 C   0  0  0  0  0  0  0  0  0  0  0  0
  -24.6384  -29.5949   20.0191 C   0  0  0  0  0  0  0  0  0  0  0  0
  -30.4598  -14.8383   19.6735 C   0  0  0  0  0  0  0  0  0  0  0  0
  -28.5311  -13.7872   18.4137 C   0  0  0  0  0  0  0  0  0  0  0  0
  -28.1548  -15.8746   19.6668 C   0  0  0  0  0  0  0  0  0  0  0  0
  -23.3469  -30.0387   20.7166 C   0  0  1  0  0  0  0  0  0  0  0  0
  -21.5055  -26.9433   21.9192 C   0  0  1  0  0  0  0  0  0  0  0  0
  -29.4418  -15.6667   20.4817 C   0  0  2  0  0  0  0  0  0  0  0  0
  -25.2025  -20.1094   20.2292 C   0  0  0  0  0  0  0  0  0  0  0  0
  -20.4408  -12.2006   19.9170 C   0  0  0  0  0  0  0  0  0  0  0  0
  -21.4408  -11.1095   21.9531 C   0  0  0  0  0  0  0  0  0  0  0  0
  -22.6147  -11.0037   19.7640 C   0  0  0  0  0  0  0  0  0  0  0  0
  -21.3236  -24.8316   18.0631 C   0  0  0  0  0  0  0  0  0  0  0  0
  -22.1764  -22.4846   17.8820 C   0  0  0  0  0  0  0  0  0  0  0  0
  -23.7808  -24.3752   18.1549 C   0  0  0  0  0  0  0  0  0  0  0  0
  -23.1074  -19.9897   23.4029 C   0  0  0  0  0  0  0  0  0  0  0  0
  -16.2463  -20.8940   24.0049 C   0  0  0  0  0  0  0  0  0  0  0  0
  -19.9193  -17.7225   23.2368 C   0  0  0  0  0  0  0  0  0  0  0  0
  -16.5503  -19.4665   23.5756 C   0  0  0  0  0  0  0  0  0  0  0  0
  -18.4062  -17.8429   23.1779 C   0  0  0  0  0  0  0  0  0  0  0  0
  -16.8713  -21.9515   23.1033 C   0  0  0  0  0  0  0  0  0  1  0  0
  -20.3755  -16.3045   22.9249 C   0  0  0  0  0  0  0  0  0  0  0  0
  -22.3582  -23.6634   20.1200 C   0  0  1  0  0  0  0  0  0  0  0  0
  -24.3519  -20.6837   21.3514 C   0  0  2  0  0  0  0  0  0  0  0  0
  -21.7763  -11.9518   20.6836 C   0  0  0  0  0  0  0  0  0  0  0  0
  -22.3925  -23.8462   18.5764 C   0  0  0  0  0  0  0  0  0  0  0  0
  -29.8857  -18.0744   20.1868 N   0  0  0  0  0  0  0  0  0  0  0  0
  -23.6762  -13.4457   20.5467 N   0  0  0  0  0  0  0  0  0  0  0  0
  -30.0349  -16.9810   20.9538 N   0  0  0  0  0  0  0  0  0  0  0  0
  -21.3806  -25.6975   21.1436 N   0  0  0  0  0  0  0  0  0  0  0  0
  -27.6145  -14.5737   19.2420 N   0  0  0  0  0  0  0  0  0  0  0  0
  -30.9699  -16.2161   22.9913 N   0  0  0  0  0  0  0  0  0  0  0  0
  -32.0447  -20.6022   22.9332 N   0  0  0  0  0  0  0  0  0  0  0  0
  -25.5686  -14.8777   20.3754 N   0  0  0  0  0  0  0  0  0  0  0  0
  -22.7872  -28.9479   21.4855 N   0  0  0  0  0  0  0  0  0  0  0  0
  -23.3772  -22.7564   20.6371 N   0  0  0  0  0  0  0  0  0  0  0  0
  -23.9318  -19.5652   22.2422 N   0  3  0  0  0  0  0  0  0  0  0  0
  -18.0131  -19.2343   23.5343 N   0  3  0  0  0  0  0  0  0  0  0  0
  -32.2346  -18.6543   24.1283 O   0  0  0  0  0  0  0  0  0  0  0  0
  -21.6114  -27.9049   19.7674 O   0  0  0  0  0  0  0  0  0  0  0  0
  -23.6775  -25.3304   21.1669 O   0  0  0  0  0  0  0  0  0  0  0  0
  -22.0770  -20.8382   20.5523 O   0  0  0  0  0  0  0  0  0  0  0  0
  -25.9707  -12.9510   19.1475 O   0  0  0  0  0  0  0  0  0  0  0  0
  -30.7490  -24.2578   18.9341 O   0  0  0  0  0  0  0  0  0  0  0  0
  -16.5372  -23.2422   23.6121 O   0  0  0  0  0  0  0  0  0  1  0  0
  -21.7945  -16.2552   22.9803 O   0  0  0  0  0  0  0  0  0  0  0  0
  -29.6965  -28.3553   22.4707 F   0  0  0  0  0  0  0  0  0  0  0  0
  -28.6594  -26.0126   18.4905 F   0  0  0  0  0  0  0  0  0  0  0  0
  1  2  1  0  0  0  0
  1  5  2  0  0  0  0
  2  6  2  0  0  0  0
  3  8  2  0  0  0  0
  3 17  1  0  0  0  0
  4  9  1  0  0  0  0
  4 17  2  0  0  0  0
  5 19  1  0  0  0  0
  6 21  1  0  0  0  0
  7 10  2  0  0  0  0
  7 20  1  0  0  0  0
  8 23  1  0  0  0  0
  9 23  2  0  0  0  0
 10 24  1  0  0  0  0
 11 12  2  0  0  0  0
 11 25  1  0  0  0  0
 12 27  1  0  0  0  0
 13 22  1  0  0  0  0
 13 24  2  0  0  0  0
 14 26  2  0  0  0  0
 14 30  1  0  0  0  0
 15 26  1  0  0  0  0
 15 31  2  0  0  0  0
 16 27  2  0  0  0  0
 16 28  1  0  0  0  0
 17 29  1  0  0  0  0
 18 29  1  0  0  0  0
 18 32  2  0  0  0  0
 18 33  1  0  0  0  0
 19 21  2  0  0  0  0
 19 38  1  0  0  0  0
 20 22  2  0  0  0  0
 20 39  1  0  0  0  0
 21 47  1  0  0  0  0
 22 40  1  0  0  0  0
 23 85  1  0  0  0  0
 24 86  1  0  0  0  0
 25 28  2  0  0  0  0
 25 85  1  0  0  0  0
 26 87  1  0  0  0  0
 27 88  1  0  0  0  0
 28 89  1  0  0  0  0
 29 68  2  0  0  0  0
 30 66  1  0  0  0  0
 30 69  2  0  0  0  0
 31 69  1  0  0  0  0
 31 75  1  0  0  0  0
 32 70  1  0  0  0  0
 32 73  1  0  0  0  0
 33 74  1  0  0  0  0
 33 80  2  0  0  0  0
 34 48  1  0  0  0  0
 34 76  1  0  0  0  0
 34 81  2  0  0  0  0
 35 64  1  0  0  0  0
 35 71  1  0  0  0  0
 35 82  2  0  0  0  0
 36 65  1  0  0  0  0
 36 77  1  0  0  0  0
 36 83  2  0  0  0  0
 37 72  1  0  0  0  0
 37 75  1  0  0  0  0
 37 84  2  0  0  0  0
 38 41  1  0  0  0  0
 39 48  1  0  0  0  0
 40 71  1  0  0  0  0
 41 43  1  0  0  0  0
 42 44  1  0  0  0  0
 42 45  1  0  0  0  0
 43 47  1  0  0  0  0
 44 49  1  0  0  0  0
 45 72  1  0  0  0  0
 46 49  1  0  0  0  0
 46 72  1  0  0  0  0
 47 76  1  0  0  0  0
 48 71  1  0  0  0  0
 49 70  1  0  0  0  0
 50 65  1  0  0  0  0
 51 66  1  0  0  0  0
 52 66  1  0  0  0  0
 53 66  1  0  0  0  0
 54 67  1  0  0  0  0
 55 67  1  0  0  0  0
 56 67  1  0  0  0  0
 57 78  1  0  0  0  0
 58 60  1  0  0  0  0
 58 62  1  0  0  0  0
 59 61  1  0  0  0  0
 59 63  1  0  0  0  0
 60 79  1  0  0  0  0
 61 79  1  0  0  0  0
 62 86  1  0  0  0  0
 63 87  1  0  0  0  0
 64 67  1  0  0  0  0
 64 77  1  0  0  0  0
 65 78  1  0  0  0  0
 68 70  1  0  0  0  0
M  CHG  2  78   1  79   1
M  ISO  4  37 100  62 101  75 100  86 101
M  END
> <Batch ID>
0117

> <Smiles>
CNC(C)C(=O)NC(C(=O)N1Cc2cc([101O:1][101CH2:1]CCNCCCOc3cc([100NH:0][100C:0](=O)N4CCCC(n5nc(-c6ccc(Oc7ccc(F)cc7F)cc6)c(C(N)=O)c5N)C4)nc(C(C)(C)C)c3)ccc2CC1C(=O)NC1CCCc2ccccc21)C(C)(C)C

> <Shape>
0.252

> <Color>
0.051

> <Negative vol penalty>
0.000

$$$$

  -OEChem-04052320153D

 89 97  0     1  0  0  0  0  0999 V2000
  -17.0947  -28.2945   24.4213 C   0  0  0  0  0  0  0  0  0  0  0  0
  -17.7893  -27.4035   23.6095 C   0  0  0  0  0  0  0  0  0  0  0  0
  -26.6294  -10.6167   21.1978 C   0  0  0  0  0  0  0  0  0  0  0  0
  -25.2969  -12.4883   20.4505 C   0  0  0  0  0  0  0  0  0  0  0  0
  -17.3932  -29.6556   24.3754 C   0  0  0  0  0  0  0  0  0  0  0  0
  -18.7822  -27.8734   22.7505 C   0  0  0  0  0  0  0  0  0  0  0  0
  -22.9620  -25.0166   22.8655 C   0  0  0  0  0  0  0  0  0  0  0  0
  -25.4765   -9.9784   21.6549 C   0  0  0  0  0  0  0  0  0  0  0  0
  -24.1440  -11.8500   20.9075 C   0  0  0  0  0  0  0  0  0  0  0  0
  -22.9310  -23.8143   22.1604 C   0  0  0  0  0  0  0  0  0  0  0  0
  -22.0806   -9.3873   19.8597 C   0  0  0  0  0  0  0  0  0  0  0  0
  -20.9663   -9.3862   19.0207 C   0  0  0  0  0  0  0  0  0  0  0  0
  -24.1373  -24.8531   20.3479 C   0  0  0  0  0  0  0  0  0  0  0  0
  -27.2381  -18.0431   20.6582 C   0  0  0  0  0  0  0  0  0  0  0  0
  -19.6932  -10.5536   20.7100 C   0  0  0  0  0  0  0  0  0  0  0  0
  -26.5396  -11.8717   20.5956 C   0  0  0  0  0  0  0  0  0  0  0  0
  -28.3072  -12.4317   18.8435 C   0  0  0  0  0  0  0  0  0  0  0  0
  -18.3968  -30.1412   23.5225 C   0  0  0  0  0  0  0  0  0  0  0  0
  -23.5723  -26.1511   22.3116 C   0  0  0  0  0  0  0  0  0  0  0  0
  -19.0935  -29.2425   22.6922 C   0  0  0  0  0  0  0  0  0  0  0  0
  -24.1769  -26.0679   21.0492 C   0  0  0  0  0  0  0  0  0  0  0  0
  -26.1557  -17.9115   19.7536 C   0  0  0  0  0  0  0  0  0  0  0  0
  -24.2338  -10.5950   21.5097 C   0  0  0  0  0  0  0  0  0  0  0  0
  -23.5162  -23.7331   20.9002 C   0  0  0  0  0  0  0  0  0  0  0  0
  -22.0012   -9.9714   21.1239 C   0  0  0  0  0  0  0  0  0  0  0  0
  -19.7726   -9.9694   19.4458 C   0  0  0  0  0  0  0  0  0  0  0  0
  -20.8075  -10.5545   21.5490 C   0  0  0  0  0  0  0  0  0  0  0  0
  -27.7303  -12.5319   20.1237 C   0  0  0  0  0  0  0  0  0  0  0  0
  -28.3846  -18.1900   19.9091 C   0  0  0  0  0  0  0  0  0  0  0  0
  -26.6738  -17.9818   18.4792 C   0  0  0  0  0  0  0  0  0  0  0  0
  -29.4136  -13.2435   18.9011 C   0  0  0  0  0  0  0  0  0  0  0  0
  -27.8810  -11.6728   17.7042 C   0  0  0  0  0  0  0  0  0  0  0  0
  -22.5743  -29.0487   21.4679 C   0  0  0  0  0  0  0  0  0  0  0  0
  -25.7349  -29.5594   20.9462 C   0  0  0  0  0  0  0  0  0  0  0  0
  -28.8090  -28.2425   20.2661 C   0  0  0  0  0  0  0  0  0  0  0  0
  -30.5231  -17.9024   22.7222 C   0  0  0  0  0  0  0  0  0  0  0  0
  -18.6515  -31.6269   23.4732 C   0  0  0  0  0  0  0  0  0  0  0  0
  -23.6207  -27.4333   23.0964 C   0  0  0  0  0  0  0  0  0  0  0  0
  -24.8626  -27.2515   20.4188 C   0  0  0  0  0  0  0  0  0  0  0  0
  -19.9753  -31.9963   22.8089 C   0  0  0  0  0  0  0  0  0  0  0  0
  -32.6506  -14.9700   21.9631 C   0  0  0  0  0  0  0  0  0  0  0  0
  -20.1538  -31.2216   21.5071 C   0  0  0  0  0  0  0  0  0  0  0  0
  -31.6530  -13.9815   21.3617 C   0  0  0  0  0  0  0  0  0  0  0  0
  -31.9807  -15.9235   22.9478 C   0  0  0  0  0  0  0  0  0  0  0  0
  -29.8169  -15.6652   21.7792 C   0  0  0  0  0  0  0  0  0  0  0  0
  -20.1944  -29.7106   21.7654 C   0  0  1  0  0  0  0  0  0  0  0  0
  -23.8186  -28.6646   22.2176 C   0  0  1  0  0  0  0  0  0  0  0  0
  -30.4511  -14.7202   20.7476 C   0  0  2  0  0  0  0  0  0  0  0  0
  -24.4973  -16.4057   20.8801 C   0  0  0  0  0  0  0  0  0  0  0  0
  -24.9791  -19.0466   16.9470 C   0  0  0  0  0  0  0  0  0  0  0  0
  -25.2922  -16.5452   16.9360 C   0  0  0  0  0  0  0  0  0  0  0  0
  -31.1930  -28.9124   19.8597 C   0  0  0  0  0  0  0  0  0  0  0  0
  -28.6627  -19.5134   16.6271 C   0  0  0  0  0  0  0  0  0  0  0  0
  -28.9769  -17.0020   16.6170 C   0  0  0  0  0  0  0  0  0  0  0  0
  -24.9938  -30.4813   18.1336 C   0  0  0  0  0  0  0  0  0  0  0  0
  -27.3995  -30.2227   17.4902 C   0  0  0  0  0  0  0  0  0  0  0  0
  -26.7515  -31.8625   19.2549 C   0  0  0  0  0  0  0  0  0  0  0  0
  -29.5854  -20.0944   22.0934 C   0  0  0  0  0  0  0  0  0  0  0  0
  -29.7611  -26.7111   22.6129 C   0  0  0  0  0  0  0  0  0  0  0  0
  -29.7850  -18.3642   20.3464 C   0  0  0  0  0  0  0  0  0  0  0  0
  -24.1232  -20.2292   20.1785 C   0  0  0  0  0  0  0  0  0  0  0  0
  -24.1268  -18.9032   20.9528 C   0  0  0  0  0  0  0  0  0  0  0  0
  -23.4753  -21.3564   20.9745 C   0  0  0  0  0  0  0  0  0  1  0  0
  -24.6952  -17.7278   20.1285 C   0  0  1  0  0  0  0  0  0  0  0  0
  -25.9939  -17.9023   17.1687 C   0  0  0  0  0  0  0  0  0  0  0  0
  -26.6656  -29.3888   19.7699 C   0  0  1  0  0  0  0  0  0  0  0  0
  -30.1689  -28.4803   20.8976 C   0  0  2  0  0  0  0  0  0  0  0  0
  -28.9470  -18.2701   17.4722 C   0  0  0  0  0  0  0  0  0  0  0  0
  -26.4381  -30.4669   18.6729 C   0  0  0  0  0  0  0  0  0  0  0  0
  -28.4138  -13.3432   20.9353 N   0  0  0  0  0  0  0  0  0  0  0  0
  -28.0296  -18.1509   18.5860 N   0  0  0  0  0  0  0  0  0  0  0  0
  -29.4317  -13.7601   20.1632 N   0  0  0  0  0  0  0  0  0  0  0  0
  -24.8780  -28.4847   21.2229 N   0  0  0  0  0  0  0  0  0  0  0  0
  -30.8161  -16.5795   22.3524 N   0  0  0  0  0  0  0  0  0  0  0  0
  -30.3632  -13.5585   17.9947 N   0  0  0  0  0  0  0  0  0  0  0  0
  -26.7226  -10.8920   17.8168 N   0  0  0  0  0  0  0  0  0  0  0  0
  -21.4896  -29.3204   22.2797 N   0  0  0  0  0  0  0  0  0  0  0  0
  -28.0174  -29.3703   20.3182 N   0  0  0  0  0  0  0  0  0  0  0  0
  -29.8989  -18.7120   21.7611 N   0  0  0  0  0  0  0  0  0  0  0  0
  -30.6605  -27.2355   21.5531 N   0  3  0  0  0  0  0  0  0  0  0  0
  -28.5181  -11.6737   16.6236 O   0  0  0  0  0  0  0  0  0  0  0  0
  -22.5972  -29.0964   20.2436 O   0  0  0  0  0  0  0  0  0  0  0  0
  -25.7720  -30.6048   21.6000 O   0  0  0  0  0  0  0  0  0  0  0  0
  -28.4831  -27.1652   19.7725 O   0  0  0  0  0  0  0  0  0  0  0  0
  -30.8121  -18.3381   23.8441 O   0  0  0  0  0  0  0  0  0  0  0  0
  -23.1085   -9.9723   21.9554 O   0  0  0  0  0  0  0  0  0  0  0  0
  -23.4869  -22.5610   20.2095 O   0  0  0  0  0  0  0  0  0  1  0  0
  -18.7031   -9.9697   18.6393 F   0  0  0  0  0  0  0  0  0  0  0  0
  -20.7255  -11.1183   22.7620 F   0  0  0  0  0  0  0  0  0  0  0  0
  1  2  1  0  0  0  0
  1  5  2  0  0  0  0
  2  6  2  0  0  0  0
  3  8  2  0  0  0  0
  3 16  1  0  0  0  0
  4  9  1  0  0  0  0
  4 16  2  0  0  0  0
  5 18  1  0  0  0  0
  6 20  1  0  0  0  0
  7 10  2  0  0  0  0
  7 19  1  0  0  0  0
  8 23  1  0  0  0  0
  9 23  2  0  0  0  0
 10 24  1  0  0  0  0
 11 12  2  0  0  0  0
 11 25  1  0  0  0  0
 12 26  1  0  0  0  0
 13 21  1  0  0  0  0
 13 24  2  0  0  0  0
 14 22  1  0  0  0  0
 14 29  2  0  0  0  0
 15 26  2  0  0  0  0
 15 27  1  0  0  0  0
 16 28  1  0  0  0  0
 17 28  1  0  0  0  0
 17 31  2  0  0  0  0
 17 32  1  0  0  0  0
 18 20  2  0  0  0  0
 18 37  1  0  0  0  0
 19 21  2  0  0  0  0
 19 38  1  0  0  0  0
 20 46  1  0  0  0  0
 21 39  1  0  0  0  0
 22 30  2  0  0  0  0
 22 64  1  0  0  0  0
 23 86  1  0  0  0  0
 24 87  1  0  0  0  0
 25 27  2  0  0  0  0
 25 86  1  0  0  0  0
 26 88  1  0  0  0  0
 27 89  1  0  0  0  0
 28 70  2  0  0  0  0
 29 60  1  0  0  0  0
 29 71  1  0  0  0  0
 30 65  1  0  0  0  0
 30 71  1  0  0  0  0
 31 72  1  0  0  0  0
 31 75  1  0  0  0  0
 32 76  1  0  0  0  0
 32 81  2  0  0  0  0
 33 47  1  0  0  0  0
 33 77  1  0  0  0  0
 33 82  2  0  0  0  0
 34 66  1  0  0  0  0
 34 73  1  0  0  0  0
 34 83  2  0  0  0  0
 35 67  1  0  0  0  0
 35 78  1  0  0  0  0
 35 84  2  0  0  0  0
 36 74  1  0  0  0  0
 36 79  1  0  0  0  0
 36 85  2  0  0  0  0
 37 40  1  0  0  0  0
 38 47  1  0  0  0  0
 39 73  1  0  0  0  0
 40 42  1  0  0  0  0
 41 43  1  0  0  0  0
 41 44  1  0  0  0  0
 42 46  1  0  0  0  0
 43 48  1  0  0  0  0
 44 74  1  0  0  0  0
 45 48  1  0  0  0  0
 45 74  1  0  0  0  0
 46 77  1  0  0  0  0
 47 73  1  0  0  0  0
 48 72  1  0  0  0  0
 49 64  1  0  0  0  0
 50 65  1  0  0  0  0
 51 65  1  0  0  0  0
 52 67  1  0  0  0  0
 53 68  1  0  0  0  0
 54 68  1  0  0  0  0
 55 69  1  0  0  0  0
 56 69  1  0  0  0  0
 57 69  1  0  0  0  0
 58 79  1  0  0  0  0
 59 80  1  0  0  0  0
 60 79  1  0  0  0  0
 61 62  1  0  0  0  0
 61 63  1  0  0  0  0
 62 64  1  0  0  0  0
 63 87  1  0  0  0  0
 66 69  1  0  0  0  0
 66 78  1  0  0  0  0
 67 80  1  0  0  0  0
 68 71  1  0  0  0  0
 70 72  1  0  0  0  0
M  CHG  1  80   1
M  ISO  4  36 100  63 101  79 100  87 101
M  END
> <Batch ID>
0117

> <Smiles>
CNC(C)C(=O)NC(C(=O)N1Cc2cc([101O:1][101CH2:1]CCC(C)c3cc(C[100N:0](C)[100C:0](=O)N4CCCC(n5nc(-c6ccc(Oc7ccc(F)cc7F)cc6)c(C(N)=O)c5N)C4)n(C(C)C)c3C(C)C)ccc2CC1C(=O)NC1CCCc2ccccc21)C(C)(C)C

> <Shape>
0.277

> <Color>
0.063

> <Negative vol penalty>
0.000

$$$$

  -OEChem-04052320153D

 84 92  0     1  0  0  0  0  0999 V2000
  -18.8229  -33.8002   24.1140 C   0  0  0  0  0  0  0  0  0  0  0  0
  -20.0814  -33.8280   23.5218 C   0  0  0  0  0  0  0  0  0  0  0  0
  -24.3944  -12.4539   21.2719 C   0  0  0  0  0  0  0  0  0  0  0  0
  -26.4232  -12.3950   19.9613 C   0  0  0  0  0  0  0  0  0  0  0  0
  -18.3568  -32.6257   24.7033 C   0  0  0  0  0  0  0  0  0  0  0  0
  -20.8751  -32.6814   23.5195 C   0  0  0  0  0  0  0  0  0  0  0  0
  -25.7625  -29.2829   19.5346 C   0  0  0  0  0  0  0  0  0  0  0  0
  -24.1000  -11.1496   20.8747 C   0  0  0  0  0  0  0  0  0  0  0  0
  -26.1288  -11.0907   19.5641 C   0  0  0  0  0  0  0  0  0  0  0  0
  -27.0398  -28.7329   19.6340 C   0  0  0  0  0  0  0  0  0  0  0  0
  -25.0721   -8.0166   21.6944 C   0  0  0  0  0  0  0  0  0  0  0  0
  -24.6409   -7.1223   22.6741 C   0  0  0  0  0  0  0  0  0  0  0  0
  -26.0984  -26.7387   20.6121 C   0  0  0  0  0  0  0  0  0  0  0  0
  -29.1287  -22.3638   17.2678 C   0  0  0  0  0  0  0  0  0  0  0  0
  -22.5662   -6.8102   21.4761 C   0  0  0  0  0  0  0  0  0  0  0  0
  -30.8857  -21.4753   18.3601 C   0  0  0  0  0  0  0  0  0  0  0  0
  -25.5561  -13.0766   20.8151 C   0  0  0  0  0  0  0  0  0  0  0  0
  -26.6014  -14.8227   22.3533 C   0  0  0  0  0  0  0  0  0  0  0  0
  -19.1412  -31.4615   24.6997 C   0  0  0  0  0  0  0  0  0  0  0  0
  -24.6428  -28.5681   19.9840 C   0  0  0  0  0  0  0  0  0  0  0  0
  -20.4196  -31.4906   24.1104 C   0  0  0  0  0  0  0  0  0  0  0  0
  -24.8078  -27.2809   20.5149 C   0  0  0  0  0  0  0  0  0  0  0  0
  -24.9672  -10.4680   20.0208 C   0  0  0  0  0  0  0  0  0  0  0  0
  -27.2082  -27.4618   20.1755 C   0  0  0  0  0  0  0  0  0  0  0  0
  -24.2504   -8.3078   20.6055 C   0  0  0  0  0  0  0  0  0  0  0  0
  -30.2757  -22.6684   18.0415 C   0  0  0  0  0  0  0  0  0  0  0  0
  -23.3879   -6.5191   22.5649 C   0  0  0  0  0  0  0  0  0  0  0  0
  -22.9974   -7.7046   20.4963 C   0  0  0  0  0  0  0  0  0  0  0  0
  -25.8605  -14.4241   21.2246 C   0  0  0  0  0  0  0  0  0  0  0  0
  -29.0725  -20.9937   17.1374 C   0  0  0  0  0  0  0  0  0  0  0  0
  -26.6045  -16.1949   22.2949 C   0  0  0  0  0  0  0  0  0  0  0  0
  -27.2307  -14.0239   23.3641 C   0  0  0  0  0  0  0  0  0  0  0  0
  -22.4325  -29.0356   22.2200 C   0  0  0  0  0  0  0  0  0  0  0  0
  -21.1159  -26.3693   20.9239 C   0  0  0  0  0  0  0  0  0  0  0  0
  -21.5573  -23.4940   19.1393 C   0  0  0  0  0  0  0  0  0  0  0  0
  -26.0060  -20.0854   17.7830 C   0  0  0  0  0  0  0  0  0  0  0  0
  -18.6141  -30.2289   25.3907 C   0  0  0  0  0  0  0  0  0  0  0  0
  -23.2690  -29.1646   19.8452 C   0  0  0  0  0  0  0  0  0  0  0  0
  -23.6361  -26.4641   20.9930 C   0  0  0  0  0  0  0  0  0  0  0  0
  -19.3635  -28.9529   25.0158 C   0  0  0  0  0  0  0  0  0  0  0  0
  -23.9961  -19.8814   20.7148 C   0  0  0  0  0  0  0  0  0  0  0  0
  -20.8704  -29.1835   25.0695 C   0  0  0  0  0  0  0  0  0  0  0  0
  -24.3128  -18.4956   21.2797 C   0  0  0  0  0  0  0  0  0  0  0  0
  -23.9763  -19.8773   19.1878 C   0  0  0  0  0  0  0  0  0  0  0  0
  -25.5093  -17.9489   19.1191 C   0  0  0  0  0  0  0  0  0  0  0  0
  -21.2999  -30.2605   24.0659 C   0  0  1  0  0  0  0  0  0  0  0  0
  -22.2534  -28.5561   20.8073 C   0  0  1  0  0  0  0  0  0  0  0  0
  -25.5956  -17.9150   20.6546 C   0  0  2  0  0  0  0  0  0  0  0  0
  -20.3025  -21.5009   18.2730 C   0  0  0  0  0  0  0  0  0  0  0  0
  -30.4135  -18.5738   19.3689 C   0  0  0  0  0  0  0  0  0  0  0  0
  -31.7997  -18.7177   17.2561 C   0  0  0  0  0  0  0  0  0  0  0  0
  -21.0848  -25.1721   23.7302 C   0  0  0  0  0  0  0  0  0  0  0  0
  -20.7368  -22.9212   22.6907 C   0  0  0  0  0  0  0  0  0  0  0  0
  -19.0313  -24.7146   22.3782 C   0  0  0  0  0  0  0  0  0  0  0  0
  -22.1906  -24.1714   16.3288 C   0  0  0  0  0  0  0  0  0  0  0  0
  -28.0873  -20.1483   16.4326 C   0  0  0  0  0  0  0  0  0  0  0  0
  -30.4195  -26.2013   19.0754 C   0  0  0  0  0  0  0  0  0  0  0  0
  -29.4127  -27.3196   19.2947 C   0  0  0  0  0  0  0  0  0  1  0  0
  -29.7510  -24.9173   18.6096 C   0  0  0  0  0  0  0  0  0  0  0  0
  -21.2453  -24.8854   21.1694 C   0  0  1  0  0  0  0  0  0  0  0  0
  -20.7909  -22.9083   17.9671 C   0  0  2  0  0  0  0  0  0  0  0  0
  -30.4631  -19.0574   17.9182 C   0  0  0  0  0  0  0  0  0  0  0  0
  -20.5470  -24.4393   22.4850 C   0  0  0  0  0  0  0  0  0  0  0  0
  -25.4244  -15.4594   20.5022 N   0  0  0  0  0  0  0  0  0  0  0  0
  -30.1454  -20.4640   17.8056 N   0  0  0  0  0  0  0  0  0  0  0  0
  -25.8927  -16.5221   21.1785 N   0  0  0  0  0  0  0  0  0  0  0  0
  -22.3137  -27.0934   20.8420 N   0  0  0  0  0  0  0  0  0  0  0  0
  -25.2216  -19.3163   18.6584 N   0  0  0  0  0  0  0  0  0  0  0  0
  -27.1466  -17.1415   23.0902 N   0  0  0  0  0  0  0  0  0  0  0  0
  -27.1300  -12.6290   23.2723 N   0  0  0  0  0  0  0  0  0  0  0  0
  -21.3409  -29.7151   22.7260 N   0  0  0  0  0  0  0  0  0  0  0  0
  -20.7372  -24.2275   19.9704 N   0  0  0  0  0  0  0  0  0  0  0  0
  -27.1734  -19.4810   17.3328 N   0  0  0  0  0  0  0  0  0  0  0  0
  -21.6588  -22.8520   16.7570 N   0  3  0  0  0  0  0  0  0  0  0  0
  -27.8496  -14.5325   24.3294 O   0  0  0  0  0  0  0  0  0  0  0  0
  -23.4826  -28.8048   22.8078 O   0  0  0  0  0  0  0  0  0  0  0  0
  -19.9935  -26.8665   20.8019 O   0  0  0  0  0  0  0  0  0  0  0  0
  -22.7622  -23.3155   19.3034 O   0  0  0  0  0  0  0  0  0  0  0  0
  -25.6921  -21.2282   17.4331 O   0  0  0  0  0  0  0  0  0  0  0  0
  -24.6803   -9.1952   19.6332 O   0  0  0  0  0  0  0  0  0  0  0  0
  -28.4539  -26.9229   20.2743 O   0  0  0  0  0  0  0  0  0  1  0  0
  -30.7298  -23.9039   18.4235 O   0  0  0  0  0  0  0  0  0  0  0  0
  -22.9746   -5.6592   23.5051 F   0  0  0  0  0  0  0  0  0  0  0  0
  -22.2040   -7.9795   19.4519 F   0  0  0  0  0  0  0  0  0  0  0  0
  1  2  1  0  0  0  0
  1  5  2  0  0  0  0
  2  6  2  0  0  0  0
  3  8  2  0  0  0  0
  3 17  1  0  0  0  0
  4  9  1  0  0  0  0
  4 17  2  0  0  0  0
  5 19  1  0  0  0  0
  6 21  1  0  0  0  0
  7 10  2  0  0  0  0
  7 20  1  0  0  0  0
  8 23  1  0  0  0  0
  9 23  2  0  0  0  0
 10 24  1  0  0  0  0
 11 12  2  0  0  0  0
 11 25  1  0  0  0  0
 12 27  1  0  0  0  0
 13 22  1  0  0  0  0
 13 24  2  0  0  0  0
 14 26  1  0  0  0  0
 14 30  2  0  0  0  0
 15 27  2  0  0  0  0
 15 28  1  0  0  0  0
 16 26  2  0  0  0  0
 16 65  1  0  0  0  0
 17 29  1  0  0  0  0
 18 29  1  0  0  0  0
 18 31  2  0  0  0  0
 18 32  1  0  0  0  0
 19 21  2  0  0  0  0
 19 37  1  0  0  0  0
 20 22  2  0  0  0  0
 20 38  1  0  0  0  0
 21 46  1  0  0  0  0
 22 39  1  0  0  0  0
 23 80  1  0  0  0  0
 24 81  1  0  0  0  0
 25 28  2  0  0  0  0
 25 80  1  0  0  0  0
 26 82  1  0  0  0  0
 27 83  1  0  0  0  0
 28 84  1  0  0  0  0
 29 64  2  0  0  0  0
 30 56  1  0  0  0  0
 30 65  1  0  0  0  0
 31 66  1  0  0  0  0
 31 69  1  0  0  0  0
 32 70  1  0  0  0  0
 32 75  2  0  0  0  0
 33 47  1  0  0  0  0
 33 71  1  0  0  0  0
 33 76  2  0  0  0  0
 34 60  1  0  0  0  0
 34 67  1  0  0  0  0
 34 77  2  0  0  0  0
 35 61  1  0  0  0  0
 35 72  1  0  0  0  0
 35 78  2  0  0  0  0
 36 68  1  0  0  0  0
 36 73  1  0  0  0  0
 36 79  2  0  0  0  0
 37 40  1  0  0  0  0
 38 47  1  0  0  0  0
 39 67  1  0  0  0  0
 40 42  1  0  0  0  0
 41 43  1  0  0  0  0
 41 44  1  0  0  0  0
 42 46  1  0  0  0  0
 43 48  1  0  0  0  0
 44 68  1  0  0  0  0
 45 48  1  0  0  0  0
 45 68  1  0  0  0  0
 46 71  1  0  0  0  0
 47 67  1  0  0  0  0
 48 66  1  0  0  0  0
 49 61  1  0  0  0  0
 50 62  1  0  0  0  0
 51 62  1  0  0  0  0
 52 63  1  0  0  0  0
 53 63  1  0  0  0  0
 54 63  1  0  0  0  0
 55 74  1  0  0  0  0
 56 73  1  0  0  0  0
 57 58  1  0  0  0  0
 57 59  1  0  0  0  0
 58 81  1  0  0  0  0
 59 82  1  0  0  0  0
 60 63  1  0  0  0  0
 60 72  1  0  0  0  0
 61 74  1  0  0  0  0
 62 65  1  0  0  0  0
 64 66  1  0  0  0  0
M  CHG  1  74   1
M  ISO  4  36 100  58 101  73 100  81 101
M  END
> <Batch ID>
0117

> <Smiles>
CNC(C)C(=O)NC(C(=O)N1Cc2cc([101O:1][101CH2:1]CCOc3cc(C[100NH:0][100C:0](=O)N4CCCC(n5nc(-c6ccc(Oc7ccc(F)cc7F)cc6)c(C(N)=O)c5N)C4)n(C(C)C)c3)ccc2CC1C(=O)NC1CCCc2ccccc21)C(C)(C)C

> <Shape>
0.206

> <Color>
0.094

> <Negative vol penalty>
0.000

$$$$

  -OEChem-04052320153D

 85 94  0     1  0  0  0  0  0999 V2000
  -28.6320  -20.4567   16.0692 C   0  0  0  0  0  0  0  0  0  0  0  0
  -28.1907  -20.5589   17.3846 C   0  0  0  0  0  0  0  0  0  0  0  0
  -28.7816  -15.8754   18.9790 C   0  0  0  0  0  0  0  0  0  0  0  0
  -27.7613  -16.9709   20.8753 C   0  0  0  0  0  0  0  0  0  0  0  0
  -29.1783  -21.5689   15.4300 C   0  0  0  0  0  0  0  0  0  0  0  0
  -28.2964  -21.7732   18.0620 C   0  0  0  0  0  0  0  0  0  0  0  0
  -24.0910  -22.9366   20.6321 C   0  0  0  0  0  0  0  0  0  0  0  0
  -29.6333  -16.9665   18.8070 C   0  0  0  0  0  0  0  0  0  0  0  0
  -28.6131  -18.0620   20.7033 C   0  0  0  0  0  0  0  0  0  0  0  0
  -23.8867  -22.2847   21.8475 C   0  0  0  0  0  0  0  0  0  0  0  0
  -30.7629  -20.9804   20.9851 C   0  0  0  0  0  0  0  0  0  0  0  0
  -31.3746  -21.5118   22.1205 C   0  0  0  0  0  0  0  0  0  0  0  0
  -24.6981  -24.2301   23.0205 C   0  0  0  0  0  0  0  0  0  0  0  0
  -20.4345  -20.2998   24.7371 C   0  0  0  0  0  0  0  0  0  0  0  0
  -22.8289  -20.3449   24.9583 C   0  0  0  0  0  0  0  0  0  0  0  0
  -32.4361  -19.3834   22.5448 C   0  0  0  0  0  0  0  0  0  0  0  0
  -27.8455  -15.8776   20.0131 C   0  0  0  0  0  0  0  0  0  0  0  0
  -27.3329  -13.4163   20.4455 C   0  0  0  0  0  0  0  0  0  0  0  0
  -29.2819  -22.7999   16.0967 C   0  0  0  0  0  0  0  0  0  0  0  0
  -24.6115  -24.2383   20.6014 C   0  0  0  0  0  0  0  0  0  0  0  0
  -28.8459  -22.9025   17.4315 C   0  0  0  0  0  0  0  0  0  0  0  0
  -24.9057  -24.8973   21.8036 C   0  0  0  0  0  0  0  0  0  0  0  0
  -21.6182  -19.6815   25.1242 C   0  0  0  0  0  0  0  0  0  0  0  0
  -29.5492  -18.0597   19.6691 C   0  0  0  0  0  0  0  0  0  0  0  0
  -24.1930  -22.9303   23.0418 C   0  0  0  0  0  0  0  0  0  0  0  0
  -30.9877  -19.6504   20.6296 C   0  0  0  0  0  0  0  0  0  0  0  0
  -32.2112  -20.7133   22.9003 C   0  0  0  0  0  0  0  0  0  0  0  0
  -31.8244  -18.8519   21.4095 C   0  0  0  0  0  0  0  0  0  0  0  0
  -26.9649  -14.7511   20.1909 C   0  0  0  0  0  0  0  0  0  0  0  0
  -20.5148  -21.5718   24.1934 C   0  0  0  0  0  0  0  0  0  0  0  0
  -22.8021  -21.6149   24.4048 C   0  0  0  0  0  0  0  0  0  1  0  0
  -26.1396  -12.7416   20.5315 C   0  0  0  0  0  0  0  0  0  0  0  0
  -28.6368  -12.8381   20.5912 C   0  0  0  0  0  0  0  0  0  0  0  0
  -27.2364  -25.5769   19.4090 C   0  0  0  0  0  0  0  0  0  0  0  0
  -25.7961  -28.3243   20.3574 C   0  0  0  0  0  0  0  0  0  0  0  0
  -23.5485  -29.8547   22.4197 C   0  0  0  0  0  0  0  0  0  0  0  0
  -20.5756  -14.4591   21.9254 C   0  0  0  0  0  0  0  0  0  0  0  0
  -29.9229  -23.9619   15.3801 C   0  0  0  0  0  0  0  0  0  0  0  0
  -24.8010  -24.9377   19.2833 C   0  0  0  0  0  0  0  0  0  0  0  0
  -25.4477  -26.3023   21.8257 C   0  0  0  0  0  0  0  0  0  0  0  0
  -29.6551  -25.3099   16.0444 C   0  0  0  0  0  0  0  0  0  0  0  0
  -21.6374  -12.8760   18.9182 C   0  0  0  0  0  0  0  0  0  0  0  0
  -29.8817  -25.2174   17.5501 C   0  0  0  0  0  0  0  0  0  0  0  0
  -23.1563  -13.0566   18.9264 C   0  0  0  0  0  0  0  0  0  0  0  0
  -21.0404  -17.2507   24.7283 C   0  0  0  0  0  0  0  0  0  0  0  0
  -20.9212  -14.0928   19.4999 C   0  0  0  0  0  0  0  0  0  0  0  0
  -22.8979  -14.6783   20.8504 C   0  0  0  0  0  0  0  0  0  0  0  0
  -20.8041  -18.2576   27.0401 C   0  0  0  0  0  0  0  0  0  0  0  0
  -20.2254  -15.8473   26.6631 C   0  0  0  0  0  0  0  0  0  0  0  0
  -21.5889  -18.2879   25.7252 C   0  0  2  0  0  0  0  0  0  0  0  0
  -28.9209  -24.2090   18.1916 C   0  0  1  0  0  0  0  0  0  0  0  0
  -25.8190  -26.0719   19.3495 C   0  0  1  0  0  0  0  0  0  0  0  0
  -21.0026  -15.8449   25.3474 C   0  0  1  0  0  0  0  0  0  0  0  0
  -23.6663  -13.4538   20.3248 C   0  0  2  0  0  0  0  0  0  0  0  0
  -19.2641  -22.2655   23.7668 C   0  0  0  0  0  0  0  0  0  0  0  0
  -22.6178  -32.1149   22.9880 C   0  0  0  0  0  0  0  0  0  0  0  0
  -28.3528  -28.9907   21.8835 C   0  0  0  0  0  0  0  0  0  0  0  0
  -27.0597  -30.7143   23.1584 C   0  0  0  0  0  0  0  0  0  0  0  0
  -27.3176  -30.9272   20.6864 C   0  0  0  0  0  0  0  0  0  0  0  0
  -20.8063  -29.0463   21.6543 C   0  0  0  0  0  0  0  0  0  0  0  0
  -20.3913  -14.8424   24.3704 C   0  0  0  0  0  0  0  0  0  0  0  0
  -25.7887  -29.1453   21.6242 C   0  0  1  0  0  0  0  0  0  0  0  0
  -22.4494  -30.8638   22.1399 C   0  0  2  0  0  0  0  0  0  0  0  0
  -27.1213  -29.9172   21.8380 C   0  0  0  0  0  0  0  0  0  0  0  0
  -25.6414  -14.9165   20.1197 N   0  0  0  0  0  0  0  0  0  0  0  0
  -21.6722  -22.2476   24.0167 N   0  0  0  0  0  0  0  0  0  0  0  0
  -25.1673  -13.6768   20.3307 N   0  0  0  0  0  0  0  0  0  0  0  0
  -25.6214  -26.9416   20.5109 N   0  0  0  0  0  0  0  0  0  0  0  0
  -21.4503  -14.4158   20.8272 N   0  0  0  0  0  0  0  0  0  0  0  0
  -25.8377  -11.4456   20.7584 N   0  0  0  0  0  0  0  0  0  0  0  0
  -29.2068  -12.7893   21.8707 N   0  0  0  0  0  0  0  0  0  0  0  0
  -27.6024  -24.7880   18.3351 N   0  0  0  0  0  0  0  0  0  0  0  0
  -24.6085  -29.9998   21.5500 N   0  0  0  0  0  0  0  0  0  0  0  0
  -21.1599  -14.7665   23.1480 N   0  0  0  0  0  0  0  0  0  0  0  0
  -20.8142  -16.8656   27.5835 N   0  3  0  0  0  0  0  0  0  0  0  0
  -21.1145  -30.2712   22.4363 N   0  3  0  0  0  0  0  0  0  0  0  0
  -29.2842  -12.3932   19.6133 O   0  0  0  0  0  0  0  0  0  0  0  0
  -27.9461  -25.8889   20.3581 O   0  0  0  0  0  0  0  0  0  0  0  0
  -25.9440  -28.8897   19.2712 O   0  0  0  0  0  0  0  0  0  0  0  0
  -23.4757  -29.0235   23.3221 O   0  0  0  0  0  0  0  0  0  0  0  0
  -19.3646  -14.2349   21.8247 O   0  0  0  0  0  0  0  0  0  0  0  0
  -30.3803  -19.1245   19.5018 O   0  0  0  0  0  0  0  0  0  0  0  0
  -23.9951  -22.2961   24.2294 O   0  0  0  0  0  0  0  0  0  1  0  0
  -32.7998  -21.2243   23.9897 F   0  0  0  0  0  0  0  0  0  0  0  0
  -32.0451  -17.5739   21.0723 F   0  0  0  0  0  0  0  0  0  0  0  0
  1  2  1  0  0  0  0
  1  5  2  0  0  0  0
  2  6  2  0  0  0  0
  3  8  2  0  0  0  0
  3 17  1  0  0  0  0
  4  9  1  0  0  0  0
  4 17  2  0  0  0  0
  5 19  1  0  0  0  0
  6 21  1  0  0  0  0
  7 10  2  0  0  0  0
  7 20  1  0  0  0  0
  8 24  1  0  0  0  0
  9 24  2  0  0  0  0
 10 25  1  0  0  0  0
 11 12  2  0  0  0  0
 11 26  1  0  0  0  0
 12 27  1  0  0  0  0
 13 22  1  0  0  0  0
 13 25  2  0  0  0  0
 14 23  1  0  0  0  0
 14 30  2  0  0  0  0
 15 23  2  0  0  0  0
 15 31  1  0  0  0  0
 16 27  2  0  0  0  0
 16 28  1  0  0  0  0
 17 29  1  0  0  0  0
 18 29  1  0  0  0  0
 18 32  2  0  0  0  0
 18 33  1  0  0  0  0
 19 21  2  0  0  0  0
 19 38  1  0  0  0  0
 20 22  2  0  0  0  0
 20 39  1  0  0  0  0
 21 51  1  0  0  0  0
 22 40  1  0  0  0  0
 23 50  1  0  0  0  0
 24 82  1  0  0  0  0
 25 83  1  0  0  0  0
 26 28  2  0  0  0  0
 26 82  1  0  0  0  0
 27 84  1  0  0  0  0
 28 85  1  0  0  0  0
 29 65  2  0  0  0  0
 30 55  1  0  0  0  0
 30 66  1  0  0  0  0
 31 66  2  0  0  0  0
 31 83  1  0  0  0  0
 32 67  1  0  0  0  0
 32 70  1  0  0  0  0
 33 71  1  0  0  0  0
 33 77  2  0  0  0  0
 34 52  1  0  0  0  0
 34 72  1  0  0  0  0
 34 78  2  0  0  0  0
 35 62  1  0  0  0  0
 35 68  1  0  0  0  0
 35 79  2  0  0  0  0
 36 63  1  0  0  0  0
 36 73  1  0  0  0  0
 36 80  2  0  0  0  0
 37 69  1  0  0  0  0
 37 74  1  0  0  0  0
 37 81  2  0  0  0  0
 38 41  1  0  0  0  0
 39 52  1  0  0  0  0
 40 68  1  0  0  0  0
 41 43  1  0  0  0  0
 42 44  1  0  0  0  0
 42 46  1  0  0  0  0
 43 51  1  0  0  0  0
 44 54  1  0  0  0  0
 45 50  1  0  0  0  0
 45 53  1  0  0  0  0
 46 69  1  0  0  0  0
 47 54  1  0  0  0  0
 47 69  1  0  0  0  0
 48 50  1  0  0  0  0
 48 75  1  0  0  0  0
 49 53  1  0  0  0  0
 49 75  1  0  0  0  0
 51 72  1  0  0  0  0
 52 68  1  0  0  0  0
 53 61  1  0  0  0  0
 54 67  1  0  0  0  0
 56 63  1  0  0  0  0
 57 64  1  0  0  0  0
 58 64  1  0  0  0  0
 59 64  1  0  0  0  0
 60 76  1  0  0  0  0
 61 74  1  0  0  0  0
 62 64  1  0  0  0  0
 62 73  1  0  0  0  0
 63 76  1  0  0  0  0
 65 67  1  0  0  0  0
M  CHG  2  75   1  76   1
M  ISO  4  31 101  37 100  74 100  83 101
M  END
> <Batch ID>
0117

> <Smiles>
CNC(C)C(=O)NC(C(=O)N1Cc2cc([101O:1][101c:1]3cc(C4CNCC(C[100NH:0][100C:0](=O)N5CCCC(n6nc(-c7ccc(Oc8ccc(F)cc8F)cc7)c(C(N)=O)c6N)C5)C4)cc(C)n3)ccc2CC1C(=O)NC1CCCc2ccccc21)C(C)(C)C

> <Shape>
0.199

> <Color>
0.067

> <Negative vol penalty>
0.000

$$$$

  -OEChem-04052320153D

 85 93  0     1  0  0  0  0  0999 V2000
  -30.4362  -17.2661   16.2801 C   0  0  0  0  0  0  0  0  0  0  0  0
  -30.0001  -17.4715   17.5841 C   0  0  0  0  0  0  0  0  0  0  0  0
  -23.0824   -9.8714   19.9459 C   0  0  0  0  0  0  0  0  0  0  0  0
  -23.8427   -9.8881   22.2391 C   0  0  0  0  0  0  0  0  0  0  0  0
  -31.2555  -18.2111   15.6662 C   0  0  0  0  0  0  0  0  0  0  0  0
  -30.3733  -18.6276   18.2705 C   0  0  0  0  0  0  0  0  0  0  0  0
  -29.3175  -20.3334   24.0240 C   0  0  0  0  0  0  0  0  0  0  0  0
  -22.3424   -8.7166   20.1997 C   0  0  0  0  0  0  0  0  0  0  0  0
  -23.1026   -8.7334   22.4929 C   0  0  0  0  0  0  0  0  0  0  0  0
  -29.9499  -20.2258   25.2618 C   0  0  0  0  0  0  0  0  0  0  0  0
  -19.8772   -7.9270   23.0986 C   0  0  0  0  0  0  0  0  0  0  0  0
  -19.1206   -7.8884   24.2698 C   0  0  0  0  0  0  0  0  0  0  0  0
  -34.3437  -21.2555   25.9932 C   0  0  0  0  0  0  0  0  0  0  0  0
  -30.8834  -22.4309   24.9698 C   0  0  0  0  0  0  0  0  0  0  0  0
  -20.3684   -5.9573   25.0122 C   0  0  0  0  0  0  0  0  0  0  0  0
  -35.1894  -20.9540   24.9486 C   0  0  0  0  0  0  0  0  0  0  0  0
  -23.8327  -10.4571   20.9656 C   0  0  0  0  0  0  0  0  0  0  0  0
  -24.1663  -12.9830   20.8374 C   0  0  0  0  0  0  0  0  0  0  0  0
  -31.6487  -19.3731   16.3504 C   0  0  0  0  0  0  0  0  0  0  0  0
  -29.4723  -21.4882   23.2436 C   0  0  0  0  0  0  0  0  0  0  0  0
  -31.1801  -19.6046   17.6597 C   0  0  0  0  0  0  0  0  0  0  0  0
  -30.2498  -22.5518   23.7236 C   0  0  0  0  0  0  0  0  0  0  0  0
  -33.4062  -20.1985   26.0970 C   0  0  0  0  0  0  0  0  0  0  0  0
  -22.3524   -8.1476   21.4732 C   0  0  0  0  0  0  0  0  0  0  0  0
  -30.7354  -21.2735   25.7336 C   0  0  0  0  0  0  0  0  0  0  0  0
  -20.8794   -6.9808   22.8842 C   0  0  0  0  0  0  0  0  0  0  0  0
  -19.3662   -6.9036   25.2266 C   0  0  0  0  0  0  0  0  0  0  0  0
  -21.1250   -5.9960   23.8409 C   0  0  0  0  0  0  0  0  0  0  0  0
  -24.5978  -11.6497   20.7039 C   0  0  0  0  0  0  0  0  0  0  0  0
  -33.7076  -19.2831   25.1129 C   0  0  0  0  0  0  0  0  0  0  0  0
  -25.2559  -13.7348   20.4716 C   0  0  0  0  0  0  0  0  0  0  0  0
  -22.8942  -13.4960   21.2550 C   0  0  0  0  0  0  0  0  0  0  0  0
  -30.6823  -22.1081   20.3704 C   0  0  0  0  0  0  0  0  0  0  0  0
  -29.5127  -25.0781   20.9482 C   0  0  0  0  0  0  0  0  0  0  0  0
  -28.5394  -27.4136   23.2384 C   0  0  0  0  0  0  0  0  0  0  0  0
  -30.7364  -14.7723   20.6556 C   0  0  0  0  0  0  0  0  0  0  0  0
  -32.5301  -20.3666   15.6355 C   0  0  0  0  0  0  0  0  0  0  0  0
  -28.7618  -21.5996   21.9225 C   0  0  0  0  0  0  0  0  0  0  0  0
  -30.4315  -23.8211   22.9334 C   0  0  0  0  0  0  0  0  0  0  0  0
  -33.2300  -21.3324   16.5861 C   0  0  0  0  0  0  0  0  0  0  0  0
  -29.6061  -12.3765   18.2767 C   0  0  0  0  0  0  0  0  0  0  0  0
  -32.2212  -21.9301   17.5554 C   0  0  0  0  0  0  0  0  0  0  0  0
  -28.1697  -12.0795   18.7108 C   0  0  0  0  0  0  0  0  0  0  0  0
  -30.5227  -12.6041   19.4767 C   0  0  0  0  0  0  0  0  0  0  0  0
  -28.6189  -13.3334   20.8613 C   0  0  0  0  0  0  0  0  0  0  0  0
  -31.5983  -20.8399   18.4366 C   0  0  1  0  0  0  0  0  0  0  0  0
  -29.4057  -22.6129   20.9813 C   0  0  1  0  0  0  0  0  0  0  0  0
  -27.6450  -13.1519   19.6844 C   0  0  2  0  0  0  0  0  0  0  0  0
  -32.7974  -20.1217   28.5397 C   0  0  0  0  0  0  0  0  0  0  0  0
  -27.6659  -29.7598   23.4099 C   0  0  0  0  0  0  0  0  0  0  0  0
  -36.8831  -18.7129   23.6205 C   0  0  0  0  0  0  0  0  0  0  0  0
  -35.3398  -19.9238   22.0210 C   0  0  0  0  0  0  0  0  0  0  0  0
  -32.3015  -26.1579   20.3425 C   0  0  0  0  0  0  0  0  0  0  0  0
  -31.6286  -28.3099   21.4309 C   0  0  0  0  0  0  0  0  0  0  0  0
  -30.4281  -27.5160   19.3935 C   0  0  0  0  0  0  0  0  0  0  0  0
  -26.0487  -26.5134   24.5595 C   0  0  0  0  0  0  0  0  0  0  0  0
  -33.0555  -18.0011   24.7709 C   0  0  0  0  0  0  0  0  0  0  0  0
  -30.7955  -16.9270   21.8856 C   0  0  0  0  0  0  0  0  0  0  0  0
  -31.6070  -16.7618   23.1569 C   0  0  0  0  0  0  0  0  0  0  0  0
  -32.2843  -20.1009   27.1054 C   0  0  1  0  0  0  0  0  0  1  0  0
  -30.0504  -26.3316   21.5950 C   0  0  1  0  0  0  0  0  0  0  0  0
  -27.3001  -28.2863   23.3227 C   0  0  2  0  0  0  0  0  0  0  0  0
  -35.4361  -19.0961   23.3040 C   0  0  0  0  0  0  0  0  0  0  0  0
  -31.1005  -27.0543   20.7048 C   0  0  0  0  0  0  0  0  0  0  0  0
  -25.8629  -11.5566   20.2857 N   0  0  0  0  0  0  0  0  0  0  0  0
  -34.7935  -19.7526   24.4211 N   0  0  0  0  0  0  0  0  0  0  0  0
  -26.2356  -12.8410   20.1532 N   0  0  0  0  0  0  0  0  0  0  0  0
  -29.7216  -23.8794   21.6449 N   0  0  0  0  0  0  0  0  0  0  0  0
  -29.9690  -13.6337   20.3595 N   0  0  0  0  0  0  0  0  0  0  0  0
  -25.4620  -15.0667   20.3943 N   0  0  0  0  0  0  0  0  0  0  0  0
  -21.8853  -12.5846   21.5953 N   0  0  0  0  0  0  0  0  0  0  0  0
  -30.5041  -21.4105   19.1909 N   0  0  0  0  0  0  0  0  0  0  0  0
  -28.8890  -27.1479   21.9313 N   0  0  0  0  0  0  0  0  0  0  0  0
  -30.1344  -15.7018   21.4948 N   0  0  0  0  0  0  0  0  0  0  0  0
  -26.4963  -27.9296   24.5259 N   0  3  0  0  0  0  0  0  0  0  0  0
  -32.2174  -18.0605   23.5352 N   0  3  0  0  0  0  0  0  0  0  0  0
  -22.6540  -14.7260   21.3084 O   0  0  0  0  0  0  0  0  0  0  0  0
  -31.7499  -22.3360   20.9270 O   0  0  0  0  0  0  0  0  0  0  0  0
  -28.9226  -25.1603   19.8681 O   0  0  0  0  0  0  0  0  0  0  0  0
  -29.1395  -27.0110   24.2325 O   0  0  0  0  0  0  0  0  0  0  0  0
  -31.8717  -14.9500   20.2012 O   0  0  0  0  0  0  0  0  0  0  0  0
  -21.6302   -7.0210   21.7213 O   0  0  0  0  0  0  0  0  0  0  0  0
  -31.3543  -21.1707   26.9412 O   0  0  0  0  0  0  0  0  0  1  0  0
  -18.6406   -6.8675   26.3519 F   0  0  0  0  0  0  0  0  0  0  0  0
  -22.0872   -5.0850   23.6411 F   0  0  0  0  0  0  0  0  0  0  0  0
  1  2  1  0  0  0  0
  1  5  2  0  0  0  0
  2  6  2  0  0  0  0
  3  8  2  0  0  0  0
  3 17  1  0  0  0  0
  4  9  1  0  0  0  0
  4 17  2  0  0  0  0
  5 19  1  0  0  0  0
  6 21  1  0  0  0  0
  7 10  2  0  0  0  0
  7 20  1  0  0  0  0
  8 24  1  0  0  0  0
  9 24  2  0  0  0  0
 10 25  1  0  0  0  0
 11 12  2  0  0  0  0
 11 26  1  0  0  0  0
 12 27  1  0  0  0  0
 13 16  2  0  0  0  0
 13 23  1  0  0  0  0
 14 22  1  0  0  0  0
 14 25  2  0  0  0  0
 15 27  2  0  0  0  0
 15 28  1  0  0  0  0
 16 66  1  0  0  0  0
 17 29  1  0  0  0  0
 18 29  1  0  0  0  0
 18 31  2  0  0  0  0
 18 32  1  0  0  0  0
 19 21  2  0  0  0  0
 19 37  1  0  0  0  0
 20 22  2  0  0  0  0
 20 38  1  0  0  0  0
 21 46  1  0  0  0  0
 22 39  1  0  0  0  0
 23 30  2  0  0  0  0
 23 60  1  0  0  0  0
 24 82  1  0  0  0  0
 25 83  1  0  0  0  0
 26 28  2  0  0  0  0
 26 82  1  0  0  0  0
 27 84  1  0  0  0  0
 28 85  1  0  0  0  0
 29 65  2  0  0  0  0
 30 57  1  0  0  0  0
 30 66  1  0  0  0  0
 31 67  1  0  0  0  0
 31 70  1  0  0  0  0
 32 71  1  0  0  0  0
 32 77  2  0  0  0  0
 33 47  1  0  0  0  0
 33 72  1  0  0  0  0
 33 78  2  0  0  0  0
 34 61  1  0  0  0  0
 34 68  1  0  0  0  0
 34 79  2  0  0  0  0
 35 62  1  0  0  0  0
 35 73  1  0  0  0  0
 35 80  2  0  0  0  0
 36 69  1  0  0  0  0
 36 74  1  0  0  0  0
 36 81  2  0  0  0  0
 37 40  1  0  0  0  0
 38 47  1  0  0  0  0
 39 68  1  0  0  0  0
 40 42  1  0  0  0  0
 41 43  1  0  0  0  0
 41 44  1  0  0  0  0
 42 46  1  0  0  0  0
 43 48  1  0  0  0  0
 44 69  1  0  0  0  0
 45 48  1  0  0  0  0
 45 69  1  0  0  0  0
 46 72  1  0  0  0  0
 47 68  1  0  0  0  0
 48 67  1  0  0  0  0
 49 60  1  0  0  0  0
 50 62  1  0  0  0  0
 51 63  1  0  0  0  0
 52 63  1  0  0  0  0
 53 64  1  0  0  0  0
 54 64  1  0  0  0  0
 55 64  1  0  0  0  0
 56 75  1  0  0  0  0
 57 76  1  0  0  0  0
 58 59  1  0  0  0  0
 58 74  1  0  0  0  0
 59 76  1  0  0  0  0
 60 83  1  0  0  0  0
 61 64  1  0  0  0  0
 61 73  1  0  0  0  0
 62 75  1  0  0  0  0
 63 66  1  0  0  0  0
 65 67  1  0  0  0  0
M  CHG  2  75   1  76   1
M  ISO  4  36 100  60 101  74 100  83 101
M  END
> <Batch ID>
0117

> <Smiles>
CNC(C)C(=O)NC(C(=O)N1Cc2cc([101O:1][101CH:1](C)c3ccn(C(C)C)c3CNCC[100NH:0][100C:0](=O)N3CCCC(n4nc(-c5ccc(Oc6ccc(F)cc6F)cc5)c(C(N)=O)c4N)C3)ccc2CC1C(=O)NC1CCCc2ccccc21)C(C)(C)C

> <Shape>
0.238

> <Color>
0.190

> <Negative vol penalty>
0.000

$$$$

  -OEChem-04052320153D

 93102  0     1  0  0  0  0  0999 V2000
  -26.4137  -35.6564   15.0608 C   0  0  0  0  0  0  0  0  0  0  0  0
  -26.4577  -34.2688   15.1512 C   0  0  0  0  0  0  0  0  0  0  0  0
  -26.9748  -13.1241   21.9497 C   0  0  0  0  0  0  0  0  0  0  0  0
  -25.4862  -14.9826   22.3584 C   0  0  0  0  0  0  0  0  0  0  0  0
  -26.7740  -36.4371   16.1583 C   0  0  0  0  0  0  0  0  0  0  0  0
  -26.8630  -33.6612   16.3390 C   0  0  0  0  0  0  0  0  0  0  0  0
  -24.7134  -28.3646   18.7309 C   0  0  0  0  0  0  0  0  0  0  0  0
  -25.9467  -12.2330   22.2573 C   0  0  0  0  0  0  0  0  0  0  0  0
  -24.4581  -14.0915   22.6660 C   0  0  0  0  0  0  0  0  0  0  0  0
  -25.1809  -27.0511   18.7219 C   0  0  0  0  0  0  0  0  0  0  0  0
  -23.2120  -10.9613   20.7286 C   0  0  0  0  0  0  0  0  0  0  0  0
  -23.0284   -9.8668   19.8837 C   0  0  0  0  0  0  0  0  0  0  0  0
  -26.2564  -27.4257   20.8482 C   0  0  0  0  0  0  0  0  0  0  0  0
  -23.4280   -8.3691   21.7370 C   0  0  0  0  0  0  0  0  0  0  0  0
  -26.7446  -14.4989   22.0003 C   0  0  0  0  0  0  0  0  0  0  0  0
  -28.5091  -15.5211   20.4676 C   0  0  0  0  0  0  0  0  0  0  0  0
  -27.1747  -35.8386   17.3633 C   0  0  0  0  0  0  0  0  0  0  0  0
  -25.0229  -29.2235   19.7954 C   0  0  0  0  0  0  0  0  0  0  0  0
  -27.2302  -34.4346   17.4533 C   0  0  0  0  0  0  0  0  0  0  0  0
  -25.7875  -28.7480   20.8706 C   0  0  0  0  0  0  0  0  0  0  0  0
  -24.6884  -12.7167   22.6154 C   0  0  0  0  0  0  0  0  0  0  0  0
  -25.9544  -26.5822   19.7795 C   0  0  0  0  0  0  0  0  0  0  0  0
  -23.5037  -10.7598   22.0777 C   0  0  0  0  0  0  0  0  0  0  0  0
  -23.1363   -8.5707   20.3879 C   0  0  0  0  0  0  0  0  0  0  0  0
  -23.6116   -9.4637   22.5819 C   0  0  0  0  0  0  0  0  0  0  0  0
  -27.8063  -15.4199   21.6832 C   0  0  0  0  0  0  0  0  0  0  0  0
  -29.4069  -16.5399   20.6739 C   0  0  0  0  0  0  0  0  0  0  0  0
  -28.0390  -22.6731   23.2677 C   0  0  0  0  0  0  0  0  0  0  0  0
  -28.3634  -14.7621   19.2600 C   0  0  0  0  0  0  0  0  0  0  0  0
  -26.7895  -22.9926   22.5094 C   0  0  0  0  0  0  0  0  0  0  0  0
  -26.5628  -32.0062   20.1571 C   0  0  0  0  0  0  0  0  0  0  0  0
  -25.4275  -31.6352   23.2598 C   0  0  0  0  0  0  0  0  0  0  0  0
  -26.2477  -34.8854   23.8948 C   0  0  0  0  0  0  0  0  0  0  0  0
  -29.3394  -21.2091   24.4506 C   0  0  0  0  0  0  0  0  0  0  0  0
  -27.6001  -36.7243   18.5075 C   0  0  0  0  0  0  0  0  0  0  0  0
  -24.4831  -30.6282   19.8004 C   0  0  0  0  0  0  0  0  0  0  0  0
  -26.1436  -29.6287   22.0377 C   0  0  0  0  0  0  0  0  0  0  0  0
  -27.6591  -35.9994   19.8496 C   0  0  0  0  0  0  0  0  0  0  0  0
  -31.9090  -18.6999   24.1233 C   0  0  0  0  0  0  0  0  0  0  0  0
  -22.9115  -26.6639   22.8555 C   0  0  0  0  0  0  0  0  0  0  0  0
  -28.3824  -34.6644   19.7039 C   0  0  0  0  0  0  0  0  0  0  0  0
  -27.0244  -21.2128   20.8458 C   0  0  0  0  0  0  0  0  0  0  0  0
  -31.1984  -17.5700   23.3784 C   0  0  0  0  0  0  0  0  0  0  0  0
  -23.8294  -25.8843   23.7780 C   0  0  0  0  0  0  0  0  0  0  0  0
  -27.1796  -20.8338   19.3753 C   0  0  0  0  0  0  0  0  0  0  0  0
  -28.0869  -23.1341   18.8735 C   0  0  0  0  0  0  0  0  0  0  0  0
  -30.9631  -19.4226   25.0774 C   0  0  0  0  0  0  0  0  0  0  0  0
  -29.0117  -18.8165   23.6724 C   0  0  0  0  0  0  0  0  0  0  0  0
  -21.6612  -25.8131   22.8341 C   0  0  0  0  0  0  0  0  0  0  0  0
  -27.6408  -33.7382   18.7326 C   0  0  1  0  0  0  0  0  0  0  0  0
  -26.8241  -22.7189   21.0343 C   0  0  2  0  0  0  0  0  0  0  0  0
  -25.2440  -31.5710   20.7304 C   0  0  1  0  0  0  0  0  0  0  0  0
  -27.9321  -23.5409   20.3509 C   0  0  2  0  0  0  0  0  0  0  0  0
  -29.9277  -18.0831   22.6775 C   0  0  2  0  0  0  0  0  0  0  0  0
  -23.5827  -24.4169   23.4285 C   0  0  2  0  0  0  0  0  0  0  0  0
  -28.2980  -21.6189   18.6594 C   0  0  0  0  0  0  0  0  0  0  0  0
  -28.2345  -21.3136   17.1505 C   0  0  0  0  0  0  0  0  0  0  0  0
  -29.6848  -21.1844   19.1712 C   0  0  0  0  0  0  0  0  0  0  0  0
  -25.9817  -36.6818   25.6268 C   0  0  0  0  0  0  0  0  0  0  0  0
  -28.7526  -25.8490   19.7806 C   0  0  0  0  0  0  0  0  0  0  0  0
  -21.9476  -22.0115   23.2008 C   0  0  0  0  0  0  0  0  0  0  0  0
  -19.9769  -23.4305   22.5102 C   0  0  0  0  0  0  0  0  0  0  0  0
  -22.5355  -32.0488   22.3819 C   0  0  0  0  0  0  0  0  0  0  0  0
  -22.6346  -34.3425   23.3803 C   0  0  0  0  0  0  0  0  0  0  0  0
  -22.9331  -32.3375   24.8340 C   0  0  0  0  0  0  0  0  0  0  0  0
  -29.1731  -35.1008   24.2881 C   0  0  0  0  0  0  0  0  0  0  0  0
  -24.6042  -23.8523   22.4517 C   0  0  0  0  0  0  0  0  0  0  0  0
  -24.7793  -32.9969   23.2376 C   0  0  1  0  0  0  0  0  0  0  0  0
  -26.8593  -35.5502   25.1148 C   0  0  2  0  0  0  0  0  0  0  0  0
  -27.6466  -25.0456   20.4363 C   0  0  1  0  0  0  0  0  0  1  0  0
  -21.2727  -23.3699   23.3030 C   0  0  0  0  0  0  0  0  0  0  0  0
  -23.2393  -32.9235   23.4385 C   0  0  0  0  0  0  0  0  0  0  0  0
  -28.2219  -16.3038   22.5942 N   0  0  0  0  0  0  0  0  0  0  0  0
  -28.1786  -21.4909   23.7560 N   0  0  0  0  0  0  0  0  0  0  0  0
  -25.8154  -23.5031   23.1793 N   0  0  0  0  0  0  0  0  0  0  0  0
  -29.1957  -16.9700   21.9508 N   0  0  0  0  0  0  0  0  0  0  0  0
  -25.5241  -30.9604   22.0361 N   0  0  0  0  0  0  0  0  0  0  0  0
  -29.7533  -19.8662   24.3835 N   0  0  0  0  0  0  0  0  0  0  0  0
  -30.3485  -17.1008   19.8857 N   0  0  0  0  0  0  0  0  0  0  0  0
  -27.3925  -13.7523   19.2186 N   0  0  0  0  0  0  0  0  0  0  0  0
  -26.4893  -33.1457   19.3788 N   0  0  0  0  0  0  0  0  0  0  0  0
  -25.4752  -33.7966   24.2399 N   0  0  0  0  0  0  0  0  0  0  0  0
  -22.2076  -24.4057   22.7639 N   0  3  1  0  0  0  0  0  0  0  0  0
  -28.2003  -36.1089   24.7825 N   0  3  0  0  0  0  0  0  0  0  0  0
  -29.0844  -14.9622   18.2532 O   0  0  0  0  0  0  0  0  0  0  0  0
  -27.5726  -31.3573   20.4038 O   0  0  0  0  0  0  0  0  0  0  0  0
  -25.8310  -31.1769   24.3324 O   0  0  0  0  0  0  0  0  0  0  0  0
  -26.4333  -35.2935   22.7505 O   0  0  0  0  0  0  0  0  0  0  0  0
  -29.9767  -22.0491   25.0906 O   0  0  0  0  0  0  0  0  0  0  0  0
  -23.6849  -11.8475   22.9154 O   0  0  0  0  0  0  0  0  0  0  0  0
  -26.4151  -25.2906   19.7735 O   0  0  0  0  0  0  0  0  0  1  0  0
  -22.9585   -7.5197   19.5767 F   0  0  0  0  0  0  0  0  0  0  0  0
  -23.8905   -9.2638   23.8773 F   0  0  0  0  0  0  0  0  0  0  0  0
  1  2  1  0  0  0  0
  1  5  2  0  0  0  0
  2  6  2  0  0  0  0
  3  8  2  0  0  0  0
  3 15  1  0  0  0  0
  4  9  1  0  0  0  0
  4 15  2  0  0  0  0
  5 17  1  0  0  0  0
  6 19  1  0  0  0  0
  7 10  2  0  0  0  0
  7 18  1  0  0  0  0
  8 21  1  0  0  0  0
  9 21  2  0  0  0  0
 10 22  1  0  0  0  0
 11 12  2  0  0  0  0
 11 23  1  0  0  0  0
 12 24  1  0  0  0  0
 13 20  1  0  0  0  0
 13 22  2  0  0  0  0
 14 24  2  0  0  0  0
 14 25  1  0  0  0  0
 15 26  1  0  0  0  0
 16 26  1  0  0  0  0
 16 27  2  0  0  0  0
 16 29  1  0  0  0  0
 17 19  2  0  0  0  0
 17 35  1  0  0  0  0
 18 20  2  0  0  0  0
 18 36  1  0  0  0  0
 19 50  1  0  0  0  0
 20 37  1  0  0  0  0
 21 90  1  0  0  0  0
 22 91  1  0  0  0  0
 23 25  2  0  0  0  0
 23 90  1  0  0  0  0
 24 92  1  0  0  0  0
 25 93  1  0  0  0  0
 26 73  2  0  0  0  0
 27 76  1  0  0  0  0
 27 79  1  0  0  0  0
 28 30  1  0  0  0  0
 28 74  2  0  0  0  0
 29 80  1  0  0  0  0
 29 85  2  0  0  0  0
 30 51  1  0  0  0  0
 30 75  2  0  0  0  0
 31 52  1  0  0  0  0
 31 81  1  0  0  0  0
 31 86  2  0  0  0  0
 32 68  1  0  0  0  0
 32 77  1  0  0  0  0
 32 87  2  0  0  0  0
 33 69  1  0  0  0  0
 33 82  1  0  0  0  0
 33 88  2  0  0  0  0
 34 74  1  0  0  0  0
 34 78  1  0  0  0  0
 34 89  2  0  0  0  0
 35 38  1  0  0  0  0
 36 52  1  0  0  0  0
 37 77  1  0  0  0  0
 38 41  1  0  0  0  0
 39 43  1  0  0  0  0
 39 47  1  0  0  0  0
 40 44  1  0  0  0  0
 40 49  1  0  0  0  0
 41 50  1  0  0  0  0
 42 45  1  0  0  0  0
 42 51  1  0  0  0  0
 43 54  1  0  0  0  0
 44 55  1  0  0  0  0
 45 56  1  0  0  0  0
 46 53  1  0  0  0  0
 46 56  1  0  0  0  0
 47 78  1  0  0  0  0
 48 54  1  0  0  0  0
 48 78  1  0  0  0  0
 49 83  1  0  0  0  0
 50 81  1  0  0  0  0
 51 53  1  0  0  0  0
 52 77  1  0  0  0  0
 53 70  1  0  0  0  0
 54 76  1  0  0  0  0
 55 67  1  0  0  0  0
 55 83  1  0  0  0  0
 56 57  1  0  0  0  0
 56 58  1  0  0  0  0
 59 69  1  0  0  0  0
 60 70  1  0  0  0  0
 61 71  1  0  0  0  0
 62 71  1  0  0  0  0
 63 72  1  0  0  0  0
 64 72  1  0  0  0  0
 65 72  1  0  0  0  0
 66 84  1  0  0  0  0
 67 75  1  0  0  0  0
 68 72  1  0  0  0  0
 68 82  1  0  0  0  0
 69 84  1  0  0  0  0
 70 91  1  0  0  0  0
 71 83  1  0  0  0  0
 73 76  1  0  0  0  0
M  CHG  2  83   1  84   1
M  ISO  4  34 100  70 101  74 100  91 101
M  END
> <Batch ID>
0117

> <Smiles>
CNC(C)C(=O)NC(C(=O)N1Cc2cc([101O:1][101CH:1](C)C3CC(C)(C)C=CC3=C(C[100NH:0][100C:0](=O)N3CCCC(n4nc(-c5ccc(Oc6ccc(F)cc6F)cc5)c(C(N)=O)c4N)C3)NCC3CCCN3C(C)C)ccc2CC1C(=O)NC1CCCc2ccccc21)C(C)(C)C

> <Shape>
0.222

> <Color>
0.081

> <Negative vol penalty>
0.000

$$$$

  -OEChem-04052320153D

 84 92  0     1  0  0  0  0  0999 V2000
  -26.0797  -35.4533   25.1309 C   0  0  0  0  0  0  0  0  0  0  0  0
  -25.5954  -34.3741   25.8631 C   0  0  0  0  0  0  0  0  0  0  0  0
  -23.0802   -9.8833   19.8523 C   0  0  0  0  0  0  0  0  0  0  0  0
  -23.9359   -9.6965   22.1040 C   0  0  0  0  0  0  0  0  0  0  0  0
  -25.9952  -35.4441   23.7392 C   0  0  0  0  0  0  0  0  0  0  0  0
  -25.0254  -33.2854   25.2041 C   0  0  0  0  0  0  0  0  0  0  0  0
  -26.8886  -25.7059   25.5303 C   0  0  0  0  0  0  0  0  0  0  0  0
  -22.3663   -8.6975   20.0252 C   0  0  0  0  0  0  0  0  0  0  0  0
  -23.2220   -8.5107   22.2769 C   0  0  0  0  0  0  0  0  0  0  0  0
  -27.2258  -24.3602   25.3835 C   0  0  0  0  0  0  0  0  0  0  0  0
  -20.0355   -7.5969   22.9339 C   0  0  0  0  0  0  0  0  0  0  0  0
  -19.3293   -7.4354   24.1259 C   0  0  0  0  0  0  0  0  0  0  0  0
  -26.2669  -24.3510   23.1635 C   0  0  0  0  0  0  0  0  0  0  0  0
  -20.6319   -5.4641   24.6303 C   0  0  0  0  0  0  0  0  0  0  0  0
  -23.8651  -10.3828   20.8917 C   0  0  0  0  0  0  0  0  0  0  0  0
  -24.1606  -12.9147   20.9904 C   0  0  0  0  0  0  0  0  0  0  0  0
  -25.4325  -34.3505   23.0623 C   0  0  0  0  0  0  0  0  0  0  0  0
  -26.2523  -26.3842   24.4870 C   0  0  0  0  0  0  0  0  0  0  0  0
  -24.9320  -33.2622   23.8022 C   0  0  0  0  0  0  0  0  0  0  0  0
  -25.9379  -25.7023   23.3000 C   0  0  0  0  0  0  0  0  0  0  0  0
  -22.4372   -8.0112   21.2375 C   0  0  0  0  0  0  0  0  0  0  0  0
  -26.9155  -23.6844   24.2031 C   0  0  0  0  0  0  0  0  0  0  0  0
  -21.0398   -6.6920   22.5901 C   0  0  0  0  0  0  0  0  0  0  0  0
  -19.6276   -6.3690   24.9741 C   0  0  0  0  0  0  0  0  0  0  0  0
  -21.3380   -5.6256   23.4383 C   0  0  0  0  0  0  0  0  0  0  0  0
  -24.6032  -11.6073   20.7135 C   0  0  0  0  0  0  0  0  0  0  0  0
  -25.2242  -13.7158   20.6536 C   0  0  0  0  0  0  0  0  0  0  0  0
  -22.9007  -13.3647   21.5061 C   0  0  0  0  0  0  0  0  0  0  0  0
  -24.8073  -29.6129   23.2365 C   0  0  0  0  0  0  0  0  0  0  0  0
  -26.3044  -28.3360   20.8831 C   0  0  0  0  0  0  0  0  0  0  0  0
  -28.4073  -26.8072   18.6746 C   0  0  0  0  0  0  0  0  0  0  0  0
  -30.6938  -14.8228   20.7124 C   0  0  0  0  0  0  0  0  0  0  0  0
  -25.3201  -34.4068   21.5594 C   0  0  0  0  0  0  0  0  0  0  0  0
  -25.8153  -27.8174   24.6246 C   0  0  0  0  0  0  0  0  0  0  0  0
  -25.2219  -26.4632   22.2177 C   0  0  0  0  0  0  0  0  0  0  0  0
  -25.0419  -33.0497   20.9181 C   0  0  0  0  0  0  0  0  0  0  0  0
  -29.4953  -12.6435   18.1647 C   0  0  0  0  0  0  0  0  0  0  0  0
  -23.9290  -32.3235   21.6671 C   0  0  0  0  0  0  0  0  0  0  0  0
  -31.0991  -19.3313   21.7601 C   0  0  0  0  0  0  0  0  0  0  0  0
  -31.0550  -18.4069   24.1120 C   0  0  0  0  0  0  0  0  0  0  0  0
  -28.0823  -12.2828   18.6267 C   0  0  0  0  0  0  0  0  0  0  0  0
  -30.4488  -18.0485   21.2413 C   0  0  0  0  0  0  0  0  0  0  0  0
  -30.4054  -17.1220   23.5972 C   0  0  0  0  0  0  0  0  0  0  0  0
  -30.4585  -12.7722   19.3426 C   0  0  0  0  0  0  0  0  0  0  0  0
  -28.6054  -13.3358   20.8665 C   0  0  0  0  0  0  0  0  0  0  0  0
  -24.3293  -32.0520   23.1223 C   0  0  1  0  0  0  0  0  0  0  0  0
  -25.9204  -28.6093   23.3089 C   0  0  1  0  0  0  0  0  0  0  0  0
  -30.7607  -19.6275   23.2282 C   0  0  0  0  0  0  0  0  0  0  0  0
  -27.5854  -13.2498   19.7182 C   0  0  2  0  0  0  0  0  0  0  0  0
  -30.7769  -16.8526   22.1379 C   0  0  0  0  0  0  0  0  0  0  0  0
  -26.7271  -20.3359   20.9152 C   0  0  0  0  0  0  0  0  0  0  0  0
  -29.3144  -27.0250   16.3450 C   0  0  0  0  0  0  0  0  0  0  0  0
  -29.9465  -22.5846   23.0768 C   0  0  0  0  0  0  0  0  0  0  0  0
  -23.6480  -27.3429   19.7600 C   0  0  0  0  0  0  0  0  0  0  0  0
  -24.8591  -26.6839   17.6702 C   0  0  0  0  0  0  0  0  0  0  0  0
  -24.7871  -29.0785   18.3655 C   0  0  0  0  0  0  0  0  0  0  0  0
  -31.1910  -27.0294   19.6547 C   0  0  0  0  0  0  0  0  0  0  0  0
  -26.5283  -20.8219   22.3462 C   0  0  0  0  0  0  0  0  0  0  0  0
  -26.2257  -27.4539   19.6628 C   0  0  1  0  0  0  0  0  0  0  0  0
  -29.5335  -27.3511   17.8141 C   0  0  2  0  0  0  0  0  0  0  0  0
  -29.3159  -20.1077   23.3900 C   0  0  2  0  0  0  0  0  0  0  0  0
  -29.0132  -21.4382   22.6522 C   0  0  1  0  0  0  0  0  0  0  0  0
  -27.5348  -21.9107   22.7444 C   0  0  2  0  0  0  0  0  0  1  0  0
  -24.8881  -27.6295   18.8899 C   0  0  0  0  0  0  0  0  0  0  0  0
  -25.8507  -11.5753   20.2373 N   0  0  0  0  0  0  0  0  0  0  0  0
  -26.2010  -12.8725   20.2122 N   0  0  0  0  0  0  0  0  0  0  0  0
  -25.8041  -27.8072   22.0792 N   0  0  0  0  0  0  0  0  0  0  0  0
  -29.9292  -13.7045   20.3409 N   0  0  0  0  0  0  0  0  0  0  0  0
  -25.4097  -15.0523   20.6947 N   0  0  0  0  0  0  0  0  0  0  0  0
  -21.9188  -12.4085   21.7991 N   0  0  0  0  0  0  0  0  0  0  0  0
  -25.2355  -30.9260   23.1955 N   0  0  0  0  0  0  0  0  0  0  0  0
  -27.4160  -27.7452   18.8712 N   0  0  0  0  0  0  0  0  0  0  0  0
  -30.1157  -15.6589   21.6598 N   0  0  0  0  0  0  0  0  0  0  0  0
  -29.0356  -20.2191   24.8478 N   0  3  0  0  0  0  0  0  0  0  0  0
  -30.8372  -26.7653   18.2362 N   0  3  0  0  0  0  0  0  0  0  0  0
  -22.6472  -14.5800   21.6858 O   0  0  0  0  0  0  0  0  0  0  0  0
  -23.6448  -29.2255   23.2177 O   0  0  0  0  0  0  0  0  0  0  0  0
  -26.7905  -29.4658   20.7803 O   0  0  0  0  0  0  0  0  0  0  0  0
  -28.4054  -25.6633   19.1241 O   0  0  0  0  0  0  0  0  0  0  0  0
  -31.8066  -15.0616   20.2311 O   0  0  0  0  0  0  0  0  0  0  0  0
  -21.7405   -6.8543   21.4067 O   0  0  0  0  0  0  0  0  0  0  0  0
  -27.2516  -22.3719   24.0647 O   0  0  0  0  0  0  0  0  0  1  0  0
  -18.9504   -6.2148   26.1195 F   0  0  0  0  0  0  0  0  0  0  0  0
  -22.3026   -4.7538   23.1139 F   0  0  0  0  0  0  0  0  0  0  0  0
  1  2  1  0  0  0  0
  1  5  2  0  0  0  0
  2  6  2  0  0  0  0
  3  8  2  0  0  0  0
  3 15  1  0  0  0  0
  4  9  1  0  0  0  0
  4 15  2  0  0  0  0
  5 17  1  0  0  0  0
  6 19  1  0  0  0  0
  7 10  2  0  0  0  0
  7 18  1  0  0  0  0
  8 21  1  0  0  0  0
  9 21  2  0  0  0  0
 10 22  1  0  0  0  0
 11 12  2  0  0  0  0
 11 23  1  0  0  0  0
 12 24  1  0  0  0  0
 13 20  1  0  0  0  0
 13 22  2  0  0  0  0
 14 24  2  0  0  0  0
 14 25  1  0  0  0  0
 15 26  1  0  0  0  0
 16 26  1  0  0  0  0
 16 27  2  0  0  0  0
 16 28  1  0  0  0  0
 17 19  2  0  0  0  0
 17 33  1  0  0  0  0
 18 20  2  0  0  0  0
 18 34  1  0  0  0  0
 19 46  1  0  0  0  0
 20 35  1  0  0  0  0
 21 81  1  0  0  0  0
 22 82  1  0  0  0  0
 23 25  2  0  0  0  0
 23 81  1  0  0  0  0
 24 83  1  0  0  0  0
 25 84  1  0  0  0  0
 26 65  2  0  0  0  0
 27 66  1  0  0  0  0
 27 69  1  0  0  0  0
 28 70  1  0  0  0  0
 28 76  2  0  0  0  0
 29 47  1  0  0  0  0
 29 71  1  0  0  0  0
 29 77  2  0  0  0  0
 30 59  1  0  0  0  0
 30 67  1  0  0  0  0
 30 78  2  0  0  0  0
 31 60  1  0  0  0  0
 31 72  1  0  0  0  0
 31 79  2  0  0  0  0
 32 68  1  0  0  0  0
 32 73  1  0  0  0  0
 32 80  2  0  0  0  0
 33 36  1  0  0  0  0
 34 47  1  0  0  0  0
 35 67  1  0  0  0  0
 36 38  1  0  0  0  0
 37 41  1  0  0  0  0
 37 44  1  0  0  0  0
 38 46  1  0  0  0  0
 39 42  1  0  0  0  0
 39 48  1  0  0  0  0
 40 43  1  0  0  0  0
 40 48  1  0  0  0  0
 41 49  1  0  0  0  0
 42 50  1  0  0  0  0
 43 50  1  0  0  0  0
 44 68  1  0  0  0  0
 45 49  1  0  0  0  0
 45 68  1  0  0  0  0
 46 71  1  0  0  0  0
 47 67  1  0  0  0  0
 48 61  1  0  0  0  0
 49 66  1  0  0  0  0
 50 73  1  0  0  0  0
 51 58  1  0  0  0  0
 52 60  1  0  0  0  0
 53 62  1  0  0  0  0
 54 64  1  0  0  0  0
 55 64  1  0  0  0  0
 56 64  1  0  0  0  0
 57 75  1  0  0  0  0
 58 63  1  0  0  0  0
 59 64  1  0  0  0  0
 59 72  1  0  0  0  0
 60 75  1  0  0  0  0
 61 62  1  0  0  0  0
 61 74  1  0  0  0  0
 62 63  1  0  0  0  0
 63 82  1  0  0  0  0
 65 66  1  0  0  0  0
M  CHG  2  74   1  75   1
M  ISO  4  32 100  63 101  73 100  82 101
M  END
> <Batch ID>
0117

> <Smiles>
CC[101CH:1](C(C)C(N)C1CCC([100NH:0][100C:0](=O)N2CCCC(n3nc(-c4ccc(Oc5ccc(F)cc5F)cc4)c(C(N)=O)c3N)C2)CC1)[101O:1]c1ccc2c(c1)CN(C(=O)C(NC(=O)C(C)NC)C(C)(C)C)C(C(=O)NC1CCCc3ccccc31)C2

> <Shape>
0.320

> <Color>
0.196

> <Negative vol penalty>
0.000

$$$$

  -OEChem-04052320153D

 87 95  0     1  0  0  0  0  0999 V2000
  -26.4855  -35.1219   24.2826 C   0  0  0  0  0  0  0  0  0  0  0  0
  -27.4104  -34.1827   23.8378 C   0  0  0  0  0  0  0  0  0  0  0  0
  -27.5136  -12.1459   19.7950 C   0  0  0  0  0  0  0  0  0  0  0  0
  -29.0595  -14.0026   19.7845 C   0  0  0  0  0  0  0  0  0  0  0  0
  -25.1742  -34.7333   24.5534 C   0  0  0  0  0  0  0  0  0  0  0  0
  -27.0247  -32.8539   23.6646 C   0  0  0  0  0  0  0  0  0  0  0  0
  -29.0371  -28.9645   19.3834 C   0  0  0  0  0  0  0  0  0  0  0  0
  -28.3540  -11.4413   18.9332 C   0  0  0  0  0  0  0  0  0  0  0  0
  -29.8999  -13.2979   18.9227 C   0  0  0  0  0  0  0  0  0  0  0  0
  -30.0034  -27.9598   19.4086 C   0  0  0  0  0  0  0  0  0  0  0  0
  -29.0711  -11.4066   15.6303 C   0  0  0  0  0  0  0  0  0  0  0  0
  -28.4855  -10.7522   14.5467 C   0  0  0  0  0  0  0  0  0  0  0  0
  -28.2817  -26.3228   19.8274 C   0  0  0  0  0  0  0  0  0  0  0  0
  -28.1123  -22.7721   21.6261 C   0  0  0  0  0  0  0  0  0  0  0  0
  -29.3323   -8.6420   15.3634 C   0  0  0  0  0  0  0  0  0  0  0  0
  -27.8663  -13.4266   20.2207 C   0  0  0  0  0  0  0  0  0  0  0  0
  -27.0211  -14.1445   22.5180 C   0  0  0  0  0  0  0  0  0  0  0  0
  -24.7698  -33.4010   24.3742 C   0  0  0  0  0  0  0  0  0  0  0  0
  -27.6848  -28.6568   19.5912 C   0  0  0  0  0  0  0  0  0  0  0  0
  -25.7071  -32.4468   23.9346 C   0  0  0  0  0  0  0  0  0  0  0  0
  -27.2999  -27.3250   19.8018 C   0  0  0  0  0  0  0  0  0  0  0  0
  -26.7646  -22.4514   21.5065 C   0  0  0  0  0  0  0  0  0  0  0  0
  -26.2822  -21.9350   20.3091 C   0  0  0  0  0  0  0  0  0  0  0  0
  -29.5471  -12.0173   18.4970 C   0  0  0  0  0  0  0  0  0  0  0  0
  -29.6261  -26.6391   19.6335 C   0  0  0  0  0  0  0  0  0  0  0  0
  -29.7874  -10.6788   16.5805 C   0  0  0  0  0  0  0  0  0  0  0  0
  -28.6160   -9.3699   14.4132 C   0  0  0  0  0  0  0  0  0  0  0  0
  -29.9180   -9.2965   16.4471 C   0  0  0  0  0  0  0  0  0  0  0  0
  -26.9983  -14.1552   21.1105 C   0  0  0  0  0  0  0  0  0  0  0  0
  -28.9295  -22.5593   20.5276 C   0  0  0  0  0  0  0  0  0  0  0  0
  -27.1813  -21.7598   19.2695 C   0  0  0  0  0  0  0  0  0  0  0  0
  -26.0053  -14.9934   22.8844 C   0  0  0  0  0  0  0  0  0  0  0  0
  -27.8833  -13.4311   23.4142 C   0  0  0  0  0  0  0  0  0  0  0  0
  -25.5091  -29.4633   21.7637 C   0  0  0  0  0  0  0  0  0  0  0  0
  -23.5091  -27.8330   19.7978 C   0  0  0  0  0  0  0  0  0  0  0  0
  -23.1223  -25.4421   17.3935 C   0  0  0  0  0  0  0  0  0  0  0  0
  -23.3474  -19.5984   20.1312 C   0  0  0  0  0  0  0  0  0  0  0  0
  -23.3537  -33.0188   24.7252 C   0  0  0  0  0  0  0  0  0  0  0  0
  -26.6516  -29.7484   19.5344 C   0  0  0  0  0  0  0  0  0  0  0  0
  -25.8590  -26.9395   20.0103 C   0  0  0  0  0  0  0  0  0  0  0  0
  -22.9292  -31.6667   24.1577 C   0  0  0  0  0  0  0  0  0  0  0  0
  -21.7806  -16.6506   21.3692 C   0  0  0  0  0  0  0  0  0  0  0  0
  -24.0095  -30.6195   24.4088 C   0  0  0  0  0  0  0  0  0  0  0  0
  -22.9422  -15.6759   21.5703 C   0  0  0  0  0  0  0  0  0  0  0  0
  -21.9871  -17.5281   20.1365 C   0  0  0  0  0  0  0  0  0  0  0  0
  -24.4333  -17.2771   20.3008 C   0  0  0  0  0  0  0  0  0  0  0  0
  -25.3205  -31.0009   23.7108 C   0  0  1  0  0  0  0  0  0  0  0  0
  -25.3637  -29.3910   20.2699 C   0  0  1  0  0  0  0  0  0  0  0  0
  -24.2971  -16.4091   21.5635 C   0  0  2  0  0  0  0  0  0  0  0  0
  -25.8596  -22.6727   22.6732 C   0  0  0  0  0  0  0  0  0  0  0  0
  -21.3637  -24.3059   16.0102 C   0  0  0  0  0  0  0  0  0  0  0  0
  -31.1687  -25.0139   17.4264 C   0  0  0  0  0  0  0  0  0  0  0  0
  -27.8678  -21.0966   16.9569 C   0  0  0  0  0  0  0  0  0  0  0  0
  -22.6654  -26.1887   22.2256 C   0  0  0  0  0  0  0  0  0  0  0  0
  -21.6739  -24.5089   20.6561 C   0  0  0  0  0  0  0  0  0  0  0  0
  -20.7903  -26.8412   20.7048 C   0  0  0  0  0  0  0  0  0  0  0  0
  -24.3347  -26.3886   14.8650 C   0  0  0  0  0  0  0  0  0  0  0  0
  -24.8419  -21.5796   20.1526 C   0  0  0  0  0  0  0  0  0  0  0  0
  -30.3967  -22.8942   20.6211 C   0  0  0  0  0  0  0  0  0  0  0  0
  -31.0221  -23.3154   19.2833 C   0  0  0  0  0  0  0  0  0  0  0  0
  -23.0595  -26.3965   19.6825 C   0  0  1  0  0  0  0  0  0  0  0  0
  -22.3639  -25.4494   16.0785 C   0  0  2  0  0  0  0  0  0  0  0  0
  -30.4380  -24.6080   18.7000 C   0  0  1  0  0  0  0  0  0  1  0  0
  -26.7227  -21.2076   17.9594 C   0  0  0  0  0  0  0  0  0  0  0  0
  -22.0747  -25.9910   20.8153 C   0  0  0  0  0  0  0  0  0  0  0  0
  -26.0436  -14.9480   20.6163 N   0  0  0  0  0  0  0  0  0  0  0  0
  -28.4972  -22.0597   19.3482 N   0  0  0  0  0  0  0  0  0  0  0  0
  -25.4570  -15.4432   21.7194 N   0  0  0  0  0  0  0  0  0  0  0  0
  -24.8867  -28.0435   19.9521 N   0  0  0  0  0  0  0  0  0  0  0  0
  -23.2895  -18.1963   20.1926 N   0  0  0  0  0  0  0  0  0  0  0  0
  -25.5366  -15.3914   24.0862 N   0  0  0  0  0  0  0  0  0  0  0  0
  -28.8740  -12.6022   22.8702 N   0  0  0  0  0  0  0  0  0  0  0  0
  -25.2424  -30.7107   22.2951 N   0  0  0  0  0  0  0  0  0  0  0  0
  -22.5170  -26.2454   18.3367 N   0  0  0  0  0  0  0  0  0  0  0  0
  -24.6204  -20.1514   20.1972 N   0  0  0  0  0  0  0  0  0  0  0  0
  -23.3095  -25.3157   14.9344 N   0  3  0  0  0  0  0  0  0  0  0  0
  -27.7679  -13.5130   24.6606 O   0  0  0  0  0  0  0  0  0  0  0  0
  -25.8374  -28.4613   22.3880 O   0  0  0  0  0  0  0  0  0  0  0  0
  -22.6698  -28.7354   19.7455 O   0  0  0  0  0  0  0  0  0  0  0  0
  -24.1471  -24.7863   17.5678 O   0  0  0  0  0  0  0  0  0  0  0  0
  -22.3388  -20.3053   20.0307 O   0  0  0  0  0  0  0  0  0  0  0  0
  -30.3676  -11.3299   17.6562 O   0  0  0  0  0  0  0  0  0  0  0  0
  -30.5674  -25.6566   19.6592 O   0  0  0  0  0  0  0  0  0  1  0  0
  -28.0523   -8.7413   13.3734 F   0  0  0  0  0  0  0  0  0  0  0  0
  -30.6039   -8.5917   17.3574 F   0  0  0  0  0  0  0  0  0  0  0  0
  -25.7453  -21.9683   17.3720 F   0  0  0  0  0  0  0  0  0  0  0  0
  -26.1633  -19.9611   18.0719 F   0  0  0  0  0  0  0  0  0  0  0  0
  1  2  1  0  0  0  0
  1  5  2  0  0  0  0
  2  6  2  0  0  0  0
  3  8  2  0  0  0  0
  3 16  1  0  0  0  0
  4  9  1  0  0  0  0
  4 16  2  0  0  0  0
  5 18  1  0  0  0  0
  6 20  1  0  0  0  0
  7 10  2  0  0  0  0
  7 19  1  0  0  0  0
  8 24  1  0  0  0  0
  9 24  2  0  0  0  0
 10 25  1  0  0  0  0
 11 12  2  0  0  0  0
 11 26  1  0  0  0  0
 12 27  1  0  0  0  0
 13 21  1  0  0  0  0
 13 25  2  0  0  0  0
 14 22  2  0  0  0  0
 14 30  1  0  0  0  0
 15 27  2  0  0  0  0
 15 28  1  0  0  0  0
 16 29  1  0  0  0  0
 17 29  1  0  0  0  0
 17 32  2  0  0  0  0
 17 33  1  0  0  0  0
 18 20  2  0  0  0  0
 18 38  1  0  0  0  0
 19 21  2  0  0  0  0
 19 39  1  0  0  0  0
 20 47  1  0  0  0  0
 21 40  1  0  0  0  0
 22 23  1  0  0  0  0
 22 50  1  0  0  0  0
 23 31  2  0  0  0  0
 23 58  1  0  0  0  0
 24 82  1  0  0  0  0
 25 83  1  0  0  0  0
 26 28  2  0  0  0  0
 26 82  1  0  0  0  0
 27 84  1  0  0  0  0
 28 85  1  0  0  0  0
 29 66  2  0  0  0  0
 30 59  1  0  0  0  0
 30 67  2  0  0  0  0
 31 64  1  0  0  0  0
 31 67  1  0  0  0  0
 32 68  1  0  0  0  0
 32 71  1  0  0  0  0
 33 72  1  0  0  0  0
 33 77  2  0  0  0  0
 34 48  1  0  0  0  0
 34 73  1  0  0  0  0
 34 78  2  0  0  0  0
 35 61  1  0  0  0  0
 35 69  1  0  0  0  0
 35 79  2  0  0  0  0
 36 62  1  0  0  0  0
 36 74  1  0  0  0  0
 36 80  2  0  0  0  0
 37 70  1  0  0  0  0
 37 75  1  0  0  0  0
 37 81  2  0  0  0  0
 38 41  1  0  0  0  0
 39 48  1  0  0  0  0
 40 69  1  0  0  0  0
 41 43  1  0  0  0  0
 42 44  1  0  0  0  0
 42 45  1  0  0  0  0
 43 47  1  0  0  0  0
 44 49  1  0  0  0  0
 45 70  1  0  0  0  0
 46 49  1  0  0  0  0
 46 70  1  0  0  0  0
 47 73  1  0  0  0  0
 48 69  1  0  0  0  0
 49 68  1  0  0  0  0
 51 62  1  0  0  0  0
 52 63  1  0  0  0  0
 53 64  1  0  0  0  0
 54 65  1  0  0  0  0
 55 65  1  0  0  0  0
 56 65  1  0  0  0  0
 57 76  1  0  0  0  0
 58 75  1  0  0  0  0
 59 60  1  0  0  0  0
 60 63  1  0  0  0  0
 61 65  1  0  0  0  0
 61 74  1  0  0  0  0
 62 76  1  0  0  0  0
 63 83  1  0  0  0  0
 64 86  1  0  0  0  0
 64 87  1  0  0  0  0
 66 68  1  0  0  0  0
M  CHG  1  76   1
M  ISO  4  37 100  63 101  75 100  83 101
M  END
> <Batch ID>
0117

> <Smiles>
CNC(C)C(=O)NC(C(=O)N1Cc2cc([101O:1][101CH:1](C)CCc3cc(C)c(C[100NH:0][100C:0](=O)N4CCCC(n5nc(-c6ccc(Oc7ccc(F)cc7F)cc6)c(C(N)=O)c5N)C4)c(C(C)(F)F)n3)ccc2CC1C(=O)NC1CCCc2ccccc21)C(C)(C)C

> <Shape>
0.229

> <Color>
0.066

> <Negative vol penalty>
0.000

$$$$

  -OEChem-04052320153D

 85 94  0     1  0  0  0  0  0999 V2000
  -16.8934  -26.7171   25.4201 C   0  0  0  0  0  0  0  0  0  0  0  0
  -17.6184  -25.5310   25.3651 C   0  0  0  0  0  0  0  0  0  0  0  0
  -26.1268  -14.6471   21.7693 C   0  0  0  0  0  0  0  0  0  0  0  0
  -25.9398  -15.6800   19.5933 C   0  0  0  0  0  0  0  0  0  0  0  0
  -17.1217  -27.7168   24.4754 C   0  0  0  0  0  0  0  0  0  0  0  0
  -18.5713  -25.3435   24.3646 C   0  0  0  0  0  0  0  0  0  0  0  0
  -24.8786  -22.1572   23.1887 C   0  0  0  0  0  0  0  0  0  0  0  0
  -24.7389  -14.5211   21.8288 C   0  0  0  0  0  0  0  0  0  0  0  0
  -24.5519  -15.5540   19.6527 C   0  0  0  0  0  0  0  0  0  0  0  0
  -25.4927  -21.2812   22.2947 C   0  0  0  0  0  0  0  0  0  0  0  0
  -22.3673  -12.4709   20.5619 C   0  0  0  0  0  0  0  0  0  0  0  0
  -21.8450  -11.2527   20.9965 C   0  0  0  0  0  0  0  0  0  0  0  0
  -25.8580  -23.1094   20.7638 C   0  0  0  0  0  0  0  0  0  0  0  0
  -20.7450  -12.3783   22.8296 C   0  0  0  0  0  0  0  0  0  0  0  0
  -27.6628  -23.0836   17.4197 C   0  0  0  0  0  0  0  0  0  0  0  0
  -26.7272  -15.2266   20.6516 C   0  0  0  0  0  0  0  0  0  0  0  0
  -29.0779  -14.4254   20.0684 C   0  0  0  0  0  0  0  0  0  0  0  0
  -18.0848  -27.5452   23.4685 C   0  0  0  0  0  0  0  0  0  0  0  0
  -24.7396  -23.5161   22.8718 C   0  0  0  0  0  0  0  0  0  0  0  0
  -18.8118  -26.3412   23.4046 C   0  0  0  0  0  0  0  0  0  0  0  0
  -25.2441  -24.0010   21.6567 C   0  0  0  0  0  0  0  0  0  0  0  0
  -23.9515  -14.9745   20.7705 C   0  0  0  0  0  0  0  0  0  0  0  0
  -25.9799  -21.7567   21.0808 C   0  0  0  0  0  0  0  0  0  0  0  0
  -22.0785  -13.6428   21.2612 C   0  0  0  0  0  0  0  0  0  0  0  0
  -21.0338  -11.2064   22.1303 C   0  0  0  0  0  0  0  0  0  0  0  0
  -21.2674  -13.5965   22.3950 C   0  0  0  0  0  0  0  0  0  0  0  0
  -28.1608  -15.3575   20.5898 C   0  0  0  0  0  0  0  0  0  0  0  0
  -27.6053  -22.1003   18.3667 C   0  0  0  0  0  0  0  0  0  0  0  0
  -30.3052  -15.0168   20.2427 C   0  0  0  0  0  0  0  0  0  0  0  0
  -29.6675  -22.9048   18.3414 C   0  0  0  0  0  0  0  0  0  0  0  0
  -28.8415  -13.1399   19.4790 C   0  0  0  0  0  0  0  0  0  0  0  0
  -22.2766  -25.4809   22.4517 C   0  0  0  0  0  0  0  0  0  0  0  0
  -24.6065  -27.7274   22.2358 C   0  0  0  0  0  0  0  0  0  0  0  0
  -27.8696  -28.4613   21.5571 C   0  0  0  0  0  0  0  0  0  0  0  0
  -32.0467  -20.7233   20.7476 C   0  0  0  0  0  0  0  0  0  0  0  0
  -18.2629  -28.6350   22.4412 C   0  0  0  0  0  0  0  0  0  0  0  0
  -24.0986  -24.4530   23.8586 C   0  0  0  0  0  0  0  0  0  0  0  0
  -25.1379  -25.4548   21.2777 C   0  0  0  0  0  0  0  0  0  0  0  0
  -19.5548  -28.5093   21.6377 C   0  0  0  0  0  0  0  0  0  0  0  0
  -32.6060  -18.0992   23.0881 C   0  0  0  0  0  0  0  0  0  0  0  0
  -19.7500  -27.0732   21.1620 C   0  0  0  0  0  0  0  0  0  0  0  0
  -29.6210  -27.2381   16.5412 C   0  0  0  0  0  0  0  0  0  0  0  0
  -28.4121  -26.8944   17.3661 C   0  0  0  0  0  0  0  0  0  0  0  0
  -31.6130  -17.0149   22.6662 C   0  0  0  0  0  0  0  0  0  0  0  0
  -32.0259  -19.4994   22.9012 C   0  0  0  0  0  0  0  0  0  0  0  0
  -30.5162  -18.6959   21.1267 C   0  0  0  0  0  0  0  0  0  0  0  0
  -19.8715  -26.1104   22.3493 C   0  0  1  0  0  0  0  0  0  0  0  0
  -23.5513  -25.7208   23.2101 C   0  0  1  0  0  0  0  0  0  0  0  0
  -29.5766  -25.9451   17.3073 C   0  0  0  0  0  0  0  0  0  0  0  0
  -31.0767  -17.2682   21.2444 C   0  0  2  0  0  0  0  0  0  0  0  0
  -26.4113  -19.9079   18.0338 C   0  0  0  0  0  0  0  0  0  0  0  0
  -29.4692  -30.3906   21.4284 C   0  0  0  0  0  0  0  0  0  0  0  0
  -31.9279  -21.2862   17.1090 C   0  0  0  0  0  0  0  0  0  0  0  0
  -23.3799  -28.5635   19.5700 C   0  0  0  0  0  0  0  0  0  0  0  0
  -25.5027  -29.7877   19.0567 C   0  0  0  0  0  0  0  0  0  0  0  0
  -24.1191  -30.4627   21.0196 C   0  0  0  0  0  0  0  0  0  0  0  0
  -29.5923  -27.3248   23.6783 C   0  0  0  0  0  0  0  0  0  0  0  0
  -31.0999  -23.1119   18.6706 C   0  0  0  0  0  0  0  0  0  0  0  0
  -29.4486  -24.6229   16.5705 C   0  0  0  0  0  0  0  0  0  0  0  0
  -26.4675  -21.2131   18.8174 C   0  0  1  0  0  0  0  0  0  1  0  0
  -25.4338  -28.3052   21.1130 C   0  0  1  0  0  0  0  0  0  0  0  0
  -28.8924  -29.2933   22.3094 C   0  0  2  0  0  0  0  0  0  0  0  0
  -31.9649  -21.8367   18.5311 C   0  0  1  0  0  0  0  0  0  0  0  0
  -24.6093  -29.2520   20.1958 C   0  0  0  0  0  0  0  0  0  0  0  0
  -28.7548  -16.4574   21.0603 N   0  0  0  0  0  0  0  0  0  0  0  0
  -28.9501  -23.5642   17.4259 N   0  0  0  0  0  0  0  0  0  0  0  0
  -30.0583  -16.2202   20.8353 N   0  0  0  0  0  0  0  0  0  0  0  0
  -28.8595  -22.0110   18.9208 N   0  3  0  0  0  0  0  0  0  0  0  0
  -24.4974  -26.3301   22.2732 N   0  0  0  0  0  0  0  0  0  0  0  0
  -31.5367  -19.6753   21.5317 N   0  0  0  0  0  0  0  0  0  0  0  0
  -31.5607  -14.6197   19.9456 N   0  0  0  0  0  0  0  0  0  0  0  0
  -27.5200  -12.6844   19.3771 N   0  0  0  0  0  0  0  0  0  0  0  0
  -21.1935  -26.1916   22.9326 N   0  0  0  0  0  0  0  0  0  0  0  0
  -26.5888  -28.9379   21.7408 N   0  0  0  0  0  0  0  0  0  0  0  0
  -31.5340  -20.8152   19.4594 N   0  0  0  0  0  0  0  0  0  0  0  0
  -30.0133  -28.4327   22.7825 N   0  3  0  0  0  0  0  0  0  0  0  0
  -29.7758  -12.4096   19.0702 O   0  0  0  0  0  0  0  0  0  0  0  0
  -22.2760  -24.7093   21.4997 O   0  0  0  0  0  0  0  0  0  0  0  0
  -24.0825  -28.4876   23.0539 O   0  0  0  0  0  0  0  0  0  0  0  0
  -28.1765  -27.4883   20.8718 O   0  0  0  0  0  0  0  0  0  0  0  0
  -32.8998  -21.5148   21.1629 O   0  0  0  0  0  0  0  0  0  0  0  0
  -22.5972  -14.8515   20.8280 O   0  0  0  0  0  0  0  0  0  0  0  0
  -26.5792  -20.9037   20.2060 O   0  0  0  0  0  0  0  0  0  1  0  0
  -20.5311  -10.0368   22.5466 F   0  0  0  0  0  0  0  0  0  0  0  0
  -20.9855  -14.7192   23.0702 F   0  0  0  0  0  0  0  0  0  0  0  0
  1  2  1  0  0  0  0
  1  5  2  0  0  0  0
  2  6  2  0  0  0  0
  3  8  2  0  0  0  0
  3 16  1  0  0  0  0
  4  9  1  0  0  0  0
  4 16  2  0  0  0  0
  5 18  1  0  0  0  0
  6 20  1  0  0  0  0
  7 10  2  0  0  0  0
  7 19  1  0  0  0  0
  8 22  1  0  0  0  0
  9 22  2  0  0  0  0
 10 23  1  0  0  0  0
 11 12  2  0  0  0  0
 11 24  1  0  0  0  0
 12 25  1  0  0  0  0
 13 21  1  0  0  0  0
 13 23  2  0  0  0  0
 14 25  2  0  0  0  0
 14 26  1  0  0  0  0
 15 28  2  0  0  0  0
 15 66  1  0  0  0  0
 16 27  1  0  0  0  0
 17 27  1  0  0  0  0
 17 29  2  0  0  0  0
 17 31  1  0  0  0  0
 18 20  2  0  0  0  0
 18 36  1  0  0  0  0
 19 21  2  0  0  0  0
 19 37  1  0  0  0  0
 20 47  1  0  0  0  0
 21 38  1  0  0  0  0
 22 82  1  0  0  0  0
 23 83  1  0  0  0  0
 24 26  2  0  0  0  0
 24 82  1  0  0  0  0
 25 84  1  0  0  0  0
 26 85  1  0  0  0  0
 27 65  2  0  0  0  0
 28 60  1  0  0  0  0
 28 68  1  0  0  0  0
 29 67  1  0  0  0  0
 29 71  1  0  0  0  0
 30 58  1  0  0  0  0
 30 66  1  0  0  0  0
 30 68  2  0  0  0  0
 31 72  1  0  0  0  0
 31 77  2  0  0  0  0
 32 48  1  0  0  0  0
 32 73  1  0  0  0  0
 32 78  2  0  0  0  0
 33 61  1  0  0  0  0
 33 69  1  0  0  0  0
 33 79  2  0  0  0  0
 34 62  1  0  0  0  0
 34 74  1  0  0  0  0
 34 80  2  0  0  0  0
 35 70  1  0  0  0  0
 35 75  1  0  0  0  0
 35 81  2  0  0  0  0
 36 39  1  0  0  0  0
 37 48  1  0  0  0  0
 38 69  1  0  0  0  0
 39 41  1  0  0  0  0
 40 44  1  0  0  0  0
 40 45  1  0  0  0  0
 41 47  1  0  0  0  0
 42 43  1  0  0  0  0
 42 49  1  0  0  0  0
 43 49  1  0  0  0  0
 44 50  1  0  0  0  0
 45 70  1  0  0  0  0
 46 50  1  0  0  0  0
 46 70  1  0  0  0  0
 47 73  1  0  0  0  0
 48 69  1  0  0  0  0
 49 59  1  0  0  0  0
 50 67  1  0  0  0  0
 51 60  1  0  0  0  0
 52 62  1  0  0  0  0
 53 63  1  0  0  0  0
 54 64  1  0  0  0  0
 55 64  1  0  0  0  0
 56 64  1  0  0  0  0
 57 76  1  0  0  0  0
 58 63  1  0  0  0  0
 59 66  1  0  0  0  0
 60 83  1  0  0  0  0
 61 64  1  0  0  0  0
 61 74  1  0  0  0  0
 62 76  1  0  0  0  0
 63 75  1  0  0  0  0
 65 67  1  0  0  0  0
M  CHG  2  68   1  76   1
M  ISO  4  35 100  60 101  75 100  83 101
M  END
> <Batch ID>
0117

> <Smiles>
CNC(C)C(=O)NC(C(=O)N1Cc2cc([101O:1][101CH:1](C)c3cn(CC4CC4)c(CC(C)[100NH:0][100C:0](=O)N4CCCC(n5nc(-c6ccc(Oc7ccc(F)cc7F)cc6)c(C(N)=O)c5N)C4)n3)ccc2CC1C(=O)NC1CCCc2ccccc21)C(C)(C)C

> <Shape>
0.233

> <Color>
0.065

> <Negative vol penalty>
0.000

$$$$

  -OEChem-04052320153D

 89 98  0     1  0  0  0  0  0999 V2000
  -30.6963  -21.2260   15.7019 C   0  0  0  0  0  0  0  0  0  0  0  0
  -29.7043  -20.7719   16.5651 C   0  0  0  0  0  0  0  0  0  0  0  0
  -25.6893  -13.8114   21.3099 C   0  0  0  0  0  0  0  0  0  0  0  0
  -25.8618  -14.4828   18.9955 C   0  0  0  0  0  0  0  0  0  0  0  0
  -31.2265  -22.5054   15.8626 C   0  0  0  0  0  0  0  0  0  0  0  0
  -29.2427  -21.5967   17.5903 C   0  0  0  0  0  0  0  0  0  0  0  0
  -23.5321  -21.9006   19.7817 C   0  0  0  0  0  0  0  0  0  0  0  0
  -24.4358  -14.4176   21.3923 C   0  0  0  0  0  0  0  0  0  0  0  0
  -24.6082  -15.0890   19.0779 C   0  0  0  0  0  0  0  0  0  0  0  0
  -22.9252  -21.3317   20.9006 C   0  0  0  0  0  0  0  0  0  0  0  0
  -21.2959  -16.5014   18.5763 C   0  0  0  0  0  0  0  0  0  0  0  0
  -20.3974  -16.2793   17.5327 C   0  0  0  0  0  0  0  0  0  0  0  0
  -23.3141  -23.3656   22.1381 C   0  0  0  0  0  0  0  0  0  0  0  0
  -20.4681  -13.9055   17.9771 C   0  0  0  0  0  0  0  0  0  0  0  0
  -26.4023  -13.8440   20.1114 C   0  0  0  0  0  0  0  0  0  0  0  0
  -27.9764  -11.8879   19.6604 C   0  0  0  0  0  0  0  0  0  0  0  0
  -30.7643  -23.3499   16.8843 C   0  0  0  0  0  0  0  0  0  0  0  0
  -24.0451  -23.2046   19.8360 C   0  0  0  0  0  0  0  0  0  0  0  0
  -29.7681  -22.8882   17.7656 C   0  0  0  0  0  0  0  0  0  0  0  0
  -23.9247  -23.9496   21.0178 C   0  0  0  0  0  0  0  0  0  0  0  0
  -23.8952  -15.0564   20.2764 C   0  0  0  0  0  0  0  0  0  0  0  0
  -22.8187  -22.0632   22.0799 C   0  0  0  0  0  0  0  0  0  0  0  0
  -21.7806  -15.4256   19.3202 C   0  0  0  0  0  0  0  0  0  0  0  0
  -19.9835  -14.9814   17.2332 C   0  0  0  0  0  0  0  0  0  0  0  0
  -21.3667  -14.1277   19.0206 C   0  0  0  0  0  0  0  0  0  0  0  0
  -27.6975  -13.2185   20.0258 C   0  0  0  0  0  0  0  0  0  0  0  0
  -29.3445  -11.7913   19.7335 C   0  0  0  0  0  0  0  0  0  0  0  0
  -27.0790  -10.8335   19.2881 C   0  0  0  0  0  0  0  0  0  0  0  0
  -26.9307  -24.4954   19.5030 C   0  0  0  0  0  0  0  0  0  0  0  0
  -27.0929  -20.5513   22.8750 C   0  0  0  0  0  0  0  0  0  0  0  0
  -25.2817  -27.2807   19.7173 C   0  0  0  0  0  0  0  0  0  0  0  0
  -23.5156  -28.9239   22.1313 C   0  0  0  0  0  0  0  0  0  0  0  0
  -30.7546  -17.1539   20.7537 C   0  0  0  0  0  0  0  0  0  0  0  0
  -31.4011  -24.7072   17.0479 C   0  0  0  0  0  0  0  0  0  0  0  0
  -24.6729  -23.8134   18.6123 C   0  0  0  0  0  0  0  0  0  0  0  0
  -24.4412  -25.3606   21.1217 C   0  0  0  0  0  0  0  0  0  0  0  0
  -30.5924  -25.6575   17.9271 C   0  0  0  0  0  0  0  0  0  0  0  0
  -31.2170  -14.0745   22.8288 C   0  0  0  0  0  0  0  0  0  0  0  0
  -30.1374  -24.9503   19.1998 C   0  0  0  0  0  0  0  0  0  0  0  0
  -22.5953  -18.5545   25.3132 C   0  0  0  0  0  0  0  0  0  0  0  0
  -23.9094  -19.2997   25.5764 C   0  0  0  0  0  0  0  0  0  0  0  0
  -31.7074  -13.0850   21.7738 C   0  0  0  0  0  0  0  0  0  0  0  0
  -31.5989  -15.5004   22.4568 C   0  0  0  0  0  0  0  0  0  0  0  0
  -29.0249  -20.0793   21.4098 C   0  0  0  0  0  0  0  0  0  0  0  0
  -27.8201  -18.1611   22.4210 C   0  0  0  0  0  0  0  0  0  0  0  0
  -30.3496  -19.3961   21.7235 C   0  0  0  0  0  0  0  0  0  0  0  0
  -29.1586  -17.4739   22.6982 C   0  0  0  0  0  0  0  0  0  0  0  0
  -31.5552  -14.9289   20.0445 C   0  0  0  0  0  0  0  0  0  0  0  0
  -29.2238  -23.7625   18.8744 C   0  0  1  0  0  0  0  0  0  0  0  0
  -25.6203  -24.9643   18.9366 C   0  0  1  0  0  0  0  0  0  0  0  0
  -21.7591  -19.4733   24.4184 C   0  0  1  0  0  0  0  0  0  0  0  0
  -23.7995  -20.6301   24.8264 C   0  0  2  0  0  0  0  0  0  0  0  0
  -31.2287  -13.4543   20.3556 C   0  0  2  0  0  0  0  0  0  0  0  0
  -22.8078  -20.3254   23.7035 C   0  0  2  0  0  0  0  0  0  1  0  0
  -22.8340  -31.2304   22.8475 C   0  0  0  0  0  0  0  0  0  0  0  0
  -20.2538  -17.4824   24.1466 C   0  0  0  0  0  0  0  0  0  0  0  0
  -19.7356  -19.6221   22.9397 C   0  0  0  0  0  0  0  0  0  0  0  0
  -25.8827  -21.8698   25.4537 C   0  0  0  0  0  0  0  0  0  0  0  0
  -28.0969  -27.7790   20.7834 C   0  0  0  0  0  0  0  0  0  0  0  0
  -27.1469  -29.5651   22.2584 C   0  0  0  0  0  0  0  0  0  0  0  0
  -26.9918  -29.7847   19.7784 C   0  0  0  0  0  0  0  0  0  0  0  0
  -20.6392  -28.2881   21.8465 C   0  0  0  0  0  0  0  0  0  0  0  0
  -26.0259  -20.0095   23.7928 C   0  0  0  0  0  0  0  0  0  0  0  0
  -25.5402  -28.0891   20.9658 C   0  0  1  0  0  0  0  0  0  0  0  0
  -22.4480  -29.9994   22.0422 C   0  0  2  0  0  0  0  0  0  0  0  0
  -20.8489  -18.7147   23.4644 C   0  0  0  0  0  0  0  0  0  0  0  0
  -25.1510  -21.1440   24.3240 C   0  0  1  0  0  0  0  0  0  0  0  0
  -26.9340  -28.7778   20.9478 C   0  0  0  0  0  0  0  0  0  0  0  0
  -28.7999  -13.9170   20.3101 N   0  0  0  0  0  0  0  0  0  0  0  0
  -29.7848  -13.0219   20.1234 N   0  0  0  0  0  0  0  0  0  0  0  0
  -25.0525  -25.9096   19.9001 N   0  0  0  0  0  0  0  0  0  0  0  0
  -27.9625  -19.6185   22.3074 N   0  0  0  0  0  0  0  0  0  0  0  0
  -31.1406  -15.8495   21.1071 N   0  0  0  0  0  0  0  0  0  0  0  0
  -30.1897  -17.9444   21.7659 N   0  0  0  0  0  0  0  0  0  0  0  0
  -30.2019  -10.7746   19.5017 N   0  0  0  0  0  0  0  0  0  0  0  0
  -25.7039  -11.1035   19.2647 N   0  0  0  0  0  0  0  0  0  0  0  0
  -27.8916  -24.2241   18.5478 N   0  0  0  0  0  0  0  0  0  0  0  0
  -24.4186  -29.0133   21.0931 N   0  0  0  0  0  0  0  0  0  0  0  0
  -21.1499  -29.4851   22.5630 N   0  3  0  0  0  0  0  0  0  0  0  0
  -27.4834   -9.6812   19.0010 O   0  0  0  0  0  0  0  0  0  0  0  0
  -27.0607  -24.3891   20.7169 O   0  0  0  0  0  0  0  0  0  0  0  0
  -27.1532  -21.7668   22.6724 O   0  0  0  0  0  0  0  0  0  0  0  0
  -25.2762  -27.8462   18.6211 O   0  0  0  0  0  0  0  0  0  0  0  0
  -23.5476  -28.0903   23.0339 O   0  0  0  0  0  0  0  0  0  0  0  0
  -30.8956  -17.5791   19.6003 O   0  0  0  0  0  0  0  0  0  0  0  0
  -22.6720  -15.6478   20.3564 O   0  0  0  0  0  0  0  0  0  0  0  0
  -22.2222  -21.5051   23.1835 O   0  0  0  0  0  0  0  0  0  1  0  0
  -19.1195  -14.7684   16.2320 F   0  0  0  0  0  0  0  0  0  0  0  0
  -21.8279  -13.0902   19.7325 F   0  0  0  0  0  0  0  0  0  0  0  0
  1  2  1  0  0  0  0
  1  5  2  0  0  0  0
  2  6  2  0  0  0  0
  3  8  2  0  0  0  0
  3 15  1  0  0  0  0
  4  9  1  0  0  0  0
  4 15  2  0  0  0  0
  5 17  1  0  0  0  0
  6 19  1  0  0  0  0
  7 10  2  0  0  0  0
  7 18  1  0  0  0  0
  8 21  1  0  0  0  0
  9 21  2  0  0  0  0
 10 22  1  0  0  0  0
 11 12  2  0  0  0  0
 11 23  1  0  0  0  0
 12 24  1  0  0  0  0
 13 20  1  0  0  0  0
 13 22  2  0  0  0  0
 14 24  2  0  0  0  0
 14 25  1  0  0  0  0
 15 26  1  0  0  0  0
 16 26  1  0  0  0  0
 16 27  2  0  0  0  0
 16 28  1  0  0  0  0
 17 19  2  0  0  0  0
 17 34  1  0  0  0  0
 18 20  2  0  0  0  0
 18 35  1  0  0  0  0
 19 49  1  0  0  0  0
 20 36  1  0  0  0  0
 21 86  1  0  0  0  0
 22 87  1  0  0  0  0
 23 25  2  0  0  0  0
 23 86  1  0  0  0  0
 24 88  1  0  0  0  0
 25 89  1  0  0  0  0
 26 69  2  0  0  0  0
 27 70  1  0  0  0  0
 27 75  1  0  0  0  0
 28 76  1  0  0  0  0
 28 80  2  0  0  0  0
 29 50  1  0  0  0  0
 29 77  1  0  0  0  0
 29 81  2  0  0  0  0
 30 63  1  0  0  0  0
 30 72  1  0  0  0  0
 30 82  2  0  0  0  0
 31 64  1  0  0  0  0
 31 71  1  0  0  0  0
 31 83  2  0  0  0  0
 32 65  1  0  0  0  0
 32 78  1  0  0  0  0
 32 84  2  0  0  0  0
 33 73  1  0  0  0  0
 33 74  1  0  0  0  0
 33 85  2  0  0  0  0
 34 37  1  0  0  0  0
 35 50  1  0  0  0  0
 36 71  1  0  0  0  0
 37 39  1  0  0  0  0
 38 42  1  0  0  0  0
 38 43  1  0  0  0  0
 39 49  1  0  0  0  0
 40 41  1  0  0  0  0
 40 51  1  0  0  0  0
 41 52  1  0  0  0  0
 42 53  1  0  0  0  0
 43 73  1  0  0  0  0
 44 46  1  0  0  0  0
 44 72  1  0  0  0  0
 45 47  1  0  0  0  0
 45 72  1  0  0  0  0
 46 74  1  0  0  0  0
 47 74  1  0  0  0  0
 48 53  1  0  0  0  0
 48 73  1  0  0  0  0
 49 77  1  0  0  0  0
 50 71  1  0  0  0  0
 51 54  1  0  0  0  0
 51 66  1  0  0  0  0
 52 54  1  0  0  0  0
 52 67  1  0  0  0  0
 53 70  1  0  0  0  0
 54 87  1  0  0  0  0
 55 65  1  0  0  0  0
 56 66  1  0  0  0  0
 57 66  1  0  0  0  0
 58 67  1  0  0  0  0
 59 68  1  0  0  0  0
 60 68  1  0  0  0  0
 61 68  1  0  0  0  0
 62 79  1  0  0  0  0
 63 67  1  0  0  0  0
 64 68  1  0  0  0  0
 64 78  1  0  0  0  0
 65 79  1  0  0  0  0
 69 70  1  0  0  0  0
M  CHG  1  79   1
M  ISO  4  33 100  54 101  74 100  87 101
M  END
> <Batch ID>
0117

> <Smiles>
CNC(C)C(=O)NC(C(=O)N1Cc2cc([101O:1][101CH:1]3C(C(C)C)CCC3C(C)CC(=O)N3CC[100N:0]([100C:0](=O)N4CCCC(n5nc(-c6ccc(Oc7ccc(F)cc7F)cc6)c(C(N)=O)c5N)C4)CC3)ccc2CC1C(=O)NC1CCCc2ccccc21)C(C)(C)C

> <Shape>
0.222

> <Color>
0.058

> <Negative vol penalty>
0.000

$$$$

  -OEChem-04052320153D

 86 95  0     1  0  0  0  0  0999 V2000
  -28.2883  -37.4734   21.4336 C   0  0  0  0  0  0  0  0  0  0  0  0
  -28.7219  -36.2004   21.0775 C   0  0  0  0  0  0  0  0  0  0  0  0
  -24.2604  -14.8263   24.5512 C   0  0  0  0  0  0  0  0  0  0  0  0
  -25.4349  -12.7267   24.7732 C   0  0  0  0  0  0  0  0  0  0  0  0
  -27.2945  -37.6252   22.3996 C   0  0  0  0  0  0  0  0  0  0  0  0
  -28.1628  -35.0784   21.6881 C   0  0  0  0  0  0  0  0  0  0  0  0
  -27.1282  -29.6182   19.1147 C   0  0  0  0  0  0  0  0  0  0  0  0
  -24.0300  -14.8429   25.9268 C   0  0  0  0  0  0  0  0  0  0  0  0
  -25.2045  -12.7433   26.1488 C   0  0  0  0  0  0  0  0  0  0  0  0
  -27.8418  -28.4207   19.1365 C   0  0  0  0  0  0  0  0  0  0  0  0
  -25.7604  -15.5921   28.7334 C   0  0  0  0  0  0  0  0  0  0  0  0
  -25.9802  -16.7901   29.4131 C   0  0  0  0  0  0  0  0  0  0  0  0
  -26.4493  -27.6309   20.9411 C   0  0  0  0  0  0  0  0  0  0  0  0
  -23.6675  -16.8183   30.1113 C   0  0  0  0  0  0  0  0  0  0  0  0
  -29.7618  -19.2554   19.3039 C   0  0  0  0  0  0  0  0  0  0  0  0
  -24.9628  -13.7682   23.9744 C   0  0  0  0  0  0  0  0  0  0  0  0
  -24.2342  -13.7463   21.5297 C   0  0  0  0  0  0  0  0  0  0  0  0
  -26.7160  -36.5041   23.0154 C   0  0  0  0  0  0  0  0  0  0  0  0
  -26.0751  -29.8358   20.0148 C   0  0  0  0  0  0  0  0  0  0  0  0
  -27.1613  -35.2154   22.6643 C   0  0  0  0  0  0  0  0  0  0  0  0
  -25.7223  -28.8310   20.9270 C   0  0  0  0  0  0  0  0  0  0  0  0
  -24.5021  -13.8014   26.7256 C   0  0  0  0  0  0  0  0  0  0  0  0
  -27.5043  -27.4279   20.0518 C   0  0  0  0  0  0  0  0  0  0  0  0
  -24.4941  -15.0072   28.7426 C   0  0  0  0  0  0  0  0  0  0  0  0
  -24.9338  -17.4032   30.1021 C   0  0  0  0  0  0  0  0  0  0  0  0
  -23.4476  -15.6203   29.4316 C   0  0  0  0  0  0  0  0  0  0  0  0
  -25.2006  -13.7502   22.5534 C   0  0  0  0  0  0  0  0  0  0  0  0
  -30.4861  -20.2275   18.6582 C   0  0  0  0  0  0  0  0  0  0  0  0
  -30.3667  -18.0465   18.9110 C   0  0  0  0  0  0  0  0  0  0  0  0
  -24.9655  -13.7275   20.3673 C   0  0  0  0  0  0  0  0  0  0  0  0
  -22.8035  -13.7587   21.6214 C   0  0  0  0  0  0  0  0  0  0  0  0
  -25.5079  -31.9268   22.3407 C   0  0  0  0  0  0  0  0  0  0  0  0
  -22.6031  -30.4843   22.3986 C   0  0  0  0  0  0  0  0  0  0  0  0
  -20.7305  -27.7129   21.7206 C   0  0  0  0  0  0  0  0  0  0  0  0
  -30.4935  -15.5318   18.9924 C   0  0  0  0  0  0  0  0  0  0  0  0
  -25.6783  -36.7199   24.0883 C   0  0  0  0  0  0  0  0  0  0  0  0
  -25.2979  -31.1224   19.9606 C   0  0  0  0  0  0  0  0  0  0  0  0
  -24.5869  -29.0071   21.9008 C   0  0  0  0  0  0  0  0  0  0  0  0
  -24.8725  -35.4659   24.4174 C   0  0  0  0  0  0  0  0  0  0  0  0
  -29.1684  -12.2492   18.6107 C   0  0  0  0  0  0  0  0  0  0  0  0
  -25.7981  -34.2649   24.5837 C   0  0  0  0  0  0  0  0  0  0  0  0
  -29.8370  -22.2673   20.0093 C   0  0  0  0  0  0  0  0  0  0  0  0
  -29.4606  -22.2331   17.5040 C   0  0  0  0  0  0  0  0  0  0  0  0
  -29.7143  -23.7907   20.0037 C   0  0  0  0  0  0  0  0  0  0  0  0
  -29.3388  -23.7567   17.5047 C   0  0  0  0  0  0  0  0  0  0  0  0
  -27.9092  -12.2632   19.4804 C   0  0  0  0  0  0  0  0  0  0  0  0
  -30.2980  -13.0665   19.2350 C   0  0  0  0  0  0  0  0  0  0  0  0
  -28.6814  -14.4576   20.4680 C   0  0  0  0  0  0  0  0  0  0  0  0
  -26.5615  -33.9729   23.2862 C   0  0  1  0  0  0  0  0  0  0  0  0
  -30.3485  -21.7392   18.6585 C   0  0  0  0  0  0  0  0  0  0  0  0
  -24.5765  -31.4402   21.2667 C   0  0  1  0  0  0  0  0  0  0  0  0
  -28.8286  -24.2842   18.8522 C   0  0  0  0  0  0  0  0  0  0  0  0
  -27.4947  -13.7012   19.8489 C   0  0  2  0  0  0  0  0  0  0  0  0
  -18.3937  -26.8189   21.9136 C   0  0  0  0  0  0  0  0  0  0  0  0
  -32.7919  -19.2618   15.9035 C   0  0  0  0  0  0  0  0  0  0  0  0
  -33.7090  -20.5389   17.8870 C   0  0  0  0  0  0  0  0  0  0  0  0
  -23.0230  -30.0392   25.3878 C   0  0  0  0  0  0  0  0  0  0  0  0
  -21.1694  -28.3573   25.3269 C   0  0  0  0  0  0  0  0  0  0  0  0
  -20.7080  -30.7406   24.7526 C   0  0  0  0  0  0  0  0  0  0  0  0
  -20.4897  -27.3849   18.7891 C   0  0  0  0  0  0  0  0  0  0  0  0
  -28.7592  -25.8102   18.8418 C   0  0  0  0  0  0  0  0  0  1  0  0
  -22.0099  -29.3042   23.1296 C   0  0  1  0  0  0  0  0  0  0  0  0
  -19.3907  -27.5477   21.0262 C   0  0  2  0  0  0  0  0  0  0  0  0
  -32.4552  -20.1556   17.0986 C   0  0  0  0  0  0  0  0  0  0  0  0
  -21.7502  -29.6075   24.6323 C   0  0  0  0  0  0  0  0  0  0  0  0
  -26.4505  -13.7349   22.0826 N   0  0  0  0  0  0  0  0  0  0  0  0
  -31.3958  -18.2312   18.0798 N   0  0  0  0  0  0  0  0  0  0  0  0
  -31.4432  -19.5675   17.9452 N   0  0  0  0  0  0  0  0  0  0  0  0
  -26.2745  -13.7211   20.7504 N   0  0  0  0  0  0  0  0  0  0  0  0
  -23.8613  -30.2851   21.8129 N   0  0  0  0  0  0  0  0  0  0  0  0
  -29.8333  -14.4183   19.5535 N   0  0  0  0  0  0  0  0  0  0  0  0
  -24.6102  -13.7158   19.0650 N   0  0  0  0  0  0  0  0  0  0  0  0
  -22.1269  -12.5326   21.6781 N   0  0  0  0  0  0  0  0  0  0  0  0
  -29.9426  -16.7646   19.3407 N   0  0  0  0  0  0  0  0  0  0  0  0
  -25.7048  -33.2945   22.3374 N   0  0  0  0  0  0  0  0  0  0  0  0
  -20.8171  -28.9191   22.3830 N   0  0  0  0  0  0  0  0  0  0  0  0
  -19.5533  -26.7704   19.7651 N   0  3  0  0  0  0  0  0  0  0  0  0
  -22.1434  -14.8253   21.6357 O   0  0  0  0  0  0  0  0  0  0  0  0
  -26.0097  -31.1211   23.1158 O   0  0  0  0  0  0  0  0  0  0  0  0
  -21.9702  -31.5416   22.3430 O   0  0  0  0  0  0  0  0  0  0  0  0
  -21.6107  -26.8560   21.6824 O   0  0  0  0  0  0  0  0  0  0  0  0
  -31.4586  -15.4003   18.2352 O   0  0  0  0  0  0  0  0  0  0  0  0
  -24.2776  -13.8173   28.0680 O   0  0  0  0  0  0  0  0  0  0  0  0
  -28.1995  -26.2584   20.0756 O   0  0  0  0  0  0  0  0  0  1  0  0
  -25.1454  -18.5529   30.7561 F   0  0  0  0  0  0  0  0  0  0  0  0
  -22.2292  -15.0625   29.4450 F   0  0  0  0  0  0  0  0  0  0  0  0
  1  2  1  0  0  0  0
  1  5  2  0  0  0  0
  2  6  2  0  0  0  0
  3  8  2  0  0  0  0
  3 16  1  0  0  0  0
  4  9  1  0  0  0  0
  4 16  2  0  0  0  0
  5 18  1  0  0  0  0
  6 20  1  0  0  0  0
  7 10  2  0  0  0  0
  7 19  1  0  0  0  0
  8 22  1  0  0  0  0
  9 22  2  0  0  0  0
 10 23  1  0  0  0  0
 11 12  2  0  0  0  0
 11 24  1  0  0  0  0
 12 25  1  0  0  0  0
 13 21  1  0  0  0  0
 13 23  2  0  0  0  0
 14 25  2  0  0  0  0
 14 26  1  0  0  0  0
 15 28  2  0  0  0  0
 15 29  1  0  0  0  0
 16 27  1  0  0  0  0
 17 27  1  0  0  0  0
 17 30  2  0  0  0  0
 17 31  1  0  0  0  0
 18 20  2  0  0  0  0
 18 36  1  0  0  0  0
 19 21  2  0  0  0  0
 19 37  1  0  0  0  0
 20 49  1  0  0  0  0
 21 38  1  0  0  0  0
 22 83  1  0  0  0  0
 23 84  1  0  0  0  0
 24 26  2  0  0  0  0
 24 83  1  0  0  0  0
 25 85  1  0  0  0  0
 26 86  1  0  0  0  0
 27 66  2  0  0  0  0
 28 50  1  0  0  0  0
 28 68  1  0  0  0  0
 29 67  2  0  0  0  0
 29 74  1  0  0  0  0
 30 69  1  0  0  0  0
 30 72  1  0  0  0  0
 31 73  1  0  0  0  0
 31 78  2  0  0  0  0
 32 51  1  0  0  0  0
 32 75  1  0  0  0  0
 32 79  2  0  0  0  0
 33 62  1  0  0  0  0
 33 70  1  0  0  0  0
 33 80  2  0  0  0  0
 34 63  1  0  0  0  0
 34 76  1  0  0  0  0
 34 81  2  0  0  0  0
 35 71  1  0  0  0  0
 35 74  1  0  0  0  0
 35 82  2  0  0  0  0
 36 39  1  0  0  0  0
 37 51  1  0  0  0  0
 38 70  1  0  0  0  0
 39 41  1  0  0  0  0
 40 46  1  0  0  0  0
 40 47  1  0  0  0  0
 41 49  1  0  0  0  0
 42 44  1  0  0  0  0
 42 50  1  0  0  0  0
 43 45  1  0  0  0  0
 43 50  1  0  0  0  0
 44 52  1  0  0  0  0
 45 52  1  0  0  0  0
 46 53  1  0  0  0  0
 47 71  1  0  0  0  0
 48 53  1  0  0  0  0
 48 71  1  0  0  0  0
 49 75  1  0  0  0  0
 51 70  1  0  0  0  0
 52 61  1  0  0  0  0
 53 69  1  0  0  0  0
 54 63  1  0  0  0  0
 55 64  1  0  0  0  0
 56 64  1  0  0  0  0
 57 65  1  0  0  0  0
 58 65  1  0  0  0  0
 59 65  1  0  0  0  0
 60 77  1  0  0  0  0
 61 84  1  0  0  0  0
 62 65  1  0  0  0  0
 62 76  1  0  0  0  0
 63 77  1  0  0  0  0
 64 68  1  0  0  0  0
 66 69  1  0  0  0  0
 67 68  1  0  0  0  0
M  CHG  1  77   1
M  ISO  4  35 100  61 101  74 100  84 101
M  END
> <Batch ID>
0117

> <Smiles>
CNC(C)C(=O)NC(C(=O)N1Cc2cc([101O:1][101CH2:1]C3CCC(c4cc([100NH:0][100C:0](=O)N5CCCC(n6nc(-c7ccc(Oc8ccc(F)cc8F)cc7)c(C(N)=O)c6N)C5)nn4C(C)C)CC3)ccc2CC1C(=O)NC1CCCc2ccccc21)C(C)(C)C

> <Shape>
0.283

> <Color>
0.093

> <Negative vol penalty>
0.000

$$$$

  -OEChem-04052320153D

 86 94  0     1  0  0  0  0  0999 V2000
  -23.8452  -23.6903   26.2628 C   0  0  0  0  0  0  0  0  0  0  0  0
  -24.8748  -24.1313   25.4392 C   0  0  0  0  0  0  0  0  0  0  0  0
  -23.6473  -10.0467   19.8661 C   0  0  0  0  0  0  0  0  0  0  0  0
  -24.4567  -10.1518   22.1401 C   0  0  0  0  0  0  0  0  0  0  0  0
  -22.5336  -23.6899   25.7929 C   0  0  0  0  0  0  0  0  0  0  0  0
  -24.5918  -24.5833   24.1498 C   0  0  0  0  0  0  0  0  0  0  0  0
  -28.3061  -26.5797   21.6158 C   0  0  0  0  0  0  0  0  0  0  0  0
  -27.1374  -21.0833   20.2098 C   0  0  0  0  0  0  0  0  0  0  0  0
  -23.2242   -8.7345   20.0773 C   0  0  0  0  0  0  0  0  0  0  0  0
  -24.0335   -8.8395   22.3513 C   0  0  0  0  0  0  0  0  0  0  0  0
  -29.3574  -25.8242   21.0982 C   0  0  0  0  0  0  0  0  0  0  0  0
  -20.6185   -7.1645   21.5533 C   0  0  0  0  0  0  0  0  0  0  0  0
  -19.3495   -6.8109   21.0951 C   0  0  0  0  0  0  0  0  0  0  0  0
  -28.0483  -21.6953   19.3559 C   0  0  0  0  0  0  0  0  0  0  0  0
  -28.3841  -25.9891   18.8971 C   0  0  0  0  0  0  0  0  0  0  0  0
  -20.3333   -5.1259   19.6703 C   0  0  0  0  0  0  0  0  0  0  0  0
  -24.2636  -10.7554   20.8975 C   0  0  0  0  0  0  0  0  0  0  0  0
  -23.9588  -13.2881   20.8898 C   0  0  0  0  0  0  0  0  0  0  0  0
  -22.2367  -24.1306   24.4926 C   0  0  0  0  0  0  0  0  0  0  0  0
  -27.2785  -27.0371   20.7783 C   0  0  0  0  0  0  0  0  0  0  0  0
  -23.2715  -24.6131   23.6657 C   0  0  0  0  0  0  0  0  0  0  0  0
  -27.3223  -26.7524   19.4061 C   0  0  0  0  0  0  0  0  0  0  0  0
  -27.5708  -20.0955   21.0872 C   0  0  0  0  0  0  0  0  0  0  0  0
  -23.4173   -8.1309   21.3199 C   0  0  0  0  0  0  0  0  0  0  0  0
  -29.3950  -25.5264   19.7391 C   0  0  0  0  0  0  0  0  0  0  0  0
  -21.7451   -6.4989   21.0700 C   0  0  0  0  0  0  0  0  0  0  0  0
  -19.2068   -5.7916   20.1536 C   0  0  0  0  0  0  0  0  0  0  0  0
  -21.6025   -5.4796   20.1285 C   0  0  0  0  0  0  0  0  0  0  0  0
  -24.7014  -12.1107   20.6797 C   0  0  0  0  0  0  0  0  0  0  0  0
  -29.3708  -21.2869   19.4180 C   0  0  0  0  0  0  0  0  0  0  0  0
  -28.9147  -19.7586   21.0716 C   0  0  0  0  0  0  0  0  0  0  0  0
  -24.8162  -14.3021   20.5387 C   0  0  0  0  0  0  0  0  0  0  0  0
  -22.6143  -13.4507   21.3604 C   0  0  0  0  0  0  0  0  0  0  0  0
  -24.1395  -26.5639   20.6155 C   0  0  0  0  0  0  0  0  0  0  0  0
  -24.3097  -28.8372   18.3078 C   0  0  0  0  0  0  0  0  0  0  0  0
  -26.1967  -30.4587   15.9718 C   0  0  0  0  0  0  0  0  0  0  0  0
  -29.8739  -16.6582   20.6553 C   0  0  0  0  0  0  0  0  0  0  0  0
  -20.7986  -24.1162   24.0380 C   0  0  0  0  0  0  0  0  0  0  0  0
  -26.1656  -27.8735   21.3476 C   0  0  0  0  0  0  0  0  0  0  0  0
  -26.2543  -27.2370   18.4611 C   0  0  0  0  0  0  0  0  0  0  0  0
  -20.6537  -24.1913   22.5215 C   0  0  0  0  0  0  0  0  0  0  0  0
  -29.2906  -14.1628   18.1836 C   0  0  0  0  0  0  0  0  0  0  0  0
  -21.5027  -25.3288   21.9739 C   0  0  0  0  0  0  0  0  0  0  0  0
  -27.9874  -13.5000   18.6334 C   0  0  0  0  0  0  0  0  0  0  0  0
  -30.1625  -14.5583   19.3732 C   0  0  0  0  0  0  0  0  0  0  0  0
  -28.1853  -14.7313   20.8342 C   0  0  0  0  0  0  0  0  0  0  0  0
  -22.9913  -25.0805   22.2489 C   0  0  1  0  0  0  0  0  0  0  0  0
  -24.9035  -27.8517   20.4909 C   0  0  1  0  0  0  0  0  0  0  0  0
  -27.2474  -14.3652   19.6712 C   0  0  2  0  0  0  0  0  0  0  0  0
  -30.9831  -20.8959   17.5371 C   0  0  0  0  0  0  0  0  0  0  0  0
  -26.0493  -32.2428   14.2132 C   0  0  0  0  0  0  0  0  0  0  0  0
  -25.0757  -21.0836   22.7865 C   0  0  0  0  0  0  0  0  0  0  0  0
  -24.4985  -18.6381   22.6069 C   0  0  0  0  0  0  0  0  0  0  0  0
  -22.8562  -26.8923   16.4599 C   0  0  0  0  0  0  0  0  0  0  0  0
  -23.5743  -28.3057   14.5221 C   0  0  0  0  0  0  0  0  0  0  0  0
  -22.0926  -29.2672   16.2836 C   0  0  0  0  0  0  0  0  0  0  0  0
  -28.2206  -32.1328   17.3356 C   0  0  0  0  0  0  0  0  0  0  0  0
  -29.4406  -18.7045   21.9910 C   0  0  0  0  0  0  0  0  0  0  0  0
  -31.5202  -22.6558   19.2640 C   0  0  0  0  0  0  0  0  0  0  0  0
  -31.0235  -23.8313   20.1004 C   0  0  0  0  0  0  0  0  0  1  0  0
  -30.3936  -21.9336   18.5000 C   0  0  2  0  0  0  0  0  0  0  0  0
  -24.5256  -28.8299   16.8137 C   0  0  1  0  0  0  0  0  0  0  0  0
  -26.3724  -31.9354   15.6672 C   0  0  2  0  0  0  0  0  0  0  0  0
  -25.2639  -19.8000   21.9908 C   0  0  0  0  0  0  0  0  0  0  0  0
  -23.2814  -28.3129   16.0377 C   0  0  0  0  0  0  0  0  0  0  0  0
  -25.9355  -12.3529   20.2298 N   0  0  0  0  0  0  0  0  0  0  0  0
  -29.8291  -20.3309   20.2568 N   0  0  0  0  0  0  0  0  0  0  0  0
  -25.9750  -13.6941   20.1543 N   0  0  0  0  0  0  0  0  0  0  0  0
  -25.1836  -28.0459   19.0668 N   0  0  0  0  0  0  0  0  0  0  0  0
  -29.4018  -15.3788   20.3188 N   0  0  0  0  0  0  0  0  0  0  0  0
  -24.6844  -15.6455   20.5243 N   0  0  0  0  0  0  0  0  0  0  0  0
  -21.8737  -12.3035   21.6763 N   0  0  0  0  0  0  0  0  0  0  0  0
  -26.6574  -19.4705   21.9548 N   0  0  0  0  0  0  0  0  0  0  0  0
  -23.7395  -26.2695   21.9050 N   0  0  0  0  0  0  0  0  0  0  0  0
  -24.9345  -30.1832   16.4537 N   0  0  0  0  0  0  0  0  0  0  0  0
  -29.0896  -17.3718   21.5533 N   0  0  0  0  0  0  0  0  0  0  0  0
  -27.7766  -32.3562   15.9357 N   0  3  0  0  0  0  0  0  0  0  0  0
  -22.0798  -14.5790   21.4812 O   0  0  0  0  0  0  0  0  0  0  0  0
  -23.9274  -25.8881   19.6155 O   0  0  0  0  0  0  0  0  0  0  0  0
  -23.4038  -29.5254   18.7845 O   0  0  0  0  0  0  0  0  0  0  0  0
  -27.0887  -29.6316   15.7960 O   0  0  0  0  0  0  0  0  0  0  0  0
  -30.9142  -17.1317   20.1858 O   0  0  0  0  0  0  0  0  0  0  0  0
  -23.0043   -6.8505   21.5264 O   0  0  0  0  0  0  0  0  0  0  0  0
  -30.4196  -24.7886   19.2314 O   0  0  0  0  0  0  0  0  0  1  0  0
  -17.9879   -5.4511   19.7148 F   0  0  0  0  0  0  0  0  0  0  0  0
  -22.6809   -4.8357   19.6614 F   0  0  0  0  0  0  0  0  0  0  0  0
  1  2  1  0  0  0  0
  1  5  2  0  0  0  0
  2  6  2  0  0  0  0
  3  9  2  0  0  0  0
  3 17  1  0  0  0  0
  4 10  1  0  0  0  0
  4 17  2  0  0  0  0
  5 19  1  0  0  0  0
  6 21  1  0  0  0  0
  7 11  2  0  0  0  0
  7 20  1  0  0  0  0
  8 14  2  0  0  0  0
  8 23  1  0  0  0  0
  9 24  1  0  0  0  0
 10 24  2  0  0  0  0
 11 25  1  0  0  0  0
 12 13  2  0  0  0  0
 12 26  1  0  0  0  0
 13 27  1  0  0  0  0
 14 30  1  0  0  0  0
 15 22  1  0  0  0  0
 15 25  2  0  0  0  0
 16 27  2  0  0  0  0
 16 28  1  0  0  0  0
 17 29  1  0  0  0  0
 18 29  1  0  0  0  0
 18 32  2  0  0  0  0
 18 33  1  0  0  0  0
 19 21  2  0  0  0  0
 19 38  1  0  0  0  0
 20 22  2  0  0  0  0
 20 39  1  0  0  0  0
 21 47  1  0  0  0  0
 22 40  1  0  0  0  0
 23 31  2  0  0  0  0
 23 73  1  0  0  0  0
 24 83  1  0  0  0  0
 25 84  1  0  0  0  0
 26 28  2  0  0  0  0
 26 83  1  0  0  0  0
 27 85  1  0  0  0  0
 28 86  1  0  0  0  0
 29 66  2  0  0  0  0
 30 61  1  0  0  0  0
 30 67  2  0  0  0  0
 31 58  1  0  0  0  0
 31 67  1  0  0  0  0
 32 68  1  0  0  0  0
 32 71  1  0  0  0  0
 33 72  1  0  0  0  0
 33 78  2  0  0  0  0
 34 48  1  0  0  0  0
 34 74  1  0  0  0  0
 34 79  2  0  0  0  0
 35 62  1  0  0  0  0
 35 69  1  0  0  0  0
 35 80  2  0  0  0  0
 36 63  1  0  0  0  0
 36 75  1  0  0  0  0
 36 81  2  0  0  0  0
 37 70  1  0  0  0  0
 37 76  1  0  0  0  0
 37 82  2  0  0  0  0
 38 41  1  0  0  0  0
 39 48  1  0  0  0  0
 40 69  1  0  0  0  0
 41 43  1  0  0  0  0
 42 44  1  0  0  0  0
 42 45  1  0  0  0  0
 43 47  1  0  0  0  0
 44 49  1  0  0  0  0
 45 70  1  0  0  0  0
 46 49  1  0  0  0  0
 46 70  1  0  0  0  0
 47 74  1  0  0  0  0
 48 69  1  0  0  0  0
 49 68  1  0  0  0  0
 50 61  1  0  0  0  0
 51 63  1  0  0  0  0
 52 64  1  0  0  0  0
 53 64  1  0  0  0  0
 54 65  1  0  0  0  0
 55 65  1  0  0  0  0
 56 65  1  0  0  0  0
 57 77  1  0  0  0  0
 58 76  1  0  0  0  0
 59 60  1  0  0  0  0
 59 61  1  0  0  0  0
 60 84  1  0  0  0  0
 62 65  1  0  0  0  0
 62 75  1  0  0  0  0
 63 77  1  0  0  0  0
 64 73  1  0  0  0  0
 66 68  1  0  0  0  0
M  CHG  1  77   1
M  ISO  4  37 100  60 101  76 100  84 101
M  END
> <Batch ID>
0117

> <Smiles>
CNC(C)C(=O)NC(C(=O)N1Cc2cc([101O:1][101CH2:1]CC(C)c3ccc(NC(C)C)c(C[100NH:0][100C:0](=O)N4CCCC(n5nc(-c6ccc(Oc7ccc(F)cc7F)cc6)c(C(N)=O)c5N)C4)n3)ccc2CC1C(=O)NC1CCCc2ccccc21)C(C)(C)C

> <Shape>
0.227

> <Color>
0.128

> <Negative vol penalty>
0.000

$$$$

  -OEChem-04052320153D

 86 94  0     1  0  0  0  0  0999 V2000
  -40.5081  -28.8165   19.4861 C   0  0  0  0  0  0  0  0  0  0  0  0
  -40.0937  -27.4943   19.6109 C   0  0  0  0  0  0  0  0  0  0  0  0
  -23.2732   -9.8036   19.8925 C   0  0  0  0  0  0  0  0  0  0  0  0
  -23.7120   -9.9165   22.2656 C   0  0  0  0  0  0  0  0  0  0  0  0
  -39.6107  -29.8537   19.7370 C   0  0  0  0  0  0  0  0  0  0  0  0
  -38.7820  -27.2085   19.9878 C   0  0  0  0  0  0  0  0  0  0  0  0
  -35.3554  -22.4939   18.1071 C   0  0  0  0  0  0  0  0  0  0  0  0
  -22.5354   -8.6356   20.0844 C   0  0  0  0  0  0  0  0  0  0  0  0
  -22.9740   -8.7485   22.4576 C   0  0  0  0  0  0  0  0  0  0  0  0
  -35.0599  -21.2599   18.6847 C   0  0  0  0  0  0  0  0  0  0  0  0
  -19.7179   -7.8643   22.6479 C   0  0  0  0  0  0  0  0  0  0  0  0
  -18.8095   -7.8400   23.7061 C   0  0  0  0  0  0  0  0  0  0  0  0
  -33.0044  -22.1690   19.5609 C   0  0  0  0  0  0  0  0  0  0  0  0
  -35.5235  -15.7821   21.3985 C   0  0  0  0  0  0  0  0  0  0  0  0
  -19.9933   -5.9724   24.6796 C   0  0  0  0  0  0  0  0  0  0  0  0
  -23.8616  -10.4441   20.9830 C   0  0  0  0  0  0  0  0  0  0  0  0
  -24.1445  -12.9735   20.8113 C   0  0  0  0  0  0  0  0  0  0  0  0
  -38.2846  -29.5804   20.1077 C   0  0  0  0  0  0  0  0  0  0  0  0
  -34.4814  -23.5796   18.2616 C   0  0  0  0  0  0  0  0  0  0  0  0
  -37.8664  -28.2430   20.2451 C   0  0  0  0  0  0  0  0  0  0  0  0
  -33.2899  -23.4150   18.9822 C   0  0  0  0  0  0  0  0  0  0  0  0
  -34.8524  -16.2278   22.5639 C   0  0  0  0  0  0  0  0  0  0  0  0
  -22.3857   -8.1080   21.3670 C   0  0  0  0  0  0  0  0  0  0  0  0
  -33.8857  -21.0980   19.4141 C   0  0  0  0  0  0  0  0  0  0  0  0
  -20.7640   -6.9425   22.6055 C   0  0  0  0  0  0  0  0  0  0  0  0
  -18.9471   -6.8941   24.7219 C   0  0  0  0  0  0  0  0  0  0  0  0
  -20.9017   -5.9966   23.6214 C   0  0  0  0  0  0  0  0  0  0  0  0
  -24.6244  -11.6503   20.7853 C   0  0  0  0  0  0  0  0  0  0  0  0
  -35.0778  -14.5068   21.1295 C   0  0  0  0  0  0  0  0  0  0  0  0
  -34.0172  -15.2112   22.9717 C   0  0  0  0  0  0  0  0  0  0  0  0
  -25.2542  -13.7461   20.5702 C   0  0  0  0  0  0  0  0  0  0  0  0
  -22.8145  -13.4607   21.0335 C   0  0  0  0  0  0  0  0  0  0  0  0
  -34.6971  -26.4625   19.5831 C   0  0  0  0  0  0  0  0  0  0  0  0
  -31.7446  -26.8456   18.2953 C   0  0  0  0  0  0  0  0  0  0  0  0
  -28.8759  -25.3991   17.1441 C   0  0  0  0  0  0  0  0  0  0  0  0
  -31.0232  -12.5772   21.5584 C   0  0  0  0  0  0  0  0  0  0  0  0
  -37.3640  -30.7350   20.4145 C   0  0  0  0  0  0  0  0  0  0  0  0
  -34.8017  -24.8968   17.6098 C   0  0  0  0  0  0  0  0  0  0  0  0
  -32.3085  -24.5436   19.1603 C   0  0  0  0  0  0  0  0  0  0  0  0
  -35.8882  -30.3458   20.4450 C   0  0  0  0  0  0  0  0  0  0  0  0
  -29.4833  -13.6640   18.3753 C   0  0  0  0  0  0  0  0  0  0  0  0
  -35.6893  -29.0696   21.2566 C   0  0  0  0  0  0  0  0  0  0  0  0
  -28.0178  -13.3254   18.6294 C   0  0  0  0  0  0  0  0  0  0  0  0
  -30.4283  -12.6811   19.0651 C   0  0  0  0  0  0  0  0  0  0  0  0
  -28.7035  -12.2018   20.7827 C   0  0  0  0  0  0  0  0  0  0  0  0
  -36.4448  -27.8926   20.6277 C   0  0  1  0  0  0  0  0  0  0  0  0
  -34.0891  -26.0763   18.2644 C   0  0  1  0  0  0  0  0  0  0  0  0
  -27.7430  -13.2112   20.1362 C   0  0  2  0  0  0  0  0  0  0  0  0
  -33.0928  -15.1420   24.1236 C   0  0  0  0  0  0  0  0  0  0  0  0
  -36.4667  -17.8329   23.6640 C   0  0  0  0  0  0  0  0  0  0  0  0
  -36.9428  -13.1893   20.0621 C   0  0  0  0  0  0  0  0  0  0  0  0
  -35.0923  -14.1365   18.6361 C   0  0  0  0  0  0  0  0  0  0  0  0
  -26.6265  -25.9716   16.1904 C   0  0  0  0  0  0  0  0  0  0  0  0
  -30.7742  -27.6508   21.0738 C   0  0  0  0  0  0  0  0  0  0  0  0
  -28.4269  -27.2840   20.2840 C   0  0  0  0  0  0  0  0  0  0  0  0
  -29.8459  -29.0287   19.2046 C   0  0  0  0  0  0  0  0  0  0  0  0
  -29.4479  -23.9557   14.6245 C   0  0  0  0  0  0  0  0  0  0  0  0
  -33.1518  -18.6842   22.0093 C   0  0  0  0  0  0  0  0  0  0  0  0
  -32.8246  -19.9105   21.1804 C   0  0  0  0  0  0  0  0  0  1  0  0
  -33.4304  -12.8582   22.1715 C   0  0  0  0  0  0  0  0  0  0  0  0
  -35.0263  -17.5730   23.2302 C   0  0  1  0  0  0  0  0  0  0  0  0
  -35.4489  -13.5855   20.0358 C   0  0  0  0  0  0  0  0  0  0  0  0
  -30.3326  -26.5874   18.7629 C   0  0  1  0  0  0  0  0  0  0  0  0
  -28.0732  -25.6242   15.8755 C   0  0  2  0  0  0  0  0  0  0  0  0
  -29.8641  -27.6168   19.8298 C   0  0  0  0  0  0  0  0  0  0  0  0
  -25.9368  -11.5824   20.5464 N   0  0  0  0  0  0  0  0  0  0  0  0
  -34.1627  -14.1700   22.0925 N   0  0  0  0  0  0  0  0  0  0  0  0
  -26.2909  -12.8727   20.4200 N   0  0  0  0  0  0  0  0  0  0  0  0
  -32.6695  -25.8138   18.5093 N   0  0  0  0  0  0  0  0  0  0  0  0
  -30.1057  -12.5257   20.4923 N   0  0  0  0  0  0  0  0  0  0  0  0
  -25.4346  -15.0805   20.4741 N   0  0  0  0  0  0  0  0  0  0  0  0
  -21.7923  -12.5304   21.2660 N   0  0  0  0  0  0  0  0  0  0  0  0
  -35.7227  -27.3829   19.4817 N   0  0  0  0  0  0  0  0  0  0  0  0
  -29.5049  -26.5528   17.5620 N   0  0  0  0  0  0  0  0  0  0  0  0
  -32.3503  -12.7868   21.2001 N   0  0  0  0  0  0  0  0  0  0  0  0
  -28.0885  -24.3982   15.0284 N   0  3  0  0  0  0  0  0  0  0  0  0
  -34.5933  -18.7029   22.3643 N   0  3  0  0  0  0  0  0  0  0  0  0
  -22.5376  -14.6839   21.0099 O   0  0  0  0  0  0  0  0  0  0  0  0
  -34.2665  -25.9634   20.6162 O   0  0  0  0  0  0  0  0  0  0  0  0
  -32.0153  -27.9202   17.7536 O   0  0  0  0  0  0  0  0  0  0  0  0
  -28.9358  -24.3097   17.7100 O   0  0  0  0  0  0  0  0  0  0  0  0
  -30.6836  -12.4382   22.7383 O   0  0  0  0  0  0  0  0  0  0  0  0
  -21.6656   -6.9684   21.5547 O   0  0  0  0  0  0  0  0  0  0  0  0
  -33.5952  -19.8948   19.9794 O   0  0  0  0  0  0  0  0  0  1  0  0
  -18.0756   -6.8719   25.7388 F   0  0  0  0  0  0  0  0  0  0  0  0
  -21.9054   -5.1094   23.5867 F   0  0  0  0  0  0  0  0  0  0  0  0
  1  2  1  0  0  0  0
  1  5  2  0  0  0  0
  2  6  2  0  0  0  0
  3  8  2  0  0  0  0
  3 16  1  0  0  0  0
  4  9  1  0  0  0  0
  4 16  2  0  0  0  0
  5 18  1  0  0  0  0
  6 20  1  0  0  0  0
  7 10  2  0  0  0  0
  7 19  1  0  0  0  0
  8 23  1  0  0  0  0
  9 23  2  0  0  0  0
 10 24  1  0  0  0  0
 11 12  2  0  0  0  0
 11 25  1  0  0  0  0
 12 26  1  0  0  0  0
 13 21  1  0  0  0  0
 13 24  2  0  0  0  0
 14 22  1  0  0  0  0
 14 29  2  0  0  0  0
 15 26  2  0  0  0  0
 15 27  1  0  0  0  0
 16 28  1  0  0  0  0
 17 28  1  0  0  0  0
 17 31  2  0  0  0  0
 17 32  1  0  0  0  0
 18 20  2  0  0  0  0
 18 37  1  0  0  0  0
 19 21  2  0  0  0  0
 19 38  1  0  0  0  0
 20 46  1  0  0  0  0
 21 39  1  0  0  0  0
 22 30  2  0  0  0  0
 22 61  1  0  0  0  0
 23 83  1  0  0  0  0
 24 84  1  0  0  0  0
 25 27  2  0  0  0  0
 25 83  1  0  0  0  0
 26 85  1  0  0  0  0
 27 86  1  0  0  0  0
 28 66  2  0  0  0  0
 29 62  1  0  0  0  0
 29 67  1  0  0  0  0
 30 49  1  0  0  0  0
 30 67  1  0  0  0  0
 31 68  1  0  0  0  0
 31 71  1  0  0  0  0
 32 72  1  0  0  0  0
 32 78  2  0  0  0  0
 33 47  1  0  0  0  0
 33 73  1  0  0  0  0
 33 79  2  0  0  0  0
 34 63  1  0  0  0  0
 34 69  1  0  0  0  0
 34 80  2  0  0  0  0
 35 64  1  0  0  0  0
 35 74  1  0  0  0  0
 35 81  2  0  0  0  0
 36 70  1  0  0  0  0
 36 75  1  0  0  0  0
 36 82  2  0  0  0  0
 37 40  1  0  0  0  0
 38 47  1  0  0  0  0
 39 69  1  0  0  0  0
 40 42  1  0  0  0  0
 41 43  1  0  0  0  0
 41 44  1  0  0  0  0
 42 46  1  0  0  0  0
 43 48  1  0  0  0  0
 44 70  1  0  0  0  0
 45 48  1  0  0  0  0
 45 70  1  0  0  0  0
 46 73  1  0  0  0  0
 47 69  1  0  0  0  0
 48 68  1  0  0  0  0
 50 61  1  0  0  0  0
 51 62  1  0  0  0  0
 52 62  1  0  0  0  0
 53 64  1  0  0  0  0
 54 65  1  0  0  0  0
 55 65  1  0  0  0  0
 56 65  1  0  0  0  0
 57 76  1  0  0  0  0
 58 59  1  0  0  0  0
 58 77  1  0  0  0  0
 59 84  1  0  0  0  0
 60 67  1  0  0  0  0
 60 75  1  0  0  0  0
 61 77  1  0  0  0  0
 63 65  1  0  0  0  0
 63 74  1  0  0  0  0
 64 76  1  0  0  0  0
 66 68  1  0  0  0  0
M  CHG  2  76   1  77   1
M  ISO  4  36 100  59 101  75 100  84 101
M  END
> <Batch ID>
0117

> <Smiles>
CNC(C)C(=O)NC(C(=O)N1Cc2cc([101O:1][101CH2:1]CNC(C)c3cc(C(C)C)n(C[100NH:0][100C:0](=O)N4CCCC(n5nc(-c6ccc(Oc7ccc(F)cc7F)cc6)c(C(N)=O)c5N)C4)c3C)ccc2CC1C(=O)NC1CCCc2ccccc21)C(C)(C)C

> <Shape>
0.175

> <Color>
0.171

> <Negative vol penalty>
0.000

$$$$

  -OEChem-04052320153D

 85 94  0     1  0  0  0  0  0999 V2000
  -26.0483  -10.7197   19.1244 C   0  0  0  0  0  0  0  0  0  0  0  0
  -25.9017  -11.1965   20.4222 C   0  0  0  0  0  0  0  0  0  0  0  0
  -22.6291  -25.8755   22.9731 C   0  0  0  0  0  0  0  0  0  0  0  0
  -22.8866  -28.0863   23.9129 C   0  0  0  0  0  0  0  0  0  0  0  0
  -27.1888  -11.0425   18.3921 C   0  0  0  0  0  0  0  0  0  0  0  0
  -26.8898  -12.0060   20.9837 C   0  0  0  0  0  0  0  0  0  0  0  0
  -29.4412  -19.2653   20.7634 C   0  0  0  0  0  0  0  0  0  0  0  0
  -21.4544  -26.2815   22.3400 C   0  0  0  0  0  0  0  0  0  0  0  0
  -21.7119  -28.4923   23.2796 C   0  0  0  0  0  0  0  0  0  0  0  0
  -29.4524  -20.1558   19.6907 C   0  0  0  0  0  0  0  0  0  0  0  0
  -18.3813  -28.1825   23.7716 C   0  0  0  0  0  0  0  0  0  0  0  0
  -17.4662  -28.9250   24.5178 C   0  0  0  0  0  0  0  0  0  0  0  0
  -27.2216  -19.4573   19.0951 C   0  0  0  0  0  0  0  0  0  0  0  0
  -29.6992  -22.9657   17.1211 C   0  0  0  0  0  0  0  0  0  0  0  0
  -17.6721  -30.7528   22.9513 C   0  0  0  0  0  0  0  0  0  0  0  0
  -28.8646  -24.2704   19.3676 C   0  0  0  0  0  0  0  0  0  0  0  0
  -23.3452  -26.7780   23.7597 C   0  0  0  0  0  0  0  0  0  0  0  0
  -24.7005  -25.3274   25.3617 C   0  0  0  0  0  0  0  0  0  0  0  0
  -28.1967  -11.8461   18.9501 C   0  0  0  0  0  0  0  0  0  0  0  0
  -28.3223  -18.4549   21.0039 C   0  0  0  0  0  0  0  0  0  0  0  0
  -28.0371  -12.3626   20.2521 C   0  0  0  0  0  0  0  0  0  0  0  0
  -27.1976  -18.5592   20.1731 C   0  0  0  0  0  0  0  0  0  0  0  0
  -29.7398  -24.9249   18.5158 C   0  0  0  0  0  0  0  0  0  0  0  0
  -30.1603  -24.2531   17.3733 C   0  0  0  0  0  0  0  0  0  0  0  0
  -20.9958  -27.5899   22.4932 C   0  0  0  0  0  0  0  0  0  0  0  0
  -28.3437  -20.2498   18.8546 C   0  0  0  0  0  0  0  0  0  0  0  0
  -18.9419  -28.7251   22.6153 C   0  0  0  0  0  0  0  0  0  0  0  0
  -17.1115  -30.2101   24.1076 C   0  0  0  0  0  0  0  0  0  0  0  0
  -18.5873  -30.0103   22.2052 C   0  0  0  0  0  0  0  0  0  0  0  0
  -24.5583  -26.3591   24.4145 C   0  0  0  0  0  0  0  0  0  0  0  0
  -28.8258  -22.3989   18.0352 C   0  0  0  0  0  0  0  0  0  1  0  0
  -26.0382  -25.3289   25.6730 C   0  0  0  0  0  0  0  0  0  0  0  0
  -23.7117  -24.4463   25.9111 C   0  0  0  0  0  0  0  0  0  0  0  0
  -27.7932  -15.3211   21.0612 C   0  0  0  0  0  0  0  0  0  0  0  0
  -24.8593  -16.2295   22.1052 C   0  0  0  0  0  0  0  0  0  0  0  0
  -22.4593  -18.6511   22.2558 C   0  0  0  0  0  0  0  0  0  0  0  0
  -30.9132  -27.1376   22.7041 C   0  0  0  0  0  0  0  0  0  0  0  0
  -29.4067  -12.1709   18.1100 C   0  0  0  0  0  0  0  0  0  0  0  0
  -28.3156  -17.5186   22.1811 C   0  0  0  0  0  0  0  0  0  0  0  0
  -25.9638  -17.7259   20.4004 C   0  0  0  0  0  0  0  0  0  0  0  0
  -30.5913  -12.6588   18.9376 C   0  0  0  0  0  0  0  0  0  0  0  0
  -29.8245  -28.2443   25.9083 C   0  0  0  0  0  0  0  0  0  0  0  0
  -29.5719  -28.6250   19.3254 C   0  0  0  0  0  0  0  0  0  0  0  0
  -30.1424  -13.7556   19.8915 C   0  0  0  0  0  0  0  0  0  0  0  0
  -28.3642  -27.7936   25.9742 C   0  0  0  0  0  0  0  0  0  0  0  0
  -29.2016  -27.1861   19.6380 C   0  0  0  0  0  0  0  0  0  0  0  0
  -30.2138  -28.6925   24.5013 C   0  0  0  0  0  0  0  0  0  0  0  0
  -28.4758  -27.2573   23.5047 C   0  0  0  0  0  0  0  0  0  0  0  0
  -29.8856  -28.5922   17.8474 C   0  0  0  0  0  0  0  0  0  0  0  0
  -29.1130  -13.2194   20.8944 C   0  0  1  0  0  0  0  0  0  0  0  0
  -27.3217  -16.3716   22.0266 C   0  0  1  0  0  0  0  0  0  0  0  0
  -28.0521  -26.7433   24.8913 C   0  0  2  0  0  0  0  0  0  0  0  0
  -30.2139  -26.3374   18.8418 C   0  0  1  0  0  0  0  0  0  0  0  0
  -31.1031  -24.8915   16.4079 C   0  0  0  0  0  0  0  0  0  0  0  0
  -20.1539  -19.0870   23.1459 C   0  0  0  0  0  0  0  0  0  0  0  0
  -23.6744  -14.5428   19.8555 C   0  0  0  0  0  0  0  0  0  0  0  0
  -21.5050  -15.7472   20.1893 C   0  0  0  0  0  0  0  0  0  0  0  0
  -22.4630  -14.3717   22.0367 C   0  0  0  0  0  0  0  0  0  0  0  0
  -23.4128  -20.8723   23.9634 C   0  0  0  0  0  0  0  0  0  0  0  0
  -31.5670  -26.2495   19.5740 C   0  0  0  0  0  0  0  0  0  0  0  0
  -31.4621  -25.5193   20.9044 C   0  0  0  0  0  0  0  0  0  0  0  0
  -23.5485  -16.5762   21.4416 C   0  0  1  0  0  0  0  0  0  0  0  0
  -21.6464  -19.1927   23.4178 C   0  0  2  0  0  0  0  0  0  0  0  0
  -22.8216  -15.3239   20.8751 C   0  0  0  0  0  0  0  0  0  0  0  0
  -28.3950  -23.0203   19.1559 N   0  0  0  0  0  0  0  0  0  0  0  0
  -25.7136  -26.9716   24.1420 N   0  0  0  0  0  0  0  0  0  0  0  0
  -26.5943  -26.3230   24.9228 N   0  0  0  0  0  0  0  0  0  0  0  0
  -26.0081  -16.8208   21.5608 N   0  0  0  0  0  0  0  0  0  0  0  0
  -29.8933  -27.6510   23.5222 N   0  0  0  0  0  0  0  0  0  0  0  0
  -26.7813  -24.5770   26.5126 N   0  0  0  0  0  0  0  0  0  0  0  0
  -22.3844  -24.5809   25.4815 N   0  0  0  0  0  0  0  0  0  0  0  0
  -28.5592  -14.3278   21.6407 N   0  0  0  0  0  0  0  0  0  0  0  0
  -22.7749  -17.3201   22.4297 N   0  0  0  0  0  0  0  0  0  0  0  0
  -30.5253  -26.1491   21.8080 N   0  0  0  0  0  0  0  0  0  0  0  0
  -30.4308  -27.2145   17.6009 N   0  3  0  0  0  0  0  0  0  0  0  0
  -21.9797  -20.6249   23.6600 N   0  3  0  0  0  0  0  0  0  0  0  0
  -23.9939  -23.5767   26.7699 O   0  0  0  0  0  0  0  0  0  0  0  0
  -27.4835  -15.4048   19.8785 O   0  0  0  0  0  0  0  0  0  0  0  0
  -24.8631  -15.4678   23.0755 O   0  0  0  0  0  0  0  0  0  0  0  0
  -22.7790  -19.3388   21.2887 O   0  0  0  0  0  0  0  0  0  0  0  0
  -32.0839  -27.5273   22.7713 O   0  0  0  0  0  0  0  0  0  0  0  0
  -19.8498  -27.9864   21.8752 O   0  0  0  0  0  0  0  0  0  0  0  0
  -28.3523  -21.1177   17.8065 O   0  0  0  0  0  0  0  0  0  1  0  0
  -16.2315  -30.9225   24.8234 F   0  0  0  0  0  0  0  0  0  0  0  0
  -19.1216  -30.5365   21.0946 F   0  0  0  0  0  0  0  0  0  0  0  0
  1  2  1  0  0  0  0
  1  5  2  0  0  0  0
  2  6  2  0  0  0  0
  3  8  2  0  0  0  0
  3 17  1  0  0  0  0
  4  9  1  0  0  0  0
  4 17  2  0  0  0  0
  5 19  1  0  0  0  0
  6 21  1  0  0  0  0
  7 10  2  0  0  0  0
  7 20  1  0  0  0  0
  8 25  1  0  0  0  0
  9 25  2  0  0  0  0
 10 26  1  0  0  0  0
 11 12  2  0  0  0  0
 11 27  1  0  0  0  0
 12 28  1  0  0  0  0
 13 22  1  0  0  0  0
 13 26  2  0  0  0  0
 14 24  2  0  0  0  0
 14 31  1  0  0  0  0
 15 28  2  0  0  0  0
 15 29  1  0  0  0  0
 16 23  2  0  0  0  0
 16 65  1  0  0  0  0
 17 30  1  0  0  0  0
 18 30  1  0  0  0  0
 18 32  2  0  0  0  0
 18 33  1  0  0  0  0
 19 21  2  0  0  0  0
 19 38  1  0  0  0  0
 20 22  2  0  0  0  0
 20 39  1  0  0  0  0
 21 50  1  0  0  0  0
 22 40  1  0  0  0  0
 23 24  1  0  0  0  0
 23 53  1  0  0  0  0
 24 54  1  0  0  0  0
 25 82  1  0  0  0  0
 26 83  1  0  0  0  0
 27 29  2  0  0  0  0
 27 82  1  0  0  0  0
 28 84  1  0  0  0  0
 29 85  1  0  0  0  0
 30 66  2  0  0  0  0
 31 65  2  0  0  0  0
 31 83  1  0  0  0  0
 32 67  1  0  0  0  0
 32 70  1  0  0  0  0
 33 71  1  0  0  0  0
 33 77  2  0  0  0  0
 34 51  1  0  0  0  0
 34 72  1  0  0  0  0
 34 78  2  0  0  0  0
 35 62  1  0  0  0  0
 35 68  1  0  0  0  0
 35 79  2  0  0  0  0
 36 63  1  0  0  0  0
 36 73  1  0  0  0  0
 36 80  2  0  0  0  0
 37 69  1  0  0  0  0
 37 74  1  0  0  0  0
 37 81  2  0  0  0  0
 38 41  1  0  0  0  0
 39 51  1  0  0  0  0
 40 68  1  0  0  0  0
 41 44  1  0  0  0  0
 42 45  1  0  0  0  0
 42 47  1  0  0  0  0
 43 46  1  0  0  0  0
 43 49  1  0  0  0  0
 44 50  1  0  0  0  0
 45 52  1  0  0  0  0
 46 53  1  0  0  0  0
 47 69  1  0  0  0  0
 48 52  1  0  0  0  0
 48 69  1  0  0  0  0
 49 75  1  0  0  0  0
 50 72  1  0  0  0  0
 51 68  1  0  0  0  0
 52 67  1  0  0  0  0
 53 60  1  0  0  0  0
 53 75  1  0  0  0  0
 55 63  1  0  0  0  0
 56 64  1  0  0  0  0
 57 64  1  0  0  0  0
 58 64  1  0  0  0  0
 59 76  1  0  0  0  0
 60 61  1  0  0  0  0
 61 74  1  0  0  0  0
 62 64  1  0  0  0  0
 62 73  1  0  0  0  0
 63 76  1  0  0  0  0
 66 67  1  0  0  0  0
M  CHG  2  75   1  76   1
M  ISO  4  31 101  37 100  74 100  83 101
M  END
> <Batch ID>
0117

> <Smiles>
CNC(C)C(=O)NC(C(=O)N1Cc2cc([101O:1][101c:1]3cc(C)c(C4(CC[100NH:0][100C:0](=O)N5CCCC(n6nc(-c7ccc(Oc8ccc(F)cc8F)cc7)c(C(N)=O)c6N)C5)CCCN4)cn3)ccc2CC1C(=O)NC1CCCc2ccccc21)C(C)(C)C

> <Shape>
0.225

> <Color>
0.046

> <Negative vol penalty>
0.000

$$$$

  -OEChem-04052320153D

 87 96  0     1  0  0  0  0  0999 V2000
  -29.5629  -11.0502   19.9209 C   0  0  0  0  0  0  0  0  0  0  0  0
  -29.7098  -12.4129   20.1593 C   0  0  0  0  0  0  0  0  0  0  0  0
  -28.8446  -21.5821   19.6415 C   0  0  0  0  0  0  0  0  0  0  0  0
  -29.8672  -21.7021   21.8271 C   0  0  0  0  0  0  0  0  0  0  0  0
  -28.4936  -10.5891   19.1540 C   0  0  0  0  0  0  0  0  0  0  0  0
  -28.7881  -13.3155   19.6299 C   0  0  0  0  0  0  0  0  0  0  0  0
  -25.6298  -19.5756   21.0970 C   0  0  0  0  0  0  0  0  0  0  0  0
  -29.1710  -20.2283   19.5631 C   0  0  0  0  0  0  0  0  0  0  0  0
  -30.1936  -20.3482   21.7487 C   0  0  0  0  0  0  0  0  0  0  0  0
  -25.3990  -20.8258   20.5247 C   0  0  0  0  0  0  0  0  0  0  0  0
  -32.5492  -18.4357   20.2573 C   0  0  0  0  0  0  0  0  0  0  0  0
  -33.8355  -18.0560   20.6404 C   0  0  0  0  0  0  0  0  0  0  0  0
  -23.8424  -26.8237   17.4534 C   0  0  0  0  0  0  0  0  0  0  0  0
  -23.5470  -19.9080   19.2810 C   0  0  0  0  0  0  0  0  0  0  0  0
  -23.2927  -25.0257   18.9531 C   0  0  0  0  0  0  0  0  0  0  0  0
  -32.9042  -16.6302   22.3541 C   0  0  0  0  0  0  0  0  0  0  0  0
  -25.0963  -26.2513   17.3128 C   0  0  0  0  0  0  0  0  0  0  0  0
  -29.1927  -22.3191   20.7735 C   0  0  0  0  0  0  0  0  0  0  0  0
  -29.2711  -24.7438   19.9848 C   0  0  0  0  0  0  0  0  0  0  0  0
  -27.5530  -11.4857   18.6230 C   0  0  0  0  0  0  0  0  0  0  0  0
  -24.8263  -18.4778   20.7568 C   0  0  0  0  0  0  0  0  0  0  0  0
  -27.7060  -12.8661   18.8541 C   0  0  0  0  0  0  0  0  0  0  0  0
  -23.7680  -18.6455   19.8524 C   0  0  0  0  0  0  0  0  0  0  0  0
  -22.9292  -26.1931   18.2910 C   0  0  0  0  0  0  0  0  0  0  0  0
  -29.8454  -19.6113   20.6167 C   0  0  0  0  0  0  0  0  0  0  0  0
  -24.3593  -20.9915   19.6144 C   0  0  0  0  0  0  0  0  0  0  0  0
  -31.4403  -17.9128   20.9227 C   0  0  0  0  0  0  0  0  0  0  0  0
  -34.0130  -17.1532   21.6888 C   0  0  0  0  0  0  0  0  0  0  0  0
  -31.6178  -17.0100   21.9711 C   0  0  0  0  0  0  0  0  0  0  0  0
  -28.8563  -23.7177   20.8548 C   0  0  0  0  0  0  0  0  0  0  0  0
  -24.5712  -24.5336   18.7453 C   0  0  0  0  0  0  0  0  0  0  0  0
  -28.6858  -25.8793   20.4893 C   0  0  0  0  0  0  0  0  0  0  0  0
  -30.1104  -24.6766   18.8243 C   0  0  0  0  0  0  0  0  0  0  0  0
  -22.4330  -28.9428   19.4531 C   0  0  0  0  0  0  0  0  0  0  0  0
  -24.1888  -28.4610   22.5872 C   0  0  0  0  0  0  0  0  0  0  0  0
  -25.3449  -15.6587   19.3831 C   0  0  0  0  0  0  0  0  0  0  0  0
  -22.2310  -15.1550   20.1396 C   0  0  0  0  0  0  0  0  0  0  0  0
  -19.1688  -16.4865   20.8444 C   0  0  0  0  0  0  0  0  0  0  0  0
  -26.4404  -10.9443   17.7607 C   0  0  0  0  0  0  0  0  0  0  0  0
  -25.0715  -17.1420   21.4032 C   0  0  0  0  0  0  0  0  0  0  0  0
  -22.8639  -17.5035   19.4692 C   0  0  0  0  0  0  0  0  0  0  0  0
  -25.2972  -11.9336   17.5491 C   0  0  0  0  0  0  0  0  0  0  0  0
  -26.3162  -26.7030   24.8728 C   0  0  0  0  0  0  0  0  0  0  0  0
  -25.8435  -13.3111   17.1871 C   0  0  0  0  0  0  0  0  0  0  0  0
  -27.1798  -25.8318   23.9616 C   0  0  0  0  0  0  0  0  0  0  0  0
  -25.4828  -29.7862   20.9424 C   0  0  0  0  0  0  0  0  0  0  0  0
  -24.9003  -26.8521   24.3248 C   0  0  0  0  0  0  0  0  0  0  0  0
  -25.7051  -26.5012   22.0116 C   0  0  0  0  0  0  0  0  0  0  0  0
  -25.3482  -31.1752   21.5610 C   0  0  0  0  0  0  0  0  0  0  0  0
  -23.0880  -31.0694   20.4724 C   0  0  0  0  0  0  0  0  0  0  0  0
  -26.7130  -13.8743   18.3177 C   0  0  1  0  0  0  0  0  0  0  0  0
  -22.9449  -29.5693   20.7161 C   0  0  2  0  0  0  0  0  0  0  0  0
  -24.2590  -28.8889   21.1429 C   0  0  2  0  0  0  0  0  0  0  0  0
  -24.5136  -15.9752   20.5940 C   0  0  1  0  0  0  0  0  0  0  0  0
  -27.1523  -26.3502   22.5128 C   0  0  2  0  0  0  0  0  0  0  0  0
  -16.8092  -15.8236   21.3833 C   0  0  0  0  0  0  0  0  0  0  0  0
  -21.7638  -14.4454   17.2090 C   0  0  0  0  0  0  0  0  0  0  0  0
  -19.3075  -14.7253   17.6052 C   0  0  0  0  0  0  0  0  0  0  0  0
  -20.5764  -12.9694   18.8419 C   0  0  0  0  0  0  0  0  0  0  0  0
  -19.2680  -17.8354   23.4768 C   0  0  0  0  0  0  0  0  0  0  0  0
  -21.5660  -26.7672   18.4783 C   0  0  0  0  0  0  0  0  0  0  0  0
  -24.9979  -23.2760   19.4436 C   0  0  0  0  0  0  0  0  0  1  0  0
  -21.5090  -27.7596   19.6461 C   0  0  0  0  0  0  0  0  0  0  0  0
  -20.9103  -15.4005   19.4508 C   0  0  1  0  0  0  0  0  0  0  0  0
  -18.1719  -16.1901   21.9502 C   0  0  2  0  0  0  0  0  0  0  0  0
  -20.6576  -14.4064   18.2823 C   0  0  0  0  0  0  0  0  0  0  0  0
  -25.4856  -25.1185   17.9395 N   0  0  0  0  0  0  0  0  0  0  0  0
  -28.0685  -24.1621   21.8376 N   0  0  0  0  0  0  0  0  0  0  0  0
  -27.9836  -25.4799   21.5882 N   0  0  0  0  0  0  0  0  0  0  0  0
  -24.9178  -27.3250   22.9395 N   0  0  0  0  0  0  0  0  0  0  0  0
  -23.1480  -16.2156   20.1234 N   0  0  0  0  0  0  0  0  0  0  0  0
  -28.7085  -27.1704   20.0958 N   0  0  0  0  0  0  0  0  0  0  0  0
  -29.5107  -24.4479   17.5784 N   0  0  0  0  0  0  0  0  0  0  0  0
  -25.8827  -14.3858   19.3870 N   0  0  0  0  0  0  0  0  0  0  0  0
  -19.8925  -15.3659   20.4954 N   0  0  0  0  0  0  0  0  0  0  0  0
  -23.9330  -31.6504   21.5509 N   0  3  0  0  0  0  0  0  0  0  0  0
  -18.0091  -17.3796   22.8332 N   0  3  0  0  0  0  0  0  0  0  0  0
  -31.3570  -24.7988   18.8925 O   0  0  0  0  0  0  0  0  0  0  0  0
  -22.7666  -29.3966   18.3660 O   0  0  0  0  0  0  0  0  0  0  0  0
  -23.5082  -29.1197   23.3779 O   0  0  0  0  0  0  0  0  0  0  0  0
  -25.4867  -16.5059   18.5092 O   0  0  0  0  0  0  0  0  0  0  0  0
  -22.4387  -14.0649   20.6784 O   0  0  0  0  0  0  0  0  0  0  0  0
  -19.2906  -17.5997   20.3381 O   0  0  0  0  0  0  0  0  0  0  0  0
  -30.1639  -18.2902   20.5407 O   0  0  0  0  0  0  0  0  0  0  0  0
  -24.1323  -22.2105   19.0538 O   0  0  0  0  0  0  0  0  0  1  0  0
  -35.2483  -16.7874   22.0556 F   0  0  0  0  0  0  0  0  0  0  0  0
  -30.5564  -16.5033   22.6132 F   0  0  0  0  0  0  0  0  0  0  0  0
  1  2  1  0  0  0  0
  1  5  2  0  0  0  0
  2  6  2  0  0  0  0
  3  8  2  0  0  0  0
  3 18  1  0  0  0  0
  4  9  1  0  0  0  0
  4 18  2  0  0  0  0
  5 20  1  0  0  0  0
  6 22  1  0  0  0  0
  7 10  2  0  0  0  0
  7 21  1  0  0  0  0
  8 25  1  0  0  0  0
  9 25  2  0  0  0  0
 10 26  1  0  0  0  0
 11 12  2  0  0  0  0
 11 27  1  0  0  0  0
 12 28  1  0  0  0  0
 13 17  2  0  0  0  0
 13 24  1  0  0  0  0
 14 23  1  0  0  0  0
 14 26  2  0  0  0  0
 15 24  2  0  0  0  0
 15 31  1  0  0  0  0
 16 28  2  0  0  0  0
 16 29  1  0  0  0  0
 17 67  1  0  0  0  0
 18 30  1  0  0  0  0
 19 30  1  0  0  0  0
 19 32  2  0  0  0  0
 19 33  1  0  0  0  0
 20 22  2  0  0  0  0
 20 39  1  0  0  0  0
 21 23  2  0  0  0  0
 21 40  1  0  0  0  0
 22 51  1  0  0  0  0
 23 41  1  0  0  0  0
 24 61  1  0  0  0  0
 25 84  1  0  0  0  0
 26 85  1  0  0  0  0
 27 29  2  0  0  0  0
 27 84  1  0  0  0  0
 28 86  1  0  0  0  0
 29 87  1  0  0  0  0
 30 68  2  0  0  0  0
 31 62  1  0  0  0  0
 31 67  2  0  0  0  0
 32 69  1  0  0  0  0
 32 72  1  0  0  0  0
 33 73  1  0  0  0  0
 33 78  2  0  0  0  0
 34 52  1  0  0  0  0
 34 63  1  0  0  0  0
 34 79  2  0  0  0  0
 35 53  1  0  0  0  0
 35 70  1  0  0  0  0
 35 80  2  0  0  0  0
 36 54  1  0  0  0  0
 36 74  1  0  0  0  0
 36 81  2  0  0  0  0
 37 64  1  0  0  0  0
 37 71  1  0  0  0  0
 37 82  2  0  0  0  0
 38 65  1  0  0  0  0
 38 75  1  0  0  0  0
 38 83  2  0  0  0  0
 39 42  1  0  0  0  0
 40 54  1  0  0  0  0
 41 71  1  0  0  0  0
 42 44  1  0  0  0  0
 43 45  1  0  0  0  0
 43 47  1  0  0  0  0
 44 51  1  0  0  0  0
 45 55  1  0  0  0  0
 46 49  1  0  0  0  0
 46 53  1  0  0  0  0
 47 70  1  0  0  0  0
 48 55  1  0  0  0  0
 48 70  1  0  0  0  0
 49 76  1  0  0  0  0
 50 52  1  0  0  0  0
 50 76  1  0  0  0  0
 51 74  1  0  0  0  0
 52 53  1  0  0  0  0
 54 71  1  0  0  0  0
 55 69  1  0  0  0  0
 56 65  1  0  0  0  0
 57 66  1  0  0  0  0
 58 66  1  0  0  0  0
 59 66  1  0  0  0  0
 60 77  1  0  0  0  0
 61 63  1  0  0  0  0
 62 85  1  0  0  0  0
 64 66  1  0  0  0  0
 64 75  1  0  0  0  0
 65 77  1  0  0  0  0
 68 69  1  0  0  0  0
M  CHG  2  76   1  77   1
M  ISO  4  35 100  53 100  62 101  85 101
M  END
> <Batch ID>
0117

> <Smiles>
CNC(C)C(=O)NC(C(=O)N1Cc2cc([101O:1][101CH2:1]c3cc(CCC(=O)C4CNCC[100CH:0]4[100C:0](=O)N4CCCC(n5nc(-c6ccc(Oc7ccc(F)cc7F)cc6)c(C(N)=O)c5N)C4)ccn3)ccc2CC1C(=O)NC1CCCc2ccccc21)C(C)(C)C

> <Shape>
0.191

> <Color>
0.086

> <Negative vol penalty>
0.000

$$$$

  -OEChem-04052320153D

 80 88  0     1  0  0  0  0  0999 V2000
  -20.5296  -19.9825   26.9612 C   0  0  0  0  0  0  0  0  0  0  0  0
  -21.8703  -20.2260   26.6809 C   0  0  0  0  0  0  0  0  0  0  0  0
  -27.2777  -14.7166   22.1447 C   0  0  0  0  0  0  0  0  0  0  0  0
  -28.4105  -14.4022   20.0340 C   0  0  0  0  0  0  0  0  0  0  0  0
  -19.5396  -20.4885   26.1199 C   0  0  0  0  0  0  0  0  0  0  0  0
  -22.2218  -20.9748   25.5584 C   0  0  0  0  0  0  0  0  0  0  0  0
  -27.1784  -25.6128   23.2696 C   0  0  0  0  0  0  0  0  0  0  0  0
  -26.5435  -13.5513   21.9243 C   0  0  0  0  0  0  0  0  0  0  0  0
  -27.6763  -13.2368   19.8136 C   0  0  0  0  0  0  0  0  0  0  0  0
  -28.0658  -25.8060   22.2118 C   0  0  0  0  0  0  0  0  0  0  0  0
  -23.8524  -12.6093   20.1093 C   0  0  0  0  0  0  0  0  0  0  0  0
  -22.4822  -12.6490   20.3672 C   0  0  0  0  0  0  0  0  0  0  0  0
  -26.2672  -26.6966   20.8735 C   0  0  0  0  0  0  0  0  0  0  0  0
  -22.7401  -10.8937   22.0072 C   0  0  0  0  0  0  0  0  0  0  0  0
  -28.2112  -15.1421   21.1995 C   0  0  0  0  0  0  0  0  0  0  0  0
  -30.2130  -16.4577   22.0768 C   0  0  0  0  0  0  0  0  0  0  0  0
  -19.8788  -21.2520   24.9918 C   0  0  0  0  0  0  0  0  0  0  0  0
  -25.8242  -25.9505   23.1334 C   0  0  0  0  0  0  0  0  0  0  0  0
  -21.2355  -21.4904   24.7004 C   0  0  0  0  0  0  0  0  0  0  0  0
  -25.3652  -26.5091   21.9320 C   0  0  0  0  0  0  0  0  0  0  0  0
  -26.7428  -12.8114   20.7588 C   0  0  0  0  0  0  0  0  0  0  0  0
  -27.6097  -26.3453   21.0126 C   0  0  0  0  0  0  0  0  0  0  0  0
  -24.6665  -11.7117   20.8002 C   0  0  0  0  0  0  0  0  0  0  0  0
  -21.9260  -11.7912   21.3162 C   0  0  0  0  0  0  0  0  0  0  0  0
  -24.1103  -10.8540   21.7492 C   0  0  0  0  0  0  0  0  0  0  0  0
  -28.9695  -16.3461   21.4263 C   0  0  0  0  0  0  0  0  0  0  0  0
  -30.5045  -17.7992   22.0324 C   0  0  0  0  0  0  0  0  0  0  0  0
  -31.0314  -15.4398   22.6682 C   0  0  0  0  0  0  0  0  0  0  0  0
  -23.0878  -24.3371   23.2449 C   0  0  0  0  0  0  0  0  0  0  0  0
  -21.7835  -27.2983   23.0168 C   0  0  0  0  0  0  0  0  0  0  0  0
  -22.1322  -30.5506   22.0430 C   0  0  0  0  0  0  0  0  0  0  0  0
  -28.8575  -22.0607   18.2931 C   0  0  0  0  0  0  0  0  0  0  0  0
  -18.7755  -21.7380   24.0856 C   0  0  0  0  0  0  0  0  0  0  0  0
  -24.8852  -25.7607   24.2930 C   0  0  0  0  0  0  0  0  0  0  0  0
  -23.9251  -26.9072   21.7418 C   0  0  0  0  0  0  0  0  0  0  0  0
  -19.2173  -22.8382   23.1241 C   0  0  0  0  0  0  0  0  0  0  0  0
  -28.3867  -22.0886   21.8813 C   0  0  0  0  0  0  0  0  0  0  0  0
  -32.7120  -26.7120   17.9231 C   0  0  0  0  0  0  0  0  0  0  0  0
  -20.5416  -22.4695   22.4631 C   0  0  0  0  0  0  0  0  0  0  0  0
  -28.6046  -20.6147   22.2281 C   0  0  0  0  0  0  0  0  0  0  0  0
  -32.1087  -27.1774   19.2335 C   0  0  0  0  0  0  0  0  0  0  0  0
  -27.6517  -22.2411   20.5528 C   0  0  0  0  0  0  0  0  0  0  0  0
  -28.5260  -20.0820   19.7482 C   0  0  0  0  0  0  0  0  0  0  0  0
  -31.9487  -25.4397   17.6091 C   0  0  0  0  0  0  0  0  0  0  0  0
  -21.6557  -22.3192   23.5060 C   0  0  1  0  0  0  0  0  0  0  0  0
  -23.4233  -25.6625   23.8681 C   0  0  1  0  0  0  0  0  0  0  0  0
  -29.2844  -19.8610   21.0697 C   0  0  2  0  0  0  0  0  0  0  0  0
  -30.6206  -26.9438   19.0193 C   0  0  2  0  0  0  0  0  0  0  0  0
  -20.8815  -32.7242   21.9511 C   0  0  0  0  0  0  0  0  0  0  0  0
  -29.9067  -28.0720   21.1482 C   0  0  0  0  0  0  0  0  0  0  0  0
  -20.1783  -26.2712   20.6339 C   0  0  0  0  0  0  0  0  0  0  0  0
  -19.7030  -28.6508   20.0173 C   0  0  0  0  0  0  0  0  0  0  0  0
  -18.8977  -27.7443   22.1974 C   0  0  0  0  0  0  0  0  0  0  0  0
  -24.1045  -31.8928   23.7944 C   0  0  0  0  0  0  0  0  0  0  0  0
  -29.1135  -24.1279   16.9447 C   0  0  0  0  0  0  0  0  0  0  0  0
  -29.4547  -25.5769   17.2383 C   0  0  0  0  0  0  0  0  0  0  0  0
  -21.3645  -28.1972   21.8787 C   0  0  1  0  0  0  0  0  0  0  0  0
  -21.8314  -31.8544   22.7599 C   0  0  2  0  0  0  0  0  0  0  0  0
  -29.8349  -26.8046   20.3102 C   0  0  1  0  0  0  0  0  0  1  0  0
  -20.0627  -27.7067   21.1844 C   0  0  0  0  0  0  0  0  0  0  0  0
  -28.5031  -17.5229   21.0001 N   0  0  0  0  0  0  0  0  0  0  0  0
  -29.4585  -18.3867   21.3836 N   0  0  0  0  0  0  0  0  0  0  0  0
  -23.0446  -26.6963   22.9026 N   0  0  0  0  0  0  0  0  0  0  0  0
  -28.3603  -21.5160   19.4887 N   0  0  0  0  0  0  0  0  0  0  0  0
  -31.5510  -18.5217   22.4855 N   0  0  0  0  0  0  0  0  0  0  0  0
  -30.5822  -14.1129   22.6257 N   0  0  0  0  0  0  0  0  0  0  0  0
  -22.1278  -23.6191   23.9322 N   0  0  0  0  0  0  0  0  0  0  0  0
  -21.2750  -29.5435   22.4335 N   0  0  0  0  0  0  0  0  0  0  0  0
  -28.6534  -23.4243   18.1213 N   0  0  0  0  0  0  0  0  0  0  0  0
  -30.5765  -25.6428   18.2294 N   0  3  1  0  0  0  0  0  0  0  0  0
  -23.0886  -32.6205   22.9909 N   0  3  0  0  0  0  0  0  0  0  0  0
  -32.1207  -15.7014   23.2325 O   0  0  0  0  0  0  0  0  0  0  0  0
  -23.6567  -23.9920   22.2159 O   0  0  0  0  0  0  0  0  0  0  0  0
  -21.0229  -27.1419   23.9753 O   0  0  0  0  0  0  0  0  0  0  0  0
  -23.0347  -30.4377   21.2164 O   0  0  0  0  0  0  0  0  0  0  0  0
  -29.4451  -21.3826   17.4433 O   0  0  0  0  0  0  0  0  0  0  0  0
  -26.0267  -11.6741   20.5436 O   0  0  0  0  0  0  0  0  0  0  0  0
  -28.4736  -26.5343   19.9783 O   0  0  0  0  0  0  0  0  0  1  0  0
  -20.6104  -11.8305   21.5649 F   0  0  0  0  0  0  0  0  0  0  0  0
  -24.8875   -9.9904   22.4170 F   0  0  0  0  0  0  0  0  0  0  0  0
  1  2  1  0  0  0  0
  1  5  2  0  0  0  0
  2  6  2  0  0  0  0
  3  8  2  0  0  0  0
  3 15  1  0  0  0  0
  4  9  1  0  0  0  0
  4 15  2  0  0  0  0
  5 17  1  0  0  0  0
  6 19  1  0  0  0  0
  7 10  2  0  0  0  0
  7 18  1  0  0  0  0
  8 21  1  0  0  0  0
  9 21  2  0  0  0  0
 10 22  1  0  0  0  0
 11 12  2  0  0  0  0
 11 23  1  0  0  0  0
 12 24  1  0  0  0  0
 13 20  1  0  0  0  0
 13 22  2  0  0  0  0
 14 24  2  0  0  0  0
 14 25  1  0  0  0  0
 15 26  1  0  0  0  0
 16 26  1  0  0  0  0
 16 27  2  0  0  0  0
 16 28  1  0  0  0  0
 17 19  2  0  0  0  0
 17 33  1  0  0  0  0
 18 20  2  0  0  0  0
 18 34  1  0  0  0  0
 19 45  1  0  0  0  0
 20 35  1  0  0  0  0
 21 77  1  0  0  0  0
 22 78  1  0  0  0  0
 23 25  2  0  0  0  0
 23 77  1  0  0  0  0
 24 79  1  0  0  0  0
 25 80  1  0  0  0  0
 26 61  2  0  0  0  0
 27 62  1  0  0  0  0
 27 65  1  0  0  0  0
 28 66  1  0  0  0  0
 28 72  2  0  0  0  0
 29 46  1  0  0  0  0
 29 67  1  0  0  0  0
 29 73  2  0  0  0  0
 30 57  1  0  0  0  0
 30 63  1  0  0  0  0
 30 74  2  0  0  0  0
 31 58  1  0  0  0  0
 31 68  1  0  0  0  0
 31 75  2  0  0  0  0
 32 64  1  0  0  0  0
 32 69  1  0  0  0  0
 32 76  2  0  0  0  0
 33 36  1  0  0  0  0
 34 46  1  0  0  0  0
 35 63  1  0  0  0  0
 36 39  1  0  0  0  0
 37 40  1  0  0  0  0
 37 42  1  0  0  0  0
 38 41  1  0  0  0  0
 38 44  1  0  0  0  0
 39 45  1  0  0  0  0
 40 47  1  0  0  0  0
 41 48  1  0  0  0  0
 42 64  1  0  0  0  0
 43 47  1  0  0  0  0
 43 64  1  0  0  0  0
 44 70  1  0  0  0  0
 45 67  1  0  0  0  0
 46 63  1  0  0  0  0
 47 62  1  0  0  0  0
 48 59  1  0  0  0  0
 48 70  1  0  0  0  0
 49 58  1  0  0  0  0
 50 59  1  0  0  0  0
 51 60  1  0  0  0  0
 52 60  1  0  0  0  0
 53 60  1  0  0  0  0
 54 71  1  0  0  0  0
 55 56  1  0  0  0  0
 55 69  1  0  0  0  0
 56 70  1  0  0  0  0
 57 60  1  0  0  0  0
 57 68  1  0  0  0  0
 58 71  1  0  0  0  0
 59 78  1  0  0  0  0
 61 62  1  0  0  0  0
M  CHG  2  70   1  71   1
M  ISO  4  32 100  59 101  69 100  78 101
M  END
> <Batch ID>
0117

> <Smiles>
CNC(C)C(=O)NC(C(=O)N1Cc2cc([101O:1][101CH:1](C)C3CCCN3CC[100NH:0][100C:0](=O)N3CCCC(n4nc(-c5ccc(Oc6ccc(F)cc6F)cc5)c(C(N)=O)c4N)C3)ccc2CC1C(=O)NC1CCCc2ccccc21)C(C)(C)C

> <Shape>
0.254

> <Color>
0.055

> <Negative vol penalty>
0.000

$$$$

  -OEChem-04052320153D

 82 90  0     1  0  0  0  0  0999 V2000
  -22.6397  -10.4212   19.7924 C   0  0  0  0  0  0  0  0  0  0  0  0
  -22.0357  -11.6293   20.1257 C   0  0  0  0  0  0  0  0  0  0  0  0
  -25.2236  -29.4306   20.1058 C   0  0  0  0  0  0  0  0  0  0  0  0
  -25.4392  -27.0245   20.0682 C   0  0  0  0  0  0  0  0  0  0  0  0
  -24.0228  -10.2817   19.8997 C   0  0  0  0  0  0  0  0  0  0  0  0
  -22.8143  -12.6983   20.5676 C   0  0  0  0  0  0  0  0  0  0  0  0
  -21.5121  -17.0810   18.3904 C   0  0  0  0  0  0  0  0  0  0  0  0
  -26.6050  -29.5520   20.2563 C   0  0  0  0  0  0  0  0  0  0  0  0
  -26.8206  -27.1459   20.2186 C   0  0  0  0  0  0  0  0  0  0  0  0
  -20.3722  -17.7196   18.8768 C   0  0  0  0  0  0  0  0  0  0  0  0
  -29.0102  -27.7519   22.7225 C   0  0  0  0  0  0  0  0  0  0  0  0
  -29.6370  -26.9179   23.6483 C   0  0  0  0  0  0  0  0  0  0  0  0
  -21.7639  -19.2031   20.1735 C   0  0  0  0  0  0  0  0  0  0  0  0
  -30.9921  -25.9772   21.8831 C   0  0  0  0  0  0  0  0  0  0  0  0
  -24.6407  -28.1668   20.0118 C   0  0  0  0  0  0  0  0  0  0  0  0
  -22.4904  -27.9946   18.6500 C   0  0  0  0  0  0  0  0  0  0  0  0
  -24.8198  -11.3526   20.3339 C   0  0  0  0  0  0  0  0  0  0  0  0
  -22.7883  -17.4923   18.8011 C   0  0  0  0  0  0  0  0  0  0  0  0
  -24.2093  -12.5725   20.6821 C   0  0  0  0  0  0  0  0  0  0  0  0
  -22.9185  -18.5697   19.6889 C   0  0  0  0  0  0  0  0  0  0  0  0
  -27.4035  -28.4097   20.3127 C   0  0  0  0  0  0  0  0  0  0  0  0
  -20.4979  -18.7790   19.7707 C   0  0  0  0  0  0  0  0  0  0  0  0
  -29.3742  -27.6986   21.3770 C   0  0  0  0  0  0  0  0  0  0  0  0
  -30.6280  -26.0305   23.2286 C   0  0  0  0  0  0  0  0  0  0  0  0
  -30.3652  -26.8112   20.9573 C   0  0  0  0  0  0  0  0  0  0  0  0
  -23.2137  -28.0407   19.8569 C   0  0  0  0  0  0  0  0  0  0  0  0
  -21.1794  -27.8701   19.0400 C   0  0  0  0  0  0  0  0  0  0  0  0
  -22.9616  -28.0584   17.2974 C   0  0  0  0  0  0  0  0  0  0  0  0
  -25.1929  -16.1198   20.3624 C   0  0  0  0  0  0  0  0  0  0  0  0
  -26.7301  -18.8813   19.6319 C   0  0  0  0  0  0  0  0  0  0  0  0
  -26.8887  -22.4626   19.2237 C   0  0  0  0  0  0  0  0  0  0  0  0
  -18.9899  -25.7752   24.3703 C   0  0  0  0  0  0  0  0  0  0  0  0
  -26.3058  -11.1393   20.4791 C   0  0  0  0  0  0  0  0  0  0  0  0
  -24.0089  -16.8104   18.2465 C   0  0  0  0  0  0  0  0  0  0  0  0
  -24.2666  -19.0628   20.1452 C   0  0  0  0  0  0  0  0  0  0  0  0
  -27.0988  -12.4383   20.5978 C   0  0  0  0  0  0  0  0  0  0  0  0
  -18.2049  -28.9466   22.6191 C   0  0  0  0  0  0  0  0  0  0  0  0
  -26.4353  -13.3792   21.5984 C   0  0  0  0  0  0  0  0  0  0  0  0
  -19.3883  -29.0986   21.6652 C   0  0  0  0  0  0  0  0  0  0  0  0
  -19.1189  -22.3673   25.0076 C   0  0  0  0  0  0  0  0  0  0  0  0
  -18.7522  -22.7734   22.5413 C   0  0  0  0  0  0  0  0  0  0  0  0
  -18.5820  -28.1571   23.8686 C   0  0  0  0  0  0  0  0  0  0  0  0
  -19.9958  -23.6160   25.0494 C   0  0  0  0  0  0  0  0  0  0  0  0
  -19.6176  -24.0333   22.6381 C   0  0  0  0  0  0  0  0  0  0  0  0
  -20.3645  -26.9752   22.6244 C   0  0  0  0  0  0  0  0  0  0  0  0
  -25.0227  -13.7630   21.1418 C   0  0  1  0  0  0  0  0  0  0  0  0
  -25.2408  -16.9786   19.1305 C   0  0  1  0  0  0  0  0  0  0  0  0
  -20.0046  -27.7283   21.3349 C   0  0  2  0  0  0  0  0  0  0  0  0
  -19.1429  -21.7539   23.6091 C   0  0  0  0  0  0  0  0  0  0  0  0
  -28.7631  -23.9335   18.4363 C   0  0  0  0  0  0  0  0  0  0  0  0
  -19.6483  -18.7153   24.1235 C   0  0  0  0  0  0  0  0  0  0  0  0
  -17.2295  -18.7511   24.8460 C   0  0  0  0  0  0  0  0  0  0  0  0
  -27.3688  -19.1650   22.6021 C   0  0  0  0  0  0  0  0  0  0  0  0
  -27.9299  -21.5683   22.1805 C   0  0  0  0  0  0  0  0  0  0  0  0
  -29.2500  -19.7674   21.0683 C   0  0  0  0  0  0  0  0  0  0  0  0
  -25.2099  -23.6637   17.1029 C   0  0  0  0  0  0  0  0  0  0  0  0
  -18.0925  -19.9984   22.1895 C   0  0  0  0  0  0  0  0  0  0  0  0
  -19.4685  -19.9692   21.5539 C   0  0  0  0  0  0  0  0  0  1  0  0
  -26.8859  -20.2267   20.2986 C   0  0  1  0  0  0  0  0  0  0  0  0
  -27.4791  -23.2178   18.0467 C   0  0  2  0  0  0  0  0  0  0  0  0
  -18.4888  -19.5695   24.6102 C   0  0  0  0  0  0  0  0  0  0  0  0
  -27.8330  -20.1716   21.5305 C   0  0  0  0  0  0  0  0  0  0  0  0
  -22.4274  -27.9529   20.9330 N   0  0  0  0  0  0  0  0  0  0  0  0
  -21.1964  -27.8504   20.4037 N   0  0  0  0  0  0  0  0  0  0  0  0
  -25.4298  -18.3595   19.5797 N   0  0  0  0  0  0  0  0  0  0  0  0
  -19.2091  -26.8794   23.5298 N   0  0  0  0  0  0  0  0  0  0  0  0
  -19.6076  -24.5688   24.0075 N   0  0  0  0  0  0  0  0  0  0  0  0
  -20.0252  -27.7769   18.3461 N   0  0  0  0  0  0  0  0  0  0  0  0
  -24.3395  -28.1861   17.0751 N   0  0  0  0  0  0  0  0  0  0  0  0
  -25.0831  -14.7673   20.1015 N   0  0  0  0  0  0  0  0  0  0  0  0
  -27.3155  -21.1518   19.2556 N   0  0  0  0  0  0  0  0  0  0  0  0
  -26.5100  -24.2319   17.5432 N   0  3  0  0  0  0  0  0  0  0  0  0
  -18.1916  -20.6135   23.5630 N   0  3  1  0  0  0  0  0  0  0  0  0
  -22.1822  -28.0203   16.3152 O   0  0  0  0  0  0  0  0  0  0  0  0
  -25.2526  -16.6452   21.4679 O   0  0  0  0  0  0  0  0  0  0  0  0
  -27.7244  -18.3174   19.1681 O   0  0  0  0  0  0  0  0  0  0  0  0
  -26.1280  -22.9843   20.0360 O   0  0  0  0  0  0  0  0  0  0  0  0
  -18.2829  -25.8631   25.3820 O   0  0  0  0  0  0  0  0  0  0  0  0
  -28.7515  -28.5278   20.4593 O   0  0  0  0  0  0  0  0  0  0  0  0
  -19.3789  -19.4081   20.2509 O   0  0  0  0  0  0  0  0  0  1  0  0
  -31.2310  -25.2307   24.1179 F   0  0  0  0  0  0  0  0  0  0  0  0
  -30.7200  -26.7563   19.6663 F   0  0  0  0  0  0  0  0  0  0  0  0
  1  2  1  0  0  0  0
  1  5  2  0  0  0  0
  2  6  2  0  0  0  0
  3  8  2  0  0  0  0
  3 15  1  0  0  0  0
  4  9  1  0  0  0  0
  4 15  2  0  0  0  0
  5 17  1  0  0  0  0
  6 19  1  0  0  0  0
  7 10  2  0  0  0  0
  7 18  1  0  0  0  0
  8 21  1  0  0  0  0
  9 21  2  0  0  0  0
 10 22  1  0  0  0  0
 11 12  2  0  0  0  0
 11 23  1  0  0  0  0
 12 24  1  0  0  0  0
 13 20  1  0  0  0  0
 13 22  2  0  0  0  0
 14 24  2  0  0  0  0
 14 25  1  0  0  0  0
 15 26  1  0  0  0  0
 16 26  1  0  0  0  0
 16 27  2  0  0  0  0
 16 28  1  0  0  0  0
 17 19  2  0  0  0  0
 17 33  1  0  0  0  0
 18 20  2  0  0  0  0
 18 34  1  0  0  0  0
 19 46  1  0  0  0  0
 20 35  1  0  0  0  0
 21 79  1  0  0  0  0
 22 80  1  0  0  0  0
 23 25  2  0  0  0  0
 23 79  1  0  0  0  0
 24 81  1  0  0  0  0
 25 82  1  0  0  0  0
 26 63  2  0  0  0  0
 27 64  1  0  0  0  0
 27 68  1  0  0  0  0
 28 69  1  0  0  0  0
 28 74  2  0  0  0  0
 29 47  1  0  0  0  0
 29 70  1  0  0  0  0
 29 75  2  0  0  0  0
 30 59  1  0  0  0  0
 30 65  1  0  0  0  0
 30 76  2  0  0  0  0
 31 60  1  0  0  0  0
 31 71  1  0  0  0  0
 31 77  2  0  0  0  0
 32 66  1  0  0  0  0
 32 67  1  0  0  0  0
 32 78  2  0  0  0  0
 33 36  1  0  0  0  0
 34 47  1  0  0  0  0
 35 65  1  0  0  0  0
 36 38  1  0  0  0  0
 37 39  1  0  0  0  0
 37 42  1  0  0  0  0
 38 46  1  0  0  0  0
 39 48  1  0  0  0  0
 40 43  1  0  0  0  0
 40 49  1  0  0  0  0
 41 44  1  0  0  0  0
 41 49  1  0  0  0  0
 42 66  1  0  0  0  0
 43 67  1  0  0  0  0
 44 67  1  0  0  0  0
 45 48  1  0  0  0  0
 45 66  1  0  0  0  0
 46 70  1  0  0  0  0
 47 65  1  0  0  0  0
 48 64  1  0  0  0  0
 49 73  1  0  0  0  0
 50 60  1  0  0  0  0
 51 61  1  0  0  0  0
 52 61  1  0  0  0  0
 53 62  1  0  0  0  0
 54 62  1  0  0  0  0
 55 62  1  0  0  0  0
 56 72  1  0  0  0  0
 57 58  1  0  0  0  0
 57 73  1  0  0  0  0
 58 80  1  0  0  0  0
 59 62  1  0  0  0  0
 59 71  1  0  0  0  0
 60 72  1  0  0  0  0
 61 73  1  0  0  0  0
 63 64  1  0  0  0  0
M  CHG  2  72   1  73   1
M  ISO  4  32 100  58 101  67 100  80 101
M  END
> <Batch ID>
0117

> <Smiles>
CNC(C)C(=O)NC(C(=O)N1Cc2cc([101O:1][101CH2:1]CN(C(C)C)C3CC[100N:0]([100C:0](=O)N4CCCC(n5nc(-c6ccc(Oc7ccc(F)cc7F)cc6)c(C(N)=O)c5N)C4)CC3)ccc2CC1C(=O)NC1CCCc2ccccc21)C(C)(C)C

> <Shape>
0.189

> <Color>
0.066

> <Negative vol penalty>
0.000

$$$$

  -OEChem-04052320153D

 86 94  0     1  0  0  0  0  0999 V2000
  -35.3716  -22.0987   38.7379 C   0  0  0  0  0  0  0  0  0  0  0  0
  -34.8084  -21.7964   37.5022 C   0  0  0  0  0  0  0  0  0  0  0  0
  -23.0753   -9.8686   19.9405 C   0  0  0  0  0  0  0  0  0  0  0  0
  -23.8349   -9.8751   22.2340 C   0  0  0  0  0  0  0  0  0  0  0  0
  -36.5758  -21.5072   39.1172 C   0  0  0  0  0  0  0  0  0  0  0  0
  -35.4498  -20.9033   36.6446 C   0  0  0  0  0  0  0  0  0  0  0  0
  -32.7974  -16.9187   32.8245 C   0  0  0  0  0  0  0  0  0  0  0  0
  -32.4788  -17.0954   23.9229 C   0  0  0  0  0  0  0  0  0  0  0  0
  -31.8740  -16.2268   23.0144 C   0  0  0  0  0  0  0  0  0  0  0  0
  -22.3310   -8.7157   20.1903 C   0  0  0  0  0  0  0  0  0  0  0  0
  -23.0905   -8.7222   22.4838 C   0  0  0  0  0  0  0  0  0  0  0  0
  -32.5293  -16.9664   31.4571 C   0  0  0  0  0  0  0  0  0  0  0  0
  -19.8619   -7.9256   23.0858 C   0  0  0  0  0  0  0  0  0  0  0  0
  -19.1048   -7.8859   24.2566 C   0  0  0  0  0  0  0  0  0  0  0  0
  -34.5662  -15.7498   31.0214 C   0  0  0  0  0  0  0  0  0  0  0  0
  -20.3453   -5.9479   24.9931 C   0  0  0  0  0  0  0  0  0  0  0  0
  -23.8273  -10.4482   20.9624 C   0  0  0  0  0  0  0  0  0  0  0  0
  -24.1702  -12.9733   20.8426 C   0  0  0  0  0  0  0  0  0  0  0  0
  -37.2273  -20.5989   38.2680 C   0  0  0  0  0  0  0  0  0  0  0  0
  -33.9594  -16.2946   33.3006 C   0  0  0  0  0  0  0  0  0  0  0  0
  -36.6645  -20.3001   37.0124 C   0  0  0  0  0  0  0  0  0  0  0  0
  -34.8455  -15.6933   32.3954 C   0  0  0  0  0  0  0  0  0  0  0  0
  -31.8885  -18.3262   24.2098 C   0  0  0  0  0  0  0  0  0  0  0  0
  -30.6935  -18.6884   23.5882 C   0  0  0  0  0  0  0  0  0  0  0  0
  -30.0887  -17.8198   22.6797 C   0  0  0  0  0  0  0  0  0  0  0  0
  -30.6790  -16.5890   22.3928 C   0  0  0  0  0  0  0  0  0  0  0  0
  -22.3385   -8.1425   21.4619 C   0  0  0  0  0  0  0  0  0  0  0  0
  -33.4152  -16.3845   30.5552 C   0  0  0  0  0  0  0  0  0  0  0  0
  -20.8607   -6.9764   22.8686 C   0  0  0  0  0  0  0  0  0  0  0  0
  -19.3465   -6.8970   25.2103 C   0  0  0  0  0  0  0  0  0  0  0  0
  -21.1025   -5.9876   23.8222 C   0  0  0  0  0  0  0  0  0  0  0  0
  -24.5969  -11.6388   20.7049 C   0  0  0  0  0  0  0  0  0  0  0  0
  -25.2627  -13.7223   20.4795 C   0  0  0  0  0  0  0  0  0  0  0  0
  -22.8999  -13.4895   21.2614 C   0  0  0  0  0  0  0  0  0  0  0  0
  -36.5182  -17.2564   34.9227 C   0  0  0  0  0  0  0  0  0  0  0  0
  -37.2242  -14.0903   34.9254 C   0  0  0  0  0  0  0  0  0  0  0  0
  -36.8386  -11.0347   33.4551 C   0  0  0  0  0  0  0  0  0  0  0  0
  -30.7293  -14.7658   20.6551 C   0  0  0  0  0  0  0  0  0  0  0  0
  -38.5512  -20.0211   38.7017 C   0  0  0  0  0  0  0  0  0  0  0  0
  -34.2206  -16.2283   34.7804 C   0  0  0  0  0  0  0  0  0  0  0  0
  -36.0967  -14.9934   32.8569 C   0  0  0  0  0  0  0  0  0  0  0  0
  -38.9765  -18.7985   37.8926 C   0  0  0  0  0  0  0  0  0  0  0  0
  -29.6142  -12.3526   18.2865 C   0  0  0  0  0  0  0  0  0  0  0  0
  -38.7907  -19.0548   36.4004 C   0  0  0  0  0  0  0  0  0  0  0  0
  -28.1744  -12.0615   18.7158 C   0  0  0  0  0  0  0  0  0  0  0  0
  -30.5293  -12.5809   19.4883 C   0  0  0  0  0  0  0  0  0  0  0  0
  -28.6224  -13.3060   20.8693 C   0  0  0  0  0  0  0  0  0  0  0  0
  -37.3175  -19.3172   36.0650 C   0  0  1  0  0  0  0  0  0  0  0  0
  -35.6931  -16.0160   35.1182 C   0  0  1  0  0  0  0  0  0  0  0  0
  -27.6497  -13.1332   19.6913 C   0  0  2  0  0  0  0  0  0  0  0  0
  -30.0627  -20.0092   23.8981 C   0  0  0  0  0  0  0  0  0  0  0  0
  -28.9061  -18.2422   20.4852 C   0  0  0  0  0  0  0  0  0  0  0  0
  -37.5694   -8.6429   33.6618 C   0  0  0  0  0  0  0  0  0  0  0  0
  -32.3914  -20.3251   27.4524 C   0  0  0  0  0  0  0  0  0  0  0  0
  -39.9471  -14.8242   33.7605 C   0  0  0  0  0  0  0  0  0  0  0  0
  -40.2401  -12.4231   33.1145 C   0  0  0  0  0  0  0  0  0  0  0  0
  -40.0094  -13.0468   35.5188 C   0  0  0  0  0  0  0  0  0  0  0  0
  -34.0593  -10.0986   33.8526 C   0  0  0  0  0  0  0  0  0  0  0  0
  -32.5641  -19.2473   25.1970 C   0  0  0  0  0  0  0  0  0  0  0  0
  -32.8279  -17.8243   27.2954 C   0  0  0  0  0  0  0  0  0  0  0  0
  -32.4194  -17.5538   28.7394 C   0  0  0  0  0  0  0  0  0  1  0  0
  -28.8062  -18.2105   22.0139 C   0  0  1  0  0  0  0  0  0  0  0  0
  -37.9854  -13.1639   34.0082 C   0  0  1  0  0  0  0  0  0  0  0  0
  -36.5132   -9.6709   34.0369 C   0  0  2  0  0  0  0  0  0  0  0  0
  -32.1198  -19.0393   26.6630 C   0  0  1  0  0  0  0  0  0  0  0  0
  -39.5230  -13.3793   34.0913 C   0  0  0  0  0  0  0  0  0  0  0  0
  -25.8618  -11.5425   20.2867 N   0  0  0  0  0  0  0  0  0  0  0  0
  -26.2392  -12.8260   20.1586 N   0  0  0  0  0  0  0  0  0  0  0  0
  -36.3112  -14.9606   34.3130 N   0  0  0  0  0  0  0  0  0  0  0  0
  -29.9706  -13.6119   20.3656 N   0  0  0  0  0  0  0  0  0  0  0  0
  -25.4736  -15.0537   20.4067 N   0  0  0  0  0  0  0  0  0  0  0  0
  -21.8875  -12.5807   21.5985 N   0  0  0  0  0  0  0  0  0  0  0  0
  -30.0821  -15.6910   21.4735 N   0  0  0  0  0  0  0  0  0  0  0  0
  -36.5769  -18.0742   36.0349 N   0  0  0  0  0  0  0  0  0  0  0  0
  -37.5525  -11.8115   34.3429 N   0  0  0  0  0  0  0  0  0  0  0  0
  -27.6565  -17.3149   22.3731 N   0  3  0  0  0  0  0  0  0  0  0  0
  -35.1940   -9.1943   33.5335 N   0  3  0  0  0  0  0  0  0  0  0  0
  -22.6641  -14.7202   21.3188 O   0  0  0  0  0  0  0  0  0  0  0  0
  -37.0626  -17.4559   33.8431 O   0  0  0  0  0  0  0  0  0  0  0  0
  -37.4267  -14.0385   36.1411 O   0  0  0  0  0  0  0  0  0  0  0  0
  -36.4971  -11.3755   32.3247 O   0  0  0  0  0  0  0  0  0  0  0  0
  -31.8585  -14.9341   20.1876 O   0  0  0  0  0  0  0  0  0  0  0  0
  -21.6121   -7.0177   21.7061 O   0  0  0  0  0  0  0  0  0  0  0  0
  -33.1562  -16.4302   29.2200 O   0  0  0  0  0  0  0  0  0  1  0  0
  -18.6204   -6.8599   26.3352 F   0  0  0  0  0  0  0  0  0  0  0  0
  -22.0614   -5.0737   23.6197 F   0  0  0  0  0  0  0  0  0  0  0  0
  1  2  1  0  0  0  0
  1  5  2  0  0  0  0
  2  6  2  0  0  0  0
  3 10  2  0  0  0  0
  3 17  1  0  0  0  0
  4 11  1  0  0  0  0
  4 17  2  0  0  0  0
  5 19  1  0  0  0  0
  6 21  1  0  0  0  0
  7 12  2  0  0  0  0
  7 20  1  0  0  0  0
  8  9  2  0  0  0  0
  8 23  1  0  0  0  0
  9 26  1  0  0  0  0
 10 27  1  0  0  0  0
 11 27  2  0  0  0  0
 12 28  1  0  0  0  0
 13 14  2  0  0  0  0
 13 29  1  0  0  0  0
 14 30  1  0  0  0  0
 15 22  1  0  0  0  0
 15 28  2  0  0  0  0
 16 30  2  0  0  0  0
 16 31  1  0  0  0  0
 17 32  1  0  0  0  0
 18 32  1  0  0  0  0
 18 33  2  0  0  0  0
 18 34  1  0  0  0  0
 19 21  2  0  0  0  0
 19 39  1  0  0  0  0
 20 22  2  0  0  0  0
 20 40  1  0  0  0  0
 21 48  1  0  0  0  0
 22 41  1  0  0  0  0
 23 24  2  0  0  0  0
 23 59  1  0  0  0  0
 24 25  1  0  0  0  0
 24 51  1  0  0  0  0
 25 26  2  0  0  0  0
 25 62  1  0  0  0  0
 26 73  1  0  0  0  0
 27 83  1  0  0  0  0
 28 84  1  0  0  0  0
 29 31  2  0  0  0  0
 29 83  1  0  0  0  0
 30 85  1  0  0  0  0
 31 86  1  0  0  0  0
 32 67  2  0  0  0  0
 33 68  1  0  0  0  0
 33 71  1  0  0  0  0
 34 72  1  0  0  0  0
 34 78  2  0  0  0  0
 35 49  1  0  0  0  0
 35 74  1  0  0  0  0
 35 79  2  0  0  0  0
 36 63  1  0  0  0  0
 36 69  1  0  0  0  0
 36 80  2  0  0  0  0
 37 64  1  0  0  0  0
 37 75  1  0  0  0  0
 37 81  2  0  0  0  0
 38 70  1  0  0  0  0
 38 73  1  0  0  0  0
 38 82  2  0  0  0  0
 39 42  1  0  0  0  0
 40 49  1  0  0  0  0
 41 69  1  0  0  0  0
 42 44  1  0  0  0  0
 43 45  1  0  0  0  0
 43 46  1  0  0  0  0
 44 48  1  0  0  0  0
 45 50  1  0  0  0  0
 46 70  1  0  0  0  0
 47 50  1  0  0  0  0
 47 70  1  0  0  0  0
 48 74  1  0  0  0  0
 49 69  1  0  0  0  0
 50 68  1  0  0  0  0
 52 62  1  0  0  0  0
 53 64  1  0  0  0  0
 54 65  1  0  0  0  0
 55 66  1  0  0  0  0
 56 66  1  0  0  0  0
 57 66  1  0  0  0  0
 58 77  1  0  0  0  0
 59 65  1  0  0  0  0
 60 61  1  0  0  0  0
 60 65  1  0  0  0  0
 61 84  1  0  0  0  0
 62 76  1  0  0  0  0
 63 66  1  0  0  0  0
 63 75  1  0  0  0  0
 64 77  1  0  0  0  0
 67 68  1  0  0  0  0
M  CHG  2  76   1  77   1
M  ISO  4  38 100  61 101  73 100  84 101
M  END
> <Batch ID>
0117

> <Smiles>
CNC(C)C(=O)NC(C(=O)N1Cc2cc([101O:1][101CH2:1]CC(C)Cc3ccc([100NH:0][100C:0](=O)N4CCCC(n5nc(-c6ccc(Oc7ccc(F)cc7F)cc6)c(C(N)=O)c5N)C4)c(C(C)N)c3C)ccc2CC1C(=O)NC1CCCc2ccccc21)C(C)(C)C

> <Shape>
0.178

> <Color>
0.188

> <Negative vol penalty>
0.000

$$$$

  -OEChem-04052320153D

 84 93  0     1  0  0  0  0  0999 V2000
  -27.7723  -38.5580   24.3313 C   0  0  0  0  0  0  0  0  0  0  0  0
  -28.3318  -37.5385   23.5677 C   0  0  0  0  0  0  0  0  0  0  0  0
  -24.7329   -7.2118   19.7908 C   0  0  0  0  0  0  0  0  0  0  0  0
  -23.4666   -9.2675   19.7027 C   0  0  0  0  0  0  0  0  0  0  0  0
  -26.8174  -38.2569   25.3015 C   0  0  0  0  0  0  0  0  0  0  0  0
  -27.9374  -36.2171   23.7747 C   0  0  0  0  0  0  0  0  0  0  0  0
  -26.9467  -30.0672   20.2372 C   0  0  0  0  0  0  0  0  0  0  0  0
  -29.0997  -22.8223   21.8242 C   0  0  0  0  0  0  0  0  0  0  0  0
  -23.6679   -6.5834   20.4361 C   0  0  0  0  0  0  0  0  0  0  0  0
  -22.4016   -8.6390   20.3479 C   0  0  0  0  0  0  0  0  0  0  0  0
  -27.3114  -28.7227   20.2915 C   0  0  0  0  0  0  0  0  0  0  0  0
  -22.3777   -6.4472   23.5572 C   0  0  0  0  0  0  0  0  0  0  0  0
  -22.6708   -5.6492   24.6630 C   0  0  0  0  0  0  0  0  0  0  0  0
  -28.9121  -24.1931   21.6860 C   0  0  0  0  0  0  0  0  0  0  0  0
  -25.5956  -28.3301   21.9410 C   0  0  0  0  0  0  0  0  0  0  0  0
  -21.7133   -3.7378   23.5375 C   0  0  0  0  0  0  0  0  0  0  0  0
  -28.0387  -22.5172   19.7176 C   0  0  0  0  0  0  0  0  0  0  0  0
  -24.6323   -8.5539   19.4241 C   0  0  0  0  0  0  0  0  0  0  0  0
  -26.3095   -8.8473   17.5245 C   0  0  0  0  0  0  0  0  0  0  0  0
  -28.6576  -21.9615   20.8258 C   0  0  0  0  0  0  0  0  0  0  0  0
  -26.4040  -36.9322   25.5139 C   0  0  0  0  0  0  0  0  0  0  0  0
  -25.9091  -30.5564   21.0439 C   0  0  0  0  0  0  0  0  0  0  0  0
  -26.9770  -35.8979   24.7496 C   0  0  0  0  0  0  0  0  0  0  0  0
  -25.2180  -29.6807   21.8933 C   0  0  0  0  0  0  0  0  0  0  0  0
  -22.5022   -7.2969   20.7146 C   0  0  0  0  0  0  0  0  0  0  0  0
  -26.6377  -27.8545   21.1456 C   0  0  0  0  0  0  0  0  0  0  0  0
  -21.7523   -5.8906   22.4415 C   0  0  0  0  0  0  0  0  0  0  0  0
  -22.3387   -4.2945   24.6531 C   0  0  0  0  0  0  0  0  0  0  0  0
  -21.4201   -4.5359   22.4316 C   0  0  0  0  0  0  0  0  0  0  0  0
  -25.7323   -9.2038   18.7580 C   0  0  0  0  0  0  0  0  0  0  0  0
  -28.2819  -24.6489   20.5392 C   0  0  0  0  0  0  0  0  0  0  0  0
  -27.3108   -9.7681   17.3350 C   0  0  0  0  0  0  0  0  0  0  0  0
  -25.9707   -7.7793   16.6298 C   0  0  0  0  0  0  0  0  0  0  0  0
  -25.7009  -32.7192   23.3639 C   0  0  0  0  0  0  0  0  0  0  0  0
  -22.5253  -32.1039   23.1205 C   0  0  0  0  0  0  0  0  0  0  0  0
  -20.0567  -29.9337   22.2022 C   0  0  0  0  0  0  0  0  0  0  0  0
  -27.9384  -15.2946   19.6410 C   0  0  0  0  0  0  0  0  0  0  0  0
  -25.4034  -36.6503   26.6066 C   0  0  0  0  0  0  0  0  0  0  0  0
  -25.5101  -32.0039   20.9540 C   0  0  0  0  0  0  0  0  0  0  0  0
  -24.0835  -30.1518   22.7648 C   0  0  0  0  0  0  0  0  0  0  0  0
  -24.7655  -35.2671   26.5064 C   0  0  0  0  0  0  0  0  0  0  0  0
  -29.6222  -12.0385   20.7996 C   0  0  0  0  0  0  0  0  0  0  0  0
  -29.7475  -19.9053   19.8299 C   0  0  0  0  0  0  0  0  0  0  0  0
  -27.5016  -19.7154   20.9895 C   0  0  0  0  0  0  0  0  0  0  0  0
  -25.8310  -34.2048   26.2549 C   0  0  0  0  0  0  0  0  0  0  0  0
  -29.4751  -11.3670   19.4375 C   0  0  0  0  0  0  0  0  0  0  0  0
  -29.9437  -18.3952   19.9685 C   0  0  0  0  0  0  0  0  0  0  0  0
  -27.7018  -18.2056   21.1246 C   0  0  0  0  0  0  0  0  0  0  0  0
  -29.4597  -13.5510   20.6831 C   0  0  0  0  0  0  0  0  0  0  0  0
  -27.3977  -12.8795   19.4504 C   0  0  0  0  0  0  0  0  0  0  0  0
  -28.8469  -20.4604   20.9466 C   0  0  0  0  0  0  0  0  0  0  0  0
  -26.5569  -34.4550   24.9276 C   0  0  1  0  0  0  0  0  0  0  0  0
  -24.7792  -32.5005   22.1975 C   0  0  1  0  0  0  0  0  0  0  0  0
  -28.1757  -11.7769   18.7105 C   0  0  2  0  0  0  0  0  0  0  0  0
  -28.6026  -17.6589   20.0150 C   0  0  0  0  0  0  0  0  0  0  0  0
  -17.5590  -29.6952   22.1592 C   0  0  0  0  0  0  0  0  0  0  0  0
  -22.5282  -31.5581   26.1225 C   0  0  0  0  0  0  0  0  0  0  0  0
  -20.3089  -30.4318   25.8493 C   0  0  0  0  0  0  0  0  0  0  0  0
  -20.5531  -32.8527   25.2995 C   0  0  0  0  0  0  0  0  0  0  0  0
  -20.0148  -29.6866   19.2532 C   0  0  0  0  0  0  0  0  0  0  0  0
  -28.0631  -26.1220   20.3565 C   0  0  0  0  0  0  0  0  0  1  0  0
  -21.5739  -31.1237   23.7631 C   0  0  1  0  0  0  0  0  0  0  0  0
  -18.7928  -30.1330   21.3854 C   0  0  2  0  0  0  0  0  0  0  0  0
  -21.2636  -31.4828   25.2437 C   0  0  0  0  0  0  0  0  0  0  0  0
  -27.8387  -23.8434   19.5480 N   0  0  0  0  0  0  0  0  0  0  0  0
  -26.3184  -10.2679   19.3131 N   0  0  0  0  0  0  0  0  0  0  0  0
  -27.2743  -10.5879   18.4244 N   0  0  0  0  0  0  0  0  0  0  0  0
  -23.7349  -31.5772   22.6458 N   0  0  0  0  0  0  0  0  0  0  0  0
  -28.2825  -13.9542   19.9035 N   0  0  0  0  0  0  0  0  0  0  0  0
  -28.2103   -9.9482   16.3446 N   0  0  0  0  0  0  0  0  0  0  0  0
  -25.0209   -8.0227   15.6282 N   0  0  0  0  0  0  0  0  0  0  0  0
  -25.7378  -34.0249   23.8147 N   0  0  0  0  0  0  0  0  0  0  0  0
  -20.3975  -31.0720   22.9017 N   0  0  0  0  0  0  0  0  0  0  0  0
  -28.8065  -16.2382   20.1844 N   0  0  0  0  0  0  0  0  0  0  0  0
  -18.8612  -29.3426   20.1238 N   0  3  0  0  0  0  0  0  0  0  0  0
  -26.4825   -6.6382   16.7263 O   0  0  0  0  0  0  0  0  0  0  0  0
  -26.3306  -31.7730   23.8220 O   0  0  0  0  0  0  0  0  0  0  0  0
  -22.2039  -33.2918   23.0361 O   0  0  0  0  0  0  0  0  0  0  0  0
  -20.6774  -28.8730   22.2209 O   0  0  0  0  0  0  0  0  0  0  0  0
  -26.9452  -15.6201   18.9838 O   0  0  0  0  0  0  0  0  0  0  0  0
  -21.4627   -6.6840   21.3441 O   0  0  0  0  0  0  0  0  0  0  0  0
  -26.9921  -26.5418   21.2010 O   0  0  0  0  0  0  0  0  0  1  0  0
  -22.6216   -3.5280   25.7145 F   0  0  0  0  0  0  0  0  0  0  0  0
  -20.8203   -3.9952   21.3622 F   0  0  0  0  0  0  0  0  0  0  0  0
  1  2  1  0  0  0  0
  1  5  2  0  0  0  0
  2  6  2  0  0  0  0
  3  9  2  0  0  0  0
  3 18  1  0  0  0  0
  4 10  1  0  0  0  0
  4 18  2  0  0  0  0
  5 21  1  0  0  0  0
  6 23  1  0  0  0  0
  7 11  2  0  0  0  0
  7 22  1  0  0  0  0
  8 14  2  0  0  0  0
  8 20  1  0  0  0  0
  9 25  1  0  0  0  0
 10 25  2  0  0  0  0
 11 26  1  0  0  0  0
 12 13  2  0  0  0  0
 12 27  1  0  0  0  0
 13 28  1  0  0  0  0
 14 31  1  0  0  0  0
 15 24  1  0  0  0  0
 15 26  2  0  0  0  0
 16 28  2  0  0  0  0
 16 29  1  0  0  0  0
 17 20  2  0  0  0  0
 17 65  1  0  0  0  0
 18 30  1  0  0  0  0
 19 30  1  0  0  0  0
 19 32  2  0  0  0  0
 19 33  1  0  0  0  0
 20 51  1  0  0  0  0
 21 23  2  0  0  0  0
 21 38  1  0  0  0  0
 22 24  2  0  0  0  0
 22 39  1  0  0  0  0
 23 52  1  0  0  0  0
 24 40  1  0  0  0  0
 25 81  1  0  0  0  0
 26 82  1  0  0  0  0
 27 29  2  0  0  0  0
 27 81  1  0  0  0  0
 28 83  1  0  0  0  0
 29 84  1  0  0  0  0
 30 66  2  0  0  0  0
 31 61  1  0  0  0  0
 31 65  2  0  0  0  0
 32 67  1  0  0  0  0
 32 70  1  0  0  0  0
 33 71  1  0  0  0  0
 33 76  2  0  0  0  0
 34 53  1  0  0  0  0
 34 72  1  0  0  0  0
 34 77  2  0  0  0  0
 35 62  1  0  0  0  0
 35 68  1  0  0  0  0
 35 78  2  0  0  0  0
 36 63  1  0  0  0  0
 36 73  1  0  0  0  0
 36 79  2  0  0  0  0
 37 69  1  0  0  0  0
 37 74  1  0  0  0  0
 37 80  2  0  0  0  0
 38 41  1  0  0  0  0
 39 53  1  0  0  0  0
 40 68  1  0  0  0  0
 41 45  1  0  0  0  0
 42 46  1  0  0  0  0
 42 49  1  0  0  0  0
 43 47  1  0  0  0  0
 43 51  1  0  0  0  0
 44 48  1  0  0  0  0
 44 51  1  0  0  0  0
 45 52  1  0  0  0  0
 46 54  1  0  0  0  0
 47 55  1  0  0  0  0
 48 55  1  0  0  0  0
 49 69  1  0  0  0  0
 50 54  1  0  0  0  0
 50 69  1  0  0  0  0
 52 72  1  0  0  0  0
 53 68  1  0  0  0  0
 54 67  1  0  0  0  0
 55 74  1  0  0  0  0
 56 63  1  0  0  0  0
 57 64  1  0  0  0  0
 58 64  1  0  0  0  0
 59 64  1  0  0  0  0
 60 75  1  0  0  0  0
 61 82  1  0  0  0  0
 62 64  1  0  0  0  0
 62 73  1  0  0  0  0
 63 75  1  0  0  0  0
 66 67  1  0  0  0  0
M  CHG  1  75   1
M  ISO  4  37 100  61 101  74 100  82 101
M  END
> <Batch ID>
0117

> <Smiles>
CNC(C)C(=O)NC(C(=O)N1Cc2cc([101O:1][101CH2:1]c3ccc(C4CCC([100NH:0][100C:0](=O)N5CCCC(n6nc(-c7ccc(Oc8ccc(F)cc8F)cc7)c(C(N)=O)c6N)C5)CC4)cn3)ccc2CC1C(=O)NC1CCCc2ccccc21)C(C)(C)C

> <Shape>
0.292

> <Color>
0.076

> <Negative vol penalty>
0.000

$$$$

  -OEChem-04052320153D

 86 94  0     1  0  0  0  0  0999 V2000
  -29.1268  -14.3153   21.4249 C   0  0  0  0  0  0  0  0  0  0  0  0
  -28.1238  -15.1675   21.8756 C   0  0  0  0  0  0  0  0  0  0  0  0
  -21.6050  -14.1741   22.6138 C   0  0  0  0  0  0  0  0  0  0  0  0
  -22.5993  -15.3279   20.7383 C   0  0  0  0  0  0  0  0  0  0  0  0
  -30.4321  -14.7866   21.2904 C   0  0  0  0  0  0  0  0  0  0  0  0
  -28.4256  -16.4913   22.1931 C   0  0  0  0  0  0  0  0  0  0  0  0
  -24.8258  -21.3812   21.3956 C   0  0  0  0  0  0  0  0  0  0  0  0
  -21.6413  -12.9780   21.8972 C   0  0  0  0  0  0  0  0  0  0  0  0
  -22.6357  -14.1317   20.0218 C   0  0  0  0  0  0  0  0  0  0  0  0
  -23.9945  -22.0858   22.2653 C   0  0  0  0  0  0  0  0  0  0  0  0
  -23.9333  -10.6271   21.0890 C   0  0  0  0  0  0  0  0  0  0  0  0
  -24.3883   -9.4876   21.7524 C   0  0  0  0  0  0  0  0  0  0  0  0
  -25.7635  -23.6787   22.6560 C   0  0  0  0  0  0  0  0  0  0  0  0
  -18.0450  -25.7506   23.1301 C   0  0  0  0  0  0  0  0  0  0  0  0
  -22.2621   -8.4097   21.3593 C   0  0  0  0  0  0  0  0  0  0  0  0
  -22.0840  -15.3491   22.0343 C   0  0  0  0  0  0  0  0  0  0  0  0
  -23.0460  -17.1002   23.6205 C   0  0  0  0  0  0  0  0  0  0  0  0
  -30.7482  -16.1195   21.5972 C   0  0  0  0  0  0  0  0  0  0  0  0
  -26.1380  -21.8146   21.1576 C   0  0  0  0  0  0  0  0  0  0  0  0
  -29.7366  -16.9806   22.0638 C   0  0  0  0  0  0  0  0  0  0  0  0
  -26.6086  -22.9792   21.7809 C   0  0  0  0  0  0  0  0  0  0  0  0
  -18.8061  -26.7876   23.6580 C   0  0  0  0  0  0  0  0  0  0  0  0
  -19.8255  -27.3508   22.8984 C   0  0  0  0  0  0  0  0  0  0  0  0
  -22.1567  -12.9567   20.6013 C   0  0  0  0  0  0  0  0  0  0  0  0
  -24.4643  -23.2331   22.8978 C   0  0  0  0  0  0  0  0  0  0  0  0
  -22.6426  -10.6579   20.5608 C   0  0  0  0  0  0  0  0  0  0  0  0
  -23.5528   -8.3789   21.8875 C   0  0  0  0  0  0  0  0  0  0  0  0
  -21.8071   -9.5492   20.6960 C   0  0  0  0  0  0  0  0  0  0  0  0
  -22.0462  -16.5852   22.7738 C   0  0  0  0  0  0  0  0  0  0  0  0
  -18.3408  -25.3165   21.8480 C   0  0  0  0  0  0  0  0  0  0  0  0
  -20.0418  -26.8449   21.6267 C   0  0  0  0  0  0  0  0  0  0  0  0
  -22.5306  -18.2885   24.0772 C   0  0  0  0  0  0  0  0  0  0  0  0
  -24.3263  -16.5533   23.9634 C   0  0  0  0  0  0  0  0  0  0  0  0
  -29.0288  -20.5815   21.6335 C   0  0  0  0  0  0  0  0  0  0  0  0
  -29.9949  -23.2244   20.0199 C   0  0  0  0  0  0  0  0  0  0  0  0
  -29.3390  -26.4321   19.0568 C   0  0  0  0  0  0  0  0  0  0  0  0
  -18.5693  -22.0054   21.7645 C   0  0  0  0  0  0  0  0  0  0  0  0
  -32.1827  -16.5706   21.4811 C   0  0  0  0  0  0  0  0  0  0  0  0
  -27.0132  -21.0584   20.1961 C   0  0  0  0  0  0  0  0  0  0  0  0
  -28.0025  -23.4978   21.5434 C   0  0  0  0  0  0  0  0  0  0  0  0
  -32.3458  -18.0884   21.4813 C   0  0  0  0  0  0  0  0  0  0  0  0
  -18.3645  -20.4459   25.0239 C   0  0  0  0  0  0  0  0  0  0  0  0
  -31.5131  -18.7147   22.5954 C   0  0  0  0  0  0  0  0  0  0  0  0
  -19.3916  -19.3205   24.8877 C   0  0  0  0  0  0  0  0  0  0  0  0
  -17.5983  -20.6558   23.7211 C   0  0  0  0  0  0  0  0  0  0  0  0
  -19.4882  -19.7919   22.3960 C   0  0  0  0  0  0  0  0  0  0  0  0
  -30.0198  -18.4299   22.3946 C   0  0  1  0  0  0  0  0  0  0  0  0
  -28.5018  -21.3019   20.4248 C   0  0  1  0  0  0  0  0  0  0  0  0
  -20.3117  -19.5455   23.6732 C   0  0  2  0  0  0  0  0  0  0  0  0
  -18.5083  -27.2733   25.0388 C   0  0  0  0  0  0  0  0  0  0  0  0
  -21.1233  -27.4067   20.7617 C   0  0  0  0  0  0  0  0  0  0  0  0
  -30.3337  -28.3465   17.7751 C   0  0  0  0  0  0  0  0  0  0  0  0
  -21.6613  -29.6735   25.1416 C   0  0  0  0  0  0  0  0  0  0  0  0
  -31.8632  -23.8163   22.3586 C   0  0  0  0  0  0  0  0  0  0  0  0
  -32.1008  -26.1514   21.4873 C   0  0  0  0  0  0  0  0  0  0  0  0
  -32.8581  -24.2213   20.1001 C   0  0  0  0  0  0  0  0  0  0  0  0
  -27.1125  -26.4350   17.1069 C   0  0  0  0  0  0  0  0  0  0  0  0
  -17.5444  -24.2056   21.2491 C   0  0  0  0  0  0  0  0  0  0  0  0
  -22.5567  -26.0326   24.1830 C   0  0  0  0  0  0  0  0  0  0  0  0
  -22.7251  -27.5550   24.2831 C   0  0  0  0  0  0  0  0  0  0  0  0
  -23.8677  -25.3299   23.8484 C   0  0  0  0  0  0  0  0  0  1  0  0
  -30.3823  -24.6313   20.4069 C   0  0  1  0  0  0  0  0  0  0  0  0
  -29.4388  -27.1188   17.7067 C   0  0  2  0  0  0  0  0  0  0  0  0
  -21.4045  -28.2722   24.5964 C   0  0  2  0  0  0  0  0  0  0  0  0
  -31.7754  -24.6945   21.0944 C   0  0  0  0  0  0  0  0  0  0  0  0
  -20.9764  -17.3811   22.6957 N   0  0  0  0  0  0  0  0  0  0  0  0
  -19.3231  -25.8388   21.0799 N   0  0  0  0  0  0  0  0  0  0  0  0
  -21.3011  -18.4083   23.4991 N   0  0  0  0  0  0  0  0  0  0  0  0
  -28.8222  -22.7200   20.5996 N   0  0  0  0  0  0  0  0  0  0  0  0
  -18.5313  -20.8831   22.6085 N   0  0  0  0  0  0  0  0  0  0  0  0
  -23.0137  -19.2323   24.9129 N   0  0  0  0  0  0  0  0  0  0  0  0
  -24.6986  -15.3229   23.4048 N   0  0  0  0  0  0  0  0  0  0  0  0
  -20.5975  -28.3836   23.3992 N   0  0  0  0  0  0  0  0  0  0  0  0
  -29.4722  -19.2985   21.3748 N   0  0  0  0  0  0  0  0  0  0  0  0
  -30.2787  -25.4321   19.1919 N   0  0  0  0  0  0  0  0  0  0  0  0
  -17.6252  -22.9902   22.0283 N   0  0  0  0  0  0  0  0  0  0  0  0
  -28.0889  -27.5465   17.2420 N   0  3  0  0  0  0  0  0  0  0  0  0
  -25.1099  -17.1304   24.7549 O   0  0  0  0  0  0  0  0  0  0  0  0
  -29.0341  -21.1481   22.7200 O   0  0  0  0  0  0  0  0  0  0  0  0
  -30.7028  -22.5988   19.2268 O   0  0  0  0  0  0  0  0  0  0  0  0
  -28.5126  -26.7533   19.9080 O   0  0  0  0  0  0  0  0  0  0  0  0
  -19.3880  -22.1238   20.8464 O   0  0  0  0  0  0  0  0  0  0  0  0
  -22.1925  -11.7896   19.9018 O   0  0  0  0  0  0  0  0  0  0  0  0
  -23.6552  -23.9224   23.7477 O   0  0  0  0  0  0  0  0  0  1  0  0
  -23.9905   -7.2841   22.5232 F   0  0  0  0  0  0  0  0  0  0  0  0
  -20.5665   -9.5725   20.1896 F   0  0  0  0  0  0  0  0  0  0  0  0
  1  2  1  0  0  0  0
  1  5  2  0  0  0  0
  2  6  2  0  0  0  0
  3  8  2  0  0  0  0
  3 16  1  0  0  0  0
  4  9  1  0  0  0  0
  4 16  2  0  0  0  0
  5 18  1  0  0  0  0
  6 20  1  0  0  0  0
  7 10  2  0  0  0  0
  7 19  1  0  0  0  0
  8 24  1  0  0  0  0
  9 24  2  0  0  0  0
 10 25  1  0  0  0  0
 11 12  2  0  0  0  0
 11 26  1  0  0  0  0
 12 27  1  0  0  0  0
 13 21  1  0  0  0  0
 13 25  2  0  0  0  0
 14 22  2  0  0  0  0
 14 30  1  0  0  0  0
 15 27  2  0  0  0  0
 15 28  1  0  0  0  0
 16 29  1  0  0  0  0
 17 29  1  0  0  0  0
 17 32  2  0  0  0  0
 17 33  1  0  0  0  0
 18 20  2  0  0  0  0
 18 38  1  0  0  0  0
 19 21  2  0  0  0  0
 19 39  1  0  0  0  0
 20 47  1  0  0  0  0
 21 40  1  0  0  0  0
 22 23  1  0  0  0  0
 22 50  1  0  0  0  0
 23 31  2  0  0  0  0
 23 73  1  0  0  0  0
 24 83  1  0  0  0  0
 25 84  1  0  0  0  0
 26 28  2  0  0  0  0
 26 83  1  0  0  0  0
 27 85  1  0  0  0  0
 28 86  1  0  0  0  0
 29 66  2  0  0  0  0
 30 58  1  0  0  0  0
 30 67  2  0  0  0  0
 31 51  1  0  0  0  0
 31 67  1  0  0  0  0
 32 68  1  0  0  0  0
 32 71  1  0  0  0  0
 33 72  1  0  0  0  0
 33 78  2  0  0  0  0
 34 48  1  0  0  0  0
 34 74  1  0  0  0  0
 34 79  2  0  0  0  0
 35 62  1  0  0  0  0
 35 69  1  0  0  0  0
 35 80  2  0  0  0  0
 36 63  1  0  0  0  0
 36 75  1  0  0  0  0
 36 81  2  0  0  0  0
 37 70  1  0  0  0  0
 37 76  1  0  0  0  0
 37 82  2  0  0  0  0
 38 41  1  0  0  0  0
 39 48  1  0  0  0  0
 40 69  1  0  0  0  0
 41 43  1  0  0  0  0
 42 44  1  0  0  0  0
 42 45  1  0  0  0  0
 43 47  1  0  0  0  0
 44 49  1  0  0  0  0
 45 70  1  0  0  0  0
 46 49  1  0  0  0  0
 46 70  1  0  0  0  0
 47 74  1  0  0  0  0
 48 69  1  0  0  0  0
 49 68  1  0  0  0  0
 52 63  1  0  0  0  0
 53 64  1  0  0  0  0
 54 65  1  0  0  0  0
 55 65  1  0  0  0  0
 56 65  1  0  0  0  0
 57 77  1  0  0  0  0
 58 76  1  0  0  0  0
 59 60  1  0  0  0  0
 59 61  1  0  0  0  0
 60 64  1  0  0  0  0
 61 84  1  0  0  0  0
 62 65  1  0  0  0  0
 62 75  1  0  0  0  0
 63 77  1  0  0  0  0
 64 73  1  0  0  0  0
 66 68  1  0  0  0  0
M  CHG  1  77   1
M  ISO  4  37 100  61 101  76 100  84 101
M  END
> <Batch ID>
0117

> <Smiles>
CNC(C)C(=O)NC(C(=O)N1Cc2cc([101O:1][101CH2:1]CCC(C)Nc3c(C)cc(C[100NH:0][100C:0](=O)N4CCCC(n5nc(-c6ccc(Oc7ccc(F)cc7F)cc6)c(C(N)=O)c5N)C4)nc3C)ccc2CC1C(=O)NC1CCCc2ccccc21)C(C)(C)C

> <Shape>
0.210

> <Color>
0.040

> <Negative vol penalty>
0.000

$$$$

  -OEChem-04052320153D

 85 94  0     1  0  0  0  0  0999 V2000
  -15.7000  -26.8998   24.2307 C   0  0  0  0  0  0  0  0  0  0  0  0
  -16.8735  -26.1863   24.0085 C   0  0  0  0  0  0  0  0  0  0  0  0
  -26.0683  -13.8543   21.1303 C   0  0  0  0  0  0  0  0  0  0  0  0
  -26.5017  -12.1194   19.5057 C   0  0  0  0  0  0  0  0  0  0  0  0
  -15.7043  -28.2912   24.1423 C   0  0  0  0  0  0  0  0  0  0  0  0
  -18.0517  -26.8638   23.6968 C   0  0  0  0  0  0  0  0  0  0  0  0
  -22.0406  -25.1138   26.2796 C   0  0  0  0  0  0  0  0  0  0  0  0
  -24.8185  -13.2942   21.3949 C   0  0  0  0  0  0  0  0  0  0  0  0
  -25.2520  -11.5594   19.7703 C   0  0  0  0  0  0  0  0  0  0  0  0
  -22.6153  -23.9242   25.8343 C   0  0  0  0  0  0  0  0  0  0  0  0
  -23.8524   -9.6055   22.1460 C   0  0  0  0  0  0  0  0  0  0  0  0
  -23.7851   -8.2216   22.3071 C   0  0  0  0  0  0  0  0  0  0  0  0
  -24.3510  -25.1834   24.7293 C   0  0  0  0  0  0  0  0  0  0  0  0
  -27.1179  -21.1363   21.3911 C   0  0  0  0  0  0  0  0  0  0  0  0
  -25.0925  -21.7384   20.2198 C   0  0  0  0  0  0  0  0  0  0  0  0
  -22.2579   -8.0787   20.4405 C   0  0  0  0  0  0  0  0  0  0  0  0
  -26.9099  -13.2669   20.1856 C   0  0  0  0  0  0  0  0  0  0  0  0
  -29.4186  -13.5489   20.5525 C   0  0  0  0  0  0  0  0  0  0  0  0
  -16.8853  -28.9868   23.8389 C   0  0  0  0  0  0  0  0  0  0  0  0
  -22.6115  -26.3496   25.9434 C   0  0  0  0  0  0  0  0  0  0  0  0
  -18.0714  -28.2658   23.6030 C   0  0  0  0  0  0  0  0  0  0  0  0
  -23.7830  -26.3871   25.1737 C   0  0  0  0  0  0  0  0  0  0  0  0
  -25.7585  -21.4478   21.4105 C   0  0  0  0  0  0  0  0  0  0  0  0
  -27.8115  -21.1155   20.1810 C   0  0  0  0  0  0  0  0  0  0  0  0
  -25.7860  -21.7175   19.0097 C   0  0  0  0  0  0  0  0  0  0  0  0
  -27.1455  -21.4060   18.9904 C   0  0  0  0  0  0  0  0  0  0  0  0
  -24.4104  -12.1468   20.7149 C   0  0  0  0  0  0  0  0  0  0  0  0
  -23.7691  -23.9590   25.0566 C   0  0  0  0  0  0  0  0  0  0  0  0
  -23.1225  -10.2260   21.1322 C   0  0  0  0  0  0  0  0  0  0  0  0
  -22.9879   -7.4582   21.4543 C   0  0  0  0  0  0  0  0  0  0  0  0
  -22.3252   -9.4626   20.2794 C   0  0  0  0  0  0  0  0  0  0  0  0
  -28.2008  -13.8453   19.9115 C   0  0  0  0  0  0  0  0  0  0  0  0
  -30.3389  -14.3583   19.9325 C   0  0  0  0  0  0  0  0  0  0  0  0
  -29.6934  -12.6245   21.6135 C   0  0  0  0  0  0  0  0  0  0  0  0
  -21.6434  -28.8969   24.3070 C   0  0  0  0  0  0  0  0  0  0  0  0
  -24.4471  -30.1495   25.3523 C   0  0  0  0  0  0  0  0  0  0  0  0
  -27.6206  -29.6052   26.4835 C   0  0  0  0  0  0  0  0  0  0  0  0
  -29.4828  -19.6343   16.9969 C   0  0  0  0  0  0  0  0  0  0  0  0
  -16.8303  -30.4882   23.7078 C   0  0  0  0  0  0  0  0  0  0  0  0
  -21.9945  -27.6228   26.4540 C   0  0  0  0  0  0  0  0  0  0  0  0
  -24.4466  -27.6872   24.8023 C   0  0  0  0  0  0  0  0  0  0  0  0
  -18.2039  -31.1533   23.7414 C   0  0  0  0  0  0  0  0  0  0  0  0
  -30.7629  -16.4104   15.5587 C   0  0  0  0  0  0  0  0  0  0  0  0
  -19.1767  -30.4156   22.8269 C   0  0  0  0  0  0  0  0  0  0  0  0
  -30.7345  -15.4488   16.7471 C   0  0  0  0  0  0  0  0  0  0  0  0
  -26.2944  -19.6646   15.4890 C   0  0  0  0  0  0  0  0  0  0  0  0
  -27.0658  -18.3816   15.5751 C   0  0  0  0  0  0  0  0  0  0  0  0
  -30.8654  -17.8643   15.9946 C   0  0  0  0  0  0  0  0  0  0  0  0
  -29.1744  -17.2105   17.7161 C   0  0  0  0  0  0  0  0  0  0  0  0
  -19.3751  -28.9663   23.2869 C   0  0  1  0  0  0  0  0  0  0  0  0
  -22.3700  -28.8446   25.6212 C   0  0  1  0  0  0  0  0  0  0  0  0
  -30.1921  -16.1006   18.0320 C   0  0  1  0  0  0  0  0  0  0  0  0
  -26.9902  -19.2926   16.7696 C   0  0  0  0  0  0  0  0  0  0  0  0
  -29.2667  -20.7777   20.1875 C   0  0  0  0  0  0  0  0  0  0  0  0
  -25.0497  -22.0322   17.7485 C   0  0  0  0  0  0  0  0  0  0  0  0
  -29.6860  -30.8257   27.2196 C   0  0  0  0  0  0  0  0  0  0  0  0
  -25.0978  -30.7983   22.4427 C   0  0  0  0  0  0  0  0  0  0  0  0
  -27.4864  -31.1184   23.1210 C   0  0  0  0  0  0  0  0  0  0  0  0
  -25.7130  -32.5912   24.0741 C   0  0  0  0  0  0  0  0  0  0  0  0
  -27.5062  -28.4060   29.1868 C   0  0  0  0  0  0  0  0  0  0  0  0
  -25.0081  -21.4711   22.7200 C   0  0  0  0  0  0  0  0  0  0  0  0
  -27.8893  -21.3831   17.6930 C   0  0  0  0  0  0  0  0  0  0  0  0
  -25.0356  -22.8456   23.3796 C   0  0  0  0  0  0  0  0  0  1  0  0
  -25.8633  -30.1835   24.8306 C   0  0  1  0  0  0  0  0  0  0  0  0
  -28.3820  -30.1813   27.6636 C   0  0  2  0  0  0  0  0  0  0  0  0
  -26.0268  -31.1483   23.6223 C   0  0  0  0  0  0  0  0  0  0  0  0
  -28.3322  -14.7708   18.9575 N   0  0  0  0  0  0  0  0  0  0  0  0
  -29.6434  -15.0631   18.9945 N   0  0  0  0  0  0  0  0  0  0  0  0
  -23.8017  -28.9052   25.3202 N   0  0  0  0  0  0  0  0  0  0  0  0
  -29.7532  -18.2621   16.8627 N   0  0  0  0  0  0  0  0  0  0  0  0
  -31.6670  -14.5289   20.1036 N   0  0  0  0  0  0  0  0  0  0  0  0
  -28.6325  -11.8718   22.1354 N   0  0  0  0  0  0  0  0  0  0  0  0
  -20.2668  -28.9151   24.4256 N   0  0  0  0  0  0  0  0  0  0  0  0
  -26.7114  -30.5072   25.9727 N   0  0  0  0  0  0  0  0  0  0  0  0
  -28.1536  -20.0235   17.2331 N   0  0  0  0  0  0  0  0  0  0  0  0
  -28.6992  -29.1090   28.6488 N   0  3  0  0  0  0  0  0  0  0  0  0
  -30.8426  -12.4826   22.0960 O   0  0  0  0  0  0  0  0  0  0  0  0
  -22.2843  -28.9207   23.2628 O   0  0  0  0  0  0  0  0  0  0  0  0
  -23.9349  -31.1873   25.7794 O   0  0  0  0  0  0  0  0  0  0  0  0
  -27.8157  -28.4699   26.0550 O   0  0  0  0  0  0  0  0  0  0  0  0
  -30.3879  -20.4749   16.9018 O   0  0  0  0  0  0  0  0  0  0  0  0
  -23.1910  -11.5999   20.9731 O   0  0  0  0  0  0  0  0  0  0  0  0
  -24.3318  -22.7993   24.6201 O   0  0  0  0  0  0  0  0  0  1  0  0
  -22.9245   -6.1291   21.6082 F   0  0  0  0  0  0  0  0  0  0  0  0
  -21.6226  -10.0529   19.3029 F   0  0  0  0  0  0  0  0  0  0  0  0
  1  2  1  0  0  0  0
  1  5  2  0  0  0  0
  2  6  2  0  0  0  0
  3  8  2  0  0  0  0
  3 17  1  0  0  0  0
  4  9  1  0  0  0  0
  4 17  2  0  0  0  0
  5 19  1  0  0  0  0
  6 21  1  0  0  0  0
  7 10  2  0  0  0  0
  7 20  1  0  0  0  0
  8 27  1  0  0  0  0
  9 27  2  0  0  0  0
 10 28  1  0  0  0  0
 11 12  2  0  0  0  0
 11 29  1  0  0  0  0
 12 30  1  0  0  0  0
 13 22  1  0  0  0  0
 13 28  2  0  0  0  0
 14 23  1  0  0  0  0
 14 24  2  0  0  0  0
 15 23  2  0  0  0  0
 15 25  1  0  0  0  0
 16 30  2  0  0  0  0
 16 31  1  0  0  0  0
 17 32  1  0  0  0  0
 18 32  1  0  0  0  0
 18 33  2  0  0  0  0
 18 34  1  0  0  0  0
 19 21  2  0  0  0  0
 19 39  1  0  0  0  0
 20 22  2  0  0  0  0
 20 40  1  0  0  0  0
 21 50  1  0  0  0  0
 22 41  1  0  0  0  0
 23 61  1  0  0  0  0
 24 26  1  0  0  0  0
 24 54  1  0  0  0  0
 25 26  2  0  0  0  0
 25 55  1  0  0  0  0
 26 62  1  0  0  0  0
 27 82  1  0  0  0  0
 28 83  1  0  0  0  0
 29 31  2  0  0  0  0
 29 82  1  0  0  0  0
 30 84  1  0  0  0  0
 31 85  1  0  0  0  0
 32 67  2  0  0  0  0
 33 68  1  0  0  0  0
 33 71  1  0  0  0  0
 34 72  1  0  0  0  0
 34 77  2  0  0  0  0
 35 51  1  0  0  0  0
 35 73  1  0  0  0  0
 35 78  2  0  0  0  0
 36 64  1  0  0  0  0
 36 69  1  0  0  0  0
 36 79  2  0  0  0  0
 37 65  1  0  0  0  0
 37 74  1  0  0  0  0
 37 80  2  0  0  0  0
 38 70  1  0  0  0  0
 38 75  1  0  0  0  0
 38 81  2  0  0  0  0
 39 42  1  0  0  0  0
 40 51  1  0  0  0  0
 41 69  1  0  0  0  0
 42 44  1  0  0  0  0
 43 45  1  0  0  0  0
 43 48  1  0  0  0  0
 44 50  1  0  0  0  0
 45 52  1  0  0  0  0
 46 47  1  0  0  0  0
 46 53  1  0  0  0  0
 47 53  1  0  0  0  0
 48 70  1  0  0  0  0
 49 52  1  0  0  0  0
 49 70  1  0  0  0  0
 50 73  1  0  0  0  0
 51 69  1  0  0  0  0
 52 68  1  0  0  0  0
 53 75  1  0  0  0  0
 56 65  1  0  0  0  0
 57 66  1  0  0  0  0
 58 66  1  0  0  0  0
 59 66  1  0  0  0  0
 60 76  1  0  0  0  0
 61 63  1  0  0  0  0
 62 75  1  0  0  0  0
 63 83  1  0  0  0  0
 64 66  1  0  0  0  0
 64 74  1  0  0  0  0
 65 76  1  0  0  0  0
 67 68  1  0  0  0  0
M  CHG  1  76   1
M  ISO  4  38 100  63 101  75 100  83 101
M  END
> <Batch ID>
0117

> <Smiles>
CNC(C)C(=O)NC(C(=O)N1Cc2cc([101O:1][101CH2:1]Cc3cc(C)c(C[100N:0](C4CC4)[100C:0](=O)N4CCCC(n5nc(-c6ccc(Oc7ccc(F)cc7F)cc6)c(C(N)=O)c5N)C4)c(C)c3)ccc2CC1C(=O)NC1CCCc2ccccc21)C(C)(C)C

> <Shape>
0.237

> <Color>
0.078

> <Negative vol penalty>
0.000

$$$$

  -OEChem-04052320153D

 94102  0     1  0  0  0  0  0999 V2000
  -27.0778  -32.8613   27.1670 C   0  0  0  0  0  0  0  0  0  0  0  0
  -27.4020  -31.7886   26.3426 C   0  0  0  0  0  0  0  0  0  0  0  0
  -23.8640  -10.0061   22.1047 C   0  0  0  0  0  0  0  0  0  0  0  0
  -23.9871   -9.3314   19.7882 C   0  0  0  0  0  0  0  0  0  0  0  0
  -25.7415  -33.1485   27.4420 C   0  0  0  0  0  0  0  0  0  0  0  0
  -26.3901  -31.0018   25.7936 C   0  0  0  0  0  0  0  0  0  0  0  0
  -27.1468  -30.0097   20.8857 C   0  0  0  0  0  0  0  0  0  0  0  0
  -31.1795  -21.3128   20.0800 C   0  0  0  0  0  0  0  0  0  0  0  0
  -22.8836   -9.0408   22.3339 C   0  0  0  0  0  0  0  0  0  0  0  0
  -23.0067   -8.3659   20.0173 C   0  0  0  0  0  0  0  0  0  0  0  0
  -28.0768  -29.0195   20.5723 C   0  0  0  0  0  0  0  0  0  0  0  0
  -31.2945  -22.7020   20.1284 C   0  0  0  0  0  0  0  0  0  0  0  0
  -22.7464   -5.6993   22.8326 C   0  0  0  0  0  0  0  0  0  0  0  0
  -22.8671   -4.9119   23.9776 C   0  0  0  0  0  0  0  0  0  0  0  0
  -26.2792  -27.4471   20.2328 C   0  0  0  0  0  0  0  0  0  0  0  0
  -29.3165  -21.5201   18.5557 C   0  0  0  0  0  0  0  0  0  0  0  0
  -20.7291   -5.7213   24.7595 C   0  0  0  0  0  0  0  0  0  0  0  0
  -24.4157  -10.1515   20.8319 C   0  0  0  0  0  0  0  0  0  0  0  0
  -26.8218  -10.9909   20.7143 C   0  0  0  0  0  0  0  0  0  0  0  0
  -24.7123  -32.3708   26.8884 C   0  0  0  0  0  0  0  0  0  0  0  0
  -25.7742  -29.7227   20.8856 C   0  0  0  0  0  0  0  0  0  0  0  0
  -25.0388  -31.2781   26.0626 C   0  0  0  0  0  0  0  0  0  0  0  0
  -25.3337  -28.4361   20.5440 C   0  0  0  0  0  0  0  0  0  0  0  0
  -30.1906  -20.7218   19.2935 C   0  0  0  0  0  0  0  0  0  0  0  0
  -29.4315  -22.9094   18.6042 C   0  0  0  0  0  0  0  0  0  0  0  0
  -22.4550   -8.2207   21.2901 C   0  0  0  0  0  0  0  0  0  0  0  0
  -27.6433  -27.7372   20.2486 C   0  0  0  0  0  0  0  0  0  0  0  0
  -30.4205  -23.5003   19.3906 C   0  0  0  0  0  0  0  0  0  0  0  0
  -21.6172   -6.4978   22.6511 C   0  0  0  0  0  0  0  0  0  0  0  0
  -21.8584   -4.9229   24.9410 C   0  0  0  0  0  0  0  0  0  0  0  0
  -20.6085   -6.5088   23.6145 C   0  0  0  0  0  0  0  0  0  0  0  0
  -25.4281  -11.1489   20.5944 C   0  0  0  0  0  0  0  0  0  0  0  0
  -27.3365  -12.2203   20.3827 C   0  0  0  0  0  0  0  0  0  0  0  0
  -27.5831   -9.8360   21.0917 C   0  0  0  0  0  0  0  0  0  0  0  0
  -23.4757  -29.7554   23.0809 C   0  0  0  0  0  0  0  0  0  0  0  0
  -21.5706  -29.1199   20.5335 C   0  0  0  0  0  0  0  0  0  0  0  0
  -21.2812  -27.8606   17.3748 C   0  0  0  0  0  0  0  0  0  0  0  0
  -27.4436  -16.7238   17.0883 C   0  0  0  0  0  0  0  0  0  0  0  0
  -23.2842  -32.6910   27.2526 C   0  0  0  0  0  0  0  0  0  0  0  0
  -24.7824  -30.8090   21.1999 C   0  0  0  0  0  0  0  0  0  0  0  0
  -23.8701  -28.0821   20.5097 C   0  0  0  0  0  0  0  0  0  0  0  0
  -22.2590  -32.0370   26.3298 C   0  0  0  0  0  0  0  0  0  0  0  0
  -25.0425  -16.6791   19.7168 C   0  0  0  0  0  0  0  0  0  0  0  0
  -22.6018  -30.5674   26.1073 C   0  0  0  0  0  0  0  0  0  0  0  0
  -25.0394  -15.2227   20.1847 C   0  0  0  0  0  0  0  0  0  0  0  0
  -25.2336  -16.7860   18.2055 C   0  0  0  0  0  0  0  0  0  0  0  0
  -26.4133  -14.6229   18.1472 C   0  0  0  0  0  0  0  0  0  0  0  0
  -23.9685  -30.4165   25.4284 C   0  0  1  0  0  0  0  0  0  0  0  0
  -23.4348  -30.2701   21.6698 C   0  0  1  0  0  0  0  0  0  0  0  0
  -26.2795  -14.4663   19.6716 C   0  0  2  0  0  0  0  0  0  0  0  0
  -27.0239  -23.5637   18.2451 C   0  0  0  0  0  0  0  0  0  0  0  0
  -28.6175  -23.5004   16.2929 C   0  0  0  0  0  0  0  0  0  0  0  0
  -19.5908  -27.4434   15.5677 C   0  0  0  0  0  0  0  0  0  0  0  0
  -28.8827  -15.1744   12.4096 C   0  0  0  0  0  0  0  0  0  0  0  0
  -28.1305  -17.3166   13.4577 C   0  0  0  0  0  0  0  0  0  0  0  0
  -32.1541  -17.1158   16.1816 C   0  0  0  0  0  0  0  0  0  0  0  0
  -20.5048  -26.7203   22.0879 C   0  0  0  0  0  0  0  0  0  0  0  0
  -19.5754  -25.8302   19.9403 C   0  0  0  0  0  0  0  0  0  0  0  0
  -18.7643  -28.0112   20.8394 C   0  0  0  0  0  0  0  0  0  0  0  0
  -22.6997  -29.6348   15.4777 C   0  0  0  0  0  0  0  0  0  0  0  0
  -31.6419  -16.4804   19.2553 C   0  0  0  0  0  0  0  0  0  0  0  0
  -30.0691  -19.2364   19.2409 C   0  0  0  0  0  0  0  0  0  0  0  0
  -29.8358  -15.8242   14.6437 C   0  0  0  0  0  0  0  0  0  0  0  0
  -30.8996  -18.5783   18.1380 C   0  0  0  0  0  0  0  0  0  0  0  0
  -29.8312  -26.8595   20.5625 C   0  0  0  0  0  0  0  0  0  1  0  0
  -30.3993  -25.4638   20.7322 C   0  0  0  0  0  0  0  0  0  0  0  0
  -28.4883  -23.7487   17.8070 C   0  0  0  0  0  0  0  0  0  0  0  0
  -21.0854  -27.8655   19.8479 C   0  0  1  0  0  0  0  0  0  0  0  0
  -20.6190  -28.4147   16.1263 C   0  0  2  0  0  0  0  0  0  0  0  0
  -28.5879  -15.8837   13.7350 C   0  0  0  0  0  0  0  0  0  0  0  0
  -29.6719  -16.5060   16.0175 C   0  0  2  0  0  0  0  0  0  0  0  0
  -30.9644  -16.4426   16.8592 C   0  0  2  0  0  0  0  0  0  0  0  0
  -20.0102  -27.1126   20.6813 C   0  0  0  0  0  0  0  0  0  0  0  0
  -25.0795  -12.3816   20.2163 N   0  0  0  0  0  0  0  0  0  0  0  0
  -26.2617  -13.0094   20.0958 N   0  0  0  0  0  0  0  0  0  0  0  0
  -22.9396  -29.1769   20.8308 N   0  0  0  0  0  0  0  0  0  0  0  0
  -26.4272  -16.0487   17.7841 N   0  0  0  0  0  0  0  0  0  0  0  0
  -28.5992  -12.6927   20.3115 N   0  0  0  0  0  0  0  0  0  0  0  0
  -26.8957   -8.6542   21.4001 N   0  0  0  0  0  0  0  0  0  0  0  0
  -23.8637  -30.6989   24.0129 N   0  0  0  0  0  0  0  0  0  0  0  0
  -20.6357  -28.2732   18.5213 N   0  0  0  0  0  0  0  0  0  0  0  0
  -28.5430  -15.9524   16.7315 N   0  0  0  0  0  0  0  0  0  0  0  0
  -21.6390  -28.6771   15.0719 N   0  3  0  0  0  0  0  0  0  0  0  0
  -30.7597  -17.1025   18.2008 N   0  3  1  0  0  0  0  0  0  0  0  0
  -28.8349   -9.8562   21.1693 O   0  0  0  0  0  0  0  0  0  0  0  0
  -23.1758  -28.5890   23.3075 O   0  0  0  0  0  0  0  0  0  0  0  0
  -20.7659  -30.0192   20.7892 O   0  0  0  0  0  0  0  0  0  0  0  0
  -22.2698  -27.1314   17.3367 O   0  0  0  0  0  0  0  0  0  0  0  0
  -27.3788  -17.9261   16.8105 O   0  0  0  0  0  0  0  0  0  0  0  0
  -21.4985   -7.2784   21.5134 O   0  0  0  0  0  0  0  0  0  0  0  0
  -28.5489  -26.7686   19.9429 O   0  0  0  0  0  0  0  0  0  1  0  0
  -30.5467  -24.8632   19.4513 O   0  0  0  0  0  0  0  0  0  0  0  0
  -21.9737   -4.1655   26.0398 F   0  0  0  0  0  0  0  0  0  0  0  0
  -19.5208   -7.2729   23.4450 F   0  0  0  0  0  0  0  0  0  0  0  0
  1  2  1  0  0  0  0
  1  5  2  0  0  0  0
  2  6  2  0  0  0  0
  3  9  2  0  0  0  0
  3 18  1  0  0  0  0
  4 10  1  0  0  0  0
  4 18  2  0  0  0  0
  5 20  1  0  0  0  0
  6 22  1  0  0  0  0
  7 11  2  0  0  0  0
  7 21  1  0  0  0  0
  8 12  2  0  0  0  0
  8 24  1  0  0  0  0
  9 26  1  0  0  0  0
 10 26  2  0  0  0  0
 11 27  1  0  0  0  0
 12 28  1  0  0  0  0
 13 14  2  0  0  0  0
 13 29  1  0  0  0  0
 14 30  1  0  0  0  0
 15 23  1  0  0  0  0
 15 27  2  0  0  0  0
 16 24  2  0  0  0  0
 16 25  1  0  0  0  0
 17 30  2  0  0  0  0
 17 31  1  0  0  0  0
 18 32  1  0  0  0  0
 19 32  1  0  0  0  0
 19 33  2  0  0  0  0
 19 34  1  0  0  0  0
 20 22  2  0  0  0  0
 20 39  1  0  0  0  0
 21 23  2  0  0  0  0
 21 40  1  0  0  0  0
 22 48  1  0  0  0  0
 23 41  1  0  0  0  0
 24 62  1  0  0  0  0
 25 28  2  0  0  0  0
 25 67  1  0  0  0  0
 26 90  1  0  0  0  0
 27 91  1  0  0  0  0
 28 92  1  0  0  0  0
 29 31  2  0  0  0  0
 29 90  1  0  0  0  0
 30 93  1  0  0  0  0
 31 94  1  0  0  0  0
 32 74  2  0  0  0  0
 33 75  1  0  0  0  0
 33 78  1  0  0  0  0
 34 79  1  0  0  0  0
 34 85  2  0  0  0  0
 35 49  1  0  0  0  0
 35 80  1  0  0  0  0
 35 86  2  0  0  0  0
 36 68  1  0  0  0  0
 36 76  1  0  0  0  0
 36 87  2  0  0  0  0
 37 69  1  0  0  0  0
 37 81  1  0  0  0  0
 37 88  2  0  0  0  0
 38 77  1  0  0  0  0
 38 82  1  0  0  0  0
 38 89  2  0  0  0  0
 39 42  1  0  0  0  0
 40 49  1  0  0  0  0
 41 76  1  0  0  0  0
 42 44  1  0  0  0  0
 43 45  1  0  0  0  0
 43 46  1  0  0  0  0
 44 48  1  0  0  0  0
 45 50  1  0  0  0  0
 46 77  1  0  0  0  0
 47 50  1  0  0  0  0
 47 77  1  0  0  0  0
 48 80  1  0  0  0  0
 49 76  1  0  0  0  0
 50 75  1  0  0  0  0
 51 67  1  0  0  0  0
 52 67  1  0  0  0  0
 53 69  1  0  0  0  0
 54 70  1  0  0  0  0
 55 70  1  0  0  0  0
 56 72  1  0  0  0  0
 57 73  1  0  0  0  0
 58 73  1  0  0  0  0
 59 73  1  0  0  0  0
 60 83  1  0  0  0  0
 61 84  1  0  0  0  0
 62 64  1  0  0  0  0
 63 70  1  0  0  0  0
 63 71  1  0  0  0  0
 64 84  1  0  0  0  0
 65 66  1  0  0  0  0
 65 91  1  0  0  0  0
 66 92  1  0  0  0  0
 68 73  1  0  0  0  0
 68 81  1  0  0  0  0
 69 83  1  0  0  0  0
 71 72  1  0  0  0  0
 71 82  1  0  0  0  0
 72 84  1  0  0  0  0
 74 75  1  0  0  0  0
M  CHG  2  83   1  84   1
M  ISO  4  38 100  65 101  82 100  91 101
M  END
> <Batch ID>
0117

> <Smiles>
CNC(C)C(=O)NC(C(=O)N1Cc2cc([101O:1][101CH2:1]COc3ccc(CCN(C)C(C)C(CC(C)C)[100NH:0][100C:0](=O)N4CCCC(n5nc(-c6ccc(Oc7ccc(F)cc7F)cc6)c(C(N)=O)c5N)C4)cc3C(C)C)ccc2CC1C(=O)NC1CCCc2ccccc21)C(C)(C)C

> <Shape>
0.303

> <Color>
0.126

> <Negative vol penalty>
0.000

$$$$

  -OEChem-04052320153D

 82 90  0     1  0  0  0  0  0999 V2000
  -18.7176  -30.7176   19.2223 C   0  0  0  0  0  0  0  0  0  0  0  0
  -20.0429  -31.1087   19.3836 C   0  0  0  0  0  0  0  0  0  0  0  0
  -23.4619   -9.5226   20.4352 C   0  0  0  0  0  0  0  0  0  0  0  0
  -24.0762  -10.0803   22.7042 C   0  0  0  0  0  0  0  0  0  0  0  0
  -18.1420  -29.8214   20.1220 C   0  0  0  0  0  0  0  0  0  0  0  0
  -20.7931  -30.6046   20.4454 C   0  0  0  0  0  0  0  0  0  0  0  0
  -27.6020  -26.7754   20.3851 C   0  0  0  0  0  0  0  0  0  0  0  0
  -28.7923  -20.2321   20.3628 C   0  0  0  0  0  0  0  0  0  0  0  0
  -22.8770   -8.3387   20.8845 C   0  0  0  0  0  0  0  0  0  0  0  0
  -23.4913   -8.8964   23.1536 C   0  0  0  0  0  0  0  0  0  0  0  0
  -28.7234  -25.9525   20.4918 C   0  0  0  0  0  0  0  0  0  0  0  0
  -20.3804   -7.7475   23.8037 C   0  0  0  0  0  0  0  0  0  0  0  0
  -19.5691   -7.8164   24.9362 C   0  0  0  0  0  0  0  0  0  0  0  0
  -28.5387  -18.8653   20.3349 C   0  0  0  0  0  0  0  0  0  0  0  0
  -27.8712  -25.0420   22.5637 C   0  0  0  0  0  0  0  0  0  0  0  0
  -21.0289   -6.2653   26.0764 C   0  0  0  0  0  0  0  0  0  0  0  0
  -31.1168  -19.7455   20.4899 C   0  0  0  0  0  0  0  0  0  0  0  0
  -24.0616  -10.3934   21.3450 C   0  0  0  0  0  0  0  0  0  0  0  0
  -24.0456  -12.8718   20.7411 C   0  0  0  0  0  0  0  0  0  0  0  0
  -18.8884  -29.2985   21.1898 C   0  0  0  0  0  0  0  0  0  0  0  0
  -26.6023  -26.7235   21.3605 C   0  0  0  0  0  0  0  0  0  0  0  0
  -20.2266  -29.7015   21.3610 C   0  0  0  0  0  0  0  0  0  0  0  0
  -26.7397  -25.8549   22.4556 C   0  0  0  0  0  0  0  0  0  0  0  0
  -30.1031  -20.6889   20.4417 C   0  0  0  0  0  0  0  0  0  0  0  0
  -22.8916   -8.0256   22.2437 C   0  0  0  0  0  0  0  0  0  0  0  0
  -28.8577  -25.0881   21.5786 C   0  0  0  0  0  0  0  0  0  0  0  0
  -21.5159   -6.9374   23.8074 C   0  0  0  0  0  0  0  0  0  0  0  0
  -19.8934   -7.0754   26.0726 C   0  0  0  0  0  0  0  0  0  0  0  0
  -21.8402   -6.1963   24.9438 C   0  0  0  0  0  0  0  0  0  0  0  0
  -24.6665  -11.6162   20.8814 C   0  0  0  0  0  0  0  0  0  0  0  0
  -29.6224  -18.0036   20.3877 C   0  0  0  0  0  0  0  0  0  0  0  0
  -25.0390  -13.6954   20.2706 C   0  0  0  0  0  0  0  0  0  0  0  0
  -22.6920  -13.2591   21.0119 C   0  0  0  0  0  0  0  0  0  0  0  0
  -23.2858  -28.0079   22.5551 C   0  0  0  0  0  0  0  0  0  0  0  0
  -23.3080  -24.9838   23.0696 C   0  0  0  0  0  0  0  0  0  0  0  0
  -23.5668  -21.5823   23.0811 C   0  0  0  0  0  0  0  0  0  0  0  0
  -30.2797  -15.5717   20.4009 C   0  0  0  0  0  0  0  0  0  0  0  0
  -18.2090  -28.3691   22.1640 C   0  0  0  0  0  0  0  0  0  0  0  0
  -25.4068  -27.6361   21.3182 C   0  0  0  0  0  0  0  0  0  0  0  0
  -25.6559  -25.8579   23.4988 C   0  0  0  0  0  0  0  0  0  0  0  0
  -19.1836  -27.5919   23.0452 C   0  0  0  0  0  0  0  0  0  0  0  0
  -29.6635  -12.6113   18.5211 C   0  0  0  0  0  0  0  0  0  0  0  0
  -20.2519  -28.5230   23.6096 C   0  0  0  0  0  0  0  0  0  0  0  0
  -28.2574  -12.1918   18.9560 C   0  0  0  0  0  0  0  0  0  0  0  0
  -30.4639  -13.2003   19.6812 C   0  0  0  0  0  0  0  0  0  0  0  0
  -28.3948  -13.8763   20.8350 C   0  0  0  0  0  0  0  0  0  0  0  0
  -21.0803  -29.1575   22.4859 C   0  0  1  0  0  0  0  0  0  0  0  0
  -24.1252  -26.9772   21.8591 C   0  0  1  0  0  0  0  0  0  0  0  0
  -27.5280  -13.3370   19.6855 C   0  0  2  0  0  0  0  0  0  0  0  0
  -22.3029  -19.5129   23.7272 C   0  0  0  0  0  0  0  0  0  0  0  0
  -30.1877  -22.3547   23.0650 C   0  0  0  0  0  0  0  0  0  0  0  0
  -29.8676  -22.8359   19.1684 C   0  0  0  0  0  0  0  0  0  0  0  0
  -31.9354  -22.5138   20.4859 C   0  0  0  0  0  0  0  0  0  0  0  0
  -23.9545  -25.5096   26.0039 C   0  0  0  0  0  0  0  0  0  0  0  0
  -23.5565  -23.0790   26.4536 C   0  0  0  0  0  0  0  0  0  0  0  0
  -21.7000  -24.5072   25.5953 C   0  0  0  0  0  0  0  0  0  0  0  0
  -23.5433  -20.5864   20.2943 C   0  0  0  0  0  0  0  0  0  0  0  0
  -23.5914  -23.8686   24.0439 C   0  0  1  0  0  0  0  0  0  0  0  0
  -22.6142  -20.4979   22.6111 C   0  0  2  0  0  0  0  0  0  0  0  0
  -29.7231  -22.8761   21.7049 C   0  0  2  0  0  0  0  0  0  1  0  0
  -30.4172  -22.1988   20.4735 C   0  0  0  0  0  0  0  0  0  0  0  0
  -23.2199  -24.2493   25.5049 C   0  0  0  0  0  0  0  0  0  0  0  0
  -30.9095  -18.4099   20.4648 N   0  0  0  0  0  0  0  0  0  0  0  0
  -25.9545  -11.6355   20.5284 N   0  0  0  0  0  0  0  0  0  0  0  0
  -26.1511  -12.9134   20.1616 N   0  0  0  0  0  0  0  0  0  0  0  0
  -24.3357  -25.9095   22.8515 N   0  0  0  0  0  0  0  0  0  0  0  0
  -29.7126  -14.2822   20.3215 N   0  0  0  0  0  0  0  0  0  0  0  0
  -25.0609  -15.0049   19.9435 N   0  0  0  0  0  0  0  0  0  0  0  0
  -21.8022  -12.2878   21.4908 N   0  0  0  0  0  0  0  0  0  0  0  0
  -29.3530  -16.6128   20.3587 N   0  0  0  0  0  0  0  0  0  0  0  0
  -22.0481  -28.2106   21.9750 N   0  0  0  0  0  0  0  0  0  0  0  0
  -22.8902  -22.6945   23.5356 N   0  0  0  0  0  0  0  0  0  0  0  0
  -23.2092  -19.7441   21.4715 N   0  3  0  0  0  0  0  0  0  0  0  0
  -22.2793  -14.4278   20.8190 O   0  0  0  0  0  0  0  0  0  0  0  0
  -23.7269  -28.5772   23.5466 O   0  0  0  0  0  0  0  0  0  0  0  0
  -22.2044  -25.0385   22.5199 O   0  0  0  0  0  0  0  0  0  0  0  0
  -24.7888  -21.4541   23.0517 O   0  0  0  0  0  0  0  0  0  0  0  0
  -31.4997  -15.7408   20.4715 O   0  0  0  0  0  0  0  0  0  0  0  0
  -22.3207   -6.8706   22.6825 O   0  0  0  0  0  0  0  0  0  0  0  0
  -29.9529  -24.2842   21.6743 O   0  0  0  0  0  0  0  0  0  1  0  0
  -19.1151   -7.1429   27.1606 F   0  0  0  0  0  0  0  0  0  0  0  0
  -22.9304   -5.4172   24.9538 F   0  0  0  0  0  0  0  0  0  0  0  0
  1  2  1  0  0  0  0
  1  5  2  0  0  0  0
  2  6  2  0  0  0  0
  3  9  2  0  0  0  0
  3 18  1  0  0  0  0
  4 10  1  0  0  0  0
  4 18  2  0  0  0  0
  5 20  1  0  0  0  0
  6 22  1  0  0  0  0
  7 11  2  0  0  0  0
  7 21  1  0  0  0  0
  8 14  2  0  0  0  0
  8 24  1  0  0  0  0
  9 25  1  0  0  0  0
 10 25  2  0  0  0  0
 11 26  1  0  0  0  0
 12 13  2  0  0  0  0
 12 27  1  0  0  0  0
 13 28  1  0  0  0  0
 14 31  1  0  0  0  0
 15 23  1  0  0  0  0
 15 26  2  0  0  0  0
 16 28  2  0  0  0  0
 16 29  1  0  0  0  0
 17 24  2  0  0  0  0
 17 63  1  0  0  0  0
 18 30  1  0  0  0  0
 19 30  1  0  0  0  0
 19 32  2  0  0  0  0
 19 33  1  0  0  0  0
 20 22  2  0  0  0  0
 20 38  1  0  0  0  0
 21 23  2  0  0  0  0
 21 39  1  0  0  0  0
 22 47  1  0  0  0  0
 23 40  1  0  0  0  0
 24 61  1  0  0  0  0
 25 79  1  0  0  0  0
 26 80  1  0  0  0  0
 27 29  2  0  0  0  0
 27 79  1  0  0  0  0
 28 81  1  0  0  0  0
 29 82  1  0  0  0  0
 30 64  2  0  0  0  0
 31 63  2  0  0  0  0
 31 70  1  0  0  0  0
 32 65  1  0  0  0  0
 32 68  1  0  0  0  0
 33 69  1  0  0  0  0
 33 74  2  0  0  0  0
 34 48  1  0  0  0  0
 34 71  1  0  0  0  0
 34 75  2  0  0  0  0
 35 58  1  0  0  0  0
 35 66  1  0  0  0  0
 35 76  2  0  0  0  0
 36 59  1  0  0  0  0
 36 72  1  0  0  0  0
 36 77  2  0  0  0  0
 37 67  1  0  0  0  0
 37 70  1  0  0  0  0
 37 78  2  0  0  0  0
 38 41  1  0  0  0  0
 39 48  1  0  0  0  0
 40 66  1  0  0  0  0
 41 43  1  0  0  0  0
 42 44  1  0  0  0  0
 42 45  1  0  0  0  0
 43 47  1  0  0  0  0
 44 49  1  0  0  0  0
 45 67  1  0  0  0  0
 46 49  1  0  0  0  0
 46 67  1  0  0  0  0
 47 71  1  0  0  0  0
 48 66  1  0  0  0  0
 49 65  1  0  0  0  0
 50 59  1  0  0  0  0
 51 60  1  0  0  0  0
 52 61  1  0  0  0  0
 53 61  1  0  0  0  0
 54 62  1  0  0  0  0
 55 62  1  0  0  0  0
 56 62  1  0  0  0  0
 57 73  1  0  0  0  0
 58 62  1  0  0  0  0
 58 72  1  0  0  0  0
 59 73  1  0  0  0  0
 60 61  1  0  0  0  0
 60 80  1  0  0  0  0
 64 65  1  0  0  0  0
M  CHG  1  73   1
M  ISO  4  37 100  60 101  70 100  80 101
M  END
> <Batch ID>
0117

> <Smiles>
CNC(C)C(=O)NC(C(=O)N1Cc2cc([101O:1][101CH:1](C)C(C)(C)c3ccc([100NH:0][100C:0](=O)N4CCCC(n5nc(-c6ccc(Oc7ccc(F)cc7F)cc6)c(C(N)=O)c5N)C4)nc3)ccc2CC1C(=O)NC1CCCc2ccccc21)C(C)(C)C

> <Shape>
0.265

> <Color>
0.171

> <Negative vol penalty>
0.000

$$$$

  -OEChem-04052320153D

 84 92  0     1  0  0  0  0  0999 V2000
  -31.2558  -23.5290   19.0403 C   0  0  0  0  0  0  0  0  0  0  0  0
  -30.0892  -23.0111   19.5937 C   0  0  0  0  0  0  0  0  0  0  0  0
  -25.2833  -29.9826   20.5716 C   0  0  0  0  0  0  0  0  0  0  0  0
  -23.7695  -28.6557   21.9075 C   0  0  0  0  0  0  0  0  0  0  0  0
  -32.0200  -22.7499   18.1726 C   0  0  0  0  0  0  0  0  0  0  0  0
  -29.6854  -21.7141   19.2787 C   0  0  0  0  0  0  0  0  0  0  0  0
  -26.8417  -17.7438   22.9741 C   0  0  0  0  0  0  0  0  0  0  0  0
  -24.9874  -31.1025   21.3485 C   0  0  0  0  0  0  0  0  0  0  0  0
  -23.4735  -29.7757   22.6845 C   0  0  0  0  0  0  0  0  0  0  0  0
  -25.5010  -17.3884   23.1149 C   0  0  0  0  0  0  0  0  0  0  0  0
  -24.9038  -34.2264   23.2058 C   0  0  0  0  0  0  0  0  0  0  0  0
  -25.9680  -35.0252   23.6240 C   0  0  0  0  0  0  0  0  0  0  0  0
  -25.8551  -15.4989   21.6576 C   0  0  0  0  0  0  0  0  0  0  0  0
  -26.9257  -33.1387   24.7905 C   0  0  0  0  0  0  0  0  0  0  0  0
  -24.6744  -28.7591   20.8511 C   0  0  0  0  0  0  0  0  0  0  0  0
  -26.2396  -27.0018   19.8664 C   0  0  0  0  0  0  0  0  0  0  0  0
  -31.6305  -21.4393   17.8543 C   0  0  0  0  0  0  0  0  0  0  0  0
  -27.6981  -16.9844   22.1638 C   0  0  0  0  0  0  0  0  0  0  0  0
  -30.4444  -20.9172   18.4048 C   0  0  0  0  0  0  0  0  0  0  0  0
  -27.2069  -15.8454   21.5101 C   0  0  0  0  0  0  0  0  0  0  0  0
  -24.0825  -30.9991   22.4050 C   0  0  0  0  0  0  0  0  0  0  0  0
  -25.0068  -16.2674   22.4543 C   0  0  0  0  0  0  0  0  0  0  0  0
  -24.8505  -32.8837   23.5801 C   0  0  0  0  0  0  0  0  0  0  0  0
  -26.9790  -34.4814   24.4163 C   0  0  0  0  0  0  0  0  0  0  0  0
  -25.8614  -32.3399   24.3724 C   0  0  0  0  0  0  0  0  0  0  0  0
  -24.9793  -27.6020   20.0485 C   0  0  0  0  0  0  0  0  0  0  0  0
  -25.9981  -25.9450   19.0231 C   0  0  0  0  0  0  0  0  0  0  0  0
  -18.1093  -20.1872   23.7838 C   0  0  0  0  0  0  0  0  0  0  0  0
  -19.3394  -20.3215   23.2768 C   0  0  0  0  0  0  0  0  0  0  0  0
  -27.5147  -27.3670   20.4109 C   0  0  0  0  0  0  0  0  0  0  0  0
  -29.4018  -17.5600   19.5428 C   0  0  0  0  0  0  0  0  0  0  0  0
  -30.5102  -14.5583   20.0750 C   0  0  0  0  0  0  0  0  0  0  0  0
  -30.0036  -11.4893   21.4792 C   0  0  0  0  0  0  0  0  0  0  0  0
  -21.1141  -22.6759   17.8782 C   0  0  0  0  0  0  0  0  0  0  0  0
  -32.4639  -20.6521   16.8743 C   0  0  0  0  0  0  0  0  0  0  0  0
  -29.1481  -17.3658   22.0436 C   0  0  0  0  0  0  0  0  0  0  0  0
  -28.0898  -14.9851   20.6448 C   0  0  0  0  0  0  0  0  0  0  0  0
  -32.1653  -19.1551   16.8856 C   0  0  0  0  0  0  0  0  0  0  0  0
  -23.0415  -24.5382   15.5344 C   0  0  0  0  0  0  0  0  0  0  0  0
  -30.6598  -18.9108   16.8642 C   0  0  0  0  0  0  0  0  0  0  0  0
  -23.8704  -25.4804   16.4091 C   0  0  0  0  0  0  0  0  0  0  0  0
  -20.2489  -21.3155   21.2105 C   0  0  0  0  0  0  0  0  0  0  0  0
  -21.6788  -19.9680   19.6429 C   0  0  0  0  0  0  0  0  0  0  0  0
  -21.6415  -24.3236   16.1053 C   0  0  0  0  0  0  0  0  0  0  0  0
  -22.4364  -24.8186   18.3850 C   0  0  0  0  0  0  0  0  0  0  0  0
  -29.9866  -19.5060   18.1068 C   0  0  1  0  0  0  0  0  0  0  0  0
  -19.6943  -20.0341   21.8491 C   0  0  1  0  0  0  0  0  0  0  0  0
  -29.8081  -16.8155   20.7831 C   0  0  1  0  0  0  0  0  0  0  0  0
  -23.8750  -25.0215   17.8797 C   0  0  2  0  0  0  0  0  0  0  0  0
  -20.6761  -21.1146   19.7570 C   0  0  2  0  0  0  0  0  0  0  0  0
  -21.1510  -18.6594   20.2379 C   0  0  2  0  0  0  0  0  0  0  0  0
  -20.0290  -18.0388   19.4058 C   0  0  0  0  0  0  0  0  0  0  0  0
  -31.0692   -9.2293   21.7119 C   0  0  0  0  0  0  0  0  0  0  0  0
  -29.7160  -13.8910   17.2055 C   0  0  0  0  0  0  0  0  0  0  0  0
  -29.9062  -11.4643   17.7909 C   0  0  0  0  0  0  0  0  0  0  0  0
  -31.9130  -12.9395   17.9279 C   0  0  0  0  0  0  0  0  0  0  0  0
  -30.1335  -11.7256   24.4264 C   0  0  0  0  0  0  0  0  0  0  0  0
  -20.3326  -17.6356   22.3936 C   0  0  0  0  0  0  0  0  0  0  0  0
  -22.7653  -16.9737   22.8192 C   0  0  0  0  0  0  0  0  0  1  0  0
  -30.0838  -13.1715   19.6576 C   0  0  1  0  0  0  0  0  0  0  0  0
  -30.9029  -10.6094   22.3286 C   0  0  2  0  0  0  0  0  0  0  0  0
  -21.4145  -16.5705   22.2368 C   0  0  1  0  0  0  0  0  0  0  0  0
  -30.3874  -12.8837   18.1602 C   0  0  0  0  0  0  0  0  0  0  0  0
  -24.0091  -26.9783   19.3749 N   0  0  0  0  0  0  0  0  0  0  0  0
  -24.6599  -25.9753   18.7613 N   0  0  0  0  0  0  0  0  0  0  0  0
  -29.4986  -15.4028   20.5537 N   0  0  0  0  0  0  0  0  0  0  0  0
  -21.7162  -23.8878   17.5019 N   0  0  0  0  0  0  0  0  0  0  0  0
  -26.8019  -25.0020   18.4873 N   0  0  0  0  0  0  0  0  0  0  0  0
  -27.5847  -28.4800   21.2599 N   0  0  0  0  0  0  0  0  0  0  0  0
  -30.1993  -18.6513   19.2551 N   0  0  0  0  0  0  0  0  0  0  0  0
  -30.7288  -12.2494   20.5861 N   0  0  0  0  0  0  0  0  0  0  0  0
  -21.2371  -22.3341   19.2194 N   0  0  0  0  0  0  0  0  0  0  0  0
  -20.7221  -18.9113   21.6810 N   0  3  2  0  0  0  0  0  0  0  0  0
  -30.3290  -10.4478   23.6944 N   0  3  0  0  0  0  0  0  0  0  0  0
  -28.5638  -26.7352   20.1391 O   0  0  0  0  0  0  0  0  0  0  0  0
  -28.4372  -17.1723   18.8941 O   0  0  0  0  0  0  0  0  0  0  0  0
  -31.6983  -14.8779   19.9864 O   0  0  0  0  0  0  0  0  0  0  0  0
  -28.7799  -11.4985   21.5938 O   0  0  0  0  0  0  0  0  0  0  0  0
  -20.5160  -21.9495   17.0772 O   0  0  0  0  0  0  0  0  0  0  0  0
  -20.9910  -15.3629   22.8714 O   0  0  0  0  0  0  0  0  0  0  0  0
  -23.7936  -32.0917   23.1635 O   0  0  0  0  0  0  0  0  0  0  0  0
  -23.6984  -15.9186   22.5896 O   0  0  0  0  0  0  0  0  0  1  0  0
  -28.0017  -35.2482   24.8165 F   0  0  0  0  0  0  0  0  0  0  0  0
  -25.8163  -31.0503   24.7341 F   0  0  0  0  0  0  0  0  0  0  0  0
  1  2  1  0  0  0  0
  1  5  2  0  0  0  0
  2  6  2  0  0  0  0
  3  8  2  0  0  0  0
  3 15  1  0  0  0  0
  4  9  1  0  0  0  0
  4 15  2  0  0  0  0
  5 17  1  0  0  0  0
  6 19  1  0  0  0  0
  7 10  2  0  0  0  0
  7 18  1  0  0  0  0
  8 21  1  0  0  0  0
  9 21  2  0  0  0  0
 10 22  1  0  0  0  0
 11 12  2  0  0  0  0
 11 23  1  0  0  0  0
 12 24  1  0  0  0  0
 13 20  1  0  0  0  0
 13 22  2  0  0  0  0
 14 24  2  0  0  0  0
 14 25  1  0  0  0  0
 15 26  1  0  0  0  0
 16 26  1  0  0  0  0
 16 27  2  0  0  0  0
 16 30  1  0  0  0  0
 17 19  2  0  0  0  0
 17 35  1  0  0  0  0
 18 20  2  0  0  0  0
 18 36  1  0  0  0  0
 19 46  1  0  0  0  0
 20 37  1  0  0  0  0
 21 81  1  0  0  0  0
 22 82  1  0  0  0  0
 23 25  2  0  0  0  0
 23 81  1  0  0  0  0
 24 83  1  0  0  0  0
 25 84  1  0  0  0  0
 26 64  2  0  0  0  0
 27 65  1  0  0  0  0
 27 68  1  0  0  0  0
 28 29  2  0  0  0  0
 29 47  1  0  0  0  0
 30 69  1  0  0  0  0
 30 75  2  0  0  0  0
 31 48  1  0  0  0  0
 31 70  1  0  0  0  0
 31 76  2  0  0  0  0
 32 60  1  0  0  0  0
 32 66  1  0  0  0  0
 32 77  2  0  0  0  0
 33 61  1  0  0  0  0
 33 71  1  0  0  0  0
 33 78  2  0  0  0  0
 34 67  1  0  0  0  0
 34 72  1  0  0  0  0
 34 79  2  0  0  0  0
 35 38  1  0  0  0  0
 36 48  1  0  0  0  0
 37 66  1  0  0  0  0
 38 40  1  0  0  0  0
 39 41  1  0  0  0  0
 39 44  1  0  0  0  0
 40 46  1  0  0  0  0
 41 49  1  0  0  0  0
 42 47  1  0  0  0  0
 42 50  1  0  0  0  0
 43 50  1  0  0  0  0
 43 51  1  0  0  0  0
 44 67  1  0  0  0  0
 45 49  1  0  0  0  0
 45 67  1  0  0  0  0
 46 70  1  0  0  0  0
 47 73  1  0  0  0  0
 48 66  1  0  0  0  0
 49 65  1  0  0  0  0
 50 72  1  0  0  0  0
 51 52  1  0  0  0  0
 51 73  1  0  0  0  0
 53 61  1  0  0  0  0
 54 63  1  0  0  0  0
 55 63  1  0  0  0  0
 56 63  1  0  0  0  0
 57 74  1  0  0  0  0
 58 62  1  0  0  0  0
 58 73  1  0  0  0  0
 59 62  1  0  0  0  0
 59 82  1  0  0  0  0
 60 63  1  0  0  0  0
 60 71  1  0  0  0  0
 61 74  1  0  0  0  0
 62 80  1  0  0  0  0
 64 65  1  0  0  0  0
M  CHG  2  73   1  74   1
M  ISO  4  34 100  59 101  72 100  82 101
M  END
> <Batch ID>
0117

> <Smiles>
C=CC1CC([100NH:0][100C:0](=O)N2CCCC(n3nc(-c4ccc(Oc5ccc(F)cc5F)cc4)c(C(N)=O)c3N)C2)CC(C)N1CC(O)[101CH2:1][101O:1]c1ccc2c(c1)CN(C(=O)C(NC(=O)C(C)NC)C(C)(C)C)C(C(=O)NC1CCCc3ccccc31)C2

> <Shape>
0.221

> <Color>
0.056

> <Negative vol penalty>
0.000

$$$$

  -OEChem-04052320153D

 81 89  0     1  0  0  0  0  0999 V2000
  -22.3863  -28.6590   14.8013 C   0  0  0  0  0  0  0  0  0  0  0  0
  -23.5192  -28.2499   15.4974 C   0  0  0  0  0  0  0  0  0  0  0  0
  -24.0689   -9.7664   21.1124 C   0  0  0  0  0  0  0  0  0  0  0  0
  -25.6123  -10.2239   22.9140 C   0  0  0  0  0  0  0  0  0  0  0  0
  -21.7702  -29.8675   15.1234 C   0  0  0  0  0  0  0  0  0  0  0  0
  -24.0374  -29.0497   16.5153 C   0  0  0  0  0  0  0  0  0  0  0  0
  -25.2666  -26.3866   20.6435 C   0  0  0  0  0  0  0  0  0  0  0  0
  -23.8281   -8.4981   21.6408 C   0  0  0  0  0  0  0  0  0  0  0  0
  -25.3714   -8.9557   23.4424 C   0  0  0  0  0  0  0  0  0  0  0  0
  -26.4626  -25.6711   20.6069 C   0  0  0  0  0  0  0  0  0  0  0  0
  -22.0031   -7.1495   24.1475 C   0  0  0  0  0  0  0  0  0  0  0  0
  -20.6784   -6.7193   24.2225 C   0  0  0  0  0  0  0  0  0  0  0  0
  -27.5419  -27.4221   21.8671 C   0  0  0  0  0  0  0  0  0  0  0  0
  -21.2059   -4.8452   22.7919 C   0  0  0  0  0  0  0  0  0  0  0  0
  -24.9611  -10.6292   21.7490 C   0  0  0  0  0  0  0  0  0  0  0  0
  -24.2711  -12.9666   20.9952 C   0  0  0  0  0  0  0  0  0  0  0  0
  -22.2755  -30.6780   16.1522 C   0  0  0  0  0  0  0  0  0  0  0  0
  -25.2019  -27.6325   21.2839 C   0  0  0  0  0  0  0  0  0  0  0  0
  -23.4283  -30.2709   16.8506 C   0  0  0  0  0  0  0  0  0  0  0  0
  -26.3432  -28.1503   21.9127 C   0  0  0  0  0  0  0  0  0  0  0  0
  -24.4793   -8.0928   22.8058 C   0  0  0  0  0  0  0  0  0  0  0  0
  -27.6012  -26.1901   21.2162 C   0  0  0  0  0  0  0  0  0  0  0  0
  -22.9293   -6.4275   23.3946 C   0  0  0  0  0  0  0  0  0  0  0  0
  -20.2798   -5.5672   23.5447 C   0  0  0  0  0  0  0  0  0  0  0  0
  -22.5307   -5.2754   22.7169 C   0  0  0  0  0  0  0  0  0  0  0  0
  -25.2107  -11.9392   21.2033 C   0  0  0  0  0  0  0  0  0  0  0  0
  -25.0035  -13.9988   20.4617 C   0  0  0  0  0  0  0  0  0  0  0  0
  -22.8622  -12.9863   21.2605 C   0  0  0  0  0  0  0  0  0  0  0  0
  -24.5610  -30.6031   20.3519 C   0  0  0  0  0  0  0  0  0  0  0  0
  -24.7423  -31.2240   23.5306 C   0  0  0  0  0  0  0  0  0  0  0  0
  -25.9406  -30.3199   26.5955 C   0  0  0  0  0  0  0  0  0  0  0  0
  -29.5575  -17.2245   20.4250 C   0  0  0  0  0  0  0  0  0  0  0  0
  -21.6030  -31.9986   16.4327 C   0  0  0  0  0  0  0  0  0  0  0  0
  -23.8975  -28.3796   21.3377 C   0  0  0  0  0  0  0  0  0  0  0  0
  -26.3213  -29.4741   22.6308 C   0  0  0  0  0  0  0  0  0  0  0  0
  -21.9954  -32.6088   17.7758 C   0  0  0  0  0  0  0  0  0  0  0  0
  -29.7485  -14.1088   18.7126 C   0  0  0  0  0  0  0  0  0  0  0  0
  -23.5075  -32.5494   17.9678 C   0  0  0  0  0  0  0  0  0  0  0  0
  -30.0762  -21.9715   21.1186 C   0  0  0  0  0  0  0  0  0  0  0  0
  -27.9126  -22.0427   22.4261 C   0  0  0  0  0  0  0  0  0  0  0  0
  -28.5114  -13.3496   19.1954 C   0  0  0  0  0  0  0  0  0  0  0  0
  -30.0881  -23.4961   21.0625 C   0  0  0  0  0  0  0  0  0  0  0  0
  -27.9301  -23.5672   22.3658 C   0  0  0  0  0  0  0  0  0  0  0  0
  -30.3589  -14.9587   19.8248 C   0  0  0  0  0  0  0  0  0  0  0  0
  -28.1814  -15.1247   20.9671 C   0  0  0  0  0  0  0  0  0  0  0  0
  -24.0058  -31.0992   17.9778 C   0  0  1  0  0  0  0  0  0  0  0  0
  -24.0754  -29.8762   21.5740 C   0  0  1  0  0  0  0  0  0  0  0  0
  -29.3300  -21.4575   22.3577 C   0  0  0  0  0  0  0  0  0  0  0  0
  -27.4980  -14.2971   19.8652 C   0  0  2  0  0  0  0  0  0  0  0  0
  -28.6774  -24.0744   21.1342 C   0  0  0  0  0  0  0  0  0  1  0  0
  -25.9521  -31.0442   28.9981 C   0  0  0  0  0  0  0  0  0  0  0  0
  -28.5735  -19.4347   23.6273 C   0  0  0  0  0  0  0  0  0  0  0  0
  -26.7743  -33.3998   22.8625 C   0  0  0  0  0  0  0  0  0  0  0  0
  -27.4391  -33.4228   25.2762 C   0  0  0  0  0  0  0  0  0  0  0  0
  -25.1104  -34.0305   24.6198 C   0  0  0  0  0  0  0  0  0  0  0  0
  -24.6077  -27.8278   27.4738 C   0  0  0  0  0  0  0  0  0  0  0  0
  -28.6152  -19.4259   21.0768 C   0  0  0  0  0  0  0  0  0  0  0  0
  -25.8469  -31.6158   24.4821 C   0  0  1  0  0  0  0  0  0  0  0  0
  -25.2592  -30.1924   27.9459 C   0  0  2  0  0  0  0  0  0  0  0  0
  -29.2839  -19.9306   22.3646 C   0  0  1  0  0  0  0  0  0  0  0  0
  -26.2939  -33.0932   24.2950 C   0  0  0  0  0  0  0  0  0  0  0  0
  -26.4457  -12.2870   20.8321 N   0  0  0  0  0  0  0  0  0  0  0  0
  -26.2872  -13.5445   20.3853 N   0  0  0  0  0  0  0  0  0  0  0  0
  -25.0239  -30.1696   22.6504 N   0  0  0  0  0  0  0  0  0  0  0  0
  -29.3462  -15.8359   20.4171 N   0  0  0  0  0  0  0  0  0  0  0  0
  -24.6682  -15.2417   20.0550 N   0  0  0  0  0  0  0  0  0  0  0  0
  -22.2698  -11.8411   21.8100 N   0  0  0  0  0  0  0  0  0  0  0  0
  -23.7291  -30.4785   19.2556 N   0  0  0  0  0  0  0  0  0  0  0  0
  -25.3614  -31.3035   25.8219 N   0  0  0  0  0  0  0  0  0  0  0  0
  -28.5456  -17.9837   20.9998 N   0  0  0  0  0  0  0  0  0  0  0  0
  -25.2768  -28.7741   28.4032 N   0  3  0  0  0  0  0  0  0  0  0  0
  -22.1469  -13.9838   21.0023 O   0  0  0  0  0  0  0  0  0  0  0  0
  -25.6118  -31.2317   20.4005 O   0  0  0  0  0  0  0  0  0  0  0  0
  -23.6666  -31.8264   23.5718 O   0  0  0  0  0  0  0  0  0  0  0  0
  -26.8940  -29.6198   26.2617 O   0  0  0  0  0  0  0  0  0  0  0  0
  -30.5704  -17.7493   19.9499 O   0  0  0  0  0  0  0  0  0  0  0  0
  -30.6382  -19.4723   22.3943 O   0  0  0  0  0  0  0  0  0  0  0  0
  -24.2443   -6.8554   23.3218 O   0  0  0  0  0  0  0  0  0  0  0  0
  -28.7700  -25.4940   21.1813 O   0  0  0  0  0  0  0  0  0  1  0  0
  -19.0080   -5.1534   23.6180 F   0  0  0  0  0  0  0  0  0  0  0  0
  -23.4162   -4.5770   21.9930 F   0  0  0  0  0  0  0  0  0  0  0  0
  1  2  1  0  0  0  0
  1  5  2  0  0  0  0
  2  6  2  0  0  0  0
  3  8  2  0  0  0  0
  3 15  1  0  0  0  0
  4  9  1  0  0  0  0
  4 15  2  0  0  0  0
  5 17  1  0  0  0  0
  6 19  1  0  0  0  0
  7 10  2  0  0  0  0
  7 18  1  0  0  0  0
  8 21  1  0  0  0  0
  9 21  2  0  0  0  0
 10 22  1  0  0  0  0
 11 12  2  0  0  0  0
 11 23  1  0  0  0  0
 12 24  1  0  0  0  0
 13 20  1  0  0  0  0
 13 22  2  0  0  0  0
 14 24  2  0  0  0  0
 14 25  1  0  0  0  0
 15 26  1  0  0  0  0
 16 26  1  0  0  0  0
 16 27  2  0  0  0  0
 16 28  1  0  0  0  0
 17 19  2  0  0  0  0
 17 33  1  0  0  0  0
 18 20  2  0  0  0  0
 18 34  1  0  0  0  0
 19 46  1  0  0  0  0
 20 35  1  0  0  0  0
 21 78  1  0  0  0  0
 22 79  1  0  0  0  0
 23 25  2  0  0  0  0
 23 78  1  0  0  0  0
 24 80  1  0  0  0  0
 25 81  1  0  0  0  0
 26 62  2  0  0  0  0
 27 63  1  0  0  0  0
 27 66  1  0  0  0  0
 28 67  1  0  0  0  0
 28 72  2  0  0  0  0
 29 47  1  0  0  0  0
 29 68  1  0  0  0  0
 29 73  2  0  0  0  0
 30 58  1  0  0  0  0
 30 64  1  0  0  0  0
 30 74  2  0  0  0  0
 31 59  1  0  0  0  0
 31 69  1  0  0  0  0
 31 75  2  0  0  0  0
 32 65  1  0  0  0  0
 32 70  1  0  0  0  0
 32 76  2  0  0  0  0
 33 36  1  0  0  0  0
 34 47  1  0  0  0  0
 35 64  1  0  0  0  0
 36 38  1  0  0  0  0
 37 41  1  0  0  0  0
 37 44  1  0  0  0  0
 38 46  1  0  0  0  0
 39 42  1  0  0  0  0
 39 48  1  0  0  0  0
 40 43  1  0  0  0  0
 40 48  1  0  0  0  0
 41 49  1  0  0  0  0
 42 50  1  0  0  0  0
 43 50  1  0  0  0  0
 44 65  1  0  0  0  0
 45 49  1  0  0  0  0
 45 65  1  0  0  0  0
 46 68  1  0  0  0  0
 47 64  1  0  0  0  0
 48 60  1  0  0  0  0
 49 63  1  0  0  0  0
 50 79  1  0  0  0  0
 51 59  1  0  0  0  0
 52 60  1  0  0  0  0
 53 61  1  0  0  0  0
 54 61  1  0  0  0  0
 55 61  1  0  0  0  0
 56 71  1  0  0  0  0
 57 60  1  0  0  0  0
 57 70  1  0  0  0  0
 58 61  1  0  0  0  0
 58 69  1  0  0  0  0
 59 71  1  0  0  0  0
 60 77  1  0  0  0  0
 62 63  1  0  0  0  0
M  CHG  1  71   1
M  ISO  4  32 100  50 101  70 100  79 101
M  END
> <Batch ID>
0117

> <Smiles>
CNC(C)C(=O)NC(C(=O)N1Cc2cc([101O:1][101CH:1]3CCC(C(C)(O)C[100NH:0][100C:0](=O)N4CCCC(n5nc(-c6ccc(Oc7ccc(F)cc7F)cc6)c(C(N)=O)c5N)C4)CC3)ccc2CC1C(=O)NC1CCCc2ccccc21)C(C)(C)C

> <Shape>
0.291

> <Color>
0.118

> <Negative vol penalty>
0.000

$$$$

  -OEChem-04052320153D

 94102  0     1  0  0  0  0  0999 V2000
  -26.1413  -30.2784   20.5306 C   0  0  0  0  0  0  0  0  0  0  0  0
  -26.0735  -28.9231   20.8369 C   0  0  0  0  0  0  0  0  0  0  0  0
  -31.0739  -20.9885   20.2750 C   0  0  0  0  0  0  0  0  0  0  0  0
  -28.6719  -20.8191   20.0781 C   0  0  0  0  0  0  0  0  0  0  0  0
  -25.0061  -31.0781   20.6564 C   0  0  0  0  0  0  0  0  0  0  0  0
  -24.8705  -28.3668   21.2702 C   0  0  0  0  0  0  0  0  0  0  0  0
  -22.7843  -22.7311   20.0902 C   0  0  0  0  0  0  0  0  0  0  0  0
  -31.0175  -22.3086   19.8281 C   0  0  0  0  0  0  0  0  0  0  0  0
  -28.6155  -22.1393   19.6312 C   0  0  0  0  0  0  0  0  0  0  0  0
  -22.8010  -21.5504   20.8314 C   0  0  0  0  0  0  0  0  0  0  0  0
  -30.2479  -25.3415   21.1096 C   0  0  0  0  0  0  0  0  0  0  0  0
  -31.0013  -26.2919   21.7986 C   0  0  0  0  0  0  0  0  0  0  0  0
  -20.5671  -22.0168   21.6133 C   0  0  0  0  0  0  0  0  0  0  0  0
  -32.2231  -26.7906   19.7747 C   0  0  0  0  0  0  0  0  0  0  0  0
  -29.9011  -20.2437   20.3999 C   0  0  0  0  0  0  0  0  0  0  0  0
  -29.8814  -18.4285   22.1922 C   0  0  0  0  0  0  0  0  0  0  0  0
  -23.7862  -30.5293   21.0822 C   0  0  0  0  0  0  0  0  0  0  0  0
  -21.6611  -23.5703   20.1136 C   0  0  0  0  0  0  0  0  0  0  0  0
  -23.7182  -29.1601   21.4031 C   0  0  0  0  0  0  0  0  0  0  0  0
  -20.5376  -23.2063   20.8695 C   0  0  0  0  0  0  0  0  0  0  0  0
  -29.7883  -22.8840   19.5062 C   0  0  0  0  0  0  0  0  0  0  0  0
  -21.6934  -21.1945   21.5955 C   0  0  0  0  0  0  0  0  0  0  0  0
  -30.4822  -25.1156   19.7531 C   0  0  0  0  0  0  0  0  0  0  0  0
  -31.9889  -27.0165   21.1312 C   0  0  0  0  0  0  0  0  0  0  0  0
  -31.4697  -25.8401   19.0858 C   0  0  0  0  0  0  0  0  0  0  0  0
  -29.9589  -18.8798   20.8610 C   0  0  0  0  0  0  0  0  0  0  0  0
  -29.9846  -17.0621   22.0980 C   0  0  0  0  0  0  0  0  0  0  0  0
  -29.7296  -19.1774   23.4054 C   0  0  0  0  0  0  0  0  0  0  0  0
  -22.8474   -9.7068   22.8243 C   0  0  0  0  0  0  0  0  0  0  0  0
  -21.1158  -26.5628   21.0365 C   0  0  0  0  0  0  0  0  0  0  0  0
  -18.1859  -26.0105   19.7588 C   0  0  0  0  0  0  0  0  0  0  0  0
  -15.7982  -23.7446   18.8581 C   0  0  0  0  0  0  0  0  0  0  0  0
  -28.6071  -12.2339   19.6617 C   0  0  0  0  0  0  0  0  0  0  0  0
  -22.5978  -31.4430   21.2482 C   0  0  0  0  0  0  0  0  0  0  0  0
  -21.6486  -24.8271   19.2873 C   0  0  0  0  0  0  0  0  0  0  0  0
  -19.2993  -24.0625   20.9124 C   0  0  0  0  0  0  0  0  0  0  0  0
  -21.2686  -30.7000   21.3548 C   0  0  0  0  0  0  0  0  0  0  0  0
  -31.2413  -14.1175   18.1818 C   0  0  0  0  0  0  0  0  0  0  0  0
  -21.3853  -29.5345   22.3320 C   0  0  0  0  0  0  0  0  0  0  0  0
  -24.0850   -9.0913   20.7731 C   0  0  0  0  0  0  0  0  0  0  0  0
  -25.5174   -9.3813   21.2225 C   0  0  0  0  0  0  0  0  0  0  0  0
  -31.1319  -15.4883   18.8519 C   0  0  0  0  0  0  0  0  0  0  0  0
  -24.9146  -11.8035   21.6255 C   0  0  0  0  0  0  0  0  0  0  0  0
  -29.8674  -13.4953   17.9421 C   0  0  0  0  0  0  0  0  0  0  0  0
  -28.8994  -14.7813   19.8084 C   0  0  0  0  0  0  0  0  0  0  0  0
  -22.4253  -28.5147   21.8526 C   0  0  1  0  0  0  0  0  0  0  0  0
  -23.0621  -10.0579   21.3783 C   0  0  2  0  0  0  0  0  0  0  0  0
  -20.6489  -25.8636   19.7912 C   0  0  1  0  0  0  0  0  0  0  0  0
  -25.9120  -10.8403   20.9679 C   0  0  1  0  0  0  0  0  0  0  0  0
  -23.4735  -11.5269   21.1700 C   0  0  1  0  0  0  0  0  0  0  0  0
  -30.2615  -15.4240   20.1214 C   0  0  2  0  0  0  0  0  0  0  0  0
  -19.2323  -11.9752   19.7111 C   0  0  0  0  0  0  0  0  0  0  0  0
  -13.4943  -23.5964   17.8745 C   0  0  0  0  0  0  0  0  0  0  0  0
  -22.0597  -14.9457   23.6877 C   0  0  0  0  0  0  0  0  0  0  0  0
  -21.1128   -6.7823   24.2328 C   0  0  0  0  0  0  0  0  0  0  0  0
  -20.4118   -9.1084   24.8991 C   0  0  0  0  0  0  0  0  0  0  0  0
  -16.9941  -26.9049   22.4215 C   0  0  0  0  0  0  0  0  0  0  0  0
  -14.8307  -25.8537   21.7268 C   0  0  0  0  0  0  0  0  0  0  0  0
  -15.7801  -27.7418   20.4016 C   0  0  0  0  0  0  0  0  0  0  0  0
  -16.7617  -22.1720   16.5434 C   0  0  0  0  0  0  0  0  0  0  0  0
  -27.3303  -11.1095   21.4685 C   0  0  0  0  0  0  0  0  0  0  0  0
  -20.7028  -12.2723   19.9673 C   0  0  0  0  0  0  0  0  0  0  0  0
  -21.8692  -17.6452   22.2566 C   0  0  0  0  0  0  0  0  0  0  0  0
  -21.0360  -12.1749   21.4586 C   0  0  0  0  0  0  0  0  0  0  0  0
  -22.6576  -16.4480   21.7229 C   0  0  0  0  0  0  0  0  0  0  0  0
  -22.9244  -13.9567   21.5073 C   0  0  0  0  0  0  0  0  0  0  0  0
  -22.4896  -18.9642   21.8140 C   0  0  0  0  0  0  0  0  0  1  0  0
  -16.8773  -25.4674   20.2801 C   0  0  1  0  0  0  0  0  0  0  0  0
  -14.9871  -23.5884   17.5845 C   0  0  2  0  0  0  0  0  0  0  0  0
  -22.4960  -12.5084   21.8287 C   0  0  2  0  0  0  0  0  0  0  0  0
  -22.0870  -15.0803   22.1624 C   0  0  1  0  0  0  0  0  0  0  0  0
  -21.5313   -8.2414   24.3418 C   0  0  0  0  0  0  0  0  0  0  0  0
  -16.1445  -26.4766   21.2084 C   0  0  0  0  0  0  0  0  0  0  0  0
  -30.1005  -17.8812   19.9854 N   0  0  0  0  0  0  0  0  0  0  0  0
  -30.1130  -16.7888   20.7680 N   0  0  0  0  0  0  0  0  0  0  0  0
  -19.3381  -25.2847   20.0925 N   0  0  0  0  0  0  0  0  0  0  0  0
  -29.0931  -13.4626   19.1852 N   0  0  0  0  0  0  0  0  0  0  0  0
  -29.9773  -16.0798   23.0240 N   0  0  0  0  0  0  0  0  0  0  0  0
  -29.6387  -20.5735   23.3218 N   0  0  0  0  0  0  0  0  0  0  0  0
  -21.8763  -27.6913   20.7966 N   0  0  0  0  0  0  0  0  0  0  0  0
  -21.8925   -8.7295   23.0302 N   0  0  0  0  0  0  0  0  0  0  0  0
  -16.1067  -25.0650   19.1085 N   0  0  0  0  0  0  0  0  0  0  0  0
  -27.8886  -12.2910   20.8496 N   0  0  0  0  0  0  0  0  0  0  0  0
  -15.3276  -22.3050   16.9077 N   0  3  0  0  0  0  0  0  0  0  0  0
  -29.6926  -18.6260   24.5315 O   0  0  0  0  0  0  0  0  0  0  0  0
  -23.5010  -10.2794   23.6884 O   0  0  0  0  0  0  0  0  0  0  0  0
  -20.8076  -26.1126   22.1338 O   0  0  0  0  0  0  0  0  0  0  0  0
  -18.1849  -27.0369   19.0746 O   0  0  0  0  0  0  0  0  0  0  0  0
  -16.1222  -22.7910   19.5626 O   0  0  0  0  0  0  0  0  0  0  0  0
  -28.8039  -11.1643   19.0748 O   0  0  0  0  0  0  0  0  0  0  0  0
  -29.7328  -24.1722   19.0703 O   0  0  0  0  0  0  0  0  0  0  0  0
  -21.7074  -20.0345   22.3257 O   0  0  0  0  0  0  0  0  0  1  0  0
  -32.7112  -27.9302   21.7926 F   0  0  0  0  0  0  0  0  0  0  0  0
  -31.6985  -25.6283   17.7824 F   0  0  0  0  0  0  0  0  0  0  0  0
  1  2  1  0  0  0  0
  1  5  2  0  0  0  0
  2  6  2  0  0  0  0
  3  8  2  0  0  0  0
  3 15  1  0  0  0  0
  4  9  1  0  0  0  0
  4 15  2  0  0  0  0
  5 17  1  0  0  0  0
  6 19  1  0  0  0  0
  7 10  2  0  0  0  0
  7 18  1  0  0  0  0
  8 21  1  0  0  0  0
  9 21  2  0  0  0  0
 10 22  1  0  0  0  0
 11 12  2  0  0  0  0
 11 23  1  0  0  0  0
 12 24  1  0  0  0  0
 13 20  1  0  0  0  0
 13 22  2  0  0  0  0
 14 24  2  0  0  0  0
 14 25  1  0  0  0  0
 15 26  1  0  0  0  0
 16 26  1  0  0  0  0
 16 27  2  0  0  0  0
 16 28  1  0  0  0  0
 17 19  2  0  0  0  0
 17 34  1  0  0  0  0
 18 20  2  0  0  0  0
 18 35  1  0  0  0  0
 19 46  1  0  0  0  0
 20 36  1  0  0  0  0
 21 91  1  0  0  0  0
 22 92  1  0  0  0  0
 23 25  2  0  0  0  0
 23 91  1  0  0  0  0
 24 93  1  0  0  0  0
 25 94  1  0  0  0  0
 26 74  2  0  0  0  0
 27 75  1  0  0  0  0
 27 78  1  0  0  0  0
 28 79  1  0  0  0  0
 28 85  2  0  0  0  0
 29 47  1  0  0  0  0
 29 81  1  0  0  0  0
 29 86  2  0  0  0  0
 30 48  1  0  0  0  0
 30 80  1  0  0  0  0
 30 87  2  0  0  0  0
 31 68  1  0  0  0  0
 31 76  1  0  0  0  0
 31 88  2  0  0  0  0
 32 69  1  0  0  0  0
 32 82  1  0  0  0  0
 32 89  2  0  0  0  0
 33 77  1  0  0  0  0
 33 83  1  0  0  0  0
 33 90  2  0  0  0  0
 34 37  1  0  0  0  0
 35 48  1  0  0  0  0
 36 76  1  0  0  0  0
 37 39  1  0  0  0  0
 38 42  1  0  0  0  0
 38 44  1  0  0  0  0
 39 46  1  0  0  0  0
 40 41  1  0  0  0  0
 40 47  1  0  0  0  0
 41 49  1  0  0  0  0
 42 51  1  0  0  0  0
 43 49  1  0  0  0  0
 43 50  1  0  0  0  0
 44 77  1  0  0  0  0
 45 51  1  0  0  0  0
 45 77  1  0  0  0  0
 46 80  1  0  0  0  0
 47 50  1  0  0  0  0
 48 76  1  0  0  0  0
 49 61  1  0  0  0  0
 50 70  1  0  0  0  0
 51 75  1  0  0  0  0
 52 62  1  0  0  0  0
 53 69  1  0  0  0  0
 54 71  1  0  0  0  0
 55 72  1  0  0  0  0
 56 72  1  0  0  0  0
 57 73  1  0  0  0  0
 58 73  1  0  0  0  0
 59 73  1  0  0  0  0
 60 84  1  0  0  0  0
 61 83  1  0  0  0  0
 62 64  1  0  0  0  0
 63 65  1  0  0  0  0
 63 67  1  0  0  0  0
 64 70  1  0  0  0  0
 65 71  1  0  0  0  0
 66 70  1  0  0  0  0
 66 71  1  0  0  0  0
 67 92  1  0  0  0  0
 68 73  1  0  0  0  0
 68 82  1  0  0  0  0
 69 84  1  0  0  0  0
 72 81  1  0  0  0  0
 74 75  1  0  0  0  0
M  CHG  1  84   1
M  ISO  4  33 100  67 101  83 100  92 101
M  END
> <Batch ID>
0117

> <Smiles>
CCCC(CC(C)CC[101CH2:1][101O:1]c1ccc2c(c1)CN(C(=O)C(NC(=O)C(C)NC)C(C)(C)C)C(C(=O)NC1CCCc3ccccc31)C2)C1CC(C[100NH:0][100C:0](=O)N2CCCC(n3nc(-c4ccc(Oc5ccc(F)cc5F)cc4)c(C(N)=O)c3N)C2)CCC1C(=O)NC(C)C

> <Shape>
0.267

> <Color>
0.035

> <Negative vol penalty>
0.000

$$$$

  -OEChem-04052320153D

 89 97  0     1  0  0  0  0  0999 V2000
  -15.3091  -26.2997   26.6620 C   0  0  0  0  0  0  0  0  0  0  0  0
  -16.3178  -25.3494   26.7833 C   0  0  0  0  0  0  0  0  0  0  0  0
  -23.0480   -9.9221   19.9093 C   0  0  0  0  0  0  0  0  0  0  0  0
  -23.8389   -9.8388   22.1907 C   0  0  0  0  0  0  0  0  0  0  0  0
  -14.9913  -26.8213   25.4086 C   0  0  0  0  0  0  0  0  0  0  0  0
  -17.0087  -24.9193   25.6510 C   0  0  0  0  0  0  0  0  0  0  0  0
  -23.4910  -22.6797   23.5818 C   0  0  0  0  0  0  0  0  0  0  0  0
  -22.2957   -8.7681   20.1280 C   0  0  0  0  0  0  0  0  0  0  0  0
  -23.0866   -8.6848   22.4094 C   0  0  0  0  0  0  0  0  0  0  0  0
  -24.1001  -21.6260   22.9018 C   0  0  0  0  0  0  0  0  0  0  0  0
  -19.3593   -7.9488   21.5906 C   0  0  0  0  0  0  0  0  0  0  0  0
  -18.0455   -7.9330   21.1222 C   0  0  0  0  0  0  0  0  0  0  0  0
  -23.5190  -22.6552   20.7989 C   0  0  0  0  0  0  0  0  0  0  0  0
  -27.2752  -19.5648   20.3286 C   0  0  0  0  0  0  0  0  0  0  0  0
  -18.5671   -6.0335   19.7233 C   0  0  0  0  0  0  0  0  0  0  0  0
  -29.4423  -20.1153   19.5181 C   0  0  0  0  0  0  0  0  0  0  0  0
  -23.8197  -10.4575   20.9407 C   0  0  0  0  0  0  0  0  0  0  0  0
  -24.1860  -12.9818   20.9067 C   0  0  0  0  0  0  0  0  0  0  0  0
  -15.6852  -26.4044   24.2617 C   0  0  0  0  0  0  0  0  0  0  0  0
  -22.8807  -23.7253   22.8743 C   0  0  0  0  0  0  0  0  0  0  0  0
  -16.6991  -25.4348   24.3809 C   0  0  0  0  0  0  0  0  0  0  0  0
  -22.9050  -23.7222   21.4723 C   0  0  0  0  0  0  0  0  0  0  0  0
  -26.7571  -20.5989   19.5569 C   0  0  0  0  0  0  0  0  0  0  0  0
  -28.6423  -19.3119   20.3145 C   0  0  0  0  0  0  0  0  0  0  0  0
  -22.3149   -8.1494   21.3780 C   0  0  0  0  0  0  0  0  0  0  0  0
  -24.1117  -21.6121   21.5101 C   0  0  0  0  0  0  0  0  0  0  0  0
  -20.2770   -7.0070   21.1253 C   0  0  0  0  0  0  0  0  0  0  0  0
  -17.6494   -6.9754   20.1886 C   0  0  0  0  0  0  0  0  0  0  0  0
  -19.8809   -6.0493   20.1917 C   0  0  0  0  0  0  0  0  0  0  0  0
  -24.5975  -11.6492   20.7152 C   0  0  0  0  0  0  0  0  0  0  0  0
  -27.6416  -21.3449   18.7946 C   0  0  0  0  0  0  0  0  0  0  0  0
  -25.2808  -13.7331   20.5555 C   0  0  0  0  0  0  0  0  0  0  0  0
  -22.9267  -13.4947   21.3616 C   0  0  0  0  0  0  0  0  0  0  0  0
  -19.9199  -24.8625   22.6630 C   0  0  0  0  0  0  0  0  0  0  0  0
  -21.3485  -27.1654   20.8803 C   0  0  0  0  0  0  0  0  0  0  0  0
  -23.9756  -28.0897   18.9077 C   0  0  0  0  0  0  0  0  0  0  0  0
  -30.7769  -14.6905   20.7040 C   0  0  0  0  0  0  0  0  0  0  0  0
  -15.2742  -26.9619   22.9220 C   0  0  0  0  0  0  0  0  0  0  0  0
  -22.2512  -24.8681   23.6227 C   0  0  0  0  0  0  0  0  0  0  0  0
  -22.2816  -24.8311   20.6660 C   0  0  0  0  0  0  0  0  0  0  0  0
  -16.3076  -26.7297   21.8227 C   0  0  0  0  0  0  0  0  0  0  0  0
  -29.5824  -12.4050   18.2491 C   0  0  0  0  0  0  0  0  0  0  0  0
  -16.7992  -25.2859   21.8484 C   0  0  0  0  0  0  0  0  0  0  0  0
  -28.1480  -12.1101   18.6912 C   0  0  0  0  0  0  0  0  0  0  0  0
  -30.5180  -12.5733   19.4443 C   0  0  0  0  0  0  0  0  0  0  0  0
  -28.6429  -13.2726   20.8826 C   0  0  0  0  0  0  0  0  0  0  0  0
  -17.4880  -24.9613   23.1794 C   0  0  1  0  0  0  0  0  0  0  0  0
  -21.2102  -25.6203   22.7994 C   0  0  1  0  0  0  0  0  0  0  0  0
  -27.6511  -13.1502   19.7131 C   0  0  2  0  0  0  0  0  0  0  0  0
  -24.5273  -20.0741   18.5102 C   0  0  0  0  0  0  0  0  0  0  0  0
  -27.0403  -23.7876   18.7408 C   0  0  0  0  0  0  0  0  0  0  0  0
  -24.8459  -30.0223   17.5643 C   0  0  0  0  0  0  0  0  0  0  0  0
  -19.3165  -26.5535   18.6881 C   0  0  0  0  0  0  0  0  0  0  0  0
  -20.7855  -27.7865   17.0788 C   0  0  0  0  0  0  0  0  0  0  0  0
  -19.7872  -28.9865   19.0245 C   0  0  0  0  0  0  0  0  0  0  0  0
  -28.5582  -20.7778   13.4165 C   0  0  0  0  0  0  0  0  0  0  0  0
  -26.4220  -28.2877   20.5615 C   0  0  0  0  0  0  0  0  0  0  0  0
  -30.5970  -17.9758   21.1018 C   0  0  0  0  0  0  0  0  0  0  0  0
  -30.8818  -16.7942   22.0164 C   0  0  0  0  0  0  0  0  0  0  0  0
  -28.0368  -21.4752   15.7575 C   0  0  0  0  0  0  0  0  0  0  0  0
  -25.2718  -20.8791   19.5678 C   0  0  1  0  0  0  0  0  0  1  0  0
  -27.1414  -22.4681   17.9462 C   0  0  1  0  0  0  0  0  0  0  0  0
  -21.6657  -27.3401   19.4148 C   0  0  1  0  0  0  0  0  0  0  0  0
  -24.8556  -29.3266   18.9166 C   0  0  2  0  0  0  0  0  0  0  0  0
  -27.9616  -22.7074   16.6487 C   0  0  1  0  0  0  0  0  0  0  0  0
  -20.3989  -27.6446   18.5664 C   0  0  0  0  0  0  0  0  0  0  0  0
  -28.9755  -21.1290   18.7551 N   0  0  0  0  0  0  0  0  0  0  0  0
  -25.8555  -11.5561   20.2762 N   0  0  0  0  0  0  0  0  0  0  0  0
  -26.2439  -12.8396   20.1889 N   0  0  0  0  0  0  0  0  0  0  0  0
  -21.6730  -25.9231   21.4436 N   0  0  0  0  0  0  0  0  0  0  0  0
  -29.9902  -13.5745   20.3743 N   0  0  0  0  0  0  0  0  0  0  0  0
  -25.5040  -15.0642   20.5275 N   0  0  0  0  0  0  0  0  0  0  0  0
  -21.9101  -12.5840   21.6800 N   0  0  0  0  0  0  0  0  0  0  0  0
  -29.1952  -18.2748   21.0835 N   0  0  0  0  0  0  0  0  0  0  0  0
  -18.8263  -25.5116   23.2033 N   0  0  0  0  0  0  0  0  0  0  0  0
  -22.6966  -28.3697   19.3401 N   0  0  0  0  0  0  0  0  0  0  0  0
  -30.1989  -15.5942   21.5872 N   0  0  0  0  0  0  0  0  0  0  0  0
  -28.4649  -21.8920   14.3977 N   0  3  0  0  0  0  0  0  0  0  0  0
  -26.2618  -28.9595   19.2462 N   0  3  0  0  0  0  0  0  0  0  0  0
  -22.7041  -14.7247   21.4664 O   0  0  0  0  0  0  0  0  0  0  0  0
  -19.9166  -23.7703   22.1072 O   0  0  0  0  0  0  0  0  0  0  0  0
  -20.8385  -28.0994   21.5042 O   0  0  0  0  0  0  0  0  0  0  0  0
  -24.3811  -26.9862   18.5493 O   0  0  0  0  0  0  0  0  0  0  0  0
  -31.9084  -14.8710   20.2412 O   0  0  0  0  0  0  0  0  0  0  0  0
  -21.5807   -7.0235   21.5918 O   0  0  0  0  0  0  0  0  0  0  0  0
  -24.7050  -20.5846   20.8438 O   0  0  0  0  0  0  0  0  0  1  0  0
  -16.3873   -6.9593   19.7401 F   0  0  0  0  0  0  0  0  0  0  0  0
  -20.7577   -5.1412   19.7418 F   0  0  0  0  0  0  0  0  0  0  0  0
  -29.2298  -23.0742   16.9871 F   0  0  0  0  0  0  0  0  0  0  0  0
  1  2  1  0  0  0  0
  1  5  2  0  0  0  0
  2  6  2  0  0  0  0
  3  8  2  0  0  0  0
  3 17  1  0  0  0  0
  4  9  1  0  0  0  0
  4 17  2  0  0  0  0
  5 19  1  0  0  0  0
  6 21  1  0  0  0  0
  7 10  2  0  0  0  0
  7 20  1  0  0  0  0
  8 25  1  0  0  0  0
  9 25  2  0  0  0  0
 10 26  1  0  0  0  0
 11 12  2  0  0  0  0
 11 27  1  0  0  0  0
 12 28  1  0  0  0  0
 13 22  1  0  0  0  0
 13 26  2  0  0  0  0
 14 23  1  0  0  0  0
 14 24  2  0  0  0  0
 15 28  2  0  0  0  0
 15 29  1  0  0  0  0
 16 24  1  0  0  0  0
 16 67  2  0  0  0  0
 17 30  1  0  0  0  0
 18 30  1  0  0  0  0
 18 32  2  0  0  0  0
 18 33  1  0  0  0  0
 19 21  2  0  0  0  0
 19 38  1  0  0  0  0
 20 22  2  0  0  0  0
 20 39  1  0  0  0  0
 21 47  1  0  0  0  0
 22 40  1  0  0  0  0
 23 31  2  0  0  0  0
 23 61  1  0  0  0  0
 24 74  1  0  0  0  0
 25 85  1  0  0  0  0
 26 86  1  0  0  0  0
 27 29  2  0  0  0  0
 27 85  1  0  0  0  0
 28 87  1  0  0  0  0
 29 88  1  0  0  0  0
 30 68  2  0  0  0  0
 31 62  1  0  0  0  0
 31 67  1  0  0  0  0
 32 69  1  0  0  0  0
 32 72  1  0  0  0  0
 33 73  1  0  0  0  0
 33 80  2  0  0  0  0
 34 48  1  0  0  0  0
 34 75  1  0  0  0  0
 34 81  2  0  0  0  0
 35 63  1  0  0  0  0
 35 70  1  0  0  0  0
 35 82  2  0  0  0  0
 36 64  1  0  0  0  0
 36 76  1  0  0  0  0
 36 83  2  0  0  0  0
 37 71  1  0  0  0  0
 37 77  1  0  0  0  0
 37 84  2  0  0  0  0
 38 41  1  0  0  0  0
 39 48  1  0  0  0  0
 40 70  1  0  0  0  0
 41 43  1  0  0  0  0
 42 44  1  0  0  0  0
 42 45  1  0  0  0  0
 43 47  1  0  0  0  0
 44 49  1  0  0  0  0
 45 71  1  0  0  0  0
 46 49  1  0  0  0  0
 46 71  1  0  0  0  0
 47 75  1  0  0  0  0
 48 70  1  0  0  0  0
 49 69  1  0  0  0  0
 50 61  1  0  0  0  0
 51 62  1  0  0  0  0
 52 64  1  0  0  0  0
 53 66  1  0  0  0  0
 54 66  1  0  0  0  0
 55 66  1  0  0  0  0
 56 78  1  0  0  0  0
 57 79  1  0  0  0  0
 58 59  1  0  0  0  0
 58 74  1  0  0  0  0
 59 77  1  0  0  0  0
 60 65  1  0  0  0  0
 60 78  1  0  0  0  0
 61 86  1  0  0  0  0
 62 65  1  0  0  0  0
 63 66  1  0  0  0  0
 63 76  1  0  0  0  0
 64 79  1  0  0  0  0
 65 89  1  0  0  0  0
 68 69  1  0  0  0  0
M  CHG  2  78   1  79   1
M  ISO  4  37 100  61 101  77 100  86 101
M  END
> <Batch ID>
0117

> <Smiles>
CNCC(F)C(C)c1ncc(NCC[100NH:0][100C:0](=O)N2CCCC(n3nc(-c4ccc(Oc5ccc(F)cc5F)cc4)c(C(N)=O)c3N)C2)cc1[101CH:1](C)[101O:1]c1ccc2c(c1)CN(C(=O)C(NC(=O)C(C)NC)C(C)(C)C)C(C(=O)NC1CCCc3ccccc31)C2

> <Shape>
0.244

> <Color>
0.182

> <Negative vol penalty>
0.000

$$$$

  -OEChem-04052320153D

 91100  0     1  0  0  0  0  0999 V2000
  -32.9493  -25.7231   24.0726 C   0  0  0  0  0  0  0  0  0  0  0  0
  -31.7742  -25.0097   24.2864 C   0  0  0  0  0  0  0  0  0  0  0  0
  -22.6738  -10.1766   20.1933 C   0  0  0  0  0  0  0  0  0  0  0  0
  -24.3049   -9.4636   21.8268 C   0  0  0  0  0  0  0  0  0  0  0  0
  -33.0580  -27.0371   24.5260 C   0  0  0  0  0  0  0  0  0  0  0  0
  -30.7075  -25.6096   24.9548 C   0  0  0  0  0  0  0  0  0  0  0  0
  -26.2620  -24.7456   22.6886 C   0  0  0  0  0  0  0  0  0  0  0  0
  -25.4659  -18.7905   23.5644 C   0  0  0  0  0  0  0  0  0  0  0  0
  -21.9421   -9.0100   20.4146 C   0  0  0  0  0  0  0  0  0  0  0  0
  -23.5731   -8.2969   22.0481 C   0  0  0  0  0  0  0  0  0  0  0  0
  -25.6766  -23.4964   22.8904 C   0  0  0  0  0  0  0  0  0  0  0  0
  -20.8035   -7.3818   23.7548 C   0  0  0  0  0  0  0  0  0  0  0  0
  -20.6002   -6.9872   25.0771 C   0  0  0  0  0  0  0  0  0  0  0  0
  -24.6063  -19.8767   23.4429 C   0  0  0  0  0  0  0  0  0  0  0  0
  -24.2206  -24.4550   24.5578 C   0  0  0  0  0  0  0  0  0  0  0  0
  -21.7420   -4.9052   24.6314 C   0  0  0  0  0  0  0  0  0  0  0  0
  -23.8553  -10.4034   20.8993 C   0  0  0  0  0  0  0  0  0  0  0  0
  -24.1758  -12.9338   20.8554 C   0  0  0  0  0  0  0  0  0  0  0  0
  -31.9886  -27.6566   25.1917 C   0  0  0  0  0  0  0  0  0  0  0  0
  -25.8379  -25.8584   23.4289 C   0  0  0  0  0  0  0  0  0  0  0  0
  -30.8026  -26.9327   25.4187 C   0  0  0  0  0  0  0  0  0  0  0  0
  -24.8005  -25.7177   24.3617 C   0  0  0  0  0  0  0  0  0  0  0  0
  -26.6009  -18.8949   24.3608 C   0  0  0  0  0  0  0  0  0  0  0  0
  -22.3917   -8.0701   21.3420 C   0  0  0  0  0  0  0  0  0  0  0  0
  -24.6577  -23.3504   23.8272 C   0  0  0  0  0  0  0  0  0  0  0  0
  -21.4760   -6.5381   22.8707 C   0  0  0  0  0  0  0  0  0  0  0  0
  -21.0695   -5.7490   25.5154 C   0  0  0  0  0  0  0  0  0  0  0  0
  -21.9453   -5.2999   23.3090 C   0  0  0  0  0  0  0  0  0  0  0  0
  -24.6119  -11.6081   20.6707 C   0  0  0  0  0  0  0  0  0  0  0  0
  -26.8296  -20.0977   25.0095 C   0  0  0  0  0  0  0  0  0  0  0  0
  -24.9243  -21.0356   24.1325 C   0  0  0  0  0  0  0  0  0  1  0  0
  -25.2578  -13.7034   20.5037 C   0  0  0  0  0  0  0  0  0  0  0  0
  -22.9062  -13.4257   21.3048 C   0  0  0  0  0  0  0  0  0  0  0  0
  -27.2200  -27.8335   25.5007 C   0  0  0  0  0  0  0  0  0  0  0  0
  -24.3885  -29.4031   25.2976 C   0  0  0  0  0  0  0  0  0  0  0  0
  -21.1509  -30.3989   24.8818 C   0  0  0  0  0  0  0  0  0  0  0  0
  -30.7351  -14.7611   20.6623 C   0  0  0  0  0  0  0  0  0  0  0  0
  -32.1701  -29.0631   25.7052 C   0  0  0  0  0  0  0  0  0  0  0  0
  -26.4612  -27.2045   23.1802 C   0  0  0  0  0  0  0  0  0  0  0  0
  -24.2949  -26.8852   25.1676 C   0  0  0  0  0  0  0  0  0  0  0  0
  -30.8582  -29.7509   26.0741 C   0  0  0  0  0  0  0  0  0  0  0  0
  -29.5889  -12.4438   18.2143 C   0  0  0  0  0  0  0  0  0  0  0  0
  -29.9829  -28.8195   26.9066 C   0  0  0  0  0  0  0  0  0  0  0  0
  -28.1589  -12.1247   18.6539 C   0  0  0  0  0  0  0  0  0  0  0  0
  -30.1057  -20.6786   21.5045 C   0  0  0  0  0  0  0  0  0  0  0  0
  -29.2001  -19.4274   19.4960 C   0  0  0  0  0  0  0  0  0  0  0  0
  -30.7197  -19.3816   22.0359 C   0  0  0  0  0  0  0  0  0  0  0  0
  -29.8132  -18.1300   20.0275 C   0  0  0  0  0  0  0  0  0  0  0  0
  -30.5180  -12.6342   19.4111 C   0  0  0  0  0  0  0  0  0  0  0  0
  -28.6267  -13.3054   20.8415 C   0  0  0  0  0  0  0  0  0  0  0  0
  -29.6145  -27.5571   26.1178 C   0  0  1  0  0  0  0  0  0  0  0  0
  -26.3031  -28.1627   24.3568 C   0  0  1  0  0  0  0  0  0  0  0  0
  -27.6404  -13.1601   19.6700 C   0  0  2  0  0  0  0  0  0  0  0  0
  -29.9847  -20.6409   19.9844 C   0  0  0  0  0  0  0  0  0  0  0  0
  -29.9745  -18.1106   21.5656 C   0  0  0  0  0  0  0  0  0  0  0  0
  -28.0334  -20.2669   25.8773 C   0  0  0  0  0  0  0  0  0  0  0  0
  -19.5162  -32.1487   25.6324 C   0  0  0  0  0  0  0  0  0  0  0  0
  -24.0926  -27.9737   27.9771 C   0  0  0  0  0  0  0  0  0  0  0  0
  -21.8823  -29.1145   28.2625 C   0  0  0  0  0  0  0  0  0  0  0  0
  -23.9717  -30.4684   28.1065 C   0  0  0  0  0  0  0  0  0  0  0  0
  -20.7798  -31.4019   22.1222 C   0  0  0  0  0  0  0  0  0  0  0  0
  -29.9984  -23.1310   19.9787 C   0  0  0  0  0  0  0  0  0  0  0  0
  -29.0598  -21.8869   18.0366 C   0  0  0  0  0  0  0  0  0  0  0  0
  -27.5274  -17.7358   24.4921 C   0  0  0  0  0  0  0  0  0  0  0  0
  -30.7983  -16.8720   21.9658 C   0  0  0  0  0  0  0  0  0  0  0  0
  -28.5987  -18.0057   22.2520 C   0  0  0  0  0  0  0  0  0  0  0  0
  -23.0724  -29.3336   26.0339 C   0  0  1  0  0  0  0  0  0  0  0  0
  -20.5457  -31.7587   24.5832 C   0  0  2  0  0  0  0  0  0  0  0  0
  -23.2599  -29.2064   27.5721 C   0  0  0  0  0  0  0  0  0  0  0  0
  -25.8726  -11.5360   20.2354 N   0  0  0  0  0  0  0  0  0  0  0  0
  -26.0176  -21.1745   24.9155 N   0  0  0  0  0  0  0  0  0  0  0  0
  -26.2379  -12.8260   20.1435 N   0  0  0  0  0  0  0  0  0  0  0  0
  -24.9406  -28.1795   24.8929 N   0  0  0  0  0  0  0  0  0  0  0  0
  -29.9696  -13.6296   20.3354 N   0  0  0  0  0  0  0  0  0  0  0  0
  -25.4568  -15.0382   20.4705 N   0  0  0  0  0  0  0  0  0  0  0  0
  -21.9055  -12.4980   21.6245 N   0  0  0  0  0  0  0  0  0  0  0  0
  -28.5611  -27.8441   25.1679 N   0  0  0  0  0  0  0  0  0  0  0  0
  -22.3106  -30.5069   25.6198 N   0  0  0  0  0  0  0  0  0  0  0  0
  -30.1384  -15.6579   21.5400 N   0  0  0  0  0  0  0  0  0  0  0  0
  -19.8778  -31.7472   23.2510 N   0  3  0  0  0  0  0  0  0  0  0  0
  -28.7919  -17.8975   23.7212 N   0  3  0  0  0  0  0  0  0  0  0  0
  -29.2955  -21.8764   19.5257 N   0  3  0  0  0  0  0  0  0  0  0  0
  -22.6610  -14.6519   21.4037 O   0  0  0  0  0  0  0  0  0  0  0  0
  -26.7459  -27.5894   26.6041 O   0  0  0  0  0  0  0  0  0  0  0  0
  -24.9041  -30.5030   25.0831 O   0  0  0  0  0  0  0  0  0  0  0  0
  -20.6434  -29.3460   24.5018 O   0  0  0  0  0  0  0  0  0  0  0  0
  -31.8643  -14.9601   20.2017 O   0  0  0  0  0  0  0  0  0  0  0  0
  -21.6777   -6.9317   21.5584 O   0  0  0  0  0  0  0  0  0  0  0  0
  -24.0850  -22.1321   24.0266 O   0  0  0  0  0  0  0  0  0  1  0  0
  -20.8755   -5.3708   26.7857 F   0  0  0  0  0  0  0  0  0  0  0  0
  -22.5931   -4.4855   22.4646 F   0  0  0  0  0  0  0  0  0  0  0  0
  1  2  1  0  0  0  0
  1  5  2  0  0  0  0
  2  6  2  0  0  0  0
  3  9  2  0  0  0  0
  3 17  1  0  0  0  0
  4 10  1  0  0  0  0
  4 17  2  0  0  0  0
  5 19  1  0  0  0  0
  6 21  1  0  0  0  0
  7 11  2  0  0  0  0
  7 20  1  0  0  0  0
  8 14  2  0  0  0  0
  8 23  1  0  0  0  0
  9 24  1  0  0  0  0
 10 24  2  0  0  0  0
 11 25  1  0  0  0  0
 12 13  2  0  0  0  0
 12 26  1  0  0  0  0
 13 27  1  0  0  0  0
 14 31  1  0  0  0  0
 15 22  1  0  0  0  0
 15 25  2  0  0  0  0
 16 27  2  0  0  0  0
 16 28  1  0  0  0  0
 17 29  1  0  0  0  0
 18 29  1  0  0  0  0
 18 32  2  0  0  0  0
 18 33  1  0  0  0  0
 19 21  2  0  0  0  0
 19 38  1  0  0  0  0
 20 22  2  0  0  0  0
 20 39  1  0  0  0  0
 21 51  1  0  0  0  0
 22 40  1  0  0  0  0
 23 30  2  0  0  0  0
 23 64  1  0  0  0  0
 24 88  1  0  0  0  0
 25 89  1  0  0  0  0
 26 28  2  0  0  0  0
 26 88  1  0  0  0  0
 27 90  1  0  0  0  0
 28 91  1  0  0  0  0
 29 70  2  0  0  0  0
 30 56  1  0  0  0  0
 30 71  1  0  0  0  0
 31 71  2  0  0  0  0
 31 89  1  0  0  0  0
 32 72  1  0  0  0  0
 32 75  1  0  0  0  0
 33 76  1  0  0  0  0
 33 83  2  0  0  0  0
 34 52  1  0  0  0  0
 34 77  1  0  0  0  0
 34 84  2  0  0  0  0
 35 67  1  0  0  0  0
 35 73  1  0  0  0  0
 35 85  2  0  0  0  0
 36 68  1  0  0  0  0
 36 78  1  0  0  0  0
 36 86  2  0  0  0  0
 37 74  1  0  0  0  0
 37 79  1  0  0  0  0
 37 87  2  0  0  0  0
 38 41  1  0  0  0  0
 39 52  1  0  0  0  0
 40 73  1  0  0  0  0
 41 43  1  0  0  0  0
 42 44  1  0  0  0  0
 42 49  1  0  0  0  0
 43 51  1  0  0  0  0
 44 53  1  0  0  0  0
 45 47  1  0  0  0  0
 45 54  1  0  0  0  0
 46 48  1  0  0  0  0
 46 54  1  0  0  0  0
 47 55  1  0  0  0  0
 48 55  1  0  0  0  0
 49 74  1  0  0  0  0
 50 53  1  0  0  0  0
 50 74  1  0  0  0  0
 51 77  1  0  0  0  0
 52 73  1  0  0  0  0
 53 72  1  0  0  0  0
 54 82  1  0  0  0  0
 55 65  1  0  0  0  0
 55 66  1  0  0  0  0
 57 68  1  0  0  0  0
 58 69  1  0  0  0  0
 59 69  1  0  0  0  0
 60 69  1  0  0  0  0
 61 80  1  0  0  0  0
 62 82  1  0  0  0  0
 63 82  1  0  0  0  0
 64 81  1  0  0  0  0
 65 79  1  0  0  0  0
 66 81  1  0  0  0  0
 67 69  1  0  0  0  0
 67 78  1  0  0  0  0
 68 80  1  0  0  0  0
 70 72  1  0  0  0  0
M  CHG  3  80   1  81   1  82   1
M  ISO  4  31 101  37 100  79 100  89 101
M  END
> <Batch ID>
0117

> <Smiles>
CNC(C)C(=O)NC(C(=O)N1Cc2cc([101O:1][101c:1]3ccc(CNCC4(C[100NH:0][100C:0](=O)N5CCCC(n6nc(-c7ccc(Oc8ccc(F)cc8F)cc7)c(C(N)=O)c6N)C5)CCC(N(C)C)CC4)c(C)n3)ccc2CC1C(=O)NC1CCCc2ccccc21)C(C)(C)C

> <Shape>
0.251

> <Color>
0.181

> <Negative vol penalty>
0.000

$$$$

  -OEChem-04052320153D

 87 96  0     1  0  0  0  0  0999 V2000
  -28.8973  -36.8907   20.9455 C   0  0  0  0  0  0  0  0  0  0  0  0
  -29.1938  -35.5631   20.6540 C   0  0  0  0  0  0  0  0  0  0  0  0
  -22.9059  -10.0840   19.9487 C   0  0  0  0  0  0  0  0  0  0  0  0
  -21.7876  -10.5103   22.0475 C   0  0  0  0  0  0  0  0  0  0  0  0
  -27.9515  -37.1939   21.9240 C   0  0  0  0  0  0  0  0  0  0  0  0
  -28.5455  -34.5378   21.3416 C   0  0  0  0  0  0  0  0  0  0  0  0
  -26.9076  -29.0730   19.1149 C   0  0  0  0  0  0  0  0  0  0  0  0
  -22.6705   -8.7176   20.1007 C   0  0  0  0  0  0  0  0  0  0  0  0
  -21.5522   -9.1438   22.1995 C   0  0  0  0  0  0  0  0  0  0  0  0
  -27.5009  -27.8135   19.1896 C   0  0  0  0  0  0  0  0  0  0  0  0
  -23.2894   -6.4090   23.1657 C   0  0  0  0  0  0  0  0  0  0  0  0
  -23.5375   -5.8439   24.4166 C   0  0  0  0  0  0  0  0  0  0  0  0
  -26.0907  -27.2674   21.0690 C   0  0  0  0  0  0  0  0  0  0  0  0
  -21.2232   -5.1677   24.5701 C   0  0  0  0  0  0  0  0  0  0  0  0
  -22.4645  -10.9804   20.9221 C   0  0  0  0  0  0  0  0  0  0  0  0
  -21.8750  -13.3330   20.1313 C   0  0  0  0  0  0  0  0  0  0  0  0
  -27.2842  -36.1717   22.6172 C   0  0  0  0  0  0  0  0  0  0  0  0
  -25.9073  -29.4437   20.0251 C   0  0  0  0  0  0  0  0  0  0  0  0
  -27.5908  -34.8276   22.3313 C   0  0  0  0  0  0  0  0  0  0  0  0
  -25.4845  -28.5312   21.0021 C   0  0  0  0  0  0  0  0  0  0  0  0
  -21.9937   -8.2475   21.2261 C   0  0  0  0  0  0  0  0  0  0  0  0
  -27.0945  -26.9116   20.1686 C   0  0  0  0  0  0  0  0  0  0  0  0
  -22.0082   -6.3535   22.6171 C   0  0  0  0  0  0  0  0  0  0  0  0
  -22.5044   -5.2232   25.1188 C   0  0  0  0  0  0  0  0  0  0  0  0
  -20.9751   -5.7328   23.3192 C   0  0  0  0  0  0  0  0  0  0  0  0
  -22.7078  -12.3919   20.7658 C   0  0  0  0  0  0  0  0  0  0  0  0
  -22.5495  -14.5235   20.2499 C   0  0  0  0  0  0  0  0  0  0  0  0
  -20.6052  -13.1476   19.4918 C   0  0  0  0  0  0  0  0  0  0  0  0
  -25.6150  -31.7067   22.2380 C   0  0  0  0  0  0  0  0  0  0  0  0
  -22.5859  -30.5653   22.4474 C   0  0  0  0  0  0  0  0  0  0  0  0
  -31.4465  -15.3343   23.3946 C   0  0  0  0  0  0  0  0  0  0  0  0
  -20.4323  -27.9602   21.9755 C   0  0  0  0  0  0  0  0  0  0  0  0
  -27.2218  -17.2424   19.7518 C   0  0  0  0  0  0  0  0  0  0  0  0
  -26.3040  -36.5488   23.6997 C   0  0  0  0  0  0  0  0  0  0  0  0
  -25.2585  -30.7962   19.9143 C   0  0  0  0  0  0  0  0  0  0  0  0
  -24.4004  -28.8730   21.9903 C   0  0  0  0  0  0  0  0  0  0  0  0
  -25.3892  -35.4012   24.1198 C   0  0  0  0  0  0  0  0  0  0  0  0
  -26.5742  -15.6422   22.9617 C   0  0  0  0  0  0  0  0  0  0  0  0
  -26.1974  -34.1253   24.3340 C   0  0  0  0  0  0  0  0  0  0  0  0
  -29.2939  -21.7164   19.8250 C   0  0  0  0  0  0  0  0  0  0  0  0
  -26.9384  -20.8137   19.9486 C   0  0  0  0  0  0  0  0  0  0  0  0
  -28.8182  -23.0404   20.4191 C   0  0  0  0  0  0  0  0  0  0  0  0
  -26.4618  -22.1374   20.5426 C   0  0  0  0  0  0  0  0  0  0  0  0
  -25.4267  -14.7046   22.5996 C   0  0  0  0  0  0  0  0  0  0  0  0
  -30.2207  -18.6966   20.0551 C   0  0  0  0  0  0  0  0  0  0  0  0
  -27.5750  -15.8052   21.8169 C   0  0  0  0  0  0  0  0  0  0  0  0
  -25.7926  -15.2696   20.1725 C   0  0  0  0  0  0  0  0  0  0  0  0
  -26.8907  -33.6874   23.0382 C   0  0  1  0  0  0  0  0  0  0  0  0
  -24.6098  -31.2561   21.2162 C   0  0  1  0  0  0  0  0  0  0  0  0
  -28.4119  -20.5464   20.2734 C   0  0  0  0  0  0  0  0  0  0  0  0
  -27.3434  -23.3100   20.0935 C   0  0  0  0  0  0  0  0  0  0  0  0
  -24.7523  -15.1572   21.2955 C   0  0  1  0  0  0  0  0  0  0  0  0
  -28.8690  -19.2596   19.5864 C   0  0  2  0  0  0  0  0  0  0  0  0
  -29.4618  -17.6678   20.9045 C   0  0  2  0  0  0  0  0  0  0  0  0
  -31.7737  -15.8527   24.7406 C   0  0  0  0  0  0  0  0  0  0  0  0
  -18.0258  -27.3148   22.2746 C   0  0  0  0  0  0  0  0  0  0  0  0
  -23.0465  -30.2474   25.4469 C   0  0  0  0  0  0  0  0  0  0  0  0
  -21.0362  -28.7572   25.5271 C   0  0  0  0  0  0  0  0  0  0  0  0
  -20.7939  -31.1389   24.8261 C   0  0  0  0  0  0  0  0  0  0  0  0
  -20.0758  -27.4955   19.0745 C   0  0  0  0  0  0  0  0  0  0  0  0
  -26.8779  -24.6133   20.7402 C   0  0  0  0  0  0  0  0  0  1  0  0
  -29.8239  -16.2152   20.6763 C   0  0  0  0  0  0  0  0  0  0  0  0
  -31.2865  -15.9174   20.9831 C   0  0  0  0  0  0  0  0  0  0  0  0
  -21.9015  -29.4924   23.2595 C   0  0  1  0  0  0  0  0  0  0  0  0
  -19.0633  -27.8906   21.3233 C   0  0  2  0  0  0  0  0  0  0  0  0
  -21.7163  -29.9029   24.7476 C   0  0  0  0  0  0  0  0  0  0  0  0
  -23.8260  -12.9376   21.2514 N   0  0  0  0  0  0  0  0  0  0  0  0
  -23.7007  -14.2344   20.9218 N   0  0  0  0  0  0  0  0  0  0  0  0
  -23.8011  -30.2099   21.8452 N   0  0  0  0  0  0  0  0  0  0  0  0
  -26.9091  -16.1399   20.5536 N   0  0  0  0  0  0  0  0  0  0  0  0
  -28.2557  -18.0607   20.1675 N   0  0  0  0  0  0  0  0  0  0  0  0
  -22.2644  -15.7790   19.8438 N   0  0  0  0  0  0  0  0  0  0  0  0
  -20.0552  -11.8588   19.4596 N   0  0  0  0  0  0  0  0  0  0  0  0
  -31.0799  -14.0600   23.3203 N   0  0  0  0  0  0  0  0  0  0  0  0
  -25.9446  -33.0458   22.1507 N   0  0  0  0  0  0  0  0  0  0  0  0
  -20.6556  -29.1868   22.5645 N   0  0  0  0  0  0  0  0  0  0  0  0
  -31.5566  -16.2072   22.3919 N   0  3  0  0  0  0  0  0  0  0  0  0
  -19.1124  -27.0322   20.1061 N   0  3  0  0  0  0  0  0  0  0  0  0
  -19.9846  -14.0936   18.9503 O   0  0  0  0  0  0  0  0  0  0  0  0
  -26.0578  -30.8995   23.0468 O   0  0  0  0  0  0  0  0  0  0  0  0
  -22.0581  -31.6755   22.3452 O   0  0  0  0  0  0  0  0  0  0  0  0
  -21.2230  -27.0193   21.9667 O   0  0  0  0  0  0  0  0  0  0  0  0
  -26.6243  -17.4747   18.6936 O   0  0  0  0  0  0  0  0  0  0  0  0
  -21.7637   -6.9143   21.3747 O   0  0  0  0  0  0  0  0  0  0  0  0
  -27.6778  -25.6705   20.2449 O   0  0  0  0  0  0  0  0  0  1  0  0
  -22.7432   -4.6793   26.3193 F   0  0  0  0  0  0  0  0  0  0  0  0
  -19.7424   -5.6753   22.7967 F   0  0  0  0  0  0  0  0  0  0  0  0
  1  2  1  0  0  0  0
  1  5  2  0  0  0  0
  2  6  2  0  0  0  0
  3  8  2  0  0  0  0
  3 15  1  0  0  0  0
  4  9  1  0  0  0  0
  4 15  2  0  0  0  0
  5 17  1  0  0  0  0
  6 19  1  0  0  0  0
  7 10  2  0  0  0  0
  7 18  1  0  0  0  0
  8 21  1  0  0  0  0
  9 21  2  0  0  0  0
 10 22  1  0  0  0  0
 11 12  2  0  0  0  0
 11 23  1  0  0  0  0
 12 24  1  0  0  0  0
 13 20  1  0  0  0  0
 13 22  2  0  0  0  0
 14 24  2  0  0  0  0
 14 25  1  0  0  0  0
 15 26  1  0  0  0  0
 16 26  1  0  0  0  0
 16 27  2  0  0  0  0
 16 28  1  0  0  0  0
 17 19  2  0  0  0  0
 17 34  1  0  0  0  0
 18 20  2  0  0  0  0
 18 35  1  0  0  0  0
 19 48  1  0  0  0  0
 20 36  1  0  0  0  0
 21 84  1  0  0  0  0
 22 85  1  0  0  0  0
 23 25  2  0  0  0  0
 23 84  1  0  0  0  0
 24 86  1  0  0  0  0
 25 87  1  0  0  0  0
 26 67  2  0  0  0  0
 27 68  1  0  0  0  0
 27 72  1  0  0  0  0
 28 73  1  0  0  0  0
 28 79  2  0  0  0  0
 29 49  1  0  0  0  0
 29 75  1  0  0  0  0
 29 80  2  0  0  0  0
 30 64  1  0  0  0  0
 30 69  1  0  0  0  0
 30 81  2  0  0  0  0
 31 55  1  0  0  0  0
 31 74  1  0  0  0  0
 31 77  2  0  0  0  0
 32 65  1  0  0  0  0
 32 76  1  0  0  0  0
 32 82  2  0  0  0  0
 33 70  1  0  0  0  0
 33 71  1  0  0  0  0
 33 83  2  0  0  0  0
 34 37  1  0  0  0  0
 35 49  1  0  0  0  0
 36 69  1  0  0  0  0
 37 39  1  0  0  0  0
 38 44  1  0  0  0  0
 38 46  1  0  0  0  0
 39 48  1  0  0  0  0
 40 42  1  0  0  0  0
 40 50  1  0  0  0  0
 41 43  1  0  0  0  0
 41 50  1  0  0  0  0
 42 51  1  0  0  0  0
 43 51  1  0  0  0  0
 44 52  1  0  0  0  0
 45 53  1  0  0  0  0
 45 54  1  0  0  0  0
 46 70  1  0  0  0  0
 47 52  1  0  0  0  0
 47 70  1  0  0  0  0
 48 75  1  0  0  0  0
 49 69  1  0  0  0  0
 50 53  1  0  0  0  0
 51 61  1  0  0  0  0
 52 68  1  0  0  0  0
 53 71  1  0  0  0  0
 54 62  1  0  0  0  0
 54 71  1  0  0  0  0
 56 65  1  0  0  0  0
 57 66  1  0  0  0  0
 58 66  1  0  0  0  0
 59 66  1  0  0  0  0
 60 78  1  0  0  0  0
 61 85  1  0  0  0  0
 62 63  1  0  0  0  0
 63 77  1  0  0  0  0
 64 66  1  0  0  0  0
 64 76  1  0  0  0  0
 65 78  1  0  0  0  0
 67 68  1  0  0  0  0
M  CHG  2  77   1  78   1
M  ISO  4  33 100  61 101  71 100  85 101
M  END
> <Batch ID>
0117

> <Smiles>
CNC(C)C(=O)NC(C(=O)N1Cc2cc([101O:1][101CH2:1]C3CCC(C4CC(CCNC(C)=N)[100N:0]4[100C:0](=O)N4CCCC(n5nc(-c6ccc(Oc7ccc(F)cc7F)cc6)c(C(N)=O)c5N)C4)CC3)ccc2CC1C(=O)NC1CCCc2ccccc21)C(C)(C)C

> <Shape>
0.330

> <Color>
0.083

> <Negative vol penalty>
0.000

$$$$

  -OEChem-04052320153D

 84 93  0     1  0  0  0  0  0999 V2000
  -23.1297  -22.0992   18.1080 C   0  0  0  0  0  0  0  0  0  0  0  0
  -24.1374  -21.2937   17.5873 C   0  0  0  0  0  0  0  0  0  0  0  0
  -25.5213  -26.9252   18.5129 C   0  0  0  0  0  0  0  0  0  0  0  0
  -25.5825  -26.7253   20.9198 C   0  0  0  0  0  0  0  0  0  0  0  0
  -22.6491  -21.8673   19.3961 C   0  0  0  0  0  0  0  0  0  0  0  0
  -24.6659  -20.2564   18.3549 C   0  0  0  0  0  0  0  0  0  0  0  0
  -27.4238  -13.6769   17.7068 C   0  0  0  0  0  0  0  0  0  0  0  0
  -24.3068  -27.6057   18.6002 C   0  0  0  0  0  0  0  0  0  0  0  0
  -24.3680  -27.4059   21.0072 C   0  0  0  0  0  0  0  0  0  0  0  0
  -28.5467  -12.9384   18.0776 C   0  0  0  0  0  0  0  0  0  0  0  0
  -23.2508  -30.7323   19.3365 C   0  0  0  0  0  0  0  0  0  0  0  0
  -23.0940  -31.8809   18.5608 C   0  0  0  0  0  0  0  0  0  0  0  0
  -27.5836  -12.5813   20.2603 C   0  0  0  0  0  0  0  0  0  0  0  0
  -30.8681  -14.0415   21.7613 C   0  0  0  0  0  0  0  0  0  0  0  0
  -21.2134  -30.8642   17.4353 C   0  0  0  0  0  0  0  0  0  0  0  0
  -32.1711  -16.0768   20.4942 C   0  0  0  0  0  0  0  0  0  0  0  0
  -26.1591  -26.4850   19.6727 C   0  0  0  0  0  0  0  0  0  0  0  0
  -28.7049  -26.3413   19.5969 C   0  0  0  0  0  0  0  0  0  0  0  0
  -23.1652  -20.8206   20.1762 C   0  0  0  0  0  0  0  0  0  0  0  0
  -26.3754  -13.8827   18.6151 C   0  0  0  0  0  0  0  0  0  0  0  0
  -24.1927  -20.0112   19.6551 C   0  0  0  0  0  0  0  0  0  0  0  0
  -26.4473  -13.3206   19.8977 C   0  0  0  0  0  0  0  0  0  0  0  0
  -30.6741  -15.3489   22.1930 C   0  0  0  0  0  0  0  0  0  0  0  0
  -31.3343  -16.3917   21.5527 C   0  0  0  0  0  0  0  0  0  0  0  0
  -23.7302  -27.8461   19.8474 C   0  0  0  0  0  0  0  0  0  0  0  0
  -28.6280  -12.3929   19.3554 C   0  0  0  0  0  0  0  0  0  0  0  0
  -22.3889  -29.6496   19.1616 C   0  0  0  0  0  0  0  0  0  0  0  0
  -22.0753  -31.9469   17.6102 C   0  0  0  0  0  0  0  0  0  0  0  0
  -21.3702  -29.7156   18.2111 C   0  0  0  0  0  0  0  0  0  0  0  0
  -27.4133  -25.7815   19.5830 C   0  0  0  0  0  0  0  0  0  0  0  0
  -31.7256  -13.8318   20.6933 C   0  0  0  0  0  0  0  0  0  0  0  0
  -29.5479  -25.2626   19.4867 C   0  0  0  0  0  0  0  0  0  0  0  0
  -29.1067  -27.7137   19.7002 C   0  0  0  0  0  0  0  0  0  0  0  0
  -25.0574  -16.4334   19.9790 C   0  0  0  0  0  0  0  0  0  0  0  0
  -22.9416  -14.2509   21.1113 C   0  0  0  0  0  0  0  0  0  0  0  0
  -22.2879  -11.0025   21.9283 C   0  0  0  0  0  0  0  0  0  0  0  0
  -29.9769  -19.8828   21.2994 C   0  0  0  0  0  0  0  0  0  0  0  0
  -22.6469  -20.6384   21.5808 C   0  0  0  0  0  0  0  0  0  0  0  0
  -25.1591  -14.6592   18.1908 C   0  0  0  0  0  0  0  0  0  0  0  0
  -25.3398  -13.4954   20.9033 C   0  0  0  0  0  0  0  0  0  0  0  0
  -22.9991  -19.2832   22.1889 C   0  0  0  0  0  0  0  0  0  0  0  0
  -29.0659  -20.6129   17.8738 C   0  0  0  0  0  0  0  0  0  0  0  0
  -28.3392  -15.1078   23.2719 C   0  0  0  0  0  0  0  0  0  0  0  0
  -28.6151  -16.5747   23.1605 C   0  0  0  0  0  0  0  0  0  0  0  0
  -24.4692  -18.9556   21.9475 C   0  0  0  0  0  0  0  0  0  0  0  0
  -28.6707  -22.0874   17.9719 C   0  0  0  0  0  0  0  0  0  0  0  0
  -28.6289  -19.8397   19.1146 C   0  0  0  0  0  0  0  0  0  0  0  0
  -28.7385  -21.8751   20.4998 C   0  0  0  0  0  0  0  0  0  0  0  0
  -29.7571  -15.6100   23.3409 C   0  0  0  0  0  0  0  0  0  0  0  0
  -24.7741  -18.8606   20.4477 C   0  0  1  0  0  0  0  0  0  0  0  0
  -24.3804  -15.2396   19.3673 C   0  0  1  0  0  0  0  0  0  0  0  0
  -29.1725  -22.7159   19.2854 C   0  0  2  0  0  0  0  0  0  0  0  0
  -20.4834   -9.5317   22.8653 C   0  0  0  0  0  0  0  0  0  0  0  0
  -31.4696  -10.8154   18.3234 C   0  0  0  0  0  0  0  0  0  0  0  0
  -23.5231  -15.3234   23.9081 C   0  0  0  0  0  0  0  0  0  0  0  0
  -22.4680  -13.2552   24.8448 C   0  0  0  0  0  0  0  0  0  0  0  0
  -21.1129  -14.8274   23.4612 C   0  0  0  0  0  0  0  0  0  0  0  0
  -22.1721   -9.3744   19.4595 C   0  0  0  0  0  0  0  0  0  0  0  0
  -31.1644  -17.8107   21.9727 C   0  0  0  0  0  0  0  0  0  0  0  0
  -31.9609  -12.4245   20.1975 C   0  0  0  0  0  0  0  0  0  0  0  0
  -22.8587  -13.3809   22.3423 C   0  0  1  0  0  0  0  0  0  0  0  0
  -21.1125  -10.0987   21.6022 C   0  0  2  0  0  0  0  0  0  0  0  0
  -30.9636  -12.0202   19.1065 C   0  0  2  0  0  0  0  0  0  1  0  0
  -22.5126  -14.1949   23.6210 C   0  0  0  0  0  0  0  0  0  0  0  0
  -32.3845  -14.8192   20.0464 N   0  0  0  0  0  0  0  0  0  0  0  0
  -27.4294  -24.4505   19.4726 N   0  0  0  0  0  0  0  0  0  0  0  0
  -28.7414  -24.1650   19.4160 N   0  0  0  0  0  0  0  0  0  0  0  0
  -24.1741  -14.2679   20.4431 N   0  0  0  0  0  0  0  0  0  0  0  0
  -29.1549  -20.4792   20.3289 N   0  0  0  0  0  0  0  0  0  0  0  0
  -30.8929  -25.1553   19.4443 N   0  0  0  0  0  0  0  0  0  0  0  0
  -28.1117  -28.6951   19.8063 N   0  0  0  0  0  0  0  0  0  0  0  0
  -24.3125  -17.5957   19.9172 N   0  0  0  0  0  0  0  0  0  0  0  0
  -21.9039  -12.3228   22.0309 N   0  0  0  0  0  0  0  0  0  0  0  0
  -30.3200  -18.5566   21.0664 N   0  0  0  0  0  0  0  0  0  0  0  0
  -21.5551   -8.9618   20.7464 N   0  3  0  0  0  0  0  0  0  0  0  0
  -30.3120  -28.0610   19.6820 O   0  0  0  0  0  0  0  0  0  0  0  0
  -26.1724  -16.3090   20.4720 O   0  0  0  0  0  0  0  0  0  0  0  0
  -21.9472  -14.8861   20.7517 O   0  0  0  0  0  0  0  0  0  0  0  0
  -23.4316  -10.5790   22.0806 O   0  0  0  0  0  0  0  0  0  0  0  0
  -30.3802  -20.4892   22.2978 O   0  0  0  0  0  0  0  0  0  0  0  0
  -22.5453  -28.5103   19.9330 O   0  0  0  0  0  0  0  0  0  0  0  0
  -29.7232  -11.6722   19.7202 O   0  0  0  0  0  0  0  0  0  1  0  0
  -21.9240  -33.0505   16.8665 F   0  0  0  0  0  0  0  0  0  0  0  0
  -20.5383  -28.6791   18.0393 F   0  0  0  0  0  0  0  0  0  0  0  0
  1  2  1  0  0  0  0
  1  5  2  0  0  0  0
  2  6  2  0  0  0  0
  3  8  2  0  0  0  0
  3 17  1  0  0  0  0
  4  9  1  0  0  0  0
  4 17  2  0  0  0  0
  5 19  1  0  0  0  0
  6 21  1  0  0  0  0
  7 10  2  0  0  0  0
  7 20  1  0  0  0  0
  8 25  1  0  0  0  0
  9 25  2  0  0  0  0
 10 26  1  0  0  0  0
 11 12  2  0  0  0  0
 11 27  1  0  0  0  0
 12 28  1  0  0  0  0
 13 22  1  0  0  0  0
 13 26  2  0  0  0  0
 14 23  2  0  0  0  0
 14 31  1  0  0  0  0
 15 28  2  0  0  0  0
 15 29  1  0  0  0  0
 16 24  2  0  0  0  0
 16 65  1  0  0  0  0
 17 30  1  0  0  0  0
 18 30  1  0  0  0  0
 18 32  2  0  0  0  0
 18 33  1  0  0  0  0
 19 21  2  0  0  0  0
 19 38  1  0  0  0  0
 20 22  2  0  0  0  0
 20 39  1  0  0  0  0
 21 50  1  0  0  0  0
 22 40  1  0  0  0  0
 23 24  1  0  0  0  0
 23 49  1  0  0  0  0
 24 59  1  0  0  0  0
 25 81  1  0  0  0  0
 26 82  1  0  0  0  0
 27 29  2  0  0  0  0
 27 81  1  0  0  0  0
 28 83  1  0  0  0  0
 29 84  1  0  0  0  0
 30 66  2  0  0  0  0
 31 60  1  0  0  0  0
 31 65  2  0  0  0  0
 32 67  1  0  0  0  0
 32 70  1  0  0  0  0
 33 71  1  0  0  0  0
 33 76  2  0  0  0  0
 34 51  1  0  0  0  0
 34 72  1  0  0  0  0
 34 77  2  0  0  0  0
 35 61  1  0  0  0  0
 35 68  1  0  0  0  0
 35 78  2  0  0  0  0
 36 62  1  0  0  0  0
 36 73  1  0  0  0  0
 36 79  2  0  0  0  0
 37 69  1  0  0  0  0
 37 74  1  0  0  0  0
 37 80  2  0  0  0  0
 38 41  1  0  0  0  0
 39 51  1  0  0  0  0
 40 68  1  0  0  0  0
 41 45  1  0  0  0  0
 42 46  1  0  0  0  0
 42 47  1  0  0  0  0
 43 44  1  0  0  0  0
 43 49  1  0  0  0  0
 44 49  1  0  0  0  0
 45 50  1  0  0  0  0
 46 52  1  0  0  0  0
 47 69  1  0  0  0  0
 48 52  1  0  0  0  0
 48 69  1  0  0  0  0
 50 72  1  0  0  0  0
 51 68  1  0  0  0  0
 52 67  1  0  0  0  0
 53 62  1  0  0  0  0
 54 63  1  0  0  0  0
 55 64  1  0  0  0  0
 56 64  1  0  0  0  0
 57 64  1  0  0  0  0
 58 75  1  0  0  0  0
 59 74  1  0  0  0  0
 60 63  1  0  0  0  0
 61 64  1  0  0  0  0
 61 73  1  0  0  0  0
 62 75  1  0  0  0  0
 63 82  1  0  0  0  0
 66 67  1  0  0  0  0
M  CHG  1  75   1
M  ISO  4  37 100  63 101  74 100  82 101
M  END
> <Batch ID>
0117

> <Smiles>
CNC(C)C(=O)NC(C(=O)N1Cc2cc([101O:1][101CH:1](C)Cc3cc(C4CC4)c(C[100NH:0][100C:0](=O)N4CCCC(n5nc(-c6ccc(Oc7ccc(F)cc7F)cc6)c(C(N)=O)c5N)C4)cn3)ccc2CC1C(=O)NC1CCCc2ccccc21)C(C)(C)C

> <Shape>
0.253

> <Color>
0.068

> <Negative vol penalty>
0.000

$$$$

  -OEChem-04052320153D

 81 89  0     1  0  0  0  0  0999 V2000
  -27.2379  -22.9825   13.5382 C   0  0  0  0  0  0  0  0  0  0  0  0
  -26.9686  -24.0428   14.3962 C   0  0  0  0  0  0  0  0  0  0  0  0
  -26.4199  -18.5166   22.2445 C   0  0  0  0  0  0  0  0  0  0  0  0
  -25.6313  -19.1992   20.0653 C   0  0  0  0  0  0  0  0  0  0  0  0
  -28.2487  -22.0764   13.8519 C   0  0  0  0  0  0  0  0  0  0  0  0
  -27.7179  -24.2041   15.5622 C   0  0  0  0  0  0  0  0  0  0  0  0
  -26.9610  -28.3882   18.1911 C   0  0  0  0  0  0  0  0  0  0  0  0
  -26.1614  -17.1847   21.9210 C   0  0  0  0  0  0  0  0  0  0  0  0
  -25.3727  -17.8672   19.7417 C   0  0  0  0  0  0  0  0  0  0  0  0
  -25.8110  -28.6374   18.9389 C   0  0  0  0  0  0  0  0  0  0  0  0
  -26.0469  -13.5717   21.5362 C   0  0  0  0  0  0  0  0  0  0  0  0
  -27.0204  -12.6257   21.8568 C   0  0  0  0  0  0  0  0  0  0  0  0
  -27.0061  -28.0680   20.9552 C   0  0  0  0  0  0  0  0  0  0  0  0
  -28.6063  -13.7793   20.4457 C   0  0  0  0  0  0  0  0  0  0  0  0
  -26.1548  -19.5239   21.3167 C   0  0  0  0  0  0  0  0  0  0  0  0
  -27.6185  -21.6096   21.4393 C   0  0  0  0  0  0  0  0  0  0  0  0
  -29.0019  -22.2203   15.0288 C   0  0  0  0  0  0  0  0  0  0  0  0
  -28.1417  -27.9663   18.8193 C   0  0  0  0  0  0  0  0  0  0  0  0
  -28.7582  -23.3138   15.8844 C   0  0  0  0  0  0  0  0  0  0  0  0
  -28.1709  -27.8188   20.2137 C   0  0  0  0  0  0  0  0  0  0  0  0
  -25.6378  -16.8600   20.6696 C   0  0  0  0  0  0  0  0  0  0  0  0
  -25.8328  -28.4751   20.3209 C   0  0  0  0  0  0  0  0  0  0  0  0
  -26.3530  -14.6215   20.6702 C   0  0  0  0  0  0  0  0  0  0  0  0
  -28.3001  -12.7295   21.3117 C   0  0  0  0  0  0  0  0  0  0  0  0
  -27.6327  -14.7253   20.1250 C   0  0  0  0  0  0  0  0  0  0  0  0
  -26.4212  -20.9000   21.6506 C   0  0  0  0  0  0  0  0  0  0  0  0
  -27.3620  -22.8683   21.9254 C   0  0  0  0  0  0  0  0  0  0  0  0
  -28.8523  -21.1703   20.8557 C   0  0  0  0  0  0  0  0  0  0  0  0
  -30.0521  -25.4017   18.6825 C   0  0  0  0  0  0  0  0  0  0  0  0
  -31.8604  -27.2856   20.7402 C   0  0  0  0  0  0  0  0  0  0  0  0
  -34.0730  -25.0477   20.7144 C   0  0  0  0  0  0  0  0  0  0  0  0
  -22.1764  -25.7567   22.5306 C   0  0  0  0  0  0  0  0  0  0  0  0
  -30.0893  -21.2150   15.3155 C   0  0  0  0  0  0  0  0  0  0  0  0
  -29.3802  -27.7320   17.9974 C   0  0  0  0  0  0  0  0  0  0  0  0
  -29.4136  -27.3721   20.9353 C   0  0  0  0  0  0  0  0  0  0  0  0
  -30.5253  -21.2114   16.7770 C   0  0  0  0  0  0  0  0  0  0  0  0
  -18.4897  -26.9336   23.0878 C   0  0  0  0  0  0  0  0  0  0  0  0
  -24.7247  -25.1839   25.1490 C   0  0  0  0  0  0  0  0  0  0  0  0
  -30.8091  -22.6331   17.2383 C   0  0  0  0  0  0  0  0  0  0  0  0
  -25.5179  -24.0338   24.5369 C   0  0  0  0  0  0  0  0  0  0  0  0
  -19.3280  -26.7938   21.8015 C   0  0  0  0  0  0  0  0  0  0  0  0
  -19.3633  -28.1485   23.4587 C   0  0  0  0  0  0  0  0  0  0  0  0
  -23.2439  -25.1248   24.7757 C   0  0  0  0  0  0  0  0  0  0  0  0
  -23.8013  -23.8993   22.6919 C   0  0  0  0  0  0  0  0  0  0  0  0
  -29.5397  -23.4919   17.1735 C   0  0  1  0  0  0  0  0  0  0  0  0
  -30.4200  -26.8583   18.6961 C   0  0  1  0  0  0  0  0  0  0  0  0
  -25.3005  -23.9755   23.0176 C   0  0  2  0  0  0  0  0  0  0  0  0
  -20.4610  -27.5797   22.5177 C   0  0  0  0  0  0  0  0  0  0  0  0
  -36.0991  -23.5707   20.8195 C   0  0  0  0  0  0  0  0  0  0  0  0
  -24.1171  -31.0959   22.6075 C   0  0  0  0  0  0  0  0  0  0  0  0
  -32.5026  -29.2932   18.5350 C   0  0  0  0  0  0  0  0  0  0  0  0
  -34.8106  -28.3291   18.4267 C   0  0  0  0  0  0  0  0  0  0  0  0
  -34.0107  -29.4126   20.5264 C   0  0  0  0  0  0  0  0  0  0  0  0
  -33.7696  -24.6425   23.6304 C   0  0  0  0  0  0  0  0  0  0  0  0
  -22.2239  -29.3881   22.4997 C   0  0  0  0  0  0  0  0  0  0  0  0
  -23.8089  -29.7026   20.5513 C   0  0  0  0  0  0  0  0  0  1  0  0
  -33.0813  -27.1567   19.8641 C   0  0  1  0  0  0  0  0  0  0  0  0
  -35.2017  -24.5290   21.5871 C   0  0  2  0  0  0  0  0  0  0  0  0
  -21.2057  -28.5951   21.6731 C   0  0  2  0  0  0  0  0  0  0  0  0
  -23.0889  -30.3989   21.7159 C   0  0  2  0  0  0  0  0  0  0  0  0
  -33.5785  -28.5313   19.3343 C   0  0  0  0  0  0  0  0  0  0  0  0
  -25.4745  -21.6459   22.2262 N   0  0  0  0  0  0  0  0  0  0  0  0
  -26.0768  -22.8372   22.3809 N   0  0  0  0  0  0  0  0  0  0  0  0
  -30.6149  -27.2387   20.1009 N   0  0  0  0  0  0  0  0  0  0  0  0
  -23.0531  -24.9938   23.3224 N   0  0  0  0  0  0  0  0  0  0  0  0
  -28.1127  -23.9876   22.0035 N   0  0  0  0  0  0  0  0  0  0  0  0
  -28.9452  -19.8454   20.4080 N   0  0  0  0  0  0  0  0  0  0  0  0
  -29.8918  -24.8737   17.4156 N   0  0  0  0  0  0  0  0  0  0  0  0
  -34.0706  -26.4249   20.6477 N   0  0  0  0  0  0  0  0  0  0  0  0
  -21.4242  -26.7130   23.2059 N   0  0  0  0  0  0  0  0  0  0  0  0
  -34.6524  -23.8112   22.7720 N   0  3  0  0  0  0  0  0  0  0  0  0
  -29.8483  -21.9254   20.7498 O   0  0  0  0  0  0  0  0  0  0  0  0
  -29.9247  -24.8008   19.7429 O   0  0  0  0  0  0  0  0  0  0  0  0
  -32.0044  -27.4317   21.9572 O   0  0  0  0  0  0  0  0  0  0  0  0
  -33.2757  -24.3053   20.1456 O   0  0  0  0  0  0  0  0  0  0  0  0
  -22.0617  -25.5976   21.3105 O   0  0  0  0  0  0  0  0  0  0  0  0
  -20.2554  -29.5265   21.1535 O   0  0  0  0  0  0  0  0  0  0  0  0
  -25.3856  -15.5604   20.3534 O   0  0  0  0  0  0  0  0  0  0  0  0
  -24.7119  -28.7181   21.0532 O   0  0  0  0  0  0  0  0  0  1  0  0
  -29.2353  -11.8218   21.6209 F   0  0  0  0  0  0  0  0  0  0  0  0
  -27.9331  -15.7323   19.2934 F   0  0  0  0  0  0  0  0  0  0  0  0
  1  2  1  0  0  0  0
  1  5  2  0  0  0  0
  2  6  2  0  0  0  0
  3  8  2  0  0  0  0
  3 15  1  0  0  0  0
  4  9  1  0  0  0  0
  4 15  2  0  0  0  0
  5 17  1  0  0  0  0
  6 19  1  0  0  0  0
  7 10  2  0  0  0  0
  7 18  1  0  0  0  0
  8 21  1  0  0  0  0
  9 21  2  0  0  0  0
 10 22  1  0  0  0  0
 11 12  2  0  0  0  0
 11 23  1  0  0  0  0
 12 24  1  0  0  0  0
 13 20  1  0  0  0  0
 13 22  2  0  0  0  0
 14 24  2  0  0  0  0
 14 25  1  0  0  0  0
 15 26  1  0  0  0  0
 16 26  1  0  0  0  0
 16 27  2  0  0  0  0
 16 28  1  0  0  0  0
 17 19  2  0  0  0  0
 17 33  1  0  0  0  0
 18 20  2  0  0  0  0
 18 34  1  0  0  0  0
 19 45  1  0  0  0  0
 20 35  1  0  0  0  0
 21 78  1  0  0  0  0
 22 79  1  0  0  0  0
 23 25  2  0  0  0  0
 23 78  1  0  0  0  0
 24 80  1  0  0  0  0
 25 81  1  0  0  0  0
 26 62  2  0  0  0  0
 27 63  1  0  0  0  0
 27 66  1  0  0  0  0
 28 67  1  0  0  0  0
 28 72  2  0  0  0  0
 29 46  1  0  0  0  0
 29 68  1  0  0  0  0
 29 73  2  0  0  0  0
 30 57  1  0  0  0  0
 30 64  1  0  0  0  0
 30 74  2  0  0  0  0
 31 58  1  0  0  0  0
 31 69  1  0  0  0  0
 31 75  2  0  0  0  0
 32 65  1  0  0  0  0
 32 70  1  0  0  0  0
 32 76  2  0  0  0  0
 33 36  1  0  0  0  0
 34 46  1  0  0  0  0
 35 64  1  0  0  0  0
 36 39  1  0  0  0  0
 37 41  1  0  0  0  0
 37 42  1  0  0  0  0
 38 40  1  0  0  0  0
 38 43  1  0  0  0  0
 39 45  1  0  0  0  0
 40 47  1  0  0  0  0
 41 48  1  0  0  0  0
 42 48  1  0  0  0  0
 43 65  1  0  0  0  0
 44 47  1  0  0  0  0
 44 65  1  0  0  0  0
 45 68  1  0  0  0  0
 46 64  1  0  0  0  0
 47 63  1  0  0  0  0
 48 59  1  0  0  0  0
 48 70  1  0  0  0  0
 49 58  1  0  0  0  0
 50 60  1  0  0  0  0
 51 61  1  0  0  0  0
 52 61  1  0  0  0  0
 53 61  1  0  0  0  0
 54 71  1  0  0  0  0
 55 59  1  0  0  0  0
 55 60  1  0  0  0  0
 56 60  1  0  0  0  0
 56 79  1  0  0  0  0
 57 61  1  0  0  0  0
 57 69  1  0  0  0  0
 58 71  1  0  0  0  0
 59 77  1  0  0  0  0
 62 63  1  0  0  0  0
M  CHG  1  71   1
M  ISO  4  32 100  56 101  70 100  79 101
M  END
> <Batch ID>
0117

> <Smiles>
CNC(C)C(=O)NC(C(=O)N1Cc2cc([101O:1][101CH2:1]C(C)CC(O)C3([100NH:0][100C:0](=O)N4CCCC(n5nc(-c6ccc(Oc7ccc(F)cc7F)cc6)c(C(N)=O)c5N)C4)CCC3)ccc2CC1C(=O)NC1CCCc2ccccc21)C(C)(C)C

> <Shape>
0.220

> <Color>
0.047

> <Negative vol penalty>
0.000

$$$$

  -OEChem-04052320153D

 91 99  0     1  0  0  0  0  0999 V2000
  -23.1291  -23.2929   32.0594 C   0  0  0  0  0  0  0  0  0  0  0  0
  -23.0870  -23.1919   30.6725 C   0  0  0  0  0  0  0  0  0  0  0  0
  -23.0750   -9.8691   19.9413 C   0  0  0  0  0  0  0  0  0  0  0  0
  -23.8389   -9.8746   22.2334 C   0  0  0  0  0  0  0  0  0  0  0  0
  -24.0325  -24.1641   32.6667 C   0  0  0  0  0  0  0  0  0  0  0  0
  -23.9477  -23.9629   29.8920 C   0  0  0  0  0  0  0  0  0  0  0  0
  -26.0963  -21.2993   26.1592 C   0  0  0  0  0  0  0  0  0  0  0  0
  -22.3323   -8.7152   20.1915 C   0  0  0  0  0  0  0  0  0  0  0  0
  -23.0961   -8.7207   22.4836 C   0  0  0  0  0  0  0  0  0  0  0  0
  -25.3177  -21.0404   25.0321 C   0  0  0  0  0  0  0  0  0  0  0  0
  -19.8695   -7.9203   23.0910 C   0  0  0  0  0  0  0  0  0  0  0  0
  -19.1146   -7.8789   24.2631 C   0  0  0  0  0  0  0  0  0  0  0  0
  -26.4098  -22.8500   23.8695 C   0  0  0  0  0  0  0  0  0  0  0  0
  -27.0128  -18.6469   19.6025 C   0  0  0  0  0  0  0  0  0  0  0  0
  -20.3585   -5.9416   24.9958 C   0  0  0  0  0  0  0  0  0  0  0  0
  -28.3874  -18.8458   21.9512 C   0  0  0  0  0  0  0  0  0  0  0  0
  -23.8284  -10.4487   20.9622 C   0  0  0  0  0  0  0  0  0  0  0  0
  -24.1684  -12.9742   20.8438 C   0  0  0  0  0  0  0  0  0  0  0  0
  -24.9113  -24.9390   31.8935 C   0  0  0  0  0  0  0  0  0  0  0  0
  -27.0313  -22.3443   26.1537 C   0  0  0  0  0  0  0  0  0  0  0  0
  -24.8628  -24.8463   30.4895 C   0  0  0  0  0  0  0  0  0  0  0  0
  -27.2008  -23.1185   24.9970 C   0  0  0  0  0  0  0  0  0  0  0  0
  -28.3611  -18.3088   19.6344 C   0  0  0  0  0  0  0  0  0  0  0  0
  -29.0687  -18.4073   20.8272 C   0  0  0  0  0  0  0  0  0  0  0  0
  -22.3428   -8.1411   21.4627 C   0  0  0  0  0  0  0  0  0  0  0  0
  -25.4723  -21.8176   23.8879 C   0  0  0  0  0  0  0  0  0  0  0  0
  -20.8689   -6.9723   22.8712 C   0  0  0  0  0  0  0  0  0  0  0  0
  -19.3591   -6.8896   25.2156 C   0  0  0  0  0  0  0  0  0  0  0  0
  -21.1134   -5.9830   23.8236 C   0  0  0  0  0  0  0  0  0  0  0  0
  -24.5962  -11.6403   20.7042 C   0  0  0  0  0  0  0  0  0  0  0  0
  -26.4234  -19.0745   20.7813 C   0  0  0  0  0  0  0  0  0  0  0  0
  -25.2594  -13.7247   20.4793 C   0  0  0  0  0  0  0  0  0  0  0  0
  -22.8983  -13.4888   21.2653 C   0  0  0  0  0  0  0  0  0  0  0  0
  -27.4052  -25.0287   27.8144 C   0  0  0  0  0  0  0  0  0  0  0  0
  -30.1878  -25.2069   26.1567 C   0  0  0  0  0  0  0  0  0  0  0  0
  -31.9694  -24.3241   23.3831 C   0  0  0  0  0  0  0  0  0  0  0  0
  -30.7428  -14.7471   20.6591 C   0  0  0  0  0  0  0  0  0  0  0  0
  -25.8378  -25.9016   32.5934 C   0  0  0  0  0  0  0  0  0  0  0  0
  -27.8823  -22.5936   27.3686 C   0  0  0  0  0  0  0  0  0  0  0  0
  -28.2051  -24.2391   24.9329 C   0  0  0  0  0  0  0  0  0  0  0  0
  -26.9738  -26.4067   31.7076 C   0  0  0  0  0  0  0  0  0  0  0  0
  -29.6027  -12.3639   18.2722 C   0  0  0  0  0  0  0  0  0  0  0  0
  -26.4387  -26.8315   30.3437 C   0  0  0  0  0  0  0  0  0  0  0  0
  -28.1661  -12.0689   18.7074 C   0  0  0  0  0  0  0  0  0  0  0  0
  -30.5217  -12.5843   19.4717 C   0  0  0  0  0  0  0  0  0  0  0  0
  -28.6219  -13.3129   20.8622 C   0  0  0  0  0  0  0  0  0  0  0  0
  -25.7974  -25.6478   29.6096 C   0  0  1  0  0  0  0  0  0  0  0  0
  -28.4411  -24.0120   27.4259 C   0  0  1  0  0  0  0  0  0  0  0  0
  -27.6458  -13.1387   19.6861 C   0  0  2  0  0  0  0  0  0  0  0  0
  -31.3803  -19.2779   21.2993 C   0  0  0  0  0  0  0  0  0  0  0  0
  -29.5877  -18.9922   17.5422 C   0  0  0  0  0  0  0  0  0  0  0  0
  -33.9488  -24.1224   21.8538 C   0  0  0  0  0  0  0  0  0  0  0  0
  -25.4957  -15.8000   17.2970 C   0  0  0  0  0  0  0  0  0  0  0  0
  -29.3495  -28.0114   25.2951 C   0  0  0  0  0  0  0  0  0  0  0  0
  -31.0938  -27.9064   23.5021 C   0  0  0  0  0  0  0  0  0  0  0  0
  -31.7651  -27.7848   25.9016 C   0  0  0  0  0  0  0  0  0  0  0  0
  -32.8671  -21.8225   24.6852 C   0  0  0  0  0  0  0  0  0  0  0  0
  -24.9631  -19.4499   20.7842 C   0  0  0  0  0  0  0  0  0  0  0  0
  -24.7060  -20.9262   20.4746 C   0  0  0  0  0  0  0  0  0  0  0  0
  -30.8094  -16.8966   21.8978 C   0  0  0  0  0  0  0  0  0  0  0  0
  -27.2997  -14.8861   15.7542 C   0  0  0  0  0  0  0  0  0  0  0  0
  -25.2898  -21.8724   21.5173 C   0  0  0  0  0  0  0  0  0  1  0  0
  -27.9091  -15.8028   18.0503 C   0  0  0  0  0  0  0  0  0  0  0  0
  -30.5139  -18.0586   20.9173 C   0  0  1  0  0  0  0  0  0  0  0  0
  -29.0257  -17.8440   18.3811 C   0  0  2  0  0  0  0  0  0  0  0  0
  -30.6090  -25.8048   24.8361 C   0  0  1  0  0  0  0  0  0  0  0  0
  -33.3777  -23.7808   23.2212 C   0  0  2  0  0  0  0  0  0  0  0  0
  -26.8486  -15.0854   17.2057 C   0  0  1  0  0  0  0  0  0  0  0  0
  -30.6840  -27.3570   24.8853 C   0  0  0  0  0  0  0  0  0  0  0  0
  -27.0783  -19.1831   21.9590 N   0  0  0  0  0  0  0  0  0  0  0  0
  -25.8604  -11.5456   20.2836 N   0  0  0  0  0  0  0  0  0  0  0  0
  -26.2363  -12.8296   20.1558 N   0  0  0  0  0  0  0  0  0  0  0  0
  -29.0090  -24.4478   26.1485 N   0  0  0  0  0  0  0  0  0  0  0  0
  -29.9720  -13.6117   20.3596 N   0  0  0  0  0  0  0  0  0  0  0  0
  -25.4688  -15.0563   20.4071 N   0  0  0  0  0  0  0  0  0  0  0  0
  -21.8875  -12.5787   21.6036 N   0  0  0  0  0  0  0  0  0  0  0  0
  -26.8176  -24.7921   29.0425 N   0  0  0  0  0  0  0  0  0  0  0  0
  -31.8659  -25.1569   24.4771 N   0  0  0  0  0  0  0  0  0  0  0  0
  -30.1445  -15.6748   21.5030 N   0  0  0  0  0  0  0  0  0  0  0  0
  -27.4318  -16.1722   15.0296 N   0  3  0  0  0  0  0  0  0  0  0  0
  -33.3820  -22.2986   23.3755 N   0  3  0  0  0  0  0  0  0  0  0  0
  -22.6613  -14.7193   21.3241 O   0  0  0  0  0  0  0  0  0  0  0  0
  -27.1584  -25.9597   27.0567 O   0  0  0  0  0  0  0  0  0  0  0  0
  -30.8829  -25.4003   27.1573 O   0  0  0  0  0  0  0  0  0  0  0  0
  -31.0538  -24.0411   22.6137 O   0  0  0  0  0  0  0  0  0  0  0  0
  -31.8779  -14.9237   20.2037 O   0  0  0  0  0  0  0  0  0  0  0  0
  -21.6180   -7.0153   21.7073 O   0  0  0  0  0  0  0  0  0  0  0  0
  -24.7132  -21.5675   22.7865 O   0  0  0  0  0  0  0  0  0  1  0  0
  -28.0730  -17.1314   17.5845 O   0  0  0  0  0  0  0  0  0  0  0  0
  -18.6351   -6.8508   26.3418 F   0  0  0  0  0  0  0  0  0  0  0  0
  -22.0729   -5.0703   23.6185 F   0  0  0  0  0  0  0  0  0  0  0  0
  1  2  1  0  0  0  0
  1  5  2  0  0  0  0
  2  6  2  0  0  0  0
  3  8  2  0  0  0  0
  3 17  1  0  0  0  0
  4  9  1  0  0  0  0
  4 17  2  0  0  0  0
  5 19  1  0  0  0  0
  6 21  1  0  0  0  0
  7 10  2  0  0  0  0
  7 20  1  0  0  0  0
  8 25  1  0  0  0  0
  9 25  2  0  0  0  0
 10 26  1  0  0  0  0
 11 12  2  0  0  0  0
 11 27  1  0  0  0  0
 12 28  1  0  0  0  0
 13 22  1  0  0  0  0
 13 26  2  0  0  0  0
 14 23  2  0  0  0  0
 14 31  1  0  0  0  0
 15 28  2  0  0  0  0
 15 29  1  0  0  0  0
 16 24  2  0  0  0  0
 16 70  1  0  0  0  0
 17 30  1  0  0  0  0
 18 30  1  0  0  0  0
 18 32  2  0  0  0  0
 18 33  1  0  0  0  0
 19 21  2  0  0  0  0
 19 38  1  0  0  0  0
 20 22  2  0  0  0  0
 20 39  1  0  0  0  0
 21 47  1  0  0  0  0
 22 40  1  0  0  0  0
 23 24  1  0  0  0  0
 23 65  1  0  0  0  0
 24 64  1  0  0  0  0
 25 87  1  0  0  0  0
 26 88  1  0  0  0  0
 27 29  2  0  0  0  0
 27 87  1  0  0  0  0
 28 90  1  0  0  0  0
 29 91  1  0  0  0  0
 30 71  2  0  0  0  0
 31 58  1  0  0  0  0
 31 70  2  0  0  0  0
 32 72  1  0  0  0  0
 32 75  1  0  0  0  0
 33 76  1  0  0  0  0
 33 82  2  0  0  0  0
 34 48  1  0  0  0  0
 34 77  1  0  0  0  0
 34 83  2  0  0  0  0
 35 66  1  0  0  0  0
 35 73  1  0  0  0  0
 35 84  2  0  0  0  0
 36 67  1  0  0  0  0
 36 78  1  0  0  0  0
 36 85  2  0  0  0  0
 37 74  1  0  0  0  0
 37 79  1  0  0  0  0
 37 86  2  0  0  0  0
 38 41  1  0  0  0  0
 39 48  1  0  0  0  0
 40 73  1  0  0  0  0
 41 43  1  0  0  0  0
 42 44  1  0  0  0  0
 42 45  1  0  0  0  0
 43 47  1  0  0  0  0
 44 49  1  0  0  0  0
 45 74  1  0  0  0  0
 46 49  1  0  0  0  0
 46 74  1  0  0  0  0
 47 77  1  0  0  0  0
 48 73  1  0  0  0  0
 49 72  1  0  0  0  0
 50 64  1  0  0  0  0
 51 65  1  0  0  0  0
 52 67  1  0  0  0  0
 53 68  1  0  0  0  0
 54 69  1  0  0  0  0
 55 69  1  0  0  0  0
 56 69  1  0  0  0  0
 57 81  1  0  0  0  0
 58 59  1  0  0  0  0
 59 62  1  0  0  0  0
 60 64  1  0  0  0  0
 60 79  1  0  0  0  0
 61 68  1  0  0  0  0
 61 80  1  0  0  0  0
 62 88  1  0  0  0  0
 63 68  1  0  0  0  0
 63 89  1  0  0  0  0
 65 89  1  0  0  0  0
 66 69  1  0  0  0  0
 66 78  1  0  0  0  0
 67 81  1  0  0  0  0
 71 72  1  0  0  0  0
M  CHG  2  80   1  81   1
M  ISO  4  37 100  62 101  79 100  88 101
M  END
> <Batch ID>
0117

> <Smiles>
CNC(C)C(=O)NC(C(=O)N1Cc2cc([101O:1][101CH2:1]CCc3cc(C(C)OCC(C)CN)c(C(C)C[100NH:0][100C:0](=O)N4CCCC(n5nc(-c6ccc(Oc7ccc(F)cc7F)cc6)c(C(N)=O)c5N)C4)cn3)ccc2CC1C(=O)NC1CCCc2ccccc21)C(C)(C)C

> <Shape>
0.196

> <Color>
0.176

> <Negative vol penalty>
0.000

$$$$

  -OEChem-04052320153D

 82 90  0     1  0  0  0  0  0999 V2000
  -18.3941  -25.1070   23.5353 C   0  0  0  0  0  0  0  0  0  0  0  0
  -19.4786  -24.9974   22.6708 C   0  0  0  0  0  0  0  0  0  0  0  0
  -26.3634  -15.8159   21.7101 C   0  0  0  0  0  0  0  0  0  0  0  0
  -26.1640  -15.9202   19.3046 C   0  0  0  0  0  0  0  0  0  0  0  0
  -17.8653  -26.3623   23.8327 C   0  0  0  0  0  0  0  0  0  0  0  0
  -20.0342  -26.1431   22.1023 C   0  0  0  0  0  0  0  0  0  0  0  0
  -25.9399  -27.1165   20.8059 C   0  0  0  0  0  0  0  0  0  0  0  0
  -26.1861  -14.4331   21.6649 C   0  0  0  0  0  0  0  0  0  0  0  0
  -25.9868  -14.5374   19.2594 C   0  0  0  0  0  0  0  0  0  0  0  0
  -26.6702  -27.0116   19.6229 C   0  0  0  0  0  0  0  0  0  0  0  0
  -27.9233  -11.7728   19.4267 C   0  0  0  0  0  0  0  0  0  0  0  0
  -28.6335  -11.0612   18.4599 C   0  0  0  0  0  0  0  0  0  0  0  0
  -26.3850  -29.3768   19.2440 C   0  0  0  0  0  0  0  0  0  0  0  0
  -26.5551  -10.2778   17.5096 C   0  0  0  0  0  0  0  0  0  0  0  0
  -24.8933  -24.9626   15.3314 C   0  0  0  0  0  0  0  0  0  0  0  0
  -23.3918  -26.5187   16.2148 C   0  0  0  0  0  0  0  0  0  0  0  0
  -26.3523  -16.5595   20.5300 C   0  0  0  0  0  0  0  0  0  0  0  0
  -27.7516  -18.6923   20.5056 C   0  0  0  0  0  0  0  0  0  0  0  0
  -18.4208  -27.5247   23.2752 C   0  0  0  0  0  0  0  0  0  0  0  0
  -25.4165  -28.3525   21.2119 C   0  0  0  0  0  0  0  0  0  0  0  0
  -19.5115  -27.4150   22.3915 C   0  0  0  0  0  0  0  0  0  0  0  0
  -25.6506  -29.4953   20.4339 C   0  0  0  0  0  0  0  0  0  0  0  0
  -25.9978  -13.7938   20.4396 C   0  0  0  0  0  0  0  0  0  0  0  0
  -26.8904  -28.1412   18.8403 C   0  0  0  0  0  0  0  0  0  0  0  0
  -26.5289  -11.7368   19.4350 C   0  0  0  0  0  0  0  0  0  0  0  0
  -24.5787  -26.2884   15.5497 C   0  0  0  0  0  0  0  0  0  0  0  0
  -27.9495  -10.3137   17.5013 C   0  0  0  0  0  0  0  0  0  0  0  0
  -25.8448  -10.9893   18.4764 C   0  0  0  0  0  0  0  0  0  0  0  0
  -26.5347  -17.9880   20.5761 C   0  0  0  0  0  0  0  0  0  0  0  0
  -27.3888  -20.0141   20.5921 C   0  0  0  0  0  0  0  0  0  0  0  0
  -22.9854  -24.2873   16.3662 C   0  0  0  0  0  0  0  0  0  0  0  0
  -29.0903  -18.1959   20.3736 C   0  0  0  0  0  0  0  0  0  0  0  0
  -22.4933  -29.4919   21.7222 C   0  0  0  0  0  0  0  0  0  0  0  0
  -24.1147  -32.0934   22.7832 C   0  0  0  0  0  0  0  0  0  0  0  0
  -26.9836  -33.9408   22.7269 C   0  0  0  0  0  0  0  0  0  0  0  0
  -22.3384  -22.9505   19.2798 C   0  0  0  0  0  0  0  0  0  0  0  0
  -17.7851  -28.8558   23.5893 C   0  0  0  0  0  0  0  0  0  0  0  0
  -24.6537  -28.4540   22.5043 C   0  0  0  0  0  0  0  0  0  0  0  0
  -25.1275  -30.8492   20.8359 C   0  0  0  0  0  0  0  0  0  0  0  0
  -18.6686  -30.0505   23.2392 C   0  0  0  0  0  0  0  0  0  0  0  0
  -24.0041  -22.8558   22.4251 C   0  0  0  0  0  0  0  0  0  0  0  0
  -19.2662  -29.8823   21.8458 C   0  0  0  0  0  0  0  0  0  0  0  0
  -24.9514  -21.6611   22.3015 C   0  0  0  0  0  0  0  0  0  0  0  0
  -22.6796  -22.6024   21.7085 C   0  0  0  0  0  0  0  0  0  0  0  0
  -23.7545  -21.0026   20.1725 C   0  0  0  0  0  0  0  0  0  0  0  0
  -20.1574  -28.6365   21.7745 C   0  0  1  0  0  0  0  0  0  0  0  0
  -23.7292  -29.6664   22.5588 C   0  0  1  0  0  0  0  0  0  0  0  0
  -25.1251  -21.2328   20.8319 C   0  0  2  0  0  0  0  0  0  0  0  0
  -27.9967  -36.0352   23.6674 C   0  0  0  0  0  0  0  0  0  0  0  0
  -22.4499  -33.7648   20.8481 C   0  0  0  0  0  0  0  0  0  0  0  0
  -24.1121  -35.6162   21.1266 C   0  0  0  0  0  0  0  0  0  0  0  0
  -22.8039  -34.8108   23.0920 C   0  0  0  0  0  0  0  0  0  0  0  0
  -29.1490  -32.4310   24.0649 C   0  0  0  0  0  0  0  0  0  0  0  0
  -22.1006  -23.1761   16.8197 C   0  0  0  0  0  0  0  0  0  0  0  0
  -27.5717  -28.3220   15.2886 C   0  0  0  0  0  0  0  0  0  0  0  0
  -27.2742  -28.9550   16.6388 C   0  0  0  0  0  0  0  0  0  1  0  0
  -26.7858  -27.0375   15.0770 C   0  0  0  0  0  0  0  0  0  0  0  0
  -24.6434  -33.3563   22.1472 C   0  0  1  0  0  0  0  0  0  0  0  0
  -27.8211  -34.5351   23.8449 C   0  0  2  0  0  0  0  0  0  0  0  0
  -23.5106  -34.3613   21.7946 C   0  0  0  0  0  0  0  0  0  0  0  0
  -24.1167  -23.9329   15.7276 N   0  0  0  0  0  0  0  0  0  0  0  0
  -22.5676  -25.5382   16.6388 N   0  0  0  0  0  0  0  0  0  0  0  0
  -25.4779  -18.7956   20.6982 N   0  0  0  0  0  0  0  0  0  0  0  0
  -26.0296  -20.0210   20.7052 N   0  0  0  0  0  0  0  0  0  0  0  0
  -24.3821  -30.8959   22.1047 N   0  0  0  0  0  0  0  0  0  0  0  0
  -22.9144  -22.2016   20.3192 N   0  0  0  0  0  0  0  0  0  0  0  0
  -28.1030  -21.1597   20.5819 N   0  0  0  0  0  0  0  0  0  0  0  0
  -29.2846  -16.8100   20.2982 N   0  0  0  0  0  0  0  0  0  0  0  0
  -21.4406  -28.8970   22.3910 N   0  0  0  0  0  0  0  0  0  0  0  0
  -25.6477  -33.8854   23.0637 N   0  0  0  0  0  0  0  0  0  0  0  0
  -22.6163  -22.5062   17.9928 N   0  0  0  0  0  0  0  0  0  0  0  0
  -29.1709  -33.9039   23.8725 N   0  3  0  0  0  0  0  0  0  0  0  0
  -30.0860  -18.9582   20.3405 O   0  0  0  0  0  0  0  0  0  0  0  0
  -22.4943  -29.8704   20.5567 O   0  0  0  0  0  0  0  0  0  0  0  0
  -23.4938  -32.1659   23.8466 O   0  0  0  0  0  0  0  0  0  0  0  0
  -27.4657  -33.5669   21.6600 O   0  0  0  0  0  0  0  0  0  0  0  0
  -21.6335  -23.9448   19.4834 O   0  0  0  0  0  0  0  0  0  0  0  0
  -25.8251  -12.4445   20.3950 O   0  0  0  0  0  0  0  0  0  0  0  0
  -27.6023  -28.0414   17.6849 O   0  0  0  0  0  0  0  0  0  1  0  0
  -25.3921  -27.3099   15.1329 O   0  0  0  0  0  0  0  0  0  0  0  0
  -28.6317   -9.6317   16.5720 F   0  0  0  0  0  0  0  0  0  0  0  0
  -24.5052  -10.9519   18.4786 F   0  0  0  0  0  0  0  0  0  0  0  0
  1  2  1  0  0  0  0
  1  5  2  0  0  0  0
  2  6  2  0  0  0  0
  3  8  2  0  0  0  0
  3 17  1  0  0  0  0
  4  9  1  0  0  0  0
  4 17  2  0  0  0  0
  5 19  1  0  0  0  0
  6 21  1  0  0  0  0
  7 10  2  0  0  0  0
  7 20  1  0  0  0  0
  8 23  1  0  0  0  0
  9 23  2  0  0  0  0
 10 24  1  0  0  0  0
 11 12  2  0  0  0  0
 11 25  1  0  0  0  0
 12 27  1  0  0  0  0
 13 22  1  0  0  0  0
 13 24  2  0  0  0  0
 14 27  2  0  0  0  0
 14 28  1  0  0  0  0
 15 26  1  0  0  0  0
 15 61  2  0  0  0  0
 16 26  2  0  0  0  0
 16 62  1  0  0  0  0
 17 29  1  0  0  0  0
 18 29  1  0  0  0  0
 18 30  2  0  0  0  0
 18 32  1  0  0  0  0
 19 21  2  0  0  0  0
 19 37  1  0  0  0  0
 20 22  2  0  0  0  0
 20 38  1  0  0  0  0
 21 46  1  0  0  0  0
 22 39  1  0  0  0  0
 23 78  1  0  0  0  0
 24 79  1  0  0  0  0
 25 28  2  0  0  0  0
 25 78  1  0  0  0  0
 26 80  1  0  0  0  0
 27 81  1  0  0  0  0
 28 82  1  0  0  0  0
 29 63  2  0  0  0  0
 30 64  1  0  0  0  0
 30 67  1  0  0  0  0
 31 54  1  0  0  0  0
 31 61  1  0  0  0  0
 31 62  2  0  0  0  0
 32 68  1  0  0  0  0
 32 73  2  0  0  0  0
 33 47  1  0  0  0  0
 33 69  1  0  0  0  0
 33 74  2  0  0  0  0
 34 58  1  0  0  0  0
 34 65  1  0  0  0  0
 34 75  2  0  0  0  0
 35 59  1  0  0  0  0
 35 70  1  0  0  0  0
 35 76  2  0  0  0  0
 36 66  1  0  0  0  0
 36 71  1  0  0  0  0
 36 77  2  0  0  0  0
 37 40  1  0  0  0  0
 38 47  1  0  0  0  0
 39 65  1  0  0  0  0
 40 42  1  0  0  0  0
 41 43  1  0  0  0  0
 41 44  1  0  0  0  0
 42 46  1  0  0  0  0
 43 48  1  0  0  0  0
 44 66  1  0  0  0  0
 45 48  1  0  0  0  0
 45 66  1  0  0  0  0
 46 69  1  0  0  0  0
 47 65  1  0  0  0  0
 48 64  1  0  0  0  0
 49 59  1  0  0  0  0
 50 60  1  0  0  0  0
 51 60  1  0  0  0  0
 52 60  1  0  0  0  0
 53 72  1  0  0  0  0
 54 71  1  0  0  0  0
 55 56  1  0  0  0  0
 55 57  1  0  0  0  0
 56 79  1  0  0  0  0
 57 80  1  0  0  0  0
 58 60  1  0  0  0  0
 58 70  1  0  0  0  0
 59 72  1  0  0  0  0
 63 64  1  0  0  0  0
M  CHG  1  72   1
M  ISO  4  36 100  56 101  71 100  79 101
M  END
> <Batch ID>
0117

> <Smiles>
CNC(C)C(=O)NC(C(=O)N1Cc2cc([101O:1][101CH2:1]CCOc3cnc(C[100NH:0][100C:0](=O)N4CCCC(n5nc(-c6ccc(Oc7ccc(F)cc7F)cc6)c(C(N)=O)c5N)C4)nc3)ccc2CC1C(=O)NC1CCCc2ccccc21)C(C)(C)C

> <Shape>
0.216

> <Color>
0.094

> <Negative vol penalty>
0.000

$$$$

  -OEChem-04052320153D

 85 93  0     1  0  0  0  0  0999 V2000
  -19.7753  -24.8982   24.3605 C   0  0  0  0  0  0  0  0  0  0  0  0
  -21.0900  -25.0342   23.9262 C   0  0  0  0  0  0  0  0  0  0  0  0
  -27.3597  -15.1909   21.8522 C   0  0  0  0  0  0  0  0  0  0  0  0
  -26.0447  -15.6767   19.8845 C   0  0  0  0  0  0  0  0  0  0  0  0
  -18.8174  -25.8390   23.9848 C   0  0  0  0  0  0  0  0  0  0  0  0
  -21.4472  -26.1106   23.1150 C   0  0  0  0  0  0  0  0  0  0  0  0
  -26.7827  -29.1170   23.1257 C   0  0  0  0  0  0  0  0  0  0  0  0
  -25.1995  -27.0826   18.6315 C   0  0  0  0  0  0  0  0  0  0  0  0
  -24.4392  -26.2031   19.4022 C   0  0  0  0  0  0  0  0  0  0  0  0
  -26.8124  -13.9088   21.9014 C   0  0  0  0  0  0  0  0  0  0  0  0
  -25.4974  -14.3946   19.9337 C   0  0  0  0  0  0  0  0  0  0  0  0
  -27.9145  -29.0220   22.3172 C   0  0  0  0  0  0  0  0  0  0  0  0
  -27.2537  -10.9498   20.3258 C   0  0  0  0  0  0  0  0  0  0  0  0
  -28.1226   -9.8824   20.5521 C   0  0  0  0  0  0  0  0  0  0  0  0
  -27.0968  -30.8471   20.9683 C   0  0  0  0  0  0  0  0  0  0  0  0
  -25.6150  -25.3210   17.0310 C   0  0  0  0  0  0  0  0  0  0  0  0
  -26.9029   -9.3150   22.5589 C   0  0  0  0  0  0  0  0  0  0  0  0
  -26.9758  -16.0748   20.8437 C   0  0  0  0  0  0  0  0  0  0  0  0
  -28.7057  -17.8013   20.1128 C   0  0  0  0  0  0  0  0  0  0  0  0
  -19.1651  -26.9328   23.1764 C   0  0  0  0  0  0  0  0  0  0  0  0
  -25.7925  -30.0722   22.8546 C   0  0  0  0  0  0  0  0  0  0  0  0
  -20.4927  -27.0662   22.7269 C   0  0  0  0  0  0  0  0  0  0  0  0
  -25.9545  -30.9539   21.7764 C   0  0  0  0  0  0  0  0  0  0  0  0
  -25.7874  -26.6416   17.4459 C   0  0  0  0  0  0  0  0  0  0  0  0
  -24.2668  -24.8825   18.9874 C   0  0  0  0  0  0  0  0  0  0  0  0
  -24.8547  -24.4415   17.8018 C   0  0  0  0  0  0  0  0  0  0  0  0
  -25.8813  -13.5107   20.9422 C   0  0  0  0  0  0  0  0  0  0  0  0
  -28.0703  -29.8852   21.2366 C   0  0  0  0  0  0  0  0  0  0  0  0
  -26.2095  -11.1999   21.2162 C   0  0  0  0  0  0  0  0  0  0  0  0
  -27.9472   -9.0649   21.6686 C   0  0  0  0  0  0  0  0  0  0  0  0
  -26.0341  -10.3825   22.3327 C   0  0  0  0  0  0  0  0  0  0  0  0
  -27.5403  -17.3995   20.7927 C   0  0  0  0  0  0  0  0  0  0  0  0
  -28.8095  -19.1457   20.3743 C   0  0  0  0  0  0  0  0  0  0  0  0
  -29.6132  -17.0284   19.3160 C   0  0  0  0  0  0  0  0  0  0  0  0
  -22.7099  -29.9523   22.0884 C   0  0  0  0  0  0  0  0  0  0  0  0
  -22.9053  -33.1743   22.4087 C   0  0  0  0  0  0  0  0  0  0  0  0
  -24.8525  -35.9768   22.3713 C   0  0  0  0  0  0  0  0  0  0  0  0
  -24.7899  -23.3398   21.8245 C   0  0  0  0  0  0  0  0  0  0  0  0
  -18.0849  -27.8982   22.7573 C   0  0  0  0  0  0  0  0  0  0  0  0
  -24.5903  -30.1795   23.7522 C   0  0  0  0  0  0  0  0  0  0  0  0
  -24.9302  -32.0102   21.4549 C   0  0  0  0  0  0  0  0  0  0  0  0
  -18.6253  -29.2143   22.2040 C   0  0  0  0  0  0  0  0  0  0  0  0
  -27.6837  -22.4150   23.6811 C   0  0  0  0  0  0  0  0  0  0  0  0
  -19.7443  -28.9523   21.2010 C   0  0  0  0  0  0  0  0  0  0  0  0
  -28.0803  -21.0610   23.0900 C   0  0  0  0  0  0  0  0  0  0  0  0
  -26.1670  -22.5829   23.7394 C   0  0  0  0  0  0  0  0  0  0  0  0
  -25.8663  -21.0083   21.8675 C   0  0  0  0  0  0  0  0  0  0  0  0
  -20.9244  -28.2337   21.8663 C   0  0  1  0  0  0  0  0  0  0  0  0
  -23.3983  -30.8505   23.0768 C   0  0  1  0  0  0  0  0  0  0  0  0
  -27.3868  -20.8153   21.7365 C   0  0  2  0  0  0  0  0  0  0  0  0
  -24.6841  -23.0321   17.3379 C   0  0  0  0  0  0  0  0  0  0  0  0
  -24.7223  -38.4696   22.6290 C   0  0  0  0  0  0  0  0  0  0  0  0
  -31.1921  -28.5421   20.8582 C   0  0  0  0  0  0  0  0  0  0  0  0
  -21.7165  -33.3994   19.6076 C   0  0  0  0  0  0  0  0  0  0  0  0
  -22.4842  -35.7817   19.5488 C   0  0  0  0  0  0  0  0  0  0  0  0
  -20.8198  -35.0513   21.2573 C   0  0  0  0  0  0  0  0  0  0  0  0
  -26.6616  -35.9455   24.7133 C   0  0  0  0  0  0  0  0  0  0  0  0
  -26.6061  -27.5883   16.6167 C   0  0  0  0  0  0  0  0  0  0  0  0
  -23.4495  -23.9590   19.8297 C   0  0  0  0  0  0  0  0  0  0  0  0
  -28.0868  -27.6059   16.9824 C   0  0  0  0  0  0  0  0  0  0  0  0
  -29.6773  -28.0673   18.8523 C   0  0  0  0  0  0  0  0  0  0  0  0
  -23.2301  -34.3228   21.4844 C   0  0  1  0  0  0  0  0  0  0  0  0
  -24.9567  -37.1439   23.3364 C   0  0  2  0  0  0  0  0  0  0  0  0
  -29.7715  -28.5054   20.3102 C   0  0  2  0  0  0  0  0  0  1  0  0
  -22.0812  -34.6177   20.4791 C   0  0  0  0  0  0  0  0  0  0  0  0
  -26.9464  -18.4071   21.4377 N   0  0  0  0  0  0  0  0  0  0  0  0
  -27.7418  -19.4553   21.1644 N   0  0  0  0  0  0  0  0  0  0  0  0
  -23.7693  -32.0712   22.3582 N   0  0  0  0  0  0  0  0  0  0  0  0
  -25.5710  -22.3380   22.4239 N   0  0  0  0  0  0  0  0  0  0  0  0
  -29.7091  -20.0813   20.0032 N   0  0  0  0  0  0  0  0  0  0  0  0
  -29.3578  -15.6604   19.1498 N   0  0  0  0  0  0  0  0  0  0  0  0
  -21.7144  -29.1680   22.6392 N   0  0  0  0  0  0  0  0  0  0  0  0
  -23.5783  -35.4508   22.3416 N   0  0  0  0  0  0  0  0  0  0  0  0
  -24.2677  -23.0285   20.5750 N   0  0  0  0  0  0  0  0  0  0  0  0
  -26.3082  -37.1784   23.9635 N   0  3  0  0  0  0  0  0  0  0  0  0
  -28.2692  -28.0736   18.3833 N   0  3  0  0  0  0  0  0  0  0  0  0
  -30.6297  -17.5326   18.7812 O   0  0  0  0  0  0  0  0  0  0  0  0
  -23.0553  -29.9705   20.9128 O   0  0  0  0  0  0  0  0  0  0  0  0
  -21.9253  -33.2560   23.1534 O   0  0  0  0  0  0  0  0  0  0  0  0
  -25.8052  -35.5744   21.7072 O   0  0  0  0  0  0  0  0  0  0  0  0
  -24.5782  -24.4328   22.3606 O   0  0  0  0  0  0  0  0  0  0  0  0
  -25.3473  -12.2596   20.9898 O   0  0  0  0  0  0  0  0  0  0  0  0
  -29.1738  -29.7941   20.4454 O   0  0  0  0  0  0  0  0  0  1  0  0
  -28.7807   -8.0389   21.8849 F   0  0  0  0  0  0  0  0  0  0  0  0
  -25.0320  -10.6171   23.1910 F   0  0  0  0  0  0  0  0  0  0  0  0
  1  2  1  0  0  0  0
  1  5  2  0  0  0  0
  2  6  2  0  0  0  0
  3 10  2  0  0  0  0
  3 18  1  0  0  0  0
  4 11  1  0  0  0  0
  4 18  2  0  0  0  0
  5 20  1  0  0  0  0
  6 22  1  0  0  0  0
  7 12  2  0  0  0  0
  7 21  1  0  0  0  0
  8  9  2  0  0  0  0
  8 24  1  0  0  0  0
  9 25  1  0  0  0  0
 10 27  1  0  0  0  0
 11 27  2  0  0  0  0
 12 28  1  0  0  0  0
 13 14  2  0  0  0  0
 13 29  1  0  0  0  0
 14 30  1  0  0  0  0
 15 23  1  0  0  0  0
 15 28  2  0  0  0  0
 16 24  2  0  0  0  0
 16 26  1  0  0  0  0
 17 30  2  0  0  0  0
 17 31  1  0  0  0  0
 18 32  1  0  0  0  0
 19 32  1  0  0  0  0
 19 33  2  0  0  0  0
 19 34  1  0  0  0  0
 20 22  2  0  0  0  0
 20 39  1  0  0  0  0
 21 23  2  0  0  0  0
 21 40  1  0  0  0  0
 22 48  1  0  0  0  0
 23 41  1  0  0  0  0
 24 58  1  0  0  0  0
 25 26  2  0  0  0  0
 25 59  1  0  0  0  0
 26 51  1  0  0  0  0
 27 82  1  0  0  0  0
 28 83  1  0  0  0  0
 29 31  2  0  0  0  0
 29 82  1  0  0  0  0
 30 84  1  0  0  0  0
 31 85  1  0  0  0  0
 32 66  2  0  0  0  0
 33 67  1  0  0  0  0
 33 70  1  0  0  0  0
 34 71  1  0  0  0  0
 34 77  2  0  0  0  0
 35 49  1  0  0  0  0
 35 72  1  0  0  0  0
 35 78  2  0  0  0  0
 36 62  1  0  0  0  0
 36 68  1  0  0  0  0
 36 79  2  0  0  0  0
 37 63  1  0  0  0  0
 37 73  1  0  0  0  0
 37 80  2  0  0  0  0
 38 69  1  0  0  0  0
 38 74  1  0  0  0  0
 38 81  2  0  0  0  0
 39 42  1  0  0  0  0
 40 49  1  0  0  0  0
 41 68  1  0  0  0  0
 42 44  1  0  0  0  0
 43 45  1  0  0  0  0
 43 46  1  0  0  0  0
 44 48  1  0  0  0  0
 45 50  1  0  0  0  0
 46 69  1  0  0  0  0
 47 50  1  0  0  0  0
 47 69  1  0  0  0  0
 48 72  1  0  0  0  0
 49 68  1  0  0  0  0
 50 67  1  0  0  0  0
 52 63  1  0  0  0  0
 53 64  1  0  0  0  0
 54 65  1  0  0  0  0
 55 65  1  0  0  0  0
 56 65  1  0  0  0  0
 57 75  1  0  0  0  0
 58 60  1  0  0  0  0
 59 74  1  0  0  0  0
 60 76  1  0  0  0  0
 61 64  1  0  0  0  0
 61 76  1  0  0  0  0
 62 65  1  0  0  0  0
 62 73  1  0  0  0  0
 63 75  1  0  0  0  0
 64 83  1  0  0  0  0
 66 67  1  0  0  0  0
M  CHG  2  75   1  76   1
M  ISO  4  38 100  64 101  74 100  83 101
M  END
> <Batch ID>
0117

> <Smiles>
CNC(C)C(=O)NC(C(=O)N1Cc2cc([101O:1][101CH:1](C)CNCCc3ccc(C[100NH:0][100C:0](=O)N4CCCC(n5nc(-c6ccc(Oc7ccc(F)cc7F)cc6)c(C(N)=O)c5N)C4)c(C)c3)ccc2CC1C(=O)NC1CCCc2ccccc21)C(C)(C)C

> <Shape>
0.233

> <Color>
0.102

> <Negative vol penalty>
0.000

$$$$

  -OEChem-04052320153D

 83 91  0     1  0  0  0  0  0999 V2000
  -29.8036  -12.0410   20.0131 C   0  0  0  0  0  0  0  0  0  0  0  0
  -29.8271  -13.4136   19.7873 C   0  0  0  0  0  0  0  0  0  0  0  0
  -19.6803  -28.8636   23.2199 C   0  0  0  0  0  0  0  0  0  0  0  0
  -20.1914  -26.5881   22.5890 C   0  0  0  0  0  0  0  0  0  0  0  0
  -28.5939  -11.3492   19.9701 C   0  0  0  0  0  0  0  0  0  0  0  0
  -28.6409  -14.0950   19.5174 C   0  0  0  0  0  0  0  0  0  0  0  0
  -28.2577  -18.4295   22.1078 C   0  0  0  0  0  0  0  0  0  0  0  0
  -18.3213  -28.6097   23.0346 C   0  0  0  0  0  0  0  0  0  0  0  0
  -18.8324  -26.3342   22.4037 C   0  0  0  0  0  0  0  0  0  0  0  0
  -28.9841  -19.5210   21.6336 C   0  0  0  0  0  0  0  0  0  0  0  0
  -15.4695  -24.9835   22.1127 C   0  0  0  0  0  0  0  0  0  0  0  0
  -14.9542  -23.7960   22.6321 C   0  0  0  0  0  0  0  0  0  0  0  0
  -26.9870  -20.3931   20.5991 C   0  0  0  0  0  0  0  0  0  0  0  0
  -15.6213  -24.4774   24.8520 C   0  0  0  0  0  0  0  0  0  0  0  0
  -20.6154  -27.8528   22.9971 C   0  0  0  0  0  0  0  0  0  0  0  0
  -22.7610  -27.9523   24.3733 C   0  0  0  0  0  0  0  0  0  0  0  0
  -27.3910  -12.0241   19.7091 C   0  0  0  0  0  0  0  0  0  0  0  0
  -26.8905  -18.3059   21.8215 C   0  0  0  0  0  0  0  0  0  0  0  0
  -27.4140  -13.4114   19.4696 C   0  0  0  0  0  0  0  0  0  0  0  0
  -26.2449  -19.3004   21.0730 C   0  0  0  0  0  0  0  0  0  0  0  0
  -17.8974  -27.3450   22.6265 C   0  0  0  0  0  0  0  0  0  0  0  0
  -28.3494  -20.5015   20.8767 C   0  0  0  0  0  0  0  0  0  0  0  0
  -16.0609  -25.9180   22.9629 C   0  0  0  0  0  0  0  0  0  0  0  0
  -15.0300  -23.5430   24.0018 C   0  0  0  0  0  0  0  0  0  0  0  0
  -16.1367  -25.6650   24.3325 C   0  0  0  0  0  0  0  0  0  0  0  0
  -22.0193  -28.1146   23.1878 C   0  0  0  0  0  0  0  0  0  0  0  0
  -24.0369  -28.3319   24.0348 C   0  0  0  0  0  0  0  0  0  0  0  0
  -22.3347  -27.4989   25.6650 C   0  0  0  0  0  0  0  0  0  0  0  0
  -25.1095  -16.1913   20.2530 C   0  0  0  0  0  0  0  0  0  0  0  0
  -22.6631  -17.9959   21.3848 C   0  0  0  0  0  0  0  0  0  0  0  0
  -21.1026  -21.1419   22.2124 C   0  0  0  0  0  0  0  0  0  0  0  0
  -27.7405  -28.0932   19.5918 C   0  0  0  0  0  0  0  0  0  0  0  0
  -26.1140  -11.2259   19.6261 C   0  0  0  0  0  0  0  0  0  0  0  0
  -26.1153  -17.1361   22.3629 C   0  0  0  0  0  0  0  0  0  0  0  0
  -24.7747  -19.2248   20.7551 C   0  0  0  0  0  0  0  0  0  0  0  0
  -24.8535  -12.0834   19.7040 C   0  0  0  0  0  0  0  0  0  0  0  0
  -26.0132  -31.0892   20.4385 C   0  0  0  0  0  0  0  0  0  0  0  0
  -24.9729  -13.2930   18.7823 C   0  0  0  0  0  0  0  0  0  0  0  0
  -24.8762  -30.6125   21.3440 C   0  0  0  0  0  0  0  0  0  0  0  0
  -29.3246  -25.0863   21.1222 C   0  0  0  0  0  0  0  0  0  0  0  0
  -26.3003  -30.0903   19.3197 C   0  0  0  0  0  0  0  0  0  0  0  0
  -25.4172  -28.2330   20.6777 C   0  0  0  0  0  0  0  0  0  0  0  0
  -30.3136  -24.0849   20.5464 C   0  0  0  0  0  0  0  0  0  0  0  0
  -28.9600  -25.1024   18.7813 C   0  0  0  0  0  0  0  0  0  0  0  0
  -26.1451  -14.1899   19.1981 C   0  0  1  0  0  0  0  0  0  0  0  0
  -24.8398  -16.8493   21.5766 C   0  0  1  0  0  0  0  0  0  0  0  0
  -25.1284  -29.1810   21.8542 C   0  0  2  0  0  0  0  0  0  0  0  0
  -29.0613  -26.0391   19.9688 C   0  0  1  0  0  0  0  0  0  0  0  0
  -18.8810  -21.6325   23.2711 C   0  0  0  0  0  0  0  0  0  0  0  0
  -31.6345  -24.1667   16.2481 C   0  0  0  0  0  0  0  0  0  0  0  0
  -31.6089  -21.6705   16.2763 C   0  0  0  0  0  0  0  0  0  0  0  0
  -30.3580  -22.9022   14.5050 C   0  0  0  0  0  0  0  0  0  0  0  0
  -21.6705  -18.2299   18.5091 C   0  0  0  0  0  0  0  0  0  0  0  0
  -20.2252  -20.1403   19.2370 C   0  0  0  0  0  0  0  0  0  0  0  0
  -19.8708  -17.8699   20.2079 C   0  0  0  0  0  0  0  0  0  0  0  0
  -22.3504  -22.7544   24.3577 C   0  0  0  0  0  0  0  0  0  0  0  0
  -29.5345  -22.9070   16.9448 C   0  0  0  0  0  0  0  0  0  0  0  0
  -28.6194  -22.1517   19.1857 C   0  0  0  0  0  0  0  0  0  1  0  0
  -21.9074  -19.2047   20.8881 C   0  0  1  0  0  0  0  0  0  0  0  0
  -20.3770  -21.4853   23.5009 C   0  0  2  0  0  0  0  0  0  0  0  0
  -29.8171  -22.7544   18.4495 C   0  0  2  0  0  0  0  0  0  0  0  0
  -30.7606  -22.9264   15.9856 C   0  0  0  0  0  0  0  0  0  0  0  0
  -20.9466  -18.8619   19.7147 C   0  0  0  0  0  0  0  0  0  0  0  0
  -22.7622  -28.5625   22.1721 N   0  0  0  0  0  0  0  0  0  0  0  0
  -23.9838  -28.6850   22.7185 N   0  0  0  0  0  0  0  0  0  0  0  0
  -24.0613  -18.0586   21.3016 N   0  0  0  0  0  0  0  0  0  0  0  0
  -26.5321  -28.7529   19.8706 N   0  0  0  0  0  0  0  0  0  0  0  0
  -25.1877  -28.3948   24.7377 N   0  0  0  0  0  0  0  0  0  0  0  0
  -20.9889  -27.1489   25.8396 N   0  0  0  0  0  0  0  0  0  0  0  0
  -25.7856  -14.9901   20.3492 N   0  0  0  0  0  0  0  0  0  0  0  0
  -21.2452  -19.7797   22.0540 N   0  0  0  0  0  0  0  0  0  0  0  0
  -27.8819  -26.8322   20.1580 N   0  0  0  0  0  0  0  0  0  0  0  0
  -30.0653  -24.1015   19.0483 N   0  3  2  0  0  0  0  0  0  0  0  0
  -20.8946  -22.7654   24.0615 N   0  3  0  0  0  0  0  0  0  0  0  0
  -23.1205  -27.4225   26.6398 O   0  0  0  0  0  0  0  0  0  0  0  0
  -24.7308  -16.7327   19.2209 O   0  0  0  0  0  0  0  0  0  0  0  0
  -22.0362  -17.0345   21.8369 O   0  0  0  0  0  0  0  0  0  0  0  0
  -21.4997  -21.9966   21.4235 O   0  0  0  0  0  0  0  0  0  0  0  0
  -28.6297  -28.5933   18.8945 O   0  0  0  0  0  0  0  0  0  0  0  0
  -16.5714  -27.0968   22.4458 O   0  0  0  0  0  0  0  0  0  0  0  0
  -29.0562  -21.5675   20.4122 O   0  0  0  0  0  0  0  0  0  1  0  0
  -14.5337  -22.4033   24.5006 F   0  0  0  0  0  0  0  0  0  0  0  0
  -16.7026  -26.5594   25.1544 F   0  0  0  0  0  0  0  0  0  0  0  0
  1  2  1  0  0  0  0
  1  5  2  0  0  0  0
  2  6  2  0  0  0  0
  3  8  2  0  0  0  0
  3 15  1  0  0  0  0
  4  9  1  0  0  0  0
  4 15  2  0  0  0  0
  5 17  1  0  0  0  0
  6 19  1  0  0  0  0
  7 10  2  0  0  0  0
  7 18  1  0  0  0  0
  8 21  1  0  0  0  0
  9 21  2  0  0  0  0
 10 22  1  0  0  0  0
 11 12  2  0  0  0  0
 11 23  1  0  0  0  0
 12 24  1  0  0  0  0
 13 20  1  0  0  0  0
 13 22  2  0  0  0  0
 14 24  2  0  0  0  0
 14 25  1  0  0  0  0
 15 26  1  0  0  0  0
 16 26  1  0  0  0  0
 16 27  2  0  0  0  0
 16 28  1  0  0  0  0
 17 19  2  0  0  0  0
 17 33  1  0  0  0  0
 18 20  2  0  0  0  0
 18 34  1  0  0  0  0
 19 45  1  0  0  0  0
 20 35  1  0  0  0  0
 21 80  1  0  0  0  0
 22 81  1  0  0  0  0
 23 25  2  0  0  0  0
 23 80  1  0  0  0  0
 24 82  1  0  0  0  0
 25 83  1  0  0  0  0
 26 64  2  0  0  0  0
 27 65  1  0  0  0  0
 27 68  1  0  0  0  0
 28 69  1  0  0  0  0
 28 75  2  0  0  0  0
 29 46  1  0  0  0  0
 29 70  1  0  0  0  0
 29 76  2  0  0  0  0
 30 59  1  0  0  0  0
 30 66  1  0  0  0  0
 30 77  2  0  0  0  0
 31 60  1  0  0  0  0
 31 71  1  0  0  0  0
 31 78  2  0  0  0  0
 32 67  1  0  0  0  0
 32 72  1  0  0  0  0
 32 79  2  0  0  0  0
 33 36  1  0  0  0  0
 34 46  1  0  0  0  0
 35 66  1  0  0  0  0
 36 38  1  0  0  0  0
 37 39  1  0  0  0  0
 37 41  1  0  0  0  0
 38 45  1  0  0  0  0
 39 47  1  0  0  0  0
 40 43  1  0  0  0  0
 40 48  1  0  0  0  0
 41 67  1  0  0  0  0
 42 47  1  0  0  0  0
 42 67  1  0  0  0  0
 43 73  1  0  0  0  0
 44 48  1  0  0  0  0
 44 73  1  0  0  0  0
 45 70  1  0  0  0  0
 46 66  1  0  0  0  0
 47 65  1  0  0  0  0
 48 72  1  0  0  0  0
 49 60  1  0  0  0  0
 50 62  1  0  0  0  0
 51 62  1  0  0  0  0
 52 62  1  0  0  0  0
 53 63  1  0  0  0  0
 54 63  1  0  0  0  0
 55 63  1  0  0  0  0
 56 74  1  0  0  0  0
 57 61  1  0  0  0  0
 57 62  1  0  0  0  0
 58 61  1  0  0  0  0
 58 81  1  0  0  0  0
 59 63  1  0  0  0  0
 59 71  1  0  0  0  0
 60 74  1  0  0  0  0
 61 73  1  0  0  0  0
 64 65  1  0  0  0  0
M  CHG  2  73   1  74   1
M  ISO  4  32 100  58 101  72 100  81 101
M  END
> <Batch ID>
0117

> <Smiles>
CNC(C)C(=O)NC(C(=O)N1Cc2cc([101O:1][101CH2:1]C(CC(C)(C)C)N3CCC([100NH:0][100C:0](=O)N4CCCC(n5nc(-c6ccc(Oc7ccc(F)cc7F)cc6)c(C(N)=O)c5N)C4)C3)ccc2CC1C(=O)NC1CCCc2ccccc21)C(C)(C)C

> <Shape>
0.224

> <Color>
0.064

> <Negative vol penalty>
0.000

$$$$

  -OEChem-04052320153D

 85 94  0     1  0  0  0  0  0999 V2000
  -19.8503  -28.4470   14.2455 C   0  0  0  0  0  0  0  0  0  0  0  0
  -20.1067  -27.0800   14.2752 C   0  0  0  0  0  0  0  0  0  0  0  0
  -23.1523   -9.8661   19.9624 C   0  0  0  0  0  0  0  0  0  0  0  0
  -23.8207   -9.9667   22.2820 C   0  0  0  0  0  0  0  0  0  0  0  0
  -20.8902  -29.3546   14.4425 C   0  0  0  0  0  0  0  0  0  0  0  0
  -21.4035  -26.6197   14.5010 C   0  0  0  0  0  0  0  0  0  0  0  0
  -24.0983  -21.7460   19.9793 C   0  0  0  0  0  0  0  0  0  0  0  0
  -22.4379   -8.6959   20.2190 C   0  0  0  0  0  0  0  0  0  0  0  0
  -23.1062   -8.7965   22.5386 C   0  0  0  0  0  0  0  0  0  0  0  0
  -24.7199  -21.0204   20.9958 C   0  0  0  0  0  0  0  0  0  0  0  0
  -23.5289   -5.4715   22.0951 C   0  0  0  0  0  0  0  0  0  0  0  0
  -24.1494   -4.4895   22.8673 C   0  0  0  0  0  0  0  0  0  0  0  0
  -26.7748  -22.2400   20.6243 C   0  0  0  0  0  0  0  0  0  0  0  0
  -30.1043  -17.4790   23.1058 C   0  0  0  0  0  0  0  0  0  0  0  0
  -22.3773   -4.6546   24.5012 C   0  0  0  0  0  0  0  0  0  0  0  0
  -32.1512  -18.6032   21.6944 C   0  0  0  0  0  0  0  0  0  0  0  0
  -23.8438  -10.5015   20.9939 C   0  0  0  0  0  0  0  0  0  0  0  0
  -24.1060  -13.0323   20.8096 C   0  0  0  0  0  0  0  0  0  0  0  0
  -22.1986  -28.9052   14.6804 C   0  0  0  0  0  0  0  0  0  0  0  0
  -24.8090  -22.7332   19.2910 C   0  0  0  0  0  0  0  0  0  0  0  0
  -22.4621  -27.5222   14.7001 C   0  0  0  0  0  0  0  0  0  0  0  0
  -26.1538  -22.9786   19.6136 C   0  0  0  0  0  0  0  0  0  0  0  0
  -30.0284  -18.8196   22.7448 C   0  0  0  0  0  0  0  0  0  0  0  0
  -31.0672  -19.4001   22.0256 C   0  0  0  0  0  0  0  0  0  0  0  0
  -22.4148   -8.1611   21.5070 C   0  0  0  0  0  0  0  0  0  0  0  0
  -26.0549  -21.2666   21.3173 C   0  0  0  0  0  0  0  0  0  0  0  0
  -22.3327   -6.0451   22.5260 C   0  0  0  0  0  0  0  0  0  0  0  0
  -23.5736   -4.0810   24.0703 C   0  0  0  0  0  0  0  0  0  0  0  0
  -21.7569   -5.6367   23.7290 C   0  0  0  0  0  0  0  0  0  0  0  0
  -24.5824  -11.7100   20.7294 C   0  0  0  0  0  0  0  0  0  0  0  0
  -31.2314  -16.7681   22.7261 C   0  0  0  0  0  0  0  0  0  0  0  0
  -25.1861  -13.8078   20.4656 C   0  0  0  0  0  0  0  0  0  0  0  0
  -22.8036  -13.5162   21.1634 C   0  0  0  0  0  0  0  0  0  0  0  0
  -24.7704  -25.3749   16.6272 C   0  0  0  0  0  0  0  0  0  0  0  0
  -26.3726  -26.5097   18.9843 C   0  0  0  0  0  0  0  0  0  0  0  0
  -27.7053  -27.5451   21.9489 C   0  0  0  0  0  0  0  0  0  0  0  0
  -30.9426  -13.9690   21.0587 C   0  0  0  0  0  0  0  0  0  0  0  0
  -23.2985  -29.9246   14.8408 C   0  0  0  0  0  0  0  0  0  0  0  0
  -24.1980  -23.4967   18.1475 C   0  0  0  0  0  0  0  0  0  0  0  0
  -26.8892  -24.0262   18.8232 C   0  0  0  0  0  0  0  0  0  0  0  0
  -24.5769  -29.3512   15.4466 C   0  0  0  0  0  0  0  0  0  0  0  0
  -27.8094  -20.7505   24.8033 C   0  0  0  0  0  0  0  0  0  0  0  0
  -29.3957  -13.0201   17.9955 C   0  0  0  0  0  0  0  0  0  0  0  0
  -24.9473  -28.0371   14.7662 C   0  0  0  0  0  0  0  0  0  0  0  0
  -27.9525  -12.7084   18.3957 C   0  0  0  0  0  0  0  0  0  0  0  0
  -28.0113  -19.2577   24.4898 C   0  0  0  0  0  0  0  0  0  0  0  0
  -28.9985  -21.0494   23.8736 C   0  0  0  0  0  0  0  0  0  0  0  0
  -30.3860  -12.5919   19.0762 C   0  0  0  0  0  0  0  0  0  0  0  0
  -28.6606  -12.8145   20.8218 C   0  0  0  0  0  0  0  0  0  0  0  0
  -23.8511  -26.9838   14.9668 C   0  0  1  0  0  0  0  0  0  0  0  0
  -24.6871  -24.9538   18.0649 C   0  0  1  0  0  0  0  0  0  0  0  0
  -27.6209  -13.2791   19.7876 C   0  0  2  0  0  0  0  0  0  0  0  0
  -28.7402  -19.6746   23.1660 C   0  0  0  0  0  0  0  0  0  0  0  0
  -31.0346  -20.8308   21.6150 C   0  0  0  0  0  0  0  0  0  0  0  0
  -28.8208  -29.5189   23.0246 C   0  0  0  0  0  0  0  0  0  0  0  0
  -27.3183  -18.3983   21.5359 C   0  0  0  0  0  0  0  0  0  0  0  0
  -28.9624  -25.8402   17.5184 C   0  0  0  0  0  0  0  0  0  0  0  0
  -30.2024  -27.1389   19.2631 C   0  0  0  0  0  0  0  0  0  0  0  0
  -28.5306  -28.2862   17.8100 C   0  0  0  0  0  0  0  0  0  0  0  0
  -25.5456  -27.8201   23.9536 C   0  0  0  0  0  0  0  0  0  0  0  0
  -31.3465  -15.3270   23.0963 C   0  0  0  0  0  0  0  0  0  0  0  0
  -27.7282  -26.7070   19.6140 C   0  0  1  0  0  0  0  0  0  0  0  0
  -27.5003  -28.8135   22.7574 C   0  0  2  0  0  0  0  0  0  0  0  0
  -27.7966  -19.7794   21.9593 C   0  0  1  0  0  0  0  0  0  1  0  0
  -28.8391  -26.9713   18.5588 C   0  0  0  0  0  0  0  0  0  0  0  0
  -32.2605  -17.2975   22.0273 N   0  0  0  0  0  0  0  0  0  0  0  0
  -25.8652  -11.6454   20.3631 N   0  0  0  0  0  0  0  0  0  0  0  0
  -26.2041  -12.9369   20.2099 N   0  0  0  0  0  0  0  0  0  0  0  0
  -26.0273  -25.2017   18.6231 N   0  0  0  0  0  0  0  0  0  0  0  0
  -30.0158  -13.1681   20.3712 N   0  0  0  0  0  0  0  0  0  0  0  0
  -25.3549  -15.1430   20.3598 N   0  0  0  0  0  0  0  0  0  0  0  0
  -21.8099  -12.5831   21.4894 N   0  0  0  0  0  0  0  0  0  0  0  0
  -23.9290  -26.4203   16.2975 N   0  0  0  0  0  0  0  0  0  0  0  0
  -27.5707  -27.7745   20.5959 N   0  0  0  0  0  0  0  0  0  0  0  0
  -30.5091  -14.4808   22.2757 N   0  0  0  0  0  0  0  0  0  0  0  0
  -26.8637  -28.4958   24.0669 N   0  3  0  0  0  0  0  0  0  0  0  0
  -22.5245  -14.7391   21.1738 O   0  0  0  0  0  0  0  0  0  0  0  0
  -25.5422  -24.7958   15.8717 O   0  0  0  0  0  0  0  0  0  0  0  0
  -25.6399  -27.4876   18.8108 O   0  0  0  0  0  0  0  0  0  0  0  0
  -27.9630  -26.4601   22.4656 O   0  0  0  0  0  0  0  0  0  0  0  0
  -32.0706  -14.2144   20.6180 O   0  0  0  0  0  0  0  0  0  0  0  0
  -21.7175   -7.0194   21.7578 O   0  0  0  0  0  0  0  0  0  0  0  0
  -26.6543  -20.5577   22.3138 O   0  0  0  0  0  0  0  0  0  1  0  0
  -24.1687   -3.1369   24.8110 F   0  0  0  0  0  0  0  0  0  0  0  0
  -20.6071   -6.1833   24.1475 F   0  0  0  0  0  0  0  0  0  0  0  0
  1  2  1  0  0  0  0
  1  5  2  0  0  0  0
  2  6  2  0  0  0  0
  3  8  2  0  0  0  0
  3 17  1  0  0  0  0
  4  9  1  0  0  0  0
  4 17  2  0  0  0  0
  5 19  1  0  0  0  0
  6 21  1  0  0  0  0
  7 10  2  0  0  0  0
  7 20  1  0  0  0  0
  8 25  1  0  0  0  0
  9 25  2  0  0  0  0
 10 26  1  0  0  0  0
 11 12  2  0  0  0  0
 11 27  1  0  0  0  0
 12 28  1  0  0  0  0
 13 22  1  0  0  0  0
 13 26  2  0  0  0  0
 14 23  1  0  0  0  0
 14 31  2  0  0  0  0
 15 28  2  0  0  0  0
 15 29  1  0  0  0  0
 16 24  1  0  0  0  0
 16 66  2  0  0  0  0
 17 30  1  0  0  0  0
 18 30  1  0  0  0  0
 18 32  2  0  0  0  0
 18 33  1  0  0  0  0
 19 21  2  0  0  0  0
 19 38  1  0  0  0  0
 20 22  2  0  0  0  0
 20 39  1  0  0  0  0
 21 50  1  0  0  0  0
 22 40  1  0  0  0  0
 23 24  2  0  0  0  0
 23 53  1  0  0  0  0
 24 54  1  0  0  0  0
 25 82  1  0  0  0  0
 26 83  1  0  0  0  0
 27 29  2  0  0  0  0
 27 82  1  0  0  0  0
 28 84  1  0  0  0  0
 29 85  1  0  0  0  0
 30 67  2  0  0  0  0
 31 61  1  0  0  0  0
 31 66  1  0  0  0  0
 32 68  1  0  0  0  0
 32 71  1  0  0  0  0
 33 72  1  0  0  0  0
 33 77  2  0  0  0  0
 34 51  1  0  0  0  0
 34 73  1  0  0  0  0
 34 78  2  0  0  0  0
 35 62  1  0  0  0  0
 35 69  1  0  0  0  0
 35 79  2  0  0  0  0
 36 63  1  0  0  0  0
 36 74  1  0  0  0  0
 36 80  2  0  0  0  0
 37 70  1  0  0  0  0
 37 75  1  0  0  0  0
 37 81  2  0  0  0  0
 38 41  1  0  0  0  0
 39 51  1  0  0  0  0
 40 69  1  0  0  0  0
 41 44  1  0  0  0  0
 42 46  1  0  0  0  0
 42 47  1  0  0  0  0
 43 45  1  0  0  0  0
 43 48  1  0  0  0  0
 44 50  1  0  0  0  0
 45 52  1  0  0  0  0
 46 53  1  0  0  0  0
 47 53  1  0  0  0  0
 48 70  1  0  0  0  0
 49 52  1  0  0  0  0
 49 70  1  0  0  0  0
 50 73  1  0  0  0  0
 51 69  1  0  0  0  0
 52 68  1  0  0  0  0
 53 64  1  0  0  0  0
 55 63  1  0  0  0  0
 56 64  1  0  0  0  0
 57 65  1  0  0  0  0
 58 65  1  0  0  0  0
 59 65  1  0  0  0  0
 60 76  1  0  0  0  0
 61 75  1  0  0  0  0
 62 65  1  0  0  0  0
 62 74  1  0  0  0  0
 63 76  1  0  0  0  0
 64 83  1  0  0  0  0
 67 68  1  0  0  0  0
M  CHG  1  76   1
M  ISO  4  37 100  64 101  75 100  83 101
M  END
> <Batch ID>
0117

> <Smiles>
CNC(C)C(=O)NC(C(=O)N1Cc2cc([101O:1][101CH:1](C)C3(c4cc(C[100NH:0][100C:0](=O)N5CCCC(n6nc(-c7ccc(Oc8ccc(F)cc8F)cc7)c(C(N)=O)c6N)C5)ncc4C)CCC3)ccc2CC1C(=O)NC1CCCc2ccccc21)C(C)(C)C

> <Shape>
0.233

> <Color>
0.187

> <Negative vol penalty>
0.000

$$$$

  -OEChem-04052320153D

 85 93  0     1  0  0  0  0  0999 V2000
  -31.5397  -34.0368   22.9561 C   0  0  0  0  0  0  0  0  0  0  0  0
  -31.4764  -32.8527   22.2286 C   0  0  0  0  0  0  0  0  0  0  0  0
  -22.4286  -10.5975   21.7709 C   0  0  0  0  0  0  0  0  0  0  0  0
  -24.5009   -9.6417   20.9776 C   0  0  0  0  0  0  0  0  0  0  0  0
  -30.6613  -34.2491   24.0179 C   0  0  0  0  0  0  0  0  0  0  0  0
  -30.5353  -31.8797   22.5631 C   0  0  0  0  0  0  0  0  0  0  0  0
  -27.5862  -28.1345   18.7183 C   0  0  0  0  0  0  0  0  0  0  0  0
  -21.8223   -9.3434   21.6980 C   0  0  0  0  0  0  0  0  0  0  0  0
  -23.8945   -8.3876   20.9048 C   0  0  0  0  0  0  0  0  0  0  0  0
  -27.8065  -26.8090   18.3464 C   0  0  0  0  0  0  0  0  0  0  0  0
  -21.7393   -6.5061   23.5353 C   0  0  0  0  0  0  0  0  0  0  0  0
  -20.9499   -6.1041   24.6128 C   0  0  0  0  0  0  0  0  0  0  0  0
  -26.2002  -26.0858   19.9944 C   0  0  0  0  0  0  0  0  0  0  0  0
  -29.5365  -18.7854   21.5926 C   0  0  0  0  0  0  0  0  0  0  0  0
  -29.0553  -21.1325   21.8035 C   0  0  0  0  0  0  0  0  0  0  0  0
  -19.0394   -5.9220   23.1451 C   0  0  0  0  0  0  0  0  0  0  0  0
  -23.7679  -10.7466   21.4107 C   0  0  0  0  0  0  0  0  0  0  0  0
  -25.0725  -12.5961   22.5876 C   0  0  0  0  0  0  0  0  0  0  0  0
  -29.7025  -33.2823   24.3594 C   0  0  0  0  0  0  0  0  0  0  0  0
  -26.6777  -28.4453   19.7403 C   0  0  0  0  0  0  0  0  0  0  0  0
  -29.6441  -32.0786   23.6313 C   0  0  0  0  0  0  0  0  0  0  0  0
  -25.9683  -27.4162   20.3757 C   0  0  0  0  0  0  0  0  0  0  0  0
  -29.2725  -19.8917   22.3924 C   0  0  0  0  0  0  0  0  0  0  0  0
  -22.5552   -8.2385   21.2650 C   0  0  0  0  0  0  0  0  0  0  0  0
  -27.1157  -25.7842   18.9864 C   0  0  0  0  0  0  0  0  0  0  0  0
  -21.1787   -6.6161   22.2628 C   0  0  0  0  0  0  0  0  0  0  0  0
  -19.6000   -5.8121   24.4177 C   0  0  0  0  0  0  0  0  0  0  0  0
  -19.8288   -6.3241   22.0677 C   0  0  0  0  0  0  0  0  0  0  0  0
  -24.3947  -12.0419   21.4852 C   0  0  0  0  0  0  0  0  0  0  0  0
  -29.5723  -18.9712   20.2200 C   0  0  0  0  0  0  0  0  0  0  0  0
  -29.1128  -21.2132   20.4214 C   0  0  0  0  0  0  0  0  0  0  0  0
  -25.4786  -13.8344   22.1538 C   0  0  0  0  0  0  0  0  0  0  0  0
  -25.3136  -12.0411   23.8874 C   0  0  0  0  0  0  0  0  0  0  0  0
  -26.8966  -29.8386   22.5890 C   0  0  0  0  0  0  0  0  0  0  0  0
  -23.6639  -29.5767   22.5322 C   0  0  0  0  0  0  0  0  0  0  0  0
  -20.9078  -27.9764   21.3116 C   0  0  0  0  0  0  0  0  0  0  0  0
  -27.7252  -17.1276   18.2483 C   0  0  0  0  0  0  0  0  0  0  0  0
  -28.8057  -33.5365   25.5451 C   0  0  0  0  0  0  0  0  0  0  0  0
  -26.4316  -29.8820   20.1115 C   0  0  0  0  0  0  0  0  0  0  0  0
  -24.9672  -27.6984   21.4650 C   0  0  0  0  0  0  0  0  0  0  0  0
  -27.5899  -32.6149   25.5978 C   0  0  0  0  0  0  0  0  0  0  0  0
  -24.2420  -16.4347   17.9950 C   0  0  0  0  0  0  0  0  0  0  0  0
  -28.0044  -31.1692   25.3430 C   0  0  0  0  0  0  0  0  0  0  0  0
  -24.0287  -15.2723   18.9663 C   0  0  0  0  0  0  0  0  0  0  0  0
  -25.5877  -16.3333   17.2803 C   0  0  0  0  0  0  0  0  0  0  0  0
  -26.5406  -15.0321   19.1438 C   0  0  0  0  0  0  0  0  0  0  0  0
  -28.6207  -31.0097   23.9479 C   0  0  1  0  0  0  0  0  0  0  0  0
  -25.8637  -30.0470   21.5178 C   0  0  1  0  0  0  0  0  0  0  0  0
  -25.2212  -15.1206   19.9297 C   0  0  2  0  0  0  0  0  0  0  0  0
  -18.4040  -27.9605   21.4784 C   0  0  0  0  0  0  0  0  0  0  0  0
  -23.8553  -28.1728   25.2345 C   0  0  0  0  0  0  0  0  0  0  0  0
  -21.5123  -27.3570   24.8983 C   0  0  0  0  0  0  0  0  0  0  0  0
  -21.9707  -29.8050   25.0381 C   0  0  0  0  0  0  0  0  0  0  0  0
  -20.5965  -28.6126   18.4380 C   0  0  0  0  0  0  0  0  0  0  0  0
  -29.8528  -17.8060   19.3309 C   0  0  0  0  0  0  0  0  0  0  0  0
  -28.9222  -22.6972   18.4247 C   0  0  0  0  0  0  0  0  0  0  0  0
  -28.6266  -24.1586   18.1318 C   0  0  0  0  0  0  0  0  0  1  0  0
  -30.5234  -19.1875   24.4773 C   0  0  0  0  0  0  0  0  0  0  0  0
  -29.2224  -19.7480   23.8754 C   0  0  2  0  0  0  0  0  0  0  0  0
  -22.6683  -28.5295   22.9696 C   0  0  1  0  0  0  0  0  0  0  0  0
  -19.6098  -28.5072   20.7302 C   0  0  2  0  0  0  0  0  0  0  0  0
  -22.5219  -28.4603   24.5160 C   0  0  0  0  0  0  0  0  0  0  0  0
  -24.3693  -12.8610   20.4305 N   0  0  0  0  0  0  0  0  0  0  0  0
  -29.3665  -20.1608   19.6116 N   0  0  0  0  0  0  0  0  0  0  0  0
  -25.0362  -13.9426   20.8682 N   0  0  0  0  0  0  0  0  0  0  0  0
  -24.7661  -29.1186   21.7966 N   0  0  0  0  0  0  0  0  0  0  0  0
  -26.6765  -16.1931   18.2503 N   0  0  0  0  0  0  0  0  0  0  0  0
  -26.1673  -14.8304   22.7505 N   0  0  0  0  0  0  0  0  0  0  0  0
  -24.8271  -10.7567   24.1663 N   0  0  0  0  0  0  0  0  0  0  0  0
  -28.8947  -22.4554   19.8491 N   0  0  0  0  0  0  0  0  0  0  0  0
  -27.5849  -30.9850   22.9375 N   0  0  0  0  0  0  0  0  0  0  0  0
  -21.4263  -28.8274   22.2646 N   0  0  0  0  0  0  0  0  0  0  0  0
  -28.7131  -16.9252   19.2042 N   0  0  0  0  0  0  0  0  0  0  0  0
  -28.0953  -18.8659   24.3439 N   0  3  0  0  0  0  0  0  0  0  0  0
  -19.4882  -28.1204   19.2962 N   0  3  0  0  0  0  0  0  0  0  0  0
  -25.9277  -12.6723   24.7807 O   0  0  0  0  0  0  0  0  0  0  0  0
  -27.0563  -28.7208   23.0651 O   0  0  0  0  0  0  0  0  0  0  0  0
  -23.4671  -30.7584   22.8261 O   0  0  0  0  0  0  0  0  0  0  0  0
  -21.4095  -26.9114   20.9585 O   0  0  0  0  0  0  0  0  0  0  0  0
  -27.7745  -18.0753   17.4569 O   0  0  0  0  0  0  0  0  0  0  0  0
  -31.6482  -19.9660   24.0835 O   0  0  0  0  0  0  0  0  0  0  0  0
  -21.9639   -7.0146   21.1939 O   0  0  0  0  0  0  0  0  0  0  0  0
  -27.3294  -24.4896   18.6257 O   0  0  0  0  0  0  0  0  0  1  0  0
  -18.8425   -5.4246   25.4521 F   0  0  0  0  0  0  0  0  0  0  0  0
  -19.2850   -6.4268   20.8472 F   0  0  0  0  0  0  0  0  0  0  0  0
  1  2  1  0  0  0  0
  1  5  2  0  0  0  0
  2  6  2  0  0  0  0
  3  8  2  0  0  0  0
  3 17  1  0  0  0  0
  4  9  1  0  0  0  0
  4 17  2  0  0  0  0
  5 19  1  0  0  0  0
  6 21  1  0  0  0  0
  7 10  2  0  0  0  0
  7 20  1  0  0  0  0
  8 24  1  0  0  0  0
  9 24  2  0  0  0  0
 10 25  1  0  0  0  0
 11 12  2  0  0  0  0
 11 26  1  0  0  0  0
 12 27  1  0  0  0  0
 13 22  1  0  0  0  0
 13 25  2  0  0  0  0
 14 23  1  0  0  0  0
 14 30  2  0  0  0  0
 15 23  2  0  0  0  0
 15 31  1  0  0  0  0
 16 27  2  0  0  0  0
 16 28  1  0  0  0  0
 17 29  1  0  0  0  0
 18 29  1  0  0  0  0
 18 32  2  0  0  0  0
 18 33  1  0  0  0  0
 19 21  2  0  0  0  0
 19 38  1  0  0  0  0
 20 22  2  0  0  0  0
 20 39  1  0  0  0  0
 21 47  1  0  0  0  0
 22 40  1  0  0  0  0
 23 59  1  0  0  0  0
 24 82  1  0  0  0  0
 25 83  1  0  0  0  0
 26 28  2  0  0  0  0
 26 82  1  0  0  0  0
 27 84  1  0  0  0  0
 28 85  1  0  0  0  0
 29 63  2  0  0  0  0
 30 55  1  0  0  0  0
 30 64  1  0  0  0  0
 31 64  2  0  0  0  0
 31 70  1  0  0  0  0
 32 65  1  0  0  0  0
 32 68  1  0  0  0  0
 33 69  1  0  0  0  0
 33 76  2  0  0  0  0
 34 48  1  0  0  0  0
 34 71  1  0  0  0  0
 34 77  2  0  0  0  0
 35 60  1  0  0  0  0
 35 66  1  0  0  0  0
 35 78  2  0  0  0  0
 36 61  1  0  0  0  0
 36 72  1  0  0  0  0
 36 79  2  0  0  0  0
 37 67  1  0  0  0  0
 37 73  1  0  0  0  0
 37 80  2  0  0  0  0
 38 41  1  0  0  0  0
 39 48  1  0  0  0  0
 40 66  1  0  0  0  0
 41 43  1  0  0  0  0
 42 44  1  0  0  0  0
 42 45  1  0  0  0  0
 43 47  1  0  0  0  0
 44 49  1  0  0  0  0
 45 67  1  0  0  0  0
 46 49  1  0  0  0  0
 46 67  1  0  0  0  0
 47 71  1  0  0  0  0
 48 66  1  0  0  0  0
 49 65  1  0  0  0  0
 50 61  1  0  0  0  0
 51 62  1  0  0  0  0
 52 62  1  0  0  0  0
 53 62  1  0  0  0  0
 54 75  1  0  0  0  0
 55 73  1  0  0  0  0
 56 57  1  0  0  0  0
 56 70  1  0  0  0  0
 57 83  1  0  0  0  0
 58 59  1  0  0  0  0
 58 81  1  0  0  0  0
 59 74  1  0  0  0  0
 60 62  1  0  0  0  0
 60 72  1  0  0  0  0
 61 75  1  0  0  0  0
 63 65  1  0  0  0  0
M  CHG  2  74   1  75   1
M  ISO  4  37 100  57 101  73 100  83 101
M  END
> <Batch ID>
0117

> <Smiles>
CNC(C)C(=O)NC(C(=O)N1Cc2cc([101O:1][101CH2:1]CNc3cc(C(N)CO)cc(C[100NH:0][100C:0](=O)N4CCCC(n5nc(-c6ccc(Oc7ccc(F)cc7F)cc6)c(C(N)=O)c5N)C4)n3)ccc2CC1C(=O)NC1CCCc2ccccc21)C(C)(C)C

> <Shape>
0.259

> <Color>
0.080

> <Negative vol penalty>
0.000

$$$$

  -OEChem-04052320153D

 86 94  0     1  0  0  0  0  0999 V2000
  -18.8111  -29.3960   22.2035 C   0  0  0  0  0  0  0  0  0  0  0  0
  -20.0712  -28.9464   21.8218 C   0  0  0  0  0  0  0  0  0  0  0  0
  -28.6503  -17.5258   18.4930 C   0  0  0  0  0  0  0  0  0  0  0  0
  -27.7925  -18.2581   20.6296 C   0  0  0  0  0  0  0  0  0  0  0  0
  -18.0489  -28.6504   23.1018 C   0  0  0  0  0  0  0  0  0  0  0  0
  -20.5701  -27.7515   22.3391 C   0  0  0  0  0  0  0  0  0  0  0  0
  -22.7062  -24.8394   18.7892 C   0  0  0  0  0  0  0  0  0  0  0  0
  -28.2413  -16.2226   18.7754 C   0  0  0  0  0  0  0  0  0  0  0  0
  -27.3835  -16.9548   20.9121 C   0  0  0  0  0  0  0  0  0  0  0  0
  -23.9899  -25.1854   18.3695 C   0  0  0  0  0  0  0  0  0  0  0  0
  -27.7449  -12.6337   19.0880 C   0  0  0  0  0  0  0  0  0  0  0  0
  -28.6383  -11.5983   18.8139 C   0  0  0  0  0  0  0  0  0  0  0  0
  -24.9118  -23.4762   19.8007 C   0  0  0  0  0  0  0  0  0  0  0  0
  -27.8730  -27.2264   24.7101 C   0  0  0  0  0  0  0  0  0  0  0  0
  -26.7610  -28.1083   22.7685 C   0  0  0  0  0  0  0  0  0  0  0  0
  -30.2360  -12.5722   20.3424 C   0  0  0  0  0  0  0  0  0  0  0  0
  -28.4259  -18.5436   19.4200 C   0  0  0  0  0  0  0  0  0  0  0  0
  -28.4349  -20.6969   18.0522 C   0  0  0  0  0  0  0  0  0  0  0  0
  -18.5347  -27.4409   23.6230 C   0  0  0  0  0  0  0  0  0  0  0  0
  -22.5160  -23.8148   19.7275 C   0  0  0  0  0  0  0  0  0  0  0  0
  -19.8142  -26.9897   23.2463 C   0  0  0  0  0  0  0  0  0  0  0  0
  -23.6245  -23.1175   20.2287 C   0  0  0  0  0  0  0  0  0  0  0  0
  -26.9157  -28.0645   24.1497 C   0  0  0  0  0  0  0  0  0  0  0  0
  -27.6079  -15.9370   19.9850 C   0  0  0  0  0  0  0  0  0  0  0  0
  -25.0931  -24.5057   18.8775 C   0  0  0  0  0  0  0  0  0  0  0  0
  -28.0970  -13.6385   19.9892 C   0  0  0  0  0  0  0  0  0  0  0  0
  -29.8839  -11.5675   19.4411 C   0  0  0  0  0  0  0  0  0  0  0  0
  -29.3425  -13.6078   20.6164 C   0  0  0  0  0  0  0  0  0  0  0  0
  -28.8486  -19.8900   19.1291 C   0  0  0  0  0  0  0  0  0  0  0  0
  -28.6443  -26.4582   23.8529 C   0  0  0  0  0  0  0  0  0  0  0  0
  -27.5821  -27.3008   21.9982 C   0  0  0  0  0  0  0  0  0  0  0  0
  -29.1195  -21.8753   18.2234 C   0  0  0  0  0  0  0  0  0  0  0  0
  -27.5141  -20.4072   16.9921 C   0  0  0  0  0  0  0  0  0  0  0  0
  -21.2902  -23.6542   22.6559 C   0  0  0  0  0  0  0  0  0  0  0  0
  -21.7485  -20.4685   22.2516 C   0  0  0  0  0  0  0  0  0  0  0  0
  -23.4387  -17.9628   20.6668 C   0  0  0  0  0  0  0  0  0  0  0  0
  -31.4817  -24.5579   23.0270 C   0  0  0  0  0  0  0  0  0  0  0  0
  -17.6940  -26.6935   24.6276 C   0  0  0  0  0  0  0  0  0  0  0  0
  -21.1230  -23.4358   20.1499 C   0  0  0  0  0  0  0  0  0  0  0  0
  -23.4728  -21.9962   21.2228 C   0  0  0  0  0  0  0  0  0  0  0  0
  -18.1399  -25.2492   24.8407 C   0  0  0  0  0  0  0  0  0  0  0  0
  -33.1871  -23.6117   20.0483 C   0  0  0  0  0  0  0  0  0  0  0  0
  -19.6533  -25.1784   25.0180 C   0  0  0  0  0  0  0  0  0  0  0  0
  -32.2313  -22.6234   19.3778 C   0  0  0  0  0  0  0  0  0  0  0  0
  -33.1657  -23.4741   21.5690 C   0  0  0  0  0  0  0  0  0  0  0  0
  -30.8709  -22.5776   21.5099 C   0  0  0  0  0  0  0  0  0  0  0  0
  -20.3797  -25.6860   23.7666 C   0  0  1  0  0  0  0  0  0  0  0  0
  -21.0807  -22.7211   21.4970 C   0  0  1  0  0  0  0  0  0  0  0  0
  -30.8159  -22.7165   19.9789 C   0  0  2  0  0  0  0  0  0  0  0  0
  -23.6204  -15.4616   20.5732 C   0  0  0  0  0  0  0  0  0  0  0  0
  -26.8561  -31.1298   24.0512 C   0  0  0  0  0  0  0  0  0  0  0  0
  -25.7181  -31.0825   26.2798 C   0  0  0  0  0  0  0  0  0  0  0  0
  -23.3018  -20.4856   24.8778 C   0  0  0  0  0  0  0  0  0  0  0  0
  -24.2393  -18.2486   24.2572 C   0  0  0  0  0  0  0  0  0  0  0  0
  -21.7808  -18.5231   24.5781 C   0  0  0  0  0  0  0  0  0  0  0  0
  -22.6470  -17.8959   17.8159 C   0  0  0  0  0  0  0  0  0  0  0  0
  -26.0586  -28.9128   25.0259 C   0  0  0  0  0  0  0  0  0  0  0  0
  -29.6815  -25.5470   24.4200 C   0  0  0  0  0  0  0  0  0  0  0  0
  -28.0005  -26.5981   18.4063 C   0  0  0  0  0  0  0  0  0  0  0  0
  -26.5659  -26.2012   18.0951 C   0  0  0  0  0  0  0  0  0  1  0  0
  -28.3144  -26.4805   19.8895 C   0  0  0  0  0  0  0  0  0  0  0  0
  -22.8805  -19.5080   22.5256 C   0  0  1  0  0  0  0  0  0  0  0  0
  -22.9547  -16.6958   19.9847 C   0  0  2  0  0  0  0  0  0  0  0  0
  -26.6411  -30.3155   25.3295 C   0  0  0  0  0  0  0  0  0  0  0  0
  -23.0539  -19.2137   24.0424 C   0  0  0  0  0  0  0  0  0  0  0  0
  -29.7280  -20.5038   19.9253 N   0  0  0  0  0  0  0  0  0  0  0  0
  -28.5231  -26.4739   22.5065 N   0  0  0  0  0  0  0  0  0  0  0  0
  -29.8725  -21.7089   19.3483 N   0  0  0  0  0  0  0  0  0  0  0  0
  -22.0909  -21.6670   21.6096 N   0  0  0  0  0  0  0  0  0  0  0  0
  -31.7948  -23.5731   22.0757 N   0  0  0  0  0  0  0  0  0  0  0  0
  -29.1447  -23.0272   17.5198 N   0  0  0  0  0  0  0  0  0  0  0  0
  -26.1591  -20.7108   17.1825 N   0  0  0  0  0  0  0  0  0  0  0  0
  -20.3641  -24.6772   22.7290 N   0  0  0  0  0  0  0  0  0  0  0  0
  -22.6175  -18.3248   21.7136 N   0  0  0  0  0  0  0  0  0  0  0  0
  -30.1583  -24.5869   23.4495 N   0  0  0  0  0  0  0  0  0  0  0  0
  -23.2591  -16.7439   18.5267 N   0  3  0  0  0  0  0  0  0  0  0  0
  -27.8795  -19.8792   15.9145 O   0  0  0  0  0  0  0  0  0  0  0  0
  -22.2221  -23.4596   23.4275 O   0  0  0  0  0  0  0  0  0  0  0  0
  -20.6017  -20.1634   22.5882 O   0  0  0  0  0  0  0  0  0  0  0  0
  -24.4466  -18.5684   20.3093 O   0  0  0  0  0  0  0  0  0  0  0  0
  -32.3182  -25.3559   23.4633 O   0  0  0  0  0  0  0  0  0  0  0  0
  -27.2085  -14.6655   20.2608 O   0  0  0  0  0  0  0  0  0  0  0  0
  -26.3473  -24.8418   18.4701 O   0  0  0  0  0  0  0  0  0  1  0  0
  -27.4490  -27.3267   20.6343 O   0  0  0  0  0  0  0  0  0  0  0  0
  -30.7411  -10.5722   19.1790 F   0  0  0  0  0  0  0  0  0  0  0  0
  -29.6859  -14.5696   21.4840 F   0  0  0  0  0  0  0  0  0  0  0  0
  1  2  1  0  0  0  0
  1  5  2  0  0  0  0
  2  6  2  0  0  0  0
  3  8  2  0  0  0  0
  3 17  1  0  0  0  0
  4  9  1  0  0  0  0
  4 17  2  0  0  0  0
  5 19  1  0  0  0  0
  6 21  1  0  0  0  0
  7 10  2  0  0  0  0
  7 20  1  0  0  0  0
  8 24  1  0  0  0  0
  9 24  2  0  0  0  0
 10 25  1  0  0  0  0
 11 12  2  0  0  0  0
 11 26  1  0  0  0  0
 12 27  1  0  0  0  0
 13 22  1  0  0  0  0
 13 25  2  0  0  0  0
 14 23  1  0  0  0  0
 14 30  2  0  0  0  0
 15 23  2  0  0  0  0
 15 31  1  0  0  0  0
 16 27  2  0  0  0  0
 16 28  1  0  0  0  0
 17 29  1  0  0  0  0
 18 29  1  0  0  0  0
 18 32  2  0  0  0  0
 18 33  1  0  0  0  0
 19 21  2  0  0  0  0
 19 38  1  0  0  0  0
 20 22  2  0  0  0  0
 20 39  1  0  0  0  0
 21 47  1  0  0  0  0
 22 40  1  0  0  0  0
 23 57  1  0  0  0  0
 24 82  1  0  0  0  0
 25 83  1  0  0  0  0
 26 28  2  0  0  0  0
 26 82  1  0  0  0  0
 27 85  1  0  0  0  0
 28 86  1  0  0  0  0
 29 66  2  0  0  0  0
 30 58  1  0  0  0  0
 30 67  1  0  0  0  0
 31 67  2  0  0  0  0
 31 84  1  0  0  0  0
 32 68  1  0  0  0  0
 32 71  1  0  0  0  0
 33 72  1  0  0  0  0
 33 77  2  0  0  0  0
 34 48  1  0  0  0  0
 34 73  1  0  0  0  0
 34 78  2  0  0  0  0
 35 62  1  0  0  0  0
 35 69  1  0  0  0  0
 35 79  2  0  0  0  0
 36 63  1  0  0  0  0
 36 74  1  0  0  0  0
 36 80  2  0  0  0  0
 37 70  1  0  0  0  0
 37 75  1  0  0  0  0
 37 81  2  0  0  0  0
 38 41  1  0  0  0  0
 39 48  1  0  0  0  0
 40 69  1  0  0  0  0
 41 43  1  0  0  0  0
 42 44  1  0  0  0  0
 42 45  1  0  0  0  0
 43 47  1  0  0  0  0
 44 49  1  0  0  0  0
 45 70  1  0  0  0  0
 46 49  1  0  0  0  0
 46 70  1  0  0  0  0
 47 73  1  0  0  0  0
 48 69  1  0  0  0  0
 49 68  1  0  0  0  0
 50 63  1  0  0  0  0
 51 64  1  0  0  0  0
 52 64  1  0  0  0  0
 53 65  1  0  0  0  0
 54 65  1  0  0  0  0
 55 65  1  0  0  0  0
 56 76  1  0  0  0  0
 57 64  1  0  0  0  0
 58 75  1  0  0  0  0
 59 60  1  0  0  0  0
 59 61  1  0  0  0  0
 60 83  1  0  0  0  0
 61 84  1  0  0  0  0
 62 65  1  0  0  0  0
 62 74  1  0  0  0  0
 63 76  1  0  0  0  0
 66 68  1  0  0  0  0
M  CHG  1  76   1
M  ISO  4  37 100  60 101  75 100  83 101
M  END
> <Batch ID>
0117

> <Smiles>
CNC(C)C(=O)NC(C(=O)N1Cc2cc([101O:1][101CH2:1]CCOc3cc(CC(C)C)cc(C[100NH:0][100C:0](=O)N4CCCC(n5nc(-c6ccc(Oc7ccc(F)cc7F)cc6)c(C(N)=O)c5N)C4)n3)ccc2CC1C(=O)NC1CCCc2ccccc21)C(C)(C)C

> <Shape>
0.185

> <Color>
0.068

> <Negative vol penalty>
0.000

$$$$

  -OEChem-04052320153D

 86 94  0     1  0  0  0  0  0999 V2000
  -22.8444  -23.6598   18.5956 C   0  0  0  0  0  0  0  0  0  0  0  0
  -23.9796  -22.9850   19.0331 C   0  0  0  0  0  0  0  0  0  0  0  0
  -23.8733  -29.8559   19.6699 C   0  0  0  0  0  0  0  0  0  0  0  0
  -24.3018  -28.2043   21.3803 C   0  0  0  0  0  0  0  0  0  0  0  0
  -21.5781  -23.1720   18.9159 C   0  0  0  0  0  0  0  0  0  0  0  0
  -23.8491  -21.8226   19.7922 C   0  0  0  0  0  0  0  0  0  0  0  0
  -26.9693  -18.1405   18.2586 C   0  0  0  0  0  0  0  0  0  0  0  0
  -22.6455  -30.1510   20.2624 C   0  0  0  0  0  0  0  0  0  0  0  0
  -23.0741  -28.4995   21.9729 C   0  0  0  0  0  0  0  0  0  0  0  0
  -28.3051  -18.2352   18.6464 C   0  0  0  0  0  0  0  0  0  0  0  0
  -19.8152  -27.7665   21.4501 C   0  0  0  0  0  0  0  0  0  0  0  0
  -19.0144  -26.6965   21.8494 C   0  0  0  0  0  0  0  0  0  0  0  0
  -27.8979  -16.6466   20.4154 C   0  0  0  0  0  0  0  0  0  0  0  0
  -19.0907  -27.4905   24.1300 C   0  0  0  0  0  0  0  0  0  0  0  0
  -32.0445  -20.3121   20.6072 C   0  0  0  0  0  0  0  0  0  0  0  0
  -24.7014  -28.8825   20.2288 C   0  0  0  0  0  0  0  0  0  0  0  0
  -27.2120  -29.1803   19.8886 C   0  0  0  0  0  0  0  0  0  0  0  0
  -21.4321  -21.9977   19.6711 C   0  0  0  0  0  0  0  0  0  0  0  0
  -26.0837  -17.3050   18.9543 C   0  0  0  0  0  0  0  0  0  0  0  0
  -22.5797  -21.3194   20.1240 C   0  0  0  0  0  0  0  0  0  0  0  0
  -26.5519  -16.5411   20.0328 C   0  0  0  0  0  0  0  0  0  0  0  0
  -30.9328  -21.7555   21.9304 C   0  0  0  0  0  0  0  0  0  0  0  0
  -31.7112  -21.6407   20.7523 C   0  0  0  0  0  0  0  0  0  0  0  0
  -22.2459  -29.4728   21.4139 C   0  0  0  0  0  0  0  0  0  0  0  0
  -28.7689  -17.4904   19.7268 C   0  0  0  0  0  0  0  0  0  0  0  0
  -20.2538  -28.6985   22.3907 C   0  0  0  0  0  0  0  0  0  0  0  0
  -18.6522  -26.5585   23.1893 C   0  0  0  0  0  0  0  0  0  0  0  0
  -19.8915  -28.5605   23.7306 C   0  0  0  0  0  0  0  0  0  0  0  0
  -25.9696  -28.5768   19.6169 C   0  0  0  0  0  0  0  0  0  0  0  0
  -30.8142  -20.4935   22.4696 C   0  0  0  0  0  0  0  0  0  0  0  0
  -28.0943  -28.5415   19.0519 C   0  0  0  0  0  0  0  0  0  0  0  0
  -27.5394  -30.2249   20.8145 C   0  0  0  0  0  0  0  0  0  0  0  0
  -23.4240  -17.7586   20.6348 C   0  0  0  0  0  0  0  0  0  0  0  0
  -23.3770  -14.5158   20.7014 C   0  0  0  0  0  0  0  0  0  0  0  0
  -25.1184  -11.5882   20.4927 C   0  0  0  0  0  0  0  0  0  0  0  0
  -30.0967  -23.8749   16.7371 C   0  0  0  0  0  0  0  0  0  0  0  0
  -20.0428  -21.5351   20.0325 C   0  0  0  0  0  0  0  0  0  0  0  0
  -24.6520  -17.1937   18.5067 C   0  0  0  0  0  0  0  0  0  0  0  0
  -25.6464  -15.6138   20.8001 C   0  0  0  0  0  0  0  0  0  0  0  0
  -19.9902  -20.0906   20.5233 C   0  0  0  0  0  0  0  0  0  0  0  0
  -27.2686  -25.3839   15.1874 C   0  0  0  0  0  0  0  0  0  0  0  0
  -21.0915  -19.8343   21.5472 C   0  0  0  0  0  0  0  0  0  0  0  0
  -26.7778  -26.3938   16.2262 C   0  0  0  0  0  0  0  0  0  0  0  0
  -27.7982  -24.1110   15.8441 C   0  0  0  0  0  0  0  0  0  0  0  0
  -28.3426  -25.3388   17.9105 C   0  0  0  0  0  0  0  0  0  0  0  0
  -22.4792  -20.0415   20.9285 C   0  0  1  0  0  0  0  0  0  0  0  0
  -23.7182  -16.7017   19.6081 C   0  0  1  0  0  0  0  0  0  0  0  0
  -27.8509  -26.6616   17.2986 C   0  0  2  0  0  0  0  0  0  0  0  0
  -30.1121  -20.0391   23.6888 C   0  0  0  0  0  0  0  0  0  0  0  0
  -28.2787  -22.8829   20.9909 C   0  0  0  0  0  0  0  0  0  0  0  0
  -24.8129   -9.1008   20.6241 C   0  0  0  0  0  0  0  0  0  0  0  0
  -23.1539  -14.7061   23.7385 C   0  0  0  0  0  0  0  0  0  0  0  0
  -23.8041  -12.2918   23.8678 C   0  0  0  0  0  0  0  0  0  0  0  0
  -21.7056  -12.9553   22.6937 C   0  0  0  0  0  0  0  0  0  0  0  0
  -26.0691  -11.2081   17.7159 C   0  0  0  0  0  0  0  0  0  0  0  0
  -29.3986  -23.7662   21.5274 C   0  0  0  0  0  0  0  0  0  0  0  0
  -31.6288  -18.1358   21.8689 C   0  0  0  0  0  0  0  0  0  0  0  0
  -32.4957  -22.4516   18.5268 C   0  0  0  0  0  0  0  0  0  0  0  0
  -32.3610  -23.7495   17.7452 C   0  0  0  0  0  0  0  0  0  0  0  0
  -30.3601  -17.3792   21.4908 C   0  0  0  0  0  0  0  0  0  1  0  0
  -30.3500  -22.9966   22.4828 C   0  0  2  0  0  0  0  0  0  0  0  0
  -23.9386  -13.4571   21.6194 C   0  0  1  0  0  0  0  0  0  0  0  0
  -24.8574  -10.3146   19.7089 C   0  0  2  0  0  0  0  0  0  0  0  0
  -23.1674  -13.3714   22.9668 C   0  0  0  0  0  0  0  0  0  0  0  0
  -26.0511  -27.6277   18.6807 N   0  0  0  0  0  0  0  0  0  0  0  0
  -31.4941  -19.6242   21.6570 N   0  0  0  0  0  0  0  0  0  0  0  0
  -27.3554  -27.6300   18.3567 N   0  0  0  0  0  0  0  0  0  0  0  0
  -24.2536  -15.5444   20.3280 N   0  0  0  0  0  0  0  0  0  0  0  0
  -28.8132  -24.4344   16.8496 N   0  0  0  0  0  0  0  0  0  0  0  0
  -29.4223  -28.6763   18.8503 N   0  0  0  0  0  0  0  0  0  0  0  0
  -26.5125  -30.7701   21.5972 N   0  0  0  0  0  0  0  0  0  0  0  0
  -32.0673  -22.6373   19.9143 N   0  0  0  0  0  0  0  0  0  0  0  0
  -22.8456  -18.9013   20.1160 N   0  0  0  0  0  0  0  0  0  0  0  0
  -23.9446  -12.2149   20.8544 N   0  0  0  0  0  0  0  0  0  0  0  0
  -31.0003  -24.2383   17.7282 N   0  0  0  0  0  0  0  0  0  0  0  0
  -31.3971  -23.9932   22.9284 N   0  3  0  0  0  0  0  0  0  0  0  0
  -25.9296  -10.1006   18.6963 N   0  3  0  0  0  0  0  0  0  0  0  0
  -28.7050  -30.6732   20.9323 O   0  0  0  0  0  0  0  0  0  0  0  0
  -23.7000  -17.5520   21.8107 O   0  0  0  0  0  0  0  0  0  0  0  0
  -22.2060  -14.4294   20.3235 O   0  0  0  0  0  0  0  0  0  0  0  0
  -26.2502  -11.9852   20.7607 O   0  0  0  0  0  0  0  0  0  0  0  0
  -30.4155  -23.1126   15.8183 O   0  0  0  0  0  0  0  0  0  0  0  0
  -21.0480  -29.7607   21.9926 O   0  0  0  0  0  0  0  0  0  0  0  0
  -30.0721  -17.5815   20.1078 O   0  0  0  0  0  0  0  0  0  1  0  0
  -17.8819  -25.5318   23.5724 F   0  0  0  0  0  0  0  0  0  0  0  0
  -20.3088  -29.4534   24.6386 F   0  0  0  0  0  0  0  0  0  0  0  0
  1  2  1  0  0  0  0
  1  5  2  0  0  0  0
  2  6  2  0  0  0  0
  3  8  2  0  0  0  0
  3 16  1  0  0  0  0
  4  9  1  0  0  0  0
  4 16  2  0  0  0  0
  5 18  1  0  0  0  0
  6 20  1  0  0  0  0
  7 10  2  0  0  0  0
  7 19  1  0  0  0  0
  8 24  1  0  0  0  0
  9 24  2  0  0  0  0
 10 25  1  0  0  0  0
 11 12  2  0  0  0  0
 11 26  1  0  0  0  0
 12 27  1  0  0  0  0
 13 21  1  0  0  0  0
 13 25  2  0  0  0  0
 14 27  2  0  0  0  0
 14 28  1  0  0  0  0
 15 23  2  0  0  0  0
 15 66  1  0  0  0  0
 16 29  1  0  0  0  0
 17 29  1  0  0  0  0
 17 31  2  0  0  0  0
 17 32  1  0  0  0  0
 18 20  2  0  0  0  0
 18 37  1  0  0  0  0
 19 21  2  0  0  0  0
 19 38  1  0  0  0  0
 20 46  1  0  0  0  0
 21 39  1  0  0  0  0
 22 23  1  0  0  0  0
 22 30  2  0  0  0  0
 22 61  1  0  0  0  0
 23 72  1  0  0  0  0
 24 83  1  0  0  0  0
 25 84  1  0  0  0  0
 26 28  2  0  0  0  0
 26 83  1  0  0  0  0
 27 85  1  0  0  0  0
 28 86  1  0  0  0  0
 29 65  2  0  0  0  0
 30 49  1  0  0  0  0
 30 66  1  0  0  0  0
 31 67  1  0  0  0  0
 31 70  1  0  0  0  0
 32 71  1  0  0  0  0
 32 78  2  0  0  0  0
 33 47  1  0  0  0  0
 33 73  1  0  0  0  0
 33 79  2  0  0  0  0
 34 62  1  0  0  0  0
 34 68  1  0  0  0  0
 34 80  2  0  0  0  0
 35 63  1  0  0  0  0
 35 74  1  0  0  0  0
 35 81  2  0  0  0  0
 36 69  1  0  0  0  0
 36 75  1  0  0  0  0
 36 82  2  0  0  0  0
 37 40  1  0  0  0  0
 38 47  1  0  0  0  0
 39 68  1  0  0  0  0
 40 42  1  0  0  0  0
 41 43  1  0  0  0  0
 41 44  1  0  0  0  0
 42 46  1  0  0  0  0
 43 48  1  0  0  0  0
 44 69  1  0  0  0  0
 45 48  1  0  0  0  0
 45 69  1  0  0  0  0
 46 73  1  0  0  0  0
 47 68  1  0  0  0  0
 48 67  1  0  0  0  0
 50 56  1  0  0  0  0
 51 63  1  0  0  0  0
 52 64  1  0  0  0  0
 53 64  1  0  0  0  0
 54 64  1  0  0  0  0
 55 77  1  0  0  0  0
 56 61  1  0  0  0  0
 57 60  1  0  0  0  0
 57 66  1  0  0  0  0
 58 59  1  0  0  0  0
 58 72  1  0  0  0  0
 59 75  1  0  0  0  0
 60 84  1  0  0  0  0
 61 76  1  0  0  0  0
 62 64  1  0  0  0  0
 62 74  1  0  0  0  0
 63 77  1  0  0  0  0
 65 67  1  0  0  0  0
M  CHG  2  76   1  77   1
M  ISO  4  36 100  60 101  75 100  84 101
M  END
> <Batch ID>
0117

> <Smiles>
CCC(N)c1c(NCC[100NH:0][100C:0](=O)N2CCCC(n3nc(-c4ccc(Oc5ccc(F)cc5F)cc4)c(C(N)=O)c3N)C2)cn(C[101CH2:1][101O:1]c2ccc3c(c2)CN(C(=O)C(NC(=O)C(C)NC)C(C)(C)C)C(C(=O)NC2CCCc4ccccc42)C3)c1C

> <Shape>
0.221

> <Color>
0.069

> <Negative vol penalty>
0.000

$$$$

  -OEChem-04052320153D

 83 91  0     1  0  0  0  0  0999 V2000
  -26.7123  -35.2347   23.5682 C   0  0  0  0  0  0  0  0  0  0  0  0
  -27.1350  -33.9373   23.2974 C   0  0  0  0  0  0  0  0  0  0  0  0
  -25.9755  -16.6898   20.0601 C   0  0  0  0  0  0  0  0  0  0  0  0
  -24.1247  -15.4311   20.9697 C   0  0  0  0  0  0  0  0  0  0  0  0
  -25.4154  -35.4628   24.0263 C   0  0  0  0  0  0  0  0  0  0  0  0
  -26.2613  -32.8670   23.4856 C   0  0  0  0  0  0  0  0  0  0  0  0
  -26.3639  -29.5756   19.6384 C   0  0  0  0  0  0  0  0  0  0  0  0
  -26.5174  -15.5155   19.5377 C   0  0  0  0  0  0  0  0  0  0  0  0
  -24.6666  -14.2568   20.4474 C   0  0  0  0  0  0  0  0  0  0  0  0
  -27.4346  -28.6839   19.5917 C   0  0  0  0  0  0  0  0  0  0  0  0
  -28.2906  -12.8710   20.6724 C   0  0  0  0  0  0  0  0  0  0  0  0
  -29.6585  -12.6579   20.8422 C   0  0  0  0  0  0  0  0  0  0  0  0
  -26.0355  -26.9635   20.5413 C   0  0  0  0  0  0  0  0  0  0  0  0
  -29.9446  -12.5837   18.4443 C   0  0  0  0  0  0  0  0  0  0  0  0
  -24.7792  -16.6476   20.7761 C   0  0  0  0  0  0  0  0  0  0  0  0
  -23.3141  -18.7340   20.6845 C   0  0  0  0  0  0  0  0  0  0  0  0
  -24.5222  -34.3957   24.2110 C   0  0  0  0  0  0  0  0  0  0  0  0
  -25.1218  -29.1703   20.1479 C   0  0  0  0  0  0  0  0  0  0  0  0
  -24.9516  -33.0809   23.9479 C   0  0  0  0  0  0  0  0  0  0  0  0
  -24.9498  -27.8512   20.5910 C   0  0  0  0  0  0  0  0  0  0  0  0
  -25.8630  -14.2990   19.7313 C   0  0  0  0  0  0  0  0  0  0  0  0
  -27.2713  -27.3785   20.0459 C   0  0  0  0  0  0  0  0  0  0  0  0
  -27.7496  -12.9404   19.3885 C   0  0  0  0  0  0  0  0  0  0  0  0
  -30.4855  -12.5143   19.7282 C   0  0  0  0  0  0  0  0  0  0  0  0
  -28.5766  -12.7968   18.2745 C   0  0  0  0  0  0  0  0  0  0  0  0
  -24.2191  -17.8603   21.3165 C   0  0  0  0  0  0  0  0  0  0  0  0
  -23.0925  -19.7259   21.6083 C   0  0  0  0  0  0  0  0  0  0  0  0
  -22.7262  -18.6559   19.3791 C   0  0  0  0  0  0  0  0  0  0  0  0
  -23.3027  -30.0628   22.5969 C   0  0  0  0  0  0  0  0  0  0  0  0
  -21.1904  -27.9811   21.2826 C   0  0  0  0  0  0  0  0  0  0  0  0
  -20.6638  -25.2451   19.3119 C   0  0  0  0  0  0  0  0  0  0  0  0
  -27.5060  -20.9661   23.5014 C   0  0  0  0  0  0  0  0  0  0  0  0
  -23.1453  -34.6871   24.7531 C   0  0  0  0  0  0  0  0  0  0  0  0
  -23.9693  -30.1366   20.1666 C   0  0  0  0  0  0  0  0  0  0  0  0
  -23.6310  -27.3607   21.1282 C   0  0  0  0  0  0  0  0  0  0  0  0
  -22.1617  -33.5343   24.5689 C   0  0  0  0  0  0  0  0  0  0  0  0
  -25.5572  -18.8165   25.4852 C   0  0  0  0  0  0  0  0  0  0  0  0
  -22.8025  -32.2141   24.9852 C   0  0  0  0  0  0  0  0  0  0  0  0
  -24.1151  -19.2383   25.2173 C   0  0  0  0  0  0  0  0  0  0  0  0
  -26.4757  -20.0283   25.5455 C   0  0  0  0  0  0  0  0  0  0  0  0
  -27.0940  -23.4455   23.2080 C   0  0  0  0  0  0  0  0  0  0  0  0
  -25.0263  -21.2949   23.9823 C   0  0  0  0  0  0  0  0  0  0  0  0
  -28.2037  -24.4741   23.3819 C   0  0  0  0  0  0  0  0  0  0  0  0
  -29.6130  -23.2237   21.7480 C   0  0  0  0  0  0  0  0  0  0  0  0
  -24.0252  -31.8961   24.1160 C   0  0  1  0  0  0  0  0  0  0  0  0
  -22.8937  -29.7640   21.1823 C   0  0  1  0  0  0  0  0  0  0  0  0
  -23.9657  -20.1712   24.0027 C   0  0  1  0  0  0  0  0  0  0  0  0
  -28.5071  -22.1808   21.5791 C   0  0  2  0  0  0  0  0  0  0  0  0
  -18.8336  -23.7568   18.4559 C   0  0  0  0  0  0  0  0  0  0  0  0
  -31.2249  -25.0883   23.0414 C   0  0  0  0  0  0  0  0  0  0  0  0
  -21.0195  -26.6261   24.0111 C   0  0  0  0  0  0  0  0  0  0  0  0
  -19.9699  -24.6507   22.8867 C   0  0  0  0  0  0  0  0  0  0  0  0
  -18.8297  -26.8686   22.8277 C   0  0  0  0  0  0  0  0  0  0  0  0
  -21.2616  -25.9343   16.4965 C   0  0  0  0  0  0  0  0  0  0  0  0
  -27.6945  -22.3818   20.2964 C   0  0  0  0  0  0  0  0  0  0  0  0
  -30.5297  -26.0271   20.8018 C   0  0  0  0  0  0  0  0  0  0  0  0
  -26.9367  -21.1191   19.9359 C   0  0  0  0  0  0  0  0  0  0  0  0
  -29.6259  -27.0543   20.1288 C   0  0  0  0  0  0  0  0  0  1  0  0
  -20.9080  -26.5060   21.4344 C   0  0  1  0  0  0  0  0  0  0  0  0
  -19.6803  -24.9904   18.1839 C   0  0  2  0  0  0  0  0  0  0  0  0
  -30.0722  -25.6309   22.2069 C   0  0  1  0  0  0  0  0  0  0  0  0
  -20.2073  -26.1723   22.7817 C   0  0  0  0  0  0  0  0  0  0  0  0
  -24.5500  -18.2619   22.5466 N   0  0  0  0  0  0  0  0  0  0  0  0
  -23.8491  -19.3990   22.6950 N   0  0  0  0  0  0  0  0  0  0  0  0
  -22.5361  -28.3449   21.1320 N   0  0  0  0  0  0  0  0  0  0  0  0
  -26.3790  -20.8334   24.3291 N   0  0  0  0  0  0  0  0  0  0  0  0
  -27.6191  -22.1494   22.7543 N   0  0  0  0  0  0  0  0  0  0  0  0
  -22.3263  -20.8372   21.5890 N   0  0  0  0  0  0  0  0  0  0  0  0
  -23.0623  -17.5703   18.5589 N   0  0  0  0  0  0  0  0  0  0  0  0
  -23.6099  -31.3906   22.8251 N   0  0  0  0  0  0  0  0  0  0  0  0
  -20.1489  -26.1119   20.2525 N   0  0  0  0  0  0  0  0  0  0  0  0
  -29.0200  -24.5602   22.1184 N   0  3  2  0  0  0  0  0  0  0  0  0
  -26.2075  -21.3485   18.6655 N   0  3  0  0  0  0  0  0  0  0  0  0
  -20.4072  -24.7875   16.8989 N   0  3  0  0  0  0  0  0  0  0  0  0
  -21.9393  -19.5317   18.9465 O   0  0  0  0  0  0  0  0  0  0  0  0
  -23.3355  -29.1562   23.4207 O   0  0  0  0  0  0  0  0  0  0  0  0
  -20.2511  -28.7806   21.2899 O   0  0  0  0  0  0  0  0  0  0  0  0
  -21.7760  -24.7240   19.3563 O   0  0  0  0  0  0  0  0  0  0  0  0
  -28.3551  -20.0692   23.4212 O   0  0  0  0  0  0  0  0  0  0  0  0
  -26.3914  -13.1529   19.2216 O   0  0  0  0  0  0  0  0  0  0  0  0
  -28.3222  -26.5002   20.0017 O   0  0  0  0  0  0  0  0  0  1  0  0
  -31.7994  -12.3111   19.8914 F   0  0  0  0  0  0  0  0  0  0  0  0
  -28.0629  -12.8637   17.0386 F   0  0  0  0  0  0  0  0  0  0  0  0
  1  2  1  0  0  0  0
  1  5  2  0  0  0  0
  2  6  2  0  0  0  0
  3  8  2  0  0  0  0
  3 15  1  0  0  0  0
  4  9  1  0  0  0  0
  4 15  2  0  0  0  0
  5 17  1  0  0  0  0
  6 19  1  0  0  0  0
  7 10  2  0  0  0  0
  7 18  1  0  0  0  0
  8 21  1  0  0  0  0
  9 21  2  0  0  0  0
 10 22  1  0  0  0  0
 11 12  2  0  0  0  0
 11 23  1  0  0  0  0
 12 24  1  0  0  0  0
 13 20  1  0  0  0  0
 13 22  2  0  0  0  0
 14 24  2  0  0  0  0
 14 25  1  0  0  0  0
 15 26  1  0  0  0  0
 16 26  1  0  0  0  0
 16 27  2  0  0  0  0
 16 28  1  0  0  0  0
 17 19  2  0  0  0  0
 17 33  1  0  0  0  0
 18 20  2  0  0  0  0
 18 34  1  0  0  0  0
 19 45  1  0  0  0  0
 20 35  1  0  0  0  0
 21 80  1  0  0  0  0
 22 81  1  0  0  0  0
 23 25  2  0  0  0  0
 23 80  1  0  0  0  0
 24 82  1  0  0  0  0
 25 83  1  0  0  0  0
 26 63  2  0  0  0  0
 27 64  1  0  0  0  0
 27 68  1  0  0  0  0
 28 69  1  0  0  0  0
 28 75  2  0  0  0  0
 29 46  1  0  0  0  0
 29 70  1  0  0  0  0
 29 76  2  0  0  0  0
 30 59  1  0  0  0  0
 30 65  1  0  0  0  0
 30 77  2  0  0  0  0
 31 60  1  0  0  0  0
 31 71  1  0  0  0  0
 31 78  2  0  0  0  0
 32 66  1  0  0  0  0
 32 67  1  0  0  0  0
 32 79  2  0  0  0  0
 33 36  1  0  0  0  0
 34 46  1  0  0  0  0
 35 65  1  0  0  0  0
 36 38  1  0  0  0  0
 37 39  1  0  0  0  0
 37 40  1  0  0  0  0
 38 45  1  0  0  0  0
 39 47  1  0  0  0  0
 40 66  1  0  0  0  0
 41 43  1  0  0  0  0
 41 67  1  0  0  0  0
 42 47  1  0  0  0  0
 42 66  1  0  0  0  0
 43 72  1  0  0  0  0
 44 48  1  0  0  0  0
 44 72  1  0  0  0  0
 45 70  1  0  0  0  0
 46 65  1  0  0  0  0
 47 64  1  0  0  0  0
 48 55  1  0  0  0  0
 48 67  1  0  0  0  0
 49 60  1  0  0  0  0
 50 61  1  0  0  0  0
 51 62  1  0  0  0  0
 52 62  1  0  0  0  0
 53 62  1  0  0  0  0
 54 74  1  0  0  0  0
 55 57  1  0  0  0  0
 56 58  1  0  0  0  0
 56 61  1  0  0  0  0
 57 73  1  0  0  0  0
 58 81  1  0  0  0  0
 59 62  1  0  0  0  0
 59 71  1  0  0  0  0
 60 74  1  0  0  0  0
 61 72  1  0  0  0  0
 63 64  1  0  0  0  0
M  CHG  3  72   1  73   1  74   1
M  ISO  4  32 100  58 101  67 100  81 101
M  END
> <Batch ID>
0117

> <Smiles>
CNC(C)C(=O)NC(C(=O)N1Cc2cc([101O:1][101CH2:1]CC(C)N3CC[100N:0]([100C:0](=O)N4CCCC(n5nc(-c6ccc(Oc7ccc(F)cc7F)cc6)c(C(N)=O)c5N)C4)C(CCN)C3)ccc2CC1C(=O)NC1CCCc2ccccc21)C(C)(C)C

> <Shape>
0.251

> <Color>
0.073

> <Negative vol penalty>
0.000

$$$$

  -OEChem-04052320153D

 92101  0     1  0  0  0  0  0999 V2000
  -17.2192  -10.8133   18.5370 C   0  0  0  0  0  0  0  0  0  0  0  0
  -17.6353  -12.1181   18.2926 C   0  0  0  0  0  0  0  0  0  0  0  0
  -23.8526  -29.1464   21.1046 C   0  0  0  0  0  0  0  0  0  0  0  0
  -25.1286  -27.9490   22.7705 C   0  0  0  0  0  0  0  0  0  0  0  0
  -17.8382  -10.0606   19.5341 C   0  0  0  0  0  0  0  0  0  0  0  0
  -18.6700  -12.6714   19.0461 C   0  0  0  0  0  0  0  0  0  0  0  0
  -22.9142  -16.6418   17.1151 C   0  0  0  0  0  0  0  0  0  0  0  0
  -22.6927  -28.9547   21.8551 C   0  0  0  0  0  0  0  0  0  0  0  0
  -23.9687  -27.7573   23.5211 C   0  0  0  0  0  0  0  0  0  0  0  0
  -23.0203  -18.0278   17.2231 C   0  0  0  0  0  0  0  0  0  0  0  0
  -20.4723  -26.4689   22.4168 C   0  0  0  0  0  0  0  0  0  0  0  0
  -25.2013  -22.5240   22.1838 C   0  0  0  0  0  0  0  0  0  0  0  0
  -19.3227  -26.0627   21.7394 C   0  0  0  0  0  0  0  0  0  0  0  0
  -24.1785  -21.8425   21.5336 C   0  0  0  0  0  0  0  0  0  0  0  0
  -24.4162  -17.7630   19.1726 C   0  0  0  0  0  0  0  0  0  0  0  0
  -18.1818  -28.0602   22.4778 C   0  0  0  0  0  0  0  0  0  0  0  0
  -25.0706  -28.6435   21.5622 C   0  0  0  0  0  0  0  0  0  0  0  0
  -27.1693  -29.9196   20.8733 C   0  0  0  0  0  0  0  0  0  0  0  0
  -18.8875  -10.6017   20.2937 C   0  0  0  0  0  0  0  0  0  0  0  0
  -23.5505  -15.8048   18.0431 C   0  0  0  0  0  0  0  0  0  0  0  0
  -19.3027  -11.9257   20.0552 C   0  0  0  0  0  0  0  0  0  0  0  0
  -24.3188  -16.3667   19.0727 C   0  0  0  0  0  0  0  0  0  0  0  0
  -22.7507  -28.2602   23.0634 C   0  0  0  0  0  0  0  0  0  0  0  0
  -23.7690  -18.5886   18.2536 C   0  0  0  0  0  0  0  0  0  0  0  0
  -20.4767  -27.6708   23.1248 C   0  0  0  0  0  0  0  0  0  0  0  0
  -26.4585  -22.6055   21.5956 C   0  0  0  0  0  0  0  0  0  0  0  0
  -18.1774  -26.8584   21.7698 C   0  0  0  0  0  0  0  0  0  0  0  0
  -19.3314  -28.4664   23.1553 C   0  0  0  0  0  0  0  0  0  0  0  0
  -26.2691  -28.8408   20.7871 C   0  0  0  0  0  0  0  0  0  0  0  0
  -26.6401  -21.9934   20.3659 C   0  0  0  0  0  0  0  0  0  0  0  0
  -24.4621  -21.2647   20.3065 C   0  0  0  0  0  0  0  0  0  0  0  0
  -28.1324  -29.6390   19.9351 C   0  0  0  0  0  0  0  0  0  0  0  0
  -27.1378  -31.0724   21.7253 C   0  0  0  0  0  0  0  0  0  0  0  0
  -22.5675  -13.6525   20.1656 C   0  0  0  0  0  0  0  0  0  0  0  0
  -25.7486  -13.1324   20.5299 C   0  0  0  0  0  0  0  0  0  0  0  0
  -28.9314  -14.3308   20.2462 C   0  0  0  0  0  0  0  0  0  0  0  0
  -29.8087  -24.4456   17.5997 C   0  0  0  0  0  0  0  0  0  0  0  0
  -19.4943   -9.7657   21.3926 C   0  0  0  0  0  0  0  0  0  0  0  0
  -23.4483  -14.3113   17.8970 C   0  0  0  0  0  0  0  0  0  0  0  0
  -25.0380  -15.5116   20.0826 C   0  0  0  0  0  0  0  0  0  0  0  0
  -20.8344  -10.2981   21.8935 C   0  0  0  0  0  0  0  0  0  0  0  0
  -28.6438  -27.3903   15.8253 C   0  0  0  0  0  0  0  0  0  0  0  0
  -20.7552  -11.8023   22.1339 C   0  0  0  0  0  0  0  0  0  0  0  0
  -27.9773  -28.2032   16.9344 C   0  0  0  0  0  0  0  0  0  0  0  0
  -30.4392  -21.6086   19.8718 C   0  0  0  0  0  0  0  0  0  0  0  0
  -28.4641  -25.8889   16.0324 C   0  0  0  0  0  0  0  0  0  0  0  0
  -28.3078  -23.5227   19.4065 C   0  0  0  0  0  0  0  0  0  0  0  0
  -28.2397  -26.2214   18.4751 C   0  0  0  0  0  0  0  0  0  0  0  0
  -20.4383  -12.5527   20.8346 C   0  0  1  0  0  0  0  0  0  0  0  0
  -27.9754  -22.0526   19.6894 C   0  0  1  0  0  0  0  0  0  0  0  0
  -23.7153  -13.5639   19.1999 C   0  0  1  0  0  0  0  0  0  0  0  0
  -29.0794  -21.4183   20.5630 C   0  0  1  0  0  0  0  0  0  0  0  0
  -28.4575  -27.7343   18.3180 C   0  0  2  0  0  0  0  0  0  0  0  0
  -30.7857  -23.0794   19.5082 C   0  0  0  0  0  0  0  0  0  0  0  0
  -31.1514  -23.8708   20.7791 C   0  0  0  0  0  0  0  0  0  0  0  0
  -32.0380  -23.0069   18.6008 C   0  0  0  0  0  0  0  0  0  0  0  0
  -22.1896  -21.4106   19.2306 C   0  0  0  0  0  0  0  0  0  0  0  0
  -31.3221  -13.6883   20.6571 C   0  0  0  0  0  0  0  0  0  0  0  0
  -28.0061  -19.7404   22.0859 C   0  0  0  0  0  0  0  0  0  0  0  0
  -30.1827  -19.2029   20.9635 C   0  0  0  0  0  0  0  0  0  0  0  0
  -28.0734  -19.3271   19.6138 C   0  0  0  0  0  0  0  0  0  0  0  0
  -25.3515  -13.5775   23.5223 C   0  0  0  0  0  0  0  0  0  0  0  0
  -27.8288  -13.8691   23.7369 C   0  0  0  0  0  0  0  0  0  0  0  0
  -26.8946  -11.6966   22.9431 C   0  0  0  0  0  0  0  0  0  0  0  0
  -29.6211  -14.6145   17.3822 C   0  0  0  0  0  0  0  0  0  0  0  0
  -27.1652  -23.8629   23.4864 C   0  0  0  0  0  0  0  0  0  0  0  0
  -23.3884  -20.5252   19.5805 C   0  0  1  0  0  0  0  0  0  1  0  0
  -26.8317  -13.7067   21.4109 C   0  0  1  0  0  0  0  0  0  0  0  0
  -30.1866  -13.7236   19.6461 C   0  0  2  0  0  0  0  0  0  0  0  0
  -28.8357  -19.9239   20.8063 C   0  0  0  0  0  0  0  0  0  0  0  0
  -26.7116  -13.2289   22.8856 C   0  0  0  0  0  0  0  0  0  0  0  0
  -26.6281  -27.9419   19.8667 N   0  0  0  0  0  0  0  0  0  0  0  0
  -25.6708  -21.3228   19.7038 N   0  0  0  0  0  0  0  0  0  0  0  0
  -27.7646  -28.4554   19.3659 N   0  0  0  0  0  0  0  0  0  0  0  0
  -24.9024  -14.0569   19.9013 N   0  0  0  0  0  0  0  0  0  0  0  0
  -28.8743  -25.4779   17.3757 N   0  0  0  0  0  0  0  0  0  0  0  0
  -29.6344  -23.7098   18.7954 N   0  0  0  0  0  0  0  0  0  0  0  0
  -29.2495  -30.2917   19.5497 N   0  0  0  0  0  0  0  0  0  0  0  0
  -26.0770  -31.2045   22.6317 N   0  0  0  0  0  0  0  0  0  0  0  0
  -21.6226  -12.6565   20.0093 N   0  0  0  0  0  0  0  0  0  0  0  0
  -28.0993  -13.3662   20.7738 N   0  0  0  0  0  0  0  0  0  0  0  0
  -30.6325  -14.5169   18.4659 N   0  3  0  0  0  0  0  0  0  0  0  0
  -28.0154  -31.9672   21.6726 O   0  0  0  0  0  0  0  0  0  0  0  0
  -22.5420  -14.5567   20.9923 O   0  0  0  0  0  0  0  0  0  0  0  0
  -25.6611  -11.9090   20.3986 O   0  0  0  0  0  0  0  0  0  0  0  0
  -28.7128  -15.5403   20.2502 O   0  0  0  0  0  0  0  0  0  0  0  0
  -30.7121  -24.1981   16.7943 O   0  0  0  0  0  0  0  0  0  0  0  0
  -21.6191  -28.0731   23.7962 O   0  0  0  0  0  0  0  0  0  0  0  0
  -27.4635  -23.2693   22.2219 O   0  0  0  0  0  0  0  0  0  0  0  0
  -23.8739  -19.9452   18.3620 O   0  0  0  0  0  0  0  0  0  1  0  0
  -17.0740  -26.4689   21.1180 F   0  0  0  0  0  0  0  0  0  0  0  0
  -19.3299  -29.6226   23.8328 F   0  0  0  0  0  0  0  0  0  0  0  0
  1  2  1  0  0  0  0
  1  5  2  0  0  0  0
  2  6  2  0  0  0  0
  3  8  2  0  0  0  0
  3 17  1  0  0  0  0
  4  9  1  0  0  0  0
  4 17  2  0  0  0  0
  5 19  1  0  0  0  0
  6 21  1  0  0  0  0
  7 10  2  0  0  0  0
  7 20  1  0  0  0  0
  8 23  1  0  0  0  0
  9 23  2  0  0  0  0
 10 24  1  0  0  0  0
 11 13  2  0  0  0  0
 11 25  1  0  0  0  0
 12 14  2  0  0  0  0
 12 26  1  0  0  0  0
 13 27  1  0  0  0  0
 14 31  1  0  0  0  0
 15 22  1  0  0  0  0
 15 24  2  0  0  0  0
 16 27  2  0  0  0  0
 16 28  1  0  0  0  0
 17 29  1  0  0  0  0
 18 29  1  0  0  0  0
 18 32  2  0  0  0  0
 18 33  1  0  0  0  0
 19 21  2  0  0  0  0
 19 38  1  0  0  0  0
 20 22  2  0  0  0  0
 20 39  1  0  0  0  0
 21 49  1  0  0  0  0
 22 40  1  0  0  0  0
 23 88  1  0  0  0  0
 24 90  1  0  0  0  0
 25 28  2  0  0  0  0
 25 88  1  0  0  0  0
 26 30  2  0  0  0  0
 26 89  1  0  0  0  0
 27 91  1  0  0  0  0
 28 92  1  0  0  0  0
 29 72  2  0  0  0  0
 30 50  1  0  0  0  0
 30 73  1  0  0  0  0
 31 67  1  0  0  0  0
 31 73  2  0  0  0  0
 32 74  1  0  0  0  0
 32 78  1  0  0  0  0
 33 79  1  0  0  0  0
 33 83  2  0  0  0  0
 34 51  1  0  0  0  0
 34 80  1  0  0  0  0
 34 84  2  0  0  0  0
 35 68  1  0  0  0  0
 35 75  1  0  0  0  0
 35 85  2  0  0  0  0
 36 69  1  0  0  0  0
 36 81  1  0  0  0  0
 36 86  2  0  0  0  0
 37 76  1  0  0  0  0
 37 77  1  0  0  0  0
 37 87  2  0  0  0  0
 38 41  1  0  0  0  0
 39 51  1  0  0  0  0
 40 75  1  0  0  0  0
 41 43  1  0  0  0  0
 42 44  1  0  0  0  0
 42 46  1  0  0  0  0
 43 49  1  0  0  0  0
 44 53  1  0  0  0  0
 45 52  1  0  0  0  0
 45 54  1  0  0  0  0
 46 76  1  0  0  0  0
 47 50  1  0  0  0  0
 47 77  1  0  0  0  0
 48 53  1  0  0  0  0
 48 76  1  0  0  0  0
 49 80  1  0  0  0  0
 50 52  1  0  0  0  0
 51 75  1  0  0  0  0
 52 70  1  0  0  0  0
 53 74  1  0  0  0  0
 54 55  1  0  0  0  0
 54 56  1  0  0  0  0
 54 77  1  0  0  0  0
 57 67  1  0  0  0  0
 58 69  1  0  0  0  0
 59 70  1  0  0  0  0
 60 70  1  0  0  0  0
 61 70  1  0  0  0  0
 62 71  1  0  0  0  0
 63 71  1  0  0  0  0
 64 71  1  0  0  0  0
 65 82  1  0  0  0  0
 66 89  1  0  0  0  0
 67 90  1  0  0  0  0
 68 71  1  0  0  0  0
 68 81  1  0  0  0  0
 69 82  1  0  0  0  0
 72 74  1  0  0  0  0
M  CHG  1  82   1
M  ISO  4  37 100  67 101  77 100  90 101
M  END
> <Batch ID>
0117

> <Smiles>
CNC(C)C(=O)NC(C(=O)N1Cc2cc([101O:1][101CH:1](C)c3ccc(OC)c(C4C[100N:0]([100C:0](=O)N5CCCC(n6nc(-c7ccc(Oc8ccc(F)cc8F)cc7)c(C(N)=O)c6N)C5)C(C)(C)CC4C(C)(C)C)n3)ccc2CC1C(=O)NC1CCCc2ccccc21)C(C)(C)C

> <Shape>
0.254

> <Color>
0.051

> <Negative vol penalty>
0.000

$$$$

  -OEChem-04052320152D

  0  0  0     0  0  0  0  0  0999 V2000
M  END
$$$$

  -OEChem-04052320153D

 87 96  0     1  0  0  0  0  0999 V2000
  -16.4441  -29.5265   24.1542 C   0  0  0  0  0  0  0  0  0  0  0  0
  -16.3727  -28.2693   23.5627 C   0  0  0  0  0  0  0  0  0  0  0  0
  -23.8530   -9.6226   22.4810 C   0  0  0  0  0  0  0  0  0  0  0  0
  -23.2477  -10.3204   20.2486 C   0  0  0  0  0  0  0  0  0  0  0  0
  -17.5929  -30.3021   24.0038 C   0  0  0  0  0  0  0  0  0  0  0  0
  -17.4496  -27.7875   22.8194 C   0  0  0  0  0  0  0  0  0  0  0  0
  -21.5437  -21.1860   23.6475 C   0  0  0  0  0  0  0  0  0  0  0  0
  -22.9241   -8.5846   22.4085 C   0  0  0  0  0  0  0  0  0  0  0  0
  -22.3188   -9.2823   20.1760 C   0  0  0  0  0  0  0  0  0  0  0  0
  -22.4409  -20.1275   23.7912 C   0  0  0  0  0  0  0  0  0  0  0  0
  -19.5789   -8.2102   22.7152 C   0  0  0  0  0  0  0  0  0  0  0  0
  -18.7522   -8.0030   23.8194 C   0  0  0  0  0  0  0  0  0  0  0  0
  -24.1759  -21.4410   22.7364 C   0  0  0  0  0  0  0  0  0  0  0  0
  -19.6275   -5.7634   24.0545 C   0  0  0  0  0  0  0  0  0  0  0  0
  -24.0147  -10.4906   21.4011 C   0  0  0  0  0  0  0  0  0  0  0  0
  -24.9970  -12.6196   22.4061 C   0  0  0  0  0  0  0  0  0  0  0  0
  -18.6883  -29.8255   23.2664 C   0  0  0  0  0  0  0  0  0  0  0  0
  -21.9639  -22.3830   23.0609 C   0  0  0  0  0  0  0  0  0  0  0  0
  -18.6136  -28.5580   22.6579 C   0  0  0  0  0  0  0  0  0  0  0  0
  -23.2851  -22.5091   22.6011 C   0  0  0  0  0  0  0  0  0  0  0  0
  -22.1570   -8.4144   21.2560 C   0  0  0  0  0  0  0  0  0  0  0  0
  -23.7537  -20.2546   23.3365 C   0  0  0  0  0  0  0  0  0  0  0  0
  -20.4299   -7.1940   22.2806 C   0  0  0  0  0  0  0  0  0  0  0  0
  -18.7765   -6.7796   24.4890 C   0  0  0  0  0  0  0  0  0  0  0  0
  -20.4542   -5.9706   22.9503 C   0  0  0  0  0  0  0  0  0  0  0  0
  -24.9737  -11.5634   21.4757 C   0  0  0  0  0  0  0  0  0  0  0  0
  -26.0965  -13.3635   22.0536 C   0  0  0  0  0  0  0  0  0  0  0  0
  -24.1046  -12.9030   23.4919 C   0  0  0  0  0  0  0  0  0  0  0  0
  -21.0665  -25.8713   22.0113 C   0  0  0  0  0  0  0  0  0  0  0  0
  -23.8881  -25.9991   23.2082 C   0  0  0  0  0  0  0  0  0  0  0  0
  -26.7971  -25.7852   24.9772 C   0  0  0  0  0  0  0  0  0  0  0  0
  -31.4370  -13.7256   20.4952 C   0  0  0  0  0  0  0  0  0  0  0  0
  -19.8902  -30.7197   23.0920 C   0  0  0  0  0  0  0  0  0  0  0  0
  -21.0149  -23.5275   22.8300 C   0  0  0  0  0  0  0  0  0  0  0  0
  -23.6833  -23.8029   21.9451 C   0  0  0  0  0  0  0  0  0  0  0  0
  -21.1329  -29.9809   22.6018 C   0  0  0  0  0  0  0  0  0  0  0  0
  -29.0368  -13.1494   17.9420 C   0  0  0  0  0  0  0  0  0  0  0  0
  -20.7821  -29.0606   21.4370 C   0  0  0  0  0  0  0  0  0  0  0  0
  -27.9714  -19.2621   25.1935 C   0  0  0  0  0  0  0  0  0  0  0  0
  -28.3081  -19.1475   22.6896 C   0  0  0  0  0  0  0  0  0  0  0  0
  -27.7684  -12.7706   18.7085 C   0  0  0  0  0  0  0  0  0  0  0  0
  -26.4744  -19.0414   24.9986 C   0  0  0  0  0  0  0  0  0  0  0  0
  -26.8099  -18.9278   22.5016 C   0  0  0  0  0  0  0  0  0  0  0  0
  -30.9395  -16.7754   23.0751 C   0  0  0  0  0  0  0  0  0  0  0  0
  -30.2900  -12.5948   18.6158 C   0  0  0  0  0  0  0  0  0  0  0  0
  -29.1659  -12.5627   20.8071 C   0  0  0  0  0  0  0  0  0  0  0  0
  -33.2857  -17.1764   23.1062 C   0  0  0  0  0  0  0  0  0  0  0  0
  -19.7707  -27.9904   21.8647 C   0  0  1  0  0  0  0  0  0  0  0  0
  -21.6838  -24.9056   22.9796 C   0  0  1  0  0  0  0  0  0  0  0  0
  -28.7879  -18.6353   24.0548 C   0  0  0  0  0  0  0  0  0  0  0  0
  -32.2291  -16.3475   22.3902 C   0  0  1  0  0  0  0  0  0  0  0  0
  -27.8794  -13.1467   20.1985 C   0  0  2  0  0  0  0  0  0  0  0  0
  -26.0016  -19.5488   23.6389 C   0  0  0  0  0  0  0  0  0  1  0  0
  -31.0970  -18.2879   23.1624 C   0  0  1  0  0  0  0  0  0  0  0  0
  -28.7128  -27.1850   25.7946 C   0  0  0  0  0  0  0  0  0  0  0  0
  -33.0501  -19.4848   21.2623 C   0  0  0  0  0  0  0  0  0  0  0  0
  -34.6191  -19.8213   23.2115 C   0  0  0  0  0  0  0  0  0  0  0  0
  -25.0580  -26.0363   20.3915 C   0  0  0  0  0  0  0  0  0  0  0  0
  -27.2899  -26.5520   21.4018 C   0  0  0  0  0  0  0  0  0  0  0  0
  -25.3941  -28.1476   21.6891 C   0  0  0  0  0  0  0  0  0  0  0  0
  -26.1825  -25.1802   27.8083 C   0  0  0  0  0  0  0  0  0  0  0  0
  -30.2779  -18.9150   24.2423 C   0  0  0  0  0  0  0  0  0  0  0  0
  -32.4883  -14.8536   22.4778 C   0  0  0  0  0  0  0  0  0  0  0  0
  -25.3735  -25.9580   22.9528 C   0  0  1  0  0  0  0  0  0  0  0  0
  -27.3416  -26.6161   26.1250 C   0  0  2  0  0  0  0  0  0  0  0  0
  -33.1729  -19.6772   22.7653 C   0  0  0  0  0  0  0  0  0  0  0  0
  -25.7645  -26.6502   21.6166 C   0  0  0  0  0  0  0  0  0  0  0  0
  -25.9785  -11.6271   20.5980 N   0  0  0  0  0  0  0  0  0  0  0  0
  -26.6434  -12.7324   20.9752 N   0  0  0  0  0  0  0  0  0  0  0  0
  -23.1289  -24.9392   22.6975 N   0  0  0  0  0  0  0  0  0  0  0  0
  -30.3353  -12.9938   20.0248 N   0  0  0  0  0  0  0  0  0  0  0  0
  -26.6391  -14.4894   22.5638 N   0  0  0  0  0  0  0  0  0  0  0  0
  -22.9882  -13.7136   23.2451 N   0  0  0  0  0  0  0  0  0  0  0  0
  -20.4305  -26.9411   22.6118 N   0  0  0  0  0  0  0  0  0  0  0  0
  -26.0067  -26.5363   24.1330 N   0  0  0  0  0  0  0  0  0  0  0  0
  -31.4054  -14.0762   21.8409 N   0  0  0  0  0  0  0  0  0  0  0  0
  -32.5821  -18.4808   23.4473 N   0  3  2  0  0  0  0  0  0  0  0  0
  -27.4621  -25.7838   27.3553 N   0  3  0  0  0  0  0  0  0  0  0  0
  -24.3006  -12.4642   24.6506 O   0  0  0  0  0  0  0  0  0  0  0  0
  -21.1608  -25.6632   20.8074 O   0  0  0  0  0  0  0  0  0  0  0  0
  -23.4104  -26.9468   23.8381 O   0  0  0  0  0  0  0  0  0  0  0  0
  -27.0507  -24.5904   24.8408 O   0  0  0  0  0  0  0  0  0  0  0  0
  -32.3827  -14.0542   19.7706 O   0  0  0  0  0  0  0  0  0  0  0  0
  -21.2507   -7.4015   21.1848 O   0  0  0  0  0  0  0  0  0  0  0  0
  -24.6257  -19.2189   23.4840 O   0  0  0  0  0  0  0  0  0  1  0  0
  -17.9836   -6.5813   25.5502 F   0  0  0  0  0  0  0  0  0  0  0  0
  -21.2705   -4.9910   22.5382 F   0  0  0  0  0  0  0  0  0  0  0  0
  1  2  1  0  0  0  0
  1  5  2  0  0  0  0
  2  6  2  0  0  0  0
  3  8  2  0  0  0  0
  3 15  1  0  0  0  0
  4  9  1  0  0  0  0
  4 15  2  0  0  0  0
  5 17  1  0  0  0  0
  6 19  1  0  0  0  0
  7 10  2  0  0  0  0
  7 18  1  0  0  0  0
  8 21  1  0  0  0  0
  9 21  2  0  0  0  0
 10 22  1  0  0  0  0
 11 12  2  0  0  0  0
 11 23  1  0  0  0  0
 12 24  1  0  0  0  0
 13 20  1  0  0  0  0
 13 22  2  0  0  0  0
 14 24  2  0  0  0  0
 14 25  1  0  0  0  0
 15 26  1  0  0  0  0
 16 26  1  0  0  0  0
 16 27  2  0  0  0  0
 16 28  1  0  0  0  0
 17 19  2  0  0  0  0
 17 33  1  0  0  0  0
 18 20  2  0  0  0  0
 18 34  1  0  0  0  0
 19 48  1  0  0  0  0
 20 35  1  0  0  0  0
 21 84  1  0  0  0  0
 22 85  1  0  0  0  0
 23 25  2  0  0  0  0
 23 84  1  0  0  0  0
 24 86  1  0  0  0  0
 25 87  1  0  0  0  0
 26 68  2  0  0  0  0
 27 69  1  0  0  0  0
 27 72  1  0  0  0  0
 28 73  1  0  0  0  0
 28 79  2  0  0  0  0
 29 49  1  0  0  0  0
 29 74  1  0  0  0  0
 29 80  2  0  0  0  0
 30 64  1  0  0  0  0
 30 70  1  0  0  0  0
 30 81  2  0  0  0  0
 31 65  1  0  0  0  0
 31 75  1  0  0  0  0
 31 82  2  0  0  0  0
 32 71  1  0  0  0  0
 32 76  1  0  0  0  0
 32 83  2  0  0  0  0
 33 36  1  0  0  0  0
 34 49  1  0  0  0  0
 35 70  1  0  0  0  0
 36 38  1  0  0  0  0
 37 41  1  0  0  0  0
 37 45  1  0  0  0  0
 38 48  1  0  0  0  0
 39 42  1  0  0  0  0
 39 50  1  0  0  0  0
 40 43  1  0  0  0  0
 40 50  1  0  0  0  0
 41 52  1  0  0  0  0
 42 53  1  0  0  0  0
 43 53  1  0  0  0  0
 44 51  1  0  0  0  0
 44 54  1  0  0  0  0
 45 71  1  0  0  0  0
 46 52  1  0  0  0  0
 46 71  1  0  0  0  0
 47 51  1  0  0  0  0
 47 77  1  0  0  0  0
 48 74  1  0  0  0  0
 49 70  1  0  0  0  0
 50 62  1  0  0  0  0
 51 63  1  0  0  0  0
 52 69  1  0  0  0  0
 53 85  1  0  0  0  0
 54 62  1  0  0  0  0
 54 77  1  0  0  0  0
 55 65  1  0  0  0  0
 56 66  1  0  0  0  0
 57 66  1  0  0  0  0
 58 67  1  0  0  0  0
 59 67  1  0  0  0  0
 60 67  1  0  0  0  0
 61 78  1  0  0  0  0
 63 76  1  0  0  0  0
 64 67  1  0  0  0  0
 64 75  1  0  0  0  0
 65 78  1  0  0  0  0
 66 77  1  0  0  0  0
 68 69  1  0  0  0  0
M  CHG  2  77   1  78   1
M  ISO  4  32 100  53 101  76 100  85 101
M  END
> <Batch ID>
0117

> <Smiles>
CNC(C)C(=O)NC(C(=O)N1Cc2cc([101O:1][101CH:1]3CCC(CC4CC(C[100NH:0][100C:0](=O)N5CCCC(n6nc(-c7ccc(Oc8ccc(F)cc8F)cc7)c(C(N)=O)c6N)C5)CN4C(C)C)CC3)ccc2CC1C(=O)NC1CCCc2ccccc21)C(C)(C)C

> <Shape>
0.204

> <Color>
0.099

> <Negative vol penalty>
0.000

$$$$

  -OEChem-04052320153D

 85 93  0     1  0  0  0  0  0999 V2000
  -28.5455  -24.5566   17.4157 C   0  0  0  0  0  0  0  0  0  0  0  0
  -27.4075  -24.6890   18.2049 C   0  0  0  0  0  0  0  0  0  0  0  0
  -24.3242  -13.3990   20.0069 C   0  0  0  0  0  0  0  0  0  0  0  0
  -26.6946  -13.0169   20.2757 C   0  0  0  0  0  0  0  0  0  0  0  0
  -29.7029  -25.2635   17.7390 C   0  0  0  0  0  0  0  0  0  0  0  0
  -27.4267  -25.5277   19.3187 C   0  0  0  0  0  0  0  0  0  0  0  0
  -23.2827  -28.4202   19.6440 C   0  0  0  0  0  0  0  0  0  0  0  0
  -24.0544  -12.2803   20.7952 C   0  0  0  0  0  0  0  0  0  0  0  0
  -26.4249  -11.8983   21.0641 C   0  0  0  0  0  0  0  0  0  0  0  0
  -22.1218  -27.8176   20.1268 C   0  0  0  0  0  0  0  0  0  0  0  0
  -24.0108   -8.9215   20.4203 C   0  0  0  0  0  0  0  0  0  0  0  0
  -23.0290   -8.0367   19.9743 C   0  0  0  0  0  0  0  0  0  0  0  0
  -22.5238  -28.7945   22.2955 C   0  0  0  0  0  0  0  0  0  0  0  0
  -21.7592   -8.4286   21.9920 C   0  0  0  0  0  0  0  0  0  0  0  0
  -25.6442  -13.7673   19.7471 C   0  0  0  0  0  0  0  0  0  0  0  0
  -25.5378  -15.1327   17.5949 C   0  0  0  0  0  0  0  0  0  0  0  0
  -29.7332  -26.1188   18.8518 C   0  0  0  0  0  0  0  0  0  0  0  0
  -24.0799  -29.2070   20.4877 C   0  0  0  0  0  0  0  0  0  0  0  0
  -28.5860  -26.2458   19.6581 C   0  0  0  0  0  0  0  0  0  0  0  0
  -23.6929  -29.4082   21.8203 C   0  0  0  0  0  0  0  0  0  0  0  0
  -25.1048  -11.5300   21.3238 C   0  0  0  0  0  0  0  0  0  0  0  0
  -21.7438  -28.0023   21.4535 C   0  0  0  0  0  0  0  0  0  0  0  0
  -23.8668   -9.5598   21.6522 C   0  0  0  0  0  0  0  0  0  0  0  0
  -21.9032   -7.7903   20.7601 C   0  0  0  0  0  0  0  0  0  0  0  0
  -22.7410   -9.3133   22.4380 C   0  0  0  0  0  0  0  0  0  0  0  0
  -25.9235  -14.9224   18.9324 C   0  0  0  0  0  0  0  0  0  0  0  0
  -26.0430  -16.3711   17.2825 C   0  0  0  0  0  0  0  0  0  0  0  0
  -24.7897  -14.2845   16.7137 C   0  0  0  0  0  0  0  0  0  0  0  0
  -27.0716  -29.0363   21.5481 C   0  0  0  0  0  0  0  0  0  0  0  0
  -26.3798  -31.9460   22.8042 C   0  0  0  0  0  0  0  0  0  0  0  0
  -24.0054  -34.1362   23.9050 C   0  0  0  0  0  0  0  0  0  0  0  0
  -27.4758  -21.1455   20.5997 C   0  0  0  0  0  0  0  0  0  0  0  0
  -31.0220  -26.8259   19.1889 C   0  0  0  0  0  0  0  0  0  0  0  0
  -25.3149  -29.8720   19.9445 C   0  0  0  0  0  0  0  0  0  0  0  0
  -24.5033  -30.2602   22.7615 C   0  0  0  0  0  0  0  0  0  0  0  0
  -30.8439  -27.9822   20.1695 C   0  0  0  0  0  0  0  0  0  0  0  0
  -29.6196  -19.3465   18.3988 C   0  0  0  0  0  0  0  0  0  0  0  0
  -29.9621  -27.5586   21.3399 C   0  0  0  0  0  0  0  0  0  0  0  0
  -28.8807  -18.0276   18.1653 C   0  0  0  0  0  0  0  0  0  0  0  0
  -23.1236  -21.4036   21.8572 C   0  0  0  0  0  0  0  0  0  0  0  0
  -29.4406  -19.8480   19.8300 C   0  0  0  0  0  0  0  0  0  0  0  0
  -21.6144  -21.3772   21.5900 C   0  0  0  0  0  0  0  0  0  0  0  0
  -27.3002  -18.6447   20.0415 C   0  0  0  0  0  0  0  0  0  0  0  0
  -22.1214  -23.8718   20.2427 C   0  0  0  0  0  0  0  0  0  0  0  0
  -28.5599  -27.1649   20.8600 C   0  0  1  0  0  0  0  0  0  0  0  0
  -26.3254  -30.2327   21.0290 C   0  0  1  0  0  0  0  0  0  0  0  0
  -27.4051  -18.1277   18.5965 C   0  0  2  0  0  0  0  0  0  0  0  0
  -20.9480  -23.7489   21.2283 C   0  0  2  0  0  0  0  0  0  0  0  0
  -23.9513  -22.2787   20.9187 C   0  0  2  0  0  0  0  0  0  0  0  0
  -23.7477  -36.4211   24.9101 C   0  0  0  0  0  0  0  0  0  0  0  0
  -19.6085  -21.5808   23.9033 C   0  0  0  0  0  0  0  0  0  0  0  0
  -18.9669  -21.3038   21.4830 C   0  0  0  0  0  0  0  0  0  0  0  0
  -18.7066  -26.0609   21.3605 C   0  0  0  0  0  0  0  0  0  0  0  0
  -27.2939  -30.8586   25.5046 C   0  0  0  0  0  0  0  0  0  0  0  0
  -26.1464  -32.7980   26.5955 C   0  0  0  0  0  0  0  0  0  0  0  0
  -28.0356  -33.1965   25.0161 C   0  0  0  0  0  0  0  0  0  0  0  0
  -22.4138  -35.0966   21.6021 C   0  0  0  0  0  0  0  0  0  0  0  0
  -20.8674  -25.0233   22.0891 C   0  0  0  0  0  0  0  0  0  0  0  0
  -25.4161  -22.3123   21.3451 C   0  0  0  0  0  0  0  0  0  0  0  0
  -25.8012  -32.4369   24.1093 C   0  0  1  0  0  0  0  0  0  0  0  0
  -23.7881  -35.6119   23.6231 C   0  0  2  0  0  0  0  0  0  0  0  0
  -19.5740  -22.2295   22.5271 C   0  0  0  0  0  0  0  0  0  0  0  0
  -20.2246  -26.1768   21.3285 C   0  0  2  0  0  0  0  0  0  1  0  0
  -26.8048  -32.3048   25.2894 C   0  0  0  0  0  0  0  0  0  0  0  0
  -26.6201  -15.9452   19.4350 N   0  0  0  0  0  0  0  0  0  0  0  0
  -26.6762  -16.8101   18.4079 N   0  0  0  0  0  0  0  0  0  0  0  0
  -25.7057  -30.8840   22.1849 N   0  0  0  0  0  0  0  0  0  0  0  0
  -28.0189  -19.9215   20.1757 N   0  0  0  0  0  0  0  0  0  0  0  0
  -20.9445  -22.5703   22.1213 N   0  0  1  0  0  0  0  0  0  0  0  0
  -26.0030  -17.1165   16.1577 N   0  0  0  0  0  0  0  0  0  0  0  0
  -25.4878  -13.3652   15.9188 N   0  0  0  0  0  0  0  0  0  0  0  0
  -27.7722  -28.3457   20.5778 N   0  0  0  0  0  0  0  0  0  0  0  0
  -25.3420  -33.8000   23.8651 N   0  0  0  0  0  0  0  0  0  0  0  0
  -26.1195  -21.1293   20.9016 N   0  0  0  0  0  0  0  0  0  0  0  0
  -23.4417  -23.6856   20.9109 N   0  3  0  0  0  0  0  0  0  0  0  0
  -22.5022  -35.8170   22.8983 N   0  3  0  0  0  0  0  0  0  0  0  0
  -23.5405  -14.3514   16.6215 O   0  0  0  0  0  0  0  0  0  0  0  0
  -27.0170  -28.7611   22.7410 O   0  0  0  0  0  0  0  0  0  0  0  0
  -27.3885  -32.4896   22.3474 O   0  0  0  0  0  0  0  0  0  0  0  0
  -23.0820  -33.3602   24.1409 O   0  0  0  0  0  0  0  0  0  0  0  0
  -28.1484  -22.1775   20.6966 O   0  0  0  0  0  0  0  0  0  0  0  0
  -24.8420  -10.4385   22.0933 O   0  0  0  0  0  0  0  0  0  0  0  0
  -20.6047  -27.4111   21.9303 O   0  0  0  0  0  0  0  0  0  1  0  0
  -20.9598   -6.9418   20.3309 F   0  0  0  0  0  0  0  0  0  0  0  0
  -22.5965   -9.9245   23.6218 F   0  0  0  0  0  0  0  0  0  0  0  0
  1  2  1  0  0  0  0
  1  5  2  0  0  0  0
  2  6  2  0  0  0  0
  3  8  2  0  0  0  0
  3 15  1  0  0  0  0
  4  9  1  0  0  0  0
  4 15  2  0  0  0  0
  5 17  1  0  0  0  0
  6 19  1  0  0  0  0
  7 10  2  0  0  0  0
  7 18  1  0  0  0  0
  8 21  1  0  0  0  0
  9 21  2  0  0  0  0
 10 22  1  0  0  0  0
 11 12  2  0  0  0  0
 11 23  1  0  0  0  0
 12 24  1  0  0  0  0
 13 20  1  0  0  0  0
 13 22  2  0  0  0  0
 14 24  2  0  0  0  0
 14 25  1  0  0  0  0
 15 26  1  0  0  0  0
 16 26  1  0  0  0  0
 16 27  2  0  0  0  0
 16 28  1  0  0  0  0
 17 19  2  0  0  0  0
 17 33  1  0  0  0  0
 18 20  2  0  0  0  0
 18 34  1  0  0  0  0
 19 45  1  0  0  0  0
 20 35  1  0  0  0  0
 21 82  1  0  0  0  0
 22 83  1  0  0  0  0
 23 25  2  0  0  0  0
 23 82  1  0  0  0  0
 24 84  1  0  0  0  0
 25 85  1  0  0  0  0
 26 65  2  0  0  0  0
 27 66  1  0  0  0  0
 27 70  1  0  0  0  0
 28 71  1  0  0  0  0
 28 77  2  0  0  0  0
 29 46  1  0  0  0  0
 29 72  1  0  0  0  0
 29 78  2  0  0  0  0
 30 60  1  0  0  0  0
 30 67  1  0  0  0  0
 30 79  2  0  0  0  0
 31 61  1  0  0  0  0
 31 73  1  0  0  0  0
 31 80  2  0  0  0  0
 32 68  1  0  0  0  0
 32 74  1  0  0  0  0
 32 81  2  0  0  0  0
 33 36  1  0  0  0  0
 34 46  1  0  0  0  0
 35 67  1  0  0  0  0
 36 38  1  0  0  0  0
 37 39  1  0  0  0  0
 37 41  1  0  0  0  0
 38 45  1  0  0  0  0
 39 47  1  0  0  0  0
 40 42  1  0  0  0  0
 40 49  1  0  0  0  0
 41 68  1  0  0  0  0
 42 69  1  0  0  0  0
 43 47  1  0  0  0  0
 43 68  1  0  0  0  0
 44 48  1  0  0  0  0
 44 75  1  0  0  0  0
 45 72  1  0  0  0  0
 46 67  1  0  0  0  0
 47 66  1  0  0  0  0
 48 58  1  0  0  0  0
 48 69  1  0  0  0  0
 49 59  1  0  0  0  0
 49 75  1  0  0  0  0
 50 61  1  0  0  0  0
 51 62  1  0  0  0  0
 52 62  1  0  0  0  0
 53 63  1  0  0  0  0
 54 64  1  0  0  0  0
 55 64  1  0  0  0  0
 56 64  1  0  0  0  0
 57 76  1  0  0  0  0
 58 63  1  0  0  0  0
 59 74  1  0  0  0  0
 60 64  1  0  0  0  0
 60 73  1  0  0  0  0
 61 76  1  0  0  0  0
 62 69  1  0  0  0  0
 63 83  1  0  0  0  0
 65 66  1  0  0  0  0
M  CHG  2  75   1  76   1
M  ISO  4  32 100  63 101  74 100  83 101
M  END
> <Batch ID>
0117

> <Smiles>
CNC(C)C(=O)NC(C(=O)N1Cc2cc([101O:1][101CH:1](C)CC3CNC(C[100NH:0][100C:0](=O)N4CCCC(n5nc(-c6ccc(Oc7ccc(F)cc7F)cc6)c(C(N)=O)c5N)C4)CCN3C(C)C)ccc2CC1C(=O)NC1CCCc2ccccc21)C(C)(C)C

> <Shape>
0.313

> <Color>
0.072

> <Negative vol penalty>
0.000

$$$$

  -OEChem-04052320153D

 85 93  0     1  0  0  0  0  0999 V2000
  -21.7005  -12.5954   21.9125 C   0  0  0  0  0  0  0  0  0  0  0  0
  -22.0948  -13.7873   22.5119 C   0  0  0  0  0  0  0  0  0  0  0  0
  -29.1457  -29.9864   19.7301 C   0  0  0  0  0  0  0  0  0  0  0  0
  -28.7116  -29.2834   22.0005 C   0  0  0  0  0  0  0  0  0  0  0  0
  -22.5880  -11.9035   21.0894 C   0  0  0  0  0  0  0  0  0  0  0  0
  -23.3772  -14.2875   22.2892 C   0  0  0  0  0  0  0  0  0  0  0  0
  -23.3837  -19.2602   21.3313 C   0  0  0  0  0  0  0  0  0  0  0  0
  -30.3017  -30.6418   20.1541 C   0  0  0  0  0  0  0  0  0  0  0  0
  -29.8676  -29.9388   22.4245 C   0  0  0  0  0  0  0  0  0  0  0  0
  -23.2458  -20.1187   22.4211 C   0  0  0  0  0  0  0  0  0  0  0  0
  -32.5103  -31.7289   24.1627 C   0  0  0  0  0  0  0  0  0  0  0  0
  -32.4283  -32.5056   25.3183 C   0  0  0  0  0  0  0  0  0  0  0  0
  -25.6293  -20.4909   22.4217 C   0  0  0  0  0  0  0  0  0  0  0  0
  -21.4056  -23.6432   25.0349 C   0  0  0  0  0  0  0  0  0  0  0  0
  -30.7428  -33.8845   24.2719 C   0  0  0  0  0  0  0  0  0  0  0  0
  -22.0634  -24.0879   22.7929 C   0  0  0  0  0  0  0  0  0  0  0  0
  -28.3506  -29.3072   20.6533 C   0  0  0  0  0  0  0  0  0  0  0  0
  -27.0458  -27.2958   19.7819 C   0  0  0  0  0  0  0  0  0  0  0  0
  -23.8786  -12.4004   20.8488 C   0  0  0  0  0  0  0  0  0  0  0  0
  -24.6488  -19.0016   20.7845 C   0  0  0  0  0  0  0  0  0  0  0  0
  -24.2832  -13.6009   21.4631 C   0  0  0  0  0  0  0  0  0  0  0  0
  -25.7802  -19.6307   21.3233 C   0  0  0  0  0  0  0  0  0  0  0  0
  -21.2161  -24.3558   23.8560 C   0  0  0  0  0  0  0  0  0  0  0  0
  -22.4223  -22.6978   25.1134 C   0  0  0  0  0  0  0  0  0  0  0  0
  -30.6626  -30.6181   21.5012 C   0  0  0  0  0  0  0  0  0  0  0  0
  -24.3690  -20.7320   22.9683 C   0  0  0  0  0  0  0  0  0  0  0  0
  -31.7086  -32.0299   23.0616 C   0  0  0  0  0  0  0  0  0  0  0  0
  -31.5446  -33.5834   25.3730 C   0  0  0  0  0  0  0  0  0  0  0  0
  -30.8248  -33.1077   23.1163 C   0  0  0  0  0  0  0  0  0  0  0  0
  -27.1562  -28.6304   20.2161 C   0  0  0  0  0  0  0  0  0  0  0  0
  -23.2157  -22.5040   23.9940 C   0  0  0  0  0  0  0  0  0  1  0  0
  -25.7147  -27.1416   19.4805 C   0  0  0  0  0  0  0  0  0  0  0  0
  -28.0563  -26.2856   19.6619 C   0  0  0  0  0  0  0  0  0  0  0  0
  -26.4533  -16.4086   20.4330 C   0  0  0  0  0  0  0  0  0  0  0  0
  -28.3561  -18.4352   18.7614 C   0  0  0  0  0  0  0  0  0  0  0  0
  -29.3541  -21.6439   18.1655 C   0  0  0  0  0  0  0  0  0  0  0  0
  -20.7590  -29.9248   21.3636 C   0  0  0  0  0  0  0  0  0  0  0  0
  -24.8189  -11.5930   19.9893 C   0  0  0  0  0  0  0  0  0  0  0  0
  -24.7774  -18.0939   19.5920 C   0  0  0  0  0  0  0  0  0  0  0  0
  -27.1583  -19.4023   20.7602 C   0  0  0  0  0  0  0  0  0  0  0  0
  -26.0317  -12.3833   19.5049 C   0  0  0  0  0  0  0  0  0  0  0  0
  -21.8984  -29.6208   18.0041 C   0  0  0  0  0  0  0  0  0  0  0  0
  -26.6514  -13.1692   20.6560 C   0  0  0  0  0  0  0  0  0  0  0  0
  -23.3651  -29.2121   18.1509 C   0  0  0  0  0  0  0  0  0  0  0  0
  -21.4753  -30.6055   19.0920 C   0  0  0  0  0  0  0  0  0  0  0  0
  -23.2104  -29.7486   20.6180 C   0  0  0  0  0  0  0  0  0  0  0  0
  -25.6575  -14.1885   21.2261 C   0  0  1  0  0  0  0  0  0  0  0  0
  -26.1751  -17.5015   19.4401 C   0  0  1  0  0  0  0  0  0  0  0  0
  -23.6682  -28.7132   19.5765 C   0  0  2  0  0  0  0  0  0  0  0  0
  -21.0596  -19.9998   25.7622 C   0  0  0  0  0  0  0  0  0  0  0  0
  -23.0310  -22.8519   27.5417 C   0  0  0  0  0  0  0  0  0  0  0  0
  -30.5585  -23.5372   17.0420 C   0  0  0  0  0  0  0  0  0  0  0  0
  -30.6576  -17.5619   20.5643 C   0  0  0  0  0  0  0  0  0  0  0  0
  -31.9390  -19.5652   19.7814 C   0  0  0  0  0  0  0  0  0  0  0  0
  -31.2591  -17.8057   18.1491 C   0  0  0  0  0  0  0  0  0  0  0  0
  -27.1729  -22.0187   16.2007 C   0  0  0  0  0  0  0  0  0  0  0  0
  -20.1377  -25.3737   23.7405 C   0  0  0  0  0  0  0  0  0  0  0  0
  -21.4162  -21.0601   26.7970 C   0  0  0  0  0  0  0  0  0  0  0  0
  -20.1939  -29.1905   23.6658 C   0  0  0  0  0  0  0  0  0  0  0  0
  -19.5775  -27.8048   23.6181 C   0  0  0  0  0  0  0  0  0  0  0  0
  -22.6334  -21.9274   26.3704 C   0  0  1  0  0  0  0  0  0  0  0  0
  -29.5038  -19.3533   19.1063 C   0  0  1  0  0  0  0  0  0  0  0  0
  -29.5457  -22.4155   16.8723 C   0  0  2  0  0  0  0  0  0  0  0  0
  -30.8143  -18.5745   19.4123 C   0  0  0  0  0  0  0  0  0  0  0  0
  -23.0618  -23.1771   22.8317 N   0  0  0  0  0  0  0  0  0  0  0  0
  -25.9882  -29.2780   20.1938 N   0  0  0  0  0  0  0  0  0  0  0  0
  -25.1314  -28.3465   19.7420 N   0  0  0  0  0  0  0  0  0  0  0  0
  -27.2331  -18.5014   19.5982 N   0  0  0  0  0  0  0  0  0  0  0  0
  -21.7888  -30.0717   20.4197 N   0  0  0  0  0  0  0  0  0  0  0  0
  -24.9980  -26.0944   19.0200 N   0  0  0  0  0  0  0  0  0  0  0  0
  -29.3729  -26.6125   20.0140 N   0  0  0  0  0  0  0  0  0  0  0  0
  -25.5712  -15.3472   20.3633 N   0  0  0  0  0  0  0  0  0  0  0  0
  -29.6154  -20.2999   18.0018 N   0  0  0  0  0  0  0  0  0  0  0  0
  -21.1409  -29.4059   22.5947 N   0  0  0  0  0  0  0  0  0  0  0  0
  -28.2539  -23.0118   16.4287 N   0  3  0  0  0  0  0  0  0  0  0  0
  -20.6368  -26.7775   23.7893 N   0  3  0  0  0  0  0  0  0  0  0  0
  -27.8022  -25.1324   19.2388 O   0  0  0  0  0  0  0  0  0  0  0  0
  -27.3992  -16.5193   21.2042 O   0  0  0  0  0  0  0  0  0  0  0  0
  -28.4497  -17.6920   17.7813 O   0  0  0  0  0  0  0  0  0  0  0  0
  -29.0110  -22.1804   19.2167 O   0  0  0  0  0  0  0  0  0  0  0  0
  -19.5852  -30.2283   21.1249 O   0  0  0  0  0  0  0  0  0  0  0  0
  -31.7906  -31.2573   21.9153 O   0  0  0  0  0  0  0  0  0  0  0  0
  -24.2374  -21.5699   24.0325 O   0  0  0  0  0  0  0  0  0  1  0  0
  -31.4648  -34.3283   26.4834 F   0  0  0  0  0  0  0  0  0  0  0  0
  -30.0512  -33.4011   22.0621 F   0  0  0  0  0  0  0  0  0  0  0  0
  1  2  1  0  0  0  0
  1  5  2  0  0  0  0
  2  6  2  0  0  0  0
  3  8  2  0  0  0  0
  3 17  1  0  0  0  0
  4  9  1  0  0  0  0
  4 17  2  0  0  0  0
  5 19  1  0  0  0  0
  6 21  1  0  0  0  0
  7 10  2  0  0  0  0
  7 20  1  0  0  0  0
  8 25  1  0  0  0  0
  9 25  2  0  0  0  0
 10 26  1  0  0  0  0
 11 12  2  0  0  0  0
 11 27  1  0  0  0  0
 12 28  1  0  0  0  0
 13 22  1  0  0  0  0
 13 26  2  0  0  0  0
 14 23  2  0  0  0  0
 14 24  1  0  0  0  0
 15 28  2  0  0  0  0
 15 29  1  0  0  0  0
 16 23  1  0  0  0  0
 16 65  2  0  0  0  0
 17 30  1  0  0  0  0
 18 30  1  0  0  0  0
 18 32  2  0  0  0  0
 18 33  1  0  0  0  0
 19 21  2  0  0  0  0
 19 38  1  0  0  0  0
 20 22  2  0  0  0  0
 20 39  1  0  0  0  0
 21 47  1  0  0  0  0
 22 40  1  0  0  0  0
 23 57  1  0  0  0  0
 24 31  2  0  0  0  0
 24 61  1  0  0  0  0
 25 82  1  0  0  0  0
 26 83  1  0  0  0  0
 27 29  2  0  0  0  0
 27 82  1  0  0  0  0
 28 84  1  0  0  0  0
 29 85  1  0  0  0  0
 30 66  2  0  0  0  0
 31 65  1  0  0  0  0
 31 83  1  0  0  0  0
 32 67  1  0  0  0  0
 32 70  1  0  0  0  0
 33 71  1  0  0  0  0
 33 77  2  0  0  0  0
 34 48  1  0  0  0  0
 34 72  1  0  0  0  0
 34 78  2  0  0  0  0
 35 62  1  0  0  0  0
 35 68  1  0  0  0  0
 35 79  2  0  0  0  0
 36 63  1  0  0  0  0
 36 73  1  0  0  0  0
 36 80  2  0  0  0  0
 37 69  1  0  0  0  0
 37 74  1  0  0  0  0
 37 81  2  0  0  0  0
 38 41  1  0  0  0  0
 39 48  1  0  0  0  0
 40 68  1  0  0  0  0
 41 43  1  0  0  0  0
 42 44  1  0  0  0  0
 42 45  1  0  0  0  0
 43 47  1  0  0  0  0
 44 49  1  0  0  0  0
 45 69  1  0  0  0  0
 46 49  1  0  0  0  0
 46 69  1  0  0  0  0
 47 72  1  0  0  0  0
 48 68  1  0  0  0  0
 49 67  1  0  0  0  0
 50 58  1  0  0  0  0
 51 61  1  0  0  0  0
 52 63  1  0  0  0  0
 53 64  1  0  0  0  0
 54 64  1  0  0  0  0
 55 64  1  0  0  0  0
 56 75  1  0  0  0  0
 57 76  1  0  0  0  0
 58 61  1  0  0  0  0
 59 60  1  0  0  0  0
 59 74  1  0  0  0  0
 60 76  1  0  0  0  0
 62 64  1  0  0  0  0
 62 73  1  0  0  0  0
 63 75  1  0  0  0  0
 66 67  1  0  0  0  0
M  CHG  2  75   1  76   1
M  ISO  4  31 101  37 100  74 100  83 101
M  END
> <Batch ID>
0117

> <Smiles>
CCC(C)c1cc(CNCC[100NH:0][100C:0](=O)N2CCCC(n3nc(-c4ccc(Oc5ccc(F)cc5F)cc4)c(C(N)=O)c3N)C2)cn[101c:1]1[101O:1]c1ccc2c(c1)CN(C(=O)C(NC(=O)C(C)NC)C(C)(C)C)C(C(=O)NC1CCCc3ccccc31)C2

> <Shape>
0.204

> <Color>
0.076

> <Negative vol penalty>
0.000

$$$$

  -OEChem-04052320153D

 91 99  0     1  0  0  0  0  0999 V2000
  -28.7067  -37.6713   23.0583 C   0  0  0  0  0  0  0  0  0  0  0  0
  -29.0986  -36.4388   22.5459 C   0  0  0  0  0  0  0  0  0  0  0  0
  -22.2356  -13.5774   22.2961 C   0  0  0  0  0  0  0  0  0  0  0  0
  -22.1094  -14.6271   20.1237 C   0  0  0  0  0  0  0  0  0  0  0  0
  -27.6797  -37.7394   23.9988 C   0  0  0  0  0  0  0  0  0  0  0  0
  -28.4644  -35.2732   22.9746 C   0  0  0  0  0  0  0  0  0  0  0  0
  -27.3015  -30.2731   19.6351 C   0  0  0  0  0  0  0  0  0  0  0  0
  -27.2399  -19.8641   18.5506 C   0  0  0  0  0  0  0  0  0  0  0  0
  -20.9454  -14.0215   22.5856 C   0  0  0  0  0  0  0  0  0  0  0  0
  -20.8192  -15.0712   20.4132 C   0  0  0  0  0  0  0  0  0  0  0  0
  -27.9598  -29.0498   19.5174 C   0  0  0  0  0  0  0  0  0  0  0  0
  -17.6962  -13.7813   20.4669 C   0  0  0  0  0  0  0  0  0  0  0  0
  -16.7233  -13.6297   19.4789 C   0  0  0  0  0  0  0  0  0  0  0  0
  -26.8328  -20.9961   19.2478 C   0  0  0  0  0  0  0  0  0  0  0  0
  -26.4569  -28.0917   21.1431 C   0  0  0  0  0  0  0  0  0  0  0  0
  -16.3811  -16.0212   19.4489 C   0  0  0  0  0  0  0  0  0  0  0  0
  -22.8176  -13.8803   21.0652 C   0  0  0  0  0  0  0  0  0  0  0  0
  -24.5149  -12.2064   20.1568 C   0  0  0  0  0  0  0  0  0  0  0  0
  -27.0261  -36.5750   24.4320 C   0  0  0  0  0  0  0  0  0  0  0  0
  -26.2211  -30.4182   20.5171 C   0  0  0  0  0  0  0  0  0  0  0  0
  -27.4286  -35.3256   23.9228 C   0  0  0  0  0  0  0  0  0  0  0  0
  -25.7850  -29.3173   21.2681 C   0  0  0  0  0  0  0  0  0  0  0  0
  -28.3545  -19.9282   17.7219 C   0  0  0  0  0  0  0  0  0  0  0  0
  -20.2372  -14.7684   21.6442 C   0  0  0  0  0  0  0  0  0  0  0  0
  -27.5393  -27.9596   20.2736 C   0  0  0  0  0  0  0  0  0  0  0  0
  -18.0115  -15.0528   20.9460 C   0  0  0  0  0  0  0  0  0  0  0  0
  -16.0658  -14.7496   18.9699 C   0  0  0  0  0  0  0  0  0  0  0  0
  -17.3540  -16.1727   20.4369 C   0  0  0  0  0  0  0  0  0  0  0  0
  -24.1505  -13.4223   20.7657 C   0  0  0  0  0  0  0  0  0  0  0  0
  -29.0223  -21.1384   17.6256 C   0  0  0  0  0  0  0  0  0  0  0  0
  -27.5688  -22.1584   19.0834 C   0  0  0  0  0  0  0  0  0  0  0  0
  -25.8864  -12.2498   20.0972 C   0  0  0  0  0  0  0  0  0  0  0  0
  -23.6876  -11.1338   19.6871 C   0  0  0  0  0  0  0  0  0  0  0  0
  -25.6469  -32.1983   23.0872 C   0  0  0  0  0  0  0  0  0  0  0  0
  -22.6812  -30.9078   22.8382 C   0  0  0  0  0  0  0  0  0  0  0  0
  -20.7189  -28.3515   21.7152 C   0  0  0  0  0  0  0  0  0  0  0  0
  -29.8226  -16.7605   19.9907 C   0  0  0  0  0  0  0  0  0  0  0  0
  -25.9534  -36.6940   25.4855 C   0  0  0  0  0  0  0  0  0  0  0  0
  -25.5047  -31.7373   20.6126 C   0  0  0  0  0  0  0  0  0  0  0  0
  -24.6174  -29.4153   22.2145 C   0  0  0  0  0  0  0  0  0  0  0  0
  -25.0794  -35.4485   25.6082 C   0  0  0  0  0  0  0  0  0  0  0  0
  -29.6759  -14.1026   22.3551 C   0  0  0  0  0  0  0  0  0  0  0  0
  -25.9428  -34.1915   25.6409 C   0  0  0  0  0  0  0  0  0  0  0  0
  -28.2760  -13.5171   22.1610 C   0  0  0  0  0  0  0  0  0  0  0  0
  -29.6814  -15.6202   22.1853 C   0  0  0  0  0  0  0  0  0  0  0  0
  -27.6981  -15.5184   20.7259 C   0  0  0  0  0  0  0  0  0  0  0  0
  -26.7481  -34.0414   24.3446 C   0  0  1  0  0  0  0  0  0  0  0  0
  -24.7422  -31.9097   21.9227 C   0  0  1  0  0  0  0  0  0  0  0  0
  -27.6521  -13.9845   20.8322 C   0  0  2  0  0  0  0  0  0  0  0  0
  -30.2262  -21.2658   16.7506 C   0  0  0  0  0  0  0  0  0  0  0  0
  -18.3386  -27.5570   21.6966 C   0  0  0  0  0  0  0  0  0  0  0  0
  -23.4342  -16.4079   15.6685 C   0  0  0  0  0  0  0  0  0  0  0  0
  -24.0089  -18.5384   16.8238 C   0  0  0  0  0  0  0  0  0  0  0  0
  -26.1838  -16.3195   14.4196 C   0  0  0  0  0  0  0  0  0  0  0  0
  -30.6468  -16.9207   16.8633 C   0  0  0  0  0  0  0  0  0  0  0  0
  -22.9511  -30.0391   25.7507 C   0  0  0  0  0  0  0  0  0  0  0  0
  -21.0292  -28.4757   25.3897 C   0  0  0  0  0  0  0  0  0  0  0  0
  -20.6992  -30.9350   25.1336 C   0  0  0  0  0  0  0  0  0  0  0  0
  -20.5910  -28.4385   18.7597 C   0  0  0  0  0  0  0  0  0  0  0  0
  -26.7785  -18.5107   15.5146 C   0  0  0  0  0  0  0  0  0  0  0  0
  -27.4049  -25.5878   20.3853 C   0  0  0  0  0  0  0  0  0  1  0  0
  -27.9752  -24.4535   19.5561 C   0  0  0  0  0  0  0  0  0  0  0  0
  -28.7956  -18.7186   16.9729 C   0  0  1  0  0  0  0  0  0  0  0  0
  -22.0052  -29.6702   23.3768 C   0  0  1  0  0  0  0  0  0  0  0  0
  -19.4044  -28.3494   20.9558 C   0  0  2  0  0  0  0  0  0  0  0  0
  -24.5925  -17.2705   16.1885 C   0  0  0  0  0  0  0  0  0  0  0  0
  -25.6240  -17.5958   15.0670 C   0  0  2  0  0  0  0  0  0  0  0  0
  -29.8164  -17.8420   17.7570 C   0  0  1  0  0  0  0  0  0  0  0  0
  -21.6944  -29.7783   24.8964 C   0  0  0  0  0  0  0  0  0  0  0  0
  -25.2054  -14.1824   21.0712 N   0  0  0  0  0  0  0  0  0  0  0  0
  -28.6568  -22.2592   18.2874 N   0  0  0  0  0  0  0  0  0  0  0  0
  -26.2462  -13.4423   20.6527 N   0  0  0  0  0  0  0  0  0  0  0  0
  -23.9536  -30.7279   22.2773 N   0  0  0  0  0  0  0  0  0  0  0  0
  -29.0778  -15.9971   20.9048 N   0  0  0  0  0  0  0  0  0  0  0  0
  -26.8077  -11.3837   19.6244 N   0  0  0  0  0  0  0  0  0  0  0  0
  -22.2979  -11.2519   19.8256 N   0  0  0  0  0  0  0  0  0  0  0  0
  -25.9040  -33.5422   23.2802 N   0  0  0  0  0  0  0  0  0  0  0  0
  -20.8300  -29.4503   22.5407 N   0  0  0  0  0  0  0  0  0  0  0  0
  -29.1781  -17.0688   18.7989 N   0  0  0  0  0  0  0  0  0  0  0  0
  -19.5869  -27.7441   19.6062 N   0  3  0  0  0  0  0  0  0  0  0  0
  -27.6726  -17.8387   16.4807 N   0  3  0  0  0  0  0  0  0  0  0  0
  -24.1674  -10.0940   19.1749 O   0  0  0  0  0  0  0  0  0  0  0  0
  -26.0784  -31.2705   23.7615 O   0  0  0  0  0  0  0  0  0  0  0  0
  -22.0987  -31.9931   22.9059 O   0  0  0  0  0  0  0  0  0  0  0  0
  -21.5611  -27.4650   21.5914 O   0  0  0  0  0  0  0  0  0  0  0  0
  -30.9782  -17.1347   20.2174 O   0  0  0  0  0  0  0  0  0  0  0  0
  -18.9782  -15.2017   21.9263 O   0  0  0  0  0  0  0  0  0  0  0  0
  -28.1804  -26.7645   20.1612 O   0  0  0  0  0  0  0  0  0  1  0  0
  -27.1866  -23.2872   19.7593 O   0  0  0  0  0  0  0  0  0  0  0  0
  -15.1327  -14.6040   18.0200 F   0  0  0  0  0  0  0  0  0  0  0  0
  -17.6535  -17.3970   20.8923 F   0  0  0  0  0  0  0  0  0  0  0  0
  1  2  1  0  0  0  0
  1  5  2  0  0  0  0
  2  6  2  0  0  0  0
  3  9  2  0  0  0  0
  3 17  1  0  0  0  0
  4 10  1  0  0  0  0
  4 17  2  0  0  0  0
  5 19  1  0  0  0  0
  6 21  1  0  0  0  0
  7 11  2  0  0  0  0
  7 20  1  0  0  0  0
  8 14  2  0  0  0  0
  8 23  1  0  0  0  0
  9 24  1  0  0  0  0
 10 24  2  0  0  0  0
 11 25  1  0  0  0  0
 12 13  2  0  0  0  0
 12 26  1  0  0  0  0
 13 27  1  0  0  0  0
 14 31  1  0  0  0  0
 15 22  1  0  0  0  0
 15 25  2  0  0  0  0
 16 27  2  0  0  0  0
 16 28  1  0  0  0  0
 17 29  1  0  0  0  0
 18 29  1  0  0  0  0
 18 32  2  0  0  0  0
 18 33  1  0  0  0  0
 19 21  2  0  0  0  0
 19 38  1  0  0  0  0
 20 22  2  0  0  0  0
 20 39  1  0  0  0  0
 21 47  1  0  0  0  0
 22 40  1  0  0  0  0
 23 30  2  0  0  0  0
 23 63  1  0  0  0  0
 24 87  1  0  0  0  0
 25 88  1  0  0  0  0
 26 28  2  0  0  0  0
 26 87  1  0  0  0  0
 27 90  1  0  0  0  0
 28 91  1  0  0  0  0
 29 70  2  0  0  0  0
 30 50  1  0  0  0  0
 30 71  1  0  0  0  0
 31 71  2  0  0  0  0
 31 89  1  0  0  0  0
 32 72  1  0  0  0  0
 32 75  1  0  0  0  0
 33 76  1  0  0  0  0
 33 82  2  0  0  0  0
 34 48  1  0  0  0  0
 34 77  1  0  0  0  0
 34 83  2  0  0  0  0
 35 64  1  0  0  0  0
 35 73  1  0  0  0  0
 35 84  2  0  0  0  0
 36 65  1  0  0  0  0
 36 78  1  0  0  0  0
 36 85  2  0  0  0  0
 37 74  1  0  0  0  0
 37 79  1  0  0  0  0
 37 86  2  0  0  0  0
 38 41  1  0  0  0  0
 39 48  1  0  0  0  0
 40 73  1  0  0  0  0
 41 43  1  0  0  0  0
 42 44  1  0  0  0  0
 42 45  1  0  0  0  0
 43 47  1  0  0  0  0
 44 49  1  0  0  0  0
 45 74  1  0  0  0  0
 46 49  1  0  0  0  0
 46 74  1  0  0  0  0
 47 77  1  0  0  0  0
 48 73  1  0  0  0  0
 49 72  1  0  0  0  0
 51 65  1  0  0  0  0
 52 66  1  0  0  0  0
 53 66  1  0  0  0  0
 54 67  1  0  0  0  0
 55 68  1  0  0  0  0
 56 69  1  0  0  0  0
 57 69  1  0  0  0  0
 58 69  1  0  0  0  0
 59 80  1  0  0  0  0
 60 67  1  0  0  0  0
 60 81  1  0  0  0  0
 61 62  1  0  0  0  0
 61 88  1  0  0  0  0
 62 89  1  0  0  0  0
 63 68  1  0  0  0  0
 63 81  1  0  0  0  0
 64 69  1  0  0  0  0
 64 78  1  0  0  0  0
 65 80  1  0  0  0  0
 66 67  1  0  0  0  0
 68 79  1  0  0  0  0
 70 72  1  0  0  0  0
M  CHG  2  80   1  81   1
M  ISO  4  37 100  61 101  79 100  88 101
M  END
> <Batch ID>
0117

> <Smiles>
CNC(C)C(=O)NC(C(=O)N1Cc2cc([101O:1][101CH2:1]COc3ccc(C(NCC(C)C(C)C)C(C)[100NH:0][100C:0](=O)N4CCCC(n5nc(-c6ccc(Oc7ccc(F)cc7F)cc6)c(C(N)=O)c5N)C4)c(C)n3)ccc2CC1C(=O)NC1CCCc2ccccc21)C(C)(C)C

> <Shape>
0.268

> <Color>
0.087

> <Negative vol penalty>
0.000

$$$$

  -OEChem-04052320153D

 87 96  0     1  0  0  0  0  0999 V2000
  -17.2802  -26.4046   21.6254 C   0  0  0  0  0  0  0  0  0  0  0  0
  -18.5079  -25.7978   21.8702 C   0  0  0  0  0  0  0  0  0  0  0  0
  -26.4664  -13.3468   20.1784 C   0  0  0  0  0  0  0  0  0  0  0  0
  -25.3845  -15.0377   21.5228 C   0  0  0  0  0  0  0  0  0  0  0  0
  -17.2339  -27.7133   21.1467 C   0  0  0  0  0  0  0  0  0  0  0  0
  -19.6901  -26.4990   21.6354 C   0  0  0  0  0  0  0  0  0  0  0  0
  -24.9008  -26.1040   24.8290 C   0  0  0  0  0  0  0  0  0  0  0  0
  -25.2959  -12.5884   20.1902 C   0  0  0  0  0  0  0  0  0  0  0  0
  -24.2139  -14.2793   21.5345 C   0  0  0  0  0  0  0  0  0  0  0  0
  -26.0845  -25.4009   24.6094 C   0  0  0  0  0  0  0  0  0  0  0  0
  -23.6971  -10.5088   22.3218 C   0  0  0  0  0  0  0  0  0  0  0  0
  -23.8145   -9.1409   22.5680 C   0  0  0  0  0  0  0  0  0  0  0  0
  -27.0598  -27.3673   23.6087 C   0  0  0  0  0  0  0  0  0  0  0  0
  -28.6718  -23.3455   20.2107 C   0  0  0  0  0  0  0  0  0  0  0  0
  -29.6225  -23.9602   22.3327 C   0  0  0  0  0  0  0  0  0  0  0  0
  -22.8221   -8.6685   20.4165 C   0  0  0  0  0  0  0  0  0  0  0  0
  -26.5108  -14.5714   20.8448 C   0  0  0  0  0  0  0  0  0  0  0  0
  -28.0876  -16.3372   19.8944 C   0  0  0  0  0  0  0  0  0  0  0  0
  -18.4160  -28.4342   20.9152 C   0  0  0  0  0  0  0  0  0  0  0  0
  -24.7838  -27.4431   24.4295 C   0  0  0  0  0  0  0  0  0  0  0  0
  -19.6596  -27.8181   21.1520 C   0  0  0  0  0  0  0  0  0  0  0  0
  -25.8744  -28.0859   23.8267 C   0  0  0  0  0  0  0  0  0  0  0  0
  -29.7230  -23.2890   21.1190 C   0  0  0  0  0  0  0  0  0  0  0  0
  -24.1696  -13.0546   20.8682 C   0  0  0  0  0  0  0  0  0  0  0  0
  -27.1633  -26.0317   23.9965 C   0  0  0  0  0  0  0  0  0  0  0  0
  -23.1422  -10.9566   21.1230 C   0  0  0  0  0  0  0  0  0  0  0  0
  -23.3770   -8.2207   21.6154 C   0  0  0  0  0  0  0  0  0  0  0  0
  -22.7047  -10.0364   20.1703 C   0  0  0  0  0  0  0  0  0  0  0  0
  -27.7199  -15.3550   20.8335 C   0  0  0  0  0  0  0  0  0  0  0  0
  -27.5508  -24.0809   20.5610 C   0  0  0  0  0  0  0  0  0  0  0  0
  -28.4590  -24.6680   22.5880 C   0  0  0  0  0  0  0  0  0  1  0  0
  -29.3141  -16.7813   20.3244 C   0  0  0  0  0  0  0  0  0  0  0  0
  -27.3834  -16.8063   18.7369 C   0  0  0  0  0  0  0  0  0  0  0  0
  -22.9276  -29.0208   22.3877 C   0  0  0  0  0  0  0  0  0  0  0  0
  -24.4118  -31.6154   23.6476 C   0  0  0  0  0  0  0  0  0  0  0  0
  -27.1350  -32.8994   25.2546 C   0  0  0  0  0  0  0  0  0  0  0  0
  -32.8126  -18.3656   24.2259 C   0  0  0  0  0  0  0  0  0  0  0  0
  -18.3166  -29.8301   20.3527 C   0  0  0  0  0  0  0  0  0  0  0  0
  -23.5092  -28.1954   24.6977 C   0  0  0  0  0  0  0  0  0  0  0  0
  -25.8067  -29.5280   23.3975 C   0  0  0  0  0  0  0  0  0  0  0  0
  -19.6076  -30.6337   20.4856 C   0  0  0  0  0  0  0  0  0  0  0  0
  -32.4465  -14.9494   23.8388 C   0  0  0  0  0  0  0  0  0  0  0  0
  -20.8051  -29.7965   20.0477 C   0  0  0  0  0  0  0  0  0  0  0  0
  -31.2150  -14.8157   22.9432 C   0  0  0  0  0  0  0  0  0  0  0  0
  -32.8563  -21.0963   21.7223 C   0  0  0  0  0  0  0  0  0  0  0  0
  -30.5490  -20.9414   22.7229 C   0  0  0  0  0  0  0  0  0  0  0  0
  -32.2477  -16.0448   24.8803 C   0  0  0  0  0  0  0  0  0  0  0  0
  -33.4177  -20.3918   22.9543 C   0  0  0  0  0  0  0  0  0  0  0  0
  -31.1541  -20.2453   23.9376 C   0  0  0  0  0  0  0  0  0  0  0  0
  -30.6862  -17.2615   23.3981 C   0  0  0  0  0  0  0  0  0  0  0  0
  -20.9634  -28.5546   20.9332 C   0  0  1  0  0  0  0  0  0  0  0  0
  -23.3254  -29.4040   23.7850 C   0  0  1  0  0  0  0  0  0  0  0  0
  -31.5695  -21.8663   22.0459 C   0  0  0  0  0  0  0  0  0  0  0  0
  -30.8361  -16.1704   22.3189 C   0  0  2  0  0  0  0  0  0  0  0  0
  -26.4033  -24.1634   19.6101 C   0  0  0  0  0  0  0  0  0  0  0  0
  -28.0774  -35.0605   26.1142 C   0  0  0  0  0  0  0  0  0  0  0  0
  -32.4018  -24.6475   20.6944 C   0  0  0  0  0  0  0  0  0  0  0  0
  -25.1278  -32.4343   20.7969 C   0  0  0  0  0  0  0  0  0  0  0  0
  -26.8237  -34.0104   21.7499 C   0  0  0  0  0  0  0  0  0  0  0  0
  -24.4042  -34.3189   22.2731 C   0  0  0  0  0  0  0  0  0  0  0  0
  -27.1914  -31.9011   28.0401 C   0  0  0  0  0  0  0  0  0  0  0  0
  -30.9803  -22.4953   20.7857 C   0  0  2  0  0  0  0  0  0  0  0  0
  -25.6636  -32.3939   23.3222 C   0  0  1  0  0  0  0  0  0  0  0  0
  -27.2543  -33.8267   26.4505 C   0  0  2  0  0  0  0  0  0  0  0  0
  -32.0083  -23.3499   19.9902 C   0  0  1  0  0  0  0  0  0  0  0  0
  -25.5057  -33.2616   22.0418 C   0  0  0  0  0  0  0  0  0  0  0  0
  -28.6385  -15.1847   21.7880 N   0  0  0  0  0  0  0  0  0  0  0  0
  -27.4169  -24.7459   21.7303 N   0  0  0  0  0  0  0  0  0  0  0  0
  -29.5957  -16.0658   21.4509 N   0  0  0  0  0  0  0  0  0  0  0  0
  -24.5369  -30.2192   23.6757 N   0  0  0  0  0  0  0  0  0  0  0  0
  -31.8850  -17.3132   24.2483 N   0  0  0  0  0  0  0  0  0  0  0  0
  -32.4066  -19.5558   23.6000 N   0  0  0  0  0  0  0  0  0  0  0  0
  -30.1685  -17.7101   19.8450 N   0  0  0  0  0  0  0  0  0  0  0  0
  -26.1351  -16.2423   18.4402 N   0  0  0  0  0  0  0  0  0  0  0  0
  -21.5628  -28.9111   22.2013 N   0  0  0  0  0  0  0  0  0  0  0  0
  -25.9948  -33.1545   24.5223 N   0  0  0  0  0  0  0  0  0  0  0  0
  -31.4219  -23.7326   18.6690 N   0  3  0  0  0  0  0  0  0  0  0  0
  -27.9080  -33.1218   27.5893 N   0  3  0  0  0  0  0  0  0  0  0  0
  -27.8548  -17.6874   17.9787 O   0  0  0  0  0  0  0  0  0  0  0  0
  -23.7946  -28.8395   21.5408 O   0  0  0  0  0  0  0  0  0  0  0  0
  -23.3633  -32.2239   23.8757 O   0  0  0  0  0  0  0  0  0  0  0  0
  -27.9716  -32.0377   24.9937 O   0  0  0  0  0  0  0  0  0  0  0  0
  -33.9370  -18.2502   24.7293 O   0  0  0  0  0  0  0  0  0  0  0  0
  -23.0270  -12.3150   20.8797 O   0  0  0  0  0  0  0  0  0  0  0  0
  -28.3363  -25.3376   23.7773 O   0  0  0  0  0  0  0  0  0  1  0  0
  -23.4912   -6.9072   21.8513 F   0  0  0  0  0  0  0  0  0  0  0  0
  -22.1718  -10.4606   19.0162 F   0  0  0  0  0  0  0  0  0  0  0  0
  1  2  1  0  0  0  0
  1  5  2  0  0  0  0
  2  6  2  0  0  0  0
  3  8  2  0  0  0  0
  3 17  1  0  0  0  0
  4  9  1  0  0  0  0
  4 17  2  0  0  0  0
  5 19  1  0  0  0  0
  6 21  1  0  0  0  0
  7 10  2  0  0  0  0
  7 20  1  0  0  0  0
  8 24  1  0  0  0  0
  9 24  2  0  0  0  0
 10 25  1  0  0  0  0
 11 12  2  0  0  0  0
 11 26  1  0  0  0  0
 12 27  1  0  0  0  0
 13 22  1  0  0  0  0
 13 25  2  0  0  0  0
 14 23  1  0  0  0  0
 14 30  2  0  0  0  0
 15 23  2  0  0  0  0
 15 31  1  0  0  0  0
 16 27  2  0  0  0  0
 16 28  1  0  0  0  0
 17 29  1  0  0  0  0
 18 29  1  0  0  0  0
 18 32  2  0  0  0  0
 18 33  1  0  0  0  0
 19 21  2  0  0  0  0
 19 38  1  0  0  0  0
 20 22  2  0  0  0  0
 20 39  1  0  0  0  0
 21 51  1  0  0  0  0
 22 40  1  0  0  0  0
 23 62  1  0  0  0  0
 24 84  1  0  0  0  0
 25 85  1  0  0  0  0
 26 28  2  0  0  0  0
 26 84  1  0  0  0  0
 27 86  1  0  0  0  0
 28 87  1  0  0  0  0
 29 67  2  0  0  0  0
 30 55  1  0  0  0  0
 30 68  1  0  0  0  0
 31 68  2  0  0  0  0
 31 85  1  0  0  0  0
 32 69  1  0  0  0  0
 32 73  1  0  0  0  0
 33 74  1  0  0  0  0
 33 79  2  0  0  0  0
 34 52  1  0  0  0  0
 34 75  1  0  0  0  0
 34 80  2  0  0  0  0
 35 63  1  0  0  0  0
 35 70  1  0  0  0  0
 35 81  2  0  0  0  0
 36 64  1  0  0  0  0
 36 76  1  0  0  0  0
 36 82  2  0  0  0  0
 37 71  1  0  0  0  0
 37 72  1  0  0  0  0
 37 83  2  0  0  0  0
 38 41  1  0  0  0  0
 39 52  1  0  0  0  0
 40 70  1  0  0  0  0
 41 43  1  0  0  0  0
 42 44  1  0  0  0  0
 42 47  1  0  0  0  0
 43 51  1  0  0  0  0
 44 54  1  0  0  0  0
 45 48  1  0  0  0  0
 45 53  1  0  0  0  0
 46 49  1  0  0  0  0
 46 53  1  0  0  0  0
 47 71  1  0  0  0  0
 48 72  1  0  0  0  0
 49 72  1  0  0  0  0
 50 54  1  0  0  0  0
 50 71  1  0  0  0  0
 51 75  1  0  0  0  0
 52 70  1  0  0  0  0
 53 62  1  0  0  0  0
 54 69  1  0  0  0  0
 56 64  1  0  0  0  0
 57 65  1  0  0  0  0
 58 66  1  0  0  0  0
 59 66  1  0  0  0  0
 60 66  1  0  0  0  0
 61 78  1  0  0  0  0
 62 65  1  0  0  0  0
 63 66  1  0  0  0  0
 63 76  1  0  0  0  0
 64 78  1  0  0  0  0
 65 77  1  0  0  0  0
 67 69  1  0  0  0  0
M  CHG  2  77   1  78   1
M  ISO  4  31 101  37 100  72 100  85 101
M  END
> <Batch ID>
0117

> <Smiles>
CNC(C)C(=O)NC(C(=O)N1Cc2cc([101O:1][101c:1]3cc(C(C(C)N)C4CC[100N:0]([100C:0](=O)N5CCCC(n6nc(-c7ccc(Oc8ccc(F)cc8F)cc7)c(C(N)=O)c6N)C5)CC4)cc(C)n3)ccc2CC1C(=O)NC1CCCc2ccccc21)C(C)(C)C

> <Shape>
0.254

> <Color>
0.083

> <Negative vol penalty>
0.000

$$$$

  -OEChem-04052320153D

 84 93  0     1  0  0  0  0  0999 V2000
  -27.6237  -31.1676   28.2295 C   0  0  0  0  0  0  0  0  0  0  0  0
  -27.7591  -30.2948   27.1547 C   0  0  0  0  0  0  0  0  0  0  0  0
  -25.8946  -12.5049   21.1310 C   0  0  0  0  0  0  0  0  0  0  0  0
  -26.1578  -10.7913   19.4483 C   0  0  0  0  0  0  0  0  0  0  0  0
  -26.3718  -31.6937   28.5454 C   0  0  0  0  0  0  0  0  0  0  0  0
  -26.6423  -29.9466   26.3958 C   0  0  0  0  0  0  0  0  0  0  0  0
  -27.5573  -30.0836   21.4170 C   0  0  0  0  0  0  0  0  0  0  0  0
  -29.1796  -25.0382   17.4081 C   0  0  0  0  0  0  0  0  0  0  0  0
  -24.5993  -12.0552   21.3865 C   0  0  0  0  0  0  0  0  0  0  0  0
  -24.8625  -10.3415   19.7038 C   0  0  0  0  0  0  0  0  0  0  0  0
  -28.2561  -29.0093   20.8682 C   0  0  0  0  0  0  0  0  0  0  0  0
  -21.7055  -11.2603   18.9164 C   0  0  0  0  0  0  0  0  0  0  0  0
  -20.8885  -10.9809   17.8209 C   0  0  0  0  0  0  0  0  0  0  0  0
  -30.0030  -24.0022   16.9817 C   0  0  0  0  0  0  0  0  0  0  0  0
  -26.1786  -28.0654   20.0857 C   0  0  0  0  0  0  0  0  0  0  0  0
  -20.6780   -8.6909   18.5618 C   0  0  0  0  0  0  0  0  0  0  0  0
  -28.4148  -23.6357   19.1701 C   0  0  0  0  0  0  0  0  0  0  0  0
  -26.6739  -11.8731   20.1618 C   0  0  0  0  0  0  0  0  0  0  0  0
  -29.1995  -11.9086   20.5194 C   0  0  0  0  0  0  0  0  0  0  0  0
  -25.2407  -31.3594   27.7841 C   0  0  0  0  0  0  0  0  0  0  0  0
  -26.1604  -30.1515   21.3135 C   0  0  0  0  0  0  0  0  0  0  0  0
  -25.3738  -30.4677   26.7027 C   0  0  0  0  0  0  0  0  0  0  0  0
  -25.4647  -29.1429   20.6318 C   0  0  0  0  0  0  0  0  0  0  0  0
  -28.3672  -24.8596   18.5223 C   0  0  0  0  0  0  0  0  0  0  0  0
  -24.0832  -10.9734   20.6729 C   0  0  0  0  0  0  0  0  0  0  0  0
  -27.5666  -27.9985   20.2050 C   0  0  0  0  0  0  0  0  0  0  0  0
  -22.0088  -10.2549   19.8346 C   0  0  0  0  0  0  0  0  0  0  0  0
  -20.3748   -9.6963   17.6436 C   0  0  0  0  0  0  0  0  0  0  0  0
  -21.4950   -8.9703   19.6573 C   0  0  0  0  0  0  0  0  0  0  0  0
  -28.0119  -12.3376   19.8970 C   0  0  0  0  0  0  0  0  0  0  0  0
  -29.9775  -22.8167   17.6986 C   0  0  0  0  0  0  0  0  0  0  0  0
  -30.1885  -12.6488   19.9191 C   0  0  0  0  0  0  0  0  0  0  0  0
  -29.3915  -10.9286   21.5482 C   0  0  0  0  0  0  0  0  0  0  0  0
  -23.7562  -30.1860   23.3925 C   0  0  0  0  0  0  0  0  0  0  0  0
  -21.9759  -30.7074   20.7315 C   0  0  0  0  0  0  0  0  0  0  0  0
  -21.6687  -30.4050   17.3461 C   0  0  0  0  0  0  0  0  0  0  0  0
  -31.7642  -17.8142   18.3412 C   0  0  0  0  0  0  0  0  0  0  0  0
  -23.9000  -31.9161   28.1929 C   0  0  0  0  0  0  0  0  0  0  0  0
  -25.4239  -31.3306   21.8876 C   0  0  0  0  0  0  0  0  0  0  0  0
  -23.9671  -29.1792   20.4756 C   0  0  0  0  0  0  0  0  0  0  0  0
  -22.8323  -31.7907   27.1091 C   0  0  0  0  0  0  0  0  0  0  0  0
  -30.0860  -15.6035   15.8290 C   0  0  0  0  0  0  0  0  0  0  0  0
  -22.8436  -30.3886   26.5083 C   0  0  0  0  0  0  0  0  0  0  0  0
  -29.4373  -14.5658   16.7436 C   0  0  0  0  0  0  0  0  0  0  0  0
  -31.8912  -21.3077   18.3540 C   0  0  0  0  0  0  0  0  0  0  0  0
  -30.2328  -16.9469   16.5336 C   0  0  0  0  0  0  0  0  0  0  0  0
  -32.7603  -20.1117   17.9591 C   0  0  0  0  0  0  0  0  0  0  0  0
  -30.3421  -15.8361   18.7429 C   0  0  0  0  0  0  0  0  0  0  0  0
  -30.9755  -19.2526   16.4907 C   0  0  0  0  0  0  0  0  0  0  0  0
  -24.1903  -30.0855   25.8404 C   0  0  1  0  0  0  0  0  0  0  0  0
  -30.8653  -21.6622   17.2613 C   0  0  1  0  0  0  0  0  0  0  0  0
  -23.9537  -31.0369   22.1700 C   0  0  1  0  0  0  0  0  0  0  0  0
  -30.1965  -14.4581   18.0768 C   0  0  1  0  0  0  0  0  0  0  0  0
  -30.0510  -20.4169   16.8481 C   0  0  1  0  0  0  0  0  0  0  0  0
  -20.0849  -30.8894   15.4607 C   0  0  0  0  0  0  0  0  0  0  0  0
  -20.2582  -28.3278   21.5664 C   0  0  0  0  0  0  0  0  0  0  0  0
  -19.3313  -28.2701   19.2414 C   0  0  0  0  0  0  0  0  0  0  0  0
  -18.9739  -30.2799   20.6752 C   0  0  0  0  0  0  0  0  0  0  0  0
  -23.6126  -32.2004   16.0205 C   0  0  0  0  0  0  0  0  0  0  0  0
  -27.4751  -25.9483   19.0031 C   0  0  0  0  0  0  0  0  0  1  0  0
  -21.2731  -29.8275   19.7261 C   0  0  1  0  0  0  0  0  0  0  0  0
  -21.2594  -31.4038   16.2786 C   0  0  2  0  0  0  0  0  0  0  0  0
  -19.9872  -29.1744   20.3067 C   0  0  0  0  0  0  0  0  0  0  0  0
  -29.2018  -22.6060   18.7856 N   0  0  0  0  0  0  0  0  0  0  0  0
  -28.2249  -13.2776   18.9723 N   0  0  0  0  0  0  0  0  0  0  0  0
  -29.5577  -13.4454   19.0093 N   0  0  0  0  0  0  0  0  0  0  0  0
  -23.2913  -30.3495   21.0597 N   0  0  0  0  0  0  0  0  0  0  0  0
  -30.9272  -16.8127   17.8216 N   0  0  0  0  0  0  0  0  0  0  0  0
  -31.9209  -18.9733   17.5669 N   0  0  0  0  0  0  0  0  0  0  0  0
  -31.5275  -12.6895   20.0860 N   0  0  0  0  0  0  0  0  0  0  0  0
  -28.2674  -10.2610   22.0532 N   0  0  0  0  0  0  0  0  0  0  0  0
  -24.2724  -30.7360   24.5503 N   0  0  0  0  0  0  0  0  0  0  0  0
  -21.0425  -30.6571   18.5484 N   0  0  0  0  0  0  0  0  0  0  0  0
  -22.3970  -31.6679   15.3528 N   0  3  0  0  0  0  0  0  0  0  0  0
  -30.5245  -10.6647   22.0175 O   0  0  0  0  0  0  0  0  0  0  0  0
  -23.1770  -29.1106   23.2930 O   0  0  0  0  0  0  0  0  0  0  0  0
  -21.3823  -31.6806   21.2027 O   0  0  0  0  0  0  0  0  0  0  0  0
  -22.4617  -29.4904   17.1335 O   0  0  0  0  0  0  0  0  0  0  0  0
  -32.3386  -17.6783   19.4286 O   0  0  0  0  0  0  0  0  0  0  0  0
  -29.2439  -20.7171   15.7102 O   0  0  0  0  0  0  0  0  0  0  0  0
  -22.8193  -10.5341   20.9222 O   0  0  0  0  0  0  0  0  0  0  0  0
  -28.2506  -26.9416   19.6656 O   0  0  0  0  0  0  0  0  0  1  0  0
  -19.5891   -9.4285   16.5923 F   0  0  0  0  0  0  0  0  0  0  0  0
  -21.7819   -8.0007   20.5367 F   0  0  0  0  0  0  0  0  0  0  0  0
  1  2  1  0  0  0  0
  1  5  2  0  0  0  0
  2  6  2  0  0  0  0
  3  9  2  0  0  0  0
  3 18  1  0  0  0  0
  4 10  1  0  0  0  0
  4 18  2  0  0  0  0
  5 20  1  0  0  0  0
  6 22  1  0  0  0  0
  7 11  2  0  0  0  0
  7 21  1  0  0  0  0
  8 14  2  0  0  0  0
  8 24  1  0  0  0  0
  9 25  1  0  0  0  0
 10 25  2  0  0  0  0
 11 26  1  0  0  0  0
 12 13  2  0  0  0  0
 12 27  1  0  0  0  0
 13 28  1  0  0  0  0
 14 31  1  0  0  0  0
 15 23  1  0  0  0  0
 15 26  2  0  0  0  0
 16 28  2  0  0  0  0
 16 29  1  0  0  0  0
 17 24  2  0  0  0  0
 17 64  1  0  0  0  0
 18 30  1  0  0  0  0
 19 30  1  0  0  0  0
 19 32  2  0  0  0  0
 19 33  1  0  0  0  0
 20 22  2  0  0  0  0
 20 38  1  0  0  0  0
 21 23  2  0  0  0  0
 21 39  1  0  0  0  0
 22 50  1  0  0  0  0
 23 40  1  0  0  0  0
 24 60  1  0  0  0  0
 25 81  1  0  0  0  0
 26 82  1  0  0  0  0
 27 29  2  0  0  0  0
 27 81  1  0  0  0  0
 28 83  1  0  0  0  0
 29 84  1  0  0  0  0
 30 65  2  0  0  0  0
 31 51  1  0  0  0  0
 31 64  2  0  0  0  0
 32 66  1  0  0  0  0
 32 70  1  0  0  0  0
 33 71  1  0  0  0  0
 33 75  2  0  0  0  0
 34 52  1  0  0  0  0
 34 72  1  0  0  0  0
 34 76  2  0  0  0  0
 35 61  1  0  0  0  0
 35 67  1  0  0  0  0
 35 77  2  0  0  0  0
 36 62  1  0  0  0  0
 36 73  1  0  0  0  0
 36 78  2  0  0  0  0
 37 68  1  0  0  0  0
 37 69  1  0  0  0  0
 37 79  2  0  0  0  0
 38 41  1  0  0  0  0
 39 52  1  0  0  0  0
 40 67  1  0  0  0  0
 41 43  1  0  0  0  0
 42 44  1  0  0  0  0
 42 46  1  0  0  0  0
 43 50  1  0  0  0  0
 44 53  1  0  0  0  0
 45 47  1  0  0  0  0
 45 51  1  0  0  0  0
 46 68  1  0  0  0  0
 47 69  1  0  0  0  0
 48 53  1  0  0  0  0
 48 68  1  0  0  0  0
 49 54  1  0  0  0  0
 49 69  1  0  0  0  0
 50 72  1  0  0  0  0
 51 54  1  0  0  0  0
 52 67  1  0  0  0  0
 53 66  1  0  0  0  0
 54 80  1  0  0  0  0
 55 62  1  0  0  0  0
 56 63  1  0  0  0  0
 57 63  1  0  0  0  0
 58 63  1  0  0  0  0
 59 74  1  0  0  0  0
 60 82  1  0  0  0  0
 61 63  1  0  0  0  0
 61 73  1  0  0  0  0
 62 74  1  0  0  0  0
 65 66  1  0  0  0  0
M  CHG  1  74   1
M  ISO  4  37 100  60 101  69 100  82 101
M  END
> <Batch ID>
0117

> <Smiles>
CNC(C)C(=O)NC(C(=O)N1Cc2cc([101O:1][101CH2:1]c3ccc(C4CC[100N:0]([100C:0](=O)N5CCCC(n6nc(-c7ccc(Oc8ccc(F)cc8F)cc7)c(C(N)=O)c6N)C5)CC4O)nc3)ccc2CC1C(=O)NC1CCCc2ccccc21)C(C)(C)C

> <Shape>
0.240

> <Color>
0.093

> <Negative vol penalty>
0.000

$$$$

  -OEChem-04052320153D

 81 89  0     1  0  0  0  0  0999 V2000
  -32.1511  -29.3583   17.5555 C   0  0  0  0  0  0  0  0  0  0  0  0
  -31.5239  -28.2314   18.0772 C   0  0  0  0  0  0  0  0  0  0  0  0
  -22.9942   -9.9094   19.9784 C   0  0  0  0  0  0  0  0  0  0  0  0
  -23.7294   -9.9421   22.2796 C   0  0  0  0  0  0  0  0  0  0  0  0
  -31.4106  -30.2985   16.8402 C   0  0  0  0  0  0  0  0  0  0  0  0
  -30.1555  -28.0446   17.8849 C   0  0  0  0  0  0  0  0  0  0  0  0
  -29.0137  -23.3005   16.5305 C   0  0  0  0  0  0  0  0  0  0  0  0
  -22.2248   -8.7759   20.2402 C   0  0  0  0  0  0  0  0  0  0  0  0
  -22.9600   -8.8086   22.5415 C   0  0  0  0  0  0  0  0  0  0  0  0
  -28.9962  -22.3373   17.5383 C   0  0  0  0  0  0  0  0  0  0  0  0
  -23.1904   -5.4721   22.0458 C   0  0  0  0  0  0  0  0  0  0  0  0
  -23.7775   -4.4477   22.7884 C   0  0  0  0  0  0  0  0  0  0  0  0
  -26.5911  -22.4943   17.6382 C   0  0  0  0  0  0  0  0  0  0  0  0
  -22.0617   -4.6853   24.4727 C   0  0  0  0  0  0  0  0  0  0  0  0
  -23.7466  -10.4926   20.9980 C   0  0  0  0  0  0  0  0  0  0  0  0
  -24.1401  -13.0079   20.8375 C   0  0  0  0  0  0  0  0  0  0  0  0
  -30.0343  -30.1183   16.6308 C   0  0  0  0  0  0  0  0  0  0  0  0
  -27.8189  -23.8767   16.0758 C   0  0  0  0  0  0  0  0  0  0  0  0
  -29.3956  -28.9840   17.1673 C   0  0  0  0  0  0  0  0  0  0  0  0
  -26.5960  -23.4627   16.6227 C   0  0  0  0  0  0  0  0  0  0  0  0
  -22.2076   -8.2254   21.5218 C   0  0  0  0  0  0  0  0  0  0  0  0
  -27.7850  -21.9362   18.0944 C   0  0  0  0  0  0  0  0  0  0  0  0
  -22.0389   -6.1032   22.5166 C   0  0  0  0  0  0  0  0  0  0  0  0
  -23.2131   -4.0543   24.0018 C   0  0  0  0  0  0  0  0  0  0  0  0
  -21.4746   -5.7097   23.7300 C   0  0  0  0  0  0  0  0  0  0  0  0
  -24.5421  -11.6632   20.7280 C   0  0  0  0  0  0  0  0  0  0  0  0
  -25.2509  -13.7291   20.4732 C   0  0  0  0  0  0  0  0  0  0  0  0
  -22.8758  -13.5561   21.2331 C   0  0  0  0  0  0  0  0  0  0  0  0
  -26.6226  -26.8213   16.0333 C   0  0  0  0  0  0  0  0  0  0  0  0
  -24.2604  -25.4176   14.3093 C   0  0  0  0  0  0  0  0  0  0  0  0
  -22.3854  -22.3375   14.4315 C   0  0  0  0  0  0  0  0  0  0  0  0
  -30.7515  -14.6425   20.7046 C   0  0  0  0  0  0  0  0  0  0  0  0
  -29.2666  -31.1856   15.8917 C   0  0  0  0  0  0  0  0  0  0  0  0
  -27.8527  -24.8950   14.9693 C   0  0  0  0  0  0  0  0  0  0  0  0
  -25.2838  -24.0358   16.1556 C   0  0  0  0  0  0  0  0  0  0  0  0
  -27.8926  -30.7255   15.4116 C   0  0  0  0  0  0  0  0  0  0  0  0
  -29.5922  -12.2390   18.3475 C   0  0  0  0  0  0  0  0  0  0  0  0
  -27.1551  -29.9922   16.5275 C   0  0  0  0  0  0  0  0  0  0  0  0
  -28.1446  -11.9815   18.7696 C   0  0  0  0  0  0  0  0  0  0  0  0
  -29.0655  -19.0548   18.4667 C   0  0  0  0  0  0  0  0  0  0  0  0
  -26.9182  -18.8640   19.7781 C   0  0  0  0  0  0  0  0  0  0  0  0
  -30.5006  -12.4629   19.5545 C   0  0  0  0  0  0  0  0  0  0  0  0
  -28.5991  -13.2560   20.9068 C   0  0  0  0  0  0  0  0  0  0  0  0
  -29.8573  -18.9819   19.7678 C   0  0  0  0  0  0  0  0  0  0  0  0
  -27.7236  -18.7894   21.0710 C   0  0  0  0  0  0  0  0  0  0  0  0
  -27.9178  -28.7336   16.9586 C   0  0  1  0  0  0  0  0  0  0  0  0
  -26.6166  -25.7887   14.9418 C   0  0  1  0  0  0  0  0  0  0  0  0
  -27.6343  -13.0798   19.7217 C   0  0  2  0  0  0  0  0  0  0  0  0
  -27.6565  -19.6294   18.6717 C   0  0  0  0  0  0  0  0  0  1  0  0
  -26.8582  -19.5918   17.3679 C   0  0  0  0  0  0  0  0  0  0  0  0
  -21.2562  -21.0413   12.6034 C   0  0  0  0  0  0  0  0  0  0  0  0
  -31.7002  -16.5810   23.1476 C   0  0  0  0  0  0  0  0  0  0  0  0
  -21.7769  -26.9925   15.1230 C   0  0  0  0  0  0  0  0  0  0  0  0
  -20.4228  -24.9224   14.7366 C   0  0  0  0  0  0  0  0  0  0  0  0
  -21.6636  -25.9705   12.8433 C   0  0  0  0  0  0  0  0  0  0  0  0
  -23.8714  -19.8684   15.1055 C   0  0  0  0  0  0  0  0  0  0  0  0
  -29.8674  -17.9771   22.0486 C   0  0  0  0  0  0  0  0  0  0  0  0
  -22.9507  -24.7440   14.6408 C   0  0  1  0  0  0  0  0  0  0  0  0
  -22.4980  -21.1664   13.4722 C   0  0  2  0  0  0  0  0  0  0  0  0
  -30.8471  -16.8130   21.9042 C   0  0  2  0  0  0  0  0  0  0  0  0
  -21.7253  -25.6572   14.3541 C   0  0  0  0  0  0  0  0  0  0  0  0
  -25.8092  -11.5349   20.3255 N   0  0  0  0  0  0  0  0  0  0  0  0
  -26.2130  -12.8083   20.1788 N   0  0  0  0  0  0  0  0  0  0  0  0
  -25.3696  -25.0330   15.0758 N   0  0  0  0  0  0  0  0  0  0  0  0
  -29.9612  -13.5177   20.4161 N   0  0  0  0  0  0  0  0  0  0  0  0
  -25.4886  -15.0546   20.3792 N   0  0  0  0  0  0  0  0  0  0  0  0
  -21.8423  -12.6733   21.5751 N   0  0  0  0  0  0  0  0  0  0  0  0
  -27.7149  -27.6671   16.0017 N   0  0  0  0  0  0  0  0  0  0  0  0
  -22.9420  -23.4841   13.9053 N   0  0  0  0  0  0  0  0  0  0  0  0
  -30.1620  -15.5979   21.5235 N   0  0  0  0  0  0  0  0  0  0  0  0
  -29.0774  -18.1870   20.7861 N   0  3  0  0  0  0  0  0  0  0  0  0
  -22.6736  -19.8935   14.2271 N   0  3  0  0  0  0  0  0  0  0  0  0
  -22.6635  -14.7920   21.2662 O   0  0  0  0  0  0  0  0  0  0  0  0
  -25.7034  -26.8497   16.8432 O   0  0  0  0  0  0  0  0  0  0  0  0
  -24.2994  -26.2491   13.3990 O   0  0  0  0  0  0  0  0  0  0  0  0
  -21.8533  -22.2454   15.5355 O   0  0  0  0  0  0  0  0  0  0  0  0
  -31.8956  -14.7874   20.2606 O   0  0  0  0  0  0  0  0  0  0  0  0
  -21.4568   -7.1195   21.7778 O   0  0  0  0  0  0  0  0  0  0  0  0
  -27.7651  -20.9967   19.0787 O   0  0  0  0  0  0  0  0  0  1  0  0
  -23.7762   -3.0695   24.7141 F   0  0  0  0  0  0  0  0  0  0  0  0
  -20.3677   -6.3114   24.1869 F   0  0  0  0  0  0  0  0  0  0  0  0
  1  2  1  0  0  0  0
  1  5  2  0  0  0  0
  2  6  2  0  0  0  0
  3  8  2  0  0  0  0
  3 15  1  0  0  0  0
  4  9  1  0  0  0  0
  4 15  2  0  0  0  0
  5 17  1  0  0  0  0
  6 19  1  0  0  0  0
  7 10  2  0  0  0  0
  7 18  1  0  0  0  0
  8 21  1  0  0  0  0
  9 21  2  0  0  0  0
 10 22  1  0  0  0  0
 11 12  2  0  0  0  0
 11 23  1  0  0  0  0
 12 24  1  0  0  0  0
 13 20  1  0  0  0  0
 13 22  2  0  0  0  0
 14 24  2  0  0  0  0
 14 25  1  0  0  0  0
 15 26  1  0  0  0  0
 16 26  1  0  0  0  0
 16 27  2  0  0  0  0
 16 28  1  0  0  0  0
 17 19  2  0  0  0  0
 17 33  1  0  0  0  0
 18 20  2  0  0  0  0
 18 34  1  0  0  0  0
 19 46  1  0  0  0  0
 20 35  1  0  0  0  0
 21 78  1  0  0  0  0
 22 79  1  0  0  0  0
 23 25  2  0  0  0  0
 23 78  1  0  0  0  0
 24 80  1  0  0  0  0
 25 81  1  0  0  0  0
 26 62  2  0  0  0  0
 27 63  1  0  0  0  0
 27 66  1  0  0  0  0
 28 67  1  0  0  0  0
 28 73  2  0  0  0  0
 29 47  1  0  0  0  0
 29 68  1  0  0  0  0
 29 74  2  0  0  0  0
 30 58  1  0  0  0  0
 30 64  1  0  0  0  0
 30 75  2  0  0  0  0
 31 59  1  0  0  0  0
 31 69  1  0  0  0  0
 31 76  2  0  0  0  0
 32 65  1  0  0  0  0
 32 70  1  0  0  0  0
 32 77  2  0  0  0  0
 33 36  1  0  0  0  0
 34 47  1  0  0  0  0
 35 64  1  0  0  0  0
 36 38  1  0  0  0  0
 37 39  1  0  0  0  0
 37 42  1  0  0  0  0
 38 46  1  0  0  0  0
 39 48  1  0  0  0  0
 40 44  1  0  0  0  0
 40 49  1  0  0  0  0
 41 45  1  0  0  0  0
 41 49  1  0  0  0  0
 42 65  1  0  0  0  0
 43 48  1  0  0  0  0
 43 65  1  0  0  0  0
 44 71  1  0  0  0  0
 45 71  1  0  0  0  0
 46 68  1  0  0  0  0
 47 64  1  0  0  0  0
 48 63  1  0  0  0  0
 49 50  1  0  0  0  0
 49 79  1  0  0  0  0
 51 59  1  0  0  0  0
 52 60  1  0  0  0  0
 53 61  1  0  0  0  0
 54 61  1  0  0  0  0
 55 61  1  0  0  0  0
 56 72  1  0  0  0  0
 57 60  1  0  0  0  0
 57 71  1  0  0  0  0
 58 61  1  0  0  0  0
 58 69  1  0  0  0  0
 59 72  1  0  0  0  0
 60 70  1  0  0  0  0
 62 63  1  0  0  0  0
M  CHG  2  71   1  72   1
M  ISO  4  32 100  49 101  70 100  79 101
M  END
> <Batch ID>
0117

> <Smiles>
CNC(C)C(=O)NC(C(=O)N1Cc2cc([101O:1][101C:1]3(C)CCN(CC(C)[100NH:0][100C:0](=O)N4CCCC(n5nc(-c6ccc(Oc7ccc(F)cc7F)cc6)c(C(N)=O)c5N)C4)CC3)ccc2CC1C(=O)NC1CCCc2ccccc21)C(C)(C)C

> <Shape>
0.225

> <Color>
0.198

> <Negative vol penalty>
0.000

$$$$

  -OEChem-04052320153D

 84 92  0     1  0  0  0  0  0999 V2000
  -30.2753  -23.3259   18.0728 C   0  0  0  0  0  0  0  0  0  0  0  0
  -28.9908  -23.8067   18.3000 C   0  0  0  0  0  0  0  0  0  0  0  0
  -26.9449  -13.2651   20.2227 C   0  0  0  0  0  0  0  0  0  0  0  0
  -24.6428  -13.9100   20.5713 C   0  0  0  0  0  0  0  0  0  0  0  0
  -31.3364  -23.7903   18.8471 C   0  0  0  0  0  0  0  0  0  0  0  0
  -28.7687  -24.7608   19.2935 C   0  0  0  0  0  0  0  0  0  0  0  0
  -24.2537  -26.6959   19.5647 C   0  0  0  0  0  0  0  0  0  0  0  0
  -26.6893  -12.0303   20.8189 C   0  0  0  0  0  0  0  0  0  0  0  0
  -24.3872  -12.6751   21.1675 C   0  0  0  0  0  0  0  0  0  0  0  0
  -23.1538  -25.9799   20.0352 C   0  0  0  0  0  0  0  0  0  0  0  0
  -23.0399   -9.5539   22.4563 C   0  0  0  0  0  0  0  0  0  0  0  0
  -21.8774   -8.8803   22.0816 C   0  0  0  0  0  0  0  0  0  0  0  0
  -23.2821  -27.1703   22.1294 C   0  0  0  0  0  0  0  0  0  0  0  0
  -22.6025  -21.5338   22.5401 C   0  0  0  0  0  0  0  0  0  0  0  0
  -21.9157  -23.0170   24.3192 C   0  0  0  0  0  0  0  0  0  0  0  0
  -24.2526  -22.8330   23.7344 C   0  0  0  0  0  0  0  0  0  0  0  0
  -22.6485   -8.8229   19.7926 C   0  0  0  0  0  0  0  0  0  0  0  0
  -25.9217  -14.2050   20.0989 C   0  0  0  0  0  0  0  0  0  0  0  0
  -26.0696  -15.8067   18.1190 C   0  0  0  0  0  0  0  0  0  0  0  0
  -31.1243  -24.7415   19.8587 C   0  0  0  0  0  0  0  0  0  0  0  0
  -24.8839  -27.6484   20.3785 C   0  0  0  0  0  0  0  0  0  0  0  0
  -29.8304  -25.2598   20.0696 C   0  0  0  0  0  0  0  0  0  0  0  0
  -24.3883  -27.8989   21.6660 C   0  0  0  0  0  0  0  0  0  0  0  0
  -21.5947  -22.0895   23.3281 C   0  0  0  0  0  0  0  0  0  0  0  0
  -23.9316  -21.9055   22.7433 C   0  0  0  0  0  0  0  0  0  0  0  0
  -25.4104  -11.7353   21.2913 C   0  0  0  0  0  0  0  0  0  0  0  0
  -22.6696  -26.2150   21.3187 C   0  0  0  0  0  0  0  0  0  0  0  0
  -24.0066   -9.8622   21.4992 C   0  0  0  0  0  0  0  0  0  0  0  0
  -21.6817   -8.5147   20.7498 C   0  0  0  0  0  0  0  0  0  0  0  0
  -23.8109   -9.4967   20.1674 C   0  0  0  0  0  0  0  0  0  0  0  0
  -23.2447  -23.3888   24.5224 C   0  0  0  0  0  0  0  0  0  0  0  0
  -26.1852  -15.4809   19.4836 C   0  0  0  0  0  0  0  0  0  0  0  0
  -26.4292  -17.1305   18.0503 C   0  0  0  0  0  0  0  0  0  0  0  0
  -25.6726  -14.9861   17.0123 C   0  0  0  0  0  0  0  0  0  0  0  0
  -27.7970  -27.9729   21.6081 C   0  0  0  0  0  0  0  0  0  0  0  0
  -26.6475  -30.8502   22.5684 C   0  0  0  0  0  0  0  0  0  0  0  0
  -23.9385  -32.7745   23.3467 C   0  0  0  0  0  0  0  0  0  0  0  0
  -26.3237  -21.6001   22.0148 C   0  0  0  0  0  0  0  0  0  0  0  0
  -32.3100  -25.2154   20.6618 C   0  0  0  0  0  0  0  0  0  0  0  0
  -26.0528  -28.4314   19.8465 C   0  0  0  0  0  0  0  0  0  0  0  0
  -25.0165  -28.9252   22.5718 C   0  0  0  0  0  0  0  0  0  0  0  0
  -31.9107  -25.8854   21.9725 C   0  0  0  0  0  0  0  0  0  0  0  0
  -29.1676  -20.3860   20.2497 C   0  0  0  0  0  0  0  0  0  0  0  0
  -30.8338  -26.9289   21.7158 C   0  0  0  0  0  0  0  0  0  0  0  0
  -28.7129  -19.0227   19.7236 C   0  0  0  0  0  0  0  0  0  0  0  0
  -28.5996  -20.6764   21.6378 C   0  0  0  0  0  0  0  0  0  0  0  0
  -26.6871  -19.1789   21.2265 C   0  0  0  0  0  0  0  0  0  0  0  0
  -29.5601  -26.2752   21.1652 C   0  0  1  0  0  0  0  0  0  0  0  0
  -26.9346  -29.0113   20.9481 C   0  0  1  0  0  0  0  0  0  0  0  0
  -27.1814  -18.8698   19.8039 C   0  0  2  0  0  0  0  0  0  0  0  0
  -23.3170  -35.0745   24.1346 C   0  0  0  0  0  0  0  0  0  0  0  0
  -27.5205  -30.1141   25.3979 C   0  0  0  0  0  0  0  0  0  0  0  0
  -26.0588  -31.9579   26.2537 C   0  0  0  0  0  0  0  0  0  0  0  0
  -27.9772  -32.4858   24.7491 C   0  0  0  0  0  0  0  0  0  0  0  0
  -22.3864  -33.3237   20.8874 C   0  0  0  0  0  0  0  0  0  0  0  0
  -18.2509  -24.1642   23.5977 C   0  0  0  0  0  0  0  0  0  0  0  0
  -20.1643  -21.6889   23.1099 C   0  0  0  0  0  0  0  0  0  0  0  0
  -19.4270  -22.5610   22.0987 C   0  0  0  0  0  0  0  0  0  0  0  0
  -19.2758  -24.9669   21.4746 C   0  0  0  0  0  0  0  0  0  0  0  0
  -20.6356  -25.0898   20.8160 C   0  0  0  0  0  0  0  0  0  1  0  0
  -25.9259  -31.3584   23.7932 C   0  0  1  0  0  0  0  0  0  0  0  0
  -23.5471  -34.1798   22.9267 C   0  0  2  0  0  0  0  0  0  0  0  0
  -26.8597  -31.4583   25.0324 C   0  0  0  0  0  0  0  0  0  0  0  0
  -26.5870  -16.5144   20.2282 N   0  0  0  0  0  0  0  0  0  0  0  0
  -26.7271  -17.5026   19.3282 N   0  0  0  0  0  0  0  0  0  0  0  0
  -26.1609  -29.6605   22.0084 N   0  0  0  0  0  0  0  0  0  0  0  0
  -27.1439  -20.5161   21.6366 N   0  0  0  0  0  0  0  0  0  0  0  0
  -26.5166  -18.0009   17.0221 N   0  0  0  0  0  0  0  0  0  0  0  0
  -25.3361  -13.6482   17.2595 N   0  0  0  0  0  0  0  0  0  0  0  0
  -24.9555  -21.3402   21.9435 N   0  0  0  0  0  0  0  0  0  0  0  0
  -28.6439  -27.3105   20.7402 N   0  0  0  0  0  0  0  0  0  0  0  0
  -25.3076  -32.6223   23.4076 N   0  0  0  0  0  0  0  0  0  0  0  0
  -22.2949  -34.1492   22.1191 N   0  3  0  0  0  0  0  0  0  0  0  0
  -19.3568  -23.9868   22.5869 N   0  3  1  0  0  0  0  0  0  0  0  0
  -25.6338  -15.4217   15.8366 O   0  0  0  0  0  0  0  0  0  0  0  0
  -27.7022  -27.7875   22.8158 O   0  0  0  0  0  0  0  0  0  0  0  0
  -27.6030  -31.4892   22.1208 O   0  0  0  0  0  0  0  0  0  0  0  0
  -23.1123  -31.9003   23.5993 O   0  0  0  0  0  0  0  0  0  0  0  0
  -26.7995  -22.6881   22.3492 O   0  0  0  0  0  0  0  0  0  0  0  0
  -25.1606  -10.5303   21.8729 O   0  0  0  0  0  0  0  0  0  0  0  0
  -21.5966  -25.5170   21.7805 O   0  0  0  0  0  0  0  0  0  1  0  0
  -20.5660   -7.8664   20.3904 F   0  0  0  0  0  0  0  0  0  0  0  0
  -24.7367   -9.7890   19.2436 F   0  0  0  0  0  0  0  0  0  0  0  0
  -23.6414  -24.5317   25.7466 Cl  0  0  0  0  0  0  0  0  0  0  0  0
  1  2  1  0  0  0  0
  1  5  2  0  0  0  0
  2  6  2  0  0  0  0
  3  8  2  0  0  0  0
  3 18  1  0  0  0  0
  4  9  1  0  0  0  0
  4 18  2  0  0  0  0
  5 20  1  0  0  0  0
  6 22  1  0  0  0  0
  7 10  2  0  0  0  0
  7 21  1  0  0  0  0
  8 26  1  0  0  0  0
  9 26  2  0  0  0  0
 10 27  1  0  0  0  0
 11 12  2  0  0  0  0
 11 28  1  0  0  0  0
 12 29  1  0  0  0  0
 13 23  1  0  0  0  0
 13 27  2  0  0  0  0
 14 24  2  0  0  0  0
 14 25  1  0  0  0  0
 15 24  1  0  0  0  0
 15 31  2  0  0  0  0
 16 25  2  0  0  0  0
 16 31  1  0  0  0  0
 17 29  2  0  0  0  0
 17 30  1  0  0  0  0
 18 32  1  0  0  0  0
 19 32  1  0  0  0  0
 19 33  2  0  0  0  0
 19 34  1  0  0  0  0
 20 22  2  0  0  0  0
 20 39  1  0  0  0  0
 21 23  2  0  0  0  0
 21 40  1  0  0  0  0
 22 48  1  0  0  0  0
 23 41  1  0  0  0  0
 24 57  1  0  0  0  0
 25 70  1  0  0  0  0
 26 80  1  0  0  0  0
 27 81  1  0  0  0  0
 28 30  2  0  0  0  0
 28 80  1  0  0  0  0
 29 82  1  0  0  0  0
 30 83  1  0  0  0  0
 31 84  1  0  0  0  0
 32 64  2  0  0  0  0
 33 65  1  0  0  0  0
 33 68  1  0  0  0  0
 34 69  1  0  0  0  0
 34 75  2  0  0  0  0
 35 49  1  0  0  0  0
 35 71  1  0  0  0  0
 35 76  2  0  0  0  0
 36 61  1  0  0  0  0
 36 66  1  0  0  0  0
 36 77  2  0  0  0  0
 37 62  1  0  0  0  0
 37 72  1  0  0  0  0
 37 78  2  0  0  0  0
 38 67  1  0  0  0  0
 38 70  1  0  0  0  0
 38 79  2  0  0  0  0
 39 42  1  0  0  0  0
 40 49  1  0  0  0  0
 41 66  1  0  0  0  0
 42 44  1  0  0  0  0
 43 45  1  0  0  0  0
 43 46  1  0  0  0  0
 44 48  1  0  0  0  0
 45 50  1  0  0  0  0
 46 67  1  0  0  0  0
 47 50  1  0  0  0  0
 47 67  1  0  0  0  0
 48 71  1  0  0  0  0
 49 66  1  0  0  0  0
 50 65  1  0  0  0  0
 51 62  1  0  0  0  0
 52 63  1  0  0  0  0
 53 63  1  0  0  0  0
 54 63  1  0  0  0  0
 55 73  1  0  0  0  0
 56 74  1  0  0  0  0
 57 58  1  0  0  0  0
 58 74  1  0  0  0  0
 59 60  1  0  0  0  0
 59 74  1  0  0  0  0
 60 81  1  0  0  0  0
 61 63  1  0  0  0  0
 61 72  1  0  0  0  0
 62 73  1  0  0  0  0
 64 65  1  0  0  0  0
M  CHG  2  73   1  74   1
M  ISO  4  38 100  60 101  70 100  81 101
M  END
> <Batch ID>
0117

> <Smiles>
CNC(C)C(=O)NC(C(=O)N1Cc2cc([101O:1][101CH2:1]CN(C)CCc3cc(Cl)cc([100NH:0][100C:0](=O)N4CCCC(n5nc(-c6ccc(Oc7ccc(F)cc7F)cc6)c(C(N)=O)c5N)C4)c3)ccc2CC1C(=O)NC1CCCc2ccccc21)C(C)(C)C

> <Shape>
0.255

> <Color>
0.069

> <Negative vol penalty>
0.000

$$$$

  -OEChem-04052320153D

 88 97  0     1  0  0  0  0  0999 V2000
  -18.4516  -28.2683   26.2539 C   0  0  0  0  0  0  0  0  0  0  0  0
  -19.1282  -27.2693   25.5614 C   0  0  0  0  0  0  0  0  0  0  0  0
  -24.3659   -9.1111   20.5382 C   0  0  0  0  0  0  0  0  0  0  0  0
  -22.7305  -10.7744   21.1673 C   0  0  0  0  0  0  0  0  0  0  0  0
  -18.2497  -29.5130   25.6591 C   0  0  0  0  0  0  0  0  0  0  0  0
  -19.6024  -27.5142   24.2731 C   0  0  0  0  0  0  0  0  0  0  0  0
  -24.7303  -25.3062   21.7561 C   0  0  0  0  0  0  0  0  0  0  0  0
  -23.4757   -8.0995   20.8985 C   0  0  0  0  0  0  0  0  0  0  0  0
  -21.8402   -9.7628   21.5275 C   0  0  0  0  0  0  0  0  0  0  0  0
  -24.9670  -24.2348   20.8960 C   0  0  0  0  0  0  0  0  0  0  0  0
  -21.7654   -5.0820   21.9910 C   0  0  0  0  0  0  0  0  0  0  0  0
  -22.2614   -4.0169   22.7426 C   0  0  0  0  0  0  0  0  0  0  0  0
  -24.9076  -25.7413   19.0128 C   0  0  0  0  0  0  0  0  0  0  0  0
  -27.2768  -19.3145   19.4168 C   0  0  0  0  0  0  0  0  0  0  0  0
  -22.9015   -5.5516   24.4953 C   0  0  0  0  0  0  0  0  0  0  0  0
  -29.2386  -20.9115   20.4399 C   0  0  0  0  0  0  0  0  0  0  0  0
  -23.9934  -10.4485   20.6727 C   0  0  0  0  0  0  0  0  0  0  0  0
  -25.0442  -12.1012   19.0381 C   0  0  0  0  0  0  0  0  0  0  0  0
  -18.7301  -29.7764   24.3667 C   0  0  0  0  0  0  0  0  0  0  0  0
  -24.5693  -26.6038   21.2492 C   0  0  0  0  0  0  0  0  0  0  0  0
  -19.4055  -28.7632   23.6600 C   0  0  0  0  0  0  0  0  0  0  0  0
  -24.6715  -26.8278   19.8689 C   0  0  0  0  0  0  0  0  0  0  0  0
  -27.5035  -20.5642   18.8508 C   0  0  0  0  0  0  0  0  0  0  0  0
  -22.2129   -8.4253   21.3931 C   0  0  0  0  0  0  0  0  0  0  0  0
  -25.0528  -24.4518   19.5239 C   0  0  0  0  0  0  0  0  0  0  0  0
  -21.8375   -6.3821   22.4915 C   0  0  0  0  0  0  0  0  0  0  0  0
  -28.5012  -21.3840   19.3662 C   0  0  0  0  0  0  0  0  0  0  0  0
  -22.8294   -4.2516   23.9948 C   0  0  0  0  0  0  0  0  0  0  0  0
  -22.4055   -6.6168   23.7437 C   0  0  0  0  0  0  0  0  0  0  0  0
  -24.9127  -11.4940   20.3013 C   0  0  0  0  0  0  0  0  0  0  0  0
  -28.0692  -18.9345   20.4880 C   0  0  0  0  0  0  0  0  0  0  0  0
  -26.0466  -13.0254   19.2040 C   0  0  0  0  0  0  0  0  0  0  0  0
  -24.3244  -11.8523   17.8233 C   0  0  0  0  0  0  0  0  0  0  0  0
  -22.2167  -28.7412   21.2621 C   0  0  0  0  0  0  0  0  0  0  0  0
  -24.4651  -30.6468   19.9072 C   0  0  0  0  0  0  0  0  0  0  0  0
  -27.3580  -30.8896   18.1131 C   0  0  0  0  0  0  0  0  0  0  0  0
  -28.5023  -17.0752   22.1317 C   0  0  0  0  0  0  0  0  0  0  0  0
  -18.4463  -31.1218   23.7469 C   0  0  0  0  0  0  0  0  0  0  0  0
  -24.3411  -27.7528   22.1926 C   0  0  0  0  0  0  0  0  0  0  0  0
  -24.5263  -28.2048   19.2761 C   0  0  0  0  0  0  0  0  0  0  0  0
  -19.3080  -31.4227   22.5234 C   0  0  0  0  0  0  0  0  0  0  0  0
  -29.2855  -13.7204   23.0313 C   0  0  0  0  0  0  0  0  0  0  0  0
  -19.3381  -30.2219   21.5832 C   0  0  0  0  0  0  0  0  0  0  0  0
  -28.4125  -24.8898   16.6760 C   0  0  0  0  0  0  0  0  0  0  0  0
  -28.5573  -26.3397   17.0454 C   0  0  0  0  0  0  0  0  0  0  0  0
  -28.2285  -12.8921   22.2973 C   0  0  0  0  0  0  0  0  0  0  0  0
  -28.7152  -15.0417   23.5440 C   0  0  0  0  0  0  0  0  0  0  0  0
  -26.9781  -15.0306   21.7971 C   0  0  0  0  0  0  0  0  0  0  0  0
  -19.9566  -28.9985   22.2704 C   0  0  1  0  0  0  0  0  0  0  0  0
  -23.6811  -28.9540   21.5226 C   0  0  1  0  0  0  0  0  0  0  0  0
  -29.2526  -25.2838   17.8592 C   0  0  0  0  0  0  0  0  0  0  0  0
  -27.5218  -13.7197   21.2059 C   0  0  2  0  0  0  0  0  0  0  0  0
  -26.8856  -20.1016   16.4652 C   0  0  0  0  0  0  0  0  0  0  0  0
  -28.9292  -32.5804   17.1283 C   0  0  0  0  0  0  0  0  0  0  0  0
  -23.2893  -22.2181   19.2897 C   0  0  0  0  0  0  0  0  0  0  0  0
  -22.4772  -31.1783   17.6543 C   0  0  0  0  0  0  0  0  0  0  0  0
  -24.3764  -32.0571   16.2799 C   0  0  0  0  0  0  0  0  0  0  0  0
  -23.7551  -33.1893   18.4141 C   0  0  0  0  0  0  0  0  0  0  0  0
  -29.6179  -29.9203   19.7599 C   0  0  0  0  0  0  0  0  0  0  0  0
  -28.7825  -24.9726   19.2688 C   0  0  0  0  0  0  0  0  0  0  0  0
  -25.1467  -21.0916   18.0086 C   0  0  0  0  0  0  0  0  0  0  0  0
  -29.2613  -23.6068   19.7364 C   0  0  0  0  0  0  0  0  0  0  0  0
  -26.6550  -21.0165   17.6749 C   0  0  1  0  0  0  0  0  0  0  0  0
  -24.9071  -30.9402   18.4939 C   0  0  1  0  0  0  0  0  0  0  0  0
  -28.6154  -31.7105   18.3356 C   0  0  2  0  0  0  0  0  0  0  0  0
  -24.7965  -22.1284   19.0857 C   0  0  1  0  0  0  0  0  0  1  0  0
  -23.8798  -31.8149   17.7212 C   0  0  0  0  0  0  0  0  0  0  0  0
  -29.0476  -19.7036   21.0162 N   0  0  0  0  0  0  0  0  0  0  0  0
  -25.7638  -11.9904   21.2031 N   0  0  0  0  0  0  0  0  0  0  0  0
  -26.4396  -12.9193   20.5057 N   0  0  0  0  0  0  0  0  0  0  0  0
  -24.2980  -29.2948   20.2390 N   0  0  0  0  0  0  0  0  0  0  0  0
  -28.0650  -15.7731   22.4544 N   0  0  0  0  0  0  0  0  0  0  0  0
  -26.6215  -13.9101   18.3619 N   0  0  0  0  0  0  0  0  0  0  0  0
  -23.3264  -10.8683   17.8277 N   0  0  0  0  0  0  0  0  0  0  0  0
  -27.8318  -17.6589   21.0573 N   0  0  0  0  0  0  0  0  0  0  0  0
  -21.3984  -29.1165   22.3105 N   0  0  0  0  0  0  0  0  0  0  0  0
  -26.2372  -31.5309   18.5965 N   0  0  0  0  0  0  0  0  0  0  0  0
  -29.7807  -30.8157   18.5858 N   0  3  0  0  0  0  0  0  0  0  0  0
  -24.5705  -12.4723   16.7610 O   0  0  0  0  0  0  0  0  0  0  0  0
  -21.8558  -28.2726   20.1889 O   0  0  0  0  0  0  0  0  0  0  0  0
  -24.2820  -31.5823   20.6902 O   0  0  0  0  0  0  0  0  0  0  0  0
  -27.3685  -29.7911   17.5619 O   0  0  0  0  0  0  0  0  0  0  0  0
  -29.4235  -17.6210   22.7445 O   0  0  0  0  0  0  0  0  0  0  0  0
  -21.3439   -7.4384   21.7445 O   0  0  0  0  0  0  0  0  0  0  0  0
  -28.7571  -22.6106   18.8452 O   0  0  0  0  0  0  0  0  0  0  0  0
  -25.2831  -23.4077   18.6821 O   0  0  0  0  0  0  0  0  0  1  0  0
  -23.3043   -3.2284   24.7171 F   0  0  0  0  0  0  0  0  0  0  0  0
  -22.4764   -7.8634   24.2303 F   0  0  0  0  0  0  0  0  0  0  0  0
  1  2  1  0  0  0  0
  1  5  2  0  0  0  0
  2  6  2  0  0  0  0
  3  8  2  0  0  0  0
  3 17  1  0  0  0  0
  4  9  1  0  0  0  0
  4 17  2  0  0  0  0
  5 19  1  0  0  0  0
  6 21  1  0  0  0  0
  7 10  2  0  0  0  0
  7 20  1  0  0  0  0
  8 24  1  0  0  0  0
  9 24  2  0  0  0  0
 10 25  1  0  0  0  0
 11 12  2  0  0  0  0
 11 26  1  0  0  0  0
 12 28  1  0  0  0  0
 13 22  1  0  0  0  0
 13 25  2  0  0  0  0
 14 23  1  0  0  0  0
 14 31  2  0  0  0  0
 15 28  2  0  0  0  0
 15 29  1  0  0  0  0
 16 27  1  0  0  0  0
 16 68  2  0  0  0  0
 17 30  1  0  0  0  0
 18 30  1  0  0  0  0
 18 32  2  0  0  0  0
 18 33  1  0  0  0  0
 19 21  2  0  0  0  0
 19 38  1  0  0  0  0
 20 22  2  0  0  0  0
 20 39  1  0  0  0  0
 21 49  1  0  0  0  0
 22 40  1  0  0  0  0
 23 27  2  0  0  0  0
 23 63  1  0  0  0  0
 24 84  1  0  0  0  0
 25 86  1  0  0  0  0
 26 29  2  0  0  0  0
 26 84  1  0  0  0  0
 27 85  1  0  0  0  0
 28 87  1  0  0  0  0
 29 88  1  0  0  0  0
 30 69  2  0  0  0  0
 31 68  1  0  0  0  0
 31 75  1  0  0  0  0
 32 70  1  0  0  0  0
 32 73  1  0  0  0  0
 33 74  1  0  0  0  0
 33 79  2  0  0  0  0
 34 50  1  0  0  0  0
 34 76  1  0  0  0  0
 34 80  2  0  0  0  0
 35 64  1  0  0  0  0
 35 71  1  0  0  0  0
 35 81  2  0  0  0  0
 36 65  1  0  0  0  0
 36 77  1  0  0  0  0
 36 82  2  0  0  0  0
 37 72  1  0  0  0  0
 37 75  1  0  0  0  0
 37 83  2  0  0  0  0
 38 41  1  0  0  0  0
 39 50  1  0  0  0  0
 40 71  1  0  0  0  0
 41 43  1  0  0  0  0
 42 46  1  0  0  0  0
 42 47  1  0  0  0  0
 43 49  1  0  0  0  0
 44 45  1  0  0  0  0
 44 51  1  0  0  0  0
 45 51  1  0  0  0  0
 46 52  1  0  0  0  0
 47 72  1  0  0  0  0
 48 52  1  0  0  0  0
 48 72  1  0  0  0  0
 49 76  1  0  0  0  0
 50 71  1  0  0  0  0
 51 60  1  0  0  0  0
 52 70  1  0  0  0  0
 53 63  1  0  0  0  0
 54 65  1  0  0  0  0
 55 66  1  0  0  0  0
 56 67  1  0  0  0  0
 57 67  1  0  0  0  0
 58 67  1  0  0  0  0
 59 78  1  0  0  0  0
 60 62  1  0  0  0  0
 61 63  1  0  0  0  0
 61 66  1  0  0  0  0
 62 85  1  0  0  0  0
 64 67  1  0  0  0  0
 64 77  1  0  0  0  0
 65 78  1  0  0  0  0
 66 86  1  0  0  0  0
 69 70  1  0  0  0  0
M  CHG  1  78   1
M  ISO  4  37 100  66 101  75 100  86 101
M  END
> <Batch ID>
0117

> <Smiles>
CNC(C)C(=O)NC(C(=O)N1Cc2cc([101O:1][101CH:1](C)CC(C)c3cc([100NH:0][100C:0](=O)N4CCCC(n5nc(-c6ccc(Oc7ccc(F)cc7F)cc6)c(C(N)=O)c5N)C4)ncc3OCCC3CC3)ccc2CC1C(=O)NC1CCCc2ccccc21)C(C)(C)C

> <Shape>
0.243

> <Color>
0.102

> <Negative vol penalty>
0.000

$$$$

  -OEChem-04052320153D

 87 96  0     1  0  0  0  0  0999 V2000
  -20.6728  -24.5572   34.1451 C   0  0  0  0  0  0  0  0  0  0  0  0
  -21.5955  -24.0532   33.2340 C   0  0  0  0  0  0  0  0  0  0  0  0
  -22.9992   -9.9251   19.9376 C   0  0  0  0  0  0  0  0  0  0  0  0
  -23.8046   -9.8720   22.2147 C   0  0  0  0  0  0  0  0  0  0  0  0
  -19.3810  -24.8720   33.7256 C   0  0  0  0  0  0  0  0  0  0  0  0
  -21.2264  -23.8627   31.9028 C   0  0  0  0  0  0  0  0  0  0  0  0
  -24.7741  -24.5713   26.9614 C   0  0  0  0  0  0  0  0  0  0  0  0
  -27.0584  -19.6204   23.6502 C   0  0  0  0  0  0  0  0  0  0  0  0
  -27.6179  -18.7328   22.7311 C   0  0  0  0  0  0  0  0  0  0  0  0
  -22.2430   -8.7780   20.1782 C   0  0  0  0  0  0  0  0  0  0  0  0
  -23.0484   -8.7248   22.4554 C   0  0  0  0  0  0  0  0  0  0  0  0
  -25.4809  -23.6618   26.1759 C   0  0  0  0  0  0  0  0  0  0  0  0
  -23.2778   -5.4116   21.8226 C   0  0  0  0  0  0  0  0  0  0  0  0
  -23.8918   -4.3622   22.5062 C   0  0  0  0  0  0  0  0  0  0  0  0
  -23.6400  -23.5851   24.6188 C   0  0  0  0  0  0  0  0  0  0  0  0
  -28.5030  -21.3764   22.8337 C   0  0  0  0  0  0  0  0  0  0  0  0
  -22.2275   -4.5245   24.2501 C   0  0  0  0  0  0  0  0  0  0  0  0
  -23.7800  -10.4721   20.9558 C   0  0  0  0  0  0  0  0  0  0  0  0
  -24.1576  -12.9939   20.8820 C   0  0  0  0  0  0  0  0  0  0  0  0
  -18.9988  -24.6943   32.3865 C   0  0  0  0  0  0  0  0  0  0  0  0
  -23.4883  -24.9869   26.5865 C   0  0  0  0  0  0  0  0  0  0  0  0
  -19.9279  -24.1742   31.4652 C   0  0  0  0  0  0  0  0  0  0  0  0
  -22.9200  -24.5020   25.3999 C   0  0  0  0  0  0  0  0  0  0  0  0
  -27.5009  -20.9423   23.7014 C   0  0  0  0  0  0  0  0  0  0  0  0
  -29.0626  -20.4888   21.9146 C   0  0  0  0  0  0  0  0  0  0  0  0
  -28.6200  -19.1670   21.8633 C   0  0  0  0  0  0  0  0  0  0  0  0
  -22.2676   -8.1779   21.4371 C   0  0  0  0  0  0  0  0  0  0  0  0
  -24.9127  -23.1663   25.0059 C   0  0  0  0  0  0  0  0  0  0  0  0
  -22.1386   -6.0175   22.3527 C   0  0  0  0  0  0  0  0  0  0  0  0
  -23.3667   -3.9186   23.7200 C   0  0  0  0  0  0  0  0  0  0  0  0
  -21.6135   -5.5739   23.5664 C   0  0  0  0  0  0  0  0  0  0  0  0
  -24.5618  -11.6567   20.7077 C   0  0  0  0  0  0  0  0  0  0  0  0
  -25.2536  -13.7348   20.5126 C   0  0  0  0  0  0  0  0  0  0  0  0
  -22.9037  -13.5194   21.3373 C   0  0  0  0  0  0  0  0  0  0  0  0
  -20.5928  -24.7632   27.8786 C   0  0  0  0  0  0  0  0  0  0  0  0
  -19.7569  -26.6519   25.3774 C   0  0  0  0  0  0  0  0  0  0  0  0
  -20.4420  -27.7483   22.2190 C   0  0  0  0  0  0  0  0  0  0  0  0
  -30.7548  -14.6687   20.6114 C   0  0  0  0  0  0  0  0  0  0  0  0
  -17.5770  -25.0043   31.9902 C   0  0  0  0  0  0  0  0  0  0  0  0
  -22.7498  -25.9890   27.4307 C   0  0  0  0  0  0  0  0  0  0  0  0
  -21.5509  -24.9321   24.9427 C   0  0  0  0  0  0  0  0  0  0  0  0
  -17.3779  -25.1255   30.4815 C   0  0  0  0  0  0  0  0  0  0  0  0
  -29.5339  -12.3526   18.1985 C   0  0  0  0  0  0  0  0  0  0  0  0
  -18.0597  -23.9683   29.7584 C   0  0  0  0  0  0  0  0  0  0  0  0
  -28.1011  -12.0710   18.6541 C   0  0  0  0  0  0  0  0  0  0  0  0
  -30.4780  -12.5342   19.3849 C   0  0  0  0  0  0  0  0  0  0  0  0
  -28.6155  -13.2635   20.8248 C   0  0  0  0  0  0  0  0  0  0  0  0
  -27.0282  -18.1295   18.4083 C   0  0  0  0  0  0  0  0  0  0  0  0
  -19.5728  -23.9768   30.0075 C   0  0  1  0  0  0  0  0  0  0  0  0
  -21.2392  -25.9494   27.2209 C   0  0  1  0  0  0  0  0  0  0  0  0
  -28.5639  -18.1642   18.5270 C   0  0  1  0  0  0  0  0  0  0  0  0
  -27.6156  -13.1285   19.6637 C   0  0  2  0  0  0  0  0  0  0  0  0
  -28.3344  -17.6122   19.9499 C   0  0  1  0  0  0  0  0  0  0  0  0
  -30.1343  -20.9805   20.9970 C   0  0  0  0  0  0  0  0  0  0  0  0
  -29.3367  -17.2791   17.5703 C   0  0  0  0  0  0  0  0  0  0  0  0
  -19.5568  -29.2622   20.4240 C   0  0  0  0  0  0  0  0  0  0  0  0
  -17.6150  -24.5883   24.6965 C   0  0  0  0  0  0  0  0  0  0  0  0
  -17.4235  -25.6371   22.4312 C   0  0  0  0  0  0  0  0  0  0  0  0
  -16.8803  -26.9680   24.4699 C   0  0  0  0  0  0  0  0  0  0  0  0
  -22.8796  -29.4259   22.2702 C   0  0  0  0  0  0  0  0  0  0  0  0
  -26.8988  -21.8968   24.6902 C   0  0  0  0  0  0  0  0  0  1  0  0
  -30.8779  -16.7912   21.8916 C   0  0  0  0  0  0  0  0  0  0  0  0
  -30.5932  -17.9609   20.9622 C   0  0  0  0  0  0  0  0  0  0  0  0
  -19.2928  -26.4079   23.9617 C   0  0  1  0  0  0  0  0  0  0  0  0
  -20.4833  -29.1444   21.6242 C   0  0  2  0  0  0  0  0  0  0  0  0
  -17.8279  -25.8905   23.8992 C   0  0  0  0  0  0  0  0  0  0  0  0
  -25.8165  -11.5512   20.2620 N   0  0  0  0  0  0  0  0  0  0  0  0
  -26.2102  -12.8315   20.1530 N   0  0  0  0  0  0  0  0  0  0  0  0
  -20.8661  -25.9089   25.8055 N   0  0  0  0  0  0  0  0  0  0  0  0
  -29.9608  -13.5516   20.3033 N   0  0  0  0  0  0  0  0  0  0  0  0
  -25.4827  -15.0643   20.4633 N   0  0  0  0  0  0  0  0  0  0  0  0
  -21.8850  -12.6182   21.6758 N   0  0  0  0  0  0  0  0  0  0  0  0
  -20.2140  -24.9836   29.1891 N   0  0  0  0  0  0  0  0  0  0  0  0
  -19.5176  -27.6545   23.2379 N   0  0  0  0  0  0  0  0  0  0  0  0
  -30.1867  -15.5881   21.4847 N   0  0  0  0  0  0  0  0  0  0  0  0
  -29.1749  -18.2544   20.9395 N   0  0  3  0  0  0  0  0  0  0  0  0
  -26.9629  -18.1476   19.8798 N   0  3  0  0  0  0  0  0  0  0  0  0
  -21.8673  -29.4792   21.1842 N   0  3  0  0  0  0  0  0  0  0  0  0
  -22.6873  -14.7518   21.4252 O   0  0  0  0  0  0  0  0  0  0  0  0
  -20.4470  -23.7253   27.2437 O   0  0  0  0  0  0  0  0  0  0  0  0
  -19.1617  -27.4769   26.0752 O   0  0  0  0  0  0  0  0  0  0  0  0
  -21.1554  -26.8317   21.8173 O   0  0  0  0  0  0  0  0  0  0  0  0
  -31.8840  -14.8370   20.1386 O   0  0  0  0  0  0  0  0  0  0  0  0
  -21.5297   -7.0586   21.6724 O   0  0  0  0  0  0  0  0  0  0  0  0
  -25.6002  -22.2780   24.2378 O   0  0  0  0  0  0  0  0  0  1  0  0
  -23.9556   -2.9099   24.3756 F   0  0  0  0  0  0  0  0  0  0  0  0
  -20.5187   -6.1512   24.0801 F   0  0  0  0  0  0  0  0  0  0  0  0
  1  2  1  0  0  0  0
  1  5  2  0  0  0  0
  2  6  2  0  0  0  0
  3 10  2  0  0  0  0
  3 18  1  0  0  0  0
  4 11  1  0  0  0  0
  4 18  2  0  0  0  0
  5 20  1  0  0  0  0
  6 22  1  0  0  0  0
  7 12  2  0  0  0  0
  7 21  1  0  0  0  0
  8  9  2  0  0  0  0
  8 24  1  0  0  0  0
  9 26  1  0  0  0  0
 10 27  1  0  0  0  0
 11 27  2  0  0  0  0
 12 28  1  0  0  0  0
 13 14  2  0  0  0  0
 13 29  1  0  0  0  0
 14 30  1  0  0  0  0
 15 23  1  0  0  0  0
 15 28  2  0  0  0  0
 16 24  2  0  0  0  0
 16 25  1  0  0  0  0
 17 30  2  0  0  0  0
 17 31  1  0  0  0  0
 18 32  1  0  0  0  0
 19 32  1  0  0  0  0
 19 33  2  0  0  0  0
 19 34  1  0  0  0  0
 20 22  2  0  0  0  0
 20 39  1  0  0  0  0
 21 23  2  0  0  0  0
 21 40  1  0  0  0  0
 22 49  1  0  0  0  0
 23 41  1  0  0  0  0
 24 61  1  0  0  0  0
 25 26  2  0  0  0  0
 25 54  1  0  0  0  0
 26 76  1  0  0  0  0
 27 84  1  0  0  0  0
 28 85  1  0  0  0  0
 29 31  2  0  0  0  0
 29 84  1  0  0  0  0
 30 86  1  0  0  0  0
 31 87  1  0  0  0  0
 32 67  2  0  0  0  0
 33 68  1  0  0  0  0
 33 71  1  0  0  0  0
 34 72  1  0  0  0  0
 34 79  2  0  0  0  0
 35 50  1  0  0  0  0
 35 73  1  0  0  0  0
 35 80  2  0  0  0  0
 36 64  1  0  0  0  0
 36 69  1  0  0  0  0
 36 81  2  0  0  0  0
 37 65  1  0  0  0  0
 37 74  1  0  0  0  0
 37 82  2  0  0  0  0
 38 70  1  0  0  0  0
 38 75  1  0  0  0  0
 38 83  2  0  0  0  0
 39 42  1  0  0  0  0
 40 50  1  0  0  0  0
 41 69  1  0  0  0  0
 42 44  1  0  0  0  0
 43 45  1  0  0  0  0
 43 46  1  0  0  0  0
 44 49  1  0  0  0  0
 45 52  1  0  0  0  0
 46 70  1  0  0  0  0
 47 52  1  0  0  0  0
 47 70  1  0  0  0  0
 48 51  1  0  0  0  0
 48 77  1  0  0  0  0
 49 73  1  0  0  0  0
 50 69  1  0  0  0  0
 51 53  1  0  0  0  0
 51 55  1  0  0  0  0
 52 68  1  0  0  0  0
 53 76  1  0  0  0  0
 53 77  1  0  0  0  0
 56 65  1  0  0  0  0
 57 66  1  0  0  0  0
 58 66  1  0  0  0  0
 59 66  1  0  0  0  0
 60 78  1  0  0  0  0
 61 85  1  0  0  0  0
 62 63  1  0  0  0  0
 62 75  1  0  0  0  0
 63 76  1  0  0  0  0
 64 66  1  0  0  0  0
 64 74  1  0  0  0  0
 65 78  1  0  0  0  0
 67 68  1  0  0  0  0
M  CHG  2  77   1  78   1
M  ISO  4  38 100  61 101  75 100  85 101
M  END
> <Batch ID>
0117

> <Smiles>
CNC(C)C(=O)NC(C(=O)N1Cc2cc([101O:1][101CH2:1]c3ccc(N(CC[100NH:0][100C:0](=O)N4CCCC(n5nc(-c6ccc(Oc7ccc(F)cc7F)cc6)c(C(N)=O)c5N)C4)C4NCC4C)c(C)c3)ccc2CC1C(=O)NC1CCCc2ccccc21)C(C)(C)C

> <Shape>
0.263

> <Color>
0.196

> <Negative vol penalty>
0.000

$$$$

  -OEChem-04052320153D

 90 98  0     1  0  0  0  0  0999 V2000
  -28.5465  -24.5131   17.2358 C   0  0  0  0  0  0  0  0  0  0  0  0
  -27.3400  -24.7029   17.9020 C   0  0  0  0  0  0  0  0  0  0  0  0
  -25.6663  -13.9903   19.9525 C   0  0  0  0  0  0  0  0  0  0  0  0
  -23.2718  -13.7385   20.1520 C   0  0  0  0  0  0  0  0  0  0  0  0
  -29.7141  -25.0914   17.7322 C   0  0  0  0  0  0  0  0  0  0  0  0
  -27.3006  -25.4702   19.0657 C   0  0  0  0  0  0  0  0  0  0  0  0
  -23.4051  -28.7053   19.1284 C   0  0  0  0  0  0  0  0  0  0  0  0
  -25.7964  -12.6129   19.7752 C   0  0  0  0  0  0  0  0  0  0  0  0
  -23.4018  -12.3611   19.9746 C   0  0  0  0  0  0  0  0  0  0  0  0
  -22.1496  -28.1842   19.4381 C   0  0  0  0  0  0  0  0  0  0  0  0
  -23.1362   -8.7365   19.9338 C   0  0  0  0  0  0  0  0  0  0  0  0
  -22.4123   -7.9020   20.7853 C   0  0  0  0  0  0  0  0  0  0  0  0
  -22.3784  -28.9927   21.6993 C   0  0  0  0  0  0  0  0  0  0  0  0
  -23.5629   -8.8460   22.6885 C   0  0  0  0  0  0  0  0  0  0  0  0
  -24.4040  -14.5531   20.1410 C   0  0  0  0  0  0  0  0  0  0  0  0
  -24.0832  -16.9485   19.3242 C   0  0  0  0  0  0  0  0  0  0  0  0
  -29.6872  -25.8741   18.8972 C   0  0  0  0  0  0  0  0  0  0  0  0
  -24.1627  -29.3656   20.1064 C   0  0  0  0  0  0  0  0  0  0  0  0
  -28.4691  -26.0583   19.5789 C   0  0  0  0  0  0  0  0  0  0  0  0
  -23.6422  -29.5235   21.3988 C   0  0  0  0  0  0  0  0  0  0  0  0
  -24.6642  -11.7983   19.7862 C   0  0  0  0  0  0  0  0  0  0  0  0
  -21.6373  -28.3253   20.7244 C   0  0  0  0  0  0  0  0  0  0  0  0
  -24.0735   -9.6258   20.4596 C   0  0  0  0  0  0  0  0  0  0  0  0
  -22.6257   -7.9567   22.1627 C   0  0  0  0  0  0  0  0  0  0  0  0
  -24.2868   -9.6806   21.8369 C   0  0  0  0  0  0  0  0  0  0  0  0
  -24.2690  -15.9758   20.3248 C   0  0  0  0  0  0  0  0  0  0  0  0
  -24.0145  -18.1370   20.0092 C   0  0  0  0  0  0  0  0  0  0  0  0
  -23.9818  -16.7916   17.9027 C   0  0  0  0  0  0  0  0  0  0  0  0
  -26.9863  -28.8610   21.4761 C   0  0  0  0  0  0  0  0  0  0  0  0
  -26.4011  -31.7437   22.8435 C   0  0  0  0  0  0  0  0  0  0  0  0
  -22.3562  -19.0834   25.7194 C   0  0  0  0  0  0  0  0  0  0  0  0
  -24.1080  -34.0740   23.8224 C   0  0  0  0  0  0  0  0  0  0  0  0
  -30.9832  -26.4398   19.4218 C   0  0  0  0  0  0  0  0  0  0  0  0
  -25.5038  -29.9454   19.7493 C   0  0  0  0  0  0  0  0  0  0  0  0
  -24.4069  -30.2417   22.4795 C   0  0  0  0  0  0  0  0  0  0  0  0
  -30.7906  -27.5485   20.4532 C   0  0  0  0  0  0  0  0  0  0  0  0
  -25.8184  -19.6325   24.2541 C   0  0  0  0  0  0  0  0  0  0  0  0
  -29.7468  -27.1399   21.4877 C   0  0  0  0  0  0  0  0  0  0  0  0
  -19.6969  -22.1150   23.8342 C   0  0  0  0  0  0  0  0  0  0  0  0
  -20.4233  -20.8590   24.3255 C   0  0  0  0  0  0  0  0  0  0  0  0
  -25.5590  -19.3457   22.7756 C   0  0  0  0  0  0  0  0  0  0  0  0
  -21.1270  -22.7245   25.6703 C   0  0  0  0  0  0  0  0  0  0  0  0
  -24.5608  -20.0743   24.9912 C   0  0  0  0  0  0  0  0  0  0  0  0
  -23.5477  -18.1375   23.7704 C   0  0  0  0  0  0  0  0  0  0  0  0
  -28.3814  -26.9045   20.8304 C   0  0  1  0  0  0  0  0  0  0  0  0
  -26.4086  -30.1487   20.9606 C   0  0  1  0  0  0  0  0  0  0  0  0
  -20.4597  -23.3039   24.4258 C   0  0  2  0  0  0  0  0  0  0  0  0
  -21.5902  -21.3538   25.1847 C   0  0  1  0  0  0  0  0  0  0  0  0
  -24.1556  -18.7685   22.5089 C   0  0  2  0  0  0  0  0  0  0  0  0
  -21.0490  -19.2325   28.4512 C   0  0  0  0  0  0  0  0  0  0  0  0
  -23.9289  -36.3105   24.9463 C   0  0  0  0  0  0  0  0  0  0  0  0
  -20.3739  -25.6198   25.3941 C   0  0  0  0  0  0  0  0  0  0  0  0
  -18.5399  -24.5930   20.4141 C   0  0  0  0  0  0  0  0  0  0  0  0
  -26.9015  -30.4222   25.5478 C   0  0  0  0  0  0  0  0  0  0  0  0
  -25.8027  -32.3916   26.6352 C   0  0  0  0  0  0  0  0  0  0  0  0
  -27.8890  -32.7070   25.3046 C   0  0  0  0  0  0  0  0  0  0  0  0
  -22.8804  -35.3080   21.4289 C   0  0  0  0  0  0  0  0  0  0  0  0
  -23.9646  -23.6688   29.6712 C   0  0  0  0  0  0  0  0  0  0  0  0
  -24.9608  -21.4174   29.2974 C   0  0  0  0  0  0  0  0  0  0  0  0
  -20.7532  -20.1755   27.2885 C   0  0  0  0  0  0  0  0  0  0  0  0
  -23.1782  -20.9709   27.0831 C   0  0  0  0  0  0  0  0  0  0  0  0
  -22.8794  -22.0725   28.0976 C   0  0  0  0  0  0  0  0  0  0  0  0
  -18.8027  -24.9958   23.4903 C   0  0  0  0  0  0  0  0  0  0  0  0
  -19.9928  -26.6578   20.3108 C   0  0  0  0  0  0  0  0  0  1  0  0
  -25.7187  -32.2087   24.1072 C   0  0  1  0  0  0  0  0  0  0  0  0
  -24.0499  -35.5773   23.6195 C   0  0  2  0  0  0  0  0  0  0  0  0
  -19.5641  -24.5065   24.7275 C   0  0  1  0  0  0  0  0  0  0  0  0
  -19.0201  -25.8347   21.1477 C   0  0  2  0  0  0  0  0  0  0  0  0
  -21.9446  -20.4065   26.3182 C   0  0  1  0  0  0  0  0  0  0  0  0
  -26.5641  -31.9171   25.3791 C   0  0  0  0  0  0  0  0  0  0  0  0
  -24.3155  -16.5010   21.5521 N   0  0  0  0  0  0  0  0  0  0  0  0
  -24.1580  -17.8165   21.3271 N   0  0  0  0  0  0  0  0  0  0  0  0
  -25.7163  -30.7855   22.0828 N   0  0  0  0  0  0  0  0  0  0  0  0
  -23.4609  -19.1100   24.8650 N   0  0  0  0  0  0  0  0  0  0  0  0
  -23.8459  -19.4145   19.6067 N   0  0  0  0  0  0  0  0  0  0  0  0
  -24.0735  -15.5007   17.3647 N   0  0  0  0  0  0  0  0  0  0  0  0
  -27.7340  -28.1668   20.5441 N   0  0  0  0  0  0  0  0  0  0  0  0
  -25.4072  -33.6199   23.9074 N   0  0  0  0  0  0  0  0  0  0  0  0
  -22.8784  -35.9408   22.7730 N   0  3  0  0  0  0  0  0  0  0  0  0
  -19.7175  -25.3991   22.3922 N   0  3  0  0  0  0  0  0  0  0  0  0
  -24.1589  -22.5408   28.6886 N   0  3  0  0  0  0  0  0  0  0  0  0
  -23.8312  -17.7690   17.1310 O   0  0  0  0  0  0  0  0  0  0  0  0
  -26.7710  -28.5230   22.6342 O   0  0  0  0  0  0  0  0  0  0  0  0
  -27.4981  -32.2185   22.5388 O   0  0  0  0  0  0  0  0  0  0  0  0
  -21.7235  -18.0638   26.0037 O   0  0  0  0  0  0  0  0  0  0  0  0
  -23.1015  -33.3731   23.9017 O   0  0  0  0  0  0  0  0  0  0  0  0
  -24.7907  -10.4543   19.6129 O   0  0  0  0  0  0  0  0  0  0  0  0
  -20.4124  -27.8170   21.0295 O   0  0  0  0  0  0  0  0  0  1  0  0
  -21.9294   -7.1563   22.9804 F   0  0  0  0  0  0  0  0  0  0  0  0
  -25.1850  -10.5337   22.3480 F   0  0  0  0  0  0  0  0  0  0  0  0
  1  2  1  0  0  0  0
  1  5  2  0  0  0  0
  2  6  2  0  0  0  0
  3  8  2  0  0  0  0
  3 15  1  0  0  0  0
  4  9  1  0  0  0  0
  4 15  2  0  0  0  0
  5 17  1  0  0  0  0
  6 19  1  0  0  0  0
  7 10  2  0  0  0  0
  7 18  1  0  0  0  0
  8 21  1  0  0  0  0
  9 21  2  0  0  0  0
 10 22  1  0  0  0  0
 11 12  2  0  0  0  0
 11 23  1  0  0  0  0
 12 24  1  0  0  0  0
 13 20  1  0  0  0  0
 13 22  2  0  0  0  0
 14 24  2  0  0  0  0
 14 25  1  0  0  0  0
 15 26  1  0  0  0  0
 16 26  1  0  0  0  0
 16 27  2  0  0  0  0
 16 28  1  0  0  0  0
 17 19  2  0  0  0  0
 17 33  1  0  0  0  0
 18 20  2  0  0  0  0
 18 34  1  0  0  0  0
 19 45  1  0  0  0  0
 20 35  1  0  0  0  0
 21 87  1  0  0  0  0
 22 88  1  0  0  0  0
 23 25  2  0  0  0  0
 23 87  1  0  0  0  0
 24 89  1  0  0  0  0
 25 90  1  0  0  0  0
 26 71  2  0  0  0  0
 27 72  1  0  0  0  0
 27 75  1  0  0  0  0
 28 76  1  0  0  0  0
 28 82  2  0  0  0  0
 29 46  1  0  0  0  0
 29 77  1  0  0  0  0
 29 83  2  0  0  0  0
 30 65  1  0  0  0  0
 30 73  1  0  0  0  0
 30 84  2  0  0  0  0
 31 69  1  0  0  0  0
 31 74  1  0  0  0  0
 31 85  2  0  0  0  0
 32 66  1  0  0  0  0
 32 78  1  0  0  0  0
 32 86  2  0  0  0  0
 33 36  1  0  0  0  0
 34 46  1  0  0  0  0
 35 73  1  0  0  0  0
 36 38  1  0  0  0  0
 37 41  1  0  0  0  0
 37 43  1  0  0  0  0
 38 45  1  0  0  0  0
 39 40  1  0  0  0  0
 39 47  1  0  0  0  0
 40 48  1  0  0  0  0
 41 49  1  0  0  0  0
 42 47  1  0  0  0  0
 42 48  1  0  0  0  0
 43 74  1  0  0  0  0
 44 49  1  0  0  0  0
 44 74  1  0  0  0  0
 45 77  1  0  0  0  0
 46 73  1  0  0  0  0
 47 67  1  0  0  0  0
 48 69  1  0  0  0  0
 49 72  1  0  0  0  0
 50 60  1  0  0  0  0
 51 66  1  0  0  0  0
 52 67  1  0  0  0  0
 53 68  1  0  0  0  0
 54 70  1  0  0  0  0
 55 70  1  0  0  0  0
 56 70  1  0  0  0  0
 57 79  1  0  0  0  0
 58 81  1  0  0  0  0
 59 81  1  0  0  0  0
 60 69  1  0  0  0  0
 61 62  1  0  0  0  0
 61 69  1  0  0  0  0
 62 81  1  0  0  0  0
 63 67  1  0  0  0  0
 63 80  1  0  0  0  0
 64 68  1  0  0  0  0
 64 88  1  0  0  0  0
 65 70  1  0  0  0  0
 65 78  1  0  0  0  0
 66 79  1  0  0  0  0
 68 80  1  0  0  0  0
 71 72  1  0  0  0  0
M  CHG  3  79   1  80   1  81   1
M  ISO  4  31 100  64 101  69 100  88 101
M  END
> <Batch ID>
0117

> <Smiles>
CC[100C:0](CCN(C)C)(C1CCC(C(C)CNC(C)[101CH2:1][101O:1]c2ccc3c(c2)CN(C(=O)C(NC(=O)C(C)NC)C(C)(C)C)C(C(=O)NC2CCCc4ccccc42)C3)C1)[100C:0](=O)N1CCCC(n2nc(-c3ccc(Oc4ccc(F)cc4F)cc3)c(C(N)=O)c2N)C1

> <Shape>
0.267

> <Color>
0.068

> <Negative vol penalty>
0.000

$$$$

  -OEChem-04052320153D

 84 93  0     1  0  0  0  0  0999 V2000
  -17.2301  -31.5396   23.9774 C   0  0  0  0  0  0  0  0  0  0  0  0
  -18.3187  -31.9770   23.2297 C   0  0  0  0  0  0  0  0  0  0  0  0
  -25.7624  -13.1822   22.1191 C   0  0  0  0  0  0  0  0  0  0  0  0
  -26.1646  -13.7836   19.8140 C   0  0  0  0  0  0  0  0  0  0  0  0
  -17.3549  -30.4203   24.7992 C   0  0  0  0  0  0  0  0  0  0  0  0
  -19.5332  -31.2960   23.3043 C   0  0  0  0  0  0  0  0  0  0  0  0
  -25.2140  -29.5575   19.3015 C   0  0  0  0  0  0  0  0  0  0  0  0
  -24.6840  -12.3905   21.7244 C   0  0  0  0  0  0  0  0  0  0  0  0
  -25.0862  -12.9919   19.4193 C   0  0  0  0  0  0  0  0  0  0  0  0
  -26.6063  -29.6283   19.3192 C   0  0  0  0  0  0  0  0  0  0  0  0
  -24.2048   -9.3286   20.3724 C   0  0  0  0  0  0  0  0  0  0  0  0
  -24.0939   -8.0571   20.9350 C   0  0  0  0  0  0  0  0  0  0  0  0
  -30.6688  -26.6762   17.2991 C   0  0  0  0  0  0  0  0  0  0  0  0
  -26.6826  -27.6603   20.7122 C   0  0  0  0  0  0  0  0  0  0  0  0
  -21.9382   -8.6503   21.8505 C   0  0  0  0  0  0  0  0  0  0  0  0
  -30.7831  -26.3782   19.6676 C   0  0  0  0  0  0  0  0  0  0  0  0
  -26.5027  -13.8788   21.1639 C   0  0  0  0  0  0  0  0  0  0  0  0
  -28.9606  -14.2997   21.7017 C   0  0  0  0  0  0  0  0  0  0  0  0
  -18.5688  -29.7194   24.8766 C   0  0  0  0  0  0  0  0  0  0  0  0
  -24.5440  -28.5423   19.9992 C   0  0  0  0  0  0  0  0  0  0  0  0
  -19.6748  -30.1670   24.1290 C   0  0  0  0  0  0  0  0  0  0  0  0
  -30.6561  -25.2988   17.1995 C   0  0  0  0  0  0  0  0  0  0  0  0
  -25.2819  -27.5773   20.6997 C   0  0  0  0  0  0  0  0  0  0  0  0
  -30.7305  -27.2339   18.5707 C   0  0  0  0  0  0  0  0  0  0  0  0
  -24.3459  -12.2953   20.3745 C   0  0  0  0  0  0  0  0  0  0  0  0
  -27.3407  -28.6813   20.0270 C   0  0  0  0  0  0  0  0  0  0  0  0
  -23.1825  -10.2610   20.5489 C   0  0  0  0  0  0  0  0  0  0  0  0
  -22.9606   -7.7180   21.6740 C   0  0  0  0  0  0  0  0  0  0  0  0
  -22.0492   -9.9219   21.2879 C   0  0  0  0  0  0  0  0  0  0  0  0
  -27.6165  -14.6972   21.5711 C   0  0  0  0  0  0  0  0  0  0  0  0
  -30.7196  -24.5071   18.3464 C   0  0  0  0  0  0  0  0  0  0  0  0
  -29.6162  -15.4350   22.1114 C   0  0  0  0  0  0  0  0  0  0  0  0
  -29.5628  -13.0187   21.4730 C   0  0  0  0  0  0  0  0  0  0  0  0
  -22.4645  -28.4676   22.4021 C   0  0  0  0  0  0  0  0  0  0  0  0
  -22.3871  -25.2966   21.7229 C   0  0  0  0  0  0  0  0  0  0  0  0
  -23.9555  -22.5844   20.3699 C   0  0  0  0  0  0  0  0  0  0  0  0
  -28.4382  -21.2725   21.4898 C   0  0  0  0  0  0  0  0  0  0  0  0
  -18.6694  -28.5431   25.8151 C   0  0  0  0  0  0  0  0  0  0  0  0
  -23.0428  -28.4642   19.9482 C   0  0  0  0  0  0  0  0  0  0  0  0
  -30.6179  -24.4410   15.9800 C   0  0  0  0  0  0  0  0  0  0  0  0
  -24.6112  -26.4556   21.4482 C   0  0  0  0  0  0  0  0  0  0  0  0
  -19.8826  -27.6552   25.5510 C   0  0  0  0  0  0  0  0  0  0  0  0
  -28.9101  -19.4966   24.5395 C   0  0  0  0  0  0  0  0  0  0  0  0
  -21.1369  -28.5045   25.3716 C   0  0  0  0  0  0  0  0  0  0  0  0
  -28.7533  -18.0293   24.1363 C   0  0  0  0  0  0  0  0  0  0  0  0
  -30.3099  -23.0639   16.5986 C   0  0  0  0  0  0  0  0  0  0  0  0
  -27.9592  -20.4011   23.7587 C   0  0  0  0  0  0  0  0  0  0  0  0
  -27.8819  -18.7971   21.8891 C   0  0  0  0  0  0  0  0  0  0  0  0
  -21.0016  -29.4401   24.1642 C   0  0  1  0  0  0  0  0  0  0  0  0
  -22.4447  -27.6882   21.1176 C   0  0  1  0  0  0  0  0  0  0  0  0
  -28.8595  -17.8529   22.6096 C   0  0  2  0  0  0  0  0  0  0  0  0
  -23.6598  -20.1203   19.9978 C   0  0  0  0  0  0  0  0  0  0  0  0
  -23.0209  -24.7791   24.6624 C   0  0  0  0  0  0  0  0  0  0  0  0
  -23.6436  -22.4345   24.0433 C   0  0  0  0  0  0  0  0  0  0  0  0
  -21.3118  -23.2418   23.6774 C   0  0  0  0  0  0  0  0  0  0  0  0
  -24.0899  -22.8945   17.4297 C   0  0  0  0  0  0  0  0  0  0  0  0
  -30.7427  -28.7315   18.7587 C   0  0  0  0  0  0  0  0  0  0  0  0
  -30.4121  -22.1198   18.9659 C   0  0  0  0  0  0  0  0  0  0  0  0
  -28.9091  -21.9919   19.1618 C   0  0  0  0  0  0  0  0  0  0  0  0
  -29.3388  -29.3096   18.9006 C   0  0  0  0  0  0  0  0  0  1  0  0
  -23.1653  -24.0862   22.1794 C   0  0  1  0  0  0  0  0  0  0  0  0
  -23.4668  -21.5112   19.4139 C   0  0  2  0  0  0  0  0  0  0  0  0
  -22.7983  -23.6575   23.6282 C   0  0  0  0  0  0  0  0  0  0  0  0
  -30.7808  -25.0246   19.5894 N   0  0  0  0  0  0  0  0  0  0  0  0
  -27.4278  -15.9845   21.8735 N   0  0  0  0  0  0  0  0  0  0  0  0
  -28.6620  -16.4056   22.1983 N   0  0  0  0  0  0  0  0  0  0  0  0
  -30.7133  -23.1429   17.9989 N   0  0  2  0  0  0  0  0  0  0  0  0
  -23.1412  -26.4258   21.3734 N   0  0  0  0  0  0  0  0  0  0  0  0
  -28.1110  -20.1859   22.3176 N   0  0  0  0  0  0  0  0  0  0  0  0
  -30.9100  -15.6876   22.4023 N   0  0  0  0  0  0  0  0  0  0  0  0
  -28.7442  -11.9607   21.0549 N   0  0  0  0  0  0  0  0  0  0  0  0
  -21.2118  -28.7095   22.9327 N   0  0  0  0  0  0  0  0  0  0  0  0
  -22.9388  -23.0527   21.1750 N   0  0  0  0  0  0  0  0  0  0  0  0
  -28.5695  -20.9805   20.1377 N   0  0  0  0  0  0  0  0  0  0  0  0
  -24.2114  -21.5874   18.1252 N   0  3  0  0  0  0  0  0  0  0  0  0
  -30.7876  -12.8142   21.6505 O   0  0  0  0  0  0  0  0  0  0  0  0
  -23.5370  -28.8219   22.8774 O   0  0  0  0  0  0  0  0  0  0  0  0
  -21.1560  -25.2399   21.6713 O   0  0  0  0  0  0  0  0  0  0  0  0
  -25.1233  -22.9662   20.4020 O   0  0  0  0  0  0  0  0  0  0  0  0
  -28.6066  -22.4170   21.9243 O   0  0  0  0  0  0  0  0  0  0  0  0
  -23.2938  -11.5227   19.9890 O   0  0  0  0  0  0  0  0  0  0  0  0
  -28.6998  -28.7484   20.0464 O   0  0  0  0  0  0  0  0  0  1  0  0
  -22.8535   -6.4964   22.2130 F   0  0  0  0  0  0  0  0  0  0  0  0
  -21.0632  -10.8130   21.4599 F   0  0  0  0  0  0  0  0  0  0  0  0
  1  2  1  0  0  0  0
  1  5  2  0  0  0  0
  2  6  2  0  0  0  0
  3  8  2  0  0  0  0
  3 17  1  0  0  0  0
  4  9  1  0  0  0  0
  4 17  2  0  0  0  0
  5 19  1  0  0  0  0
  6 21  1  0  0  0  0
  7 10  2  0  0  0  0
  7 20  1  0  0  0  0
  8 25  1  0  0  0  0
  9 25  2  0  0  0  0
 10 26  1  0  0  0  0
 11 12  2  0  0  0  0
 11 27  1  0  0  0  0
 12 28  1  0  0  0  0
 13 22  1  0  0  0  0
 13 24  2  0  0  0  0
 14 23  1  0  0  0  0
 14 26  2  0  0  0  0
 15 28  2  0  0  0  0
 15 29  1  0  0  0  0
 16 24  1  0  0  0  0
 16 64  2  0  0  0  0
 17 30  1  0  0  0  0
 18 30  1  0  0  0  0
 18 32  2  0  0  0  0
 18 33  1  0  0  0  0
 19 21  2  0  0  0  0
 19 38  1  0  0  0  0
 20 23  2  0  0  0  0
 20 39  1  0  0  0  0
 21 49  1  0  0  0  0
 22 31  2  0  0  0  0
 22 40  1  0  0  0  0
 23 41  1  0  0  0  0
 24 57  1  0  0  0  0
 25 81  1  0  0  0  0
 26 82  1  0  0  0  0
 27 29  2  0  0  0  0
 27 81  1  0  0  0  0
 28 83  1  0  0  0  0
 29 84  1  0  0  0  0
 30 65  2  0  0  0  0
 31 64  1  0  0  0  0
 31 67  1  0  0  0  0
 32 66  1  0  0  0  0
 32 70  1  0  0  0  0
 33 71  1  0  0  0  0
 33 76  2  0  0  0  0
 34 50  1  0  0  0  0
 34 72  1  0  0  0  0
 34 77  2  0  0  0  0
 35 61  1  0  0  0  0
 35 68  1  0  0  0  0
 35 78  2  0  0  0  0
 36 62  1  0  0  0  0
 36 73  1  0  0  0  0
 36 79  2  0  0  0  0
 37 69  1  0  0  0  0
 37 74  1  0  0  0  0
 37 80  2  0  0  0  0
 38 42  1  0  0  0  0
 39 50  1  0  0  0  0
 40 46  1  0  0  0  0
 41 68  1  0  0  0  0
 42 44  1  0  0  0  0
 43 45  1  0  0  0  0
 43 47  1  0  0  0  0
 44 49  1  0  0  0  0
 45 51  1  0  0  0  0
 46 67  1  0  0  0  0
 47 69  1  0  0  0  0
 48 51  1  0  0  0  0
 48 69  1  0  0  0  0
 49 72  1  0  0  0  0
 50 68  1  0  0  0  0
 51 66  1  0  0  0  0
 52 62  1  0  0  0  0
 53 63  1  0  0  0  0
 54 63  1  0  0  0  0
 55 63  1  0  0  0  0
 56 75  1  0  0  0  0
 57 60  1  0  0  0  0
 58 59  1  0  0  0  0
 58 67  1  0  0  0  0
 59 74  1  0  0  0  0
 60 82  1  0  0  0  0
 61 63  1  0  0  0  0
 61 73  1  0  0  0  0
 62 75  1  0  0  0  0
 65 66  1  0  0  0  0
M  CHG  1  75   1
M  ISO  4  37 100  60 101  74 100  82 101
M  END
> <Batch ID>
0117

> <Smiles>
CNC(C)C(=O)NC(C(=O)N1Cc2cc([101O:1][101CH2:1]Cc3cnc4c(c3)CCN4CC[100NH:0][100C:0](=O)N3CCCC(n4nc(-c5ccc(Oc6ccc(F)cc6F)cc5)c(C(N)=O)c4N)C3)ccc2CC1C(=O)NC1CCCc2ccccc21)C(C)(C)C

> <Shape>
0.263

> <Color>
0.095

> <Negative vol penalty>
0.000

$$$$

  -OEChem-04052320153D

 90 99  0     1  0  0  0  0  0999 V2000
  -30.8079  -35.2779   23.4690 C   0  0  0  0  0  0  0  0  0  0  0  0
  -31.0108  -33.9403   23.1447 C   0  0  0  0  0  0  0  0  0  0  0  0
  -23.4219  -15.8512   20.7480 C   0  0  0  0  0  0  0  0  0  0  0  0
  -23.0216  -14.3408   18.9053 C   0  0  0  0  0  0  0  0  0  0  0  0
  -29.6872  -35.6522   24.2092 C   0  0  0  0  0  0  0  0  0  0  0  0
  -30.0938  -32.9761   23.5615 C   0  0  0  0  0  0  0  0  0  0  0  0
  -28.4448  -27.9128   20.5366 C   0  0  0  0  0  0  0  0  0  0  0  0
  -22.4747  -16.7343   20.2301 C   0  0  0  0  0  0  0  0  0  0  0  0
  -22.0743  -15.2239   18.3873 C   0  0  0  0  0  0  0  0  0  0  0  0
  -28.8479  -26.5826   20.6445 C   0  0  0  0  0  0  0  0  0  0  0  0
  -19.9013  -19.2199   19.5860 C   0  0  0  0  0  0  0  0  0  0  0  0
  -18.9822  -19.7789   20.4738 C   0  0  0  0  0  0  0  0  0  0  0  0
  -26.9534  -26.1302   22.0677 C   0  0  0  0  0  0  0  0  0  0  0  0
  -18.1856  -17.5695   21.0404 C   0  0  0  0  0  0  0  0  0  0  0  0
  -23.6955  -14.6544   20.0856 C   0  0  0  0  0  0  0  0  0  0  0  0
  -24.4498  -12.6914   21.5295 C   0  0  0  0  0  0  0  0  0  0  0  0
  -28.7509  -34.6933   24.6270 C   0  0  0  0  0  0  0  0  0  0  0  0
  -27.2971  -28.3651   21.2034 C   0  0  0  0  0  0  0  0  0  0  0  0
  -28.9603  -33.3378   24.3092 C   0  0  0  0  0  0  0  0  0  0  0  0
  -26.5364  -27.4661   21.9646 C   0  0  0  0  0  0  0  0  0  0  0  0
  -21.8008  -16.4207   19.0497 C   0  0  0  0  0  0  0  0  0  0  0  0
  -28.1038  -25.6917   21.4125 C   0  0  0  0  0  0  0  0  0  0  0  0
  -19.9626  -17.8356   19.4253 C   0  0  0  0  0  0  0  0  0  0  0  0
  -18.1243  -18.9538   21.2010 C   0  0  0  0  0  0  0  0  0  0  0  0
  -19.1047  -17.0104   20.1525 C   0  0  0  0  0  0  0  0  0  0  0  0
  -24.6744  -13.7420   20.6199 C   0  0  0  0  0  0  0  0  0  0  0  0
  -25.6892  -12.1304   21.7189 C   0  0  0  0  0  0  0  0  0  0  0  0
  -23.2300  -12.2608   22.1480 C   0  0  0  0  0  0  0  0  0  0  0  0
  -26.7208  -30.5224   23.4656 C   0  0  0  0  0  0  0  0  0  0  0  0
  -26.6205  -17.5087   23.5580 C   0  0  0  0  0  0  0  0  0  0  0  0
  -23.6253  -29.7914   22.8287 C   0  0  0  0  0  0  0  0  0  0  0  0
  -21.3716  -27.5312   21.6207 C   0  0  0  0  0  0  0  0  0  0  0  0
  -28.3627  -15.5889   18.7045 C   0  0  0  0  0  0  0  0  0  0  0  0
  -27.5796  -35.1398   25.4657 C   0  0  0  0  0  0  0  0  0  0  0  0
  -26.8607  -29.7969   21.0552 C   0  0  0  0  0  0  0  0  0  0  0  0
  -25.2851  -27.8968   22.6837 C   0  0  0  0  0  0  0  0  0  0  0  0
  -26.4602  -34.1052   25.5484 C   0  0  0  0  0  0  0  0  0  0  0  0
  -25.5310  -20.5915   16.5578 C   0  0  0  0  0  0  0  0  0  0  0  0
  -25.3244  -21.9723   17.1827 C   0  0  0  0  0  0  0  0  0  0  0  0
  -28.5077  -12.1309   18.3067 C   0  0  0  0  0  0  0  0  0  0  0  0
  -27.0323  -32.7220   25.8420 C   0  0  0  0  0  0  0  0  0  0  0  0
  -25.9261  -19.6629   17.7020 C   0  0  0  0  0  0  0  0  0  0  0  0
  -25.5870  -21.8038   18.6756 C   0  0  0  0  0  0  0  0  0  0  0  0
  -28.4029  -11.5815   19.7278 C   0  0  0  0  0  0  0  0  0  0  0  0
  -29.3782  -13.3787   18.2600 C   0  0  0  0  0  0  0  0  0  0  0  0
  -29.6130  -16.9860   20.4070 C   0  0  0  0  0  0  0  0  0  0  0  0
  -28.8309  -13.9591   20.6001 C   0  0  0  0  0  0  0  0  0  0  0  0
  -27.7036  -17.9175   19.1451 C   0  0  0  0  0  0  0  0  0  0  0  0
  -29.1753  -17.6072   21.7320 C   0  0  0  0  0  0  0  0  0  0  0  0
  -27.9751  -32.2658   24.7220 C   0  0  1  0  0  0  0  0  0  0  0  0
  -25.9618  -30.2685   22.1940 C   0  0  1  0  0  0  0  0  0  0  0  0
  -26.5186  -20.5984   18.7513 C   0  0  0  0  0  0  0  0  0  0  0  0
  -28.0480  -12.6414   20.7869 C   0  0  1  0  0  0  0  0  0  0  0  0
  -27.7617  -19.0148   20.2110 C   0  0  1  0  0  0  0  0  0  0  0  0
  -25.9490  -16.2856   24.1250 C   0  0  0  0  0  0  0  0  0  0  0  0
  -18.9094  -27.2017   21.2656 C   0  0  0  0  0  0  0  0  0  0  0  0
  -29.1377  -21.5273   21.6717 C   0  0  0  0  0  0  0  0  0  0  0  0
  -23.2701  -29.2507   25.8106 C   0  0  0  0  0  0  0  0  0  0  0  0
  -21.1448  -28.0439   25.2675 C   0  0  0  0  0  0  0  0  0  0  0  0
  -21.3690  -30.4712   24.7379 C   0  0  0  0  0  0  0  0  0  0  0  0
  -21.7101  -27.2781   18.6915 C   0  0  0  0  0  0  0  0  0  0  0  0
  -26.6771  -17.5982   22.0530 C   0  0  0  0  0  0  0  0  0  0  0  0
  -26.6666  -21.0939   21.1988 C   0  0  0  0  0  0  0  0  0  0  0  0
  -27.4715  -23.4188   21.7127 C   0  0  0  0  0  0  0  0  0  1  0  0
  -22.6365  -28.7781   23.3527 C   0  0  1  0  0  0  0  0  0  0  0  0
  -20.2142  -27.6830   20.6503 C   0  0  2  0  0  0  0  0  0  0  0  0
  -26.5851  -19.9791   20.1364 C   0  0  1  0  0  0  0  0  0  0  0  0
  -27.8459  -22.0784   21.0599 C   0  0  1  0  0  0  0  0  0  0  0  0
  -22.1297  -29.1280   24.7803 C   0  0  0  0  0  0  0  0  0  0  0  0
  -25.9556  -13.8447   20.2567 N   0  0  0  0  0  0  0  0  0  0  0  0
  -26.5473  -12.8514   20.9418 N   0  0  0  0  0  0  0  0  0  0  0  0
  -24.9032  -29.3084   22.5131 N   0  0  0  0  0  0  0  0  0  0  0  0
  -28.9043  -14.3936   19.1990 N   0  0  0  0  0  0  0  0  0  0  0  0
  -28.4924  -16.7364   19.4993 N   0  0  0  0  0  0  0  0  0  0  0  0
  -26.1178  -11.0959   22.4728 N   0  0  0  0  0  0  0  0  0  0  0  0
  -22.0473  -12.9481   21.8426 N   0  0  0  0  0  0  0  0  0  0  0  0
  -27.2164  -31.8075   23.5780 N   0  0  0  0  0  0  0  0  0  0  0  0
  -21.5806  -28.6822   22.3506 N   0  0  0  0  0  0  0  0  0  0  0  0
  -27.8776  -18.3888   21.5910 N   0  3  1  0  0  0  0  0  0  0  0  0
  -20.4692  -26.8937   19.4122 N   0  3  0  0  0  0  0  0  0  0  0  0
  -23.1928  -11.3057   22.9603 O   0  0  0  0  0  0  0  0  0  0  0  0
  -26.8463  -29.6198   24.2849 O   0  0  0  0  0  0  0  0  0  0  0  0
  -27.0890  -18.3751   24.2948 O   0  0  0  0  0  0  0  0  0  0  0  0
  -23.2746  -30.9667   22.6973 O   0  0  0  0  0  0  0  0  0  0  0  0
  -22.0227  -26.4939   21.7238 O   0  0  0  0  0  0  0  0  0  0  0  0
  -27.7744  -15.6298   17.6158 O   0  0  0  0  0  0  0  0  0  0  0  0
  -20.8762  -17.2821   18.5441 O   0  0  0  0  0  0  0  0  0  0  0  0
  -28.4982  -24.3838   21.5208 O   0  0  0  0  0  0  0  0  0  1  0  0
  -17.2427  -19.4907   22.0547 F   0  0  0  0  0  0  0  0  0  0  0  0
  -19.1597  -15.6798   20.0033 F   0  0  0  0  0  0  0  0  0  0  0  0
  1  2  1  0  0  0  0
  1  5  2  0  0  0  0
  2  6  2  0  0  0  0
  3  8  2  0  0  0  0
  3 15  1  0  0  0  0
  4  9  1  0  0  0  0
  4 15  2  0  0  0  0
  5 17  1  0  0  0  0
  6 19  1  0  0  0  0
  7 10  2  0  0  0  0
  7 18  1  0  0  0  0
  8 21  1  0  0  0  0
  9 21  2  0  0  0  0
 10 22  1  0  0  0  0
 11 12  2  0  0  0  0
 11 23  1  0  0  0  0
 12 24  1  0  0  0  0
 13 20  1  0  0  0  0
 13 22  2  0  0  0  0
 14 24  2  0  0  0  0
 14 25  1  0  0  0  0
 15 26  1  0  0  0  0
 16 26  1  0  0  0  0
 16 27  2  0  0  0  0
 16 28  1  0  0  0  0
 17 19  2  0  0  0  0
 17 34  1  0  0  0  0
 18 20  2  0  0  0  0
 18 35  1  0  0  0  0
 19 50  1  0  0  0  0
 20 36  1  0  0  0  0
 21 87  1  0  0  0  0
 22 88  1  0  0  0  0
 23 25  2  0  0  0  0
 23 87  1  0  0  0  0
 24 89  1  0  0  0  0
 25 90  1  0  0  0  0
 26 70  2  0  0  0  0
 27 71  1  0  0  0  0
 27 75  1  0  0  0  0
 28 76  1  0  0  0  0
 28 81  2  0  0  0  0
 29 51  1  0  0  0  0
 29 77  1  0  0  0  0
 29 82  2  0  0  0  0
 30 55  1  0  0  0  0
 30 62  1  0  0  0  0
 30 83  2  0  0  0  0
 31 65  1  0  0  0  0
 31 72  1  0  0  0  0
 31 84  2  0  0  0  0
 32 66  1  0  0  0  0
 32 78  1  0  0  0  0
 32 85  2  0  0  0  0
 33 73  1  0  0  0  0
 33 74  1  0  0  0  0
 33 86  2  0  0  0  0
 34 37  1  0  0  0  0
 35 51  1  0  0  0  0
 36 72  1  0  0  0  0
 37 41  1  0  0  0  0
 38 39  1  0  0  0  0
 38 42  1  0  0  0  0
 39 43  1  0  0  0  0
 40 44  1  0  0  0  0
 40 45  1  0  0  0  0
 41 50  1  0  0  0  0
 42 52  1  0  0  0  0
 43 52  1  0  0  0  0
 44 53  1  0  0  0  0
 45 73  1  0  0  0  0
 46 49  1  0  0  0  0
 46 74  1  0  0  0  0
 47 53  1  0  0  0  0
 47 73  1  0  0  0  0
 48 54  1  0  0  0  0
 48 74  1  0  0  0  0
 49 79  1  0  0  0  0
 50 77  1  0  0  0  0
 51 72  1  0  0  0  0
 52 67  1  0  0  0  0
 53 71  1  0  0  0  0
 54 67  1  0  0  0  0
 54 79  1  0  0  0  0
 56 66  1  0  0  0  0
 57 68  1  0  0  0  0
 58 69  1  0  0  0  0
 59 69  1  0  0  0  0
 60 69  1  0  0  0  0
 61 80  1  0  0  0  0
 62 79  1  0  0  0  0
 63 67  1  0  0  0  0
 63 68  1  0  0  0  0
 64 68  1  0  0  0  0
 64 88  1  0  0  0  0
 65 69  1  0  0  0  0
 65 78  1  0  0  0  0
 66 80  1  0  0  0  0
 70 71  1  0  0  0  0
M  CHG  2  79   1  80   1
M  ISO  4  33 100  64 101  74 100  88 101
M  END
> <Batch ID>
0117

> <Smiles>
CNC(C)C(=O)NC(C(=O)N1Cc2cc([101O:1][101CH2:1]C(C)CC(C3CCCC3)C3C[100N:0]([100C:0](=O)N4CCCC(n5nc(-c6ccc(Oc7ccc(F)cc7F)cc6)c(C(N)=O)c5N)C4)CCN3CC(C)=O)ccc2CC1C(=O)NC1CCCc2ccccc21)C(C)(C)C

> <Shape>
0.249

> <Color>
0.062

> <Negative vol penalty>
0.000

$$$$

  -OEChem-04052320153D

 86 94  0     1  0  0  0  0  0999 V2000
  -27.6018  -37.6825   22.1586 C   0  0  0  0  0  0  0  0  0  0  0  0
  -28.2838  -36.4717   22.2240 C   0  0  0  0  0  0  0  0  0  0  0  0
  -24.0072   -9.6889   21.4263 C   0  0  0  0  0  0  0  0  0  0  0  0
  -21.9538  -10.9163   21.7642 C   0  0  0  0  0  0  0  0  0  0  0  0
  -26.3083  -37.7812   22.6697 C   0  0  0  0  0  0  0  0  0  0  0  0
  -27.6730  -35.3591   22.8015 C   0  0  0  0  0  0  0  0  0  0  0  0
  -26.7136  -29.2882   19.0445 C   0  0  0  0  0  0  0  0  0  0  0  0
  -23.2994   -8.4885   21.4849 C   0  0  0  0  0  0  0  0  0  0  0  0
  -21.2459   -9.7158   21.8227 C   0  0  0  0  0  0  0  0  0  0  0  0
  -26.6841  -28.0225   18.4586 C   0  0  0  0  0  0  0  0  0  0  0  0
  -21.9736   -6.4930   23.8692 C   0  0  0  0  0  0  0  0  0  0  0  0
  -22.5109   -5.4617   24.6393 C   0  0  0  0  0  0  0  0  0  0  0  0
  -25.5450  -27.1386   20.4000 C   0  0  0  0  0  0  0  0  0  0  0  0
  -22.6222   -4.0552   22.6781 C   0  0  0  0  0  0  0  0  0  0  0  0
  -23.3344  -10.9029   21.5660 C   0  0  0  0  0  0  0  0  0  0  0  0
  -24.3377  -12.9149   20.3606 C   0  0  0  0  0  0  0  0  0  0  0  0
  -25.6778  -36.6667   23.2450 C   0  0  0  0  0  0  0  0  0  0  0  0
  -26.1445  -29.4875   20.3054 C   0  0  0  0  0  0  0  0  0  0  0  0
  -26.3704  -35.4433   23.3219 C   0  0  0  0  0  0  0  0  0  0  0  0
  -25.5604  -28.4068   20.9866 C   0  0  0  0  0  0  0  0  0  0  0  0
  -21.9187   -8.5019   21.6831 C   0  0  0  0  0  0  0  0  0  0  0  0
  -26.1015  -26.9503   19.1348 C   0  0  0  0  0  0  0  0  0  0  0  0
  -21.7605   -6.3055   22.5035 C   0  0  0  0  0  0  0  0  0  0  0  0
  -22.8352   -4.2427   24.0438 C   0  0  0  0  0  0  0  0  0  0  0  0
  -22.0848   -5.0866   21.9079 C   0  0  0  0  0  0  0  0  0  0  0  0
  -24.0652  -12.1432   21.5061 C   0  0  0  0  0  0  0  0  0  0  0  0
  -25.0551  -13.9872   20.8317 C   0  0  0  0  0  0  0  0  0  0  0  0
  -23.9747  -12.6832   18.9931 C   0  0  0  0  0  0  0  0  0  0  0  0
  -25.3578  -31.8987   23.0699 C   0  0  0  0  0  0  0  0  0  0  0  0
  -22.9149  -30.0692   22.7613 C   0  0  0  0  0  0  0  0  0  0  0  0
  -20.2749  -28.1242   21.8207 C   0  0  0  0  0  0  0  0  0  0  0  0
  -26.0179  -17.9708   24.4614 C   0  0  0  0  0  0  0  0  0  0  0  0
  -24.2964  -36.8342   23.8267 C   0  0  0  0  0  0  0  0  0  0  0  0
  -26.2080  -30.8201   21.0010 C   0  0  0  0  0  0  0  0  0  0  0  0
  -24.9913  -28.6605   22.3557 C   0  0  0  0  0  0  0  0  0  0  0  0
  -23.5797  -35.5113   24.0846 C   0  0  0  0  0  0  0  0  0  0  0  0
  -27.1595  -14.8295   25.3463 C   0  0  0  0  0  0  0  0  0  0  0  0
  -24.5103  -34.5281   24.7875 C   0  0  0  0  0  0  0  0  0  0  0  0
  -26.4858  -13.9008   24.3361 C   0  0  0  0  0  0  0  0  0  0  0  0
  -25.9050  -19.6690   21.1706 C   0  0  0  0  0  0  0  0  0  0  0  0
  -23.6431  -18.6687   21.6524 C   0  0  0  0  0  0  0  0  0  0  0  0
  -26.1949  -15.9095   25.8227 C   0  0  0  0  0  0  0  0  0  0  0  0
  -26.2103  -19.6522   22.6658 C   0  0  0  0  0  0  0  0  0  0  0  0
  -23.9886  -18.6759   23.1379 C   0  0  0  0  0  0  0  0  0  0  0  0
  -24.9322  -15.8109   23.6987 C   0  0  0  0  0  0  0  0  0  0  0  0
  -25.7323  -34.2075   23.9184 C   0  0  1  0  0  0  0  0  0  0  0  0
  -24.9606  -31.1162   21.8528 C   0  0  1  0  0  0  0  0  0  0  0  0
  -24.3984  -19.7726   20.9001 C   0  0  0  0  0  0  0  0  0  0  0  0
  -25.8671  -14.7015   23.1765 C   0  0  2  0  0  0  0  0  0  0  0  0
  -17.8861  -27.6277   22.4079 C   0  0  0  0  0  0  0  0  0  0  0  0
  -22.2070  -19.6520   17.6534 C   0  0  0  0  0  0  0  0  0  0  0  0
  -23.8478  -28.4523   25.1736 C   0  0  0  0  0  0  0  0  0  0  0  0
  -21.6486  -27.2566   25.1334 C   0  0  0  0  0  0  0  0  0  0  0  0
  -21.7204  -29.7190   25.5258 C   0  0  0  0  0  0  0  0  0  0  0  0
  -19.3189  -28.9881   19.1564 C   0  0  0  0  0  0  0  0  0  0  0  0
  -24.8478  -20.8266   18.6293 C   0  0  0  0  0  0  0  0  0  0  0  0
  -24.8130  -22.2173   19.2841 C   0  0  0  0  0  0  0  0  0  0  0  0
  -24.8673  -23.5816   17.0850 C   0  0  0  0  0  0  0  0  0  0  0  0
  -25.4622  -24.6640   19.2986 C   0  0  0  0  0  0  0  0  0  1  0  0
  -22.2066  -28.8176   23.2143 C   0  0  1  0  0  0  0  0  0  0  0  0
  -18.8207  -28.4633   21.5470 C   0  0  2  0  0  0  0  0  0  0  0  0
  -24.1086  -19.7056   19.4026 C   0  0  2  0  0  0  0  0  0  0  0  0
  -25.4727  -23.3618   18.4788 C   0  0  1  0  0  0  0  0  0  0  0  0
  -22.5791  -19.6799   19.1321 C   0  0  1  0  0  0  0  0  0  0  0  0
  -22.3727  -28.5614   24.7388 C   0  0  0  0  0  0  0  0  0  0  0  0
  -24.5686  -12.6796   22.6209 N   0  0  0  0  0  0  0  0  0  0  0  0
  -25.1648  -13.7998   22.1782 N   0  0  0  0  0  0  0  0  0  0  0  0
  -24.2505  -29.9316   22.3643 N   0  0  0  0  0  0  0  0  0  0  0  0
  -25.6259  -16.6436   24.6926 N   0  0  0  0  0  0  0  0  0  0  0  0
  -25.4400  -18.6199   23.3578 N   0  0  0  0  0  0  0  0  0  0  0  0
  -25.5967  -15.0627   20.2214 N   0  0  0  0  0  0  0  0  0  0  0  0
  -23.2369  -11.5325   18.6834 N   0  0  0  0  0  0  0  0  0  0  0  0
  -25.3790  -33.2669   22.8769 N   0  0  0  0  0  0  0  0  0  0  0  0
  -20.8208  -28.9523   22.7785 N   0  0  0  0  0  0  0  0  0  0  0  0
  -23.4323  -23.9458   17.1547 N   0  3  0  0  0  0  0  0  0  0  0  0
  -21.9036  -20.8534   19.7539 N   0  3  0  0  0  0  0  0  0  0  0  0
  -18.4909  -28.2124   20.1154 N   0  3  0  0  0  0  0  0  0  0  0  0
  -24.3092  -13.4646   18.0706 O   0  0  0  0  0  0  0  0  0  0  0  0
  -25.6241  -31.3061   24.1089 O   0  0  0  0  0  0  0  0  0  0  0  0
  -22.3046  -31.1420   22.7638 O   0  0  0  0  0  0  0  0  0  0  0  0
  -20.8662  -27.2133   21.2453 O   0  0  0  0  0  0  0  0  0  0  0  0
  -26.8373  -18.5419   25.1918 O   0  0  0  0  0  0  0  0  0  0  0  0
  -21.2277   -7.3307   21.7401 O   0  0  0  0  0  0  0  0  0  0  0  0
  -26.0720  -25.7100   18.5512 O   0  0  0  0  0  0  0  0  0  1  0  0
  -23.3526   -3.2529   24.7832 F   0  0  0  0  0  0  0  0  0  0  0  0
  -21.8835   -4.9009   20.5961 F   0  0  0  0  0  0  0  0  0  0  0  0
  1  2  1  0  0  0  0
  1  5  2  0  0  0  0
  2  6  2  0  0  0  0
  3  8  2  0  0  0  0
  3 15  1  0  0  0  0
  4  9  1  0  0  0  0
  4 15  2  0  0  0  0
  5 17  1  0  0  0  0
  6 19  1  0  0  0  0
  7 10  2  0  0  0  0
  7 18  1  0  0  0  0
  8 21  1  0  0  0  0
  9 21  2  0  0  0  0
 10 22  1  0  0  0  0
 11 12  2  0  0  0  0
 11 23  1  0  0  0  0
 12 24  1  0  0  0  0
 13 20  1  0  0  0  0
 13 22  2  0  0  0  0
 14 24  2  0  0  0  0
 14 25  1  0  0  0  0
 15 26  1  0  0  0  0
 16 26  1  0  0  0  0
 16 27  2  0  0  0  0
 16 28  1  0  0  0  0
 17 19  2  0  0  0  0
 17 33  1  0  0  0  0
 18 20  2  0  0  0  0
 18 34  1  0  0  0  0
 19 46  1  0  0  0  0
 20 35  1  0  0  0  0
 21 83  1  0  0  0  0
 22 84  1  0  0  0  0
 23 25  2  0  0  0  0
 23 83  1  0  0  0  0
 24 85  1  0  0  0  0
 25 86  1  0  0  0  0
 26 66  2  0  0  0  0
 27 67  1  0  0  0  0
 27 71  1  0  0  0  0
 28 72  1  0  0  0  0
 28 78  2  0  0  0  0
 29 47  1  0  0  0  0
 29 73  1  0  0  0  0
 29 79  2  0  0  0  0
 30 60  1  0  0  0  0
 30 68  1  0  0  0  0
 30 80  2  0  0  0  0
 31 61  1  0  0  0  0
 31 74  1  0  0  0  0
 31 81  2  0  0  0  0
 32 69  1  0  0  0  0
 32 70  1  0  0  0  0
 32 82  2  0  0  0  0
 33 36  1  0  0  0  0
 34 47  1  0  0  0  0
 35 68  1  0  0  0  0
 36 38  1  0  0  0  0
 37 39  1  0  0  0  0
 37 42  1  0  0  0  0
 38 46  1  0  0  0  0
 39 49  1  0  0  0  0
 40 43  1  0  0  0  0
 40 48  1  0  0  0  0
 41 44  1  0  0  0  0
 41 48  1  0  0  0  0
 42 69  1  0  0  0  0
 43 70  1  0  0  0  0
 44 70  1  0  0  0  0
 45 49  1  0  0  0  0
 45 69  1  0  0  0  0
 46 73  1  0  0  0  0
 47 68  1  0  0  0  0
 48 62  1  0  0  0  0
 49 67  1  0  0  0  0
 50 61  1  0  0  0  0
 51 64  1  0  0  0  0
 52 65  1  0  0  0  0
 53 65  1  0  0  0  0
 54 65  1  0  0  0  0
 55 77  1  0  0  0  0
 56 57  1  0  0  0  0
 56 62  1  0  0  0  0
 57 63  1  0  0  0  0
 58 63  1  0  0  0  0
 58 75  1  0  0  0  0
 59 63  1  0  0  0  0
 59 84  1  0  0  0  0
 60 65  1  0  0  0  0
 60 74  1  0  0  0  0
 61 77  1  0  0  0  0
 62 64  1  0  0  0  0
 64 76  1  0  0  0  0
 66 67  1  0  0  0  0
M  CHG  3  75   1  76   1  77   1
M  ISO  4  32 100  59 101  70 100  84 101
M  END
> <Batch ID>
0117

> <Smiles>
CNC(C)C(=O)NC(C(=O)N1Cc2cc([101O:1][101CH2:1]C(CN)CCC(C(C)N)C3CC[100N:0]([100C:0](=O)N4CCCC(n5nc(-c6ccc(Oc7ccc(F)cc7F)cc6)c(C(N)=O)c5N)C4)CC3)ccc2CC1C(=O)NC1CCCc2ccccc21)C(C)(C)C

> <Shape>
0.249

> <Color>
0.111

> <Negative vol penalty>
0.000

$$$$

  -OEChem-04052320153D

 85 93  0     1  0  0  0  0  0999 V2000
  -27.0572  -19.5414   15.7132 C   0  0  0  0  0  0  0  0  0  0  0  0
  -27.1982  -18.3652   16.4427 C   0  0  0  0  0  0  0  0  0  0  0  0
  -26.6829  -28.2537   19.0381 C   0  0  0  0  0  0  0  0  0  0  0  0
  -26.5286  -27.0296   21.1153 C   0  0  0  0  0  0  0  0  0  0  0  0
  -26.5803  -20.6938   16.3362 C   0  0  0  0  0  0  0  0  0  0  0  0
  -26.8632  -18.3411   17.7961 C   0  0  0  0  0  0  0  0  0  0  0  0
  -24.1638  -14.2462   19.0568 C   0  0  0  0  0  0  0  0  0  0  0  0
  -25.4588  -28.8656   19.3077 C   0  0  0  0  0  0  0  0  0  0  0  0
  -25.3044  -27.6415   21.3849 C   0  0  0  0  0  0  0  0  0  0  0  0
  -24.8599  -13.0487   19.2152 C   0  0  0  0  0  0  0  0  0  0  0  0
  -22.0817  -27.2973   20.4225 C   0  0  0  0  0  0  0  0  0  0  0  0
  -29.7961  -18.3246   22.6602 C   0  0  0  0  0  0  0  0  0  0  0  0
  -21.0417  -26.4905   20.8841 C   0  0  0  0  0  0  0  0  0  0  0  0
  -29.6278  -19.4130   21.8113 C   0  0  0  0  0  0  0  0  0  0  0  0
  -24.8256  -13.3523   21.6081 C   0  0  0  0  0  0  0  0  0  0  0  0
  -20.9243  -27.8014   22.9102 C   0  0  0  0  0  0  0  0  0  0  0  0
  -30.5272  -17.0470   20.7921 C   0  0  0  0  0  0  0  0  0  0  0  0
  -27.2178  -27.3356   19.9419 C   0  0  0  0  0  0  0  0  0  0  0  0
  -29.7614  -27.1622   20.0297 C   0  0  0  0  0  0  0  0  0  0  0  0
  -26.2301  -20.6814   17.6956 C   0  0  0  0  0  0  0  0  0  0  0  0
  -23.8023  -15.0125   20.1742 C   0  0  0  0  0  0  0  0  0  0  0  0
  -26.3823  -19.4949   18.4382 C   0  0  0  0  0  0  0  0  0  0  0  0
  -24.1227  -14.5579   21.4613 C   0  0  0  0  0  0  0  0  0  0  0  0
  -24.7695  -28.5595   20.4811 C   0  0  0  0  0  0  0  0  0  0  0  0
  -25.1935  -12.6030   20.4908 C   0  0  0  0  0  0  0  0  0  0  0  0
  -30.2540  -17.1155   22.1487 C   0  0  0  0  0  0  0  0  0  0  0  0
  -22.5430  -28.3560   21.2047 C   0  0  0  0  0  0  0  0  0  0  0  0
  -20.4629  -26.7426   22.1280 C   0  0  0  0  0  0  0  0  0  0  0  0
  -21.9643  -28.6081   22.4486 C   0  0  0  0  0  0  0  0  0  0  0  0
  -28.4820  -26.7028   19.6637 C   0  0  0  0  0  0  0  0  0  0  0  0
  -29.9292  -19.2417   20.4698 C   0  0  0  0  0  0  0  0  0  0  0  0
  -30.6217  -26.2126   19.5350 C   0  0  0  0  0  0  0  0  0  0  0  0
  -30.1384  -28.3417   20.7524 C   0  0  0  0  0  0  0  0  0  0  0  0
  -24.4943  -17.9381   21.2067 C   0  0  0  0  0  0  0  0  0  0  0  0
  -22.2821  -17.2393   23.4739 C   0  0  0  0  0  0  0  0  0  0  0  0
  -20.6028  -14.8543   25.2455 C   0  0  0  0  0  0  0  0  0  0  0  0
  -29.9934  -20.4131   18.2405 C   0  0  0  0  0  0  0  0  0  0  0  0
  -25.7636  -21.9643   18.3369 C   0  0  0  0  0  0  0  0  0  0  0  0
  -23.0282  -16.2886   19.9878 C   0  0  0  0  0  0  0  0  0  0  0  0
  -23.7399  -15.3334   22.6944 C   0  0  0  0  0  0  0  0  0  0  0  0
  -25.0766  -21.7570   19.6842 C   0  0  0  0  0  0  0  0  0  0  0  0
  -31.0211  -22.9931   16.0124 C   0  0  0  0  0  0  0  0  0  0  0  0
  -25.8882  -20.8045   20.5564 C   0  0  0  0  0  0  0  0  0  0  0  0
  -30.6085  -24.2792   16.7319 C   0  0  0  0  0  0  0  0  0  0  0  0
  -30.0065  -21.8717   16.2287 C   0  0  0  0  0  0  0  0  0  0  0  0
  -29.2677  -22.8782   18.3525 C   0  0  0  0  0  0  0  0  0  0  0  0
  -26.0061  -19.4225   19.9022 C   0  0  1  0  0  0  0  0  0  0  0  0
  -23.1612  -17.2460   21.1681 C   0  0  1  0  0  0  0  0  0  0  0  0
  -30.2915  -24.0171   18.2173 C   0  0  2  0  0  0  0  0  0  0  0  0
  -18.8844  -14.5897   27.0550 C   0  0  0  0  0  0  0  0  0  0  0  0
  -27.1501  -10.2307   18.9954 C   0  0  0  0  0  0  0  0  0  0  0  0
  -24.3745  -17.9828   25.5665 C   0  0  0  0  0  0  0  0  0  0  0  0
  -22.9715  -16.8179   27.2820 C   0  0  0  0  0  0  0  0  0  0  0  0
  -22.0637  -18.7980   26.0664 C   0  0  0  0  0  0  0  0  0  0  0  0
  -18.7552  -13.4103   23.4400 C   0  0  0  0  0  0  0  0  0  0  0  0
  -29.7693  -13.7726   23.4323 C   0  0  0  0  0  0  0  0  0  0  0  0
  -29.5450  -12.3863   22.8529 C   0  0  0  0  0  0  0  0  0  0  0  0
  -28.2143  -11.1722   21.1227 C   0  0  0  0  0  0  0  0  0  0  0  0
  -30.2515  -14.7474   22.3677 C   0  0  0  0  0  0  0  0  0  0  0  0
  -22.3176  -16.6010   24.8414 C   0  0  1  0  0  0  0  0  0  0  0  0
  -19.1269  -14.6833   25.5566 C   0  0  2  0  0  0  0  0  0  0  0  0
  -27.1588  -11.3438   20.0351 C   0  0  2  0  0  0  0  0  0  1  0  0
  -22.9409  -17.5361   25.9159 C   0  0  0  0  0  0  0  0  0  0  0  0
  -30.3761  -18.0826   19.9364 N   0  0  0  0  0  0  0  0  0  0  0  0
  -28.5214  -25.5511   18.9884 N   0  0  0  0  0  0  0  0  0  0  0  0
  -29.8359  -25.2788   18.9262 N   0  0  0  0  0  0  0  0  0  0  0  0
  -22.9893  -16.5780   22.4598 N   0  0  0  0  0  0  0  0  0  0  0  0
  -29.7591  -21.6772   17.6590 N   0  0  0  0  0  0  0  0  0  0  0  0
  -31.9661  -26.0938   19.5657 N   0  0  0  0  0  0  0  0  0  0  0  0
  -29.1281  -29.2099   21.1881 N   0  0  0  0  0  0  0  0  0  0  0  0
  -29.7544  -20.3567   19.6132 N   0  0  0  0  0  0  0  0  0  0  0  0
  -24.7782  -18.6759   20.0734 N   0  0  0  0  0  0  0  0  0  0  0  0
  -20.9503  -16.1839   25.1329 N   0  0  0  0  0  0  0  0  0  0  0  0
  -18.6031  -13.4431   24.9174 N   0  3  0  0  0  0  0  0  0  0  0  0
  -28.4851  -12.4589   21.8109 N   0  3  0  0  0  0  0  0  0  0  0  0
  -31.3369  -28.6261   20.9900 O   0  0  0  0  0  0  0  0  0  0  0  0
  -25.2116  -17.8131   22.1924 O   0  0  0  0  0  0  0  0  0  0  0  0
  -21.6442  -18.2823   23.3097 O   0  0  0  0  0  0  0  0  0  0  0  0
  -21.3715  -13.9037   25.1191 O   0  0  0  0  0  0  0  0  0  0  0  0
  -30.4037  -19.4587   17.5751 O   0  0  0  0  0  0  0  0  0  0  0  0
  -23.5751  -29.1565   20.7446 O   0  0  0  0  0  0  0  0  0  0  0  0
  -30.4298  -16.0259   22.9616 O   0  0  0  0  0  0  0  0  0  0  0  0
  -25.8735  -11.4348   20.6483 O   0  0  0  0  0  0  0  0  0  1  0  0
  -19.4632  -25.9687   22.5705 F   0  0  0  0  0  0  0  0  0  0  0  0
  -22.4025  -29.6245   23.2040 F   0  0  0  0  0  0  0  0  0  0  0  0
  1  2  1  0  0  0  0
  1  5  2  0  0  0  0
  2  6  2  0  0  0  0
  3  8  2  0  0  0  0
  3 18  1  0  0  0  0
  4  9  1  0  0  0  0
  4 18  2  0  0  0  0
  5 20  1  0  0  0  0
  6 22  1  0  0  0  0
  7 10  2  0  0  0  0
  7 21  1  0  0  0  0
  8 24  1  0  0  0  0
  9 24  2  0  0  0  0
 10 25  1  0  0  0  0
 11 13  2  0  0  0  0
 11 27  1  0  0  0  0
 12 14  2  0  0  0  0
 12 26  1  0  0  0  0
 13 28  1  0  0  0  0
 14 31  1  0  0  0  0
 15 23  1  0  0  0  0
 15 25  2  0  0  0  0
 16 28  2  0  0  0  0
 16 29  1  0  0  0  0
 17 26  2  0  0  0  0
 17 64  1  0  0  0  0
 18 30  1  0  0  0  0
 19 30  1  0  0  0  0
 19 32  2  0  0  0  0
 19 33  1  0  0  0  0
 20 22  2  0  0  0  0
 20 38  1  0  0  0  0
 21 23  2  0  0  0  0
 21 39  1  0  0  0  0
 22 47  1  0  0  0  0
 23 40  1  0  0  0  0
 24 81  1  0  0  0  0
 25 83  1  0  0  0  0
 26 82  1  0  0  0  0
 27 29  2  0  0  0  0
 27 81  1  0  0  0  0
 28 84  1  0  0  0  0
 29 85  1  0  0  0  0
 30 65  2  0  0  0  0
 31 64  2  0  0  0  0
 31 71  1  0  0  0  0
 32 66  1  0  0  0  0
 32 69  1  0  0  0  0
 33 70  1  0  0  0  0
 33 76  2  0  0  0  0
 34 48  1  0  0  0  0
 34 72  1  0  0  0  0
 34 77  2  0  0  0  0
 35 60  1  0  0  0  0
 35 67  1  0  0  0  0
 35 78  2  0  0  0  0
 36 61  1  0  0  0  0
 36 73  1  0  0  0  0
 36 79  2  0  0  0  0
 37 68  1  0  0  0  0
 37 71  1  0  0  0  0
 37 80  2  0  0  0  0
 38 41  1  0  0  0  0
 39 48  1  0  0  0  0
 40 67  1  0  0  0  0
 41 43  1  0  0  0  0
 42 44  1  0  0  0  0
 42 45  1  0  0  0  0
 43 47  1  0  0  0  0
 44 49  1  0  0  0  0
 45 68  1  0  0  0  0
 46 49  1  0  0  0  0
 46 68  1  0  0  0  0
 47 72  1  0  0  0  0
 48 67  1  0  0  0  0
 49 66  1  0  0  0  0
 50 61  1  0  0  0  0
 51 62  1  0  0  0  0
 52 63  1  0  0  0  0
 53 63  1  0  0  0  0
 54 63  1  0  0  0  0
 55 74  1  0  0  0  0
 56 57  1  0  0  0  0
 56 59  1  0  0  0  0
 57 75  1  0  0  0  0
 58 62  1  0  0  0  0
 58 75  1  0  0  0  0
 59 82  1  0  0  0  0
 60 63  1  0  0  0  0
 60 73  1  0  0  0  0
 61 74  1  0  0  0  0
 62 83  1  0  0  0  0
 65 66  1  0  0  0  0
M  CHG  2  74   1  75   1
M  ISO  4  37 100  62 101  71 100  83 101
M  END
> <Batch ID>
0117

> <Smiles>
CNC(C)C(=O)NC(C(=O)N1Cc2cc([101O:1][101CH:1](C)CNCCCOc3ccc([100NH:0][100C:0](=O)N4CCCC(n5nc(-c6ccc(Oc7ccc(F)cc7F)cc6)c(C(N)=O)c5N)C4)nc3)ccc2CC1C(=O)NC1CCCc2ccccc21)C(C)(C)C

> <Shape>
0.223

> <Color>
0.056

> <Negative vol penalty>
0.000

$$$$

  -OEChem-04052320153D

 87 96  0     1  0  0  0  0  0999 V2000
  -18.2885   -9.3337   20.5146 C   0  0  0  0  0  0  0  0  0  0  0  0
  -18.3459  -10.6803   20.1698 C   0  0  0  0  0  0  0  0  0  0  0  0
  -24.0488  -30.9843   22.8681 C   0  0  0  0  0  0  0  0  0  0  0  0
  -23.9203  -28.8091   23.9116 C   0  0  0  0  0  0  0  0  0  0  0  0
  -19.1517   -8.8263   21.4848 C   0  0  0  0  0  0  0  0  0  0  0  0
  -19.2659  -11.5206   20.7960 C   0  0  0  0  0  0  0  0  0  0  0  0
  -23.3436  -17.2707   19.5216 C   0  0  0  0  0  0  0  0  0  0  0  0
  -22.6586  -31.0882   22.9133 C   0  0  0  0  0  0  0  0  0  0  0  0
  -22.5300  -28.9130   23.9569 C   0  0  0  0  0  0  0  0  0  0  0  0
  -23.6213  -18.5320   20.0467 C   0  0  0  0  0  0  0  0  0  0  0  0
  -18.9259  -28.4482   24.0203 C   0  0  0  0  0  0  0  0  0  0  0  0
  -18.1796  -27.3352   23.6333 C   0  0  0  0  0  0  0  0  0  0  0  0
  -25.1165  -17.5280   21.6515 C   0  0  0  0  0  0  0  0  0  0  0  0
  -25.3358  -24.5802   22.9174 C   0  0  0  0  0  0  0  0  0  0  0  0
  -25.9119  -22.6066   21.6694 C   0  0  0  0  0  0  0  0  0  0  0  0
  -19.1853  -27.4241   21.4383 C   0  0  0  0  0  0  0  0  0  0  0  0
  -24.6797  -29.8447   23.3671 C   0  0  0  0  0  0  0  0  0  0  0  0
  -27.0323  -30.1540   24.3037 C   0  0  0  0  0  0  0  0  0  0  0  0
  -20.0892   -9.6587   22.1163 C   0  0  0  0  0  0  0  0  0  0  0  0
  -23.9430  -16.1256   20.0655 C   0  0  0  0  0  0  0  0  0  0  0  0
  -20.1415  -11.0241   21.7766 C   0  0  0  0  0  0  0  0  0  0  0  0
  -24.8468  -16.2536   21.1298 C   0  0  0  0  0  0  0  0  0  0  0  0
  -26.2945  -23.7869   22.2970 C   0  0  0  0  0  0  0  0  0  0  0  0
  -21.8992  -30.0526   23.4577 C   0  0  0  0  0  0  0  0  0  0  0  0
  -24.5056  -18.6606   21.1137 C   0  0  0  0  0  0  0  0  0  0  0  0
  -19.8018  -29.0493   23.1163 C   0  0  0  0  0  0  0  0  0  0  0  0
  -18.3093  -26.8231   22.3423 C   0  0  0  0  0  0  0  0  0  0  0  0
  -19.9315  -28.5372   21.8253 C   0  0  0  0  0  0  0  0  0  0  0  0
  -26.1157  -29.7365   23.3202 C   0  0  0  0  0  0  0  0  0  0  0  0
  -24.0184  -24.1524   22.8823 C   0  0  0  0  0  0  0  0  0  0  0  0
  -24.5688  -22.2670   21.6903 C   0  0  0  0  0  0  0  0  0  0  0  0
  -28.2627  -29.8317   23.7854 C   0  0  0  0  0  0  0  0  0  0  0  0
  -26.7929  -30.7773   25.5725 C   0  0  0  0  0  0  0  0  0  0  0  0
  -22.8714  -13.4987   21.4989 C   0  0  0  0  0  0  0  0  0  0  0  0
  -25.9863  -12.6084   21.3351 C   0  0  0  0  0  0  0  0  0  0  0  0
  -29.2591  -13.5465   21.0989 C   0  0  0  0  0  0  0  0  0  0  0  0
  -30.1591  -25.8190   19.9235 C   0  0  0  0  0  0  0  0  0  0  0  0
  -20.9693   -9.0749   23.1930 C   0  0  0  0  0  0  0  0  0  0  0  0
  -23.6535  -14.7749   19.4702 C   0  0  0  0  0  0  0  0  0  0  0  0
  -25.5322  -15.0575   21.7364 C   0  0  0  0  0  0  0  0  0  0  0  0
  -22.1696   -9.9517   23.5405 C   0  0  0  0  0  0  0  0  0  0  0  0
  -30.5537  -29.2555   19.6298 C   0  0  0  0  0  0  0  0  0  0  0  0
  -21.7372  -11.4041   23.7144 C   0  0  0  0  0  0  0  0  0  0  0  0
  -29.5511  -29.8253   20.6330 C   0  0  0  0  0  0  0  0  0  0  0  0
  -30.1524  -23.6562   22.9216 C   0  0  0  0  0  0  0  0  0  0  0  0
  -29.9652  -28.0608   18.8878 C   0  0  0  0  0  0  0  0  0  0  0  0
  -30.5736  -23.9506   21.4844 C   0  0  0  0  0  0  0  0  0  0  0  0
  -28.2375  -24.4751   20.8669 C   0  0  0  0  0  0  0  0  0  0  0  0
  -28.4926  -27.5195   20.8000 C   0  0  0  0  0  0  0  0  0  0  0  0
  -27.7543  -24.2086   22.3040 C   0  0  2  0  0  0  0  0  0  0  0  0
  -21.1425  -11.9620   22.4157 C   0  0  1  0  0  0  0  0  0  0  0  0
  -23.9257  -13.6256   20.4359 C   0  0  1  0  0  0  0  0  0  0  0  0
  -29.0401  -28.7288   21.5837 C   0  0  2  0  0  0  0  0  0  0  0  0
  -28.6943  -23.1969   22.9920 C   0  0  2  0  0  0  0  0  0  0  0  0
  -22.9623  -24.9792   23.5363 C   0  0  0  0  0  0  0  0  0  0  0  0
  -31.5804  -12.5960   21.0260 C   0  0  0  0  0  0  0  0  0  0  0  0
  -25.8678  -12.0950   24.3405 C   0  0  0  0  0  0  0  0  0  0  0  0
  -28.3713  -12.0803   24.3662 C   0  0  0  0  0  0  0  0  0  0  0  0
  -27.1294  -10.3734   23.0370 C   0  0  0  0  0  0  0  0  0  0  0  0
  -29.7634  -14.6789   18.4114 C   0  0  0  0  0  0  0  0  0  0  0  0
  -28.7404  -21.7261   25.0007 C   0  0  0  0  0  0  0  0  0  0  0  0
  -28.8230  -24.2005   25.2675 C   0  0  0  0  0  0  0  0  0  0  0  0
  -24.1230  -21.0062   21.0282 C   0  0  0  0  0  0  0  0  0  1  0  0
  -27.1923  -12.7682   22.2290 C   0  0  1  0  0  0  0  0  0  0  0  0
  -30.3853  -13.0571   20.2064 C   0  0  2  0  0  0  0  0  0  0  0  0
  -27.1259  -11.8518   23.4832 C   0  0  0  0  0  0  0  0  0  0  0  0
  -26.7128  -29.1908   22.2573 N   0  0  0  0  0  0  0  0  0  0  0  0
  -23.6087  -23.0121   22.2826 N   0  0  0  0  0  0  0  0  0  0  0  0
  -28.0179  -29.2632   22.5700 N   0  0  0  0  0  0  0  0  0  0  0  0
  -25.2117  -13.7578   21.1236 N   0  0  0  0  0  0  0  0  0  0  0  0
  -29.4818  -27.0437   19.8216 N   0  0  0  0  0  0  0  0  0  0  0  0
  -29.6499  -24.8840   20.8399 N   0  0  0  0  0  0  0  0  0  0  0  0
  -29.5194  -29.9819   24.2551 N   0  0  0  0  0  0  0  0  0  0  0  0
  -25.4684  -31.0375   25.9498 N   0  0  0  0  0  0  0  0  0  0  0  0
  -22.1951  -12.2938   21.4795 N   0  0  0  0  0  0  0  0  0  0  0  0
  -28.3597  -12.5410   21.3840 N   0  0  0  0  0  0  0  0  0  0  0  0
  -30.8336  -14.1466   19.2936 N   0  3  0  0  0  0  0  0  0  0  0  0
  -28.3209  -23.0548   24.4285 N   0  3  0  0  0  0  0  0  0  0  0  0
  -27.7268  -31.1092   26.3415 O   0  0  0  0  0  0  0  0  0  0  0  0
  -22.6862  -14.4247   22.2798 O   0  0  0  0  0  0  0  0  0  0  0  0
  -25.7447  -11.5061   20.8369 O   0  0  0  0  0  0  0  0  0  0  0  0
  -29.1866  -14.7040   21.5057 O   0  0  0  0  0  0  0  0  0  0  0  0
  -31.1612  -25.5742   19.2401 O   0  0  0  0  0  0  0  0  0  0  0  0
  -20.5426  -30.1538   23.5023 O   0  0  0  0  0  0  0  0  0  0  0  0
  -24.7798  -19.8990   21.6323 O   0  0  0  0  0  0  0  0  0  1  0  0
  -17.5937  -25.7533   21.9713 F   0  0  0  0  0  0  0  0  0  0  0  0
  -20.7723  -29.1096   20.9528 F   0  0  0  0  0  0  0  0  0  0  0  0
  1  2  1  0  0  0  0
  1  5  2  0  0  0  0
  2  6  2  0  0  0  0
  3  8  2  0  0  0  0
  3 17  1  0  0  0  0
  4  9  1  0  0  0  0
  4 17  2  0  0  0  0
  5 19  1  0  0  0  0
  6 21  1  0  0  0  0
  7 10  2  0  0  0  0
  7 20  1  0  0  0  0
  8 24  1  0  0  0  0
  9 24  2  0  0  0  0
 10 25  1  0  0  0  0
 11 12  2  0  0  0  0
 11 26  1  0  0  0  0
 12 27  1  0  0  0  0
 13 22  1  0  0  0  0
 13 25  2  0  0  0  0
 14 23  1  0  0  0  0
 14 30  2  0  0  0  0
 15 23  2  0  0  0  0
 15 31  1  0  0  0  0
 16 27  2  0  0  0  0
 16 28  1  0  0  0  0
 17 29  1  0  0  0  0
 18 29  1  0  0  0  0
 18 32  2  0  0  0  0
 18 33  1  0  0  0  0
 19 21  2  0  0  0  0
 19 38  1  0  0  0  0
 20 22  2  0  0  0  0
 20 39  1  0  0  0  0
 21 51  1  0  0  0  0
 22 40  1  0  0  0  0
 23 50  1  0  0  0  0
 24 84  1  0  0  0  0
 25 85  1  0  0  0  0
 26 28  2  0  0  0  0
 26 84  1  0  0  0  0
 27 86  1  0  0  0  0
 28 87  1  0  0  0  0
 29 67  2  0  0  0  0
 30 55  1  0  0  0  0
 30 68  1  0  0  0  0
 31 63  1  0  0  0  0
 31 68  2  0  0  0  0
 32 69  1  0  0  0  0
 32 73  1  0  0  0  0
 33 74  1  0  0  0  0
 33 79  2  0  0  0  0
 34 52  1  0  0  0  0
 34 75  1  0  0  0  0
 34 80  2  0  0  0  0
 35 64  1  0  0  0  0
 35 70  1  0  0  0  0
 35 81  2  0  0  0  0
 36 65  1  0  0  0  0
 36 76  1  0  0  0  0
 36 82  2  0  0  0  0
 37 71  1  0  0  0  0
 37 72  1  0  0  0  0
 37 83  2  0  0  0  0
 38 41  1  0  0  0  0
 39 52  1  0  0  0  0
 40 70  1  0  0  0  0
 41 43  1  0  0  0  0
 42 44  1  0  0  0  0
 42 46  1  0  0  0  0
 43 51  1  0  0  0  0
 44 53  1  0  0  0  0
 45 47  1  0  0  0  0
 45 54  1  0  0  0  0
 46 71  1  0  0  0  0
 47 72  1  0  0  0  0
 48 50  1  0  0  0  0
 48 72  1  0  0  0  0
 49 53  1  0  0  0  0
 49 71  1  0  0  0  0
 50 54  1  0  0  0  0
 51 75  1  0  0  0  0
 52 70  1  0  0  0  0
 53 69  1  0  0  0  0
 54 78  1  0  0  0  0
 56 65  1  0  0  0  0
 57 66  1  0  0  0  0
 58 66  1  0  0  0  0
 59 66  1  0  0  0  0
 60 77  1  0  0  0  0
 61 78  1  0  0  0  0
 62 78  1  0  0  0  0
 63 85  1  0  0  0  0
 64 66  1  0  0  0  0
 64 76  1  0  0  0  0
 65 77  1  0  0  0  0
 67 69  1  0  0  0  0
M  CHG  2  77   1  78   1
M  ISO  4  37 100  63 101  72 100  85 101
M  END
> <Batch ID>
0117

> <Smiles>
CNC(C)C(=O)NC(C(=O)N1Cc2cc([101O:1][101CH2:1]c3cc(C4C[100N:0]([100C:0](=O)N5CCCC(n6nc(-c7ccc(Oc8ccc(F)cc8F)cc7)c(C(N)=O)c6N)C5)CCC4N(C)C)cc(C)n3)ccc2CC1C(=O)NC1CCCc2ccccc21)C(C)(C)C

> <Shape>
0.235

> <Color>
0.058

> <Negative vol penalty>
0.000

$$$$

  -OEChem-04052320153D

 87 95  0     1  0  0  0  0  0999 V2000
  -30.6792  -32.5409   18.5396 C   0  0  0  0  0  0  0  0  0  0  0  0
  -30.6103  -31.1600   18.3858 C   0  0  0  0  0  0  0  0  0  0  0  0
  -26.9104  -12.0993   20.8650 C   0  0  0  0  0  0  0  0  0  0  0  0
  -25.7256  -14.1725   20.4978 C   0  0  0  0  0  0  0  0  0  0  0  0
  -30.0650  -33.1510   19.6326 C   0  0  0  0  0  0  0  0  0  0  0  0
  -29.9280  -30.3881   19.3255 C   0  0  0  0  0  0  0  0  0  0  0  0
  -25.9837  -24.4315   19.8531 C   0  0  0  0  0  0  0  0  0  0  0  0
  -25.7470  -11.5251   21.3773 C   0  0  0  0  0  0  0  0  0  0  0  0
  -24.5621  -13.5983   21.0100 C   0  0  0  0  0  0  0  0  0  0  0  0
  -25.9190  -23.2434   20.5798 C   0  0  0  0  0  0  0  0  0  0  0  0
  -22.8833  -10.1961   20.1666 C   0  0  0  0  0  0  0  0  0  0  0  0
  -22.5492   -8.9127   19.7344 C   0  0  0  0  0  0  0  0  0  0  0  0
  -24.8288  -24.4142   22.3853 C   0  0  0  0  0  0  0  0  0  0  0  0
  -22.6614   -8.1164   22.0126 C   0  0  0  0  0  0  0  0  0  0  0  0
  -26.8997  -13.4230   20.4253 C   0  0  0  0  0  0  0  0  0  0  0  0
  -28.8406  -13.5877   18.7780 C   0  0  0  0  0  0  0  0  0  0  0  0
  -29.3666  -32.3871   20.5810 C   0  0  0  0  0  0  0  0  0  0  0  0
  -25.4804  -25.6240   20.3925 C   0  0  0  0  0  0  0  0  0  0  0  0
  -29.3050  -30.9883   20.4329 C   0  0  0  0  0  0  0  0  0  0  0  0
  -24.8861  -25.6155   21.6624 C   0  0  0  0  0  0  0  0  0  0  0  0
  -24.5729  -12.2746   21.4498 C   0  0  0  0  0  0  0  0  0  0  0  0
  -25.3441  -23.2352   21.8472 C   0  0  0  0  0  0  0  0  0  0  0  0
  -23.1065  -10.4397   21.5218 C   0  0  0  0  0  0  0  0  0  0  0  0
  -22.4382   -7.8728   20.6574 C   0  0  0  0  0  0  0  0  0  0  0  0
  -22.9956   -9.3998   22.4448 C   0  0  0  0  0  0  0  0  0  0  0  0
  -28.1013  -14.0168   19.8965 C   0  0  0  0  0  0  0  0  0  0  0  0
  -29.8831  -14.4779   18.6934 C   0  0  0  0  0  0  0  0  0  0  0  0
  -28.6059  -12.4831   17.8945 C   0  0  0  0  0  0  0  0  0  0  0  0
  -30.3742  -20.0885   20.5788 C   0  0  0  0  0  0  0  0  0  0  0  0
  -26.7352  -28.4384   21.1726 C   0  0  0  0  0  0  0  0  0  0  0  0
  -23.6371  -29.2301   21.7176 C   0  0  0  0  0  0  0  0  0  0  0  0
  -20.4690  -28.1965   22.4536 C   0  0  0  0  0  0  0  0  0  0  0  0
  -28.7590  -33.0864   21.7711 C   0  0  0  0  0  0  0  0  0  0  0  0
  -25.5338  -26.8919   19.5849 C   0  0  0  0  0  0  0  0  0  0  0  0
  -24.3128  -26.8648   22.2781 C   0  0  0  0  0  0  0  0  0  0  0  0
  -27.7371  -32.2357   22.5211 C   0  0  0  0  0  0  0  0  0  0  0  0
  -32.6070  -17.3335   21.3859 C   0  0  0  0  0  0  0  0  0  0  0  0
  -28.2790  -30.8283   22.7497 C   0  0  0  0  0  0  0  0  0  0  0  0
  -31.7483  -16.1253   21.0145 C   0  0  0  0  0  0  0  0  0  0  0  0
  -32.5008  -21.2552   20.0987 C   0  0  0  0  0  0  0  0  0  0  0  0
  -31.7619  -18.4675   21.9602 C   0  0  0  0  0  0  0  0  0  0  0  0
  -29.7822  -17.6891   20.6957 C   0  0  0  0  0  0  0  0  0  0  0  0
  -32.1751  -21.8743   18.7486 C   0  0  0  0  0  0  0  0  0  0  0  0
  -28.5531  -30.1196   21.4177 C   0  0  1  0  0  0  0  0  0  0  0  0
  -31.2874  -21.1942   21.0317 C   0  0  1  0  0  0  0  0  0  0  0  0
  -25.4536  -28.1507   20.4430 C   0  0  1  0  0  0  0  0  0  0  0  0
  -30.5722  -22.5589   21.1388 C   0  0  1  0  0  0  0  0  0  0  0  0
  -30.5930  -16.5343   20.0841 C   0  0  2  0  0  0  0  0  0  0  0  0
  -30.2628  -23.1682   19.7554 C   0  0  1  0  0  0  0  0  0  0  0  0
  -18.1569  -29.0775   22.8725 C   0  0  0  0  0  0  0  0  0  0  0  0
  -30.7238  -25.5145   20.5207 C   0  0  0  0  0  0  0  0  0  0  0  0
  -29.4115  -25.1148   18.4179 C   0  0  0  0  0  0  0  0  0  0  0  0
  -30.6297  -22.8178   24.1772 C   0  0  0  0  0  0  0  0  0  0  0  0
  -27.9227  -19.3865   24.7242 C   0  0  0  0  0  0  0  0  0  0  0  0
  -24.4887  -30.1329   24.5051 C   0  0  0  0  0  0  0  0  0  0  0  0
  -22.0775  -30.0950   25.1780 C   0  0  0  0  0  0  0  0  0  0  0  0
  -22.8438  -31.6416   23.3770 C   0  0  0  0  0  0  0  0  0  0  0  0
  -19.3601  -26.7130   20.1453 C   0  0  0  0  0  0  0  0  0  0  0  0
  -29.3228  -22.4645   22.0226 C   0  0  0  0  0  0  0  0  0  0  0  0
  -25.9563  -20.9241   24.5555 C   0  0  0  0  0  0  0  0  0  0  0  0
  -28.3139  -21.8698   24.2965 C   0  0  0  0  0  0  0  0  0  0  0  0
  -25.3211  -22.1851   23.9809 C   0  0  0  0  0  0  0  0  0  1  0  0
  -22.7093  -29.1612   22.9065 C   0  0  1  0  0  0  0  0  0  0  0  0
  -19.1274  -28.5403   21.8321 C   0  0  2  0  0  0  0  0  0  0  0  0
  -29.7258  -24.5952   19.8193 C   0  0  0  0  0  0  0  0  0  0  0  0
  -29.6044  -21.9414   23.4450 C   0  0  2  0  0  0  0  0  0  0  0  0
  -27.3899  -20.6557   24.0502 C   0  0  1  0  0  0  0  0  0  0  0  0
  -23.0423  -30.2344   23.9811 C   0  0  0  0  0  0  0  0  0  0  0  0
  -28.6295  -15.0957   20.4806 N   0  0  0  0  0  0  0  0  0  0  0  0
  -29.7118  -15.3519   19.7263 N   0  0  0  0  0  0  0  0  0  0  0  0
  -30.6563  -18.8087   21.0572 N   0  0  0  0  0  0  0  0  0  0  0  0
  -24.3945  -28.0806   21.4518 N   0  0  0  0  0  0  0  0  0  0  0  0
  -30.9206  -14.5904   17.8369 N   0  0  0  0  0  0  0  0  0  0  0  0
  -27.8174  -12.6947   16.7553 N   0  0  0  0  0  0  0  0  0  0  0  0
  -27.3167  -29.6453   20.8338 N   0  0  0  0  0  0  0  0  0  0  0  0
  -21.3545  -29.2504   22.3727 N   0  0  0  0  0  0  0  0  0  0  0  0
  -31.5382  -23.2057   18.9567 N   0  3  0  0  0  0  0  0  0  0  0  0
  -18.5222  -27.3316   21.2047 N   0  3  0  0  0  0  0  0  0  0  0  0
  -29.0677  -11.3384   18.1176 O   0  0  0  0  0  0  0  0  0  0  0  0
  -29.4386  -20.3535   19.8195 O   0  0  0  0  0  0  0  0  0  0  0  0
  -27.1640  -27.6263   21.9839 O   0  0  0  0  0  0  0  0  0  0  0  0
  -23.6827  -30.2633   21.0452 O   0  0  0  0  0  0  0  0  0  0  0  0
  -20.7065  -27.1038   22.9635 O   0  0  0  0  0  0  0  0  0  0  0  0
  -23.4374  -11.7146   21.9494 O   0  0  0  0  0  0  0  0  0  0  0  0
  -25.2799  -22.0691   22.5638 O   0  0  0  0  0  0  0  0  0  1  0  0
  -22.1159   -6.6407   20.2424 F   0  0  0  0  0  0  0  0  0  0  0  0
  -23.2077   -9.6279   23.7482 F   0  0  0  0  0  0  0  0  0  0  0  0
  1  2  1  0  0  0  0
  1  5  2  0  0  0  0
  2  6  2  0  0  0  0
  3  8  2  0  0  0  0
  3 15  1  0  0  0  0
  4  9  1  0  0  0  0
  4 15  2  0  0  0  0
  5 17  1  0  0  0  0
  6 19  1  0  0  0  0
  7 10  2  0  0  0  0
  7 18  1  0  0  0  0
  8 21  1  0  0  0  0
  9 21  2  0  0  0  0
 10 22  1  0  0  0  0
 11 12  2  0  0  0  0
 11 23  1  0  0  0  0
 12 24  1  0  0  0  0
 13 20  1  0  0  0  0
 13 22  2  0  0  0  0
 14 24  2  0  0  0  0
 14 25  1  0  0  0  0
 15 26  1  0  0  0  0
 16 26  1  0  0  0  0
 16 27  2  0  0  0  0
 16 28  1  0  0  0  0
 17 19  2  0  0  0  0
 17 33  1  0  0  0  0
 18 20  2  0  0  0  0
 18 34  1  0  0  0  0
 19 44  1  0  0  0  0
 20 35  1  0  0  0  0
 21 84  1  0  0  0  0
 22 85  1  0  0  0  0
 23 25  2  0  0  0  0
 23 84  1  0  0  0  0
 24 86  1  0  0  0  0
 25 87  1  0  0  0  0
 26 69  2  0  0  0  0
 27 70  1  0  0  0  0
 27 73  1  0  0  0  0
 28 74  1  0  0  0  0
 28 79  2  0  0  0  0
 29 45  1  0  0  0  0
 29 71  1  0  0  0  0
 29 80  2  0  0  0  0
 30 46  1  0  0  0  0
 30 75  1  0  0  0  0
 30 81  2  0  0  0  0
 31 63  1  0  0  0  0
 31 72  1  0  0  0  0
 31 82  2  0  0  0  0
 32 64  1  0  0  0  0
 32 76  1  0  0  0  0
 32 83  2  0  0  0  0
 33 36  1  0  0  0  0
 34 46  1  0  0  0  0
 35 72  1  0  0  0  0
 36 38  1  0  0  0  0
 37 39  1  0  0  0  0
 37 41  1  0  0  0  0
 38 44  1  0  0  0  0
 39 48  1  0  0  0  0
 40 43  1  0  0  0  0
 40 45  1  0  0  0  0
 41 71  1  0  0  0  0
 42 48  1  0  0  0  0
 42 71  1  0  0  0  0
 43 77  1  0  0  0  0
 44 75  1  0  0  0  0
 45 47  1  0  0  0  0
 46 72  1  0  0  0  0
 47 49  1  0  0  0  0
 47 59  1  0  0  0  0
 48 70  1  0  0  0  0
 49 65  1  0  0  0  0
 49 77  1  0  0  0  0
 50 64  1  0  0  0  0
 51 65  1  0  0  0  0
 52 65  1  0  0  0  0
 53 66  1  0  0  0  0
 54 67  1  0  0  0  0
 55 68  1  0  0  0  0
 56 68  1  0  0  0  0
 57 68  1  0  0  0  0
 58 78  1  0  0  0  0
 59 66  1  0  0  0  0
 60 62  1  0  0  0  0
 60 67  1  0  0  0  0
 61 66  1  0  0  0  0
 61 67  1  0  0  0  0
 62 85  1  0  0  0  0
 63 68  1  0  0  0  0
 63 76  1  0  0  0  0
 64 78  1  0  0  0  0
 69 70  1  0  0  0  0
M  CHG  2  77   1  78   1
M  ISO  4  29 100  45 100  62 101  85 101
M  END
> <Batch ID>
0117

> <Smiles>
CNC(C)C(=O)NC(C(=O)N1Cc2cc([101O:1][101CH2:1]CC(C)CC(C)CC3C(C(C)C)NCC[100CH:0]3[100C:0](=O)N3CCCC(n4nc(-c5ccc(Oc6ccc(F)cc6F)cc5)c(C(N)=O)c4N)C3)ccc2CC1C(=O)NC1CCCc2ccccc21)C(C)(C)C

> <Shape>
0.280

> <Color>
0.065

> <Negative vol penalty>
0.000

$$$$

  -OEChem-04052320153D

 81 89  0     1  0  0  0  0  0999 V2000
  -27.5189  -24.5228   16.8900 C   0  0  0  0  0  0  0  0  0  0  0  0
  -26.3212  -24.9216   17.4747 C   0  0  0  0  0  0  0  0  0  0  0  0
  -27.0929  -14.3468   22.0693 C   0  0  0  0  0  0  0  0  0  0  0  0
  -26.0644  -14.6532   19.9047 C   0  0  0  0  0  0  0  0  0  0  0  0
  -28.7299  -24.8117   17.5176 C   0  0  0  0  0  0  0  0  0  0  0  0
  -26.3338  -25.6085   18.6881 C   0  0  0  0  0  0  0  0  0  0  0  0
  -23.1927  -29.5807   18.7045 C   0  0  0  0  0  0  0  0  0  0  0  0
  -26.9341  -12.9663   21.9494 C   0  0  0  0  0  0  0  0  0  0  0  0
  -25.9057  -13.2726   19.7847 C   0  0  0  0  0  0  0  0  0  0  0  0
  -21.8343  -29.3175   18.8758 C   0  0  0  0  0  0  0  0  0  0  0  0
  -23.8004  -10.8965   20.9477 C   0  0  0  0  0  0  0  0  0  0  0  0
  -22.5703  -10.4228   20.4917 C   0  0  0  0  0  0  0  0  0  0  0  0
  -22.0170  -29.9221   21.2040 C   0  0  0  0  0  0  0  0  0  0  0  0
  -23.6696   -9.3792   18.6104 C   0  0  0  0  0  0  0  0  0  0  0  0
  -26.6580  -15.1904   21.0470 C   0  0  0  0  0  0  0  0  0  0  0  0
  -27.9249  -17.3852   20.7548 C   0  0  0  0  0  0  0  0  0  0  0  0
  -28.7578  -25.5109   18.7346 C   0  0  0  0  0  0  0  0  0  0  0  0
  -23.9771  -30.0067   19.7860 C   0  0  0  0  0  0  0  0  0  0  0  0
  -27.5462  -25.9058   19.3334 C   0  0  0  0  0  0  0  0  0  0  0  0
  -23.3845  -30.1924   21.0432 C   0  0  0  0  0  0  0  0  0  0  0  0
  -26.3406  -12.4292   20.8071 C   0  0  0  0  0  0  0  0  0  0  0  0
  -21.2469  -29.4855   20.1263 C   0  0  0  0  0  0  0  0  0  0  0  0
  -24.9651  -10.6117   20.2351 C   0  0  0  0  0  0  0  0  0  0  0  0
  -22.5049   -9.6642   19.3230 C   0  0  0  0  0  0  0  0  0  0  0  0
  -24.8997   -9.8530   19.0664 C   0  0  0  0  0  0  0  0  0  0  0  0
  -26.8211  -16.6166   21.1706 C   0  0  0  0  0  0  0  0  0  0  0  0
  -27.5930  -18.6741   21.0940 C   0  0  0  0  0  0  0  0  0  0  0  0
  -29.1413  -16.9710   20.1188 C   0  0  0  0  0  0  0  0  0  0  0  0
  -26.5014  -28.8381   21.3241 C   0  0  0  0  0  0  0  0  0  0  0  0
  -26.3960  -31.6917   22.8629 C   0  0  0  0  0  0  0  0  0  0  0  0
  -24.5484  -34.3888   23.8421 C   0  0  0  0  0  0  0  0  0  0  0  0
  -24.1907  -22.8224   21.3579 C   0  0  0  0  0  0  0  0  0  0  0  0
  -30.0889  -25.7587   19.3991 C   0  0  0  0  0  0  0  0  0  0  0  0
  -25.4352  -30.3120   19.5786 C   0  0  0  0  0  0  0  0  0  0  0  0
  -24.1784  -30.6673   22.2317 C   0  0  0  0  0  0  0  0  0  0  0  0
  -30.0340  -26.8190   20.4959 C   0  0  0  0  0  0  0  0  0  0  0  0
  -23.8347  -20.4760   23.9472 C   0  0  0  0  0  0  0  0  0  0  0  0
  -28.8390  -26.5775   21.4126 C   0  0  0  0  0  0  0  0  0  0  0  0
  -24.6738  -19.3122   23.4206 C   0  0  0  0  0  0  0  0  0  0  0  0
  -22.8068  -25.8429   23.0051 C   0  0  0  0  0  0  0  0  0  0  0  0
  -20.8950  -24.3560   22.2739 C   0  0  0  0  0  0  0  0  0  0  0  0
  -23.0136  -21.1372   22.8390 C   0  0  0  0  0  0  0  0  0  0  0  0
  -23.7023  -25.1607   21.9718 C   0  0  0  0  0  0  0  0  0  0  0  0
  -21.8306  -23.7067   21.2562 C   0  0  0  0  0  0  0  0  0  0  0  0
  -24.6557  -20.3985   21.1429 C   0  0  0  0  0  0  0  0  0  0  0  0
  -27.5199  -26.6745   20.6366 C   0  0  1  0  0  0  0  0  0  0  0  0
  -26.2485  -30.2471   20.8677 C   0  0  1  0  0  0  0  0  0  0  0  0
  -25.5356  -19.7502   22.2231 C   0  0  2  0  0  0  0  0  0  0  0  0
  -21.3130  -25.7881   22.6469 C   0  0  0  0  0  0  0  0  0  0  0  0
  -20.4521  -26.3333   23.7883 C   0  0  0  0  0  0  0  0  0  0  0  0
  -24.7288  -36.5412   25.1196 C   0  0  0  0  0  0  0  0  0  0  0  0
  -18.0519  -27.9345   19.4796 C   0  0  0  0  0  0  0  0  0  0  0  0
  -26.3676  -30.1341   25.4865 C   0  0  0  0  0  0  0  0  0  0  0  0
  -25.6003  -32.2214   26.6367 C   0  0  0  0  0  0  0  0  0  0  0  0
  -27.8192  -32.1706   25.4980 C   0  0  0  0  0  0  0  0  0  0  0  0
  -23.8219  -35.9952   21.4651 C   0  0  0  0  0  0  0  0  0  0  0  0
  -19.6548  -27.0435   21.2631 C   0  0  0  0  0  0  0  0  0  0  0  0
  -25.7110  -32.2128   24.1031 C   0  0  1  0  0  0  0  0  0  0  0  0
  -24.8175  -35.8801   23.7529 C   0  0  2  0  0  0  0  0  0  0  0  0
  -19.4780  -27.8999   20.0134 C   0  0  2  0  0  0  0  0  0  1  0  0
  -26.3597  -31.6739   25.4093 C   0  0  0  0  0  0  0  0  0  0  0  0
  -25.8601  -17.3556   21.7313 N   0  0  0  0  0  0  0  0  0  0  0  0
  -26.3590  -18.6020   21.6702 N   0  0  0  0  0  0  0  0  0  0  0  0
  -25.6018  -30.9466   21.9798 N   0  0  0  0  0  0  0  0  0  0  0  0
  -23.8702  -21.5005   21.7022 N   0  0  0  0  0  0  0  0  0  0  0  0
  -23.2375  -23.8077   21.6675 N   0  0  0  0  0  0  0  0  0  0  0  0
  -28.2394  -19.8508   20.9526 N   0  0  0  0  0  0  0  0  0  0  0  0
  -29.3202  -15.6088   19.8418 N   0  0  0  0  0  0  0  0  0  0  0  0
  -27.1730  -28.0596   20.4008 N   0  0  0  0  0  0  0  0  0  0  0  0
  -25.7141  -33.6674   23.9905 N   0  0  0  0  0  0  0  0  0  0  0  0
  -21.0766  -26.6779   21.4612 N   0  3  0  0  0  0  0  0  0  0  0  0
  -23.8270  -36.5321   22.8503 N   0  3  0  0  0  0  0  0  0  0  0  0
  -30.0498  -17.7827   19.8202 O   0  0  0  0  0  0  0  0  0  0  0  0
  -26.1171  -28.4838   22.4324 O   0  0  0  0  0  0  0  0  0  0  0  0
  -27.5899  -31.9427   22.6808 O   0  0  0  0  0  0  0  0  0  0  0  0
  -23.4169  -33.9118   23.7895 O   0  0  0  0  0  0  0  0  0  0  0  0
  -25.2633  -23.1085   20.8114 O   0  0  0  0  0  0  0  0  0  0  0  0
  -26.1857  -11.0820   20.6896 O   0  0  0  0  0  0  0  0  0  0  0  0
  -19.9137  -29.2272   20.2974 O   0  0  0  0  0  0  0  0  0  1  0  0
  -21.3237   -9.2080   18.8861 F   0  0  0  0  0  0  0  0  0  0  0  0
  -26.0155   -9.5751   18.3781 F   0  0  0  0  0  0  0  0  0  0  0  0
  1  2  1  0  0  0  0
  1  5  2  0  0  0  0
  2  6  2  0  0  0  0
  3  8  2  0  0  0  0
  3 15  1  0  0  0  0
  4  9  1  0  0  0  0
  4 15  2  0  0  0  0
  5 17  1  0  0  0  0
  6 19  1  0  0  0  0
  7 10  2  0  0  0  0
  7 18  1  0  0  0  0
  8 21  1  0  0  0  0
  9 21  2  0  0  0  0
 10 22  1  0  0  0  0
 11 12  2  0  0  0  0
 11 23  1  0  0  0  0
 12 24  1  0  0  0  0
 13 20  1  0  0  0  0
 13 22  2  0  0  0  0
 14 24  2  0  0  0  0
 14 25  1  0  0  0  0
 15 26  1  0  0  0  0
 16 26  1  0  0  0  0
 16 27  2  0  0  0  0
 16 28  1  0  0  0  0
 17 19  2  0  0  0  0
 17 33  1  0  0  0  0
 18 20  2  0  0  0  0
 18 34  1  0  0  0  0
 19 46  1  0  0  0  0
 20 35  1  0  0  0  0
 21 78  1  0  0  0  0
 22 79  1  0  0  0  0
 23 25  2  0  0  0  0
 23 78  1  0  0  0  0
 24 80  1  0  0  0  0
 25 81  1  0  0  0  0
 26 62  2  0  0  0  0
 27 63  1  0  0  0  0
 27 67  1  0  0  0  0
 28 68  1  0  0  0  0
 28 73  2  0  0  0  0
 29 47  1  0  0  0  0
 29 69  1  0  0  0  0
 29 74  2  0  0  0  0
 30 58  1  0  0  0  0
 30 64  1  0  0  0  0
 30 75  2  0  0  0  0
 31 59  1  0  0  0  0
 31 70  1  0  0  0  0
 31 76  2  0  0  0  0
 32 65  1  0  0  0  0
 32 66  1  0  0  0  0
 32 77  2  0  0  0  0
 33 36  1  0  0  0  0
 34 47  1  0  0  0  0
 35 64  1  0  0  0  0
 36 38  1  0  0  0  0
 37 39  1  0  0  0  0
 37 42  1  0  0  0  0
 38 46  1  0  0  0  0
 39 48  1  0  0  0  0
 40 43  1  0  0  0  0
 40 49  1  0  0  0  0
 41 44  1  0  0  0  0
 41 49  1  0  0  0  0
 42 65  1  0  0  0  0
 43 66  1  0  0  0  0
 44 66  1  0  0  0  0
 45 48  1  0  0  0  0
 45 65  1  0  0  0  0
 46 69  1  0  0  0  0
 47 64  1  0  0  0  0
 48 63  1  0  0  0  0
 49 50  1  0  0  0  0
 49 71  1  0  0  0  0
 51 59  1  0  0  0  0
 52 60  1  0  0  0  0
 53 61  1  0  0  0  0
 54 61  1  0  0  0  0
 55 61  1  0  0  0  0
 56 72  1  0  0  0  0
 57 60  1  0  0  0  0
 57 71  1  0  0  0  0
 58 61  1  0  0  0  0
 58 70  1  0  0  0  0
 59 72  1  0  0  0  0
 60 79  1  0  0  0  0
 62 63  1  0  0  0  0
M  CHG  2  71   1  72   1
M  ISO  4  32 100  60 101  66 100  79 101
M  END
> <Batch ID>
0117

> <Smiles>
CNC(C)C(=O)NC(C(=O)N1Cc2cc([101O:1][101CH:1](C)CNC3(C)CC[100N:0]([100C:0](=O)N4CCCC(n5nc(-c6ccc(Oc7ccc(F)cc7F)cc6)c(C(N)=O)c5N)C4)CC3)ccc2CC1C(=O)NC1CCCc2ccccc21)C(C)(C)C

> <Shape>
0.292

> <Color>
0.087

> <Negative vol penalty>
0.000

$$$$

  -OEChem-04052320153D

 85 93  0     1  0  0  0  0  0999 V2000
  -33.7975  -31.6847    8.7198 C   0  0  0  0  0  0  0  0  0  0  0  0
  -34.1816  -31.2027    9.9670 C   0  0  0  0  0  0  0  0  0  0  0  0
  -23.0733   -9.8740   19.9338 C   0  0  0  0  0  0  0  0  0  0  0  0
  -23.8398   -9.8679   22.2250 C   0  0  0  0  0  0  0  0  0  0  0  0
  -32.5354  -31.3773    8.2134 C   0  0  0  0  0  0  0  0  0  0  0  0
  -33.3032  -30.4138   10.7091 C   0  0  0  0  0  0  0  0  0  0  0  0
  -33.2632  -24.9707   15.3661 C   0  0  0  0  0  0  0  0  0  0  0  0
  -22.3319   -8.7182   20.1787 C   0  0  0  0  0  0  0  0  0  0  0  0
  -23.0984   -8.7120   22.4699 C   0  0  0  0  0  0  0  0  0  0  0  0
  -32.7569  -24.6293   16.6194 C   0  0  0  0  0  0  0  0  0  0  0  0
  -19.3891   -7.9078   21.6334 C   0  0  0  0  0  0  0  0  0  0  0  0
  -18.0809   -7.8626   21.1517 C   0  0  0  0  0  0  0  0  0  0  0  0
  -30.6319  -24.0970   15.6094 C   0  0  0  0  0  0  0  0  0  0  0  0
  -18.6398   -5.9287   19.8157 C   0  0  0  0  0  0  0  0  0  0  0  0
  -23.8272  -10.4489   20.9569 C   0  0  0  0  0  0  0  0  0  0  0  0
  -24.1648  -12.9752   20.8517 C   0  0  0  0  0  0  0  0  0  0  0  0
  -31.6448  -30.5762    8.9454 C   0  0  0  0  0  0  0  0  0  0  0  0
  -32.4529  -24.8881   14.2246 C   0  0  0  0  0  0  0  0  0  0  0  0
  -32.0275  -30.0965   10.2126 C   0  0  0  0  0  0  0  0  0  0  0  0
  -31.1311  -24.4355   14.3424 C   0  0  0  0  0  0  0  0  0  0  0  0
  -22.3444   -8.1371   21.4467 C   0  0  0  0  0  0  0  0  0  0  0  0
  -31.4403  -24.1951   16.7417 C   0  0  0  0  0  0  0  0  0  0  0  0
  -20.3228   -6.9636   21.2063 C   0  0  0  0  0  0  0  0  0  0  0  0
  -17.7063   -6.8730   20.2428 C   0  0  0  0  0  0  0  0  0  0  0  0
  -19.9481   -5.9740   20.2974 C   0  0  0  0  0  0  0  0  0  0  0  0
  -24.5937  -11.6425   20.7044 C   0  0  0  0  0  0  0  0  0  0  0  0
  -25.2547  -13.7287   20.4900 C   0  0  0  0  0  0  0  0  0  0  0  0
  -22.8947  -13.4864   21.2775 C   0  0  0  0  0  0  0  0  0  0  0  0
  -31.1251  -22.4735   19.9109 C   0  0  0  0  0  0  0  0  0  0  0  0
  -30.9653  -21.1395   19.7451 C   0  0  0  0  0  0  0  0  0  0  0  0
  -31.3804  -26.9741   12.0793 C   0  0  0  0  0  0  0  0  0  0  0  0
  -30.2531  -24.3042   10.6221 C   0  0  0  0  0  0  0  0  0  0  0  0
  -29.2529  -21.0534   10.9026 C   0  0  0  0  0  0  0  0  0  0  0  0
  -30.7374  -14.7552   20.6690 C   0  0  0  0  0  0  0  0  0  0  0  0
  -30.2732  -30.3099    8.3774 C   0  0  0  0  0  0  0  0  0  0  0  0
  -33.0221  -25.2345   12.8761 C   0  0  0  0  0  0  0  0  0  0  0  0
  -30.2262  -24.3098   13.1449 C   0  0  0  0  0  0  0  0  0  0  0  0
  -29.5435  -29.1574    9.0626 C   0  0  0  0  0  0  0  0  0  0  0  0
  -29.5966  -12.3839   18.2706 C   0  0  0  0  0  0  0  0  0  0  0  0
  -29.6501  -29.2843   10.5790 C   0  0  0  0  0  0  0  0  0  0  0  0
  -28.1609  -12.0852   18.7058 C   0  0  0  0  0  0  0  0  0  0  0  0
  -29.0231  -18.3712   20.8633 C   0  0  0  0  0  0  0  0  0  0  0  0
  -30.5169  -12.5986   19.4702 C   0  0  0  0  0  0  0  0  0  0  0  0
  -28.6180  -13.3180   20.8668 C   0  0  0  0  0  0  0  0  0  0  0  0
  -31.1265  -19.3592   21.3941 C   0  0  0  0  0  0  0  0  0  0  0  0
  -31.1122  -29.2173   11.0367 C   0  0  1  0  0  0  0  0  0  0  0  0
  -31.9524  -25.6032   11.8528 C   0  0  1  0  0  0  0  0  0  0  0  0
  -30.5061  -18.0368   20.9591 C   0  0  1  0  0  0  0  0  0  0  0  0
  -27.6407  -13.1493   19.6909 C   0  0  2  0  0  0  0  0  0  0  0  0
  -29.0316  -19.7249   20.1600 C   0  0  1  0  0  0  0  0  0  0  0  0
  -30.6206  -23.2506   21.1078 C   0  0  0  0  0  0  0  0  0  0  0  0
  -31.4544  -20.3417   18.5695 C   0  0  0  0  0  0  0  0  0  0  0  0
  -28.3484  -19.1465    9.5450 C   0  0  0  0  0  0  0  0  0  0  0  0
  -27.6294  -21.6514   19.3686 C   0  0  0  0  0  0  0  0  0  0  0  0
  -26.5385  -19.6649   20.4490 C   0  0  0  0  0  0  0  0  0  0  0  0
  -27.5064  -25.6325   10.5908 C   0  0  0  0  0  0  0  0  0  0  0  0
  -26.5028  -23.3868   10.1243 C   0  0  0  0  0  0  0  0  0  0  0  0
  -28.0944  -24.4027    8.4941 C   0  0  0  0  0  0  0  0  0  0  0  0
  -31.5983  -19.3546   11.5124 C   0  0  0  0  0  0  0  0  0  0  0  0
  -31.8663  -23.3434   18.9209 C   0  0  0  0  0  0  0  0  0  1  0  0
  -30.8034  -16.8981   21.9191 C   0  0  0  0  0  0  0  0  0  0  0  0
  -28.9717  -23.5091   10.6904 C   0  0  1  0  0  0  0  0  0  0  0  0
  -29.5990  -19.8193   10.0892 C   0  0  2  0  0  0  0  0  0  0  0  0
  -27.7849  -20.5517   20.4211 C   0  0  0  0  0  0  0  0  0  0  0  0
  -27.7850  -24.2369    9.9979 C   0  0  0  0  0  0  0  0  0  0  0  0
  -25.8575  -11.5513   20.2819 N   0  0  0  0  0  0  0  0  0  0  0  0
  -26.2320  -12.8363   20.1606 N   0  0  0  0  0  0  0  0  0  0  0  0
  -30.8270  -24.6663   11.8490 N   0  0  0  0  0  0  0  0  0  0  0  0
  -29.9672  -13.6207   20.3642 N   0  0  0  0  0  0  0  0  0  0  0  0
  -25.4628  -15.0609   20.4247 N   0  0  0  0  0  0  0  0  0  0  0  0
  -21.8852  -12.5736   21.6120 N   0  0  0  0  0  0  0  0  0  0  0  0
  -31.5821  -27.8485   11.0285 N   0  0  0  0  0  0  0  0  0  0  0  0
  -29.2756  -22.1962   10.1314 N   0  0  0  0  0  0  0  0  0  0  0  0
  -30.1392  -15.6778   21.5185 N   0  0  0  0  0  0  0  0  0  0  0  0
  -30.2542  -20.4173   20.7449 N   0  3  2  0  0  0  0  0  0  0  0  0
  -30.3344  -18.8336   10.9310 N   0  3  0  0  0  0  0  0  0  0  0  0
  -22.6567  -14.7163   21.3432 O   0  0  0  0  0  0  0  0  0  0  0  0
  -30.7980  -27.2198   13.1290 O   0  0  0  0  0  0  0  0  0  0  0  0
  -30.7312  -24.5873    9.5208 O   0  0  0  0  0  0  0  0  0  0  0  0
  -28.9853  -21.0077   12.1013 O   0  0  0  0  0  0  0  0  0  0  0  0
  -31.8717  -14.9353   20.2132 O   0  0  0  0  0  0  0  0  0  0  0  0
  -21.6210   -7.0094   21.6861 O   0  0  0  0  0  0  0  0  0  0  0  0
  -30.9434  -23.8618   17.9639 O   0  0  0  0  0  0  0  0  0  1  0  0
  -16.4495   -6.8287   19.7814 F   0  0  0  0  0  0  0  0  0  0  0  0
  -20.8403   -5.0634   19.8843 F   0  0  0  0  0  0  0  0  0  0  0  0
  1  2  1  0  0  0  0
  1  5  2  0  0  0  0
  2  6  2  0  0  0  0
  3  8  2  0  0  0  0
  3 15  1  0  0  0  0
  4  9  1  0  0  0  0
  4 15  2  0  0  0  0
  5 17  1  0  0  0  0
  6 19  1  0  0  0  0
  7 10  2  0  0  0  0
  7 18  1  0  0  0  0
  8 21  1  0  0  0  0
  9 21  2  0  0  0  0
 10 22  1  0  0  0  0
 11 12  2  0  0  0  0
 11 23  1  0  0  0  0
 12 24  1  0  0  0  0
 13 20  1  0  0  0  0
 13 22  2  0  0  0  0
 14 24  2  0  0  0  0
 14 25  1  0  0  0  0
 15 26  1  0  0  0  0
 16 26  1  0  0  0  0
 16 27  2  0  0  0  0
 16 28  1  0  0  0  0
 17 19  2  0  0  0  0
 17 35  1  0  0  0  0
 18 20  2  0  0  0  0
 18 36  1  0  0  0  0
 19 46  1  0  0  0  0
 20 37  1  0  0  0  0
 21 82  1  0  0  0  0
 22 83  1  0  0  0  0
 23 25  2  0  0  0  0
 23 82  1  0  0  0  0
 24 84  1  0  0  0  0
 25 85  1  0  0  0  0
 26 66  2  0  0  0  0
 27 67  1  0  0  0  0
 27 70  1  0  0  0  0
 28 71  1  0  0  0  0
 28 77  2  0  0  0  0
 29 30  2  0  0  0  0
 29 51  1  0  0  0  0
 29 60  1  0  0  0  0
 30 52  1  0  0  0  0
 30 75  1  0  0  0  0
 31 47  1  0  0  0  0
 31 72  1  0  0  0  0
 31 78  2  0  0  0  0
 32 62  1  0  0  0  0
 32 68  1  0  0  0  0
 32 79  2  0  0  0  0
 33 63  1  0  0  0  0
 33 73  1  0  0  0  0
 33 80  2  0  0  0  0
 34 69  1  0  0  0  0
 34 74  1  0  0  0  0
 34 81  2  0  0  0  0
 35 38  1  0  0  0  0
 36 47  1  0  0  0  0
 37 68  1  0  0  0  0
 38 40  1  0  0  0  0
 39 41  1  0  0  0  0
 39 43  1  0  0  0  0
 40 46  1  0  0  0  0
 41 49  1  0  0  0  0
 42 48  1  0  0  0  0
 42 50  1  0  0  0  0
 43 69  1  0  0  0  0
 44 49  1  0  0  0  0
 44 69  1  0  0  0  0
 45 48  1  0  0  0  0
 45 75  1  0  0  0  0
 46 72  1  0  0  0  0
 47 68  1  0  0  0  0
 48 61  1  0  0  0  0
 49 67  1  0  0  0  0
 50 64  1  0  0  0  0
 50 75  1  0  0  0  0
 53 63  1  0  0  0  0
 54 64  1  0  0  0  0
 55 64  1  0  0  0  0
 56 65  1  0  0  0  0
 57 65  1  0  0  0  0
 58 65  1  0  0  0  0
 59 76  1  0  0  0  0
 60 83  1  0  0  0  0
 61 74  1  0  0  0  0
 62 65  1  0  0  0  0
 62 73  1  0  0  0  0
 63 76  1  0  0  0  0
 66 67  1  0  0  0  0
M  CHG  2  75   1  76   1
M  ISO  4  34 100  60 101  74 100  83 101
M  END
> <Batch ID>
0117

> <Smiles>
CNC(C)C(=O)NC(C(=O)N1Cc2cc([101O:1][101CH2:1]C(C)=C(C)N3CC(C[100NH:0][100C:0](=O)N4CCCC(n5nc(-c6ccc(Oc7ccc(F)cc7F)cc6)c(C(N)=O)c5N)C4)CC3C(C)C)ccc2CC1C(=O)NC1CCCc2ccccc21)C(C)(C)C

> <Shape>
0.197

> <Color>
0.184

> <Negative vol penalty>
0.000

$$$$

  -OEChem-04052320153D

 85 93  0     1  0  0  0  0  0999 V2000
  -19.8334   -9.0008   19.8279 C   0  0  0  0  0  0  0  0  0  0  0  0
  -19.8329  -10.3302   20.2380 C   0  0  0  0  0  0  0  0  0  0  0  0
  -24.9489  -30.9262   25.5849 C   0  0  0  0  0  0  0  0  0  0  0  0
  -26.3562  -30.0957   23.8054 C   0  0  0  0  0  0  0  0  0  0  0  0
  -20.9845   -8.2278   19.9741 C   0  0  0  0  0  0  0  0  0  0  0  0
  -20.9833  -10.8871   20.7956 C   0  0  0  0  0  0  0  0  0  0  0  0
  -22.9477  -16.6558   20.1879 C   0  0  0  0  0  0  0  0  0  0  0  0
  -26.0690  -31.0704   26.4035 C   0  0  0  0  0  0  0  0  0  0  0  0
  -27.4764  -30.2400   24.6240 C   0  0  0  0  0  0  0  0  0  0  0  0
  -22.8392  -17.7753   21.0118 C   0  0  0  0  0  0  0  0  0  0  0  0
  -28.6035  -31.9973   28.8391 C   0  0  0  0  0  0  0  0  0  0  0  0
  -28.7245  -33.1789   29.5704 C   0  0  0  0  0  0  0  0  0  0  0  0
  -25.0293  -17.3168   21.9131 C   0  0  0  0  0  0  0  0  0  0  0  0
  -28.7323  -34.4498   27.5157 C   0  0  0  0  0  0  0  0  0  0  0  0
  -25.0925  -30.4388   24.2858 C   0  0  0  0  0  0  0  0  0  0  0  0
  -23.3936  -31.2482   22.5634 C   0  0  0  0  0  0  0  0  0  0  0  0
  -22.1526   -8.7783   20.5248 C   0  0  0  0  0  0  0  0  0  0  0  0
  -24.0952  -15.8508   20.2284 C   0  0  0  0  0  0  0  0  0  0  0  0
  -22.1507  -10.1204   20.9505 C   0  0  0  0  0  0  0  0  0  0  0  0
  -25.1509  -16.1890   21.0869 C   0  0  0  0  0  0  0  0  0  0  0  0
  -27.3327  -30.7273   25.9230 C   0  0  0  0  0  0  0  0  0  0  0  0
  -23.8788  -18.1043   21.8766 C   0  0  0  0  0  0  0  0  0  0  0  0
  -28.5470  -32.0420   27.4461 C   0  0  0  0  0  0  0  0  0  0  0  0
  -28.7889  -34.4051   28.9088 C   0  0  0  0  0  0  0  0  0  0  0  0
  -28.6113  -33.2682   26.7844 C   0  0  0  0  0  0  0  0  0  0  0  0
  -23.9357  -30.2891   23.4399 C   0  0  0  0  0  0  0  0  0  0  0  0
  -22.3100  -30.6223   21.9973 C   0  0  0  0  0  0  0  0  0  0  0  0
  -26.6154  -23.2360   19.5092 C   0  0  0  0  0  0  0  0  0  0  0  0
  -26.5712  -22.1696   20.3171 C   0  0  0  0  0  0  0  0  0  0  0  0
  -23.8307  -32.5852   22.2857 C   0  0  0  0  0  0  0  0  0  0  0  0
  -24.6800  -12.8140   20.9630 C   0  0  0  0  0  0  0  0  0  0  0  0
  -27.6695  -13.5488   19.9405 C   0  0  0  0  0  0  0  0  0  0  0  0
  -30.0327  -15.9467   19.3818 C   0  0  0  0  0  0  0  0  0  0  0  0
  -20.9413  -24.8643   21.0903 C   0  0  0  0  0  0  0  0  0  0  0  0
  -23.3580   -7.8902   20.7063 C   0  0  0  0  0  0  0  0  0  0  0  0
  -24.2079  -14.6618   19.3141 C   0  0  0  0  0  0  0  0  0  0  0  0
  -26.4125  -15.3690   21.1538 C   0  0  0  0  0  0  0  0  0  0  0  0
  -25.2647  -23.8381   19.3284 C   0  0  0  0  0  0  0  0  0  0  0  0
  -24.6502   -8.6618   20.9616 C   0  0  0  0  0  0  0  0  0  0  0  0
  -19.0319  -27.2582   22.9069 C   0  0  0  0  0  0  0  0  0  0  0  0
  -24.4264   -9.7451   22.0118 C   0  0  0  0  0  0  0  0  0  0  0  0
  -20.0232  -28.3930   23.1704 C   0  0  0  0  0  0  0  0  0  0  0  0
  -19.7077  -25.8906   22.9774 C   0  0  0  0  0  0  0  0  0  0  0  0
  -21.8858  -26.8758   22.3780 C   0  0  0  0  0  0  0  0  0  0  0  0
  -23.3866  -10.7674   21.5370 C   0  0  1  0  0  0  0  0  0  0  0  0
  -25.1678  -21.9104   20.7930 C   0  0  1  0  0  0  0  0  0  0  0  0
  -25.2063  -13.6199   19.8092 C   0  0  1  0  0  0  0  0  0  0  0  0
  -21.2623  -28.2773   22.2623 C   0  0  2  0  0  0  0  0  0  0  0  0
  -27.4361  -19.8437   20.2919 C   0  0  0  0  0  0  0  0  0  0  0  0
  -29.0176  -21.7836   20.0602 C   0  0  0  0  0  0  0  0  0  0  0  0
  -32.3919  -16.2378   18.5775 C   0  0  0  0  0  0  0  0  0  0  0  0
  -25.5179  -23.1571   22.9340 C   0  0  0  0  0  0  0  0  0  0  0  0
  -28.7068  -12.4890   22.6071 C   0  0  0  0  0  0  0  0  0  0  0  0
  -30.8747  -13.6539   22.1473 C   0  0  0  0  0  0  0  0  0  0  0  0
  -30.0846  -11.8453   20.6216 C   0  0  0  0  0  0  0  0  0  0  0  0
  -29.1755  -17.6625   17.1279 C   0  0  0  0  0  0  0  0  0  0  0  0
  -23.5696  -21.5847   22.7504 C   0  0  0  0  0  0  0  0  0  0  0  0
  -22.2879  -23.9554   19.2141 C   0  0  0  0  0  0  0  0  0  0  0  0
  -23.0216  -22.7098   19.6748 C   0  0  0  0  0  0  0  0  0  0  0  0
  -22.9909  -20.2866   22.2006 C   0  0  0  0  0  0  0  0  0  1  0  0
  -27.7122  -21.2940   20.6923 C   0  0  0  0  0  0  0  0  0  0  0  0
  -28.9196  -14.0890   20.5919 C   0  0  1  0  0  0  0  0  0  0  0  0
  -30.9230  -16.2238   18.1839 C   0  0  2  0  0  0  0  0  0  0  0  0
  -25.0194  -21.8500   22.3137 C   0  0  1  0  0  0  0  0  0  0  0  0
  -29.6220  -13.0338   21.4924 C   0  0  0  0  0  0  0  0  0  0  0  0
  -23.2526  -29.1414   23.4347 N   0  0  0  0  0  0  0  0  0  0  0  0
  -22.2701  -29.3752   22.5480 N   0  0  0  0  0  0  0  0  0  0  0  0
  -26.4725  -14.2125   20.2447 N   0  0  0  0  0  0  0  0  0  0  0  0
  -20.8740  -25.8465   22.0922 N   0  0  0  0  0  0  0  0  0  0  0  0
  -21.3968  -31.0227   21.0873 N   0  0  0  0  0  0  0  0  0  0  0  0
  -24.9623  -33.0708   22.9550 N   0  0  0  0  0  0  0  0  0  0  0  0
  -23.9775  -11.6851   20.5867 N   0  0  0  0  0  0  0  0  0  0  0  0
  -29.7540  -14.6025   19.5110 N   0  0  0  0  0  0  0  0  0  0  0  0
  -22.0776  -24.8970   20.2912 N   0  0  0  0  0  0  0  0  0  0  0  0
  -24.3381  -23.0902   20.2725 N   0  3  2  0  0  0  0  0  0  0  0  0
  -30.5851  -17.5445   17.5819 N   0  3  0  0  0  0  0  0  0  0  0  0
  -23.2257  -33.3329   21.4805 O   0  0  0  0  0  0  0  0  0  0  0  0
  -24.8966  -13.1878   22.1097 O   0  0  0  0  0  0  0  0  0  0  0  0
  -27.7530  -12.5782   19.1837 O   0  0  0  0  0  0  0  0  0  0  0  0
  -29.6283  -16.8335   20.1305 O   0  0  0  0  0  0  0  0  0  0  0  0
  -20.0520  -24.0241   20.9171 O   0  0  0  0  0  0  0  0  0  0  0  0
  -28.4260  -30.8681   26.7215 O   0  0  0  0  0  0  0  0  0  0  0  0
  -23.7752  -19.1961   22.6823 O   0  0  0  0  0  0  0  0  0  1  0  0
  -28.9035  -35.5398   29.6113 F   0  0  0  0  0  0  0  0  0  0  0  0
  -28.5563  -33.3175   25.4464 F   0  0  0  0  0  0  0  0  0  0  0  0
  1  2  1  0  0  0  0
  1  5  2  0  0  0  0
  2  6  2  0  0  0  0
  3  8  2  0  0  0  0
  3 15  1  0  0  0  0
  4  9  1  0  0  0  0
  4 15  2  0  0  0  0
  5 17  1  0  0  0  0
  6 19  1  0  0  0  0
  7 10  2  0  0  0  0
  7 18  1  0  0  0  0
  8 21  1  0  0  0  0
  9 21  2  0  0  0  0
 10 22  1  0  0  0  0
 11 12  2  0  0  0  0
 11 23  1  0  0  0  0
 12 24  1  0  0  0  0
 13 20  1  0  0  0  0
 13 22  2  0  0  0  0
 14 24  2  0  0  0  0
 14 25  1  0  0  0  0
 15 26  1  0  0  0  0
 16 26  1  0  0  0  0
 16 27  2  0  0  0  0
 16 30  1  0  0  0  0
 17 19  2  0  0  0  0
 17 35  1  0  0  0  0
 18 20  2  0  0  0  0
 18 36  1  0  0  0  0
 19 45  1  0  0  0  0
 20 37  1  0  0  0  0
 21 82  1  0  0  0  0
 22 83  1  0  0  0  0
 23 25  2  0  0  0  0
 23 82  1  0  0  0  0
 24 84  1  0  0  0  0
 25 85  1  0  0  0  0
 26 66  2  0  0  0  0
 27 67  1  0  0  0  0
 27 70  1  0  0  0  0
 28 29  2  0  0  0  0
 28 38  1  0  0  0  0
 29 46  1  0  0  0  0
 29 61  1  0  0  0  0
 30 71  1  0  0  0  0
 30 77  2  0  0  0  0
 31 47  1  0  0  0  0
 31 72  1  0  0  0  0
 31 78  2  0  0  0  0
 32 62  1  0  0  0  0
 32 68  1  0  0  0  0
 32 79  2  0  0  0  0
 33 63  1  0  0  0  0
 33 73  1  0  0  0  0
 33 80  2  0  0  0  0
 34 69  1  0  0  0  0
 34 74  1  0  0  0  0
 34 81  2  0  0  0  0
 35 39  1  0  0  0  0
 36 47  1  0  0  0  0
 37 68  1  0  0  0  0
 38 75  1  0  0  0  0
 39 41  1  0  0  0  0
 40 42  1  0  0  0  0
 40 43  1  0  0  0  0
 41 45  1  0  0  0  0
 42 48  1  0  0  0  0
 43 69  1  0  0  0  0
 44 48  1  0  0  0  0
 44 69  1  0  0  0  0
 45 72  1  0  0  0  0
 46 64  1  0  0  0  0
 46 75  1  0  0  0  0
 47 68  1  0  0  0  0
 48 67  1  0  0  0  0
 49 61  1  0  0  0  0
 50 61  1  0  0  0  0
 51 63  1  0  0  0  0
 52 64  1  0  0  0  0
 53 65  1  0  0  0  0
 54 65  1  0  0  0  0
 55 65  1  0  0  0  0
 56 76  1  0  0  0  0
 57 60  1  0  0  0  0
 57 64  1  0  0  0  0
 58 59  1  0  0  0  0
 58 74  1  0  0  0  0
 59 75  1  0  0  0  0
 60 83  1  0  0  0  0
 62 65  1  0  0  0  0
 62 73  1  0  0  0  0
 63 76  1  0  0  0  0
 66 67  1  0  0  0  0
M  CHG  2  75   1  76   1
M  ISO  4  34 100  60 101  74 100  83 101
M  END
> <Batch ID>
0117

> <Smiles>
CNC(C)C(=O)NC(C(=O)N1Cc2cc([101O:1][101CH2:1]CC(C)C3C(C(C)C)=CCN3CC[100NH:0][100C:0](=O)N3CCCC(n4nc(-c5ccc(Oc6ccc(F)cc6F)cc5)c(C(N)=O)c4N)C3)ccc2CC1C(=O)NC1CCCc2ccccc21)C(C)(C)C

> <Shape>
0.268

> <Color>
0.043

> <Negative vol penalty>
0.000

$$$$

  -OEChem-04052320153D

 82 90  0     1  0  0  0  0  0999 V2000
  -27.6093  -24.4753   16.7394 C   0  0  0  0  0  0  0  0  0  0  0  0
  -26.4598  -24.7159   17.4852 C   0  0  0  0  0  0  0  0  0  0  0  0
  -24.7147  -12.6941   19.6963 C   0  0  0  0  0  0  0  0  0  0  0  0
  -25.4240  -13.4501   21.8786 C   0  0  0  0  0  0  0  0  0  0  0  0
  -28.8408  -24.9535   17.1851 C   0  0  0  0  0  0  0  0  0  0  0  0
  -26.5414  -25.4338   18.6778 C   0  0  0  0  0  0  0  0  0  0  0  0
  -22.8873  -28.9137   19.1044 C   0  0  0  0  0  0  0  0  0  0  0  0
  -25.4502  -11.5208   19.8637 C   0  0  0  0  0  0  0  0  0  0  0  0
  -26.1595  -12.2768   22.0460 C   0  0  0  0  0  0  0  0  0  0  0  0
  -21.6193  -28.4640   19.4703 C   0  0  0  0  0  0  0  0  0  0  0  0
  -26.8504   -8.1660   19.8665 C   0  0  0  0  0  0  0  0  0  0  0  0
  -26.2403   -6.9623   19.5138 C   0  0  0  0  0  0  0  0  0  0  0  0
  -22.0354  -29.1585   21.7427 C   0  0  0  0  0  0  0  0  0  0  0  0
  -24.4969   -7.3707   21.1358 C   0  0  0  0  0  0  0  0  0  0  0  0
  -24.7016  -13.6588   20.7038 C   0  0  0  0  0  0  0  0  0  0  0  0
  -22.5996  -15.0920   20.8914 C   0  0  0  0  0  0  0  0  0  0  0  0
  -28.9361  -25.6859   18.3788 C   0  0  0  0  0  0  0  0  0  0  0  0
  -23.7444  -29.4802   20.0588 C   0  0  0  0  0  0  0  0  0  0  0  0
  -27.7756  -25.9211   19.1406 C   0  0  0  0  0  0  0  0  0  0  0  0
  -23.3127  -29.6170   21.3858 C   0  0  0  0  0  0  0  0  0  0  0  0
  -26.1726  -11.3122   21.0385 C   0  0  0  0  0  0  0  0  0  0  0  0
  -21.1943  -28.5838   20.7902 C   0  0  0  0  0  0  0  0  0  0  0  0
  -26.2838   -8.9721   20.8539 C   0  0  0  0  0  0  0  0  0  0  0  0
  -25.0635   -6.5646   20.1484 C   0  0  0  0  0  0  0  0  0  0  0  0
  -25.1070   -8.5745   21.4885 C   0  0  0  0  0  0  0  0  0  0  0  0
  -23.9425  -14.8712   20.5312 C   0  0  0  0  0  0  0  0  0  0  0  0
  -22.3541  -16.3918   20.5218 C   0  0  0  0  0  0  0  0  0  0  0  0
  -21.6582  -14.2016   21.5053 C   0  0  0  0  0  0  0  0  0  0  0  0
  -26.6023  -28.7322   21.2319 C   0  0  0  0  0  0  0  0  0  0  0  0
  -26.2974  -31.5864   22.7428 C   0  0  0  0  0  0  0  0  0  0  0  0
  -24.2308  -34.0194   23.9499 C   0  0  0  0  0  0  0  0  0  0  0  0
  -24.3009  -21.7351   20.6617 C   0  0  0  0  0  0  0  0  0  0  0  0
  -30.2964  -26.1418   18.8442 C   0  0  0  0  0  0  0  0  0  0  0  0
  -25.0988  -29.9849   19.6425 C   0  0  0  0  0  0  0  0  0  0  0  0
  -24.1870  -30.2364   22.4443 C   0  0  0  0  0  0  0  0  0  0  0  0
  -30.2412  -27.2159   19.9274 C   0  0  0  0  0  0  0  0  0  0  0  0
  -25.0595  -19.6060   17.7236 C   0  0  0  0  0  0  0  0  0  0  0  0
  -29.2342  -26.8335   21.0075 C   0  0  0  0  0  0  0  0  0  0  0  0
  -24.7955  -18.1996   18.2583 C   0  0  0  0  0  0  0  0  0  0  0  0
  -22.4518  -23.6272   22.9061 C   0  0  0  0  0  0  0  0  0  0  0  0
  -20.9367  -22.0316   21.6648 C   0  0  0  0  0  0  0  0  0  0  0  0
  -25.4766  -20.5652   18.8339 C   0  0  0  0  0  0  0  0  0  0  0  0
  -23.5462  -22.5638   22.8705 C   0  0  0  0  0  0  0  0  0  0  0  0
  -22.0739  -21.0063   21.6304 C   0  0  0  0  0  0  0  0  0  0  0  0
  -24.2512  -19.2149   20.5065 C   0  0  0  0  0  0  0  0  0  0  0  0
  -27.8198  -26.7171   20.4268 C   0  0  1  0  0  0  0  0  0  0  0  0
  -26.0850  -30.0761   20.8029 C   0  0  1  0  0  0  0  0  0  0  0  0
  -23.7860  -18.2355   19.4185 C   0  0  2  0  0  0  0  0  0  0  0  0
  -21.0751  -22.9670   22.8640 C   0  0  0  0  0  0  0  0  0  0  0  0
  -24.2717  -36.2130   25.1679 C   0  0  0  0  0  0  0  0  0  0  0  0
  -18.1407  -27.4964   19.7164 C   0  0  0  0  0  0  0  0  0  0  0  0
  -26.8639  -30.1208   25.3583 C   0  0  0  0  0  0  0  0  0  0  0  0
  -25.9683  -32.1104   26.5862 C   0  0  0  0  0  0  0  0  0  0  0  0
  -27.9896  -32.3436   25.1431 C   0  0  0  0  0  0  0  0  0  0  0  0
  -22.9523  -35.4327   21.6856 C   0  0  0  0  0  0  0  0  0  0  0  0
  -19.6775  -24.5938   24.1292 C   0  0  0  0  0  0  0  0  0  0  0  0
  -19.1457  -25.8795   21.3681 C   0  0  0  0  0  0  0  0  0  0  0  0
  -20.3925  -25.1133   21.8012 C   0  0  0  0  0  0  0  0  0  0  0  0
  -25.7238  -32.0413   24.0630 C   0  0  1  0  0  0  0  0  0  0  0  0
  -24.2641  -35.5305   23.8089 C   0  0  2  0  0  0  0  0  0  0  0  0
  -19.4193  -27.0467   20.4124 C   0  0  2  0  0  0  0  0  0  1  0  0
  -26.6204  -31.6405   25.2684 C   0  0  0  0  0  0  0  0  0  0  0  0
  -24.5103  -15.9448   19.9753 N   0  0  0  0  0  0  0  0  0  0  0  0
  -23.5194  -16.8526   19.9833 N   0  0  0  0  0  0  0  0  0  0  0  0
  -25.5050  -30.7089   21.9892 N   0  0  0  0  0  0  0  0  0  0  0  0
  -24.5268  -20.5470   19.9467 N   0  0  0  0  0  0  0  0  0  0  0  0
  -23.3809  -21.6743   21.7193 N   0  0  0  0  0  0  0  0  0  0  0  0
  -21.2574  -17.1741   20.6081 N   0  0  0  0  0  0  0  0  0  0  0  0
  -22.0756  -12.9010   21.8194 N   0  0  0  0  0  0  0  0  0  0  0  0
  -27.2447  -28.0305   20.2297 N   0  0  0  0  0  0  0  0  0  0  0  0
  -25.4986  -33.4772   23.9372 N   0  0  0  0  0  0  0  0  0  0  0  0
  -23.0726  -36.0063   23.0507 N   0  3  0  0  0  0  0  0  0  0  0  0
  -20.0331  -24.0228   22.7792 N   0  3  1  0  0  0  0  0  0  0  0  0
  -20.4770  -14.5439   21.7525 O   0  0  0  0  0  0  0  0  0  0  0  0
  -26.4327  -28.3602   22.3871 O   0  0  0  0  0  0  0  0  0  0  0  0
  -27.4045  -32.0003   22.3898 O   0  0  0  0  0  0  0  0  0  0  0  0
  -23.1850  -33.3838   24.0638 O   0  0  0  0  0  0  0  0  0  0  0  0
  -24.8851  -22.7862   20.3701 O   0  0  0  0  0  0  0  0  0  0  0  0
  -26.8902  -10.1673   21.2023 O   0  0  0  0  0  0  0  0  0  0  0  0
  -19.9499  -28.1423   21.1524 O   0  0  0  0  0  0  0  0  0  1  0  0
  -24.4769   -5.4094   19.8086 F   0  0  0  0  0  0  0  0  0  0  0  0
  -24.5573   -9.3452   22.4369 F   0  0  0  0  0  0  0  0  0  0  0  0
  1  2  1  0  0  0  0
  1  5  2  0  0  0  0
  2  6  2  0  0  0  0
  3  8  2  0  0  0  0
  3 15  1  0  0  0  0
  4  9  1  0  0  0  0
  4 15  2  0  0  0  0
  5 17  1  0  0  0  0
  6 19  1  0  0  0  0
  7 10  2  0  0  0  0
  7 18  1  0  0  0  0
  8 21  1  0  0  0  0
  9 21  2  0  0  0  0
 10 22  1  0  0  0  0
 11 12  2  0  0  0  0
 11 23  1  0  0  0  0
 12 24  1  0  0  0  0
 13 20  1  0  0  0  0
 13 22  2  0  0  0  0
 14 24  2  0  0  0  0
 14 25  1  0  0  0  0
 15 26  1  0  0  0  0
 16 26  1  0  0  0  0
 16 27  2  0  0  0  0
 16 28  1  0  0  0  0
 17 19  2  0  0  0  0
 17 33  1  0  0  0  0
 18 20  2  0  0  0  0
 18 34  1  0  0  0  0
 19 46  1  0  0  0  0
 20 35  1  0  0  0  0
 21 79  1  0  0  0  0
 22 80  1  0  0  0  0
 23 25  2  0  0  0  0
 23 79  1  0  0  0  0
 24 81  1  0  0  0  0
 25 82  1  0  0  0  0
 26 63  2  0  0  0  0
 27 64  1  0  0  0  0
 27 68  1  0  0  0  0
 28 69  1  0  0  0  0
 28 74  2  0  0  0  0
 29 47  1  0  0  0  0
 29 70  1  0  0  0  0
 29 75  2  0  0  0  0
 30 59  1  0  0  0  0
 30 65  1  0  0  0  0
 30 76  2  0  0  0  0
 31 60  1  0  0  0  0
 31 71  1  0  0  0  0
 31 77  2  0  0  0  0
 32 66  1  0  0  0  0
 32 67  1  0  0  0  0
 32 78  2  0  0  0  0
 33 36  1  0  0  0  0
 34 47  1  0  0  0  0
 35 65  1  0  0  0  0
 36 38  1  0  0  0  0
 37 39  1  0  0  0  0
 37 42  1  0  0  0  0
 38 46  1  0  0  0  0
 39 48  1  0  0  0  0
 40 43  1  0  0  0  0
 40 49  1  0  0  0  0
 41 44  1  0  0  0  0
 41 49  1  0  0  0  0
 42 66  1  0  0  0  0
 43 67  1  0  0  0  0
 44 67  1  0  0  0  0
 45 48  1  0  0  0  0
 45 66  1  0  0  0  0
 46 70  1  0  0  0  0
 47 65  1  0  0  0  0
 48 64  1  0  0  0  0
 49 73  1  0  0  0  0
 50 60  1  0  0  0  0
 51 61  1  0  0  0  0
 52 62  1  0  0  0  0
 53 62  1  0  0  0  0
 54 62  1  0  0  0  0
 55 72  1  0  0  0  0
 56 73  1  0  0  0  0
 57 58  1  0  0  0  0
 57 61  1  0  0  0  0
 58 73  1  0  0  0  0
 59 62  1  0  0  0  0
 59 71  1  0  0  0  0
 60 72  1  0  0  0  0
 61 80  1  0  0  0  0
 63 64  1  0  0  0  0
M  CHG  2  72   1  73   1
M  ISO  4  32 100  61 101  67 100  80 101
M  END
> <Batch ID>
0117

> <Smiles>
CNC(C)C(=O)NC(C(=O)N1Cc2cc([101O:1][101CH:1](C)CCN(C)C3CC[100N:0]([100C:0](=O)N4CCCC(n5nc(-c6ccc(Oc7ccc(F)cc7F)cc6)c(C(N)=O)c5N)C4)CC3)ccc2CC1C(=O)NC1CCCc2ccccc21)C(C)(C)C

> <Shape>
0.254

> <Color>
0.098

> <Negative vol penalty>
0.000

$$$$

  -OEChem-04052320153D

 85 93  0     1  0  0  0  0  0999 V2000
  -32.3070  -32.0928   22.2049 C   0  0  0  0  0  0  0  0  0  0  0  0
  -31.6079  -31.0422   21.6193 C   0  0  0  0  0  0  0  0  0  0  0  0
  -26.6691  -12.5301   21.6466 C   0  0  0  0  0  0  0  0  0  0  0  0
  -26.1852  -13.7396   19.6119 C   0  0  0  0  0  0  0  0  0  0  0  0
  -31.7921  -32.7274   23.3345 C   0  0  0  0  0  0  0  0  0  0  0  0
  -30.3939  -30.6248   22.1637 C   0  0  0  0  0  0  0  0  0  0  0  0
  -25.5262  -28.5034   19.1122 C   0  0  0  0  0  0  0  0  0  0  0  0
  -25.3753  -12.0088   21.6444 C   0  0  0  0  0  0  0  0  0  0  0  0
  -24.8915  -13.2183   19.6097 C   0  0  0  0  0  0  0  0  0  0  0  0
  -25.0679  -27.2113   18.8592 C   0  0  0  0  0  0  0  0  0  0  0  0
  -23.6826   -9.5514   20.0542 C   0  0  0  0  0  0  0  0  0  0  0  0
  -23.5319   -8.1896   20.3157 C   0  0  0  0  0  0  0  0  0  0  0  0
  -23.5821  -27.3740   20.7526 C   0  0  0  0  0  0  0  0  0  0  0  0
  -22.1644   -8.7101   22.2383 C   0  0  0  0  0  0  0  0  0  0  0  0
  -27.0741  -13.3955   20.6304 C   0  0  0  0  0  0  0  0  0  0  0  0
  -29.5530  -13.3768   20.0287 C   0  0  0  0  0  0  0  0  0  0  0  0
  -30.5664  -32.3239   23.8873 C   0  0  0  0  0  0  0  0  0  0  0  0
  -25.0230  -29.2377   20.1958 C   0  0  0  0  0  0  0  0  0  0  0  0
  -29.8627  -31.2537   23.3026 C   0  0  0  0  0  0  0  0  0  0  0  0
  -24.0339  -28.6762   21.0158 C   0  0  0  0  0  0  0  0  0  0  0  0
  -24.4865  -12.3529   20.6260 C   0  0  0  0  0  0  0  0  0  0  0  0
  -24.0978  -26.6453   19.6811 C   0  0  0  0  0  0  0  0  0  0  0  0
  -23.0742  -10.4926   20.8848 C   0  0  0  0  0  0  0  0  0  0  0  0
  -22.7729   -7.7689   21.4077 C   0  0  0  0  0  0  0  0  0  0  0  0
  -22.3151  -10.0719   21.9768 C   0  0  0  0  0  0  0  0  0  0  0  0
  -28.4102  -13.9348   20.6324 C   0  0  0  0  0  0  0  0  0  0  0  0
  -30.5610  -14.2645   20.3157 C   0  0  0  0  0  0  0  0  0  0  0  0
  -29.6911  -12.1645   19.2758 C   0  0  0  0  0  0  0  0  0  0  0  0
  -26.2785  -30.4874   22.8351 C   0  0  0  0  0  0  0  0  0  0  0  0
  -23.3066  -31.7385   23.1887 C   0  0  0  0  0  0  0  0  0  0  0  0
  -19.9747  -31.5366   22.4784 C   0  0  0  0  0  0  0  0  0  0  0  0
  -30.6021  -20.1154   21.5871 C   0  0  0  0  0  0  0  0  0  0  0  0
  -30.0731  -33.0091   25.1370 C   0  0  0  0  0  0  0  0  0  0  0  0
  -25.5085  -30.6404   20.4393 C   0  0  0  0  0  0  0  0  0  0  0  0
  -23.4466  -29.4303   22.1797 C   0  0  0  0  0  0  0  0  0  0  0  0
  -28.5971  -32.7525   25.4302 C   0  0  0  0  0  0  0  0  0  0  0  0
  -31.8981  -17.4785   23.5980 C   0  0  0  0  0  0  0  0  0  0  0  0
  -28.2736  -31.2691   25.2826 C   0  0  0  0  0  0  0  0  0  0  0  0
  -31.2543  -16.2209   23.0115 C   0  0  0  0  0  0  0  0  0  0  0  0
  -26.1559  -22.3794   17.7407 C   0  0  0  0  0  0  0  0  0  0  0  0
  -30.9414  -18.6684   23.5688 C   0  0  0  0  0  0  0  0  0  0  0  0
  -29.7162  -17.7058   21.6594 C   0  0  0  0  0  0  0  0  0  0  0  0
  -27.4619  -21.6284   17.9179 C   0  0  0  0  0  0  0  0  0  0  0  0
  -28.5305  -30.7884   23.8492 C   0  0  1  0  0  0  0  0  0  0  0  0
  -25.2985  -31.1041   21.8775 C   0  0  1  0  0  0  0  0  0  0  0  0
  -25.4152  -22.1105   19.0426 C   0  0  1  0  0  0  0  0  0  0  0  0
  -30.6617  -16.4932   21.6158 C   0  0  2  0  0  0  0  0  0  0  0  0
  -26.5189  -22.2966   20.0850 C   0  0  1  0  0  0  0  0  0  0  0  0
  -17.7892  -32.6800   22.9406 C   0  0  0  0  0  0  0  0  0  0  0  0
  -23.0170  -22.5312   18.4677 C   0  0  0  0  0  0  0  0  0  0  0  0
  -27.6983  -23.1744   22.7808 C   0  0  0  0  0  0  0  0  0  0  0  0
  -27.0675  -20.9283   23.6864 C   0  0  0  0  0  0  0  0  0  0  0  0
  -23.2593  -30.5133   25.9827 C   0  0  0  0  0  0  0  0  0  0  0  0
  -20.7790  -30.8529   26.0139 C   0  0  0  0  0  0  0  0  0  0  0  0
  -22.3033  -32.8198   25.8387 C   0  0  0  0  0  0  0  0  0  0  0  0
  -19.5454  -32.1290   19.6107 C   0  0  0  0  0  0  0  0  0  0  0  0
  -26.2498  -21.5913   21.4039 C   0  0  0  0  0  0  0  0  0  0  0  0
  -30.1958  -21.4365   19.5258 C   0  0  0  0  0  0  0  0  0  0  0  0
  -29.0279  -22.3786   19.7505 C   0  0  0  0  0  0  0  0  0  0  0  0
  -24.5666  -24.4743   18.8308 C   0  0  0  0  0  0  0  0  0  1  0  0
  -22.0272  -31.2846   23.8490 C   0  0  1  0  0  0  0  0  0  0  0  0
  -18.9813  -32.5808   22.0016 C   0  0  2  0  0  0  0  0  0  0  0  0
  -24.2288  -23.0397   19.2456 C   0  0  2  0  0  0  0  0  0  0  0  0
  -27.4004  -21.7187   22.4188 C   0  0  0  0  0  0  0  0  0  0  0  0
  -22.1045  -31.3525   25.4004 C   0  0  0  0  0  0  0  0  0  0  0  0
  -28.6673  -15.0876   21.2559 N   0  0  0  0  0  0  0  0  0  0  0  0
  -29.9833  -15.2612   21.0457 N   0  0  0  0  0  0  0  0  0  0  0  0
  -23.9583  -30.7961   22.3807 N   0  0  0  0  0  0  0  0  0  0  0  0
  -30.4162  -18.8737   22.2168 N   0  0  0  0  0  0  0  0  0  0  0  0
  -31.8764  -14.2819   20.0124 N   0  0  0  0  0  0  0  0  0  0  0  0
  -28.5543  -11.3698   19.0746 N   0  0  0  0  0  0  0  0  0  0  0  0
  -27.4526  -31.2021   22.9766 N   0  0  0  0  0  0  0  0  0  0  0  0
  -20.9595  -32.0915   23.2681 N   0  0  0  0  0  0  0  0  0  0  0  0
  -30.0788  -20.2237   20.3044 N   0  0  0  0  0  0  0  0  0  0  0  0
  -27.7440  -21.6847   19.4103 N   0  3  2  0  0  0  0  0  0  0  0  0
  -18.4805  -32.2361   20.6410 N   0  3  0  0  0  0  0  0  0  0  0  0
  -30.7933  -11.7885   18.8096 O   0  0  0  0  0  0  0  0  0  0  0  0
  -25.9901  -29.4413   23.4045 O   0  0  0  0  0  0  0  0  0  0  0  0
  -23.7091  -32.8892   23.3771 O   0  0  0  0  0  0  0  0  0  0  0  0
  -19.8839  -30.3470   22.1832 O   0  0  0  0  0  0  0  0  0  0  0  0
  -31.1954  -21.0560   22.1258 O   0  0  0  0  0  0  0  0  0  0  0  0
  -23.2240  -11.8442   20.6234 O   0  0  0  0  0  0  0  0  0  0  0  0
  -23.6491  -25.3840   19.4368 O   0  0  0  0  0  0  0  0  0  1  0  0
  -22.6270   -6.4611   21.6578 F   0  0  0  0  0  0  0  0  0  0  0  0
  -21.7272  -10.9714   22.7776 F   0  0  0  0  0  0  0  0  0  0  0  0
  1  2  1  0  0  0  0
  1  5  2  0  0  0  0
  2  6  2  0  0  0  0
  3  8  2  0  0  0  0
  3 15  1  0  0  0  0
  4  9  1  0  0  0  0
  4 15  2  0  0  0  0
  5 17  1  0  0  0  0
  6 19  1  0  0  0  0
  7 10  2  0  0  0  0
  7 18  1  0  0  0  0
  8 21  1  0  0  0  0
  9 21  2  0  0  0  0
 10 22  1  0  0  0  0
 11 12  2  0  0  0  0
 11 23  1  0  0  0  0
 12 24  1  0  0  0  0
 13 20  1  0  0  0  0
 13 22  2  0  0  0  0
 14 24  2  0  0  0  0
 14 25  1  0  0  0  0
 15 26  1  0  0  0  0
 16 26  1  0  0  0  0
 16 27  2  0  0  0  0
 16 28  1  0  0  0  0
 17 19  2  0  0  0  0
 17 33  1  0  0  0  0
 18 20  2  0  0  0  0
 18 34  1  0  0  0  0
 19 44  1  0  0  0  0
 20 35  1  0  0  0  0
 21 82  1  0  0  0  0
 22 83  1  0  0  0  0
 23 25  2  0  0  0  0
 23 82  1  0  0  0  0
 24 84  1  0  0  0  0
 25 85  1  0  0  0  0
 26 66  2  0  0  0  0
 27 67  1  0  0  0  0
 27 70  1  0  0  0  0
 28 71  1  0  0  0  0
 28 77  2  0  0  0  0
 29 45  1  0  0  0  0
 29 72  1  0  0  0  0
 29 78  2  0  0  0  0
 30 61  1  0  0  0  0
 30 68  1  0  0  0  0
 30 79  2  0  0  0  0
 31 62  1  0  0  0  0
 31 73  1  0  0  0  0
 31 80  2  0  0  0  0
 32 69  1  0  0  0  0
 32 74  1  0  0  0  0
 32 81  2  0  0  0  0
 33 36  1  0  0  0  0
 34 45  1  0  0  0  0
 35 68  1  0  0  0  0
 36 38  1  0  0  0  0
 37 39  1  0  0  0  0
 37 41  1  0  0  0  0
 38 44  1  0  0  0  0
 39 47  1  0  0  0  0
 40 43  1  0  0  0  0
 40 46  1  0  0  0  0
 41 69  1  0  0  0  0
 42 47  1  0  0  0  0
 42 69  1  0  0  0  0
 43 75  1  0  0  0  0
 44 72  1  0  0  0  0
 45 68  1  0  0  0  0
 46 48  1  0  0  0  0
 46 63  1  0  0  0  0
 47 67  1  0  0  0  0
 48 57  1  0  0  0  0
 48 75  1  0  0  0  0
 49 62  1  0  0  0  0
 50 63  1  0  0  0  0
 51 64  1  0  0  0  0
 52 64  1  0  0  0  0
 53 65  1  0  0  0  0
 54 65  1  0  0  0  0
 55 65  1  0  0  0  0
 56 76  1  0  0  0  0
 57 64  1  0  0  0  0
 58 59  1  0  0  0  0
 58 74  1  0  0  0  0
 59 75  1  0  0  0  0
 60 63  1  0  0  0  0
 60 83  1  0  0  0  0
 61 65  1  0  0  0  0
 61 73  1  0  0  0  0
 62 76  1  0  0  0  0
 66 67  1  0  0  0  0
M  CHG  2  75   1  76   1
M  ISO  4  32 100  60 101  74 100  83 101
M  END
> <Batch ID>
0117

> <Smiles>
CNC(C)C(=O)NC(C(=O)N1Cc2cc([101O:1][101CH2:1]C(C)C3CCN(CC[100NH:0][100C:0](=O)N4CCCC(n5nc(-c6ccc(Oc7ccc(F)cc7F)cc6)c(C(N)=O)c5N)C4)C3CC(C)C)ccc2CC1C(=O)NC1CCCc2ccccc21)C(C)(C)C

> <Shape>
0.262

> <Color>
0.072

> <Negative vol penalty>
0.000

$$$$

  -OEChem-04052320153D

 87 95  0     1  0  0  0  0  0999 V2000
  -17.1241  -30.5751   21.0513 C   0  0  0  0  0  0  0  0  0  0  0  0
  -18.1737  -30.2941   20.1826 C   0  0  0  0  0  0  0  0  0  0  0  0
  -23.5489   -9.8636   19.8223 C   0  0  0  0  0  0  0  0  0  0  0  0
  -24.4388   -9.9743   22.0657 C   0  0  0  0  0  0  0  0  0  0  0  0
  -17.3649  -30.6888   22.4199 C   0  0  0  0  0  0  0  0  0  0  0  0
  -19.4650  -30.1275   20.6818 C   0  0  0  0  0  0  0  0  0  0  0  0
  -25.4904  -26.4497   19.4634 C   0  0  0  0  0  0  0  0  0  0  0  0
  -23.2940   -8.5026   19.9905 C   0  0  0  0  0  0  0  0  0  0  0  0
  -24.1839   -8.6133   22.2340 C   0  0  0  0  0  0  0  0  0  0  0  0
  -26.8584  -26.6519   19.2858 C   0  0  0  0  0  0  0  0  0  0  0  0
  -23.4356   -5.2460   23.3825 C   0  0  0  0  0  0  0  0  0  0  0  0
  -22.8438   -4.8392   24.5783 C   0  0  0  0  0  0  0  0  0  0  0  0
  -27.1421  -26.7924   21.6772 C   0  0  0  0  0  0  0  0  0  0  0  0
  -20.9292   -6.2349   24.1056 C   0  0  0  0  0  0  0  0  0  0  0  0
  -29.2115  -23.6899   21.1379 C   0  0  0  0  0  0  0  0  0  0  0  0
  -24.1213  -10.5995   20.8599 C   0  0  0  0  0  0  0  0  0  0  0  0
  -23.5183  -13.0754   20.9778 C   0  0  0  0  0  0  0  0  0  0  0  0
  -18.6581  -30.5140   22.9373 C   0  0  0  0  0  0  0  0  0  0  0  0
  -24.9354  -26.4282   20.7510 C   0  0  0  0  0  0  0  0  0  0  0  0
  -19.7236  -30.2402   22.0585 C   0  0  0  0  0  0  0  0  0  0  0  0
  -25.7672  -26.5872   21.8686 C   0  0  0  0  0  0  0  0  0  0  0  0
  -23.6115   -7.8774   21.1964 C   0  0  0  0  0  0  0  0  0  0  0  0
  -27.6840  -26.8261   20.3926 C   0  0  0  0  0  0  0  0  0  0  0  0
  -22.7742   -6.1472   22.5482 C   0  0  0  0  0  0  0  0  0  0  0  0
  -21.5906   -5.3336   24.9399 C   0  0  0  0  0  0  0  0  0  0  0  0
  -21.5210   -6.6416   22.9098 C   0  0  0  0  0  0  0  0  0  0  0  0
  -24.3854  -12.0053   20.6865 C   0  0  0  0  0  0  0  0  0  0  0  0
  -29.6366  -24.6825   20.2787 C   0  0  0  0  0  0  0  0  0  0  0  0
  -28.9965  -22.4541   20.5627 C   0  0  0  0  0  0  0  0  0  0  0  0
  -24.2332  -14.1984   20.6397 C   0  0  0  0  0  0  0  0  0  0  0  0
  -29.5957  -23.2456   18.5178 C   0  0  0  0  0  0  0  0  0  0  0  0
  -22.1859  -13.0560   21.5068 C   0  0  0  0  0  0  0  0  0  0  0  0
  -22.7869  -28.1880   22.2973 C   0  0  0  0  0  0  0  0  0  0  0  0
  -23.1675  -25.9314   24.5962 C   0  0  0  0  0  0  0  0  0  0  0  0
  -25.1432  -23.5270   25.9970 C   0  0  0  0  0  0  0  0  0  0  0  0
  -28.9760  -17.1395   20.6663 C   0  0  0  0  0  0  0  0  0  0  0  0
  -18.8777  -30.6931   24.4186 C   0  0  0  0  0  0  0  0  0  0  0  0
  -23.4620  -26.1824   20.9269 C   0  0  0  0  0  0  0  0  0  0  0  0
  -25.2239  -26.5522   23.2729 C   0  0  0  0  0  0  0  0  0  0  0  0
  -20.2099  -30.1318   24.9092 C   0  0  0  0  0  0  0  0  0  0  0  0
  -28.5852  -14.6928   18.1094 C   0  0  0  0  0  0  0  0  0  0  0  0
  -21.3441  -30.5649   23.9857 C   0  0  0  0  0  0  0  0  0  0  0  0
  -27.3907  -13.8605   18.5791 C   0  0  0  0  0  0  0  0  0  0  0  0
  -29.4553  -15.1426   19.2811 C   0  0  0  0  0  0  0  0  0  0  0  0
  -27.5373  -15.0178   20.8237 C   0  0  0  0  0  0  0  0  0  0  0  0
  -21.1339  -30.0283   22.5646 C   0  0  1  0  0  0  0  0  0  0  0  0
  -22.9262  -26.6924   22.2612 C   0  0  1  0  0  0  0  0  0  0  0  0
  -26.5994  -14.5882   19.6825 C   0  0  2  0  0  0  0  0  0  0  0  0
  -31.3344  -26.5191   20.5745 C   0  0  0  0  0  0  0  0  0  0  0  0
  -25.7916  -21.6453   27.5254 C   0  0  0  0  0  0  0  0  0  0  0  0
  -26.9618  -20.1089   20.1867 C   0  0  0  0  0  0  0  0  0  0  0  0
  -23.7425  -28.2009   26.5529 C   0  0  0  0  0  0  0  0  0  0  0  0
  -24.7018  -26.5070   28.1274 C   0  0  0  0  0  0  0  0  0  0  0  0
  -22.2996  -26.3748   27.4682 C   0  0  0  0  0  0  0  0  0  0  0  0
  -27.2761  -19.3777   23.1550 C   0  0  0  0  0  0  0  0  0  0  0  0
  -29.7302  -19.1260   22.8105 C   0  0  0  0  0  0  0  0  0  0  0  0
  -24.0908  -21.4901   24.1255 C   0  0  0  0  0  0  0  0  0  0  0  0
  -29.5337  -21.7011   16.7104 C   0  0  0  0  0  0  0  0  0  0  0  0
  -29.8988  -26.0706   20.8167 C   0  0  1  0  0  0  0  0  0  1  0  0
  -24.0825  -25.7595   25.7846 C   0  0  1  0  0  0  0  0  0  0  0  0
  -24.8443  -22.1021   26.4269 C   0  0  2  0  0  0  0  0  0  0  0  0
  -28.2966  -20.0884   20.9358 C   0  0  2  0  0  0  0  0  0  0  0  0
  -23.7169  -26.7132   26.9568 C   0  0  0  0  0  0  0  0  0  0  0  0
  -28.3620  -19.0637   22.1084 C   0  0  0  0  0  0  0  0  0  0  0  0
  -25.5612  -12.4120   20.2005 N   0  0  0  0  0  0  0  0  0  0  0  0
  -29.8397  -24.4946   18.9582 N   0  0  0  0  0  0  0  0  0  0  0  0
  -29.1792  -22.1957   19.2511 N   0  0  0  0  0  0  0  0  0  0  0  0
  -25.4379  -13.7501   20.1838 N   0  0  0  0  0  0  0  0  0  0  0  0
  -23.7758  -26.3152   23.3927 N   0  0  0  0  0  0  0  0  0  0  0  0
  -28.6447  -15.8270   20.2912 N   0  0  0  0  0  0  0  0  0  0  0  0
  -23.9425  -15.5157   20.6908 N   0  0  0  0  0  0  0  0  0  0  0  0
  -21.6010  -11.8163   21.7992 N   0  0  0  0  0  0  0  0  0  0  0  0
  -28.5553  -21.4088   21.4108 N   0  0  0  0  0  0  0  0  0  0  0  0
  -21.4920  -28.6278   22.4951 N   0  0  0  0  0  0  0  0  0  0  0  0
  -24.0399  -24.3430   26.1311 N   0  0  0  0  0  0  0  0  0  0  0  0
  -28.1527  -17.7171   21.6251 N   0  0  0  0  0  0  0  0  0  0  0  0
  -24.9826  -21.1724   25.2704 N   0  3  0  0  0  0  0  0  0  0  0  0
  -21.5271  -14.1061   21.6987 O   0  0  0  0  0  0  0  0  0  0  0  0
  -23.7810  -28.8909   22.1575 O   0  0  0  0  0  0  0  0  0  0  0  0
  -21.9585  -25.7254   24.7291 O   0  0  0  0  0  0  0  0  0  0  0  0
  -26.2463  -23.8816   25.5871 O   0  0  0  0  0  0  0  0  0  0  0  0
  -29.9313  -17.7532   20.1787 O   0  0  0  0  0  0  0  0  0  0  0  0
  -23.3627   -6.5495   21.3610 O   0  0  0  0  0  0  0  0  0  0  0  0
  -29.0195  -27.0242   20.2220 O   0  0  0  0  0  0  0  0  0  1  0  0
  -29.7910  -23.0182   17.1753 O   0  0  0  0  0  0  0  0  0  0  0  0
  -21.0218   -4.9418   26.0875 F   0  0  0  0  0  0  0  0  0  0  0  0
  -20.8802   -7.5068   22.1118 F   0  0  0  0  0  0  0  0  0  0  0  0
  1  2  1  0  0  0  0
  1  5  2  0  0  0  0
  2  6  2  0  0  0  0
  3  8  2  0  0  0  0
  3 16  1  0  0  0  0
  4  9  1  0  0  0  0
  4 16  2  0  0  0  0
  5 18  1  0  0  0  0
  6 20  1  0  0  0  0
  7 10  2  0  0  0  0
  7 19  1  0  0  0  0
  8 22  1  0  0  0  0
  9 22  2  0  0  0  0
 10 23  1  0  0  0  0
 11 12  2  0  0  0  0
 11 24  1  0  0  0  0
 12 25  1  0  0  0  0
 13 21  1  0  0  0  0
 13 23  2  0  0  0  0
 14 25  2  0  0  0  0
 14 26  1  0  0  0  0
 15 28  1  0  0  0  0
 15 29  2  0  0  0  0
 16 27  1  0  0  0  0
 17 27  1  0  0  0  0
 17 30  2  0  0  0  0
 17 32  1  0  0  0  0
 18 20  2  0  0  0  0
 18 37  1  0  0  0  0
 19 21  2  0  0  0  0
 19 38  1  0  0  0  0
 20 46  1  0  0  0  0
 21 39  1  0  0  0  0
 22 83  1  0  0  0  0
 23 84  1  0  0  0  0
 24 26  2  0  0  0  0
 24 83  1  0  0  0  0
 25 86  1  0  0  0  0
 26 87  1  0  0  0  0
 27 65  2  0  0  0  0
 28 59  1  0  0  0  0
 28 66  2  0  0  0  0
 29 67  1  0  0  0  0
 29 73  1  0  0  0  0
 30 68  1  0  0  0  0
 30 71  1  0  0  0  0
 31 66  1  0  0  0  0
 31 67  2  0  0  0  0
 31 85  1  0  0  0  0
 32 72  1  0  0  0  0
 32 78  2  0  0  0  0
 33 47  1  0  0  0  0
 33 74  1  0  0  0  0
 33 79  2  0  0  0  0
 34 60  1  0  0  0  0
 34 69  1  0  0  0  0
 34 80  2  0  0  0  0
 35 61  1  0  0  0  0
 35 75  1  0  0  0  0
 35 81  2  0  0  0  0
 36 70  1  0  0  0  0
 36 76  1  0  0  0  0
 36 82  2  0  0  0  0
 37 40  1  0  0  0  0
 38 47  1  0  0  0  0
 39 69  1  0  0  0  0
 40 42  1  0  0  0  0
 41 43  1  0  0  0  0
 41 44  1  0  0  0  0
 42 46  1  0  0  0  0
 43 48  1  0  0  0  0
 44 70  1  0  0  0  0
 45 48  1  0  0  0  0
 45 70  1  0  0  0  0
 46 74  1  0  0  0  0
 47 69  1  0  0  0  0
 48 68  1  0  0  0  0
 49 59  1  0  0  0  0
 50 61  1  0  0  0  0
 51 62  1  0  0  0  0
 52 63  1  0  0  0  0
 53 63  1  0  0  0  0
 54 63  1  0  0  0  0
 55 64  1  0  0  0  0
 56 64  1  0  0  0  0
 57 77  1  0  0  0  0
 58 85  1  0  0  0  0
 59 84  1  0  0  0  0
 60 63  1  0  0  0  0
 60 75  1  0  0  0  0
 61 77  1  0  0  0  0
 62 64  1  0  0  0  0
 62 73  1  0  0  0  0
 64 76  1  0  0  0  0
 65 68  1  0  0  0  0
M  CHG  1  77   1
M  ISO  4  36 100  59 101  76 100  84 101
M  END
> <Batch ID>
0117

> <Smiles>
CNC(C)C(=O)NC(C(=O)N1Cc2cc([101O:1][101CH:1](C)c3cc(NC(C)C(C)(C)[100NH:0][100C:0](=O)N4CCCC(n5nc(-c6ccc(Oc7ccc(F)cc7F)cc6)c(C(N)=O)c5N)C4)nc(OC)n3)ccc2CC1C(=O)NC1CCCc2ccccc21)C(C)(C)C

> <Shape>
0.285

> <Color>
0.110

> <Negative vol penalty>
0.000

$$$$

  -OEChem-04052320153D

 79 87  0     1  0  0  0  0  0999 V2000
  -31.7658  -26.3598   14.3678 C   0  0  0  0  0  0  0  0  0  0  0  0
  -30.5988  -25.6764   14.6941 C   0  0  0  0  0  0  0  0  0  0  0  0
  -20.3846  -19.5508   20.0224 C   0  0  0  0  0  0  0  0  0  0  0  0
  -30.4565  -18.3328   21.4257 C   0  0  0  0  0  0  0  0  0  0  0  0
  -28.5910  -17.9426   19.9408 C   0  0  0  0  0  0  0  0  0  0  0  0
  -32.4534  -27.0713   15.3501 C   0  0  0  0  0  0  0  0  0  0  0  0
  -30.1192  -25.7033   16.0032 C   0  0  0  0  0  0  0  0  0  0  0  0
  -24.2577  -25.7048   17.7773 C   0  0  0  0  0  0  0  0  0  0  0  0
  -31.0242  -17.1214   21.0308 C   0  0  0  0  0  0  0  0  0  0  0  0
  -29.1587  -16.7313   19.5459 C   0  0  0  0  0  0  0  0  0  0  0  0
  -23.4114  -24.6891   18.2199 C   0  0  0  0  0  0  0  0  0  0  0  0
  -29.4240  -13.5892   20.7657 C   0  0  0  0  0  0  0  0  0  0  0  0
  -28.5875  -12.4756   20.6901 C   0  0  0  0  0  0  0  0  0  0  0  0
  -20.7913  -19.3555   21.3654 C   0  0  0  0  0  0  0  0  0  0  0  0
  -23.9140  -25.2744   20.5055 C   0  0  0  0  0  0  0  0  0  0  0  0
  -29.0999  -12.2502   18.3398 C   0  0  0  0  0  0  0  0  0  0  0  0
  -20.1976  -20.9034   19.8418 C   0  0  0  0  0  0  0  0  0  0  0  0
  -29.2398  -18.7434   20.8807 C   0  0  0  0  0  0  0  0  0  0  0  0
  -28.8538  -21.2587   20.7034 C   0  0  0  0  0  0  0  0  0  0  0  0
  -31.9768  -27.1148   16.6698 C   0  0  0  0  0  0  0  0  0  0  0  0
  -24.9481  -26.5072   18.6970 C   0  0  0  0  0  0  0  0  0  0  0  0
  -30.8018  -26.4149   17.0043 C   0  0  0  0  0  0  0  0  0  0  0  0
  -24.7665  -26.3013   20.0720 C   0  0  0  0  0  0  0  0  0  0  0  0
  -30.3753  -16.3207   20.0909 C   0  0  0  0  0  0  0  0  0  0  0  0
  -23.2417  -24.4719   19.5841 C   0  0  0  0  0  0  0  0  0  0  0  0
  -30.0984  -14.0334   19.6283 C   0  0  0  0  0  0  0  0  0  0  0  0
  -28.4255  -11.8061   19.4772 C   0  0  0  0  0  0  0  0  0  0  0  0
  -29.9364  -13.3639   18.4154 C   0  0  0  0  0  0  0  0  0  0  0  0
  -28.6526  -19.9943   21.2887 C   0  0  0  0  0  0  0  0  0  0  0  0
  -20.8403  -20.5949   21.9646 C   0  0  0  0  0  0  0  0  0  0  0  0
  -28.0788  -22.1107   21.4518 C   0  0  0  0  0  0  0  0  0  0  0  0
  -29.6683  -21.6300   19.5834 C   0  0  0  0  0  0  0  0  0  0  0  0
  -28.0127  -27.0493   19.3435 C   0  0  0  0  0  0  0  0  0  0  0  0
  -26.7909  -29.2822   21.3542 C   0  0  0  0  0  0  0  0  0  0  0  0
  -24.1469  -30.3620   23.2224 C   0  0  0  0  0  0  0  0  0  0  0  0
  -23.1861  -21.2888   24.8040 C   0  0  0  0  0  0  0  0  0  0  0  0
  -32.7800  -27.8583   17.7075 C   0  0  0  0  0  0  0  0  0  0  0  0
  -25.8366  -27.6161   18.2036 C   0  0  0  0  0  0  0  0  0  0  0  0
  -25.4691  -27.1483   21.1003 C   0  0  0  0  0  0  0  0  0  0  0  0
  -32.0021  -28.1454   18.9892 C   0  0  0  0  0  0  0  0  0  0  0  0
  -26.2993  -22.6569   25.8593 C   0  0  0  0  0  0  0  0  0  0  0  0
  -31.2603  -26.8964   19.4546 C   0  0  0  0  0  0  0  0  0  0  0  0
  -27.2736  -22.2437   24.7547 C   0  0  0  0  0  0  0  0  0  0  0  0
  -25.2595  -21.5716   26.1297 C   0  0  0  0  0  0  0  0  0  0  0  0
  -25.4913  -20.7019   23.8355 C   0  0  0  0  0  0  0  0  0  0  0  0
  -30.2365  -26.4407   18.4079 C   0  0  1  0  0  0  0  0  0  0  0  0
  -26.8881  -28.0386   19.2251 C   0  0  1  0  0  0  0  0  0  0  0  0
  -26.5246  -21.7873   23.4883 C   0  0  2  0  0  0  0  0  0  0  0  0
  -23.4606  -32.1993   24.7878 C   0  0  0  0  0  0  0  0  0  0  0  0
  -28.4360  -27.9973   23.5797 C   0  0  0  0  0  0  0  0  0  0  0  0
  -27.0183  -29.2227   25.2400 C   0  0  0  0  0  0  0  0  0  0  0  0
  -28.4120  -30.4979   23.6109 C   0  0  0  0  0  0  0  0  0  0  0  0
  -21.9674  -31.2392   21.4227 C   0  0  0  0  0  0  0  0  0  0  0  0
  -21.2025  -20.9646   23.3484 C   0  0  0  0  0  0  0  0  0  0  0  0
  -20.3929  -23.0185   21.2527 C   0  0  0  0  0  0  0  0  0  0  0  0
  -21.7665  -23.6804   21.2733 C   0  0  0  0  0  0  0  0  0  1  0  0
  -26.3443  -29.2924   22.7963 C   0  0  1  0  0  0  0  0  0  0  0  0
  -23.4886  -31.7245   23.3433 C   0  0  2  0  0  0  0  0  0  0  0  0
  -27.5408  -29.2352   23.7876 C   0  0  0  0  0  0  0  0  0  0  0  0
  -27.8156  -20.0348   22.3288 N   0  0  0  0  0  0  0  0  0  0  0  0
  -20.4772  -21.5282   21.0291 N   0  0  0  0  0  0  0  0  0  0  0  0
  -27.4840  -21.3350   22.4030 N   0  0  0  0  0  0  0  0  0  0  0  0
  -26.3321  -28.2158   20.5681 N   0  0  0  0  0  0  0  0  0  0  0  0
  -24.5844  -21.1848   24.8886 N   0  0  0  0  0  0  0  0  0  0  0  0
  -27.8550  -23.4402   21.3825 N   0  0  0  0  0  0  0  0  0  0  0  0
  -30.3997  -20.6298   18.9285 N   0  0  0  0  0  0  0  0  0  0  0  0
  -29.0535  -27.2725   18.4623 N   0  0  0  0  0  0  0  0  0  0  0  0
  -25.4948  -30.4682   22.9522 N   0  0  0  0  0  0  0  0  0  0  0  0
  -22.6269  -20.9078   23.5905 N   0  0  0  0  0  0  0  0  0  0  0  0
  -22.0871  -31.6692   22.8396 N   0  3  0  0  0  0  0  0  0  0  0  0
  -29.7579  -22.8163   19.1856 O   0  0  0  0  0  0  0  0  0  0  0  0
  -27.9422  -26.1508   20.1739 O   0  0  0  0  0  0  0  0  0  0  0  0
  -27.5142  -30.1910   20.9387 O   0  0  0  0  0  0  0  0  0  0  0  0
  -23.5280  -29.3088   23.3580 O   0  0  0  0  0  0  0  0  0  0  0  0
  -22.4884  -21.6965   25.7389 O   0  0  0  0  0  0  0  0  0  0  0  0
  -30.9291  -15.1387   19.7051 O   0  0  0  0  0  0  0  0  0  0  0  0
  -22.4167  -23.4807   20.0188 O   0  0  0  0  0  0  0  0  0  1  0  0
  -27.6234  -10.7357   19.4052 F   0  0  0  0  0  0  0  0  0  0  0  0
  -30.5826  -13.7852   17.3196 F   0  0  0  0  0  0  0  0  0  0  0  0
  1  2  1  0  0  0  0
  1  6  2  0  0  0  0
  2  7  2  0  0  0  0
  3 14  1  0  0  0  0
  3 17  2  0  0  0  0
  4  9  2  0  0  0  0
  4 18  1  0  0  0  0
  5 10  1  0  0  0  0
  5 18  2  0  0  0  0
  6 20  1  0  0  0  0
  7 22  1  0  0  0  0
  8 11  2  0  0  0  0
  8 21  1  0  0  0  0
  9 24  1  0  0  0  0
 10 24  2  0  0  0  0
 11 25  1  0  0  0  0
 12 13  2  0  0  0  0
 12 26  1  0  0  0  0
 13 27  1  0  0  0  0
 14 30  2  0  0  0  0
 15 23  1  0  0  0  0
 15 25  2  0  0  0  0
 16 27  2  0  0  0  0
 16 28  1  0  0  0  0
 17 61  1  0  0  0  0
 18 29  1  0  0  0  0
 19 29  1  0  0  0  0
 19 31  2  0  0  0  0
 19 32  1  0  0  0  0
 20 22  2  0  0  0  0
 20 37  1  0  0  0  0
 21 23  2  0  0  0  0
 21 38  1  0  0  0  0
 22 46  1  0  0  0  0
 23 39  1  0  0  0  0
 24 76  1  0  0  0  0
 25 77  1  0  0  0  0
 26 28  2  0  0  0  0
 26 76  1  0  0  0  0
 27 78  1  0  0  0  0
 28 79  1  0  0  0  0
 29 60  2  0  0  0  0
 30 54  1  0  0  0  0
 30 61  1  0  0  0  0
 31 62  1  0  0  0  0
 31 65  1  0  0  0  0
 32 66  1  0  0  0  0
 32 71  2  0  0  0  0
 33 47  1  0  0  0  0
 33 67  1  0  0  0  0
 33 72  2  0  0  0  0
 34 57  1  0  0  0  0
 34 63  1  0  0  0  0
 34 73  2  0  0  0  0
 35 58  1  0  0  0  0
 35 68  1  0  0  0  0
 35 74  2  0  0  0  0
 36 64  1  0  0  0  0
 36 69  1  0  0  0  0
 36 75  2  0  0  0  0
 37 40  1  0  0  0  0
 38 47  1  0  0  0  0
 39 63  1  0  0  0  0
 40 42  1  0  0  0  0
 41 43  1  0  0  0  0
 41 44  1  0  0  0  0
 42 46  1  0  0  0  0
 43 48  1  0  0  0  0
 44 64  1  0  0  0  0
 45 48  1  0  0  0  0
 45 64  1  0  0  0  0
 46 67  1  0  0  0  0
 47 63  1  0  0  0  0
 48 62  1  0  0  0  0
 49 58  1  0  0  0  0
 50 59  1  0  0  0  0
 51 59  1  0  0  0  0
 52 59  1  0  0  0  0
 53 70  1  0  0  0  0
 54 69  1  0  0  0  0
 55 56  1  0  0  0  0
 55 61  1  0  0  0  0
 56 77  1  0  0  0  0
 57 59  1  0  0  0  0
 57 68  1  0  0  0  0
 58 70  1  0  0  0  0
 60 62  1  0  0  0  0
M  CHG  1  70   1
M  ISO  4  36 100  56 101  69 100  77 101
M  END
> <Batch ID>
0117

> <Smiles>
CNC(C)C(=O)NC(C(=O)N1Cc2cc([101O:1][101CH2:1]Cn3cccc3C[100NH:0][100C:0](=O)N3CCCC(n4nc(-c5ccc(Oc6ccc(F)cc6F)cc5)c(C(N)=O)c4N)C3)ccc2CC1C(=O)NC1CCCc2ccccc21)C(C)(C)C

> <Shape>
0.213

> <Color>
0.067

> <Negative vol penalty>
0.000

$$$$

  -OEChem-04052320153D

 82 90  0     1  0  0  0  0  0999 V2000
  -17.9002  -30.6650   23.2491 C   0  0  0  0  0  0  0  0  0  0  0  0
  -19.2278  -30.2963   23.4416 C   0  0  0  0  0  0  0  0  0  0  0  0
  -25.7247  -14.8339   21.5612 C   0  0  0  0  0  0  0  0  0  0  0  0
  -24.6658  -16.4504   20.1111 C   0  0  0  0  0  0  0  0  0  0  0  0
  -16.9402  -29.6916   22.9756 C   0  0  0  0  0  0  0  0  0  0  0  0
  -19.5959  -28.9538   23.3617 C   0  0  0  0  0  0  0  0  0  0  0  0
  -23.8269  -28.2565   20.6677 C   0  0  0  0  0  0  0  0  0  0  0  0
  -24.5243  -14.1296   21.6528 C   0  0  0  0  0  0  0  0  0  0  0  0
  -23.4653  -15.7461   20.2027 C   0  0  0  0  0  0  0  0  0  0  0  0
  -25.0372  -28.5435   21.2974 C   0  0  0  0  0  0  0  0  0  0  0  0
  -22.7650  -11.9489   19.7601 C   0  0  0  0  0  0  0  0  0  0  0  0
  -22.8159  -10.5612   19.6285 C   0  0  0  0  0  0  0  0  0  0  0  0
  -25.3643  -26.1924   21.7269 C   0  0  0  0  0  0  0  0  0  0  0  0
  -21.8839  -10.3170   21.8441 C   0  0  0  0  0  0  0  0  0  0  0  0
  -30.7947  -24.6822   17.6519 C   0  0  0  0  0  0  0  0  0  0  0  0
  -29.7538  -26.7040   17.8930 C   0  0  0  0  0  0  0  0  0  0  0  0
  -25.7955  -15.9943   20.7904 C   0  0  0  0  0  0  0  0  0  0  0  0
  -28.0578  -16.5405   19.7456 C   0  0  0  0  0  0  0  0  0  0  0  0
  -17.2985  -28.3375   22.8828 C   0  0  0  0  0  0  0  0  0  0  0  0
  -23.3702  -26.9341   20.5723 C   0  0  0  0  0  0  0  0  0  0  0  0
  -18.6396  -27.9612   23.0880 C   0  0  0  0  0  0  0  0  0  0  0  0
  -24.1490  -25.8910   21.0933 C   0  0  0  0  0  0  0  0  0  0  0  0
  -23.3945  -14.5856   20.9736 C   0  0  0  0  0  0  0  0  0  0  0  0
  -25.8047  -27.5116   21.8297 C   0  0  0  0  0  0  0  0  0  0  0  0
  -22.2736  -12.5207   20.9337 C   0  0  0  0  0  0  0  0  0  0  0  0
  -22.3753   -9.7452   20.6705 C   0  0  0  0  0  0  0  0  0  0  0  0
  -21.8331  -11.7047   21.9757 C   0  0  0  0  0  0  0  0  0  0  0  0
  -27.0352  -16.7226   20.6958 C   0  0  0  0  0  0  0  0  0  0  0  0
  -30.9759  -24.6128   19.0156 C   0  0  0  0  0  0  0  0  0  0  0  0
  -29.9343  -26.6344   19.2568 C   0  0  0  0  0  0  0  0  0  0  0  0
  -29.0107  -17.4698   20.0843 C   0  0  0  0  0  0  0  0  0  0  0  0
  -28.1390  -15.6141   18.6543 C   0  0  0  0  0  0  0  0  0  0  0  0
  -20.8261  -25.3571   21.6421 C   0  0  0  0  0  0  0  0  0  0  0  0
  -22.0480  -22.9492   19.8445 C   0  0  0  0  0  0  0  0  0  0  0  0
  -24.7794  -21.5388   18.3623 C   0  0  0  0  0  0  0  0  0  0  0  0
  -30.4335  -22.6395   21.6319 C   0  0  0  0  0  0  0  0  0  0  0  0
  -16.2174  -27.3162   22.6319 C   0  0  0  0  0  0  0  0  0  0  0  0
  -22.0753  -26.6387   19.8664 C   0  0  0  0  0  0  0  0  0  0  0  0
  -23.7131  -24.4525   20.9990 C   0  0  0  0  0  0  0  0  0  0  0  0
  -16.7544  -25.9562   22.1932 C   0  0  0  0  0  0  0  0  0  0  0  0
  -29.4598  -20.3748   24.2008 C   0  0  0  0  0  0  0  0  0  0  0  0
  -17.9155  -25.5278   23.0848 C   0  0  0  0  0  0  0  0  0  0  0  0
  -28.8213  -19.2113   23.4401 C   0  0  0  0  0  0  0  0  0  0  0  0
  -29.1523  -21.7171   23.5408 C   0  0  0  0  0  0  0  0  0  0  0  0
  -28.8564  -20.6324   21.3477 C   0  0  0  0  0  0  0  0  0  0  0  0
  -19.0823  -26.5178   22.9848 C   0  0  1  0  0  0  0  0  0  0  0  0
  -21.4596  -25.3057   20.2806 C   0  0  1  0  0  0  0  0  0  0  0  0
  -29.1851  -19.2529   21.9437 C   0  0  2  0  0  0  0  0  0  0  0  0
  -25.4726  -19.5527   16.9939 C   0  0  0  0  0  0  0  0  0  0  0  0
  -21.9119  -21.1897   22.3336 C   0  0  0  0  0  0  0  0  0  0  0  0
  -23.4557  -19.5806   21.1955 C   0  0  0  0  0  0  0  0  0  0  0  0
  -21.2115  -20.0578   20.2164 C   0  0  0  0  0  0  0  0  0  0  0  0
  -25.6709  -23.2500   16.1182 C   0  0  0  0  0  0  0  0  0  0  0  0
  -31.6596  -23.4407   19.6284 C   0  0  0  0  0  0  0  0  0  0  0  0
  -29.1963  -28.7251   22.1988 C   0  0  0  0  0  0  0  0  0  0  0  0
  -27.7050  -28.9330   21.9862 C   0  0  0  0  0  0  0  0  0  1  0  0
  -29.7106  -27.4990   21.4610 C   0  0  0  0  0  0  0  0  0  0  0  0
  -23.0199  -21.8201   20.0883 C   0  0  1  0  0  0  0  0  0  0  0  0
  -24.9979  -20.9971   16.9611 C   0  0  2  0  0  0  0  0  0  0  0  0
  -22.4073  -20.6892   20.9621 C   0  0  0  0  0  0  0  0  0  0  0  0
  -30.1804  -25.7291   17.0661 N   0  0  0  0  0  0  0  0  0  0  0  0
  -27.3125  -17.6914   21.5725 N   0  0  0  0  0  0  0  0  0  0  0  0
  -30.5489  -25.5877   19.8426 N   0  0  0  0  0  0  0  0  0  0  0  0
  -28.5202  -18.1263   21.1745 N   0  0  0  0  0  0  0  0  0  0  0  0
  -22.4365  -24.2152   20.3051 N   0  0  0  0  0  0  0  0  0  0  0  0
  -29.5220  -21.6906   22.1236 N   0  0  0  0  0  0  0  0  0  0  0  0
  -30.2120  -17.7812   19.5530 N   0  0  0  0  0  0  0  0  0  0  0  0
  -27.0718  -14.7291   18.4483 N   0  0  0  0  0  0  0  0  0  0  0  0
  -19.8249  -26.3019   21.7615 N   0  0  0  0  0  0  0  0  0  0  0  0
  -23.4728  -21.3801   18.7732 N   0  0  0  0  0  0  0  0  0  0  0  0
  -30.7343  -22.5400   20.2790 N   0  0  0  0  0  0  0  0  0  0  0  0
  -26.0198  -21.8115   16.2445 N   0  3  0  0  0  0  0  0  0  0  0  0
  -29.1358  -15.5612   17.8946 O   0  0  0  0  0  0  0  0  0  0  0  0
  -21.2158  -24.5949   22.5190 O   0  0  0  0  0  0  0  0  0  0  0  0
  -20.9865  -22.7179   19.2603 O   0  0  0  0  0  0  0  0  0  0  0  0
  -25.6788  -22.0481   19.0273 O   0  0  0  0  0  0  0  0  0  0  0  0
  -30.9457  -23.5075   22.3468 O   0  0  0  0  0  0  0  0  0  0  0  0
  -22.2230  -13.8985   21.0625 O   0  0  0  0  0  0  0  0  0  0  0  0
  -26.9862  -27.7890   22.4454 O   0  0  0  0  0  0  0  0  0  1  0  0
  -29.4858  -27.6462   20.0654 O   0  0  0  0  0  0  0  0  0  0  0  0
  -22.4228   -8.4127   20.5434 F   0  0  0  0  0  0  0  0  0  0  0  0
  -21.3589  -12.2482   23.1051 F   0  0  0  0  0  0  0  0  0  0  0  0
  1  2  1  0  0  0  0
  1  5  2  0  0  0  0
  2  6  2  0  0  0  0
  3  8  2  0  0  0  0
  3 17  1  0  0  0  0
  4  9  1  0  0  0  0
  4 17  2  0  0  0  0
  5 19  1  0  0  0  0
  6 21  1  0  0  0  0
  7 10  2  0  0  0  0
  7 20  1  0  0  0  0
  8 23  1  0  0  0  0
  9 23  2  0  0  0  0
 10 24  1  0  0  0  0
 11 12  2  0  0  0  0
 11 25  1  0  0  0  0
 12 26  1  0  0  0  0
 13 22  1  0  0  0  0
 13 24  2  0  0  0  0
 14 26  2  0  0  0  0
 14 27  1  0  0  0  0
 15 29  2  0  0  0  0
 15 61  1  0  0  0  0
 16 30  1  0  0  0  0
 16 61  2  0  0  0  0
 17 28  1  0  0  0  0
 18 28  1  0  0  0  0
 18 31  2  0  0  0  0
 18 32  1  0  0  0  0
 19 21  2  0  0  0  0
 19 37  1  0  0  0  0
 20 22  2  0  0  0  0
 20 38  1  0  0  0  0
 21 46  1  0  0  0  0
 22 39  1  0  0  0  0
 23 78  1  0  0  0  0
 24 79  1  0  0  0  0
 25 27  2  0  0  0  0
 25 78  1  0  0  0  0
 26 81  1  0  0  0  0
 27 82  1  0  0  0  0
 28 62  2  0  0  0  0
 29 54  1  0  0  0  0
 29 63  1  0  0  0  0
 30 63  2  0  0  0  0
 30 80  1  0  0  0  0
 31 64  1  0  0  0  0
 31 67  1  0  0  0  0
 32 68  1  0  0  0  0
 32 73  2  0  0  0  0
 33 47  1  0  0  0  0
 33 69  1  0  0  0  0
 33 74  2  0  0  0  0
 34 58  1  0  0  0  0
 34 65  1  0  0  0  0
 34 75  2  0  0  0  0
 35 59  1  0  0  0  0
 35 70  1  0  0  0  0
 35 76  2  0  0  0  0
 36 66  1  0  0  0  0
 36 71  1  0  0  0  0
 36 77  2  0  0  0  0
 37 40  1  0  0  0  0
 38 47  1  0  0  0  0
 39 65  1  0  0  0  0
 40 42  1  0  0  0  0
 41 43  1  0  0  0  0
 41 44  1  0  0  0  0
 42 46  1  0  0  0  0
 43 48  1  0  0  0  0
 44 66  1  0  0  0  0
 45 48  1  0  0  0  0
 45 66  1  0  0  0  0
 46 69  1  0  0  0  0
 47 65  1  0  0  0  0
 48 64  1  0  0  0  0
 49 59  1  0  0  0  0
 50 60  1  0  0  0  0
 51 60  1  0  0  0  0
 52 60  1  0  0  0  0
 53 72  1  0  0  0  0
 54 71  1  0  0  0  0
 55 56  1  0  0  0  0
 55 57  1  0  0  0  0
 56 79  1  0  0  0  0
 57 80  1  0  0  0  0
 58 60  1  0  0  0  0
 58 70  1  0  0  0  0
 59 72  1  0  0  0  0
 62 64  1  0  0  0  0
M  CHG  1  72   1
M  ISO  4  36 100  56 101  71 100  79 101
M  END
> <Batch ID>
0117

> <Smiles>
CNC(C)C(=O)NC(C(=O)N1Cc2cc([101O:1][101CH2:1]CCOc3cncc(C[100NH:0][100C:0](=O)N4CCCC(n5nc(-c6ccc(Oc7ccc(F)cc7F)cc6)c(C(N)=O)c5N)C4)n3)ccc2CC1C(=O)NC1CCCc2ccccc21)C(C)(C)C

> <Shape>
0.231

> <Color>
0.057

> <Negative vol penalty>
0.000

$$$$

  -OEChem-04052320153D

 86 94  0     1  0  0  0  0  0999 V2000
  -31.3349  -25.5798   21.5007 C   0  0  0  0  0  0  0  0  0  0  0  0
  -30.2662  -25.0221   22.1951 C   0  0  0  0  0  0  0  0  0  0  0  0
  -24.8322  -30.6560   20.4652 C   0  0  0  0  0  0  0  0  0  0  0  0
  -24.2521  -28.9179   22.0400 C   0  0  0  0  0  0  0  0  0  0  0  0
  -31.7199  -25.0472   20.2711 C   0  0  0  0  0  0  0  0  0  0  0  0
  -29.5811  -23.9320   21.6597 C   0  0  0  0  0  0  0  0  0  0  0  0
  -27.0792  -19.2759   24.7527 C   0  0  0  0  0  0  0  0  0  0  0  0
  -24.4459  -31.6244   21.3918 C   0  0  0  0  0  0  0  0  0  0  0  0
  -23.8659  -29.8864   22.9666 C   0  0  0  0  0  0  0  0  0  0  0  0
  -25.7721  -19.0170   25.1630 C   0  0  0  0  0  0  0  0  0  0  0  0
  -23.9517  -34.5618   23.4756 C   0  0  0  0  0  0  0  0  0  0  0  0
  -24.7934  -35.6594   23.6557 C   0  0  0  0  0  0  0  0  0  0  0  0
  -25.4315  -17.6575   23.1996 C   0  0  0  0  0  0  0  0  0  0  0  0
  -26.5771  -34.1795   24.3379 C   0  0  0  0  0  0  0  0  0  0  0  0
  -20.3891  -20.5124   19.8925 C   0  0  0  0  0  0  0  0  0  0  0  0
  -24.7353  -29.3027   20.7893 C   0  0  0  0  0  0  0  0  0  0  0  0
  -26.4128  -27.7348   19.6780 C   0  0  0  0  0  0  0  0  0  0  0  0
  -31.0453  -23.9440   19.7248 C   0  0  0  0  0  0  0  0  0  0  0  0
  -27.5695  -18.7354   23.5553 C   0  0  0  0  0  0  0  0  0  0  0  0
  -29.9565  -23.3849   20.4209 C   0  0  0  0  0  0  0  0  0  0  0  0
  -26.7459  -17.9089   22.7776 C   0  0  0  0  0  0  0  0  0  0  0  0
  -23.9628  -31.2397   22.6424 C   0  0  0  0  0  0  0  0  0  0  0  0
  -24.9471  -18.2101   24.3850 C   0  0  0  0  0  0  0  0  0  0  0  0
  -24.4226  -33.2731   23.7268 C   0  0  0  0  0  0  0  0  0  0  0  0
  -26.1062  -35.4683   24.0868 C   0  0  0  0  0  0  0  0  0  0  0  0
  -25.7354  -33.0819   24.1580 C   0  0  0  0  0  0  0  0  0  0  0  0
  -25.1336  -28.3018   19.8324 C   0  0  0  0  0  0  0  0  0  0  0  0
  -21.1326  -21.5560   19.3870 C   0  0  0  0  0  0  0  0  0  0  0  0
  -22.1708  -21.7965   21.4104 C   0  0  0  0  0  0  0  0  0  0  0  0
  -21.4267  -20.7533   21.9161 C   0  0  0  0  0  0  0  0  0  0  0  0
  -26.2705  -26.8432   18.6429 C   0  0  0  0  0  0  0  0  0  0  0  0
  -27.6216  -27.9909   20.4053 C   0  0  0  0  0  0  0  0  0  0  0  0
  -28.6594  -19.9490   20.8271 C   0  0  0  0  0  0  0  0  0  0  0  0
  -29.3301  -16.8448   20.1665 C   0  0  0  0  0  0  0  0  0  0  0  0
  -28.6589  -13.5491   20.7453 C   0  0  0  0  0  0  0  0  0  0  0  0
  -21.5665  -23.8562   16.4519 C   0  0  0  0  0  0  0  0  0  0  0  0
  -31.4677  -23.4326   18.3703 C   0  0  0  0  0  0  0  0  0  0  0  0
  -28.9904  -19.0024   23.1401 C   0  0  0  0  0  0  0  0  0  0  0  0
  -27.2309  -17.2880   21.4940 C   0  0  0  0  0  0  0  0  0  0  0  0
  -30.9278  -22.0414   18.0489 C   0  0  0  0  0  0  0  0  0  0  0  0
  -23.7006  -26.0873   14.6787 C   0  0  0  0  0  0  0  0  0  0  0  0
  -29.4431  -21.9536   18.3878 C   0  0  0  0  0  0  0  0  0  0  0  0
  -24.4253  -26.8567   15.7845 C   0  0  0  0  0  0  0  0  0  0  0  0
  -22.2524  -25.7852   15.0573 C   0  0  0  0  0  0  0  0  0  0  0  0
  -22.8055  -25.8687   17.4575 C   0  0  0  0  0  0  0  0  0  0  0  0
  -29.2042  -22.1864   19.8846 C   0  0  1  0  0  0  0  0  0  0  0  0
  -29.2201  -18.8188   21.6432 C   0  0  1  0  0  0  0  0  0  0  0  0
  -24.2857  -26.1476   17.1450 C   0  0  2  0  0  0  0  0  0  0  0  0
  -22.8174  -24.0143   22.4187 C   0  0  0  0  0  0  0  0  0  0  0  0
  -24.6041  -22.3893   21.6962 C   0  0  0  0  0  0  0  0  0  0  0  0
  -29.3438  -11.2439   20.0283 C   0  0  0  0  0  0  0  0  0  0  0  0
  -20.7747  -20.0236   26.0646 C   0  0  0  0  0  0  0  0  0  0  0  0
  -27.7609  -17.1881   17.5723 C   0  0  0  0  0  0  0  0  0  0  0  0
  -27.6668  -14.6935   17.3808 C   0  0  0  0  0  0  0  0  0  0  0  0
  -29.8700  -15.8630   17.3482 C   0  0  0  0  0  0  0  0  0  0  0  0
  -29.5385  -12.8343   23.4792 C   0  0  0  0  0  0  0  0  0  0  0  0
  -20.9579  -21.9931   17.9744 C   0  0  0  0  0  0  0  0  0  0  0  0
  -21.2249  -19.0756   23.7518 C   0  0  0  0  0  0  0  0  0  0  0  0
  -23.0171  -18.9656   25.5513 C   0  0  0  0  0  0  0  0  0  1  0  0
  -23.1706  -22.5253   22.2434 C   0  0  0  0  0  0  0  0  0  0  0  0
  -28.5831  -15.7041   19.5186 C   0  0  1  0  0  0  0  0  0  0  0  0
  -29.5721  -12.3693   21.0253 C   0  0  2  0  0  0  0  0  0  0  0  0
  -21.5124  -18.9515   25.2547 C   0  0  1  0  0  0  0  0  0  0  0  0
  -28.4601  -15.8753   17.9781 C   0  0  0  0  0  0  0  0  0  0  0  0
  -20.5228  -20.0923   21.1661 N   0  0  0  0  0  0  0  0  0  0  0  0
  -24.2442  -27.8118   18.9647 N   0  0  0  0  0  0  0  0  0  0  0  0
  -22.0369  -22.2167   20.1369 N   0  0  0  0  0  0  0  0  0  0  0  0
  -24.9657  -26.9275   18.2551 N   0  0  0  0  0  0  0  0  0  0  0  0
  -28.6257  -17.5839   21.1274 N   0  0  0  0  0  0  0  0  0  0  0  0
  -22.1898  -25.1113   16.3565 N   0  0  0  0  0  0  0  0  0  0  0  0
  -27.1356  -26.0034   18.0357 N   0  0  0  0  0  0  0  0  0  0  0  0
  -27.5920  -28.9377   21.4382 N   0  0  0  0  0  0  0  0  0  0  0  0
  -21.6103  -20.3673   23.2341 N   0  0  0  0  0  0  0  0  0  0  0  0
  -29.5388  -20.9985   20.6406 N   0  0  0  0  0  0  0  0  0  0  0  0
  -29.2654  -14.4825   19.9315 N   0  0  0  0  0  0  0  0  0  0  0  0
  -21.5564  -23.2842   17.7182 N   0  0  0  0  0  0  0  0  0  0  0  0
  -29.3277  -11.8391   22.3965 N   0  3  0  0  0  0  0  0  0  0  0  0
  -28.7001  -27.4097   20.1360 O   0  0  0  0  0  0  0  0  0  0  0  0
  -27.5144  -19.8738   20.3971 O   0  0  0  0  0  0  0  0  0  0  0  0
  -30.4980  -17.0672   19.8375 O   0  0  0  0  0  0  0  0  0  0  0  0
  -27.5200  -13.6326   21.1997 O   0  0  0  0  0  0  0  0  0  0  0  0
  -21.0615  -23.2849   15.4795 O   0  0  0  0  0  0  0  0  0  0  0  0
  -23.5860  -32.1844   23.5469 O   0  0  0  0  0  0  0  0  0  0  0  0
  -23.6707  -17.9564   24.7828 O   0  0  0  0  0  0  0  0  0  1  0  0
  -26.9148  -36.5222   24.2581 F   0  0  0  0  0  0  0  0  0  0  0  0
  -26.1938  -31.8462   24.3997 F   0  0  0  0  0  0  0  0  0  0  0  0
  1  2  1  0  0  0  0
  1  5  2  0  0  0  0
  2  6  2  0  0  0  0
  3  8  2  0  0  0  0
  3 16  1  0  0  0  0
  4  9  1  0  0  0  0
  4 16  2  0  0  0  0
  5 18  1  0  0  0  0
  6 20  1  0  0  0  0
  7 10  2  0  0  0  0
  7 19  1  0  0  0  0
  8 22  1  0  0  0  0
  9 22  2  0  0  0  0
 10 23  1  0  0  0  0
 11 12  2  0  0  0  0
 11 24  1  0  0  0  0
 12 25  1  0  0  0  0
 13 21  1  0  0  0  0
 13 23  2  0  0  0  0
 14 25  2  0  0  0  0
 14 26  1  0  0  0  0
 15 28  1  0  0  0  0
 15 65  2  0  0  0  0
 16 27  1  0  0  0  0
 17 27  1  0  0  0  0
 17 31  2  0  0  0  0
 17 32  1  0  0  0  0
 18 20  2  0  0  0  0
 18 37  1  0  0  0  0
 19 21  2  0  0  0  0
 19 38  1  0  0  0  0
 20 46  1  0  0  0  0
 21 39  1  0  0  0  0
 22 83  1  0  0  0  0
 23 84  1  0  0  0  0
 24 26  2  0  0  0  0
 24 83  1  0  0  0  0
 25 85  1  0  0  0  0
 26 86  1  0  0  0  0
 27 66  2  0  0  0  0
 28 57  1  0  0  0  0
 28 67  2  0  0  0  0
 29 30  2  0  0  0  0
 29 60  1  0  0  0  0
 29 67  1  0  0  0  0
 30 65  1  0  0  0  0
 30 73  1  0  0  0  0
 31 68  1  0  0  0  0
 31 71  1  0  0  0  0
 32 72  1  0  0  0  0
 32 78  2  0  0  0  0
 33 47  1  0  0  0  0
 33 74  1  0  0  0  0
 33 79  2  0  0  0  0
 34 61  1  0  0  0  0
 34 69  1  0  0  0  0
 34 80  2  0  0  0  0
 35 62  1  0  0  0  0
 35 75  1  0  0  0  0
 35 81  2  0  0  0  0
 36 70  1  0  0  0  0
 36 76  1  0  0  0  0
 36 82  2  0  0  0  0
 37 40  1  0  0  0  0
 38 47  1  0  0  0  0
 39 69  1  0  0  0  0
 40 42  1  0  0  0  0
 41 43  1  0  0  0  0
 41 44  1  0  0  0  0
 42 46  1  0  0  0  0
 43 48  1  0  0  0  0
 44 70  1  0  0  0  0
 45 48  1  0  0  0  0
 45 70  1  0  0  0  0
 46 74  1  0  0  0  0
 47 69  1  0  0  0  0
 48 68  1  0  0  0  0
 49 60  1  0  0  0  0
 50 60  1  0  0  0  0
 51 62  1  0  0  0  0
 52 63  1  0  0  0  0
 53 64  1  0  0  0  0
 54 64  1  0  0  0  0
 55 64  1  0  0  0  0
 56 77  1  0  0  0  0
 57 76  1  0  0  0  0
 58 63  1  0  0  0  0
 58 73  1  0  0  0  0
 59 63  1  0  0  0  0
 59 84  1  0  0  0  0
 61 64  1  0  0  0  0
 61 75  1  0  0  0  0
 62 77  1  0  0  0  0
 66 68  1  0  0  0  0
M  CHG  1  77   1
M  ISO  4  36 100  59 101  76 100  84 101
M  END
> <Batch ID>
0117

> <Smiles>
CNC(C)C(=O)NC(C(=O)N1Cc2cc([101O:1][101CH2:1]C(C)CNc3ncc(C[100NH:0][100C:0](=O)N4CCCC(n5nc(-c6ccc(Oc7ccc(F)cc7F)cc6)c(C(N)=O)c5N)C4)nc3C(C)C)ccc2CC1C(=O)NC1CCCc2ccccc21)C(C)(C)C

> <Shape>
0.224

> <Color>
0.050

> <Negative vol penalty>
0.000

$$$$

  -OEChem-04052320153D

 88 97  0     1  0  0  0  0  0999 V2000
  -30.6739  -16.4685   34.0864 C   0  0  0  0  0  0  0  0  0  0  0  0
  -29.8817  -15.9233   33.0811 C   0  0  0  0  0  0  0  0  0  0  0  0
  -23.0713   -9.8705   19.9418 C   0  0  0  0  0  0  0  0  0  0  0  0
  -23.8356   -9.8763   22.2337 C   0  0  0  0  0  0  0  0  0  0  0  0
  -30.0913  -17.2428   35.0888 C   0  0  0  0  0  0  0  0  0  0  0  0
  -28.5060  -16.1513   33.0783 C   0  0  0  0  0  0  0  0  0  0  0  0
  -26.7457  -17.3551   28.4852 C   0  0  0  0  0  0  0  0  0  0  0  0
  -22.3276   -8.7174   20.1927 C   0  0  0  0  0  0  0  0  0  0  0  0
  -23.0919   -8.7233   22.4847 C   0  0  0  0  0  0  0  0  0  0  0  0
  -26.5673  -16.3115   27.5780 C   0  0  0  0  0  0  0  0  0  0  0  0
  -19.9420   -5.9776   20.3246 C   0  0  0  0  0  0  0  0  0  0  0  0
  -18.6353   -5.9301   19.8388 C   0  0  0  0  0  0  0  0  0  0  0  0
  -24.2062  -16.2937   28.0721 C   0  0  0  0  0  0  0  0  0  0  0  0
  -26.4444  -18.0634   23.0597 C   0  0  0  0  0  0  0  0  0  0  0  0
  -18.0732   -7.8726   21.1609 C   0  0  0  0  0  0  0  0  0  0  0  0
  -27.2021  -16.1258   23.9208 C   0  0  0  0  0  0  0  0  0  0  0  0
  -23.8253  -10.4499   20.9623 C   0  0  0  0  0  0  0  0  0  0  0  0
  -24.1676  -12.9750   20.8426 C   0  0  0  0  0  0  0  0  0  0  0  0
  -28.7091  -17.4884   35.0928 C   0  0  0  0  0  0  0  0  0  0  0  0
  -25.6555  -17.8694   29.2019 C   0  0  0  0  0  0  0  0  0  0  0  0
  -27.9041  -16.9285   34.0825 C   0  0  0  0  0  0  0  0  0  0  0  0
  -24.3730  -17.3455   28.9858 C   0  0  0  0  0  0  0  0  0  0  0  0
  -27.6013  -17.3761   23.5028 C   0  0  0  0  0  0  0  0  0  0  0  0
  -22.3379   -8.1438   21.4641 C   0  0  0  0  0  0  0  0  0  0  0  0
  -25.2979  -15.7787   27.3735 C   0  0  0  0  0  0  0  0  0  0  0  0
  -20.3143   -6.9725   21.2287 C   0  0  0  0  0  0  0  0  0  0  0  0
  -17.7010   -6.8776   20.2570 C   0  0  0  0  0  0  0  0  0  0  0  0
  -19.3799   -7.9200   21.6468 C   0  0  0  0  0  0  0  0  0  0  0  0
  -24.5942  -11.6407   20.7035 C   0  0  0  0  0  0  0  0  0  0  0  0
  -25.3734  -17.2122   23.2206 C   0  0  0  0  0  0  0  0  0  0  0  0
  -25.2592  -13.7244   20.4775 C   0  0  0  0  0  0  0  0  0  0  0  0
  -22.8980  -13.4910   21.2642 C   0  0  0  0  0  0  0  0  0  0  0  0
  -24.8854  -18.0643   32.2796 C   0  0  0  0  0  0  0  0  0  0  0  0
  -22.3950  -19.8059   31.1451 C   0  0  0  0  0  0  0  0  0  0  0  0
  -20.3293  -20.5456   28.5312 C   0  0  0  0  0  0  0  0  0  0  0  0
  -30.7435  -14.7420   20.6556 C   0  0  0  0  0  0  0  0  0  0  0  0
  -28.1180  -18.2924   36.2237 C   0  0  0  0  0  0  0  0  0  0  0  0
  -25.8603  -19.0131   30.1570 C   0  0  0  0  0  0  0  0  0  0  0  0
  -23.1666  -17.8758   29.7152 C   0  0  0  0  0  0  0  0  0  0  0  0
  -26.7059  -18.7974   35.9389 C   0  0  0  0  0  0  0  0  0  0  0  0
  -29.6007  -12.3587   18.2701 C   0  0  0  0  0  0  0  0  0  0  0  0
  -25.8444  -17.6775   35.3639 C   0  0  0  0  0  0  0  0  0  0  0  0
  -28.1640  -12.0652   18.7057 C   0  0  0  0  0  0  0  0  0  0  0  0
  -30.5202  -12.5788   19.4693 C   0  0  0  0  0  0  0  0  0  0  0  0
  -28.6214  -13.3098   20.8599 C   0  0  0  0  0  0  0  0  0  0  0  0
  -30.2217  -19.3459   22.5251 C   0  0  0  0  0  0  0  0  0  0  0  0
  -26.4117  -17.1738   34.0313 C   0  0  1  0  0  0  0  0  0  0  0  0
  -29.0220  -17.9166   23.5151 C   0  0  1  0  0  0  0  0  0  0  0  0
  -24.7629  -19.1144   31.2119 C   0  0  1  0  0  0  0  0  0  0  0  0
  -29.7373  -17.9347   22.1263 C   0  0  2  0  0  0  0  0  0  0  0  0
  -27.6449  -13.1359   19.6841 C   0  0  2  0  0  0  0  0  0  0  0  0
  -23.9426  -17.4221   22.9184 C   0  0  0  0  0  0  0  0  0  0  0  0
  -18.3654  -21.9823   27.9179 C   0  0  0  0  0  0  0  0  0  0  0  0
  -28.2563  -20.0081   25.6747 C   0  0  0  0  0  0  0  0  0  0  0  0
  -30.0156  -21.3986   24.5146 C   0  0  0  0  0  0  0  0  0  0  0  0
  -23.0842  -14.0061   25.4793 C   0  0  0  0  0  0  0  0  0  0  0  0
  -20.5444  -17.9275   32.6803 C   0  0  0  0  0  0  0  0  0  0  0  0
  -18.6404  -18.7897   31.3021 C   0  0  0  0  0  0  0  0  0  0  0  0
  -19.9042  -20.3425   32.7902 C   0  0  0  0  0  0  0  0  0  0  0  0
  -21.8684  -21.9557   26.4332 C   0  0  0  0  0  0  0  0  0  0  0  0
  -30.8123  -16.8920   21.8933 C   0  0  0  0  0  0  0  0  0  0  0  0
  -25.0155  -14.8219   24.0836 C   0  0  0  0  0  0  0  0  0  0  0  0
  -20.9957  -19.4899   30.6750 C   0  0  1  0  0  0  0  0  0  0  0  0
  -19.8820  -21.8725   27.9451 C   0  0  2  0  0  0  0  0  0  0  0  0
  -29.4723  -20.0005   24.7624 C   0  0  0  0  0  0  0  0  0  0  0  0
  -24.2387  -14.9967   25.3930 C   0  0  2  0  0  0  0  0  0  1  0  0
  -20.0440  -19.1259   31.8494 C   0  0  0  0  0  0  0  0  0  0  0  0
  -25.8582  -11.5447   20.2827 N   0  0  0  0  0  0  0  0  0  0  0  0
  -25.8459  -16.0375   23.7450 N   0  0  0  0  0  0  0  0  0  0  0  0
  -26.2352  -12.8282   20.1542 N   0  0  0  0  0  0  0  0  0  0  0  0
  -23.4192  -18.9904   30.6433 N   0  0  0  0  0  0  0  0  0  0  0  0
  -29.9717  -13.6071   20.3568 N   0  0  0  0  0  0  0  0  0  0  0  0
  -25.4698  -15.0558   20.4046 N   0  0  0  0  0  0  0  0  0  0  0  0
  -21.8865  -12.5819   21.6031 N   0  0  0  0  0  0  0  0  0  0  0  0
  -26.0860  -18.0944   32.9631 N   0  0  0  0  0  0  0  0  0  0  0  0
  -20.5606  -20.6383   29.8874 N   0  0  0  0  0  0  0  0  0  0  0  0
  -30.1463  -15.6706   21.4992 N   0  0  0  0  0  0  0  0  0  0  0  0
  -29.0796  -19.4119   23.4616 N   0  3  1  0  0  0  0  0  0  0  0  0
  -20.3890  -22.0205   26.5516 N   0  3  0  0  0  0  0  0  0  0  0  0
  -22.6622  -14.7216   21.3225 O   0  0  0  0  0  0  0  0  0  0  0  0
  -23.9587  -17.2855   32.4703 O   0  0  0  0  0  0  0  0  0  0  0  0
  -22.5737  -20.7463   31.9232 O   0  0  0  0  0  0  0  0  0  0  0  0
  -20.4570  -19.5276   27.8544 O   0  0  0  0  0  0  0  0  0  0  0  0
  -31.8787  -14.9173   20.1999 O   0  0  0  0  0  0  0  0  0  0  0  0
  -21.6121   -7.0188   21.7094 O   0  0  0  0  0  0  0  0  0  0  0  0
  -25.1211  -14.7597   26.4891 O   0  0  0  0  0  0  0  0  0  1  0  0
  -16.4466   -6.8328   19.7892 F   0  0  0  0  0  0  0  0  0  0  0  0
  -19.7320   -8.8790   22.5142 F   0  0  0  0  0  0  0  0  0  0  0  0
  1  2  1  0  0  0  0
  1  5  2  0  0  0  0
  2  6  2  0  0  0  0
  3  8  2  0  0  0  0
  3 17  1  0  0  0  0
  4  9  1  0  0  0  0
  4 17  2  0  0  0  0
  5 19  1  0  0  0  0
  6 21  1  0  0  0  0
  7 10  2  0  0  0  0
  7 20  1  0  0  0  0
  8 24  1  0  0  0  0
  9 24  2  0  0  0  0
 10 25  1  0  0  0  0
 11 12  2  0  0  0  0
 11 26  1  0  0  0  0
 12 27  1  0  0  0  0
 13 22  1  0  0  0  0
 13 25  2  0  0  0  0
 14 23  1  0  0  0  0
 14 30  2  0  0  0  0
 15 27  2  0  0  0  0
 15 28  1  0  0  0  0
 16 23  2  0  0  0  0
 16 69  1  0  0  0  0
 17 29  1  0  0  0  0
 18 29  1  0  0  0  0
 18 31  2  0  0  0  0
 18 32  1  0  0  0  0
 19 21  2  0  0  0  0
 19 37  1  0  0  0  0
 20 22  2  0  0  0  0
 20 38  1  0  0  0  0
 21 47  1  0  0  0  0
 22 39  1  0  0  0  0
 23 48  1  0  0  0  0
 24 85  1  0  0  0  0
 25 86  1  0  0  0  0
 26 28  2  0  0  0  0
 26 85  1  0  0  0  0
 27 87  1  0  0  0  0
 28 88  1  0  0  0  0
 29 68  2  0  0  0  0
 30 52  1  0  0  0  0
 30 69  1  0  0  0  0
 31 70  1  0  0  0  0
 31 73  1  0  0  0  0
 32 74  1  0  0  0  0
 32 80  2  0  0  0  0
 33 49  1  0  0  0  0
 33 75  1  0  0  0  0
 33 81  2  0  0  0  0
 34 63  1  0  0  0  0
 34 71  1  0  0  0  0
 34 82  2  0  0  0  0
 35 64  1  0  0  0  0
 35 76  1  0  0  0  0
 35 83  2  0  0  0  0
 36 72  1  0  0  0  0
 36 77  1  0  0  0  0
 36 84  2  0  0  0  0
 37 40  1  0  0  0  0
 38 49  1  0  0  0  0
 39 71  1  0  0  0  0
 40 42  1  0  0  0  0
 41 43  1  0  0  0  0
 41 44  1  0  0  0  0
 42 47  1  0  0  0  0
 43 51  1  0  0  0  0
 44 72  1  0  0  0  0
 45 51  1  0  0  0  0
 45 72  1  0  0  0  0
 46 50  1  0  0  0  0
 46 78  1  0  0  0  0
 47 75  1  0  0  0  0
 48 50  1  0  0  0  0
 48 78  1  0  0  0  0
 49 71  1  0  0  0  0
 50 61  1  0  0  0  0
 51 70  1  0  0  0  0
 53 64  1  0  0  0  0
 54 65  1  0  0  0  0
 55 65  1  0  0  0  0
 56 66  1  0  0  0  0
 57 67  1  0  0  0  0
 58 67  1  0  0  0  0
 59 67  1  0  0  0  0
 60 79  1  0  0  0  0
 61 77  1  0  0  0  0
 62 66  1  0  0  0  0
 62 69  1  0  0  0  0
 63 67  1  0  0  0  0
 63 76  1  0  0  0  0
 64 79  1  0  0  0  0
 65 78  1  0  0  0  0
 66 86  1  0  0  0  0
 68 70  1  0  0  0  0
M  CHG  2  78   1  79   1
M  ISO  4  36 100  66 101  77 100  86 101
M  END
> <Batch ID>
0117

> <Smiles>
CNC(C)C(=O)NC(C(=O)N1Cc2cc([101O:1][101CH:1](C)Cn3cc(C4C(C[100NH:0][100C:0](=O)N5CCCC(n6nc(-c7ccc(Oc8ccc(F)cc8F)cc7)c(C(N)=O)c6N)C5)CN4C(C)C)cc3C)ccc2CC1C(=O)NC1CCCc2ccccc21)C(C)(C)C

> <Shape>
0.146

> <Color>
0.184

> <Negative vol penalty>
0.000

$$$$

  -OEChem-04052320153D

 88 97  0     1  0  0  0  0  0999 V2000
  -29.6719  -34.7688   24.4420 C   0  0  0  0  0  0  0  0  0  0  0  0
  -29.4045  -33.4081   24.3306 C   0  0  0  0  0  0  0  0  0  0  0  0
  -22.5178  -12.6751   21.9196 C   0  0  0  0  0  0  0  0  0  0  0  0
  -23.8862  -10.9502   22.9144 C   0  0  0  0  0  0  0  0  0  0  0  0
  -28.6205  -35.6836   24.4832 C   0  0  0  0  0  0  0  0  0  0  0  0
  -28.0854  -32.9613   24.2615 C   0  0  0  0  0  0  0  0  0  0  0  0
  -27.4085  -29.4521   20.6736 C   0  0  0  0  0  0  0  0  0  0  0  0
  -21.6553  -12.6223   23.0145 C   0  0  0  0  0  0  0  0  0  0  0  0
  -23.0237  -10.8975   24.0093 C   0  0  0  0  0  0  0  0  0  0  0  0
  -27.8253  -28.1542   20.9657 C   0  0  0  0  0  0  0  0  0  0  0  0
  -20.0087   -9.5552   24.7434 C   0  0  0  0  0  0  0  0  0  0  0  0
  -19.6254   -8.2965   25.2064 C   0  0  0  0  0  0  0  0  0  0  0  0
  -25.5474  -27.5433   21.4729 C   0  0  0  0  0  0  0  0  0  0  0  0
  -20.6002   -8.7922   27.3608 C   0  0  0  0  0  0  0  0  0  0  0  0
  -23.6333  -11.8390   21.8695 C   0  0  0  0  0  0  0  0  0  0  0  0
  -24.2027  -11.6451   19.3904 C   0  0  0  0  0  0  0  0  0  0  0  0
  -27.2881  -35.2484   24.4049 C   0  0  0  0  0  0  0  0  0  0  0  0
  -26.0573  -29.8089   20.7896 C   0  0  0  0  0  0  0  0  0  0  0  0
  -27.0152  -33.8709   24.3031 C   0  0  0  0  0  0  0  0  0  0  0  0
  -25.1157  -28.8458   21.1792 C   0  0  0  0  0  0  0  0  0  0  0  0
  -21.9083  -11.7336   24.0594 C   0  0  0  0  0  0  0  0  0  0  0  0
  -26.8952  -27.2003   21.3683 C   0  0  0  0  0  0  0  0  0  0  0  0
  -20.6878  -10.4324   25.5890 C   0  0  0  0  0  0  0  0  0  0  0  0
  -19.9211   -7.9150   26.5151 C   0  0  0  0  0  0  0  0  0  0  0  0
  -20.9835  -10.0509   26.8977 C   0  0  0  0  0  0  0  0  0  0  0  0
  -24.5243  -11.8926   20.7384 C   0  0  0  0  0  0  0  0  0  0  0  0
  -25.3861  -11.8241   18.7167 C   0  0  0  0  0  0  0  0  0  0  0  0
  -22.9466  -11.2857   18.8000 C   0  0  0  0  0  0  0  0  0  0  0  0
  -24.4302  -31.8870   22.5609 C   0  0  0  0  0  0  0  0  0  0  0  0
  -21.9490  -30.9365   20.7001 C   0  0  0  0  0  0  0  0  0  0  0  0
  -20.7092  -27.8288   19.3503 C   0  0  0  0  0  0  0  0  0  0  0  0
  -30.3194  -14.9995   19.9132 C   0  0  0  0  0  0  0  0  0  0  0  0
  -26.1836  -36.2710   24.5011 C   0  0  0  0  0  0  0  0  0  0  0  0
  -25.6199  -31.2062   20.4451 C   0  0  0  0  0  0  0  0  0  0  0  0
  -23.6504  -29.1727   21.2998 C   0  0  0  0  0  0  0  0  0  0  0  0
  -24.8251  -35.7449   24.0450 C   0  0  0  0  0  0  0  0  0  0  0  0
  -30.1218  -11.4954   19.3140 C   0  0  0  0  0  0  0  0  0  0  0  0
  -24.5516  -34.3737   24.6547 C   0  0  0  0  0  0  0  0  0  0  0  0
  -27.0448  -23.5498   20.0437 C   0  0  0  0  0  0  0  0  0  0  0  0
  -29.5605  -23.3443   20.1196 C   0  0  0  0  0  0  0  0  0  0  0  0
  -26.9274  -22.0395   19.8462 C   0  0  0  0  0  0  0  0  0  0  0  0
  -29.4431  -21.8341   19.9220 C   0  0  0  0  0  0  0  0  0  0  0  0
  -28.6358  -11.1775   19.4895 C   0  0  0  0  0  0  0  0  0  0  0  0
  -30.5895  -12.5670   20.2963 C   0  0  0  0  0  0  0  0  0  0  0  0
  -29.3243  -20.0197   16.9745 C   0  0  0  0  0  0  0  0  0  0  0  0
  -28.3110  -13.4929   20.4549 C   0  0  0  0  0  0  0  0  0  0  0  0
  -30.6401  -19.6516   16.2904 C   0  0  0  0  0  0  0  0  0  0  0  0
  -29.9319  -17.3761   17.0243 C   0  0  0  0  0  0  0  0  0  0  0  0
  -25.5983  -33.3492   24.2005 C   0  0  1  0  0  0  0  0  0  0  0  0
  -24.2947  -31.5944   21.0934 C   0  0  1  0  0  0  0  0  0  0  0  0
  -28.3195  -23.9238   20.8105 C   0  0  0  0  0  0  0  0  0  0  0  0
  -28.1683  -21.4601   19.1553 C   0  0  0  0  0  0  0  0  0  0  0  0
  -27.7799  -12.4578   19.4487 C   0  0  2  0  0  0  0  0  0  0  0  0
  -29.2200  -17.9445   18.2650 C   0  0  1  0  0  0  0  0  0  0  0  0
  -19.3505  -27.3713   17.2906 C   0  0  0  0  0  0  0  0  0  0  0  0
  -26.7905  -19.5897   18.2111 C   0  0  0  0  0  0  0  0  0  0  0  0
  -27.9706  -19.2979   20.4045 C   0  0  0  0  0  0  0  0  0  0  0  0
  -19.5603  -31.0986   22.5916 C   0  0  0  0  0  0  0  0  0  0  0  0
  -18.5097  -29.2192   21.3138 C   0  0  0  0  0  0  0  0  0  0  0  0
  -18.9961  -31.3830   20.1718 C   0  0  0  0  0  0  0  0  0  0  0  0
  -22.7060  -25.9025   18.3201 C   0  0  0  0  0  0  0  0  0  0  0  0
  -28.4391  -25.4401   20.9514 C   0  0  0  0  0  0  0  0  0  1  0  0
  -29.8872  -17.4148   19.5411 C   0  0  0  0  0  0  0  0  0  0  0  0
  -20.9086  -29.8457   20.7809 C   0  0  1  0  0  0  0  0  0  0  0  0
  -20.7449  -27.3906   17.8973 C   0  0  2  0  0  0  0  0  0  0  0  0
  -28.0487  -19.9438   19.0143 C   0  0  0  0  0  0  0  0  0  0  0  0
  -19.5194  -30.3835   21.2263 C   0  0  0  0  0  0  0  0  0  0  0  0
  -25.8112  -12.2049   20.9126 N   0  0  0  0  0  0  0  0  0  0  0  0
  -26.3088  -12.1547   19.6652 N   0  0  0  0  0  0  0  0  0  0  0  0
  -23.2731  -30.5541   20.9580 N   0  0  0  0  0  0  0  0  0  0  0  0
  -29.7373  -13.7551   20.2062 N   0  0  0  0  0  0  0  0  0  0  0  0
  -29.2222  -19.4244   18.3099 N   0  0  2  0  0  0  0  0  0  0  0  0
  -25.7172  -11.7293   17.4113 N   0  0  0  0  0  0  0  0  0  0  0  0
  -22.6296   -9.9257   18.6798 N   0  0  0  0  0  0  0  0  0  0  0  0
  -25.3185  -32.9047   22.8520 N   0  0  0  0  0  0  0  0  0  0  0  0
  -20.9052  -29.1876   19.4789 N   0  0  0  0  0  0  0  0  0  0  0  0
  -29.4398  -16.0727   19.8400 N   0  0  0  0  0  0  0  0  0  0  0  0
  -31.0674  -18.2687   16.6600 N   0  3  0  0  0  0  0  0  0  0  0  0
  -21.3262  -26.0231   17.7828 N   0  3  0  0  0  0  0  0  0  0  0  0
  -22.1365  -12.1446   18.3763 O   0  0  0  0  0  0  0  0  0  0  0  0
  -23.7761  -31.2386   23.3693 O   0  0  0  0  0  0  0  0  0  0  0  0
  -21.6008  -32.0842   20.4115 O   0  0  0  0  0  0  0  0  0  0  0  0
  -20.5221  -27.0447   20.2781 O   0  0  0  0  0  0  0  0  0  0  0  0
  -31.5323  -15.1424   19.7252 O   0  0  0  0  0  0  0  0  0  0  0  0
  -21.0670  -11.6820   25.1281 O   0  0  0  0  0  0  0  0  0  0  0  0
  -27.2994  -25.9328   21.6547 O   0  0  0  0  0  0  0  0  0  1  0  0
  -19.5516   -6.7068   26.9600 F   0  0  0  0  0  0  0  0  0  0  0  0
  -21.6347  -10.8897   27.7152 F   0  0  0  0  0  0  0  0  0  0  0  0
  1  2  1  0  0  0  0
  1  5  2  0  0  0  0
  2  6  2  0  0  0  0
  3  8  2  0  0  0  0
  3 15  1  0  0  0  0
  4  9  1  0  0  0  0
  4 15  2  0  0  0  0
  5 17  1  0  0  0  0
  6 19  1  0  0  0  0
  7 10  2  0  0  0  0
  7 18  1  0  0  0  0
  8 21  1  0  0  0  0
  9 21  2  0  0  0  0
 10 22  1  0  0  0  0
 11 12  2  0  0  0  0
 11 23  1  0  0  0  0
 12 24  1  0  0  0  0
 13 20  1  0  0  0  0
 13 22  2  0  0  0  0
 14 24  2  0  0  0  0
 14 25  1  0  0  0  0
 15 26  1  0  0  0  0
 16 26  1  0  0  0  0
 16 27  2  0  0  0  0
 16 28  1  0  0  0  0
 17 19  2  0  0  0  0
 17 33  1  0  0  0  0
 18 20  2  0  0  0  0
 18 34  1  0  0  0  0
 19 49  1  0  0  0  0
 20 35  1  0  0  0  0
 21 85  1  0  0  0  0
 22 86  1  0  0  0  0
 23 25  2  0  0  0  0
 23 85  1  0  0  0  0
 24 87  1  0  0  0  0
 25 88  1  0  0  0  0
 26 68  2  0  0  0  0
 27 69  1  0  0  0  0
 27 73  1  0  0  0  0
 28 74  1  0  0  0  0
 28 80  2  0  0  0  0
 29 50  1  0  0  0  0
 29 75  1  0  0  0  0
 29 81  2  0  0  0  0
 30 64  1  0  0  0  0
 30 70  1  0  0  0  0
 30 82  2  0  0  0  0
 31 65  1  0  0  0  0
 31 76  1  0  0  0  0
 31 83  2  0  0  0  0
 32 71  1  0  0  0  0
 32 77  1  0  0  0  0
 32 84  2  0  0  0  0
 33 36  1  0  0  0  0
 34 50  1  0  0  0  0
 35 70  1  0  0  0  0
 36 38  1  0  0  0  0
 37 43  1  0  0  0  0
 37 44  1  0  0  0  0
 38 49  1  0  0  0  0
 39 41  1  0  0  0  0
 39 51  1  0  0  0  0
 40 42  1  0  0  0  0
 40 51  1  0  0  0  0
 41 52  1  0  0  0  0
 42 52  1  0  0  0  0
 43 53  1  0  0  0  0
 44 71  1  0  0  0  0
 45 47  1  0  0  0  0
 45 72  1  0  0  0  0
 46 53  1  0  0  0  0
 46 71  1  0  0  0  0
 47 78  1  0  0  0  0
 48 54  1  0  0  0  0
 48 78  1  0  0  0  0
 49 75  1  0  0  0  0
 50 70  1  0  0  0  0
 51 62  1  0  0  0  0
 52 66  1  0  0  0  0
 53 69  1  0  0  0  0
 54 63  1  0  0  0  0
 54 72  1  0  0  0  0
 55 65  1  0  0  0  0
 56 66  1  0  0  0  0
 57 66  1  0  0  0  0
 58 67  1  0  0  0  0
 59 67  1  0  0  0  0
 60 67  1  0  0  0  0
 61 79  1  0  0  0  0
 62 86  1  0  0  0  0
 63 77  1  0  0  0  0
 64 67  1  0  0  0  0
 64 76  1  0  0  0  0
 65 79  1  0  0  0  0
 66 72  1  0  0  0  0
 68 69  1  0  0  0  0
M  CHG  2  78   1  79   1
M  ISO  4  32 100  62 101  77 100  86 101
M  END
> <Batch ID>
0117

> <Smiles>
CNC(C)C(=O)NC(C(=O)N1Cc2cc([101O:1][101CH2:1]C3CCC(C(C)(C)N4CCNCC4C[100NH:0][100C:0](=O)N4CCCC(n5nc(-c6ccc(Oc7ccc(F)cc7F)cc6)c(C(N)=O)c5N)C4)CC3)ccc2CC1C(=O)NC1CCCc2ccccc21)C(C)(C)C

> <Shape>
0.275

> <Color>
0.078

> <Negative vol penalty>
0.000

$$$$

  -OEChem-04052320153D

 82 90  0     1  0  0  0  0  0999 V2000
  -30.4118  -24.5905   16.6535 C   0  0  0  0  0  0  0  0  0  0  0  0
  -29.6039  -23.9976   17.6185 C   0  0  0  0  0  0  0  0  0  0  0  0
  -26.5649  -22.6618   27.0774 C   0  0  0  0  0  0  0  0  0  0  0  0
  -28.4328  -13.3992   18.5282 C   0  0  0  0  0  0  0  0  0  0  0  0
  -28.7386  -13.1090   20.9071 C   0  0  0  0  0  0  0  0  0  0  0  0
  -30.6112  -25.9704   16.6648 C   0  0  0  0  0  0  0  0  0  0  0  0
  -28.9958  -24.7842   18.5962 C   0  0  0  0  0  0  0  0  0  0  0  0
  -24.1359  -23.5627   19.3269 C   0  0  0  0  0  0  0  0  0  0  0  0
  -29.2503  -12.2948   18.2883 C   0  0  0  0  0  0  0  0  0  0  0  0
  -29.5561  -12.0045   20.6673 C   0  0  0  0  0  0  0  0  0  0  0  0
  -23.8729  -22.4251   20.0889 C   0  0  0  0  0  0  0  0  0  0  0  0
  -32.0139   -9.3270   20.6721 C   0  0  0  0  0  0  0  0  0  0  0  0
  -33.2024   -9.2306   21.3959 C   0  0  0  0  0  0  0  0  0  0  0  0
  -27.7672  -22.2860   26.4887 C   0  0  0  0  0  0  0  0  0  0  0  0
  -25.4044  -21.9522   26.7892 C   0  0  0  0  0  0  0  0  0  0  0  0
  -23.4268  -23.8197   22.0060 C   0  0  0  0  0  0  0  0  0  0  0  0
  -33.9435  -11.3304   20.4583 C   0  0  0  0  0  0  0  0  0  0  0  0
  -28.1770  -13.8064   19.8376 C   0  0  0  0  0  0  0  0  0  0  0  0
  -25.9369  -14.9491   20.2660 C   0  0  0  0  0  0  0  0  0  0  0  0
  -29.9975  -26.7754   17.6374 C   0  0  0  0  0  0  0  0  0  0  0  0
  -24.0568  -24.8389   19.9027 C   0  0  0  0  0  0  0  0  0  0  0  0
  -29.1883  -26.1760   18.6214 C   0  0  0  0  0  0  0  0  0  0  0  0
  -23.6867  -24.9720   21.2486 C   0  0  0  0  0  0  0  0  0  0  0  0
  -29.8119  -11.5974   19.3578 C   0  0  0  0  0  0  0  0  0  0  0  0
  -23.5211  -22.5533   21.4293 C   0  0  0  0  0  0  0  0  0  0  0  0
  -31.7902  -10.4250   19.8414 C   0  0  0  0  0  0  0  0  0  0  0  0
  -34.1672  -10.2323   21.2890 C   0  0  0  0  0  0  0  0  0  0  0  0
  -32.7550  -11.4267   19.7345 C   0  0  0  0  0  0  0  0  0  0  0  0
  -27.3331  -14.9475   20.0861 C   0  0  0  0  0  0  0  0  0  0  0  0
  -27.7558  -21.2021   25.6256 C   0  0  0  0  0  0  0  0  0  0  0  0
  -25.4987  -20.8834   25.9126 C   0  0  0  0  0  0  0  0  0  0  0  0
  -25.6184  -16.2697   20.4689 C   0  0  0  0  0  0  0  0  0  0  0  0
  -25.0106  -13.8548   20.2511 C   0  0  0  0  0  0  0  0  0  0  0  0
  -26.1177  -27.2074   20.3992 C   0  0  0  0  0  0  0  0  0  0  0  0
  -23.4640  -28.7876   21.3909 C   0  0  0  0  0  0  0  0  0  0  0  0
  -20.2901  -28.6244   22.6345 C   0  0  0  0  0  0  0  0  0  0  0  0
  -28.7422  -20.9492   22.5173 C   0  0  0  0  0  0  0  0  0  0  0  0
  -30.2807  -28.2568   17.6377 C   0  0  0  0  0  0  0  0  0  0  0  0
  -24.3174  -26.0575   19.0603 C   0  0  0  0  0  0  0  0  0  0  0  0
  -23.5680  -26.3205   21.9088 C   0  0  0  0  0  0  0  0  0  0  0  0
  -29.2990  -29.0645   18.4829 C   0  0  0  0  0  0  0  0  0  0  0  0
  -27.0916  -20.6879   19.3734 C   0  0  0  0  0  0  0  0  0  0  0  0
  -29.0919  -28.4008   19.8406 C   0  0  0  0  0  0  0  0  0  0  0  0
  -26.8404  -19.1872   19.2158 C   0  0  0  0  0  0  0  0  0  0  0  0
  -28.4265  -20.9675   20.0603 C   0  0  0  0  0  0  0  0  0  0  0  0
  -28.3626  -18.7805   21.1946 C   0  0  0  0  0  0  0  0  0  0  0  0
  -28.4915  -26.9986   19.6834 C   0  0  1  0  0  0  0  0  0  0  0  0
  -24.7082  -27.2808   19.8838 C   0  0  1  0  0  0  0  0  0  0  0  0
  -27.0028  -18.4475   20.5573 C   0  0  2  0  0  0  0  0  0  0  0  0
  -24.3959  -18.6352   26.0529 C   0  0  0  0  0  0  0  0  0  0  0  0
  -18.3884  -30.0831   23.3782 C   0  0  0  0  0  0  0  0  0  0  0  0
  -24.9478  -29.3942   23.9871 C   0  0  0  0  0  0  0  0  0  0  0  0
  -22.7480  -29.9902   25.0234 C   0  0  0  0  0  0  0  0  0  0  0  0
  -23.6062  -31.3010   23.0823 C   0  0  0  0  0  0  0  0  0  0  0  0
  -18.4823  -27.5201   20.5678 C   0  0  0  0  0  0  0  0  0  0  0  0
  -29.0281  -20.7702   24.9760 C   0  0  0  0  0  0  0  0  0  0  0  0
  -23.8988  -20.1213   24.0749 C   0  0  0  0  0  0  0  0  0  0  0  0
  -23.5538  -21.5195   23.5708 C   0  0  0  0  0  0  0  0  0  1  0  0
  -24.2516  -20.0850   25.5745 C   0  0  2  0  0  0  0  0  0  0  0  0
  -22.7480  -28.9522   22.7097 C   0  0  1  0  0  0  0  0  0  0  0  0
  -19.0076  -29.3210   22.2169 C   0  0  2  0  0  0  0  0  0  0  0  0
  -23.5165  -29.8837   23.6890 C   0  0  0  0  0  0  0  0  0  0  0  0
  -27.8649  -16.1700   20.1674 N   0  0  0  0  0  0  0  0  0  0  0  0
  -26.6486  -20.4886   25.3213 N   0  0  0  0  0  0  0  0  0  0  0  0
  -26.7972  -16.9522   20.4005 N   0  0  0  0  0  0  0  0  0  0  0  0
  -23.8389  -27.4816   21.0450 N   0  0  0  0  0  0  0  0  0  0  0  0
  -28.5163  -20.2377   21.3273 N   0  0  0  0  0  0  0  0  0  0  0  0
  -24.4478  -16.9021   20.6973 N   0  0  0  0  0  0  0  0  0  0  0  0
  -25.5064  -12.5628   20.0290 N   0  0  0  0  0  0  0  0  0  0  0  0
  -27.0732  -27.0840   19.4086 N   0  0  0  0  0  0  0  0  0  0  0  0
  -21.3992  -29.4057   22.3881 N   0  0  0  0  0  0  0  0  0  0  0  0
  -28.8073  -20.1817   23.6738 N   0  0  0  0  0  0  0  0  0  0  0  0
  -18.0138  -28.3253   21.7250 N   0  3  0  0  0  0  0  0  0  0  0  0
  -23.7777  -14.0198   20.4132 O   0  0  0  0  0  0  0  0  0  0  0  0
  -26.3233  -27.2605   21.6061 O   0  0  0  0  0  0  0  0  0  0  0  0
  -23.6762  -29.7802   20.6899 O   0  0  0  0  0  0  0  0  0  0  0  0
  -20.3062  -27.5012   23.1331 O   0  0  0  0  0  0  0  0  0  0  0  0
  -28.8707  -22.1778   22.5474 O   0  0  0  0  0  0  0  0  0  0  0  0
  -30.6095  -10.5195   19.1241 O   0  0  0  0  0  0  0  0  0  0  0  0
  -23.2645  -21.4446   22.1755 O   0  0  0  0  0  0  0  0  0  1  0  0
  -35.3078  -10.1405   21.9852 F   0  0  0  0  0  0  0  0  0  0  0  0
  -32.5453  -12.4845   18.9390 F   0  0  0  0  0  0  0  0  0  0  0  0
  1  2  1  0  0  0  0
  1  6  2  0  0  0  0
  2  7  2  0  0  0  0
  3 14  1  0  0  0  0
  3 15  2  0  0  0  0
  4  9  2  0  0  0  0
  4 18  1  0  0  0  0
  5 10  1  0  0  0  0
  5 18  2  0  0  0  0
  6 20  1  0  0  0  0
  7 22  1  0  0  0  0
  8 11  2  0  0  0  0
  8 21  1  0  0  0  0
  9 24  1  0  0  0  0
 10 24  2  0  0  0  0
 11 25  1  0  0  0  0
 12 13  2  0  0  0  0
 12 26  1  0  0  0  0
 13 27  1  0  0  0  0
 14 30  2  0  0  0  0
 15 31  1  0  0  0  0
 16 23  1  0  0  0  0
 16 25  2  0  0  0  0
 17 27  2  0  0  0  0
 17 28  1  0  0  0  0
 18 29  1  0  0  0  0
 19 29  1  0  0  0  0
 19 32  2  0  0  0  0
 19 33  1  0  0  0  0
 20 22  2  0  0  0  0
 20 38  1  0  0  0  0
 21 23  2  0  0  0  0
 21 39  1  0  0  0  0
 22 47  1  0  0  0  0
 23 40  1  0  0  0  0
 24 79  1  0  0  0  0
 25 80  1  0  0  0  0
 26 28  2  0  0  0  0
 26 79  1  0  0  0  0
 27 81  1  0  0  0  0
 28 82  1  0  0  0  0
 29 63  2  0  0  0  0
 30 56  1  0  0  0  0
 30 64  1  0  0  0  0
 31 59  1  0  0  0  0
 31 64  2  0  0  0  0
 32 65  1  0  0  0  0
 32 68  1  0  0  0  0
 33 69  1  0  0  0  0
 33 74  2  0  0  0  0
 34 48  1  0  0  0  0
 34 70  1  0  0  0  0
 34 75  2  0  0  0  0
 35 60  1  0  0  0  0
 35 66  1  0  0  0  0
 35 76  2  0  0  0  0
 36 61  1  0  0  0  0
 36 71  1  0  0  0  0
 36 77  2  0  0  0  0
 37 67  1  0  0  0  0
 37 72  1  0  0  0  0
 37 78  2  0  0  0  0
 38 41  1  0  0  0  0
 39 48  1  0  0  0  0
 40 66  1  0  0  0  0
 41 43  1  0  0  0  0
 42 44  1  0  0  0  0
 42 45  1  0  0  0  0
 43 47  1  0  0  0  0
 44 49  1  0  0  0  0
 45 67  1  0  0  0  0
 46 49  1  0  0  0  0
 46 67  1  0  0  0  0
 47 70  1  0  0  0  0
 48 66  1  0  0  0  0
 49 65  1  0  0  0  0
 50 59  1  0  0  0  0
 51 61  1  0  0  0  0
 52 62  1  0  0  0  0
 53 62  1  0  0  0  0
 54 62  1  0  0  0  0
 55 73  1  0  0  0  0
 56 72  1  0  0  0  0
 57 58  1  0  0  0  0
 57 59  1  0  0  0  0
 58 80  1  0  0  0  0
 60 62  1  0  0  0  0
 60 71  1  0  0  0  0
 61 73  1  0  0  0  0
 63 65  1  0  0  0  0
M  CHG  1  73   1
M  ISO  4  37 100  58 101  72 100  80 101
M  END
> <Batch ID>
0117

> <Smiles>
CNC(C)C(=O)NC(C(=O)N1Cc2cc([101O:1][101CH2:1]CC(C)c3cccc(C[100NH:0][100C:0](=O)N4CCCC(n5nc(-c6ccc(Oc7ccc(F)cc7F)cc6)c(C(N)=O)c5N)C4)n3)ccc2CC1C(=O)NC1CCCc2ccccc21)C(C)(C)C

> <Shape>
0.230

> <Color>
0.040

> <Negative vol penalty>
0.000

$$$$

  -OEChem-04052320153D

 86 94  0     1  0  0  0  0  0999 V2000
  -29.8061  -25.0311   17.0942 C   0  0  0  0  0  0  0  0  0  0  0  0
  -28.4226  -25.1379   17.1935 C   0  0  0  0  0  0  0  0  0  0  0  0
  -28.1407  -13.1567   21.0363 C   0  0  0  0  0  0  0  0  0  0  0  0
  -28.1227  -13.5974   18.6609 C   0  0  0  0  0  0  0  0  0  0  0  0
  -30.6122  -25.4127   18.1659 C   0  0  0  0  0  0  0  0  0  0  0  0
  -27.8443  -25.6253   18.3650 C   0  0  0  0  0  0  0  0  0  0  0  0
  -22.7786  -29.0357   18.8275 C   0  0  0  0  0  0  0  0  0  0  0  0
  -29.3177  -12.4225   20.8911 C   0  0  0  0  0  0  0  0  0  0  0  0
  -29.2998  -12.8632   18.5157 C   0  0  0  0  0  0  0  0  0  0  0  0
  -21.4553  -28.7139   19.1259 C   0  0  0  0  0  0  0  0  0  0  0  0
  -30.2028   -9.6088   18.3598 C   0  0  0  0  0  0  0  0  0  0  0  0
  -30.2739   -8.7005   17.3037 C   0  0  0  0  0  0  0  0  0  0  0  0
  -21.8402  -29.2979   21.4346 C   0  0  0  0  0  0  0  0  0  0  0  0
  -32.1744   -9.8924   16.4066 C   0  0  0  0  0  0  0  0  0  0  0  0
  -27.5431  -13.7442   19.9211 C   0  0  0  0  0  0  0  0  0  0  0  0
  -25.0923  -14.0401   20.5640 C   0  0  0  0  0  0  0  0  0  0  0  0
  -30.0440  -25.9142   19.3475 C   0  0  0  0  0  0  0  0  0  0  0  0
  -23.6471  -29.4813   19.8343 C   0  0  0  0  0  0  0  0  0  0  0  0
  -28.6435  -26.0128   19.4540 C   0  0  0  0  0  0  0  0  0  0  0  0
  -23.1734  -29.6271   21.1459 C   0  0  0  0  0  0  0  0  0  0  0  0
  -29.8973  -12.2758   19.6309 C   0  0  0  0  0  0  0  0  0  0  0  0
  -20.9866  -28.8423   20.4302 C   0  0  0  0  0  0  0  0  0  0  0  0
  -31.1174  -10.6590   18.4393 C   0  0  0  0  0  0  0  0  0  0  0  0
  -31.2597   -8.8422   16.3271 C   0  0  0  0  0  0  0  0  0  0  0  0
  -32.1032  -10.8008   17.4627 C   0  0  0  0  0  0  0  0  0  0  0  0
  -26.3269  -14.5023   20.0703 C   0  0  0  0  0  0  0  0  0  0  0  0
  -24.2665  -15.1360   20.5040 C   0  0  0  0  0  0  0  0  0  0  0  0
  -24.7247  -12.7366   21.0348 C   0  0  0  0  0  0  0  0  0  0  0  0
  -26.3550  -28.4010   21.1007 C   0  0  0  0  0  0  0  0  0  0  0  0
  -26.2853  -31.2292   22.6878 C   0  0  0  0  0  0  0  0  0  0  0  0
  -24.4347  -33.8348   23.8848 C   0  0  0  0  0  0  0  0  0  0  0  0
  -23.6221  -20.5860   21.5491 C   0  0  0  0  0  0  0  0  0  0  0  0
  -30.9539  -26.2696   20.4967 C   0  0  0  0  0  0  0  0  0  0  0  0
  -25.0644  -29.8498   19.4909 C   0  0  0  0  0  0  0  0  0  0  0  0
  -24.0599  -30.1206   22.2590 C   0  0  0  0  0  0  0  0  0  0  0  0
  -30.2801  -27.1280   21.5641 C   0  0  0  0  0  0  0  0  0  0  0  0
  -26.1272  -19.4317   18.8712 C   0  0  0  0  0  0  0  0  0  0  0  0
  -28.9094  -26.5604   21.9188 C   0  0  0  0  0  0  0  0  0  0  0  0
  -25.3134  -18.1930   18.5092 C   0  0  0  0  0  0  0  0  0  0  0  0
  -21.2762  -22.8471   21.3936 C   0  0  0  0  0  0  0  0  0  0  0  0
  -25.2726  -20.4449   19.6265 C   0  0  0  0  0  0  0  0  0  0  0  0
  -20.3630  -23.8404   22.1111 C   0  0  0  0  0  0  0  0  0  0  0  0
  -22.2476  -25.2260   22.7312 C   0  0  0  0  0  0  0  0  0  0  0  0
  -24.7317  -18.4344   21.0005 C   0  0  0  0  0  0  0  0  0  0  0  0
  -27.9800  -26.5601   20.6991 C   0  0  1  0  0  0  0  0  0  0  0  0
  -26.0019  -29.8036   20.6936 C   0  0  1  0  0  0  0  0  0  0  0  0
  -23.2501  -24.2778   22.0421 C   0  0  2  0  0  0  0  0  0  0  0  0
  -24.5919  -17.5791   19.7288 C   0  0  2  0  0  0  0  0  0  0  0  0
  -22.6851  -22.8431   21.9950 C   0  0  2  0  0  0  0  0  0  0  0  0
  -24.5979  -24.3490   22.7670 C   0  0  0  0  0  0  0  0  0  0  0  0
  -24.6520  -35.9776   25.1728 C   0  0  0  0  0  0  0  0  0  0  0  0
  -15.8788  -26.1609   22.8025 C   0  0  0  0  0  0  0  0  0  0  0  0
  -16.6934  -27.7157   24.6173 C   0  0  0  0  0  0  0  0  0  0  0  0
  -18.1857  -27.2026   19.4016 C   0  0  0  0  0  0  0  0  0  0  0  0
  -26.5767  -29.6407   25.2766 C   0  0  0  0  0  0  0  0  0  0  0  0
  -25.8418  -31.6803   26.5290 C   0  0  0  0  0  0  0  0  0  0  0  0
  -27.9389  -31.7359   25.1792 C   0  0  0  0  0  0  0  0  0  0  0  0
  -23.4147  -35.4377   21.6156 C   0  0  0  0  0  0  0  0  0  0  0  0
  -20.0214  -26.1465   22.7090 C   0  0  0  0  0  0  0  0  0  0  0  0
  -25.7043  -31.7065   23.9969 C   0  0  1  0  0  0  0  0  0  0  0  0
  -24.6332  -35.3371   23.7936 C   0  0  2  0  0  0  0  0  0  0  0  0
  -17.0866  -26.7242   23.5340 C   0  0  0  0  0  0  0  0  0  0  0  0
  -18.8532  -26.5089   21.7815 C   0  0  2  0  0  0  0  0  0  0  0  0
  -19.2781  -27.1883   20.4662 C   0  0  2  0  0  0  0  0  0  1  0  0
  -26.4990  -31.1797   25.2250 C   0  0  0  0  0  0  0  0  0  0  0  0
  -26.2931  -15.7913   19.7222 N   0  0  0  0  0  0  0  0  0  0  0  0
  -25.0271  -16.1485   19.9974 N   0  0  0  0  0  0  0  0  0  0  0  0
  -25.4393  -30.4621   21.8743 N   0  0  0  0  0  0  0  0  0  0  0  0
  -24.4991  -19.8535   20.7256 N   0  0  0  0  0  0  0  0  0  0  0  0
  -20.9325  -25.1923   22.0767 N   0  0  2  0  0  0  0  0  0  0  0  0
  -22.9713  -15.3227   20.8356 N   0  0  0  0  0  0  0  0  0  0  0  0
  -24.2156  -11.8121   20.1126 N   0  0  0  0  0  0  0  0  0  0  0  0
  -27.4653  -27.8906   20.4556 N   0  0  0  0  0  0  0  0  0  0  0  0
  -25.6375  -33.1611   23.9076 N   0  0  0  0  0  0  0  0  0  0  0  0
  -23.5349  -21.9431   21.2490 N   0  0  0  0  0  0  0  0  0  0  0  0
  -23.5336  -35.9578   23.0021 N   0  3  0  0  0  0  0  0  0  0  0  0
  -17.9498  -27.4210   22.5494 N   0  3  0  0  0  0  0  0  0  0  0  0
  -24.8287  -12.4071   22.2407 O   0  0  0  0  0  0  0  0  0  0  0  0
  -25.6717  -27.8251   21.9393 O   0  0  0  0  0  0  0  0  0  0  0  0
  -27.4445  -31.5321   22.3945 O   0  0  0  0  0  0  0  0  0  0  0  0
  -23.3237  -33.3116   23.9349 O   0  0  0  0  0  0  0  0  0  0  0  0
  -22.9774  -20.0762   22.4704 O   0  0  0  0  0  0  0  0  0  0  0  0
  -31.0460  -11.5596   19.4889 O   0  0  0  0  0  0  0  0  0  0  0  0
  -19.6956  -28.5283   20.7243 O   0  0  0  0  0  0  0  0  0  1  0  0
  -31.3289   -7.9690   15.3138 F   0  0  0  0  0  0  0  0  0  0  0  0
  -32.9854  -11.8070   17.5344 F   0  0  0  0  0  0  0  0  0  0  0  0
  1  2  1  0  0  0  0
  1  5  2  0  0  0  0
  2  6  2  0  0  0  0
  3  8  2  0  0  0  0
  3 15  1  0  0  0  0
  4  9  1  0  0  0  0
  4 15  2  0  0  0  0
  5 17  1  0  0  0  0
  6 19  1  0  0  0  0
  7 10  2  0  0  0  0
  7 18  1  0  0  0  0
  8 21  1  0  0  0  0
  9 21  2  0  0  0  0
 10 22  1  0  0  0  0
 11 12  2  0  0  0  0
 11 23  1  0  0  0  0
 12 24  1  0  0  0  0
 13 20  1  0  0  0  0
 13 22  2  0  0  0  0
 14 24  2  0  0  0  0
 14 25  1  0  0  0  0
 15 26  1  0  0  0  0
 16 26  1  0  0  0  0
 16 27  2  0  0  0  0
 16 28  1  0  0  0  0
 17 19  2  0  0  0  0
 17 33  1  0  0  0  0
 18 20  2  0  0  0  0
 18 34  1  0  0  0  0
 19 45  1  0  0  0  0
 20 35  1  0  0  0  0
 21 83  1  0  0  0  0
 22 84  1  0  0  0  0
 23 25  2  0  0  0  0
 23 83  1  0  0  0  0
 24 85  1  0  0  0  0
 25 86  1  0  0  0  0
 26 66  2  0  0  0  0
 27 67  1  0  0  0  0
 27 71  1  0  0  0  0
 28 72  1  0  0  0  0
 28 78  2  0  0  0  0
 29 46  1  0  0  0  0
 29 73  1  0  0  0  0
 29 79  2  0  0  0  0
 30 60  1  0  0  0  0
 30 68  1  0  0  0  0
 30 80  2  0  0  0  0
 31 61  1  0  0  0  0
 31 74  1  0  0  0  0
 31 81  2  0  0  0  0
 32 69  1  0  0  0  0
 32 75  1  0  0  0  0
 32 82  2  0  0  0  0
 33 36  1  0  0  0  0
 34 46  1  0  0  0  0
 35 68  1  0  0  0  0
 36 38  1  0  0  0  0
 37 39  1  0  0  0  0
 37 41  1  0  0  0  0
 38 45  1  0  0  0  0
 39 48  1  0  0  0  0
 40 42  1  0  0  0  0
 40 49  1  0  0  0  0
 41 69  1  0  0  0  0
 42 70  1  0  0  0  0
 43 47  1  0  0  0  0
 43 70  1  0  0  0  0
 44 48  1  0  0  0  0
 44 69  1  0  0  0  0
 45 73  1  0  0  0  0
 46 68  1  0  0  0  0
 47 49  1  0  0  0  0
 47 50  1  0  0  0  0
 48 67  1  0  0  0  0
 49 75  1  0  0  0  0
 51 61  1  0  0  0  0
 52 62  1  0  0  0  0
 53 62  1  0  0  0  0
 54 64  1  0  0  0  0
 55 65  1  0  0  0  0
 56 65  1  0  0  0  0
 57 65  1  0  0  0  0
 58 76  1  0  0  0  0
 59 63  1  0  0  0  0
 59 70  1  0  0  0  0
 60 65  1  0  0  0  0
 60 74  1  0  0  0  0
 61 76  1  0  0  0  0
 62 77  1  0  0  0  0
 63 64  1  0  0  0  0
 63 77  1  0  0  0  0
 64 84  1  0  0  0  0
 66 67  1  0  0  0  0
M  CHG  2  76   1  77   1
M  ISO  4  32 100  64 101  75 100  84 101
M  END
> <Batch ID>
0117

> <Smiles>
CNC(C)C(=O)NC(C(=O)N1Cc2cc([101O:1][101CH:1](C)C(CN3CCC([100NH:0][100C:0](=O)N4CCCC(n5nc(-c6ccc(Oc7ccc(F)cc7F)cc6)c(C(N)=O)c5N)C4)C(C)C3)NC(C)C)ccc2CC1C(=O)NC1CCCc2ccccc21)C(C)(C)C

> <Shape>
0.317

> <Color>
0.073

> <Negative vol penalty>
0.000

$$$$

  -OEChem-04052320153D

 86 95  0     1  0  0  0  0  0999 V2000
  -16.8130  -29.2517   24.3204 C   0  0  0  0  0  0  0  0  0  0  0  0
  -17.1892  -28.3156   23.3625 C   0  0  0  0  0  0  0  0  0  0  0  0
  -26.2659  -13.2099   20.0919 C   0  0  0  0  0  0  0  0  0  0  0  0
  -24.0414  -13.1215   21.0304 C   0  0  0  0  0  0  0  0  0  0  0  0
  -17.5505  -30.4249   24.4742 C   0  0  0  0  0  0  0  0  0  0  0  0
  -18.3025  -28.5527   22.5571 C   0  0  0  0  0  0  0  0  0  0  0  0
  -22.2634  -24.3922   20.4339 C   0  0  0  0  0  0  0  0  0  0  0  0
  -27.5257  -22.1348   14.9607 C   0  0  0  0  0  0  0  0  0  0  0  0
  -26.3016  -11.8163   20.0451 C   0  0  0  0  0  0  0  0  0  0  0  0
  -24.0771  -11.7279   20.9836 C   0  0  0  0  0  0  0  0  0  0  0  0
  -22.3730  -23.7430   19.2049 C   0  0  0  0  0  0  0  0  0  0  0  0
  -25.4251   -9.2082   22.7905 C   0  0  0  0  0  0  0  0  0  0  0  0
  -24.9792   -8.5105   23.9129 C   0  0  0  0  0  0  0  0  0  0  0  0
  -26.1594  -21.9189   14.8198 C   0  0  0  0  0  0  0  0  0  0  0  0
  -23.9919  -25.3824   18.4901 C   0  0  0  0  0  0  0  0  0  0  0  0
  -23.2773   -7.4413   22.5722 C   0  0  0  0  0  0  0  0  0  0  0  0
  -25.1358  -13.8625   20.5846 C   0  0  0  0  0  0  0  0  0  0  0  0
  -24.6399  -16.1753   19.6293 C   0  0  0  0  0  0  0  0  0  0  0  0
  -18.6791  -30.6721   23.6769 C   0  0  0  0  0  0  0  0  0  0  0  0
  -23.0103  -25.5496   20.6966 C   0  0  0  0  0  0  0  0  0  0  0  0
  -19.0550  -29.7309   22.6995 C   0  0  0  0  0  0  0  0  0  0  0  0
  -23.8918  -26.0430   19.7242 C   0  0  0  0  0  0  0  0  0  0  0  0
  -28.0827  -22.2223   16.2316 C   0  0  0  0  0  0  0  0  0  0  0  0
  -25.2072  -11.0753   20.4909 C   0  0  0  0  0  0  0  0  0  0  0  0
  -23.2351  -24.2397   18.2318 C   0  0  0  0  0  0  0  0  0  0  0  0
  -24.7971   -9.0226   21.5588 C   0  0  0  0  0  0  0  0  0  0  0  0
  -23.9053   -7.6270   23.8038 C   0  0  0  0  0  0  0  0  0  0  0  0
  -23.7232   -8.1391   21.4497 C   0  0  0  0  0  0  0  0  0  0  0  0
  -25.0986  -15.3021   20.6337 C   0  0  0  0  0  0  0  0  0  0  0  0
  -27.2370  -22.0883   17.3210 C   0  0  0  0  0  0  0  0  0  0  0  0
  -25.3998  -21.7982   15.9723 C   0  0  0  0  0  0  0  0  0  0  0  0
  -24.8131  -17.4303   20.1600 C   0  0  0  0  0  0  0  0  0  0  0  0
  -24.1051  -15.8787   18.3325 C   0  0  0  0  0  0  0  0  0  0  0  0
  -22.2992  -28.5757   21.3602 C   0  0  0  0  0  0  0  0  0  0  0  0
  -25.5041  -28.8260   21.7939 C   0  0  0  0  0  0  0  0  0  0  0  0
  -28.6234  -27.6248   21.1054 C   0  0  0  0  0  0  0  0  0  0  0  0
  -27.6785  -21.1839   22.9193 C   0  0  0  0  0  0  0  0  0  0  0  0
  -19.4170  -31.9763   23.8475 C   0  0  0  0  0  0  0  0  0  0  0  0
  -22.9007  -26.2229   22.0371 C   0  0  0  0  0  0  0  0  0  0  0  0
  -24.7310  -27.2704   19.9641 C   0  0  0  0  0  0  0  0  0  0  0  0
  -20.8038  -31.9795   23.2096 C   0  0  0  0  0  0  0  0  0  0  0  0
  -25.9411  -18.9082   24.8568 C   0  0  0  0  0  0  0  0  0  0  0  0
  -20.7444  -31.3991   21.8002 C   0  0  0  0  0  0  0  0  0  0  0  0
  -25.5215  -17.8292   23.8585 C   0  0  0  0  0  0  0  0  0  0  0  0
  -26.7724  -22.7899   19.7107 C   0  0  0  0  0  0  0  0  0  0  0  0
  -28.2770  -20.8100   19.2450 C   0  0  0  0  0  0  0  0  0  0  0  0
  -27.3658  -19.3788   24.5863 C   0  0  0  0  0  0  0  0  0  0  0  0
  -27.3287  -22.8492   21.1313 C   0  0  0  0  0  0  0  0  0  0  0  0
  -28.8004  -20.9150   20.6745 C   0  0  0  0  0  0  0  0  0  0  0  0
  -27.1666  -18.8122   22.1877 C   0  0  0  0  0  0  0  0  0  0  0  0
  -20.2711  -29.9407   21.8236 C   0  0  1  0  0  0  0  0  0  0  0  0
  -27.7881  -22.1760   18.7318 C   0  0  0  0  0  0  0  0  0  0  0  0
  -23.3248  -27.6880   22.0064 C   0  0  1  0  0  0  0  0  0  0  0  0
  -25.7269  -18.3073   22.4102 C   0  0  1  0  0  0  0  0  0  0  0  0
  -29.5457  -22.4543   16.3886 C   0  0  0  0  0  0  0  0  0  0  0  0
  -23.5884  -20.0656   15.7513 C   0  0  0  0  0  0  0  0  0  0  0  0
  -31.1189  -27.4052   21.2527 C   0  0  0  0  0  0  0  0  0  0  0  0
  -25.4619  -31.1586   19.8274 C   0  0  0  0  0  0  0  0  0  0  0  0
  -27.9454  -30.9285   19.6089 C   0  0  0  0  0  0  0  0  0  0  0  0
  -26.9370  -31.4989   21.8180 C   0  0  0  0  0  0  0  0  0  0  0  0
  -28.4379  -25.6969   23.3431 C   0  0  0  0  0  0  0  0  0  0  0  0
  -23.1276  -22.1976   17.0176 C   0  0  0  0  0  0  0  0  0  1  0  0
  -23.9302  -21.5651   15.8580 C   0  0  1  0  0  0  0  0  0  0  0  0
  -26.6806  -29.1546   20.9067 C   0  0  1  0  0  0  0  0  0  0  0  0
  -29.8023  -27.3072   22.0075 C   0  0  2  0  0  0  0  0  0  0  0  0
  -26.7391  -30.6631   20.5347 C   0  0  0  0  0  0  0  0  0  0  0  0
  -25.5309  -15.9476   21.7202 N   0  0  0  0  0  0  0  0  0  0  0  0
  -25.9052  -21.8777   17.2237 N   0  0  0  0  0  0  0  0  0  0  0  0
  -25.3446  -17.2398   21.4016 N   0  0  0  0  0  0  0  0  0  0  0  0
  -24.5837  -27.8970   21.2882 N   0  0  0  0  0  0  0  0  0  0  0  0
  -27.5214  -19.8181   23.1998 N   0  0  0  0  0  0  0  0  0  0  0  0
  -27.8168  -21.5417   21.5680 N   0  0  0  0  0  0  0  0  0  0  0  0
  -24.5611  -18.6670   19.6812 N   0  0  0  0  0  0  0  0  0  0  0  0
  -23.9961  -14.5359   17.9459 N   0  0  0  0  0  0  0  0  0  0  0  0
  -21.3485  -29.0662   22.2349 N   0  0  0  0  0  0  0  0  0  0  0  0
  -27.8657  -28.6642   21.6020 N   0  0  0  0  0  0  0  0  0  0  0  0
  -29.6772  -25.9276   22.5570 N   0  3  0  0  0  0  0  0  0  0  0  0
  -23.7500  -16.7783   17.5337 O   0  0  0  0  0  0  0  0  0  0  0  0
  -22.3663  -28.8004   20.1574 O   0  0  0  0  0  0  0  0  0  0  0  0
  -25.4092  -29.3680   22.8979 O   0  0  0  0  0  0  0  0  0  0  0  0
  -28.3994  -27.0145   20.0623 O   0  0  0  0  0  0  0  0  0  0  0  0
  -27.6894  -22.0341   23.8181 O   0  0  0  0  0  0  0  0  0  0  0  0
  -25.2415   -9.7154   20.4452 O   0  0  0  0  0  0  0  0  0  0  0  0
  -23.3443  -23.6042   17.0232 O   0  0  0  0  0  0  0  0  0  1  0  0
  -23.4782   -6.9559   24.8814 F   0  0  0  0  0  0  0  0  0  0  0  0
  -23.1167   -7.9557   20.2689 F   0  0  0  0  0  0  0  0  0  0  0  0
  1  2  1  0  0  0  0
  1  5  2  0  0  0  0
  2  6  2  0  0  0  0
  3  9  2  0  0  0  0
  3 17  1  0  0  0  0
  4 10  1  0  0  0  0
  4 17  2  0  0  0  0
  5 19  1  0  0  0  0
  6 21  1  0  0  0  0
  7 11  2  0  0  0  0
  7 20  1  0  0  0  0
  8 14  2  0  0  0  0
  8 23  1  0  0  0  0
  9 24  1  0  0  0  0
 10 24  2  0  0  0  0
 11 25  1  0  0  0  0
 12 13  2  0  0  0  0
 12 26  1  0  0  0  0
 13 27  1  0  0  0  0
 14 31  1  0  0  0  0
 15 22  1  0  0  0  0
 15 25  2  0  0  0  0
 16 27  2  0  0  0  0
 16 28  1  0  0  0  0
 17 29  1  0  0  0  0
 18 29  1  0  0  0  0
 18 32  2  0  0  0  0
 18 33  1  0  0  0  0
 19 21  2  0  0  0  0
 19 38  1  0  0  0  0
 20 22  2  0  0  0  0
 20 39  1  0  0  0  0
 21 51  1  0  0  0  0
 22 40  1  0  0  0  0
 23 30  2  0  0  0  0
 23 55  1  0  0  0  0
 24 83  1  0  0  0  0
 25 84  1  0  0  0  0
 26 28  2  0  0  0  0
 26 83  1  0  0  0  0
 27 85  1  0  0  0  0
 28 86  1  0  0  0  0
 29 67  2  0  0  0  0
 30 52  1  0  0  0  0
 30 68  1  0  0  0  0
 31 63  1  0  0  0  0
 31 68  2  0  0  0  0
 32 69  1  0  0  0  0
 32 73  1  0  0  0  0
 33 74  1  0  0  0  0
 33 78  2  0  0  0  0
 34 53  1  0  0  0  0
 34 75  1  0  0  0  0
 34 79  2  0  0  0  0
 35 64  1  0  0  0  0
 35 70  1  0  0  0  0
 35 80  2  0  0  0  0
 36 65  1  0  0  0  0
 36 76  1  0  0  0  0
 36 81  2  0  0  0  0
 37 71  1  0  0  0  0
 37 72  1  0  0  0  0
 37 82  2  0  0  0  0
 38 41  1  0  0  0  0
 39 53  1  0  0  0  0
 40 70  1  0  0  0  0
 41 43  1  0  0  0  0
 42 44  1  0  0  0  0
 42 47  1  0  0  0  0
 43 51  1  0  0  0  0
 44 54  1  0  0  0  0
 45 48  1  0  0  0  0
 45 52  1  0  0  0  0
 46 49  1  0  0  0  0
 46 52  1  0  0  0  0
 47 71  1  0  0  0  0
 48 72  1  0  0  0  0
 49 72  1  0  0  0  0
 50 54  1  0  0  0  0
 50 71  1  0  0  0  0
 51 75  1  0  0  0  0
 53 70  1  0  0  0  0
 54 69  1  0  0  0  0
 56 63  1  0  0  0  0
 57 65  1  0  0  0  0
 58 66  1  0  0  0  0
 59 66  1  0  0  0  0
 60 66  1  0  0  0  0
 61 77  1  0  0  0  0
 62 63  1  0  0  0  0
 62 84  1  0  0  0  0
 64 66  1  0  0  0  0
 64 76  1  0  0  0  0
 65 77  1  0  0  0  0
 67 69  1  0  0  0  0
M  CHG  1  77   1
M  ISO  4  37 100  62 101  72 100  84 101
M  END
> <Batch ID>
0117

> <Smiles>
CNC(C)C(=O)NC(C(=O)N1Cc2cc([101O:1][101CH2:1]C(C)c3ccc(C)c(C4CC[100N:0]([100C:0](=O)N5CCCC(n6nc(-c7ccc(Oc8ccc(F)cc8F)cc7)c(C(N)=O)c6N)C5)CC4)n3)ccc2CC1C(=O)NC1CCCc2ccccc21)C(C)(C)C

> <Shape>
0.213

> <Color>
0.075

> <Negative vol penalty>
0.000

$$$$

  -OEChem-04052320153D

 85 93  0     1  0  0  0  0  0999 V2000
  -34.1088  -27.8593   17.3782 C   0  0  0  0  0  0  0  0  0  0  0  0
  -33.2429  -26.9960   18.0418 C   0  0  0  0  0  0  0  0  0  0  0  0
  -26.7944  -12.9529   20.4294 C   0  0  0  0  0  0  0  0  0  0  0  0
  -25.2329  -14.7536   20.0343 C   0  0  0  0  0  0  0  0  0  0  0  0
  -34.2540  -29.1740   17.8191 C   0  0  0  0  0  0  0  0  0  0  0  0
  -32.5224  -27.4466   19.1473 C   0  0  0  0  0  0  0  0  0  0  0  0
  -27.6671  -26.0133   19.0175 C   0  0  0  0  0  0  0  0  0  0  0  0
  -25.7728  -12.0238   20.2327 C   0  0  0  0  0  0  0  0  0  0  0  0
  -24.2112  -13.8245   19.8376 C   0  0  0  0  0  0  0  0  0  0  0  0
  -27.3820  -24.6969   19.3774 C   0  0  0  0  0  0  0  0  0  0  0  0
  -23.4965   -9.1883   20.1890 C   0  0  0  0  0  0  0  0  0  0  0  0
  -23.3983   -8.1293   21.0914 C   0  0  0  0  0  0  0  0  0  0  0  0
  -31.1956  -23.1903   22.6927 C   0  0  0  0  0  0  0  0  0  0  0  0
  -26.7177  -25.4470   21.5717 C   0  0  0  0  0  0  0  0  0  0  0  0
  -23.0813   -9.6997   22.8998 C   0  0  0  0  0  0  0  0  0  0  0  0
  -30.6486  -23.7654   23.8284 C   0  0  0  0  0  0  0  0  0  0  0  0
  -26.5245  -14.3178   20.3302 C   0  0  0  0  0  0  0  0  0  0  0  0
  -28.4422  -15.8126   19.5584 C   0  0  0  0  0  0  0  0  0  0  0  0
  -33.5276  -29.6438   18.9247 C   0  0  0  0  0  0  0  0  0  0  0  0
  -27.4897  -27.0570   19.9372 C   0  0  0  0  0  0  0  0  0  0  0  0
  -32.6590  -28.7685   19.6042 C   0  0  0  0  0  0  0  0  0  0  0  0
  -26.9988  -26.7761   21.2202 C   0  0  0  0  0  0  0  0  0  0  0  0
  -30.3756  -22.3824   21.9129 C   0  0  0  0  0  0  0  0  0  0  0  0
  -29.0524  -22.1771   22.2873 C   0  0  0  0  0  0  0  0  0  0  0  0
  -24.4812  -12.4596   19.9368 C   0  0  0  0  0  0  0  0  0  0  0  0
  -26.9100  -24.4132   20.6556 C   0  0  0  0  0  0  0  0  0  0  0  0
  -23.3872  -10.5030   20.6419 C   0  0  0  0  0  0  0  0  0  0  0  0
  -23.1907   -8.3850   22.4468 C   0  0  0  0  0  0  0  0  0  0  0  0
  -23.1796  -10.7588   21.9973 C   0  0  0  0  0  0  0  0  0  0  0  0
  -27.5792  -15.2781   20.5338 C   0  0  0  0  0  0  0  0  0  0  0  0
  -28.6013  -22.7974   23.4412 C   0  0  0  0  0  0  0  0  0  0  0  0
  -29.2563  -16.6724   20.2543 C   0  0  0  0  0  0  0  0  0  0  0  0
  -28.5023  -15.5550   18.1493 C   0  0  0  0  0  0  0  0  0  0  0  0
  -29.4080  -29.1877   21.3096 C   0  0  0  0  0  0  0  0  0  0  0  0
  -26.6198  -30.3705   22.4713 C   0  0  0  0  0  0  0  0  0  0  0  0
  -23.3580  -29.8096   23.3036 C   0  0  0  0  0  0  0  0  0  0  0  0
  -28.5697  -19.6846   25.3833 C   0  0  0  0  0  0  0  0  0  0  0  0
  -33.7533  -31.0595   19.3932 C   0  0  0  0  0  0  0  0  0  0  0  0
  -27.7764  -28.4747   19.5248 C   0  0  0  0  0  0  0  0  0  0  0  0
  -26.7718  -27.8629   22.2379 C   0  0  0  0  0  0  0  0  0  0  0  0
  -32.6717  -31.5663   20.3438 C   0  0  0  0  0  0  0  0  0  0  0  0
  -31.1424  -17.3518   24.5985 C   0  0  0  0  0  0  0  0  0  0  0  0
  -32.3722  -30.5236   21.4161 C   0  0  0  0  0  0  0  0  0  0  0  0
  -30.5988  -16.6040   23.3798 C   0  0  0  0  0  0  0  0  0  0  0  0
  -30.0333  -17.6967   25.5900 C   0  0  0  0  0  0  0  0  0  0  0  0
  -28.3472  -17.6805   23.7925 C   0  0  0  0  0  0  0  0  0  0  0  0
  -31.8414  -29.2272   20.7922 C   0  0  1  0  0  0  0  0  0  0  0  0
  -28.0471  -29.3982   20.7086 C   0  0  1  0  0  0  0  0  0  0  0  0
  -29.4202  -17.3602   22.7378 C   0  0  2  0  0  0  0  0  0  0  0  0
  -32.0908  -20.7785   20.9967 C   0  0  0  0  0  0  0  0  0  0  0  0
  -31.3958  -22.7890   19.6440 C   0  0  0  0  0  0  0  0  0  0  0  0
  -21.3447  -30.9585   24.2647 C   0  0  0  0  0  0  0  0  0  0  0  0
  -26.4480  -21.2053   19.5952 C   0  0  0  0  0  0  0  0  0  0  0  0
  -27.8473  -30.1846   25.2585 C   0  0  0  0  0  0  0  0  0  0  0  0
  -25.5444  -30.4198   26.2123 C   0  0  0  0  0  0  0  0  0  0  0  0
  -26.5183  -32.2615   24.8403 C   0  0  0  0  0  0  0  0  0  0  0  0
  -21.7807  -29.3586   20.8403 C   0  0  0  0  0  0  0  0  0  0  0  0
  -28.1382  -21.3047   21.4597 C   0  0  0  0  0  0  0  0  0  0  0  0
  -27.1895  -22.6137   23.8936 C   0  0  0  0  0  0  0  0  0  0  0  0
  -27.0406  -21.6091   25.0412 C   0  0  0  0  0  0  0  0  0  0  0  0
  -30.9374  -21.7492   20.6830 C   0  0  0  0  0  0  0  0  0  0  0  0
  -25.7858  -30.1244   23.7053 C   0  0  1  0  0  0  0  0  0  0  0  0
  -22.0913  -30.5865   22.9931 C   0  0  2  0  0  0  0  0  0  0  0  0
  -27.3967  -22.1016   20.3810 C   0  0  2  0  0  0  0  0  0  1  0  0
  -26.4300  -30.7266   24.9858 C   0  0  0  0  0  0  0  0  0  0  0  0
  -29.3680  -23.5891   24.2242 N   0  0  0  0  0  0  0  0  0  0  0  0
  -27.8226  -15.7580   21.7563 N   0  0  0  0  0  0  0  0  0  0  0  0
  -28.8477  -16.6030   21.5537 N   0  0  0  0  0  0  0  0  0  0  0  0
  -27.0728  -29.2324   21.7891 N   0  0  0  0  0  0  0  0  0  0  0  0
  -28.9470  -18.4141   24.9181 N   0  0  0  0  0  0  0  0  0  0  0  0
  -30.2748  -17.4734   19.8754 N   0  0  0  0  0  0  0  0  0  0  0  0
  -27.5920  -14.6435   17.5972 N   0  0  0  0  0  0  0  0  0  0  0  0
  -30.4503  -29.3770   20.4223 N   0  0  0  0  0  0  0  0  0  0  0  0
  -24.4539  -30.6399   23.4073 N   0  0  0  0  0  0  0  0  0  0  0  0
  -27.5361  -20.2979   24.6861 N   0  0  0  0  0  0  0  0  0  0  0  0
  -21.1828  -29.7744   22.1352 N   0  3  0  0  0  0  0  0  0  0  0  0
  -29.3493  -16.1041   17.4045 O   0  0  0  0  0  0  0  0  0  0  0  0
  -29.5053  -28.8781   22.4913 O   0  0  0  0  0  0  0  0  0  0  0  0
  -26.8546  -31.5298   22.1214 O   0  0  0  0  0  0  0  0  0  0  0  0
  -23.3731  -28.5887   23.4440 O   0  0  0  0  0  0  0  0  0  0  0  0
  -29.1173  -20.2341   26.3452 O   0  0  0  0  0  0  0  0  0  0  0  0
  -23.4841  -11.5533   19.7446 O   0  0  0  0  0  0  0  0  0  0  0  0
  -26.6315  -23.1291   21.0096 O   0  0  0  0  0  0  0  0  0  1  0  0
  -23.0949   -7.3679   23.3131 F   0  0  0  0  0  0  0  0  0  0  0  0
  -23.0725  -12.0197   22.4382 F   0  0  0  0  0  0  0  0  0  0  0  0
  1  2  1  0  0  0  0
  1  5  2  0  0  0  0
  2  6  2  0  0  0  0
  3  8  2  0  0  0  0
  3 17  1  0  0  0  0
  4  9  1  0  0  0  0
  4 17  2  0  0  0  0
  5 19  1  0  0  0  0
  6 21  1  0  0  0  0
  7 10  2  0  0  0  0
  7 20  1  0  0  0  0
  8 25  1  0  0  0  0
  9 25  2  0  0  0  0
 10 26  1  0  0  0  0
 11 12  2  0  0  0  0
 11 27  1  0  0  0  0
 12 28  1  0  0  0  0
 13 16  1  0  0  0  0
 13 23  2  0  0  0  0
 14 22  1  0  0  0  0
 14 26  2  0  0  0  0
 15 28  2  0  0  0  0
 15 29  1  0  0  0  0
 16 66  2  0  0  0  0
 17 30  1  0  0  0  0
 18 30  1  0  0  0  0
 18 32  2  0  0  0  0
 18 33  1  0  0  0  0
 19 21  2  0  0  0  0
 19 38  1  0  0  0  0
 20 22  2  0  0  0  0
 20 39  1  0  0  0  0
 21 47  1  0  0  0  0
 22 40  1  0  0  0  0
 23 24  1  0  0  0  0
 23 61  1  0  0  0  0
 24 31  2  0  0  0  0
 24 58  1  0  0  0  0
 25 82  1  0  0  0  0
 26 83  1  0  0  0  0
 27 29  2  0  0  0  0
 27 82  1  0  0  0  0
 28 84  1  0  0  0  0
 29 85  1  0  0  0  0
 30 67  2  0  0  0  0
 31 59  1  0  0  0  0
 31 66  1  0  0  0  0
 32 68  1  0  0  0  0
 32 71  1  0  0  0  0
 33 72  1  0  0  0  0
 33 77  2  0  0  0  0
 34 48  1  0  0  0  0
 34 73  1  0  0  0  0
 34 78  2  0  0  0  0
 35 62  1  0  0  0  0
 35 69  1  0  0  0  0
 35 79  2  0  0  0  0
 36 63  1  0  0  0  0
 36 74  1  0  0  0  0
 36 80  2  0  0  0  0
 37 70  1  0  0  0  0
 37 75  1  0  0  0  0
 37 81  2  0  0  0  0
 38 41  1  0  0  0  0
 39 48  1  0  0  0  0
 40 69  1  0  0  0  0
 41 43  1  0  0  0  0
 42 44  1  0  0  0  0
 42 45  1  0  0  0  0
 43 47  1  0  0  0  0
 44 49  1  0  0  0  0
 45 70  1  0  0  0  0
 46 49  1  0  0  0  0
 46 70  1  0  0  0  0
 47 73  1  0  0  0  0
 48 69  1  0  0  0  0
 49 68  1  0  0  0  0
 50 61  1  0  0  0  0
 51 61  1  0  0  0  0
 52 63  1  0  0  0  0
 53 64  1  0  0  0  0
 54 65  1  0  0  0  0
 55 65  1  0  0  0  0
 56 65  1  0  0  0  0
 57 76  1  0  0  0  0
 58 64  1  0  0  0  0
 59 60  1  0  0  0  0
 60 75  1  0  0  0  0
 62 65  1  0  0  0  0
 62 74  1  0  0  0  0
 63 76  1  0  0  0  0
 64 83  1  0  0  0  0
 67 68  1  0  0  0  0
M  CHG  1  76   1
M  ISO  4  37 100  64 101  75 100  83 101
M  END
> <Batch ID>
0117

> <Smiles>
CNC(C)C(=O)NC(C(=O)N1Cc2cc([101O:1][101CH:1](C)Cc3c(C(C)C)ccnc3CC[100NH:0][100C:0](=O)N3CCCC(n4nc(-c5ccc(Oc6ccc(F)cc6F)cc5)c(C(N)=O)c4N)C3)ccc2CC1C(=O)NC1CCCc2ccccc21)C(C)(C)C

> <Shape>
0.226

> <Color>
0.092

> <Negative vol penalty>
0.000

$$$$

  -OEChem-04052320153D

 80 88  0     1  0  0  0  0  0999 V2000
  -27.4103  -37.1779   23.0723 C   0  0  0  0  0  0  0  0  0  0  0  0
  -27.9507  -35.9997   22.5671 C   0  0  0  0  0  0  0  0  0  0  0  0
  -25.1107  -14.7150   19.3385 C   0  0  0  0  0  0  0  0  0  0  0  0
  -26.6033  -13.2603   20.5604 C   0  0  0  0  0  0  0  0  0  0  0  0
  -26.3259  -37.1271   23.9471 C   0  0  0  0  0  0  0  0  0  0  0  0
  -27.4076  -34.7699   22.9372 C   0  0  0  0  0  0  0  0  0  0  0  0
  -26.9426  -29.7531   19.4557 C   0  0  0  0  0  0  0  0  0  0  0  0
  -24.2707  -13.6328   19.0761 C   0  0  0  0  0  0  0  0  0  0  0  0
  -25.7633  -12.1781   20.2981 C   0  0  0  0  0  0  0  0  0  0  0  0
  -27.7225  -28.6013   19.3613 C   0  0  0  0  0  0  0  0  0  0  0  0
  -23.8279   -9.1006   20.2571 C   0  0  0  0  0  0  0  0  0  0  0  0
  -23.5358   -8.2351   21.3111 C   0  0  0  0  0  0  0  0  0  0  0  0
  -26.2229  -27.4693   20.8742 C   0  0  0  0  0  0  0  0  0  0  0  0
  -22.5625  -10.0687   22.5471 C   0  0  0  0  0  0  0  0  0  0  0  0
  -26.2771  -14.5288   20.0806 C   0  0  0  0  0  0  0  0  0  0  0  0
  -27.0906  -16.5173   21.4559 C   0  0  0  0  0  0  0  0  0  0  0  0
  -25.7630  -35.8965   24.3206 C   0  0  0  0  0  0  0  0  0  0  0  0
  -25.8012  -29.7751   20.2700 C   0  0  0  0  0  0  0  0  0  0  0  0
  -26.3154  -34.7026   23.8189 C   0  0  0  0  0  0  0  0  0  0  0  0
  -25.4288  -28.6218   20.9752 C   0  0  0  0  0  0  0  0  0  0  0  0
  -24.5970  -12.3644   19.5560 C   0  0  0  0  0  0  0  0  0  0  0  0
  -27.3643  -27.4600   20.0729 C   0  0  0  0  0  0  0  0  0  0  0  0
  -23.4874  -10.4503   20.3480 C   0  0  0  0  0  0  0  0  0  0  0  0
  -22.9031   -8.7191   22.4561 C   0  0  0  0  0  0  0  0  0  0  0  0
  -22.8547  -10.9343   21.4930 C   0  0  0  0  0  0  0  0  0  0  0  0
  -27.1455  -15.6462   20.3514 C   0  0  0  0  0  0  0  0  0  0  0  0
  -28.1221  -17.4001   21.2485 C   0  0  0  0  0  0  0  0  0  0  0  0
  -26.1879  -16.5275   22.5698 C   0  0  0  0  0  0  0  0  0  0  0  0
  -24.9003  -31.4371   22.8253 C   0  0  0  0  0  0  0  0  0  0  0  0
  -22.0949  -29.8736   22.3703 C   0  0  0  0  0  0  0  0  0  0  0  0
  -20.4626  -27.1650   21.0872 C   0  0  0  0  0  0  0  0  0  0  0  0
  -30.6893  -20.7775   17.4591 C   0  0  0  0  0  0  0  0  0  0  0  0
  -24.6213  -35.8897   25.3060 C   0  0  0  0  0  0  0  0  0  0  0  0
  -24.9556  -31.0171   20.3401 C   0  0  0  0  0  0  0  0  0  0  0  0
  -24.2014  -28.5873   21.8474 C   0  0  0  0  0  0  0  0  0  0  0  0
  -23.8664  -34.5638   25.3545 C   0  0  0  0  0  0  0  0  0  0  0  0
  -31.9345  -17.3210   17.9410 C   0  0  0  0  0  0  0  0  0  0  0  0
  -24.8442  -33.3950   25.4225 C   0  0  0  0  0  0  0  0  0  0  0  0
  -30.7564  -16.6390   18.6345 C   0  0  0  0  0  0  0  0  0  0  0  0
  -31.4783  -18.4748   17.0536 C   0  0  0  0  0  0  0  0  0  0  0  0
  -29.3642  -22.8655   17.5663 C   0  0  0  0  0  0  0  0  0  0  0  0
  -29.4696  -18.8065   18.4597 C   0  0  0  0  0  0  0  0  0  0  0  0
  -29.7097  -21.5954   19.6507 C   0  0  0  0  0  0  0  0  0  0  0  0
  -30.0101  -24.1042   18.1657 C   0  0  0  0  0  0  0  0  0  0  0  0
  -25.7382  -33.3504   24.1774 C   0  0  1  0  0  0  0  0  0  0  0  0
  -24.1011  -31.0877   21.6019 C   0  0  1  0  0  0  0  0  0  0  0  0
  -29.8997  -17.6660   19.3949 C   0  0  1  0  0  0  0  0  0  0  0  0
  -30.3710  -22.8067   20.3254 C   0  0  1  0  0  0  0  0  0  0  0  0
  -31.8971  -22.7340   20.2797 C   0  0  0  0  0  0  0  0  0  0  0  0
  -18.1763  -26.1464   20.9065 C   0  0  0  0  0  0  0  0  0  0  0  0
  -30.1364  -25.2109   21.8179 C   0  0  0  0  0  0  0  0  0  0  0  0
  -22.2687  -28.9733   25.2805 C   0  0  0  0  0  0  0  0  0  0  0  0
  -20.5335  -27.2407   24.7754 C   0  0  0  0  0  0  0  0  0  0  0  0
  -19.9825  -29.6618   24.5362 C   0  0  0  0  0  0  0  0  0  0  0  0
  -20.5083  -27.3019   18.1311 C   0  0  0  0  0  0  0  0  0  0  0  0
  -29.5192  -26.5103   19.7406 C   0  0  0  0  0  0  0  0  0  1  0  0
  -21.5105  -28.5656   22.8464 C   0  0  1  0  0  0  0  0  0  0  0  0
  -19.2036  -27.0528   20.2464 C   0  0  2  0  0  0  0  0  0  0  0  0
  -30.3184  -25.3460   20.3148 C   0  0  2  0  0  0  0  0  0  0  0  0
  -21.0981  -28.6113   24.3448 C   0  0  0  0  0  0  0  0  0  0  0  0
  -28.1336  -15.9483   19.5050 N   0  0  0  0  0  0  0  0  0  0  0  0
  -28.7091  -17.0192   20.0778 N   0  0  0  0  0  0  0  0  0  0  0  0
  -23.4107  -29.8285   21.8881 N   0  0  0  0  0  0  0  0  0  0  0  0
  -30.6281  -19.4130   17.7864 N   0  0  0  0  0  0  0  0  0  0  0  0
  -29.8637  -21.6438   18.1914 N   0  0  0  0  0  0  0  0  0  0  0  0
  -28.5752  -18.4574   21.9551 N   0  0  0  0  0  0  0  0  0  0  0  0
  -25.1862  -15.5489   22.6270 N   0  0  0  0  0  0  0  0  0  0  0  0
  -25.0135  -32.7951   23.0545 N   0  0  0  0  0  0  0  0  0  0  0  0
  -20.4157  -28.2517   21.9346 N   0  0  0  0  0  0  0  0  0  0  0  0
  -29.8408  -24.0742   19.6683 N   0  3  1  0  0  0  0  0  0  0  0  0
  -19.5264  -26.4966   18.9020 N   0  3  0  0  0  0  0  0  0  0  0  0
  -26.2571  -17.3891   23.4788 O   0  0  0  0  0  0  0  0  0  0  0  0
  -25.3777  -30.5410   23.5114 O   0  0  0  0  0  0  0  0  0  0  0  0
  -21.4067  -30.8962   22.4175 O   0  0  0  0  0  0  0  0  0  0  0  0
  -21.3929  -26.3663   21.0034 O   0  0  0  0  0  0  0  0  0  0  0  0
  -31.4421  -21.1960   16.5707 O   0  0  0  0  0  0  0  0  0  0  0  0
  -23.7774  -11.3082   19.3004 O   0  0  0  0  0  0  0  0  0  0  0  0
  -28.1293  -26.3270   19.9825 O   0  0  0  0  0  0  0  0  0  1  0  0
  -22.6212   -7.8875   23.4676 F   0  0  0  0  0  0  0  0  0  0  0  0
  -22.5240  -12.2296   21.5857 F   0  0  0  0  0  0  0  0  0  0  0  0
  1  2  1  0  0  0  0
  1  5  2  0  0  0  0
  2  6  2  0  0  0  0
  3  8  2  0  0  0  0
  3 15  1  0  0  0  0
  4  9  1  0  0  0  0
  4 15  2  0  0  0  0
  5 17  1  0  0  0  0
  6 19  1  0  0  0  0
  7 10  2  0  0  0  0
  7 18  1  0  0  0  0
  8 21  1  0  0  0  0
  9 21  2  0  0  0  0
 10 22  1  0  0  0  0
 11 12  2  0  0  0  0
 11 23  1  0  0  0  0
 12 24  1  0  0  0  0
 13 20  1  0  0  0  0
 13 22  2  0  0  0  0
 14 24  2  0  0  0  0
 14 25  1  0  0  0  0
 15 26  1  0  0  0  0
 16 26  1  0  0  0  0
 16 27  2  0  0  0  0
 16 28  1  0  0  0  0
 17 19  2  0  0  0  0
 17 33  1  0  0  0  0
 18 20  2  0  0  0  0
 18 34  1  0  0  0  0
 19 45  1  0  0  0  0
 20 35  1  0  0  0  0
 21 77  1  0  0  0  0
 22 78  1  0  0  0  0
 23 25  2  0  0  0  0
 23 77  1  0  0  0  0
 24 79  1  0  0  0  0
 25 80  1  0  0  0  0
 26 61  2  0  0  0  0
 27 62  1  0  0  0  0
 27 66  1  0  0  0  0
 28 67  1  0  0  0  0
 28 72  2  0  0  0  0
 29 46  1  0  0  0  0
 29 68  1  0  0  0  0
 29 73  2  0  0  0  0
 30 57  1  0  0  0  0
 30 63  1  0  0  0  0
 30 74  2  0  0  0  0
 31 58  1  0  0  0  0
 31 69  1  0  0  0  0
 31 75  2  0  0  0  0
 32 64  1  0  0  0  0
 32 65  1  0  0  0  0
 32 76  2  0  0  0  0
 33 36  1  0  0  0  0
 34 46  1  0  0  0  0
 35 63  1  0  0  0  0
 36 38  1  0  0  0  0
 37 39  1  0  0  0  0
 37 40  1  0  0  0  0
 38 45  1  0  0  0  0
 39 47  1  0  0  0  0
 40 64  1  0  0  0  0
 41 44  1  0  0  0  0
 41 65  1  0  0  0  0
 42 47  1  0  0  0  0
 42 64  1  0  0  0  0
 43 48  1  0  0  0  0
 43 65  1  0  0  0  0
 44 70  1  0  0  0  0
 45 68  1  0  0  0  0
 46 63  1  0  0  0  0
 47 62  1  0  0  0  0
 48 49  1  0  0  0  0
 48 70  1  0  0  0  0
 50 58  1  0  0  0  0
 51 59  1  0  0  0  0
 52 60  1  0  0  0  0
 53 60  1  0  0  0  0
 54 60  1  0  0  0  0
 55 71  1  0  0  0  0
 56 59  1  0  0  0  0
 56 78  1  0  0  0  0
 57 60  1  0  0  0  0
 57 69  1  0  0  0  0
 58 71  1  0  0  0  0
 59 70  1  0  0  0  0
 61 62  1  0  0  0  0
M  CHG  2  70   1  71   1
M  ISO  4  32 100  56 101  65 100  78 101
M  END
> <Batch ID>
0117

> <Smiles>
CNC(C)C(=O)NC(C(=O)N1Cc2cc([101O:1][101CH2:1]C(C)N3CC[100N:0]([100C:0](=O)N4CCCC(n5nc(-c6ccc(Oc7ccc(F)cc7F)cc6)c(C(N)=O)c5N)C4)CC3C)ccc2CC1C(=O)NC1CCCc2ccccc21)C(C)(C)C

> <Shape>
0.333

> <Color>
0.070

> <Negative vol penalty>
0.000

$$$$

  -OEChem-04052320153D

 86 95  0     1  0  0  0  0  0999 V2000
  -32.2603  -13.7728   21.4551 C   0  0  0  0  0  0  0  0  0  0  0  0
  -31.4526  -14.8324   21.8556 C   0  0  0  0  0  0  0  0  0  0  0  0
  -28.6752  -25.7738   19.9935 C   0  0  0  0  0  0  0  0  0  0  0  0
  -26.7959  -24.8759   21.2179 C   0  0  0  0  0  0  0  0  0  0  0  0
  -31.7595  -12.8069   20.5832 C   0  0  0  0  0  0  0  0  0  0  0  0
  -30.1440  -14.9273   21.3835 C   0  0  0  0  0  0  0  0  0  0  0  0
  -25.2797  -17.0717   24.4241 C   0  0  0  0  0  0  0  0  0  0  0  0
  -29.5267  -24.8836   20.6478 C   0  0  0  0  0  0  0  0  0  0  0  0
  -27.6474  -23.9857   21.8721 C   0  0  0  0  0  0  0  0  0  0  0  0
  -24.6402  -18.3106   24.4166 C   0  0  0  0  0  0  0  0  0  0  0  0
  -29.2719  -21.2310   23.6015 C   0  0  0  0  0  0  0  0  0  0  0  0
  -28.8586  -19.9039   23.7181 C   0  0  0  0  0  0  0  0  0  0  0  0
  -22.4912  -22.5316   19.5571 C   0  0  0  0  0  0  0  0  0  0  0  0
  -23.0418  -17.4690   22.8178 C   0  0  0  0  0  0  0  0  0  0  0  0
  -28.7663  -19.7212   21.3107 C   0  0  0  0  0  0  0  0  0  0  0  0
  -21.9741  -23.5681   18.8070 C   0  0  0  0  0  0  0  0  0  0  0  0
  -27.3097  -25.7700   20.2786 C   0  0  0  0  0  0  0  0  0  0  0  0
  -25.7430  -26.4760   18.3933 C   0  0  0  0  0  0  0  0  0  0  0  0
  -30.4410  -12.8847   20.1078 C   0  0  0  0  0  0  0  0  0  0  0  0
  -24.8107  -16.0237   23.6190 C   0  0  0  0  0  0  0  0  0  0  0  0
  -29.6256  -13.9622   20.5033 C   0  0  0  0  0  0  0  0  0  0  0  0
  -23.6756  -16.2171   22.8189 C   0  0  0  0  0  0  0  0  0  0  0  0
  -29.0129  -23.9896   21.5871 C   0  0  0  0  0  0  0  0  0  0  0  0
  -23.5228  -18.5103   23.6112 C   0  0  0  0  0  0  0  0  0  0  0  0
  -29.4323  -21.8032   22.3396 C   0  0  0  0  0  0  0  0  0  0  0  0
  -28.6058  -19.1490   22.5727 C   0  0  0  0  0  0  0  0  0  0  0  0
  -29.1796  -21.0484   21.1942 C   0  0  0  0  0  0  0  0  0  0  0  0
  -26.4296  -26.6896   19.6035 C   0  0  0  0  0  0  0  0  0  0  0  0
  -22.5631  -22.7565   20.9166 C   0  0  0  0  0  0  0  0  0  0  0  0
  -25.0477  -27.6416   18.1826 C   0  0  0  0  0  0  0  0  0  0  0  0
  -21.6778  -24.8356   20.6704 C   0  0  0  0  0  0  0  0  0  0  0  0
  -25.7343  -25.3266   17.5362 C   0  0  0  0  0  0  0  0  0  0  0  0
  -26.0188  -14.3258   21.2187 C   0  0  0  0  0  0  0  0  0  0  0  0
  -23.2719  -12.6322   21.5485 C   0  0  0  0  0  0  0  0  0  0  0  0
  -20.0265  -12.5517   22.6008 C   0  0  0  0  0  0  0  0  0  0  0  0
  -22.8839  -29.0564   22.5507 C   0  0  0  0  0  0  0  0  0  0  0  0
  -29.9593  -11.8427   19.1296 C   0  0  0  0  0  0  0  0  0  0  0  0
  -25.4957  -14.6852   23.6586 C   0  0  0  0  0  0  0  0  0  0  0  0
  -23.1202  -15.1181   21.9515 C   0  0  0  0  0  0  0  0  0  0  0  0
  -28.4414  -11.8121   18.9705 C   0  0  0  0  0  0  0  0  0  0  0  0
  -25.9981  -30.5583   21.6492 C   0  0  0  0  0  0  0  0  0  0  0  0
  -19.3077  -29.3859   22.0485 C   0  0  0  0  0  0  0  0  0  0  0  0
  -27.8940  -13.2256   18.7990 C   0  0  0  0  0  0  0  0  0  0  0  0
  -25.9190  -30.7449   20.1380 C   0  0  0  0  0  0  0  0  0  0  0  0
  -19.3586  -27.9158   22.4402 C   0  0  0  0  0  0  0  0  0  0  0  0
  -24.6353  -30.7762   22.2881 C   0  0  0  0  0  0  0  0  0  0  0  0
  -20.6730  -29.6089   21.4167 C   0  0  0  0  0  0  0  0  0  0  0  0
  -23.4884  -29.9494   20.2419 C   0  0  0  0  0  0  0  0  0  0  0  0
  -28.1928  -14.0863   20.0324 C   0  0  1  0  0  0  0  0  0  0  0  0
  -25.2399  -13.8459   22.4107 C   0  0  1  0  0  0  0  0  0  0  0  0
  -24.8375  -29.8646   19.4914 C   0  0  2  0  0  0  0  0  0  0  0  0
  -20.8035  -27.7273   22.9107 C   0  0  1  0  0  0  0  0  0  0  0  0
  -18.0253  -11.0410   22.7020 C   0  0  0  0  0  0  0  0  0  0  0  0
  -22.7819  -13.0859   18.5712 C   0  0  0  0  0  0  0  0  0  0  0  0
  -20.3973  -12.4142   18.9324 C   0  0  0  0  0  0  0  0  0  0  0  0
  -22.2318  -10.7843   19.3801 C   0  0  0  0  0  0  0  0  0  0  0  0
  -19.9511  -12.6575   25.5575 C   0  0  0  0  0  0  0  0  0  0  0  0
  -21.3086  -26.3148   22.6456 C   0  0  0  0  0  0  0  0  0  0  0  0
  -23.7024  -20.8693   23.8530 C   0  0  0  0  0  0  0  0  0  1  0  0
  -23.1161  -22.0622   23.1230 C   0  0  0  0  0  0  0  0  0  0  0  0
  -21.8829  -12.7236   20.9642 C   0  0  1  0  0  0  0  0  0  0  0  0
  -19.2624  -11.5382   23.4335 C   0  0  2  0  0  0  0  0  0  0  0  0
  -21.8349  -12.2735   19.4768 C   0  0  0  0  0  0  0  0  0  0  0  0
  -21.5562  -24.7382   19.3328 N   0  0  0  0  0  0  0  0  0  0  0  0
  -26.1923  -27.8962   20.1250 N   0  0  0  0  0  0  0  0  0  0  0  0
  -22.1641  -23.9010   21.5093 N   0  0  0  0  0  0  0  0  0  0  0  0
  -25.3488  -28.4512   19.2381 N   0  0  0  0  0  0  0  0  0  0  0  0
  -23.8287  -13.8294   22.0201 N   0  0  0  0  0  0  0  0  0  0  0  0
  -23.6127  -29.9068   21.7060 N   0  0  0  0  0  0  0  0  0  0  0  0
  -21.5717  -28.7467   22.1858 N   0  0  0  0  0  0  0  0  0  0  0  0
  -24.2144  -28.0429   17.1992 N   0  0  0  0  0  0  0  0  0  0  0  0
  -26.5049  -24.2146   17.9020 N   0  0  0  0  0  0  0  0  0  0  0  0
  -21.2554  -26.0337   21.2491 N   0  0  0  0  0  0  0  0  0  0  0  0
  -27.2770  -13.7658   21.1063 N   0  0  0  0  0  0  0  0  0  0  0  0
  -21.0161  -11.9536   21.8498 N   0  0  0  0  0  0  0  0  0  0  0  0
  -18.8324  -12.1468   24.7241 N   0  3  0  0  0  0  0  0  0  0  0  0
  -25.0760  -25.2931   16.4690 O   0  0  0  0  0  0  0  0  0  0  0  0
  -25.5149  -15.1424   20.4566 O   0  0  0  0  0  0  0  0  0  0  0  0
  -23.8390  -11.5376   21.5915 O   0  0  0  0  0  0  0  0  0  0  0  0
  -19.7686  -13.7534   22.6125 O   0  0  0  0  0  0  0  0  0  0  0  0
  -23.3796  -28.6018   23.5903 O   0  0  0  0  0  0  0  0  0  0  0  0
  -29.8435  -23.1207   22.2255 O   0  0  0  0  0  0  0  0  0  0  0  0
  -22.8929  -19.7269   23.6014 O   0  0  0  0  0  0  0  0  0  1  0  0
  -23.0655  -21.7757   21.7302 O   0  0  0  0  0  0  0  0  0  0  0  0
  -28.2104  -17.8741   22.6848 F   0  0  0  0  0  0  0  0  0  0  0  0
  -29.3331  -21.5923   19.9791 F   0  0  0  0  0  0  0  0  0  0  0  0
  1  2  1  0  0  0  0
  1  5  2  0  0  0  0
  2  6  2  0  0  0  0
  3  8  2  0  0  0  0
  3 17  1  0  0  0  0
  4  9  1  0  0  0  0
  4 17  2  0  0  0  0
  5 19  1  0  0  0  0
  6 21  1  0  0  0  0
  7 10  2  0  0  0  0
  7 20  1  0  0  0  0
  8 23  1  0  0  0  0
  9 23  2  0  0  0  0
 10 24  1  0  0  0  0
 11 12  2  0  0  0  0
 11 25  1  0  0  0  0
 12 26  1  0  0  0  0
 13 16  2  0  0  0  0
 13 29  1  0  0  0  0
 14 22  1  0  0  0  0
 14 24  2  0  0  0  0
 15 26  2  0  0  0  0
 15 27  1  0  0  0  0
 16 64  1  0  0  0  0
 17 28  1  0  0  0  0
 18 28  1  0  0  0  0
 18 30  2  0  0  0  0
 18 32  1  0  0  0  0
 19 21  2  0  0  0  0
 19 37  1  0  0  0  0
 20 22  2  0  0  0  0
 20 38  1  0  0  0  0
 21 49  1  0  0  0  0
 22 39  1  0  0  0  0
 23 82  1  0  0  0  0
 24 83  1  0  0  0  0
 25 27  2  0  0  0  0
 25 82  1  0  0  0  0
 26 85  1  0  0  0  0
 27 86  1  0  0  0  0
 28 65  2  0  0  0  0
 29 66  2  0  0  0  0
 29 84  1  0  0  0  0
 30 67  1  0  0  0  0
 30 71  1  0  0  0  0
 31 64  2  0  0  0  0
 31 66  1  0  0  0  0
 31 73  1  0  0  0  0
 32 72  1  0  0  0  0
 32 77  2  0  0  0  0
 33 50  1  0  0  0  0
 33 74  1  0  0  0  0
 33 78  2  0  0  0  0
 34 61  1  0  0  0  0
 34 68  1  0  0  0  0
 34 79  2  0  0  0  0
 35 62  1  0  0  0  0
 35 75  1  0  0  0  0
 35 80  2  0  0  0  0
 36 69  1  0  0  0  0
 36 70  1  0  0  0  0
 36 81  2  0  0  0  0
 37 40  1  0  0  0  0
 38 50  1  0  0  0  0
 39 68  1  0  0  0  0
 40 43  1  0  0  0  0
 41 44  1  0  0  0  0
 41 46  1  0  0  0  0
 42 45  1  0  0  0  0
 42 47  1  0  0  0  0
 43 49  1  0  0  0  0
 44 51  1  0  0  0  0
 45 52  1  0  0  0  0
 46 69  1  0  0  0  0
 47 70  1  0  0  0  0
 48 51  1  0  0  0  0
 48 69  1  0  0  0  0
 49 74  1  0  0  0  0
 50 68  1  0  0  0  0
 51 67  1  0  0  0  0
 52 58  1  0  0  0  0
 52 70  1  0  0  0  0
 53 62  1  0  0  0  0
 54 63  1  0  0  0  0
 55 63  1  0  0  0  0
 56 63  1  0  0  0  0
 57 76  1  0  0  0  0
 58 73  1  0  0  0  0
 59 60  1  0  0  0  0
 59 83  1  0  0  0  0
 60 84  1  0  0  0  0
 61 63  1  0  0  0  0
 61 75  1  0  0  0  0
 62 76  1  0  0  0  0
 65 67  1  0  0  0  0
M  CHG  1  76   1
M  ISO  4  36 100  59 101  70 100  83 101
M  END
> <Batch ID>
0117

> <Smiles>
CNC(C)C(=O)NC(C(=O)N1Cc2cc([101O:1][101CH2:1]COc3ccnc(NCC4CCC[100N:0]4[100C:0](=O)N4CCCC(n5nc(-c6ccc(Oc7ccc(F)cc7F)cc6)c(C(N)=O)c5N)C4)n3)ccc2CC1C(=O)NC1CCCc2ccccc21)C(C)(C)C

> <Shape>
0.242

> <Color>
0.079

> <Negative vol penalty>
0.000

$$$$

  -OEChem-04052320153D

 88 97  0     1  0  0  0  0  0999 V2000
  -29.5463  -25.2176   13.6468 C   0  0  0  0  0  0  0  0  0  0  0  0
  -28.3366  -25.0795   14.3199 C   0  0  0  0  0  0  0  0  0  0  0  0
  -25.0977  -24.0925   20.8332 C   0  0  0  0  0  0  0  0  0  0  0  0
  -26.5620  -14.7392   19.2963 C   0  0  0  0  0  0  0  0  0  0  0  0
  -24.8677  -14.9213   21.0089 C   0  0  0  0  0  0  0  0  0  0  0  0
  -30.7077  -25.5184   14.3571 C   0  0  0  0  0  0  0  0  0  0  0  0
  -28.2879  -25.2409   15.7041 C   0  0  0  0  0  0  0  0  0  0  0  0
  -23.6986  -27.6432   18.9711 C   0  0  0  0  0  0  0  0  0  0  0  0
  -26.6334  -13.3632   19.5132 C   0  0  0  0  0  0  0  0  0  0  0  0
  -24.9390  -13.5453   21.2258 C   0  0  0  0  0  0  0  0  0  0  0  0
  -22.6577  -27.0624   19.6943 C   0  0  0  0  0  0  0  0  0  0  0  0
  -24.4158  -10.0274   21.9802 C   0  0  0  0  0  0  0  0  0  0  0  0
  -23.2162   -9.3261   22.1006 C   0  0  0  0  0  0  0  0  0  0  0  0
  -25.7326  -23.6379   22.0153 C   0  0  0  0  0  0  0  0  0  0  0  0
  -23.9591  -27.2613   21.7157 C   0  0  0  0  0  0  0  0  0  0  0  0
  -22.5836  -10.0262   19.8765 C   0  0  0  0  0  0  0  0  0  0  0  0
  -23.8710  -23.4704   20.7599 C   0  0  0  0  0  0  0  0  0  0  0  0
  -25.6792  -15.5183   20.0442 C   0  0  0  0  0  0  0  0  0  0  0  0
  -24.7641  -17.6159   18.9171 C   0  0  0  0  0  0  0  0  0  0  0  0
  -30.6714  -25.6931   15.7495 C   0  0  0  0  0  0  0  0  0  0  0  0
  -24.8839  -28.0281   19.6141 C   0  0  0  0  0  0  0  0  0  0  0  0
  -29.4502  -25.5429   16.4340 C   0  0  0  0  0  0  0  0  0  0  0  0
  -25.0126  -27.8491   20.9988 C   0  0  0  0  0  0  0  0  0  0  0  0
  -25.8219  -12.7662   20.4779 C   0  0  0  0  0  0  0  0  0  0  0  0
  -22.7890  -26.8687   21.0663 C   0  0  0  0  0  0  0  0  0  0  0  0
  -24.6993  -10.7283   20.8080 C   0  0  0  0  0  0  0  0  0  0  0  0
  -22.3001   -9.3254   21.0487 C   0  0  0  0  0  0  0  0  0  0  0  0
  -23.7833  -10.7276   19.7561 C   0  0  0  0  0  0  0  0  0  0  0  0
  -25.6054  -16.9399   19.8210 C   0  0  0  0  0  0  0  0  0  0  0  0
  -24.8745  -22.7517   22.6283 C   0  0  0  0  0  0  0  0  0  0  0  0
  -25.0754  -18.9431   19.0851 C   0  0  0  0  0  0  0  0  0  0  0  0
  -23.7884  -17.0912   18.0070 C   0  0  0  0  0  0  0  0  0  0  0  0
  -27.9391  -27.1825   19.3804 C   0  0  0  0  0  0  0  0  0  0  0  0
  -28.3697  -29.6175   21.4799 C   0  0  0  0  0  0  0  0  0  0  0  0
  -19.9393  -23.8275   22.2245 C   0  0  0  0  0  0  0  0  0  0  0  0
  -27.0444  -31.6219   23.9033 C   0  0  0  0  0  0  0  0  0  0  0  0
  -27.7714  -21.6421   23.9272 C   0  0  0  0  0  0  0  0  0  0  0  0
  -31.9613  -25.9708   16.4802 C   0  0  0  0  0  0  0  0  0  0  0  0
  -25.9869  -28.6777   18.8242 C   0  0  0  0  0  0  0  0  0  0  0  0
  -26.2566  -28.2636   21.7398 C   0  0  0  0  0  0  0  0  0  0  0  0
  -31.7569  -26.4957   17.8989 C   0  0  0  0  0  0  0  0  0  0  0  0
  -28.6463  -21.8305   20.3315 C   0  0  0  0  0  0  0  0  0  0  0  0
  -30.7141  -25.6585   18.6328 C   0  0  0  0  0  0  0  0  0  0  0  0
  -27.9615  -20.5970   19.7510 C   0  0  0  0  0  0  0  0  0  0  0  0
  -24.8613  -22.7607   25.2869 C   0  0  0  0  0  0  0  0  0  0  0  0
  -29.0014  -21.6368   21.8014 C   0  0  0  0  0  0  0  0  0  0  0  0
  -26.2196  -22.3230   25.8223 C   0  0  0  0  0  0  0  0  0  0  0  0
  -27.1365  -20.0367   22.0747 C   0  0  0  0  0  0  0  0  0  0  0  0
  -29.3524  -25.7350   17.9318 C   0  0  1  0  0  0  0  0  0  0  0  0
  -25.1521  -21.9795   23.9857 C   0  0  2  0  0  0  0  0  0  0  0  0
  -27.3516  -28.5606   19.4959 C   0  0  1  0  0  0  0  0  0  0  0  0
  -26.7408  -20.2092   20.5990 C   0  0  2  0  0  0  0  0  0  0  0  0
  -18.3990  -25.4888   24.2369 C   0  0  0  0  0  0  0  0  0  0  0  0
  -27.6506  -33.4944   25.4601 C   0  0  0  0  0  0  0  0  0  0  0  0
  -29.8536  -27.6437   23.2721 C   0  0  0  0  0  0  0  0  0  0  0  0
  -29.5944  -29.2691   25.1586 C   0  0  0  0  0  0  0  0  0  0  0  0
  -30.8968  -29.9122   23.1306 C   0  0  0  0  0  0  0  0  0  0  0  0
  -25.0414  -33.4326   22.6916 C   0  0  0  0  0  0  0  0  0  0  0  0
  -19.4478  -26.0790   23.3021 C   0  0  0  0  0  0  0  0  0  0  0  0
  -22.5856  -21.8218   22.1494 C   0  0  0  0  0  0  0  0  0  0  0  0
  -21.6933  -22.3998   23.2424 C   0  0  0  0  0  0  0  0  0  0  0  0
  -20.6046  -25.9286   21.0479 C   0  0  0  0  0  0  0  0  0  1  0  0
  -28.3785  -29.7430   22.9842 C   0  0  1  0  0  0  0  0  0  0  0  0
  -19.5673  -25.2936   21.9846 C   0  0  1  0  0  0  0  0  0  0  0  0
  -27.0829  -33.1269   24.0980 C   0  0  2  0  0  0  0  0  0  0  0  0
  -29.6580  -29.1323   23.6224 C   0  0  0  0  0  0  0  0  0  0  0  0
  -26.3922  -17.7691   20.5119 N   0  0  0  0  0  0  0  0  0  0  0  0
  -23.7463  -22.6575   21.8561 N   0  0  0  0  0  0  0  0  0  0  0  0
  -26.0467  -18.9798   20.0419 N   0  0  0  0  0  0  0  0  0  0  0  0
  -27.3095  -28.8886   20.9224 N   0  0  0  0  0  0  0  0  0  0  0  0
  -27.8459  -21.2127   22.5964 N   0  0  0  0  0  0  0  0  0  0  0  0
  -26.5281  -21.8520   24.4779 N   0  0  0  0  0  0  0  0  0  0  0  0
  -24.6105  -20.0705   18.5063 N   0  0  0  0  0  0  0  0  0  0  0  0
  -23.5948  -15.7038   17.9619 N   0  0  0  0  0  0  0  0  0  0  0  0
  -28.6948  -26.9868   18.2402 N   0  0  0  0  0  0  0  0  0  0  0  0
  -21.1496  -23.6896   22.8888 N   0  0  0  0  0  0  0  0  0  0  0  0
  -28.1821  -31.1587   23.2769 N   0  0  0  0  0  0  0  0  0  0  0  0
  -25.7106  -33.6982   23.9911 N   0  3  0  0  0  0  0  0  0  0  0  0
  -23.1200  -17.8294   17.2442 O   0  0  0  0  0  0  0  0  0  0  0  0
  -27.7239  -26.3582   20.2613 O   0  0  0  0  0  0  0  0  0  0  0  0
  -29.2663  -30.1526   20.8231 O   0  0  0  0  0  0  0  0  0  0  0  0
  -19.2227  -22.8912   21.8771 O   0  0  0  0  0  0  0  0  0  0  0  0
  -26.1013  -30.9262   24.2734 O   0  0  0  0  0  0  0  0  0  0  0  0
  -28.7897  -21.8591   24.5980 O   0  0  0  0  0  0  0  0  0  0  0  0
  -25.8911  -11.4235   20.6897 O   0  0  0  0  0  0  0  0  0  0  0  0
  -21.7748  -26.3015   21.7744 O   0  0  0  0  0  0  0  0  0  1  0  0
  -21.1488   -8.6505   21.1639 F   0  0  0  0  0  0  0  0  0  0  0  0
  -24.0506  -11.3981   18.6270 F   0  0  0  0  0  0  0  0  0  0  0  0
  1  2  1  0  0  0  0
  1  6  2  0  0  0  0
  2  7  2  0  0  0  0
  3 14  1  0  0  0  0
  3 17  2  0  0  0  0
  4  9  2  0  0  0  0
  4 18  1  0  0  0  0
  5 10  1  0  0  0  0
  5 18  2  0  0  0  0
  6 20  1  0  0  0  0
  7 22  1  0  0  0  0
  8 11  2  0  0  0  0
  8 21  1  0  0  0  0
  9 24  1  0  0  0  0
 10 24  2  0  0  0  0
 11 25  1  0  0  0  0
 12 13  2  0  0  0  0
 12 26  1  0  0  0  0
 13 27  1  0  0  0  0
 14 30  2  0  0  0  0
 15 23  1  0  0  0  0
 15 25  2  0  0  0  0
 16 27  2  0  0  0  0
 16 28  1  0  0  0  0
 17 68  1  0  0  0  0
 18 29  1  0  0  0  0
 19 29  1  0  0  0  0
 19 31  2  0  0  0  0
 19 32  1  0  0  0  0
 20 22  2  0  0  0  0
 20 38  1  0  0  0  0
 21 23  2  0  0  0  0
 21 39  1  0  0  0  0
 22 49  1  0  0  0  0
 23 40  1  0  0  0  0
 24 85  1  0  0  0  0
 25 86  1  0  0  0  0
 26 28  2  0  0  0  0
 26 85  1  0  0  0  0
 27 87  1  0  0  0  0
 28 88  1  0  0  0  0
 29 67  2  0  0  0  0
 30 50  1  0  0  0  0
 30 68  1  0  0  0  0
 31 69  1  0  0  0  0
 31 73  1  0  0  0  0
 32 74  1  0  0  0  0
 32 79  2  0  0  0  0
 33 51  1  0  0  0  0
 33 75  1  0  0  0  0
 33 80  2  0  0  0  0
 34 63  1  0  0  0  0
 34 70  1  0  0  0  0
 34 81  2  0  0  0  0
 35 64  1  0  0  0  0
 35 76  1  0  0  0  0
 35 82  2  0  0  0  0
 36 65  1  0  0  0  0
 36 77  1  0  0  0  0
 36 83  2  0  0  0  0
 37 71  1  0  0  0  0
 37 72  1  0  0  0  0
 37 84  2  0  0  0  0
 38 41  1  0  0  0  0
 39 51  1  0  0  0  0
 40 70  1  0  0  0  0
 41 43  1  0  0  0  0
 42 44  1  0  0  0  0
 42 46  1  0  0  0  0
 43 49  1  0  0  0  0
 44 52  1  0  0  0  0
 45 47  1  0  0  0  0
 45 50  1  0  0  0  0
 46 71  1  0  0  0  0
 47 72  1  0  0  0  0
 48 52  1  0  0  0  0
 48 71  1  0  0  0  0
 49 75  1  0  0  0  0
 50 72  1  0  0  0  0
 51 70  1  0  0  0  0
 52 69  1  0  0  0  0
 53 59  1  0  0  0  0
 54 65  1  0  0  0  0
 55 66  1  0  0  0  0
 56 66  1  0  0  0  0
 57 66  1  0  0  0  0
 58 78  1  0  0  0  0
 59 64  1  0  0  0  0
 60 61  1  0  0  0  0
 60 68  1  0  0  0  0
 61 76  1  0  0  0  0
 62 64  1  0  0  0  0
 62 86  1  0  0  0  0
 63 66  1  0  0  0  0
 63 77  1  0  0  0  0
 65 78  1  0  0  0  0
 67 69  1  0  0  0  0
M  CHG  1  78   1
M  ISO  4  37 100  62 101  72 100  86 101
M  END
> <Batch ID>
0117

> <Smiles>
CCC(C(=O)NCCn1cccc1C1CC[100N:0]1[100C:0](=O)N1CCCC(n2nc(-c3ccc(Oc4ccc(F)cc4F)cc3)c(C(N)=O)c2N)C1)[101CH2:1][101O:1]c1ccc2c(c1)CN(C(=O)C(NC(=O)C(C)NC)C(C)(C)C)C(C(=O)NC1CCCc3ccccc31)C2

> <Shape>
0.215

> <Color>
0.072

> <Negative vol penalty>
0.000

$$$$

  -OEChem-04052320153D

 87 95  0     1  0  0  0  0  0999 V2000
  -20.7063  -31.1869   14.7724 C   0  0  0  0  0  0  0  0  0  0  0  0
  -21.3591  -29.9800   14.5429 C   0  0  0  0  0  0  0  0  0  0  0  0
  -22.9877  -10.0266   19.8957 C   0  0  0  0  0  0  0  0  0  0  0  0
  -23.7998   -9.8479   22.1641 C   0  0  0  0  0  0  0  0  0  0  0  0
  -21.4375  -32.3136   15.1460 C   0  0  0  0  0  0  0  0  0  0  0  0
  -22.7438  -29.8994   14.6858 C   0  0  0  0  0  0  0  0  0  0  0  0
  -24.1977  -25.7657   17.2241 C   0  0  0  0  0  0  0  0  0  0  0  0
  -22.2126   -8.8823   20.0830 C   0  0  0  0  0  0  0  0  0  0  0  0
  -23.0246   -8.7036   22.3515 C   0  0  0  0  0  0  0  0  0  0  0  0
  -24.2070  -24.5596   16.5249 C   0  0  0  0  0  0  0  0  0  0  0  0
  -23.1942   -5.4219   21.5560 C   0  0  0  0  0  0  0  0  0  0  0  0
  -23.7922   -4.3298   22.1848 C   0  0  0  0  0  0  0  0  0  0  0  0
  -28.9053  -20.8087   20.7705 C   0  0  0  0  0  0  0  0  0  0  0  0
  -28.6099  -21.5741   19.6154 C   0  0  0  0  0  0  0  0  0  0  0  0
  -26.5917  -24.7607   16.2215 C   0  0  0  0  0  0  0  0  0  0  0  0
  -22.1369   -4.4349   23.9415 C   0  0  0  0  0  0  0  0  0  0  0  0
  -23.7814  -10.5095   20.9362 C   0  0  0  0  0  0  0  0  0  0  0  0
  -24.2026  -13.0250   20.9846 C   0  0  0  0  0  0  0  0  0  0  0  0
  -22.8308  -32.2445   15.3029 C   0  0  0  0  0  0  0  0  0  0  0  0
  -25.3857  -26.4850   17.4182 C   0  0  0  0  0  0  0  0  0  0  0  0
  -23.4946  -31.0267   15.0605 C   0  0  0  0  0  0  0  0  0  0  0  0
  -26.5952  -25.9744   16.9258 C   0  0  0  0  0  0  0  0  0  0  0  0
  -22.2310   -8.2207   21.3109 C   0  0  0  0  0  0  0  0  0  0  0  0
  -25.4036  -24.0583   16.0210 C   0  0  0  0  0  0  0  0  0  0  0  0
  -22.0676   -6.0205   22.1200 C   0  0  0  0  0  0  0  0  0  0  0  0
  -23.2636   -3.8363   23.3775 C   0  0  0  0  0  0  0  0  0  0  0  0
  -21.5389   -5.5270   23.3128 C   0  0  0  0  0  0  0  0  0  0  0  0
  -24.5828  -11.6912   20.7432 C   0  0  0  0  0  0  0  0  0  0  0  0
  -28.9618  -19.4875   20.3850 C   0  0  0  0  0  0  0  0  0  0  0  0
  -28.4948  -20.6972   18.5594 C   0  0  0  0  0  0  0  0  0  0  0  0
  -25.3100  -13.7642   20.6473 C   0  0  0  0  0  0  0  0  0  0  0  0
  -22.9595  -13.5489   21.4704 C   0  0  0  0  0  0  0  0  0  0  0  0
  -26.4326  -29.3607   16.5591 C   0  0  0  0  0  0  0  0  0  0  0  0
  -28.9559  -28.5749   18.4400 C   0  0  0  0  0  0  0  0  0  0  0  0
  -30.8440  -26.1234   19.8794 C   0  0  0  0  0  0  0  0  0  0  0  0
  -30.8269  -14.5973   20.7684 C   0  0  0  0  0  0  0  0  0  0  0  0
  -23.5841  -33.5007   15.6622 C   0  0  0  0  0  0  0  0  0  0  0  0
  -25.3631  -27.7712   18.1978 C   0  0  0  0  0  0  0  0  0  0  0  0
  -27.9011  -26.6980   17.1247 C   0  0  0  0  0  0  0  0  0  0  0  0
  -25.0045  -33.2389   16.1564 C   0  0  0  0  0  0  0  0  0  0  0  0
  -29.5578  -12.4238   18.2501 C   0  0  0  0  0  0  0  0  0  0  0  0
  -25.7139  -32.2464   15.2407 C   0  0  0  0  0  0  0  0  0  0  0  0
  -28.1218  -12.1448   18.6974 C   0  0  0  0  0  0  0  0  0  0  0  0
  -30.5089  -12.5307   19.4400 C   0  0  0  0  0  0  0  0  0  0  0  0
  -28.6643  -13.2204   20.9218 C   0  0  0  0  0  0  0  0  0  0  0  0
  -24.9925  -30.8933   15.2293 C   0  0  1  0  0  0  0  0  0  0  0  0
  -26.5521  -28.6766   17.8915 C   0  0  1  0  0  0  0  0  0  0  0  0
  -27.6582  -13.1597   19.7597 C   0  0  2  0  0  0  0  0  0  0  0  0
  -32.8635  -25.7887   21.3308 C   0  0  0  0  0  0  0  0  0  0  0  0
  -29.7685  -18.2109   17.1724 C   0  0  0  0  0  0  0  0  0  0  0  0
  -27.2938  -17.9679   17.6446 C   0  0  0  0  0  0  0  0  0  0  0  0
  -26.4299  -20.8515   14.5562 C   0  0  0  0  0  0  0  0  0  0  0  0
  -30.7642  -29.2193   16.0683 C   0  0  0  0  0  0  0  0  0  0  0  0
  -32.6090  -27.9880   17.2296 C   0  0  0  0  0  0  0  0  0  0  0  0
  -31.6163  -30.0221   18.2782 C   0  0  0  0  0  0  0  0  0  0  0  0
  -29.2561  -24.7658   21.9757 C   0  0  0  0  0  0  0  0  0  0  0  0
  -29.2343  -18.2779   21.1884 C   0  0  0  0  0  0  0  0  0  0  0  0
  -30.7265  -17.8792   21.2811 C   0  0  0  0  0  0  0  0  0  0  0  0
  -26.8710  -21.7281   16.8776 C   0  0  0  0  0  0  0  0  0  0  0  0
  -30.9912  -16.6520   22.1507 C   0  0  0  0  0  0  0  0  0  0  0  0
  -28.1909  -20.9690   17.1045 C   0  0  1  0  0  0  0  0  0  0  0  0
  -30.2772  -27.8785   18.2202 C   0  0  1  0  0  0  0  0  0  0  0  0
  -31.3512  -25.9453   21.2991 C   0  0  2  0  0  0  0  0  0  0  0  0
  -28.6778  -18.2214   18.2452 C   0  0  0  0  0  0  0  0  0  0  0  0
  -26.6054  -22.0979   15.4141 C   0  0  2  0  0  0  0  0  0  1  0  0
  -31.2919  -28.7641   17.4435 C   0  0  0  0  0  0  0  0  0  0  0  0
  -25.8340  -11.5862   20.2875 N   0  0  0  0  0  0  0  0  0  0  0  0
  -28.7104  -19.4317   19.0390 N   0  0  0  0  0  0  0  0  0  0  0  0
  -26.2495  -12.8633   20.2398 N   0  0  0  0  0  0  0  0  0  0  0  0
  -27.8261  -27.9547   17.8881 N   0  0  0  0  0  0  0  0  0  0  0  0
  -30.0126  -13.5106   20.4094 N   0  0  0  0  0  0  0  0  0  0  0  0
  -25.5620  -15.0903   20.6623 N   0  0  0  0  0  0  0  0  0  0  0  0
  -21.9265  -12.6499   21.7686 N   0  0  0  0  0  0  0  0  0  0  0  0
  -25.3025  -30.1452   16.4288 N   0  0  0  0  0  0  0  0  0  0  0  0
  -30.7395  -27.4551   19.5376 N   0  0  0  0  0  0  0  0  0  0  0  0
  -30.2778  -15.4823   21.6882 N   0  0  0  0  0  0  0  0  0  0  0  0
  -30.7403  -24.7359   21.9195 N   0  3  0  0  0  0  0  0  0  0  0  0
  -22.7649  -14.7791   21.6196 O   0  0  0  0  0  0  0  0  0  0  0  0
  -27.3021  -29.1907   15.7124 O   0  0  0  0  0  0  0  0  0  0  0  0
  -28.9264  -29.6267   19.0838 O   0  0  0  0  0  0  0  0  0  0  0  0
  -30.5715  -25.1758   19.1456 O   0  0  0  0  0  0  0  0  0  0  0  0
  -31.9573  -14.7692   20.2998 O   0  0  0  0  0  0  0  0  0  0  0  0
  -29.2679  -21.7399   16.5669 O   0  0  0  0  0  0  0  0  0  0  0  0
  -21.4745   -7.1041   21.4941 O   0  0  0  0  0  0  0  0  0  0  0  0
  -25.4153  -22.8816   15.3375 O   0  0  0  0  0  0  0  0  0  1  0  0
  -23.8370   -2.7866   23.9804 F   0  0  0  0  0  0  0  0  0  0  0  0
  -20.4561   -6.0972   23.8588 F   0  0  0  0  0  0  0  0  0  0  0  0
  1  2  1  0  0  0  0
  1  5  2  0  0  0  0
  2  6  2  0  0  0  0
  3  8  2  0  0  0  0
  3 17  1  0  0  0  0
  4  9  1  0  0  0  0
  4 17  2  0  0  0  0
  5 19  1  0  0  0  0
  6 21  1  0  0  0  0
  7 10  2  0  0  0  0
  7 20  1  0  0  0  0
  8 23  1  0  0  0  0
  9 23  2  0  0  0  0
 10 24  1  0  0  0  0
 11 12  2  0  0  0  0
 11 25  1  0  0  0  0
 12 26  1  0  0  0  0
 13 14  1  0  0  0  0
 13 29  2  0  0  0  0
 14 30  2  0  0  0  0
 15 22  1  0  0  0  0
 15 24  2  0  0  0  0
 16 26  2  0  0  0  0
 16 27  1  0  0  0  0
 17 28  1  0  0  0  0
 18 28  1  0  0  0  0
 18 31  2  0  0  0  0
 18 32  1  0  0  0  0
 19 21  2  0  0  0  0
 19 37  1  0  0  0  0
 20 22  2  0  0  0  0
 20 38  1  0  0  0  0
 21 46  1  0  0  0  0
 22 39  1  0  0  0  0
 23 84  1  0  0  0  0
 24 85  1  0  0  0  0
 25 27  2  0  0  0  0
 25 84  1  0  0  0  0
 26 86  1  0  0  0  0
 27 87  1  0  0  0  0
 28 67  2  0  0  0  0
 29 57  1  0  0  0  0
 29 68  1  0  0  0  0
 30 61  1  0  0  0  0
 30 68  1  0  0  0  0
 31 69  1  0  0  0  0
 31 72  1  0  0  0  0
 32 73  1  0  0  0  0
 32 78  2  0  0  0  0
 33 47  1  0  0  0  0
 33 74  1  0  0  0  0
 33 79  2  0  0  0  0
 34 62  1  0  0  0  0
 34 70  1  0  0  0  0
 34 80  2  0  0  0  0
 35 63  1  0  0  0  0
 35 75  1  0  0  0  0
 35 81  2  0  0  0  0
 36 71  1  0  0  0  0
 36 76  1  0  0  0  0
 36 82  2  0  0  0  0
 37 40  1  0  0  0  0
 38 47  1  0  0  0  0
 39 70  1  0  0  0  0
 40 42  1  0  0  0  0
 41 43  1  0  0  0  0
 41 44  1  0  0  0  0
 42 46  1  0  0  0  0
 43 48  1  0  0  0  0
 44 71  1  0  0  0  0
 45 48  1  0  0  0  0
 45 71  1  0  0  0  0
 46 74  1  0  0  0  0
 47 70  1  0  0  0  0
 48 69  1  0  0  0  0
 49 63  1  0  0  0  0
 50 64  1  0  0  0  0
 51 64  1  0  0  0  0
 52 65  1  0  0  0  0
 53 66  1  0  0  0  0
 54 66  1  0  0  0  0
 55 66  1  0  0  0  0
 56 77  1  0  0  0  0
 57 58  1  0  0  0  0
 58 60  1  0  0  0  0
 59 61  1  0  0  0  0
 59 65  1  0  0  0  0
 60 76  1  0  0  0  0
 61 83  1  0  0  0  0
 62 66  1  0  0  0  0
 62 75  1  0  0  0  0
 63 77  1  0  0  0  0
 64 68  1  0  0  0  0
 65 85  1  0  0  0  0
 67 69  1  0  0  0  0
M  CHG  1  77   1
M  ISO  4  36 100  65 101  76 100  85 101
M  END
> <Batch ID>
0117

> <Smiles>
CNC(C)C(=O)NC(C(=O)N1Cc2cc([101O:1][101CH:1](C)CC(O)c3ccc(CCC[100NH:0][100C:0](=O)N4CCCC(n5nc(-c6ccc(Oc7ccc(F)cc7F)cc6)c(C(N)=O)c5N)C4)n3C(C)C)ccc2CC1C(=O)NC1CCCc2ccccc21)C(C)(C)C

> <Shape>
0.261

> <Color>
0.206

> <Negative vol penalty>
0.000

$$$$

  -OEChem-04052320153D

 85 93  0     1  0  0  0  0  0999 V2000
  -24.1374   -6.4621   23.4182 C   0  0  0  0  0  0  0  0  0  0  0  0
  -25.3245   -6.9202   22.8557 C   0  0  0  0  0  0  0  0  0  0  0  0
  -23.6919  -29.2519   20.9836 C   0  0  0  0  0  0  0  0  0  0  0  0
  -25.7870  -30.4551   20.9779 C   0  0  0  0  0  0  0  0  0  0  0  0
  -22.9233   -7.0382   23.0466 C   0  0  0  0  0  0  0  0  0  0  0  0
  -25.2981   -7.9540   21.9203 C   0  0  0  0  0  0  0  0  0  0  0  0
  -29.4966  -12.3492   21.1716 C   0  0  0  0  0  0  0  0  0  0  0  0
  -32.4055  -18.1616   16.1188 C   0  0  0  0  0  0  0  0  0  0  0  0
  -23.2381  -30.0471   22.0358 C   0  0  0  0  0  0  0  0  0  0  0  0
  -25.3331  -31.2504   22.0302 C   0  0  0  0  0  0  0  0  0  0  0  0
  -30.5552  -12.4923   20.2757 C   0  0  0  0  0  0  0  0  0  0  0  0
  -23.2915  -33.9124   22.4374 C   0  0  0  0  0  0  0  0  0  0  0  0
  -23.5086  -35.2873   22.3490 C   0  0  0  0  0  0  0  0  0  0  0  0
  -31.9308  -19.4671   16.0576 C   0  0  0  0  0  0  0  0  0  0  0  0
  -29.1549  -13.8387   18.8455 C   0  0  0  0  0  0  0  0  0  0  0  0
  -24.8067  -35.2133   24.3854 C   0  0  0  0  0  0  0  0  0  0  0  0
  -34.0856  -18.8987   17.6321 C   0  0  0  0  0  0  0  0  0  0  0  0
  -24.9664  -29.4559   20.4546 C   0  0  0  0  0  0  0  0  0  0  0  0
  -25.2900  -28.8826   17.9900 C   0  0  0  0  0  0  0  0  0  0  0  0
  -22.8829   -8.0862   22.1134 C   0  0  0  0  0  0  0  0  0  0  0  0
  -28.2538  -12.9417   20.9054 C   0  0  0  0  0  0  0  0  0  0  0  0
  -24.0822   -8.5439   21.5349 C   0  0  0  0  0  0  0  0  0  0  0  0
  -28.0829  -13.7038   19.7408 C   0  0  0  0  0  0  0  0  0  0  0  0
  -33.5030  -17.8637   16.9187 C   0  0  0  0  0  0  0  0  0  0  0  0
  -24.0587  -31.0463   22.5591 C   0  0  0  0  0  0  0  0  0  0  0  0
  -30.3836  -13.2347   19.1111 C   0  0  0  0  0  0  0  0  0  0  0  0
  -23.8319  -33.1878   23.4999 C   0  0  0  0  0  0  0  0  0  0  0  0
  -24.2662  -35.9378   23.3230 C   0  0  0  0  0  0  0  0  0  0  0  0
  -24.5895  -33.8382   24.4738 C   0  0  0  0  0  0  0  0  0  0  0  0
  -25.4360  -28.6344   19.3680 C   0  0  0  0  0  0  0  0  0  0  0  0
  -32.5836  -20.4303   16.8097 C   0  0  0  0  0  0  0  0  0  0  0  0
  -25.9028  -27.8144   17.3818 C   0  0  0  0  0  0  0  0  0  0  0  0
  -24.6570  -29.9807   17.3196 C   0  0  0  0  0  0  0  0  0  0  0  0
  -25.3043  -11.8534   20.4365 C   0  0  0  0  0  0  0  0  0  0  0  0
  -24.5571  -15.0099   20.4419 C   0  0  0  0  0  0  0  0  0  0  0  0
  -25.5828  -18.2308   19.9718 C   0  0  0  0  0  0  0  0  0  0  0  0
  -30.2163  -24.2073   19.1811 C   0  0  0  0  0  0  0  0  0  0  0  0
  -21.5424   -8.6456   21.7076 C   0  0  0  0  0  0  0  0  0  0  0  0
  -27.1299  -12.8002   21.8949 C   0  0  0  0  0  0  0  0  0  0  0  0
  -26.7747  -14.3769   19.4185 C   0  0  0  0  0  0  0  0  0  0  0  0
  -21.6353   -9.9895   20.9896 C   0  0  0  0  0  0  0  0  0  0  0  0
  -26.9237  -23.1902   18.0757 C   0  0  0  0  0  0  0  0  0  0  0  0
  -22.7194   -9.9480   19.9173 C   0  0  0  0  0  0  0  0  0  0  0  0
  -26.1553  -24.5106   18.1540 C   0  0  0  0  0  0  0  0  0  0  0  0
  -27.9192  -23.0609   19.2249 C   0  0  0  0  0  0  0  0  0  0  0  0
  -28.1205  -25.5101   19.4104 C   0  0  0  0  0  0  0  0  0  0  0  0
  -24.0969   -9.6801   20.5355 C   0  0  1  0  0  0  0  0  0  0  0  0
  -25.7544  -13.0183   21.2720 C   0  0  1  0  0  0  0  0  0  0  0  0
  -27.1138  -25.7112   18.2631 C   0  0  2  0  0  0  0  0  0  0  0  0
  -24.7371  -20.5931   20.0113 C   0  0  0  0  0  0  0  0  0  0  0  0
  -23.1890  -14.5625   17.7515 C   0  0  0  0  0  0  0  0  0  0  0  0
  -23.2130  -17.0421   17.4057 C   0  0  0  0  0  0  0  0  0  0  0  0
  -21.9447  -16.0635   19.3179 C   0  0  0  0  0  0  0  0  0  0  0  0
  -30.9453  -22.0600   15.9039 C   0  0  0  0  0  0  0  0  0  0  0  0
  -27.4575  -18.9886   22.1328 C   0  0  0  0  0  0  0  0  0  0  0  0
  -34.0393  -16.4651   17.0053 C   0  0  0  0  0  0  0  0  0  0  0  0
  -32.2267  -22.7717   18.9475 C   0  0  0  0  0  0  0  0  0  0  0  0
  -32.7114  -22.8091   17.5065 C   0  0  0  0  0  0  0  0  0  0  0  0
  -33.6618  -14.1585   17.8861 C   0  0  0  0  0  0  0  0  0  0  0  0
  -32.7351  -13.3541   18.7762 C   0  0  0  0  0  0  0  0  0  1  0  0
  -24.4717  -16.0901   19.3907 C   0  0  1  0  0  0  0  0  0  0  0  0
  -25.3950  -19.4806   20.8126 C   0  0  2  0  0  0  0  0  0  0  0  0
  -23.2288  -15.9254   18.4713 C   0  0  0  0  0  0  0  0  0  0  0  0
  -33.6527  -20.1790   17.5981 N   0  0  0  0  0  0  0  0  0  0  0  0
  -26.0902  -27.4976   19.6207 N   0  0  0  0  0  0  0  0  0  0  0  0
  -26.3605  -27.0220   18.3932 N   0  0  0  0  0  0  0  0  0  0  0  0
  -25.7040  -14.2038   20.4141 N   0  0  0  0  0  0  0  0  0  0  0  0
  -28.8140  -24.2263   19.2616 N   0  0  0  0  0  0  0  0  0  0  0  0
  -26.0893  -27.4850   16.0860 N   0  0  0  0  0  0  0  0  0  0  0  0
  -24.0770  -30.9929   18.0963 N   0  0  0  0  0  0  0  0  0  0  0  0
  -24.6202  -10.8840   21.1448 N   0  0  0  0  0  0  0  0  0  0  0  0
  -24.5216  -17.3606   20.1061 N   0  0  0  0  0  0  0  0  0  0  0  0
  -30.7954  -22.9512   19.0484 N   0  0  0  0  0  0  0  0  0  0  0  0
  -32.0873  -21.7557   16.7371 N   0  0  3  0  0  0  0  0  0  0  0  0
  -26.7110  -19.9737   21.3087 N   0  3  0  0  0  0  0  0  0  0  0  0
  -33.1891  -15.5648   17.8302 N   0  3  0  0  0  0  0  0  0  0  0  0
  -24.5930  -30.0535   16.0690 O   0  0  0  0  0  0  0  0  0  0  0  0
  -25.5577  -11.8361   19.2377 O   0  0  0  0  0  0  0  0  0  0  0  0
  -23.6434  -14.8905   21.2619 O   0  0  0  0  0  0  0  0  0  0  0  0
  -26.5702  -18.0466   19.2635 O   0  0  0  0  0  0  0  0  0  0  0  0
  -30.9020  -25.2347   19.2193 O   0  0  0  0  0  0  0  0  0  0  0  0
  -23.6160  -31.8226   23.5858 O   0  0  0  0  0  0  0  0  0  0  0  0
  -31.4151  -13.3755   18.2346 O   0  0  0  0  0  0  0  0  0  1  0  0
  -24.4760  -37.2580   23.2372 F   0  0  0  0  0  0  0  0  0  0  0  0
  -25.1122  -33.1473   25.4961 F   0  0  0  0  0  0  0  0  0  0  0  0
  1  2  1  0  0  0  0
  1  5  2  0  0  0  0
  2  6  2  0  0  0  0
  3  9  2  0  0  0  0
  3 18  1  0  0  0  0
  4 10  1  0  0  0  0
  4 18  2  0  0  0  0
  5 20  1  0  0  0  0
  6 22  1  0  0  0  0
  7 11  2  0  0  0  0
  7 21  1  0  0  0  0
  8 14  2  0  0  0  0
  8 24  1  0  0  0  0
  9 25  1  0  0  0  0
 10 25  2  0  0  0  0
 11 26  1  0  0  0  0
 12 13  2  0  0  0  0
 12 27  1  0  0  0  0
 13 28  1  0  0  0  0
 14 31  1  0  0  0  0
 15 23  1  0  0  0  0
 15 26  2  0  0  0  0
 16 28  2  0  0  0  0
 16 29  1  0  0  0  0
 17 24  2  0  0  0  0
 17 64  1  0  0  0  0
 18 30  1  0  0  0  0
 19 30  1  0  0  0  0
 19 32  2  0  0  0  0
 19 33  1  0  0  0  0
 20 22  2  0  0  0  0
 20 38  1  0  0  0  0
 21 23  2  0  0  0  0
 21 39  1  0  0  0  0
 22 47  1  0  0  0  0
 23 40  1  0  0  0  0
 24 56  1  0  0  0  0
 25 82  1  0  0  0  0
 26 83  1  0  0  0  0
 27 29  2  0  0  0  0
 27 82  1  0  0  0  0
 28 84  1  0  0  0  0
 29 85  1  0  0  0  0
 30 65  2  0  0  0  0
 31 64  2  0  0  0  0
 31 74  1  0  0  0  0
 32 66  1  0  0  0  0
 32 69  1  0  0  0  0
 33 70  1  0  0  0  0
 33 77  2  0  0  0  0
 34 48  1  0  0  0  0
 34 71  1  0  0  0  0
 34 78  2  0  0  0  0
 35 61  1  0  0  0  0
 35 67  1  0  0  0  0
 35 79  2  0  0  0  0
 36 62  1  0  0  0  0
 36 72  1  0  0  0  0
 36 80  2  0  0  0  0
 37 68  1  0  0  0  0
 37 73  1  0  0  0  0
 37 81  2  0  0  0  0
 38 41  1  0  0  0  0
 39 48  1  0  0  0  0
 40 67  1  0  0  0  0
 41 43  1  0  0  0  0
 42 44  1  0  0  0  0
 42 45  1  0  0  0  0
 43 47  1  0  0  0  0
 44 49  1  0  0  0  0
 45 68  1  0  0  0  0
 46 49  1  0  0  0  0
 46 68  1  0  0  0  0
 47 71  1  0  0  0  0
 48 67  1  0  0  0  0
 49 66  1  0  0  0  0
 50 62  1  0  0  0  0
 51 63  1  0  0  0  0
 52 63  1  0  0  0  0
 53 63  1  0  0  0  0
 54 74  1  0  0  0  0
 55 75  1  0  0  0  0
 56 76  1  0  0  0  0
 57 58  1  0  0  0  0
 57 73  1  0  0  0  0
 58 74  1  0  0  0  0
 59 60  1  0  0  0  0
 59 76  1  0  0  0  0
 60 83  1  0  0  0  0
 61 63  1  0  0  0  0
 61 72  1  0  0  0  0
 62 75  1  0  0  0  0
 65 66  1  0  0  0  0
M  CHG  2  75   1  76   1
M  ISO  4  37 100  60 101  73 100  83 101
M  END
> <Batch ID>
0117

> <Smiles>
CNC(C)C(=O)NC(C(=O)N1Cc2cc([101O:1][101CH2:1]CNCc3ccc(N(C)CC[100NH:0][100C:0](=O)N4CCCC(n5nc(-c6ccc(Oc7ccc(F)cc7F)cc6)c(C(N)=O)c5N)C4)nc3)ccc2CC1C(=O)NC1CCCc2ccccc21)C(C)(C)C

> <Shape>
0.258

> <Color>
0.086

> <Negative vol penalty>
0.000

$$$$

  -OEChem-04052320153D

 87 96  0     1  0  0  0  0  0999 V2000
  -34.2196  -30.4031   21.5030 C   0  0  0  0  0  0  0  0  0  0  0  0
  -33.1737  -30.9113   20.7394 C   0  0  0  0  0  0  0  0  0  0  0  0
  -26.7487  -16.9377   22.9547 C   0  0  0  0  0  0  0  0  0  0  0  0
  -25.3640  -18.3904   21.6096 C   0  0  0  0  0  0  0  0  0  0  0  0
  -34.3395  -29.0267   21.6908 C   0  0  0  0  0  0  0  0  0  0  0  0
  -32.2476  -30.0433   20.1621 C   0  0  0  0  0  0  0  0  0  0  0  0
  -25.2407  -30.6373   21.5624 C   0  0  0  0  0  0  0  0  0  0  0  0
  -26.5608  -15.9065   22.0345 C   0  0  0  0  0  0  0  0  0  0  0  0
  -25.1761  -17.3592   20.6893 C   0  0  0  0  0  0  0  0  0  0  0  0
  -23.8612  -30.8452   21.5724 C   0  0  0  0  0  0  0  0  0  0  0  0
  -24.1578  -13.6545   21.2739 C   0  0  0  0  0  0  0  0  0  0  0  0
  -23.8641  -12.3860   21.7742 C   0  0  0  0  0  0  0  0  0  0  0  0
  -23.5457  -28.8858   20.1909 C   0  0  0  0  0  0  0  0  0  0  0  0
  -20.4753  -28.0179   23.0606 C   0  0  0  0  0  0  0  0  0  0  0  0
  -25.8561  -11.5108   20.7240 C   0  0  0  0  0  0  0  0  0  0  0  0
  -18.4756  -28.0861   22.0279 C   0  0  0  0  0  0  0  0  0  0  0  0
  -26.1503  -18.1797   22.7423 C   0  0  0  0  0  0  0  0  0  0  0  0
  -27.5647  -19.8313   24.0762 C   0  0  0  0  0  0  0  0  0  0  0  0
  -33.4088  -28.1421   21.1235 C   0  0  0  0  0  0  0  0  0  0  0  0
  -25.7779  -29.5428   20.8785 C   0  0  0  0  0  0  0  0  0  0  0  0
  -32.3558  -28.6538   20.3413 C   0  0  0  0  0  0  0  0  0  0  0  0
  -24.9257  -28.6654   20.1883 C   0  0  0  0  0  0  0  0  0  0  0  0
  -19.5328  -28.8701   22.4340 C   0  0  0  0  0  0  0  0  0  0  0  0
  -25.7745  -16.1173   20.9018 C   0  0  0  0  0  0  0  0  0  0  0  0
  -23.0159  -29.9717   20.8880 C   0  0  0  0  0  0  0  0  0  0  0  0
  -25.3006  -13.8512   20.4987 C   0  0  0  0  0  0  0  0  0  0  0  0
  -24.7133  -11.3141   21.4992 C   0  0  0  0  0  0  0  0  0  0  0  0
  -26.1498  -12.7793   20.2237 C   0  0  0  0  0  0  0  0  0  0  0  0
  -26.3435  -19.2451   23.6929 C   0  0  0  0  0  0  0  0  0  0  0  0
  -19.9654  -26.7390   23.0182 C   0  0  0  0  0  0  0  0  0  0  0  0
  -27.2124  -20.7886   24.9959 C   0  0  0  0  0  0  0  0  0  0  0  0
  -28.8983  -19.5369   23.6398 C   0  0  0  0  0  0  0  0  0  0  0  0
  -28.8320  -27.6719   19.8201 C   0  0  0  0  0  0  0  0  0  0  0  0
  -26.5646  -25.5483   20.5282 C   0  0  0  0  0  0  0  0  0  0  0  0
  -28.7307  -23.3881   19.7851 C   0  0  0  0  0  0  0  0  0  0  0  0
  -22.1705  -23.8776   25.9383 C   0  0  0  0  0  0  0  0  0  0  0  0
  -33.6067  -26.6592   21.3150 C   0  0  0  0  0  0  0  0  0  0  0  0
  -27.2638  -29.3200   20.7894 C   0  0  0  0  0  0  0  0  0  0  0  0
  -25.5487  -27.5212   19.4391 C   0  0  0  0  0  0  0  0  0  0  0  0
  -32.3687  -25.8312   20.9800 C   0  0  0  0  0  0  0  0  0  0  0  0
  -23.8669  -21.7863   28.2675 C   0  0  0  0  0  0  0  0  0  0  0  0
  -15.3177  -26.0235   21.8942 C   0  0  0  0  0  0  0  0  0  0  0  0
  -31.7683  -26.2819   19.6522 C   0  0  0  0  0  0  0  0  0  0  0  0
  -24.8042  -20.9508   27.3938 C   0  0  0  0  0  0  0  0  0  0  0  0
  -16.4729  -25.7249   22.8474 C   0  0  0  0  0  0  0  0  0  0  0  0
  -22.5335  -22.0512   27.5719 C   0  0  0  0  0  0  0  0  0  0  0  0
  -23.5813  -21.8125   25.3540 C   0  0  0  0  0  0  0  0  0  0  0  0
  -15.2015  -25.0045   20.7654 C   0  0  0  0  0  0  0  0  0  0  0  0
  -17.6810  -25.3731   20.6136 C   0  0  0  0  0  0  0  0  0  0  0  0
  -31.3170  -27.7459   19.7194 C   0  0  1  0  0  0  0  0  0  0  0  0
  -27.6623  -27.8312   20.7464 C   0  0  1  0  0  0  0  0  0  0  0  0
  -24.9600  -21.5666   25.9903 C   0  0  2  0  0  0  0  0  0  0  0  0
  -17.8327  -25.6110   22.1212 C   0  0  1  0  0  0  0  0  0  0  0  0
  -19.0124  -31.1328   23.4040 C   0  0  0  0  0  0  0  0  0  0  0  0
  -27.4487  -21.2998   19.2440 C   0  0  0  0  0  0  0  0  0  0  0  0
  -27.1025  -26.5012   23.3765 C   0  0  0  0  0  0  0  0  0  0  0  0
  -28.5709  -24.4985   23.6949 C   0  0  0  0  0  0  0  0  0  0  0  0
  -26.1423  -24.1979   23.2109 C   0  0  0  0  0  0  0  0  0  0  0  0
  -30.8399  -21.6573   20.9317 C   0  0  0  0  0  0  0  0  0  0  0  0
  -20.5356  -25.4738   23.5254 C   0  0  0  0  0  0  0  0  0  0  0  0
  -21.9097  -25.6304   24.2007 C   0  0  0  0  0  0  0  0  0  0  0  0
  -21.1245  -30.8054   22.0650 C   0  0  0  0  0  0  0  0  0  1  0  0
  -19.6628  -30.3733   22.2444 C   0  0  1  0  0  0  0  0  0  0  0  0
  -27.6850  -24.9855   21.3692 C   0  0  1  0  0  0  0  0  0  0  0  0
  -28.8244  -21.9046   19.4772 C   0  0  2  0  0  0  0  0  0  0  0  0
  -27.3802  -25.0642   22.8918 C   0  0  0  0  0  0  0  0  0  0  0  0
  -25.2939  -19.7848   24.3182 N   0  0  0  0  0  0  0  0  0  0  0  0
  -18.7496  -26.7924   22.3880 N   0  0  0  0  0  0  0  0  0  0  0  0
  -25.8545  -20.7200   25.1037 N   0  0  0  0  0  0  0  0  0  0  0  0
  -26.6176  -26.9184   20.2437 N   0  0  0  0  0  0  0  0  0  0  0  0
  -22.7514  -22.6365   26.2468 N   0  0  0  0  0  0  0  0  0  0  0  0
  -27.9347  -21.6738   25.7150 N   0  0  0  0  0  0  0  0  0  0  0  0
  -29.0819  -18.5232   22.6894 N   0  0  0  0  0  0  0  0  0  0  0  0
  -30.0596  -27.8552   20.4275 N   0  0  0  0  0  0  0  0  0  0  0  0
  -27.9252  -23.6333   20.8770 N   0  0  0  0  0  0  0  0  0  0  0  0
  -22.4322  -24.3639   24.6632 N   0  0  0  0  0  0  0  0  0  0  0  0
  -16.5360  -24.4435   20.3932 N   0  3  0  0  0  0  0  0  0  0  0  0
  -29.4705  -21.1806   20.6083 N   0  3  0  0  0  0  0  0  0  0  0  0
  -29.8992  -20.1432   24.0917 O   0  0  0  0  0  0  0  0  0  0  0  0
  -28.6366  -27.4011   18.6411 O   0  0  0  0  0  0  0  0  0  0  0  0
  -25.6660  -24.7950   20.1439 O   0  0  0  0  0  0  0  0  0  0  0  0
  -29.3167  -24.2437   19.1254 O   0  0  0  0  0  0  0  0  0  0  0  0
  -21.4748  -24.5083   26.7416 O   0  0  0  0  0  0  0  0  0  0  0  0
  -25.5912  -15.1113   20.0034 O   0  0  0  0  0  0  0  0  0  0  0  0
  -21.6698  -30.1778   20.9052 O   0  0  0  0  0  0  0  0  0  1  0  0
  -24.4320  -10.0964   21.9809 F   0  0  0  0  0  0  0  0  0  0  0  0
  -27.2497  -12.9623   19.4805 F   0  0  0  0  0  0  0  0  0  0  0  0
  1  2  1  0  0  0  0
  1  5  2  0  0  0  0
  2  6  2  0  0  0  0
  3  8  2  0  0  0  0
  3 17  1  0  0  0  0
  4  9  1  0  0  0  0
  4 17  2  0  0  0  0
  5 19  1  0  0  0  0
  6 21  1  0  0  0  0
  7 10  2  0  0  0  0
  7 20  1  0  0  0  0
  8 24  1  0  0  0  0
  9 24  2  0  0  0  0
 10 25  1  0  0  0  0
 11 12  2  0  0  0  0
 11 26  1  0  0  0  0
 12 27  1  0  0  0  0
 13 22  1  0  0  0  0
 13 25  2  0  0  0  0
 14 23  1  0  0  0  0
 14 30  2  0  0  0  0
 15 27  2  0  0  0  0
 15 28  1  0  0  0  0
 16 23  2  0  0  0  0
 16 68  1  0  0  0  0
 17 29  1  0  0  0  0
 18 29  1  0  0  0  0
 18 31  2  0  0  0  0
 18 32  1  0  0  0  0
 19 21  2  0  0  0  0
 19 37  1  0  0  0  0
 20 22  2  0  0  0  0
 20 38  1  0  0  0  0
 21 50  1  0  0  0  0
 22 39  1  0  0  0  0
 23 63  1  0  0  0  0
 24 84  1  0  0  0  0
 25 85  1  0  0  0  0
 26 28  2  0  0  0  0
 26 84  1  0  0  0  0
 27 86  1  0  0  0  0
 28 87  1  0  0  0  0
 29 67  2  0  0  0  0
 30 60  1  0  0  0  0
 30 68  1  0  0  0  0
 31 69  1  0  0  0  0
 31 72  1  0  0  0  0
 32 73  1  0  0  0  0
 32 79  2  0  0  0  0
 33 51  1  0  0  0  0
 33 74  1  0  0  0  0
 33 80  2  0  0  0  0
 34 64  1  0  0  0  0
 34 70  1  0  0  0  0
 34 81  2  0  0  0  0
 35 65  1  0  0  0  0
 35 75  1  0  0  0  0
 35 82  2  0  0  0  0
 36 71  1  0  0  0  0
 36 76  1  0  0  0  0
 36 83  2  0  0  0  0
 37 40  1  0  0  0  0
 38 51  1  0  0  0  0
 39 70  1  0  0  0  0
 40 43  1  0  0  0  0
 41 44  1  0  0  0  0
 41 46  1  0  0  0  0
 42 45  1  0  0  0  0
 42 48  1  0  0  0  0
 43 50  1  0  0  0  0
 44 52  1  0  0  0  0
 45 53  1  0  0  0  0
 46 71  1  0  0  0  0
 47 52  1  0  0  0  0
 47 71  1  0  0  0  0
 48 77  1  0  0  0  0
 49 53  1  0  0  0  0
 49 77  1  0  0  0  0
 50 74  1  0  0  0  0
 51 70  1  0  0  0  0
 52 69  1  0  0  0  0
 53 68  1  0  0  0  0
 54 63  1  0  0  0  0
 55 65  1  0  0  0  0
 56 66  1  0  0  0  0
 57 66  1  0  0  0  0
 58 66  1  0  0  0  0
 59 78  1  0  0  0  0
 60 61  1  0  0  0  0
 61 76  1  0  0  0  0
 62 63  1  0  0  0  0
 62 85  1  0  0  0  0
 64 66  1  0  0  0  0
 64 75  1  0  0  0  0
 65 78  1  0  0  0  0
 67 69  1  0  0  0  0
M  CHG  2  77   1  78   1
M  ISO  4  36 100  62 101  76 100  85 101
M  END
> <Batch ID>
0117

> <Smiles>
CNC(C)C(=O)NC(C(=O)N1Cc2cc([101O:1][101CH2:1]C(C)c3cc(CC[100NH:0][100C:0](=O)N4CCCC(n5nc(-c6ccc(Oc7ccc(F)cc7F)cc6)c(C(N)=O)c5N)C4)n(C4CCCNC4)c3)ccc2CC1C(=O)NC1CCCc2ccccc21)C(C)(C)C

> <Shape>
0.232

> <Color>
0.086

> <Negative vol penalty>
0.000

$$$$

  -OEChem-04052320153D

 84 91  0     1  0  0  0  0  0999 V2000
  -32.7656  -20.4132   12.0856 C   0  0  0  0  0  0  0  0  0  0  0  0
  -32.4080  -20.5236   13.4255 C   0  0  0  0  0  0  0  0  0  0  0  0
  -23.1896   -9.8202   19.9317 C   0  0  0  0  0  0  0  0  0  0  0  0
  -23.5672  -10.0004   22.3112 C   0  0  0  0  0  0  0  0  0  0  0  0
  -31.7799  -20.2474   11.1135 C   0  0  0  0  0  0  0  0  0  0  0  0
  -31.0642  -20.4693   13.7940 C   0  0  0  0  0  0  0  0  0  0  0  0
  -28.7462  -18.0337   18.9126 C   0  0  0  0  0  0  0  0  0  0  0  0
  -22.4227   -8.6739   20.1401 C   0  0  0  0  0  0  0  0  0  0  0  0
  -22.8002   -8.8542   22.5197 C   0  0  0  0  0  0  0  0  0  0  0  0
  -28.3418  -18.5994   20.1210 C   0  0  0  0  0  0  0  0  0  0  0  0
  -21.2408   -5.7712   23.6481 C   0  0  0  0  0  0  0  0  0  0  0  0
  -21.7364   -4.8111   24.5302 C   0  0  0  0  0  0  0  0  0  0  0  0
  -26.0637  -18.6479   19.3291 C   0  0  0  0  0  0  0  0  0  0  0  0
  -23.6953   -4.5461   23.1413 C   0  0  0  0  0  0  0  0  0  0  0  0
  -23.7619  -10.4834   21.0172 C   0  0  0  0  0  0  0  0  0  0  0  0
  -24.1020  -12.9999   20.7735 C   0  0  0  0  0  0  0  0  0  0  0  0
  -30.4241  -20.1814   11.4713 C   0  0  0  0  0  0  0  0  0  0  0  0
  -27.8124  -17.7804   17.8975 C   0  0  0  0  0  0  0  0  0  0  0  0
  -30.0594  -20.3038   12.8257 C   0  0  0  0  0  0  0  0  0  0  0  0
  -26.4584  -18.0765   18.1097 C   0  0  0  0  0  0  0  0  0  0  0  0
  -22.2279   -8.1909   21.4341 C   0  0  0  0  0  0  0  0  0  0  0  0
  -27.0009  -18.9093   20.3283 C   0  0  0  0  0  0  0  0  0  0  0  0
  -21.9724   -6.1187   22.5124 C   0  0  0  0  0  0  0  0  0  0  0  0
  -22.9636   -4.1986   24.2769 C   0  0  0  0  0  0  0  0  0  0  0  0
  -23.1997   -5.5061   22.2591 C   0  0  0  0  0  0  0  0  0  0  0  0
  -24.5548  -11.6672   20.8024 C   0  0  0  0  0  0  0  0  0  0  0  0
  -25.2337  -13.7420   20.5386 C   0  0  0  0  0  0  0  0  0  0  0  0
  -22.7770  -13.5205   20.9438 C   0  0  0  0  0  0  0  0  0  0  0  0
  -27.4064  -18.8058   14.9164 C   0  0  0  0  0  0  0  0  0  0  0  0
  -25.0483  -16.5786   14.8854 C   0  0  0  0  0  0  0  0  0  0  0  0
  -22.8247  -14.6886   16.6548 C   0  0  0  0  0  0  0  0  0  0  0  0
  -31.0476  -12.7490   21.5698 C   0  0  0  0  0  0  0  0  0  0  0  0
  -29.3911  -20.0487   10.3805 C   0  0  0  0  0  0  0  0  0  0  0  0
  -28.2605  -17.1450   16.6099 C   0  0  0  0  0  0  0  0  0  0  0  0
  -25.4133  -17.8054   17.0595 C   0  0  0  0  0  0  0  0  0  0  0  0
  -28.0164  -19.6253   10.8917 C   0  0  0  0  0  0  0  0  0  0  0  0
  -29.5216  -13.4671   18.4341 C   0  0  0  0  0  0  0  0  0  0  0  0
  -27.6259  -20.4468   12.1162 C   0  0  0  0  0  0  0  0  0  0  0  0
  -28.0348  -13.2075   18.6829 C   0  0  0  0  0  0  0  0  0  0  0  0
  -30.4022  -12.4773   19.1937 C   0  0  0  0  0  0  0  0  0  0  0  0
  -28.6479  -12.1355   20.8905 C   0  0  0  0  0  0  0  0  0  0  0  0
  -28.6141  -20.2248   13.2675 C   0  0  1  0  0  0  0  0  0  0  0  0
  -27.3037  -17.4052   15.4506 C   0  0  1  0  0  0  0  0  0  0  0  0
  -27.7212  -13.1437   20.1898 C   0  0  2  0  0  0  0  0  0  0  0  0
  -21.0710  -12.9445   17.0790 C   0  0  0  0  0  0  0  0  0  0  0  0
  -27.2441  -20.0171   26.3871 C   0  0  0  0  0  0  0  0  0  0  0  0
  -31.1674  -12.1681   25.2143 C   0  0  0  0  0  0  0  0  0  0  0  0
  -25.6592  -17.7700   22.8887 C   0  0  0  0  0  0  0  0  0  0  0  0
  -23.1506  -18.7821   13.9617 C   0  0  0  0  0  0  0  0  0  0  0  0
  -21.2340  -17.2974   14.5866 C   0  0  0  0  0  0  0  0  0  0  0  0
  -22.8351  -16.5838   12.8117 C   0  0  0  0  0  0  0  0  0  0  0  0
  -24.8581  -12.5779   17.0664 C   0  0  0  0  0  0  0  0  0  0  0  0
  -28.8559  -18.4161   25.2489 C   0  0  0  0  0  0  0  0  0  0  0  0
  -31.6164  -14.4991   24.2758 C   0  0  0  0  0  0  0  0  0  0  0  0
  -30.2586  -16.5904   24.5678 C   0  0  0  0  0  0  0  0  0  0  0  0
  -23.5781  -16.5733   15.2283 C   0  0  1  0  0  0  0  0  0  0  0  0
  -22.4880  -13.2096   16.5946 C   0  0  2  0  0  0  0  0  0  0  0  0
  -27.4377  -19.0254   25.2270 C   0  0  2  0  0  0  0  0  0  0  0  0
  -31.5371  -13.0000   23.9898 C   0  0  2  0  0  0  0  0  0  0  0  0
  -27.0673  -19.6782   23.8684 C   0  0  2  0  0  0  0  0  0  0  0  0
  -26.8458  -18.7068   22.6928 C   0  0  2  0  0  0  0  0  0  1  0  0
  -22.7192  -17.3162   14.1663 C   0  0  0  0  0  0  0  0  0  0  0  0
  -25.8713  -11.5655   20.6017 N   0  0  0  0  0  0  0  0  0  0  0  0
  -26.2556  -12.8436   20.4444 N   0  0  0  0  0  0  0  0  0  0  0  0
  -25.9020  -17.1890   15.8151 N   0  0  0  0  0  0  0  0  0  0  0  0
  -30.0552  -12.4664   20.6168 N   0  0  0  0  0  0  0  0  0  0  0  0
  -25.4443  -15.0687   20.4054 N   0  0  0  0  0  0  0  0  0  0  0  0
  -21.7298  -12.6188   21.1775 N   0  0  0  0  0  0  0  0  0  0  0  0
  -28.3527  -18.9604   13.9213 N   0  0  0  0  0  0  0  0  0  0  0  0
  -23.2095  -15.1753   15.4233 N   0  0  0  0  0  0  0  0  0  0  0  0
  -30.6329  -12.7239   22.8957 N   0  0  0  0  0  0  0  0  0  0  0  0
  -28.9223  -17.1657   24.4955 N   0  0  0  0  0  0  0  0  0  0  0  0
  -28.1366  -20.6427   23.4509 N   0  3  0  0  0  0  0  0  0  0  0  0
  -23.4296  -12.4290   17.4462 N   0  3  0  0  0  0  0  0  0  0  0  0
  -30.2675  -15.1248   24.2601 N   0  3  0  0  0  0  0  0  0  0  0  0
  -22.5265  -14.7476   20.8741 O   0  0  0  0  0  0  0  0  0  0  0  0
  -26.6799  -19.6811   15.3721 O   0  0  0  0  0  0  0  0  0  0  0  0
  -25.4261  -16.0539   13.8348 O   0  0  0  0  0  0  0  0  0  0  0  0
  -22.7501  -15.3472   17.6897 O   0  0  0  0  0  0  0  0  0  0  0  0
  -32.2154  -13.0100   21.2615 O   0  0  0  0  0  0  0  0  0  0  0  0
  -21.4794   -7.0726   21.6380 O   0  0  0  0  0  0  0  0  0  0  0  0
  -26.6037  -19.4622   21.5066 O   0  0  0  0  0  0  0  0  0  1  0  0
  -23.4402   -3.2778   25.1249 F   0  0  0  0  0  0  0  0  0  0  0  0
  -23.9077   -5.8367   21.1703 F   0  0  0  0  0  0  0  0  0  0  0  0
  1  2  1  0  0  0  0
  1  5  2  0  0  0  0
  2  6  2  0  0  0  0
  3  8  2  0  0  0  0
  3 15  1  0  0  0  0
  4  9  1  0  0  0  0
  4 15  2  0  0  0  0
  5 17  1  0  0  0  0
  6 19  1  0  0  0  0
  7 10  2  0  0  0  0
  7 18  1  0  0  0  0
  8 21  1  0  0  0  0
  9 21  2  0  0  0  0
 10 22  1  0  0  0  0
 11 12  2  0  0  0  0
 11 23  1  0  0  0  0
 12 24  1  0  0  0  0
 13 20  1  0  0  0  0
 13 22  2  0  0  0  0
 14 24  2  0  0  0  0
 14 25  1  0  0  0  0
 15 26  1  0  0  0  0
 16 26  1  0  0  0  0
 16 27  2  0  0  0  0
 16 28  1  0  0  0  0
 17 19  2  0  0  0  0
 17 33  1  0  0  0  0
 18 20  2  0  0  0  0
 18 34  1  0  0  0  0
 19 42  1  0  0  0  0
 20 35  1  0  0  0  0
 21 81  1  0  0  0  0
 22 82  1  0  0  0  0
 23 25  2  0  0  0  0
 23 81  1  0  0  0  0
 24 83  1  0  0  0  0
 25 84  1  0  0  0  0
 26 63  2  0  0  0  0
 27 64  1  0  0  0  0
 27 67  1  0  0  0  0
 28 68  1  0  0  0  0
 28 76  2  0  0  0  0
 29 43  1  0  0  0  0
 29 69  1  0  0  0  0
 29 77  2  0  0  0  0
 30 56  1  0  0  0  0
 30 65  1  0  0  0  0
 30 78  2  0  0  0  0
 31 57  1  0  0  0  0
 31 70  1  0  0  0  0
 31 79  2  0  0  0  0
 32 66  1  0  0  0  0
 32 71  1  0  0  0  0
 32 80  2  0  0  0  0
 33 36  1  0  0  0  0
 34 43  1  0  0  0  0
 35 65  1  0  0  0  0
 36 38  1  0  0  0  0
 37 39  1  0  0  0  0
 37 40  1  0  0  0  0
 38 42  1  0  0  0  0
 39 44  1  0  0  0  0
 40 66  1  0  0  0  0
 41 44  1  0  0  0  0
 41 66  1  0  0  0  0
 42 69  1  0  0  0  0
 43 65  1  0  0  0  0
 44 64  1  0  0  0  0
 45 57  1  0  0  0  0
 46 58  1  0  0  0  0
 47 59  1  0  0  0  0
 48 61  1  0  0  0  0
 49 62  1  0  0  0  0
 50 62  1  0  0  0  0
 51 62  1  0  0  0  0
 52 74  1  0  0  0  0
 53 58  1  0  0  0  0
 53 72  1  0  0  0  0
 54 59  1  0  0  0  0
 54 75  1  0  0  0  0
 55 72  1  0  0  0  0
 55 75  1  0  0  0  0
 56 62  1  0  0  0  0
 56 70  1  0  0  0  0
 57 74  1  0  0  0  0
 58 60  1  0  0  0  0
 59 71  1  0  0  0  0
 60 61  1  0  0  0  0
 60 73  1  0  0  0  0
 61 82  1  0  0  0  0
 63 64  1  0  0  0  0
M  CHG  3  73   1  74   1  75   1
M  ISO  4  32 100  61 101  71 100  82 101
M  END
> <Batch ID>
0117

> <Smiles>
CNC(C)C(=O)NC(C(=O)N1Cc2cc([101O:1][101CH:1](C)C(N)C(C)CNCNCC(C)[100NH:0][100C:0](=O)N3CCCC(n4nc(-c5ccc(Oc6ccc(F)cc6F)cc5)c(C(N)=O)c4N)C3)ccc2CC1C(=O)NC1CCCc2ccccc21)C(C)(C)C

> <Shape>
0.165

> <Color>
0.168

> <Negative vol penalty>
0.000

$$$$

  -OEChem-04052320153D

 87 96  0     1  0  0  0  0  0999 V2000
  -23.3921  -16.5618   20.7440 C   0  0  0  0  0  0  0  0  0  0  0  0
  -24.5132  -17.3702   20.9018 C   0  0  0  0  0  0  0  0  0  0  0  0
  -26.2408  -12.7268   19.9758 C   0  0  0  0  0  0  0  0  0  0  0  0
  -26.1196  -13.6464   22.2067 C   0  0  0  0  0  0  0  0  0  0  0  0
  -22.2057  -17.1053   20.2531 C   0  0  0  0  0  0  0  0  0  0  0  0
  -24.4489  -18.7225   20.5677 C   0  0  0  0  0  0  0  0  0  0  0  0
  -27.3401  -23.3452   23.3564 C   0  0  0  0  0  0  0  0  0  0  0  0
  -25.0485  -12.0371   20.1953 C   0  0  0  0  0  0  0  0  0  0  0  0
  -24.9273  -12.9567   22.4262 C   0  0  0  0  0  0  0  0  0  0  0  0
  -28.5138  -24.0351   23.0559 C   0  0  0  0  0  0  0  0  0  0  0  0
  -22.2230   -9.7501   20.2967 C   0  0  0  0  0  0  0  0  0  0  0  0
  -22.1614   -8.4150   19.8978 C   0  0  0  0  0  0  0  0  0  0  0  0
  -27.2183  -25.7481   21.9573 C   0  0  0  0  0  0  0  0  0  0  0  0
  -23.9913   -7.8865   21.3843 C   0  0  0  0  0  0  0  0  0  0  0  0
  -26.7764  -13.5314   20.9815 C   0  0  0  0  0  0  0  0  0  0  0  0
  -29.2652  -13.6910   20.4447 C   0  0  0  0  0  0  0  0  0  0  0  0
  -22.1240  -18.4670   19.9219 C   0  0  0  0  0  0  0  0  0  0  0  0
  -26.0955  -23.8469   22.9495 C   0  0  0  0  0  0  0  0  0  0  0  0
  -23.2607  -19.2844   20.0706 C   0  0  0  0  0  0  0  0  0  0  0  0
  -26.0302  -25.0639   22.2561 C   0  0  0  0  0  0  0  0  0  0  0  0
  -24.3917  -12.1520   21.4205 C   0  0  0  0  0  0  0  0  0  0  0  0
  -28.4532  -25.2353   22.3537 C   0  0  0  0  0  0  0  0  0  0  0  0
  -23.1687  -10.1535   21.2394 C   0  0  0  0  0  0  0  0  0  0  0  0
  -23.0455   -7.4832   20.4416 C   0  0  0  0  0  0  0  0  0  0  0  0
  -24.0528   -9.2217   21.7832 C   0  0  0  0  0  0  0  0  0  0  0  0
  -28.0084  -14.2437   20.7556 C   0  0  0  0  0  0  0  0  0  0  0  0
  -30.0987  -14.7765   20.3295 C   0  0  0  0  0  0  0  0  0  0  0  0
  -29.6452  -12.3189   20.2750 C   0  0  0  0  0  0  0  0  0  0  0  0
  -23.7776  -22.8136   21.0355 C   0  0  0  0  0  0  0  0  0  0  0  0
  -22.2255  -25.4377   22.1433 C   0  0  0  0  0  0  0  0  0  0  0  0
  -22.4222  -28.5546   23.5191 C   0  0  0  0  0  0  0  0  0  0  0  0
  -29.0447  -20.4138   18.9274 C   0  0  0  0  0  0  0  0  0  0  0  0
  -20.8337  -18.9990   19.3502 C   0  0  0  0  0  0  0  0  0  0  0  0
  -24.8367  -23.1041   23.3048 C   0  0  0  0  0  0  0  0  0  0  0  0
  -24.7174  -25.6555   21.8144 C   0  0  0  0  0  0  0  0  0  0  0  0
  -20.7397  -20.5224   19.3730 C   0  0  0  0  0  0  0  0  0  0  0  0
  -30.6708  -19.2463   21.9424 C   0  0  0  0  0  0  0  0  0  0  0  0
  -26.5317  -23.4352   17.0052 C   0  0  0  0  0  0  0  0  0  0  0  0
  -22.0326  -21.1448   18.8554 C   0  0  0  0  0  0  0  0  0  0  0  0
  -31.8102  -29.9851   19.7580 C   0  0  0  0  0  0  0  0  0  0  0  0
  -31.3648  -30.0724   18.3249 C   0  0  0  0  0  0  0  0  0  0  0  0
  -30.2842  -17.7662   21.9429 C   0  0  0  0  0  0  0  0  0  0  0  0
  -27.1663  -23.4555   18.3917 C   0  0  0  0  0  0  0  0  0  0  0  0
  -29.5261  -20.1165   21.4319 C   0  0  0  0  0  0  0  0  0  0  0  0
  -27.5083  -24.1781   16.1009 C   0  0  0  0  0  0  0  0  0  0  0  0
  -28.6320  -18.2594   20.0809 C   0  0  0  0  0  0  0  0  0  0  0  0
  -23.2232  -20.7613   19.7425 C   0  0  1  0  0  0  0  0  0  0  0  0
  -23.6628  -23.4474   22.3930 C   0  0  1  0  0  0  0  0  0  0  0  0
  -30.7892  -29.0169   19.2278 C   0  0  0  0  0  0  0  0  0  0  0  0
  -29.7554  -17.3248   20.5653 C   0  0  2  0  0  0  0  0  0  0  0  0
  -28.6206  -23.8555   18.1532 C   0  0  1  0  0  0  0  0  0  0  0  0
  -20.9858  -30.4684   24.2751 C   0  0  0  0  0  0  0  0  0  0  0  0
  -29.4222  -26.1415   15.2237 C   0  0  0  0  0  0  0  0  0  0  0  0
  -21.7723  -26.2431   19.2354 C   0  0  0  0  0  0  0  0  0  0  0  0
  -21.2098  -28.5482   20.0343 C   0  0  0  0  0  0  0  0  0  0  0  0
  -19.8068  -26.6093   20.7377 C   0  0  0  0  0  0  0  0  0  0  0  0
  -23.3971  -28.3374   26.3050 C   0  0  0  0  0  0  0  0  0  0  0  0
  -29.5067  -22.6296   17.9107 C   0  0  0  0  0  0  0  0  0  0  0  0
  -31.0224  -26.7522   20.3218 C   0  0  0  0  0  0  0  0  0  0  0  0
  -30.7149  -25.7203   17.3842 C   0  0  0  0  0  0  0  0  0  0  0  0
  -29.5994  -26.6948   20.8663 C   0  0  0  0  0  0  0  0  0  1  0  0
  -22.1237  -26.8810   21.7124 C   0  0  1  0  0  0  0  0  0  0  0  0
  -21.6916  -29.1868   24.6900 C   0  0  2  0  0  0  0  0  0  0  0  0
  -31.1536  -27.5523   19.0243 C   0  0  1  0  0  0  0  0  0  0  0  0
  -29.7078  -25.1773   16.3711 C   0  0  1  0  0  0  0  0  0  0  0  0
  -21.2532  -27.0586   20.4365 C   0  0  0  0  0  0  0  0  0  0  0  0
  -28.0363  -15.5768   20.8332 N   0  0  0  0  0  0  0  0  0  0  0  0
  -29.3209  -15.8709   20.5695 N   0  0  0  0  0  0  0  0  0  0  0  0
  -23.5150  -24.8886   22.1801 N   0  0  0  0  0  0  0  0  0  0  0  0
  -29.0819  -19.6551   20.1091 N   0  0  0  0  0  0  0  0  0  0  0  0
  -28.4723  -24.7777   17.0219 N   0  0  1  0  0  0  0  0  0  0  0  0
  -31.4138  -14.8922   20.0476 N   0  0  0  0  0  0  0  0  0  0  0  0
  -30.0862  -11.6042   21.3970 N   0  0  0  0  0  0  0  0  0  0  0  0
  -23.2241  -21.5499   20.9560 N   0  0  0  0  0  0  0  0  0  0  0  0
  -21.6402  -27.6204   22.8734 N   0  0  0  0  0  0  0  0  0  0  0  0
  -29.4810  -21.7281   19.0410 N   0  0  0  0  0  0  0  0  0  0  0  0
  -22.6497  -29.5110   25.7844 N   0  3  0  0  0  0  0  0  0  0  0  0
  -30.2405  -26.9916   17.9898 N   0  3  0  0  0  0  0  0  0  0  0  0
  -29.6107  -11.7486   19.1583 O   0  0  0  0  0  0  0  0  0  0  0  0
  -24.3263  -23.4262   20.1271 O   0  0  0  0  0  0  0  0  0  0  0  0
  -21.1993  -24.8224   22.4432 O   0  0  0  0  0  0  0  0  0  0  0  0
  -23.5704  -28.8617   23.2062 O   0  0  0  0  0  0  0  0  0  0  0  0
  -28.6563  -19.9523   17.8488 O   0  0  0  0  0  0  0  0  0  0  0  0
  -23.2280  -11.4793   21.6350 O   0  0  0  0  0  0  0  0  0  0  0  0
  -29.5973  -25.9104   22.0584 O   0  0  0  0  0  0  0  0  0  1  0  0
  -22.9853   -6.2008   20.0596 F   0  0  0  0  0  0  0  0  0  0  0  0
  -24.9627   -9.6031   22.6901 F   0  0  0  0  0  0  0  0  0  0  0  0
  1  2  1  0  0  0  0
  1  5  2  0  0  0  0
  2  6  2  0  0  0  0
  3  8  2  0  0  0  0
  3 15  1  0  0  0  0
  4  9  1  0  0  0  0
  4 15  2  0  0  0  0
  5 17  1  0  0  0  0
  6 19  1  0  0  0  0
  7 10  2  0  0  0  0
  7 18  1  0  0  0  0
  8 21  1  0  0  0  0
  9 21  2  0  0  0  0
 10 22  1  0  0  0  0
 11 12  2  0  0  0  0
 11 23  1  0  0  0  0
 12 24  1  0  0  0  0
 13 20  1  0  0  0  0
 13 22  2  0  0  0  0
 14 24  2  0  0  0  0
 14 25  1  0  0  0  0
 15 26  1  0  0  0  0
 16 26  1  0  0  0  0
 16 27  2  0  0  0  0
 16 28  1  0  0  0  0
 17 19  2  0  0  0  0
 17 33  1  0  0  0  0
 18 20  2  0  0  0  0
 18 34  1  0  0  0  0
 19 47  1  0  0  0  0
 20 35  1  0  0  0  0
 21 84  1  0  0  0  0
 22 85  1  0  0  0  0
 23 25  2  0  0  0  0
 23 84  1  0  0  0  0
 24 86  1  0  0  0  0
 25 87  1  0  0  0  0
 26 67  2  0  0  0  0
 27 68  1  0  0  0  0
 27 72  1  0  0  0  0
 28 73  1  0  0  0  0
 28 79  2  0  0  0  0
 29 48  1  0  0  0  0
 29 74  1  0  0  0  0
 29 80  2  0  0  0  0
 30 62  1  0  0  0  0
 30 69  1  0  0  0  0
 30 81  2  0  0  0  0
 31 63  1  0  0  0  0
 31 75  1  0  0  0  0
 31 82  2  0  0  0  0
 32 70  1  0  0  0  0
 32 76  1  0  0  0  0
 32 83  2  0  0  0  0
 33 36  1  0  0  0  0
 34 48  1  0  0  0  0
 35 69  1  0  0  0  0
 36 39  1  0  0  0  0
 37 42  1  0  0  0  0
 37 44  1  0  0  0  0
 38 43  1  0  0  0  0
 38 45  1  0  0  0  0
 39 47  1  0  0  0  0
 40 41  1  0  0  0  0
 40 49  1  0  0  0  0
 41 49  1  0  0  0  0
 42 50  1  0  0  0  0
 43 51  1  0  0  0  0
 44 70  1  0  0  0  0
 45 71  1  0  0  0  0
 46 50  1  0  0  0  0
 46 70  1  0  0  0  0
 47 74  1  0  0  0  0
 48 69  1  0  0  0  0
 49 64  1  0  0  0  0
 50 68  1  0  0  0  0
 51 58  1  0  0  0  0
 51 71  1  0  0  0  0
 52 63  1  0  0  0  0
 53 65  1  0  0  0  0
 54 66  1  0  0  0  0
 55 66  1  0  0  0  0
 56 66  1  0  0  0  0
 57 77  1  0  0  0  0
 58 76  1  0  0  0  0
 59 61  1  0  0  0  0
 59 64  1  0  0  0  0
 60 65  1  0  0  0  0
 60 78  1  0  0  0  0
 61 85  1  0  0  0  0
 62 66  1  0  0  0  0
 62 75  1  0  0  0  0
 63 77  1  0  0  0  0
 64 78  1  0  0  0  0
 65 71  1  0  0  0  0
 67 68  1  0  0  0  0
M  CHG  2  77   1  78   1
M  ISO  4  32 100  61 101  76 100  85 101
M  END
> <Batch ID>
0117

> <Smiles>
CNC(C)C(=O)NC(C(=O)N1Cc2cc([101O:1][101CH2:1]CC(NCC(C)N3CCCC3C[100NH:0][100C:0](=O)N3CCCC(n4nc(-c5ccc(Oc6ccc(F)cc6F)cc5)c(C(N)=O)c4N)C3)C3CC3)ccc2CC1C(=O)NC1CCCc2ccccc21)C(C)(C)C

> <Shape>
0.229

> <Color>
0.060

> <Negative vol penalty>
0.000

$$$$

  -OEChem-04052320153D

 88 97  0     1  0  0  0  0  0999 V2000
  -16.8397  -26.8315   23.4850 C   0  0  0  0  0  0  0  0  0  0  0  0
  -18.0513  -26.1478   23.4786 C   0  0  0  0  0  0  0  0  0  0  0  0
  -22.8165  -10.3925   20.9059 C   0  0  0  0  0  0  0  0  0  0  0  0
  -23.2246  -12.5978   21.8043 C   0  0  0  0  0  0  0  0  0  0  0  0
  -16.7625  -28.1160   22.9483 C   0  0  0  0  0  0  0  0  0  0  0  0
  -19.1862  -26.7479   22.9343 C   0  0  0  0  0  0  0  0  0  0  0  0
  -24.9654  -26.1202   24.8613 C   0  0  0  0  0  0  0  0  0  0  0  0
  -21.8200  -10.1881   21.8603 C   0  0  0  0  0  0  0  0  0  0  0  0
  -22.2281  -12.3934   22.7587 C   0  0  0  0  0  0  0  0  0  0  0  0
  -26.0198  -25.3220   24.4201 C   0  0  0  0  0  0  0  0  0  0  0  0
  -21.6383   -9.3763   25.1363 C   0  0  0  0  0  0  0  0  0  0  0  0
  -21.6222   -8.1513   25.8031 C   0  0  0  0  0  0  0  0  0  0  0  0
  -26.8518  -27.1614   23.0997 C   0  0  0  0  0  0  0  0  0  0  0  0
  -19.4005   -7.7202   24.9573 C   0  0  0  0  0  0  0  0  0  0  0  0
  -23.5188  -11.5974   20.8779 C   0  0  0  0  0  0  0  0  0  0  0  0
  -24.4021  -11.7920   18.4926 C   0  0  0  0  0  0  0  0  0  0  0  0
  -17.8993  -28.7358   22.4058 C   0  0  0  0  0  0  0  0  0  0  0  0
  -24.8399  -27.4439   24.4158 C   0  0  0  0  0  0  0  0  0  0  0  0
  -19.1239  -28.0413   22.3885 C   0  0  0  0  0  0  0  0  0  0  0  0
  -25.7963  -27.9752   23.5388 C   0  0  0  0  0  0  0  0  0  0  0  0
  -21.5258  -11.1885   22.7867 C   0  0  0  0  0  0  0  0  0  0  0  0
  -26.9616  -25.8416   23.5369 C   0  0  0  0  0  0  0  0  0  0  0  0
  -20.5355   -9.7734   24.3800 C   0  0  0  0  0  0  0  0  0  0  0  0
  -20.5033   -7.3233   25.7136 C   0  0  0  0  0  0  0  0  0  0  0  0
  -19.4166   -8.9453   24.2905 C   0  0  0  0  0  0  0  0  0  0  0  0
  -24.5487  -11.8089   19.8926 C   0  0  0  0  0  0  0  0  0  0  0  0
  -25.6637  -12.0451   18.0122 C   0  0  0  0  0  0  0  0  0  0  0  0
  -28.9127  -18.2532   18.2948 C   0  0  0  0  0  0  0  0  0  0  0  0
  -23.2303  -11.5676   17.6975 C   0  0  0  0  0  0  0  0  0  0  0  0
  -22.6572  -29.0562   22.7605 C   0  0  0  0  0  0  0  0  0  0  0  0
  -24.5501  -31.5907   23.4787 C   0  0  0  0  0  0  0  0  0  0  0  0
  -27.0645  -33.7473   24.2994 C   0  0  0  0  0  0  0  0  0  0  0  0
  -30.4219  -14.8475   20.3267 C   0  0  0  0  0  0  0  0  0  0  0  0
  -17.7562  -30.1070   21.7943 C   0  0  0  0  0  0  0  0  0  0  0  0
  -23.7117  -28.3003   24.9221 C   0  0  0  0  0  0  0  0  0  0  0  0
  -25.7181  -29.3965   23.0466 C   0  0  0  0  0  0  0  0  0  0  0  0
  -19.0890  -30.8185   21.5756 C   0  0  0  0  0  0  0  0  0  0  0  0
  -30.2804  -11.4935   19.1403 C   0  0  0  0  0  0  0  0  0  0  0  0
  -20.0976  -29.8752   20.9276 C   0  0  0  0  0  0  0  0  0  0  0  0
  -28.4809  -21.6919   20.4672 C   0  0  0  0  0  0  0  0  0  0  0  0
  -30.2091  -23.0204   19.1924 C   0  0  0  0  0  0  0  0  0  0  0  0
  -27.9633  -22.9790   21.1068 C   0  0  0  0  0  0  0  0  0  0  0  0
  -29.6915  -24.3075   19.8321 C   0  0  0  0  0  0  0  0  0  0  0  0
  -28.7822  -11.1925   19.0722 C   0  0  0  0  0  0  0  0  0  0  0  0
  -30.6245  -12.3786   20.3362 C   0  0  0  0  0  0  0  0  0  0  0  0
  -28.3507  -13.3290   20.3559 C   0  0  0  0  0  0  0  0  0  0  0  0
  -30.8171  -20.1840   19.3669 C   0  0  0  0  0  0  0  0  0  0  0  0
  -20.3827  -28.6683   21.8295 C   0  0  1  0  0  0  0  0  0  0  0  0
  -30.2390  -17.8118   18.8800 C   0  0  2  0  0  0  0  0  0  0  0  0
  -23.3934  -29.4746   24.0017 C   0  0  1  0  0  0  0  0  0  0  0  0
  -29.1101  -21.9549   19.0932 C   0  0  0  0  0  0  0  0  0  0  0  0
  -29.0624  -24.0444   21.2061 C   0  0  0  0  0  0  0  0  0  0  0  0
  -27.9470  -12.4855   19.1345 C   0  0  2  0  0  0  0  0  0  0  0  0
  -29.6642  -20.6622   18.4972 C   0  0  2  0  0  0  0  0  0  0  0  0
  -27.4254  -20.3126   16.2772 C   0  0  0  0  0  0  0  0  0  0  0  0
  -27.7587  -36.1468   24.0588 C   0  0  0  0  0  0  0  0  0  0  0  0
  -25.3133  -31.0756   20.5697 C   0  0  0  0  0  0  0  0  0  0  0  0
  -26.8079  -33.0812   20.6795 C   0  0  0  0  0  0  0  0  0  0  0  0
  -24.3490  -33.3408   21.0098 C   0  0  0  0  0  0  0  0  0  0  0  0
  -27.0894  -34.1549   27.2307 C   0  0  0  0  0  0  0  0  0  0  0  0
  -30.0571  -17.3022   20.3046 C   0  0  0  0  0  0  0  0  0  0  0  0
  -28.5084  -25.3371   21.8022 C   0  0  0  0  0  0  0  0  0  1  0  0
  -27.3445  -20.0577   17.7439 C   0  0  0  0  0  0  0  0  0  0  0  0
  -25.7361  -32.2583   22.8254 C   0  0  1  0  0  0  0  0  0  0  0  0
  -27.0417  -35.1277   24.9306 C   0  0  2  0  0  0  0  0  0  0  0  0
  -25.5549  -32.4175   21.2894 C   0  0  0  0  0  0  0  0  0  0  0  0
  -25.8044  -12.0532   20.2767 N   0  0  0  0  0  0  0  0  0  0  0  0
  -26.4584  -12.1921   19.1108 N   0  0  0  0  0  0  0  0  0  0  0  0
  -28.6349  -19.6230   18.2756 N   0  0  0  0  0  0  0  0  0  0  0  0
  -24.5931  -30.1919   23.5653 N   0  0  0  0  0  0  0  0  0  0  0  0
  -29.7988  -13.5886   20.3356 N   0  0  0  0  0  0  0  0  0  0  0  0
  -26.1597  -12.1538   16.7614 N   0  0  0  0  0  0  0  0  0  0  0  0
  -22.4458  -12.6718   17.3373 N   0  0  0  0  0  0  0  0  0  0  0  0
  -21.2826  -29.0391   22.9005 N   0  0  0  0  0  0  0  0  0  0  0  0
  -25.9395  -33.5158   23.5366 N   0  0  0  0  0  0  0  0  0  0  0  0
  -29.5662  -15.9422   20.3202 N   0  0  0  0  0  0  0  0  0  0  0  0
  -31.2791  -18.8764   18.8470 N   0  3  0  0  0  0  0  0  0  0  0  0
  -27.7070  -35.0987   26.2638 N   0  3  0  0  0  0  0  0  0  0  0  0
  -28.1130  -17.3840   17.9319 O   0  0  0  0  0  0  0  0  0  0  0  0
  -22.8800  -10.4201   17.3314 O   0  0  0  0  0  0  0  0  0  0  0  0
  -23.2894  -28.7716   21.7500 O   0  0  0  0  0  0  0  0  0  0  0  0
  -23.6232  -32.2851   23.9030 O   0  0  0  0  0  0  0  0  0  0  0  0
  -27.9897  -32.9550   24.4635 O   0  0  0  0  0  0  0  0  0  0  0  0
  -31.6498  -14.9855   20.3193 O   0  0  0  0  0  0  0  0  0  0  0  0
  -20.5534  -10.9895   23.7179 O   0  0  0  0  0  0  0  0  0  0  0  0
  -27.9914  -25.0644   23.1041 O   0  0  0  0  0  0  0  0  0  1  0  0
  -20.4885   -6.1462   26.3527 F   0  0  0  0  0  0  0  0  0  0  0  0
  -18.3547   -9.3208   23.5645 F   0  0  0  0  0  0  0  0  0  0  0  0
  1  2  1  0  0  0  0
  1  5  2  0  0  0  0
  2  6  2  0  0  0  0
  3  8  2  0  0  0  0
  3 15  1  0  0  0  0
  4  9  1  0  0  0  0
  4 15  2  0  0  0  0
  5 17  1  0  0  0  0
  6 19  1  0  0  0  0
  7 10  2  0  0  0  0
  7 18  1  0  0  0  0
  8 21  1  0  0  0  0
  9 21  2  0  0  0  0
 10 22  1  0  0  0  0
 11 12  2  0  0  0  0
 11 23  1  0  0  0  0
 12 24  1  0  0  0  0
 13 20  1  0  0  0  0
 13 22  2  0  0  0  0
 14 24  2  0  0  0  0
 14 25  1  0  0  0  0
 15 26  1  0  0  0  0
 16 26  1  0  0  0  0
 16 27  2  0  0  0  0
 16 29  1  0  0  0  0
 17 19  2  0  0  0  0
 17 34  1  0  0  0  0
 18 20  2  0  0  0  0
 18 35  1  0  0  0  0
 19 48  1  0  0  0  0
 20 36  1  0  0  0  0
 21 85  1  0  0  0  0
 22 86  1  0  0  0  0
 23 25  2  0  0  0  0
 23 85  1  0  0  0  0
 24 87  1  0  0  0  0
 25 88  1  0  0  0  0
 26 67  2  0  0  0  0
 27 68  1  0  0  0  0
 27 72  1  0  0  0  0
 28 49  1  0  0  0  0
 28 69  1  0  0  0  0
 28 79  2  0  0  0  0
 29 73  1  0  0  0  0
 29 80  2  0  0  0  0
 30 50  1  0  0  0  0
 30 74  1  0  0  0  0
 30 81  2  0  0  0  0
 31 64  1  0  0  0  0
 31 70  1  0  0  0  0
 31 82  2  0  0  0  0
 32 65  1  0  0  0  0
 32 75  1  0  0  0  0
 32 83  2  0  0  0  0
 33 71  1  0  0  0  0
 33 76  1  0  0  0  0
 33 84  2  0  0  0  0
 34 37  1  0  0  0  0
 35 50  1  0  0  0  0
 36 70  1  0  0  0  0
 37 39  1  0  0  0  0
 38 44  1  0  0  0  0
 38 45  1  0  0  0  0
 39 48  1  0  0  0  0
 40 42  1  0  0  0  0
 40 51  1  0  0  0  0
 41 43  1  0  0  0  0
 41 51  1  0  0  0  0
 42 52  1  0  0  0  0
 43 52  1  0  0  0  0
 44 53  1  0  0  0  0
 45 71  1  0  0  0  0
 46 53  1  0  0  0  0
 46 71  1  0  0  0  0
 47 54  1  0  0  0  0
 47 77  1  0  0  0  0
 48 74  1  0  0  0  0
 49 61  1  0  0  0  0
 49 77  1  0  0  0  0
 50 70  1  0  0  0  0
 51 54  1  0  0  0  0
 52 62  1  0  0  0  0
 53 68  1  0  0  0  0
 54 69  1  0  0  0  0
 55 63  1  0  0  0  0
 56 65  1  0  0  0  0
 57 66  1  0  0  0  0
 58 66  1  0  0  0  0
 59 66  1  0  0  0  0
 60 78  1  0  0  0  0
 61 76  1  0  0  0  0
 62 86  1  0  0  0  0
 63 69  1  0  0  0  0
 64 66  1  0  0  0  0
 64 75  1  0  0  0  0
 65 78  1  0  0  0  0
 67 68  1  0  0  0  0
M  CHG  2  77   1  78   1
M  ISO  4  33 100  62 101  76 100  86 101
M  END
> <Batch ID>
0117

> <Smiles>
CCN1C(=O)C(C[100NH:0][100C:0](=O)N2CCCC(n3nc(-c4ccc(Oc5ccc(F)cc5F)cc4)c(C(N)=O)c3N)C2)NCC1C1CCC([101CH2:1][101O:1]c2ccc3c(c2)CN(C(=O)C(NC(=O)C(C)NC)C(C)(C)C)C(C(=O)NC2CCCc4ccccc42)C3)CC1

> <Shape>
0.289

> <Color>
0.092

> <Negative vol penalty>
0.000

$$$$

  -OEChem-04052320153D

 86 94  0     1  0  0  0  0  0999 V2000
  -27.2552  -35.2642   22.8396 C   0  0  0  0  0  0  0  0  0  0  0  0
  -27.5757  -33.9173   22.7034 C   0  0  0  0  0  0  0  0  0  0  0  0
  -23.3974  -10.0935   22.1357 C   0  0  0  0  0  0  0  0  0  0  0  0
  -25.7540   -9.6021   22.3406 C   0  0  0  0  0  0  0  0  0  0  0  0
  -25.9885  -35.6362   23.2881 C   0  0  0  0  0  0  0  0  0  0  0  0
  -26.6300  -32.9416   23.0166 C   0  0  0  0  0  0  0  0  0  0  0  0
  -26.4088  -29.2641   19.5420 C   0  0  0  0  0  0  0  0  0  0  0  0
  -23.1000   -9.0158   22.9697 C   0  0  0  0  0  0  0  0  0  0  0  0
  -25.4566   -8.5243   23.1747 C   0  0  0  0  0  0  0  0  0  0  0  0
  -27.4100  -28.2945   19.5765 C   0  0  0  0  0  0  0  0  0  0  0  0
  -22.8791   -5.6530   22.7105 C   0  0  0  0  0  0  0  0  0  0  0  0
  -21.8406   -4.8046   22.3266 C   0  0  0  0  0  0  0  0  0  0  0  0
  -25.9090  -26.7941   20.7232 C   0  0  0  0  0  0  0  0  0  0  0  0
  -20.6607   -5.3245   24.3698 C   0  0  0  0  0  0  0  0  0  0  0  0
  -24.7243  -10.3867   21.8211 C   0  0  0  0  0  0  0  0  0  0  0  0
  -24.6120  -11.6856   19.6284 C   0  0  0  0  0  0  0  0  0  0  0  0
  -25.0236  -34.6648   23.5977 C   0  0  0  0  0  0  0  0  0  0  0  0
  -25.1515  -29.0095   20.1085 C   0  0  0  0  0  0  0  0  0  0  0  0
  -25.3497  -33.3010   23.4709 C   0  0  0  0  0  0  0  0  0  0  0  0
  -24.8927  -27.7612   20.6923 C   0  0  0  0  0  0  0  0  0  0  0  0
  -24.1297   -8.2312   23.4893 C   0  0  0  0  0  0  0  0  0  0  0  0
  -27.1612  -27.0603   20.1697 C   0  0  0  0  0  0  0  0  0  0  0  0
  -22.8084   -6.3371   23.9240 C   0  0  0  0  0  0  0  0  0  0  0  0
  -20.7314   -4.6404   23.1562 C   0  0  0  0  0  0  0  0  0  0  0  0
  -21.6992   -6.1728   24.7537 C   0  0  0  0  0  0  0  0  0  0  0  0
  -25.0321  -11.4995   20.9591 C   0  0  0  0  0  0  0  0  0  0  0  0
  -25.1664  -12.8864   19.2581 C   0  0  0  0  0  0  0  0  0  0  0  0
  -23.7937  -10.8480   18.8011 C   0  0  0  0  0  0  0  0  0  0  0  0
  -23.4554  -30.2898   22.4723 C   0  0  0  0  0  0  0  0  0  0  0  0
  -21.1686  -28.2457   21.4164 C   0  0  0  0  0  0  0  0  0  0  0  0
  -21.0176  -24.8285   20.2687 C   0  0  0  0  0  0  0  0  0  0  0  0
  -26.7937  -17.6018   22.4022 C   0  0  0  0  0  0  0  0  0  0  0  0
  -23.6837  -35.1144   24.1240 C   0  0  0  0  0  0  0  0  0  0  0  0
  -24.0736  -30.0563   20.0394 C   0  0  0  0  0  0  0  0  0  0  0  0
  -23.5533  -27.4307   21.2965 C   0  0  0  0  0  0  0  0  0  0  0  0
  -22.6145  -34.0259   24.0773 C   0  0  0  0  0  0  0  0  0  0  0  0
  -28.9187  -15.7158   20.1622 C   0  0  0  0  0  0  0  0  0  0  0  0
  -23.1654  -32.7126   24.6236 C   0  0  0  0  0  0  0  0  0  0  0  0
  -28.1088  -14.4300   19.9883 C   0  0  0  0  0  0  0  0  0  0  0  0
  -26.0845  -22.2154   22.0977 C   0  0  0  0  0  0  0  0  0  0  0  0
  -28.8197  -16.2439   21.5906 C   0  0  0  0  0  0  0  0  0  0  0  0
  -26.6170  -15.1844   21.8964 C   0  0  0  0  0  0  0  0  0  0  0  0
  -27.1737  -22.9727   22.8444 C   0  0  0  0  0  0  0  0  0  0  0  0
  -28.1932  -20.8045   23.5967 C   0  0  0  0  0  0  0  0  0  0  0  0
  -24.3427  -32.2136   23.7771 C   0  0  1  0  0  0  0  0  0  0  0  0
  -22.9955  -29.8749   21.1034 C   0  0  1  0  0  0  0  0  0  0  0  0
  -26.6567  -14.6139   20.4672 C   0  0  2  0  0  0  0  0  0  0  0  0
  -27.1053  -20.0214   22.8640 C   0  0  1  0  0  0  0  0  0  0  0  0
  -26.5082  -20.8038   21.6835 C   0  0  2  0  0  0  0  0  0  0  0  0
  -19.4048  -23.7000   18.7123 C   0  0  0  0  0  0  0  0  0  0  0  0
  -19.6872  -27.4807   23.9718 C   0  0  0  0  0  0  0  0  0  0  0  0
  -19.1937  -25.2552   22.9366 C   0  0  0  0  0  0  0  0  0  0  0  0
  -18.3128  -27.3397   21.8872 C   0  0  0  0  0  0  0  0  0  0  0  0
  -23.1988  -23.8915   18.5014 C   0  0  0  0  0  0  0  0  0  0  0  0
  -29.5813  -24.6904   18.9216 C   0  0  0  0  0  0  0  0  0  0  0  0
  -29.0335  -22.2679   18.4539 C   0  0  0  0  0  0  0  0  0  0  0  0
  -26.9093  -21.0897   19.2294 C   0  0  0  0  0  0  0  0  0  0  0  0
  -29.0853  -26.1161   19.1391 C   0  0  0  0  0  0  0  0  0  1  0  0
  -20.7820  -26.8203   21.7288 C   0  0  1  0  0  0  0  0  0  0  0  0
  -20.7694  -24.3575   18.8471 C   0  0  2  0  0  0  0  0  0  0  0  0
  -28.4694  -23.6909   18.5764 C   0  0  2  0  0  0  0  0  0  0  0  0
  -28.0167  -21.1477   18.1811 C   0  0  2  0  0  0  0  0  0  0  0  0
  -19.5207  -26.7331   22.6338 C   0  0  0  0  0  0  0  0  0  0  0  0
  -25.7946  -12.5017   21.4041 N   0  0  0  0  0  0  0  0  0  0  0  0
  -25.8582  -13.3292   20.3470 N   0  0  0  0  0  0  0  0  0  0  0  0
  -22.5338  -28.4893   21.2098 N   0  0  0  0  0  0  0  0  0  0  0  0
  -27.4119  -16.4148   21.9777 N   0  0  0  0  0  0  0  0  0  0  0  0
  -25.1248  -13.5962   18.1106 N   0  0  0  0  0  0  0  0  0  0  0  0
  -24.4186   -9.8697   18.0157 N   0  0  0  0  0  0  0  0  0  0  0  0
  -23.8640  -31.6073   22.5532 N   0  0  0  0  0  0  0  0  0  0  0  0
  -20.6432  -26.1440   20.4435 N   0  0  0  0  0  0  0  0  0  0  0  0
  -27.6061  -18.7296   22.4523 N   0  0  0  0  0  0  0  0  0  0  0  0
  -27.6544  -22.1430   23.9885 N   0  3  0  0  0  0  0  0  0  0  0  0
  -27.8348  -24.0846   17.2874 N   0  3  0  0  0  0  0  0  0  0  0  0
  -27.5071  -20.9045   20.5781 N   0  3  0  0  0  0  0  0  0  0  0  0
  -21.8090  -23.3705   18.4395 N   0  3  0  0  0  0  0  0  0  0  0  0
  -22.5469  -10.9745   18.7471 O   0  0  0  0  0  0  0  0  0  0  0  0
  -23.4392  -29.4753   23.3878 O   0  0  0  0  0  0  0  0  0  0  0  0
  -20.2908  -29.1099   21.3509 O   0  0  0  0  0  0  0  0  0  0  0  0
  -21.4925  -24.1011   21.1381 O   0  0  0  0  0  0  0  0  0  0  0  0
  -25.5985  -17.6616   22.7113 O   0  0  0  0  0  0  0  0  0  0  0  0
  -28.7542  -19.9214   18.2078 O   0  0  0  0  0  0  0  0  0  0  0  0
  -23.8399   -7.1796   24.3034 O   0  0  0  0  0  0  0  0  0  0  0  0
  -28.1369  -26.1124   20.2053 O   0  0  0  0  0  0  0  0  0  1  0  0
  -19.7335   -3.8269   22.7867 F   0  0  0  0  0  0  0  0  0  0  0  0
  -21.6251   -6.8283   25.9202 F   0  0  0  0  0  0  0  0  0  0  0  0
  1  2  1  0  0  0  0
  1  5  2  0  0  0  0
  2  6  2  0  0  0  0
  3  8  2  0  0  0  0
  3 15  1  0  0  0  0
  4  9  1  0  0  0  0
  4 15  2  0  0  0  0
  5 17  1  0  0  0  0
  6 19  1  0  0  0  0
  7 10  2  0  0  0  0
  7 18  1  0  0  0  0
  8 21  1  0  0  0  0
  9 21  2  0  0  0  0
 10 22  1  0  0  0  0
 11 12  2  0  0  0  0
 11 23  1  0  0  0  0
 12 24  1  0  0  0  0
 13 20  1  0  0  0  0
 13 22  2  0  0  0  0
 14 24  2  0  0  0  0
 14 25  1  0  0  0  0
 15 26  1  0  0  0  0
 16 26  1  0  0  0  0
 16 27  2  0  0  0  0
 16 28  1  0  0  0  0
 17 19  2  0  0  0  0
 17 33  1  0  0  0  0
 18 20  2  0  0  0  0
 18 34  1  0  0  0  0
 19 45  1  0  0  0  0
 20 35  1  0  0  0  0
 21 83  1  0  0  0  0
 22 84  1  0  0  0  0
 23 25  2  0  0  0  0
 23 83  1  0  0  0  0
 24 85  1  0  0  0  0
 25 86  1  0  0  0  0
 26 64  2  0  0  0  0
 27 65  1  0  0  0  0
 27 68  1  0  0  0  0
 28 69  1  0  0  0  0
 28 77  2  0  0  0  0
 29 46  1  0  0  0  0
 29 70  1  0  0  0  0
 29 78  2  0  0  0  0
 30 59  1  0  0  0  0
 30 66  1  0  0  0  0
 30 79  2  0  0  0  0
 31 60  1  0  0  0  0
 31 71  1  0  0  0  0
 31 80  2  0  0  0  0
 32 67  1  0  0  0  0
 32 72  1  0  0  0  0
 32 81  2  0  0  0  0
 33 36  1  0  0  0  0
 34 46  1  0  0  0  0
 35 66  1  0  0  0  0
 36 38  1  0  0  0  0
 37 39  1  0  0  0  0
 37 41  1  0  0  0  0
 38 45  1  0  0  0  0
 39 47  1  0  0  0  0
 40 43  1  0  0  0  0
 40 49  1  0  0  0  0
 41 67  1  0  0  0  0
 42 47  1  0  0  0  0
 42 67  1  0  0  0  0
 43 73  1  0  0  0  0
 44 48  1  0  0  0  0
 44 73  1  0  0  0  0
 45 70  1  0  0  0  0
 46 66  1  0  0  0  0
 47 65  1  0  0  0  0
 48 49  1  0  0  0  0
 48 72  1  0  0  0  0
 49 75  1  0  0  0  0
 50 60  1  0  0  0  0
 51 63  1  0  0  0  0
 52 63  1  0  0  0  0
 53 63  1  0  0  0  0
 54 76  1  0  0  0  0
 55 58  1  0  0  0  0
 55 61  1  0  0  0  0
 56 61  1  0  0  0  0
 56 62  1  0  0  0  0
 57 62  1  0  0  0  0
 57 75  1  0  0  0  0
 58 84  1  0  0  0  0
 59 63  1  0  0  0  0
 59 71  1  0  0  0  0
 60 76  1  0  0  0  0
 61 74  1  0  0  0  0
 62 82  1  0  0  0  0
 64 65  1  0  0  0  0
M  CHG  4  73   1  74   1  75   1  76   1
M  ISO  4  32 100  58 101  72 100  84 101
M  END
> <Batch ID>
0117

> <Smiles>
CNC(C)C(=O)NC(C(=O)N1Cc2cc([101O:1][101CH2:1]CC(N)CC(O)CNC3CCNCC3[100NH:0][100C:0](=O)N3CCCC(n4nc(-c5ccc(Oc6ccc(F)cc6F)cc5)c(C(N)=O)c4N)C3)ccc2CC1C(=O)NC1CCCc2ccccc21)C(C)(C)C

> <Shape>
0.287

> <Color>
0.075

> <Negative vol penalty>
0.000

$$$$

  -OEChem-04052320153D

 80 88  0     1  0  0  0  0  0999 V2000
  -31.8533  -27.1483   14.1001 C   0  0  0  0  0  0  0  0  0  0  0  0
  -31.4221  -26.0420   14.8250 C   0  0  0  0  0  0  0  0  0  0  0  0
  -22.6240  -10.3089   20.1531 C   0  0  0  0  0  0  0  0  0  0  0  0
  -24.2256   -9.4974   21.7696 C   0  0  0  0  0  0  0  0  0  0  0  0
  -31.3248  -28.4091   14.3743 C   0  0  0  0  0  0  0  0  0  0  0  0
  -30.4629  -26.1959   15.8253 C   0  0  0  0  0  0  0  0  0  0  0  0
  -26.8702  -22.6320   15.6370 C   0  0  0  0  0  0  0  0  0  0  0  0
  -21.8522   -9.1626   20.3423 C   0  0  0  0  0  0  0  0  0  0  0  0
  -23.4538   -8.3511   21.9590 C   0  0  0  0  0  0  0  0  0  0  0  0
  -27.1921  -21.3757   16.1490 C   0  0  0  0  0  0  0  0  0  0  0  0
  -20.6503   -7.4869   23.6366 C   0  0  0  0  0  0  0  0  0  0  0  0
  -20.4304   -7.0648   24.9477 C   0  0  0  0  0  0  0  0  0  0  0  0
  -26.0288  -21.9169   18.1918 C   0  0  0  0  0  0  0  0  0  0  0  0
  -21.5013   -4.9574   24.4488 C   0  0  0  0  0  0  0  0  0  0  0  0
  -23.8108  -10.4763   20.8667 C   0  0  0  0  0  0  0  0  0  0  0  0
  -24.2179  -12.9945   20.8902 C   0  0  0  0  0  0  0  0  0  0  0  0
  -30.3516  -28.5770   15.3719 C   0  0  0  0  0  0  0  0  0  0  0  0
  -26.1333  -23.5457   16.4041 C   0  0  0  0  0  0  0  0  0  0  0  0
  -29.9219  -27.4603   16.1141 C   0  0  0  0  0  0  0  0  0  0  0  0
  -25.6967  -23.1831   17.6863 C   0  0  0  0  0  0  0  0  0  0  0  0
  -22.2670   -8.1837   21.2453 C   0  0  0  0  0  0  0  0  0  0  0  0
  -26.7739  -21.0191   17.4277 C   0  0  0  0  0  0  0  0  0  0  0  0
  -21.2957   -6.6443   22.7315 C   0  0  0  0  0  0  0  0  0  0  0  0
  -20.8559   -5.8000   25.3538 C   0  0  0  0  0  0  0  0  0  0  0  0
  -21.7212   -5.3795   23.1377 C   0  0  0  0  0  0  0  0  0  0  0  0
  -24.6088  -11.6599   20.6712 C   0  0  0  0  0  0  0  0  0  0  0  0
  -25.3265  -13.7354   20.5606 C   0  0  0  0  0  0  0  0  0  0  0  0
  -22.9649  -13.5176   21.3504 C   0  0  0  0  0  0  0  0  0  0  0  0
  -26.6882  -26.4443   17.5850 C   0  0  0  0  0  0  0  0  0  0  0  0
  -23.5647  -26.2672   18.4421 C   0  0  0  0  0  0  0  0  0  0  0  0
  -20.8679  -24.3082   19.1743 C   0  0  0  0  0  0  0  0  0  0  0  0
  -30.8364  -14.6000   20.7554 C   0  0  0  0  0  0  0  0  0  0  0  0
  -29.8442  -29.9669   15.6645 C   0  0  0  0  0  0  0  0  0  0  0  0
  -25.7714  -24.8868   15.8271 C   0  0  0  0  0  0  0  0  0  0  0  0
  -24.8859  -24.1202   18.5424 C   0  0  0  0  0  0  0  0  0  0  0  0
  -28.5577  -29.9853   16.4859 C   0  0  0  0  0  0  0  0  0  0  0  0
  -29.6174  -12.3888   18.2453 C   0  0  0  0  0  0  0  0  0  0  0  0
  -28.6649  -29.0265   17.6674 C   0  0  0  0  0  0  0  0  0  0  0  0
  -28.1763  -12.1075   18.6741 C   0  0  0  0  0  0  0  0  0  0  0  0
  -27.0783  -19.0542   20.2269 C   0  0  0  0  0  0  0  0  0  0  0  0
  -29.1761  -19.0448   18.8368 C   0  0  0  0  0  0  0  0  0  0  0  0
  -30.5496  -12.5155   19.4481 C   0  0  0  0  0  0  0  0  0  0  0  0
  -28.6790  -13.2134   20.8929 C   0  0  0  0  0  0  0  0  0  0  0  0
  -27.9138  -18.8710   21.4841 C   0  0  0  0  0  0  0  0  0  0  0  0
  -30.0074  -18.8621   20.0968 C   0  0  0  0  0  0  0  0  0  0  0  0
  -28.8649  -27.5830   17.1901 C   0  0  1  0  0  0  0  0  0  0  0  0
  -25.4566  -25.9310   16.8939 C   0  0  1  0  0  0  0  0  0  0  0  0
  -27.6911  -13.1329   19.7165 C   0  0  2  0  0  0  0  0  0  0  0  0
  -27.8607  -19.7619   19.1240 C   0  0  0  0  0  0  0  0  0  1  0  0
  -18.4627  -24.4498   19.8763 C   0  0  0  0  0  0  0  0  0  0  0  0
  -31.8434  -16.3421   23.3200 C   0  0  0  0  0  0  0  0  0  0  0  0
  -24.4373  -26.9361   21.2884 C   0  0  0  0  0  0  0  0  0  0  0  0
  -22.2020  -26.1393   22.0865 C   0  0  0  0  0  0  0  0  0  0  0  0
  -22.3491  -28.0903   20.5390 C   0  0  0  0  0  0  0  0  0  0  0  0
  -19.9488  -22.9448   16.7136 C   0  0  0  0  0  0  0  0  0  0  0  0
  -29.9998  -17.8272   22.3655 C   0  0  0  0  0  0  0  0  0  0  0  0
  -22.8152  -25.7684   19.6539 C   0  0  1  0  0  0  0  0  0  0  0  0
  -19.4259  -24.3621   18.7027 C   0  0  2  0  0  0  0  0  0  0  0  0
  -30.9688  -16.6724   22.1144 C   0  0  2  0  0  0  0  0  0  0  0  0
  -22.9678  -26.7164   20.8768 C   0  0  0  0  0  0  0  0  0  0  0  0
  -25.8673  -11.5560   20.2360 N   0  0  0  0  0  0  0  0  0  0  0  0
  -26.2768  -12.8348   20.1788 N   0  0  0  0  0  0  0  0  0  0  0  0
  -24.5628  -25.4224   17.9363 N   0  0  0  0  0  0  0  0  0  0  0  0
  -30.0334  -13.5045   20.3975 N   0  0  0  0  0  0  0  0  0  0  0  0
  -25.5712  -15.0630   20.5630 N   0  0  0  0  0  0  0  0  0  0  0  0
  -22.7772  -13.6864   22.7290 N   0  0  0  0  0  0  0  0  0  0  0  0
  -27.6107  -27.0230   16.7344 N   0  0  0  0  0  0  0  0  0  0  0  0
  -21.4359  -25.5636   19.2251 N   0  0  0  0  0  0  0  0  0  0  0  0
  -30.2687  -15.4933   21.6556 N   0  0  0  0  0  0  0  0  0  0  0  0
  -29.1877  -18.1367   21.1380 N   0  3  0  0  0  0  0  0  0  0  0  0
  -19.0937  -23.1434   17.9120 N   0  3  0  0  0  0  0  0  0  0  0  0
  -22.0330  -13.8108   20.5636 O   0  0  0  0  0  0  0  0  0  0  0  0
  -26.7930  -26.3254   18.8001 O   0  0  0  0  0  0  0  0  0  0  0  0
  -23.2704  -27.3628   17.9577 O   0  0  0  0  0  0  0  0  0  0  0  0
  -21.4326  -23.2579   19.4718 O   0  0  0  0  0  0  0  0  0  0  0  0
  -31.9729  -14.7723   20.3019 O   0  0  0  0  0  0  0  0  0  0  0  0
  -21.5140   -7.0651   21.4304 O   0  0  0  0  0  0  0  0  0  0  0  0
  -27.0872  -19.7939   17.9301 O   0  0  0  0  0  0  0  0  0  1  0  0
  -20.6460   -5.3954   26.6134 F   0  0  0  0  0  0  0  0  0  0  0  0
  -22.3428   -4.5660   22.2730 F   0  0  0  0  0  0  0  0  0  0  0  0
  1  2  1  0  0  0  0
  1  5  2  0  0  0  0
  2  6  2  0  0  0  0
  3  8  2  0  0  0  0
  3 15  1  0  0  0  0
  4  9  1  0  0  0  0
  4 15  2  0  0  0  0
  5 17  1  0  0  0  0
  6 19  1  0  0  0  0
  7 10  2  0  0  0  0
  7 18  1  0  0  0  0
  8 21  1  0  0  0  0
  9 21  2  0  0  0  0
 10 22  1  0  0  0  0
 11 12  2  0  0  0  0
 11 23  1  0  0  0  0
 12 24  1  0  0  0  0
 13 20  1  0  0  0  0
 13 22  2  0  0  0  0
 14 24  2  0  0  0  0
 14 25  1  0  0  0  0
 15 26  1  0  0  0  0
 16 26  1  0  0  0  0
 16 27  2  0  0  0  0
 16 28  1  0  0  0  0
 17 19  2  0  0  0  0
 17 33  1  0  0  0  0
 18 20  2  0  0  0  0
 18 34  1  0  0  0  0
 19 46  1  0  0  0  0
 20 35  1  0  0  0  0
 21 77  1  0  0  0  0
 22 78  1  0  0  0  0
 23 25  2  0  0  0  0
 23 77  1  0  0  0  0
 24 79  1  0  0  0  0
 25 80  1  0  0  0  0
 26 61  2  0  0  0  0
 27 62  1  0  0  0  0
 27 65  1  0  0  0  0
 28 66  1  0  0  0  0
 28 72  2  0  0  0  0
 29 47  1  0  0  0  0
 29 67  1  0  0  0  0
 29 73  2  0  0  0  0
 30 57  1  0  0  0  0
 30 63  1  0  0  0  0
 30 74  2  0  0  0  0
 31 58  1  0  0  0  0
 31 68  1  0  0  0  0
 31 75  2  0  0  0  0
 32 64  1  0  0  0  0
 32 69  1  0  0  0  0
 32 76  2  0  0  0  0
 33 36  1  0  0  0  0
 34 47  1  0  0  0  0
 35 63  1  0  0  0  0
 36 38  1  0  0  0  0
 37 39  1  0  0  0  0
 37 42  1  0  0  0  0
 38 46  1  0  0  0  0
 39 48  1  0  0  0  0
 40 44  1  0  0  0  0
 40 49  1  0  0  0  0
 41 45  1  0  0  0  0
 41 49  1  0  0  0  0
 42 64  1  0  0  0  0
 43 48  1  0  0  0  0
 43 64  1  0  0  0  0
 44 70  1  0  0  0  0
 45 70  1  0  0  0  0
 46 67  1  0  0  0  0
 47 63  1  0  0  0  0
 48 62  1  0  0  0  0
 49 78  1  0  0  0  0
 50 58  1  0  0  0  0
 51 59  1  0  0  0  0
 52 60  1  0  0  0  0
 53 60  1  0  0  0  0
 54 60  1  0  0  0  0
 55 71  1  0  0  0  0
 56 59  1  0  0  0  0
 56 70  1  0  0  0  0
 57 60  1  0  0  0  0
 57 68  1  0  0  0  0
 58 71  1  0  0  0  0
 59 69  1  0  0  0  0
 61 62  1  0  0  0  0
M  CHG  2  70   1  71   1
M  ISO  4  32 100  49 101  69 100  78 101
M  END
> <Batch ID>
0117

> <Smiles>
CNC(C)C(=O)NC(C(=O)N1Cc2cc([101O:1][101CH:1]3CCN(CC(C)[100NH:0][100C:0](=O)N4CCCC(n5nc(-c6ccc(Oc7ccc(F)cc7F)cc6)c(C(N)=O)c5N)C4)CC3)ccc2CC1C(=O)NC1CCCc2ccccc21)C(C)(C)C

> <Shape>
0.247

> <Color>
0.176

> <Negative vol penalty>
0.000

$$$$

  -OEChem-04052320153D

 92101  0     1  0  0  0  0  0999 V2000
  -32.6516  -32.9754   15.9851 C   0  0  0  0  0  0  0  0  0  0  0  0
  -32.1394  -31.6822   16.0109 C   0  0  0  0  0  0  0  0  0  0  0  0
  -22.4905  -14.0115   20.6539 C   0  0  0  0  0  0  0  0  0  0  0  0
  -22.4739  -12.3923   18.8610 C   0  0  0  0  0  0  0  0  0  0  0  0
  -32.6346  -33.7539   17.1416 C   0  0  0  0  0  0  0  0  0  0  0  0
  -31.6108  -31.1663   17.1936 C   0  0  0  0  0  0  0  0  0  0  0  0
  -26.8816  -27.3138   17.7402 C   0  0  0  0  0  0  0  0  0  0  0  0
  -21.2424  -14.4793   20.2430 C   0  0  0  0  0  0  0  0  0  0  0  0
  -21.2257  -12.8600   18.4501 C   0  0  0  0  0  0  0  0  0  0  0  0
  -26.8126  -25.9326   17.9168 C   0  0  0  0  0  0  0  0  0  0  0  0
  -18.0008  -12.5092   19.3973 C   0  0  0  0  0  0  0  0  0  0  0  0
  -17.0259  -11.5617   19.0853 C   0  0  0  0  0  0  0  0  0  0  0  0
  -26.5912  -26.2541   20.2973 C   0  0  0  0  0  0  0  0  0  0  0  0
  -16.8961  -12.4356   16.8366 C   0  0  0  0  0  0  0  0  0  0  0  0
  -23.1064  -12.9680   19.9629 C   0  0  0  0  0  0  0  0  0  0  0  0
  -24.6564  -11.4567   21.3123 C   0  0  0  0  0  0  0  0  0  0  0  0
  -32.0968  -33.2507   18.3367 C   0  0  0  0  0  0  0  0  0  0  0  0
  -26.8169  -28.1766   18.8437 C   0  0  0  0  0  0  0  0  0  0  0  0
  -31.5879  -31.9383   18.3676 C   0  0  0  0  0  0  0  0  0  0  0  0
  -26.6571  -27.6460   20.1318 C   0  0  0  0  0  0  0  0  0  0  0  0
  -31.9135  -20.7153   19.5067 C   0  0  0  0  0  0  0  0  0  0  0  0
  -32.1633  -22.1086   19.4483 C   0  0  0  0  0  0  0  0  0  0  0  0
  -20.6100  -13.9036   19.1411 C   0  0  0  0  0  0  0  0  0  0  0  0
  -26.6702  -25.4024   19.1958 C   0  0  0  0  0  0  0  0  0  0  0  0
  -18.4233  -13.4200   18.4290 C   0  0  0  0  0  0  0  0  0  0  0  0
  -16.4736  -11.5249   17.8050 C   0  0  0  0  0  0  0  0  0  0  0  0
  -17.8710  -13.3832   17.1486 C   0  0  0  0  0  0  0  0  0  0  0  0
  -24.3960  -12.4847   20.3865 C   0  0  0  0  0  0  0  0  0  0  0  0
  -30.9451  -20.5108   20.4646 C   0  0  0  0  0  0  0  0  0  0  0  0
  -31.3399  -22.7132   20.3725 C   0  0  0  0  0  0  0  0  0  0  0  0
  -26.0268  -11.3820   21.3660 C   0  0  0  0  0  0  0  0  0  0  0  0
  -23.7414  -10.6420   22.0571 C   0  0  0  0  0  0  0  0  0  0  0  0
  -28.7818  -30.3131   20.1390 C   0  0  0  0  0  0  0  0  0  0  0  0
  -26.2271  -30.9330   22.0394 C   0  0  0  0  0  0  0  0  0  0  0  0
  -23.3061  -29.8306   23.4175 C   0  0  0  0  0  0  0  0  0  0  0  0
  -30.4013  -15.1642   20.3646 C   0  0  0  0  0  0  0  0  0  0  0  0
  -32.1434  -34.1128   19.5733 C   0  0  0  0  0  0  0  0  0  0  0  0
  -26.8660  -29.6652   18.6338 C   0  0  0  0  0  0  0  0  0  0  0  0
  -26.5623  -28.5300   21.3475 C   0  0  0  0  0  0  0  0  0  0  0  0
  -31.2244  -33.6254   20.6906 C   0  0  0  0  0  0  0  0  0  0  0  0
  -29.9340  -12.1553   18.7285 C   0  0  0  0  0  0  0  0  0  0  0  0
  -31.3793  -32.1213   20.8912 C   0  0  0  0  0  0  0  0  0  0  0  0
  -28.4868  -11.7861   19.0532 C   0  0  0  0  0  0  0  0  0  0  0  0
  -29.5215  -18.5172   19.8161 C   0  0  0  0  0  0  0  0  0  0  0  0
  -31.3204  -18.2662   21.5798 C   0  0  0  0  0  0  0  0  0  0  0  0
  -30.0647  -13.6459   18.4378 C   0  0  0  0  0  0  0  0  0  0  0  0
  -28.8984  -17.2032   20.2960 C   0  0  0  0  0  0  0  0  0  0  0  0
  -30.6425  -16.9766   22.0336 C   0  0  0  0  0  0  0  0  0  0  0  0
  -28.1221  -14.1645   19.8784 C   0  0  0  0  0  0  0  0  0  0  0  0
  -30.9835  -31.3521   19.6250 C   0  0  1  0  0  0  0  0  0  0  0  0
  -30.2982  -19.2241   20.9415 C   0  0  0  0  0  0  0  0  0  0  0  0
  -27.3067  -30.4299   19.8782 C   0  0  1  0  0  0  0  0  0  0  0  0
  -27.9331  -12.6655   20.1883 C   0  0  1  0  0  0  0  0  0  0  0  0
  -33.1303  -22.7901   18.5631 C   0  0  0  0  0  0  0  0  0  0  0  0
  -31.1922  -24.1409   20.7277 C   0  0  0  0  0  0  0  0  0  0  0  0
  -34.0928  -19.5863   18.9325 C   0  0  0  0  0  0  0  0  0  0  0  0
  -32.3005  -19.8337   17.1771 C   0  0  0  0  0  0  0  0  0  0  0  0
  -21.4606  -30.5490   24.9587 C   0  0  0  0  0  0  0  0  0  0  0  0
  -30.0629  -21.2878   23.3325 C   0  0  0  0  0  0  0  0  0  0  0  0
  -28.0633  -30.4978   24.4371 C   0  0  0  0  0  0  0  0  0  0  0  0
  -26.0231  -30.2837   25.8723 C   0  0  0  0  0  0  0  0  0  0  0  0
  -26.4814  -32.4208   24.6700 C   0  0  0  0  0  0  0  0  0  0  0  0
  -21.2648  -29.5474   21.2934 C   0  0  0  0  0  0  0  0  0  0  0  0
  -28.2082  -21.4661   21.6307 C   0  0  0  0  0  0  0  0  0  0  0  0
  -27.1056  -23.5356   20.6034 C   0  0  0  0  0  0  0  0  0  1  0  0
  -32.5684  -19.6720   18.6909 C   0  0  0  0  0  0  0  0  0  0  0  0
  -25.7202  -30.3986   23.3571 C   0  0  1  0  0  0  0  0  0  0  0  0
  -21.9335  -30.4716   23.5154 C   0  0  2  0  0  0  0  0  0  0  0  0
  -29.6192  -21.9526   22.0225 C   0  0  2  0  0  0  0  0  0  0  0  0
  -27.6099  -22.1141   20.3743 C   0  0  2  0  0  0  0  0  0  0  0  0
  -26.5757  -30.8832   24.5616 C   0  0  0  0  0  0  0  0  0  0  0  0
  -25.5114  -13.0245   19.8881 N   0  0  0  0  0  0  0  0  0  0  0  0
  -30.6042  -21.7322   20.9844 N   0  0  0  0  0  0  0  0  0  0  0  0
  -26.4860  -12.3330   20.5029 N   0  0  0  0  0  0  0  0  0  0  0  0
  -26.6216  -29.9786   21.0911 N   0  0  0  0  0  0  0  0  0  0  0  0
  -29.5249  -14.4465   19.5367 N   0  0  0  0  0  0  0  0  0  0  0  0
  -29.9117  -16.3501   20.9323 N   0  0  0  0  0  0  0  0  0  0  0  0
  -26.8717  -10.5963   22.0668 N   0  0  0  0  0  0  0  0  0  0  0  0
  -22.3665  -10.8507   21.8824 N   0  0  0  0  0  0  0  0  0  0  0  0
  -29.5429  -31.2786   19.5080 N   0  0  0  0  0  0  0  0  0  0  0  0
  -24.3124  -30.7731   23.4351 N   0  0  0  0  0  0  0  0  0  0  0  0
  -20.9371  -29.6838   22.7359 N   0  3  0  0  0  0  0  0  0  0  0  0
  -24.1315   -9.7665   22.8663 O   0  0  0  0  0  0  0  0  0  0  0  0
  -29.1986  -29.4146   20.8606 O   0  0  0  0  0  0  0  0  0  0  0  0
  -26.2647  -32.1522   21.8554 O   0  0  0  0  0  0  0  0  0  0  0  0
  -23.4694  -28.6151   23.3374 O   0  0  0  0  0  0  0  0  0  0  0  0
  -31.5530  -14.7689   20.5848 O   0  0  0  0  0  0  0  0  0  0  0  0
  -26.4996  -21.3025   19.9752 O   0  0  0  0  0  0  0  0  0  0  0  0
  -19.3919  -14.3596   18.7400 O   0  0  0  0  0  0  0  0  0  0  0  0
  -26.6028  -24.0463   19.3721 O   0  0  0  0  0  0  0  0  0  1  0  0
  -15.5385  -10.6139   17.5051 F   0  0  0  0  0  0  0  0  0  0  0  0
  -18.2738  -14.2548   16.2139 F   0  0  0  0  0  0  0  0  0  0  0  0
  1  2  1  0  0  0  0
  1  5  2  0  0  0  0
  2  6  2  0  0  0  0
  3  8  2  0  0  0  0
  3 15  1  0  0  0  0
  4  9  1  0  0  0  0
  4 15  2  0  0  0  0
  5 17  1  0  0  0  0
  6 19  1  0  0  0  0
  7 10  2  0  0  0  0
  7 18  1  0  0  0  0
  8 23  1  0  0  0  0
  9 23  2  0  0  0  0
 10 24  1  0  0  0  0
 11 12  2  0  0  0  0
 11 25  1  0  0  0  0
 12 26  1  0  0  0  0
 13 20  1  0  0  0  0
 13 24  2  0  0  0  0
 14 26  2  0  0  0  0
 14 27  1  0  0  0  0
 15 28  1  0  0  0  0
 16 28  1  0  0  0  0
 16 31  2  0  0  0  0
 16 32  1  0  0  0  0
 17 19  2  0  0  0  0
 17 37  1  0  0  0  0
 18 20  2  0  0  0  0
 18 38  1  0  0  0  0
 19 50  1  0  0  0  0
 20 39  1  0  0  0  0
 21 22  1  0  0  0  0
 21 29  2  0  0  0  0
 21 66  1  0  0  0  0
 22 30  2  0  0  0  0
 22 54  1  0  0  0  0
 23 89  1  0  0  0  0
 24 90  1  0  0  0  0
 25 27  2  0  0  0  0
 25 89  1  0  0  0  0
 26 91  1  0  0  0  0
 27 92  1  0  0  0  0
 28 72  2  0  0  0  0
 29 51  1  0  0  0  0
 29 73  1  0  0  0  0
 30 55  1  0  0  0  0
 30 73  1  0  0  0  0
 31 74  1  0  0  0  0
 31 78  1  0  0  0  0
 32 79  1  0  0  0  0
 32 83  2  0  0  0  0
 33 52  1  0  0  0  0
 33 80  1  0  0  0  0
 33 84  2  0  0  0  0
 34 67  1  0  0  0  0
 34 75  1  0  0  0  0
 34 85  2  0  0  0  0
 35 68  1  0  0  0  0
 35 81  1  0  0  0  0
 35 86  2  0  0  0  0
 36 76  1  0  0  0  0
 36 77  1  0  0  0  0
 36 87  2  0  0  0  0
 37 40  1  0  0  0  0
 38 52  1  0  0  0  0
 39 75  1  0  0  0  0
 40 42  1  0  0  0  0
 41 43  1  0  0  0  0
 41 46  1  0  0  0  0
 42 50  1  0  0  0  0
 43 53  1  0  0  0  0
 44 47  1  0  0  0  0
 44 51  1  0  0  0  0
 45 48  1  0  0  0  0
 45 51  1  0  0  0  0
 46 76  1  0  0  0  0
 47 77  1  0  0  0  0
 48 77  1  0  0  0  0
 49 53  1  0  0  0  0
 49 76  1  0  0  0  0
 50 80  1  0  0  0  0
 52 75  1  0  0  0  0
 53 74  1  0  0  0  0
 56 66  1  0  0  0  0
 57 66  1  0  0  0  0
 58 68  1  0  0  0  0
 59 69  1  0  0  0  0
 60 71  1  0  0  0  0
 61 71  1  0  0  0  0
 62 71  1  0  0  0  0
 63 82  1  0  0  0  0
 64 69  1  0  0  0  0
 64 70  1  0  0  0  0
 65 70  1  0  0  0  0
 65 90  1  0  0  0  0
 67 71  1  0  0  0  0
 67 81  1  0  0  0  0
 68 82  1  0  0  0  0
 69 73  1  0  0  0  0
 70 88  1  0  0  0  0
 72 74  1  0  0  0  0
M  CHG  1  82   1
M  ISO  4  36 100  65 101  77 100  90 101
M  END
> <Batch ID>
0117

> <Smiles>
CNC(C)C(=O)NC(C(=O)N1Cc2cc([101O:1][101CH2:1]C(O)CC(C)n3c(C)c(C)c(C(C)C)c3C3CC[100N:0]([100C:0](=O)N4CCCC(n5nc(-c6ccc(Oc7ccc(F)cc7F)cc6)c(C(N)=O)c5N)C4)CC3)ccc2CC1C(=O)NC1CCCc2ccccc21)C(C)(C)C

> <Shape>
0.251

> <Color>
0.094

> <Negative vol penalty>
0.000

$$$$

  -OEChem-04052320153D

 90 97  0     1  0  0  0  0  0999 V2000
  -19.5009  -24.1734   21.6581 C   0  0  0  0  0  0  0  0  0  0  0  0
  -20.5102  -24.6810   20.8463 C   0  0  0  0  0  0  0  0  0  0  0  0
  -33.3236  -18.0326   19.4032 C   0  0  0  0  0  0  0  0  0  0  0  0
  -31.5864  -17.6360   17.7717 C   0  0  0  0  0  0  0  0  0  0  0  0
  -18.7383  -25.0373   22.4429 C   0  0  0  0  0  0  0  0  0  0  0  0
  -20.7568  -26.0531   20.8180 C   0  0  0  0  0  0  0  0  0  0  0  0
  -25.6968  -27.1441   21.0450 C   0  0  0  0  0  0  0  0  0  0  0  0
  -33.0340  -16.8099   20.0088 C   0  0  0  0  0  0  0  0  0  0  0  0
  -31.2968  -16.4132   18.3772 C   0  0  0  0  0  0  0  0  0  0  0  0
  -26.4364  -26.9944   19.8727 C   0  0  0  0  0  0  0  0  0  0  0  0
  -32.5103  -13.9561   22.2008 C   0  0  0  0  0  0  0  0  0  0  0  0
  -32.4251  -13.9241   23.5927 C   0  0  0  0  0  0  0  0  0  0  0  0
  -26.3062  -29.3732   19.4938 C   0  0  0  0  0  0  0  0  0  0  0  0
  -30.6248  -15.5336   23.5195 C   0  0  0  0  0  0  0  0  0  0  0  0
  -32.5998  -18.4457   18.2846 C   0  0  0  0  0  0  0  0  0  0  0  0
  -33.8185  -19.9469   16.6207 C   0  0  0  0  0  0  0  0  0  0  0  0
  -18.9821  -26.4198   22.4315 C   0  0  0  0  0  0  0  0  0  0  0  0
  -25.2462  -28.4103   21.4454 C   0  0  0  0  0  0  0  0  0  0  0  0
  -19.9959  -26.9366   21.6024 C   0  0  0  0  0  0  0  0  0  0  0  0
  -25.5632  -29.5367   20.6729 C   0  0  0  0  0  0  0  0  0  0  0  0
  -32.0207  -16.0002   19.4958 C   0  0  0  0  0  0  0  0  0  0  0  0
  -26.7388  -28.1086   19.0954 C   0  0  0  0  0  0  0  0  0  0  0  0
  -31.6527  -14.7769   21.4682 C   0  0  0  0  0  0  0  0  0  0  0  0
  -31.4823  -14.7128   24.2520 C   0  0  0  0  0  0  0  0  0  0  0  0
  -30.7100  -15.5656   22.1276 C   0  0  0  0  0  0  0  0  0  0  0  0
  -32.8981  -19.7088   17.6589 C   0  0  0  0  0  0  0  0  0  0  0  0
  -33.7295  -21.2972   16.3859 C   0  0  0  0  0  0  0  0  0  0  0  0
  -34.6771  -19.0294   15.9302 C   0  0  0  0  0  0  0  0  0  0  0  0
  -22.3932  -29.7309   21.9146 C   0  0  0  0  0  0  0  0  0  0  0  0
  -24.1591  -32.2244   23.0038 C   0  0  0  0  0  0  0  0  0  0  0  0
  -27.1391  -33.8878   22.9928 C   0  0  0  0  0  0  0  0  0  0  0  0
  -29.5951  -27.6557   21.8446 C   0  0  0  0  0  0  0  0  0  0  0  0
  -29.5946  -22.3584   19.7020 C   0  0  0  0  0  0  0  0  0  0  0  0
  -18.1004  -27.3192   23.2612 C   0  0  0  0  0  0  0  0  0  0  0  0
  -24.4722  -28.5586   22.7266 C   0  0  0  0  0  0  0  0  0  0  0  0
  -25.1203  -30.9205   21.0695 C   0  0  0  0  0  0  0  0  0  0  0  0
  -18.6730  -28.7206   23.4576 C   0  0  0  0  0  0  0  0  0  0  0  0
  -32.9186  -23.8562   19.8175 C   0  0  0  0  0  0  0  0  0  0  0  0
  -19.1788  -29.2812   22.1322 C   0  0  0  0  0  0  0  0  0  0  0  0
  -33.2363  -24.0325   18.3369 C   0  0  0  0  0  0  0  0  0  0  0  0
  -31.4370  -24.0708   20.1144 C   0  0  0  0  0  0  0  0  0  0  0  0
  -30.8412  -23.3525   17.8098 C   0  0  0  0  0  0  0  0  0  0  0  0
  -20.3101  -28.4164   21.5632 C   0  0  1  0  0  0  0  0  0  0  0  0
  -23.6251  -29.8266   22.7696 C   0  0  1  0  0  0  0  0  0  0  0  0
  -32.3224  -23.2050   17.4194 C   0  0  2  0  0  0  0  0  0  0  0  0
  -28.2678  -35.9135   23.9518 C   0  0  0  0  0  0  0  0  0  0  0  0
  -31.0792  -29.6660   22.0760 C   0  0  0  0  0  0  0  0  0  0  0  0
  -30.8678  -25.3363   25.2884 C   0  0  0  0  0  0  0  0  0  0  0  0
  -29.1652  -27.1728   25.3770 C   0  0  0  0  0  0  0  0  0  0  0  0
  -27.0371  -21.1519   20.7118 C   0  0  0  0  0  0  0  0  0  0  0  0
  -29.1053  -20.4384   21.9516 C   0  0  0  0  0  0  0  0  0  0  0  0
  -27.8048  -29.5741   16.2029 C   0  0  0  0  0  0  0  0  0  0  0  0
  -22.6315  -33.9988   21.0473 C   0  0  0  0  0  0  0  0  0  0  0  0
  -24.4025  -35.7417   21.3534 C   0  0  0  0  0  0  0  0  0  0  0  0
  -23.0173  -35.0187   23.2979 C   0  0  0  0  0  0  0  0  0  0  0  0
  -29.1852  -32.2437   24.3600 C   0  0  0  0  0  0  0  0  0  0  0  0
  -29.4258  -24.2526   22.7722 C   0  0  0  0  0  0  0  0  0  0  0  0
  -29.7414  -28.6036   17.4913 C   0  0  0  0  0  0  0  0  0  0  0  0
  -28.7478  -24.0055   21.4232 C   0  0  0  0  0  0  0  0  0  0  0  0
  -30.2715  -27.9989   18.7884 C   0  0  0  0  0  0  0  0  0  0  0  0
  -24.7755  -33.4521   22.3778 C   0  0  1  0  0  0  0  0  0  0  0  0
  -27.9957  -34.4272   24.1241 C   0  0  2  0  0  0  0  0  0  0  0  0
  -30.6944  -28.4823   21.2021 C   0  0  2  0  0  0  0  0  0  0  0  0
  -29.4665  -25.7670   24.8444 C   0  0  0  0  0  0  0  0  0  0  0  0
  -28.1986  -21.6067   21.5866 C   0  0  0  0  0  0  0  0  0  0  0  0
  -29.2452  -25.6858   23.3115 C   0  0  1  0  0  0  0  0  0  0  0  0
  -28.2807  -29.0645   17.5576 C   0  0  2  0  0  0  0  0  0  1  0  0
  -23.7136  -34.5266   22.0103 C   0  0  0  0  0  0  0  0  0  0  0  0
  -32.2706  -20.8190   18.0564 N   0  0  0  0  0  0  0  0  0  0  0  0
  -32.7978  -21.7677   17.2638 N   0  0  0  0  0  0  0  0  0  0  0  0
  -24.3607  -31.0130   22.3273 N   0  0  0  0  0  0  0  0  0  0  0  0
  -30.5788  -23.2525   19.2480 N   0  0  0  0  0  0  0  0  0  0  0  0
  -34.3583  -22.1162   15.5162 N   0  0  0  0  0  0  0  0  0  0  0  0
  -34.6425  -17.6771   16.2968 N   0  0  0  0  0  0  0  0  0  0  0  0
  -21.5516  -28.6891   22.2551 N   0  0  0  0  0  0  0  0  0  0  0  0
  -25.7975  -33.9162   23.3099 N   0  0  0  0  0  0  0  0  0  0  0  0
  -30.0992  -26.6079   22.6006 N   0  0  0  0  0  0  0  0  0  0  0  0
  -28.9628  -22.6510   20.9190 N   0  0  0  0  0  0  0  0  0  0  0  0
  -29.3025  -33.7124   24.1705 N   0  3  0  0  0  0  0  0  0  0  0  0
  -30.2466  -29.0006   19.8799 N   0  3  0  0  0  0  0  0  0  0  0  0
  -35.4638  -19.4006   15.0264 O   0  0  0  0  0  0  0  0  0  0  0  0
  -22.2184  -30.5431   21.0137 O   0  0  0  0  0  0  0  0  0  0  0  0
  -23.5283  -32.3350   24.0580 O   0  0  0  0  0  0  0  0  0  0  0  0
  -27.6125  -33.4851   21.9325 O   0  0  0  0  0  0  0  0  0  0  0  0
  -28.4010  -27.9081   21.7002 O   0  0  0  0  0  0  0  0  0  0  0  0
  -29.2956  -21.3442   19.0575 O   0  0  0  0  0  0  0  0  0  0  0  0
  -31.7380  -14.8070   20.0864 O   0  0  0  0  0  0  0  0  0  0  0  0
  -27.4600  -27.9651   17.9504 O   0  0  0  0  0  0  0  0  0  1  0  0
  -31.3996  -14.6809   25.5885 F   0  0  0  0  0  0  0  0  0  0  0  0
  -29.8826  -16.3553   21.4291 F   0  0  0  0  0  0  0  0  0  0  0  0
  1  2  1  0  0  0  0
  1  5  2  0  0  0  0
  2  6  2  0  0  0  0
  3  8  2  0  0  0  0
  3 15  1  0  0  0  0
  4  9  1  0  0  0  0
  4 15  2  0  0  0  0
  5 17  1  0  0  0  0
  6 19  1  0  0  0  0
  7 10  2  0  0  0  0
  7 18  1  0  0  0  0
  8 21  1  0  0  0  0
  9 21  2  0  0  0  0
 10 22  1  0  0  0  0
 11 12  2  0  0  0  0
 11 23  1  0  0  0  0
 12 24  1  0  0  0  0
 13 20  1  0  0  0  0
 13 22  2  0  0  0  0
 14 24  2  0  0  0  0
 14 25  1  0  0  0  0
 15 26  1  0  0  0  0
 16 26  1  0  0  0  0
 16 27  2  0  0  0  0
 16 28  1  0  0  0  0
 17 19  2  0  0  0  0
 17 34  1  0  0  0  0
 18 20  2  0  0  0  0
 18 35  1  0  0  0  0
 19 43  1  0  0  0  0
 20 36  1  0  0  0  0
 21 87  1  0  0  0  0
 22 88  1  0  0  0  0
 23 25  2  0  0  0  0
 23 87  1  0  0  0  0
 24 89  1  0  0  0  0
 25 90  1  0  0  0  0
 26 69  2  0  0  0  0
 27 70  1  0  0  0  0
 27 73  1  0  0  0  0
 28 74  1  0  0  0  0
 28 81  2  0  0  0  0
 29 44  1  0  0  0  0
 29 75  1  0  0  0  0
 29 82  2  0  0  0  0
 30 61  1  0  0  0  0
 30 71  1  0  0  0  0
 30 83  2  0  0  0  0
 31 62  1  0  0  0  0
 31 76  1  0  0  0  0
 31 84  2  0  0  0  0
 32 63  1  0  0  0  0
 32 77  1  0  0  0  0
 32 85  2  0  0  0  0
 33 72  1  0  0  0  0
 33 78  1  0  0  0  0
 33 86  2  0  0  0  0
 34 37  1  0  0  0  0
 35 44  1  0  0  0  0
 36 71  1  0  0  0  0
 37 39  1  0  0  0  0
 38 40  1  0  0  0  0
 38 41  1  0  0  0  0
 39 43  1  0  0  0  0
 40 45  1  0  0  0  0
 41 72  1  0  0  0  0
 42 45  1  0  0  0  0
 42 72  1  0  0  0  0
 43 75  1  0  0  0  0
 44 71  1  0  0  0  0
 45 70  1  0  0  0  0
 46 62  1  0  0  0  0
 47 63  1  0  0  0  0
 48 64  1  0  0  0  0
 49 64  1  0  0  0  0
 50 65  1  0  0  0  0
 51 65  1  0  0  0  0
 52 67  1  0  0  0  0
 53 68  1  0  0  0  0
 54 68  1  0  0  0  0
 55 68  1  0  0  0  0
 56 79  1  0  0  0  0
 57 59  1  0  0  0  0
 57 66  1  0  0  0  0
 58 60  1  0  0  0  0
 58 67  1  0  0  0  0
 59 78  1  0  0  0  0
 60 80  1  0  0  0  0
 61 68  1  0  0  0  0
 61 76  1  0  0  0  0
 62 79  1  0  0  0  0
 63 80  1  0  0  0  0
 64 66  1  0  0  0  0
 65 78  1  0  0  0  0
 66 77  1  0  0  0  0
 67 88  1  0  0  0  0
 69 70  1  0  0  0  0
M  CHG  2  79   1  80   1
M  ISO  4  33 100  67 101  78 100  88 101
M  END
> <Batch ID>
0117

> <Smiles>
CNC(C)C(=O)NC(C(=O)N1Cc2cc([101O:1][101CH:1](C)CCNC(C)C(=O)NC(CC[100N:0](C(C)C)[100C:0](=O)N3CCCC(n4nc(-c5ccc(Oc6ccc(F)cc6F)cc5)c(C(N)=O)c4N)C3)C(C)C)ccc2CC1C(=O)NC1CCCc2ccccc21)C(C)(C)C

> <Shape>
0.228

> <Color>
0.105

> <Negative vol penalty>
0.000

$$$$

  -OEChem-04052320153D

 93102  0     1  0  0  0  0  0999 V2000
  -33.4956  -24.8809   24.1685 C   0  0  0  0  0  0  0  0  0  0  0  0
  -32.7776  -23.8024   23.6617 C   0  0  0  0  0  0  0  0  0  0  0  0
  -30.2357   -7.2598   24.2903 C   0  0  0  0  0  0  0  0  0  0  0  0
  -23.2757   -9.8355   19.9477 C   0  0  0  0  0  0  0  0  0  0  0  0
  -23.8832   -9.9505   22.2833 C   0  0  0  0  0  0  0  0  0  0  0  0
  -33.8638  -24.9017   25.5131 C   0  0  0  0  0  0  0  0  0  0  0  0
  -32.4284  -22.7435   24.4991 C   0  0  0  0  0  0  0  0  0  0  0  0
  -30.6474   -8.5695   24.0443 C   0  0  0  0  0  0  0  0  0  0  0  0
  -27.3116  -19.3874   24.2518 C   0  0  0  0  0  0  0  0  0  0  0  0
  -28.9042   -6.9959   24.6117 C   0  0  0  0  0  0  0  0  0  0  0  0
  -22.5777   -8.6519   20.1875 C   0  0  0  0  0  0  0  0  0  0  0  0
  -23.1851   -8.7669   22.5231 C   0  0  0  0  0  0  0  0  0  0  0  0
  -27.0357  -18.1372   23.6998 C   0  0  0  0  0  0  0  0  0  0  0  0
  -19.9700   -7.8153   22.9452 C   0  0  0  0  0  0  0  0  0  0  0  0
  -19.1415   -7.7693   24.0663 C   0  0  0  0  0  0  0  0  0  0  0  0
  -27.3854  -17.1145   25.8564 C   0  0  0  0  0  0  0  0  0  0  0  0
  -20.4306   -5.9236   24.9432 C   0  0  0  0  0  0  0  0  0  0  0  0
  -23.9286  -10.4847   20.9956 C   0  0  0  0  0  0  0  0  0  0  0  0
  -24.1468  -13.0199   20.8149 C   0  0  0  0  0  0  0  0  0  0  0  0
  -33.5106  -23.8470   26.3696 C   0  0  0  0  0  0  0  0  0  0  0  0
  -27.6378  -19.5094   25.6101 C   0  0  0  0  0  0  0  0  0  0  0  0
  -32.7934  -22.7496   25.8561 C   0  0  0  0  0  0  0  0  0  0  0  0
  -29.7277   -9.6155   24.1197 C   0  0  0  0  0  0  0  0  0  0  0  0
  -27.6626  -18.3677   26.4237 C   0  0  0  0  0  0  0  0  0  0  0  0
  -27.9845   -8.0419   24.6870 C   0  0  0  0  0  0  0  0  0  0  0  0
  -28.3962   -9.3517   24.4410 C   0  0  0  0  0  0  0  0  0  0  0  0
  -22.5323   -8.1177   21.4752 C   0  0  0  0  0  0  0  0  0  0  0  0
  -27.0753  -17.0002   24.5015 C   0  0  0  0  0  0  0  0  0  0  0  0
  -21.0288   -6.9155   22.8230 C   0  0  0  0  0  0  0  0  0  0  0  0
  -19.3717   -6.8234   25.0653 C   0  0  0  0  0  0  0  0  0  0  0  0
  -21.2591   -5.9696   23.8220 C   0  0  0  0  0  0  0  0  0  0  0  0
  -24.6504  -11.7070   20.7484 C   0  0  0  0  0  0  0  0  0  0  0  0
  -25.2202  -13.8159   20.4974 C   0  0  0  0  0  0  0  0  0  0  0  0
  -22.8268  -13.4790   21.1352 C   0  0  0  0  0  0  0  0  0  0  0  0
  -30.1825  -20.5212   27.2239 C   0  0  0  0  0  0  0  0  0  0  0  0
  -28.2421  -20.0929   29.7877 C   0  0  0  0  0  0  0  0  0  0  0  0
  -25.5308  -18.5209   31.1386 C   0  0  0  0  0  0  0  0  0  0  0  0
  -31.0515  -13.1977   20.9154 C   0  0  0  0  0  0  0  0  0  0  0  0
  -33.9719  -23.8919   27.8048 C   0  0  0  0  0  0  0  0  0  0  0  0
  -27.9068  -20.8683   26.1961 C   0  0  0  0  0  0  0  0  0  0  0  0
  -27.9875  -18.4473   27.8923 C   0  0  0  0  0  0  0  0  0  0  0  0
  -33.2388  -22.9064   28.7113 C   0  0  0  0  0  0  0  0  0  0  0  0
  -31.7310  -12.9143   24.5446 C   0  0  0  0  0  0  0  0  0  0  0  0
  -29.2901  -13.8080   17.9910 C   0  0  0  0  0  0  0  0  0  0  0  0
  -31.2641  -11.4936   24.8589 C   0  0  0  0  0  0  0  0  0  0  0  0
  -33.1611  -21.5323   28.0536 C   0  0  0  0  0  0  0  0  0  0  0  0
  -27.8457  -13.4680   18.3578 C   0  0  0  0  0  0  0  0  0  0  0  0
  -32.1968  -13.0520   23.0982 C   0  0  0  0  0  0  0  0  0  0  0  0
  -30.2600  -12.8030   18.6020 C   0  0  0  0  0  0  0  0  0  0  0  0
  -30.7243  -11.1871   22.4113 C   0  0  0  0  0  0  0  0  0  0  0  0
  -28.7052  -12.3426   20.4695 C   0  0  0  0  0  0  0  0  0  0  0  0
  -30.2015  -11.0307   23.8472 C   0  0  1  0  0  0  0  0  0  0  0  0
  -32.3746  -21.5937   26.7386 C   0  0  1  0  0  0  0  0  0  0  0  0
  -28.7309  -20.8135   27.4788 C   0  0  1  0  0  0  0  0  0  0  0  0
  -27.6811  -13.3336   19.8817 C   0  0  2  0  0  0  0  0  0  0  0  0
  -26.5645   -7.7323   25.0328 C   0  0  0  0  0  0  0  0  0  0  0  0
  -24.4969  -11.2424   27.6014 C   0  0  0  0  0  0  0  0  0  0  0  0
  -24.2131  -18.3461   33.2671 C   0  0  0  0  0  0  0  0  0  0  0  0
  -27.7176  -13.4406   27.9495 C   0  0  0  0  0  0  0  0  0  0  0  0
  -24.8534  -14.4184   24.2891 C   0  0  0  0  0  0  0  0  0  0  0  0
  -30.4368  -18.3546   31.0007 C   0  0  0  0  0  0  0  0  0  0  0  0
  -28.7428  -17.4639   32.6148 C   0  0  0  0  0  0  0  0  0  0  0  0
  -29.3105  -19.8930   32.6191 C   0  0  0  0  0  0  0  0  0  0  0  0
  -23.0685  -19.5157   29.8323 C   0  0  0  0  0  0  0  0  0  0  0  0
  -27.4100  -10.4733   24.5219 C   0  0  0  0  0  0  0  0  0  0  0  0
  -25.8179  -11.7649   28.1521 C   0  0  0  0  0  0  0  0  0  0  0  0
  -27.1480  -13.5798   24.9159 C   0  0  0  0  0  0  0  0  0  0  0  0
  -27.9390  -18.9440   30.7190 C   0  0  1  0  0  0  0  0  0  0  0  0
  -24.3475  -19.0525   31.9271 C   0  0  2  0  0  0  0  0  0  0  0  0
  -26.4344  -12.9013   27.3034 C   0  0  2  0  0  0  0  0  0  0  0  0
  -26.6254  -12.4525   25.8279 C   0  0  2  0  0  0  0  0  0  0  0  0
  -26.2243  -14.8041   24.8317 C   0  0  1  0  0  0  0  0  0  1  0  0
  -29.1030  -18.6618   31.7104 C   0  0  0  0  0  0  0  0  0  0  0  0
  -25.9431  -11.6669   20.4146 N   0  0  0  0  0  0  0  0  0  0  0  0
  -26.2608  -12.9645   20.2685 N   0  0  0  0  0  0  0  0  0  0  0  0
  -28.2492  -19.7977   28.4171 N   0  0  0  0  0  0  0  0  0  0  0  0
  -31.1878  -12.5602   22.1596 N   0  0  0  0  0  0  0  0  0  0  0  0
  -30.0691  -12.6960   20.0484 N   0  0  0  0  0  0  0  0  0  0  0  0
  -25.3659  -15.1540   20.3943 N   0  0  0  0  0  0  0  0  0  0  0  0
  -21.8433  -12.5272   21.4371 N   0  0  0  0  0  0  0  0  0  0  0  0
  -30.9526  -21.6470   27.0022 N   0  0  0  0  0  0  0  0  0  0  0  0
  -26.6699  -19.2647   31.3632 N   0  0  0  0  0  0  0  0  0  0  0  0
  -23.0840  -18.8539   31.1622 N   0  3  0  0  0  0  0  0  0  0  0  0
  -27.5575  -11.2967   25.7517 N   0  3  0  0  0  0  0  0  0  0  0  0
  -22.5242  -14.6963   21.1371 O   0  0  0  0  0  0  0  0  0  0  0  0
  -30.5752  -19.3604   27.2295 O   0  0  0  0  0  0  0  0  0  0  0  0
  -28.4572  -21.2125   30.2586 O   0  0  0  0  0  0  0  0  0  0  0  0
  -25.4533  -17.5414   30.4003 O   0  0  0  0  0  0  0  0  0  0  0  0
  -31.7632  -14.1598   20.6009 O   0  0  0  0  0  0  0  0  0  0  0  0
  -21.8510   -6.9630   21.7097 O   0  0  0  0  0  0  0  0  0  0  0  0
  -26.8053  -15.7711   23.9618 O   0  0  0  0  0  0  0  0  0  1  0  0
  -18.5769   -6.7803   26.1427 F   0  0  0  0  0  0  0  0  0  0  0  0
  -22.2754   -5.1033   23.7107 F   0  0  0  0  0  0  0  0  0  0  0  0
  1  2  1  0  0  0  0
  1  6  2  0  0  0  0
  2  7  2  0  0  0  0
  3  8  2  0  0  0  0
  3 10  1  0  0  0  0
  4 11  2  0  0  0  0
  4 18  1  0  0  0  0
  5 12  1  0  0  0  0
  5 18  2  0  0  0  0
  6 20  1  0  0  0  0
  7 22  1  0  0  0  0
  8 23  1  0  0  0  0
  9 13  2  0  0  0  0
  9 21  1  0  0  0  0
 10 25  2  0  0  0  0
 11 27  1  0  0  0  0
 12 27  2  0  0  0  0
 13 28  1  0  0  0  0
 14 15  2  0  0  0  0
 14 29  1  0  0  0  0
 15 30  1  0  0  0  0
 16 24  1  0  0  0  0
 16 28  2  0  0  0  0
 17 30  2  0  0  0  0
 17 31  1  0  0  0  0
 18 32  1  0  0  0  0
 19 32  1  0  0  0  0
 19 33  2  0  0  0  0
 19 34  1  0  0  0  0
 20 22  2  0  0  0  0
 20 39  1  0  0  0  0
 21 24  2  0  0  0  0
 21 40  1  0  0  0  0
 22 53  1  0  0  0  0
 23 26  2  0  0  0  0
 23 52  1  0  0  0  0
 24 41  1  0  0  0  0
 25 26  1  0  0  0  0
 25 56  1  0  0  0  0
 26 65  1  0  0  0  0
 27 90  1  0  0  0  0
 28 91  1  0  0  0  0
 29 31  2  0  0  0  0
 29 90  1  0  0  0  0
 30 92  1  0  0  0  0
 31 93  1  0  0  0  0
 32 74  2  0  0  0  0
 33 75  1  0  0  0  0
 33 79  1  0  0  0  0
 34 80  1  0  0  0  0
 34 85  2  0  0  0  0
 35 54  1  0  0  0  0
 35 81  1  0  0  0  0
 35 86  2  0  0  0  0
 36 68  1  0  0  0  0
 36 76  1  0  0  0  0
 36 87  2  0  0  0  0
 37 69  1  0  0  0  0
 37 82  1  0  0  0  0
 37 88  2  0  0  0  0
 38 77  1  0  0  0  0
 38 78  1  0  0  0  0
 38 89  2  0  0  0  0
 39 42  1  0  0  0  0
 40 54  1  0  0  0  0
 41 76  1  0  0  0  0
 42 46  1  0  0  0  0
 43 45  1  0  0  0  0
 43 48  1  0  0  0  0
 44 47  1  0  0  0  0
 44 49  1  0  0  0  0
 45 52  1  0  0  0  0
 46 53  1  0  0  0  0
 47 55  1  0  0  0  0
 48 77  1  0  0  0  0
 49 78  1  0  0  0  0
 50 52  1  0  0  0  0
 50 77  1  0  0  0  0
 51 55  1  0  0  0  0
 51 78  1  0  0  0  0
 53 81  1  0  0  0  0
 54 76  1  0  0  0  0
 55 75  1  0  0  0  0
 57 66  1  0  0  0  0
 58 69  1  0  0  0  0
 59 70  1  0  0  0  0
 60 72  1  0  0  0  0
 61 73  1  0  0  0  0
 62 73  1  0  0  0  0
 63 73  1  0  0  0  0
 64 83  1  0  0  0  0
 65 84  1  0  0  0  0
 66 70  1  0  0  0  0
 67 71  1  0  0  0  0
 67 72  1  0  0  0  0
 68 73  1  0  0  0  0
 68 82  1  0  0  0  0
 69 83  1  0  0  0  0
 70 71  1  0  0  0  0
 71 84  1  0  0  0  0
 72 91  1  0  0  0  0
 74 75  1  0  0  0  0
M  CHG  2  83   1  84   1
M  ISO  4  38 100  72 101  77 100  91 101
M  END
> <Batch ID>
0117

> <Smiles>
CCC(C)C(C[101CH:1](C)[101O:1]c1ccc2c(c1)CN(C(=O)C(NC(=O)C(C)NC)C(C)(C)C)C(C(=O)NC1CCCc3ccccc31)C2)NCc1c(C)cccc1C1CCC[100N:0]([100C:0](=O)N2CCCC(n3nc(-c4ccc(Oc5ccc(F)cc5F)cc4)c(C(N)=O)c3N)C2)C1

> <Shape>
0.137

> <Color>
0.174

> <Negative vol penalty>
0.000

$$$$

  -OEChem-04052320153D

 84 93  0     1  0  0  0  0  0999 V2000
  -24.2583  -28.2556   23.1095 C   0  0  0  0  0  0  0  0  0  0  0  0
  -24.3242  -26.9275   23.5182 C   0  0  0  0  0  0  0  0  0  0  0  0
  -20.9707  -22.6452   21.3213 C   0  0  0  0  0  0  0  0  0  0  0  0
  -19.2778  -21.5385   22.6427 C   0  0  0  0  0  0  0  0  0  0  0  0
  -24.5902  -28.5979   21.7994 C   0  0  0  0  0  0  0  0  0  0  0  0
  -24.7209  -25.9406   22.6165 C   0  0  0  0  0  0  0  0  0  0  0  0
  -28.2245  -19.6977   22.3573 C   0  0  0  0  0  0  0  0  0  0  0  0
  -20.2270  -23.8247   21.3563 C   0  0  0  0  0  0  0  0  0  0  0  0
  -18.5340  -22.7180   22.6777 C   0  0  0  0  0  0  0  0  0  0  0  0
  -28.0668  -18.3925   21.8930 C   0  0  0  0  0  0  0  0  0  0  0  0
  -19.6477  -26.3403   23.5402 C   0  0  0  0  0  0  0  0  0  0  0  0
  -20.3276  -27.5275   23.8117 C   0  0  0  0  0  0  0  0  0  0  0  0
  -28.6929  -19.1116   19.6771 C   0  0  0  0  0  0  0  0  0  0  0  0
  -26.4127  -12.4181   20.3611 C   0  0  0  0  0  0  0  0  0  0  0  0
  -19.6282  -28.4163   21.6768 C   0  0  0  0  0  0  0  0  0  0  0  0
  -24.9720  -13.8184   21.3777 C   0  0  0  0  0  0  0  0  0  0  0  0
  -20.4961  -21.5021   21.9644 C   0  0  0  0  0  0  0  0  0  0  0  0
  -22.2487  -19.8712   22.8456 C   0  0  0  0  0  0  0  0  0  0  0  0
  -25.0005  -27.6160   20.8838 C   0  0  0  0  0  0  0  0  0  0  0  0
  -28.6077  -20.7234   21.4811 C   0  0  0  0  0  0  0  0  0  0  0  0
  -25.0573  -26.2699   21.2924 C   0  0  0  0  0  0  0  0  0  0  0  0
  -28.8572  -20.4284   20.1333 C   0  0  0  0  0  0  0  0  0  0  0  0
  -26.0245  -13.7744   20.4903 C   0  0  0  0  0  0  0  0  0  0  0  0
  -19.0087  -23.8611   22.0345 C   0  0  0  0  0  0  0  0  0  0  0  0
  -28.2982  -18.0999   20.5521 C   0  0  0  0  0  0  0  0  0  0  0  0
  -18.9580  -26.1910   22.3369 C   0  0  0  0  0  0  0  0  0  0  0  0
  -20.3178  -28.5656   22.8800 C   0  0  0  0  0  0  0  0  0  0  0  0
  -18.9483  -27.2291   21.4052 C   0  0  0  0  0  0  0  0  0  0  0  0
  -21.2636  -20.2832   21.9282 C   0  0  0  0  0  0  0  0  0  0  0  0
  -25.5854  -11.6744   21.1735 C   0  0  0  0  0  0  0  0  0  0  0  0
  -22.6726  -18.6541   22.3708 C   0  0  0  0  0  0  0  0  0  0  0  0
  -22.7368  -20.5299   24.0219 C   0  0  0  0  0  0  0  0  0  0  0  0
  -27.2775  -23.4306   20.4786 C   0  0  0  0  0  0  0  0  0  0  0  0
  -30.1550  -23.8571   19.0433 C   0  0  0  0  0  0  0  0  0  0  0  0
  -32.9983  -22.4553   17.7794 C   0  0  0  0  0  0  0  0  0  0  0  0
  -21.5809  -13.6143   20.2368 C   0  0  0  0  0  0  0  0  0  0  0  0
  -25.3038  -28.0279   19.4650 C   0  0  0  0  0  0  0  0  0  0  0  0
  -28.7994  -22.1209   22.0032 C   0  0  0  0  0  0  0  0  0  0  0  0
  -29.2901  -21.4897   19.1562 C   0  0  0  0  0  0  0  0  0  0  0  0
  -26.0749  -26.9727   18.6761 C   0  0  0  0  0  0  0  0  0  0  0  0
  -21.7726  -16.3457   17.9609 C   0  0  0  0  0  0  0  0  0  0  0  0
  -25.4519  -25.5949   18.8770 C   0  0  0  0  0  0  0  0  0  0  0  0
  -26.2120   -9.3077   20.2365 C   0  0  0  0  0  0  0  0  0  0  0  0
  -24.7389   -9.2859   20.5008 C   0  0  0  0  0  0  0  0  0  0  0  0
  -21.7322  -17.5788   18.8652 C   0  0  0  0  0  0  0  0  0  0  0  0
  -20.8793  -15.2268   18.4920 C   0  0  0  0  0  0  0  0  0  0  0  0
  -21.0963  -16.0737   20.7962 C   0  0  0  0  0  0  0  0  0  0  0  0
  -25.5070  -25.1741   20.3505 C   0  0  1  0  0  0  0  0  0  0  0  0
  -25.6394  -10.1571   21.3531 C   0  0  0  0  0  0  0  0  0  0  0  0
  -28.6941  -23.1849   20.9150 C   0  0  1  0  0  0  0  0  0  0  0  0
  -22.0250  -17.2086   20.3316 C   0  0  2  0  0  0  0  0  0  0  0  0
  -35.1512  -23.0553   16.6380 C   0  0  0  0  0  0  0  0  0  0  0  0
  -28.6458  -24.2826   16.4258 C   0  0  0  0  0  0  0  0  0  0  0  0
  -30.8028  -23.9274   15.2053 C   0  0  0  0  0  0  0  0  0  0  0  0
  -30.5675  -25.8417   16.7873 C   0  0  0  0  0  0  0  0  0  0  0  0
  -34.6169  -21.3505   19.9972 C   0  0  0  0  0  0  0  0  0  0  0  0
  -23.6777  -12.1594   22.7216 C   0  0  0  0  0  0  0  0  0  0  0  0
  -22.2883  -12.1235   22.0904 C   0  0  0  0  0  0  0  0  0  0  0  0
  -27.1780  -16.0122   20.7585 C   0  0  0  0  0  0  0  0  0  1  0  0
  -26.6492  -14.9561   19.7854 C   0  0  2  0  0  0  0  0  0  0  0  0
  -30.7457  -23.4918   17.7029 C   0  0  1  0  0  0  0  0  0  0  0  0
  -34.4637  -22.8027   17.9708 C   0  0  2  0  0  0  0  0  0  0  0  0
  -30.1805  -24.3660   16.5481 C   0  0  0  0  0  0  0  0  0  0  0  0
  -21.0730  -19.3995   20.9448 N   0  0  0  0  0  0  0  0  0  0  0  0
  -24.7135  -12.5360   21.7863 N   0  0  0  0  0  0  0  0  0  0  0  0
  -21.9443  -18.4203   21.2417 N   0  0  0  0  0  0  0  0  0  0  0  0
  -29.4577  -22.8420   19.7135 N   0  0  0  0  0  0  0  0  0  0  0  0
  -21.2091  -14.9229   19.8866 N   0  0  0  0  0  0  0  0  0  0  0  0
  -23.5936  -17.7718   22.8132 N   0  0  0  0  0  0  0  0  0  0  0  0
  -22.1921  -21.7747   24.3653 N   0  0  0  0  0  0  0  0  0  0  0  0
  -26.8372  -24.7220   20.6977 N   0  0  0  0  0  0  0  0  0  0  0  0
  -32.1940  -23.5724   17.8595 N   0  0  0  0  0  0  0  0  0  0  0  0
  -21.8834  -13.4135   21.5780 N   0  0  0  0  0  0  0  0  0  0  0  0
  -25.6945  -15.6247   18.8439 N   0  3  0  0  0  0  0  0  0  0  0  0
  -35.1738  -21.6899   18.6624 N   0  3  0  0  0  0  0  0  0  0  0  0
  -23.6412  -20.0369   24.7378 O   0  0  0  0  0  0  0  0  0  0  0  0
  -26.6321  -22.5166   19.9787 O   0  0  0  0  0  0  0  0  0  0  0  0
  -30.3128  -24.9988   19.4828 O   0  0  0  0  0  0  0  0  0  0  0  0
  -32.6068  -21.3083   17.5753 O   0  0  0  0  0  0  0  0  0  0  0  0
  -21.6440  -12.6945   19.4141 O   0  0  0  0  0  0  0  0  0  0  0  0
  -18.2828  -25.0120   22.0691 O   0  0  0  0  0  0  0  0  0  0  0  0
  -28.1444  -16.8269   20.0962 O   0  0  0  0  0  0  0  0  0  1  0  0
  -20.9695  -29.7062   23.1416 F   0  0  0  0  0  0  0  0  0  0  0  0
  -18.2865  -27.0920   20.2480 F   0  0  0  0  0  0  0  0  0  0  0  0
  1  2  1  0  0  0  0
  1  5  2  0  0  0  0
  2  6  2  0  0  0  0
  3  8  2  0  0  0  0
  3 17  1  0  0  0  0
  4  9  1  0  0  0  0
  4 17  2  0  0  0  0
  5 19  1  0  0  0  0
  6 21  1  0  0  0  0
  7 10  2  0  0  0  0
  7 20  1  0  0  0  0
  8 24  1  0  0  0  0
  9 24  2  0  0  0  0
 10 25  1  0  0  0  0
 11 12  2  0  0  0  0
 11 26  1  0  0  0  0
 12 27  1  0  0  0  0
 13 22  1  0  0  0  0
 13 25  2  0  0  0  0
 14 23  1  0  0  0  0
 14 30  2  0  0  0  0
 15 27  2  0  0  0  0
 15 28  1  0  0  0  0
 16 23  2  0  0  0  0
 16 65  1  0  0  0  0
 17 29  1  0  0  0  0
 18 29  1  0  0  0  0
 18 31  2  0  0  0  0
 18 32  1  0  0  0  0
 19 21  2  0  0  0  0
 19 37  1  0  0  0  0
 20 22  2  0  0  0  0
 20 38  1  0  0  0  0
 21 48  1  0  0  0  0
 22 39  1  0  0  0  0
 23 60  1  0  0  0  0
 24 81  1  0  0  0  0
 25 82  1  0  0  0  0
 26 28  2  0  0  0  0
 26 81  1  0  0  0  0
 27 83  1  0  0  0  0
 28 84  1  0  0  0  0
 29 64  2  0  0  0  0
 30 49  1  0  0  0  0
 30 65  1  0  0  0  0
 31 66  1  0  0  0  0
 31 69  1  0  0  0  0
 32 70  1  0  0  0  0
 32 76  2  0  0  0  0
 33 50  1  0  0  0  0
 33 71  1  0  0  0  0
 33 77  2  0  0  0  0
 34 61  1  0  0  0  0
 34 67  1  0  0  0  0
 34 78  2  0  0  0  0
 35 62  1  0  0  0  0
 35 72  1  0  0  0  0
 35 79  2  0  0  0  0
 36 68  1  0  0  0  0
 36 73  1  0  0  0  0
 36 80  2  0  0  0  0
 37 40  1  0  0  0  0
 38 50  1  0  0  0  0
 39 67  1  0  0  0  0
 40 42  1  0  0  0  0
 41 45  1  0  0  0  0
 41 46  1  0  0  0  0
 42 48  1  0  0  0  0
 43 44  1  0  0  0  0
 43 49  1  0  0  0  0
 44 49  1  0  0  0  0
 45 51  1  0  0  0  0
 46 68  1  0  0  0  0
 47 51  1  0  0  0  0
 47 68  1  0  0  0  0
 48 71  1  0  0  0  0
 50 67  1  0  0  0  0
 51 66  1  0  0  0  0
 52 62  1  0  0  0  0
 53 63  1  0  0  0  0
 54 63  1  0  0  0  0
 55 63  1  0  0  0  0
 56 75  1  0  0  0  0
 57 58  1  0  0  0  0
 57 65  1  0  0  0  0
 58 73  1  0  0  0  0
 59 60  1  0  0  0  0
 59 82  1  0  0  0  0
 60 74  1  0  0  0  0
 61 63  1  0  0  0  0
 61 72  1  0  0  0  0
 62 75  1  0  0  0  0
 64 66  1  0  0  0  0
M  CHG  2  74   1  75   1
M  ISO  4  36 100  59 101  73 100  82 101
M  END
> <Batch ID>
0117

> <Smiles>
CNC(C)C(=O)NC(C(=O)N1Cc2cc([101O:1][101CH2:1]C(N)c3cc(C4CC4)n(CC[100NH:0][100C:0](=O)N4CCCC(n5nc(-c6ccc(Oc7ccc(F)cc7F)cc6)c(C(N)=O)c5N)C4)c3)ccc2CC1C(=O)NC1CCCc2ccccc21)C(C)(C)C

> <Shape>
0.206

> <Color>
0.057

> <Negative vol penalty>
0.000

$$$$

  -OEChem-04052320153D

 87 95  0     1  0  0  0  0  0999 V2000
  -28.9975  -26.5224   15.7326 C   0  0  0  0  0  0  0  0  0  0  0  0
  -27.8922  -26.3488   16.5594 C   0  0  0  0  0  0  0  0  0  0  0  0
  -24.6936  -13.6123   20.7968 C   0  0  0  0  0  0  0  0  0  0  0  0
  -27.0018  -12.9701   20.4857 C   0  0  0  0  0  0  0  0  0  0  0  0
  -30.0907  -27.2638   16.1787 C   0  0  0  0  0  0  0  0  0  0  0  0
  -27.8800  -26.9157   17.8333 C   0  0  0  0  0  0  0  0  0  0  0  0
  -23.4821  -29.1849   18.9079 C   0  0  0  0  0  0  0  0  0  0  0  0
  -24.2868  -12.3315   20.4235 C   0  0  0  0  0  0  0  0  0  0  0  0
  -26.5950  -11.6891   20.1124 C   0  0  0  0  0  0  0  0  0  0  0  0
  -22.4144  -28.3649   19.2704 C   0  0  0  0  0  0  0  0  0  0  0  0
  -24.0940   -9.2672   21.8399 C   0  0  0  0  0  0  0  0  0  0  0  0
  -23.1133   -8.6472   22.6140 C   0  0  0  0  0  0  0  0  0  0  0  0
  -22.8202  -28.8737   21.5933 C   0  0  0  0  0  0  0  0  0  0  0  0
  -21.6765   -8.5018   20.6771 C   0  0  0  0  0  0  0  0  0  0  0  0
  -26.0511  -13.9317   20.8279 C   0  0  0  0  0  0  0  0  0  0  0  0
  -26.2299  -15.9003   22.4404 C   0  0  0  0  0  0  0  0  0  0  0  0
  -30.0879  -27.8481   17.4551 C   0  0  0  0  0  0  0  0  0  0  0  0
  -24.2350  -29.8479   19.8877 C   0  0  0  0  0  0  0  0  0  0  0  0
  -28.9748  -27.6645   18.2975 C   0  0  0  0  0  0  0  0  0  0  0  0
  -23.8954  -29.7035   21.2404 C   0  0  0  0  0  0  0  0  0  0  0  0
  -25.2375  -11.3698   20.0813 C   0  0  0  0  0  0  0  0  0  0  0  0
  -22.0851  -28.2069   20.6134 C   0  0  0  0  0  0  0  0  0  0  0  0
  -23.8660   -9.5047   20.4845 C   0  0  0  0  0  0  0  0  0  0  0  0
  -21.9045   -8.2644   22.0326 C   0  0  0  0  0  0  0  0  0  0  0  0
  -22.6572   -9.1220   19.9031 C   0  0  0  0  0  0  0  0  0  0  0  0
  -26.4719  -15.2548   21.2130 C   0  0  0  0  0  0  0  0  0  0  0  0
  -26.8315  -17.1279   22.3073 C   0  0  0  0  0  0  0  0  0  0  0  0
  -25.5245  -15.4321   23.5975 C   0  0  0  0  0  0  0  0  0  0  0  0
  -27.2769  -29.7791   20.8072 C   0  0  0  0  0  0  0  0  0  0  0  0
  -26.3530  -32.2413   22.7061 C   0  0  0  0  0  0  0  0  0  0  0  0
  -19.7676  -24.9899   22.0351 C   0  0  0  0  0  0  0  0  0  0  0  0
  -23.8234  -33.8544   24.3328 C   0  0  0  0  0  0  0  0  0  0  0  0
  -27.9725  -21.6862   19.3864 C   0  0  0  0  0  0  0  0  0  0  0  0
  -31.3124  -28.6012   17.9114 C   0  0  0  0  0  0  0  0  0  0  0  0
  -25.3670  -30.7500   19.4786 C   0  0  0  0  0  0  0  0  0  0  0  0
  -24.6594  -30.4095   22.3296 C   0  0  0  0  0  0  0  0  0  0  0  0
  -31.0650  -29.4834   19.1324 C   0  0  0  0  0  0  0  0  0  0  0  0
  -29.9933  -18.8953   18.7946 C   0  0  0  0  0  0  0  0  0  0  0  0
  -30.2900  -28.7150   20.1981 C   0  0  0  0  0  0  0  0  0  0  0  0
  -23.6981  -20.9545   21.8665 C   0  0  0  0  0  0  0  0  0  0  0  0
  -23.2880  -21.4904   19.4309 C   0  0  0  0  0  0  0  0  0  0  0  0
  -29.2398  -17.7424   19.4546 C   0  0  0  0  0  0  0  0  0  0  0  0
  -25.0961  -21.5660   21.7679 C   0  0  0  0  0  0  0  0  0  0  0  0
  -24.6855  -22.1021   19.3278 C   0  0  0  0  0  0  0  0  0  0  0  0
  -29.0275  -19.8511   18.1056 C   0  0  0  0  0  0  0  0  0  0  0  0
  -27.2228  -19.2773   19.7015 C   0  0  0  0  0  0  0  0  0  0  0  0
  -28.9137  -28.2846   19.6765 C   0  0  1  0  0  0  0  0  0  0  0  0
  -26.3873  -30.9705   20.5911 C   0  0  1  0  0  0  0  0  0  0  0  0
  -22.7089  -21.5455   20.8518 C   0  0  0  0  0  0  0  0  0  0  0  0
  -28.1554  -18.2718   20.4079 C   0  0  1  0  0  0  0  0  0  0  0  0
  -25.6457  -21.4788   20.3425 C   0  0  0  0  0  0  0  0  0  0  0  0
  -27.7830  -23.3624   22.2039 C   0  0  0  0  0  0  0  0  0  0  0  0
  -23.3824  -35.8155   25.8351 C   0  0  0  0  0  0  0  0  0  0  0  0
  -27.5056  -30.6892   25.0667 C   0  0  0  0  0  0  0  0  0  0  0  0
  -26.2202  -32.1976   26.5965 C   0  0  0  0  0  0  0  0  0  0  0  0
  -27.9786  -33.1447   25.1019 C   0  0  0  0  0  0  0  0  0  0  0  0
  -22.0302  -35.1200   22.3474 C   0  0  0  0  0  0  0  0  0  0  0  0
  -22.2860  -22.9662   21.2355 C   0  0  0  0  0  0  0  0  0  0  0  0
  -27.0506  -23.4220   20.8787 C   0  0  0  0  0  0  0  0  0  0  0  0
  -21.2212  -22.9897   22.3256 C   0  0  0  0  0  0  0  0  0  0  0  0
  -20.7620  -27.2902   22.3641 C   0  0  0  0  0  0  0  0  0  1  0  0
  -25.7920  -32.3624   24.1024 C   0  0  1  0  0  0  0  0  0  0  0  0
  -19.5514  -26.3899   22.5870 C   0  0  1  0  0  0  0  0  0  0  0  0
  -23.4423  -35.3224   24.3978 C   0  0  2  0  0  0  0  0  0  0  0  0
  -26.8607  -32.0835   25.1967 C   0  0  0  0  0  0  0  0  0  0  0  0
  -27.1724  -16.0100   20.3626 N   0  0  0  0  0  0  0  0  0  0  0  0
  -27.3757  -17.1426   21.0568 N   0  0  0  0  0  0  0  0  0  0  0  0
  -25.7617  -31.2755   21.8795 N   0  0  0  0  0  0  0  0  0  0  0  0
  -27.9987  -20.3302   19.0297 N   0  0  0  0  0  0  0  0  0  0  0  0
  -26.9426  -18.1854   23.1390 N   0  0  0  0  0  0  0  0  0  0  0  0
  -26.2440  -14.7493   24.5877 N   0  0  0  0  0  0  0  0  0  0  0  0
  -27.9961  -29.4037   19.6886 N   0  0  0  0  0  0  0  0  0  0  0  0
  -20.8127  -24.3328   22.6671 N   0  0  0  0  0  0  0  0  0  0  0  0
  -25.1839  -33.6860   24.1847 N   0  0  0  0  0  0  0  0  0  0  0  0
  -26.9521  -22.1061   20.2571 N   0  0  0  0  0  0  0  0  0  0  0  0
  -18.3581  -27.0197   21.9527 N   0  3  0  0  0  0  0  0  0  0  0  0
  -22.1080  -35.5394   23.7705 N   0  3  0  0  0  0  0  0  0  0  0  0
  -24.2897  -15.5995   23.7412 O   0  0  0  0  0  0  0  0  0  0  0  0
  -27.3097  -29.2412   21.9078 O   0  0  0  0  0  0  0  0  0  0  0  0
  -27.2768  -32.9815   22.3593 O   0  0  0  0  0  0  0  0  0  0  0  0
  -19.0808  -24.5196   21.1310 O   0  0  0  0  0  0  0  0  0  0  0  0
  -22.9973  -32.9477   24.4099 O   0  0  0  0  0  0  0  0  0  0  0  0
  -28.8015  -22.4878   18.9362 O   0  0  0  0  0  0  0  0  0  0  0  0
  -24.8410  -10.1197   19.7171 O   0  0  0  0  0  0  0  0  0  0  0  0
  -21.0439  -27.4066   20.9701 O   0  0  0  0  0  0  0  0  0  1  0  0
  -20.9634   -7.6676   22.7758 F   0  0  0  0  0  0  0  0  0  0  0  0
  -22.4328   -9.3464   18.6011 F   0  0  0  0  0  0  0  0  0  0  0  0
  1  2  1  0  0  0  0
  1  5  2  0  0  0  0
  2  6  2  0  0  0  0
  3  8  2  0  0  0  0
  3 15  1  0  0  0  0
  4  9  1  0  0  0  0
  4 15  2  0  0  0  0
  5 17  1  0  0  0  0
  6 19  1  0  0  0  0
  7 10  2  0  0  0  0
  7 18  1  0  0  0  0
  8 21  1  0  0  0  0
  9 21  2  0  0  0  0
 10 22  1  0  0  0  0
 11 12  2  0  0  0  0
 11 23  1  0  0  0  0
 12 24  1  0  0  0  0
 13 20  1  0  0  0  0
 13 22  2  0  0  0  0
 14 24  2  0  0  0  0
 14 25  1  0  0  0  0
 15 26  1  0  0  0  0
 16 26  1  0  0  0  0
 16 27  2  0  0  0  0
 16 28  1  0  0  0  0
 17 19  2  0  0  0  0
 17 34  1  0  0  0  0
 18 20  2  0  0  0  0
 18 35  1  0  0  0  0
 19 47  1  0  0  0  0
 20 36  1  0  0  0  0
 21 84  1  0  0  0  0
 22 85  1  0  0  0  0
 23 25  2  0  0  0  0
 23 84  1  0  0  0  0
 24 86  1  0  0  0  0
 25 87  1  0  0  0  0
 26 66  2  0  0  0  0
 27 67  1  0  0  0  0
 27 70  1  0  0  0  0
 28 71  1  0  0  0  0
 28 78  2  0  0  0  0
 29 48  1  0  0  0  0
 29 72  1  0  0  0  0
 29 79  2  0  0  0  0
 30 62  1  0  0  0  0
 30 68  1  0  0  0  0
 30 80  2  0  0  0  0
 31 63  1  0  0  0  0
 31 73  1  0  0  0  0
 31 81  2  0  0  0  0
 32 64  1  0  0  0  0
 32 74  1  0  0  0  0
 32 82  2  0  0  0  0
 33 69  1  0  0  0  0
 33 75  1  0  0  0  0
 33 83  2  0  0  0  0
 34 37  1  0  0  0  0
 35 48  1  0  0  0  0
 36 68  1  0  0  0  0
 37 39  1  0  0  0  0
 38 42  1  0  0  0  0
 38 45  1  0  0  0  0
 39 47  1  0  0  0  0
 40 43  1  0  0  0  0
 40 49  1  0  0  0  0
 41 44  1  0  0  0  0
 41 49  1  0  0  0  0
 42 50  1  0  0  0  0
 43 51  1  0  0  0  0
 44 51  1  0  0  0  0
 45 69  1  0  0  0  0
 46 50  1  0  0  0  0
 46 69  1  0  0  0  0
 47 72  1  0  0  0  0
 48 68  1  0  0  0  0
 49 58  1  0  0  0  0
 50 67  1  0  0  0  0
 51 75  1  0  0  0  0
 52 59  1  0  0  0  0
 53 64  1  0  0  0  0
 54 65  1  0  0  0  0
 55 65  1  0  0  0  0
 56 65  1  0  0  0  0
 57 77  1  0  0  0  0
 58 60  1  0  0  0  0
 59 75  1  0  0  0  0
 60 73  1  0  0  0  0
 61 63  1  0  0  0  0
 61 85  1  0  0  0  0
 62 65  1  0  0  0  0
 62 74  1  0  0  0  0
 63 76  1  0  0  0  0
 64 77  1  0  0  0  0
 66 67  1  0  0  0  0
M  CHG  2  76   1  77   1
M  ISO  4  33 100  61 101  75 100  85 101
M  END
> <Batch ID>
0117

> <Smiles>
CC[100N:0](C1CCC(CCNC(=O)C(N)[101CH2:1][101O:1]c2ccc3c(c2)CN(C(=O)C(NC(=O)C(C)NC)C(C)(C)C)C(C(=O)NC2CCCc4ccccc42)C3)CC1)[100C:0](=O)N1CCCC(n2nc(-c3ccc(Oc4ccc(F)cc4F)cc3)c(C(N)=O)c2N)C1

> <Shape>
0.290

> <Color>
0.093

> <Negative vol penalty>
0.000

$$$$

  -OEChem-04052320153D

 86 94  0     1  0  0  0  0  0999 V2000
  -27.2467  -28.9907   19.1435 C   0  0  0  0  0  0  0  0  0  0  0  0
  -26.8811  -27.6733   18.8862 C   0  0  0  0  0  0  0  0  0  0  0  0
  -29.2459  -22.9609   21.5806 C   0  0  0  0  0  0  0  0  0  0  0  0
  -28.6892  -22.3694   19.3052 C   0  0  0  0  0  0  0  0  0  0  0  0
  -26.8511  -29.6033   20.3318 C   0  0  0  0  0  0  0  0  0  0  0  0
  -26.1206  -26.9673   19.8177 C   0  0  0  0  0  0  0  0  0  0  0  0
  -21.8334  -22.7564   18.6372 C   0  0  0  0  0  0  0  0  0  0  0  0
  -29.7933  -24.1636   21.1340 C   0  0  0  0  0  0  0  0  0  0  0  0
  -29.2366  -23.5721   18.8586 C   0  0  0  0  0  0  0  0  0  0  0  0
  -21.8635  -21.3625   18.6339 C   0  0  0  0  0  0  0  0  0  0  0  0
  -32.6635  -25.2078   19.6861 C   0  0  0  0  0  0  0  0  0  0  0  0
  -33.8972  -25.5920   20.2113 C   0  0  0  0  0  0  0  0  0  0  0  0
  -21.0021  -21.3445   20.8871 C   0  0  0  0  0  0  0  0  0  0  0  0
  -23.5262  -12.5007   20.0445 C   0  0  0  0  0  0  0  0  0  0  0  0
  -32.8979  -27.6125   21.0808 C   0  0  0  0  0  0  0  0  0  0  0  0
  -25.1850  -10.8971   20.6219 C   0  0  0  0  0  0  0  0  0  0  0  0
  -28.6939  -22.0637   20.6662 C   0  0  0  0  0  0  0  0  0  0  0  0
  -26.7960  -20.5849   21.5140 C   0  0  0  0  0  0  0  0  0  0  0  0
  -26.0772  -28.9076   21.2740 C   0  0  0  0  0  0  0  0  0  0  0  0
  -21.3970  -23.4562   19.7714 C   0  0  0  0  0  0  0  0  0  0  0  0
  -25.7155  -27.5708   21.0204 C   0  0  0  0  0  0  0  0  0  0  0  0
  -20.9650  -22.7472   20.9014 C   0  0  0  0  0  0  0  0  0  0  0  0
  -23.8695  -11.1754   20.2874 C   0  0  0  0  0  0  0  0  0  0  0  0
  -24.4951  -13.4932   20.1421 C   0  0  0  0  0  0  0  0  0  0  0  0
  -29.7887  -24.4692   19.7730 C   0  0  0  0  0  0  0  0  0  0  0  0
  -21.4505  -20.6564   19.7599 C   0  0  0  0  0  0  0  0  0  0  0  0
  -31.5469  -26.0260   19.8582 C   0  0  0  0  0  0  0  0  0  0  0  0
  -34.0145  -26.7943   20.9086 C   0  0  0  0  0  0  0  0  0  0  0  0
  -31.6642  -27.2283   20.5556 C   0  0  0  0  0  0  0  0  0  0  0  0
  -28.1287  -20.8210   21.1268 C   0  0  0  0  0  0  0  0  0  0  0  0
  -25.7825  -13.1111   20.4833 C   0  0  0  0  0  0  0  0  0  0  0  0
  -26.7703  -19.2572   21.8646 C   0  0  0  0  0  0  0  0  0  0  0  0
  -25.6809  -21.4854   21.5532 C   0  0  0  0  0  0  0  0  0  0  0  0
  -22.7294  -25.5305   21.7777 C   0  0  0  0  0  0  0  0  0  0  0  0
  -19.7203  -25.7095   22.9760 C   0  0  0  0  0  0  0  0  0  0  0  0
  -16.6718  -24.2309   23.3843 C   0  0  0  0  0  0  0  0  0  0  0  0
  -28.1224  -13.9406   20.9112 C   0  0  0  0  0  0  0  0  0  0  0  0
  -25.7135  -29.5965   22.5654 C   0  0  0  0  0  0  0  0  0  0  0  0
  -21.3452  -24.9592   19.7495 C   0  0  0  0  0  0  0  0  0  0  0  0
  -20.4685  -23.4507   22.1371 C   0  0  0  0  0  0  0  0  0  0  0  0
  -24.5920  -28.9004   23.3322 C   0  0  0  0  0  0  0  0  0  0  0  0
  -30.5477  -15.9602   22.5594 C   0  0  0  0  0  0  0  0  0  0  0  0
  -24.8436  -27.3974   23.3985 C   0  0  0  0  0  0  0  0  0  0  0  0
  -30.0250  -17.3854   22.3655 C   0  0  0  0  0  0  0  0  0  0  0  0
  -30.2859  -15.0882   21.3327 C   0  0  0  0  0  0  0  0  0  0  0  0
  -28.3684  -16.4904   20.6797 C   0  0  0  0  0  0  0  0  0  0  0  0
  -24.8701  -26.7800   21.9951 C   0  0  1  0  0  0  0  0  0  0  0  0
  -21.3680  -25.5783   21.1437 C   0  0  1  0  0  0  0  0  0  0  0  0
  -28.5513  -17.3885   21.9140 C   0  0  2  0  0  0  0  0  0  0  0  0
  -22.2699   -9.9526   18.7710 C   0  0  0  0  0  0  0  0  0  0  0  0
  -21.7122  -10.2549   21.2108 C   0  0  0  0  0  0  0  0  0  0  0  0
  -24.3746  -15.3165   18.4116 C   0  0  0  0  0  0  0  0  0  0  0  0
  -14.4266  -24.6050   24.4411 C   0  0  0  0  0  0  0  0  0  0  0  0
  -20.9086  -25.0844   25.7159 C   0  0  0  0  0  0  0  0  0  0  0  0
  -18.5998  -24.5375   26.5151 C   0  0  0  0  0  0  0  0  0  0  0  0
  -19.1312  -26.8436   25.7264 C   0  0  0  0  0  0  0  0  0  0  0  0
  -15.2897  -24.0947   20.7708 C   0  0  0  0  0  0  0  0  0  0  0  0
  -21.0869  -17.1355   20.7399 C   0  0  0  0  0  0  0  0  0  0  0  0
  -22.6610  -15.2581   20.2537 C   0  0  0  0  0  0  0  0  0  0  0  0
  -21.0422  -18.6366   20.9471 C   0  0  0  0  0  0  0  0  0  1  0  0
  -22.8566  -10.0907   20.1904 C   0  0  0  0  0  0  0  0  0  0  0  0
  -24.1147  -14.9448   19.8762 C   0  0  1  0  0  0  0  0  0  0  0  0
  -18.9476  -24.9686   24.0404 C   0  0  1  0  0  0  0  0  0  0  0  0
  -15.2621  -24.7557   23.1794 C   0  0  2  0  0  0  0  0  0  0  0  0
  -19.4079  -25.3450   25.4770 C   0  0  0  0  0  0  0  0  0  0  0  0
  -26.1538  -11.8341   20.7264 N   0  0  0  0  0  0  0  0  0  0  0  0
  -28.8943  -19.7306   21.2225 N   0  0  0  0  0  0  0  0  0  0  0  0
  -28.0399  -18.7967   21.6739 N   0  0  0  0  0  0  0  0  0  0  0  0
  -20.4427  -24.9212   22.0690 N   0  0  0  0  0  0  0  0  0  0  0  0
  -28.8688  -15.1367   20.9660 N   0  0  0  0  0  0  0  0  0  0  0  0
  -25.7859  -18.4504   22.3145 N   0  0  0  0  0  0  0  0  0  0  0  0
  -25.8819  -22.8152   21.1591 N   0  0  0  0  0  0  0  0  0  0  0  0
  -26.7782  -14.1143   20.5834 N   0  0  0  0  0  0  0  0  0  0  0  0
  -23.5242  -26.6228   21.4867 N   0  0  0  0  0  0  0  0  0  0  0  0
  -17.5367  -25.2302   23.7772 N   0  0  0  0  0  0  0  0  0  0  0  0
  -14.5878  -24.0126   22.0776 N   0  3  0  0  0  0  0  0  0  0  0  0
  -22.4829  -16.7224   20.4485 N   0  3  0  0  0  0  0  0  0  0  0  0
  -24.5440  -21.1254   21.9423 O   0  0  0  0  0  0  0  0  0  0  0  0
  -23.0355  -24.5742   22.4803 O   0  0  0  0  0  0  0  0  0  0  0  0
  -19.6786  -26.9419   22.9458 O   0  0  0  0  0  0  0  0  0  0  0  0
  -16.9744  -23.0516   23.2164 O   0  0  0  0  0  0  0  0  0  0  0  0
  -28.6314  -12.8459   21.1651 O   0  0  0  0  0  0  0  0  0  0  0  0
  -30.3226  -25.6428   19.3369 O   0  0  0  0  0  0  0  0  0  0  0  0
  -21.4795  -19.2959   19.7595 O   0  0  0  0  0  0  0  0  0  1  0  0
  -35.1990  -27.1624   21.4142 F   0  0  0  0  0  0  0  0  0  0  0  0
  -30.5948  -28.0180   20.7252 F   0  0  0  0  0  0  0  0  0  0  0  0
  1  2  1  0  0  0  0
  1  5  2  0  0  0  0
  2  6  2  0  0  0  0
  3  8  2  0  0  0  0
  3 17  1  0  0  0  0
  4  9  1  0  0  0  0
  4 17  2  0  0  0  0
  5 19  1  0  0  0  0
  6 21  1  0  0  0  0
  7 10  2  0  0  0  0
  7 20  1  0  0  0  0
  8 25  1  0  0  0  0
  9 25  2  0  0  0  0
 10 26  1  0  0  0  0
 11 12  2  0  0  0  0
 11 27  1  0  0  0  0
 12 28  1  0  0  0  0
 13 22  1  0  0  0  0
 13 26  2  0  0  0  0
 14 23  2  0  0  0  0
 14 24  1  0  0  0  0
 15 28  2  0  0  0  0
 15 29  1  0  0  0  0
 16 23  1  0  0  0  0
 16 66  2  0  0  0  0
 17 30  1  0  0  0  0
 18 30  1  0  0  0  0
 18 32  2  0  0  0  0
 18 33  1  0  0  0  0
 19 21  2  0  0  0  0
 19 38  1  0  0  0  0
 20 22  2  0  0  0  0
 20 39  1  0  0  0  0
 21 47  1  0  0  0  0
 22 40  1  0  0  0  0
 23 61  1  0  0  0  0
 24 31  2  0  0  0  0
 24 62  1  0  0  0  0
 25 83  1  0  0  0  0
 26 84  1  0  0  0  0
 27 29  2  0  0  0  0
 27 83  1  0  0  0  0
 28 85  1  0  0  0  0
 29 86  1  0  0  0  0
 30 67  2  0  0  0  0
 31 66  1  0  0  0  0
 31 73  1  0  0  0  0
 32 68  1  0  0  0  0
 32 71  1  0  0  0  0
 33 72  1  0  0  0  0
 33 78  2  0  0  0  0
 34 48  1  0  0  0  0
 34 74  1  0  0  0  0
 34 79  2  0  0  0  0
 35 63  1  0  0  0  0
 35 69  1  0  0  0  0
 35 80  2  0  0  0  0
 36 64  1  0  0  0  0
 36 75  1  0  0  0  0
 36 81  2  0  0  0  0
 37 70  1  0  0  0  0
 37 73  1  0  0  0  0
 37 82  2  0  0  0  0
 38 41  1  0  0  0  0
 39 48  1  0  0  0  0
 40 69  1  0  0  0  0
 41 43  1  0  0  0  0
 42 44  1  0  0  0  0
 42 45  1  0  0  0  0
 43 47  1  0  0  0  0
 44 49  1  0  0  0  0
 45 70  1  0  0  0  0
 46 49  1  0  0  0  0
 46 70  1  0  0  0  0
 47 74  1  0  0  0  0
 48 69  1  0  0  0  0
 49 68  1  0  0  0  0
 50 61  1  0  0  0  0
 51 61  1  0  0  0  0
 52 62  1  0  0  0  0
 53 64  1  0  0  0  0
 54 65  1  0  0  0  0
 55 65  1  0  0  0  0
 56 65  1  0  0  0  0
 57 76  1  0  0  0  0
 58 60  1  0  0  0  0
 58 77  1  0  0  0  0
 59 62  1  0  0  0  0
 59 77  1  0  0  0  0
 60 84  1  0  0  0  0
 63 65  1  0  0  0  0
 63 75  1  0  0  0  0
 64 76  1  0  0  0  0
 67 68  1  0  0  0  0
M  CHG  2  76   1  77   1
M  ISO  4  37 100  60 101  73 100  84 101
M  END
> <Batch ID>
0117

> <Smiles>
CNC(C)C(=O)NC(C(=O)N1Cc2cc([101O:1][101CH2:1]CNCC(C)c3cc(C(C)C)cnc3[100NH:0][100C:0](=O)N3CCCC(n4nc(-c5ccc(Oc6ccc(F)cc6F)cc5)c(C(N)=O)c4N)C3)ccc2CC1C(=O)NC1CCCc2ccccc21)C(C)(C)C

> <Shape>
0.209

> <Color>
0.058

> <Negative vol penalty>
0.000

$$$$
