
  -OEChem-04052320183D

 82 90  0     1  0  0  0  0  0999 V2000
  -29.2838  -29.9525   17.0474 C   0  0  0  0  0  0  0  0  0  0  0  0
  -28.7588  -28.8618   17.7330 C   0  0  0  0  0  0  0  0  0  0  0  0
  -23.0749   -9.8664   19.9405 C   0  0  0  0  0  0  0  0  0  0  0  0
  -23.8356   -9.8731   22.2336 C   0  0  0  0  0  0  0  0  0  0  0  0
  -29.7407  -29.7980   15.7393 C   0  0  0  0  0  0  0  0  0  0  0  0
  -28.6894  -27.6160   17.1104 C   0  0  0  0  0  0  0  0  0  0  0  0
  -30.2416  -23.8507   20.1201 C   0  0  0  0  0  0  0  0  0  0  0  0
  -22.3317   -8.7128   20.1903 C   0  0  0  0  0  0  0  0  0  0  0  0
  -23.0923   -8.7194   22.4835 C   0  0  0  0  0  0  0  0  0  0  0  0
  -29.3494  -23.4054   21.0945 C   0  0  0  0  0  0  0  0  0  0  0  0
  -19.8648   -7.9198   23.0868 C   0  0  0  0  0  0  0  0  0  0  0  0
  -19.1083   -7.8791   24.2580 C   0  0  0  0  0  0  0  0  0  0  0  0
  -28.7533  -21.5391   19.6870 C   0  0  0  0  0  0  0  0  0  0  0  0
  -29.7628  -17.7203   22.7186 C   0  0  0  0  0  0  0  0  0  0  0  0
  -20.3509   -5.9420   24.9934 C   0  0  0  0  0  0  0  0  0  0  0  0
  -31.5079  -19.3212   22.7182 C   0  0  0  0  0  0  0  0  0  0  0  0
  -23.8269  -10.4465   20.9621 C   0  0  0  0  0  0  0  0  0  0  0  0
  -24.1674  -12.9719   20.8428 C   0  0  0  0  0  0  0  0  0  0  0  0
  -29.6857  -28.5476   15.1037 C   0  0  0  0  0  0  0  0  0  0  0  0
  -30.3886  -23.1484   18.9153 C   0  0  0  0  0  0  0  0  0  0  0  0
  -29.1447  -27.4449   15.7920 C   0  0  0  0  0  0  0  0  0  0  0  0
  -29.6499  -21.9762   18.7001 C   0  0  0  0  0  0  0  0  0  0  0  0
  -22.3404   -8.1393   21.4618 C   0  0  0  0  0  0  0  0  0  0  0  0
  -28.6029  -22.2511   20.8768 C   0  0  0  0  0  0  0  0  0  0  0  0
  -20.8644   -6.9716   22.8689 C   0  0  0  0  0  0  0  0  0  0  0  0
  -30.2480  -18.9461   23.1393 C   0  0  0  0  0  0  0  0  0  0  0  0
  -19.3513   -6.8902   25.2113 C   0  0  0  0  0  0  0  0  0  0  0  0
  -21.1074   -5.9827   23.8221 C   0  0  0  0  0  0  0  0  0  0  0  0
  -24.5953  -11.6379   20.7045 C   0  0  0  0  0  0  0  0  0  0  0  0
  -30.5695  -16.9510   21.9044 C   0  0  0  0  0  0  0  0  0  0  0  0
  -25.2590  -13.7221   20.4794 C   0  0  0  0  0  0  0  0  0  0  0  0
  -22.8968  -13.4869   21.2623 C   0  0  0  0  0  0  0  0  0  0  0  0
  -29.9031  -23.8291   15.8486 C   0  0  0  0  0  0  0  0  0  0  0  0
  -31.2453  -20.9116   15.3910 C   0  0  0  0  0  0  0  0  0  0  0  0
  -31.9573  -17.8205   16.6499 C   0  0  0  0  0  0  0  0  0  0  0  0
  -30.7247  -14.7704   20.6525 C   0  0  0  0  0  0  0  0  0  0  0  0
  -30.1481  -28.4400   13.6721 C   0  0  0  0  0  0  0  0  0  0  0  0
  -31.3749  -23.6271   17.8855 C   0  0  0  0  0  0  0  0  0  0  0  0
  -29.7858  -21.1748   17.4321 C   0  0  0  0  0  0  0  0  0  0  0  0
  -30.3846  -27.0029   13.2148 C   0  0  0  0  0  0  0  0  0  0  0  0
  -29.6107  -12.3568   18.2838 C   0  0  0  0  0  0  0  0  0  0  0  0
  -29.2200  -26.1110   13.6331 C   0  0  0  0  0  0  0  0  0  0  0  0
  -28.1714  -12.0643   18.7138 C   0  0  0  0  0  0  0  0  0  0  0  0
  -30.5262  -12.5856   19.4852 C   0  0  0  0  0  0  0  0  0  0  0  0
  -28.6193  -13.3087   20.8674 C   0  0  0  0  0  0  0  0  0  0  0  0
  -29.0755  -26.0720   15.1593 C   0  0  1  0  0  0  0  0  0  0  0  0
  -31.0663  -23.1184   16.4807 C   0  0  1  0  0  0  0  0  0  0  0  0
  -27.6462  -13.1353   19.6898 C   0  0  2  0  0  0  0  0  0  0  0  0
  -33.0301  -15.6390   16.0269 C   0  0  0  0  0  0  0  0  0  0  0  0
  -25.9271  -20.9790   23.9644 C   0  0  0  0  0  0  0  0  0  0  0  0
  -28.7912  -20.1814   13.7315 C   0  0  0  0  0  0  0  0  0  0  0  0
  -29.4501  -17.7753   13.9434 C   0  0  0  0  0  0  0  0  0  0  0  0
  -30.9648  -19.3842   12.7859 C   0  0  0  0  0  0  0  0  0  0  0  0
  -33.9883  -18.0758   18.7874 C   0  0  0  0  0  0  0  0  0  0  0  0
  -28.0499  -22.1083   23.1854 C   0  0  0  0  0  0  0  0  0  1  0  0
  -28.0885  -19.6767   23.8166 C   0  0  0  0  0  0  0  0  0  0  0  0
  -30.7245  -19.4976   15.3001 C   0  0  1  0  0  0  0  0  0  0  0  0
  -33.2389  -17.0069   16.6579 C   0  0  2  0  0  0  0  0  0  0  0  0
  -27.4529  -21.0397   24.1055 C   0  0  2  0  0  0  0  0  0  0  0  0
  -29.9784  -19.2256   13.9634 C   0  0  0  0  0  0  0  0  0  0  0  0
  -32.2756  -18.5481   21.9213 N   0  0  0  0  0  0  0  0  0  0  0  0
  -25.8600  -11.5428   20.2857 N   0  0  0  0  0  0  0  0  0  0  0  0
  -31.7985  -17.3435   21.5075 N   0  0  0  0  0  0  0  0  0  0  0  0
  -26.2362  -12.8266   20.1577 N   0  0  0  0  0  0  0  0  0  0  0  0
  -30.7585  -21.6871   16.4529 N   0  0  0  0  0  0  0  0  0  0  0  0
  -29.9670  -13.6159   20.3631 N   0  0  0  0  0  0  0  0  0  0  0  0
  -25.4687  -15.0537   20.4067 N   0  0  0  0  0  0  0  0  0  0  0  0
  -21.8855  -12.5771   21.5996 N   0  0  0  0  0  0  0  0  0  0  0  0
  -30.0772  -15.6948   21.4714 N   0  0  0  0  0  0  0  0  0  0  0  0
  -30.0712  -25.1962   15.7390 N   0  0  0  0  0  0  0  0  0  0  0  0
  -31.8701  -18.6248   15.5333 N   0  0  0  0  0  0  0  0  0  0  0  0
  -33.7197  -16.8115   18.0550 N   0  3  0  0  0  0  0  0  0  0  0  0
  -22.6599  -14.7174   21.3201 O   0  0  0  0  0  0  0  0  0  0  0  0
  -28.9261  -23.1845   15.4856 O   0  0  0  0  0  0  0  0  0  0  0  0
  -32.0596  -21.3110   14.5550 O   0  0  0  0  0  0  0  0  0  0  0  0
  -31.1160  -17.7468   17.5427 O   0  0  0  0  0  0  0  0  0  0  0  0
  -31.8536  -14.9398   20.1845 O   0  0  0  0  0  0  0  0  0  0  0  0
  -21.6151   -7.0138   21.7060 O   0  0  0  0  0  0  0  0  0  0  0  0
  -27.7308  -21.8145   21.8259 O   0  0  0  0  0  0  0  0  0  1  0  0
  -29.5013  -19.7616   23.9489 O   0  0  0  0  0  0  0  0  0  0  0  0
  -18.6258   -6.8522   26.3366 F   0  0  0  0  0  0  0  0  0  0  0  0
  -22.0671   -5.0698   23.6189 F   0  0  0  0  0  0  0  0  0  0  0  0
  1  2  1  0  0  0  0
  1  5  2  0  0  0  0
  2  6  2  0  0  0  0
  3  8  2  0  0  0  0
  3 17  1  0  0  0  0
  4  9  1  0  0  0  0
  4 17  2  0  0  0  0
  5 19  1  0  0  0  0
  6 21  1  0  0  0  0
  7 10  2  0  0  0  0
  7 20  1  0  0  0  0
  8 23  1  0  0  0  0
  9 23  2  0  0  0  0
 10 24  1  0  0  0  0
 11 12  2  0  0  0  0
 11 25  1  0  0  0  0
 12 27  1  0  0  0  0
 13 22  1  0  0  0  0
 13 24  2  0  0  0  0
 14 26  2  0  0  0  0
 14 30  1  0  0  0  0
 15 27  2  0  0  0  0
 15 28  1  0  0  0  0
 16 26  1  0  0  0  0
 16 61  2  0  0  0  0
 17 29  1  0  0  0  0
 18 29  1  0  0  0  0
 18 31  2  0  0  0  0
 18 32  1  0  0  0  0
 19 21  2  0  0  0  0
 19 37  1  0  0  0  0
 20 22  2  0  0  0  0
 20 38  1  0  0  0  0
 21 46  1  0  0  0  0
 22 39  1  0  0  0  0
 23 78  1  0  0  0  0
 24 79  1  0  0  0  0
 25 28  2  0  0  0  0
 25 78  1  0  0  0  0
 26 80  1  0  0  0  0
 27 81  1  0  0  0  0
 28 82  1  0  0  0  0
 29 62  2  0  0  0  0
 30 63  2  0  0  0  0
 30 69  1  0  0  0  0
 31 64  1  0  0  0  0
 31 67  1  0  0  0  0
 32 68  1  0  0  0  0
 32 73  2  0  0  0  0
 33 47  1  0  0  0  0
 33 70  1  0  0  0  0
 33 74  2  0  0  0  0
 34 57  1  0  0  0  0
 34 65  1  0  0  0  0
 34 75  2  0  0  0  0
 35 58  1  0  0  0  0
 35 71  1  0  0  0  0
 35 76  2  0  0  0  0
 36 66  1  0  0  0  0
 36 69  1  0  0  0  0
 36 77  2  0  0  0  0
 37 40  1  0  0  0  0
 38 47  1  0  0  0  0
 39 65  1  0  0  0  0
 40 42  1  0  0  0  0
 41 43  1  0  0  0  0
 41 44  1  0  0  0  0
 42 46  1  0  0  0  0
 43 48  1  0  0  0  0
 44 66  1  0  0  0  0
 45 48  1  0  0  0  0
 45 66  1  0  0  0  0
 46 70  1  0  0  0  0
 47 65  1  0  0  0  0
 48 64  1  0  0  0  0
 49 58  1  0  0  0  0
 50 59  1  0  0  0  0
 51 60  1  0  0  0  0
 52 60  1  0  0  0  0
 53 60  1  0  0  0  0
 54 72  1  0  0  0  0
 55 59  1  0  0  0  0
 55 79  1  0  0  0  0
 56 59  1  0  0  0  0
 56 80  1  0  0  0  0
 57 60  1  0  0  0  0
 57 71  1  0  0  0  0
 58 72  1  0  0  0  0
 61 63  1  0  0  0  0
 62 64  1  0  0  0  0
M  CHG  1  72   1
M  ISO  4  36 100  55 101  69 100  79 101
M  END
> <Batch ID>
0118

> <Smiles>
CNC(C)C(=O)NC(C(=O)N1Cc2cc([101O:1][101CH2:1]C(C)COc3cnnc([100NH:0][100C:0](=O)N4CCCC(n5nc(-c6ccc(Oc7ccc(F)cc7F)cc6)c(C(N)=O)c5N)C4)c3)ccc2CC1C(=O)NC1CCCc2ccccc21)C(C)(C)C

> <Shape>
0.229

> <Color>
0.183

> <Negative vol penalty>
0.000

$$$$

  -OEChem-04052320183D

 83 91  0     1  0  0  0  0  0999 V2000
  -29.1648  -31.3178   26.8888 C   0  0  0  0  0  0  0  0  0  0  0  0
  -29.5295  -31.4744   25.5555 C   0  0  0  0  0  0  0  0  0  0  0  0
  -26.8742  -12.3581   21.6946 C   0  0  0  0  0  0  0  0  0  0  0  0
  -25.7884  -14.2119   20.5894 C   0  0  0  0  0  0  0  0  0  0  0  0
  -28.6104  -30.1141   27.3219 C   0  0  0  0  0  0  0  0  0  0  0  0
  -29.3410  -30.4269   24.6546 C   0  0  0  0  0  0  0  0  0  0  0  0
  -27.7839  -29.1948   17.7718 C   0  0  0  0  0  0  0  0  0  0  0  0
  -25.6367  -11.7402   21.8742 C   0  0  0  0  0  0  0  0  0  0  0  0
  -24.5508  -13.5940   20.7690 C   0  0  0  0  0  0  0  0  0  0  0  0
  -28.2615  -28.4874   16.6693 C   0  0  0  0  0  0  0  0  0  0  0  0
  -23.4580   -9.9408   20.0172 C   0  0  0  0  0  0  0  0  0  0  0  0
  -23.3655   -8.5791   19.7298 C   0  0  0  0  0  0  0  0  0  0  0  0
  -27.2217  -26.4812   17.5138 C   0  0  0  0  0  0  0  0  0  0  0  0
  -22.7082   -8.1417   22.0132 C   0  0  0  0  0  0  0  0  0  0  0  0
  -26.9501  -13.5939   21.0522 C   0  0  0  0  0  0  0  0  0  0  0  0
  -29.3359  -13.7290   20.1592 C   0  0  0  0  0  0  0  0  0  0  0  0
  -28.4060  -29.0547   26.4239 C   0  0  0  0  0  0  0  0  0  0  0  0
  -27.0295  -28.5471   18.7607 C   0  0  0  0  0  0  0  0  0  0  0  0
  -28.7846  -29.2074   25.0764 C   0  0  0  0  0  0  0  0  0  0  0  0
  -26.7335  -27.1831   18.6264 C   0  0  0  0  0  0  0  0  0  0  0  0
  -24.4749  -12.3581   21.4114 C   0  0  0  0  0  0  0  0  0  0  0  0
  -27.9829  -27.1298   16.5417 C   0  0  0  0  0  0  0  0  0  0  0  0
  -23.1757  -10.4031   21.3027 C   0  0  0  0  0  0  0  0  0  0  0  0
  -22.9906   -7.6795   20.7277 C   0  0  0  0  0  0  0  0  0  0  0  0
  -22.8008   -9.5035   22.3006 C   0  0  0  0  0  0  0  0  0  0  0  0
  -28.2281  -14.2329   20.8669 C   0  0  0  0  0  0  0  0  0  0  0  0
  -30.2931  -14.7067   20.2783 C   0  0  0  0  0  0  0  0  0  0  0  0
  -29.4861  -12.4881   19.4570 C   0  0  0  0  0  0  0  0  0  0  0  0
  -29.7931  -20.5523   21.2026 C   0  0  0  0  0  0  0  0  0  0  0  0
  -27.4059  -27.9977   21.8688 C   0  0  0  0  0  0  0  0  0  0  0  0
  -24.3919  -26.8228   21.6290 C   0  0  0  0  0  0  0  0  0  0  0  0
  -21.9570  -25.4731   19.6550 C   0  0  0  0  0  0  0  0  0  0  0  0
  -27.8471  -27.7558   26.9486 C   0  0  0  0  0  0  0  0  0  0  0  0
  -26.4990  -29.3302   19.9302 C   0  0  0  0  0  0  0  0  0  0  0  0
  -25.9108  -26.4457   19.6501 C   0  0  0  0  0  0  0  0  0  0  0  0
  -27.3342  -26.8262   25.8517 C   0  0  0  0  0  0  0  0  0  0  0  0
  -31.7385  -18.2082   23.1894 C   0  0  0  0  0  0  0  0  0  0  0  0
  -28.3464  -26.7330   24.7144 C   0  0  0  0  0  0  0  0  0  0  0  0
  -29.6060  -23.0394   21.3583 C   0  0  0  0  0  0  0  0  0  0  0  0
  -31.8843  -21.8937   21.2744 C   0  0  0  0  0  0  0  0  0  0  0  0
  -31.1305  -16.8714   22.7670 C   0  0  0  0  0  0  0  0  0  0  0  0
  -29.7763  -23.4603   19.8973 C   0  0  0  0  0  0  0  0  0  0  0  0
  -32.0247  -22.3107   19.8096 C   0  0  0  0  0  0  0  0  0  0  0  0
  -30.6870  -19.3138   23.2346 C   0  0  0  0  0  0  0  0  0  0  0  0
  -29.3243  -18.1453   21.5310 C   0  0  0  0  0  0  0  0  0  0  0  0
  -28.5729  -28.1029   24.0637 C   0  0  1  0  0  0  0  0  0  0  0  0
  -30.4275  -21.8041   21.7359 C   0  0  0  0  0  0  0  0  0  0  0  0
  -26.1757  -28.4556   21.1376 C   0  0  1  0  0  0  0  0  0  0  0  0
  -30.3581  -17.0101   21.4435 C   0  0  2  0  0  0  0  0  0  0  0  0
  -31.2509  -23.5952   19.5324 C   0  0  0  0  0  0  0  0  0  0  0  0
  -19.6137  -24.5802   19.7503 C   0  0  0  0  0  0  0  0  0  0  0  0
  -27.8304  -24.2330   14.7416 C   0  0  0  0  0  0  0  0  0  0  0  0
  -25.4254  -24.2539   22.9106 C   0  0  0  0  0  0  0  0  0  0  0  0
  -23.3458  -23.1055   22.1206 C   0  0  0  0  0  0  0  0  0  0  0  0
  -23.1852  -25.0020   23.7330 C   0  0  0  0  0  0  0  0  0  0  0  0
  -20.9730  -27.5290   17.7672 C   0  0  0  0  0  0  0  0  0  0  0  0
  -30.2078  -24.7919   15.3586 C   0  0  0  0  0  0  0  0  0  0  0  0
  -31.0637  -25.3341   17.7502 C   0  0  0  0  0  0  0  0  0  0  0  0
  -23.7924  -25.4713   21.3240 C   0  0  1  0  0  0  0  0  0  0  0  0
  -20.4829  -25.8039   19.5057 C   0  0  2  0  0  0  0  0  0  0  0  0
  -28.7295  -25.0511   15.6598 C   0  0  1  0  0  0  0  0  0  1  0  0
  -31.1853  -25.5774   16.2479 C   0  0  1  0  0  0  0  0  0  0  0  0
  -23.9544  -24.4713   22.5036 C   0  0  0  0  0  0  0  0  0  0  0  0
  -28.4590  -15.4372   21.3965 N   0  0  0  0  0  0  0  0  0  0  0  0
  -29.7229  -15.6981   21.0214 N   0  0  0  0  0  0  0  0  0  0  0  0
  -29.9548  -19.3953   21.9650 N   0  0  0  0  0  0  0  0  0  0  0  0
  -25.4201  -27.2537   20.7788 N   0  0  0  0  0  0  0  0  0  0  0  0
  -31.5586  -14.8065   19.8190 N   0  0  0  0  0  0  0  0  0  0  0  0
  -29.1403  -12.4425   18.0995 N   0  0  0  0  0  0  0  0  0  0  0  0
  -27.4750  -28.4301   23.1794 N   0  0  0  0  0  0  0  0  0  0  0  0
  -22.4080  -25.7172   20.9350 N   0  0  0  0  0  0  0  0  0  0  0  0
  -31.3599  -23.9189   18.0848 N   0  3  0  0  0  0  0  0  0  0  0  0
  -20.2027  -26.3126   18.1332 N   0  3  0  0  0  0  0  0  0  0  0  0
  -29.8988  -11.4462   20.0207 O   0  0  0  0  0  0  0  0  0  0  0  0
  -29.1730  -20.5986   20.1370 O   0  0  0  0  0  0  0  0  0  0  0  0
  -28.2306  -27.3024   21.2873 O   0  0  0  0  0  0  0  0  0  0  0  0
  -23.9587  -27.4754   22.5819 O   0  0  0  0  0  0  0  0  0  0  0  0
  -22.6391  -25.0380   18.7299 O   0  0  0  0  0  0  0  0  0  0  0  0
  -32.5229  -25.2586   15.8553 O   0  0  0  0  0  0  0  0  0  0  0  0
  -23.2672  -11.7554   21.5863 O   0  0  0  0  0  0  0  0  0  0  0  0
  -28.4484  -26.4368   15.4670 O   0  0  0  0  0  0  0  0  0  1  0  0
  -22.9003   -6.3720   20.4511 F   0  0  0  0  0  0  0  0  0  0  0  0
  -22.5272   -9.9418   23.5371 F   0  0  0  0  0  0  0  0  0  0  0  0
  1  2  1  0  0  0  0
  1  5  2  0  0  0  0
  2  6  2  0  0  0  0
  3  8  2  0  0  0  0
  3 15  1  0  0  0  0
  4  9  1  0  0  0  0
  4 15  2  0  0  0  0
  5 17  1  0  0  0  0
  6 19  1  0  0  0  0
  7 10  2  0  0  0  0
  7 18  1  0  0  0  0
  8 21  1  0  0  0  0
  9 21  2  0  0  0  0
 10 22  1  0  0  0  0
 11 12  2  0  0  0  0
 11 23  1  0  0  0  0
 12 24  1  0  0  0  0
 13 20  1  0  0  0  0
 13 22  2  0  0  0  0
 14 24  2  0  0  0  0
 14 25  1  0  0  0  0
 15 26  1  0  0  0  0
 16 26  1  0  0  0  0
 16 27  2  0  0  0  0
 16 28  1  0  0  0  0
 17 19  2  0  0  0  0
 17 33  1  0  0  0  0
 18 20  2  0  0  0  0
 18 34  1  0  0  0  0
 19 46  1  0  0  0  0
 20 35  1  0  0  0  0
 21 80  1  0  0  0  0
 22 81  1  0  0  0  0
 23 25  2  0  0  0  0
 23 80  1  0  0  0  0
 24 82  1  0  0  0  0
 25 83  1  0  0  0  0
 26 64  2  0  0  0  0
 27 65  1  0  0  0  0
 27 68  1  0  0  0  0
 28 69  1  0  0  0  0
 28 74  2  0  0  0  0
 29 47  1  0  0  0  0
 29 66  1  0  0  0  0
 29 75  2  0  0  0  0
 30 48  1  0  0  0  0
 30 70  1  0  0  0  0
 30 76  2  0  0  0  0
 31 59  1  0  0  0  0
 31 67  1  0  0  0  0
 31 77  2  0  0  0  0
 32 60  1  0  0  0  0
 32 71  1  0  0  0  0
 32 78  2  0  0  0  0
 33 36  1  0  0  0  0
 34 48  1  0  0  0  0
 35 67  1  0  0  0  0
 36 38  1  0  0  0  0
 37 41  1  0  0  0  0
 37 44  1  0  0  0  0
 38 46  1  0  0  0  0
 39 42  1  0  0  0  0
 39 47  1  0  0  0  0
 40 43  1  0  0  0  0
 40 47  1  0  0  0  0
 41 49  1  0  0  0  0
 42 50  1  0  0  0  0
 43 50  1  0  0  0  0
 44 66  1  0  0  0  0
 45 49  1  0  0  0  0
 45 66  1  0  0  0  0
 46 70  1  0  0  0  0
 48 67  1  0  0  0  0
 49 65  1  0  0  0  0
 50 72  1  0  0  0  0
 51 60  1  0  0  0  0
 52 61  1  0  0  0  0
 53 63  1  0  0  0  0
 54 63  1  0  0  0  0
 55 63  1  0  0  0  0
 56 73  1  0  0  0  0
 57 61  1  0  0  0  0
 57 62  1  0  0  0  0
 58 62  1  0  0  0  0
 58 72  1  0  0  0  0
 59 63  1  0  0  0  0
 59 71  1  0  0  0  0
 60 73  1  0  0  0  0
 61 81  1  0  0  0  0
 62 79  1  0  0  0  0
 64 65  1  0  0  0  0
M  CHG  2  72   1  73   1
M  ISO  4  29 100  47 100  61 101  81 101
M  END
> <Batch ID>
0118

> <Smiles>
CNC(C)C(=O)NC(C(=O)N1Cc2cc([101O:1][101CH:1](C)CC(O)CNC3CC[100CH:0]([100C:0](=O)N4CCCC(n5nc(-c6ccc(Oc7ccc(F)cc7F)cc6)c(C(N)=O)c5N)C4)CC3)ccc2CC1C(=O)NC1CCCc2ccccc21)C(C)(C)C

> <Shape>
0.218

> <Color>
0.080

> <Negative vol penalty>
0.000

$$$$

  -OEChem-04052320183D

 82 90  0     1  0  0  0  0  0999 V2000
  -23.6528   -8.7857   20.5194 C   0  0  0  0  0  0  0  0  0  0  0  0
  -24.5666   -9.5045   21.2834 C   0  0  0  0  0  0  0  0  0  0  0  0
  -26.4421  -28.3081   18.9612 C   0  0  0  0  0  0  0  0  0  0  0  0
  -26.0858  -27.2369   21.0973 C   0  0  0  0  0  0  0  0  0  0  0  0
  -23.0047   -9.4005   19.4489 C   0  0  0  0  0  0  0  0  0  0  0  0
  -24.8337  -10.8383   20.9767 C   0  0  0  0  0  0  0  0  0  0  0  0
  -26.1069  -15.3408   24.9279 C   0  0  0  0  0  0  0  0  0  0  0  0
  -25.4279  -29.2211   19.2499 C   0  0  0  0  0  0  0  0  0  0  0  0
  -25.0716  -28.1500   21.3860 C   0  0  0  0  0  0  0  0  0  0  0  0
  -27.3087  -15.9135   25.3418 C   0  0  0  0  0  0  0  0  0  0  0  0
  -21.8232  -28.6064   20.5672 C   0  0  0  0  0  0  0  0  0  0  0  0
  -20.6369  -28.1084   21.1061 C   0  0  0  0  0  0  0  0  0  0  0  0
  -27.0259  -17.6698   23.7124 C   0  0  0  0  0  0  0  0  0  0  0  0
  -29.8651  -17.4664   20.6244 C   0  0  0  0  0  0  0  0  0  0  0  0
  -20.9561  -29.4755   23.0724 C   0  0  0  0  0  0  0  0  0  0  0  0
  -30.0749  -18.9965   22.2629 C   0  0  0  0  0  0  0  0  0  0  0  0
  -26.7710  -27.3159   19.8849 C   0  0  0  0  0  0  0  0  0  0  0  0
  -29.1888  -26.5022   19.8811 C   0  0  0  0  0  0  0  0  0  0  0  0
  -23.2567  -10.7453   19.1349 C   0  0  0  0  0  0  0  0  0  0  0  0
  -25.3597  -15.9232   23.8940 C   0  0  0  0  0  0  0  0  0  0  0  0
  -24.1893  -11.4712   19.9002 C   0  0  0  0  0  0  0  0  0  0  0  0
  -25.8136  -17.1039   23.2890 C   0  0  0  0  0  0  0  0  0  0  0  0
  -29.6437  -18.8233   20.9662 C   0  0  0  0  0  0  0  0  0  0  0  0
  -24.7426  -29.1421   20.4622 C   0  0  0  0  0  0  0  0  0  0  0  0
  -27.7698  -17.0766   24.7320 C   0  0  0  0  0  0  0  0  0  0  0  0
  -22.5760  -29.5389   21.2810 C   0  0  0  0  0  0  0  0  0  0  0  0
  -20.2034  -28.5429   22.3586 C   0  0  0  0  0  0  0  0  0  0  0  0
  -22.1424  -29.9734   22.5336 C   0  0  0  0  0  0  0  0  0  0  0  0
  -27.8182  -26.3721   19.5870 C   0  0  0  0  0  0  0  0  0  0  0  0
  -30.4247  -16.8516   21.7227 C   0  0  0  0  0  0  0  0  0  0  0  0
  -29.7548  -25.3479   19.3976 C   0  0  0  0  0  0  0  0  0  0  0  0
  -29.8878  -27.5709   20.5331 C   0  0  0  0  0  0  0  0  0  0  0  0
  -24.4217  -14.9899   21.0038 C   0  0  0  0  0  0  0  0  0  0  0  0
  -22.7826  -17.7886   21.0591 C   0  0  0  0  0  0  0  0  0  0  0  0
  -22.4811  -20.9451   22.3210 C   0  0  0  0  0  0  0  0  0  0  0  0
  -28.6356  -19.7096   18.8344 C   0  0  0  0  0  0  0  0  0  0  0  0
  -22.5671  -11.3531   17.9392 C   0  0  0  0  0  0  0  0  0  0  0  0
  -24.0520  -15.3078   23.4773 C   0  0  0  0  0  0  0  0  0  0  0  0
  -25.0387  -17.7796   22.1884 C   0  0  0  0  0  0  0  0  0  0  0  0
  -22.6269  -12.8782   17.9117 C   0  0  0  0  0  0  0  0  0  0  0  0
  -28.4180  -21.9405   16.0680 C   0  0  0  0  0  0  0  0  0  0  0  0
  -24.0416  -13.3625   18.2129 C   0  0  0  0  0  0  0  0  0  0  0  0
  -28.3751  -23.3242   16.7206 C   0  0  0  0  0  0  0  0  0  0  0  0
  -27.6539  -20.9027   16.8882 C   0  0  0  0  0  0  0  0  0  0  0  0
  -28.0033  -22.1999   18.9532 C   0  0  0  0  0  0  0  0  0  0  0  0
  -24.4872  -12.9271   19.6141 C   0  0  1  0  0  0  0  0  0  0  0  0
  -23.6299  -15.7005   22.0649 C   0  0  1  0  0  0  0  0  0  0  0  0
  -28.8141  -23.2648   18.1968 C   0  0  2  0  0  0  0  0  0  0  0  0
  -31.9864  -15.0320   20.9456 C   0  0  0  0  0  0  0  0  0  0  0  0
  -29.6850  -14.4428   21.7889 C   0  0  0  0  0  0  0  0  0  0  0  0
  -21.0642  -23.0090   22.1473 C   0  0  0  0  0  0  0  0  0  0  0  0
  -30.7100  -16.6360   26.4029 C   0  0  0  0  0  0  0  0  0  0  0  0
  -24.1161  -18.4776   18.4026 C   0  0  0  0  0  0  0  0  0  0  0  0
  -23.4328  -20.8599   18.7572 C   0  0  0  0  0  0  0  0  0  0  0  0
  -21.6939  -19.0843   18.5423 C   0  0  0  0  0  0  0  0  0  0  0  0
  -21.7030  -20.7914   25.1723 C   0  0  0  0  0  0  0  0  0  0  0  0
  -31.1137  -17.5553   24.0931 C   0  0  0  0  0  0  0  0  0  0  0  0
  -30.8518  -15.4498   21.9089 C   0  0  0  0  0  0  0  0  0  0  0  0
  -23.0819  -19.2110   20.6517 C   0  0  1  0  0  0  0  0  0  0  0  0
  -21.2867  -21.6959   22.8816 C   0  0  2  0  0  0  0  0  0  0  0  0
  -30.1194  -16.8388   25.0131 C   0  0  2  0  0  0  0  0  0  1  0  0
  -23.0970  -19.3946   19.1078 C   0  0  0  0  0  0  0  0  0  0  0  0
  -27.5309  -25.2257   18.9648 N   0  0  0  0  0  0  0  0  0  0  0  0
  -30.5474  -17.7912   22.7127 N   0  0  0  0  0  0  0  0  0  0  0  0
  -28.7288  -24.6249   18.8638 N   0  0  0  0  0  0  0  0  0  0  0  0
  -23.7692  -17.1361   21.8119 N   0  0  0  0  0  0  0  0  0  0  0  0
  -28.1261  -20.9003   18.2745 N   0  0  0  0  0  0  0  0  0  0  0  0
  -31.0250  -24.8911   19.3812 N   0  0  0  0  0  0  0  0  0  0  0  0
  -29.1533  -28.6828   20.9673 N   0  0  0  0  0  0  0  0  0  0  0  0
  -29.0849  -19.8366   20.1484 N   0  0  0  0  0  0  0  0  0  0  0  0
  -23.8864  -13.7746   20.6216 N   0  0  0  0  0  0  0  0  0  0  0  0
  -22.1070  -20.0475   21.3434 N   0  0  0  0  0  0  0  0  0  0  0  0
  -21.4947  -21.9950   24.3267 N   0  3  0  0  0  0  0  0  0  0  0  0
  -31.1294  -27.5480   20.7103 O   0  0  0  0  0  0  0  0  0  0  0  0
  -25.4418  -15.5066   20.5634 O   0  0  0  0  0  0  0  0  0  0  0  0
  -21.7098  -17.2776   20.7279 O   0  0  0  0  0  0  0  0  0  0  0  0
  -23.6312  -21.1383   22.7087 O   0  0  0  0  0  0  0  0  0  0  0  0
  -28.6959  -18.6617   18.1863 O   0  0  0  0  0  0  0  0  0  0  0  0
  -23.7531  -30.0330   20.7444 O   0  0  0  0  0  0  0  0  0  0  0  0
  -28.9429  -17.6374   25.1336 O   0  0  0  0  0  0  0  0  0  1  0  0
  -19.0634  -28.0658   22.8753 F   0  0  0  0  0  0  0  0  0  0  0  0
  -22.8608  -30.8700   23.2234 F   0  0  0  0  0  0  0  0  0  0  0  0
  1  2  1  0  0  0  0
  1  5  2  0  0  0  0
  2  6  2  0  0  0  0
  3  8  2  0  0  0  0
  3 17  1  0  0  0  0
  4  9  1  0  0  0  0
  4 17  2  0  0  0  0
  5 19  1  0  0  0  0
  6 21  1  0  0  0  0
  7 10  2  0  0  0  0
  7 20  1  0  0  0  0
  8 24  1  0  0  0  0
  9 24  2  0  0  0  0
 10 25  1  0  0  0  0
 11 12  2  0  0  0  0
 11 26  1  0  0  0  0
 12 27  1  0  0  0  0
 13 22  1  0  0  0  0
 13 25  2  0  0  0  0
 14 23  1  0  0  0  0
 14 30  2  0  0  0  0
 15 27  2  0  0  0  0
 15 28  1  0  0  0  0
 16 23  2  0  0  0  0
 16 64  1  0  0  0  0
 17 29  1  0  0  0  0
 18 29  1  0  0  0  0
 18 31  2  0  0  0  0
 18 32  1  0  0  0  0
 19 21  2  0  0  0  0
 19 37  1  0  0  0  0
 20 22  2  0  0  0  0
 20 38  1  0  0  0  0
 21 46  1  0  0  0  0
 22 39  1  0  0  0  0
 23 70  1  0  0  0  0
 24 79  1  0  0  0  0
 25 80  1  0  0  0  0
 26 28  2  0  0  0  0
 26 79  1  0  0  0  0
 27 81  1  0  0  0  0
 28 82  1  0  0  0  0
 29 63  2  0  0  0  0
 30 58  1  0  0  0  0
 30 64  1  0  0  0  0
 31 65  1  0  0  0  0
 31 68  1  0  0  0  0
 32 69  1  0  0  0  0
 32 74  2  0  0  0  0
 33 47  1  0  0  0  0
 33 71  1  0  0  0  0
 33 75  2  0  0  0  0
 34 59  1  0  0  0  0
 34 66  1  0  0  0  0
 34 76  2  0  0  0  0
 35 60  1  0  0  0  0
 35 72  1  0  0  0  0
 35 77  2  0  0  0  0
 36 67  1  0  0  0  0
 36 70  1  0  0  0  0
 36 78  2  0  0  0  0
 37 40  1  0  0  0  0
 38 47  1  0  0  0  0
 39 66  1  0  0  0  0
 40 42  1  0  0  0  0
 41 43  1  0  0  0  0
 41 44  1  0  0  0  0
 42 46  1  0  0  0  0
 43 48  1  0  0  0  0
 44 67  1  0  0  0  0
 45 48  1  0  0  0  0
 45 67  1  0  0  0  0
 46 71  1  0  0  0  0
 47 66  1  0  0  0  0
 48 65  1  0  0  0  0
 49 58  1  0  0  0  0
 50 58  1  0  0  0  0
 51 60  1  0  0  0  0
 52 61  1  0  0  0  0
 53 62  1  0  0  0  0
 54 62  1  0  0  0  0
 55 62  1  0  0  0  0
 56 73  1  0  0  0  0
 57 61  1  0  0  0  0
 57 64  1  0  0  0  0
 59 62  1  0  0  0  0
 59 72  1  0  0  0  0
 60 73  1  0  0  0  0
 61 80  1  0  0  0  0
 63 65  1  0  0  0  0
M  CHG  1  73   1
M  ISO  4  36 100  61 101  70 100  80 101
M  END
> <Batch ID>
0118

> <Smiles>
CNC(C)C(=O)NC(C(=O)N1Cc2cc([101O:1][101CH:1](C)Cn3cc([100NH:0][100C:0](=O)N4CCCC(n5nc(-c6ccc(Oc7ccc(F)cc7F)cc6)c(C(N)=O)c5N)C4)cc3C(C)C)ccc2CC1C(=O)NC1CCCc2ccccc21)C(C)(C)C

> <Shape>
0.232

> <Color>
0.052

> <Negative vol penalty>
0.000

$$$$

  -OEChem-04052320183D

 85 94  0     1  0  0  0  0  0999 V2000
  -18.1797  -32.8765   21.5728 C   0  0  0  0  0  0  0  0  0  0  0  0
  -19.4738  -32.7796   21.0715 C   0  0  0  0  0  0  0  0  0  0  0  0
  -26.6398  -12.7723   21.7218 C   0  0  0  0  0  0  0  0  0  0  0  0
  -26.1696  -14.0574   19.7307 C   0  0  0  0  0  0  0  0  0  0  0  0
  -17.8120  -32.1389   22.6974 C   0  0  0  0  0  0  0  0  0  0  0  0
  -20.4013  -31.9460   21.6952 C   0  0  0  0  0  0  0  0  0  0  0  0
  -24.8455  -28.7120   18.9941 C   0  0  0  0  0  0  0  0  0  0  0  0
  -25.3407  -12.2651   21.7013 C   0  0  0  0  0  0  0  0  0  0  0  0
  -24.8704  -13.5501   19.7101 C   0  0  0  0  0  0  0  0  0  0  0  0
  -26.2084  -28.9513   18.8232 C   0  0  0  0  0  0  0  0  0  0  0  0
  -23.6230   -9.8828   20.0257 C   0  0  0  0  0  0  0  0  0  0  0  0
  -23.4580   -8.5144   20.2393 C   0  0  0  0  0  0  0  0  0  0  0  0
  -26.6810  -27.6229   20.7805 C   0  0  0  0  0  0  0  0  0  0  0  0
  -22.0951   -8.9814   22.1788 C   0  0  0  0  0  0  0  0  0  0  0  0
  -27.0543  -13.6686   20.7366 C   0  0  0  0  0  0  0  0  0  0  0  0
  -29.5332  -13.6450   20.1348 C   0  0  0  0  0  0  0  0  0  0  0  0
  -18.7327  -31.2884   23.3295 C   0  0  0  0  0  0  0  0  0  0  0  0
  -24.3886  -27.9340   20.0676 C   0  0  0  0  0  0  0  0  0  0  0  0
  -20.0460  -31.1974   22.8301 C   0  0  0  0  0  0  0  0  0  0  0  0
  -25.3120  -27.3731   20.9614 C   0  0  0  0  0  0  0  0  0  0  0  0
  -24.4560  -12.6539   20.6954 C   0  0  0  0  0  0  0  0  0  0  0  0
  -27.1261  -28.4091   19.7181 C   0  0  0  0  0  0  0  0  0  0  0  0
  -23.0241  -10.8006   20.8887 C   0  0  0  0  0  0  0  0  0  0  0  0
  -22.6940   -8.0636   21.3158 C   0  0  0  0  0  0  0  0  0  0  0  0
  -22.2602  -10.3499   21.9652 C   0  0  0  0  0  0  0  0  0  0  0  0
  -28.3960  -14.1934   20.7576 C   0  0  0  0  0  0  0  0  0  0  0  0
  -30.5503  -14.5115   20.4528 C   0  0  0  0  0  0  0  0  0  0  0  0
  -29.6589  -12.4584   19.3398 C   0  0  0  0  0  0  0  0  0  0  0  0
  -31.7719  -24.1758   18.4388 C   0  0  0  0  0  0  0  0  0  0  0  0
  -22.5144  -28.4592   22.5806 C   0  0  0  0  0  0  0  0  0  0  0  0
  -22.8786  -25.2672   23.0282 C   0  0  0  0  0  0  0  0  0  0  0  0
  -24.7487  -22.4620   22.4982 C   0  0  0  0  0  0  0  0  0  0  0  0
  -30.6521  -20.3134   21.9286 C   0  0  0  0  0  0  0  0  0  0  0  0
  -18.3027  -30.5471   24.5705 C   0  0  0  0  0  0  0  0  0  0  0  0
  -22.9173  -27.6631   20.2227 C   0  0  0  0  0  0  0  0  0  0  0  0
  -24.8744  -26.5141   22.1185 C   0  0  0  0  0  0  0  0  0  0  0  0
  -19.2368  -29.4008   24.9497 C   0  0  0  0  0  0  0  0  0  0  0  0
  -31.9195  -17.5942   23.8459 C   0  0  0  0  0  0  0  0  0  0  0  0
  -20.6918  -29.8545   24.8857 C   0  0  0  0  0  0  0  0  0  0  0  0
  -31.2628  -16.3648   23.2156 C   0  0  0  0  0  0  0  0  0  0  0  0
  -30.9504  -28.5213   16.7303 C   0  0  0  0  0  0  0  0  0  0  0  0
  -31.4941  -21.7513   19.0217 C   0  0  0  0  0  0  0  0  0  0  0  0
  -30.9753  -18.7943   23.8585 C   0  0  0  0  0  0  0  0  0  0  0  0
  -29.7409  -17.9122   21.9163 C   0  0  0  0  0  0  0  0  0  0  0  0
  -32.1773  -27.6243   16.7498 C   0  0  0  0  0  0  0  0  0  0  0  0
  -30.5117  -26.8761   18.3746 C   0  0  0  0  0  0  0  0  0  0  0  0
  -29.1250  -21.9308   18.9378 C   0  0  0  0  0  0  0  0  0  0  0  0
  -21.0734  -30.2850   23.4643 C   0  0  1  0  0  0  0  0  0  0  0  0
  -31.1888  -22.8649   18.0256 C   0  0  1  0  0  0  0  0  0  0  0  0
  -22.5268  -27.2818   21.6473 C   0  0  1  0  0  0  0  0  0  0  0  0
  -30.3579  -28.3664   18.1239 C   0  0  2  0  0  0  0  0  0  0  0  0
  -30.6737  -16.6920   21.8303 C   0  0  2  0  0  0  0  0  0  0  0  0
  -30.2606  -21.7102   19.9149 C   0  0  1  0  0  0  0  0  0  0  0  0
  -24.8101  -20.0080   23.0191 C   0  0  0  0  0  0  0  0  0  0  0  0
  -23.7838  -25.8961   25.8734 C   0  0  0  0  0  0  0  0  0  0  0  0
  -24.7153  -23.5765   26.0154 C   0  0  0  0  0  0  0  0  0  0  0  0
  -22.2678  -23.9171   25.6745 C   0  0  0  0  0  0  0  0  0  0  0  0
  -24.6326  -21.7327   19.6323 C   0  0  0  0  0  0  0  0  0  0  0  0
  -32.0376  -25.1639   17.3301 C   0  0  0  0  0  0  0  0  0  0  0  0
  -28.9223  -28.8368   18.2192 C   0  0  0  0  0  0  0  0  0  1  0  0
  -23.8628  -24.3974   23.7725 C   0  0  1  0  0  0  0  0  0  0  0  0
  -24.3664  -21.0709   22.0260 C   0  0  2  0  0  0  0  0  0  0  0  0
  -23.6659  -24.4645   25.3134 C   0  0  0  0  0  0  0  0  0  0  0  0
  -28.6649  -15.3209   21.4212 N   0  0  0  0  0  0  0  0  0  0  0  0
  -29.9827  -15.4880   21.2173 N   0  0  0  0  0  0  0  0  0  0  0  0
  -23.4247  -26.2833   22.2314 N   0  0  0  0  0  0  0  0  0  0  0  0
  -30.4529  -19.0524   22.5144 N   0  0  0  0  0  0  0  0  0  0  0  0
  -31.8659  -14.5257   20.1504 N   0  0  0  0  0  0  0  0  0  0  0  0
  -28.5139  -11.6832   19.1108 N   0  0  0  0  0  0  0  0  0  0  0  0
  -21.3048  -29.1254   22.6299 N   0  0  0  0  0  0  0  0  0  0  0  0
  -23.7296  -23.0575   23.2109 N   0  0  0  0  0  0  0  0  0  0  0  0
  -30.1306  -20.4721   20.6505 N   0  0  0  0  0  0  0  0  0  0  0  0
  -29.6840  -22.9572   17.9964 N   0  3  0  0  0  0  0  0  0  0  0  0
  -31.8801  -26.5730   17.8034 N   0  3  1  0  0  0  0  0  0  0  0  0
  -25.0006  -20.7782   20.7096 N   0  3  0  0  0  0  0  0  0  0  0  0
  -30.7573  -12.0875   18.8608 O   0  0  0  0  0  0  0  0  0  0  0  0
  -32.0140  -24.4191   19.6200 O   0  0  0  0  0  0  0  0  0  0  0  0
  -23.5269  -28.7415   23.2106 O   0  0  0  0  0  0  0  0  0  0  0  0
  -21.6702  -25.0483   23.1438 O   0  0  0  0  0  0  0  0  0  0  0  0
  -25.8434  -22.9682   22.2619 O   0  0  0  0  0  0  0  0  0  0  0  0
  -31.2550  -21.2283   22.5000 O   0  0  0  0  0  0  0  0  0  0  0  0
  -23.1882  -12.1589   20.6749 O   0  0  0  0  0  0  0  0  0  0  0  0
  -28.4568  -28.6417   19.5539 O   0  0  0  0  0  0  0  0  0  1  0  0
  -22.5344   -6.7494   21.5199 F   0  0  0  0  0  0  0  0  0  0  0  0
  -21.6814  -11.2268   22.7970 F   0  0  0  0  0  0  0  0  0  0  0  0
  1  2  1  0  0  0  0
  1  5  2  0  0  0  0
  2  6  2  0  0  0  0
  3  8  2  0  0  0  0
  3 15  1  0  0  0  0
  4  9  1  0  0  0  0
  4 15  2  0  0  0  0
  5 17  1  0  0  0  0
  6 19  1  0  0  0  0
  7 10  2  0  0  0  0
  7 18  1  0  0  0  0
  8 21  1  0  0  0  0
  9 21  2  0  0  0  0
 10 22  1  0  0  0  0
 11 12  2  0  0  0  0
 11 23  1  0  0  0  0
 12 24  1  0  0  0  0
 13 20  1  0  0  0  0
 13 22  2  0  0  0  0
 14 24  2  0  0  0  0
 14 25  1  0  0  0  0
 15 26  1  0  0  0  0
 16 26  1  0  0  0  0
 16 27  2  0  0  0  0
 16 28  1  0  0  0  0
 17 19  2  0  0  0  0
 17 34  1  0  0  0  0
 18 20  2  0  0  0  0
 18 35  1  0  0  0  0
 19 48  1  0  0  0  0
 20 36  1  0  0  0  0
 21 82  1  0  0  0  0
 22 83  1  0  0  0  0
 23 25  2  0  0  0  0
 23 82  1  0  0  0  0
 24 84  1  0  0  0  0
 25 85  1  0  0  0  0
 26 64  2  0  0  0  0
 27 65  1  0  0  0  0
 27 68  1  0  0  0  0
 28 69  1  0  0  0  0
 28 76  2  0  0  0  0
 29 49  1  0  0  0  0
 29 59  1  0  0  0  0
 29 77  2  0  0  0  0
 30 50  1  0  0  0  0
 30 70  1  0  0  0  0
 30 78  2  0  0  0  0
 31 61  1  0  0  0  0
 31 66  1  0  0  0  0
 31 79  2  0  0  0  0
 32 62  1  0  0  0  0
 32 71  1  0  0  0  0
 32 80  2  0  0  0  0
 33 67  1  0  0  0  0
 33 72  1  0  0  0  0
 33 81  2  0  0  0  0
 34 37  1  0  0  0  0
 35 50  1  0  0  0  0
 36 66  1  0  0  0  0
 37 39  1  0  0  0  0
 38 40  1  0  0  0  0
 38 43  1  0  0  0  0
 39 48  1  0  0  0  0
 40 52  1  0  0  0  0
 41 45  1  0  0  0  0
 41 51  1  0  0  0  0
 42 49  1  0  0  0  0
 42 53  1  0  0  0  0
 43 67  1  0  0  0  0
 44 52  1  0  0  0  0
 44 67  1  0  0  0  0
 45 74  1  0  0  0  0
 46 51  1  0  0  0  0
 46 74  1  0  0  0  0
 47 53  1  0  0  0  0
 47 73  1  0  0  0  0
 48 70  1  0  0  0  0
 49 73  1  0  0  0  0
 50 66  1  0  0  0  0
 51 60  1  0  0  0  0
 52 65  1  0  0  0  0
 53 72  1  0  0  0  0
 54 62  1  0  0  0  0
 55 63  1  0  0  0  0
 56 63  1  0  0  0  0
 57 63  1  0  0  0  0
 58 75  1  0  0  0  0
 59 74  1  0  0  0  0
 60 83  1  0  0  0  0
 61 63  1  0  0  0  0
 61 71  1  0  0  0  0
 62 75  1  0  0  0  0
 64 65  1  0  0  0  0
M  CHG  3  73   1  74   1  75   1
M  ISO  4  33 100  60 101  72 100  83 101
M  END
> <Batch ID>
0118

> <Smiles>
CNC(C)C(=O)NC(C(=O)N1Cc2cc([101O:1][101CH2:1]C3CCN(CC(=O)C4CC([100NH:0][100C:0](=O)N5CCCC(n6nc(-c7ccc(Oc8ccc(F)cc8F)cc7)c(C(N)=O)c6N)C5)CN4)C3)ccc2CC1C(=O)NC1CCCc2ccccc21)C(C)(C)C

> <Shape>
0.249

> <Color>
0.096

> <Negative vol penalty>
0.000

$$$$

  -OEChem-04052320183D

 87 95  0     1  0  0  0  0  0999 V2000
  -21.7969  -29.2702   24.9964 C   0  0  0  0  0  0  0  0  0  0  0  0
  -22.3926  -28.0288   25.1954 C   0  0  0  0  0  0  0  0  0  0  0  0
  -29.4714  -23.6907   18.7600 C   0  0  0  0  0  0  0  0  0  0  0  0
  -27.8237  -23.5270   20.5194 C   0  0  0  0  0  0  0  0  0  0  0  0
  -20.7414  -29.3990   24.0947 C   0  0  0  0  0  0  0  0  0  0  0  0
  -21.9322  -26.9153   24.4936 C   0  0  0  0  0  0  0  0  0  0  0  0
  -24.2545  -20.7861   21.6029 C   0  0  0  0  0  0  0  0  0  0  0  0
  -28.7580  -24.7451   18.1900 C   0  0  0  0  0  0  0  0  0  0  0  0
  -27.1103  -24.5814   19.9494 C   0  0  0  0  0  0  0  0  0  0  0  0
  -23.9785  -19.4195   21.6096 C   0  0  0  0  0  0  0  0  0  0  0  0
  -25.0453  -27.4672   19.1582 C   0  0  0  0  0  0  0  0  0  0  0  0
  -24.5732  -28.4666   20.0090 C   0  0  0  0  0  0  0  0  0  0  0  0
  -22.2006  -19.7769   20.0188 C   0  0  0  0  0  0  0  0  0  0  0  0
  -24.9443  -13.5693   21.5743 C   0  0  0  0  0  0  0  0  0  0  0  0
  -26.8385  -28.9548   20.6924 C   0  0  0  0  0  0  0  0  0  0  0  0
  -24.6424  -12.2876   19.7478 C   0  0  0  0  0  0  0  0  0  0  0  0
  -29.0043  -23.0816   19.9247 C   0  0  0  0  0  0  0  0  0  0  0  0
  -30.7618  -22.0796   21.4786 C   0  0  0  0  0  0  0  0  0  0  0  0
  -20.2742  -28.2885   23.3742 C   0  0  0  0  0  0  0  0  0  0  0  0
  -23.4973  -21.6613   20.8110 C   0  0  0  0  0  0  0  0  0  0  0  0
  -20.8686  -27.0292   23.5824 C   0  0  0  0  0  0  0  0  0  0  0  0
  -22.4707  -21.1538   20.0019 C   0  0  0  0  0  0  0  0  0  0  0  0
  -23.9740  -13.0412   20.6873 C   0  0  0  0  0  0  0  0  0  0  0  0
  -27.5774  -25.1904   18.7847 C   0  0  0  0  0  0  0  0  0  0  0  0
  -22.9495  -18.9151   20.8197 C   0  0  0  0  0  0  0  0  0  0  0  0
  -26.4140  -27.2114   19.0746 C   0  0  0  0  0  0  0  0  0  0  0  0
  -25.4698  -29.2104   20.7761 C   0  0  0  0  0  0  0  0  0  0  0  0
  -27.3106  -27.9553   19.8417 C   0  0  0  0  0  0  0  0  0  0  0  0
  -29.7405  -21.9921   20.5137 C   0  0  0  0  0  0  0  0  0  0  0  0
  -26.1762  -13.1224   21.1497 C   0  0  0  0  0  0  0  0  0  0  0  0
  -31.1324  -20.7767   21.7056 C   0  0  0  0  0  0  0  0  0  0  0  0
  -31.3251  -23.2354   22.1131 C   0  0  0  0  0  0  0  0  0  0  0  0
  -21.5953  -24.1398   21.3969 C   0  0  0  0  0  0  0  0  0  0  0  0
  -21.5635  -24.3821   18.1623 C   0  0  0  0  0  0  0  0  0  0  0  0
  -21.9516  -22.8489   15.1382 C   0  0  0  0  0  0  0  0  0  0  0  0
  -28.1850  -15.6929   21.1361 C   0  0  0  0  0  0  0  0  0  0  0  0
  -19.0995  -28.4675   22.4455 C   0  0  0  0  0  0  0  0  0  0  0  0
  -23.8251  -23.1292   20.7946 C   0  0  0  0  0  0  0  0  0  0  0  0
  -21.6416  -22.0486   19.1185 C   0  0  0  0  0  0  0  0  0  0  0  0
  -18.9176  -27.3127   21.4638 C   0  0  0  0  0  0  0  0  0  0  0  0
  -31.3319  -16.5098   19.5464 C   0  0  0  0  0  0  0  0  0  0  0  0
  -19.0280  -25.9744   22.1875 C   0  0  0  0  0  0  0  0  0  0  0  0
  -31.3706  -18.0301   19.7117 C   0  0  0  0  0  0  0  0  0  0  0  0
  -29.9142  -16.0201   19.2665 C   0  0  0  0  0  0  0  0  0  0  0  0
  -28.9446  -17.9508   20.4522 C   0  0  0  0  0  0  0  0  0  0  0  0
  -20.4137  -25.8027   22.8214 C   0  0  1  0  0  0  0  0  0  0  0  0
  -22.6554  -23.9976   20.3416 C   0  0  1  0  0  0  0  0  0  0  0  0
  -30.3472  -18.5060   20.7598 C   0  0  2  0  0  0  0  0  0  0  0  0
  -22.1280  -22.6290   12.6446 C   0  0  0  0  0  0  0  0  0  0  0  0
  -21.9399  -14.9803   18.1940 C   0  0  0  0  0  0  0  0  0  0  0  0
  -27.0959  -12.2002   17.8422 C   0  0  0  0  0  0  0  0  0  0  0  0
  -26.8623  -10.1559   19.3162 C   0  0  0  0  0  0  0  0  0  0  0  0
  -18.5164  -24.3413   18.3142 C   0  0  0  0  0  0  0  0  0  0  0  0
  -18.4705  -23.8336   15.8630 C   0  0  0  0  0  0  0  0  0  0  0  0
  -19.4573  -25.9768   16.6727 C   0  0  0  0  0  0  0  0  0  0  0  0
  -22.1278  -11.1911   22.1080 C   0  0  0  0  0  0  0  0  0  0  0  0
  -24.8642  -23.3722   15.1817 C   0  0  0  0  0  0  0  0  0  0  0  0
  -27.5202  -13.3723   21.7104 C   0  0  0  0  0  0  0  0  0  0  0  0
  -22.0568  -14.7460   20.7340 C   0  0  0  0  0  0  0  0  0  0  0  0
  -22.1443  -17.0230   19.6249 C   0  0  0  0  0  0  0  0  0  1  0  0
  -22.4789  -13.2630   20.7579 C   0  0  2  0  0  0  0  0  0  0  0  0
  -20.7082  -23.8134   17.0560 C   0  0  1  0  0  0  0  0  0  0  0  0
  -22.7260  -23.2522   13.8963 C   0  0  2  0  0  0  0  0  0  0  0  0
  -22.5257  -15.5402   19.4913 C   0  0  2  0  0  0  0  0  0  0  0  0
  -27.0145  -11.6777   19.2779 C   0  0  0  0  0  0  0  0  0  0  0  0
  -19.3023  -24.4744   16.9945 C   0  0  0  0  0  0  0  0  0  0  0  0
  -29.4790  -20.7331   20.1524 N   0  0  0  0  0  0  0  0  0  0  0  0
  -25.9805  -12.3444   20.0386 N   0  0  0  0  0  0  0  0  0  0  0  0
  -30.3415  -20.0175   20.8941 N   0  0  0  0  0  0  0  0  0  0  0  0
  -21.9965  -23.4772   19.1419 N   0  0  0  0  0  0  0  0  0  0  0  0
  -28.9933  -16.4917   20.3103 N   0  0  0  0  0  0  0  0  0  0  0  0
  -32.0544  -20.2178   22.5179 N   0  0  0  0  0  0  0  0  0  0  0  0
  -30.8278  -24.4983   21.7639 N   0  0  0  0  0  0  0  0  0  0  0  0
  -21.3885  -25.4405   21.8150 N   0  0  0  0  0  0  0  0  0  0  0  0
  -21.4858  -23.9476   15.8289 N   0  0  0  0  0  0  0  0  0  0  0  0
  -28.2852  -14.3220   20.9333 N   0  0  0  0  0  0  0  0  0  0  0  0
  -21.8896  -12.6485   21.9944 N   0  3  0  0  0  0  0  0  0  0  0  0
  -24.1463  -22.8147   14.0067 N   0  3  0  0  0  0  0  0  0  0  0  0
  -32.2536  -23.1517   22.9524 O   0  0  0  0  0  0  0  0  0  0  0  0
  -21.0073  -23.1433   21.8008 O   0  0  0  0  0  0  0  0  0  0  0  0
  -21.8433  -25.5835   18.1537 O   0  0  0  0  0  0  0  0  0  0  0  0
  -21.7744  -21.6763   15.4611 O   0  0  0  0  0  0  0  0  0  0  0  0
  -27.4331  -16.1663   21.9950 O   0  0  0  0  0  0  0  0  0  0  0  0
  -26.8811  -26.2194   18.2289 O   0  0  0  0  0  0  0  0  0  0  0  0
  -22.6776  -17.5817   20.8249 O   0  0  0  0  0  0  0  0  0  1  0  0
  -25.0164  -30.1712   21.5919 F   0  0  0  0  0  0  0  0  0  0  0  0
  -28.6267  -27.7150   19.7647 F   0  0  0  0  0  0  0  0  0  0  0  0
  1  2  1  0  0  0  0
  1  5  2  0  0  0  0
  2  6  2  0  0  0  0
  3  8  2  0  0  0  0
  3 17  1  0  0  0  0
  4  9  1  0  0  0  0
  4 17  2  0  0  0  0
  5 19  1  0  0  0  0
  6 21  1  0  0  0  0
  7 10  2  0  0  0  0
  7 20  1  0  0  0  0
  8 24  1  0  0  0  0
  9 24  2  0  0  0  0
 10 25  1  0  0  0  0
 11 12  2  0  0  0  0
 11 26  1  0  0  0  0
 12 27  1  0  0  0  0
 13 22  1  0  0  0  0
 13 25  2  0  0  0  0
 14 23  1  0  0  0  0
 14 30  2  0  0  0  0
 15 27  2  0  0  0  0
 15 28  1  0  0  0  0
 16 23  2  0  0  0  0
 16 68  1  0  0  0  0
 17 29  1  0  0  0  0
 18 29  1  0  0  0  0
 18 31  2  0  0  0  0
 18 32  1  0  0  0  0
 19 21  2  0  0  0  0
 19 37  1  0  0  0  0
 20 22  2  0  0  0  0
 20 38  1  0  0  0  0
 21 46  1  0  0  0  0
 22 39  1  0  0  0  0
 23 61  1  0  0  0  0
 24 84  1  0  0  0  0
 25 85  1  0  0  0  0
 26 28  2  0  0  0  0
 26 84  1  0  0  0  0
 27 86  1  0  0  0  0
 28 87  1  0  0  0  0
 29 67  2  0  0  0  0
 30 58  1  0  0  0  0
 30 68  1  0  0  0  0
 31 69  1  0  0  0  0
 31 72  1  0  0  0  0
 32 73  1  0  0  0  0
 32 79  2  0  0  0  0
 33 47  1  0  0  0  0
 33 74  1  0  0  0  0
 33 80  2  0  0  0  0
 34 62  1  0  0  0  0
 34 70  1  0  0  0  0
 34 81  2  0  0  0  0
 35 63  1  0  0  0  0
 35 75  1  0  0  0  0
 35 82  2  0  0  0  0
 36 71  1  0  0  0  0
 36 76  1  0  0  0  0
 36 83  2  0  0  0  0
 37 40  1  0  0  0  0
 38 47  1  0  0  0  0
 39 70  1  0  0  0  0
 40 42  1  0  0  0  0
 41 43  1  0  0  0  0
 41 44  1  0  0  0  0
 42 46  1  0  0  0  0
 43 48  1  0  0  0  0
 44 71  1  0  0  0  0
 45 48  1  0  0  0  0
 45 71  1  0  0  0  0
 46 74  1  0  0  0  0
 47 70  1  0  0  0  0
 48 69  1  0  0  0  0
 49 63  1  0  0  0  0
 50 64  1  0  0  0  0
 51 65  1  0  0  0  0
 52 65  1  0  0  0  0
 53 66  1  0  0  0  0
 54 66  1  0  0  0  0
 55 66  1  0  0  0  0
 56 77  1  0  0  0  0
 57 78  1  0  0  0  0
 58 76  1  0  0  0  0
 59 61  1  0  0  0  0
 59 64  1  0  0  0  0
 60 64  1  0  0  0  0
 60 85  1  0  0  0  0
 61 77  1  0  0  0  0
 62 66  1  0  0  0  0
 62 75  1  0  0  0  0
 63 78  1  0  0  0  0
 65 68  1  0  0  0  0
 67 69  1  0  0  0  0
M  CHG  2  77   1  78   1
M  ISO  4  36 100  60 101  76 100  85 101
M  END
> <Batch ID>
0118

> <Smiles>
CNC(C)C(=O)NC(C(=O)N1Cc2cc([101O:1][101CH2:1]C(C)CC(NC)c3cc(C[100NH:0][100C:0](=O)N4CCCC(n5nc(-c6ccc(Oc7ccc(F)cc7F)cc6)c(C(N)=O)c5N)C4)n(C(C)C)c3)ccc2CC1C(=O)NC1CCCc2ccccc21)C(C)(C)C

> <Shape>
0.217

> <Color>
0.081

> <Negative vol penalty>
0.000

$$$$

  -OEChem-04052320183D

 84 92  0     1  0  0  0  0  0999 V2000
  -29.2454  -23.3659   18.8188 C   0  0  0  0  0  0  0  0  0  0  0  0
  -27.8806  -23.6356   18.8208 C   0  0  0  0  0  0  0  0  0  0  0  0
  -17.1738  -24.7400   20.3410 C   0  0  0  0  0  0  0  0  0  0  0  0
  -27.4816  -15.1222   21.8090 C   0  0  0  0  0  0  0  0  0  0  0  0
  -26.1927  -15.7193   19.8547 C   0  0  0  0  0  0  0  0  0  0  0  0
  -30.0613  -23.8970   19.8169 C   0  0  0  0  0  0  0  0  0  0  0  0
  -27.3307  -24.4359   19.8216 C   0  0  0  0  0  0  0  0  0  0  0  0
  -22.6716  -28.3688   19.2460 C   0  0  0  0  0  0  0  0  0  0  0  0
  -27.0306  -13.8064   21.7045 C   0  0  0  0  0  0  0  0  0  0  0  0
  -25.7417  -14.4035   19.7501 C   0  0  0  0  0  0  0  0  0  0  0  0
  -21.3131  -28.2632   19.5412 C   0  0  0  0  0  0  0  0  0  0  0  0
  -23.9667  -11.2836   19.1793 C   0  0  0  0  0  0  0  0  0  0  0  0
  -22.6090  -11.0813   18.9316 C   0  0  0  0  0  0  0  0  0  0  0  0
  -18.0630  -23.8309   20.9033 C   0  0  0  0  0  0  0  0  0  0  0  0
  -17.0791  -26.0252   20.8632 C   0  0  0  0  0  0  0  0  0  0  0  0
  -21.7012  -29.3174   21.6759 C   0  0  0  0  0  0  0  0  0  0  0  0
  -22.0628  -12.2366   20.9820 C   0  0  0  0  0  0  0  0  0  0  0  0
  -27.0625  -16.0787   20.8842 C   0  0  0  0  0  0  0  0  0  0  0  0
  -28.6792  -17.9921   20.4014 C   0  0  0  0  0  0  0  0  0  0  0  0
  -29.5227  -24.7122   20.8249 C   0  0  0  0  0  0  0  0  0  0  0  0
  -23.5583  -28.9405   20.1697 C   0  0  0  0  0  0  0  0  0  0  0  0
  -28.1399  -24.9774   20.8348 C   0  0  0  0  0  0  0  0  0  0  0  0
  -23.0700  -29.4314   21.3890 C   0  0  0  0  0  0  0  0  0  0  0  0
  -26.1608  -13.4470   20.6750 C   0  0  0  0  0  0  0  0  0  0  0  0
  -20.8281  -28.7349   20.7575 C   0  0  0  0  0  0  0  0  0  0  0  0
  -24.3725  -11.9624   20.3284 C   0  0  0  0  0  0  0  0  0  0  0  0
  -21.6571  -11.5578   19.8329 C   0  0  0  0  0  0  0  0  0  0  0  0
  -23.4205  -12.4389   21.2297 C   0  0  0  0  0  0  0  0  0  0  0  0
  -27.5276  -17.4382   20.9920 C   0  0  0  0  0  0  0  0  0  0  0  0
  -18.8290  -24.2529   21.9780 C   0  0  0  0  0  0  0  0  0  0  0  0
  -17.8890  -26.3489   21.9398 C   0  0  0  0  0  0  0  0  0  0  0  0
  -28.6743  -19.3050   20.8047 C   0  0  0  0  0  0  0  0  0  0  0  0
  -29.6652  -17.3750   19.5632 C   0  0  0  0  0  0  0  0  0  0  0  0
  -26.0933  -27.9040   21.7832 C   0  0  0  0  0  0  0  0  0  0  0  0
  -26.3016  -31.0121   22.6878 C   0  0  0  0  0  0  0  0  0  0  0  0
  -24.7261  -34.0004   23.1721 C   0  0  0  0  0  0  0  0  0  0  0  0
  -24.3106  -23.0237   22.5315 C   0  0  0  0  0  0  0  0  0  0  0  0
  -30.4366  -25.2249   21.9096 C   0  0  0  0  0  0  0  0  0  0  0  0
  -25.0166  -29.0712   19.8251 C   0  0  0  0  0  0  0  0  0  0  0  0
  -23.9773  -30.0721   22.4064 C   0  0  0  0  0  0  0  0  0  0  0  0
  -29.8363  -26.3703   22.7208 C   0  0  0  0  0  0  0  0  0  0  0  0
  -27.2094  -22.1157   24.3888 C   0  0  0  0  0  0  0  0  0  0  0  0
  -28.4016  -26.0446   23.1236 C   0  0  0  0  0  0  0  0  0  0  0  0
  -27.7235  -20.8639   23.6755 C   0  0  0  0  0  0  0  0  0  0  0  0
  -25.6833  -22.1678   24.4076 C   0  0  0  0  0  0  0  0  0  0  0  0
  -25.5569  -20.7836   22.3724 C   0  0  0  0  0  0  0  0  0  0  0  0
  -27.5101  -25.8614   21.8894 C   0  0  1  0  0  0  0  0  0  0  0  0
  -25.9112  -29.2048   21.0536 C   0  0  1  0  0  0  0  0  0  0  0  0
  -27.0908  -20.7146   22.2789 C   0  0  2  0  0  0  0  0  0  0  0  0
  -17.3420  -27.6963   23.9933 C   0  0  0  0  0  0  0  0  0  0  0  0
  -25.1500  -36.3468   23.9545 C   0  0  0  0  0  0  0  0  0  0  0  0
  -26.3445  -30.0377   25.5790 C   0  0  0  0  0  0  0  0  0  0  0  0
  -25.8119  -32.3749   26.3014 C   0  0  0  0  0  0  0  0  0  0  0  0
  -27.9363  -31.9016   25.0825 C   0  0  0  0  0  0  0  0  0  0  0  0
  -23.9528  -35.1376   20.5515 C   0  0  0  0  0  0  0  0  0  0  0  0
  -19.7945  -23.3040   22.6062 C   0  0  0  0  0  0  0  0  0  0  0  0
  -22.9872  -23.7541   20.5631 C   0  0  0  0  0  0  0  0  0  0  0  0
  -21.5178  -23.4636   20.8053 C   0  0  0  0  0  0  0  0  0  0  0  0
  -19.1485  -28.4924   22.4236 C   0  0  0  0  0  0  0  0  0  1  0  0
  -17.8127  -27.7453   22.5370 C   0  0  1  0  0  0  0  0  0  0  0  0
  -25.7443  -31.8344   23.8246 C   0  0  1  0  0  0  0  0  0  0  0  0
  -25.0951  -35.4128   22.7556 C   0  0  2  0  0  0  0  0  0  0  0  0
  -26.4422  -31.5234   25.1787 C   0  0  0  0  0  0  0  0  0  0  0  0
  -26.8410  -18.3265   21.7155 N   0  0  0  0  0  0  0  0  0  0  0  0
  -18.7647  -25.4929   22.5126 N   0  0  0  0  0  0  0  0  0  0  0  0
  -27.5634  -19.4519   21.5824 N   0  0  0  0  0  0  0  0  0  0  0  0
  -25.3960  -30.1711   22.0257 N   0  0  0  0  0  0  0  0  0  0  0  0
  -25.1465  -22.0221   23.0524 N   0  0  0  0  0  0  0  0  0  0  0  0
  -29.5118  -20.3366   20.5666 N   0  0  0  0  0  0  0  0  0  0  0  0
  -29.5180  -16.0177   19.2465 N   0  0  0  0  0  0  0  0  0  0  0  0
  -27.1553  -27.1468   21.3269 N   0  0  0  0  0  0  0  0  0  0  0  0
  -25.8443  -33.2287   23.4072 N   0  0  0  0  0  0  0  0  0  0  0  0
  -23.8505  -22.8104   21.2378 N   0  0  0  0  0  0  0  0  0  0  0  0
  -24.0934  -35.9464   21.7897 N   0  3  0  0  0  0  0  0  0  0  0  0
  -21.2131  -23.5868   22.2548 N   0  3  0  0  0  0  0  0  0  0  0  0
  -30.6565  -18.0044   19.1219 O   0  0  0  0  0  0  0  0  0  0  0  0
  -25.3278  -27.6097   22.6938 O   0  0  0  0  0  0  0  0  0  0  0  0
  -27.4948  -31.1176   22.3934 O   0  0  0  0  0  0  0  0  0  0  0  0
  -23.5623  -33.6209   23.2818 O   0  0  0  0  0  0  0  0  0  0  0  0
  -24.0020  -24.0356   23.1699 O   0  0  0  0  0  0  0  0  0  0  0  0
  -25.7207  -12.1631   20.5725 O   0  0  0  0  0  0  0  0  0  0  0  0
  -19.5027  -28.6326   21.0483 O   0  0  0  0  0  0  0  0  0  1  0  0
  -20.3533  -11.3648   19.5942 F   0  0  0  0  0  0  0  0  0  0  0  0
  -23.8042  -13.0927   22.3347 F   0  0  0  0  0  0  0  0  0  0  0  0
  1  2  1  0  0  0  0
  1  6  2  0  0  0  0
  2  7  2  0  0  0  0
  3 14  1  0  0  0  0
  3 15  2  0  0  0  0
  4  9  2  0  0  0  0
  4 18  1  0  0  0  0
  5 10  1  0  0  0  0
  5 18  2  0  0  0  0
  6 20  1  0  0  0  0
  7 22  1  0  0  0  0
  8 11  2  0  0  0  0
  8 21  1  0  0  0  0
  9 24  1  0  0  0  0
 10 24  2  0  0  0  0
 11 25  1  0  0  0  0
 12 13  2  0  0  0  0
 12 26  1  0  0  0  0
 13 27  1  0  0  0  0
 14 30  2  0  0  0  0
 15 31  1  0  0  0  0
 16 23  1  0  0  0  0
 16 25  2  0  0  0  0
 17 27  2  0  0  0  0
 17 28  1  0  0  0  0
 18 29  1  0  0  0  0
 19 29  1  0  0  0  0
 19 32  2  0  0  0  0
 19 33  1  0  0  0  0
 20 22  2  0  0  0  0
 20 38  1  0  0  0  0
 21 23  2  0  0  0  0
 21 39  1  0  0  0  0
 22 47  1  0  0  0  0
 23 40  1  0  0  0  0
 24 81  1  0  0  0  0
 25 82  1  0  0  0  0
 26 28  2  0  0  0  0
 26 81  1  0  0  0  0
 27 83  1  0  0  0  0
 28 84  1  0  0  0  0
 29 64  2  0  0  0  0
 30 56  1  0  0  0  0
 30 65  1  0  0  0  0
 31 60  1  0  0  0  0
 31 65  2  0  0  0  0
 32 66  1  0  0  0  0
 32 69  1  0  0  0  0
 33 70  1  0  0  0  0
 33 76  2  0  0  0  0
 34 48  1  0  0  0  0
 34 71  1  0  0  0  0
 34 77  2  0  0  0  0
 35 61  1  0  0  0  0
 35 67  1  0  0  0  0
 35 78  2  0  0  0  0
 36 62  1  0  0  0  0
 36 72  1  0  0  0  0
 36 79  2  0  0  0  0
 37 68  1  0  0  0  0
 37 73  1  0  0  0  0
 37 80  2  0  0  0  0
 38 41  1  0  0  0  0
 39 48  1  0  0  0  0
 40 67  1  0  0  0  0
 41 43  1  0  0  0  0
 42 44  1  0  0  0  0
 42 45  1  0  0  0  0
 43 47  1  0  0  0  0
 44 49  1  0  0  0  0
 45 68  1  0  0  0  0
 46 49  1  0  0  0  0
 46 68  1  0  0  0  0
 47 71  1  0  0  0  0
 48 67  1  0  0  0  0
 49 66  1  0  0  0  0
 50 60  1  0  0  0  0
 51 62  1  0  0  0  0
 52 63  1  0  0  0  0
 53 63  1  0  0  0  0
 54 63  1  0  0  0  0
 55 74  1  0  0  0  0
 56 75  1  0  0  0  0
 57 58  1  0  0  0  0
 57 73  1  0  0  0  0
 58 75  1  0  0  0  0
 59 60  1  0  0  0  0
 59 82  1  0  0  0  0
 61 63  1  0  0  0  0
 61 72  1  0  0  0  0
 62 74  1  0  0  0  0
 64 66  1  0  0  0  0
M  CHG  2  74   1  75   1
M  ISO  4  37 100  59 101  73 100  82 101
M  END
> <Batch ID>
0118

> <Smiles>
CNC(C)C(=O)NC(C(=O)N1Cc2cc([101O:1][101CH2:1]C(C)c3cccc(CNCC[100NH:0][100C:0](=O)N4CCCC(n5nc(-c6ccc(Oc7ccc(F)cc7F)cc6)c(C(N)=O)c5N)C4)n3)ccc2CC1C(=O)NC1CCCc2ccccc21)C(C)(C)C

> <Shape>
0.280

> <Color>
0.071

> <Negative vol penalty>
0.000

$$$$

  -OEChem-04052320183D

 84 93  0     1  0  0  0  0  0999 V2000
  -20.9602  -34.7868   23.6582 C   0  0  0  0  0  0  0  0  0  0  0  0
  -22.1797  -34.2406   23.2711 C   0  0  0  0  0  0  0  0  0  0  0  0
  -24.7404  -12.7485   21.8076 C   0  0  0  0  0  0  0  0  0  0  0  0
  -25.9092  -12.3675   19.7277 C   0  0  0  0  0  0  0  0  0  0  0  0
  -19.9483  -33.9581   24.1410 C   0  0  0  0  0  0  0  0  0  0  0  0
  -22.3883  -32.8652   23.3675 C   0  0  0  0  0  0  0  0  0  0  0  0
  -25.7066  -29.3711   19.5879 C   0  0  0  0  0  0  0  0  0  0  0  0
  -24.1622  -11.4826   21.7146 C   0  0  0  0  0  0  0  0  0  0  0  0
  -25.3310  -11.1015   19.6347 C   0  0  0  0  0  0  0  0  0  0  0  0
  -27.0081  -28.8775   19.6670 C   0  0  0  0  0  0  0  0  0  0  0  0
  -25.0746   -8.2787   22.2938 C   0  0  0  0  0  0  0  0  0  0  0  0
  -25.0585   -7.4874   23.4424 C   0  0  0  0  0  0  0  0  0  0  0  0
  -26.1599  -26.7991   20.5502 C   0  0  0  0  0  0  0  0  0  0  0  0
  -29.3972  -22.7276   17.0223 C   0  0  0  0  0  0  0  0  0  0  0  0
  -22.6449   -7.4159   23.3592 C   0  0  0  0  0  0  0  0  0  0  0  0
  -31.1922  -21.8731   18.0796 C   0  0  0  0  0  0  0  0  0  0  0  0
  -25.6139  -13.1910   20.8141 C   0  0  0  0  0  0  0  0  0  0  0  0
  -27.4284  -14.8342   21.5317 C   0  0  0  0  0  0  0  0  0  0  0  0
  -20.1412  -32.5707   24.2343 C   0  0  0  0  0  0  0  0  0  0  0  0
  -24.6210  -28.5850   20.0003 C   0  0  0  0  0  0  0  0  0  0  0  0
  -21.3785  -32.0173   23.8532 C   0  0  0  0  0  0  0  0  0  0  0  0
  -24.8453  -27.2841   20.4729 C   0  0  0  0  0  0  0  0  0  0  0  0
  -24.4575  -10.6590   20.6282 C   0  0  0  0  0  0  0  0  0  0  0  0
  -27.2352  -27.5924   20.1509 C   0  0  0  0  0  0  0  0  0  0  0  0
  -23.8759   -8.6386   21.6779 C   0  0  0  0  0  0  0  0  0  0  0  0
  -30.5276  -23.0498   17.8132 C   0  0  0  0  0  0  0  0  0  0  0  0
  -23.8437   -7.0560   23.9751 C   0  0  0  0  0  0  0  0  0  0  0  0
  -22.6611   -8.2072   22.2106 C   0  0  0  0  0  0  0  0  0  0  0  0
  -26.2110  -14.4988   20.9093 C   0  0  0  0  0  0  0  0  0  0  0  0
  -29.4054  -21.3637   16.8296 C   0  0  0  0  0  0  0  0  0  0  0  0
  -27.5456  -16.1903   21.3482 C   0  0  0  0  0  0  0  0  0  0  0  0
  -28.3691  -13.9950   22.2146 C   0  0  0  0  0  0  0  0  0  0  0  0
  -22.3877  -28.8464   22.2469 C   0  0  0  0  0  0  0  0  0  0  0  0
  -21.1996  -26.1831   20.8265 C   0  0  0  0  0  0  0  0  0  0  0  0
  -21.7783  -23.4157   18.9151 C   0  0  0  0  0  0  0  0  0  0  0  0
  -26.3837  -20.2866   17.4258 C   0  0  0  0  0  0  0  0  0  0  0  0
  -19.0345  -31.7208   24.8066 C   0  0  0  0  0  0  0  0  0  0  0  0
  -23.2210  -29.1222   19.8836 C   0  0  0  0  0  0  0  0  0  0  0  0
  -23.7125  -26.3925   20.9092 C   0  0  0  0  0  0  0  0  0  0  0  0
  -19.2039  -30.2300   24.5253 C   0  0  0  0  0  0  0  0  0  0  0  0
  -24.3850  -19.8561   20.3406 C   0  0  0  0  0  0  0  0  0  0  0  0
  -20.6346  -29.7904   24.8195 C   0  0  0  0  0  0  0  0  0  0  0  0
  -24.7652  -18.4619   20.8423 C   0  0  0  0  0  0  0  0  0  0  0  0
  -30.2905  -18.5223   18.5535 C   0  0  0  0  0  0  0  0  0  0  0  0
  -31.7298  -18.9191   18.6570 C   0  0  0  0  0  0  0  0  0  0  0  0
  -24.3656  -19.9211   18.8151 C   0  0  0  0  0  0  0  0  0  0  0  0
  -25.9859  -18.0705   18.6616 C   0  0  0  0  0  0  0  0  0  0  0  0
  -21.6342  -30.5272   23.9197 C   0  0  1  0  0  0  0  0  0  0  0  0
  -22.2335  -28.4237   20.8133 C   0  0  1  0  0  0  0  0  0  0  0  0
  -30.8846  -19.4580   17.5267 C   0  0  0  0  0  0  0  0  0  0  0  0
  -26.0735  -17.9703   20.1941 C   0  0  2  0  0  0  0  0  0  0  0  0
  -20.6198  -21.4075   17.9547 C   0  0  0  0  0  0  0  0  0  0  0  0
  -21.2204  -24.8594   23.5756 C   0  0  0  0  0  0  0  0  0  0  0  0
  -20.9800  -22.6443   22.4338 C   0  0  0  0  0  0  0  0  0  0  0  0
  -19.1928  -24.3683   22.1966 C   0  0  0  0  0  0  0  0  0  0  0  0
  -22.3836  -24.2489   16.1405 C   0  0  0  0  0  0  0  0  0  0  0  0
  -28.4600  -20.5072   16.0843 C   0  0  0  0  0  0  0  0  0  0  0  0
  -30.5038  -26.5349   19.0067 C   0  0  0  0  0  0  0  0  0  0  0  0
  -29.4453  -27.5938   19.2728 C   0  0  0  0  0  0  0  0  0  1  0  0
  -29.8970  -25.2436   18.4808 C   0  0  0  0  0  0  0  0  0  0  0  0
  -21.3982  -24.6972   21.0050 C   0  0  1  0  0  0  0  0  0  0  0  0
  -21.0421  -22.8486   17.7148 C   0  0  2  0  0  0  0  0  0  0  0  0
  -20.7196  -24.1596   22.2964 C   0  0  0  0  0  0  0  0  0  0  0  0
  -25.5986  -15.5566   20.3708 N   0  0  0  0  0  0  0  0  0  0  0  0
  -30.5008  -20.8547   17.4770 N   0  0  0  0  0  0  0  0  0  0  0  0
  -26.4345  -16.5700   20.6543 N   0  0  0  0  0  0  0  0  0  0  0  0
  -22.3623  -26.9654   20.7819 N   0  0  0  0  0  0  0  0  0  0  0  0
  -25.6355  -19.4429   18.2632 N   0  0  0  0  0  0  0  0  0  0  0  0
  -28.4897  -17.0831   21.7143 N   0  0  0  0  0  0  0  0  0  0  0  0
  -28.0938  -12.6242   22.3119 N   0  0  0  0  0  0  0  0  0  0  0  0
  -21.6361  -29.9538   22.5909 N   0  0  0  0  0  0  0  0  0  0  0  0
  -20.9234  -24.0714   19.7756 N   0  0  0  0  0  0  0  0  0  0  0  0
  -27.5778  -19.7579   16.9510 N   0  0  0  0  0  0  0  0  0  0  0  0
  -21.9136  -22.8880   16.5065 N   0  3  0  0  0  0  0  0  0  0  0  0
  -29.4145  -14.4499   22.7377 O   0  0  0  0  0  0  0  0  0  0  0  0
  -23.1322  -28.2138   22.9867 O   0  0  0  0  0  0  0  0  0  0  0  0
  -20.0554  -26.6322   20.7230 O   0  0  0  0  0  0  0  0  0  0  0  0
  -22.9900  -23.2864   19.0754 O   0  0  0  0  0  0  0  0  0  0  0  0
  -26.0175  -21.4286   17.1279 O   0  0  0  0  0  0  0  0  0  0  0  0
  -23.8936   -9.4236   20.5372 O   0  0  0  0  0  0  0  0  0  0  0  0
  -28.5046  -27.1085   20.2298 O   0  0  0  0  0  0  0  0  0  1  0  0
  -30.9226  -24.2866   18.2525 O   0  0  0  0  0  0  0  0  0  0  0  0
  -23.8284   -6.2949   25.0772 F   0  0  0  0  0  0  0  0  0  0  0  0
  -21.5063   -8.5488   21.6227 F   0  0  0  0  0  0  0  0  0  0  0  0
  1  2  1  0  0  0  0
  1  5  2  0  0  0  0
  2  6  2  0  0  0  0
  3  8  2  0  0  0  0
  3 17  1  0  0  0  0
  4  9  1  0  0  0  0
  4 17  2  0  0  0  0
  5 19  1  0  0  0  0
  6 21  1  0  0  0  0
  7 10  2  0  0  0  0
  7 20  1  0  0  0  0
  8 23  1  0  0  0  0
  9 23  2  0  0  0  0
 10 24  1  0  0  0  0
 11 12  2  0  0  0  0
 11 25  1  0  0  0  0
 12 27  1  0  0  0  0
 13 22  1  0  0  0  0
 13 24  2  0  0  0  0
 14 26  1  0  0  0  0
 14 30  2  0  0  0  0
 15 27  2  0  0  0  0
 15 28  1  0  0  0  0
 16 26  2  0  0  0  0
 16 65  1  0  0  0  0
 17 29  1  0  0  0  0
 18 29  1  0  0  0  0
 18 31  2  0  0  0  0
 18 32  1  0  0  0  0
 19 21  2  0  0  0  0
 19 37  1  0  0  0  0
 20 22  2  0  0  0  0
 20 38  1  0  0  0  0
 21 48  1  0  0  0  0
 22 39  1  0  0  0  0
 23 80  1  0  0  0  0
 24 81  1  0  0  0  0
 25 28  2  0  0  0  0
 25 80  1  0  0  0  0
 26 82  1  0  0  0  0
 27 83  1  0  0  0  0
 28 84  1  0  0  0  0
 29 64  2  0  0  0  0
 30 57  1  0  0  0  0
 30 65  1  0  0  0  0
 31 66  1  0  0  0  0
 31 69  1  0  0  0  0
 32 70  1  0  0  0  0
 32 75  2  0  0  0  0
 33 49  1  0  0  0  0
 33 71  1  0  0  0  0
 33 76  2  0  0  0  0
 34 61  1  0  0  0  0
 34 67  1  0  0  0  0
 34 77  2  0  0  0  0
 35 62  1  0  0  0  0
 35 72  1  0  0  0  0
 35 78  2  0  0  0  0
 36 68  1  0  0  0  0
 36 73  1  0  0  0  0
 36 79  2  0  0  0  0
 37 40  1  0  0  0  0
 38 49  1  0  0  0  0
 39 67  1  0  0  0  0
 40 42  1  0  0  0  0
 41 43  1  0  0  0  0
 41 46  1  0  0  0  0
 42 48  1  0  0  0  0
 43 51  1  0  0  0  0
 44 45  1  0  0  0  0
 44 50  1  0  0  0  0
 45 50  1  0  0  0  0
 46 68  1  0  0  0  0
 47 51  1  0  0  0  0
 47 68  1  0  0  0  0
 48 71  1  0  0  0  0
 49 67  1  0  0  0  0
 50 65  1  0  0  0  0
 51 66  1  0  0  0  0
 52 62  1  0  0  0  0
 53 63  1  0  0  0  0
 54 63  1  0  0  0  0
 55 63  1  0  0  0  0
 56 74  1  0  0  0  0
 57 73  1  0  0  0  0
 58 59  1  0  0  0  0
 58 60  1  0  0  0  0
 59 81  1  0  0  0  0
 60 82  1  0  0  0  0
 61 63  1  0  0  0  0
 61 72  1  0  0  0  0
 62 74  1  0  0  0  0
 64 66  1  0  0  0  0
M  CHG  1  74   1
M  ISO  4  36 100  59 101  73 100  81 101
M  END
> <Batch ID>
0118

> <Smiles>
CNC(C)C(=O)NC(C(=O)N1Cc2cc([101O:1][101CH2:1]CCOc3cc(C[100NH:0][100C:0](=O)N4CCCC(n5nc(-c6ccc(Oc7ccc(F)cc7F)cc6)c(C(N)=O)c5N)C4)n(C4CC4)c3)ccc2CC1C(=O)NC1CCCc2ccccc21)C(C)(C)C

> <Shape>
0.218

> <Color>
0.089

> <Negative vol penalty>
0.000

$$$$

  -OEChem-04052320183D

 85 94  0     1  0  0  0  0  0999 V2000
  -29.6374  -36.7229   25.1671 C   0  0  0  0  0  0  0  0  0  0  0  0
  -29.9788  -35.5921   24.4322 C   0  0  0  0  0  0  0  0  0  0  0  0
  -26.7170  -12.6364   21.4589 C   0  0  0  0  0  0  0  0  0  0  0  0
  -25.9466  -13.8080   19.4915 C   0  0  0  0  0  0  0  0  0  0  0  0
  -28.5421  -36.6883   26.0291 C   0  0  0  0  0  0  0  0  0  0  0  0
  -29.2256  -34.4255   24.5597 C   0  0  0  0  0  0  0  0  0  0  0  0
  -27.9824  -30.3469   20.1637 C   0  0  0  0  0  0  0  0  0  0  0  0
  -26.0075  -11.5030   21.0619 C   0  0  0  0  0  0  0  0  0  0  0  0
  -25.2371  -12.6746   19.0944 C   0  0  0  0  0  0  0  0  0  0  0  0
  -28.5556  -29.1196   19.8335 C   0  0  0  0  0  0  0  0  0  0  0  0
  -22.8060  -10.4210   21.1228 C   0  0  0  0  0  0  0  0  0  0  0  0
  -22.0558   -9.7545   22.0916 C   0  0  0  0  0  0  0  0  0  0  0  0
  -26.8530  -27.9871   21.1134 C   0  0  0  0  0  0  0  0  0  0  0  0
  -23.3556   -7.7520   21.7205 C   0  0  0  0  0  0  0  0  0  0  0  0
  -29.6064  -23.1305   17.4402 C   0  0  0  0  0  0  0  0  0  0  0  0
  -26.6865  -13.7889   20.6738 C   0  0  0  0  0  0  0  0  0  0  0  0
  -28.7484  -15.2886   20.7583 C   0  0  0  0  0  0  0  0  0  0  0  0
  -27.7693  -35.5237   26.1600 C   0  0  0  0  0  0  0  0  0  0  0  0
  -26.8447  -30.4042   20.9815 C   0  0  0  0  0  0  0  0  0  0  0  0
  -28.1197  -34.3748   25.4253 C   0  0  0  0  0  0  0  0  0  0  0  0
  -26.2659  -29.2163   21.4503 C   0  0  0  0  0  0  0  0  0  0  0  0
  -28.6935  -22.1737   19.3793 C   0  0  0  0  0  0  0  0  0  0  0  0
  -29.2276  -23.2283   20.1160 C   0  0  0  0  0  0  0  0  0  0  0  0
  -28.8747  -22.1007   18.0142 C   0  0  0  0  0  0  0  0  0  0  0  0
  -25.2676  -11.5221   19.8796 C   0  0  0  0  0  0  0  0  0  0  0  0
  -27.9926  -27.9396   20.3108 C   0  0  0  0  0  0  0  0  0  0  0  0
  -23.8309   -9.7530   20.4527 C   0  0  0  0  0  0  0  0  0  0  0  0
  -22.3306   -8.4200   22.3905 C   0  0  0  0  0  0  0  0  0  0  0  0
  -24.1058   -8.4185   20.7516 C   0  0  0  0  0  0  0  0  0  0  0  0
  -27.4187  -14.9602   21.0837 C   0  0  0  0  0  0  0  0  0  0  0  0
  -29.9410  -24.2043   19.4634 C   0  0  0  0  0  0  0  0  0  0  0  0
  -28.9689  -16.4900   21.3864 C   0  0  0  0  0  0  0  0  0  0  0  0
  -29.6992  -14.5718   19.9597 C   0  0  0  0  0  0  0  0  0  0  0  0
  -26.1881  -31.6611   23.8262 C   0  0  0  0  0  0  0  0  0  0  0  0
  -23.1667  -30.7233   23.1093 C   0  0  0  0  0  0  0  0  0  0  0  0
  -21.1224  -28.6414   21.3392 C   0  0  0  0  0  0  0  0  0  0  0  0
  -27.2443  -21.6299   22.7169 C   0  0  0  0  0  0  0  0  0  0  0  0
  -26.6229  -35.5196   27.1399 C   0  0  0  0  0  0  0  0  0  0  0  0
  -26.2228  -31.7346   21.3064 C   0  0  0  0  0  0  0  0  0  0  0  0
  -25.0326  -29.2224   22.3149 C   0  0  0  0  0  0  0  0  0  0  0  0
  -27.9833  -21.2201   20.2840 C   0  0  0  0  0  0  0  0  0  0  0  0
  -28.8947  -23.0864   21.5581 C   0  0  0  0  0  0  0  0  0  0  0  0
  -25.6515  -34.3598   26.9360 C   0  0  0  0  0  0  0  0  0  0  0  0
  -26.2605  -18.9694   24.8363 C   0  0  0  0  0  0  0  0  0  0  0  0
  -26.4133  -33.0502   26.7591 C   0  0  0  0  0  0  0  0  0  0  0  0
  -26.5411  -17.7134   24.0166 C   0  0  0  0  0  0  0  0  0  0  0  0
  -25.7511  -20.0933   23.9447 C   0  0  0  0  0  0  0  0  0  0  0  0
  -27.0220  -19.2042   22.0056 C   0  0  0  0  0  0  0  0  0  0  0  0
  -27.3124  -33.0983   25.5178 C   0  0  1  0  0  0  0  0  0  0  0  0
  -25.3667  -31.7016   22.5687 C   0  0  1  0  0  0  0  0  0  0  0  0
  -27.5139  -18.0243   22.8690 C   0  0  2  0  0  0  0  0  0  0  0  0
  -29.4304  -20.1612   16.5032 C   0  0  0  0  0  0  0  0  0  0  0  0
  -27.3060  -21.4701   16.1446 C   0  0  0  0  0  0  0  0  0  0  0  0
  -32.0684  -25.3785   20.1169 C   0  0  0  0  0  0  0  0  0  0  0  0
  -18.6999  -28.0864   20.9918 C   0  0  0  0  0  0  0  0  0  0  0  0
  -23.1229  -29.2523   25.7822 C   0  0  0  0  0  0  0  0  0  0  0  0
  -21.1278  -27.9772   24.9686 C   0  0  0  0  0  0  0  0  0  0  0  0
  -21.0043  -30.4561   25.2191 C   0  0  0  0  0  0  0  0  0  0  0  0
  -21.2529  -29.3467   18.4678 C   0  0  0  0  0  0  0  0  0  0  0  0
  -29.9602  -26.7186   19.7689 C   0  0  0  0  0  0  0  0  0  1  0  0
  -28.3279  -20.9892   17.1960 C   0  0  0  0  0  0  0  0  0  0  0  0
  -30.5289  -25.3503   20.2120 C   0  0  1  0  0  0  0  0  0  0  0  0
  -22.3573  -29.4675   23.3259 C   0  0  1  0  0  0  0  0  0  0  0  0
  -19.8807  -28.9147   20.5097 C   0  0  2  0  0  0  0  0  0  0  0  0
  -21.9274  -29.2879   24.8093 C   0  0  0  0  0  0  0  0  0  0  0  0
  -30.1429  -24.1770   18.1259 N   0  0  0  0  0  0  0  0  0  0  0  0
  -26.8356  -15.8788   21.8585 N   0  0  0  0  0  0  0  0  0  0  0  0
  -27.8034  -16.7961   22.0252 N   0  0  0  0  0  0  0  0  0  0  0  0
  -24.4652  -30.5484   22.6102 N   0  0  0  0  0  0  0  0  0  0  0  0
  -28.0628  -21.8708   21.6108 N   0  0  0  0  0  0  0  0  0  0  0  0
  -26.6611  -20.3634   22.8305 N   0  0  0  0  0  0  0  0  0  0  0  0
  -30.0442  -17.3038   21.4491 N   0  0  0  0  0  0  0  0  0  0  0  0
  -29.3080  -13.3533   19.3882 N   0  0  0  0  0  0  0  0  0  0  0  0
  -26.5270  -32.9075   24.3173 N   0  0  0  0  0  0  0  0  0  0  0  0
  -21.2443  -29.5318   22.3848 N   0  0  0  0  0  0  0  0  0  0  0  0
  -20.1317  -28.5865   19.0779 N   0  3  0  0  0  0  0  0  0  0  0  0
  -30.8665  -14.9910   19.7723 O   0  0  0  0  0  0  0  0  0  0  0  0
  -26.4906  -30.5791   24.3157 O   0  0  0  0  0  0  0  0  0  0  0  0
  -22.6628  -31.8194   23.3666 O   0  0  0  0  0  0  0  0  0  0  0  0
  -21.9039  -27.7269   21.0870 O   0  0  0  0  0  0  0  0  0  0  0  0
  -27.0040  -22.5225   23.5404 O   0  0  0  0  0  0  0  0  0  0  0  0
  -24.5753  -10.4163   19.4917 O   0  0  0  0  0  0  0  0  0  0  0  0
  -28.5541  -26.7324   19.9885 O   0  0  0  0  0  0  0  0  0  1  0  0
  -21.6112   -7.7806   23.3220 F   0  0  0  0  0  0  0  0  0  0  0  0
  -25.0900   -7.7719   20.1121 F   0  0  0  0  0  0  0  0  0  0  0  0
  1  2  1  0  0  0  0
  1  5  2  0  0  0  0
  2  6  2  0  0  0  0
  3  8  2  0  0  0  0
  3 16  1  0  0  0  0
  4  9  1  0  0  0  0
  4 16  2  0  0  0  0
  5 18  1  0  0  0  0
  6 20  1  0  0  0  0
  7 10  2  0  0  0  0
  7 19  1  0  0  0  0
  8 25  1  0  0  0  0
  9 25  2  0  0  0  0
 10 26  1  0  0  0  0
 11 12  2  0  0  0  0
 11 27  1  0  0  0  0
 12 28  1  0  0  0  0
 13 21  1  0  0  0  0
 13 26  2  0  0  0  0
 14 28  2  0  0  0  0
 14 29  1  0  0  0  0
 15 24  1  0  0  0  0
 15 66  2  0  0  0  0
 16 30  1  0  0  0  0
 17 30  1  0  0  0  0
 17 32  2  0  0  0  0
 17 33  1  0  0  0  0
 18 20  2  0  0  0  0
 18 38  1  0  0  0  0
 19 21  2  0  0  0  0
 19 39  1  0  0  0  0
 20 49  1  0  0  0  0
 21 40  1  0  0  0  0
 22 23  1  0  0  0  0
 22 24  2  0  0  0  0
 22 41  1  0  0  0  0
 23 31  2  0  0  0  0
 23 42  1  0  0  0  0
 24 61  1  0  0  0  0
 25 82  1  0  0  0  0
 26 83  1  0  0  0  0
 27 29  2  0  0  0  0
 27 82  1  0  0  0  0
 28 84  1  0  0  0  0
 29 85  1  0  0  0  0
 30 67  2  0  0  0  0
 31 62  1  0  0  0  0
 31 66  1  0  0  0  0
 32 68  1  0  0  0  0
 32 72  1  0  0  0  0
 33 73  1  0  0  0  0
 33 77  2  0  0  0  0
 34 50  1  0  0  0  0
 34 74  1  0  0  0  0
 34 78  2  0  0  0  0
 35 63  1  0  0  0  0
 35 69  1  0  0  0  0
 35 79  2  0  0  0  0
 36 64  1  0  0  0  0
 36 75  1  0  0  0  0
 36 80  2  0  0  0  0
 37 70  1  0  0  0  0
 37 71  1  0  0  0  0
 37 81  2  0  0  0  0
 38 43  1  0  0  0  0
 39 50  1  0  0  0  0
 40 69  1  0  0  0  0
 41 70  1  0  0  0  0
 42 70  1  0  0  0  0
 43 45  1  0  0  0  0
 44 46  1  0  0  0  0
 44 47  1  0  0  0  0
 45 49  1  0  0  0  0
 46 51  1  0  0  0  0
 47 71  1  0  0  0  0
 48 51  1  0  0  0  0
 48 71  1  0  0  0  0
 49 74  1  0  0  0  0
 50 69  1  0  0  0  0
 51 68  1  0  0  0  0
 52 61  1  0  0  0  0
 53 61  1  0  0  0  0
 54 62  1  0  0  0  0
 55 64  1  0  0  0  0
 56 65  1  0  0  0  0
 57 65  1  0  0  0  0
 58 65  1  0  0  0  0
 59 76  1  0  0  0  0
 60 62  1  0  0  0  0
 60 83  1  0  0  0  0
 63 65  1  0  0  0  0
 63 75  1  0  0  0  0
 64 76  1  0  0  0  0
 67 68  1  0  0  0  0
M  CHG  1  76   1
M  ISO  4  37 100  60 101  70 100  83 101
M  END
> <Batch ID>
0118

> <Smiles>
CNC(C)C(=O)NC(C(=O)N1Cc2cc([101O:1][101CH2:1]C(C)c3ncc(C(C)C)c4c3C[100N:0]([100C:0](=O)N3CCCC(n5nc(-c6ccc(Oc7ccc(F)cc7F)cc6)c(C(N)=O)c5N)C3)C4)ccc2CC1C(=O)NC1CCCc2ccccc21)C(C)(C)C

> <Shape>
0.302

> <Color>
0.088

> <Negative vol penalty>
0.000

$$$$

  -OEChem-04052320183D

 83 91  0     1  0  0  0  0  0999 V2000
  -17.8337  -28.0031   23.0677 C   0  0  0  0  0  0  0  0  0  0  0  0
  -18.6667  -26.9008   23.2302 C   0  0  0  0  0  0  0  0  0  0  0  0
  -22.9895  -10.1552   21.7408 C   0  0  0  0  0  0  0  0  0  0  0  0
  -24.6344  -10.6445   23.4414 C   0  0  0  0  0  0  0  0  0  0  0  0
  -18.2885  -29.1226   22.3721 C   0  0  0  0  0  0  0  0  0  0  0  0
  -19.9547  -26.9169   22.6961 C   0  0  0  0  0  0  0  0  0  0  0  0
  -24.9627  -24.3234   25.0835 C   0  0  0  0  0  0  0  0  0  0  0  0
  -22.3948   -9.2181   22.5856 C   0  0  0  0  0  0  0  0  0  0  0  0
  -24.0397   -9.7074   24.2863 C   0  0  0  0  0  0  0  0  0  0  0  0
  -25.6118  -23.1183   24.8188 C   0  0  0  0  0  0  0  0  0  0  0  0
  -22.9720   -6.0386   23.5767 C   0  0  0  0  0  0  0  0  0  0  0  0
  -22.6225   -4.8039   23.0299 C   0  0  0  0  0  0  0  0  0  0  0  0
  -27.1332  -24.2689   23.3421 C   0  0  0  0  0  0  0  0  0  0  0  0
  -20.3114   -5.2003   23.6121 C   0  0  0  0  0  0  0  0  0  0  0  0
  -24.1093  -10.8684   22.1687 C   0  0  0  0  0  0  0  0  0  0  0  0
  -24.1267  -12.9862   20.7466 C   0  0  0  0  0  0  0  0  0  0  0  0
  -19.5861  -29.1562   21.8375 C   0  0  0  0  0  0  0  0  0  0  0  0
  -25.3879  -25.5106   24.4700 C   0  0  0  0  0  0  0  0  0  0  0  0
  -20.4268  -28.0374   21.9915 C   0  0  0  0  0  0  0  0  0  0  0  0
  -26.4894  -25.4883   23.6027 C   0  0  0  0  0  0  0  0  0  0  0  0
  -22.9199   -8.9942   23.8584 C   0  0  0  0  0  0  0  0  0  0  0  0
  -26.6954  -23.0904   23.9458 C   0  0  0  0  0  0  0  0  0  0  0  0
  -21.9913   -6.8541   24.1413 C   0  0  0  0  0  0  0  0  0  0  0  0
  -21.2922   -4.3848   23.0475 C   0  0  0  0  0  0  0  0  0  0  0  0
  -20.6610   -6.4350   24.1590 C   0  0  0  0  0  0  0  0  0  0  0  0
  -24.7244  -11.8362   21.2962 C   0  0  0  0  0  0  0  0  0  0  0  0
  -25.1209  -13.5644   19.9958 C   0  0  0  0  0  0  0  0  0  0  0  0
  -22.7922  -13.4871   20.9011 C   0  0  0  0  0  0  0  0  0  0  0  0
  -30.9109  -14.4865   20.6356 C   0  0  0  0  0  0  0  0  0  0  0  0
  -24.0639  -27.6060   22.4800 C   0  0  0  0  0  0  0  0  0  0  0  0
  -26.8078  -29.2532   23.0091 C   0  0  0  0  0  0  0  0  0  0  0  0
  -30.0945  -29.1892   23.9259 C   0  0  0  0  0  0  0  0  0  0  0  0
  -20.0166  -30.3700   21.0526 C   0  0  0  0  0  0  0  0  0  0  0  0
  -24.6938  -26.8069   24.7867 C   0  0  0  0  0  0  0  0  0  0  0  0
  -26.9977  -26.7385   22.9341 C   0  0  0  0  0  0  0  0  0  0  0  0
  -21.5260  -30.4545   20.8408 C   0  0  0  0  0  0  0  0  0  0  0  0
  -29.6435  -11.8162   18.5360 C   0  0  0  0  0  0  0  0  0  0  0  0
  -22.0776  -29.1069   20.3863 C   0  0  0  0  0  0  0  0  0  0  0  0
  -28.2811  -11.6127   19.2069 C   0  0  0  0  0  0  0  0  0  0  0  0
  -31.9925  -15.1733   22.7606 C   0  0  0  0  0  0  0  0  0  0  0  0
  -30.1692  -13.2466   18.6293 C   0  0  0  0  0  0  0  0  0  0  0  0
  -28.4873  -13.8321   20.3789 C   0  0  0  0  0  0  0  0  0  0  0  0
  -31.5098  -15.6363   24.1273 C   0  0  0  0  0  0  0  0  0  0  0  0
  -29.6272  -15.2999   22.6088 C   0  0  0  0  0  0  0  0  0  0  0  0
  -21.8392  -28.0267   21.4482 C   0  0  1  0  0  0  0  0  0  0  0  0
  -24.8889  -27.8681   23.7082 C   0  0  1  0  0  0  0  0  0  0  0  0
  -27.5802  -12.9453   19.5076 C   0  0  2  0  0  0  0  0  0  0  0  0
  -30.8009  -14.4505   22.1339 C   0  0  1  0  0  0  0  0  0  0  0  0
  -30.6949  -12.9965   22.5997 C   0  0  0  0  0  0  0  0  0  0  0  0
  -32.0852  -30.6872   24.2266 C   0  0  0  0  0  0  0  0  0  0  0  0
  -27.1934  -15.7840   25.0890 C   0  0  0  0  0  0  0  0  0  0  0  0
  -27.1739  -29.3701   19.9822 C   0  0  0  0  0  0  0  0  0  0  0  0
  -29.5660  -30.0017   20.3658 C   0  0  0  0  0  0  0  0  0  0  0  0
  -27.7384  -31.4895   21.1839 C   0  0  0  0  0  0  0  0  0  0  0  0
  -30.2971  -28.5357   26.8053 C   0  0  0  0  0  0  0  0  0  0  0  0
  -27.1551  -18.2661   24.6887 C   0  0  0  0  0  0  0  0  0  0  0  0
  -29.3740  -16.9366   24.5086 C   0  0  0  0  0  0  0  0  0  0  0  0
  -26.8335  -20.7493   24.3408 C   0  0  0  0  0  0  0  0  0  1  0  0
  -28.1713  -29.2950   22.3624 C   0  0  1  0  0  0  0  0  0  0  0  0
  -30.8848  -30.0422   24.9017 C   0  0  2  0  0  0  0  0  0  0  0  0
  -27.8511  -16.9365   24.3183 C   0  0  1  0  0  0  0  0  0  0  0  0
  -27.6493  -19.5171   23.9481 C   0  0  2  0  0  0  0  0  0  0  0  0
  -28.1518  -30.0150   20.9845 C   0  0  0  0  0  0  0  0  0  0  0  0
  -25.9994  -11.6907   20.9260 N   0  0  0  0  0  0  0  0  0  0  0  0
  -26.2111  -12.7568   20.1356 N   0  0  0  0  0  0  0  0  0  0  0  0
  -29.8862  -13.8521   19.9286 N   0  0  0  0  0  0  0  0  0  0  0  0
  -26.2819  -27.9801   23.2709 N   0  0  0  0  0  0  0  0  0  0  0  0
  -25.1602  -14.6797   19.2362 N   0  0  0  0  0  0  0  0  0  0  0  0
  -22.5295  -14.3755   21.9528 N   0  0  0  0  0  0  0  0  0  0  0  0
  -22.7972  -28.1565   22.5251 N   0  0  0  0  0  0  0  0  0  0  0  0
  -29.0685  -29.9005   23.3405 N   0  0  0  0  0  0  0  0  0  0  0  0
  -29.9987  -15.6663   24.0284 N   0  3  2  0  0  0  0  0  0  0  0  0
  -27.5085  -19.3084   22.4771 N   0  3  0  0  0  0  0  0  0  0  0  0
  -31.3748  -29.2110   26.0374 N   0  3  0  0  0  0  0  0  0  0  0  0
  -21.8566  -13.1439   20.1392 O   0  0  0  0  0  0  0  0  0  0  0  0
  -31.8735  -15.0501   20.1101 O   0  0  0  0  0  0  0  0  0  0  0  0
  -24.5416  -26.9539   21.5591 O   0  0  0  0  0  0  0  0  0  0  0  0
  -26.2337  -30.3112   23.2788 O   0  0  0  0  0  0  0  0  0  0  0  0
  -30.3628  -28.0108   23.7024 O   0  0  0  0  0  0  0  0  0  0  0  0
  -22.3398   -8.0799   24.6831 O   0  0  0  0  0  0  0  0  0  0  0  0
  -27.3303  -21.9153   23.6852 O   0  0  0  0  0  0  0  0  0  1  0  0
  -20.9565   -3.1998   22.5210 F   0  0  0  0  0  0  0  0  0  0  0  0
  -19.7142   -7.2146   24.6989 F   0  0  0  0  0  0  0  0  0  0  0  0
  1  2  1  0  0  0  0
  1  5  2  0  0  0  0
  2  6  2  0  0  0  0
  3  8  2  0  0  0  0
  3 15  1  0  0  0  0
  4  9  1  0  0  0  0
  4 15  2  0  0  0  0
  5 17  1  0  0  0  0
  6 19  1  0  0  0  0
  7 10  2  0  0  0  0
  7 18  1  0  0  0  0
  8 21  1  0  0  0  0
  9 21  2  0  0  0  0
 10 22  1  0  0  0  0
 11 12  2  0  0  0  0
 11 23  1  0  0  0  0
 12 24  1  0  0  0  0
 13 20  1  0  0  0  0
 13 22  2  0  0  0  0
 14 24  2  0  0  0  0
 14 25  1  0  0  0  0
 15 26  1  0  0  0  0
 16 26  1  0  0  0  0
 16 27  2  0  0  0  0
 16 28  1  0  0  0  0
 17 19  2  0  0  0  0
 17 33  1  0  0  0  0
 18 20  2  0  0  0  0
 18 34  1  0  0  0  0
 19 45  1  0  0  0  0
 20 35  1  0  0  0  0
 21 80  1  0  0  0  0
 22 81  1  0  0  0  0
 23 25  2  0  0  0  0
 23 80  1  0  0  0  0
 24 82  1  0  0  0  0
 25 83  1  0  0  0  0
 26 64  2  0  0  0  0
 27 65  1  0  0  0  0
 27 68  1  0  0  0  0
 28 69  1  0  0  0  0
 28 75  2  0  0  0  0
 29 48  1  0  0  0  0
 29 66  1  0  0  0  0
 29 76  2  0  0  0  0
 30 46  1  0  0  0  0
 30 70  1  0  0  0  0
 30 77  2  0  0  0  0
 31 59  1  0  0  0  0
 31 67  1  0  0  0  0
 31 78  2  0  0  0  0
 32 60  1  0  0  0  0
 32 71  1  0  0  0  0
 32 79  2  0  0  0  0
 33 36  1  0  0  0  0
 34 46  1  0  0  0  0
 35 67  1  0  0  0  0
 36 38  1  0  0  0  0
 37 39  1  0  0  0  0
 37 41  1  0  0  0  0
 38 45  1  0  0  0  0
 39 47  1  0  0  0  0
 40 43  1  0  0  0  0
 40 48  1  0  0  0  0
 41 66  1  0  0  0  0
 42 47  1  0  0  0  0
 42 66  1  0  0  0  0
 43 72  1  0  0  0  0
 44 48  1  0  0  0  0
 44 72  1  0  0  0  0
 45 70  1  0  0  0  0
 46 67  1  0  0  0  0
 47 65  1  0  0  0  0
 48 49  1  0  0  0  0
 50 60  1  0  0  0  0
 51 61  1  0  0  0  0
 52 63  1  0  0  0  0
 53 63  1  0  0  0  0
 54 63  1  0  0  0  0
 55 74  1  0  0  0  0
 56 61  1  0  0  0  0
 56 62  1  0  0  0  0
 57 61  1  0  0  0  0
 57 72  1  0  0  0  0
 58 62  1  0  0  0  0
 58 81  1  0  0  0  0
 59 63  1  0  0  0  0
 59 71  1  0  0  0  0
 60 74  1  0  0  0  0
 62 73  1  0  0  0  0
 64 65  1  0  0  0  0
M  CHG  3  72   1  73   1  74   1
M  ISO  4  29 100  48 100  58 101  81 101
M  END
> <Batch ID>
0118

> <Smiles>
CNC(C)C(=O)NC(C(=O)N1Cc2cc([101O:1][101CH2:1]C(N)CC(C)CN3CC[100C:0](C)([100C:0](=O)N4CCCC(n5nc(-c6ccc(Oc7ccc(F)cc7F)cc6)c(C(N)=O)c5N)C4)C3)ccc2CC1C(=O)NC1CCCc2ccccc21)C(C)(C)C

> <Shape>
0.225

> <Color>
0.113

> <Negative vol penalty>
0.000

$$$$

  -OEChem-04052320183D

 86 94  0     1  0  0  0  0  0999 V2000
  -22.3599  -11.8619   19.0006 C   0  0  0  0  0  0  0  0  0  0  0  0
  -22.1207  -13.2305   19.0725 C   0  0  0  0  0  0  0  0  0  0  0  0
  -31.0266  -28.2437   20.7873 C   0  0  0  0  0  0  0  0  0  0  0  0
  -30.0108  -26.2608   21.7218 C   0  0  0  0  0  0  0  0  0  0  0  0
  -23.5126  -11.3258   19.5731 C   0  0  0  0  0  0  0  0  0  0  0  0
  -23.0336  -14.0637   19.7180 C   0  0  0  0  0  0  0  0  0  0  0  0
  -24.0045  -18.2845   17.0935 C   0  0  0  0  0  0  0  0  0  0  0  0
  -32.2131  -27.9533   21.4607 C   0  0  0  0  0  0  0  0  0  0  0  0
  -31.1974  -25.9703   22.3952 C   0  0  0  0  0  0  0  0  0  0  0  0
  -23.0511  -19.3004   17.1461 C   0  0  0  0  0  0  0  0  0  0  0  0
  -34.0738  -24.5126   24.0743 C   0  0  0  0  0  0  0  0  0  0  0  0
  -34.5340  -23.1963   24.0405 C   0  0  0  0  0  0  0  0  0  0  0  0
  -24.3841  -20.4580   18.7900 C   0  0  0  0  0  0  0  0  0  0  0  0
  -34.6719  -23.3064   21.6310 C   0  0  0  0  0  0  0  0  0  0  0  0
  -29.9254  -27.3975   20.9178 C   0  0  0  0  0  0  0  0  0  0  0  0
  -28.3299  -27.2774   18.9310 C   0  0  0  0  0  0  0  0  0  0  0  0
  -24.4449  -12.1542   20.2176 C   0  0  0  0  0  0  0  0  0  0  0  0
  -25.1515  -18.3424   17.8982 C   0  0  0  0  0  0  0  0  0  0  0  0
  -24.1992  -13.5380   20.3009 C   0  0  0  0  0  0  0  0  0  0  0  0
  -25.3518  -19.4428   18.7439 C   0  0  0  0  0  0  0  0  0  0  0  0
  -32.2985  -26.8166   22.2646 C   0  0  0  0  0  0  0  0  0  0  0  0
  -23.2394  -20.3859   17.9965 C   0  0  0  0  0  0  0  0  0  0  0  0
  -33.9125  -25.2258   22.8864 C   0  0  0  0  0  0  0  0  0  0  0  0
  -34.8331  -22.5932   22.8189 C   0  0  0  0  0  0  0  0  0  0  0  0
  -34.2116  -24.6227   21.6648 C   0  0  0  0  0  0  0  0  0  0  0  0
  -28.6993  -27.6972   20.2229 C   0  0  0  0  0  0  0  0  0  0  0  0
  -27.0844  -27.8224   18.7359 C   0  0  0  0  0  0  0  0  0  0  0  0
  -29.0484  -26.4671   17.9913 C   0  0  0  0  0  0  0  0  0  0  0  0
  -26.3548  -16.5381   20.2221 C   0  0  0  0  0  0  0  0  0  0  0  0
  -22.2671  -29.0071   21.7586 C   0  0  0  0  0  0  0  0  0  0  0  0
  -28.8690  -18.5720   19.9683 C   0  0  0  0  0  0  0  0  0  0  0  0
  -30.0277  -21.6444   19.0385 C   0  0  0  0  0  0  0  0  0  0  0  0
  -25.6530  -11.5227   20.8628 C   0  0  0  0  0  0  0  0  0  0  0  0
  -26.1834  -17.2516   17.8101 C   0  0  0  0  0  0  0  0  0  0  0  0
  -26.5759  -19.5624   19.6131 C   0  0  0  0  0  0  0  0  0  0  0  0
  -26.7551  -12.5230   21.2019 C   0  0  0  0  0  0  0  0  0  0  0  0
  -24.5569  -31.5639   20.7291 C   0  0  0  0  0  0  0  0  0  0  0  0
  -26.1679  -13.7513   21.8898 C   0  0  0  0  0  0  0  0  0  0  0  0
  -25.8329  -30.7910   20.3983 C   0  0  0  0  0  0  0  0  0  0  0  0
  -18.9228  -23.6086   21.6037 C   0  0  0  0  0  0  0  0  0  0  0  0
  -23.8103  -30.9339   21.9008 C   0  0  0  0  0  0  0  0  0  0  0  0
  -24.7651  -28.7118   21.3790 C   0  0  0  0  0  0  0  0  0  0  0  0
  -18.9647  -23.3796   20.0978 C   0  0  0  0  0  0  0  0  0  0  0  0
  -20.4442  -25.3927   19.8212 C   0  0  0  0  0  0  0  0  0  0  0  0
  -25.1781  -14.4777   20.9710 C   0  0  1  0  0  0  0  0  0  0  0  0
  -27.0639  -17.1603   19.0526 C   0  0  1  0  0  0  0  0  0  0  0  0
  -20.4162  -25.6364   21.3339 C   0  0  2  0  0  0  0  0  0  0  0  0
  -25.5337  -29.2971   20.1811 C   0  0  2  0  0  0  0  0  0  0  0  0
  -19.1451  -25.0712   21.9934 C   0  0  1  0  0  0  0  0  0  0  0  0
  -32.1207  -23.0279   18.9880 C   0  0  0  0  0  0  0  0  0  0  0  0
  -19.5415  -24.5918   17.3023 C   0  0  0  0  0  0  0  0  0  0  0  0
  -15.5210  -26.0963   21.7754 C   0  0  0  0  0  0  0  0  0  0  0  0
  -17.0272  -26.5744   23.7444 C   0  0  0  0  0  0  0  0  0  0  0  0
  -28.6148  -19.0619   22.9692 C   0  0  0  0  0  0  0  0  0  0  0  0
  -30.0447  -21.0976   22.6874 C   0  0  0  0  0  0  0  0  0  0  0  0
  -30.9652  -18.8439   22.1432 C   0  0  0  0  0  0  0  0  0  0  0  0
  -29.9439  -21.8730   16.0890 C   0  0  0  0  0  0  0  0  0  0  0  0
  -22.0929  -27.5318   21.4994 C   0  0  0  0  0  0  0  0  0  0  0  0
  -20.6343  -27.1213   21.6336 C   0  0  0  0  0  0  0  0  0  0  0  0
  -21.8788  -23.7079   17.6712 C   0  0  0  0  0  0  0  0  0  0  0  0
  -22.7777  -22.6897   18.3642 C   0  0  0  0  0  0  0  0  0  1  0  0
  -29.2496  -19.8862   20.6062 C   0  0  1  0  0  0  0  0  0  0  0  0
  -31.2359  -22.0595   18.2185 C   0  0  2  0  0  0  0  0  0  0  0  0
  -20.4075  -23.6086   18.0787 C   0  0  1  0  0  0  0  0  0  0  0  0
  -16.7874  -25.7057   22.5201 C   0  0  0  0  0  0  0  0  0  0  0  0
  -29.6944  -19.7195   22.0867 C   0  0  0  0  0  0  0  0  0  0  0  0
  -27.7642  -28.4510   20.8072 N   0  0  0  0  0  0  0  0  0  0  0  0
  -26.7949  -28.5091   19.8781 N   0  0  0  0  0  0  0  0  0  0  0  0
  -27.5530  -18.4674   19.4960 N   0  0  0  0  0  0  0  0  0  0  0  0
  -23.5650  -29.5099   21.6657 N   0  0  0  0  0  0  0  0  0  0  0  0
  -26.2196  -27.7766   17.7003 N   0  0  0  0  0  0  0  0  0  0  0  0
  -30.3154  -25.9892   18.3527 N   0  0  0  0  0  0  0  0  0  0  0  0
  -25.8876  -15.2601   19.9816 N   0  0  0  0  0  0  0  0  0  0  0  0
  -30.2624  -20.4816   19.7414 N   0  0  0  0  0  0  0  0  0  0  0  0
  -20.2625  -23.9152   19.5291 N   0  3  2  0  0  0  0  0  0  0  0  0
  -17.9418  -25.8609   21.5992 N   0  3  0  0  0  0  0  0  0  0  0  0
  -30.8022  -22.7212   16.9556 N   0  3  0  0  0  0  0  0  0  0  0  0
  -28.5876  -26.1890   16.8583 O   0  0  0  0  0  0  0  0  0  0  0  0
  -26.2413  -17.1701   21.2658 O   0  0  0  0  0  0  0  0  0  0  0  0
  -21.2775  -29.6912   22.0323 O   0  0  0  0  0  0  0  0  0  0  0  0
  -29.7105  -17.6739   19.8854 O   0  0  0  0  0  0  0  0  0  0  0  0
  -28.9816  -22.2894   19.0569 O   0  0  0  0  0  0  0  0  0  0  0  0
  -33.4562  -26.5328   22.9217 O   0  0  0  0  0  0  0  0  0  0  0  0
  -22.3101  -21.3786   18.0503 O   0  0  0  0  0  0  0  0  0  1  0  0
  -35.2765  -21.3297   22.7867 F   0  0  0  0  0  0  0  0  0  0  0  0
  -34.0598  -25.3032   20.5203 F   0  0  0  0  0  0  0  0  0  0  0  0
  1  2  1  0  0  0  0
  1  5  2  0  0  0  0
  2  6  2  0  0  0  0
  3  8  2  0  0  0  0
  3 15  1  0  0  0  0
  4  9  1  0  0  0  0
  4 15  2  0  0  0  0
  5 17  1  0  0  0  0
  6 19  1  0  0  0  0
  7 10  2  0  0  0  0
  7 18  1  0  0  0  0
  8 21  1  0  0  0  0
  9 21  2  0  0  0  0
 10 22  1  0  0  0  0
 11 12  2  0  0  0  0
 11 23  1  0  0  0  0
 12 24  1  0  0  0  0
 13 20  1  0  0  0  0
 13 22  2  0  0  0  0
 14 24  2  0  0  0  0
 14 25  1  0  0  0  0
 15 26  1  0  0  0  0
 16 26  1  0  0  0  0
 16 27  2  0  0  0  0
 16 28  1  0  0  0  0
 17 19  2  0  0  0  0
 17 33  1  0  0  0  0
 18 20  2  0  0  0  0
 18 34  1  0  0  0  0
 19 45  1  0  0  0  0
 20 35  1  0  0  0  0
 21 83  1  0  0  0  0
 22 84  1  0  0  0  0
 23 25  2  0  0  0  0
 23 83  1  0  0  0  0
 24 85  1  0  0  0  0
 25 86  1  0  0  0  0
 26 67  2  0  0  0  0
 27 68  1  0  0  0  0
 27 71  1  0  0  0  0
 28 72  1  0  0  0  0
 28 78  2  0  0  0  0
 29 46  1  0  0  0  0
 29 73  1  0  0  0  0
 29 79  2  0  0  0  0
 30 58  1  0  0  0  0
 30 70  1  0  0  0  0
 30 80  2  0  0  0  0
 31 62  1  0  0  0  0
 31 69  1  0  0  0  0
 31 81  2  0  0  0  0
 32 63  1  0  0  0  0
 32 74  1  0  0  0  0
 32 82  2  0  0  0  0
 33 36  1  0  0  0  0
 34 46  1  0  0  0  0
 35 69  1  0  0  0  0
 36 38  1  0  0  0  0
 37 39  1  0  0  0  0
 37 41  1  0  0  0  0
 38 45  1  0  0  0  0
 39 48  1  0  0  0  0
 40 43  1  0  0  0  0
 40 49  1  0  0  0  0
 41 70  1  0  0  0  0
 42 48  1  0  0  0  0
 42 70  1  0  0  0  0
 43 75  1  0  0  0  0
 44 47  1  0  0  0  0
 44 75  1  0  0  0  0
 45 73  1  0  0  0  0
 46 69  1  0  0  0  0
 47 49  1  0  0  0  0
 47 59  1  0  0  0  0
 48 68  1  0  0  0  0
 49 76  1  0  0  0  0
 50 63  1  0  0  0  0
 51 64  1  0  0  0  0
 52 65  1  0  0  0  0
 53 65  1  0  0  0  0
 54 66  1  0  0  0  0
 55 66  1  0  0  0  0
 56 66  1  0  0  0  0
 57 77  1  0  0  0  0
 58 59  1  0  0  0  0
 60 61  1  0  0  0  0
 60 64  1  0  0  0  0
 61 84  1  0  0  0  0
 62 66  1  0  0  0  0
 62 74  1  0  0  0  0
 63 77  1  0  0  0  0
 64 75  1  0  0  0  0
 65 76  1  0  0  0  0
 67 68  1  0  0  0  0
M  CHG  3  75   1  76   1  77   1
M  ISO  4  30 100  58 100  61 101  84 101
M  END
> <Batch ID>
0118

> <Smiles>
CNC(C)C(=O)NC(C(=O)N1Cc2cc([101O:1][101CH2:1]CC(C)N3CCC(NC(C)C)C(C[100CH2:0][100C:0](=O)N4CCCC(n5nc(-c6ccc(Oc7ccc(F)cc7F)cc6)c(C(N)=O)c5N)C4)C3)ccc2CC1C(=O)NC1CCCc2ccccc21)C(C)(C)C

> <Shape>
0.219

> <Color>
0.070

> <Negative vol penalty>
0.000

$$$$

  -OEChem-04052320183D

 91100  0     1  0  0  0  0  0999 V2000
  -16.5768  -29.2113   24.0801 C   0  0  0  0  0  0  0  0  0  0  0  0
  -16.9542  -28.7071   22.8396 C   0  0  0  0  0  0  0  0  0  0  0  0
  -27.8639  -12.2475   19.2832 C   0  0  0  0  0  0  0  0  0  0  0  0
  -26.0021  -13.2184   20.4783 C   0  0  0  0  0  0  0  0  0  0  0  0
  -17.3715  -30.1649   24.7148 C   0  0  0  0  0  0  0  0  0  0  0  0
  -18.1261  -29.1572   22.2326 C   0  0  0  0  0  0  0  0  0  0  0  0
  -24.3144  -25.1198   19.6968 C   0  0  0  0  0  0  0  0  0  0  0  0
  -27.0834  -11.1344   18.9716 C   0  0  0  0  0  0  0  0  0  0  0  0
  -25.2216  -12.1052   20.1666 C   0  0  0  0  0  0  0  0  0  0  0  0
  -25.5317  -24.5307   19.3540 C   0  0  0  0  0  0  0  0  0  0  0  0
  -24.8556   -8.9309   21.2713 C   0  0  0  0  0  0  0  0  0  0  0  0
  -24.0876   -8.3715   22.2925 C   0  0  0  0  0  0  0  0  0  0  0  0
  -26.6745  -26.6186   19.7813 C   0  0  0  0  0  0  0  0  0  0  0  0
  -22.0809   -8.7957   21.0157 C   0  0  0  0  0  0  0  0  0  0  0  0
  -27.3233  -13.2896   20.0366 C   0  0  0  0  0  0  0  0  0  0  0  0
  -28.7413  -15.3292   19.4563 C   0  0  0  0  0  0  0  0  0  0  0  0
  -18.5588  -30.6198   24.1197 C   0  0  0  0  0  0  0  0  0  0  0  0
  -24.2747  -26.4578   20.0985 C   0  0  0  0  0  0  0  0  0  0  0  0
  -18.9368  -30.1188   22.8594 C   0  0  0  0  0  0  0  0  0  0  0  0
  -25.4599  -27.2106   20.1378 C   0  0  0  0  0  0  0  0  0  0  0  0
  -25.7622  -11.0632   19.4132 C   0  0  0  0  0  0  0  0  0  0  0  0
  -26.7087  -25.2784   19.3959 C   0  0  0  0  0  0  0  0  0  0  0  0
  -24.2362   -9.4228   20.1223 C   0  0  0  0  0  0  0  0  0  0  0  0
  -22.7002   -8.3039   22.1647 C   0  0  0  0  0  0  0  0  0  0  0  0
  -22.8489   -9.3552   19.9945 C   0  0  0  0  0  0  0  0  0  0  0  0
  -28.1293  -14.4395   20.3594 C   0  0  0  0  0  0  0  0  0  0  0  0
  -29.3857  -16.2411   20.2561 C   0  0  0  0  0  0  0  0  0  0  0  0
  -28.7284  -15.3312   18.0225 C   0  0  0  0  0  0  0  0  0  0  0  0
  -22.1821  -29.3419   21.2727 C   0  0  0  0  0  0  0  0  0  0  0  0
  -24.7816  -29.4064   22.9002 C   0  0  0  0  0  0  0  0  0  0  0  0
  -27.5894  -28.8772   24.7639 C   0  0  0  0  0  0  0  0  0  0  0  0
  -28.4799  -18.0917   25.8780 C   0  0  0  0  0  0  0  0  0  0  0  0
  -19.3607  -31.6864   24.8225 C   0  0  0  0  0  0  0  0  0  0  0  0
  -22.9777  -27.1506   20.4174 C   0  0  0  0  0  0  0  0  0  0  0  0
  -25.3644  -28.6562   20.5426 C   0  0  0  0  0  0  0  0  0  0  0  0
  -20.7812  -31.8347   24.2836 C   0  0  0  0  0  0  0  0  0  0  0  0
  -31.4539  -16.6527   24.5507 C   0  0  0  0  0  0  0  0  0  0  0  0
  -20.7728  -31.8694   22.7587 C   0  0  0  0  0  0  0  0  0  0  0  0
  -27.7302  -21.3013   22.2619 C   0  0  0  0  0  0  0  0  0  0  0  0
  -29.7703  -21.5215   23.7436 C   0  0  0  0  0  0  0  0  0  0  0  0
  -30.9943  -16.0026   23.2446 C   0  0  0  0  0  0  0  0  0  0  0  0
  -28.6038  -20.7451   21.1367 C   0  0  0  0  0  0  0  0  0  0  0  0
  -30.6488  -20.9665   22.6214 C   0  0  0  0  0  0  0  0  0  0  0  0
  -30.3931  -16.5358   25.6431 C   0  0  0  0  0  0  0  0  0  0  0  0
  -28.5988  -16.3874   23.9602 C   0  0  0  0  0  0  0  0  0  0  0  0
  -25.1105  -19.1514   26.3787 C   0  0  0  0  0  0  0  0  0  0  0  0
  -20.2138  -30.5639   22.1802 C   0  0  1  0  0  0  0  0  0  0  0  0
  -23.1115  -28.1948   21.5403 C   0  0  1  0  0  0  0  0  0  0  0  0
  -28.3282  -21.0070   23.6440 C   0  0  0  0  0  0  0  0  0  0  0  0
  -26.2323  -20.7639   25.0284 C   0  0  1  0  0  0  0  0  0  0  0  0
  -29.6126  -16.5290   22.8120 C   0  0  2  0  0  0  0  0  0  0  0  0
  -26.5058  -19.5929   25.9715 C   0  0  2  0  0  0  0  0  0  0  0  0
  -30.0614  -21.1950   21.2291 C   0  0  0  0  0  0  0  0  0  0  0  0
  -25.1398  -21.5270   25.7832 C   0  0  1  0  0  0  0  0  0  0  0  0
  -28.8854  -29.8334   26.6883 C   0  0  0  0  0  0  0  0  0  0  0  0
  -23.6242  -24.0132   26.7596 C   0  0  0  0  0  0  0  0  0  0  0  0
  -22.2165  -23.8546   24.6965 C   0  0  0  0  0  0  0  0  0  0  0  0
  -25.8382  -31.6181   21.0848 C   0  0  0  0  0  0  0  0  0  0  0  0
  -27.7468  -31.9161   22.6774 C   0  0  0  0  0  0  0  0  0  0  0  0
  -25.4085  -32.3220   23.4458 C   0  0  0  0  0  0  0  0  0  0  0  0
  -27.2545  -26.4111   26.3656 C   0  0  0  0  0  0  0  0  0  0  0  0
  -27.4623  -21.6152   24.7459 C   0  0  0  0  0  0  0  0  0  0  0  0
  -24.2424  -22.3775   24.9037 C   0  0  0  0  0  0  0  0  0  0  0  0
  -30.2749  -24.4299   19.1875 C   0  0  0  0  0  0  0  0  0  0  0  0
  -30.1984  -22.9309   19.4357 C   0  0  0  0  0  0  0  0  0  0  0  0
  -29.0658  -25.1995   19.7049 C   0  0  0  0  0  0  0  0  0  1  0  0
  -26.1816  -29.9517   23.0267 C   0  0  1  0  0  0  0  0  0  0  0  0
  -27.8106  -28.8441   26.2654 C   0  0  2  0  0  0  0  0  0  0  0  0
  -23.1026  -23.0746   25.6706 C   0  0  0  0  0  0  0  0  0  0  0  0
  -26.2887  -31.4267   22.5467 C   0  0  0  0  0  0  0  0  0  0  0  0
  -28.3640  -14.7574   21.6353 N   0  0  0  0  0  0  0  0  0  0  0  0
  -29.1307  -15.8569   21.5396 N   0  0  0  0  0  0  0  0  0  0  0  0
  -24.4469  -28.7989   21.6839 N   0  0  0  0  0  0  0  0  0  0  0  0
  -29.1073  -17.0537   25.1695 N   0  0  0  0  0  0  0  0  0  0  0  0
  -30.1400  -17.3260   19.9796 N   0  0  0  0  0  0  0  0  0  0  0  0
  -28.0172  -14.3219   17.3594 N   0  0  0  0  0  0  0  0  0  0  0  0
  -21.2109  -29.5167   22.2401 N   0  0  0  0  0  0  0  0  0  0  0  0
  -26.5761  -29.7452   24.4160 N   0  0  0  0  0  0  0  0  0  0  0  0
  -27.2675  -18.5280   25.3578 N   0  0  0  0  0  0  0  0  0  0  0  0
  -24.3260  -20.4341   26.4348 N   0  3  0  0  0  0  0  0  0  0  0  0
  -30.1518  -22.6443   20.8887 N   0  3  0  0  0  0  0  0  0  0  0  0
  -28.2304  -27.4809   26.6972 N   0  3  0  0  0  0  0  0  0  0  0  0
  -29.3433  -16.1928   17.3494 O   0  0  0  0  0  0  0  0  0  0  0  0
  -22.3347  -30.0205   20.2638 O   0  0  0  0  0  0  0  0  0  0  0  0
  -24.0021  -29.5196   23.8503 O   0  0  0  0  0  0  0  0  0  0  0  0
  -28.2519  -28.2034   23.9780 O   0  0  0  0  0  0  0  0  0  0  0  0
  -28.9670  -18.5962   26.8954 O   0  0  0  0  0  0  0  0  0  0  0  0
  -25.0002   -9.9772   19.1091 O   0  0  0  0  0  0  0  0  0  0  0  0
  -27.8943  -24.6959   19.0643 O   0  0  0  0  0  0  0  0  0  1  0  0
  -21.9630   -7.7652   23.1447 F   0  0  0  0  0  0  0  0  0  0  0  0
  -22.2483   -9.8250   18.8925 F   0  0  0  0  0  0  0  0  0  0  0  0
  1  2  1  0  0  0  0
  1  5  2  0  0  0  0
  2  6  2  0  0  0  0
  3  8  2  0  0  0  0
  3 15  1  0  0  0  0
  4  9  1  0  0  0  0
  4 15  2  0  0  0  0
  5 17  1  0  0  0  0
  6 19  1  0  0  0  0
  7 10  2  0  0  0  0
  7 18  1  0  0  0  0
  8 21  1  0  0  0  0
  9 21  2  0  0  0  0
 10 22  1  0  0  0  0
 11 12  2  0  0  0  0
 11 23  1  0  0  0  0
 12 24  1  0  0  0  0
 13 20  1  0  0  0  0
 13 22  2  0  0  0  0
 14 24  2  0  0  0  0
 14 25  1  0  0  0  0
 15 26  1  0  0  0  0
 16 26  1  0  0  0  0
 16 27  2  0  0  0  0
 16 28  1  0  0  0  0
 17 19  2  0  0  0  0
 17 33  1  0  0  0  0
 18 20  2  0  0  0  0
 18 34  1  0  0  0  0
 19 47  1  0  0  0  0
 20 35  1  0  0  0  0
 21 88  1  0  0  0  0
 22 89  1  0  0  0  0
 23 25  2  0  0  0  0
 23 88  1  0  0  0  0
 24 90  1  0  0  0  0
 25 91  1  0  0  0  0
 26 71  2  0  0  0  0
 27 72  1  0  0  0  0
 27 75  1  0  0  0  0
 28 76  1  0  0  0  0
 28 83  2  0  0  0  0
 29 48  1  0  0  0  0
 29 77  1  0  0  0  0
 29 84  2  0  0  0  0
 30 67  1  0  0  0  0
 30 73  1  0  0  0  0
 30 85  2  0  0  0  0
 31 68  1  0  0  0  0
 31 78  1  0  0  0  0
 31 86  2  0  0  0  0
 32 74  1  0  0  0  0
 32 79  1  0  0  0  0
 32 87  2  0  0  0  0
 33 36  1  0  0  0  0
 34 48  1  0  0  0  0
 35 73  1  0  0  0  0
 36 38  1  0  0  0  0
 37 41  1  0  0  0  0
 37 44  1  0  0  0  0
 38 47  1  0  0  0  0
 39 42  1  0  0  0  0
 39 49  1  0  0  0  0
 40 43  1  0  0  0  0
 40 49  1  0  0  0  0
 41 51  1  0  0  0  0
 42 53  1  0  0  0  0
 43 53  1  0  0  0  0
 44 74  1  0  0  0  0
 45 51  1  0  0  0  0
 45 74  1  0  0  0  0
 46 52  1  0  0  0  0
 46 80  1  0  0  0  0
 47 77  1  0  0  0  0
 48 73  1  0  0  0  0
 49 62  1  0  0  0  0
 50 52  1  0  0  0  0
 50 54  1  0  0  0  0
 50 62  1  0  0  0  0
 51 72  1  0  0  0  0
 52 79  1  0  0  0  0
 53 81  1  0  0  0  0
 54 63  1  0  0  0  0
 54 80  1  0  0  0  0
 55 68  1  0  0  0  0
 56 69  1  0  0  0  0
 57 69  1  0  0  0  0
 58 70  1  0  0  0  0
 59 70  1  0  0  0  0
 60 70  1  0  0  0  0
 61 82  1  0  0  0  0
 63 69  1  0  0  0  0
 64 65  1  0  0  0  0
 64 66  1  0  0  0  0
 65 81  1  0  0  0  0
 66 89  1  0  0  0  0
 67 70  1  0  0  0  0
 67 78  1  0  0  0  0
 68 82  1  0  0  0  0
 71 72  1  0  0  0  0
M  CHG  3  80   1  81   1  82   1
M  ISO  4  32 100  66 101  79 100  89 101
M  END
> <Batch ID>
0118

> <Smiles>
CNC(C)C(=O)NC(C(=O)N1Cc2cc([101O:1][101CH2:1]CCNC3CCC(CC4C(CC(C)C)NCC4[100NH:0][100C:0](=O)N4CCCC(n5nc(-c6ccc(Oc7ccc(F)cc7F)cc6)c(C(N)=O)c5N)C4)CC3)ccc2CC1C(=O)NC1CCCc2ccccc21)C(C)(C)C

> <Shape>
0.267

> <Color>
0.070

> <Negative vol penalty>
0.000

$$$$

  -OEChem-04052320183D

 84 92  0     1  0  0  0  0  0999 V2000
  -21.5661  -12.7445   20.8185 C   0  0  0  0  0  0  0  0  0  0  0  0
  -21.6677  -14.0510   21.2856 C   0  0  0  0  0  0  0  0  0  0  0  0
  -30.4031  -26.9220   19.6830 C   0  0  0  0  0  0  0  0  0  0  0  0
  -30.3752  -27.4579   22.0386 C   0  0  0  0  0  0  0  0  0  0  0  0
  -22.7176  -12.0341   20.4822 C   0  0  0  0  0  0  0  0  0  0  0  0
  -22.9211  -14.6475   21.4177 C   0  0  0  0  0  0  0  0  0  0  0  0
  -23.0188  -19.3813   19.6214 C   0  0  0  0  0  0  0  0  0  0  0  0
  -31.7907  -27.0627   19.6674 C   0  0  0  0  0  0  0  0  0  0  0  0
  -31.7629  -27.5986   22.0230 C   0  0  0  0  0  0  0  0  0  0  0  0
  -22.4676  -20.3786   20.4247 C   0  0  0  0  0  0  0  0  0  0  0  0
  -35.3770  -26.9273   19.0881 C   0  0  0  0  0  0  0  0  0  0  0  0
  -36.1201  -25.9529   18.4218 C   0  0  0  0  0  0  0  0  0  0  0  0
  -24.6797  -21.0044   21.1554 C   0  0  0  0  0  0  0  0  0  0  0  0
  -35.2343  -24.2635   19.9044 C   0  0  0  0  0  0  0  0  0  0  0  0
  -29.6953  -27.1197   20.8686 C   0  0  0  0  0  0  0  0  0  0  0  0
  -27.5288  -25.8013   21.1438 C   0  0  0  0  0  0  0  0  0  0  0  0
  -23.9852  -12.6255   20.6011 C   0  0  0  0  0  0  0  0  0  0  0  0
  -24.4063  -19.1805   19.5874 C   0  0  0  0  0  0  0  0  0  0  0  0
  -24.0908  -13.9439   21.0839 C   0  0  0  0  0  0  0  0  0  0  0  0
  -25.2463  -20.0055   20.3490 C   0  0  0  0  0  0  0  0  0  0  0  0
  -32.4706  -27.4010   20.8374 C   0  0  0  0  0  0  0  0  0  0  0  0
  -23.2978  -21.1884   21.1941 C   0  0  0  0  0  0  0  0  0  0  0  0
  -34.5625  -26.5698   20.1626 C   0  0  0  0  0  0  0  0  0  0  0  0
  -36.0488  -24.6210   18.8300 C   0  0  0  0  0  0  0  0  0  0  0  0
  -34.4912  -25.2378   20.5708 C   0  0  0  0  0  0  0  0  0  0  0  0
  -28.2618  -26.9751   20.8852 C   0  0  0  0  0  0  0  0  0  0  0  0
  -26.2147  -26.1876   21.0412 C   0  0  0  0  0  0  0  0  0  0  0  0
  -27.9940  -24.4801   21.4494 C   0  0  0  0  0  0  0  0  0  0  0  0
  -26.3442  -16.7771   20.3435 C   0  0  0  0  0  0  0  0  0  0  0  0
  -28.6095  -18.7146   19.0641 C   0  0  0  0  0  0  0  0  0  0  0  0
  -29.5949  -21.8812   18.2586 C   0  0  0  0  0  0  0  0  0  0  0  0
  -22.1073  -29.8072   22.1245 C   0  0  0  0  0  0  0  0  0  0  0  0
  -25.2045  -11.8018   20.2702 C   0  0  0  0  0  0  0  0  0  0  0  0
  -24.9871  -18.1180   18.6953 C   0  0  0  0  0  0  0  0  0  0  0  0
  -26.7437  -19.8441   20.3323 C   0  0  0  0  0  0  0  0  0  0  0  0
  -26.4701  -12.6348   20.0837 C   0  0  0  0  0  0  0  0  0  0  0  0
  -24.1694  -30.4737   19.2996 C   0  0  0  0  0  0  0  0  0  0  0  0
  -26.6098  -13.6531   21.2108 C   0  0  0  0  0  0  0  0  0  0  0  0
  -20.4655  -24.7361   22.6315 C   0  0  0  0  0  0  0  0  0  0  0  0
  -21.3418  -24.9055   24.9939 C   0  0  0  0  0  0  0  0  0  0  0  0
  -20.6005  -26.2495   22.4730 C   0  0  0  0  0  0  0  0  0  0  0  0
  -21.4770  -26.4188   24.8351 C   0  0  0  0  0  0  0  0  0  0  0  0
  -25.3597  -29.5310   19.4851 C   0  0  0  0  0  0  0  0  0  0  0  0
  -23.6700  -31.0215   20.6347 C   0  0  0  0  0  0  0  0  0  0  0  0
  -24.5448  -29.0528   21.8315 C   0  0  0  0  0  0  0  0  0  0  0  0
  -25.4310  -14.6339   21.2174 C   0  0  1  0  0  0  0  0  0  0  0  0
  -26.3770  -17.6653   19.1320 C   0  0  1  0  0  0  0  0  0  0  0  0
  -21.4708  -24.1805   23.6483 C   0  0  0  0  0  0  0  0  0  0  0  0
  -20.4713  -26.9742   23.8188 C   0  0  0  0  0  0  0  0  0  0  0  0
  -25.0483  -28.4310   20.5177 C   0  0  2  0  0  0  0  0  0  0  0  0
  -31.5131  -23.1528   17.2584 C   0  0  0  0  0  0  0  0  0  0  0  0
  -22.2577  -22.1376   24.8709 C   0  0  0  0  0  0  0  0  0  0  0  0
  -19.1767  -29.0530   25.6461 C   0  0  0  0  0  0  0  0  0  0  0  0
  -30.1767  -18.3889   21.6617 C   0  0  0  0  0  0  0  0  0  0  0  0
  -31.5514  -20.3739   20.9997 C   0  0  0  0  0  0  0  0  0  0  0  0
  -31.5706  -18.3184   19.5866 C   0  0  0  0  0  0  0  0  0  0  0  0
  -27.9172  -22.8966   16.0420 C   0  0  0  0  0  0  0  0  0  0  0  0
  -21.4541  -21.9304   22.5003 C   0  0  0  0  0  0  0  0  0  1  0  0
  -29.5184  -19.7949   19.5988 C   0  0  1  0  0  0  0  0  0  0  0  0
  -30.1878  -22.4585   16.9860 C   0  0  2  0  0  0  0  0  0  0  0  0
  -21.2816  -22.6754   23.8267 C   0  0  2  0  0  0  0  0  0  0  0  0
  -20.6593  -28.4797   23.6412 C   0  0  1  0  0  0  0  0  0  0  0  0
  -20.5355  -29.2308   24.9781 C   0  0  1  0  0  0  0  0  0  0  0  0
  -30.6759  -19.2210   20.4637 C   0  0  0  0  0  0  0  0  0  0  0  0
  -27.4785  -28.0280   20.6369 N   0  0  0  0  0  0  0  0  0  0  0  0
  -26.2396  -27.5174   20.7389 N   0  0  0  0  0  0  0  0  0  0  0  0
  -27.2632  -18.7871   19.4489 N   0  0  0  0  0  0  0  0  0  0  0  0
  -23.3915  -29.9276   21.5682 N   0  0  0  0  0  0  0  0  0  0  0  0
  -25.0519  -25.5162   21.1809 N   0  0  0  0  0  0  0  0  0  0  0  0
  -29.3761  -24.2571   21.5157 N   0  0  0  0  0  0  0  0  0  0  0  0
  -25.5948  -15.6279   20.1784 N   0  0  0  0  0  0  0  0  0  0  0  0
  -29.9620  -20.5648   18.4417 N   0  0  0  0  0  0  0  0  0  0  0  0
  -21.9264  -28.7390   22.9946 N   0  0  0  0  0  0  0  0  0  0  0  0
  -29.2532  -23.4500   16.3824 N   0  3  0  0  0  0  0  0  0  0  0  0
  -27.2077  -23.5218   21.6413 O   0  0  0  0  0  0  0  0  0  0  0  0
  -26.9548  -17.1090   21.3527 O   0  0  0  0  0  0  0  0  0  0  0  0
  -29.0754  -17.8428   18.3262 O   0  0  0  0  0  0  0  0  0  0  0  0
  -28.8807  -22.5339   19.0165 O   0  0  0  0  0  0  0  0  0  0  0  0
  -21.1884  -30.5902   21.8608 O   0  0  0  0  0  0  0  0  0  0  0  0
  -20.7842  -30.6231   24.7987 O   0  0  0  0  0  0  0  0  0  0  0  0
  -33.8247  -27.5381   20.8226 O   0  0  0  0  0  0  0  0  0  0  0  0
  -22.7623  -22.1622   21.9795 O   0  0  0  0  0  0  0  0  0  1  0  0
  -36.7613  -23.6852   18.1891 F   0  0  0  0  0  0  0  0  0  0  0  0
  -33.7096  -24.8881   21.6016 F   0  0  0  0  0  0  0  0  0  0  0  0
  1  2  1  0  0  0  0
  1  5  2  0  0  0  0
  2  6  2  0  0  0  0
  3  8  2  0  0  0  0
  3 15  1  0  0  0  0
  4  9  1  0  0  0  0
  4 15  2  0  0  0  0
  5 17  1  0  0  0  0
  6 19  1  0  0  0  0
  7 10  2  0  0  0  0
  7 18  1  0  0  0  0
  8 21  1  0  0  0  0
  9 21  2  0  0  0  0
 10 22  1  0  0  0  0
 11 12  2  0  0  0  0
 11 23  1  0  0  0  0
 12 24  1  0  0  0  0
 13 20  1  0  0  0  0
 13 22  2  0  0  0  0
 14 24  2  0  0  0  0
 14 25  1  0  0  0  0
 15 26  1  0  0  0  0
 16 26  1  0  0  0  0
 16 27  2  0  0  0  0
 16 28  1  0  0  0  0
 17 19  2  0  0  0  0
 17 33  1  0  0  0  0
 18 20  2  0  0  0  0
 18 34  1  0  0  0  0
 19 46  1  0  0  0  0
 20 35  1  0  0  0  0
 21 81  1  0  0  0  0
 22 82  1  0  0  0  0
 23 25  2  0  0  0  0
 23 81  1  0  0  0  0
 24 83  1  0  0  0  0
 25 84  1  0  0  0  0
 26 65  2  0  0  0  0
 27 66  1  0  0  0  0
 27 69  1  0  0  0  0
 28 70  1  0  0  0  0
 28 75  2  0  0  0  0
 29 47  1  0  0  0  0
 29 71  1  0  0  0  0
 29 76  2  0  0  0  0
 30 59  1  0  0  0  0
 30 67  1  0  0  0  0
 30 77  2  0  0  0  0
 31 60  1  0  0  0  0
 31 72  1  0  0  0  0
 31 78  2  0  0  0  0
 32 68  1  0  0  0  0
 32 73  1  0  0  0  0
 32 79  2  0  0  0  0
 33 36  1  0  0  0  0
 34 47  1  0  0  0  0
 35 67  1  0  0  0  0
 36 38  1  0  0  0  0
 37 43  1  0  0  0  0
 37 44  1  0  0  0  0
 38 46  1  0  0  0  0
 39 41  1  0  0  0  0
 39 48  1  0  0  0  0
 40 42  1  0  0  0  0
 40 48  1  0  0  0  0
 41 49  1  0  0  0  0
 42 49  1  0  0  0  0
 43 50  1  0  0  0  0
 44 68  1  0  0  0  0
 45 50  1  0  0  0  0
 45 68  1  0  0  0  0
 46 71  1  0  0  0  0
 47 67  1  0  0  0  0
 48 61  1  0  0  0  0
 49 62  1  0  0  0  0
 50 66  1  0  0  0  0
 51 60  1  0  0  0  0
 52 61  1  0  0  0  0
 53 63  1  0  0  0  0
 54 64  1  0  0  0  0
 55 64  1  0  0  0  0
 56 64  1  0  0  0  0
 57 74  1  0  0  0  0
 58 61  1  0  0  0  0
 58 82  1  0  0  0  0
 59 64  1  0  0  0  0
 59 72  1  0  0  0  0
 60 74  1  0  0  0  0
 62 63  1  0  0  0  0
 62 73  1  0  0  0  0
 63 80  1  0  0  0  0
 65 66  1  0  0  0  0
M  CHG  1  74   1
M  ISO  4  32 100  58 101  73 100  82 101
M  END
> <Batch ID>
0118

> <Smiles>
CNC(C)C(=O)NC(C(=O)N1Cc2cc([101O:1][101CH2:1]C(C)C3CCC(C([100NH:0][100C:0](=O)N4CCCC(n5nc(-c6ccc(Oc7ccc(F)cc7F)cc6)c(C(N)=O)c5N)C4)C(C)O)CC3)ccc2CC1C(=O)NC1CCCc2ccccc21)C(C)(C)C

> <Shape>
0.230

> <Color>
0.062

> <Negative vol penalty>
0.000

$$$$

  -OEChem-04052320183D

 86 95  0     1  0  0  0  0  0999 V2000
  -29.4433  -19.3962   20.1217 C   0  0  0  0  0  0  0  0  0  0  0  0
  -29.5226  -19.8124   21.4468 C   0  0  0  0  0  0  0  0  0  0  0  0
  -23.1353  -14.8629   21.2048 C   0  0  0  0  0  0  0  0  0  0  0  0
  -24.3409  -15.1207   23.2826 C   0  0  0  0  0  0  0  0  0  0  0  0
  -29.7693  -20.2801   19.0938 C   0  0  0  0  0  0  0  0  0  0  0  0
  -29.9291  -21.1126   21.7448 C   0  0  0  0  0  0  0  0  0  0  0  0
  -26.3120  -26.6571   25.8923 C   0  0  0  0  0  0  0  0  0  0  0  0
  -22.7759  -13.5667   21.5741 C   0  0  0  0  0  0  0  0  0  0  0  0
  -23.9814  -13.8245   23.6519 C   0  0  0  0  0  0  0  0  0  0  0  0
  -25.7001  -27.7690   26.4713 C   0  0  0  0  0  0  0  0  0  0  0  0
  -21.8418  -10.0604   21.8127 C   0  0  0  0  0  0  0  0  0  0  0  0
  -21.9599   -9.0548   20.8533 C   0  0  0  0  0  0  0  0  0  0  0  0
  -27.0090  -29.2360   25.0633 C   0  0  0  0  0  0  0  0  0  0  0  0
  -24.3284   -9.4988   20.6795 C   0  0  0  0  0  0  0  0  0  0  0  0
  -22.5127  -30.0891   22.7768 C   0  0  0  0  0  0  0  0  0  0  0  0
  -22.2947  -29.7113   24.9319 C   0  0  0  0  0  0  0  0  0  0  0  0
  -23.9178  -15.6399   22.0590 C   0  0  0  0  0  0  0  0  0  0  0  0
  -25.0336  -17.3648   20.5466 C   0  0  0  0  0  0  0  0  0  0  0  0
  -30.1707  -21.5947   19.3791 C   0  0  0  0  0  0  0  0  0  0  0  0
  -27.2647  -26.8301   24.8845 C   0  0  0  0  0  0  0  0  0  0  0  0
  -30.2621  -22.0144   20.7199 C   0  0  0  0  0  0  0  0  0  0  0  0
  -27.6162  -28.1255   24.4708 C   0  0  0  0  0  0  0  0  0  0  0  0
  -21.8875  -29.2387   23.7083 C   0  0  0  0  0  0  0  0  0  0  0  0
  -23.1990  -13.0476   22.7977 C   0  0  0  0  0  0  0  0  0  0  0  0
  -26.0479  -29.0553   26.0580 C   0  0  0  0  0  0  0  0  0  0  0  0
  -22.9670  -10.7853   22.2054 C   0  0  0  0  0  0  0  0  0  0  0  0
  -23.2032   -8.7739   20.2868 C   0  0  0  0  0  0  0  0  0  0  0  0
  -24.2103  -10.5045   21.6388 C   0  0  0  0  0  0  0  0  0  0  0  0
  -24.2899  -16.9787   21.6778 C   0  0  0  0  0  0  0  0  0  0  0  0
  -25.1134  -18.7329   20.6388 C   0  0  0  0  0  0  0  0  0  0  0  0
  -25.6015  -16.5589   19.5056 C   0  0  0  0  0  0  0  0  0  0  0  0
  -29.6256  -25.2119   22.4588 C   0  0  0  0  0  0  0  0  0  0  0  0
  -28.3136  -27.5643   20.9908 C   0  0  0  0  0  0  0  0  0  0  0  0
  -26.1241  -29.4164   19.6951 C   0  0  0  0  0  0  0  0  0  0  0  0
  -21.6057  -22.7118   23.2310 C   0  0  0  0  0  0  0  0  0  0  0  0
  -30.5585  -22.4993   18.2364 C   0  0  0  0  0  0  0  0  0  0  0  0
  -27.9941  -25.6634   24.2758 C   0  0  0  0  0  0  0  0  0  0  0  0
  -28.6714  -28.2647   23.4078 C   0  0  0  0  0  0  0  0  0  0  0  0
  -30.6200  -23.9752   18.6217 C   0  0  0  0  0  0  0  0  0  0  0  0
  -25.1429  -22.2739   23.8587 C   0  0  0  0  0  0  0  0  0  0  0  0
  -31.3800  -24.1535   19.9322 C   0  0  0  0  0  0  0  0  0  0  0  0
  -25.3899  -20.8901   23.2552 C   0  0  0  0  0  0  0  0  0  0  0  0
  -19.6787  -28.5020   22.7102 C   0  0  0  0  0  0  0  0  0  0  0  0
  -21.6823  -26.9562   22.6315 C   0  0  0  0  0  0  0  0  0  0  0  0
  -23.7813  -22.3431   24.5439 C   0  0  0  0  0  0  0  0  0  0  0  0
  -22.8770  -20.5907   23.0657 C   0  0  0  0  0  0  0  0  0  0  0  0
  -18.7626  -27.3203   22.4332 C   0  0  0  0  0  0  0  0  0  0  0  0
  -20.9670  -28.0641   23.4264 C   0  0  1  0  0  0  0  0  0  0  0  0
  -30.6751  -23.4245   21.0824 C   0  0  1  0  0  0  0  0  0  0  0  0
  -28.3135  -25.8634   22.7834 C   0  0  1  0  0  0  0  0  0  0  0  0
  -24.2280  -20.4630   22.3387 C   0  0  2  0  0  0  0  0  0  0  0  0
  -20.7738  -25.7694   22.3005 C   0  0  1  0  0  0  0  0  0  0  0  0
  -25.2704  -31.0404   17.9830 C   0  0  0  0  0  0  0  0  0  0  0  0
  -26.0692  -32.4422   26.4599 C   0  0  0  0  0  0  0  0  0  0  0  0
  -30.8189  -29.2357   21.4746 C   0  0  0  0  0  0  0  0  0  0  0  0
  -29.8784  -30.9645   19.9272 C   0  0  0  0  0  0  0  0  0  0  0  0
  -30.3855  -28.6751   19.0762 C   0  0  0  0  0  0  0  0  0  0  0  0
  -23.9513  -27.5838   18.8709 C   0  0  0  0  0  0  0  0  0  0  0  0
  -20.4420  -24.8869   23.4983 C   0  0  0  0  0  0  0  0  0  0  0  0
  -23.8098  -31.6392   25.6894 C   0  0  0  0  0  0  0  0  0  0  0  0
  -28.3988  -29.0186   20.6017 C   0  0  1  0  0  0  0  0  0  0  0  0
  -25.3754  -29.5773   18.3844 C   0  0  2  0  0  0  0  0  0  0  0  0
  -25.2992  -31.2993   25.8101 C   0  0  2  0  0  0  0  0  0  1  0  0
  -29.8557  -29.4650   20.2928 C   0  0  0  0  0  0  0  0  0  0  0  0
  -23.2601  -31.0307   23.3588 N   0  0  0  0  0  0  0  0  0  0  0  0
  -23.9235  -18.0175   22.4332 N   0  0  0  0  0  0  0  0  0  0  0  0
  -23.1071  -30.7748   24.6692 N   0  0  0  0  0  0  0  0  0  0  0  0
  -24.4392  -19.0699   21.7754 N   0  0  0  0  0  0  0  0  0  0  0  0
  -28.4550  -27.2642   22.3510 N   0  0  0  0  0  0  0  0  0  0  0  0
  -22.7175  -21.9424   23.6122 N   0  0  0  0  0  0  0  0  0  0  0  0
  -25.6939  -19.6684   19.8576 N   0  0  0  0  0  0  0  0  0  0  0  0
  -26.9080  -16.0788   19.6698 N   0  0  0  0  0  0  0  0  0  0  0  0
  -29.5317  -24.1858   21.5381 N   0  0  0  0  0  0  0  0  0  0  0  0
  -27.4703  -29.1990   19.4909 N   0  0  0  0  0  0  0  0  0  0  0  0
  -21.5252  -23.9774   23.7988 N   0  0  0  0  0  0  0  0  0  0  0  0
  -19.5096  -26.2757   21.6696 N   0  3  0  0  0  0  0  0  0  0  0  0
  -23.9974  -29.0226   18.5035 N   0  3  0  0  0  0  0  0  0  0  0  0
  -24.9751  -16.2867   18.4534 O   0  0  0  0  0  0  0  0  0  0  0  0
  -30.6490  -25.6109   23.0021 O   0  0  0  0  0  0  0  0  0  0  0  0
  -28.1324  -26.7150   20.1138 O   0  0  0  0  0  0  0  0  0  0  0  0
  -25.5707  -29.4811   20.7906 O   0  0  0  0  0  0  0  0  0  0  0  0
  -20.7501  -22.3030   22.4385 O   0  0  0  0  0  0  0  0  0  0  0  0
  -22.8482  -11.7829   23.1585 O   0  0  0  0  0  0  0  0  0  0  0  0
  -25.4434  -30.1362   26.6243 O   0  0  0  0  0  0  0  0  0  1  0  0
  -23.3167   -7.8071   19.3667 F   0  0  0  0  0  0  0  0  0  0  0  0
  -25.2950  -11.1967   22.0129 F   0  0  0  0  0  0  0  0  0  0  0  0
  1  2  1  0  0  0  0
  1  5  2  0  0  0  0
  2  6  2  0  0  0  0
  3  8  2  0  0  0  0
  3 17  1  0  0  0  0
  4  9  1  0  0  0  0
  4 17  2  0  0  0  0
  5 19  1  0  0  0  0
  6 21  1  0  0  0  0
  7 10  2  0  0  0  0
  7 20  1  0  0  0  0
  8 24  1  0  0  0  0
  9 24  2  0  0  0  0
 10 25  1  0  0  0  0
 11 12  2  0  0  0  0
 11 26  1  0  0  0  0
 12 27  1  0  0  0  0
 13 22  1  0  0  0  0
 13 25  2  0  0  0  0
 14 27  2  0  0  0  0
 14 28  1  0  0  0  0
 15 23  1  0  0  0  0
 15 65  2  0  0  0  0
 16 23  2  0  0  0  0
 16 67  1  0  0  0  0
 17 29  1  0  0  0  0
 18 29  1  0  0  0  0
 18 30  2  0  0  0  0
 18 31  1  0  0  0  0
 19 21  2  0  0  0  0
 19 36  1  0  0  0  0
 20 22  2  0  0  0  0
 20 37  1  0  0  0  0
 21 49  1  0  0  0  0
 22 38  1  0  0  0  0
 23 48  1  0  0  0  0
 24 83  1  0  0  0  0
 25 84  1  0  0  0  0
 26 28  2  0  0  0  0
 26 83  1  0  0  0  0
 27 85  1  0  0  0  0
 28 86  1  0  0  0  0
 29 66  2  0  0  0  0
 30 68  1  0  0  0  0
 30 71  1  0  0  0  0
 31 72  1  0  0  0  0
 31 78  2  0  0  0  0
 32 50  1  0  0  0  0
 32 73  1  0  0  0  0
 32 79  2  0  0  0  0
 33 61  1  0  0  0  0
 33 69  1  0  0  0  0
 33 80  2  0  0  0  0
 34 62  1  0  0  0  0
 34 74  1  0  0  0  0
 34 81  2  0  0  0  0
 35 70  1  0  0  0  0
 35 75  1  0  0  0  0
 35 82  2  0  0  0  0
 36 39  1  0  0  0  0
 37 50  1  0  0  0  0
 38 69  1  0  0  0  0
 39 41  1  0  0  0  0
 40 42  1  0  0  0  0
 40 45  1  0  0  0  0
 41 49  1  0  0  0  0
 42 51  1  0  0  0  0
 43 47  1  0  0  0  0
 43 48  1  0  0  0  0
 44 48  1  0  0  0  0
 44 52  1  0  0  0  0
 45 70  1  0  0  0  0
 46 51  1  0  0  0  0
 46 70  1  0  0  0  0
 47 76  1  0  0  0  0
 49 73  1  0  0  0  0
 50 69  1  0  0  0  0
 51 68  1  0  0  0  0
 52 59  1  0  0  0  0
 52 76  1  0  0  0  0
 53 62  1  0  0  0  0
 54 63  1  0  0  0  0
 55 64  1  0  0  0  0
 56 64  1  0  0  0  0
 57 64  1  0  0  0  0
 58 77  1  0  0  0  0
 59 75  1  0  0  0  0
 60 63  1  0  0  0  0
 60 67  1  0  0  0  0
 61 64  1  0  0  0  0
 61 74  1  0  0  0  0
 62 77  1  0  0  0  0
 63 84  1  0  0  0  0
 65 67  1  0  0  0  0
 66 68  1  0  0  0  0
M  CHG  2  76   1  77   1
M  ISO  4  35 100  63 101  75 100  84 101
M  END
> <Batch ID>
0118

> <Smiles>
CNC(C)C(=O)NC(C(=O)N1Cc2cc([101O:1][101CH:1](C)Cn3cc(C4CCNC(C[100NH:0][100C:0](=O)N5CCCC(n6nc(-c7ccc(Oc8ccc(F)cc8F)cc7)c(C(N)=O)c6N)C5)C4)cn3)ccc2CC1C(=O)NC1CCCc2ccccc21)C(C)(C)C

> <Shape>
0.223

> <Color>
0.041

> <Negative vol penalty>
0.000

$$$$

  -OEChem-04052320183D

 85 94  0     1  0  0  0  0  0999 V2000
  -26.1852  -36.5297   23.5822 C   0  0  0  0  0  0  0  0  0  0  0  0
  -26.8944  -35.3673   23.2968 C   0  0  0  0  0  0  0  0  0  0  0  0
  -23.8795   -9.7430   19.7905 C   0  0  0  0  0  0  0  0  0  0  0  0
  -24.6980   -9.8930   22.0587 C   0  0  0  0  0  0  0  0  0  0  0  0
  -24.8365  -36.4550   23.9276 C   0  0  0  0  0  0  0  0  0  0  0  0
  -26.2554  -34.1294   23.3575 C   0  0  0  0  0  0  0  0  0  0  0  0
  -27.3064  -29.2648   19.7886 C   0  0  0  0  0  0  0  0  0  0  0  0
  -23.6026   -8.3891   19.9800 C   0  0  0  0  0  0  0  0  0  0  0  0
  -24.4211   -8.5391   22.2482 C   0  0  0  0  0  0  0  0  0  0  0  0
  -28.0635  -28.1093   19.9770 C   0  0  0  0  0  0  0  0  0  0  0  0
  -23.5948   -5.2069   23.4448 C   0  0  0  0  0  0  0  0  0  0  0  0
  -22.9599   -4.8336   24.6293 C   0  0  0  0  0  0  0  0  0  0  0  0
  -26.8323  -21.7148   19.4820 C   0  0  0  0  0  0  0  0  0  0  0  0
  -26.0805  -26.9328   20.6859 C   0  0  0  0  0  0  0  0  0  0  0  0
  -21.0788   -6.2406   24.0644 C   0  0  0  0  0  0  0  0  0  0  0  0
  -26.3638  -20.4280   19.6930 C   0  0  0  0  0  0  0  0  0  0  0  0
  -24.4273  -10.4949   20.8299 C   0  0  0  0  0  0  0  0  0  0  0  0
  -23.8513  -12.9797   20.8743 C   0  0  0  0  0  0  0  0  0  0  0  0
  -24.1782  -35.2163   23.9831 C   0  0  0  0  0  0  0  0  0  0  0  0
  -25.9303  -29.2659   20.0584 C   0  0  0  0  0  0  0  0  0  0  0  0
  -24.8969  -34.0380   23.7052 C   0  0  0  0  0  0  0  0  0  0  0  0
  -25.3077  -28.0888   20.4977 C   0  0  0  0  0  0  0  0  0  0  0  0
  -28.6325  -21.2068   20.9938 C   0  0  0  0  0  0  0  0  0  0  0  0
  -27.9888  -22.1038   20.1485 C   0  0  0  0  0  0  0  0  0  0  0  0
  -23.8734   -7.7871   21.2088 C   0  0  0  0  0  0  0  0  0  0  0  0
  -27.4512  -26.9439   20.4284 C   0  0  0  0  0  0  0  0  0  0  0  0
  -22.9718   -6.0971   22.5701 C   0  0  0  0  0  0  0  0  0  0  0  0
  -21.7019   -5.3504   24.9391 C   0  0  0  0  0  0  0  0  0  0  0  0
  -21.7138   -6.6139   22.8799 C   0  0  0  0  0  0  0  0  0  0  0  0
  -24.7141  -11.8934   20.6346 C   0  0  0  0  0  0  0  0  0  0  0  0
  -28.0833  -19.9429   21.1373 C   0  0  0  0  0  0  0  0  0  0  0  0
  -24.5905  -14.0865   20.5353 C   0  0  0  0  0  0  0  0  0  0  0  0
  -22.5024  -12.9875   21.3601 C   0  0  0  0  0  0  0  0  0  0  0  0
  -24.0420  -30.8316   22.0799 C   0  0  0  0  0  0  0  0  0  0  0  0
  -21.6866  -29.3189   20.4410 C   0  0  0  0  0  0  0  0  0  0  0  0
  -20.7498  -26.6832   18.4859 C   0  0  0  0  0  0  0  0  0  0  0  0
  -29.3658  -16.9723   20.6519 C   0  0  0  0  0  0  0  0  0  0  0  0
  -22.7313  -35.1817   24.4073 C   0  0  0  0  0  0  0  0  0  0  0  0
  -25.1228  -30.5131   19.8246 C   0  0  0  0  0  0  0  0  0  0  0  0
  -23.8298  -28.0321   20.7823 C   0  0  0  0  0  0  0  0  0  0  0  0
  -22.0332  -33.8632   24.0839 C   0  0  0  0  0  0  0  0  0  0  0  0
  -29.0274  -14.4743   18.1375 C   0  0  0  0  0  0  0  0  0  0  0  0
  -29.9172  -21.4612   23.2206 C   0  0  0  0  0  0  0  0  0  0  0  0
  -29.8579  -22.8208   22.5976 C   0  0  0  0  0  0  0  0  0  0  0  0
  -22.9035  -32.6820   24.5011 C   0  0  0  0  0  0  0  0  0  0  0  0
  -27.8083  -13.6666   18.5861 C   0  0  0  0  0  0  0  0  0  0  0  0
  -29.8648  -14.9397   19.3267 C   0  0  0  0  0  0  0  0  0  0  0  0
  -27.8968  -14.8714   20.8085 C   0  0  0  0  0  0  0  0  0  0  0  0
  -29.8759  -21.5962   21.7217 C   0  0  0  0  0  0  0  0  0  0  0  0
  -24.2325  -32.6786   23.7362 C   0  0  1  0  0  0  0  0  0  0  0  0
  -23.8225  -30.5414   20.6221 C   0  0  1  0  0  0  0  0  0  0  0  0
  -26.9909  -14.4276   19.6471 C   0  0  2  0  0  0  0  0  0  0  0  0
  -29.9659  -22.8272   17.9308 C   0  0  0  0  0  0  0  0  0  0  0  0
  -18.7499  -25.6979   17.3339 C   0  0  0  0  0  0  0  0  0  0  0  0
  -20.6480  -28.2983   23.1223 C   0  0  0  0  0  0  0  0  0  0  0  0
  -19.2890  -26.6069   21.8731 C   0  0  0  0  0  0  0  0  0  0  0  0
  -18.8693  -29.0417   21.5292 C   0  0  0  0  0  0  0  0  0  0  0  0
  -22.0126  -26.9405   15.8216 C   0  0  0  0  0  0  0  0  0  0  0  0
  -28.7294  -18.9350   22.0311 C   0  0  0  0  0  0  0  0  0  0  0  0
  -28.9067  -23.7844   18.4643 C   0  0  0  0  0  0  0  0  0  0  0  0
  -27.5219  -24.5667   20.4272 C   0  0  0  0  0  0  0  0  0  1  0  0
  -28.5270  -23.5119   19.9349 C   0  0  1  0  0  0  0  0  0  0  0  0
  -20.9668  -27.9990   20.5778 C   0  0  1  0  0  0  0  0  0  0  0  0
  -19.9519  -26.6193   17.1960 C   0  0  2  0  0  0  0  0  0  0  0  0
  -19.9715  -27.9877   21.7722 C   0  0  0  0  0  0  0  0  0  0  0  0
  -26.9616  -19.5288   20.5064 N   0  0  0  0  0  0  0  0  0  0  0  0
  -25.9098  -12.2755   20.1784 N   0  0  0  0  0  0  0  0  0  0  0  0
  -25.8037  -13.6143   20.1286 N   0  0  0  0  0  0  0  0  0  0  0  0
  -23.0843  -29.2792   20.5444 N   0  0  0  0  0  0  0  0  0  0  0  0
  -29.0307  -15.6558   20.2949 N   0  0  0  0  0  0  0  0  0  0  0  0
  -24.3145  -15.4079   20.5482 N   0  0  0  0  0  0  0  0  0  0  0  0
  -21.8932  -11.7614   21.6603 N   0  0  0  0  0  0  0  0  0  0  0  0
  -24.0408  -32.1777   22.3920 N   0  0  0  0  0  0  0  0  0  0  0  0
  -20.3492  -27.7347   19.2827 N   0  0  0  0  0  0  0  0  0  0  0  0
  -28.5193  -17.5805   21.5707 N   0  0  0  0  0  0  0  0  0  0  0  0
  -20.8054  -26.1151   16.0833 N   0  3  0  0  0  0  0  0  0  0  0  0
  -21.8508  -14.0491   21.5077 O   0  0  0  0  0  0  0  0  0  0  0  0
  -24.1992  -29.9029   22.8638 O   0  0  0  0  0  0  0  0  0  0  0  0
  -21.0334  -30.3462   20.2423 O   0  0  0  0  0  0  0  0  0  0  0  0
  -21.6371  -25.8784   18.7608 O   0  0  0  0  0  0  0  0  0  0  0  0
  -30.3438  -17.5639   20.1823 O   0  0  0  0  0  0  0  0  0  0  0  0
  -23.6031   -6.4661   21.3941 O   0  0  0  0  0  0  0  0  0  0  0  0
  -28.1879  -25.8149   20.6138 O   0  0  0  0  0  0  0  0  0  1  0  0
  -21.0916   -4.9906   26.0759 F   0  0  0  0  0  0  0  0  0  0  0  0
  -21.1097   -7.4685   22.0429 F   0  0  0  0  0  0  0  0  0  0  0  0
  1  2  1  0  0  0  0
  1  5  2  0  0  0  0
  2  6  2  0  0  0  0
  3  8  2  0  0  0  0
  3 17  1  0  0  0  0
  4  9  1  0  0  0  0
  4 17  2  0  0  0  0
  5 19  1  0  0  0  0
  6 21  1  0  0  0  0
  7 10  2  0  0  0  0
  7 20  1  0  0  0  0
  8 25  1  0  0  0  0
  9 25  2  0  0  0  0
 10 26  1  0  0  0  0
 11 12  2  0  0  0  0
 11 27  1  0  0  0  0
 12 28  1  0  0  0  0
 13 16  2  0  0  0  0
 13 24  1  0  0  0  0
 14 22  1  0  0  0  0
 14 26  2  0  0  0  0
 15 28  2  0  0  0  0
 15 29  1  0  0  0  0
 16 66  1  0  0  0  0
 17 30  1  0  0  0  0
 18 30  1  0  0  0  0
 18 32  2  0  0  0  0
 18 33  1  0  0  0  0
 19 21  2  0  0  0  0
 19 38  1  0  0  0  0
 20 22  2  0  0  0  0
 20 39  1  0  0  0  0
 21 50  1  0  0  0  0
 22 40  1  0  0  0  0
 23 24  2  0  0  0  0
 23 31  1  0  0  0  0
 23 49  1  0  0  0  0
 24 62  1  0  0  0  0
 25 82  1  0  0  0  0
 26 83  1  0  0  0  0
 27 29  2  0  0  0  0
 27 82  1  0  0  0  0
 28 84  1  0  0  0  0
 29 85  1  0  0  0  0
 30 67  2  0  0  0  0
 31 59  1  0  0  0  0
 31 66  2  0  0  0  0
 32 68  1  0  0  0  0
 32 71  1  0  0  0  0
 33 72  1  0  0  0  0
 33 77  2  0  0  0  0
 34 51  1  0  0  0  0
 34 73  1  0  0  0  0
 34 78  2  0  0  0  0
 35 63  1  0  0  0  0
 35 69  1  0  0  0  0
 35 79  2  0  0  0  0
 36 64  1  0  0  0  0
 36 74  1  0  0  0  0
 36 80  2  0  0  0  0
 37 70  1  0  0  0  0
 37 75  1  0  0  0  0
 37 81  2  0  0  0  0
 38 41  1  0  0  0  0
 39 51  1  0  0  0  0
 40 69  1  0  0  0  0
 41 45  1  0  0  0  0
 42 46  1  0  0  0  0
 42 47  1  0  0  0  0
 43 44  1  0  0  0  0
 43 49  1  0  0  0  0
 44 49  1  0  0  0  0
 45 50  1  0  0  0  0
 46 52  1  0  0  0  0
 47 70  1  0  0  0  0
 48 52  1  0  0  0  0
 48 70  1  0  0  0  0
 50 73  1  0  0  0  0
 51 69  1  0  0  0  0
 52 68  1  0  0  0  0
 53 60  1  0  0  0  0
 54 64  1  0  0  0  0
 55 65  1  0  0  0  0
 56 65  1  0  0  0  0
 57 65  1  0  0  0  0
 58 76  1  0  0  0  0
 59 75  1  0  0  0  0
 60 62  1  0  0  0  0
 61 62  1  0  0  0  0
 61 83  1  0  0  0  0
 63 65  1  0  0  0  0
 63 74  1  0  0  0  0
 64 76  1  0  0  0  0
 67 68  1  0  0  0  0
M  CHG  1  76   1
M  ISO  4  37 100  61 101  75 100  83 101
M  END
> <Batch ID>
0118

> <Smiles>
CCC(c1ccnc(C[100NH:0][100C:0](=O)N2CCCC(n3nc(-c4ccc(Oc5ccc(F)cc5F)cc4)c(C(N)=O)c3N)C2)c1C1CC1)[101CH2:1][101O:1]c1ccc2c(c1)CN(C(=O)C(NC(=O)C(C)NC)C(C)(C)C)C(C(=O)NC1CCCc3ccccc31)C2

> <Shape>
0.362

> <Color>
0.115

> <Negative vol penalty>
0.000

$$$$

  -OEChem-04052320183D

 89 98  0     1  0  0  0  0  0999 V2000
  -17.1291  -30.1088   23.2650 C   0  0  0  0  0  0  0  0  0  0  0  0
  -18.4343  -30.2003   23.7379 C   0  0  0  0  0  0  0  0  0  0  0  0
  -22.0995  -13.8979   21.9728 C   0  0  0  0  0  0  0  0  0  0  0  0
  -22.8001  -11.6191   21.5816 C   0  0  0  0  0  0  0  0  0  0  0  0
  -16.5792  -28.8604   22.9770 C   0  0  0  0  0  0  0  0  0  0  0  0
  -19.1899  -29.0433   23.9241 C   0  0  0  0  0  0  0  0  0  0  0  0
  -25.4463  -28.1057   20.4788 C   0  0  0  0  0  0  0  0  0  0  0  0
  -21.1004  -13.4431   22.8333 C   0  0  0  0  0  0  0  0  0  0  0  0
  -21.8011  -11.1642   22.4422 C   0  0  0  0  0  0  0  0  0  0  0  0
  -26.7536  -27.9452   20.0191 C   0  0  0  0  0  0  0  0  0  0  0  0
  -20.8695  -12.3493   26.0245 C   0  0  0  0  0  0  0  0  0  0  0  0
  -20.7077  -13.0153   27.2393 C   0  0  0  0  0  0  0  0  0  0  0  0
  -26.8573  -25.7578   21.0449 C   0  0  0  0  0  0  0  0  0  0  0  0
  -28.4570  -18.7742   20.7878 C   0  0  0  0  0  0  0  0  0  0  0  0
  -18.4363  -13.5712   26.6321 C   0  0  0  0  0  0  0  0  0  0  0  0
  -30.5313  -17.0420   20.4103 C   0  0  0  0  0  0  0  0  0  0  0  0
  -22.9493  -12.9859   21.3468 C   0  0  0  0  0  0  0  0  0  0  0  0
  -23.8102  -14.1997   19.2749 C   0  0  0  0  0  0  0  0  0  0  0  0
  -17.3317  -27.6882   23.1506 C   0  0  0  0  0  0  0  0  0  0  0  0
  -24.8334  -27.0852   21.2112 C   0  0  0  0  0  0  0  0  0  0  0  0
  -18.6490  -27.7779   23.6394 C   0  0  0  0  0  0  0  0  0  0  0  0
  -25.5437  -25.9077   21.4974 C   0  0  0  0  0  0  0  0  0  0  0  0
  -28.5936  -17.6790   21.6335 C   0  0  0  0  0  0  0  0  0  0  0  0
  -29.6478  -16.7916   21.4479 C   0  0  0  0  0  0  0  0  0  0  0  0
  -20.9513  -12.0762   23.0681 C   0  0  0  0  0  0  0  0  0  0  0  0
  -27.4574  -26.7743   20.3016 C   0  0  0  0  0  0  0  0  0  0  0  0
  -19.8147  -12.2943   25.1134 C   0  0  0  0  0  0  0  0  0  0  0  0
  -19.4911  -13.6262   27.5431 C   0  0  0  0  0  0  0  0  0  0  0  0
  -18.5981  -12.9052   25.4172 C   0  0  0  0  0  0  0  0  0  0  0  0
  -23.9811  -13.4551   20.4573 C   0  0  0  0  0  0  0  0  0  0  0  0
  -29.3939  -18.9360   19.7799 C   0  0  0  0  0  0  0  0  0  0  0  0
  -25.0856  -14.3919   18.8027 C   0  0  0  0  0  0  0  0  0  0  0  0
  -22.6062  -14.6753   18.6584 C   0  0  0  0  0  0  0  0  0  0  0  0
  -21.7598  -25.8893   22.9996 C   0  0  0  0  0  0  0  0  0  0  0  0
  -30.4224  -14.4368   21.5647 C   0  0  0  0  0  0  0  0  0  0  0  0
  -22.8897  -23.4855   21.4648 C   0  0  0  0  0  0  0  0  0  0  0  0
  -24.2121  -21.2062   19.2984 C   0  0  0  0  0  0  0  0  0  0  0  0
  -16.6783  -26.3580   22.8707 C   0  0  0  0  0  0  0  0  0  0  0  0
  -23.4487  -27.2399   21.7789 C   0  0  0  0  0  0  0  0  0  0  0  0
  -24.8563  -24.8510   22.3182 C   0  0  0  0  0  0  0  0  0  0  0  0
  -17.6722  -25.2068   22.7395 C   0  0  0  0  0  0  0  0  0  0  0  0
  -29.4246  -12.3940   18.7950 C   0  0  0  0  0  0  0  0  0  0  0  0
  -18.6921  -25.2502   23.8730 C   0  0  0  0  0  0  0  0  0  0  0  0
  -27.8990  -12.4793   18.8173 C   0  0  0  0  0  0  0  0  0  0  0  0
  -29.2421  -22.0353   20.4684 C   0  0  0  0  0  0  0  0  0  0  0  0
  -30.3673  -22.2947   18.2297 C   0  0  0  0  0  0  0  0  0  0  0  0
  -30.0055  -12.4137   20.2054 C   0  0  0  0  0  0  0  0  0  0  0  0
  -28.0509  -13.6760   21.0466 C   0  0  0  0  0  0  0  0  0  0  0  0
  -29.9555  -23.2856   20.9646 C   0  0  0  0  0  0  0  0  0  0  0  0
  -31.0751  -23.5435   18.7374 C   0  0  0  0  0  0  0  0  0  0  0  0
  -19.5088  -26.5474   23.8308 C   0  0  1  0  0  0  0  0  0  0  0  0
  -22.6518  -25.9231   21.7935 C   0  0  1  0  0  0  0  0  0  0  0  0
  -30.0406  -21.3235   19.3701 C   0  0  0  0  0  0  0  0  0  0  0  0
  -27.4250  -13.6900   19.6408 C   0  0  2  0  0  0  0  0  0  0  0  0
  -27.6008  -17.4764   22.7298 C   0  0  0  0  0  0  0  0  0  0  0  0
  -30.7179  -15.8865   23.5522 C   0  0  0  0  0  0  0  0  0  0  0  0
  -23.9109  -18.8486   18.4933 C   0  0  0  0  0  0  0  0  0  0  0  0
  -30.2770  -27.7837   21.2863 C   0  0  0  0  0  0  0  0  0  0  0  0
  -24.1344  -22.4479   24.0489 C   0  0  0  0  0  0  0  0  0  0  0  0
  -24.6764  -20.3182   22.8494 C   0  0  0  0  0  0  0  0  0  0  0  0
  -22.2991  -21.0204   23.1280 C   0  0  0  0  0  0  0  0  0  0  0  0
  -23.7226  -22.0951   16.5182 C   0  0  0  0  0  0  0  0  0  0  0  0
  -29.2774  -20.1090   18.8460 C   0  0  0  0  0  0  0  0  0  0  0  0
  -30.8233  -25.5102   20.2487 C   0  0  0  0  0  0  0  0  0  0  0  0
  -29.8407  -15.6027   22.3239 C   0  0  1  0  0  0  0  0  0  0  0  0
  -23.7766  -22.2667   21.4984 C   0  0  1  0  0  0  0  0  0  0  0  0
  -23.5636  -20.3104   18.2584 C   0  0  2  0  0  0  0  0  0  0  0  0
  -29.7521  -26.4304   20.8249 C   0  0  2  0  0  0  0  0  0  1  0  0
  -23.7310  -21.5383   22.8713 C   0  0  0  0  0  0  0  0  0  0  0  0
  -30.4311  -18.0951   19.5686 N   0  0  0  0  0  0  0  0  0  0  0  0
  -25.2640  -13.1920   20.7201 N   0  0  0  0  0  0  0  0  0  0  0  0
  -25.9107  -13.7744   19.6961 N   0  0  0  0  0  0  0  0  0  0  0  0
  -23.4627  -24.6962   21.8726 N   0  0  0  0  0  0  0  0  0  0  0  0
  -29.5138  -13.5663   20.9624 N   0  0  0  0  0  0  0  0  0  0  0  0
  -25.5706  -15.0270   17.7147 N   0  0  0  0  0  0  0  0  0  0  0  0
  -21.9633  -13.8514   17.7246 N   0  0  0  0  0  0  0  0  0  0  0  0
  -20.5230  -26.4728   22.8011 N   0  0  0  0  0  0  0  0  0  0  0  0
  -23.3733  -21.4370   20.3682 N   0  0  0  0  0  0  0  0  0  0  0  0
  -30.2287  -24.2042   19.7984 N   0  3  0  0  0  0  0  0  0  0  0  0
  -24.0210  -20.6885   16.8914 N   0  3  0  0  0  0  0  0  0  0  0  0
  -22.1241  -15.8044   18.9155 O   0  0  0  0  0  0  0  0  0  0  0  0
  -22.1622  -25.3707   24.0344 O   0  0  0  0  0  0  0  0  0  0  0  0
  -31.6480  -14.3070   21.5074 O   0  0  0  0  0  0  0  0  0  0  0  0
  -21.7186  -23.3691   21.0929 O   0  0  0  0  0  0  0  0  0  0  0  0
  -25.3504  -21.6532   19.1758 O   0  0  0  0  0  0  0  0  0  0  0  0
  -19.9767  -11.6320   23.9080 O   0  0  0  0  0  0  0  0  0  0  0  0
  -28.7317  -26.6223   19.8459 O   0  0  0  0  0  0  0  0  0  1  0  0
  -19.3354  -14.2644   28.7104 F   0  0  0  0  0  0  0  0  0  0  0  0
  -17.5808  -12.8547   24.5464 F   0  0  0  0  0  0  0  0  0  0  0  0
  1  2  1  0  0  0  0
  1  5  2  0  0  0  0
  2  6  2  0  0  0  0
  3  8  2  0  0  0  0
  3 17  1  0  0  0  0
  4  9  1  0  0  0  0
  4 17  2  0  0  0  0
  5 19  1  0  0  0  0
  6 21  1  0  0  0  0
  7 10  2  0  0  0  0
  7 20  1  0  0  0  0
  8 25  1  0  0  0  0
  9 25  2  0  0  0  0
 10 26  1  0  0  0  0
 11 12  2  0  0  0  0
 11 27  1  0  0  0  0
 12 28  1  0  0  0  0
 13 22  1  0  0  0  0
 13 26  2  0  0  0  0
 14 23  2  0  0  0  0
 14 31  1  0  0  0  0
 15 28  2  0  0  0  0
 15 29  1  0  0  0  0
 16 24  2  0  0  0  0
 16 70  1  0  0  0  0
 17 30  1  0  0  0  0
 18 30  1  0  0  0  0
 18 32  2  0  0  0  0
 18 33  1  0  0  0  0
 19 21  2  0  0  0  0
 19 38  1  0  0  0  0
 20 22  2  0  0  0  0
 20 39  1  0  0  0  0
 21 51  1  0  0  0  0
 22 40  1  0  0  0  0
 23 24  1  0  0  0  0
 23 55  1  0  0  0  0
 24 65  1  0  0  0  0
 25 86  1  0  0  0  0
 26 87  1  0  0  0  0
 27 29  2  0  0  0  0
 27 86  1  0  0  0  0
 28 88  1  0  0  0  0
 29 89  1  0  0  0  0
 30 71  2  0  0  0  0
 31 63  1  0  0  0  0
 31 70  2  0  0  0  0
 32 72  1  0  0  0  0
 32 75  1  0  0  0  0
 33 76  1  0  0  0  0
 33 81  2  0  0  0  0
 34 52  1  0  0  0  0
 34 77  1  0  0  0  0
 34 82  2  0  0  0  0
 35 65  1  0  0  0  0
 35 74  1  0  0  0  0
 35 83  2  0  0  0  0
 36 66  1  0  0  0  0
 36 73  1  0  0  0  0
 36 84  2  0  0  0  0
 37 67  1  0  0  0  0
 37 78  1  0  0  0  0
 37 85  2  0  0  0  0
 38 41  1  0  0  0  0
 39 52  1  0  0  0  0
 40 73  1  0  0  0  0
 41 43  1  0  0  0  0
 42 44  1  0  0  0  0
 42 47  1  0  0  0  0
 43 51  1  0  0  0  0
 44 54  1  0  0  0  0
 45 49  1  0  0  0  0
 45 53  1  0  0  0  0
 46 50  1  0  0  0  0
 46 53  1  0  0  0  0
 47 74  1  0  0  0  0
 48 54  1  0  0  0  0
 48 74  1  0  0  0  0
 49 79  1  0  0  0  0
 50 79  1  0  0  0  0
 51 77  1  0  0  0  0
 52 73  1  0  0  0  0
 53 63  1  0  0  0  0
 54 72  1  0  0  0  0
 56 65  1  0  0  0  0
 57 67  1  0  0  0  0
 58 68  1  0  0  0  0
 59 69  1  0  0  0  0
 60 69  1  0  0  0  0
 61 69  1  0  0  0  0
 62 80  1  0  0  0  0
 64 68  1  0  0  0  0
 64 79  1  0  0  0  0
 66 69  1  0  0  0  0
 66 78  1  0  0  0  0
 67 80  1  0  0  0  0
 68 87  1  0  0  0  0
 71 72  1  0  0  0  0
M  CHG  2  79   1  80   1
M  ISO  4  35 100  65 100  68 101  87 101
M  END
> <Batch ID>
0118

> <Smiles>
CNC(C)C(=O)NC(C(=O)N1Cc2cc([101O:1][101CH:1](C)CN3CCC(Cc4cc(C)c([100CH:0](C)[100C:0](=O)N5CCCC(n6nc(-c7ccc(Oc8ccc(F)cc8F)cc7)c(C(N)=O)c6N)C5)cn4)CC3)ccc2CC1C(=O)NC1CCCc2ccccc21)C(C)(C)C

> <Shape>
0.265

> <Color>
0.066

> <Negative vol penalty>
0.000

$$$$

  -OEChem-04052320183D

 83 92  0     1  0  0  0  0  0999 V2000
  -20.0378  -30.0511   26.7430 C   0  0  0  0  0  0  0  0  0  0  0  0
  -21.2958  -29.6278   26.3263 C   0  0  0  0  0  0  0  0  0  0  0  0
  -26.6270  -12.2437   21.3016 C   0  0  0  0  0  0  0  0  0  0  0  0
  -25.4479  -13.7237   19.7994 C   0  0  0  0  0  0  0  0  0  0  0  0
  -18.9276  -29.8436   25.9256 C   0  0  0  0  0  0  0  0  0  0  0  0
  -21.4442  -28.9958   25.0922 C   0  0  0  0  0  0  0  0  0  0  0  0
  -26.2247  -29.4229   21.2882 C   0  0  0  0  0  0  0  0  0  0  0  0
  -25.4212  -11.6339   21.6473 C   0  0  0  0  0  0  0  0  0  0  0  0
  -24.2420  -13.1138   20.1451 C   0  0  0  0  0  0  0  0  0  0  0  0
  -27.3249  -28.5955   21.0679 C   0  0  0  0  0  0  0  0  0  0  0  0
  -22.6972   -9.4473   22.6544 C   0  0  0  0  0  0  0  0  0  0  0  0
  -22.6680   -8.0539   22.7108 C   0  0  0  0  0  0  0  0  0  0  0  0
  -26.1734  -27.5680   19.2138 C   0  0  0  0  0  0  0  0  0  0  0  0
  -23.2893   -7.9466   20.3785 C   0  0  0  0  0  0  0  0  0  0  0  0
  -26.6404  -13.2887   20.3777 C   0  0  0  0  0  0  0  0  0  0  0  0
  -28.7555  -13.5529   18.9762 C   0  0  0  0  0  0  0  0  0  0  0  0
  -19.0639  -29.2174   24.6766 C   0  0  0  0  0  0  0  0  0  0  0  0
  -25.0843  -29.3214   20.4784 C   0  0  0  0  0  0  0  0  0  0  0  0
  -20.3345  -28.7786   24.2578 C   0  0  0  0  0  0  0  0  0  0  0  0
  -25.0610  -28.3971   19.4243 C   0  0  0  0  0  0  0  0  0  0  0  0
  -24.2287  -12.0689   21.0690 C   0  0  0  0  0  0  0  0  0  0  0  0
  -27.2983  -27.6659   20.0324 C   0  0  0  0  0  0  0  0  0  0  0  0
  -23.0224  -10.0904   21.4601 C   0  0  0  0  0  0  0  0  0  0  0  0
  -22.9641   -7.3035   21.5728 C   0  0  0  0  0  0  0  0  0  0  0  0
  -23.3185   -9.3400   20.3221 C   0  0  0  0  0  0  0  0  0  0  0  0
  -27.8857  -13.9195   20.0206 C   0  0  0  0  0  0  0  0  0  0  0  0
  -29.7870  -14.4564   19.0554 C   0  0  0  0  0  0  0  0  0  0  0  0
  -28.6413  -12.4907   18.0200 C   0  0  0  0  0  0  0  0  0  0  0  0
  -22.0336  -28.5847   20.9824 C   0  0  0  0  0  0  0  0  0  0  0  0
  -21.7218  -29.4166   17.8626 C   0  0  0  0  0  0  0  0  0  0  0  0
  -23.1914  -29.8059   14.8072 C   0  0  0  0  0  0  0  0  0  0  0  0
  -29.7860  -20.0211   21.6191 C   0  0  0  0  0  0  0  0  0  0  0  0
  -17.8273  -28.9726   23.8485 C   0  0  0  0  0  0  0  0  0  0  0  0
  -23.9162  -30.2397   20.7123 C   0  0  0  0  0  0  0  0  0  0  0  0
  -23.8689  -28.2626   18.5137 C   0  0  0  0  0  0  0  0  0  0  0  0
  -18.1279  -28.6314   22.3913 C   0  0  0  0  0  0  0  0  0  0  0  0
  -32.1342  -17.2139   22.1733 C   0  0  0  0  0  0  0  0  0  0  0  0
  -19.2347  -27.5854   22.3052 C   0  0  0  0  0  0  0  0  0  0  0  0
  -26.4625  -17.8902   18.9123 C   0  0  0  0  0  0  0  0  0  0  0  0
  -26.5194  -17.9253   20.4141 C   0  0  0  0  0  0  0  0  0  0  0  0
  -27.9613  -23.7694   21.7567 C   0  0  0  0  0  0  0  0  0  0  0  0
  -31.3448  -16.0123   21.6566 C   0  0  0  0  0  0  0  0  0  0  0  0
  -27.7493  -22.2528   21.8075 C   0  0  0  0  0  0  0  0  0  0  0  0
  -29.4923  -22.6931   20.2233 C   0  0  0  0  0  0  0  0  0  0  0  0
  -31.2151  -18.3170   22.6892 C   0  0  0  0  0  0  0  0  0  0  0  0
  -29.4046  -17.5595   21.1851 C   0  0  0  0  0  0  0  0  0  0  0  0
  -20.5397  -28.1115   22.9150 C   0  0  1  0  0  0  0  0  0  0  0  0
  -22.6067  -29.6960   20.1492 C   0  0  1  0  0  0  0  0  0  0  0  0
  -26.9902  -19.1096   19.6163 C   0  0  0  0  0  0  0  0  0  0  0  0
  -28.8351  -24.0392   20.5249 C   0  0  2  0  0  0  0  0  0  0  0  0
  -30.2999  -16.4491   20.6151 C   0  0  2  0  0  0  0  0  0  0  0  0
  -28.3668  -21.7120   20.5208 C   0  0  1  0  0  0  0  0  0  0  0  0
  -22.6731  -30.4628   12.4413 C   0  0  0  0  0  0  0  0  0  0  0  0
  -20.4048  -26.7033   17.4004 C   0  0  0  0  0  0  0  0  0  0  0  0
  -20.7776  -27.0188   14.9448 C   0  0  0  0  0  0  0  0  0  0  0  0
  -19.3193  -28.6083   16.1975 C   0  0  0  0  0  0  0  0  0  0  0  0
  -25.0714  -32.0895   14.9067 C   0  0  0  0  0  0  0  0  0  0  0  0
  -28.4418  -19.4435   19.5546 C   0  0  0  0  0  0  0  0  0  0  0  0
  -29.1616  -26.5083   20.9512 C   0  0  0  0  0  0  0  0  0  1  0  0
  -21.8222  -28.6850   16.5459 C   0  0  1  0  0  0  0  0  0  0  0  0
  -23.1443  -30.9448   13.8046 C   0  0  2  0  0  0  0  0  0  0  0  0
  -29.8399  -25.1602   20.7352 C   0  0  2  0  0  0  0  0  0  0  0  0
  -20.6028  -27.7548   16.2903 C   0  0  0  0  0  0  0  0  0  0  0  0
  -28.3262  -14.9736   20.7126 N   0  0  0  0  0  0  0  0  0  0  0  0
  -29.4842  -15.2771   20.1018 N   0  0  0  0  0  0  0  0  0  0  0  0
  -22.7490  -29.1784   18.7868 N   0  0  0  0  0  0  0  0  0  0  0  0
  -30.2049  -18.6826   21.6958 N   0  0  0  0  0  0  0  0  0  0  0  0
  -30.9144  -14.6209   18.3313 N   0  0  0  0  0  0  0  0  0  0  0  0
  -27.5175  -11.6554   18.0803 N   0  0  0  0  0  0  0  0  0  0  0  0
  -21.1988  -29.0147   21.9962 N   0  0  0  0  0  0  0  0  0  0  0  0
  -22.0178  -29.7080   15.5244 N   0  0  0  0  0  0  0  0  0  0  0  0
  -28.8244  -20.3356   20.6469 N   0  0  0  0  0  0  0  0  0  0  0  0
  -30.6969  -25.2511   19.5176 N   0  3  0  0  0  0  0  0  0  0  0  0
  -24.4960  -31.5523   13.6469 N   0  3  0  0  0  0  0  0  0  0  0  0
  -29.5182  -12.2782   17.1486 O   0  0  0  0  0  0  0  0  0  0  0  0
  -22.3259  -27.4231   20.7237 O   0  0  0  0  0  0  0  0  0  0  0  0
  -20.7710  -30.1770   18.0610 O   0  0  0  0  0  0  0  0  0  0  0  0
  -24.1699  -29.0739   14.9383 O   0  0  0  0  0  0  0  0  0  0  0  0
  -30.2522  -20.8874   22.3701 O   0  0  0  0  0  0  0  0  0  0  0  0
  -23.0518  -11.4738   21.4059 O   0  0  0  0  0  0  0  0  0  0  0  0
  -28.3706  -26.8566   19.8156 O   0  0  0  0  0  0  0  0  0  1  0  0
  -22.9374   -5.9655   21.6275 F   0  0  0  0  0  0  0  0  0  0  0  0
  -23.6328   -9.9521   19.1722 F   0  0  0  0  0  0  0  0  0  0  0  0
  1  2  1  0  0  0  0
  1  5  2  0  0  0  0
  2  6  2  0  0  0  0
  3  8  2  0  0  0  0
  3 15  1  0  0  0  0
  4  9  1  0  0  0  0
  4 15  2  0  0  0  0
  5 17  1  0  0  0  0
  6 19  1  0  0  0  0
  7 10  2  0  0  0  0
  7 18  1  0  0  0  0
  8 21  1  0  0  0  0
  9 21  2  0  0  0  0
 10 22  1  0  0  0  0
 11 12  2  0  0  0  0
 11 23  1  0  0  0  0
 12 24  1  0  0  0  0
 13 20  1  0  0  0  0
 13 22  2  0  0  0  0
 14 24  2  0  0  0  0
 14 25  1  0  0  0  0
 15 26  1  0  0  0  0
 16 26  1  0  0  0  0
 16 27  2  0  0  0  0
 16 28  1  0  0  0  0
 17 19  2  0  0  0  0
 17 33  1  0  0  0  0
 18 20  2  0  0  0  0
 18 34  1  0  0  0  0
 19 47  1  0  0  0  0
 20 35  1  0  0  0  0
 21 80  1  0  0  0  0
 22 81  1  0  0  0  0
 23 25  2  0  0  0  0
 23 80  1  0  0  0  0
 24 82  1  0  0  0  0
 25 83  1  0  0  0  0
 26 64  2  0  0  0  0
 27 65  1  0  0  0  0
 27 68  1  0  0  0  0
 28 69  1  0  0  0  0
 28 75  2  0  0  0  0
 29 48  1  0  0  0  0
 29 70  1  0  0  0  0
 29 76  2  0  0  0  0
 30 60  1  0  0  0  0
 30 66  1  0  0  0  0
 30 77  2  0  0  0  0
 31 61  1  0  0  0  0
 31 71  1  0  0  0  0
 31 78  2  0  0  0  0
 32 67  1  0  0  0  0
 32 72  1  0  0  0  0
 32 79  2  0  0  0  0
 33 36  1  0  0  0  0
 34 48  1  0  0  0  0
 35 66  1  0  0  0  0
 36 38  1  0  0  0  0
 37 42  1  0  0  0  0
 37 45  1  0  0  0  0
 38 47  1  0  0  0  0
 39 40  1  0  0  0  0
 39 49  1  0  0  0  0
 40 49  1  0  0  0  0
 41 43  1  0  0  0  0
 41 50  1  0  0  0  0
 42 51  1  0  0  0  0
 43 52  1  0  0  0  0
 44 50  1  0  0  0  0
 44 52  1  0  0  0  0
 45 67  1  0  0  0  0
 46 51  1  0  0  0  0
 46 67  1  0  0  0  0
 47 70  1  0  0  0  0
 48 66  1  0  0  0  0
 49 58  1  0  0  0  0
 50 62  1  0  0  0  0
 51 65  1  0  0  0  0
 52 72  1  0  0  0  0
 53 61  1  0  0  0  0
 54 63  1  0  0  0  0
 55 63  1  0  0  0  0
 56 63  1  0  0  0  0
 57 74  1  0  0  0  0
 58 72  1  0  0  0  0
 59 62  1  0  0  0  0
 59 81  1  0  0  0  0
 60 63  1  0  0  0  0
 60 71  1  0  0  0  0
 61 74  1  0  0  0  0
 62 73  1  0  0  0  0
 64 65  1  0  0  0  0
M  CHG  2  73   1  74   1
M  ISO  4  32 100  59 101  72 100  81 101
M  END
> <Batch ID>
0118

> <Smiles>
CNC(C)C(=O)NC(C(=O)N1Cc2cc([101O:1][101CH2:1]C(N)C3CCC([100N:0](CC4CC4)[100C:0](=O)N4CCCC(n5nc(-c6ccc(Oc7ccc(F)cc7F)cc6)c(C(N)=O)c5N)C4)C3)ccc2CC1C(=O)NC1CCCc2ccccc21)C(C)(C)C

> <Shape>
0.316

> <Color>
0.092

> <Negative vol penalty>
0.000

$$$$

  -OEChem-04052320183D

 86 95  0     1  0  0  0  0  0999 V2000
  -29.3500  -30.7427   11.9967 C   0  0  0  0  0  0  0  0  0  0  0  0
  -29.6588  -30.1867   13.2340 C   0  0  0  0  0  0  0  0  0  0  0  0
  -23.1359   -9.8136   19.9775 C   0  0  0  0  0  0  0  0  0  0  0  0
  -23.8724   -9.9071   22.2766 C   0  0  0  0  0  0  0  0  0  0  0  0
  -28.0198  -30.8439   11.5916 C   0  0  0  0  0  0  0  0  0  0  0  0
  -28.6373  -29.7325   14.0675 C   0  0  0  0  0  0  0  0  0  0  0  0
  -29.6609  -25.2128   16.1094 C   0  0  0  0  0  0  0  0  0  0  0  0
  -22.4212   -8.6481   20.2538 C   0  0  0  0  0  0  0  0  0  0  0  0
  -23.1577   -8.7415   22.5530 C   0  0  0  0  0  0  0  0  0  0  0  0
  -30.5433  -25.1868   17.1886 C   0  0  0  0  0  0  0  0  0  0  0  0
  -19.9466   -7.8729   23.1486 C   0  0  0  0  0  0  0  0  0  0  0  0
  -19.1794   -7.8457   24.3132 C   0  0  0  0  0  0  0  0  0  0  0  0
  -28.6738  -25.0360   18.7057 C   0  0  0  0  0  0  0  0  0  0  0  0
  -20.4657   -5.9649   25.1166 C   0  0  0  0  0  0  0  0  0  0  0  0
  -23.8616  -10.4431   20.9889 C   0  0  0  0  0  0  0  0  0  0  0  0
  -24.1357  -12.9722   20.7992 C   0  0  0  0  0  0  0  0  0  0  0  0
  -26.9820  -30.3819   12.4165 C   0  0  0  0  0  0  0  0  0  0  0  0
  -28.2757  -25.1615   16.3212 C   0  0  0  0  0  0  0  0  0  0  0  0
  -27.2918  -29.8289   13.6737 C   0  0  0  0  0  0  0  0  0  0  0  0
  -27.7761  -25.0589   17.6274 C   0  0  0  0  0  0  0  0  0  0  0  0
  -22.4321   -8.1120   21.5416 C   0  0  0  0  0  0  0  0  0  0  0  0
  -30.0497  -25.1013   18.4871 C   0  0  0  0  0  0  0  0  0  0  0  0
  -20.9733   -6.9461   22.9680 C   0  0  0  0  0  0  0  0  0  0  0  0
  -19.4390   -6.8917   25.2972 C   0  0  0  0  0  0  0  0  0  0  0  0
  -21.2329   -5.9921   23.9520 C   0  0  0  0  0  0  0  0  0  0  0  0
  -24.6005  -11.6468   20.7040 C   0  0  0  0  0  0  0  0  0  0  0  0
  -25.2106  -13.7407   20.4245 C   0  0  0  0  0  0  0  0  0  0  0  0
  -22.8476  -13.4647   21.1914 C   0  0  0  0  0  0  0  0  0  0  0  0
  -25.8396  -27.1103   15.7116 C   0  0  0  0  0  0  0  0  0  0  0  0
  -24.0755  -24.6043   16.7746 C   0  0  0  0  0  0  0  0  0  0  0  0
  -23.9206  -21.7613   18.6562 C   0  0  0  0  0  0  0  0  0  0  0  0
  -30.6625  -14.9151   20.6336 C   0  0  0  0  0  0  0  0  0  0  0  0
  -25.5565  -30.5558   11.9558 C   0  0  0  0  0  0  0  0  0  0  0  0
  -27.3381  -25.1636   15.1450 C   0  0  0  0  0  0  0  0  0  0  0  0
  -26.2983  -24.9807   17.9073 C   0  0  0  0  0  0  0  0  0  0  0  0
  -24.5560  -29.7087   12.7380 C   0  0  0  0  0  0  0  0  0  0  0  0
  -29.6140  -12.4329   18.3064 C   0  0  0  0  0  0  0  0  0  0  0  0
  -24.8162  -29.8231   14.2366 C   0  0  0  0  0  0  0  0  0  0  0  0
  -28.1809  -12.1123   18.7344 C   0  0  0  0  0  0  0  0  0  0  0  0
  -33.6722  -22.9944   21.0068 C   0  0  0  0  0  0  0  0  0  0  0  0
  -32.7384  -24.1837   20.8130 C   0  0  0  0  0  0  0  0  0  0  0  0
  -32.1190  -21.3946   22.2713 C   0  0  0  0  0  0  0  0  0  0  0  0
  -30.5128  -12.7131   19.5087 C   0  0  0  0  0  0  0  0  0  0  0  0
  -28.5781  -13.4310   20.8561 C   0  0  0  0  0  0  0  0  0  0  0  0
  -31.0977  -22.6800   19.6180 C   0  0  0  0  0  0  0  0  0  0  0  0
  -26.2132  -29.3024   14.5954 C   0  0  1  0  0  0  0  0  0  0  0  0
  -25.9291  -25.6247   15.5049 C   0  0  1  0  0  0  0  0  0  0  0  0
  -31.0338  -20.3124   22.1100 C   0  0  1  0  0  0  0  0  0  0  0  0
  -31.3650  -19.3709   20.9311 C   0  0  2  0  0  0  0  0  0  0  0  0
  -27.6209  -13.1961   19.6751 C   0  0  2  0  0  0  0  0  0  0  0  0
  -32.9450  -21.6462   21.0066 C   0  0  1  0  0  0  0  0  0  0  0  0
  -31.8497  -24.0031   19.5869 C   0  0  1  0  0  0  0  0  0  1  0  0
  -31.4291  -20.1610   19.5962 C   0  0  2  0  0  0  0  0  0  0  0  0
  -30.8330  -19.5912   23.4463 C   0  0  0  0  0  0  0  0  0  0  0  0
  -32.2152  -19.4179   18.5123 C   0  0  0  0  0  0  0  0  0  0  0  0
  -22.3338  -19.9493   19.3606 C   0  0  0  0  0  0  0  0  0  0  0  0
  -28.9390  -18.7535   21.0264 C   0  0  0  0  0  0  0  0  0  0  0  0
  -22.7509  -26.5301   18.7360 C   0  0  0  0  0  0  0  0  0  0  0  0
  -21.9141  -24.5451   20.0118 C   0  0  0  0  0  0  0  0  0  0  0  0
  -21.1882  -24.9057   17.6527 C   0  0  0  0  0  0  0  0  0  0  0  0
  -25.5787  -19.6589   17.3953 C   0  0  0  0  0  0  0  0  0  0  0  0
  -30.6575  -17.1011   21.8085 C   0  0  0  0  0  0  0  0  0  0  0  0
  -23.5571  -24.1559   18.1197 C   0  0  1  0  0  0  0  0  0  0  0  0
  -23.3830  -20.3760   18.3458 C   0  0  2  0  0  0  0  0  0  0  0  0
  -30.3539  -18.2210   20.8101 C   0  0  2  0  0  0  0  0  0  0  0  0
  -22.3804  -25.0376   18.6252 C   0  0  0  0  0  0  0  0  0  0  0  0
  -25.8716  -11.5738   20.3003 N   0  0  0  0  0  0  0  0  0  0  0  0
  -26.2147  -12.8631   20.1384 N   0  0  0  0  0  0  0  0  0  0  0  0
  -25.4218  -24.9926   16.7244 N   0  0  0  0  0  0  0  0  0  0  0  0
  -29.9257  -13.7510   20.3596 N   0  0  0  0  0  0  0  0  0  0  0  0
  -25.3855  -15.0748   20.3150 N   0  0  0  0  0  0  0  0  0  0  0  0
  -21.8575  -12.5381   21.5454 N   0  0  0  0  0  0  0  0  0  0  0  0
  -26.2241  -27.8553   14.6131 N   0  0  0  0  0  0  0  0  0  0  0  0
  -23.2268  -22.7419   17.9793 N   0  0  0  0  0  0  0  0  0  0  0  0
  -30.0299  -15.8508   21.4430 N   0  0  0  0  0  0  0  0  0  0  0  0
  -32.0787  -21.5391   19.7752 N   0  3  1  0  0  0  0  0  0  0  0  0
  -24.4876  -19.3758   18.3629 N   0  3  0  0  0  0  0  0  0  0  0  0
  -22.5774  -14.6895   21.2110 O   0  0  0  0  0  0  0  0  0  0  0  0
  -25.4491  -27.5482   16.7875 O   0  0  0  0  0  0  0  0  0  0  0  0
  -23.3158  -24.6029   15.8027 O   0  0  0  0  0  0  0  0  0  0  0  0
  -24.8595  -21.9544   19.4253 O   0  0  0  0  0  0  0  0  0  0  0  0
  -31.7977  -15.1087   20.1856 O   0  0  0  0  0  0  0  0  0  0  0  0
  -21.7346   -6.9749   21.8116 O   0  0  0  0  0  0  0  0  0  0  0  0
  -30.9140  -25.0762   19.5488 O   0  0  0  0  0  0  0  0  0  1  0  0
  -18.7031   -6.8667   26.4162 F   0  0  0  0  0  0  0  0  0  0  0  0
  -22.2187   -5.0999   23.7847 F   0  0  0  0  0  0  0  0  0  0  0  0
  1  2  1  0  0  0  0
  1  5  2  0  0  0  0
  2  6  2  0  0  0  0
  3  8  2  0  0  0  0
  3 15  1  0  0  0  0
  4  9  1  0  0  0  0
  4 15  2  0  0  0  0
  5 17  1  0  0  0  0
  6 19  1  0  0  0  0
  7 10  2  0  0  0  0
  7 18  1  0  0  0  0
  8 21  1  0  0  0  0
  9 21  2  0  0  0  0
 10 22  1  0  0  0  0
 11 12  2  0  0  0  0
 11 23  1  0  0  0  0
 12 24  1  0  0  0  0
 13 20  1  0  0  0  0
 13 22  2  0  0  0  0
 14 24  2  0  0  0  0
 14 25  1  0  0  0  0
 15 26  1  0  0  0  0
 16 26  1  0  0  0  0
 16 27  2  0  0  0  0
 16 28  1  0  0  0  0
 17 19  2  0  0  0  0
 17 33  1  0  0  0  0
 18 20  2  0  0  0  0
 18 34  1  0  0  0  0
 19 46  1  0  0  0  0
 20 35  1  0  0  0  0
 21 83  1  0  0  0  0
 22 84  1  0  0  0  0
 23 25  2  0  0  0  0
 23 83  1  0  0  0  0
 24 85  1  0  0  0  0
 25 86  1  0  0  0  0
 26 67  2  0  0  0  0
 27 68  1  0  0  0  0
 27 71  1  0  0  0  0
 28 72  1  0  0  0  0
 28 78  2  0  0  0  0
 29 47  1  0  0  0  0
 29 73  1  0  0  0  0
 29 79  2  0  0  0  0
 30 63  1  0  0  0  0
 30 69  1  0  0  0  0
 30 80  2  0  0  0  0
 31 64  1  0  0  0  0
 31 74  1  0  0  0  0
 31 81  2  0  0  0  0
 32 70  1  0  0  0  0
 32 75  1  0  0  0  0
 32 82  2  0  0  0  0
 33 36  1  0  0  0  0
 34 47  1  0  0  0  0
 35 69  1  0  0  0  0
 36 38  1  0  0  0  0
 37 39  1  0  0  0  0
 37 43  1  0  0  0  0
 38 46  1  0  0  0  0
 39 50  1  0  0  0  0
 40 41  1  0  0  0  0
 40 51  1  0  0  0  0
 41 52  1  0  0  0  0
 42 48  1  0  0  0  0
 42 51  1  0  0  0  0
 43 70  1  0  0  0  0
 44 50  1  0  0  0  0
 44 70  1  0  0  0  0
 45 52  1  0  0  0  0
 45 76  1  0  0  0  0
 46 73  1  0  0  0  0
 47 69  1  0  0  0  0
 48 49  1  0  0  0  0
 48 54  1  0  0  0  0
 49 53  1  0  0  0  0
 49 65  1  0  0  0  0
 50 68  1  0  0  0  0
 51 76  1  0  0  0  0
 52 84  1  0  0  0  0
 53 55  1  0  0  0  0
 53 76  1  0  0  0  0
 56 64  1  0  0  0  0
 57 65  1  0  0  0  0
 58 66  1  0  0  0  0
 59 66  1  0  0  0  0
 60 66  1  0  0  0  0
 61 77  1  0  0  0  0
 62 65  1  0  0  0  0
 62 75  1  0  0  0  0
 63 66  1  0  0  0  0
 63 74  1  0  0  0  0
 64 77  1  0  0  0  0
 67 68  1  0  0  0  0
M  CHG  2  76   1  77   1
M  ISO  4  32 100  52 101  75 100  84 101
M  END
> <Batch ID>
0118

> <Smiles>
CNC(C)C(=O)NC(C(=O)N1Cc2cc([101O:1][101CH:1]3CCC4CC(C)C(C(C)C[100NH:0][100C:0](=O)N5CCCC(n6nc(-c7ccc(Oc8ccc(F)cc8F)cc7)c(C(N)=O)c6N)C5)C(C)N4C3)ccc2CC1C(=O)NC1CCCc2ccccc21)C(C)(C)C

> <Shape>
0.211

> <Color>
0.204

> <Negative vol penalty>
0.000

$$$$

  -OEChem-04052320183D

 83 91  0     1  0  0  0  0  0999 V2000
  -30.6052  -32.5147   24.9592 C   0  0  0  0  0  0  0  0  0  0  0  0
  -30.7221  -31.2559   24.3784 C   0  0  0  0  0  0  0  0  0  0  0  0
  -24.0179  -11.4855   23.9669 C   0  0  0  0  0  0  0  0  0  0  0  0
  -24.5378  -13.6710   24.8561 C   0  0  0  0  0  0  0  0  0  0  0  0
  -29.3521  -32.9903   25.3433 C   0  0  0  0  0  0  0  0  0  0  0  0
  -29.5859  -30.4716   24.1823 C   0  0  0  0  0  0  0  0  0  0  0  0
  -28.5264  -26.6224   19.5384 C   0  0  0  0  0  0  0  0  0  0  0  0
  -23.5441  -11.0893   25.2175 C   0  0  0  0  0  0  0  0  0  0  0  0
  -24.0640  -13.2748   26.1067 C   0  0  0  0  0  0  0  0  0  0  0  0
  -28.6586  -25.2398   19.4172 C   0  0  0  0  0  0  0  0  0  0  0  0
  -21.0699  -12.8775   27.6227 C   0  0  0  0  0  0  0  0  0  0  0  0
  -20.2374  -13.7619   28.3085 C   0  0  0  0  0  0  0  0  0  0  0  0
  -26.3163  -24.9769   19.9307 C   0  0  0  0  0  0  0  0  0  0  0  0
  -21.8229  -13.8420   30.1298 C   0  0  0  0  0  0  0  0  0  0  0  0
  -24.5148  -12.7763   23.7861 C   0  0  0  0  0  0  0  0  0  0  0  0
  -24.2668  -13.7844   21.4559 C   0  0  0  0  0  0  0  0  0  0  0  0
  -28.1989  -32.2154   25.1429 C   0  0  0  0  0  0  0  0  0  0  0  0
  -27.2885  -27.1929   19.8678 C   0  0  0  0  0  0  0  0  0  0  0  0
  -28.3164  -30.9368   24.5653 C   0  0  0  0  0  0  0  0  0  0  0  0
  -26.1704  -26.3671   20.0529 C   0  0  0  0  0  0  0  0  0  0  0  0
  -23.5671  -11.9840   26.2875 C   0  0  0  0  0  0  0  0  0  0  0  0
  -27.5541  -24.4166   19.6162 C   0  0  0  0  0  0  0  0  0  0  0  0
  -22.2789  -12.4753   28.1904 C   0  0  0  0  0  0  0  0  0  0  0  0
  -20.6139  -14.2441   29.5621 C   0  0  0  0  0  0  0  0  0  0  0  0
  -22.6554  -12.9575   29.4439 C   0  0  0  0  0  0  0  0  0  0  0  0
  -25.0049  -13.1860   22.4946 C   0  0  0  0  0  0  0  0  0  0  0  0
  -25.1825  -13.9766   20.4505 C   0  0  0  0  0  0  0  0  0  0  0  0
  -22.8776  -14.1353   21.4046 C   0  0  0  0  0  0  0  0  0  0  0  0
  -26.1981  -28.9439   22.2863 C   0  0  0  0  0  0  0  0  0  0  0  0
  -29.0646  -17.8923   19.5845 C   0  0  0  0  0  0  0  0  0  0  0  0
  -23.5224  -29.0969   20.4588 C   0  0  0  0  0  0  0  0  0  0  0  0
  -21.6131  -27.7069   17.9952 C   0  0  0  0  0  0  0  0  0  0  0  0
  -31.1358  -14.6161   20.4251 C   0  0  0  0  0  0  0  0  0  0  0  0
  -26.8719  -32.7525   25.6176 C   0  0  0  0  0  0  0  0  0  0  0  0
  -27.1564  -28.6878   19.9685 C   0  0  0  0  0  0  0  0  0  0  0  0
  -24.8148  -26.9312   20.3883 C   0  0  0  0  0  0  0  0  0  0  0  0
  -25.6712  -32.0134   25.0325 C   0  0  0  0  0  0  0  0  0  0  0  0
  -29.2393  -12.1577   18.6827 C   0  0  0  0  0  0  0  0  0  0  0  0
  -25.8774  -30.5047   25.1223 C   0  0  0  0  0  0  0  0  0  0  0  0
  -26.6684  -20.0169   21.4766 C   0  0  0  0  0  0  0  0  0  0  0  0
  -27.8724  -12.1965   19.3683 C   0  0  0  0  0  0  0  0  0  0  0  0
  -27.3733  -18.6781   21.3050 C   0  0  0  0  0  0  0  0  0  0  0  0
  -27.8271  -20.1139   19.3657 C   0  0  0  0  0  0  0  0  0  0  0  0
  -30.3763  -12.3799   19.6776 C   0  0  0  0  0  0  0  0  0  0  0  0
  -28.8852  -13.6382   21.1833 C   0  0  0  0  0  0  0  0  0  0  0  0
  -27.1043  -30.0665   24.3134 C   0  0  1  0  0  0  0  0  0  0  0  0
  -25.9643  -29.1268   20.8133 C   0  0  1  0  0  0  0  0  0  0  0  0
  -27.5108  -20.9486   20.6139 C   0  0  1  0  0  0  0  0  0  0  0  0
  -27.7041  -13.4747   20.2115 C   0  0  2  0  0  0  0  0  0  0  0  0
  -27.7526  -18.6383   19.8151 C   0  0  1  0  0  0  0  0  0  0  0  0
  -26.6837  -17.9180   19.0331 C   0  0  0  0  0  0  0  0  0  0  0  0
  -19.4625  -28.0393   16.7456 C   0  0  0  0  0  0  0  0  0  0  0  0
  -21.9629  -28.0864   22.8788 C   0  0  0  0  0  0  0  0  0  0  0  0
  -20.0647  -27.5406   21.3401 C   0  0  0  0  0  0  0  0  0  0  0  0
  -20.8261  -29.9030   21.5895 C   0  0  0  0  0  0  0  0  0  0  0  0
  -23.0220  -27.9551   15.4044 C   0  0  0  0  0  0  0  0  0  0  0  0
  -26.8144  -22.2616   20.2980 C   0  0  0  0  0  0  0  0  0  1  0  0
  -31.4844  -17.8991   20.1564 C   0  0  0  0  0  0  0  0  0  0  0  0
  -31.7520  -16.8752   21.2474 C   0  0  0  0  0  0  0  0  0  0  0  0
  -22.2723  -28.2619   20.3216 C   0  0  1  0  0  0  0  0  0  0  0  0
  -20.9586  -28.3113   16.7661 C   0  0  2  0  0  0  0  0  0  0  0  0
  -21.3073  -28.4369   21.5281 C   0  0  0  0  0  0  0  0  0  0  0  0
  -26.2905  -13.0095   22.1782 N   0  0  0  0  0  0  0  0  0  0  0  0
  -26.3673  -13.4999   20.9293 N   0  0  0  0  0  0  0  0  0  0  0  0
  -24.7379  -28.3985   20.4820 N   0  0  0  0  0  0  0  0  0  0  0  0
  -30.1569  -13.6089   20.4439 N   0  0  0  0  0  0  0  0  0  0  0  0
  -25.0819  -14.5051   19.2124 N   0  0  0  0  0  0  0  0  0  0  0  0
  -22.0792  -13.8684   22.5252 N   0  0  0  0  0  0  0  0  0  0  0  0
  -26.7916  -30.0299   22.9009 N   0  0  0  0  0  0  0  0  0  0  0  0
  -30.1493  -18.4468   20.2368 N   0  0  0  0  0  0  0  0  0  0  0  0
  -21.6866  -28.6127   19.0322 N   0  0  0  0  0  0  0  0  0  0  0  0
  -30.8460  -15.7507   21.1731 N   0  0  0  0  0  0  0  0  0  0  0  0
  -21.5572  -27.7399   15.5266 N   0  3  0  0  0  0  0  0  0  0  0  0
  -22.3560  -14.6546   20.3888 O   0  0  0  0  0  0  0  0  0  0  0  0
  -25.8633  -27.8956   22.8256 O   0  0  0  0  0  0  0  0  0  0  0  0
  -29.0756  -16.8957   18.8716 O   0  0  0  0  0  0  0  0  0  0  0  0
  -23.4245  -30.3242   20.5352 O   0  0  0  0  0  0  0  0  0  0  0  0
  -22.0154  -26.5462   18.0329 O   0  0  0  0  0  0  0  0  0  0  0  0
  -32.1876  -14.5142   19.7845 O   0  0  0  0  0  0  0  0  0  0  0  0
  -23.1046  -11.5978   27.5079 O   0  0  0  0  0  0  0  0  0  0  0  0
  -27.6806  -23.0667   19.4993 O   0  0  0  0  0  0  0  0  0  1  0  0
  -19.8151  -15.0946   30.2199 F   0  0  0  0  0  0  0  0  0  0  0  0
  -23.8162  -12.5756   29.9939 F   0  0  0  0  0  0  0  0  0  0  0  0
  1  2  1  0  0  0  0
  1  5  2  0  0  0  0
  2  6  2  0  0  0  0
  3  8  2  0  0  0  0
  3 15  1  0  0  0  0
  4  9  1  0  0  0  0
  4 15  2  0  0  0  0
  5 17  1  0  0  0  0
  6 19  1  0  0  0  0
  7 10  2  0  0  0  0
  7 18  1  0  0  0  0
  8 21  1  0  0  0  0
  9 21  2  0  0  0  0
 10 22  1  0  0  0  0
 11 12  2  0  0  0  0
 11 23  1  0  0  0  0
 12 24  1  0  0  0  0
 13 20  1  0  0  0  0
 13 22  2  0  0  0  0
 14 24  2  0  0  0  0
 14 25  1  0  0  0  0
 15 26  1  0  0  0  0
 16 26  1  0  0  0  0
 16 27  2  0  0  0  0
 16 28  1  0  0  0  0
 17 19  2  0  0  0  0
 17 34  1  0  0  0  0
 18 20  2  0  0  0  0
 18 35  1  0  0  0  0
 19 46  1  0  0  0  0
 20 36  1  0  0  0  0
 21 80  1  0  0  0  0
 22 81  1  0  0  0  0
 23 25  2  0  0  0  0
 23 80  1  0  0  0  0
 24 82  1  0  0  0  0
 25 83  1  0  0  0  0
 26 63  2  0  0  0  0
 27 64  1  0  0  0  0
 27 67  1  0  0  0  0
 28 68  1  0  0  0  0
 28 74  2  0  0  0  0
 29 47  1  0  0  0  0
 29 69  1  0  0  0  0
 29 75  2  0  0  0  0
 30 50  1  0  0  0  0
 30 70  1  0  0  0  0
 30 76  2  0  0  0  0
 31 60  1  0  0  0  0
 31 65  1  0  0  0  0
 31 77  2  0  0  0  0
 32 61  1  0  0  0  0
 32 71  1  0  0  0  0
 32 78  2  0  0  0  0
 33 66  1  0  0  0  0
 33 72  1  0  0  0  0
 33 79  2  0  0  0  0
 34 37  1  0  0  0  0
 35 47  1  0  0  0  0
 36 65  1  0  0  0  0
 37 39  1  0  0  0  0
 38 41  1  0  0  0  0
 38 44  1  0  0  0  0
 39 46  1  0  0  0  0
 40 42  1  0  0  0  0
 40 48  1  0  0  0  0
 41 49  1  0  0  0  0
 42 50  1  0  0  0  0
 43 48  1  0  0  0  0
 43 50  1  0  0  0  0
 44 66  1  0  0  0  0
 45 49  1  0  0  0  0
 45 66  1  0  0  0  0
 46 69  1  0  0  0  0
 47 65  1  0  0  0  0
 48 57  1  0  0  0  0
 49 64  1  0  0  0  0
 50 51  1  0  0  0  0
 52 61  1  0  0  0  0
 53 62  1  0  0  0  0
 54 62  1  0  0  0  0
 55 62  1  0  0  0  0
 56 73  1  0  0  0  0
 57 81  1  0  0  0  0
 58 59  1  0  0  0  0
 58 70  1  0  0  0  0
 59 72  1  0  0  0  0
 60 62  1  0  0  0  0
 60 71  1  0  0  0  0
 61 73  1  0  0  0  0
 63 64  1  0  0  0  0
M  CHG  1  73   1
M  ISO  4  33 100  57 101  72 100  81 101
M  END
> <Batch ID>
0118

> <Smiles>
CNC(C)C(=O)NC(C(=O)N1Cc2cc([101O:1][101CH2:1]C3CCC(C)(C(=O)NCC[100NH:0][100C:0](=O)N4CCCC(n5nc(-c6ccc(Oc7ccc(F)cc7F)cc6)c(C(N)=O)c5N)C4)C3)ccc2CC1C(=O)NC1CCCc2ccccc21)C(C)(C)C

> <Shape>
0.272

> <Color>
0.083

> <Negative vol penalty>
0.000

$$$$

  -OEChem-04052320183D

 86 95  0     1  0  0  0  0  0999 V2000
  -25.2536  -37.4675   17.5455 C   0  0  0  0  0  0  0  0  0  0  0  0
  -25.8624  -36.2245   17.4044 C   0  0  0  0  0  0  0  0  0  0  0  0
  -24.7495   -8.1316   21.4408 C   0  0  0  0  0  0  0  0  0  0  0  0
  -23.2539   -9.7541   20.4573 C   0  0  0  0  0  0  0  0  0  0  0  0
  -24.8699  -37.9151   18.8089 C   0  0  0  0  0  0  0  0  0  0  0  0
  -26.0889  -35.4290   18.5271 C   0  0  0  0  0  0  0  0  0  0  0  0
  -25.8601  -29.3158   18.8139 C   0  0  0  0  0  0  0  0  0  0  0  0
  -23.7731   -7.8011   22.3805 C   0  0  0  0  0  0  0  0  0  0  0  0
  -22.2774   -9.4236   21.3969 C   0  0  0  0  0  0  0  0  0  0  0  0
  -26.8522  -28.3371   18.7735 C   0  0  0  0  0  0  0  0  0  0  0  0
  -20.9539   -5.9377   22.4931 C   0  0  0  0  0  0  0  0  0  0  0  0
  -20.7284   -4.5845   22.7450 C   0  0  0  0  0  0  0  0  0  0  0  0
  -26.8737  -28.2680   21.1847 C   0  0  0  0  0  0  0  0  0  0  0  0
  -21.3174   -4.9182   25.0643 C   0  0  0  0  0  0  0  0  0  0  0  0
  -24.4900   -9.1082   20.4792 C   0  0  0  0  0  0  0  0  0  0  0  0
  -25.6944   -8.8646   18.2437 C   0  0  0  0  0  0  0  0  0  0  0  0
  -25.0830  -37.1205   19.9464 C   0  0  0  0  0  0  0  0  0  0  0  0
  -25.3743  -29.7865   20.0422 C   0  0  0  0  0  0  0  0  0  0  0  0
  -25.7089  -35.8670   19.8071 C   0  0  0  0  0  0  0  0  0  0  0  0
  -25.8736  -29.2508   21.2379 C   0  0  0  0  0  0  0  0  0  0  0  0
  -22.5370   -8.4471   22.3585 C   0  0  0  0  0  0  0  0  0  0  0  0
  -27.3612  -27.8151   19.9590 C   0  0  0  0  0  0  0  0  0  0  0  0
  -21.3612   -6.7812   23.5267 C   0  0  0  0  0  0  0  0  0  0  0  0
  -20.9101   -4.0747   24.0306 C   0  0  0  0  0  0  0  0  0  0  0  0
  -21.5429   -6.2715   24.8123 C   0  0  0  0  0  0  0  0  0  0  0  0
  -25.4984   -9.4504   19.5087 C   0  0  0  0  0  0  0  0  0  0  0  0
  -26.7696   -9.5374   17.7166 C   0  0  0  0  0  0  0  0  0  0  0  0
  -24.9694   -7.8069   17.6024 C   0  0  0  0  0  0  0  0  0  0  0  0
  -25.3359  -32.6074   21.5067 C   0  0  0  0  0  0  0  0  0  0  0  0
  -23.5127  -31.0216   23.6709 C   0  0  0  0  0  0  0  0  0  0  0  0
  -22.6155  -28.0434   25.0752 C   0  0  0  0  0  0  0  0  0  0  0  0
  -29.0486  -14.9869   18.6964 C   0  0  0  0  0  0  0  0  0  0  0  0
  -24.6940  -37.6673   21.2971 C   0  0  0  0  0  0  0  0  0  0  0  0
  -24.2849  -30.8234   20.0684 C   0  0  0  0  0  0  0  0  0  0  0  0
  -25.3713  -29.7078   22.5823 C   0  0  0  0  0  0  0  0  0  0  0  0
  -24.6300  -36.6030   22.3895 C   0  0  0  0  0  0  0  0  0  0  0  0
  -30.7363  -11.8693   19.0273 C   0  0  0  0  0  0  0  0  0  0  0  0
  -25.8643  -35.7082   22.3362 C   0  0  0  0  0  0  0  0  0  0  0  0
  -28.7332  -22.1880   20.8544 C   0  0  0  0  0  0  0  0  0  0  0  0
  -28.9750  -23.5218   21.5679 C   0  0  0  0  0  0  0  0  0  0  0  0
  -29.6030  -10.8430   19.0741 C   0  0  0  0  0  0  0  0  0  0  0  0
  -28.0103  -23.9720   19.4113 C   0  0  0  0  0  0  0  0  0  0  0  0
  -25.7550  -17.5711   19.2525 C   0  0  0  0  0  0  0  0  0  0  0  0
  -30.3563  -13.1628   19.7447 C   0  0  0  0  0  0  0  0  0  0  0  0
  -27.9613  -12.7497   19.3360 C   0  0  0  0  0  0  0  0  0  0  0  0
  -25.9491  -34.9645   20.9978 C   0  0  1  0  0  0  0  0  0  0  0  0
  -24.2294  -31.5987   21.3811 C   0  0  1  0  0  0  0  0  0  0  0  0
  -28.5130  -22.5313   19.3783 C   0  0  2  0  0  0  0  0  0  0  0  0
  -28.8930  -24.6017   20.4854 C   0  0  1  0  0  0  0  0  0  0  0  0
  -27.2236  -17.6482   18.7676 C   0  0  2  0  0  0  0  0  0  0  0  0
  -26.9342  -19.1267   18.3760 C   0  0  1  0  0  0  0  0  0  0  0  0
  -28.2767  -11.4492   18.5772 C   0  0  2  0  0  0  0  0  0  0  0  0
  -25.7964  -19.1065   19.4359 C   0  0  1  0  0  0  0  0  0  0  0  0
  -21.1295  -27.0694   26.8473 C   0  0  0  0  0  0  0  0  0  0  0  0
  -29.1203  -19.9896   17.5160 C   0  0  0  0  0  0  0  0  0  0  0  0
  -25.4524  -31.9817   25.8216 C   0  0  0  0  0  0  0  0  0  0  0  0
  -24.5000  -30.2478   27.3561 C   0  0  0  0  0  0  0  0  0  0  0  0
  -23.0406  -32.0701   26.4773 C   0  0  0  0  0  0  0  0  0  0  0  0
  -21.1105  -26.4391   23.0952 C   0  0  0  0  0  0  0  0  0  0  0  0
  -27.5578  -21.5805   18.6772 C   0  0  0  0  0  0  0  0  0  0  0  0
  -27.6109  -16.7124   17.6406 C   0  0  0  0  0  0  0  0  0  0  0  0
  -28.3582  -25.9220   20.9973 C   0  0  0  0  0  0  0  0  0  1  0  0
  -23.7899  -30.2232   24.9218 C   0  0  1  0  0  0  0  0  0  0  0  0
  -21.2550  -27.4419   25.3782 C   0  0  2  0  0  0  0  0  0  0  0  0
  -28.0650  -20.1280   18.6159 C   0  0  1  0  0  0  0  0  0  0  0  0
  -24.2068  -31.1233   26.1191 C   0  0  0  0  0  0  0  0  0  0  0  0
  -26.3786  -10.4206   19.7696 N   0  0  0  0  0  0  0  0  0  0  0  0
  -27.1381  -10.4495   18.6612 N   0  0  0  0  0  0  0  0  0  0  0  0
  -24.3101  -30.7279   22.5556 N   0  0  0  0  0  0  0  0  0  0  0  0
  -29.0905  -13.6865   19.2258 N   0  0  0  0  0  0  0  0  0  0  0  0
  -27.4263   -9.4317   16.5419 N   0  0  0  0  0  0  0  0  0  0  0  0
  -23.8917   -7.2261   18.2849 N   0  0  0  0  0  0  0  0  0  0  0  0
  -25.0287  -33.8479   20.9809 N   0  0  0  0  0  0  0  0  0  0  0  0
  -22.5972  -29.4192   25.1655 N   0  0  0  0  0  0  0  0  0  0  0  0
  -27.8113  -15.4030   18.2203 N   0  0  0  0  0  0  0  0  0  0  0  0
  -21.0380  -26.2141   24.5619 N   0  3  0  0  0  0  0  0  0  0  0  0
  -25.2785   -7.3780   16.4649 O   0  0  0  0  0  0  0  0  0  0  0  0
  -26.3897  -32.2848   22.0424 O   0  0  0  0  0  0  0  0  0  0  0  0
  -22.6168  -31.8694   23.6807 O   0  0  0  0  0  0  0  0  0  0  0  0
  -23.5972  -27.3608   24.7907 O   0  0  0  0  0  0  0  0  0  0  0  0
  -30.0417  -15.7206   18.6464 O   0  0  0  0  0  0  0  0  0  0  0  0
  -24.5956  -19.8138   19.0836 O   0  0  0  0  0  0  0  0  0  0  0  0
  -21.5839   -8.1246   23.2751 O   0  0  0  0  0  0  0  0  0  0  0  0
  -28.3301  -26.8602   19.9225 O   0  0  0  0  0  0  0  0  0  1  0  0
  -20.6920   -2.7755   24.2728 F   0  0  0  0  0  0  0  0  0  0  0  0
  -21.9330   -7.0771   25.8095 F   0  0  0  0  0  0  0  0  0  0  0  0
  1  2  1  0  0  0  0
  1  5  2  0  0  0  0
  2  6  2  0  0  0  0
  3  8  2  0  0  0  0
  3 15  1  0  0  0  0
  4  9  1  0  0  0  0
  4 15  2  0  0  0  0
  5 17  1  0  0  0  0
  6 19  1  0  0  0  0
  7 10  2  0  0  0  0
  7 18  1  0  0  0  0
  8 21  1  0  0  0  0
  9 21  2  0  0  0  0
 10 22  1  0  0  0  0
 11 12  2  0  0  0  0
 11 23  1  0  0  0  0
 12 24  1  0  0  0  0
 13 20  1  0  0  0  0
 13 22  2  0  0  0  0
 14 24  2  0  0  0  0
 14 25  1  0  0  0  0
 15 26  1  0  0  0  0
 16 26  1  0  0  0  0
 16 27  2  0  0  0  0
 16 28  1  0  0  0  0
 17 19  2  0  0  0  0
 17 33  1  0  0  0  0
 18 20  2  0  0  0  0
 18 34  1  0  0  0  0
 19 46  1  0  0  0  0
 20 35  1  0  0  0  0
 21 83  1  0  0  0  0
 22 84  1  0  0  0  0
 23 25  2  0  0  0  0
 23 83  1  0  0  0  0
 24 85  1  0  0  0  0
 25 86  1  0  0  0  0
 26 67  2  0  0  0  0
 27 68  1  0  0  0  0
 27 71  1  0  0  0  0
 28 72  1  0  0  0  0
 28 77  2  0  0  0  0
 29 47  1  0  0  0  0
 29 73  1  0  0  0  0
 29 78  2  0  0  0  0
 30 63  1  0  0  0  0
 30 69  1  0  0  0  0
 30 79  2  0  0  0  0
 31 64  1  0  0  0  0
 31 74  1  0  0  0  0
 31 80  2  0  0  0  0
 32 70  1  0  0  0  0
 32 75  1  0  0  0  0
 32 81  2  0  0  0  0
 33 36  1  0  0  0  0
 34 47  1  0  0  0  0
 35 69  1  0  0  0  0
 36 38  1  0  0  0  0
 37 41  1  0  0  0  0
 37 44  1  0  0  0  0
 38 46  1  0  0  0  0
 39 40  1  0  0  0  0
 39 48  1  0  0  0  0
 40 49  1  0  0  0  0
 41 52  1  0  0  0  0
 42 48  1  0  0  0  0
 42 49  1  0  0  0  0
 43 50  1  0  0  0  0
 43 53  1  0  0  0  0
 44 70  1  0  0  0  0
 45 52  1  0  0  0  0
 45 70  1  0  0  0  0
 46 73  1  0  0  0  0
 47 69  1  0  0  0  0
 48 60  1  0  0  0  0
 49 62  1  0  0  0  0
 50 51  1  0  0  0  0
 50 61  1  0  0  0  0
 51 53  1  0  0  0  0
 51 65  1  0  0  0  0
 52 68  1  0  0  0  0
 53 82  1  0  0  0  0
 54 64  1  0  0  0  0
 55 65  1  0  0  0  0
 56 66  1  0  0  0  0
 57 66  1  0  0  0  0
 58 66  1  0  0  0  0
 59 76  1  0  0  0  0
 60 65  1  0  0  0  0
 61 75  1  0  0  0  0
 62 84  1  0  0  0  0
 63 66  1  0  0  0  0
 63 74  1  0  0  0  0
 64 76  1  0  0  0  0
 67 68  1  0  0  0  0
M  CHG  1  76   1
M  ISO  4  32 100  62 101  75 100  84 101
M  END
> <Batch ID>
0118

> <Smiles>
CNC(C)C(=O)NC(C(=O)N1Cc2cc([101O:1][101CH2:1]C3CCC(CC(C)C4C(O)CC4C[100NH:0][100C:0](=O)N4CCCC(n5nc(-c6ccc(Oc7ccc(F)cc7F)cc6)c(C(N)=O)c5N)C4)C3)ccc2CC1C(=O)NC1CCCc2ccccc21)C(C)(C)C

> <Shape>
0.252

> <Color>
0.095

> <Negative vol penalty>
0.000

$$$$

  -OEChem-04052320183D

 91101  0     1  0  0  0  0  0999 V2000
  -18.4552  -26.1360   22.8630 C   0  0  0  0  0  0  0  0  0  0  0  0
  -19.4553  -26.1656   21.8964 C   0  0  0  0  0  0  0  0  0  0  0  0
  -25.0934  -16.0941   22.5023 C   0  0  0  0  0  0  0  0  0  0  0  0
  -25.5366  -16.5911   20.1799 C   0  0  0  0  0  0  0  0  0  0  0  0
  -18.0423  -27.3194   23.4737 C   0  0  0  0  0  0  0  0  0  0  0  0
  -20.0423  -27.3790   21.5391 C   0  0  0  0  0  0  0  0  0  0  0  0
  -25.0863  -27.0737   21.2080 C   0  0  0  0  0  0  0  0  0  0  0  0
  -28.2217  -23.4843   17.4467 C   0  0  0  0  0  0  0  0  0  0  0  0
  -25.0224  -17.4590   22.7809 C   0  0  0  0  0  0  0  0  0  0  0  0
  -25.4656  -17.9561   20.4585 C   0  0  0  0  0  0  0  0  0  0  0  0
  -25.6146  -26.4879   20.0584 C   0  0  0  0  0  0  0  0  0  0  0  0
  -23.0563  -20.2726   20.9582 C   0  0  0  0  0  0  0  0  0  0  0  0
  -22.3250  -21.0742   20.0817 C   0  0  0  0  0  0  0  0  0  0  0  0
  -27.3333  -24.5375   17.2598 C   0  0  0  0  0  0  0  0  0  0  0  0
  -26.0577  -28.6793   19.1526 C   0  0  0  0  0  0  0  0  0  0  0  0
  -24.3096  -22.3688   19.6099 C   0  0  0  0  0  0  0  0  0  0  0  0
  -25.3505  -15.6602   21.2018 C   0  0  0  0  0  0  0  0  0  0  0  0
  -24.3665  -13.4044   20.5303 C   0  0  0  0  0  0  0  0  0  0  0  0
  -18.6313  -28.5466   23.1307 C   0  0  0  0  0  0  0  0  0  0  0  0
  -25.0296  -28.4691   21.3340 C   0  0  0  0  0  0  0  0  0  0  0  0
  -19.6360  -28.5801   22.1449 C   0  0  0  0  0  0  0  0  0  0  0  0
  -25.5306  -29.2803   20.3058 C   0  0  0  0  0  0  0  0  0  0  0  0
  -29.2193  -23.5863   18.4100 C   0  0  0  0  0  0  0  0  0  0  0  0
  -25.2085  -18.3900   21.7590 C   0  0  0  0  0  0  0  0  0  0  0  0
  -26.0978  -27.2907   19.0293 C   0  0  0  0  0  0  0  0  0  0  0  0
  -24.4143  -20.5191   21.1606 C   0  0  0  0  0  0  0  0  0  0  0  0
  -22.9516  -22.1223   19.4076 C   0  0  0  0  0  0  0  0  0  0  0  0
  -25.0409  -21.5672   20.4864 C   0  0  0  0  0  0  0  0  0  0  0  0
  -25.4244  -14.2504   20.9135 C   0  0  0  0  0  0  0  0  0  0  0  0
  -29.2853  -24.7532   19.1542 C   0  0  0  0  0  0  0  0  0  0  0  0
  -27.4838  -25.6619   18.0554 C   0  0  0  0  0  0  0  0  0  1  0  0
  -24.9513  -12.1711   20.3771 C   0  0  0  0  0  0  0  0  0  0  0  0
  -22.9792  -13.7064   20.3307 C   0  0  0  0  0  0  0  0  0  0  0  0
  -22.6927  -30.5988   21.6609 C   0  0  0  0  0  0  0  0  0  0  0  0
  -25.1607  -32.6695   22.0393 C   0  0  0  0  0  0  0  0  0  0  0  0
  -28.4449  -33.3985   21.4653 C   0  0  0  0  0  0  0  0  0  0  0  0
  -30.1988  -13.6111   21.2990 C   0  0  0  0  0  0  0  0  0  0  0  0
  -18.1188  -29.8056   23.7842 C   0  0  0  0  0  0  0  0  0  0  0  0
  -24.4812  -29.0853   22.5918 C   0  0  0  0  0  0  0  0  0  0  0  0
  -25.5112  -30.7833   20.4007 C   0  0  0  0  0  0  0  0  0  0  0  0
  -19.0530  -31.0015   23.6186 C   0  0  0  0  0  0  0  0  0  0  0  0
  -28.2002  -11.2257   23.0548 C   0  0  0  0  0  0  0  0  0  0  0  0
  -32.4284  -13.9222   18.4562 C   0  0  0  0  0  0  0  0  0  0  0  0
  -19.5219  -31.1162   22.1716 C   0  0  0  0  0  0  0  0  0  0  0  0
  -30.0849  -24.3601   21.5791 C   0  0  0  0  0  0  0  0  0  0  0  0
  -30.0952  -25.8399   21.3545 C   0  0  0  0  0  0  0  0  0  0  0  0
  -27.4117  -10.5019   21.9690 C   0  0  0  0  0  0  0  0  0  0  0  0
  -32.0093  -15.3794   18.5905 C   0  0  0  0  0  0  0  0  0  0  0  0
  -29.5950  -11.5767   22.5603 C   0  0  0  0  0  0  0  0  0  0  0  0
  -31.2234  -13.1774   19.0096 C   0  0  0  0  0  0  0  0  0  0  0  0
  -28.7659  -11.7976   20.2258 C   0  0  0  0  0  0  0  0  0  0  0  0
  -20.3142  -29.8734   21.7482 C   0  0  1  0  0  0  0  0  0  0  0  0
  -30.3414  -24.9061   20.2007 C   0  0  0  0  0  0  0  0  0  0  0  0
  -24.0017  -30.5201   22.3944 C   0  0  1  0  0  0  0  0  0  0  0  0
  -27.3688  -11.2877   20.6487 C   0  0  2  0  0  0  0  0  0  0  0  0
  -31.2481  -15.4051   19.9188 C   0  0  1  0  0  0  0  0  0  0  0  0
  -30.1658  -35.1811   21.8633 C   0  0  0  0  0  0  0  0  0  0  0  0
  -31.4239  -20.5797   20.7254 C   0  0  0  0  0  0  0  0  0  0  0  0
  -23.9173  -34.3608   19.8249 C   0  0  0  0  0  0  0  0  0  0  0  0
  -26.1018  -35.5659   19.6145 C   0  0  0  0  0  0  0  0  0  0  0  0
  -24.8230  -35.6700   21.7538 C   0  0  0  0  0  0  0  0  0  0  0  0
  -30.1475  -31.5648   23.0457 C   0  0  0  0  0  0  0  0  0  0  0  0
  -30.1799  -22.4505   18.6139 C   0  0  0  0  0  0  0  0  0  0  0  0
  -30.1490  -16.4598   19.9244 C   0  0  0  0  0  0  0  0  0  0  0  0
  -29.7920  -18.9196   19.6781 C   0  0  0  0  0  0  0  0  0  0  0  0
  -25.9925  -33.5223   21.1120 C   0  0  1  0  0  0  0  0  0  0  0  0
  -29.5422  -33.8972   22.3882 C   0  0  2  0  0  0  0  0  0  0  0  0
  -30.5075  -20.2636   19.5473 C   0  0  1  0  0  0  0  0  0  0  0  0
  -25.2074  -34.7515   20.5734 C   0  0  0  0  0  0  0  0  0  0  0  0
  -26.5928  -13.6087   20.9986 N   0  0  0  0  0  0  0  0  0  0  0  0
  -28.4403  -25.7972   19.0011 N   0  0  0  0  0  0  0  0  0  0  0  0
  -26.2724  -12.3464   20.6668 N   0  0  0  0  0  0  0  0  0  0  0  0
  -24.9594  -31.3384   21.6477 N   0  0  0  0  0  0  0  0  0  0  0  0
  -29.5566  -12.3642   21.3279 N   0  0  0  0  0  0  0  0  0  0  0  0
  -30.7242  -14.0432   20.0791 N   0  0  0  0  0  0  0  0  0  0  0  0
  -24.4591  -10.9646   20.0242 N   0  0  0  0  0  0  0  0  0  0  0  0
  -22.5467  -15.0244   20.5310 N   0  0  0  0  0  0  0  0  0  0  0  0
  -21.6584  -29.9249   22.2820 N   0  0  0  0  0  0  0  0  0  0  0  0
  -27.2047  -33.8635   21.8486 N   0  0  0  0  0  0  0  0  0  0  0  0
  -29.5657  -21.3376   19.3342 N   0  0  0  0  0  0  0  0  0  0  0  0
  -30.6160  -32.8719   22.5175 N   0  3  0  0  0  0  0  0  0  0  0  0
  -30.7645  -17.7922   19.7484 N   0  3  0  0  0  0  0  0  0  0  0  0
  -22.1446  -12.8299   20.0008 O   0  0  0  0  0  0  0  0  0  0  0  0
  -22.6256  -31.2258   20.6102 O   0  0  0  0  0  0  0  0  0  0  0  0
  -24.7124  -33.1642   23.0766 O   0  0  0  0  0  0  0  0  0  0  0  0
  -28.6663  -32.6724   20.4988 O   0  0  0  0  0  0  0  0  0  0  0  0
  -30.3072  -14.3035   22.3197 O   0  0  0  0  0  0  0  0  0  0  0  0
  -25.1391  -19.7219   22.0305 O   0  0  0  0  0  0  0  0  0  0  0  0
  -26.6209  -26.7132   17.8896 O   0  0  0  0  0  0  0  0  0  1  0  0
  -22.2496  -22.8910   18.5647 F   0  0  0  0  0  0  0  0  0  0  0  0
  -26.3454  -21.8082   20.6759 F   0  0  0  0  0  0  0  0  0  0  0  0
  1  2  1  0  0  0  0
  1  5  2  0  0  0  0
  2  6  2  0  0  0  0
  3  9  2  0  0  0  0
  3 17  1  0  0  0  0
  4 10  1  0  0  0  0
  4 17  2  0  0  0  0
  5 19  1  0  0  0  0
  6 21  1  0  0  0  0
  7 11  2  0  0  0  0
  7 20  1  0  0  0  0
  8 14  2  0  0  0  0
  8 23  1  0  0  0  0
  9 24  1  0  0  0  0
 10 24  2  0  0  0  0
 11 25  1  0  0  0  0
 12 13  2  0  0  0  0
 12 26  1  0  0  0  0
 13 27  1  0  0  0  0
 14 31  1  0  0  0  0
 15 22  1  0  0  0  0
 15 25  2  0  0  0  0
 16 27  2  0  0  0  0
 16 28  1  0  0  0  0
 17 29  1  0  0  0  0
 18 29  1  0  0  0  0
 18 32  2  0  0  0  0
 18 33  1  0  0  0  0
 19 21  2  0  0  0  0
 19 38  1  0  0  0  0
 20 22  2  0  0  0  0
 20 39  1  0  0  0  0
 21 52  1  0  0  0  0
 22 40  1  0  0  0  0
 23 30  2  0  0  0  0
 23 63  1  0  0  0  0
 24 88  1  0  0  0  0
 25 89  1  0  0  0  0
 26 28  2  0  0  0  0
 26 88  1  0  0  0  0
 27 90  1  0  0  0  0
 28 91  1  0  0  0  0
 29 70  2  0  0  0  0
 30 53  1  0  0  0  0
 30 71  1  0  0  0  0
 31 71  2  0  0  0  0
 31 89  1  0  0  0  0
 32 72  1  0  0  0  0
 32 76  1  0  0  0  0
 33 77  1  0  0  0  0
 33 83  2  0  0  0  0
 34 54  1  0  0  0  0
 34 78  1  0  0  0  0
 34 84  2  0  0  0  0
 35 66  1  0  0  0  0
 35 73  1  0  0  0  0
 35 85  2  0  0  0  0
 36 67  1  0  0  0  0
 36 79  1  0  0  0  0
 36 86  2  0  0  0  0
 37 74  1  0  0  0  0
 37 75  1  0  0  0  0
 37 87  2  0  0  0  0
 38 41  1  0  0  0  0
 39 54  1  0  0  0  0
 40 73  1  0  0  0  0
 41 44  1  0  0  0  0
 42 47  1  0  0  0  0
 42 49  1  0  0  0  0
 43 48  1  0  0  0  0
 43 50  1  0  0  0  0
 44 52  1  0  0  0  0
 45 46  1  0  0  0  0
 45 53  1  0  0  0  0
 46 53  1  0  0  0  0
 47 55  1  0  0  0  0
 48 56  1  0  0  0  0
 49 74  1  0  0  0  0
 50 75  1  0  0  0  0
 51 55  1  0  0  0  0
 51 74  1  0  0  0  0
 52 78  1  0  0  0  0
 54 73  1  0  0  0  0
 55 72  1  0  0  0  0
 56 64  1  0  0  0  0
 56 75  1  0  0  0  0
 57 67  1  0  0  0  0
 58 68  1  0  0  0  0
 59 69  1  0  0  0  0
 60 69  1  0  0  0  0
 61 69  1  0  0  0  0
 62 81  1  0  0  0  0
 63 80  1  0  0  0  0
 64 82  1  0  0  0  0
 65 68  1  0  0  0  0
 65 82  1  0  0  0  0
 66 69  1  0  0  0  0
 66 79  1  0  0  0  0
 67 81  1  0  0  0  0
 68 80  1  0  0  0  0
 70 72  1  0  0  0  0
M  CHG  2  81   1  82   1
M  ISO  4  31 101  37 100  75 100  89 101
M  END
> <Batch ID>
0118

> <Smiles>
CNC(C)C(=O)NC(C(=O)N1Cc2cc([101O:1][101c:1]3ccc(CNC(C)CNCC4CCC[100N:0]4[100C:0](=O)N4CCCC(n5nc(-c6ccc(Oc7ccc(F)cc7F)cc6)c(C(N)=O)c5N)C4)c(C4CC4)n3)ccc2CC1C(=O)NC1CCCc2ccccc21)C(C)(C)C

> <Shape>
0.279

> <Color>
0.074

> <Negative vol penalty>
0.000

$$$$

  -OEChem-04052320183D

 84 92  0     1  0  0  0  0  0999 V2000
  -19.2578  -31.0447   18.1016 C   0  0  0  0  0  0  0  0  0  0  0  0
  -20.6358  -30.9249   18.2504 C   0  0  0  0  0  0  0  0  0  0  0  0
  -24.2001  -13.9106   20.6464 C   0  0  0  0  0  0  0  0  0  0  0  0
  -26.4254  -13.7599   21.5750 C   0  0  0  0  0  0  0  0  0  0  0  0
  -18.4322  -31.0251   19.2250 C   0  0  0  0  0  0  0  0  0  0  0  0
  -21.1891  -30.7866   19.5228 C   0  0  0  0  0  0  0  0  0  0  0  0
  -24.7416  -27.1827   19.7151 C   0  0  0  0  0  0  0  0  0  0  0  0
  -24.2233  -12.5438   20.3690 C   0  0  0  0  0  0  0  0  0  0  0  0
  -26.4486  -12.3931   21.2977 C   0  0  0  0  0  0  0  0  0  0  0  0
  -26.0011  -27.5025   19.2101 C   0  0  0  0  0  0  0  0  0  0  0  0
  -23.8052   -9.6500   22.0672 C   0  0  0  0  0  0  0  0  0  0  0  0
  -22.6727   -8.9033   22.3919 C   0  0  0  0  0  0  0  0  0  0  0  0
  -29.8060  -26.2101   17.4063 C   0  0  0  0  0  0  0  0  0  0  0  0
  -29.7257  -24.8375   17.0650 C   0  0  0  0  0  0  0  0  0  0  0  0
  -26.7964  -27.8886   21.4545 C   0  0  0  0  0  0  0  0  0  0  0  0
  -22.4207   -8.2769   20.0721 C   0  0  0  0  0  0  0  0  0  0  0  0
  -25.3012  -14.5187   21.2494 C   0  0  0  0  0  0  0  0  0  0  0  0
  -24.8276  -16.5514   22.7161 C   0  0  0  0  0  0  0  0  0  0  0  0
  -18.9749  -30.8767   20.5111 C   0  0  0  0  0  0  0  0  0  0  0  0
  -24.4966  -27.2240   21.0952 C   0  0  0  0  0  0  0  0  0  0  0  0
  -20.3701  -30.7663   20.6646 C   0  0  0  0  0  0  0  0  0  0  0  0
  -25.5337  -27.5663   21.9747 C   0  0  0  0  0  0  0  0  0  0  0  0
  -25.3476  -11.7851   20.6947 C   0  0  0  0  0  0  0  0  0  0  0  0
  -27.0279  -27.8584   20.0795 C   0  0  0  0  0  0  0  0  0  0  0  0
  -24.2455   -9.7102   20.7450 C   0  0  0  0  0  0  0  0  0  0  0  0
  -21.9804   -8.2167   21.3944 C   0  0  0  0  0  0  0  0  0  0  0  0
  -23.5532   -9.0236   19.7475 C   0  0  0  0  0  0  0  0  0  0  0  0
  -25.2780  -15.9306   21.5356 C   0  0  0  0  0  0  0  0  0  0  0  0
  -30.2979  -26.2866   18.6906 C   0  0  0  0  0  0  0  0  0  0  0  0
  -30.1709  -24.1168   18.1513 C   0  0  0  0  0  0  0  0  0  0  0  0
  -25.0134  -17.8935   22.4908 C   0  0  0  0  0  0  0  0  0  0  0  0
  -24.2895  -15.9671   23.9098 C   0  0  0  0  0  0  0  0  0  0  0  0
  -22.5589  -28.8957   22.9804 C   0  0  0  0  0  0  0  0  0  0  0  0
  -23.7091  -26.9077   25.2711 C   0  0  0  0  0  0  0  0  0  0  0  0
  -26.2180  -24.8496   26.3278 C   0  0  0  0  0  0  0  0  0  0  0  0
  -28.7743  -20.8117   18.9986 C   0  0  0  0  0  0  0  0  0  0  0  0
  -18.0462  -30.9087   21.6990 C   0  0  0  0  0  0  0  0  0  0  0  0
  -23.1398  -26.8502   21.6261 C   0  0  0  0  0  0  0  0  0  0  0  0
  -25.3278  -27.6061   23.4662 C   0  0  0  0  0  0  0  0  0  0  0  0
  -18.6817  -30.3822   22.9833 C   0  0  0  0  0  0  0  0  0  0  0  0
  -25.1679  -21.1099   18.9498 C   0  0  0  0  0  0  0  0  0  0  0  0
  -20.0708  -30.9822   23.1765 C   0  0  0  0  0  0  0  0  0  0  0  0
  -24.7489  -19.8612   19.7279 C   0  0  0  0  0  0  0  0  0  0  0  0
  -26.3814  -20.8305   18.0680 C   0  0  0  0  0  0  0  0  0  0  0  0
  -27.1441  -19.0365   19.5758 C   0  0  0  0  0  0  0  0  0  0  0  0
  -21.0061  -30.5897   22.0264 C   0  0  1  0  0  0  0  0  0  0  0  0
  -22.8615  -27.4243   23.0118 C   0  0  1  0  0  0  0  0  0  0  0  0
  -25.9359  -19.2597   20.5035 C   0  0  2  0  0  0  0  0  0  0  0  0
  -31.0344  -28.6926   18.6963 C   0  0  0  0  0  0  0  0  0  0  0  0
  -31.2493  -21.9945   17.3180 C   0  0  0  0  0  0  0  0  0  0  0  0
  -26.8912  -23.3953   28.2589 C   0  0  0  0  0  0  0  0  0  0  0  0
  -32.3793  -23.9353   20.3462 C   0  0  0  0  0  0  0  0  0  0  0  0
  -30.0186  -23.8478   21.2550 C   0  0  0  0  0  0  0  0  0  0  0  0
  -24.4381  -29.3924   26.8850 C   0  0  0  0  0  0  0  0  0  0  0  0
  -25.9191  -27.9533   28.3005 C   0  0  0  0  0  0  0  0  0  0  0  0
  -23.4629  -27.5235   28.2305 C   0  0  0  0  0  0  0  0  0  0  0  0
  -26.2781  -22.4252   24.6314 C   0  0  0  0  0  0  0  0  0  0  0  0
  -29.3809  -27.8901   20.4236 C   0  0  0  0  0  0  0  0  0  1  0  0
  -30.5851  -27.5057   19.5530 C   0  0  1  0  0  0  0  0  0  0  0  0
  -30.2948  -22.6556   18.3312 C   0  0  2  0  0  0  0  0  0  0  0  0
  -24.8815  -26.9369   26.2217 C   0  0  1  0  0  0  0  0  0  0  0  0
  -26.1931  -23.4474   26.9088 C   0  0  2  0  0  0  0  0  0  0  0  0
  -31.0314  -24.6533   20.4390 C   0  0  0  0  0  0  0  0  0  0  0  0
  -24.6791  -27.9528   27.3812 C   0  0  0  0  0  0  0  0  0  0  0  0
  -25.7168  -16.8064   20.6276 N   0  0  0  0  0  0  0  0  0  0  0  0
  -30.5158  -25.0081   19.1336 N   0  0  0  0  0  0  0  0  0  0  0  0
  -25.5429  -17.9912   21.2376 N   0  0  0  0  0  0  0  0  0  0  0  0
  -23.9819  -27.2384   23.9361 N   0  0  0  0  0  0  0  0  0  0  0  0
  -27.4816  -20.2772   18.8701 N   0  0  0  0  0  0  0  0  0  0  0  0
  -24.7739  -18.9877   23.2442 N   0  0  0  0  0  0  0  0  0  0  0  0
  -24.1673  -14.5724   23.9745 N   0  0  0  0  0  0  0  0  0  0  0  0
  -21.4719  -29.2299   22.1954 N   0  0  0  0  0  0  0  0  0  0  0  0
  -25.0848  -25.5608   26.6615 N   0  0  0  0  0  0  0  0  0  0  0  0
  -29.0146  -21.9843   18.2929 N   0  0  0  0  0  0  0  0  0  0  0  0
  -26.8760  -22.4936   25.9896 N   0  3  0  0  0  0  0  0  0  0  0  0
  -23.9125  -16.6623   24.8835 O   0  0  0  0  0  0  0  0  0  0  0  0
  -23.2587  -29.6703   23.6222 O   0  0  0  0  0  0  0  0  0  0  0  0
  -22.5938  -26.5958   25.6958 O   0  0  0  0  0  0  0  0  0  0  0  0
  -27.1511  -25.2730   25.6492 O   0  0  0  0  0  0  0  0  0  0  0  0
  -29.6488  -20.2857   19.6955 O   0  0  0  0  0  0  0  0  0  0  0  0
  -25.3705  -10.4513   20.4244 O   0  0  0  0  0  0  0  0  0  0  0  0
  -28.2581  -28.1717   19.5892 O   0  0  0  0  0  0  0  0  0  1  0  0
  -20.8938   -7.4985   21.7065 F   0  0  0  0  0  0  0  0  0  0  0  0
  -23.9720   -9.0767   18.4756 F   0  0  0  0  0  0  0  0  0  0  0  0
  1  2  1  0  0  0  0
  1  5  2  0  0  0  0
  2  6  2  0  0  0  0
  3  8  2  0  0  0  0
  3 17  1  0  0  0  0
  4  9  1  0  0  0  0
  4 17  2  0  0  0  0
  5 19  1  0  0  0  0
  6 21  1  0  0  0  0
  7 10  2  0  0  0  0
  7 20  1  0  0  0  0
  8 23  1  0  0  0  0
  9 23  2  0  0  0  0
 10 24  1  0  0  0  0
 11 12  2  0  0  0  0
 11 25  1  0  0  0  0
 12 26  1  0  0  0  0
 13 14  1  0  0  0  0
 13 29  2  0  0  0  0
 14 30  2  0  0  0  0
 15 22  1  0  0  0  0
 15 24  2  0  0  0  0
 16 26  2  0  0  0  0
 16 27  1  0  0  0  0
 17 28  1  0  0  0  0
 18 28  1  0  0  0  0
 18 31  2  0  0  0  0
 18 32  1  0  0  0  0
 19 21  2  0  0  0  0
 19 37  1  0  0  0  0
 20 22  2  0  0  0  0
 20 38  1  0  0  0  0
 21 46  1  0  0  0  0
 22 39  1  0  0  0  0
 23 81  1  0  0  0  0
 24 82  1  0  0  0  0
 25 27  2  0  0  0  0
 25 81  1  0  0  0  0
 26 83  1  0  0  0  0
 27 84  1  0  0  0  0
 28 65  2  0  0  0  0
 29 59  1  0  0  0  0
 29 66  1  0  0  0  0
 30 60  1  0  0  0  0
 30 66  1  0  0  0  0
 31 67  1  0  0  0  0
 31 70  1  0  0  0  0
 32 71  1  0  0  0  0
 32 76  2  0  0  0  0
 33 47  1  0  0  0  0
 33 72  1  0  0  0  0
 33 77  2  0  0  0  0
 34 61  1  0  0  0  0
 34 68  1  0  0  0  0
 34 78  2  0  0  0  0
 35 62  1  0  0  0  0
 35 73  1  0  0  0  0
 35 79  2  0  0  0  0
 36 69  1  0  0  0  0
 36 74  1  0  0  0  0
 36 80  2  0  0  0  0
 37 40  1  0  0  0  0
 38 47  1  0  0  0  0
 39 68  1  0  0  0  0
 40 42  1  0  0  0  0
 41 43  1  0  0  0  0
 41 44  1  0  0  0  0
 42 46  1  0  0  0  0
 43 48  1  0  0  0  0
 44 69  1  0  0  0  0
 45 48  1  0  0  0  0
 45 69  1  0  0  0  0
 46 72  1  0  0  0  0
 47 68  1  0  0  0  0
 48 67  1  0  0  0  0
 49 59  1  0  0  0  0
 50 60  1  0  0  0  0
 51 62  1  0  0  0  0
 52 63  1  0  0  0  0
 53 63  1  0  0  0  0
 54 64  1  0  0  0  0
 55 64  1  0  0  0  0
 56 64  1  0  0  0  0
 57 75  1  0  0  0  0
 58 59  1  0  0  0  0
 58 82  1  0  0  0  0
 60 74  1  0  0  0  0
 61 64  1  0  0  0  0
 61 73  1  0  0  0  0
 62 75  1  0  0  0  0
 63 66  1  0  0  0  0
 65 67  1  0  0  0  0
M  CHG  1  75   1
M  ISO  4  36 100  58 101  74 100  82 101
M  END
> <Batch ID>
0118

> <Smiles>
CNC(C)C(=O)NC(C(=O)N1Cc2cc([101O:1][101CH2:1]C(C)c3ccc(C(C)[100NH:0][100C:0](=O)N4CCCC(n5nc(-c6ccc(Oc7ccc(F)cc7F)cc6)c(C(N)=O)c5N)C4)n3C(C)C)ccc2CC1C(=O)NC1CCCc2ccccc21)C(C)(C)C

> <Shape>
0.202

> <Color>
0.090

> <Negative vol penalty>
0.000

$$$$

  -OEChem-04052320183D

 85 93  0     1  0  0  0  0  0999 V2000
  -32.3701  -14.0478   20.6681 C   0  0  0  0  0  0  0  0  0  0  0  0
  -31.6118  -15.1680   20.9930 C   0  0  0  0  0  0  0  0  0  0  0  0
  -28.4896  -24.4189   21.2259 C   0  0  0  0  0  0  0  0  0  0  0  0
  -29.5428  -25.5448   19.3657 C   0  0  0  0  0  0  0  0  0  0  0  0
  -31.7678  -12.9572   20.0422 C   0  0  0  0  0  0  0  0  0  0  0  0
  -30.2508  -15.1987   20.6910 C   0  0  0  0  0  0  0  0  0  0  0  0
  -25.8138  -17.8697   23.9597 C   0  0  0  0  0  0  0  0  0  0  0  0
  -28.7866  -23.1850   20.6473 C   0  0  0  0  0  0  0  0  0  0  0  0
  -29.8399  -24.3109   18.7871 C   0  0  0  0  0  0  0  0  0  0  0  0
  -25.1655  -19.0975   23.8338 C   0  0  0  0  0  0  0  0  0  0  0  0
  -27.5521  -21.2279   18.1836 C   0  0  0  0  0  0  0  0  0  0  0  0
  -26.5448  -20.2632   18.1632 C   0  0  0  0  0  0  0  0  0  0  0  0
  -23.3769  -18.0223   22.6239 C   0  0  0  0  0  0  0  0  0  0  0  0
  -27.9402  -18.7788   19.4619 C   0  0  0  0  0  0  0  0  0  0  0  0
  -28.8676  -25.5989   20.5851 C   0  0  0  0  0  0  0  0  0  0  0  0
  -29.3602  -27.6074   22.0786 C   0  0  0  0  0  0  0  0  0  0  0  0
  -30.3968  -12.9707   19.7411 C   0  0  0  0  0  0  0  0  0  0  0  0
  -25.2528  -16.7088   23.4082 C   0  0  0  0  0  0  0  0  0  0  0  0
  -29.6299  -14.1078   20.0592 C   0  0  0  0  0  0  0  0  0  0  0  0
  -24.0188  -16.7805   22.7464 C   0  0  0  0  0  0  0  0  0  0  0  0
  -29.4618  -23.1310   19.4279 C   0  0  0  0  0  0  0  0  0  0  0  0
  -23.9483  -19.1745   23.1633 C   0  0  0  0  0  0  0  0  0  0  0  0
  -28.7534  -20.9680   18.8431 C   0  0  0  0  0  0  0  0  0  0  0  0
  -26.7389  -19.0386   18.8023 C   0  0  0  0  0  0  0  0  0  0  0  0
  -28.9475  -19.7435   19.4822 C   0  0  0  0  0  0  0  0  0  0  0  0
  -28.5604  -26.8738   21.1820 C   0  0  0  0  0  0  0  0  0  0  0  0
  -28.6274  -28.7376   22.3467 C   0  0  0  0  0  0  0  0  0  0  0  0
  -30.6504  -27.2951   22.6207 C   0  0  0  0  0  0  0  0  0  0  0  0
  -26.1474  -14.6250   21.1808 C   0  0  0  0  0  0  0  0  0  0  0  0
  -23.4881  -13.0401   22.1495 C   0  0  0  0  0  0  0  0  0  0  0  0
  -20.4137  -13.1710   23.6252 C   0  0  0  0  0  0  0  0  0  0  0  0
  -23.1315  -30.4021   23.0513 C   0  0  0  0  0  0  0  0  0  0  0  0
  -29.8000  -11.7873   19.0213 C   0  0  0  0  0  0  0  0  0  0  0  0
  -25.9516  -15.3874   23.5759 C   0  0  0  0  0  0  0  0  0  0  0  0
  -23.3645  -15.5601   22.1541 C   0  0  0  0  0  0  0  0  0  0  0  0
  -28.2749  -11.7481   19.0739 C   0  0  0  0  0  0  0  0  0  0  0  0
  -24.9523  -31.1394   20.1155 C   0  0  0  0  0  0  0  0  0  0  0  0
  -27.6940  -13.1201   18.7466 C   0  0  0  0  0  0  0  0  0  0  0  0
  -26.1295  -30.1686   20.1486 C   0  0  0  0  0  0  0  0  0  0  0  0
  -21.7120  -28.7094   26.0208 C   0  0  0  0  0  0  0  0  0  0  0  0
  -23.6889  -30.4754   20.6464 C   0  0  0  0  0  0  0  0  0  0  0  0
  -21.9652  -29.9574   25.1895 C   0  0  0  0  0  0  0  0  0  0  0  0
  -22.8887  -28.0535   24.0572 C   0  0  0  0  0  0  0  0  0  0  0  0
  -25.0201  -28.9824   22.1122 C   0  0  0  0  0  0  0  0  0  0  0  0
  -28.1456  -14.1688   19.7702 C   0  0  1  0  0  0  0  0  0  0  0  0
  -25.5403  -14.3569   22.5289 C   0  0  1  0  0  0  0  0  0  0  0  0
  -21.7556  -27.5946   24.9749 C   0  0  1  0  0  0  0  0  0  0  0  0
  -26.3227  -29.5999   21.5630 C   0  0  1  0  0  0  0  0  0  0  0  0
  -18.4607  -11.7203   24.2406 C   0  0  0  0  0  0  0  0  0  0  0  0
  -22.5993  -13.0028   19.2308 C   0  0  0  0  0  0  0  0  0  0  0  0
  -20.2919  -12.4269   20.0134 C   0  0  0  0  0  0  0  0  0  0  0  0
  -22.1875  -10.8722   20.4741 C   0  0  0  0  0  0  0  0  0  0  0  0
  -23.2242  -23.5512   26.1275 C   0  0  0  0  0  0  0  0  0  0  0  0
  -20.8542  -23.1301   25.4091 C   0  0  0  0  0  0  0  0  0  0  0  0
  -20.7334  -13.7632   26.5072 C   0  0  0  0  0  0  0  0  0  0  0  0
  -21.9851  -26.2189   25.5747 C   0  0  0  0  0  0  0  0  0  0  0  0
  -22.0600  -25.1403   24.4854 C   0  0  0  0  0  0  0  0  0  0  0  0
  -21.8553  -22.9073   22.6381 C   0  0  0  0  0  0  0  0  0  0  0  0
  -22.5032  -20.5582   21.8777 C   0  0  0  0  0  0  0  0  0  1  0  0
  -22.0325  -13.0498   21.7493 C   0  0  1  0  0  0  0  0  0  0  0  0
  -19.7790  -12.3172   24.7081 C   0  0  2  0  0  0  0  0  0  0  0  0
  -22.4420  -22.0463   21.5193 C   0  0  1  0  0  0  0  0  0  0  0  0
  -21.7908  -12.3614   20.3763 C   0  0  0  0  0  0  0  0  0  0  0  0
  -22.2177  -23.6872   24.9831 C   0  0  0  0  0  0  0  0  0  0  0  0
  -27.4077  -27.4864   20.8995 N   0  0  0  0  0  0  0  0  0  0  0  0
  -27.4778  -28.6169   21.6229 N   0  0  0  0  0  0  0  0  0  0  0  0
  -24.0898  -14.2923   22.3387 N   0  0  0  0  0  0  0  0  0  0  0  0
  -23.8907  -29.9125   21.9828 N   0  0  0  0  0  0  0  0  0  0  0  0
  -22.7963  -29.5156   24.0739 N   0  0  0  0  0  0  0  0  0  0  0  0
  -28.8605  -29.8130   23.1288 N   0  0  0  0  0  0  0  0  0  0  0  0
  -31.2618  -26.0928   22.2401 N   0  0  0  0  0  0  0  0  0  0  0  0
  -21.6006  -22.2136   20.3283 N   0  0  0  0  0  0  0  0  0  0  0  0
  -27.3854  -14.0399   20.9949 N   0  0  0  0  0  0  0  0  0  0  0  0
  -21.3004  -12.4461   22.8575 N   0  0  0  0  0  0  0  0  0  0  0  0
  -19.5189  -13.1349   25.9266 N   0  3  0  0  0  0  0  0  0  0  0  0
  -22.7040  -22.8343   23.8512 N   0  3  0  0  0  0  0  0  0  0  0  0
  -31.2361  -28.0519   23.4316 O   0  0  0  0  0  0  0  0  0  0  0  0
  -25.5372  -15.3107   20.3689 O   0  0  0  0  0  0  0  0  0  0  0  0
  -24.0678  -11.9612   22.2960 O   0  0  0  0  0  0  0  0  0  0  0  0
  -20.1466  -14.3610   23.4731 O   0  0  0  0  0  0  0  0  0  0  0  0
  -22.7317  -31.5741   23.0719 O   0  0  0  0  0  0  0  0  0  0  0  0
  -29.7521  -21.9271   18.8631 O   0  0  0  0  0  0  0  0  0  0  0  0
  -23.3098  -20.3794   23.0376 O   0  0  0  0  0  0  0  0  0  1  0  0
  -25.7710  -18.1129   18.7840 F   0  0  0  0  0  0  0  0  0  0  0  0
  -30.0990  -19.4886   20.1185 F   0  0  0  0  0  0  0  0  0  0  0  0
  1  2  1  0  0  0  0
  1  5  2  0  0  0  0
  2  6  2  0  0  0  0
  3  8  2  0  0  0  0
  3 15  1  0  0  0  0
  4  9  1  0  0  0  0
  4 15  2  0  0  0  0
  5 17  1  0  0  0  0
  6 19  1  0  0  0  0
  7 10  2  0  0  0  0
  7 18  1  0  0  0  0
  8 21  1  0  0  0  0
  9 21  2  0  0  0  0
 10 22  1  0  0  0  0
 11 12  2  0  0  0  0
 11 23  1  0  0  0  0
 12 24  1  0  0  0  0
 13 20  1  0  0  0  0
 13 22  2  0  0  0  0
 14 24  2  0  0  0  0
 14 25  1  0  0  0  0
 15 26  1  0  0  0  0
 16 26  1  0  0  0  0
 16 27  2  0  0  0  0
 16 28  1  0  0  0  0
 17 19  2  0  0  0  0
 17 33  1  0  0  0  0
 18 20  2  0  0  0  0
 18 34  1  0  0  0  0
 19 45  1  0  0  0  0
 20 35  1  0  0  0  0
 21 82  1  0  0  0  0
 22 83  1  0  0  0  0
 23 25  2  0  0  0  0
 23 82  1  0  0  0  0
 24 84  1  0  0  0  0
 25 85  1  0  0  0  0
 26 65  2  0  0  0  0
 27 66  1  0  0  0  0
 27 70  1  0  0  0  0
 28 71  1  0  0  0  0
 28 77  2  0  0  0  0
 29 46  1  0  0  0  0
 29 73  1  0  0  0  0
 29 78  2  0  0  0  0
 30 60  1  0  0  0  0
 30 67  1  0  0  0  0
 30 79  2  0  0  0  0
 31 61  1  0  0  0  0
 31 74  1  0  0  0  0
 31 80  2  0  0  0  0
 32 68  1  0  0  0  0
 32 69  1  0  0  0  0
 32 81  2  0  0  0  0
 33 36  1  0  0  0  0
 34 46  1  0  0  0  0
 35 67  1  0  0  0  0
 36 38  1  0  0  0  0
 37 39  1  0  0  0  0
 37 41  1  0  0  0  0
 38 45  1  0  0  0  0
 39 48  1  0  0  0  0
 40 42  1  0  0  0  0
 40 47  1  0  0  0  0
 41 68  1  0  0  0  0
 42 69  1  0  0  0  0
 43 47  1  0  0  0  0
 43 69  1  0  0  0  0
 44 48  1  0  0  0  0
 44 68  1  0  0  0  0
 45 73  1  0  0  0  0
 46 67  1  0  0  0  0
 47 56  1  0  0  0  0
 48 66  1  0  0  0  0
 49 61  1  0  0  0  0
 50 63  1  0  0  0  0
 51 63  1  0  0  0  0
 52 63  1  0  0  0  0
 53 64  1  0  0  0  0
 54 64  1  0  0  0  0
 55 75  1  0  0  0  0
 56 57  1  0  0  0  0
 57 64  1  0  0  0  0
 58 62  1  0  0  0  0
 58 76  1  0  0  0  0
 59 62  1  0  0  0  0
 59 83  1  0  0  0  0
 60 63  1  0  0  0  0
 60 74  1  0  0  0  0
 61 75  1  0  0  0  0
 62 72  1  0  0  0  0
 64 76  1  0  0  0  0
 65 66  1  0  0  0  0
M  CHG  2  75   1  76   1
M  ISO  4  32 100  59 101  69 100  83 101
M  END
> <Batch ID>
0118

> <Smiles>
CNC(C)C(=O)NC(C(=O)N1Cc2cc([101O:1][101CH2:1]C(N)CNC(C)(C)CCC3CC[100N:0]([100C:0](=O)N4CCCC(n5nc(-c6ccc(Oc7ccc(F)cc7F)cc6)c(C(N)=O)c5N)C4)C3)ccc2CC1C(=O)NC1CCCc2ccccc21)C(C)(C)C

> <Shape>
0.228

> <Color>
0.066

> <Negative vol penalty>
0.000

$$$$

  -OEChem-04052320183D

 86 94  0     1  0  0  0  0  0999 V2000
  -24.7335  -16.4841   24.7754 C   0  0  0  0  0  0  0  0  0  0  0  0
  -25.8106  -17.3646   24.7739 C   0  0  0  0  0  0  0  0  0  0  0  0
  -23.0889   -9.8423   20.0418 C   0  0  0  0  0  0  0  0  0  0  0  0
  -23.9502   -9.9563   22.2962 C   0  0  0  0  0  0  0  0  0  0  0  0
  -23.5467  -16.8375   25.4162 C   0  0  0  0  0  0  0  0  0  0  0  0
  -25.7012  -18.5995   25.4122 C   0  0  0  0  0  0  0  0  0  0  0  0
  -29.7725  -19.7063   28.2129 C   0  0  0  0  0  0  0  0  0  0  0  0
  -22.3855   -8.6831   20.3692 C   0  0  0  0  0  0  0  0  0  0  0  0
  -23.2468   -8.7972   22.6236 C   0  0  0  0  0  0  0  0  0  0  0  0
  -30.9041  -20.1633   27.5387 C   0  0  0  0  0  0  0  0  0  0  0  0
  -20.6486   -5.4916   20.5136 C   0  0  0  0  0  0  0  0  0  0  0  0
  -20.6952   -4.4269   19.6137 C   0  0  0  0  0  0  0  0  0  0  0  0
  -30.3360  -22.4308   28.1345 C   0  0  0  0  0  0  0  0  0  0  0  0
  -23.0966   -4.3251   19.8585 C   0  0  0  0  0  0  0  0  0  0  0  0
  -23.8713  -10.4789   21.0053 C   0  0  0  0  0  0  0  0  0  0  0  0
  -24.1452  -13.0046   20.7738 C   0  0  0  0  0  0  0  0  0  0  0  0
  -23.4259  -18.0734   26.0709 C   0  0  0  0  0  0  0  0  0  0  0  0
  -28.9069  -20.6107   28.8448 C   0  0  0  0  0  0  0  0  0  0  0  0
  -24.5112  -18.9703   26.0611 C   0  0  0  0  0  0  0  0  0  0  0  0
  -29.1956  -21.9826   28.8182 C   0  0  0  0  0  0  0  0  0  0  0  0
  -22.4644   -8.1605   21.6600 C   0  0  0  0  0  0  0  0  0  0  0  0
  -31.1844  -21.5259   27.4969 C   0  0  0  0  0  0  0  0  0  0  0  0
  -21.8260   -5.9730   21.0860 C   0  0  0  0  0  0  0  0  0  0  0  0
  -21.9192   -3.8437   19.2861 C   0  0  0  0  0  0  0  0  0  0  0  0
  -23.0500   -5.3898   20.7584 C   0  0  0  0  0  0  0  0  0  0  0  0
  -24.5985  -11.6760   20.6676 C   0  0  0  0  0  0  0  0  0  0  0  0
  -25.2012  -13.7640   20.3328 C   0  0  0  0  0  0  0  0  0  0  0  0
  -22.8824  -13.5072   21.2303 C   0  0  0  0  0  0  0  0  0  0  0  0
  -25.8500  -21.4081   28.4938 C   0  0  0  0  0  0  0  0  0  0  0  0
  -26.4118  -23.1833   31.1500 C   0  0  0  0  0  0  0  0  0  0  0  0
  -28.6725  -24.8062   33.1254 C   0  0  0  0  0  0  0  0  0  0  0  0
  -30.8156  -14.6095   20.6848 C   0  0  0  0  0  0  0  0  0  0  0  0
  -22.1071  -18.4308   26.7093 C   0  0  0  0  0  0  0  0  0  0  0  0
  -27.7048  -20.0995   29.5906 C   0  0  0  0  0  0  0  0  0  0  0  0
  -28.3090  -22.9928   29.4979 C   0  0  0  0  0  0  0  0  0  0  0  0
  -22.1996  -19.6025   27.6834 C   0  0  0  0  0  0  0  0  0  0  0  0
  -29.4735  -12.4500   17.9873 C   0  0  0  0  0  0  0  0  0  0  0  0
  -23.0016  -20.7454   27.0691 C   0  0  0  0  0  0  0  0  0  0  0  0
  -28.0757  -12.1101   18.5014 C   0  0  0  0  0  0  0  0  0  0  0  0
  -31.4839  -17.4837   22.5094 C   0  0  0  0  0  0  0  0  0  0  0  0
  -29.4472  -17.8347   21.0564 C   0  0  0  0  0  0  0  0  0  0  0  0
  -30.4450  -12.7291   19.1298 C   0  0  0  0  0  0  0  0  0  0  0  0
  -31.0574  -16.0304   22.6992 C   0  0  0  0  0  0  0  0  0  0  0  0
  -29.0743  -16.3624   21.2540 C   0  0  0  0  0  0  0  0  0  0  0  0
  -28.5778  -13.4431   20.5878 C   0  0  0  0  0  0  0  0  0  0  0  0
  -24.4395  -20.3087   26.7638 C   0  0  1  0  0  0  0  0  0  0  0  0
  -26.6151  -21.1534   29.7616 C   0  0  1  0  0  0  0  0  0  0  0  0
  -27.5646  -13.2001   19.4591 C   0  0  2  0  0  0  0  0  0  0  0  0
  -30.2625  -18.3591   22.2365 C   0  0  0  0  0  0  0  0  0  0  0  0
  -28.8275  -26.1980   35.2078 C   0  0  0  0  0  0  0  0  0  0  0  0
  -33.2726  -24.1658   26.8990 C   0  0  0  0  0  0  0  0  0  0  0  0
  -25.3228  -25.5885   29.6206 C   0  0  0  0  0  0  0  0  0  0  0  0
  -26.3639  -27.0708   31.3490 C   0  0  0  0  0  0  0  0  0  0  0  0
  -24.5864  -25.4488   32.0066 C   0  0  0  0  0  0  0  0  0  0  0  0
  -28.9617  -23.1591   21.8303 C   0  0  0  0  0  0  0  0  0  0  0  0
  -30.5586  -22.2040   20.1755 C   0  0  0  0  0  0  0  0  0  0  0  0
  -30.4106  -22.8193   34.4632 C   0  0  0  0  0  0  0  0  0  0  0  0
  -31.1351  -22.7375   24.0204 C   0  0  0  0  0  0  0  0  0  0  0  0
  -32.4149  -23.1742   24.7464 C   0  0  0  0  0  0  0  0  0  0  0  0
  -31.3600  -22.6692   22.5042 C   0  0  0  0  0  0  0  0  0  0  0  0
  -29.6487  -20.7737   22.0585 C   0  0  0  0  0  0  0  0  0  0  0  0
  -26.8896  -24.5908   31.4139 C   0  0  1  0  0  0  0  0  0  0  0  0
  -28.8894  -24.7935   34.6278 C   0  0  2  0  0  0  0  0  0  0  0  0
  -32.2119  -23.2787   26.2609 C   0  0  1  0  0  0  0  0  0  1  0  0
  -25.8065  -25.6561   31.0830 C   0  0  0  0  0  0  0  0  0  0  0  0
  -30.1450  -22.1828   21.6636 C   0  0  0  0  0  0  0  0  0  0  0  0
  -25.8454  -11.5928   20.1960 N   0  0  0  0  0  0  0  0  0  0  0  0
  -26.1845  -12.8787   20.0018 N   0  0  0  0  0  0  0  0  0  0  0  0
  -27.1423  -22.4442   30.2088 N   0  0  0  0  0  0  0  0  0  0  0  0
  -29.9169  -13.7337   20.0529 N   0  0  0  0  0  0  0  0  0  0  0  0
  -30.2672  -15.5590   21.5602 N   0  0  0  0  0  0  0  0  0  0  0  0
  -25.3754  -15.0960   20.1996 N   0  0  0  0  0  0  0  0  0  0  0  0
  -21.9093  -12.5890   21.6478 N   0  0  0  0  0  0  0  0  0  0  0  0
  -25.2294  -20.2872   27.9763 N   0  0  0  0  0  0  0  0  0  0  0  0
  -27.3467  -24.6137   32.7991 N   0  0  0  0  0  0  0  0  0  0  0  0
  -30.7142  -19.7428   21.9381 N   0  3  0  0  0  0  0  0  0  0  0  0
  -30.2207  -24.2086   34.9540 N   0  3  0  0  0  0  0  0  0  0  0  0
  -22.6188  -14.7334   21.2515 O   0  0  0  0  0  0  0  0  0  0  0  0
  -25.8233  -22.5383   28.0209 O   0  0  0  0  0  0  0  0  0  0  0  0
  -25.4309  -22.7529   31.7618 O   0  0  0  0  0  0  0  0  0  0  0  0
  -29.5870  -24.9741   32.3217 O   0  0  0  0  0  0  0  0  0  0  0  0
  -32.0337  -14.5469   20.4766 O   0  0  0  0  0  0  0  0  0  0  0  0
  -21.7780   -7.0296   21.9799 O   0  0  0  0  0  0  0  0  0  0  0  0
  -32.2946  -21.9773   26.8350 O   0  0  0  0  0  0  0  0  0  1  0  0
  -21.9636   -2.8203   18.4230 F   0  0  0  0  0  0  0  0  0  0  0  0
  -24.1844   -5.8472   21.3060 F   0  0  0  0  0  0  0  0  0  0  0  0
  1  2  1  0  0  0  0
  1  5  2  0  0  0  0
  2  6  2  0  0  0  0
  3  8  2  0  0  0  0
  3 15  1  0  0  0  0
  4  9  1  0  0  0  0
  4 15  2  0  0  0  0
  5 17  1  0  0  0  0
  6 19  1  0  0  0  0
  7 10  2  0  0  0  0
  7 18  1  0  0  0  0
  8 21  1  0  0  0  0
  9 21  2  0  0  0  0
 10 22  1  0  0  0  0
 11 12  2  0  0  0  0
 11 23  1  0  0  0  0
 12 24  1  0  0  0  0
 13 20  1  0  0  0  0
 13 22  2  0  0  0  0
 14 24  2  0  0  0  0
 14 25  1  0  0  0  0
 15 26  1  0  0  0  0
 16 26  1  0  0  0  0
 16 27  2  0  0  0  0
 16 28  1  0  0  0  0
 17 19  2  0  0  0  0
 17 33  1  0  0  0  0
 18 20  2  0  0  0  0
 18 34  1  0  0  0  0
 19 46  1  0  0  0  0
 20 35  1  0  0  0  0
 21 83  1  0  0  0  0
 22 84  1  0  0  0  0
 23 25  2  0  0  0  0
 23 83  1  0  0  0  0
 24 85  1  0  0  0  0
 25 86  1  0  0  0  0
 26 67  2  0  0  0  0
 27 68  1  0  0  0  0
 27 72  1  0  0  0  0
 28 73  1  0  0  0  0
 28 78  2  0  0  0  0
 29 47  1  0  0  0  0
 29 74  1  0  0  0  0
 29 79  2  0  0  0  0
 30 62  1  0  0  0  0
 30 69  1  0  0  0  0
 30 80  2  0  0  0  0
 31 63  1  0  0  0  0
 31 75  1  0  0  0  0
 31 81  2  0  0  0  0
 32 70  1  0  0  0  0
 32 71  1  0  0  0  0
 32 82  2  0  0  0  0
 33 36  1  0  0  0  0
 34 47  1  0  0  0  0
 35 69  1  0  0  0  0
 36 38  1  0  0  0  0
 37 39  1  0  0  0  0
 37 42  1  0  0  0  0
 38 46  1  0  0  0  0
 39 48  1  0  0  0  0
 40 43  1  0  0  0  0
 40 49  1  0  0  0  0
 41 44  1  0  0  0  0
 41 49  1  0  0  0  0
 42 70  1  0  0  0  0
 43 71  1  0  0  0  0
 44 71  1  0  0  0  0
 45 48  1  0  0  0  0
 45 70  1  0  0  0  0
 46 74  1  0  0  0  0
 47 69  1  0  0  0  0
 48 68  1  0  0  0  0
 49 76  1  0  0  0  0
 50 63  1  0  0  0  0
 51 64  1  0  0  0  0
 52 65  1  0  0  0  0
 53 65  1  0  0  0  0
 54 65  1  0  0  0  0
 55 66  1  0  0  0  0
 56 66  1  0  0  0  0
 57 77  1  0  0  0  0
 58 59  1  0  0  0  0
 58 60  1  0  0  0  0
 59 64  1  0  0  0  0
 60 66  1  0  0  0  0
 61 66  1  0  0  0  0
 61 76  1  0  0  0  0
 62 65  1  0  0  0  0
 62 75  1  0  0  0  0
 63 77  1  0  0  0  0
 64 84  1  0  0  0  0
 67 68  1  0  0  0  0
M  CHG  2  76   1  77   1
M  ISO  4  32 100  64 101  71 100  84 101
M  END
> <Batch ID>
0118

> <Smiles>
CNC(C)C(=O)NC(C(=O)N1Cc2cc([101O:1][101CH:1](C)CCCC(C)(C)CNC3CC[100N:0]([100C:0](=O)N4CCCC(n5nc(-c6ccc(Oc7ccc(F)cc7F)cc6)c(C(N)=O)c5N)C4)CC3)ccc2CC1C(=O)NC1CCCc2ccccc21)C(C)(C)C

> <Shape>
0.177

> <Color>
0.175

> <Negative vol penalty>
0.000

$$$$

  -OEChem-04052320183D

 81 89  0     1  0  0  0  0  0999 V2000
  -20.5663  -33.3872   15.3292 C   0  0  0  0  0  0  0  0  0  0  0  0
  -21.4702  -32.3361   15.4454 C   0  0  0  0  0  0  0  0  0  0  0  0
  -26.9937  -12.4770   22.3628 C   0  0  0  0  0  0  0  0  0  0  0  0
  -27.4536  -11.0302   20.4834 C   0  0  0  0  0  0  0  0  0  0  0  0
  -20.6853  -34.5023   16.1577 C   0  0  0  0  0  0  0  0  0  0  0  0
  -22.4944  -32.3999   16.3896 C   0  0  0  0  0  0  0  0  0  0  0  0
  -24.8667  -27.7338   19.5686 C   0  0  0  0  0  0  0  0  0  0  0  0
  -26.1045  -11.5313   22.8732 C   0  0  0  0  0  0  0  0  0  0  0  0
  -26.5644  -10.0844   20.9938 C   0  0  0  0  0  0  0  0  0  0  0  0
  -26.0155  -26.9645   19.3891 C   0  0  0  0  0  0  0  0  0  0  0  0
  -23.2177   -9.6184   21.1083 C   0  0  0  0  0  0  0  0  0  0  0  0
  -22.3176   -9.0296   20.2203 C   0  0  0  0  0  0  0  0  0  0  0  0
  -27.2010  -28.3845   20.9375 C   0  0  0  0  0  0  0  0  0  0  0  0
  -23.2421   -6.8552   20.7252 C   0  0  0  0  0  0  0  0  0  0  0  0
  -27.6682  -12.2265   21.1678 C   0  0  0  0  0  0  0  0  0  0  0  0
  -29.9662  -13.3017   20.9014 C   0  0  0  0  0  0  0  0  0  0  0  0
  -21.7056  -34.5755   17.1191 C   0  0  0  0  0  0  0  0  0  0  0  0
  -24.8796  -28.8426   20.4270 C   0  0  0  0  0  0  0  0  0  0  0  0
  -22.6279  -33.5175   17.2309 C   0  0  0  0  0  0  0  0  0  0  0  0
  -26.0504  -29.1647   21.1281 C   0  0  0  0  0  0  0  0  0  0  0  0
  -25.8899  -10.3350   22.1888 C   0  0  0  0  0  0  0  0  0  0  0  0
  -27.1837  -27.2915   20.0714 C   0  0  0  0  0  0  0  0  0  0  0  0
  -24.1300   -8.8258   21.8048 C   0  0  0  0  0  0  0  0  0  0  0  0
  -22.3298   -7.6480   20.0287 C   0  0  0  0  0  0  0  0  0  0  0  0
  -24.1422   -7.4442   21.6132 C   0  0  0  0  0  0  0  0  0  0  0  0
  -28.5864  -13.2033   20.6397 C   0  0  0  0  0  0  0  0  0  0  0  0
  -30.3785  -14.3862   20.1663 C   0  0  0  0  0  0  0  0  0  0  0  0
  -30.8005  -12.4857   21.7343 C   0  0  0  0  0  0  0  0  0  0  0  0
  -24.4273  -31.9676   20.0616 C   0  0  0  0  0  0  0  0  0  0  0  0
  -24.6433  -31.9824   23.2982 C   0  0  0  0  0  0  0  0  0  0  0  0
  -25.7790  -30.4590   26.1330 C   0  0  0  0  0  0  0  0  0  0  0  0
  -29.7522  -19.5116   18.3052 C   0  0  0  0  0  0  0  0  0  0  0  0
  -21.8225  -35.8220   17.9600 C   0  0  0  0  0  0  0  0  0  0  0  0
  -23.6245  -29.6464   20.6302 C   0  0  0  0  0  0  0  0  0  0  0  0
  -26.1106  -30.3330   22.0767 C   0  0  0  0  0  0  0  0  0  0  0  0
  -22.7099  -35.6462   19.1896 C   0  0  0  0  0  0  0  0  0  0  0  0
  -28.0091  -17.0510   16.5913 C   0  0  0  0  0  0  0  0  0  0  0  0
  -24.0100  -34.9426   18.8135 C   0  0  0  0  0  0  0  0  0  0  0  0
  -28.1055  -15.8307   17.5061 C   0  0  0  0  0  0  0  0  0  0  0  0
  -30.5683  -22.5130   19.5599 C   0  0  0  0  0  0  0  0  0  0  0  0
  -28.8157  -21.3871   20.9987 C   0  0  0  0  0  0  0  0  0  0  0  0
  -27.7787  -18.3216   17.4009 C   0  0  0  0  0  0  0  0  0  0  0  0
  -31.2398  -21.1533   19.3852 C   0  0  0  0  0  0  0  0  0  0  0  0
  -28.9349  -17.3584   19.3632 C   0  0  0  0  0  0  0  0  0  0  0  0
  -23.7374  -33.5388   18.2599 C   0  0  1  0  0  0  0  0  0  0  0  0
  -23.8956  -31.0603   21.1348 C   0  0  1  0  0  0  0  0  0  0  0  0
  -29.7758  -22.5831   20.8737 C   0  0  2  0  0  0  0  0  0  0  0  0
  -29.1715  -16.0423   18.5952 C   0  0  1  0  0  0  0  0  0  0  0  0
  -29.5127  -20.0288   20.7781 C   0  0  2  0  0  0  0  0  0  0  0  0
  -30.4025  -19.6505   21.9663 C   0  0  0  0  0  0  0  0  0  0  0  0
  -25.8330  -30.7280   28.6274 C   0  0  0  0  0  0  0  0  0  0  0  0
  -28.1794  -23.9230   22.2584 C   0  0  0  0  0  0  0  0  0  0  0  0
  -26.8086  -34.1139   23.0190 C   0  0  0  0  0  0  0  0  0  0  0  0
  -27.4707  -33.6525   25.3890 C   0  0  0  0  0  0  0  0  0  0  0  0
  -25.1855  -34.5132   24.8792 C   0  0  0  0  0  0  0  0  0  0  0  0
  -24.2914  -27.9353   26.5537 C   0  0  0  0  0  0  0  0  0  0  0  0
  -29.9436  -25.1247   20.9373 C   0  0  0  0  0  0  0  0  0  0  0  0
  -29.2086  -26.4581   20.9994 C   0  0  0  0  0  0  0  0  0  1  0  0
  -25.7692  -32.1239   24.2939 C   0  0  1  0  0  0  0  0  0  0  0  0
  -25.0893  -30.1283   27.4443 C   0  0  2  0  0  0  0  0  0  0  0  0
  -29.0115  -23.9022   20.9737 C   0  0  1  0  0  0  0  0  0  0  0  0
  -26.3082  -33.5800   24.3760 C   0  0  0  0  0  0  0  0  0  0  0  0
  -28.1513  -14.1499   19.8039 N   0  0  0  0  0  0  0  0  0  0  0  0
  -29.2640  -14.8535   19.5340 N   0  0  0  0  0  0  0  0  0  0  0  0
  -24.8593  -31.0920   22.2369 N   0  0  0  0  0  0  0  0  0  0  0  0
  -28.8039  -18.4864   18.4317 N   0  0  0  0  0  0  0  0  0  0  0  0
  -30.2578  -20.0711   19.4976 N   0  0  0  0  0  0  0  0  0  0  0  0
  -31.5820  -14.9763   20.0057 N   0  0  0  0  0  0  0  0  0  0  0  0
  -30.2151  -11.4118   22.4187 N   0  0  0  0  0  0  0  0  0  0  0  0
  -23.4462  -32.6181   19.3378 N   0  0  0  0  0  0  0  0  0  0  0  0
  -25.2635  -31.6017   25.5588 N   0  0  0  0  0  0  0  0  0  0  0  0
  -25.0174  -28.6518   27.6337 N   0  3  0  0  0  0  0  0  0  0  0  0
  -32.0255  -12.7124   21.8806 O   0  0  0  0  0  0  0  0  0  0  0  0
  -25.6380  -32.0711   19.9030 O   0  0  0  0  0  0  0  0  0  0  0  0
  -23.6075  -32.6324   23.4602 O   0  0  0  0  0  0  0  0  0  0  0  0
  -26.6870  -29.7744   25.6668 O   0  0  0  0  0  0  0  0  0  0  0  0
  -30.1193  -19.9140   17.1937 O   0  0  0  0  0  0  0  0  0  0  0  0
  -25.0224   -9.4119   22.6867 O   0  0  0  0  0  0  0  0  0  0  0  0
  -28.3144  -26.5375   19.8963 O   0  0  0  0  0  0  0  0  0  1  0  0
  -21.4644   -7.0824   19.1770 F   0  0  0  0  0  0  0  0  0  0  0  0
  -25.0155   -6.6774   22.2804 F   0  0  0  0  0  0  0  0  0  0  0  0
  1  2  1  0  0  0  0
  1  5  2  0  0  0  0
  2  6  2  0  0  0  0
  3  8  2  0  0  0  0
  3 15  1  0  0  0  0
  4  9  1  0  0  0  0
  4 15  2  0  0  0  0
  5 17  1  0  0  0  0
  6 19  1  0  0  0  0
  7 10  2  0  0  0  0
  7 18  1  0  0  0  0
  8 21  1  0  0  0  0
  9 21  2  0  0  0  0
 10 22  1  0  0  0  0
 11 12  2  0  0  0  0
 11 23  1  0  0  0  0
 12 24  1  0  0  0  0
 13 20  1  0  0  0  0
 13 22  2  0  0  0  0
 14 24  2  0  0  0  0
 14 25  1  0  0  0  0
 15 26  1  0  0  0  0
 16 26  1  0  0  0  0
 16 27  2  0  0  0  0
 16 28  1  0  0  0  0
 17 19  2  0  0  0  0
 17 33  1  0  0  0  0
 18 20  2  0  0  0  0
 18 34  1  0  0  0  0
 19 45  1  0  0  0  0
 20 35  1  0  0  0  0
 21 78  1  0  0  0  0
 22 79  1  0  0  0  0
 23 25  2  0  0  0  0
 23 78  1  0  0  0  0
 24 80  1  0  0  0  0
 25 81  1  0  0  0  0
 26 63  2  0  0  0  0
 27 64  1  0  0  0  0
 27 68  1  0  0  0  0
 28 69  1  0  0  0  0
 28 73  2  0  0  0  0
 29 46  1  0  0  0  0
 29 70  1  0  0  0  0
 29 74  2  0  0  0  0
 30 59  1  0  0  0  0
 30 65  1  0  0  0  0
 30 75  2  0  0  0  0
 31 60  1  0  0  0  0
 31 71  1  0  0  0  0
 31 76  2  0  0  0  0
 32 66  1  0  0  0  0
 32 67  1  0  0  0  0
 32 77  2  0  0  0  0
 33 36  1  0  0  0  0
 34 46  1  0  0  0  0
 35 65  1  0  0  0  0
 36 38  1  0  0  0  0
 37 39  1  0  0  0  0
 37 42  1  0  0  0  0
 38 45  1  0  0  0  0
 39 48  1  0  0  0  0
 40 43  1  0  0  0  0
 40 47  1  0  0  0  0
 41 47  1  0  0  0  0
 41 49  1  0  0  0  0
 42 66  1  0  0  0  0
 43 67  1  0  0  0  0
 44 48  1  0  0  0  0
 44 66  1  0  0  0  0
 45 70  1  0  0  0  0
 46 65  1  0  0  0  0
 47 61  1  0  0  0  0
 48 64  1  0  0  0  0
 49 50  1  0  0  0  0
 49 67  1  0  0  0  0
 51 60  1  0  0  0  0
 52 61  1  0  0  0  0
 53 62  1  0  0  0  0
 54 62  1  0  0  0  0
 55 62  1  0  0  0  0
 56 72  1  0  0  0  0
 57 58  1  0  0  0  0
 57 61  1  0  0  0  0
 58 79  1  0  0  0  0
 59 62  1  0  0  0  0
 59 71  1  0  0  0  0
 60 72  1  0  0  0  0
 63 64  1  0  0  0  0
M  CHG  1  72   1
M  ISO  4  32 100  58 101  67 100  79 101
M  END
> <Batch ID>
0118

> <Smiles>
CNC(C)C(=O)NC(C(=O)N1Cc2cc([101O:1][101CH2:1]CC(C)C3CC[100N:0]([100C:0](=O)N4CCCC(n5nc(-c6ccc(Oc7ccc(F)cc7F)cc6)c(C(N)=O)c5N)C4)C(C)C3)ccc2CC1C(=O)NC1CCCc2ccccc21)C(C)(C)C

> <Shape>
0.283

> <Color>
0.099

> <Negative vol penalty>
0.000

$$$$

  -OEChem-04052320183D

 86 94  0     1  0  0  0  0  0999 V2000
  -36.8088  -17.0938   35.7792 C   0  0  0  0  0  0  0  0  0  0  0  0
  -36.9643  -16.4518   34.5548 C   0  0  0  0  0  0  0  0  0  0  0  0
  -23.2829   -9.7966   19.9090 C   0  0  0  0  0  0  0  0  0  0  0  0
  -23.7215   -9.9361   22.2807 C   0  0  0  0  0  0  0  0  0  0  0  0
  -36.1234  -18.3061   35.8473 C   0  0  0  0  0  0  0  0  0  0  0  0
  -36.4335  -17.0213   33.3979 C   0  0  0  0  0  0  0  0  0  0  0  0
  -37.7125  -17.6157   26.3746 C   0  0  0  0  0  0  0  0  0  0  0  0
  -22.5502   -8.6274   20.1132 C   0  0  0  0  0  0  0  0  0  0  0  0
  -22.9888   -8.7668   22.4850 C   0  0  0  0  0  0  0  0  0  0  0  0
  -37.0848  -17.4200   25.1452 C   0  0  0  0  0  0  0  0  0  0  0  0
  -19.7366   -7.8703   22.6851 C   0  0  0  0  0  0  0  0  0  0  0  0
  -18.8284   -7.8529   23.7436 C   0  0  0  0  0  0  0  0  0  0  0  0
  -35.9886  -19.5569   25.3714 C   0  0  0  0  0  0  0  0  0  0  0  0
  -20.0206   -6.0007   24.7361 C   0  0  0  0  0  0  0  0  0  0  0  0
  -23.8686  -10.4509   20.9928 C   0  0  0  0  0  0  0  0  0  0  0  0
  -24.1403  -12.9797   20.7948 C   0  0  0  0  0  0  0  0  0  0  0  0
  -35.5923  -18.8954   34.6892 C   0  0  0  0  0  0  0  0  0  0  0  0
  -37.4741  -18.7805   27.1180 C   0  0  0  0  0  0  0  0  0  0  0  0
  -35.7391  -18.2418   33.4508 C   0  0  0  0  0  0  0  0  0  0  0  0
  -36.6165  -19.7661   26.6088 C   0  0  0  0  0  0  0  0  0  0  0  0
  -22.4031   -8.1125   21.4011 C   0  0  0  0  0  0  0  0  0  0  0  0
  -36.2205  -18.3893   24.6448 C   0  0  0  0  0  0  0  0  0  0  0  0
  -20.7868   -6.9528   22.6520 C   0  0  0  0  0  0  0  0  0  0  0  0
  -18.9704   -6.9182   24.7691 C   0  0  0  0  0  0  0  0  0  0  0  0
  -20.9288   -6.0180   23.6775 C   0  0  0  0  0  0  0  0  0  0  0  0
  -24.6260  -11.6585   20.7824 C   0  0  0  0  0  0  0  0  0  0  0  0
  -25.2465  -13.7546   20.5455 C   0  0  0  0  0  0  0  0  0  0  0  0
  -22.8082  -13.4633   21.0122 C   0  0  0  0  0  0  0  0  0  0  0  0
  -36.2327  -19.4018   29.9775 C   0  0  0  0  0  0  0  0  0  0  0  0
  -37.1721  -22.4308   29.2956 C   0  0  0  0  0  0  0  0  0  0  0  0
  -37.9567  -24.7563   26.9243 C   0  0  0  0  0  0  0  0  0  0  0  0
  -31.0200  -12.6480   21.5395 C   0  0  0  0  0  0  0  0  0  0  0  0
  -34.8183  -20.1833   34.8197 C   0  0  0  0  0  0  0  0  0  0  0  0
  -38.1796  -18.9886   28.4300 C   0  0  0  0  0  0  0  0  0  0  0  0
  -36.3427  -21.0434   27.3585 C   0  0  0  0  0  0  0  0  0  0  0  0
  -34.6108  -20.9064   33.4914 C   0  0  0  0  0  0  0  0  0  0  0  0
  -29.4750  -13.6674   18.3482 C   0  0  0  0  0  0  0  0  0  0  0  0
  -29.0284  -20.5363   19.9648 C   0  0  0  0  0  0  0  0  0  0  0  0
  -34.1465  -19.9276   32.4175 C   0  0  0  0  0  0  0  0  0  0  0  0
  -29.9446  -20.0067   21.0669 C   0  0  0  0  0  0  0  0  0  0  0  0
  -28.0108  -13.3261   18.6081 C   0  0  0  0  0  0  0  0  0  0  0  0
  -30.4243  -12.6954   19.0474 C   0  0  0  0  0  0  0  0  0  0  0  0
  -28.7034  -12.2282   20.7729 C   0  0  0  0  0  0  0  0  0  0  0  0
  -28.8190  -19.5063   18.8665 C   0  0  0  0  0  0  0  0  0  0  0  0
  -29.2268  -17.6541   20.5021 C   0  0  0  0  0  0  0  0  0  0  0  0
  -35.1991  -18.8402   32.1700 C   0  0  1  0  0  0  0  0  0  0  0  0
  -37.4649  -19.9810   29.3420 C   0  0  1  0  0  0  0  0  0  0  0  0
  -29.4361  -18.6697   21.6252 C   0  0  1  0  0  0  0  0  0  0  0  0
  -27.7376  -13.2263   20.1165 C   0  0  2  0  0  0  0  0  0  0  0  0
  -38.6497  -27.1548   26.6707 C   0  0  0  0  0  0  0  0  0  0  0  0
  -29.6690  -17.1407   23.5891 C   0  0  0  0  0  0  0  0  0  0  0  0
  -34.3123  -23.3168   29.8843 C   0  0  0  0  0  0  0  0  0  0  0  0
  -34.8162  -25.4763   28.7220 C   0  0  0  0  0  0  0  0  0  0  0  0
  -36.0817  -24.8427   30.7762 C   0  0  0  0  0  0  0  0  0  0  0  0
  -40.5028  -24.0034   25.6166 C   0  0  0  0  0  0  0  0  0  0  0  0
  -31.6135  -17.4695   21.9707 C   0  0  0  0  0  0  0  0  0  0  0  0
  -32.8592  -17.3891   22.8622 C   0  0  0  0  0  0  0  0  0  0  0  0
  -33.8926  -15.3999   21.5639 C   0  0  0  0  0  0  0  0  0  0  0  0
  -35.3276  -16.8544   23.0627 C   0  0  0  0  0  0  0  0  0  1  0  0
  -33.3980  -13.0048   22.1507 C   0  0  0  0  0  0  0  0  0  0  0  0
  -36.5386  -23.6183   28.6119 C   0  0  1  0  0  0  0  0  0  0  0  0
  -39.1261  -25.7167   26.8033 C   0  0  2  0  0  0  0  0  0  0  0  0
  -30.4033  -18.1181   22.6702 C   0  0  1  0  0  0  0  0  0  0  0  0
  -34.0985  -16.8086   22.1390 C   0  0  2  0  0  0  0  0  0  0  0  0
  -35.4406  -24.2887   29.4851 C   0  0  0  0  0  0  0  0  0  0  0  0
  -25.9387  -11.5939   20.5440 N   0  0  0  0  0  0  0  0  0  0  0  0
  -26.2871  -12.8843   20.4041 N   0  0  0  0  0  0  0  0  0  0  0  0
  -37.0515  -21.1976   28.6396 N   0  0  0  0  0  0  0  0  0  0  0  0
  -30.1027  -12.5567   20.4765 N   0  0  0  0  0  0  0  0  0  0  0  0
  -25.4210  -15.0887   20.4355 N   0  0  0  0  0  0  0  0  0  0  0  0
  -21.7901  -12.5310   21.2545 N   0  0  0  0  0  0  0  0  0  0  0  0
  -36.2793  -19.3579   31.3579 N   0  0  0  0  0  0  0  0  0  0  0  0
  -37.6336  -24.5083   28.2416 N   0  0  0  0  0  0  0  0  0  0  0  0
  -32.3389  -12.8882   21.1723 N   0  0  0  0  0  0  0  0  0  0  0  0
  -28.3150  -18.2383   19.4724 N   0  3  0  0  0  0  0  0  0  0  0  0
  -39.9496  -25.3822   25.6071 N   0  3  0  0  0  0  0  0  0  0  0  0
  -33.5459  -14.4117   22.6219 N   0  3  0  0  0  0  0  0  0  0  0  0
  -22.5259  -14.6850   20.9760 O   0  0  0  0  0  0  0  0  0  0  0  0
  -35.3076  -19.0242   29.2682 O   0  0  0  0  0  0  0  0  0  0  0  0
  -37.7588  -22.5928   30.3686 O   0  0  0  0  0  0  0  0  0  0  0  0
  -37.3846  -24.2772   25.9478 O   0  0  0  0  0  0  0  0  0  0  0  0
  -30.6889  -12.5222   22.7232 O   0  0  0  0  0  0  0  0  0  0  0  0
  -21.6881   -6.9718   21.6008 O   0  0  0  0  0  0  0  0  0  0  0  0
  -35.6019  -18.1992   23.4372 O   0  0  0  0  0  0  0  0  0  1  0  0
  -18.0991   -6.9027   25.7864 F   0  0  0  0  0  0  0  0  0  0  0  0
  -21.9364   -5.1349   23.6519 F   0  0  0  0  0  0  0  0  0  0  0  0
  1  2  1  0  0  0  0
  1  5  2  0  0  0  0
  2  6  2  0  0  0  0
  3  8  2  0  0  0  0
  3 15  1  0  0  0  0
  4  9  1  0  0  0  0
  4 15  2  0  0  0  0
  5 17  1  0  0  0  0
  6 19  1  0  0  0  0
  7 10  2  0  0  0  0
  7 18  1  0  0  0  0
  8 21  1  0  0  0  0
  9 21  2  0  0  0  0
 10 22  1  0  0  0  0
 11 12  2  0  0  0  0
 11 23  1  0  0  0  0
 12 24  1  0  0  0  0
 13 20  1  0  0  0  0
 13 22  2  0  0  0  0
 14 24  2  0  0  0  0
 14 25  1  0  0  0  0
 15 26  1  0  0  0  0
 16 26  1  0  0  0  0
 16 27  2  0  0  0  0
 16 28  1  0  0  0  0
 17 19  2  0  0  0  0
 17 33  1  0  0  0  0
 18 20  2  0  0  0  0
 18 34  1  0  0  0  0
 19 46  1  0  0  0  0
 20 35  1  0  0  0  0
 21 83  1  0  0  0  0
 22 84  1  0  0  0  0
 23 25  2  0  0  0  0
 23 83  1  0  0  0  0
 24 85  1  0  0  0  0
 25 86  1  0  0  0  0
 26 66  2  0  0  0  0
 27 67  1  0  0  0  0
 27 70  1  0  0  0  0
 28 71  1  0  0  0  0
 28 78  2  0  0  0  0
 29 47  1  0  0  0  0
 29 72  1  0  0  0  0
 29 79  2  0  0  0  0
 30 61  1  0  0  0  0
 30 68  1  0  0  0  0
 30 80  2  0  0  0  0
 31 62  1  0  0  0  0
 31 73  1  0  0  0  0
 31 81  2  0  0  0  0
 32 69  1  0  0  0  0
 32 74  1  0  0  0  0
 32 82  2  0  0  0  0
 33 36  1  0  0  0  0
 34 47  1  0  0  0  0
 35 68  1  0  0  0  0
 36 39  1  0  0  0  0
 37 41  1  0  0  0  0
 37 42  1  0  0  0  0
 38 40  1  0  0  0  0
 38 44  1  0  0  0  0
 39 46  1  0  0  0  0
 40 48  1  0  0  0  0
 41 49  1  0  0  0  0
 42 69  1  0  0  0  0
 43 49  1  0  0  0  0
 43 69  1  0  0  0  0
 44 75  1  0  0  0  0
 45 48  1  0  0  0  0
 45 75  1  0  0  0  0
 46 72  1  0  0  0  0
 47 68  1  0  0  0  0
 48 63  1  0  0  0  0
 49 67  1  0  0  0  0
 50 62  1  0  0  0  0
 51 63  1  0  0  0  0
 52 65  1  0  0  0  0
 53 65  1  0  0  0  0
 54 65  1  0  0  0  0
 55 76  1  0  0  0  0
 56 57  1  0  0  0  0
 56 63  1  0  0  0  0
 57 64  1  0  0  0  0
 58 64  1  0  0  0  0
 58 77  1  0  0  0  0
 59 64  1  0  0  0  0
 59 84  1  0  0  0  0
 60 74  1  0  0  0  0
 60 77  1  0  0  0  0
 61 65  1  0  0  0  0
 61 73  1  0  0  0  0
 62 76  1  0  0  0  0
 66 67  1  0  0  0  0
M  CHG  3  75   1  76   1  77   1
M  ISO  4  32 100  59 101  74 100  84 101
M  END
> <Batch ID>
0118

> <Smiles>
CNC(C)C(=O)NC(C(=O)N1Cc2cc([101O:1][101CH2:1]C(CCC(C)C3CCCNC3)CNC[100NH:0][100C:0](=O)N3CCCC(n4nc(-c5ccc(Oc6ccc(F)cc6F)cc5)c(C(N)=O)c4N)C3)ccc2CC1C(=O)NC1CCCc2ccccc21)C(C)(C)C

> <Shape>
0.178

> <Color>
0.160

> <Negative vol penalty>
0.000

$$$$

  -OEChem-04052320183D

 86 94  0     1  0  0  0  0  0999 V2000
  -27.6825  -31.2835   25.8442 C   0  0  0  0  0  0  0  0  0  0  0  0
  -28.5311  -30.1910   25.6965 C   0  0  0  0  0  0  0  0  0  0  0  0
  -22.2946  -23.4146   23.5280 C   0  0  0  0  0  0  0  0  0  0  0  0
  -20.4999  -21.8048   23.3708 C   0  0  0  0  0  0  0  0  0  0  0  0
  -26.4033  -31.2509   25.2905 C   0  0  0  0  0  0  0  0  0  0  0  0
  -28.1005  -29.0648   24.9959 C   0  0  0  0  0  0  0  0  0  0  0  0
  -30.5682  -23.8519   20.7472 C   0  0  0  0  0  0  0  0  0  0  0  0
  -21.3640  -24.4311   23.7433 C   0  0  0  0  0  0  0  0  0  0  0  0
  -19.5693  -22.8213   23.5861 C   0  0  0  0  0  0  0  0  0  0  0  0
  -30.5666  -22.4622   20.6354 C   0  0  0  0  0  0  0  0  0  0  0  0
  -19.4391  -27.5075   23.9762 C   0  0  0  0  0  0  0  0  0  0  0  0
  -19.6059  -28.7009   23.2738 C   0  0  0  0  0  0  0  0  0  0  0  0
  -28.3646  -22.5497   19.6542 C   0  0  0  0  0  0  0  0  0  0  0  0
  -19.4129  -27.4995   21.1866 C   0  0  0  0  0  0  0  0  0  0  0  0
  -21.8625  -22.1014   23.3417 C   0  0  0  0  0  0  0  0  0  0  0  0
  -23.4528  -20.2538   24.0934 C   0  0  0  0  0  0  0  0  0  0  0  0
  -25.9603  -30.1276   24.5746 C   0  0  0  0  0  0  0  0  0  0  0  0
  -29.4617  -24.6013   20.3226 C   0  0  0  0  0  0  0  0  0  0  0  0
  -26.8137  -29.0166   24.4333 C   0  0  0  0  0  0  0  0  0  0  0  0
  -28.3557  -23.9489   19.7593 C   0  0  0  0  0  0  0  0  0  0  0  0
  -20.0014  -24.1344   23.7724 C   0  0  0  0  0  0  0  0  0  0  0  0
  -29.4636  -21.8106   20.0915 C   0  0  0  0  0  0  0  0  0  0  0  0
  -19.2593  -26.3100   23.2839 C   0  0  0  0  0  0  0  0  0  0  0  0
  -19.5928  -28.6970   21.8791 C   0  0  0  0  0  0  0  0  0  0  0  0
  -19.2461  -26.3060   21.8891 C   0  0  0  0  0  0  0  0  0  0  0  0
  -22.8233  -21.0511   23.1187 C   0  0  0  0  0  0  0  0  0  0  0  0
  -24.2683  -19.4136   23.3754 C   0  0  0  0  0  0  0  0  0  0  0  0
  -23.3129  -20.2712   25.5202 C   0  0  0  0  0  0  0  0  0  0  0  0
  -27.3895  -26.5457   21.7471 C   0  0  0  0  0  0  0  0  0  0  0  0
  -26.3604  -27.0388   18.7106 C   0  0  0  0  0  0  0  0  0  0  0  0
  -26.1182  -25.8806   15.5096 C   0  0  0  0  0  0  0  0  0  0  0  0
  -25.1386  -16.0051   19.0429 C   0  0  0  0  0  0  0  0  0  0  0  0
  -24.5521  -30.1198   24.0346 C   0  0  0  0  0  0  0  0  0  0  0  0
  -29.4900  -26.1017   20.4255 C   0  0  0  0  0  0  0  0  0  0  0  0
  -27.1511  -24.7091   19.2699 C   0  0  0  0  0  0  0  0  0  0  0  0
  -24.3077  -29.0375   22.9863 C   0  0  0  0  0  0  0  0  0  0  0  0
  -25.5988  -19.4930   18.4958 C   0  0  0  0  0  0  0  0  0  0  0  0
  -24.8744  -27.7015   23.4561 C   0  0  0  0  0  0  0  0  0  0  0  0
  -24.9644  -20.1432   19.7266 C   0  0  0  0  0  0  0  0  0  0  0  0
  -24.8260  -18.2533   18.0509 C   0  0  0  0  0  0  0  0  0  0  0  0
  -23.9772  -17.8955   20.3368 C   0  0  0  0  0  0  0  0  0  0  0  0
  -24.2504  -12.8385   20.4249 C   0  0  0  0  0  0  0  0  0  0  0  0
  -26.3920  -27.7867   23.6591 C   0  0  1  0  0  0  0  0  0  0  0  0
  -28.0982  -26.7263   20.4346 C   0  0  1  0  0  0  0  0  0  0  0  0
  -26.3563  -13.5060   21.3202 C   0  0  1  0  0  0  0  0  0  0  0  0
  -24.7536  -19.1175   20.8566 C   0  0  2  0  0  0  0  0  0  0  0  0
  -25.3900  -13.8116   20.1762 C   0  0  2  0  0  0  0  0  0  0  0  0
  -26.3550  -11.9745   21.3324 C   0  0  1  0  0  0  0  0  0  0  0  0
  -25.1884  -26.4891   13.2596 C   0  0  0  0  0  0  0  0  0  0  0  0
  -25.7596  -11.8145   23.7663 C   0  0  0  0  0  0  0  0  0  0  0  0
  -26.7281   -9.8265   22.5775 C   0  0  0  0  0  0  0  0  0  0  0  0
  -27.9655  -15.7803   23.0060 C   0  0  0  0  0  0  0  0  0  0  0  0
  -23.5573  -26.3182   19.6768 C   0  0  0  0  0  0  0  0  0  0  0  0
  -22.8860  -26.0149   17.2840 C   0  0  0  0  0  0  0  0  0  0  0  0
  -23.6495  -28.2488   18.0898 C   0  0  0  0  0  0  0  0  0  0  0  0
  -28.8040  -25.8645   14.2664 C   0  0  0  0  0  0  0  0  0  0  0  0
  -27.7447  -14.0957   21.1153 C   0  0  0  0  0  0  0  0  0  0  0  0
  -29.2204  -17.7142   20.9873 C   0  0  0  0  0  0  0  0  0  0  0  0
  -30.4428  -18.2612   20.2414 C   0  0  0  0  0  0  0  0  0  0  0  0
  -29.0527  -16.2103   20.7448 C   0  0  0  0  0  0  0  0  0  0  0  0
  -30.6180  -19.7615   20.4438 C   0  0  0  0  0  0  0  0  0  1  0  0
  -25.3387  -26.3887   17.8093 C   0  0  1  0  0  0  0  0  0  0  0  0
  -26.4022  -26.5441   14.1741 C   0  0  2  0  0  0  0  0  0  0  0  0
  -26.7210  -11.3543   22.6678 C   0  0  0  0  0  0  0  0  0  0  0  0
  -27.8511  -15.5889   21.4906 C   0  0  2  0  0  0  0  0  0  0  0  0
  -23.8796  -26.7279   18.2259 C   0  0  0  0  0  0  0  0  0  0  0  0
  -23.2061  -20.7449   21.8763 N   0  0  0  0  0  0  0  0  0  0  0  0
  -24.0850  -19.7459   22.0653 N   0  0  0  0  0  0  0  0  0  0  0  0
  -27.2240  -26.1740   19.3978 N   0  0  0  0  0  0  0  0  0  0  0  0
  -24.6619  -17.3204   19.1683 N   0  0  0  0  0  0  0  0  0  0  0  0
  -25.1170  -18.4304   23.7431 N   0  0  0  0  0  0  0  0  0  0  0  0
  -22.4321  -21.1982   26.0940 N   0  0  0  0  0  0  0  0  0  0  0  0
  -27.0762  -27.7307   22.3851 N   0  0  0  0  0  0  0  0  0  0  0  0
  -25.6803  -26.7900   16.4489 N   0  0  0  0  0  0  0  0  0  0  0  0
  -24.9484  -15.1882   20.1507 N   0  0  0  0  0  0  0  0  0  0  0  0
  -24.9313  -11.6158   20.9776 N   0  3  0  0  0  0  0  0  0  0  0  0
  -27.5379  -25.8645   13.4891 N   0  3  0  0  0  0  0  0  0  0  0  0
  -23.9623  -19.4989   26.2654 O   0  0  0  0  0  0  0  0  0  0  0  0
  -27.1437  -25.4149   22.1504 O   0  0  0  0  0  0  0  0  0  0  0  0
  -26.3957  -28.2688   18.7963 O   0  0  0  0  0  0  0  0  0  0  0  0
  -26.2662  -24.6753   15.6994 O   0  0  0  0  0  0  0  0  0  0  0  0
  -25.6974  -15.5911   18.0215 O   0  0  0  0  0  0  0  0  0  0  0  0
  -19.0930  -25.1260   23.9826 O   0  0  0  0  0  0  0  0  0  0  0  0
  -29.4592  -20.4542   19.9818 O   0  0  0  0  0  0  0  0  0  1  0  0
  -19.7514  -29.8434   21.2047 F   0  0  0  0  0  0  0  0  0  0  0  0
  -19.0726  -25.1589   21.2184 F   0  0  0  0  0  0  0  0  0  0  0  0
  1  2  1  0  0  0  0
  1  5  2  0  0  0  0
  2  6  2  0  0  0  0
  3  8  2  0  0  0  0
  3 15  1  0  0  0  0
  4  9  1  0  0  0  0
  4 15  2  0  0  0  0
  5 17  1  0  0  0  0
  6 19  1  0  0  0  0
  7 10  2  0  0  0  0
  7 18  1  0  0  0  0
  8 21  1  0  0  0  0
  9 21  2  0  0  0  0
 10 22  1  0  0  0  0
 11 12  2  0  0  0  0
 11 23  1  0  0  0  0
 12 24  1  0  0  0  0
 13 20  1  0  0  0  0
 13 22  2  0  0  0  0
 14 24  2  0  0  0  0
 14 25  1  0  0  0  0
 15 26  1  0  0  0  0
 16 26  1  0  0  0  0
 16 27  2  0  0  0  0
 16 28  1  0  0  0  0
 17 19  2  0  0  0  0
 17 33  1  0  0  0  0
 18 20  2  0  0  0  0
 18 34  1  0  0  0  0
 19 43  1  0  0  0  0
 20 35  1  0  0  0  0
 21 83  1  0  0  0  0
 22 84  1  0  0  0  0
 23 25  2  0  0  0  0
 23 83  1  0  0  0  0
 24 85  1  0  0  0  0
 25 86  1  0  0  0  0
 26 67  2  0  0  0  0
 27 68  1  0  0  0  0
 27 71  1  0  0  0  0
 28 72  1  0  0  0  0
 28 78  2  0  0  0  0
 29 44  1  0  0  0  0
 29 73  1  0  0  0  0
 29 79  2  0  0  0  0
 30 62  1  0  0  0  0
 30 69  1  0  0  0  0
 30 80  2  0  0  0  0
 31 63  1  0  0  0  0
 31 74  1  0  0  0  0
 31 81  2  0  0  0  0
 32 70  1  0  0  0  0
 32 75  1  0  0  0  0
 32 82  2  0  0  0  0
 33 36  1  0  0  0  0
 34 44  1  0  0  0  0
 35 69  1  0  0  0  0
 36 38  1  0  0  0  0
 37 39  1  0  0  0  0
 37 40  1  0  0  0  0
 38 43  1  0  0  0  0
 39 46  1  0  0  0  0
 40 70  1  0  0  0  0
 41 46  1  0  0  0  0
 41 70  1  0  0  0  0
 42 47  1  0  0  0  0
 42 76  1  0  0  0  0
 43 73  1  0  0  0  0
 44 69  1  0  0  0  0
 45 47  1  0  0  0  0
 45 48  1  0  0  0  0
 45 57  1  0  0  0  0
 46 68  1  0  0  0  0
 47 75  1  0  0  0  0
 48 64  1  0  0  0  0
 48 76  1  0  0  0  0
 49 63  1  0  0  0  0
 50 64  1  0  0  0  0
 51 64  1  0  0  0  0
 52 65  1  0  0  0  0
 53 66  1  0  0  0  0
 54 66  1  0  0  0  0
 55 66  1  0  0  0  0
 56 77  1  0  0  0  0
 57 65  1  0  0  0  0
 58 59  1  0  0  0  0
 58 60  1  0  0  0  0
 59 61  1  0  0  0  0
 60 65  1  0  0  0  0
 61 84  1  0  0  0  0
 62 66  1  0  0  0  0
 62 74  1  0  0  0  0
 63 77  1  0  0  0  0
 67 68  1  0  0  0  0
M  CHG  2  76   1  77   1
M  ISO  4  32 100  61 101  75 100  84 101
M  END
> <Batch ID>
0118

> <Smiles>
CNC(C)C(=O)NC(C(=O)N1Cc2cc([101O:1][101CH2:1]CCCC(C)CC3C([100NH:0][100C:0](=O)N4CCCC(n5nc(-c6ccc(Oc7ccc(F)cc7F)cc6)c(C(N)=O)c5N)C4)CNC3C(C)C)ccc2CC1C(=O)NC1CCCc2ccccc21)C(C)(C)C

> <Shape>
0.197

> <Color>
0.066

> <Negative vol penalty>
0.000

$$$$

  -OEChem-04052320183D

 90 99  0     1  0  0  0  0  0999 V2000
  -28.3749  -25.9170   15.7118 C   0  0  0  0  0  0  0  0  0  0  0  0
  -27.2192  -25.8912   16.4858 C   0  0  0  0  0  0  0  0  0  0  0  0
  -27.5271  -16.8152   19.0349 C   0  0  0  0  0  0  0  0  0  0  0  0
  -28.3527  -14.9195   20.2847 C   0  0  0  0  0  0  0  0  0  0  0  0
  -29.5416  -26.4851   16.2217 C   0  0  0  0  0  0  0  0  0  0  0  0
  -27.2299  -26.4326   17.7708 C   0  0  0  0  0  0  0  0  0  0  0  0
  -23.1587  -29.2953   18.7065 C   0  0  0  0  0  0  0  0  0  0  0  0
  -19.5817  -23.9591   23.3286 C   0  0  0  0  0  0  0  0  0  0  0  0
  -20.5739  -23.1777   23.9207 C   0  0  0  0  0  0  0  0  0  0  0  0
  -28.7895  -17.4053   19.0960 C   0  0  0  0  0  0  0  0  0  0  0  0
  -29.6152  -15.5096   20.3457 C   0  0  0  0  0  0  0  0  0  0  0  0
  -21.9688  -28.6323   19.0036 C   0  0  0  0  0  0  0  0  0  0  0  0
  -31.7043  -19.5751   19.2339 C   0  0  0  0  0  0  0  0  0  0  0  0
  -31.7734  -20.9306   19.5557 C   0  0  0  0  0  0  0  0  0  0  0  0
  -22.3360  -29.0384   21.3529 C   0  0  0  0  0  0  0  0  0  0  0  0
  -21.1614  -24.6978   21.6565 C   0  0  0  0  0  0  0  0  0  0  0  0
  -30.6994  -20.4826   21.6730 C   0  0  0  0  0  0  0  0  0  0  0  0
  -27.3087  -15.5723   19.6293 C   0  0  0  0  0  0  0  0  0  0  0  0
  -25.5190  -14.0941   18.5712 C   0  0  0  0  0  0  0  0  0  0  0  0
  -29.5639  -27.0424   17.5099 C   0  0  0  0  0  0  0  0  0  0  0  0
  -23.9531  -29.8262   19.7330 C   0  0  0  0  0  0  0  0  0  0  0  0
  -28.3983  -27.0076   18.2990 C   0  0  0  0  0  0  0  0  0  0  0  0
  -23.5343  -29.7099   21.0661 C   0  0  0  0  0  0  0  0  0  0  0  0
  -19.8755  -24.7192   22.1965 C   0  0  0  0  0  0  0  0  0  0  0  0
  -21.8598  -23.1563   23.3807 C   0  0  0  0  0  0  0  0  0  0  0  0
  -22.1536  -23.9164   22.2486 C   0  0  0  0  0  0  0  0  0  0  0  0
  -29.8335  -16.7525   19.7514 C   0  0  0  0  0  0  0  0  0  0  0  0
  -21.5587  -28.5012   20.3271 C   0  0  0  0  0  0  0  0  0  0  0  0
  -31.1327  -18.6734   20.1316 C   0  0  0  0  0  0  0  0  0  0  0  0
  -31.2710  -21.3843   20.7753 C   0  0  0  0  0  0  0  0  0  0  0  0
  -30.6303  -19.1271   21.3511 C   0  0  0  0  0  0  0  0  0  0  0  0
  -26.0047  -14.9625   19.5671 C   0  0  0  0  0  0  0  0  0  0  0  0
  -24.2383  -13.7976   18.9690 C   0  0  0  0  0  0  0  0  0  0  0  0
  -26.1676  -13.5997   17.3919 C   0  0  0  0  0  0  0  0  0  0  0  0
  -26.9080  -29.3033   20.7812 C   0  0  0  0  0  0  0  0  0  0  0  0
  -26.2606  -31.8413   22.6948 C   0  0  0  0  0  0  0  0  0  0  0  0
  -23.9167  -33.7756   24.2475 C   0  0  0  0  0  0  0  0  0  0  0  0
  -24.1001  -17.0105   23.3073 C   0  0  0  0  0  0  0  0  0  0  0  0
  -30.8615  -27.6030   18.0360 C   0  0  0  0  0  0  0  0  0  0  0  0
  -25.2205  -30.5619   19.3941 C   0  0  0  0  0  0  0  0  0  0  0  0
  -24.3408  -30.2799   22.2033 C   0  0  0  0  0  0  0  0  0  0  0  0
  -30.6874  -28.4913   19.2652 C   0  0  0  0  0  0  0  0  0  0  0  0
  -23.4697  -13.5528   23.2726 C   0  0  0  0  0  0  0  0  0  0  0  0
  -29.7618  -27.8252   20.2784 C   0  0  0  0  0  0  0  0  0  0  0  0
  -22.7268  -13.3045   21.9627 C   0  0  0  0  0  0  0  0  0  0  0  0
  -23.0284  -14.8633   23.9078 C   0  0  0  0  0  0  0  0  0  0  0  0
  -22.4558  -18.7950   22.5895 C   0  0  0  0  0  0  0  0  0  0  0  0
  -22.5117  -15.8471   21.6911 C   0  0  0  0  0  0  0  0  0  0  0  0
  -22.1498  -20.0072   23.4592 C   0  0  0  0  0  0  0  0  0  0  0  0
  -24.5871  -20.5158   23.6006 C   0  0  0  0  0  0  0  0  0  0  0  0
  -28.3635  -27.6070   19.6881 C   0  0  1  0  0  0  0  0  0  0  0  0
  -26.2095  -30.6141   20.5545 C   0  0  1  0  0  0  0  0  0  0  0  0
  -22.7836  -14.4964   20.9913 C   0  0  1  0  0  0  0  0  0  0  0  0
  -24.9012  -19.2924   22.7382 C   0  0  2  0  0  0  0  0  0  0  0  0
  -25.1969  -19.6559   21.2800 C   0  0  0  0  0  0  0  0  0  0  0  0
  -24.1849  -25.2993   21.6876 C   0  0  0  0  0  0  0  0  0  0  0  0
  -23.5355  -23.3586   20.2156 C   0  0  0  0  0  0  0  0  0  0  0  0
  -23.6932  -35.7546   25.7743 C   0  0  0  0  0  0  0  0  0  0  0  0
  -27.0685  -30.0998   25.0665 C   0  0  0  0  0  0  0  0  0  0  0  0
  -25.9439  -31.7525   26.5738 C   0  0  0  0  0  0  0  0  0  0  0  0
  -27.8870  -32.4603   25.1787 C   0  0  0  0  0  0  0  0  0  0  0  0
  -22.4173  -35.3198   22.2163 C   0  0  0  0  0  0  0  0  0  0  0  0
  -18.8147  -25.5549   21.5639 C   0  0  0  0  0  0  0  0  0  0  0  0
  -22.9106  -22.3091   24.0357 C   0  0  0  0  0  0  0  0  0  0  0  0
  -18.7262  -26.9874   22.1138 C   0  0  0  0  0  0  0  0  0  0  0  0
  -20.0374  -27.7557   21.9962 C   0  0  0  0  0  0  0  0  0  1  0  0
  -23.5233  -23.9096   21.6532 C   0  0  0  0  0  0  0  0  0  0  0  0
  -25.6591  -32.0189   24.0680 C   0  0  1  0  0  0  0  0  0  0  0  0
  -23.7478  -35.2820   24.3298 C   0  0  2  0  0  0  0  0  0  0  0  0
  -26.6252  -31.5703   25.2007 C   0  0  0  0  0  0  0  0  0  0  0  0
  -25.1057  -15.2021   20.5254 N   0  0  0  0  0  0  0  0  0  0  0  0
  -24.0422  -14.4800   20.1335 N   0  0  0  0  0  0  0  0  0  0  0  0
  -25.5755  -30.9849   21.8213 N   0  0  0  0  0  0  0  0  0  0  0  0
  -23.1940  -15.9863   22.9865 N   0  0  0  0  0  0  0  0  0  0  0  0
  -23.8199  -18.2945   22.8134 N   0  0  0  0  0  0  0  0  0  0  0  0
  -23.2719  -13.0223   18.4328 N   0  0  0  0  0  0  0  0  0  0  0  0
  -27.4845  -14.0043   17.1342 N   0  0  0  0  0  0  0  0  0  0  0  0
  -27.6165  -28.8465   19.6863 N   0  0  0  0  0  0  0  0  0  0  0  0
  -25.2443  -33.4149   24.1544 N   0  0  0  0  0  0  0  0  0  0  0  0
  -23.2175  -21.0529   23.2680 N   0  3  2  0  0  0  0  0  0  0  0  0
  -22.4888  -35.6999   23.6507 N   0  3  0  0  0  0  0  0  0  0  0  0
  -25.5906  -12.8352   16.5819 O   0  0  0  0  0  0  0  0  0  0  0  0
  -26.8124  -28.7480   21.8694 O   0  0  0  0  0  0  0  0  0  0  0  0
  -27.2962  -32.4458   22.4054 O   0  0  0  0  0  0  0  0  0  0  0  0
  -22.9663  -32.9966   24.2679 O   0  0  0  0  0  0  0  0  0  0  0  0
  -25.1126  -16.7861   23.9828 O   0  0  0  0  0  0  0  0  0  0  0  0
  -31.0656  -17.3279   19.8109 O   0  0  0  0  0  0  0  0  0  0  0  0
  -20.3898  -27.8494   20.6219 O   0  0  0  0  0  0  0  0  0  1  0  0
  -31.3388  -22.6857   21.0848 F   0  0  0  0  0  0  0  0  0  0  0  0
  -30.0811  -18.2654   22.2181 F   0  0  0  0  0  0  0  0  0  0  0  0
  1  2  1  0  0  0  0
  1  5  2  0  0  0  0
  2  6  2  0  0  0  0
  3 10  2  0  0  0  0
  3 18  1  0  0  0  0
  4 11  1  0  0  0  0
  4 18  2  0  0  0  0
  5 20  1  0  0  0  0
  6 22  1  0  0  0  0
  7 12  2  0  0  0  0
  7 21  1  0  0  0  0
  8  9  2  0  0  0  0
  8 24  1  0  0  0  0
  9 25  1  0  0  0  0
 10 27  1  0  0  0  0
 11 27  2  0  0  0  0
 12 28  1  0  0  0  0
 13 14  2  0  0  0  0
 13 29  1  0  0  0  0
 14 30  1  0  0  0  0
 15 23  1  0  0  0  0
 15 28  2  0  0  0  0
 16 24  2  0  0  0  0
 16 26  1  0  0  0  0
 17 30  2  0  0  0  0
 17 31  1  0  0  0  0
 18 32  1  0  0  0  0
 19 32  1  0  0  0  0
 19 33  2  0  0  0  0
 19 34  1  0  0  0  0
 20 22  2  0  0  0  0
 20 39  1  0  0  0  0
 21 23  2  0  0  0  0
 21 40  1  0  0  0  0
 22 51  1  0  0  0  0
 23 41  1  0  0  0  0
 24 63  1  0  0  0  0
 25 26  2  0  0  0  0
 25 64  1  0  0  0  0
 26 67  1  0  0  0  0
 27 87  1  0  0  0  0
 28 88  1  0  0  0  0
 29 31  2  0  0  0  0
 29 87  1  0  0  0  0
 30 89  1  0  0  0  0
 31 90  1  0  0  0  0
 32 71  2  0  0  0  0
 33 72  1  0  0  0  0
 33 76  1  0  0  0  0
 34 77  1  0  0  0  0
 34 82  2  0  0  0  0
 35 52  1  0  0  0  0
 35 78  1  0  0  0  0
 35 83  2  0  0  0  0
 36 68  1  0  0  0  0
 36 73  1  0  0  0  0
 36 84  2  0  0  0  0
 37 69  1  0  0  0  0
 37 79  1  0  0  0  0
 37 85  2  0  0  0  0
 38 74  1  0  0  0  0
 38 75  1  0  0  0  0
 38 86  2  0  0  0  0
 39 42  1  0  0  0  0
 40 52  1  0  0  0  0
 41 73  1  0  0  0  0
 42 44  1  0  0  0  0
 43 45  1  0  0  0  0
 43 46  1  0  0  0  0
 44 51  1  0  0  0  0
 45 53  1  0  0  0  0
 46 74  1  0  0  0  0
 47 49  1  0  0  0  0
 47 75  1  0  0  0  0
 48 53  1  0  0  0  0
 48 74  1  0  0  0  0
 49 80  1  0  0  0  0
 50 54  1  0  0  0  0
 50 80  1  0  0  0  0
 51 78  1  0  0  0  0
 52 73  1  0  0  0  0
 53 72  1  0  0  0  0
 54 55  1  0  0  0  0
 54 75  1  0  0  0  0
 56 67  1  0  0  0  0
 57 67  1  0  0  0  0
 58 69  1  0  0  0  0
 59 70  1  0  0  0  0
 60 70  1  0  0  0  0
 61 70  1  0  0  0  0
 62 81  1  0  0  0  0
 63 65  1  0  0  0  0
 64 80  1  0  0  0  0
 65 66  1  0  0  0  0
 66 88  1  0  0  0  0
 68 70  1  0  0  0  0
 68 79  1  0  0  0  0
 69 81  1  0  0  0  0
 71 72  1  0  0  0  0
M  CHG  2  80   1  81   1
M  ISO  4  38 100  66 101  75 100  88 101
M  END
> <Batch ID>
0118

> <Smiles>
CNC(C)C(=O)NC(C(=O)N1Cc2cc([101O:1][101CH2:1]CCc3ccc(CN4CC[100N:0]([100C:0](=O)N5CCCC(n6nc(-c7ccc(Oc8ccc(F)cc8F)cc7)c(C(N)=O)c6N)C5)C(C)C4)c(C(C)C)c3)ccc2CC1C(=O)NC1CCCc2ccccc21)C(C)(C)C

> <Shape>
0.240

> <Color>
0.081

> <Negative vol penalty>
0.000

$$$$

  -OEChem-04052320183D

 89 97  0     1  0  0  0  0  0999 V2000
  -42.9488  -20.2277   33.3741 C   0  0  0  0  0  0  0  0  0  0  0  0
  -43.3421  -20.1871   32.0403 C   0  0  0  0  0  0  0  0  0  0  0  0
  -22.9712   -9.9385   19.9884 C   0  0  0  0  0  0  0  0  0  0  0  0
  -23.7124   -9.9620   22.2877 C   0  0  0  0  0  0  0  0  0  0  0  0
  -41.9984  -19.3239   33.8472 C   0  0  0  0  0  0  0  0  0  0  0  0
  -42.7861  -19.2419   31.1791 C   0  0  0  0  0  0  0  0  0  0  0  0
  -39.2497  -21.2648   25.2383 C   0  0  0  0  0  0  0  0  0  0  0  0
  -22.1902   -8.8132   20.2516 C   0  0  0  0  0  0  0  0  0  0  0  0
  -22.9314   -8.8367   22.5510 C   0  0  0  0  0  0  0  0  0  0  0  0
  -38.7416  -21.5647   23.9741 C   0  0  0  0  0  0  0  0  0  0  0  0
  -23.1244   -5.4982   22.0532 C   0  0  0  0  0  0  0  0  0  0  0  0
  -23.7023   -4.4672   22.7939 C   0  0  0  0  0  0  0  0  0  0  0  0
  -38.2773  -19.2221   23.5933 C   0  0  0  0  0  0  0  0  0  0  0  0
  -30.4481  -19.8483   19.0621 C   0  0  0  0  0  0  0  0  0  0  0  0
  -29.5219  -18.5368   20.8528 C   0  0  0  0  0  0  0  0  0  0  0  0
  -21.9933   -4.7224   24.4825 C   0  0  0  0  0  0  0  0  0  0  0  0
  -23.7324  -10.5129   21.0064 C   0  0  0  0  0  0  0  0  0  0  0  0
  -24.1527  -13.0239   20.8461 C   0  0  0  0  0  0  0  0  0  0  0  0
  -41.4233  -18.3734   32.9891 C   0  0  0  0  0  0  0  0  0  0  0  0
  -39.2593  -19.9427   25.6914 C   0  0  0  0  0  0  0  0  0  0  0  0
  -41.8281  -18.3237   31.6415 C   0  0  0  0  0  0  0  0  0  0  0  0
  -38.7735  -18.9173   24.8636 C   0  0  0  0  0  0  0  0  0  0  0  0
  -22.1703   -8.2623   21.5329 C   0  0  0  0  0  0  0  0  0  0  0  0
  -38.2569  -20.5458   23.1536 C   0  0  0  0  0  0  0  0  0  0  0  0
  -21.9810   -6.1415   22.5272 C   0  0  0  0  0  0  0  0  0  0  0  0
  -29.3890  -19.5531   19.9132 C   0  0  0  0  0  0  0  0  0  0  0  0
  -23.1367   -4.0792   24.0085 C   0  0  0  0  0  0  0  0  0  0  0  0
  -21.4155   -5.7536   23.7418 C   0  0  0  0  0  0  0  0  0  0  0  0
  -24.5398  -11.6750   20.7349 C   0  0  0  0  0  0  0  0  0  0  0  0
  -31.6097  -19.1038   19.1899 C   0  0  0  0  0  0  0  0  0  0  0  0
  -30.7248  -17.8509   20.9002 C   0  0  0  0  0  0  0  0  0  0  0  0
  -25.2703  -13.7331   20.4794 C   0  0  0  0  0  0  0  0  0  0  0  0
  -22.8954  -13.5856   21.2452 C   0  0  0  0  0  0  0  0  0  0  0  0
  -40.0978  -17.5615   28.4668 C   0  0  0  0  0  0  0  0  0  0  0  0
  -37.4057  -16.6617   27.3036 C   0  0  0  0  0  0  0  0  0  0  0  0
  -34.2708  -16.2532   26.0219 C   0  0  0  0  0  0  0  0  0  0  0  0
  -30.7812  -14.5868   20.6975 C   0  0  0  0  0  0  0  0  0  0  0  0
  -40.4346  -17.3864   33.5574 C   0  0  0  0  0  0  0  0  0  0  0  0
  -39.8537  -19.5659   27.0213 C   0  0  0  0  0  0  0  0  0  0  0  0
  -38.8356  -17.5054   25.3791 C   0  0  0  0  0  0  0  0  0  0  0  0
  -39.6181  -16.6600   32.4916 C   0  0  0  0  0  0  0  0  0  0  0  0
  -29.5900  -12.1972   18.3422 C   0  0  0  0  0  0  0  0  0  0  0  0
  -40.5257  -16.1611   31.3716 C   0  0  0  0  0  0  0  0  0  0  0  0
  -28.1408  -11.9552   18.7677 C   0  0  0  0  0  0  0  0  0  0  0  0
  -30.5038  -12.4106   19.5470 C   0  0  0  0  0  0  0  0  0  0  0  0
  -28.6143  -13.2236   20.9044 C   0  0  0  0  0  0  0  0  0  0  0  0
  -41.2296  -17.3292   30.6704 C   0  0  1  0  0  0  0  0  0  0  0  0
  -39.1153  -18.4006   27.7039 C   0  0  1  0  0  0  0  0  0  0  0  0
  -27.6448  -13.0585   19.7216 C   0  0  2  0  0  0  0  0  0  0  0  0
  -31.9543  -15.3168   25.7889 C   0  0  0  0  0  0  0  0  0  0  0  0
  -34.5351  -21.0796   17.6759 C   0  0  0  0  0  0  0  0  0  0  0  0
  -35.1014  -21.9124   21.2979 C   0  0  0  0  0  0  0  0  0  0  0  0
  -27.8458  -22.3867   18.7829 C   0  0  0  0  0  0  0  0  0  0  0  0
  -27.4461  -22.0308   21.2457 C   0  0  0  0  0  0  0  0  0  0  0  0
  -38.8400  -14.4775   25.7301 C   0  0  0  0  0  0  0  0  0  0  0  0
  -36.5990  -13.5305   25.1390 C   0  0  0  0  0  0  0  0  0  0  0  0
  -37.3148  -13.6394   27.5261 C   0  0  0  0  0  0  0  0  0  0  0  0
  -33.1632  -18.2027   27.9536 C   0  0  0  0  0  0  0  0  0  0  0  0
  -32.7812  -19.3972   18.2839 C   0  0  0  0  0  0  0  0  0  0  0  0
  -30.9032  -16.7555   21.8979 C   0  0  0  0  0  0  0  0  0  0  0  0
  -34.7185  -19.8253   19.8881 C   0  0  0  0  0  0  0  0  0  0  0  0
  -36.7321  -19.9950   21.4131 C   0  0  0  0  0  0  0  0  0  1  0  0
  -36.6858  -15.7718   26.3222 C   0  0  1  0  0  0  0  0  0  0  0  0
  -32.9244  -16.0583   26.6955 C   0  0  2  0  0  0  0  0  0  0  0  0
  -33.7649  -20.4526   18.8433 C   0  0  1  0  0  0  0  0  0  0  0  0
  -35.7640  -20.7779   20.5111 C   0  0  2  0  0  0  0  0  0  0  0  0
  -28.2999  -21.6634   20.0416 C   0  0  0  0  0  0  0  0  0  0  0  0
  -37.3663  -14.3818   26.1730 C   0  0  0  0  0  0  0  0  0  0  0  0
  -25.8045  -11.5332   20.3292 N   0  0  0  0  0  0  0  0  0  0  0  0
  -31.7759  -18.1092   20.0902 N   0  0  0  0  0  0  0  0  0  0  0  0
  -26.2217  -12.8022   20.1822 N   0  0  0  0  0  0  0  0  0  0  0  0
  -38.4298  -17.4684   26.7928 N   0  0  0  0  0  0  0  0  0  0  0  0
  -29.9780  -13.4708   20.4104 N   0  0  0  0  0  0  0  0  0  0  0  0
  -25.5222  -15.0561   20.3854 N   0  0  0  0  0  0  0  0  0  0  0  0
  -21.8533  -12.7139   21.5892 N   0  0  0  0  0  0  0  0  0  0  0  0
  -40.3216  -17.9935   29.7602 N   0  0  0  0  0  0  0  0  0  0  0  0
  -35.2976  -15.7128   26.7668 N   0  0  0  0  0  0  0  0  0  0  0  0
  -30.2041  -15.5481   21.5183 N   0  0  0  0  0  0  0  0  0  0  0  0
  -32.3252  -17.3768   27.0467 N   0  3  0  0  0  0  0  0  0  0  0  0
  -22.6967  -14.8237   21.2794 O   0  0  0  0  0  0  0  0  0  0  0  0
  -40.6146  -16.5922   27.9236 O   0  0  0  0  0  0  0  0  0  0  0  0
  -37.0749  -16.6401   28.4925 O   0  0  0  0  0  0  0  0  0  0  0  0
  -34.3984  -16.8243   24.9411 O   0  0  0  0  0  0  0  0  0  0  0  0
  -31.9256  -14.7195   20.2507 O   0  0  0  0  0  0  0  0  0  0  0  0
  -21.4081   -7.1644   21.7903 O   0  0  0  0  0  0  0  0  0  0  0  0
  -37.7581  -20.8460   21.9224 O   0  0  0  0  0  0  0  0  0  1  0  0
  -28.2266  -20.2546   19.8260 O   0  0  0  0  0  0  0  0  0  0  0  0
  -23.6908   -3.0881   24.7189 F   0  0  0  0  0  0  0  0  0  0  0  0
  -20.3164   -6.3670   24.2017 F   0  0  0  0  0  0  0  0  0  0  0  0
  1  2  1  0  0  0  0
  1  5  2  0  0  0  0
  2  6  2  0  0  0  0
  3  8  2  0  0  0  0
  3 17  1  0  0  0  0
  4  9  1  0  0  0  0
  4 17  2  0  0  0  0
  5 19  1  0  0  0  0
  6 21  1  0  0  0  0
  7 10  2  0  0  0  0
  7 20  1  0  0  0  0
  8 23  1  0  0  0  0
  9 23  2  0  0  0  0
 10 24  1  0  0  0  0
 11 12  2  0  0  0  0
 11 25  1  0  0  0  0
 12 27  1  0  0  0  0
 13 22  1  0  0  0  0
 13 24  2  0  0  0  0
 14 26  2  0  0  0  0
 14 30  1  0  0  0  0
 15 26  1  0  0  0  0
 15 31  2  0  0  0  0
 16 27  2  0  0  0  0
 16 28  1  0  0  0  0
 17 29  1  0  0  0  0
 18 29  1  0  0  0  0
 18 32  2  0  0  0  0
 18 33  1  0  0  0  0
 19 21  2  0  0  0  0
 19 38  1  0  0  0  0
 20 22  2  0  0  0  0
 20 39  1  0  0  0  0
 21 47  1  0  0  0  0
 22 40  1  0  0  0  0
 23 85  1  0  0  0  0
 24 86  1  0  0  0  0
 25 28  2  0  0  0  0
 25 85  1  0  0  0  0
 26 87  1  0  0  0  0
 27 88  1  0  0  0  0
 28 89  1  0  0  0  0
 29 69  2  0  0  0  0
 30 59  1  0  0  0  0
 30 70  2  0  0  0  0
 31 60  1  0  0  0  0
 31 70  1  0  0  0  0
 32 71  1  0  0  0  0
 32 74  1  0  0  0  0
 33 75  1  0  0  0  0
 33 80  2  0  0  0  0
 34 48  1  0  0  0  0
 34 76  1  0  0  0  0
 34 81  2  0  0  0  0
 35 63  1  0  0  0  0
 35 72  1  0  0  0  0
 35 82  2  0  0  0  0
 36 64  1  0  0  0  0
 36 77  1  0  0  0  0
 36 83  2  0  0  0  0
 37 73  1  0  0  0  0
 37 78  1  0  0  0  0
 37 84  2  0  0  0  0
 38 41  1  0  0  0  0
 39 48  1  0  0  0  0
 40 72  1  0  0  0  0
 41 43  1  0  0  0  0
 42 44  1  0  0  0  0
 42 45  1  0  0  0  0
 43 47  1  0  0  0  0
 44 49  1  0  0  0  0
 45 73  1  0  0  0  0
 46 49  1  0  0  0  0
 46 73  1  0  0  0  0
 47 76  1  0  0  0  0
 48 72  1  0  0  0  0
 49 71  1  0  0  0  0
 50 64  1  0  0  0  0
 51 65  1  0  0  0  0
 52 66  1  0  0  0  0
 53 67  1  0  0  0  0
 54 67  1  0  0  0  0
 55 68  1  0  0  0  0
 56 68  1  0  0  0  0
 57 68  1  0  0  0  0
 58 79  1  0  0  0  0
 59 65  1  0  0  0  0
 60 78  1  0  0  0  0
 61 65  1  0  0  0  0
 61 66  1  0  0  0  0
 62 66  1  0  0  0  0
 62 86  1  0  0  0  0
 63 68  1  0  0  0  0
 63 77  1  0  0  0  0
 64 79  1  0  0  0  0
 67 87  1  0  0  0  0
 69 71  1  0  0  0  0
M  CHG  1  79   1
M  ISO  4  37 100  62 101  78 100  86 101
M  END
> <Batch ID>
0118

> <Smiles>
CNC(C)C(=O)NC(C(=O)N1Cc2cc([101O:1][101CH2:1]C(C)CC(C)Cc3cc(OC(C)C)cc(C[100NH:0][100C:0](=O)N4CCCC(n5nc(-c6ccc(Oc7ccc(F)cc7F)cc6)c(C(N)=O)c5N)C4)n3)ccc2CC1C(=O)NC1CCCc2ccccc21)C(C)(C)C

> <Shape>
0.206

> <Color>
0.190

> <Negative vol penalty>
0.000

$$$$

  -OEChem-04052320183D

 81 89  0     1  0  0  0  0  0999 V2000
  -28.7006  -20.5005   14.9878 C   0  0  0  0  0  0  0  0  0  0  0  0
  -28.6876  -20.2771   16.3609 C   0  0  0  0  0  0  0  0  0  0  0  0
  -23.0757   -9.8573   19.9610 C   0  0  0  0  0  0  0  0  0  0  0  0
  -23.8368   -9.8875   22.2538 C   0  0  0  0  0  0  0  0  0  0  0  0
  -29.8542  -20.9846   14.3724 C   0  0  0  0  0  0  0  0  0  0  0  0
  -29.8286  -20.5367   17.1193 C   0  0  0  0  0  0  0  0  0  0  0  0
  -28.7863  -23.0118   21.4125 C   0  0  0  0  0  0  0  0  0  0  0  0
  -22.3335   -8.7056   20.2225 C   0  0  0  0  0  0  0  0  0  0  0  0
  -23.0946   -8.7358   22.5154 C   0  0  0  0  0  0  0  0  0  0  0  0
  -28.2639  -22.2647   22.4675 C   0  0  0  0  0  0  0  0  0  0  0  0
  -21.1140   -6.0092   23.8794 C   0  0  0  0  0  0  0  0  0  0  0  0
  -20.3584   -5.9759   25.0514 C   0  0  0  0  0  0  0  0  0  0  0  0
  -30.4508  -22.1796   23.4821 C   0  0  0  0  0  0  0  0  0  0  0  0
  -19.1109   -7.9043   24.3018 C   0  0  0  0  0  0  0  0  0  0  0  0
  -23.8274  -10.4482   20.9767 C   0  0  0  0  0  0  0  0  0  0  0  0
  -24.1658  -12.9725   20.8320 C   0  0  0  0  0  0  0  0  0  0  0  0
  -31.0069  -21.2594   15.1251 C   0  0  0  0  0  0  0  0  0  0  0  0
  -30.1493  -23.3396   21.3789 C   0  0  0  0  0  0  0  0  0  0  0  0
  -30.9991  -21.0237   16.5131 C   0  0  0  0  0  0  0  0  0  0  0  0
  -30.9875  -22.9331   22.4269 C   0  0  0  0  0  0  0  0  0  0  0  0
  -22.3429   -8.1449   21.4997 C   0  0  0  0  0  0  0  0  0  0  0  0
  -29.0968  -21.8460   23.5010 C   0  0  0  0  0  0  0  0  0  0  0  0
  -20.8681   -6.9901   22.9186 C   0  0  0  0  0  0  0  0  0  0  0  0
  -19.3568   -6.9235   25.2626 C   0  0  0  0  0  0  0  0  0  0  0  0
  -19.8665   -7.9376   23.1298 C   0  0  0  0  0  0  0  0  0  0  0  0
  -24.5948  -11.6376   20.7070 C   0  0  0  0  0  0  0  0  0  0  0  0
  -25.2568  -13.7199   20.4609 C   0  0  0  0  0  0  0  0  0  0  0  0
  -22.8949  -13.4907   21.2466 C   0  0  0  0  0  0  0  0  0  0  0  0
  -32.5624  -22.6997   19.4114 C   0  0  0  0  0  0  0  0  0  0  0  0
  -34.1673  -24.7581   21.3375 C   0  0  0  0  0  0  0  0  0  0  0  0
  -34.4407  -26.2498   24.3948 C   0  0  0  0  0  0  0  0  0  0  0  0
  -30.7393  -14.7480   20.6365 C   0  0  0  0  0  0  0  0  0  0  0  0
  -32.2451  -21.7369   14.4084 C   0  0  0  0  0  0  0  0  0  0  0  0
  -30.6920  -24.1689   20.2474 C   0  0  0  0  0  0  0  0  0  0  0  0
  -32.4539  -23.2761   22.4482 C   0  0  0  0  0  0  0  0  0  0  0  0
  -33.2928  -22.3414   15.3395 C   0  0  0  0  0  0  0  0  0  0  0  0
  -29.6036  -12.3390   18.2735 C   0  0  0  0  0  0  0  0  0  0  0  0
  -33.5016  -21.4492   16.5590 C   0  0  0  0  0  0  0  0  0  0  0  0
  -28.1668  -12.0476   18.7100 C   0  0  0  0  0  0  0  0  0  0  0  0
  -31.0333  -16.9599   23.3665 C   0  0  0  0  0  0  0  0  0  0  0  0
  -30.5211  -12.5727   19.4717 C   0  0  0  0  0  0  0  0  0  0  0  0
  -28.6191  -13.3146   20.8522 C   0  0  0  0  0  0  0  0  0  0  0  0
  -29.7540  -17.2081   24.1548 C   0  0  0  0  0  0  0  0  0  0  0  0
  -28.7420  -18.3774   22.1722 C   0  0  0  0  0  0  0  0  0  0  0  0
  -32.2091  -21.3167   17.3735 C   0  0  1  0  0  0  0  0  0  0  0  0
  -32.1968  -24.0068   20.0560 C   0  0  1  0  0  0  0  0  0  0  0  0
  -27.6445  -13.1273   19.6768 C   0  0  2  0  0  0  0  0  0  0  0  0
  -30.8026  -16.9101   21.8523 C   0  0  2  0  0  0  0  0  0  0  0  0
  -30.0129  -18.1285   21.3641 C   0  0  2  0  0  0  0  0  0  0  0  0
  -35.8764  -27.8562   25.6815 C   0  0  0  0  0  0  0  0  0  0  0  0
  -26.2725  -20.7196   25.0651 C   0  0  0  0  0  0  0  0  0  0  0  0
  -36.2776  -22.5832   21.6934 C   0  0  0  0  0  0  0  0  0  0  0  0
  -37.1459  -23.8470   23.6725 C   0  0  0  0  0  0  0  0  0  0  0  0
  -37.1964  -24.8916   21.4078 C   0  0  0  0  0  0  0  0  0  0  0  0
  -32.1935  -28.1391   24.7688 C   0  0  0  0  0  0  0  0  0  0  0  0
  -27.8811  -18.8210   24.4721 C   0  0  0  0  0  0  0  0  0  0  0  0
  -34.9833  -24.6247   22.6006 C   0  0  1  0  0  0  0  0  0  0  0  0
  -34.6522  -27.6994   24.7930 C   0  0  2  0  0  0  0  0  0  0  0  0
  -27.4748  -20.2732   24.2435 C   0  0  2  0  0  0  0  0  0  1  0  0
  -36.3736  -23.9784   22.3425 C   0  0  0  0  0  0  0  0  0  0  0  0
  -25.8596  -11.5394   20.2890 N   0  0  0  0  0  0  0  0  0  0  0  0
  -26.2347  -12.8221   20.1480 N   0  0  0  0  0  0  0  0  0  0  0  0
  -32.9383  -24.0835   21.3164 N   0  0  0  0  0  0  0  0  0  0  0  0
  -29.9696  -13.6090   20.3480 N   0  0  0  0  0  0  0  0  0  0  0  0
  -25.4654  -15.0509   20.3749 N   0  0  0  0  0  0  0  0  0  0  0  0
  -21.8843  -12.5835   21.5932 N   0  0  0  0  0  0  0  0  0  0  0  0
  -31.9891  -22.5053   18.1692 N   0  0  0  0  0  0  0  0  0  0  0  0
  -35.0442  -25.9579   23.1899 N   0  0  0  0  0  0  0  0  0  0  0  0
  -30.1393  -15.6842   21.4698 N   0  0  0  0  0  0  0  0  0  0  0  0
  -29.0834  -18.4592   23.6438 N   0  3  1  0  0  0  0  0  0  0  0  0
  -33.4649  -28.2115   25.5340 N   0  3  0  0  0  0  0  0  0  0  0  0
  -22.6570  -14.7215   21.2921 O   0  0  0  0  0  0  0  0  0  0  0  0
  -33.3106  -21.9257   19.9969 O   0  0  0  0  0  0  0  0  0  0  0  0
  -34.6010  -25.4416   20.4068 O   0  0  0  0  0  0  0  0  0  0  0  0
  -33.8069  -25.4550   25.0854 O   0  0  0  0  0  0  0  0  0  0  0  0
  -31.8747  -14.9206   20.1806 O   0  0  0  0  0  0  0  0  0  0  0  0
  -30.8570  -19.2790   21.4443 O   0  0  0  0  0  0  0  0  0  0  0  0
  -21.6186   -7.0213   21.7553 O   0  0  0  0  0  0  0  0  0  0  0  0
  -28.5897  -21.1162   24.5315 O   0  0  0  0  0  0  0  0  0  1  0  0
  -18.6302   -6.8905   26.3874 F   0  0  0  0  0  0  0  0  0  0  0  0
  -19.6249   -8.8816   22.2099 F   0  0  0  0  0  0  0  0  0  0  0  0
  1  2  1  0  0  0  0
  1  5  2  0  0  0  0
  2  6  2  0  0  0  0
  3  8  2  0  0  0  0
  3 15  1  0  0  0  0
  4  9  1  0  0  0  0
  4 15  2  0  0  0  0
  5 17  1  0  0  0  0
  6 19  1  0  0  0  0
  7 10  2  0  0  0  0
  7 18  1  0  0  0  0
  8 21  1  0  0  0  0
  9 21  2  0  0  0  0
 10 22  1  0  0  0  0
 11 12  2  0  0  0  0
 11 23  1  0  0  0  0
 12 24  1  0  0  0  0
 13 20  1  0  0  0  0
 13 22  2  0  0  0  0
 14 24  2  0  0  0  0
 14 25  1  0  0  0  0
 15 26  1  0  0  0  0
 16 26  1  0  0  0  0
 16 27  2  0  0  0  0
 16 28  1  0  0  0  0
 17 19  2  0  0  0  0
 17 33  1  0  0  0  0
 18 20  2  0  0  0  0
 18 34  1  0  0  0  0
 19 45  1  0  0  0  0
 20 35  1  0  0  0  0
 21 78  1  0  0  0  0
 22 79  1  0  0  0  0
 23 25  2  0  0  0  0
 23 78  1  0  0  0  0
 24 80  1  0  0  0  0
 25 81  1  0  0  0  0
 26 61  2  0  0  0  0
 27 62  1  0  0  0  0
 27 65  1  0  0  0  0
 28 66  1  0  0  0  0
 28 72  2  0  0  0  0
 29 46  1  0  0  0  0
 29 67  1  0  0  0  0
 29 73  2  0  0  0  0
 30 57  1  0  0  0  0
 30 63  1  0  0  0  0
 30 74  2  0  0  0  0
 31 58  1  0  0  0  0
 31 68  1  0  0  0  0
 31 75  2  0  0  0  0
 32 64  1  0  0  0  0
 32 69  1  0  0  0  0
 32 76  2  0  0  0  0
 33 36  1  0  0  0  0
 34 46  1  0  0  0  0
 35 63  1  0  0  0  0
 36 38  1  0  0  0  0
 37 39  1  0  0  0  0
 37 41  1  0  0  0  0
 38 45  1  0  0  0  0
 39 47  1  0  0  0  0
 40 43  1  0  0  0  0
 40 48  1  0  0  0  0
 41 64  1  0  0  0  0
 42 47  1  0  0  0  0
 42 64  1  0  0  0  0
 43 70  1  0  0  0  0
 44 49  1  0  0  0  0
 44 70  1  0  0  0  0
 45 67  1  0  0  0  0
 46 63  1  0  0  0  0
 47 62  1  0  0  0  0
 48 49  1  0  0  0  0
 48 69  1  0  0  0  0
 49 77  1  0  0  0  0
 50 58  1  0  0  0  0
 51 59  1  0  0  0  0
 52 60  1  0  0  0  0
 53 60  1  0  0  0  0
 54 60  1  0  0  0  0
 55 71  1  0  0  0  0
 56 59  1  0  0  0  0
 56 70  1  0  0  0  0
 57 60  1  0  0  0  0
 57 68  1  0  0  0  0
 58 71  1  0  0  0  0
 59 79  1  0  0  0  0
 61 62  1  0  0  0  0
M  CHG  2  70   1  71   1
M  ISO  4  32 100  59 101  69 100  79 101
M  END
> <Batch ID>
0118

> <Smiles>
CNC(C)C(=O)NC(C(=O)N1Cc2cc([101O:1][101CH:1](C)CN3CCC([100NH:0][100C:0](=O)N4CCCC(n5nc(-c6ccc(Oc7ccc(F)cc7F)cc6)c(C(N)=O)c5N)C4)C(O)C3)ccc2CC1C(=O)NC1CCCc2ccccc21)C(C)(C)C

> <Shape>
0.195

> <Color>
0.184

> <Negative vol penalty>
0.000

$$$$

  -OEChem-04052320183D

 87 96  0     1  0  0  0  0  0999 V2000
  -22.2119  -34.9424   15.4083 C   0  0  0  0  0  0  0  0  0  0  0  0
  -22.9604  -33.7721   15.4827 C   0  0  0  0  0  0  0  0  0  0  0  0
  -26.2650  -10.6953   20.6321 C   0  0  0  0  0  0  0  0  0  0  0  0
  -25.6786  -12.4902   19.1249 C   0  0  0  0  0  0  0  0  0  0  0  0
  -22.2866  -35.8828   16.4350 C   0  0  0  0  0  0  0  0  0  0  0  0
  -23.7849  -33.5420   16.5835 C   0  0  0  0  0  0  0  0  0  0  0  0
  -24.9958  -28.1446   19.2116 C   0  0  0  0  0  0  0  0  0  0  0  0
  -30.7089  -20.3210   17.8299 C   0  0  0  0  0  0  0  0  0  0  0  0
  -30.2738  -19.3427   18.7239 C   0  0  0  0  0  0  0  0  0  0  0  0
  -24.9191  -10.3446   20.7381 C   0  0  0  0  0  0  0  0  0  0  0  0
  -24.3327  -12.1394   19.2309 C   0  0  0  0  0  0  0  0  0  0  0  0
  -26.0699  -27.2636   19.0932 C   0  0  0  0  0  0  0  0  0  0  0  0
  -22.6320   -8.6602   18.9038 C   0  0  0  0  0  0  0  0  0  0  0  0
  -22.3060   -7.3068   18.8164 C   0  0  0  0  0  0  0  0  0  0  0  0
  -27.0790  -28.2396   21.0548 C   0  0  0  0  0  0  0  0  0  0  0  0
  -32.3324  -19.5648   19.9689 C   0  0  0  0  0  0  0  0  0  0  0  0
  -21.3477   -7.3946   21.0325 C   0  0  0  0  0  0  0  0  0  0  0  0
  -26.6448  -11.7681   19.8256 C   0  0  0  0  0  0  0  0  0  0  0  0
  -28.9681  -11.6493   18.7788 C   0  0  0  0  0  0  0  0  0  0  0  0
  -23.1050  -35.6596   17.5535 C   0  0  0  0  0  0  0  0  0  0  0  0
  -24.9605  -29.0886   20.2480 C   0  0  0  0  0  0  0  0  0  0  0  0
  -23.8717  -34.4808   17.6254 C   0  0  0  0  0  0  0  0  0  0  0  0
  -26.0022  -29.1298   21.1857 C   0  0  0  0  0  0  0  0  0  0  0  0
  -31.9558  -20.9211   18.0054 C   0  0  0  0  0  0  0  0  0  0  0  0
  -32.7675  -20.5430   19.0749 C   0  0  0  0  0  0  0  0  0  0  0  0
  -31.0855  -18.9646   19.7934 C   0  0  0  0  0  0  0  0  0  0  0  0
  -23.9530  -11.0666   20.0375 C   0  0  0  0  0  0  0  0  0  0  0  0
  -27.1131  -27.3129   20.0132 C   0  0  0  0  0  0  0  0  0  0  0  0
  -22.3160   -9.3808   20.0556 C   0  0  0  0  0  0  0  0  0  0  0  0
  -21.6638   -6.6740   19.8808 C   0  0  0  0  0  0  0  0  0  0  0  0
  -21.6738   -8.7480   21.1199 C   0  0  0  0  0  0  0  0  0  0  0  0
  -28.0348  -12.1312   19.7161 C   0  0  0  0  0  0  0  0  0  0  0  0
  -30.1373  -12.2972   19.0942 C   0  0  0  0  0  0  0  0  0  0  0  0
  -28.7936  -10.7008   17.7179 C   0  0  0  0  0  0  0  0  0  0  0  0
  -29.9844  -25.7056   18.4942 C   0  0  0  0  0  0  0  0  0  0  0  0
  -24.9196  -32.2638   20.3894 C   0  0  0  0  0  0  0  0  0  0  0  0
  -24.5101  -31.7285   23.5624 C   0  0  0  0  0  0  0  0  0  0  0  0
  -24.9126  -29.6280   26.2218 C   0  0  0  0  0  0  0  0  0  0  0  0
  -31.3250  -17.4823   21.8162 C   0  0  0  0  0  0  0  0  0  0  0  0
  -23.1893  -36.7268   18.6159 C   0  0  0  0  0  0  0  0  0  0  0  0
  -23.7819  -30.0140   20.3775 C   0  0  0  0  0  0  0  0  0  0  0  0
  -26.0021  -30.1110   22.3284 C   0  0  0  0  0  0  0  0  0  0  0  0
  -23.8002  -36.2354   19.9257 C   0  0  0  0  0  0  0  0  0  0  0  0
  -32.4525  -14.2523   22.8026 C   0  0  0  0  0  0  0  0  0  0  0  0
  -25.0666  -35.4294   19.6548 C   0  0  0  0  0  0  0  0  0  0  0  0
  -31.5365  -13.2979   22.0330 C   0  0  0  0  0  0  0  0  0  0  0  0
  -30.5403  -23.7034   17.0880 C   0  0  0  0  0  0  0  0  0  0  0  0
  -31.7072  -15.5020   23.2678 C   0  0  0  0  0  0  0  0  0  0  0  0
  -30.0692  -15.2690   21.4425 C   0  0  0  0  0  0  0  0  0  0  0  0
  -32.7639  -24.4679   16.7643 C   0  0  0  0  0  0  0  0  0  0  0  0
  -24.7587  -34.1838   18.8150 C   0  0  1  0  0  0  0  0  0  0  0  0
  -30.4784  -25.2238   17.1701 C   0  0  2  0  0  0  0  0  0  0  0  0
  -24.0989  -31.2777   21.1714 C   0  0  1  0  0  0  0  0  0  0  0  0
  -31.9817  -23.3679   17.4588 C   0  0  2  0  0  0  0  0  0  0  0  0
  -30.7908  -14.0257   20.8973 C   0  0  2  0  0  0  0  0  0  0  0  0
  -34.1053  -21.1733   19.2838 C   0  0  0  0  0  0  0  0  0  0  0  0
  -24.5144  -29.4827   28.6952 C   0  0  0  0  0  0  0  0  0  0  0  0
  -26.9016  -33.5590   24.0525 C   0  0  0  0  0  0  0  0  0  0  0  0
  -27.0433  -32.6362   26.3755 C   0  0  0  0  0  0  0  0  0  0  0  0
  -25.0027  -33.8735   25.6492 C   0  0  0  0  0  0  0  0  0  0  0  0
  -23.1137  -27.2983   25.9127 C   0  0  0  0  0  0  0  0  0  0  0  0
  -32.4046  -21.9750   17.0260 C   0  0  0  0  0  0  0  0  0  0  0  0
  -28.5060  -26.0186   18.5847 C   0  0  0  0  0  0  0  0  0  1  0  0
  -25.4322  -31.5520   24.7446 C   0  0  1  0  0  0  0  0  0  0  0  0
  -23.9527  -29.1889   27.3129 C   0  0  2  0  0  0  0  0  0  0  0  0
  -26.0962  -32.8879   25.1829 C   0  0  0  0  0  0  0  0  0  0  0  0
  -28.5654  -13.0169   20.5635 N   0  0  0  0  0  0  0  0  0  0  0  0
  -29.8448  -13.0965   20.1599 N   0  0  0  0  0  0  0  0  0  0  0  0
  -24.8307  -30.9991   22.4087 N   0  0  0  0  0  0  0  0  0  0  0  0
  -31.0286  -16.1409   22.1382 N   0  0  0  0  0  0  0  0  0  0  0  0
  -31.3769  -12.2555   18.5611 N   0  0  0  0  0  0  0  0  0  0  0  0
  -27.5267  -10.1307   17.5330 N   0  0  0  0  0  0  0  0  0  0  0  0
  -30.6430  -17.9723   20.7030 N   0  0  0  0  0  0  0  0  0  0  0  0
  -24.1702  -33.1507   19.6402 N   0  0  0  0  0  0  0  0  0  0  0  0
  -24.6407  -30.9079   25.7872 N   0  0  0  0  0  0  0  0  0  0  0  0
  -31.8990  -25.6787   16.9534 N   0  3  0  0  0  0  0  0  0  0  0  0
  -23.6902  -27.7252   27.2136 N   0  3  0  0  0  0  0  0  0  0  0  0
  -29.7374  -10.3564   16.9667 O   0  0  0  0  0  0  0  0  0  0  0  0
  -30.7460  -25.8372   19.4511 O   0  0  0  0  0  0  0  0  0  0  0  0
  -26.1423  -32.2240   20.4616 O   0  0  0  0  0  0  0  0  0  0  0  0
  -23.5370  -32.4802   23.6614 O   0  0  0  0  0  0  0  0  0  0  0  0
  -25.8157  -28.9089   25.8002 O   0  0  0  0  0  0  0  0  0  0  0  0
  -32.1453  -18.1389   22.4628 O   0  0  0  0  0  0  0  0  0  0  0  0
  -22.6396  -10.7245   20.1405 O   0  0  0  0  0  0  0  0  0  0  0  0
  -28.1630  -26.4546   19.8995 O   0  0  0  0  0  0  0  0  0  1  0  0
  -21.3493   -5.3747   19.7961 F   0  0  0  0  0  0  0  0  0  0  0  0
  -21.3666   -9.4353   22.2285 F   0  0  0  0  0  0  0  0  0  0  0  0
  1  2  1  0  0  0  0
  1  5  2  0  0  0  0
  2  6  2  0  0  0  0
  3 10  2  0  0  0  0
  3 18  1  0  0  0  0
  4 11  1  0  0  0  0
  4 18  2  0  0  0  0
  5 20  1  0  0  0  0
  6 22  1  0  0  0  0
  7 12  2  0  0  0  0
  7 21  1  0  0  0  0
  8  9  2  0  0  0  0
  8 24  1  0  0  0  0
  9 26  1  0  0  0  0
 10 27  1  0  0  0  0
 11 27  2  0  0  0  0
 12 28  1  0  0  0  0
 13 14  2  0  0  0  0
 13 29  1  0  0  0  0
 14 30  1  0  0  0  0
 15 23  1  0  0  0  0
 15 28  2  0  0  0  0
 16 25  1  0  0  0  0
 16 26  2  0  0  0  0
 17 30  2  0  0  0  0
 17 31  1  0  0  0  0
 18 32  1  0  0  0  0
 19 32  1  0  0  0  0
 19 33  2  0  0  0  0
 19 34  1  0  0  0  0
 20 22  2  0  0  0  0
 20 40  1  0  0  0  0
 21 23  2  0  0  0  0
 21 41  1  0  0  0  0
 22 51  1  0  0  0  0
 23 42  1  0  0  0  0
 24 25  2  0  0  0  0
 24 62  1  0  0  0  0
 25 56  1  0  0  0  0
 26 73  1  0  0  0  0
 27 84  1  0  0  0  0
 28 85  1  0  0  0  0
 29 31  2  0  0  0  0
 29 84  1  0  0  0  0
 30 86  1  0  0  0  0
 31 87  1  0  0  0  0
 32 67  2  0  0  0  0
 33 68  1  0  0  0  0
 33 71  1  0  0  0  0
 34 72  1  0  0  0  0
 34 78  2  0  0  0  0
 35 52  1  0  0  0  0
 35 63  1  0  0  0  0
 35 79  2  0  0  0  0
 36 53  1  0  0  0  0
 36 74  1  0  0  0  0
 36 80  2  0  0  0  0
 37 64  1  0  0  0  0
 37 69  1  0  0  0  0
 37 81  2  0  0  0  0
 38 65  1  0  0  0  0
 38 75  1  0  0  0  0
 38 82  2  0  0  0  0
 39 70  1  0  0  0  0
 39 73  1  0  0  0  0
 39 83  2  0  0  0  0
 40 43  1  0  0  0  0
 41 53  1  0  0  0  0
 42 69  1  0  0  0  0
 43 45  1  0  0  0  0
 44 46  1  0  0  0  0
 44 48  1  0  0  0  0
 45 51  1  0  0  0  0
 46 55  1  0  0  0  0
 47 52  1  0  0  0  0
 47 54  1  0  0  0  0
 48 70  1  0  0  0  0
 49 55  1  0  0  0  0
 49 70  1  0  0  0  0
 50 54  1  0  0  0  0
 50 76  1  0  0  0  0
 51 74  1  0  0  0  0
 52 76  1  0  0  0  0
 53 69  1  0  0  0  0
 54 62  1  0  0  0  0
 55 68  1  0  0  0  0
 57 65  1  0  0  0  0
 58 66  1  0  0  0  0
 59 66  1  0  0  0  0
 60 66  1  0  0  0  0
 61 77  1  0  0  0  0
 63 85  1  0  0  0  0
 64 66  1  0  0  0  0
 64 75  1  0  0  0  0
 65 77  1  0  0  0  0
 67 68  1  0  0  0  0
M  CHG  2  76   1  77   1
M  ISO  4  39 100  63 101  73 100  85 101
M  END
> <Batch ID>
0118

> <Smiles>
CNC(C)C(=O)NC(C(=O)N1Cc2cc([101O:1][101CH2:1]C(=O)C3CC(Cc4ccc([100NH:0][100C:0](=O)N5CCCC(n6nc(-c7ccc(Oc8ccc(F)cc8F)cc7)c(C(N)=O)c6N)C5)cc4C)CN3)ccc2CC1C(=O)NC1CCCc2ccccc21)C(C)(C)C

> <Shape>
0.283

> <Color>
0.104

> <Negative vol penalty>
0.000

$$$$

  -OEChem-04052320183D

 86 95  0     1  0  0  0  0  0999 V2000
  -20.6890  -22.0596   18.4484 C   0  0  0  0  0  0  0  0  0  0  0  0
  -22.0763  -22.0699   18.5517 C   0  0  0  0  0  0  0  0  0  0  0  0
  -23.0907   -9.8463   19.9634 C   0  0  0  0  0  0  0  0  0  0  0  0
  -23.8269   -9.9078   22.2637 C   0  0  0  0  0  0  0  0  0  0  0  0
  -20.0044  -23.2376   18.1525 C   0  0  0  0  0  0  0  0  0  0  0  0
  -22.7799  -23.2581   18.3580 C   0  0  0  0  0  0  0  0  0  0  0  0
  -26.3749  -23.9786   21.8511 C   0  0  0  0  0  0  0  0  0  0  0  0
  -22.3508   -8.6946   20.2310 C   0  0  0  0  0  0  0  0  0  0  0  0
  -23.0869   -8.7561   22.5313 C   0  0  0  0  0  0  0  0  0  0  0  0
  -27.5606  -23.2605   21.7020 C   0  0  0  0  0  0  0  0  0  0  0  0
  -19.9797   -5.9439   20.3951 C   0  0  0  0  0  0  0  0  0  0  0  0
  -18.6794   -5.8777   19.8947 C   0  0  0  0  0  0  0  0  0  0  0  0
  -28.6145  -25.2102   20.7494 C   0  0  0  0  0  0  0  0  0  0  0  0
  -29.6951  -17.7874   22.6393 C   0  0  0  0  0  0  0  0  0  0  0  0
  -18.0899   -7.8456   21.1662 C   0  0  0  0  0  0  0  0  0  0  0  0
  -23.8288  -10.4529   20.9798 C   0  0  0  0  0  0  0  0  0  0  0  0
  -24.1578  -12.9768   20.8080 C   0  0  0  0  0  0  0  0  0  0  0  0
  -20.6993  -24.4428   17.9645 C   0  0  0  0  0  0  0  0  0  0  0  0
  -26.2968  -25.3169   21.4398 C   0  0  0  0  0  0  0  0  0  0  0  0
  -22.1041  -24.4530   18.0579 C   0  0  0  0  0  0  0  0  0  0  0  0
  -27.4274  -25.9438   20.8968 C   0  0  0  0  0  0  0  0  0  0  0  0
  -31.4231  -19.4601   22.6557 C   0  0  0  0  0  0  0  0  0  0  0  0
  -22.3488   -8.1495   21.5149 C   0  0  0  0  0  0  0  0  0  0  0  0
  -28.6798  -23.8754   21.1484 C   0  0  0  0  0  0  0  0  0  0  0  0
  -20.3351   -6.9609   21.2811 C   0  0  0  0  0  0  0  0  0  0  0  0
  -30.1588  -19.0334   23.0464 C   0  0  0  0  0  0  0  0  0  0  0  0
  -17.7345   -6.8285   20.2802 C   0  0  0  0  0  0  0  0  0  0  0  0
  -19.3902   -7.9118   21.6666 C   0  0  0  0  0  0  0  0  0  0  0  0
  -24.5939  -11.6423   20.7039 C   0  0  0  0  0  0  0  0  0  0  0  0
  -32.1787  -18.6101   21.8643 C   0  0  0  0  0  0  0  0  0  0  0  0
  -30.5280  -17.0123   21.8484 C   0  0  0  0  0  0  0  0  0  0  0  0
  -25.2494  -13.7245   20.4396 C   0  0  0  0  0  0  0  0  0  0  0  0
  -22.8802  -13.4942   21.2026 C   0  0  0  0  0  0  0  0  0  0  0  0
  -24.5781  -26.9058   19.2891 C   0  0  0  0  0  0  0  0  0  0  0  0
  -26.0197  -29.4892   20.6196 C   0  0  0  0  0  0  0  0  0  0  0  0
  -28.6629  -30.7494   22.3724 C   0  0  0  0  0  0  0  0  0  0  0  0
  -30.7076  -14.8054   20.6470 C   0  0  0  0  0  0  0  0  0  0  0  0
  -19.9194  -25.6811   17.5997 C   0  0  0  0  0  0  0  0  0  0  0  0
  -25.0182  -26.0855   21.6321 C   0  0  0  0  0  0  0  0  0  0  0  0
  -27.4014  -27.3844   20.4581 C   0  0  0  0  0  0  0  0  0  0  0  0
  -20.7109  -26.9741   17.7786 C   0  0  0  0  0  0  0  0  0  0  0  0
  -29.6311  -12.3340   18.3209 C   0  0  0  0  0  0  0  0  0  0  0  0
  -22.1054  -26.8340   17.1766 C   0  0  0  0  0  0  0  0  0  0  0  0
  -33.7143  -23.4924   22.3624 C   0  0  0  0  0  0  0  0  0  0  0  0
  -32.6853  -24.2889   21.6097 C   0  0  0  0  0  0  0  0  0  0  0  0
  -28.1888  -12.0435   18.7421 C   0  0  0  0  0  0  0  0  0  0  0  0
  -30.5325  -12.5943   19.5265 C   0  0  0  0  0  0  0  0  0  0  0  0
  -28.6074  -13.3377   20.8721 C   0  0  0  0  0  0  0  0  0  0  0  0
  -22.9009  -25.7270   17.8790 C   0  0  1  0  0  0  0  0  0  0  0  0
  -24.9008  -27.2914   20.7050 C   0  0  1  0  0  0  0  0  0  0  0  0
  -32.2505  -23.2382   22.5934 C   0  0  0  0  0  0  0  0  0  0  0  0
  -27.6478  -13.1331   19.6885 C   0  0  2  0  0  0  0  0  0  0  0  0
  -33.5452  -19.0140   21.4153 C   0  0  0  0  0  0  0  0  0  0  0  0
  -29.5811  -32.9036   23.2744 C   0  0  0  0  0  0  0  0  0  0  0  0
  -26.9056  -30.2851   17.8104 C   0  0  0  0  0  0  0  0  0  0  0  0
  -28.5637  -31.8460   18.8508 C   0  0  0  0  0  0  0  0  0  0  0  0
  -26.1224  -32.1856   19.2349 C   0  0  0  0  0  0  0  0  0  0  0  0
  -28.5497  -29.7646   25.1610 C   0  0  0  0  0  0  0  0  0  0  0  0
  -28.0829  -19.3007   24.1756 C   0  0  0  0  0  0  0  0  0  0  0  0
  -31.9480  -20.8086   23.0839 C   0  0  0  0  0  0  0  0  0  0  0  0
  -30.0957  -22.1393   21.9466 C   0  0  0  0  0  0  0  0  0  1  0  0
  -27.2972  -30.2513   20.3621 C   0  0  1  0  0  0  0  0  0  0  0  0
  -28.7256  -31.6813   23.5691 C   0  0  2  0  0  0  0  0  0  0  0  0
  -31.6126  -21.9546   22.1051 C   0  0  1  0  0  0  0  0  0  0  0  0
  -27.2225  -31.1143   19.0709 C   0  0  0  0  0  0  0  0  0  0  0  0
  -25.8635  -11.5447   20.3007 N   0  0  0  0  0  0  0  0  0  0  0  0
  -31.7622  -17.3929   21.4490 N   0  0  0  0  0  0  0  0  0  0  0  0
  -26.2345  -12.8274   20.1482 N   0  0  0  0  0  0  0  0  0  0  0  0
  -26.1263  -28.0918   20.6609 N   0  0  0  0  0  0  0  0  0  0  0  0
  -29.9588  -13.6408   20.3754 N   0  0  0  0  0  0  0  0  0  0  0  0
  -25.4531  -15.0552   20.3396 N   0  0  0  0  0  0  0  0  0  0  0  0
  -21.8699  -12.5868   21.5494 N   0  0  0  0  0  0  0  0  0  0  0  0
  -30.0466  -15.7443   21.4383 N   0  0  0  0  0  0  0  0  0  0  0  0
  -23.4008  -26.1952   19.1540 N   0  0  0  0  0  0  0  0  0  0  0  0
  -27.5691  -31.0141   21.5757 N   0  0  0  0  0  0  0  0  0  0  0  0
  -29.3053  -30.9746   24.7461 N   0  3  0  0  0  0  0  0  0  0  0  0
  -22.6365  -14.7244   21.2306 O   0  0  0  0  0  0  0  0  0  0  0  0
  -25.3401  -27.2303   18.3859 O   0  0  0  0  0  0  0  0  0  0  0  0
  -24.9674  -30.1112   20.7853 O   0  0  0  0  0  0  0  0  0  0  0  0
  -29.5025  -29.8765   22.1631 O   0  0  0  0  0  0  0  0  0  0  0  0
  -31.8405  -14.9704   20.1873 O   0  0  0  0  0  0  0  0  0  0  0  0
  -21.6267   -7.0258   21.7764 O   0  0  0  0  0  0  0  0  0  0  0  0
  -29.3641  -19.8200   23.8236 O   0  0  0  0  0  0  0  0  0  0  0  0
  -29.8382  -23.1767   21.0011 O   0  0  0  0  0  0  0  0  0  1  0  0
  -16.4863   -6.7657   19.7984 F   0  0  0  0  0  0  0  0  0  0  0  0
  -19.7260   -8.8919   22.5166 F   0  0  0  0  0  0  0  0  0  0  0  0
  1  2  1  0  0  0  0
  1  5  2  0  0  0  0
  2  6  2  0  0  0  0
  3  8  2  0  0  0  0
  3 16  1  0  0  0  0
  4  9  1  0  0  0  0
  4 16  2  0  0  0  0
  5 18  1  0  0  0  0
  6 20  1  0  0  0  0
  7 10  2  0  0  0  0
  7 19  1  0  0  0  0
  8 23  1  0  0  0  0
  9 23  2  0  0  0  0
 10 24  1  0  0  0  0
 11 12  2  0  0  0  0
 11 25  1  0  0  0  0
 12 27  1  0  0  0  0
 13 21  1  0  0  0  0
 13 24  2  0  0  0  0
 14 26  2  0  0  0  0
 14 31  1  0  0  0  0
 15 27  2  0  0  0  0
 15 28  1  0  0  0  0
 16 29  1  0  0  0  0
 17 29  1  0  0  0  0
 17 32  2  0  0  0  0
 17 33  1  0  0  0  0
 18 20  2  0  0  0  0
 18 38  1  0  0  0  0
 19 21  2  0  0  0  0
 19 39  1  0  0  0  0
 20 49  1  0  0  0  0
 21 40  1  0  0  0  0
 22 26  1  0  0  0  0
 22 30  2  0  0  0  0
 22 60  1  0  0  0  0
 23 82  1  0  0  0  0
 24 84  1  0  0  0  0
 25 28  2  0  0  0  0
 25 82  1  0  0  0  0
 26 83  1  0  0  0  0
 27 85  1  0  0  0  0
 28 86  1  0  0  0  0
 29 66  2  0  0  0  0
 30 53  1  0  0  0  0
 30 67  1  0  0  0  0
 31 67  2  0  0  0  0
 31 73  1  0  0  0  0
 32 68  1  0  0  0  0
 32 71  1  0  0  0  0
 33 72  1  0  0  0  0
 33 77  2  0  0  0  0
 34 50  1  0  0  0  0
 34 74  1  0  0  0  0
 34 78  2  0  0  0  0
 35 62  1  0  0  0  0
 35 69  1  0  0  0  0
 35 79  2  0  0  0  0
 36 63  1  0  0  0  0
 36 75  1  0  0  0  0
 36 80  2  0  0  0  0
 37 70  1  0  0  0  0
 37 73  1  0  0  0  0
 37 81  2  0  0  0  0
 38 41  1  0  0  0  0
 39 50  1  0  0  0  0
 40 69  1  0  0  0  0
 41 43  1  0  0  0  0
 42 46  1  0  0  0  0
 42 47  1  0  0  0  0
 43 49  1  0  0  0  0
 44 45  1  0  0  0  0
 44 51  1  0  0  0  0
 45 51  1  0  0  0  0
 46 52  1  0  0  0  0
 47 70  1  0  0  0  0
 48 52  1  0  0  0  0
 48 70  1  0  0  0  0
 49 74  1  0  0  0  0
 50 69  1  0  0  0  0
 51 64  1  0  0  0  0
 52 68  1  0  0  0  0
 54 63  1  0  0  0  0
 55 65  1  0  0  0  0
 56 65  1  0  0  0  0
 57 65  1  0  0  0  0
 58 76  1  0  0  0  0
 59 83  1  0  0  0  0
 60 64  1  0  0  0  0
 61 64  1  0  0  0  0
 61 84  1  0  0  0  0
 62 65  1  0  0  0  0
 62 75  1  0  0  0  0
 63 76  1  0  0  0  0
 66 68  1  0  0  0  0
M  CHG  1  76   1
M  ISO  4  37 100  61 101  73 100  84 101
M  END
> <Batch ID>
0118

> <Smiles>
CNC(C)C(=O)NC(C(=O)N1Cc2cc([101O:1][101CH2:1]C(Cc3c(OC)cc([100NH:0][100C:0](=O)N4CCCC(n5nc(-c6ccc(Oc7ccc(F)cc7F)cc6)c(C(N)=O)c5N)C4)nc3C)C3CC3)ccc2CC1C(=O)NC1CCCc2ccccc21)C(C)(C)C

> <Shape>
0.234

> <Color>
0.193

> <Negative vol penalty>
0.000

$$$$

  -OEChem-04052320183D

 83 91  0     1  0  0  0  0  0999 V2000
  -24.0168  -12.3776   20.0170 C   0  0  0  0  0  0  0  0  0  0  0  0
  -24.3767  -13.6555   20.4328 C   0  0  0  0  0  0  0  0  0  0  0  0
  -25.6157  -31.3148   21.6779 C   0  0  0  0  0  0  0  0  0  0  0  0
  -24.1093  -29.5623   22.3828 C   0  0  0  0  0  0  0  0  0  0  0  0
  -24.8952  -11.3113   20.2055 C   0  0  0  0  0  0  0  0  0  0  0  0
  -25.6147  -13.8676   21.0383 C   0  0  0  0  0  0  0  0  0  0  0  0
  -27.9737  -17.9762   19.2494 C   0  0  0  0  0  0  0  0  0  0  0  0
  -31.4132  -23.2366   18.1543 C   0  0  0  0  0  0  0  0  0  0  0  0
  -24.8929  -32.2393   22.4318 C   0  0  0  0  0  0  0  0  0  0  0  0
  -23.3865  -30.4869   23.1367 C   0  0  0  0  0  0  0  0  0  0  0  0
  -27.5396  -19.2149   19.7195 C   0  0  0  0  0  0  0  0  0  0  0  0
  -24.6354  -33.1488   25.6782 C   0  0  0  0  0  0  0  0  0  0  0  0
  -25.3552  -34.0483   26.4646 C   0  0  0  0  0  0  0  0  0  0  0  0
  -30.8156  -23.3866   19.4007 C   0  0  0  0  0  0  0  0  0  0  0  0
  -29.3954  -19.2741   21.2596 C   0  0  0  0  0  0  0  0  0  0  0  0
  -24.3792  -35.8932   25.2477 C   0  0  0  0  0  0  0  0  0  0  0  0
  -25.2238  -29.9762   21.6533 C   0  0  0  0  0  0  0  0  0  0  0  0
  -27.0671  -28.2485   21.2999 C   0  0  0  0  0  0  0  0  0  0  0  0
  -26.1485  -11.5122   20.8049 C   0  0  0  0  0  0  0  0  0  0  0  0
  -29.1176  -17.3711   19.7894 C   0  0  0  0  0  0  0  0  0  0  0  0
  -26.5101  -12.8028   21.2362 C   0  0  0  0  0  0  0  0  0  0  0  0
  -29.8433  -18.0288   20.7928 C   0  0  0  0  0  0  0  0  0  0  0  0
  -30.6515  -22.8135   17.0707 C   0  0  0  0  0  0  0  0  0  0  0  0
  -23.7783  -31.8254   23.1612 C   0  0  0  0  0  0  0  0  0  0  0  0
  -28.2488  -19.8627   20.7267 C   0  0  0  0  0  0  0  0  0  0  0  0
  -23.7875  -33.6215   24.6765 C   0  0  0  0  0  0  0  0  0  0  0  0
  -25.2271  -35.4205   26.2493 C   0  0  0  0  0  0  0  0  0  0  0  0
  -23.6594  -34.9937   24.4613 C   0  0  0  0  0  0  0  0  0  0  0  0
  -25.9697  -29.0208   20.8743 C   0  0  0  0  0  0  0  0  0  0  0  0
  -29.4638  -23.1030   19.5102 C   0  0  0  0  0  0  0  0  0  0  0  0
  -29.3071  -22.5553   17.2845 C   0  0  0  0  0  0  0  0  0  0  0  0
  -27.4130  -27.5064   20.1970 C   0  0  0  0  0  0  0  0  0  0  0  0
  -27.7157  -28.2056   22.5778 C   0  0  0  0  0  0  0  0  0  0  0  0
  -29.6962  -14.6698   21.3618 C   0  0  0  0  0  0  0  0  0  0  0  0
  -32.7870  -15.5989   21.0357 C   0  0  0  0  0  0  0  0  0  0  0  0
  -35.0141  -18.1432   20.5741 C   0  0  0  0  0  0  0  0  0  0  0  0
  -26.0019  -24.3336   15.8281 C   0  0  0  0  0  0  0  0  0  0  0  0
  -27.0448  -10.3203   21.0303 C   0  0  0  0  0  0  0  0  0  0  0  0
  -29.5879  -16.0470   19.2528 C   0  0  0  0  0  0  0  0  0  0  0  0
  -31.0894  -17.4311   21.3916 C   0  0  0  0  0  0  0  0  0  0  0  0
  -28.4915  -10.6962   21.3405 C   0  0  0  0  0  0  0  0  0  0  0  0
  -25.9040  -27.8647   15.3824 C   0  0  0  0  0  0  0  0  0  0  0  0
  -28.5424  -11.8059   22.3858 C   0  0  0  0  0  0  0  0  0  0  0  0
  -25.9965  -28.4158   16.8063 C   0  0  0  0  0  0  0  0  0  0  0  0
  -25.0824  -26.5786   15.3273 C   0  0  0  0  0  0  0  0  0  0  0  0
  -25.6171  -26.0721   17.6791 C   0  0  0  0  0  0  0  0  0  0  0  0
  -27.8544  -13.0774   21.8745 C   0  0  1  0  0  0  0  0  0  0  0  0
  -30.4744  -15.2856   20.2336 C   0  0  1  0  0  0  0  0  0  0  0  0
  -26.4830  -27.3383   17.7941 C   0  0  2  0  0  0  0  0  0  0  0  0
  -31.2864  -22.6497   15.7332 C   0  0  0  0  0  0  0  0  0  0  0  0
  -37.4751  -18.5976   20.3886 C   0  0  0  0  0  0  0  0  0  0  0  0
  -28.5480  -22.2483   23.1450 C   0  0  0  0  0  0  0  0  0  0  0  0
  -33.0716  -15.2771   24.0566 C   0  0  0  0  0  0  0  0  0  0  0  0
  -35.1803  -16.6209   23.9309 C   0  0  0  0  0  0  0  0  0  0  0  0
  -35.0196  -14.4403   22.7302 C   0  0  0  0  0  0  0  0  0  0  0  0
  -34.7279  -19.2114   17.8289 C   0  0  0  0  0  0  0  0  0  0  0  0
  -28.7815  -23.2567   20.8490 C   0  0  0  0  0  0  0  0  0  0  0  0
  -28.4396  -22.1011   16.1567 C   0  0  0  0  0  0  0  0  0  0  0  0
  -26.9429  -22.1330   16.4847 C   0  0  0  0  0  0  0  0  0  0  0  0
  -33.7429  -16.4370   21.8498 C   0  0  1  0  0  0  0  0  0  0  0  0
  -36.1935  -18.2906   19.6297 C   0  0  2  0  0  0  0  0  0  0  0  0
  -28.8267  -21.9661   21.6741 C   0  0  2  0  0  0  0  0  0  1  0  0
  -34.2291  -15.7045   23.1321 C   0  0  0  0  0  0  0  0  0  0  0  0
  -25.6404  -28.7908   19.6004 N   0  0  0  0  0  0  0  0  0  0  0  0
  -28.6914  -22.6897   18.4805 N   0  0  0  0  0  0  0  0  0  0  0  0
  -26.5361  -27.8656   19.2161 N   0  0  0  0  0  0  0  0  0  0  0  0
  -31.5053  -16.1319   20.8379 N   0  0  0  0  0  0  0  0  0  0  0  0
  -25.5963  -25.5979   16.2864 N   0  0  0  0  0  0  0  0  0  0  0  0
  -28.3786  -26.5883   19.9804 N   0  0  0  0  0  0  0  0  0  0  0  0
  -27.2325  -29.0333   23.6004 N   0  0  0  0  0  0  0  0  0  0  0  0
  -28.7181  -13.7836   20.9527 N   0  0  0  0  0  0  0  0  0  0  0  0
  -34.8160  -16.8294   20.9426 N   0  0  0  0  0  0  0  0  0  0  0  0
  -26.4823  -23.4665   16.8018 N   0  0  0  0  0  0  0  0  0  0  0  0
  -35.9457  -19.3947   18.6599 N   0  3  0  0  0  0  0  0  0  0  0  0
  -28.7051  -27.4675   22.8012 O   0  0  0  0  0  0  0  0  0  0  0  0
  -29.9643  -14.9750   22.5179 O   0  0  0  0  0  0  0  0  0  0  0  0
  -33.1658  -14.5147   20.5857 O   0  0  0  0  0  0  0  0  0  0  0  0
  -34.3386  -19.0986   20.9504 O   0  0  0  0  0  0  0  0  0  0  0  0
  -25.9454  -24.0040   14.6385 O   0  0  0  0  0  0  0  0  0  0  0  0
  -23.0730  -32.7272   23.8972 O   0  0  0  0  0  0  0  0  0  0  0  0
  -27.8269  -21.0715   21.1878 O   0  0  0  0  0  0  0  0  0  1  0  0
  -25.9172  -36.2842   27.0056 F   0  0  0  0  0  0  0  0  0  0  0  0
  -22.8455  -35.4538   23.5013 F   0  0  0  0  0  0  0  0  0  0  0  0
  1  2  1  0  0  0  0
  1  5  2  0  0  0  0
  2  6  2  0  0  0  0
  3  9  2  0  0  0  0
  3 17  1  0  0  0  0
  4 10  1  0  0  0  0
  4 17  2  0  0  0  0
  5 19  1  0  0  0  0
  6 21  1  0  0  0  0
  7 11  2  0  0  0  0
  7 20  1  0  0  0  0
  8 14  2  0  0  0  0
  8 23  1  0  0  0  0
  9 24  1  0  0  0  0
 10 24  2  0  0  0  0
 11 25  1  0  0  0  0
 12 13  2  0  0  0  0
 12 26  1  0  0  0  0
 13 27  1  0  0  0  0
 14 30  1  0  0  0  0
 15 22  1  0  0  0  0
 15 25  2  0  0  0  0
 16 27  2  0  0  0  0
 16 28  1  0  0  0  0
 17 29  1  0  0  0  0
 18 29  1  0  0  0  0
 18 32  2  0  0  0  0
 18 33  1  0  0  0  0
 19 21  2  0  0  0  0
 19 38  1  0  0  0  0
 20 22  2  0  0  0  0
 20 39  1  0  0  0  0
 21 47  1  0  0  0  0
 22 40  1  0  0  0  0
 23 31  2  0  0  0  0
 23 50  1  0  0  0  0
 24 80  1  0  0  0  0
 25 81  1  0  0  0  0
 26 28  2  0  0  0  0
 26 80  1  0  0  0  0
 27 82  1  0  0  0  0
 28 83  1  0  0  0  0
 29 64  2  0  0  0  0
 30 57  1  0  0  0  0
 30 65  2  0  0  0  0
 31 58  1  0  0  0  0
 31 65  1  0  0  0  0
 32 66  1  0  0  0  0
 32 69  1  0  0  0  0
 33 70  1  0  0  0  0
 33 75  2  0  0  0  0
 34 48  1  0  0  0  0
 34 71  1  0  0  0  0
 34 76  2  0  0  0  0
 35 60  1  0  0  0  0
 35 67  1  0  0  0  0
 35 77  2  0  0  0  0
 36 61  1  0  0  0  0
 36 72  1  0  0  0  0
 36 78  2  0  0  0  0
 37 68  1  0  0  0  0
 37 73  1  0  0  0  0
 37 79  2  0  0  0  0
 38 41  1  0  0  0  0
 39 48  1  0  0  0  0
 40 67  1  0  0  0  0
 41 43  1  0  0  0  0
 42 44  1  0  0  0  0
 42 45  1  0  0  0  0
 43 47  1  0  0  0  0
 44 49  1  0  0  0  0
 45 68  1  0  0  0  0
 46 49  1  0  0  0  0
 46 68  1  0  0  0  0
 47 71  1  0  0  0  0
 48 67  1  0  0  0  0
 49 66  1  0  0  0  0
 51 61  1  0  0  0  0
 52 62  1  0  0  0  0
 53 63  1  0  0  0  0
 54 63  1  0  0  0  0
 55 63  1  0  0  0  0
 56 74  1  0  0  0  0
 57 62  1  0  0  0  0
 58 59  1  0  0  0  0
 59 73  1  0  0  0  0
 60 63  1  0  0  0  0
 60 72  1  0  0  0  0
 61 74  1  0  0  0  0
 62 81  1  0  0  0  0
 64 66  1  0  0  0  0
M  CHG  1  74   1
M  ISO  4  37 100  62 101  73 100  81 101
M  END
> <Batch ID>
0118

> <Smiles>
CNC(C)C(=O)NC(C(=O)N1Cc2cc([101O:1][101CH:1](C)Cc3ccc(C)c(CC[100NH:0][100C:0](=O)N4CCCC(n5nc(-c6ccc(Oc7ccc(F)cc7F)cc6)c(C(N)=O)c5N)C4)n3)ccc2CC1C(=O)NC1CCCc2ccccc21)C(C)(C)C

> <Shape>
0.246

> <Color>
0.084

> <Negative vol penalty>
0.000

$$$$

  -OEChem-04052320183D

 87 96  0     1  0  0  0  0  0999 V2000
  -31.1428  -32.1212   28.1417 C   0  0  0  0  0  0  0  0  0  0  0  0
  -30.8224  -30.8369   27.7135 C   0  0  0  0  0  0  0  0  0  0  0  0
  -23.0011   -9.8941   19.9855 C   0  0  0  0  0  0  0  0  0  0  0  0
  -23.7608   -9.9362   22.2786 C   0  0  0  0  0  0  0  0  0  0  0  0
  -31.2166  -33.1641   27.2193 C   0  0  0  0  0  0  0  0  0  0  0  0
  -30.5745  -30.5950   26.3628 C   0  0  0  0  0  0  0  0  0  0  0  0
  -32.8787  -26.4098   24.6837 C   0  0  0  0  0  0  0  0  0  0  0  0
  -22.2440   -8.7546   20.2573 C   0  0  0  0  0  0  0  0  0  0  0  0
  -23.0037   -8.7967   22.5504 C   0  0  0  0  0  0  0  0  0  0  0  0
  -32.2901  -25.1871   25.0033 C   0  0  0  0  0  0  0  0  0  0  0  0
  -23.2564   -5.4615   22.0568 C   0  0  0  0  0  0  0  0  0  0  0  0
  -23.8600   -4.4432   22.7945 C   0  0  0  0  0  0  0  0  0  0  0  0
  -31.3139  -25.0880   22.7995 C   0  0  0  0  0  0  0  0  0  0  0  0
  -31.2198  -20.3140   25.7792 C   0  0  0  0  0  0  0  0  0  0  0  0
  -22.1605   -4.6690   24.4968 C   0  0  0  0  0  0  0  0  0  0  0  0
  -29.1983  -19.0953   26.0700 C   0  0  0  0  0  0  0  0  0  0  0  0
  -23.7596  -10.4849   20.9962 C   0  0  0  0  0  0  0  0  0  0  0  0
  -24.1304  -13.0032   20.8279 C   0  0  0  0  0  0  0  0  0  0  0  0
  -30.9790  -32.9330   25.8552 C   0  0  0  0  0  0  0  0  0  0  0  0
  -32.6801  -26.9871   23.4212 C   0  0  0  0  0  0  0  0  0  0  0  0
  -30.6438  -31.6361   25.4215 C   0  0  0  0  0  0  0  0  0  0  0  0
  -31.9032  -26.3169   22.4655 C   0  0  0  0  0  0  0  0  0  0  0  0
  -30.5743  -19.0893   25.9080 C   0  0  0  0  0  0  0  0  0  0  0  0
  -30.4800  -21.4907   25.8157 C   0  0  0  0  0  0  0  0  0  0  0  0
  -22.2452   -8.2059   21.5397 C   0  0  0  0  0  0  0  0  0  0  0  0
  -31.5051  -24.5273   24.0621 C   0  0  0  0  0  0  0  0  0  0  0  0
  -22.1049   -6.0837   22.5392 C   0  0  0  0  0  0  0  0  0  0  0  0
  -23.3120   -4.0469   24.0145 C   0  0  0  0  0  0  0  0  0  0  0  0
  -21.5569   -5.6874   23.7592 C   0  0  0  0  0  0  0  0  0  0  0  0
  -24.5423  -11.6617   20.7159 C   0  0  0  0  0  0  0  0  0  0  0  0
  -29.1081  -21.3892   25.9816 C   0  0  0  0  0  0  0  0  0  0  0  0
  -25.2312  -13.7330   20.4507 C   0  0  0  0  0  0  0  0  0  0  0  0
  -22.8659  -13.5415   21.2365 C   0  0  0  0  0  0  0  0  0  0  0  0
  -31.3648  -29.6827   22.3691 C   0  0  0  0  0  0  0  0  0  0  0  0
  -30.7464  -14.6275   20.7195 C   0  0  0  0  0  0  0  0  0  0  0  0
  -32.5079  -28.6662   19.5086 C   0  0  0  0  0  0  0  0  0  0  0  0
  -33.5223  -26.0580   17.5554 C   0  0  0  0  0  0  0  0  0  0  0  0
  -31.0240  -34.1013   24.9024 C   0  0  0  0  0  0  0  0  0  0  0  0
  -33.3440  -28.2937   23.0829 C   0  0  0  0  0  0  0  0  0  0  0  0
  -31.6758  -26.8843   21.0890 C   0  0  0  0  0  0  0  0  0  0  0  0
  -31.1147  -33.6879   23.4357 C   0  0  0  0  0  0  0  0  0  0  0  0
  -29.5554  -12.2972   18.2718 C   0  0  0  0  0  0  0  0  0  0  0  0
  -30.1068  -32.5849   23.1287 C   0  0  0  0  0  0  0  0  0  0  0  0
  -28.1215  -12.0113   18.7161 C   0  0  0  0  0  0  0  0  0  0  0  0
  -31.9175  -15.2799   23.4103 C   0  0  0  0  0  0  0  0  0  0  0  0
  -30.4781  -12.5121   19.4674 C   0  0  0  0  0  0  0  0  0  0  0  0
  -28.5832  -13.2954   20.8522 C   0  0  0  0  0  0  0  0  0  0  0  0
  -32.6077  -16.1492   24.4486 C   0  0  0  0  0  0  0  0  0  0  0  0
  -30.6597  -17.2830   23.5033 C   0  0  0  0  0  0  0  0  0  0  0  0
  -30.3925  -31.3292   23.9611 C   0  0  1  0  0  0  0  0  0  0  0  0
  -32.6534  -29.0374   21.9439 C   0  0  1  0  0  0  0  0  0  0  0  0
  -31.2092  -16.2782   22.5053 C   0  0  2  0  0  0  0  0  0  0  0  0
  -27.6118  -13.1024   19.6743 C   0  0  2  0  0  0  0  0  0  0  0  0
  -27.5152  -22.8570   24.7188 C   0  0  0  0  0  0  0  0  0  0  0  0
  -29.3924  -16.6879   20.8116 C   0  0  0  0  0  0  0  0  0  0  0  0
  -34.3653  -25.5344   15.2505 C   0  0  0  0  0  0  0  0  0  0  0  0
  -29.6843  -29.0022   18.4022 C   0  0  0  0  0  0  0  0  0  0  0  0
  -30.3606  -27.5998   16.4416 C   0  0  0  0  0  0  0  0  0  0  0  0
  -31.5037  -29.7751   16.8704 C   0  0  0  0  0  0  0  0  0  0  0  0
  -36.0694  -24.9780   18.6064 C   0  0  0  0  0  0  0  0  0  0  0  0
  -31.3366  -17.8127   25.8722 C   0  0  0  0  0  0  0  0  0  0  0  0
  -31.1704  -22.8159   25.6791 C   0  0  0  0  0  0  0  0  0  1  0  0
  -28.2626  -22.6199   26.0275 C   0  0  0  0  0  0  0  0  0  0  0  0
  -30.1297  -15.6466   21.6442 C   0  0  1  0  0  0  0  0  0  0  0  0
  -31.9733  -27.8080   18.3876 C   0  0  1  0  0  0  0  0  0  0  0  0
  -34.7503  -25.8711   16.6827 C   0  0  2  0  0  0  0  0  0  0  0  0
  -30.8830  -28.5362   17.5520 C   0  0  0  0  0  0  0  0  0  0  0  0
  -28.4458  -20.2177   26.1103 N   0  0  0  0  0  0  0  0  0  0  0  0
  -25.8060  -11.5433   20.2999 N   0  0  0  0  0  0  0  0  0  0  0  0
  -26.1977  -12.8198   20.1472 N   0  0  0  0  0  0  0  0  0  0  0  0
  -32.3408  -28.1674   20.8083 N   0  0  0  0  0  0  0  0  0  0  0  0
  -29.9478  -13.5400   20.3649 N   0  0  0  0  0  0  0  0  0  0  0  0
  -25.4569  -15.0603   20.3523 N   0  0  0  0  0  0  0  0  0  0  0  0
  -21.8436  -12.6507   21.5908 N   0  0  0  0  0  0  0  0  0  0  0  0
  -31.5045  -30.5927   23.3996 N   0  0  0  0  0  0  0  0  0  0  0  0
  -33.1329  -27.3795   17.6129 N   0  0  0  0  0  0  0  0  0  0  0  0
  -31.7875  -17.4270   24.5048 N   0  3  1  0  0  0  0  0  0  0  0  0
  -35.5995  -24.7673   17.2130 N   0  3  0  0  0  0  0  0  0  0  0  0
  -22.6439  -14.7757   21.2702 O   0  0  0  0  0  0  0  0  0  0  0  0
  -30.3213  -29.3787   21.8031 O   0  0  0  0  0  0  0  0  0  0  0  0
  -31.9024  -14.7962   20.3228 O   0  0  0  0  0  0  0  0  0  0  0  0
  -33.0600  -29.7363   19.2405 O   0  0  0  0  0  0  0  0  0  0  0  0
  -32.9622  -25.1245   18.1258 O   0  0  0  0  0  0  0  0  0  0  0  0
  -21.5064   -7.0941   21.8053 O   0  0  0  0  0  0  0  0  0  0  0  0
  -30.9288  -23.3340   24.3717 O   0  0  0  0  0  0  0  0  0  1  0  0
  -23.8909   -3.0678   24.7220 F   0  0  0  0  0  0  0  0  0  0  0  0
  -20.4502   -6.2806   24.2271 F   0  0  0  0  0  0  0  0  0  0  0  0
  1  2  1  0  0  0  0
  1  5  2  0  0  0  0
  2  6  2  0  0  0  0
  3  8  2  0  0  0  0
  3 17  1  0  0  0  0
  4  9  1  0  0  0  0
  4 17  2  0  0  0  0
  5 19  1  0  0  0  0
  6 21  1  0  0  0  0
  7 10  2  0  0  0  0
  7 20  1  0  0  0  0
  8 25  1  0  0  0  0
  9 25  2  0  0  0  0
 10 26  1  0  0  0  0
 11 12  2  0  0  0  0
 11 27  1  0  0  0  0
 12 28  1  0  0  0  0
 13 22  1  0  0  0  0
 13 26  2  0  0  0  0
 14 23  2  0  0  0  0
 14 24  1  0  0  0  0
 15 28  2  0  0  0  0
 15 29  1  0  0  0  0
 16 23  1  0  0  0  0
 16 68  2  0  0  0  0
 17 30  1  0  0  0  0
 18 30  1  0  0  0  0
 18 32  2  0  0  0  0
 18 33  1  0  0  0  0
 19 21  2  0  0  0  0
 19 38  1  0  0  0  0
 20 22  2  0  0  0  0
 20 39  1  0  0  0  0
 21 50  1  0  0  0  0
 22 40  1  0  0  0  0
 23 61  1  0  0  0  0
 24 31  2  0  0  0  0
 24 62  1  0  0  0  0
 25 84  1  0  0  0  0
 26 85  1  0  0  0  0
 27 29  2  0  0  0  0
 27 84  1  0  0  0  0
 28 86  1  0  0  0  0
 29 87  1  0  0  0  0
 30 69  2  0  0  0  0
 31 63  1  0  0  0  0
 31 68  1  0  0  0  0
 32 70  1  0  0  0  0
 32 73  1  0  0  0  0
 33 74  1  0  0  0  0
 33 79  2  0  0  0  0
 34 51  1  0  0  0  0
 34 75  1  0  0  0  0
 34 80  2  0  0  0  0
 35 64  1  0  0  0  0
 35 72  1  0  0  0  0
 35 81  2  0  0  0  0
 36 65  1  0  0  0  0
 36 71  1  0  0  0  0
 36 82  2  0  0  0  0
 37 66  1  0  0  0  0
 37 76  1  0  0  0  0
 37 83  2  0  0  0  0
 38 41  1  0  0  0  0
 39 51  1  0  0  0  0
 40 71  1  0  0  0  0
 41 43  1  0  0  0  0
 42 44  1  0  0  0  0
 42 46  1  0  0  0  0
 43 50  1  0  0  0  0
 44 53  1  0  0  0  0
 45 48  1  0  0  0  0
 45 52  1  0  0  0  0
 46 72  1  0  0  0  0
 47 53  1  0  0  0  0
 47 72  1  0  0  0  0
 48 77  1  0  0  0  0
 49 52  1  0  0  0  0
 49 77  1  0  0  0  0
 50 75  1  0  0  0  0
 51 71  1  0  0  0  0
 52 64  1  0  0  0  0
 53 70  1  0  0  0  0
 54 63  1  0  0  0  0
 55 64  1  0  0  0  0
 56 66  1  0  0  0  0
 57 67  1  0  0  0  0
 58 67  1  0  0  0  0
 59 67  1  0  0  0  0
 60 78  1  0  0  0  0
 61 77  1  0  0  0  0
 62 85  1  0  0  0  0
 65 67  1  0  0  0  0
 65 76  1  0  0  0  0
 66 78  1  0  0  0  0
 69 70  1  0  0  0  0
M  CHG  2  77   1  78   1
M  ISO  4  35 100  62 101  64 100  85 101
M  END
> <Batch ID>
0118

> <Smiles>
CCc1ncc(CN2CCC([100CH:0](C)[100C:0](=O)N3CCCC(n4nc(-c5ccc(Oc6ccc(F)cc6F)cc5)c(C(N)=O)c4N)C3)C2)cc1[101CH2:1][101O:1]c1ccc2c(c1)CN(C(=O)C(NC(=O)C(C)NC)C(C)(C)C)C(C(=O)NC1CCCc3ccccc31)C2

> <Shape>
0.185

> <Color>
0.184

> <Negative vol penalty>
0.000

$$$$

  -OEChem-04052320183D

 88 96  0     1  0  0  0  0  0999 V2000
  -26.3036  -35.4316   23.4065 C   0  0  0  0  0  0  0  0  0  0  0  0
  -26.8057  -34.1598   23.1500 C   0  0  0  0  0  0  0  0  0  0  0  0
  -21.8701  -12.0828   21.5982 C   0  0  0  0  0  0  0  0  0  0  0  0
  -22.3540  -14.2420   20.6284 C   0  0  0  0  0  0  0  0  0  0  0  0
  -25.0047  -35.5825   23.8903 C   0  0  0  0  0  0  0  0  0  0  0  0
  -26.0095  -33.0380   23.3782 C   0  0  0  0  0  0  0  0  0  0  0  0
  -26.2466  -29.6844   19.5911 C   0  0  0  0  0  0  0  0  0  0  0  0
  -20.5466  -12.4720   21.8044 C   0  0  0  0  0  0  0  0  0  0  0  0
  -21.0304  -14.6312   20.8345 C   0  0  0  0  0  0  0  0  0  0  0  0
  -27.3730  -28.8648   19.5360 C   0  0  0  0  0  0  0  0  0  0  0  0
  -18.8201  -14.3532   24.0190 C   0  0  0  0  0  0  0  0  0  0  0  0
  -18.2445  -14.0608   25.2555 C   0  0  0  0  0  0  0  0  0  0  0  0
  -26.1127  -27.0749   20.5494 C   0  0  0  0  0  0  0  0  0  0  0  0
  -16.5532  -12.7330   24.1540 C   0  0  0  0  0  0  0  0  0  0  0  0
  -22.7738  -12.9679   21.0103 C   0  0  0  0  0  0  0  0  0  0  0  0
  -24.5990  -11.4868   20.0190 C   0  0  0  0  0  0  0  0  0  0  0  0
  -24.1889  -34.4625   24.1154 C   0  0  0  0  0  0  0  0  0  0  0  0
  -25.0458  -29.2082   20.1366 C   0  0  0  0  0  0  0  0  0  0  0  0
  -24.6990  -33.1739   23.8668 C   0  0  0  0  0  0  0  0  0  0  0  0
  -24.9718  -27.8896   20.6079 C   0  0  0  0  0  0  0  0  0  0  0  0
  -20.1268  -13.7461   21.4225 C   0  0  0  0  0  0  0  0  0  0  0  0
  -27.3071  -27.5607   20.0178 C   0  0  0  0  0  0  0  0  0  0  0  0
  -18.2622  -13.8356   22.8501 C   0  0  0  0  0  0  0  0  0  0  0  0
  -17.1111  -13.2507   25.3230 C   0  0  0  0  0  0  0  0  0  0  0  0
  -17.1288  -13.0254   22.9176 C   0  0  0  0  0  0  0  0  0  0  0  0
  -24.1412  -12.5666   20.7975 C   0  0  0  0  0  0  0  0  0  0  0  0
  -25.9665  -11.5318   20.1398 C   0  0  0  0  0  0  0  0  0  0  0  0
  -23.8548  -10.5289   19.2547 C   0  0  0  0  0  0  0  0  0  0  0  0
  -29.7340  -16.0289   21.4410 C   0  0  0  0  0  0  0  0  0  0  0  0
  -23.2254  -30.0270   22.6104 C   0  0  0  0  0  0  0  0  0  0  0  0
  -21.2281  -27.7844   21.3841 C   0  0  0  0  0  0  0  0  0  0  0  0
  -21.5348  -24.4934   19.9375 C   0  0  0  0  0  0  0  0  0  0  0  0
  -22.8078  -34.6729   24.6839 C   0  0  0  0  0  0  0  0  0  0  0  0
  -23.8321  -30.0962   20.1643 C   0  0  0  0  0  0  0  0  0  0  0  0
  -23.7007  -27.3238   21.1846 C   0  0  0  0  0  0  0  0  0  0  0  0
  -21.8994  -33.4541   24.5439 C   0  0  0  0  0  0  0  0  0  0  0  0
  -29.4254  -12.8899   23.1414 C   0  0  0  0  0  0  0  0  0  0  0  0
  -22.6357  -32.1878   24.9695 C   0  0  0  0  0  0  0  0  0  0  0  0
  -28.0643  -12.3664   22.6845 C   0  0  0  0  0  0  0  0  0  0  0  0
  -30.9544  -18.3750   18.0582 C   0  0  0  0  0  0  0  0  0  0  0  0
  -29.4207  -14.4088   23.2826 C   0  0  0  0  0  0  0  0  0  0  0  0
  -29.6426  -18.6340   18.8063 C   0  0  0  0  0  0  0  0  0  0  0  0
  -27.6275  -14.6105   21.5899 C   0  0  0  0  0  0  0  0  0  0  0  0
  -29.5581  -15.7182   19.0173 C   0  0  0  0  0  0  0  0  0  0  0  0
  -23.8574  -31.9341   24.0782 C   0  0  1  0  0  0  0  0  0  0  0  0
  -29.1862  -16.6405   20.1812 C   0  0  2  0  0  0  0  0  0  0  0  0
  -22.8063  -29.6736   21.2114 C   0  0  1  0  0  0  0  0  0  0  0  0
  -27.5976  -13.0830   21.4050 C   0  0  2  0  0  0  0  0  0  0  0  0
  -31.1317  -16.9684   17.4895 C   0  0  1  0  0  0  0  0  0  0  0  0
  -32.5200  -16.7937   16.8804 C   0  0  0  0  0  0  0  0  0  0  0  0
  -20.0701  -23.2915   18.2920 C   0  0  0  0  0  0  0  0  0  0  0  0
  -30.9741  -19.5930   22.3363 C   0  0  0  0  0  0  0  0  0  0  0  0
  -31.7739  -24.2874   22.5700 C   0  0  0  0  0  0  0  0  0  0  0  0
  -19.9071  -26.5991   23.8661 C   0  0  0  0  0  0  0  0  0  0  0  0
  -19.7111  -24.4258   22.6386 C   0  0  0  0  0  0  0  0  0  0  0  0
  -18.5333  -26.4509   21.7816 C   0  0  0  0  0  0  0  0  0  0  0  0
  -23.7972  -24.0284   18.0869 C   0  0  0  0  0  0  0  0  0  0  0  0
  -28.8096  -20.9234   22.5200 C   0  0  0  0  0  0  0  0  0  0  0  0
  -30.0133  -25.4984   21.2231 C   0  0  0  0  0  0  0  0  0  0  0  0
  -28.8906  -18.8649   21.0798 C   0  0  0  0  0  0  0  0  0  0  0  0
  -29.4166  -22.2276   23.0282 C   0  0  0  0  0  0  0  0  0  0  0  0
  -28.5315  -25.7638   20.9809 C   0  0  0  0  0  0  0  0  0  1  0  0
  -21.0479  -26.2971   21.5697 C   0  0  1  0  0  0  0  0  0  0  0  0
  -21.3323  -24.1187   18.4804 C   0  0  2  0  0  0  0  0  0  0  0  0
  -29.7105  -20.0618   21.6061 C   0  0  2  0  0  0  0  0  0  0  0  0
  -30.2827  -24.4583   22.3124 C   0  0  1  0  0  0  0  0  0  0  0  0
  -19.8252  -25.9557   22.4674 C   0  0  0  0  0  0  0  0  0  0  0  0
  -25.1370  -13.2477   21.3708 N   0  0  0  0  0  0  0  0  0  0  0  0
  -26.2341  -12.5942   20.9521 N   0  0  0  0  0  0  0  0  0  0  0  0
  -28.9501  -15.0514   22.0543 N   0  0  0  0  0  0  0  0  0  0  0  0
  -22.5430  -28.2332   21.1956 N   0  0  0  0  0  0  0  0  0  0  0  0
  -29.6604  -18.0320   20.1452 N   0  0  2  0  0  0  0  0  0  0  0  0
  -26.9540  -10.7657   19.6296 N   0  0  0  0  0  0  0  0  0  0  0  0
  -23.5709  -10.8195   17.9133 N   0  0  0  0  0  0  0  0  0  0  0  0
  -23.4485  -31.3765   22.8069 N   0  0  0  0  0  0  0  0  0  0  0  0
  -20.9843  -25.7233   20.2299 N   0  0  0  0  0  0  0  0  0  0  0  0
  -30.9635  -15.9325   18.5580 N   0  3  0  0  0  0  0  0  0  0  0  0
  -22.4922  -23.3260   17.9833 N   0  3  0  0  0  0  0  0  0  0  0  0
  -29.7343  -23.1372   21.8970 N   0  3  0  0  0  0  0  0  0  0  0  0
  -23.4392   -9.4545   19.7513 O   0  0  0  0  0  0  0  0  0  0  0  0
  -30.8286  -16.4065   21.8670 O   0  0  0  0  0  0  0  0  0  0  0  0
  -23.3366  -29.1412   23.4498 O   0  0  0  0  0  0  0  0  0  0  0  0
  -20.2380  -28.5199   21.3986 O   0  0  0  0  0  0  0  0  0  0  0  0
  -22.1195  -23.7660   20.7372 O   0  0  0  0  0  0  0  0  0  0  0  0
  -18.8353  -14.1261   21.6234 O   0  0  0  0  0  0  0  0  0  0  0  0
  -28.4053  -26.7588   19.9658 O   0  0  0  0  0  0  0  0  0  1  0  0
  -16.5594  -12.9687   26.5105 F   0  0  0  0  0  0  0  0  0  0  0  0
  -16.5890  -12.5242   21.7981 F   0  0  0  0  0  0  0  0  0  0  0  0
  1  2  1  0  0  0  0
  1  5  2  0  0  0  0
  2  6  2  0  0  0  0
  3  8  2  0  0  0  0
  3 15  1  0  0  0  0
  4  9  1  0  0  0  0
  4 15  2  0  0  0  0
  5 17  1  0  0  0  0
  6 19  1  0  0  0  0
  7 10  2  0  0  0  0
  7 18  1  0  0  0  0
  8 21  1  0  0  0  0
  9 21  2  0  0  0  0
 10 22  1  0  0  0  0
 11 12  2  0  0  0  0
 11 23  1  0  0  0  0
 12 24  1  0  0  0  0
 13 20  1  0  0  0  0
 13 22  2  0  0  0  0
 14 24  2  0  0  0  0
 14 25  1  0  0  0  0
 15 26  1  0  0  0  0
 16 26  1  0  0  0  0
 16 27  2  0  0  0  0
 16 28  1  0  0  0  0
 17 19  2  0  0  0  0
 17 33  1  0  0  0  0
 18 20  2  0  0  0  0
 18 34  1  0  0  0  0
 19 45  1  0  0  0  0
 20 35  1  0  0  0  0
 21 85  1  0  0  0  0
 22 86  1  0  0  0  0
 23 25  2  0  0  0  0
 23 85  1  0  0  0  0
 24 87  1  0  0  0  0
 25 88  1  0  0  0  0
 26 68  2  0  0  0  0
 27 69  1  0  0  0  0
 27 73  1  0  0  0  0
 28 74  1  0  0  0  0
 28 80  2  0  0  0  0
 29 46  1  0  0  0  0
 29 70  1  0  0  0  0
 29 81  2  0  0  0  0
 30 47  1  0  0  0  0
 30 75  1  0  0  0  0
 30 82  2  0  0  0  0
 31 63  1  0  0  0  0
 31 71  1  0  0  0  0
 31 83  2  0  0  0  0
 32 64  1  0  0  0  0
 32 76  1  0  0  0  0
 32 84  2  0  0  0  0
 33 36  1  0  0  0  0
 34 47  1  0  0  0  0
 35 71  1  0  0  0  0
 36 38  1  0  0  0  0
 37 39  1  0  0  0  0
 37 41  1  0  0  0  0
 38 45  1  0  0  0  0
 39 48  1  0  0  0  0
 40 42  1  0  0  0  0
 40 49  1  0  0  0  0
 41 70  1  0  0  0  0
 42 72  1  0  0  0  0
 43 48  1  0  0  0  0
 43 70  1  0  0  0  0
 44 46  1  0  0  0  0
 44 77  1  0  0  0  0
 45 75  1  0  0  0  0
 46 72  1  0  0  0  0
 47 71  1  0  0  0  0
 48 69  1  0  0  0  0
 49 50  1  0  0  0  0
 49 77  1  0  0  0  0
 51 64  1  0  0  0  0
 52 65  1  0  0  0  0
 53 66  1  0  0  0  0
 54 67  1  0  0  0  0
 55 67  1  0  0  0  0
 56 67  1  0  0  0  0
 57 78  1  0  0  0  0
 58 61  1  0  0  0  0
 58 65  1  0  0  0  0
 59 62  1  0  0  0  0
 59 66  1  0  0  0  0
 60 65  1  0  0  0  0
 60 72  1  0  0  0  0
 61 79  1  0  0  0  0
 62 86  1  0  0  0  0
 63 67  1  0  0  0  0
 63 76  1  0  0  0  0
 64 78  1  0  0  0  0
 66 79  1  0  0  0  0
 68 69  1  0  0  0  0
M  CHG  3  77   1  78   1  79   1
M  ISO  4  29 100  46 100  62 101  86 101
M  END
> <Batch ID>
0118

> <Smiles>
CNC(C)C(=O)NC(C(=O)N1Cc2cc([101O:1][101CH2:1]CC(C)NCCC(C)CN3CCC(C)NC[100CH:0]3[100C:0](=O)N3CCCC(n4nc(-c5ccc(Oc6ccc(F)cc6F)cc5)c(C(N)=O)c4N)C3)ccc2CC1C(=O)NC1CCCc2ccccc21)C(C)(C)C

> <Shape>
0.268

> <Color>
0.070

> <Negative vol penalty>
0.000

$$$$

  -OEChem-04052320183D

 87 95  0     1  0  0  0  0  0999 V2000
  -27.7607  -37.7206   20.7847 C   0  0  0  0  0  0  0  0  0  0  0  0
  -28.2425  -36.4545   20.4681 C   0  0  0  0  0  0  0  0  0  0  0  0
  -24.4111  -13.4918   21.5961 C   0  0  0  0  0  0  0  0  0  0  0  0
  -26.6277  -12.8359   20.8938 C   0  0  0  0  0  0  0  0  0  0  0  0
  -26.8221  -37.8731   21.8043 C   0  0  0  0  0  0  0  0  0  0  0  0
  -27.7868  -35.3402   21.1717 C   0  0  0  0  0  0  0  0  0  0  0  0
  -26.9041  -29.6978   18.9603 C   0  0  0  0  0  0  0  0  0  0  0  0
  -23.8678  -12.8432   20.4872 C   0  0  0  0  0  0  0  0  0  0  0  0
  -26.0844  -12.1873   19.7849 C   0  0  0  0  0  0  0  0  0  0  0  0
  -27.6841  -28.5429   18.9981 C   0  0  0  0  0  0  0  0  0  0  0  0
  -23.1277   -9.6739   19.5703 C   0  0  0  0  0  0  0  0  0  0  0  0
  -22.0048   -8.8720   19.7741 C   0  0  0  0  0  0  0  0  0  0  0  0
  -26.4537  -27.7822   20.9285 C   0  0  0  0  0  0  0  0  0  0  0  0
  -29.2629  -23.7962   19.1606 C   0  0  0  0  0  0  0  0  0  0  0  0
  -20.7437  -10.2481   18.2401 C   0  0  0  0  0  0  0  0  0  0  0  0
  -31.9719  -23.9202   19.6371 C   0  0  0  0  0  0  0  0  0  0  0  0
  -25.7911  -13.4882   21.7994 C   0  0  0  0  0  0  0  0  0  0  0  0
  -26.5939  -13.6087   24.2178 C   0  0  0  0  0  0  0  0  0  0  0  0
  -26.3474  -36.7590   22.5143 C   0  0  0  0  0  0  0  0  0  0  0  0
  -25.8985  -29.9091   19.9146 C   0  0  0  0  0  0  0  0  0  0  0  0
  -26.8419  -35.4781   22.2027 C   0  0  0  0  0  0  0  0  0  0  0  0
  -25.6606  -28.9395   20.8991 C   0  0  0  0  0  0  0  0  0  0  0  0
  -31.3532  -22.6790   19.5913 C   0  0  0  0  0  0  0  0  0  0  0  0
  -29.9839  -22.6212   19.3503 C   0  0  0  0  0  0  0  0  0  0  0  0
  -24.7044  -12.1909   19.5816 C   0  0  0  0  0  0  0  0  0  0  0  0
  -27.4609  -27.5862   19.9840 C   0  0  0  0  0  0  0  0  0  0  0  0
  -23.0587  -10.7630   18.7014 C   0  0  0  0  0  0  0  0  0  0  0  0
  -20.8128   -9.1591   19.1090 C   0  0  0  0  0  0  0  0  0  0  0  0
  -21.8666  -11.0500   18.0363 C   0  0  0  0  0  0  0  0  0  0  0  0
  -26.3530  -14.1585   22.9445 C   0  0  0  0  0  0  0  0  0  0  0  0
  -29.9344  -25.0092   19.2175 C   0  0  0  0  0  0  0  0  0  0  0  0
  -27.1310  -14.6442   24.9429 C   0  0  0  0  0  0  0  0  0  0  0  0
  -26.3538  -12.2806   24.7019 C   0  0  0  0  0  0  0  0  0  0  0  0
  -25.3601  -32.0935   22.1600 C   0  0  0  0  0  0  0  0  0  0  0  0
  -22.5507  -30.5044   22.4828 C   0  0  0  0  0  0  0  0  0  0  0  0
  -20.7991  -27.6041   22.0743 C   0  0  0  0  0  0  0  0  0  0  0  0
  -30.1185  -19.5938   23.3850 C   0  0  0  0  0  0  0  0  0  0  0  0
  -25.3680  -36.9789   23.6400 C   0  0  0  0  0  0  0  0  0  0  0  0
  -25.0480  -31.1477   19.8440 C   0  0  0  0  0  0  0  0  0  0  0  0
  -24.5800  -29.1091   21.9345 C   0  0  0  0  0  0  0  0  0  0  0  0
  -24.6564  -35.7042   24.0860 C   0  0  0  0  0  0  0  0  0  0  0  0
  -27.0894  -19.4187   25.2479 C   0  0  0  0  0  0  0  0  0  0  0  0
  -25.6570  -34.5652   24.2541 C   0  0  0  0  0  0  0  0  0  0  0  0
  -26.5789  -18.0011   24.9837 C   0  0  0  0  0  0  0  0  0  0  0  0
  -27.7598  -20.0165   24.0129 C   0  0  0  0  0  0  0  0  0  0  0  0
  -28.3218  -17.7718   23.1648 C   0  0  0  0  0  0  0  0  0  0  0  0
  -26.3533  -34.2422   22.9265 C   0  0  1  0  0  0  0  0  0  0  0  0
  -24.3926  -31.4991   21.1761 C   0  0  1  0  0  0  0  0  0  0  0  0
  -27.6875  -17.1060   24.3980 C   0  0  2  0  0  0  0  0  0  0  0  0
  -25.5252  -18.2423   18.5380 C   0  0  0  0  0  0  0  0  0  0  0  0
  -18.5331  -26.5995   22.4659 C   0  0  0  0  0  0  0  0  0  0  0  0
  -23.1805  -30.2496   25.4574 C   0  0  0  0  0  0  0  0  0  0  0  0
  -21.4247  -28.4710   25.6056 C   0  0  0  0  0  0  0  0  0  0  0  0
  -20.7946  -30.7907   24.9389 C   0  0  0  0  0  0  0  0  0  0  0  0
  -20.3950  -27.1008   19.1859 C   0  0  0  0  0  0  0  0  0  0  0  0
  -32.1674  -21.4471   19.8000 C   0  0  0  0  0  0  0  0  0  0  0  0
  -29.2303  -26.3199   19.0239 C   0  0  0  0  0  0  0  0  0  1  0  0
  -25.9465  -19.6970   18.6762 C   0  0  0  0  0  0  0  0  0  0  0  0
  -27.4443  -19.8199   18.9655 C   0  0  0  0  0  0  0  0  0  0  0  0
  -27.9077  -21.2704   19.0498 C   0  0  0  0  0  0  0  0  0  0  0  0
  -32.4409  -19.0144   22.7290 C   0  0  0  0  0  0  0  0  0  0  0  0
  -32.7287  -19.5669   21.3455 C   0  0  0  0  0  0  0  0  0  0  0  0
  -22.0718  -29.3371   23.3117 C   0  0  1  0  0  0  0  0  0  0  0  0
  -19.4301  -27.3296   21.4784 C   0  0  2  0  0  0  0  0  0  0  0  0
  -21.8896  -29.7095   24.8102 C   0  0  0  0  0  0  0  0  0  0  0  0
  -26.7077  -15.4436   22.8622 N   0  0  0  0  0  0  0  0  0  0  0  0
  -27.1769  -15.7099   24.0930 N   0  0  0  0  0  0  0  0  0  0  0  0
  -31.2536  -25.0361   19.4511 N   0  3  0  0  0  0  0  0  0  0  0  0
  -23.7792  -30.3399   21.8275 N   0  0  0  0  0  0  0  0  0  0  0  0
  -28.8021  -19.1195   23.5080 N   0  0  0  0  0  0  0  0  0  0  0  0
  -27.5636  -14.7380   26.2182 N   0  0  0  0  0  0  0  0  0  0  0  0
  -25.7968  -11.3402   23.8246 N   0  0  0  0  0  0  0  0  0  0  0  0
  -29.3117  -21.3810   19.2946 N   0  0  0  0  0  0  0  0  0  0  0  0
  -25.4788  -33.4675   22.0725 N   0  0  0  0  0  0  0  0  0  0  0  0
  -20.8585  -28.8483   22.6657 N   0  0  0  0  0  0  0  0  0  0  0  0
  -31.0458  -18.6771   22.9047 N   0  0  0  0  0  0  0  0  0  0  0  0
  -19.5574  -26.4929   20.2518 N   0  3  0  0  0  0  0  0  0  0  0  0
  -31.9690  -20.8274   21.1394 N   0  3  0  0  0  0  0  0  0  0  0  0
  -26.6100  -11.9426   25.8824 O   0  0  0  0  0  0  0  0  0  0  0  0
  -25.9539  -31.3601   22.9419 O   0  0  0  0  0  0  0  0  0  0  0  0
  -21.8568  -31.5219   22.4134 O   0  0  0  0  0  0  0  0  0  0  0  0
  -21.7222  -26.7943   22.0236 O   0  0  0  0  0  0  0  0  0  0  0  0
  -30.4445  -20.7470   23.6862 O   0  0  0  0  0  0  0  0  0  0  0  0
  -24.1746  -11.5577   18.4995 O   0  0  0  0  0  0  0  0  0  0  0  0
  -28.2213  -26.4584   20.0235 O   0  0  0  0  0  0  0  0  0  1  0  0
  -19.7350   -8.3880   19.3036 F   0  0  0  0  0  0  0  0  0  0  0  0
  -21.7945  -12.0942   17.1995 F   0  0  0  0  0  0  0  0  0  0  0  0
  1  2  1  0  0  0  0
  1  5  2  0  0  0  0
  2  6  2  0  0  0  0
  3  8  2  0  0  0  0
  3 17  1  0  0  0  0
  4  9  1  0  0  0  0
  4 17  2  0  0  0  0
  5 19  1  0  0  0  0
  6 21  1  0  0  0  0
  7 10  2  0  0  0  0
  7 20  1  0  0  0  0
  8 25  1  0  0  0  0
  9 25  2  0  0  0  0
 10 26  1  0  0  0  0
 11 12  2  0  0  0  0
 11 27  1  0  0  0  0
 12 28  1  0  0  0  0
 13 22  1  0  0  0  0
 13 26  2  0  0  0  0
 14 24  1  0  0  0  0
 14 31  2  0  0  0  0
 15 28  2  0  0  0  0
 15 29  1  0  0  0  0
 16 23  1  0  0  0  0
 16 68  2  0  0  0  0
 17 30  1  0  0  0  0
 18 30  1  0  0  0  0
 18 32  2  0  0  0  0
 18 33  1  0  0  0  0
 19 21  2  0  0  0  0
 19 38  1  0  0  0  0
 20 22  2  0  0  0  0
 20 39  1  0  0  0  0
 21 47  1  0  0  0  0
 22 40  1  0  0  0  0
 23 24  2  0  0  0  0
 23 56  1  0  0  0  0
 24 73  1  0  0  0  0
 25 84  1  0  0  0  0
 26 85  1  0  0  0  0
 27 29  2  0  0  0  0
 27 84  1  0  0  0  0
 28 86  1  0  0  0  0
 29 87  1  0  0  0  0
 30 66  2  0  0  0  0
 31 57  1  0  0  0  0
 31 68  1  0  0  0  0
 32 67  1  0  0  0  0
 32 71  1  0  0  0  0
 33 72  1  0  0  0  0
 33 79  2  0  0  0  0
 34 48  1  0  0  0  0
 34 74  1  0  0  0  0
 34 80  2  0  0  0  0
 35 63  1  0  0  0  0
 35 69  1  0  0  0  0
 35 81  2  0  0  0  0
 36 64  1  0  0  0  0
 36 75  1  0  0  0  0
 36 82  2  0  0  0  0
 37 70  1  0  0  0  0
 37 76  1  0  0  0  0
 37 83  2  0  0  0  0
 38 41  1  0  0  0  0
 39 48  1  0  0  0  0
 40 69  1  0  0  0  0
 41 43  1  0  0  0  0
 42 44  1  0  0  0  0
 42 45  1  0  0  0  0
 43 47  1  0  0  0  0
 44 49  1  0  0  0  0
 45 70  1  0  0  0  0
 46 49  1  0  0  0  0
 46 70  1  0  0  0  0
 47 74  1  0  0  0  0
 48 69  1  0  0  0  0
 49 67  1  0  0  0  0
 50 58  1  0  0  0  0
 51 64  1  0  0  0  0
 52 65  1  0  0  0  0
 53 65  1  0  0  0  0
 54 65  1  0  0  0  0
 55 77  1  0  0  0  0
 56 78  1  0  0  0  0
 57 85  1  0  0  0  0
 58 59  1  0  0  0  0
 59 60  1  0  0  0  0
 60 73  1  0  0  0  0
 61 62  1  0  0  0  0
 61 76  1  0  0  0  0
 62 78  1  0  0  0  0
 63 65  1  0  0  0  0
 63 75  1  0  0  0  0
 64 77  1  0  0  0  0
 66 67  1  0  0  0  0
M  CHG  3  68   1  77   1  78   1
M  ISO  4  37 100  57 101  76 100  85 101
M  END
> <Batch ID>
0118

> <Smiles>
CCCCNc1cc([101CH2:1][101O:1]c2ccc3c(c2)CN(C(=O)C(NC(=O)C(C)NC)C(C)(C)C)C(C(=O)NC2CCCc4ccccc42)C3)ncc1CNCC[100NH:0][100C:0](=O)N1CCCC(n2nc(-c3ccc(Oc4ccc(F)cc4F)cc3)c(C(N)=O)c2N)C1

> <Shape>
0.244

> <Color>
0.070

> <Negative vol penalty>
0.000

$$$$

  -OEChem-04052320183D

 86 95  0     1  0  0  0  0  0999 V2000
  -24.4630  -31.4187   21.2159 C   0  0  0  0  0  0  0  0  0  0  0  0
  -23.3884  -30.5469   21.0812 C   0  0  0  0  0  0  0  0  0  0  0  0
  -28.9976  -17.4793   19.0050 C   0  0  0  0  0  0  0  0  0  0  0  0
  -29.6259  -18.0760   21.2603 C   0  0  0  0  0  0  0  0  0  0  0  0
  -25.7630  -30.9486   21.0424 C   0  0  0  0  0  0  0  0  0  0  0  0
  -23.6140  -29.2023   20.7847 C   0  0  0  0  0  0  0  0  0  0  0  0
  -29.0311  -26.2379   24.6986 C   0  0  0  0  0  0  0  0  0  0  0  0
  -31.2643  -25.9652   25.5792 C   0  0  0  0  0  0  0  0  0  0  0  0
  -25.8734  -22.6781   24.1885 C   0  0  0  0  0  0  0  0  0  0  0  0
  -29.5567  -26.4058   23.4175 C   0  0  0  0  0  0  0  0  0  0  0  0
  -31.7900  -26.1329   24.2981 C   0  0  0  0  0  0  0  0  0  0  0  0
  -29.6232  -16.2420   19.1581 C   0  0  0  0  0  0  0  0  0  0  0  0
  -30.2514  -16.8387   21.4134 C   0  0  0  0  0  0  0  0  0  0  0  0
  -26.7851  -22.5052   25.2290 C   0  0  0  0  0  0  0  0  0  0  0  0
  -30.7429  -12.7844   19.0795 C   0  0  0  0  0  0  0  0  0  0  0  0
  -30.0606  -11.6530   18.6323 C   0  0  0  0  0  0  0  0  0  0  0  0
  -25.8285  -24.4008   26.3740 C   0  0  0  0  0  0  0  0  0  0  0  0
  -28.2566  -12.1349   20.1654 C   0  0  0  0  0  0  0  0  0  0  0  0
  -28.9990  -18.3963   20.0561 C   0  0  0  0  0  0  0  0  0  0  0  0
  -27.0129  -19.9917   20.1882 C   0  0  0  0  0  0  0  0  0  0  0  0
  -29.8849  -26.0177   25.7794 C   0  0  0  0  0  0  0  0  0  0  0  0
  -26.0031  -29.6000   20.7313 C   0  0  0  0  0  0  0  0  0  0  0  0
  -24.9380  -23.7220   24.2278 C   0  0  0  0  0  0  0  0  0  0  0  0
  -24.9200  -28.7034   20.6294 C   0  0  0  0  0  0  0  0  0  0  0  0
  -24.9044  -24.5832   25.3339 C   0  0  0  0  0  0  0  0  0  0  0  0
  -30.9362  -26.3532   23.2173 C   0  0  0  0  0  0  0  0  0  0  0  0
  -30.2501  -15.9217   20.3623 C   0  0  0  0  0  0  0  0  0  0  0  0
  -26.7646  -23.3684   26.3206 C   0  0  0  0  0  0  0  0  0  0  0  0
  -30.1821  -13.5910   20.0697 C   0  0  0  0  0  0  0  0  0  0  0  0
  -28.8174  -11.3282   19.1752 C   0  0  0  0  0  0  0  0  0  0  0  0
  -28.9389  -13.2663   20.6127 C   0  0  0  0  0  0  0  0  0  0  0  0
  -28.3535  -19.6748   19.8984 C   0  0  0  0  0  0  0  0  0  0  0  0
  -26.8979  -21.3226   19.8690 C   0  0  0  0  0  0  0  0  0  0  0  0
  -25.9651  -19.1576   20.7003 C   0  0  0  0  0  0  0  0  0  0  0  0
  -24.3448  -26.2715   22.4245 C   0  0  0  0  0  0  0  0  0  0  0  0
  -21.7828  -26.5815   24.3898 C   0  0  0  0  0  0  0  0  0  0  0  0
  -20.3580  -25.9175   27.4190 C   0  0  0  0  0  0  0  0  0  0  0  0
  -30.8624  -25.7992   19.5621 C   0  0  0  0  0  0  0  0  0  0  0  0
  -27.4306  -29.1430   20.5619 C   0  0  0  0  0  0  0  0  0  0  0  0
  -23.9439  -23.8787   23.1099 C   0  0  0  0  0  0  0  0  0  0  0  0
  -23.9067  -25.7071   25.4338 C   0  0  0  0  0  0  0  0  0  0  0  0
  -27.5457  -27.8165   19.8179 C   0  0  0  0  0  0  0  0  0  0  0  0
  -28.7294  -24.6460   16.9550 C   0  0  0  0  0  0  0  0  0  0  0  0
  -29.2402  -26.8263   29.5128 C   0  0  0  0  0  0  0  0  0  0  0  0
  -29.7830  -26.9799   28.0948 C   0  0  0  0  0  0  0  0  0  0  0  0
  -26.5985  -26.7943   20.4282 C   0  0  0  0  0  0  0  0  0  0  0  0
  -28.2702  -23.2698   17.4398 C   0  0  0  0  0  0  0  0  0  0  0  0
  -30.1783  -24.9278   17.3464 C   0  0  0  0  0  0  0  0  0  0  0  0
  -30.0147  -23.3927   19.2675 C   0  0  0  0  0  0  0  0  0  0  0  0
  -29.5848  -25.4675   30.0956 C   0  0  0  0  0  0  0  0  0  0  0  0
  -29.3125  -25.8346   27.1766 C   0  0  2  0  0  0  0  0  0  0  0  0
  -25.1396  -27.2433   20.2772 C   0  0  1  0  0  0  0  0  0  0  0  0
  -23.3715  -25.2895   23.0127 C   0  0  1  0  0  0  0  0  0  0  0  0
  -28.5422  -23.0861   18.9450 C   0  0  2  0  0  0  0  0  0  0  0  0
  -29.6446  -24.4544   27.7872 C   0  0  2  0  0  0  0  0  0  0  0  0
  -18.2703  -26.3343   28.7477 C   0  0  0  0  0  0  0  0  0  0  0  0
  -29.7213  -21.9727   27.3523 C   0  0  0  0  0  0  0  0  0  0  0  0
  -22.6981  -29.4424   24.9260 C   0  0  0  0  0  0  0  0  0  0  0  0
  -21.1853  -29.4785   26.9206 C   0  0  0  0  0  0  0  0  0  0  0  0
  -20.2285  -29.1740   24.6371 C   0  0  0  0  0  0  0  0  0  0  0  0
  -19.7632  -23.0246   27.6103 C   0  0  0  0  0  0  0  0  0  0  0  0
  -31.4973  -26.5310   21.8469 C   0  0  0  0  0  0  0  0  0  0  0  0
  -21.5205  -27.2798   25.7023 C   0  0  1  0  0  0  0  0  0  0  0  0
  -18.9840  -25.3908   27.7921 C   0  0  2  0  0  0  0  0  0  0  0  0
  -29.0397  -23.2884   27.0087 C   0  0  1  0  0  0  0  0  0  1  0  0
  -21.4283  -28.8238   25.5440 C   0  0  0  0  0  0  0  0  0  0  0  0
  -29.0410  -20.7201   19.4308 N   0  0  0  0  0  0  0  0  0  0  0  0
  -28.1287  -21.7069   19.4243 N   0  0  0  0  0  0  0  0  0  0  0  0
  -22.9596  -25.8231   24.3127 N   0  0  0  0  0  0  0  0  0  0  0  0
  -30.3689  -24.7373   18.7863 N   0  0  0  0  0  0  0  0  0  0  0  0
  -25.8651  -22.1899   19.9280 N   0  0  0  0  0  0  0  0  0  0  0  0
  -26.2545  -17.8139   20.9744 N   0  0  0  0  0  0  0  0  0  0  0  0
  -24.2916  -26.3595   21.0465 N   0  0  0  0  0  0  0  0  0  0  0  0
  -20.3215  -26.6636   26.2600 N   0  0  0  0  0  0  0  0  0  0  0  0
  -31.0071  -25.5365   20.9188 N   0  0  0  0  0  0  0  0  0  0  0  0
  -29.0781  -24.4014   29.1829 N   0  3  0  0  0  0  0  0  0  0  0  0
  -19.1009  -24.0576   28.4477 N   0  3  0  0  0  0  0  0  0  0  0  0
  -24.8024  -19.5869   20.8932 O   0  0  0  0  0  0  0  0  0  0  0  0
  -25.0878  -26.9037   23.1660 O   0  0  0  0  0  0  0  0  0  0  0  0
  -20.9699  -26.6986   23.4695 O   0  0  0  0  0  0  0  0  0  0  0  0
  -21.3624  -25.6929   28.0907 O   0  0  0  0  0  0  0  0  0  0  0  0
  -31.1475  -26.9016   19.0821 O   0  0  0  0  0  0  0  0  0  0  0  0
  -30.8603  -14.7143   20.5121 O   0  0  0  0  0  0  0  0  0  0  0  0
  -27.6537  -23.2022   27.3374 O   0  0  0  0  0  0  0  0  0  1  0  0
  -28.1616  -10.2426   18.7446 F   0  0  0  0  0  0  0  0  0  0  0  0
  -28.3946  -14.0380   21.5634 F   0  0  0  0  0  0  0  0  0  0  0  0
  1  2  1  0  0  0  0
  1  5  2  0  0  0  0
  2  6  2  0  0  0  0
  3 12  2  0  0  0  0
  3 19  1  0  0  0  0
  4 13  1  0  0  0  0
  4 19  2  0  0  0  0
  5 22  1  0  0  0  0
  6 24  1  0  0  0  0
  7 10  2  0  0  0  0
  7 21  1  0  0  0  0
  8 11  1  0  0  0  0
  8 21  2  0  0  0  0
  9 14  2  0  0  0  0
  9 23  1  0  0  0  0
 10 26  1  0  0  0  0
 11 26  2  0  0  0  0
 12 27  1  0  0  0  0
 13 27  2  0  0  0  0
 14 28  1  0  0  0  0
 15 16  2  0  0  0  0
 15 29  1  0  0  0  0
 16 30  1  0  0  0  0
 17 25  1  0  0  0  0
 17 28  2  0  0  0  0
 18 30  2  0  0  0  0
 18 31  1  0  0  0  0
 19 32  1  0  0  0  0
 20 32  1  0  0  0  0
 20 33  2  0  0  0  0
 20 34  1  0  0  0  0
 21 51  1  0  0  0  0
 22 24  2  0  0  0  0
 22 39  1  0  0  0  0
 23 25  2  0  0  0  0
 23 40  1  0  0  0  0
 24 52  1  0  0  0  0
 25 41  1  0  0  0  0
 26 62  1  0  0  0  0
 27 83  1  0  0  0  0
 28 84  1  0  0  0  0
 29 31  2  0  0  0  0
 29 83  1  0  0  0  0
 30 85  1  0  0  0  0
 31 86  1  0  0  0  0
 32 67  2  0  0  0  0
 33 68  1  0  0  0  0
 33 71  1  0  0  0  0
 34 72  1  0  0  0  0
 34 78  2  0  0  0  0
 35 53  1  0  0  0  0
 35 73  1  0  0  0  0
 35 79  2  0  0  0  0
 36 63  1  0  0  0  0
 36 69  1  0  0  0  0
 36 80  2  0  0  0  0
 37 64  1  0  0  0  0
 37 74  1  0  0  0  0
 37 81  2  0  0  0  0
 38 70  1  0  0  0  0
 38 75  1  0  0  0  0
 38 82  2  0  0  0  0
 39 42  1  0  0  0  0
 40 53  1  0  0  0  0
 41 69  1  0  0  0  0
 42 46  1  0  0  0  0
 43 47  1  0  0  0  0
 43 48  1  0  0  0  0
 44 45  1  0  0  0  0
 44 50  1  0  0  0  0
 45 51  1  0  0  0  0
 46 52  1  0  0  0  0
 47 54  1  0  0  0  0
 48 70  1  0  0  0  0
 49 54  1  0  0  0  0
 49 70  1  0  0  0  0
 50 76  1  0  0  0  0
 51 55  1  0  0  0  0
 52 73  1  0  0  0  0
 53 69  1  0  0  0  0
 54 68  1  0  0  0  0
 55 65  1  0  0  0  0
 55 76  1  0  0  0  0
 56 64  1  0  0  0  0
 57 65  1  0  0  0  0
 58 66  1  0  0  0  0
 59 66  1  0  0  0  0
 60 66  1  0  0  0  0
 61 77  1  0  0  0  0
 62 75  1  0  0  0  0
 63 66  1  0  0  0  0
 63 74  1  0  0  0  0
 64 77  1  0  0  0  0
 65 84  1  0  0  0  0
 67 68  1  0  0  0  0
M  CHG  2  76   1  77   1
M  ISO  4  38 100  65 101  75 100  84 101
M  END
> <Batch ID>
0118

> <Smiles>
CNC(C)C(=O)NC(C(=O)N1Cc2cc([101O:1][101CH:1](C)C3NCCCC3c3ccc(C[100NH:0][100C:0](=O)N4CCCC(n5nc(-c6ccc(Oc7ccc(F)cc7F)cc6)c(C(N)=O)c5N)C4)cc3)ccc2CC1C(=O)NC1CCCc2ccccc21)C(C)(C)C

> <Shape>
0.217

> <Color>
0.069

> <Negative vol penalty>
0.000

$$$$

  -OEChem-04052320183D

 88 96  0     1  0  0  0  0  0999 V2000
  -22.3866   -8.6419   21.4226 C   0  0  0  0  0  0  0  0  0  0  0  0
  -22.1843   -9.8919   21.9987 C   0  0  0  0  0  0  0  0  0  0  0  0
  -26.8302  -29.6309   19.4244 C   0  0  0  0  0  0  0  0  0  0  0  0
  -26.0472  -28.7635   21.5390 C   0  0  0  0  0  0  0  0  0  0  0  0
  -23.4735   -8.4342   20.5744 C   0  0  0  0  0  0  0  0  0  0  0  0
  -23.0694  -10.9347   21.7277 C   0  0  0  0  0  0  0  0  0  0  0  0
  -21.7049  -16.8832   21.2184 C   0  0  0  0  0  0  0  0  0  0  0  0
  -25.6955  -30.4372   19.3349 C   0  0  0  0  0  0  0  0  0  0  0  0
  -24.9126  -29.5699   21.4496 C   0  0  0  0  0  0  0  0  0  0  0  0
  -21.8056  -17.9485   22.1122 C   0  0  0  0  0  0  0  0  0  0  0  0
  -21.6347  -31.1323   21.6053 C   0  0  0  0  0  0  0  0  0  0  0  0
  -20.4027  -30.5542   21.9114 C   0  0  0  0  0  0  0  0  0  0  0  0
  -23.9386  -18.5423   21.1546 C   0  0  0  0  0  0  0  0  0  0  0  0
  -27.7815  -18.7013   24.5362 C   0  0  0  0  0  0  0  0  0  0  0  0
  -27.6279  -20.9861   23.8009 C   0  0  0  0  0  0  0  0  0  0  0  0
  -20.7140  -28.9491   20.1326 C   0  0  0  0  0  0  0  0  0  0  0  0
  -27.0060  -28.7940   20.5264 C   0  0  0  0  0  0  0  0  0  0  0  0
  -29.4112  -28.2908   21.2115 C   0  0  0  0  0  0  0  0  0  0  0  0
  -24.3670   -9.4776   20.2853 C   0  0  0  0  0  0  0  0  0  0  0  0
  -22.7271  -16.6325   20.2918 C   0  0  0  0  0  0  0  0  0  0  0  0
  -24.1700  -10.7404   20.8759 C   0  0  0  0  0  0  0  0  0  0  0  0
  -23.8473  -17.4747   20.2485 C   0  0  0  0  0  0  0  0  0  0  0  0
  -27.4340  -20.0242   24.7861 C   0  0  0  0  0  0  0  0  0  0  0  0
  -24.7367  -30.4067   20.3475 C   0  0  0  0  0  0  0  0  0  0  0  0
  -22.9239  -18.7766   22.0823 C   0  0  0  0  0  0  0  0  0  0  0  0
  -22.4063  -30.6189   20.5628 C   0  0  0  0  0  0  0  0  0  0  0  0
  -19.9424  -29.4626   21.1751 C   0  0  0  0  0  0  0  0  0  0  0  0
  -21.9460  -29.5273   19.8265 C   0  0  0  0  0  0  0  0  0  0  0  0
  -28.1777  -27.9605   20.6191 C   0  0  0  0  0  0  0  0  0  0  0  0
  -28.3152  -18.3943   23.2949 C   0  0  0  0  0  0  0  0  0  0  0  0
  -28.1686  -20.5768   22.5926 C   0  0  0  0  0  0  0  0  0  0  0  0
  -30.1859  -27.1697   21.0395 C   0  0  0  0  0  0  0  0  0  0  0  0
  -29.8203  -29.5026   21.8595 C   0  0  0  0  0  0  0  0  0  0  0  0
  -24.7199  -14.2163   19.7494 C   0  0  0  0  0  0  0  0  0  0  0  0
  -25.5437  -15.9878   17.1599 C   0  0  0  0  0  0  0  0  0  0  0  0
  -25.6999  -19.0600   15.6820 C   0  0  0  0  0  0  0  0  0  0  0  0
  -28.8874  -21.3821   20.3164 C   0  0  0  0  0  0  0  0  0  0  0  0
  -25.5542   -9.1924   19.3999 C   0  0  0  0  0  0  0  0  0  0  0  0
  -22.5909  -15.4954   19.3167 C   0  0  0  0  0  0  0  0  0  0  0  0
  -24.9627  -17.2605   19.2594 C   0  0  0  0  0  0  0  0  0  0  0  0
  -26.2334  -10.4515   18.8675 C   0  0  0  0  0  0  0  0  0  0  0  0
  -30.7684  -23.4357   18.0980 C   0  0  0  0  0  0  0  0  0  0  0  0
  -26.4368  -11.4638   19.9903 C   0  0  0  0  0  0  0  0  0  0  0  0
  -30.4345  -24.8590   18.5506 C   0  0  0  0  0  0  0  0  0  0  0  0
  -29.5594  -22.5081   18.2056 C   0  0  0  0  0  0  0  0  0  0  0  0
  -28.5732  -23.9118   19.9736 C   0  0  0  0  0  0  0  0  0  0  0  0
  -25.0942  -11.9034   20.5867 C   0  0  1  0  0  0  0  0  0  0  0  0
  -23.9299  -15.0234   18.7584 C   0  0  1  0  0  0  0  0  0  0  0  0
  -29.7771  -24.8675   19.9446 C   0  0  2  0  0  0  0  0  0  0  0  0
  -27.7695  -21.3926   26.8714 C   0  0  0  0  0  0  0  0  0  0  0  0
  -26.4585  -20.1974   13.5777 C   0  0  0  0  0  0  0  0  0  0  0  0
  -31.1488  -17.5146   22.5178 C   0  0  0  0  0  0  0  0  0  0  0  0
  -30.1551  -15.3654   21.7072 C   0  0  0  0  0  0  0  0  0  0  0  0
  -22.4511  -20.3782   26.6464 C   0  0  0  0  0  0  0  0  0  0  0  0
  -28.4412  -15.7747   18.0920 C   0  0  0  0  0  0  0  0  0  0  0  0
  -29.0036  -17.6641   16.5486 C   0  0  0  0  0  0  0  0  0  0  0  0
  -28.1178  -15.5228   15.6249 C   0  0  0  0  0  0  0  0  0  0  0  0
  -22.9600  -19.9893   15.0589 C   0  0  0  0  0  0  0  0  0  0  0  0
  -28.7005  -16.9847   22.9919 C   0  0  0  0  0  0  0  0  0  0  0  0
  -25.4334  -21.0127   26.0157 C   0  0  0  0  0  0  0  0  0  0  0  0
  -22.3909  -19.6644   24.2232 C   0  0  0  0  0  0  0  0  0  1  0  0
  -26.8429  -20.4184   26.1344 C   0  0  1  0  0  0  0  0  0  0  0  0
  -26.5616  -17.0678   16.8833 C   0  0  1  0  0  0  0  0  0  0  0  0
  -25.2950  -19.5337   14.2978 C   0  0  2  0  0  0  0  0  0  0  0  0
  -29.8765  -16.8428   21.9951 C   0  0  0  0  0  0  0  0  0  0  0  0
  -23.1018  -20.5043   25.2784 C   0  0  2  0  0  0  0  0  0  0  0  0
  -28.0111  -16.5105   16.8072 C   0  0  0  0  0  0  0  0  0  0  0  0
  -28.1648  -26.7262   20.1087 N   0  0  0  0  0  0  0  0  0  0  0  0
  -28.5184  -19.3012   22.3132 N   0  0  0  0  0  0  0  0  0  0  0  0
  -29.3999  -26.2712   20.3798 N   0  0  0  0  0  0  0  0  0  0  0  0
  -24.7862  -16.1317   18.3309 N   0  0  0  0  0  0  0  0  0  0  0  0
  -28.9918  -22.5650   19.5544 N   0  0  0  0  0  0  0  0  0  0  0  0
  -31.4559  -26.8748   21.3895 N   0  0  0  0  0  0  0  0  0  0  0  0
  -28.8997  -30.5556   21.9497 N   0  0  0  0  0  0  0  0  0  0  0  0
  -28.3627  -21.5646   21.5955 N   0  0  0  0  0  0  0  0  0  0  0  0
  -24.4453  -12.8624   19.7186 N   0  0  0  0  0  0  0  0  0  0  0  0
  -26.1178  -17.7460   15.6703 N   0  0  0  0  0  0  0  0  0  0  0  0
  -24.1787  -20.5165   14.3926 N   0  3  0  0  0  0  0  0  0  0  0  0
  -24.5121  -20.0311   25.3888 N   0  3  0  0  0  0  0  0  0  0  0  0
  -30.9735  -29.6533   22.3296 O   0  0  0  0  0  0  0  0  0  0  0  0
  -25.5205  -14.7799   20.4863 O   0  0  0  0  0  0  0  0  0  0  0  0
  -25.4200  -15.0548   16.3625 O   0  0  0  0  0  0  0  0  0  0  0  0
  -25.6540  -19.7844   16.6739 O   0  0  0  0  0  0  0  0  0  0  0  0
  -29.2629  -20.2921   19.8773 O   0  0  0  0  0  0  0  0  0  0  0  0
  -23.6295  -31.1935   20.2607 O   0  0  0  0  0  0  0  0  0  0  0  0
  -23.0251  -19.8167   22.9539 O   0  0  0  0  0  0  0  0  0  1  0  0
  -18.7601  -28.9065   21.4701 F   0  0  0  0  0  0  0  0  0  0  0  0
  -22.6834  -29.0290   18.8246 F   0  0  0  0  0  0  0  0  0  0  0  0
  1  2  1  0  0  0  0
  1  5  2  0  0  0  0
  2  6  2  0  0  0  0
  3  8  2  0  0  0  0
  3 17  1  0  0  0  0
  4  9  1  0  0  0  0
  4 17  2  0  0  0  0
  5 19  1  0  0  0  0
  6 21  1  0  0  0  0
  7 10  2  0  0  0  0
  7 20  1  0  0  0  0
  8 24  1  0  0  0  0
  9 24  2  0  0  0  0
 10 25  1  0  0  0  0
 11 12  2  0  0  0  0
 11 26  1  0  0  0  0
 12 27  1  0  0  0  0
 13 22  1  0  0  0  0
 13 25  2  0  0  0  0
 14 23  1  0  0  0  0
 14 30  2  0  0  0  0
 15 23  2  0  0  0  0
 15 31  1  0  0  0  0
 16 27  2  0  0  0  0
 16 28  1  0  0  0  0
 17 29  1  0  0  0  0
 18 29  1  0  0  0  0
 18 32  2  0  0  0  0
 18 33  1  0  0  0  0
 19 21  2  0  0  0  0
 19 38  1  0  0  0  0
 20 22  2  0  0  0  0
 20 39  1  0  0  0  0
 21 47  1  0  0  0  0
 22 40  1  0  0  0  0
 23 62  1  0  0  0  0
 24 85  1  0  0  0  0
 25 86  1  0  0  0  0
 26 28  2  0  0  0  0
 26 85  1  0  0  0  0
 27 87  1  0  0  0  0
 28 88  1  0  0  0  0
 29 68  2  0  0  0  0
 30 59  1  0  0  0  0
 30 69  1  0  0  0  0
 31 69  2  0  0  0  0
 31 75  1  0  0  0  0
 32 70  1  0  0  0  0
 32 73  1  0  0  0  0
 33 74  1  0  0  0  0
 33 80  2  0  0  0  0
 34 48  1  0  0  0  0
 34 76  1  0  0  0  0
 34 81  2  0  0  0  0
 35 63  1  0  0  0  0
 35 71  1  0  0  0  0
 35 82  2  0  0  0  0
 36 64  1  0  0  0  0
 36 77  1  0  0  0  0
 36 83  2  0  0  0  0
 37 72  1  0  0  0  0
 37 75  1  0  0  0  0
 37 84  2  0  0  0  0
 38 41  1  0  0  0  0
 39 48  1  0  0  0  0
 40 71  1  0  0  0  0
 41 43  1  0  0  0  0
 42 44  1  0  0  0  0
 42 45  1  0  0  0  0
 43 47  1  0  0  0  0
 44 49  1  0  0  0  0
 45 72  1  0  0  0  0
 46 49  1  0  0  0  0
 46 72  1  0  0  0  0
 47 76  1  0  0  0  0
 48 71  1  0  0  0  0
 49 70  1  0  0  0  0
 50 62  1  0  0  0  0
 51 64  1  0  0  0  0
 52 65  1  0  0  0  0
 53 65  1  0  0  0  0
 54 66  1  0  0  0  0
 55 67  1  0  0  0  0
 56 67  1  0  0  0  0
 57 67  1  0  0  0  0
 58 78  1  0  0  0  0
 59 65  1  0  0  0  0
 60 62  1  0  0  0  0
 60 79  1  0  0  0  0
 61 66  1  0  0  0  0
 61 86  1  0  0  0  0
 63 67  1  0  0  0  0
 63 77  1  0  0  0  0
 64 78  1  0  0  0  0
 66 79  1  0  0  0  0
 68 70  1  0  0  0  0
M  CHG  2  78   1  79   1
M  ISO  4  37 100  61 101  75 100  86 101
M  END
> <Batch ID>
0118

> <Smiles>
CNC(C)C(=O)NC(C(=O)N1Cc2cc([101O:1][101CH2:1]C(C)NCC(C)c3cc(CC(C)C)nc([100NH:0][100C:0](=O)N4CCCC(n5nc(-c6ccc(Oc7ccc(F)cc7F)cc6)c(C(N)=O)c5N)C4)c3)ccc2CC1C(=O)NC1CCCc2ccccc21)C(C)(C)C

> <Shape>
0.214

> <Color>
0.070

> <Negative vol penalty>
0.000

$$$$

  -OEChem-04052320183D

 85 94  0     1  0  0  0  0  0999 V2000
  -20.8704  -29.4070   14.5450 C   0  0  0  0  0  0  0  0  0  0  0  0
  -21.8935  -28.7266   15.1975 C   0  0  0  0  0  0  0  0  0  0  0  0
  -23.1559   -9.8470   20.9638 C   0  0  0  0  0  0  0  0  0  0  0  0
  -23.8467  -10.5618   23.1659 C   0  0  0  0  0  0  0  0  0  0  0  0
  -20.7819  -30.7947   14.6469 C   0  0  0  0  0  0  0  0  0  0  0  0
  -22.8294  -29.4338   15.9515 C   0  0  0  0  0  0  0  0  0  0  0  0
  -29.2309  -21.8241   19.6343 C   0  0  0  0  0  0  0  0  0  0  0  0
  -28.2247  -21.0080   21.6736 C   0  0  0  0  0  0  0  0  0  0  0  0
  -23.7618  -27.2577   20.4281 C   0  0  0  0  0  0  0  0  0  0  0  0
  -28.2494  -22.8112   19.5451 C   0  0  0  0  0  0  0  0  0  0  0  0
  -27.2432  -21.9952   21.5844 C   0  0  0  0  0  0  0  0  0  0  0  0
  -22.4304   -8.7995   21.5314 C   0  0  0  0  0  0  0  0  0  0  0  0
  -23.1211   -9.5144   23.7335 C   0  0  0  0  0  0  0  0  0  0  0  0
  -24.6064  -26.1485   20.4333 C   0  0  0  0  0  0  0  0  0  0  0  0
  -19.4584   -8.3854   23.0898 C   0  0  0  0  0  0  0  0  0  0  0  0
  -18.1679   -8.1572   22.6121 C   0  0  0  0  0  0  0  0  0  0  0  0
  -26.4334  -27.5507   21.1512 C   0  0  0  0  0  0  0  0  0  0  0  0
  -18.8094   -5.9253   21.9453 C   0  0  0  0  0  0  0  0  0  0  0  0
  -23.8641  -10.7281   21.7810 C   0  0  0  0  0  0  0  0  0  0  0  0
  -24.1538  -13.1110   20.9175 C   0  0  0  0  0  0  0  0  0  0  0  0
  -29.2185  -20.9225   20.6986 C   0  0  0  0  0  0  0  0  0  0  0  0
  -21.7115  -31.5183   15.4104 C   0  0  0  0  0  0  0  0  0  0  0  0
  -24.2500  -28.5258   20.7745 C   0  0  0  0  0  0  0  0  0  0  0  0
  -22.7540  -30.8326   16.0626 C   0  0  0  0  0  0  0  0  0  0  0  0
  -25.5923  -28.6739   21.1521 C   0  0  0  0  0  0  0  0  0  0  0  0
  -27.2556  -22.8968   20.5201 C   0  0  0  0  0  0  0  0  0  0  0  0
  -22.4130   -8.6333   22.9162 C   0  0  0  0  0  0  0  0  0  0  0  0
  -25.9431  -26.2954   20.7921 C   0  0  0  0  0  0  0  0  0  0  0  0
  -20.4244   -7.3836   22.9951 C   0  0  0  0  0  0  0  0  0  0  0  0
  -17.8434   -6.9271   22.0400 C   0  0  0  0  0  0  0  0  0  0  0  0
  -20.0999   -6.1536   22.4229 C   0  0  0  0  0  0  0  0  0  0  0  0
  -24.6142  -11.8099   21.1953 C   0  0  0  0  0  0  0  0  0  0  0  0
  -25.2395  -13.7499   20.3704 C   0  0  0  0  0  0  0  0  0  0  0  0
  -22.8603  -13.6902   21.1348 C   0  0  0  0  0  0  0  0  0  0  0  0
  -24.5315  -31.3098   19.2666 C   0  0  0  0  0  0  0  0  0  0  0  0
  -25.4770  -32.3536   22.1887 C   0  0  0  0  0  0  0  0  0  0  0  0
  -26.8066  -31.6062   25.2417 C   0  0  0  0  0  0  0  0  0  0  0  0
  -30.6915  -14.9422   20.3649 C   0  0  0  0  0  0  0  0  0  0  0  0
  -21.6028  -33.0219   15.4523 C   0  0  0  0  0  0  0  0  0  0  0  0
  -23.3196  -29.7075   20.7898 C   0  0  0  0  0  0  0  0  0  0  0  0
  -26.1608  -30.0101   21.5519 C   0  0  0  0  0  0  0  0  0  0  0  0
  -22.4142  -33.6601   16.5768 C   0  0  0  0  0  0  0  0  0  0  0  0
  -29.6783  -11.9204   18.7778 C   0  0  0  0  0  0  0  0  0  0  0  0
  -23.8191  -33.0678   16.6239 C   0  0  0  0  0  0  0  0  0  0  0  0
  -28.2354  -11.7266   19.2473 C   0  0  0  0  0  0  0  0  0  0  0  0
  -31.0831  -20.0438   22.0895 C   0  0  0  0  0  0  0  0  0  0  0  0
  -29.6230  -18.4685   20.7399 C   0  0  0  0  0  0  0  0  0  0  0  0
  -31.4833  -17.5476   22.1880 C   0  0  0  0  0  0  0  0  0  0  0  0
  -30.5541  -12.5174   19.8772 C   0  0  0  0  0  0  0  0  0  0  0  0
  -28.5962  -13.5723   20.9391 C   0  0  0  0  0  0  0  0  0  0  0  0
  -30.2674  -19.8668   20.7948 C   0  0  1  0  0  0  0  0  0  0  0  0
  -23.7737  -31.5620   16.9101 C   0  0  1  0  0  0  0  0  0  0  0  0
  -24.0471  -31.0425   20.6636 C   0  0  1  0  0  0  0  0  0  0  0  0
  -32.1353  -18.9366   22.2509 C   0  0  2  0  0  0  0  0  0  0  0  0
  -27.6617  -13.0246   19.8468 C   0  0  2  0  0  0  0  0  0  0  0  0
  -30.6731  -17.3651   20.9019 C   0  0  1  0  0  0  0  0  0  0  0  0
  -32.9036  -19.1116   23.5600 C   0  0  0  0  0  0  0  0  0  0  0  0
  -27.4946  -32.6745   27.4056 C   0  0  0  0  0  0  0  0  0  0  0  0
  -27.9880  -33.4501   20.8462 C   0  0  0  0  0  0  0  0  0  0  0  0
  -29.0346  -33.6355   23.1130 C   0  0  0  0  0  0  0  0  0  0  0  0
  -26.9873  -34.9552   22.5748 C   0  0  0  0  0  0  0  0  0  0  0  0
  -24.8658  -29.9940   26.7887 C   0  0  0  0  0  0  0  0  0  0  0  0
  -26.2012  -23.9600   20.4243 C   0  0  0  0  0  0  0  0  0  1  0  0
  -26.7985  -32.4565   22.9112 C   0  0  1  0  0  0  0  0  0  0  0  0
  -26.3737  -31.9803   26.6478 C   0  0  2  0  0  0  0  0  0  0  0  0
  -27.6922  -33.5994   22.3519 C   0  0  0  0  0  0  0  0  0  0  0  0
  -25.8927  -11.6313   20.8527 N   0  0  0  0  0  0  0  0  0  0  0  0
  -26.2450  -12.8285   20.3541 N   0  0  0  0  0  0  0  0  0  0  0  0
  -25.2127  -31.1364   21.5450 N   0  0  0  0  0  0  0  0  0  0  0  0
  -29.9549  -13.7467   20.4021 N   0  0  0  0  0  0  0  0  0  0  0  0
  -25.4227  -15.0043   19.9065 N   0  0  0  0  0  0  0  0  0  0  0  0
  -21.8590  -12.8936   21.7067 N   0  0  0  0  0  0  0  0  0  0  0  0
  -23.5286  -31.3220   18.3161 N   0  0  0  0  0  0  0  0  0  0  0  0
  -26.4797  -32.5866   24.3288 N   0  0  0  0  0  0  0  0  0  0  0  0
  -30.0472  -16.0619   20.8767 N   0  0  0  0  0  0  0  0  0  0  0  0
  -25.9761  -30.7621   27.4087 N   0  3  0  0  0  0  0  0  0  0  0  0
  -22.5955  -14.8740   20.8156 O   0  0  0  0  0  0  0  0  0  0  0  0
  -25.7265  -31.4930   19.0661 O   0  0  0  0  0  0  0  0  0  0  0  0
  -24.7044  -33.3152   22.2014 O   0  0  0  0  0  0  0  0  0  0  0  0
  -27.3808  -30.5516   24.9799 O   0  0  0  0  0  0  0  0  0  0  0  0
  -31.8364  -15.0079   19.9046 O   0  0  0  0  0  0  0  0  0  0  0  0
  -21.7050   -7.6115   23.4705 O   0  0  0  0  0  0  0  0  0  0  0  0
  -26.7699  -25.2145   20.7973 O   0  0  0  0  0  0  0  0  0  1  0  0
  -16.6037   -6.7076   21.5827 F   0  0  0  0  0  0  0  0  0  0  0  0
  -21.0234   -5.1869   22.3303 F   0  0  0  0  0  0  0  0  0  0  0  0
  1  2  1  0  0  0  0
  1  5  2  0  0  0  0
  2  6  2  0  0  0  0
  3 12  2  0  0  0  0
  3 19  1  0  0  0  0
  4 13  1  0  0  0  0
  4 19  2  0  0  0  0
  5 22  1  0  0  0  0
  6 24  1  0  0  0  0
  7 10  2  0  0  0  0
  7 21  1  0  0  0  0
  8 11  1  0  0  0  0
  8 21  2  0  0  0  0
  9 14  2  0  0  0  0
  9 23  1  0  0  0  0
 10 26  1  0  0  0  0
 11 26  2  0  0  0  0
 12 27  1  0  0  0  0
 13 27  2  0  0  0  0
 14 28  1  0  0  0  0
 15 16  2  0  0  0  0
 15 29  1  0  0  0  0
 16 30  1  0  0  0  0
 17 25  1  0  0  0  0
 17 28  2  0  0  0  0
 18 30  2  0  0  0  0
 18 31  1  0  0  0  0
 19 32  1  0  0  0  0
 20 32  1  0  0  0  0
 20 33  2  0  0  0  0
 20 34  1  0  0  0  0
 21 51  1  0  0  0  0
 22 24  2  0  0  0  0
 22 39  1  0  0  0  0
 23 25  2  0  0  0  0
 23 40  1  0  0  0  0
 24 52  1  0  0  0  0
 25 41  1  0  0  0  0
 26 63  1  0  0  0  0
 27 82  1  0  0  0  0
 28 83  1  0  0  0  0
 29 31  2  0  0  0  0
 29 82  1  0  0  0  0
 30 84  1  0  0  0  0
 31 85  1  0  0  0  0
 32 67  2  0  0  0  0
 33 68  1  0  0  0  0
 33 71  1  0  0  0  0
 34 72  1  0  0  0  0
 34 77  2  0  0  0  0
 35 53  1  0  0  0  0
 35 73  1  0  0  0  0
 35 78  2  0  0  0  0
 36 64  1  0  0  0  0
 36 69  1  0  0  0  0
 36 79  2  0  0  0  0
 37 65  1  0  0  0  0
 37 74  1  0  0  0  0
 37 80  2  0  0  0  0
 38 70  1  0  0  0  0
 38 75  1  0  0  0  0
 38 81  2  0  0  0  0
 39 42  1  0  0  0  0
 40 53  1  0  0  0  0
 41 69  1  0  0  0  0
 42 44  1  0  0  0  0
 43 45  1  0  0  0  0
 43 49  1  0  0  0  0
 44 52  1  0  0  0  0
 45 55  1  0  0  0  0
 46 51  1  0  0  0  0
 46 54  1  0  0  0  0
 47 51  1  0  0  0  0
 47 56  1  0  0  0  0
 48 54  1  0  0  0  0
 48 56  1  0  0  0  0
 49 70  1  0  0  0  0
 50 55  1  0  0  0  0
 50 70  1  0  0  0  0
 52 73  1  0  0  0  0
 53 69  1  0  0  0  0
 54 57  1  0  0  0  0
 55 68  1  0  0  0  0
 56 75  1  0  0  0  0
 58 65  1  0  0  0  0
 59 66  1  0  0  0  0
 60 66  1  0  0  0  0
 61 66  1  0  0  0  0
 62 76  1  0  0  0  0
 63 83  1  0  0  0  0
 64 66  1  0  0  0  0
 64 74  1  0  0  0  0
 65 76  1  0  0  0  0
 67 68  1  0  0  0  0
M  CHG  1  76   1
M  ISO  4  38 100  63 101  75 100  83 101
M  END
> <Batch ID>
0118

> <Smiles>
CNC(C)C(=O)NC(C(=O)N1Cc2cc([101O:1][101CH2:1]c3ccc(C4CC(C)CC([100NH:0][100C:0](=O)N5CCCC(n6nc(-c7ccc(Oc8ccc(F)cc8F)cc7)c(C(N)=O)c6N)C5)C4)cc3)ccc2CC1C(=O)NC1CCCc2ccccc21)C(C)(C)C

> <Shape>
0.304

> <Color>
0.178

> <Negative vol penalty>
0.000

$$$$

  -OEChem-04052320183D

 81 89  0     1  0  0  0  0  0999 V2000
  -16.6873  -29.7648   24.0900 C   0  0  0  0  0  0  0  0  0  0  0  0
  -17.8216  -30.3649   24.6273 C   0  0  0  0  0  0  0  0  0  0  0  0
  -28.6337  -20.8400   19.0041 C   0  0  0  0  0  0  0  0  0  0  0  0
  -26.3091  -21.3919   18.6457 C   0  0  0  0  0  0  0  0  0  0  0  0
  -16.8183  -28.6856   23.2170 C   0  0  0  0  0  0  0  0  0  0  0  0
  -19.0876  -29.8853   24.2928 C   0  0  0  0  0  0  0  0  0  0  0  0
  -25.8124  -32.1262   23.2578 C   0  0  0  0  0  0  0  0  0  0  0  0
  -28.4329  -19.6001   18.3975 C   0  0  0  0  0  0  0  0  0  0  0  0
  -26.1083  -20.1520   18.0390 C   0  0  0  0  0  0  0  0  0  0  0  0
  -27.1153  -31.8497   23.6699 C   0  0  0  0  0  0  0  0  0  0  0  0
  -26.6972  -18.7279   15.0314 C   0  0  0  0  0  0  0  0  0  0  0  0
  -25.9661  -18.6999   13.8439 C   0  0  0  0  0  0  0  0  0  0  0  0
  -32.0861  -24.9290   24.2579 C   0  0  0  0  0  0  0  0  0  0  0  0
  -27.2225  -30.0302   22.0897 C   0  0  0  0  0  0  0  0  0  0  0  0
  -30.4925  -26.5009   25.1378 C   0  0  0  0  0  0  0  0  0  0  0  0
  -24.3354  -17.2506   14.8818 C   0  0  0  0  0  0  0  0  0  0  0  0
  -32.6516  -25.9792   23.5528 C   0  0  0  0  0  0  0  0  0  0  0  0
  -27.5718  -21.7359   19.1283 C   0  0  0  0  0  0  0  0  0  0  0  0
  -28.1601  -24.2181   19.1289 C   0  0  0  0  0  0  0  0  0  0  0  0
  -18.0867  -28.1988   22.8640 C   0  0  0  0  0  0  0  0  0  0  0  0
  -25.1999  -31.3486   22.2646 C   0  0  0  0  0  0  0  0  0  0  0  0
  -19.2355  -28.7978   23.4153 C   0  0  0  0  0  0  0  0  0  0  0  0
  -25.9127  -30.3005   21.6650 C   0  0  0  0  0  0  0  0  0  0  0  0
  -30.9863  -25.2032   25.0632 C   0  0  0  0  0  0  0  0  0  0  0  0
  -27.1702  -19.2561   17.9149 C   0  0  0  0  0  0  0  0  0  0  0  0
  -27.8195  -30.7998   23.0879 C   0  0  0  0  0  0  0  0  0  0  0  0
  -26.2474  -18.0171   16.1442 C   0  0  0  0  0  0  0  0  0  0  0  0
  -24.7852  -17.9613   13.7691 C   0  0  0  0  0  0  0  0  0  0  0  0
  -25.0666  -17.2785   16.0694 C   0  0  0  0  0  0  0  0  0  0  0  0
  -27.7784  -23.0166   19.7553 C   0  0  0  0  0  0  0  0  0  0  0  0
  -31.1295  -27.4808   24.3935 C   0  0  0  0  0  0  0  0  0  0  0  0
  -28.2192  -25.1343   20.1504 C   0  0  0  0  0  0  0  0  0  0  0  0
  -28.4364  -24.4825   17.7470 C   0  0  0  0  0  0  0  0  0  0  0  0
  -22.6426  -29.4643   22.1501 C   0  0  0  0  0  0  0  0  0  0  0  0
  -23.3537  -29.3463   18.9874 C   0  0  0  0  0  0  0  0  0  0  0  0
  -25.7054  -29.6527   16.5332 C   0  0  0  0  0  0  0  0  0  0  0  0
  -28.9890  -24.1349   26.1407 C   0  0  0  0  0  0  0  0  0  0  0  0
  -18.1766  -26.9998   21.9535 C   0  0  0  0  0  0  0  0  0  0  0  0
  -23.8033  -31.6766   21.8124 C   0  0  0  0  0  0  0  0  0  0  0  0
  -25.3075  -29.4486   20.5803 C   0  0  0  0  0  0  0  0  0  0  0  0
  -19.5659  -26.7911   21.3564 C   0  0  0  0  0  0  0  0  0  0  0  0
  -26.3628  -26.1148   24.4447 C   0  0  0  0  0  0  0  0  0  0  0  0
  -20.6358  -26.9200   22.4360 C   0  0  0  0  0  0  0  0  0  0  0  0
  -26.4073  -25.5821   23.0137 C   0  0  0  0  0  0  0  0  0  0  0  0
  -26.7986  -25.0588   25.4559 C   0  0  0  0  0  0  0  0  0  0  0  0
  -28.1909  -23.9450   23.7348 C   0  0  0  0  0  0  0  0  0  0  0  0
  -20.6267  -28.3221   23.0570 C   0  0  1  0  0  0  0  0  0  0  0  0
  -23.0951  -30.4958   21.1556 C   0  0  1  0  0  0  0  0  0  0  0  0
  -27.7950  -25.0026   22.6936 C   0  0  1  0  0  0  0  0  0  0  0  0
  -31.7616  -29.9143   24.2933 C   0  0  0  0  0  0  0  0  0  0  0  0
  -25.9957  -29.4602   14.0481 C   0  0  0  0  0  0  0  0  0  0  0  0
  -23.3231  -26.3042   19.2218 C   0  0  0  0  0  0  0  0  0  0  0  0
  -24.5231  -26.1926   17.0274 C   0  0  0  0  0  0  0  0  0  0  0  0
  -22.2453  -27.2019   17.1513 C   0  0  0  0  0  0  0  0  0  0  0  0
  -31.2241  -23.1791   26.4904 C   0  0  0  0  0  0  0  0  0  0  0  0
  -26.5053  -32.4917   16.2901 C   0  0  0  0  0  0  0  0  0  0  0  0
  -29.5220  -29.1696   23.4040 C   0  0  0  0  0  0  0  0  0  1  0  0
  -30.6155  -28.9108   24.4494 C   0  0  1  0  0  0  0  0  0  0  0  0
  -24.2132  -28.4614   18.1171 C   0  0  1  0  0  0  0  0  0  0  0  0
  -25.6881  -30.3938   15.2085 C   0  0  2  0  0  0  0  0  0  0  0  0
  -23.5872  -27.0547   17.9012 C   0  0  0  0  0  0  0  0  0  0  0  0
  -32.2000  -27.2526   23.6000 N   0  0  0  0  0  0  0  0  0  0  0  0
  -27.6073  -23.1537   21.0728 N   0  0  0  0  0  0  0  0  0  0  0  0
  -27.8828  -24.4523   21.2827 N   0  0  0  0  0  0  0  0  0  0  0  0
  -23.9372  -29.8048   20.1770 N   0  0  0  0  0  0  0  0  0  0  0  0
  -28.0935  -24.4732   25.1054 N   0  0  0  0  0  0  0  0  0  0  0  0
  -28.5256  -26.4486   20.1817 N   0  0  0  0  0  0  0  0  0  0  0  0
  -28.3281  -23.4278   16.8304 N   0  0  0  0  0  0  0  0  0  0  0  0
  -21.2748  -29.2695   22.1756 N   0  0  0  0  0  0  0  0  0  0  0  0
  -24.4492  -29.2060   16.8849 N   0  0  0  0  0  0  0  0  0  0  0  0
  -30.3591  -24.1451   25.8167 N   0  0  0  0  0  0  0  0  0  0  0  0
  -26.7009  -31.4870   15.2133 N   0  3  0  0  0  0  0  0  0  0  0  0
  -28.7854  -25.6164   17.3398 O   0  0  0  0  0  0  0  0  0  0  0  0
  -23.4730  -28.8868   22.8419 O   0  0  0  0  0  0  0  0  0  0  0  0
  -22.2095  -29.6263   18.6215 O   0  0  0  0  0  0  0  0  0  0  0  0
  -26.7313  -29.4834   17.1885 O   0  0  0  0  0  0  0  0  0  0  0  0
  -28.5937  -23.7928   27.2620 O   0  0  0  0  0  0  0  0  0  0  0  0
  -26.9740  -18.0464   17.3227 O   0  0  0  0  0  0  0  0  0  0  0  0
  -29.0911  -30.5273   23.4887 O   0  0  0  0  0  0  0  0  0  1  0  0
  -24.0824  -17.9358   12.6291 F   0  0  0  0  0  0  0  0  0  0  0  0
  -24.6289  -16.5946   17.1355 F   0  0  0  0  0  0  0  0  0  0  0  0
  1  2  1  0  0  0  0
  1  5  2  0  0  0  0
  2  6  2  0  0  0  0
  3  8  2  0  0  0  0
  3 18  1  0  0  0  0
  4  9  1  0  0  0  0
  4 18  2  0  0  0  0
  5 20  1  0  0  0  0
  6 22  1  0  0  0  0
  7 10  2  0  0  0  0
  7 21  1  0  0  0  0
  8 25  1  0  0  0  0
  9 25  2  0  0  0  0
 10 26  1  0  0  0  0
 11 12  2  0  0  0  0
 11 27  1  0  0  0  0
 12 28  1  0  0  0  0
 13 17  2  0  0  0  0
 13 24  1  0  0  0  0
 14 23  1  0  0  0  0
 14 26  2  0  0  0  0
 15 24  2  0  0  0  0
 15 31  1  0  0  0  0
 16 28  2  0  0  0  0
 16 29  1  0  0  0  0
 17 62  1  0  0  0  0
 18 30  1  0  0  0  0
 19 30  1  0  0  0  0
 19 32  2  0  0  0  0
 19 33  1  0  0  0  0
 20 22  2  0  0  0  0
 20 38  1  0  0  0  0
 21 23  2  0  0  0  0
 21 39  1  0  0  0  0
 22 47  1  0  0  0  0
 23 40  1  0  0  0  0
 24 71  1  0  0  0  0
 25 78  1  0  0  0  0
 26 79  1  0  0  0  0
 27 29  2  0  0  0  0
 27 78  1  0  0  0  0
 28 80  1  0  0  0  0
 29 81  1  0  0  0  0
 30 63  2  0  0  0  0
 31 58  1  0  0  0  0
 31 62  2  0  0  0  0
 32 64  1  0  0  0  0
 32 67  1  0  0  0  0
 33 68  1  0  0  0  0
 33 73  2  0  0  0  0
 34 48  1  0  0  0  0
 34 69  1  0  0  0  0
 34 74  2  0  0  0  0
 35 59  1  0  0  0  0
 35 65  1  0  0  0  0
 35 75  2  0  0  0  0
 36 60  1  0  0  0  0
 36 70  1  0  0  0  0
 36 76  2  0  0  0  0
 37 66  1  0  0  0  0
 37 71  1  0  0  0  0
 37 77  2  0  0  0  0
 38 41  1  0  0  0  0
 39 48  1  0  0  0  0
 40 65  1  0  0  0  0
 41 43  1  0  0  0  0
 42 44  1  0  0  0  0
 42 45  1  0  0  0  0
 43 47  1  0  0  0  0
 44 49  1  0  0  0  0
 45 66  1  0  0  0  0
 46 49  1  0  0  0  0
 46 66  1  0  0  0  0
 47 69  1  0  0  0  0
 48 65  1  0  0  0  0
 49 64  1  0  0  0  0
 50 58  1  0  0  0  0
 51 60  1  0  0  0  0
 52 61  1  0  0  0  0
 53 61  1  0  0  0  0
 54 61  1  0  0  0  0
 55 71  1  0  0  0  0
 56 72  1  0  0  0  0
 57 58  1  0  0  0  0
 57 79  1  0  0  0  0
 59 61  1  0  0  0  0
 59 70  1  0  0  0  0
 60 72  1  0  0  0  0
 63 64  1  0  0  0  0
M  CHG  1  72   1
M  ISO  4  37 100  57 101  71 100  79 101
M  END
> <Batch ID>
0118

> <Smiles>
CNC(C)C(=O)NC(C(=O)N1Cc2cc([101O:1][101CH2:1]C(C)c3cc([100N:0](C)[100C:0](=O)N4CCCC(n5nc(-c6ccc(Oc7ccc(F)cc7F)cc6)c(C(N)=O)c5N)C4)ccn3)ccc2CC1C(=O)NC1CCCc2ccccc21)C(C)(C)C

> <Shape>
0.184

> <Color>
0.106

> <Negative vol penalty>
0.000

$$$$

  -OEChem-04052320183D

 85 93  0     1  0  0  0  0  0999 V2000
  -16.8866  -26.2850   27.2091 C   0  0  0  0  0  0  0  0  0  0  0  0
  -17.4821  -25.1016   26.7846 C   0  0  0  0  0  0  0  0  0  0  0  0
  -23.1339   -9.8583   19.9069 C   0  0  0  0  0  0  0  0  0  0  0  0
  -23.7721   -9.8877   22.2369 C   0  0  0  0  0  0  0  0  0  0  0  0
  -17.4877  -27.0463   28.2106 C   0  0  0  0  0  0  0  0  0  0  0  0
  -18.6798  -24.6793   27.3606 C   0  0  0  0  0  0  0  0  0  0  0  0
  -20.4185  -18.9042   28.4240 C   0  0  0  0  0  0  0  0  0  0  0  0
  -22.3674   -8.7148   20.1313 C   0  0  0  0  0  0  0  0  0  0  0  0
  -23.0055   -8.7442   22.4613 C   0  0  0  0  0  0  0  0  0  0  0  0
  -21.2475  -18.0299   27.7224 C   0  0  0  0  0  0  0  0  0  0  0  0
  -19.3396   -7.9617   21.4346 C   0  0  0  0  0  0  0  0  0  0  0  0
  -18.0597   -7.9205   20.8817 C   0  0  0  0  0  0  0  0  0  0  0  0
  -23.0965  -18.6555   29.1399 C   0  0  0  0  0  0  0  0  0  0  0  0
  -18.6704   -5.9562   19.6145 C   0  0  0  0  0  0  0  0  0  0  0  0
  -23.8363  -10.4448   20.9597 C   0  0  0  0  0  0  0  0  0  0  0  0
  -24.2071  -12.9652   20.8273 C   0  0  0  0  0  0  0  0  0  0  0  0
  -18.6883  -26.6283   28.8060 C   0  0  0  0  0  0  0  0  0  0  0  0
  -20.9257  -19.6701   29.4835 C   0  0  0  0  0  0  0  0  0  0  0  0
  -19.2982  -25.4364   28.3701 C   0  0  0  0  0  0  0  0  0  0  0  0
  -22.2712  -19.5369   29.8549 C   0  0  0  0  0  0  0  0  0  0  0  0
  -22.3031   -8.1578   21.4085 C   0  0  0  0  0  0  0  0  0  0  0  0
  -22.5874  -17.9076   28.0785 C   0  0  0  0  0  0  0  0  0  0  0  0
  -20.2850   -7.0002   21.0774 C   0  0  0  0  0  0  0  0  0  0  0  0
  -17.7251   -6.9178   19.9717 C   0  0  0  0  0  0  0  0  0  0  0  0
  -19.9503   -5.9975   20.1674 C   0  0  0  0  0  0  0  0  0  0  0  0
  -24.6288  -11.6257   20.7285 C   0  0  0  0  0  0  0  0  0  0  0  0
  -25.3237  -13.7007   20.5130 C   0  0  0  0  0  0  0  0  0  0  0  0
  -27.0454  -18.9234   25.1278 C   0  0  0  0  0  0  0  0  0  0  0  0
  -22.9212  -13.4971   21.1723 C   0  0  0  0  0  0  0  0  0  0  0  0
  -21.2407  -22.7814   30.0524 C   0  0  0  0  0  0  0  0  0  0  0  0
  -22.2111  -21.7527   32.9718 C   0  0  0  0  0  0  0  0  0  0  0  0
  -23.5409  -19.2438   34.8649 C   0  0  0  0  0  0  0  0  0  0  0  0
  -30.6879  -14.7544   20.8067 C   0  0  0  0  0  0  0  0  0  0  0  0
  -19.3251  -27.5088   29.8518 C   0  0  0  0  0  0  0  0  0  0  0  0
  -20.0119  -20.5887   30.2474 C   0  0  0  0  0  0  0  0  0  0  0  0
  -22.8598  -20.3215   30.9979 C   0  0  0  0  0  0  0  0  0  0  0  0
  -20.3990  -26.7999   30.6731 C   0  0  0  0  0  0  0  0  0  0  0  0
  -29.7648  -12.2956   18.5582 C   0  0  0  0  0  0  0  0  0  0  0  0
  -21.3404  -26.0198   29.7609 C   0  0  0  0  0  0  0  0  0  0  0  0
  -28.3086  -12.0024   18.9188 C   0  0  0  0  0  0  0  0  0  0  0  0
  -30.3664  -17.6506   23.0948 C   0  0  0  0  0  0  0  0  0  0  0  0
  -29.3250  -15.6302   24.1821 C   0  0  0  0  0  0  0  0  0  0  0  0
  -30.6097  -12.4876   19.8124 C   0  0  0  0  0  0  0  0  0  0  0  0
  -31.1908  -16.7240   22.2055 C   0  0  0  0  0  0  0  0  0  0  0  0
  -30.1724  -14.7423   23.2768 C   0  0  0  0  0  0  0  0  0  0  0  0
  -28.6473  -13.2780   21.0928 C   0  0  0  0  0  0  0  0  0  0  0  0
  -20.5844  -24.9325   28.9879 C   0  0  1  0  0  0  0  0  0  0  0  0
  -20.7577  -21.7010   30.9782 C   0  0  1  0  0  0  0  0  0  0  0  0
  -30.0049  -16.9838   24.4283 C   0  0  0  0  0  0  0  0  0  0  0  0
  -27.7439  -13.0824   19.8587 C   0  0  2  0  0  0  0  0  0  0  0  0
  -25.7015  -20.8004   24.2805 C   0  0  0  0  0  0  0  0  0  0  0  0
  -24.2515  -18.7121   37.2121 C   0  0  0  0  0  0  0  0  0  0  0  0
  -22.7752  -15.3544   25.8215 C   0  0  0  0  0  0  0  0  0  0  0  0
  -24.7325  -23.4270   32.5851 C   0  0  0  0  0  0  0  0  0  0  0  0
  -25.7897  -22.1401   34.4545 C   0  0  0  0  0  0  0  0  0  0  0  0
  -23.7591  -23.5232   34.8868 C   0  0  0  0  0  0  0  0  0  0  0  0
  -21.5834  -17.0347   35.0807 C   0  0  0  0  0  0  0  0  0  0  0  0
  -29.1128  -17.8951   25.2680 C   0  0  0  0  0  0  0  0  0  0  0  0
  -24.5553  -18.8201   25.3380 C   0  0  0  0  0  0  0  0  0  0  0  0
  -24.2771  -17.3207   25.1859 C   0  0  0  0  0  0  0  0  0  0  0  0
  -25.7327  -19.2860   24.4691 C   0  0  2  0  0  0  0  0  0  0  0  0
  -23.5365  -21.3681   33.5836 C   0  0  1  0  0  0  0  0  0  0  0  0
  -23.1183  -18.6567   36.1995 C   0  0  2  0  0  0  0  0  0  0  0  0
  -23.0859  -16.8324   26.0166 C   0  0  2  0  0  0  0  0  0  1  0  0
  -24.4441  -22.6011   33.8547 C   0  0  0  0  0  0  0  0  0  0  0  0
  -25.9130  -11.5138   20.3787 N   0  0  0  0  0  0  0  0  0  0  0  0
  -27.8878  -18.1626   24.5230 N   0  0  0  0  0  0  0  0  0  0  0  0
  -26.3079  -12.7924   20.2549 N   0  0  0  0  0  0  0  0  0  0  0  0
  -21.9276  -21.2111   31.7100 N   0  0  0  0  0  0  0  0  0  0  0  0
  -30.0383  -13.5172   20.6802 N   0  0  0  0  0  0  0  0  0  0  0  0
  -30.5360  -15.4284   22.0298 N   0  0  0  0  0  0  0  0  0  0  0  0
  -25.5499  -15.0293   20.4351 N   0  0  0  0  0  0  0  0  0  0  0  0
  -21.8846  -12.6009   21.4668 N   0  0  0  0  0  0  0  0  0  0  0  0
  -20.3238  -23.7937   29.8421 N   0  0  0  0  0  0  0  0  0  0  0  0
  -23.2246  -20.5828   34.7728 N   0  0  0  0  0  0  0  0  0  0  0  0
  -22.7064  -17.2342   36.0324 N   0  3  0  0  0  0  0  0  0  0  0  0
  -22.6935  -14.7303   21.2022 O   0  0  0  0  0  0  0  0  0  0  0  0
  -22.3628  -22.7033   29.5662 O   0  0  0  0  0  0  0  0  0  0  0  0
  -21.4521  -22.5002   33.5937 O   0  0  0  0  0  0  0  0  0  0  0  0
  -24.0994  -18.5819   33.9928 O   0  0  0  0  0  0  0  0  0  0  0  0
  -31.3593  -15.2321   19.8837 O   0  0  0  0  0  0  0  0  0  0  0  0
  -21.5550   -7.0421   21.6278 O   0  0  0  0  0  0  0  0  0  0  0  0
  -23.4031  -17.0512   27.3916 O   0  0  0  0  0  0  0  0  0  1  0  0
  -16.4955   -6.8774   19.4420 F   0  0  0  0  0  0  0  0  0  0  0  0
  -20.8539   -5.0703   19.8213 F   0  0  0  0  0  0  0  0  0  0  0  0
  1  2  1  0  0  0  0
  1  5  2  0  0  0  0
  2  6  2  0  0  0  0
  3  8  2  0  0  0  0
  3 15  1  0  0  0  0
  4  9  1  0  0  0  0
  4 15  2  0  0  0  0
  5 17  1  0  0  0  0
  6 19  1  0  0  0  0
  7 10  2  0  0  0  0
  7 18  1  0  0  0  0
  8 21  1  0  0  0  0
  9 21  2  0  0  0  0
 10 22  1  0  0  0  0
 11 12  2  0  0  0  0
 11 23  1  0  0  0  0
 12 24  1  0  0  0  0
 13 20  1  0  0  0  0
 13 22  2  0  0  0  0
 14 24  2  0  0  0  0
 14 25  1  0  0  0  0
 15 26  1  0  0  0  0
 16 26  1  0  0  0  0
 16 27  2  0  0  0  0
 16 29  1  0  0  0  0
 17 19  2  0  0  0  0
 17 34  1  0  0  0  0
 18 20  2  0  0  0  0
 18 35  1  0  0  0  0
 19 47  1  0  0  0  0
 20 36  1  0  0  0  0
 21 82  1  0  0  0  0
 22 83  1  0  0  0  0
 23 25  2  0  0  0  0
 23 82  1  0  0  0  0
 24 84  1  0  0  0  0
 25 85  1  0  0  0  0
 26 66  2  0  0  0  0
 27 68  1  0  0  0  0
 27 72  1  0  0  0  0
 28 61  1  0  0  0  0
 28 67  2  0  0  0  0
 29 73  1  0  0  0  0
 29 77  2  0  0  0  0
 30 48  1  0  0  0  0
 30 74  1  0  0  0  0
 30 78  2  0  0  0  0
 31 62  1  0  0  0  0
 31 69  1  0  0  0  0
 31 79  2  0  0  0  0
 32 63  1  0  0  0  0
 32 75  1  0  0  0  0
 32 80  2  0  0  0  0
 33 70  1  0  0  0  0
 33 71  1  0  0  0  0
 33 81  2  0  0  0  0
 34 37  1  0  0  0  0
 35 48  1  0  0  0  0
 36 69  1  0  0  0  0
 37 39  1  0  0  0  0
 38 40  1  0  0  0  0
 38 43  1  0  0  0  0
 39 47  1  0  0  0  0
 40 50  1  0  0  0  0
 41 44  1  0  0  0  0
 41 49  1  0  0  0  0
 42 45  1  0  0  0  0
 42 49  1  0  0  0  0
 43 70  1  0  0  0  0
 44 71  1  0  0  0  0
 45 71  1  0  0  0  0
 46 50  1  0  0  0  0
 46 70  1  0  0  0  0
 47 74  1  0  0  0  0
 48 69  1  0  0  0  0
 49 58  1  0  0  0  0
 50 68  1  0  0  0  0
 51 61  1  0  0  0  0
 52 63  1  0  0  0  0
 53 64  1  0  0  0  0
 54 65  1  0  0  0  0
 55 65  1  0  0  0  0
 56 65  1  0  0  0  0
 57 76  1  0  0  0  0
 58 67  1  0  0  0  0
 59 60  1  0  0  0  0
 59 61  1  0  0  0  0
 60 64  1  0  0  0  0
 62 65  1  0  0  0  0
 62 75  1  0  0  0  0
 63 76  1  0  0  0  0
 64 83  1  0  0  0  0
 66 68  1  0  0  0  0
M  CHG  1  76   1
M  ISO  4  33 100  64 101  71 100  83 101
M  END
> <Batch ID>
0118

> <Smiles>
CNC(C)C(=O)NC(C(=O)N1Cc2cc([101O:1][101CH:1](C)CCC(C)=CNCC3CC[100N:0]([100C:0](=O)N4CCCC(n5nc(-c6ccc(Oc7ccc(F)cc7F)cc6)c(C(N)=O)c5N)C4)CC3)ccc2CC1C(=O)NC1CCCc2ccccc21)C(C)(C)C

> <Shape>
0.143

> <Color>
0.186

> <Negative vol penalty>
0.000

$$$$

  -OEChem-04052320183D

 80 88  0     1  0  0  0  0  0999 V2000
  -27.4689  -34.7398   24.3486 C   0  0  0  0  0  0  0  0  0  0  0  0
  -27.7228  -33.4661   23.8499 C   0  0  0  0  0  0  0  0  0  0  0  0
  -26.7542  -12.7285   21.7243 C   0  0  0  0  0  0  0  0  0  0  0  0
  -27.1037  -13.1420   19.3698 C   0  0  0  0  0  0  0  0  0  0  0  0
  -26.2927  -34.9891   25.0544 C   0  0  0  0  0  0  0  0  0  0  0  0
  -26.8010  -32.4407   24.0578 C   0  0  0  0  0  0  0  0  0  0  0  0
  -25.9633  -29.7048   19.8795 C   0  0  0  0  0  0  0  0  0  0  0  0
  -25.4981  -12.1909   21.4435 C   0  0  0  0  0  0  0  0  0  0  0  0
  -25.8476  -12.6044   19.0889 C   0  0  0  0  0  0  0  0  0  0  0  0
  -26.9272  -28.7585   19.5342 C   0  0  0  0  0  0  0  0  0  0  0  0
  -24.2392   -9.2746   20.2846 C   0  0  0  0  0  0  0  0  0  0  0  0
  -23.8881   -8.0823   20.9176 C   0  0  0  0  0  0  0  0  0  0  0  0
  -25.5592  -27.0217   20.4991 C   0  0  0  0  0  0  0  0  0  0  0  0
  -21.9981   -9.1835   21.9435 C   0  0  0  0  0  0  0  0  0  0  0  0
  -27.5570  -13.2041   20.6875 C   0  0  0  0  0  0  0  0  0  0  0  0
  -30.0803  -13.0707   21.0378 C   0  0  0  0  0  0  0  0  0  0  0  0
  -25.3515  -33.9686   25.2628 C   0  0  0  0  0  0  0  0  0  0  0  0
  -24.7931  -29.3174   20.5481 C   0  0  0  0  0  0  0  0  0  0  0  0
  -25.6117  -32.6763   24.7683 C   0  0  0  0  0  0  0  0  0  0  0  0
  -24.5809  -27.9646   20.8496 C   0  0  0  0  0  0  0  0  0  0  0  0
  -28.5530  -24.2796   19.4374 C   0  0  0  0  0  0  0  0  0  0  0  0
  -25.0448  -12.1289   20.1257 C   0  0  0  0  0  0  0  0  0  0  0  0
  -26.7266  -27.4171   19.8465 C   0  0  0  0  0  0  0  0  0  0  0  0
  -23.4698  -10.4214   20.4811 C   0  0  0  0  0  0  0  0  0  0  0  0
  -22.7675   -8.0367   21.7470 C   0  0  0  0  0  0  0  0  0  0  0  0
  -22.3493  -10.3759   21.3105 C   0  0  0  0  0  0  0  0  0  0  0  0
  -28.8544  -13.7600   20.9771 C   0  0  0  0  0  0  0  0  0  0  0  0
  -28.8885  -23.8632   18.1351 C   0  0  0  0  0  0  0  0  0  0  0  0
  -29.5239  -23.7261   20.2357 C   0  0  0  0  0  0  0  0  0  0  0  0
  -31.0042  -14.0396   21.3443 C   0  0  0  0  0  0  0  0  0  0  0  0
  -30.3590  -11.6789   20.8352 C   0  0  0  0  0  0  0  0  0  0  0  0
  -23.4971  -29.9869   23.3723 C   0  0  0  0  0  0  0  0  0  0  0  0
  -21.0173  -28.2490   22.2093 C   0  0  0  0  0  0  0  0  0  0  0  0
  -19.9259  -25.8481   20.0433 C   0  0  0  0  0  0  0  0  0  0  0  0
  -30.8623  -19.9216   20.3413 C   0  0  0  0  0  0  0  0  0  0  0  0
  -24.1165  -34.2744   26.0726 C   0  0  0  0  0  0  0  0  0  0  0  0
  -23.7509  -30.3466   20.8899 C   0  0  0  0  0  0  0  0  0  0  0  0
  -23.3323  -27.4943   21.5485 C   0  0  0  0  0  0  0  0  0  0  0  0
  -23.0171  -33.2255   25.9263 C   0  0  0  0  0  0  0  0  0  0  0  0
  -31.4572  -18.2263   23.5750 C   0  0  0  0  0  0  0  0  0  0  0  0
  -23.5983  -31.8212   26.0569 C   0  0  0  0  0  0  0  0  0  0  0  0
  -30.9034  -16.8356   23.2817 C   0  0  0  0  0  0  0  0  0  0  0  0
  -30.6922  -19.3187   22.8291 C   0  0  0  0  0  0  0  0  0  0  0  0
  -30.0607  -17.6945   21.0633 C   0  0  0  0  0  0  0  0  0  0  0  0
  -24.6247  -31.5439   24.9519 C   0  0  1  0  0  0  0  0  0  0  0  0
  -22.8318  -29.9115   22.0271 C   0  0  1  0  0  0  0  0  0  0  0  0
  -30.8523  -16.5825   21.7677 C   0  0  2  0  0  0  0  0  0  0  0  0
  -28.1825  -24.1692   16.8785 C   0  0  0  0  0  0  0  0  0  0  0  0
  -29.7369  -23.7864   21.6942 C   0  0  0  0  0  0  0  0  0  0  0  0
  -17.8528  -24.6155   19.3504 C   0  0  0  0  0  0  0  0  0  0  0  0
  -21.1859  -26.5492   24.7376 C   0  0  0  0  0  0  0  0  0  0  0  0
  -19.7908  -24.8197   23.5841 C   0  0  0  0  0  0  0  0  0  0  0  0
  -18.8593  -27.0959   24.0013 C   0  0  0  0  0  0  0  0  0  0  0  0
  -20.1025  -26.8733   17.2725 C   0  0  0  0  0  0  0  0  0  0  0  0
  -27.3955  -25.1350   19.8617 C   0  0  0  0  0  0  0  0  0  1  0  0
  -31.5737  -22.2505   19.7760 C   0  0  0  0  0  0  0  0  0  0  0  0
  -20.6339  -26.7890   22.2269 C   0  0  1  0  0  0  0  0  0  0  0  0
  -18.7486  -25.8156   19.0855 C   0  0  2  0  0  0  0  0  0  0  0  0
  -20.1420  -26.3222   23.6260 C   0  0  0  0  0  0  0  0  0  0  0  0
  -28.9843  -15.0660   21.2252 N   0  0  0  0  0  0  0  0  0  0  0  0
  -29.9869  -23.1039   18.1035 N   0  0  0  0  0  0  0  0  0  0  0  0
  -30.3500  -23.0389   19.3958 N   0  0  0  0  0  0  0  0  0  0  0  0
  -30.3028  -15.2050   21.4449 N   0  0  0  0  0  0  0  0  0  0  0  0
  -22.3457  -28.5395   21.8675 N   0  0  0  0  0  0  0  0  0  0  0  0
  -30.5872  -19.0252   21.3910 N   0  0  0  0  0  0  0  0  0  0  0  0
  -32.3401  -14.0000   21.5349 N   0  0  0  0  0  0  0  0  0  0  0  0
  -29.2935  -10.8221   20.5273 N   0  0  0  0  0  0  0  0  0  0  0  0
  -23.9555  -31.2478   23.7033 N   0  0  0  0  0  0  0  0  0  0  0  0
  -19.6553  -26.6111   21.1595 N   0  0  0  0  0  0  0  0  0  0  0  0
  -31.2592  -21.1969   20.7280 N   0  0  0  0  0  0  0  0  0  0  0  0
  -19.2288  -25.7417   17.6767 N   0  3  0  0  0  0  0  0  0  0  0  0
  -31.5161  -11.2063   20.9407 O   0  0  0  0  0  0  0  0  0  0  0  0
  -23.5866  -28.9763   24.0596 O   0  0  0  0  0  0  0  0  0  0  0  0
  -20.1676  -29.1007   22.4816 O   0  0  0  0  0  0  0  0  0  0  0  0
  -20.9789  -25.2531   19.8249 O   0  0  0  0  0  0  0  0  0  0  0  0
  -30.7532  -19.6088   19.1509 O   0  0  0  0  0  0  0  0  0  0  0  0
  -23.8193  -11.6041   19.8513 O   0  0  0  0  0  0  0  0  0  0  0  0
  -27.6661  -26.4916   19.5112 O   0  0  0  0  0  0  0  0  0  1  0  0
  -22.4295   -6.8913   22.3536 F   0  0  0  0  0  0  0  0  0  0  0  0
  -21.6056  -11.4741   21.5021 F   0  0  0  0  0  0  0  0  0  0  0  0
  1  2  1  0  0  0  0
  1  5  2  0  0  0  0
  2  6  2  0  0  0  0
  3  8  2  0  0  0  0
  3 15  1  0  0  0  0
  4  9  1  0  0  0  0
  4 15  2  0  0  0  0
  5 17  1  0  0  0  0
  6 19  1  0  0  0  0
  7 10  2  0  0  0  0
  7 18  1  0  0  0  0
  8 22  1  0  0  0  0
  9 22  2  0  0  0  0
 10 23  1  0  0  0  0
 11 12  2  0  0  0  0
 11 24  1  0  0  0  0
 12 25  1  0  0  0  0
 13 20  1  0  0  0  0
 13 23  2  0  0  0  0
 14 25  2  0  0  0  0
 14 26  1  0  0  0  0
 15 27  1  0  0  0  0
 16 27  1  0  0  0  0
 16 30  2  0  0  0  0
 16 31  1  0  0  0  0
 17 19  2  0  0  0  0
 17 36  1  0  0  0  0
 18 20  2  0  0  0  0
 18 37  1  0  0  0  0
 19 45  1  0  0  0  0
 20 38  1  0  0  0  0
 21 28  1  0  0  0  0
 21 29  2  0  0  0  0
 21 55  1  0  0  0  0
 22 77  1  0  0  0  0
 23 78  1  0  0  0  0
 24 26  2  0  0  0  0
 24 77  1  0  0  0  0
 25 79  1  0  0  0  0
 26 80  1  0  0  0  0
 27 60  2  0  0  0  0
 28 48  1  0  0  0  0
 28 61  2  0  0  0  0
 29 49  1  0  0  0  0
 29 62  1  0  0  0  0
 30 63  1  0  0  0  0
 30 66  1  0  0  0  0
 31 67  1  0  0  0  0
 31 72  2  0  0  0  0
 32 46  1  0  0  0  0
 32 68  1  0  0  0  0
 32 73  2  0  0  0  0
 33 57  1  0  0  0  0
 33 64  1  0  0  0  0
 33 74  2  0  0  0  0
 34 58  1  0  0  0  0
 34 69  1  0  0  0  0
 34 75  2  0  0  0  0
 35 65  1  0  0  0  0
 35 70  1  0  0  0  0
 35 76  2  0  0  0  0
 36 39  1  0  0  0  0
 37 46  1  0  0  0  0
 38 64  1  0  0  0  0
 39 41  1  0  0  0  0
 40 42  1  0  0  0  0
 40 43  1  0  0  0  0
 41 45  1  0  0  0  0
 42 47  1  0  0  0  0
 43 65  1  0  0  0  0
 44 47  1  0  0  0  0
 44 65  1  0  0  0  0
 45 68  1  0  0  0  0
 46 64  1  0  0  0  0
 47 63  1  0  0  0  0
 50 58  1  0  0  0  0
 51 59  1  0  0  0  0
 52 59  1  0  0  0  0
 53 59  1  0  0  0  0
 54 71  1  0  0  0  0
 55 78  1  0  0  0  0
 56 62  1  0  0  0  0
 56 70  1  0  0  0  0
 57 59  1  0  0  0  0
 57 69  1  0  0  0  0
 58 71  1  0  0  0  0
 60 63  1  0  0  0  0
 61 62  1  0  0  0  0
M  CHG  1  71   1
M  ISO  4  35 100  55 101  70 100  78 101
M  END
> <Batch ID>
0118

> <Smiles>
CNC(C)C(=O)NC(C(=O)N1Cc2cc([101O:1][101CH2:1]c3c(C)nn(C[100NH:0][100C:0](=O)N4CCCC(n5nc(-c6ccc(Oc7ccc(F)cc7F)cc6)c(C(N)=O)c5N)C4)c3C)ccc2CC1C(=O)NC1CCCc2ccccc21)C(C)(C)C

> <Shape>
0.336

> <Color>
0.069

> <Negative vol penalty>
0.000

$$$$

  -OEChem-04052320183D

 86 94  0     1  0  0  0  0  0999 V2000
  -16.7056  -28.5872   23.6296 C   0  0  0  0  0  0  0  0  0  0  0  0
  -17.3787  -27.8016   22.6994 C   0  0  0  0  0  0  0  0  0  0  0  0
  -24.1817   -9.7495   21.2884 C   0  0  0  0  0  0  0  0  0  0  0  0
  -24.9517  -10.7213   23.3620 C   0  0  0  0  0  0  0  0  0  0  0  0
  -17.2335  -29.8198   24.0114 C   0  0  0  0  0  0  0  0  0  0  0  0
  -18.5797  -28.2488   22.1496 C   0  0  0  0  0  0  0  0  0  0  0  0
  -22.1190  -24.6297   22.0096 C   0  0  0  0  0  0  0  0  0  0  0  0
  -23.8398   -8.5783   21.9643 C   0  0  0  0  0  0  0  0  0  0  0  0
  -24.6097   -9.5501   24.0379 C   0  0  0  0  0  0  0  0  0  0  0  0
  -22.0173  -23.6785   20.9954 C   0  0  0  0  0  0  0  0  0  0  0  0
  -21.3190   -7.4848   23.9347 C   0  0  0  0  0  0  0  0  0  0  0  0
  -20.0812   -6.9090   23.6485 C   0  0  0  0  0  0  0  0  0  0  0  0
  -23.6993  -24.8569   19.7299 C   0  0  0  0  0  0  0  0  0  0  0  0
  -21.1893   -4.8896   22.9196 C   0  0  0  0  0  0  0  0  0  0  0  0
  -24.7377  -10.8211   21.9873 C   0  0  0  0  0  0  0  0  0  0  0  0
  -24.2731  -13.1546   21.0672 C   0  0  0  0  0  0  0  0  0  0  0  0
  -18.4464  -30.2780   23.4733 C   0  0  0  0  0  0  0  0  0  0  0  0
  -23.0053  -25.7094   21.8866 C   0  0  0  0  0  0  0  0  0  0  0  0
  -19.1236  -29.4894   22.5237 C   0  0  0  0  0  0  0  0  0  0  0  0
  -23.8122  -25.8190   20.7451 C   0  0  0  0  0  0  0  0  0  0  0  0
  -24.0537   -8.4785   23.3390 C   0  0  0  0  0  0  0  0  0  0  0  0
  -22.8054  -23.7936   19.8540 C   0  0  0  0  0  0  0  0  0  0  0  0
  -22.4919   -6.7631   23.7134 C   0  0  0  0  0  0  0  0  0  0  0  0
  -20.0163   -5.6114   23.1409 C   0  0  0  0  0  0  0  0  0  0  0  0
  -22.4271   -5.4654   23.2059 C   0  0  0  0  0  0  0  0  0  0  0  0
  -25.0917  -12.0310   21.2896 C   0  0  0  0  0  0  0  0  0  0  0  0
  -25.0692  -14.0256   20.3643 C   0  0  0  0  0  0  0  0  0  0  0  0
  -22.9147  -13.3899   21.4608 C   0  0  0  0  0  0  0  0  0  0  0  0
  -22.6880  -28.8701   21.7722 C   0  0  0  0  0  0  0  0  0  0  0  0
  -25.9304  -28.8078   21.8447 C   0  0  0  0  0  0  0  0  0  0  0  0
  -28.8092  -27.0784   21.2375 C   0  0  0  0  0  0  0  0  0  0  0  0
  -29.9653  -16.5832   19.5690 C   0  0  0  0  0  0  0  0  0  0  0  0
  -18.9537  -31.6385   23.8813 C   0  0  0  0  0  0  0  0  0  0  0  0
  -23.1225  -26.7123   23.0014 C   0  0  0  0  0  0  0  0  0  0  0  0
  -24.7940  -26.9482   20.5734 C   0  0  0  0  0  0  0  0  0  0  0  0
  -20.4214  -31.8712   23.5324 C   0  0  0  0  0  0  0  0  0  0  0  0
  -29.5752  -13.3310   18.1734 C   0  0  0  0  0  0  0  0  0  0  0  0
  -20.7063  -31.4289   22.1006 C   0  0  0  0  0  0  0  0  0  0  0  0
  -25.0605  -20.4215   19.7619 C   0  0  0  0  0  0  0  0  0  0  0  0
  -25.1745  -19.6611   17.3565 C   0  0  0  0  0  0  0  0  0  0  0  0
  -26.5859  -20.4846   19.8142 C   0  0  0  0  0  0  0  0  0  0  0  0
  -26.6999  -19.7245   17.4088 C   0  0  0  0  0  0  0  0  0  0  0  0
  -28.3106  -12.7937   18.8458 C   0  0  0  0  0  0  0  0  0  0  0  0
  -30.4040  -14.1849   19.1304 C   0  0  0  0  0  0  0  0  0  0  0  0
  -28.4000  -14.7474   20.4500 C   0  0  0  0  0  0  0  0  0  0  0  0
  -20.4414  -29.9289   21.9235 C   0  0  1  0  0  0  0  0  0  0  0  0
  -23.6868  -28.0532   22.5420 C   0  0  1  0  0  0  0  0  0  0  0  0
  -24.5319  -20.6477   18.3397 C   0  0  0  0  0  0  0  0  0  0  0  0
  -27.2281  -19.4978   18.8309 C   0  0  0  0  0  0  0  0  0  0  0  0
  -27.5031  -13.9263   19.5079 C   0  0  2  0  0  0  0  0  0  0  0  0
  -31.3055  -27.3034   21.3605 C   0  0  0  0  0  0  0  0  0  0  0  0
  -22.4951  -20.7137   16.8787 C   0  0  0  0  0  0  0  0  0  0  0  0
  -30.9073  -22.6993   19.0258 C   0  0  0  0  0  0  0  0  0  0  0  0
  -30.6331  -21.2698   16.9629 C   0  0  0  0  0  0  0  0  0  0  0  0
  -25.8951  -30.5434   19.3354 C   0  0  0  0  0  0  0  0  0  0  0  0
  -28.2995  -29.9468   18.9733 C   0  0  0  0  0  0  0  0  0  0  0  0
  -27.6202  -31.1897   21.0267 C   0  0  0  0  0  0  0  0  0  0  0  0
  -29.0325  -24.8395   23.1600 C   0  0  0  0  0  0  0  0  0  0  0  0
  -29.3850  -18.9417   20.0785 C   0  0  0  0  0  0  0  0  0  0  0  0
  -22.3495  -21.5400   19.2461 C   0  0  0  0  0  0  0  0  0  1  0  0
  -27.0219  -28.7434   20.8038 C   0  0  1  0  0  0  0  0  0  0  0  0
  -30.0473  -26.8536   22.0866 C   0  0  2  0  0  0  0  0  0  0  0  0
  -23.0095  -20.5289   18.3047 C   0  0  2  0  0  0  0  0  0  0  0  0
  -28.7507  -19.6151   18.8660 C   0  0  2  0  0  0  0  0  0  0  0  0
  -30.5192  -21.3356   18.4775 C   0  0  0  0  0  0  0  0  0  0  0  0
  -27.1894  -30.0855   20.0369 C   0  0  0  0  0  0  0  0  0  0  0  0
  -26.3140  -12.1726   20.7699 N   0  0  0  0  0  0  0  0  0  0  0  0
  -26.2693  -13.3953   20.2140 N   0  0  0  0  0  0  0  0  0  0  0  0
  -24.8675  -27.9069   21.6883 N   0  0  0  0  0  0  0  0  0  0  0  0
  -29.5799  -15.2412   19.7230 N   0  0  0  0  0  0  0  0  0  0  0  0
  -24.8527  -15.2616   19.8663 N   0  0  0  0  0  0  0  0  0  0  0  0
  -22.2440  -12.3896   22.1778 N   0  0  0  0  0  0  0  0  0  0  0  0
  -21.5326  -29.1544   22.4748 N   0  0  0  0  0  0  0  0  0  0  0  0
  -28.2244  -28.2992   21.5004 N   0  0  0  0  0  0  0  0  0  0  0  0
  -29.1252  -17.5214   20.1561 N   0  0  0  0  0  0  0  0  0  0  0  0
  -30.1896  -25.4086   22.4225 N   0  3  0  0  0  0  0  0  0  0  0  0
  -29.1086  -21.0592   18.8566 N   0  3  0  0  0  0  0  0  0  0  0  0
  -22.3081  -14.4488   21.1707 O   0  0  0  0  0  0  0  0  0  0  0  0
  -22.9470  -29.2180   20.6261 O   0  0  0  0  0  0  0  0  0  0  0  0
  -26.0211  -29.6224   22.7665 O   0  0  0  0  0  0  0  0  0  0  0  0
  -28.4036  -26.2552   20.4200 O   0  0  0  0  0  0  0  0  0  0  0  0
  -30.9799  -16.9204   18.9494 O   0  0  0  0  0  0  0  0  0  0  0  0
  -23.7200   -7.3358   23.9989 O   0  0  0  0  0  0  0  0  0  0  0  0
  -22.7076  -22.8669   18.8622 O   0  0  0  0  0  0  0  0  0  1  0  0
  -18.8276   -5.0580   22.8675 F   0  0  0  0  0  0  0  0  0  0  0  0
  -23.5504   -4.7667   22.9922 F   0  0  0  0  0  0  0  0  0  0  0  0
  1  2  1  0  0  0  0
  1  5  2  0  0  0  0
  2  6  2  0  0  0  0
  3  8  2  0  0  0  0
  3 15  1  0  0  0  0
  4  9  1  0  0  0  0
  4 15  2  0  0  0  0
  5 17  1  0  0  0  0
  6 19  1  0  0  0  0
  7 10  2  0  0  0  0
  7 18  1  0  0  0  0
  8 21  1  0  0  0  0
  9 21  2  0  0  0  0
 10 22  1  0  0  0  0
 11 12  2  0  0  0  0
 11 23  1  0  0  0  0
 12 24  1  0  0  0  0
 13 20  1  0  0  0  0
 13 22  2  0  0  0  0
 14 24  2  0  0  0  0
 14 25  1  0  0  0  0
 15 26  1  0  0  0  0
 16 26  1  0  0  0  0
 16 27  2  0  0  0  0
 16 28  1  0  0  0  0
 17 19  2  0  0  0  0
 17 33  1  0  0  0  0
 18 20  2  0  0  0  0
 18 34  1  0  0  0  0
 19 46  1  0  0  0  0
 20 35  1  0  0  0  0
 21 83  1  0  0  0  0
 22 84  1  0  0  0  0
 23 25  2  0  0  0  0
 23 83  1  0  0  0  0
 24 85  1  0  0  0  0
 25 86  1  0  0  0  0
 26 67  2  0  0  0  0
 27 68  1  0  0  0  0
 27 71  1  0  0  0  0
 28 72  1  0  0  0  0
 28 78  2  0  0  0  0
 29 47  1  0  0  0  0
 29 73  1  0  0  0  0
 29 79  2  0  0  0  0
 30 61  1  0  0  0  0
 30 69  1  0  0  0  0
 30 80  2  0  0  0  0
 31 62  1  0  0  0  0
 31 74  1  0  0  0  0
 31 81  2  0  0  0  0
 32 70  1  0  0  0  0
 32 75  1  0  0  0  0
 32 82  2  0  0  0  0
 33 36  1  0  0  0  0
 34 47  1  0  0  0  0
 35 69  1  0  0  0  0
 36 38  1  0  0  0  0
 37 43  1  0  0  0  0
 37 44  1  0  0  0  0
 38 46  1  0  0  0  0
 39 41  1  0  0  0  0
 39 48  1  0  0  0  0
 40 42  1  0  0  0  0
 40 48  1  0  0  0  0
 41 49  1  0  0  0  0
 42 49  1  0  0  0  0
 43 50  1  0  0  0  0
 44 70  1  0  0  0  0
 45 50  1  0  0  0  0
 45 70  1  0  0  0  0
 46 73  1  0  0  0  0
 47 69  1  0  0  0  0
 48 63  1  0  0  0  0
 49 64  1  0  0  0  0
 50 68  1  0  0  0  0
 51 62  1  0  0  0  0
 52 63  1  0  0  0  0
 53 65  1  0  0  0  0
 54 65  1  0  0  0  0
 55 66  1  0  0  0  0
 56 66  1  0  0  0  0
 57 66  1  0  0  0  0
 58 76  1  0  0  0  0
 59 64  1  0  0  0  0
 59 75  1  0  0  0  0
 60 63  1  0  0  0  0
 60 84  1  0  0  0  0
 61 66  1  0  0  0  0
 61 74  1  0  0  0  0
 62 76  1  0  0  0  0
 64 77  1  0  0  0  0
 65 77  1  0  0  0  0
 67 68  1  0  0  0  0
M  CHG  2  76   1  77   1
M  ISO  4  32 100  60 101  75 100  84 101
M  END
> <Batch ID>
0118

> <Smiles>
CNC(C)C(=O)NC(C(=O)N1Cc2cc([101O:1][101CH2:1]C(C)C3CCC(C(C[100NH:0][100C:0](=O)N4CCCC(n5nc(-c6ccc(Oc7ccc(F)cc7F)cc6)c(C(N)=O)c5N)C4)NC(C)C)CC3)ccc2CC1C(=O)NC1CCCc2ccccc21)C(C)(C)C

> <Shape>
0.293

> <Color>
0.142

> <Negative vol penalty>
0.000

$$$$

  -OEChem-04052320183D

 91100  0     1  0  0  0  0  0999 V2000
  -31.9843  -29.2231   20.9347 C   0  0  0  0  0  0  0  0  0  0  0  0
  -31.3616  -28.1321   20.3370 C   0  0  0  0  0  0  0  0  0  0  0  0
  -30.3350  -19.6470   19.7303 C   0  0  0  0  0  0  0  0  0  0  0  0
  -28.1948  -19.8469   20.8333 C   0  0  0  0  0  0  0  0  0  0  0  0
  -21.3360  -15.7106   17.8960 C   0  0  0  0  0  0  0  0  0  0  0  0
  -21.1283  -16.8856   19.9967 C   0  0  0  0  0  0  0  0  0  0  0  0
  -31.5259  -29.6996   22.1622 C   0  0  0  0  0  0  0  0  0  0  0  0
  -30.2807  -27.5163   20.9669 C   0  0  0  0  0  0  0  0  0  0  0  0
  -25.4038  -24.9790   18.2680 C   0  0  0  0  0  0  0  0  0  0  0  0
  -21.0462  -16.8889   17.2082 C   0  0  0  0  0  0  0  0  0  0  0  0
  -20.8385  -18.0640   19.3090 C   0  0  0  0  0  0  0  0  0  0  0  0
  -30.2073  -20.9489   19.2464 C   0  0  0  0  0  0  0  0  0  0  0  0
  -28.0670  -21.1489   20.3493 C   0  0  0  0  0  0  0  0  0  0  0  0
  -25.0870  -23.6581   17.9539 C   0  0  0  0  0  0  0  0  0  0  0  0
  -28.5642  -22.5277   16.7500 C   0  0  0  0  0  0  0  0  0  0  0  0
  -28.8805  -22.7544   15.4105 C   0  0  0  0  0  0  0  0  0  0  0  0
  -23.8194  -23.4822   19.9987 C   0  0  0  0  0  0  0  0  0  0  0  0
  -30.5948  -24.3196   16.0802 C   0  0  0  0  0  0  0  0  0  0  0  0
  -29.3288  -19.0959   20.5238 C   0  0  0  0  0  0  0  0  0  0  0  0
  -21.3770  -15.7089   19.2903 C   0  0  0  0  0  0  0  0  0  0  0  0
  -30.0479  -17.3487   22.2378 C   0  0  0  0  0  0  0  0  0  0  0  0
  -30.4328  -29.0954   22.8029 C   0  0  0  0  0  0  0  0  0  0  0  0
  -24.9391  -25.5589   19.4572 C   0  0  0  0  0  0  0  0  0  0  0  0
  -29.8081  -27.9844   22.2048 C   0  0  0  0  0  0  0  0  0  0  0  0
  -24.1296  -24.8114   20.3244 C   0  0  0  0  0  0  0  0  0  0  0  0
  -20.7975  -18.0656   17.9147 C   0  0  0  0  0  0  0  0  0  0  0  0
  -29.0733  -21.6998   19.5559 C   0  0  0  0  0  0  0  0  0  0  0  0
  -24.2971  -22.9086   18.8207 C   0  0  0  0  0  0  0  0  0  0  0  0
  -29.2631  -23.1971   17.7546 C   0  0  0  0  0  0  0  0  0  0  0  0
  -29.8958  -23.6503   15.0756 C   0  0  0  0  0  0  0  0  0  0  0  0
  -30.2784  -24.0930   17.4197 C   0  0  0  0  0  0  0  0  0  0  0  0
  -29.4599  -17.7509   21.0235 C   0  0  0  0  0  0  0  0  0  0  0  0
  -29.9222  -15.9810   22.2437 C   0  0  0  0  0  0  0  0  0  0  0  0
  -21.6796  -14.4809   20.0084 C   0  0  0  0  0  0  0  0  0  0  0  0
  -30.6534  -18.1407   23.2682 C   0  0  0  0  0  0  0  0  0  0  0  0
  -26.3201  -26.7750   22.0490 C   0  0  0  0  0  0  0  0  0  0  0  0
  -23.2739  -27.5837   22.8165 C   0  0  0  0  0  0  0  0  0  0  0  0
  -19.9352  -26.9837   22.4424 C   0  0  0  0  0  0  0  0  0  0  0  0
  -26.1034  -12.2256   19.5669 C   0  0  0  0  0  0  0  0  0  0  0  0
  -30.0031  -29.6163   24.1515 C   0  0  0  0  0  0  0  0  0  0  0  0
  -25.2675  -26.9934   19.7685 C   0  0  0  0  0  0  0  0  0  0  0  0
  -23.5887  -25.3938   21.6037 C   0  0  0  0  0  0  0  0  0  0  0  0
  -28.6149  -29.1418   24.5736 C   0  0  0  0  0  0  0  0  0  0  0  0
  -29.6524  -12.2327   19.2825 C   0  0  0  0  0  0  0  0  0  0  0  0
  -28.4673  -27.6427   24.3335 C   0  0  0  0  0  0  0  0  0  0  0  0
  -30.0586  -13.6115   19.8060 C   0  0  0  0  0  0  0  0  0  0  0  0
  -19.3710  -13.5344   19.4055 C   0  0  0  0  0  0  0  0  0  0  0  0
  -28.3400  -12.2889   18.5039 C   0  0  0  0  0  0  0  0  0  0  0  0
  -27.6219  -14.2887   19.7524 C   0  0  0  0  0  0  0  0  0  0  0  0
  -28.6171  -27.3050   22.8452 C   0  0  1  0  0  0  0  0  0  0  0  0
  -20.7616  -13.2676   19.8262 C   0  0  2  0  0  0  0  0  0  0  0  0
  -25.1666  -27.3203   21.2553 C   0  0  1  0  0  0  0  0  0  0  0  0
  -19.6727  -13.0967   20.8107 C   0  0  2  0  0  0  0  0  0  0  0  0
  -28.9108  -14.2733   20.5921 C   0  0  2  0  0  0  0  0  0  0  0  0
  -19.3282  -11.7174   21.2554 C   0  0  0  0  0  0  0  0  0  0  0  0
  -19.0646  -19.8290   17.4964 C   0  0  0  0  0  0  0  0  0  0  0  0
  -17.6899  -27.7845   23.2264 C   0  0  0  0  0  0  0  0  0  0  0  0
  -23.6699  -13.6127   22.8721 C   0  0  0  0  0  0  0  0  0  0  0  0
  -23.7027  -26.1666   25.4845 C   0  0  0  0  0  0  0  0  0  0  0  0
  -21.2194  -26.1641   25.8029 C   0  0  0  0  0  0  0  0  0  0  0  0
  -22.4520  -28.3267   25.6398 C   0  0  0  0  0  0  0  0  0  0  0  0
  -19.1086  -27.7161   19.6967 C   0  0  0  0  0  0  0  0  0  0  0  0
  -22.9195  -20.1246   16.9448 C   0  0  0  0  0  0  0  0  0  0  0  0
  -21.5058  -20.4745   17.4316 C   0  0  0  0  0  0  0  0  0  0  0  0
  -23.8960  -12.3079   20.6983 C   0  0  0  0  0  0  0  0  0  0  0  0
  -23.8938  -21.2820   17.1332 C   0  0  0  0  0  0  0  0  0  1  0  0
  -20.4830  -19.3488   17.1652 C   0  0  1  0  0  0  0  0  0  0  0  0
  -22.1464  -26.9146   23.5650 C   0  0  1  0  0  0  0  0  0  0  0  0
  -18.7695  -27.9151   22.1633 C   0  0  2  0  0  0  0  0  0  0  0  0
  -23.0193  -13.2231   21.5511 C   0  0  2  0  0  0  0  0  0  0  0  0
  -22.3918  -26.8811   25.1000 C   0  0  0  0  0  0  0  0  0  0  0  0
  -28.9954  -16.7219   20.3098 N   0  0  0  0  0  0  0  0  0  0  0  0
  -22.7186  -14.4331   20.8024 N   0  0  0  0  0  0  0  0  0  0  0  0
  -29.2915  -15.6596   21.0779 N   0  0  0  0  0  0  0  0  0  0  0  0
  -23.9428  -26.7984   21.8670 N   0  0  0  0  0  0  0  0  0  0  0  0
  -27.2926  -12.9261   19.3056 N   0  0  0  0  0  0  0  0  0  0  0  0
  -30.2908  -15.0339   23.1323 N   0  0  0  0  0  0  0  0  0  0  0  0
  -30.6986  -19.5316   23.1023 N   0  0  0  0  0  0  0  0  0  0  0  0
  -27.4026  -27.6303   22.1284 N   0  0  0  0  0  0  0  0  0  0  0  0
  -20.9256  -27.6089   23.1700 N   0  0  0  0  0  0  0  0  0  0  0  0
  -25.1657  -12.8997   20.3397 N   0  0  0  0  0  0  0  0  0  0  0  0
  -18.1638  -27.6040   20.8377 N   0  3  0  0  0  0  0  0  0  0  0  0
  -31.1546  -17.6286   24.2979 O   0  0  0  0  0  0  0  0  0  0  0  0
  -26.2338  -25.6615   22.5533 O   0  0  0  0  0  0  0  0  0  0  0  0
  -23.5462  -28.7619   23.0602 O   0  0  0  0  0  0  0  0  0  0  0  0
  -19.9627  -25.8169   22.0571 O   0  0  0  0  0  0  0  0  0  0  0  0
  -25.8951  -11.0821   19.1474 O   0  0  0  0  0  0  0  0  0  0  0  0
  -28.9484  -22.9704   19.0840 O   0  0  0  0  0  0  0  0  0  0  0  0
  -23.9869  -21.6189   18.5168 O   0  0  0  0  0  0  0  0  0  1  0  0
  -30.2005  -23.8667   13.7894 F   0  0  0  0  0  0  0  0  0  0  0  0
  -30.9542  -24.7381   18.3805 F   0  0  0  0  0  0  0  0  0  0  0  0
  1  2  1  0  0  0  0
  1  7  2  0  0  0  0
  2  8  2  0  0  0  0
  3 12  2  0  0  0  0
  3 19  1  0  0  0  0
  4 13  1  0  0  0  0
  4 19  2  0  0  0  0
  5 10  2  0  0  0  0
  5 20  1  0  0  0  0
  6 11  1  0  0  0  0
  6 20  2  0  0  0  0
  7 22  1  0  0  0  0
  8 24  1  0  0  0  0
  9 14  2  0  0  0  0
  9 23  1  0  0  0  0
 10 26  1  0  0  0  0
 11 26  2  0  0  0  0
 12 27  1  0  0  0  0
 13 27  2  0  0  0  0
 14 28  1  0  0  0  0
 15 16  2  0  0  0  0
 15 29  1  0  0  0  0
 16 30  1  0  0  0  0
 17 25  1  0  0  0  0
 17 28  2  0  0  0  0
 18 30  2  0  0  0  0
 18 31  1  0  0  0  0
 19 32  1  0  0  0  0
 20 34  1  0  0  0  0
 21 32  1  0  0  0  0
 21 33  2  0  0  0  0
 21 35  1  0  0  0  0
 22 24  2  0  0  0  0
 22 40  1  0  0  0  0
 23 25  2  0  0  0  0
 23 41  1  0  0  0  0
 24 50  1  0  0  0  0
 25 42  1  0  0  0  0
 26 67  1  0  0  0  0
 27 88  1  0  0  0  0
 28 89  1  0  0  0  0
 29 31  2  0  0  0  0
 29 88  1  0  0  0  0
 30 90  1  0  0  0  0
 31 91  1  0  0  0  0
 32 72  2  0  0  0  0
 33 74  1  0  0  0  0
 33 77  1  0  0  0  0
 34 51  1  0  0  0  0
 34 73  2  0  0  0  0
 35 78  1  0  0  0  0
 35 83  2  0  0  0  0
 36 52  1  0  0  0  0
 36 79  1  0  0  0  0
 36 84  2  0  0  0  0
 37 68  1  0  0  0  0
 37 75  1  0  0  0  0
 37 85  2  0  0  0  0
 38 69  1  0  0  0  0
 38 80  1  0  0  0  0
 38 86  2  0  0  0  0
 39 76  1  0  0  0  0
 39 81  1  0  0  0  0
 39 87  2  0  0  0  0
 40 43  1  0  0  0  0
 41 52  1  0  0  0  0
 42 75  1  0  0  0  0
 43 45  1  0  0  0  0
 44 46  1  0  0  0  0
 44 48  1  0  0  0  0
 45 50  1  0  0  0  0
 46 54  1  0  0  0  0
 47 51  1  0  0  0  0
 47 53  1  0  0  0  0
 48 76  1  0  0  0  0
 49 54  1  0  0  0  0
 49 76  1  0  0  0  0
 50 79  1  0  0  0  0
 51 53  1  0  0  0  0
 52 75  1  0  0  0  0
 53 55  1  0  0  0  0
 54 74  1  0  0  0  0
 56 67  1  0  0  0  0
 57 69  1  0  0  0  0
 58 70  1  0  0  0  0
 59 71  1  0  0  0  0
 60 71  1  0  0  0  0
 61 71  1  0  0  0  0
 62 82  1  0  0  0  0
 63 64  1  0  0  0  0
 63 66  1  0  0  0  0
 64 67  1  0  0  0  0
 65 70  1  0  0  0  0
 65 81  1  0  0  0  0
 66 89  1  0  0  0  0
 68 71  1  0  0  0  0
 68 80  1  0  0  0  0
 69 82  1  0  0  0  0
 70 73  1  0  0  0  0
 72 74  1  0  0  0  0
M  CHG  1  82   1
M  ISO  4  39 100  66 101  81 100  89 101
M  END
> <Batch ID>
0118

> <Smiles>
CNC(C)C(=O)NC(C(=O)N1Cc2cc([101O:1][101CH2:1]CCC(C)c3ccc(C(NC(C)C[100NH:0][100C:0](=O)N4CCCC(n5nc(-c6ccc(Oc7ccc(F)cc7F)cc6)c(C(N)=O)c5N)C4)=C4CC4C)cc3)ccc2CC1C(=O)NC1CCCc2ccccc21)C(C)(C)C

> <Shape>
0.231

> <Color>
0.068

> <Negative vol penalty>
0.000

$$$$

  -OEChem-04052320183D

 86 94  0     1  0  0  0  0  0999 V2000
  -20.9225  -20.3496   22.8756 C   0  0  0  0  0  0  0  0  0  0  0  0
  -22.2421  -20.4815   22.4552 C   0  0  0  0  0  0  0  0  0  0  0  0
  -24.6604  -14.0481   21.2430 C   0  0  0  0  0  0  0  0  0  0  0  0
  -26.1918  -13.8157   19.3889 C   0  0  0  0  0  0  0  0  0  0  0  0
  -20.0256  -21.4015   22.6935 C   0  0  0  0  0  0  0  0  0  0  0  0
  -22.6653  -21.6651   21.8515 C   0  0  0  0  0  0  0  0  0  0  0  0
  -28.1818  -24.2795   22.3409 C   0  0  0  0  0  0  0  0  0  0  0  0
  -24.7186  -12.6721   21.4636 C   0  0  0  0  0  0  0  0  0  0  0  0
  -26.2500  -12.4396   19.6095 C   0  0  0  0  0  0  0  0  0  0  0  0
  -29.3032  -24.2654   21.5127 C   0  0  0  0  0  0  0  0  0  0  0  0
  -23.3747   -9.8759   20.1222 C   0  0  0  0  0  0  0  0  0  0  0  0
  -22.1731   -9.2056   20.3512 C   0  0  0  0  0  0  0  0  0  0  0  0
  -28.6003  -26.3558   20.5354 C   0  0  0  0  0  0  0  0  0  0  0  0
  -29.4830  -23.4990   15.3919 C   0  0  0  0  0  0  0  0  0  0  0  0
  -22.9791   -8.5006   22.5170 C   0  0  0  0  0  0  0  0  0  0  0  0
  -27.4641  -23.1620   17.1964 C   0  0  0  0  0  0  0  0  0  0  0  0
  -25.3970  -14.6200   20.2056 C   0  0  0  0  0  0  0  0  0  0  0  0
  -26.1678  -17.0287   20.5392 C   0  0  0  0  0  0  0  0  0  0  0  0
  -20.4405  -22.6021   22.0960 C   0  0  0  0  0  0  0  0  0  0  0  0
  -27.2539  -25.3281   22.2648 C   0  0  0  0  0  0  0  0  0  0  0  0
  -21.7728  -22.7335   21.6600 C   0  0  0  0  0  0  0  0  0  0  0  0
  -27.4692  -26.3822   21.3655 C   0  0  0  0  0  0  0  0  0  0  0  0
  -28.1884  -23.2807   14.9341 C   0  0  0  0  0  0  0  0  0  0  0  0
  -27.1540  -23.1080   15.8471 C   0  0  0  0  0  0  0  0  0  0  0  0
  -25.5134  -11.8678   20.6469 C   0  0  0  0  0  0  0  0  0  0  0  0
  -29.5111  -25.3022   20.6078 C   0  0  0  0  0  0  0  0  0  0  0  0
  -24.3786   -9.8585   21.0905 C   0  0  0  0  0  0  0  0  0  0  0  0
  -21.9753   -8.5180   21.5486 C   0  0  0  0  0  0  0  0  0  0  0  0
  -24.1808   -9.1709   22.2879 C   0  0  0  0  0  0  0  0  0  0  0  0
  -25.3368  -16.0413   19.9769 C   0  0  0  0  0  0  0  0  0  0  0  0
  -29.6889  -23.5356   16.7616 C   0  0  0  0  0  0  0  0  0  0  0  0
  -25.7062  -18.2087   20.0090 C   0  0  0  0  0  0  0  0  0  0  0  0
  -27.2595  -16.8916   21.4586 C   0  0  0  0  0  0  0  0  0  0  0  0
  -24.1681  -25.5442   21.5335 C   0  0  0  0  0  0  0  0  0  0  0  0
  -24.5694  -28.6328   22.4399 C   0  0  0  0  0  0  0  0  0  0  0  0
  -26.6914  -31.2670   22.8925 C   0  0  0  0  0  0  0  0  0  0  0  0
  -23.9134  -21.2209   15.6665 C   0  0  0  0  0  0  0  0  0  0  0  0
  -19.4230  -23.6938   21.8776 C   0  0  0  0  0  0  0  0  0  0  0  0
  -26.0632  -25.3421   23.1838 C   0  0  0  0  0  0  0  0  0  0  0  0
  -26.5136  -27.5415   21.2590 C   0  0  0  0  0  0  0  0  0  0  0  0
  -20.0450  -25.0533   21.5690 C   0  0  0  0  0  0  0  0  0  0  0  0
  -21.5133  -19.2118   17.3633 C   0  0  0  0  0  0  0  0  0  0  0  0
  -21.1426  -24.9122   20.5190 C   0  0  0  0  0  0  0  0  0  0  0  0
  -22.3626  -18.2857   18.2357 C   0  0  0  0  0  0  0  0  0  0  0  0
  -22.1795  -19.4868   16.0170 C   0  0  0  0  0  0  0  0  0  0  0  0
  -24.4113  -19.0674   16.9745 C   0  0  0  0  0  0  0  0  0  0  0  0
  -22.2760  -24.0109   21.0235 C   0  0  1  0  0  0  0  0  0  0  0  0
  -24.9148  -26.1994   22.6607 C   0  0  1  0  0  0  0  0  0  0  0  0
  -23.8070  -18.8057   18.3647 C   0  0  2  0  0  0  0  0  0  0  0  0
  -26.7212  -33.6722   23.6075 C   0  0  0  0  0  0  0  0  0  0  0  0
  -32.8805  -25.3836   17.9813 C   0  0  0  0  0  0  0  0  0  0  0  0
  -29.2489  -23.4563   12.6559 C   0  0  0  0  0  0  0  0  0  0  0  0
  -26.9236  -24.3439   13.0323 C   0  0  0  0  0  0  0  0  0  0  0  0
  -27.3340  -21.8940   12.9284 C   0  0  0  0  0  0  0  0  0  0  0  0
  -23.3905  -29.4458   19.7456 C   0  0  0  0  0  0  0  0  0  0  0  0
  -24.3086  -31.7453   20.1164 C   0  0  0  0  0  0  0  0  0  0  0  0
  -22.6051  -30.8166   21.6843 C   0  0  0  0  0  0  0  0  0  0  0  0
  -28.5006  -30.6904   25.1626 C   0  0  0  0  0  0  0  0  0  0  0  0
  -25.7497  -22.8708   15.4114 C   0  0  0  0  0  0  0  0  0  0  0  0
  -31.0813  -23.7701   17.2950 C   0  0  0  0  0  0  0  0  0  0  0  0
  -30.4755  -25.9193   18.5232 C   0  0  0  0  0  0  0  0  0  1  0  0
  -24.9646  -29.9100   21.7388 C   0  0  1  0  0  0  0  0  0  0  0  0
  -26.8723  -32.2266   24.0548 C   0  0  2  0  0  0  0  0  0  0  0  0
  -31.4247  -25.2570   17.5144 C   0  0  1  0  0  0  0  0  0  0  0  0
  -27.9331  -23.2360   13.4640 C   0  0  0  0  0  0  0  0  0  0  0  0
  -23.8344  -30.4567   20.8217 C   0  0  0  0  0  0  0  0  0  0  0  0
  -28.7093  -23.3721   17.6789 N   0  0  0  0  0  0  0  0  0  0  0  0
  -24.4169  -16.5497   19.1527 N   0  0  0  0  0  0  0  0  0  0  0  0
  -24.6671  -17.8695   19.1934 N   0  0  0  0  0  0  0  0  0  0  0  0
  -25.3611  -27.5065   22.1745 N   0  0  0  0  0  0  0  0  0  0  0  0
  -23.5458  -19.9789   16.2097 N   0  0  0  0  0  0  0  0  0  0  0  0
  -26.0919  -19.4929   20.1656 N   0  0  0  0  0  0  0  0  0  0  0  0
  -27.6014  -15.6071   21.9030 N   0  0  0  0  0  0  0  0  0  0  0  0
  -23.1259  -24.7351   21.9442 N   0  0  0  0  0  0  0  0  0  0  0  0
  -25.3861  -30.8360   22.7844 N   0  0  0  0  0  0  0  0  0  0  0  0
  -25.2250  -21.6155   15.9008 N   0  0  0  0  0  0  0  0  0  0  0  0
  -28.2247  -32.0602   24.6583 N   0  3  0  0  0  0  0  0  0  0  0  0
  -27.9018  -17.8805   21.8864 O   0  0  0  0  0  0  0  0  0  0  0  0
  -24.5111  -25.7580   20.3766 O   0  0  0  0  0  0  0  0  0  0  0  0
  -23.5985  -28.6361   23.2008 O   0  0  0  0  0  0  0  0  0  0  0  0
  -27.6149  -30.9359   22.1522 O   0  0  0  0  0  0  0  0  0  0  0  0
  -23.1293  -21.9285   15.0250 O   0  0  0  0  0  0  0  0  0  0  0  0
  -25.5707  -10.5251   20.8619 O   0  0  0  0  0  0  0  0  0  0  0  0
  -30.6046  -25.2906   19.7978 O   0  0  0  0  0  0  0  0  0  1  0  0
  -20.8207   -7.8757   21.7691 F   0  0  0  0  0  0  0  0  0  0  0  0
  -25.1411   -9.1516   23.2224 F   0  0  0  0  0  0  0  0  0  0  0  0
  1  2  1  0  0  0  0
  1  5  2  0  0  0  0
  2  6  2  0  0  0  0
  3  8  2  0  0  0  0
  3 17  1  0  0  0  0
  4  9  1  0  0  0  0
  4 17  2  0  0  0  0
  5 19  1  0  0  0  0
  6 21  1  0  0  0  0
  7 10  2  0  0  0  0
  7 20  1  0  0  0  0
  8 25  1  0  0  0  0
  9 25  2  0  0  0  0
 10 26  1  0  0  0  0
 11 12  2  0  0  0  0
 11 27  1  0  0  0  0
 12 28  1  0  0  0  0
 13 22  1  0  0  0  0
 13 26  2  0  0  0  0
 14 23  2  0  0  0  0
 14 31  1  0  0  0  0
 15 28  2  0  0  0  0
 15 29  1  0  0  0  0
 16 24  2  0  0  0  0
 16 67  1  0  0  0  0
 17 30  1  0  0  0  0
 18 30  1  0  0  0  0
 18 32  2  0  0  0  0
 18 33  1  0  0  0  0
 19 21  2  0  0  0  0
 19 38  1  0  0  0  0
 20 22  2  0  0  0  0
 20 39  1  0  0  0  0
 21 47  1  0  0  0  0
 22 40  1  0  0  0  0
 23 24  1  0  0  0  0
 23 65  1  0  0  0  0
 24 59  1  0  0  0  0
 25 83  1  0  0  0  0
 26 84  1  0  0  0  0
 27 29  2  0  0  0  0
 27 83  1  0  0  0  0
 28 85  1  0  0  0  0
 29 86  1  0  0  0  0
 30 68  2  0  0  0  0
 31 60  1  0  0  0  0
 31 67  2  0  0  0  0
 32 69  1  0  0  0  0
 32 72  1  0  0  0  0
 33 73  1  0  0  0  0
 33 78  2  0  0  0  0
 34 48  1  0  0  0  0
 34 74  1  0  0  0  0
 34 79  2  0  0  0  0
 35 62  1  0  0  0  0
 35 70  1  0  0  0  0
 35 80  2  0  0  0  0
 36 63  1  0  0  0  0
 36 75  1  0  0  0  0
 36 81  2  0  0  0  0
 37 71  1  0  0  0  0
 37 76  1  0  0  0  0
 37 82  2  0  0  0  0
 38 41  1  0  0  0  0
 39 48  1  0  0  0  0
 40 70  1  0  0  0  0
 41 43  1  0  0  0  0
 42 44  1  0  0  0  0
 42 45  1  0  0  0  0
 43 47  1  0  0  0  0
 44 49  1  0  0  0  0
 45 71  1  0  0  0  0
 46 49  1  0  0  0  0
 46 71  1  0  0  0  0
 47 74  1  0  0  0  0
 48 70  1  0  0  0  0
 49 69  1  0  0  0  0
 50 63  1  0  0  0  0
 51 64  1  0  0  0  0
 52 65  1  0  0  0  0
 53 65  1  0  0  0  0
 54 65  1  0  0  0  0
 55 66  1  0  0  0  0
 56 66  1  0  0  0  0
 57 66  1  0  0  0  0
 58 77  1  0  0  0  0
 59 76  1  0  0  0  0
 60 64  1  0  0  0  0
 61 64  1  0  0  0  0
 61 84  1  0  0  0  0
 62 66  1  0  0  0  0
 62 75  1  0  0  0  0
 63 77  1  0  0  0  0
 68 69  1  0  0  0  0
M  CHG  1  77   1
M  ISO  4  37 100  61 101  76 100  84 101
M  END
> <Batch ID>
0118

> <Smiles>
CNC(C)C(=O)NC(C(=O)N1Cc2cc([101O:1][101CH2:1]C(C)Cc3cc(C(C)(C)C)c(C[100NH:0][100C:0](=O)N4CCCC(n5nc(-c6ccc(Oc7ccc(F)cc7F)cc6)c(C(N)=O)c5N)C4)cn3)ccc2CC1C(=O)NC1CCCc2ccccc21)C(C)(C)C

> <Shape>
0.202

> <Color>
0.072

> <Negative vol penalty>
0.000

$$$$

  -OEChem-04052320183D

 84 92  0     1  0  0  0  0  0999 V2000
  -30.4871  -25.4476   13.4420 C   0  0  0  0  0  0  0  0  0  0  0  0
  -30.0677  -24.6521   14.5034 C   0  0  0  0  0  0  0  0  0  0  0  0
  -29.7887  -17.6021   20.1106 C   0  0  0  0  0  0  0  0  0  0  0  0
  -27.5298  -18.0765   20.8242 C   0  0  0  0  0  0  0  0  0  0  0  0
  -30.6950  -26.8127   13.6350 C   0  0  0  0  0  0  0  0  0  0  0  0
  -29.8572  -25.2211   15.7590 C   0  0  0  0  0  0  0  0  0  0  0  0
  -25.6058  -23.6132   19.8634 C   0  0  0  0  0  0  0  0  0  0  0  0
  -29.3554  -16.4096   19.5313 C   0  0  0  0  0  0  0  0  0  0  0  0
  -27.0964  -16.8839   20.2448 C   0  0  0  0  0  0  0  0  0  0  0  0
  -25.6567  -22.8075   21.0001 C   0  0  0  0  0  0  0  0  0  0  0  0
  -28.9045  -13.0651   18.1768 C   0  0  0  0  0  0  0  0  0  0  0  0
  -29.6682  -11.9193   18.3990 C   0  0  0  0  0  0  0  0  0  0  0  0
  -23.2424  -23.7123   26.7345 C   0  0  0  0  0  0  0  0  0  0  0  0
  -22.1277  -23.2750   25.9773 C   0  0  0  0  0  0  0  0  0  0  0  0
  -25.9752  -24.7685   22.3684 C   0  0  0  0  0  0  0  0  0  0  0  0
  -29.3119  -12.1432   20.7781 C   0  0  0  0  0  0  0  0  0  0  0  0
  -28.8760  -18.4355   20.7571 C   0  0  0  0  0  0  0  0  0  0  0  0
  -29.3955  -20.9331   20.7445 C   0  0  0  0  0  0  0  0  0  0  0  0
  -30.4776  -27.4004   14.8912 C   0  0  0  0  0  0  0  0  0  0  0  0
  -25.7504  -25.0040   19.9697 C   0  0  0  0  0  0  0  0  0  0  0  0
  -30.0637  -26.5951   15.9693 C   0  0  0  0  0  0  0  0  0  0  0  0
  -25.9232  -25.5898   21.2319 C   0  0  0  0  0  0  0  0  0  0  0  0
  -28.0092  -16.0505   19.5984 C   0  0  0  0  0  0  0  0  0  0  0  0
  -25.8443  -23.3848   22.2525 C   0  0  0  0  0  0  0  0  0  0  0  0
  -28.3445  -13.7500   19.2552 C   0  0  0  0  0  0  0  0  0  0  0  0
  -29.8719  -11.4583   19.6996 C   0  0  0  0  0  0  0  0  0  0  0  0
  -28.5482  -13.2891   20.5559 C   0  0  0  0  0  0  0  0  0  0  0  0
  -29.3231  -19.6673   21.3563 C   0  0  0  0  0  0  0  0  0  0  0  0
  -24.3174  -22.9308   26.3729 C   0  0  0  0  0  0  0  0  0  0  0  0
  -22.5554  -22.2393   25.1762 C   0  0  0  0  0  0  0  0  0  0  0  0
  -29.8790  -21.7622   21.7269 C   0  0  0  0  0  0  0  0  0  0  0  0
  -29.0558  -21.3244   19.4076 C   0  0  0  0  0  0  0  0  0  0  0  0
  -27.8395  -27.1326   18.8706 C   0  0  0  0  0  0  0  0  0  0  0  0
  -25.7640  -29.2605   20.1692 C   0  0  0  0  0  0  0  0  0  0  0  0
  -23.3078  -29.8868   22.4543 C   0  0  0  0  0  0  0  0  0  0  0  0
  -29.7370  -21.5127   27.7076 C   0  0  0  0  0  0  0  0  0  0  0  0
  -30.7612  -28.8717   15.0631 C   0  0  0  0  0  0  0  0  0  0  0  0
  -25.6664  -25.8616   18.7369 C   0  0  0  0  0  0  0  0  0  0  0  0
  -26.0633  -27.0798   21.4021 C   0  0  0  0  0  0  0  0  0  0  0  0
  -30.1547  -29.4647   16.3323 C   0  0  0  0  0  0  0  0  0  0  0  0
  -32.6292  -21.7223   25.6417 C   0  0  0  0  0  0  0  0  0  0  0  0
  -30.4356  -28.5628   17.5300 C   0  0  0  0  0  0  0  0  0  0  0  0
  -32.1164  -21.3336   24.2540 C   0  0  0  0  0  0  0  0  0  0  0  0
  -31.9403  -20.9197   26.7432 C   0  0  0  0  0  0  0  0  0  0  0  0
  -29.9536  -20.5768   25.3257 C   0  0  0  0  0  0  0  0  0  0  0  0
  -29.8007  -27.1799   17.3401 C   0  0  1  0  0  0  0  0  0  0  0  0
  -26.3400  -27.2198   18.9068 C   0  0  1  0  0  0  0  0  0  0  0  0
  -30.5787  -21.3991   24.1857 C   0  0  2  0  0  0  0  0  0  0  0  0
  -21.2425  -22.2647   23.0246 C   0  0  0  0  0  0  0  0  0  0  0  0
  -20.6554  -20.6173   24.8402 C   0  0  0  0  0  0  0  0  0  0  0  0
  -21.8324  -31.7296   23.3053 C   0  0  0  0  0  0  0  0  0  0  0  0
  -28.1270  -30.4454   21.6931 C   0  0  0  0  0  0  0  0  0  0  0  0
  -26.4899  -31.6019   23.1933 C   0  0  0  0  0  0  0  0  0  0  0  0
  -26.5373  -32.1337   20.7566 C   0  0  0  0  0  0  0  0  0  0  0  0
  -20.8491  -28.4359   21.6742 C   0  0  0  0  0  0  0  0  0  0  0  0
  -25.7145  -22.9623   26.8525 C   0  0  0  0  0  0  0  0  0  0  0  0
  -26.0046  -22.0594   28.0751 C   0  0  0  0  0  0  0  0  0  0  0  0
  -24.7506  -20.9952   24.7580 C   0  0  0  0  0  0  0  0  0  0  0  0
  -27.4629  -22.0733   28.5284 C   0  0  0  0  0  0  0  0  0  0  0  0
  -25.1425  -21.3885   23.3378 C   0  0  0  0  0  0  0  0  0  1  0  0
  -21.8038  -21.4277   24.1968 C   0  0  0  0  0  0  0  0  0  0  0  0
  -25.6068  -29.9111   21.5223 C   0  0  1  0  0  0  0  0  0  0  0  0
  -21.9617  -30.5760   22.3229 C   0  0  2  0  0  0  0  0  0  0  0  0
  -26.6896  -30.9947   21.7882 C   0  0  0  0  0  0  0  0  0  0  0  0
  -29.7284  -19.6857   22.6288 N   0  0  0  0  0  0  0  0  0  0  0  0
  -23.8880  -22.0387   25.4253 N   0  0  0  0  0  0  0  0  0  0  0  0
  -30.0602  -20.9733   22.8246 N   0  0  0  0  0  0  0  0  0  0  0  0
  -25.9807  -27.8753   20.1660 N   0  0  0  0  0  0  0  0  0  0  0  0
  -30.4841  -21.0248   26.6228 N   0  0  0  0  0  0  0  0  0  0  0  0
  -30.1627  -23.0818   21.7503 N   0  0  0  0  0  0  0  0  0  0  0  0
  -28.5732  -20.3464   18.5273 N   0  0  0  0  0  0  0  0  0  0  0  0
  -28.3786  -27.2363   17.6024 N   0  0  0  0  0  0  0  0  0  0  0  0
  -24.2366  -30.4089   21.5791 N   0  0  0  0  0  0  0  0  0  0  0  0
  -28.3639  -21.5861   27.5077 N   0  0  0  0  0  0  0  0  0  0  0  0
  -20.8574  -29.6100   22.5843 N   0  3  0  0  0  0  0  0  0  0  0  0
  -29.1923  -22.5031   19.0007 O   0  0  0  0  0  0  0  0  0  0  0  0
  -28.4616  -26.9837   19.9158 O   0  0  0  0  0  0  0  0  0  0  0  0
  -25.6898  -29.9546   19.1521 O   0  0  0  0  0  0  0  0  0  0  0  0
  -23.5157  -28.9786   23.2560 O   0  0  0  0  0  0  0  0  0  0  0  0
  -30.2557  -21.8623   28.7733 O   0  0  0  0  0  0  0  0  0  0  0  0
  -27.5859  -14.8870   19.0329 O   0  0  0  0  0  0  0  0  0  0  0  0
  -25.8951  -22.6006   23.3635 O   0  0  0  0  0  0  0  0  0  1  0  0
  -30.6041  -10.3571   19.9127 F   0  0  0  0  0  0  0  0  0  0  0  0
  -28.0118  -13.9422   21.5958 F   0  0  0  0  0  0  0  0  0  0  0  0
  1  2  1  0  0  0  0
  1  5  2  0  0  0  0
  2  6  2  0  0  0  0
  3  8  2  0  0  0  0
  3 17  1  0  0  0  0
  4  9  1  0  0  0  0
  4 17  2  0  0  0  0
  5 19  1  0  0  0  0
  6 21  1  0  0  0  0
  7 10  2  0  0  0  0
  7 20  1  0  0  0  0
  8 23  1  0  0  0  0
  9 23  2  0  0  0  0
 10 24  1  0  0  0  0
 11 12  2  0  0  0  0
 11 25  1  0  0  0  0
 12 26  1  0  0  0  0
 13 14  1  0  0  0  0
 13 29  2  0  0  0  0
 14 30  2  0  0  0  0
 15 22  1  0  0  0  0
 15 24  2  0  0  0  0
 16 26  2  0  0  0  0
 16 27  1  0  0  0  0
 17 28  1  0  0  0  0
 18 28  1  0  0  0  0
 18 31  2  0  0  0  0
 18 32  1  0  0  0  0
 19 21  2  0  0  0  0
 19 37  1  0  0  0  0
 20 22  2  0  0  0  0
 20 38  1  0  0  0  0
 21 46  1  0  0  0  0
 22 39  1  0  0  0  0
 23 81  1  0  0  0  0
 24 82  1  0  0  0  0
 25 27  2  0  0  0  0
 25 81  1  0  0  0  0
 26 83  1  0  0  0  0
 27 84  1  0  0  0  0
 28 65  2  0  0  0  0
 29 56  1  0  0  0  0
 29 66  1  0  0  0  0
 30 61  1  0  0  0  0
 30 66  1  0  0  0  0
 31 67  1  0  0  0  0
 31 70  1  0  0  0  0
 32 71  1  0  0  0  0
 32 76  2  0  0  0  0
 33 47  1  0  0  0  0
 33 72  1  0  0  0  0
 33 77  2  0  0  0  0
 34 62  1  0  0  0  0
 34 68  1  0  0  0  0
 34 78  2  0  0  0  0
 35 63  1  0  0  0  0
 35 73  1  0  0  0  0
 35 79  2  0  0  0  0
 36 69  1  0  0  0  0
 36 74  1  0  0  0  0
 36 80  2  0  0  0  0
 37 40  1  0  0  0  0
 38 47  1  0  0  0  0
 39 68  1  0  0  0  0
 40 42  1  0  0  0  0
 41 43  1  0  0  0  0
 41 44  1  0  0  0  0
 42 46  1  0  0  0  0
 43 48  1  0  0  0  0
 44 69  1  0  0  0  0
 45 48  1  0  0  0  0
 45 69  1  0  0  0  0
 46 72  1  0  0  0  0
 47 68  1  0  0  0  0
 48 67  1  0  0  0  0
 49 61  1  0  0  0  0
 50 61  1  0  0  0  0
 51 63  1  0  0  0  0
 52 64  1  0  0  0  0
 53 64  1  0  0  0  0
 54 64  1  0  0  0  0
 55 75  1  0  0  0  0
 56 57  1  0  0  0  0
 57 59  1  0  0  0  0
 58 60  1  0  0  0  0
 58 66  1  0  0  0  0
 59 74  1  0  0  0  0
 60 82  1  0  0  0  0
 62 64  1  0  0  0  0
 62 73  1  0  0  0  0
 63 75  1  0  0  0  0
 65 67  1  0  0  0  0
M  CHG  1  75   1
M  ISO  4  36 100  60 101  74 100  82 101
M  END
> <Batch ID>
0118

> <Smiles>
CNC(C)C(=O)NC(C(=O)N1Cc2cc([101O:1][101CH2:1]Cn3c(CCC[100NH:0][100C:0](=O)N4CCCC(n5nc(-c6ccc(Oc7ccc(F)cc7F)cc6)c(C(N)=O)c5N)C4)ccc3C(C)C)ccc2CC1C(=O)NC1CCCc2ccccc21)C(C)(C)C

> <Shape>
0.194

> <Color>
0.085

> <Negative vol penalty>
0.000

$$$$

  -OEChem-04052320183D

 87 95  0     1  0  0  0  0  0999 V2000
  -16.3128  -29.2796   27.0909 C   0  0  0  0  0  0  0  0  0  0  0  0
  -16.8249  -27.9902   26.9873 C   0  0  0  0  0  0  0  0  0  0  0  0
  -28.8772  -11.9942   21.0306 C   0  0  0  0  0  0  0  0  0  0  0  0
  -28.4000  -12.0912   18.6642 C   0  0  0  0  0  0  0  0  0  0  0  0
  -16.4400  -30.1668   26.0229 C   0  0  0  0  0  0  0  0  0  0  0  0
  -17.4636  -27.5870   25.8152 C   0  0  0  0  0  0  0  0  0  0  0  0
  -22.7626  -23.3484   23.5193 C   0  0  0  0  0  0  0  0  0  0  0  0
  -30.2278  -11.7878   20.7498 C   0  0  0  0  0  0  0  0  0  0  0  0
  -29.7506  -11.8848   18.3834 C   0  0  0  0  0  0  0  0  0  0  0  0
  -23.0048  -22.3292   22.5992 C   0  0  0  0  0  0  0  0  0  0  0  0
  -32.8943  -13.6530   19.8311 C   0  0  0  0  0  0  0  0  0  0  0  0
  -33.8280  -14.3865   20.5629 C   0  0  0  0  0  0  0  0  0  0  0  0
  -23.2362  -23.9728   20.8487 C   0  0  0  0  0  0  0  0  0  0  0  0
  -34.7924  -12.3322   21.3916 C   0  0  0  0  0  0  0  0  0  0  0  0
  -27.9632  -12.1458   19.9878 C   0  0  0  0  0  0  0  0  0  0  0  0
  -25.9159  -13.5928   20.4591 C   0  0  0  0  0  0  0  0  0  0  0  0
  -17.0891  -29.7773   24.8407 C   0  0  0  0  0  0  0  0  0  0  0  0
  -22.7446  -24.6889   23.1082 C   0  0  0  0  0  0  0  0  0  0  0  0
  -17.5984  -28.4694   24.7299 C   0  0  0  0  0  0  0  0  0  0  0  0
  -22.9961  -25.0072   21.7660 C   0  0  0  0  0  0  0  0  0  0  0  0
  -30.6645  -11.7332   19.4262 C   0  0  0  0  0  0  0  0  0  0  0  0
  -23.2388  -22.6412   21.2632 C   0  0  0  0  0  0  0  0  0  0  0  0
  -32.9096  -12.2590   19.8796 C   0  0  0  0  0  0  0  0  0  0  0  0
  -34.7771  -13.7262   21.3432 C   0  0  0  0  0  0  0  0  0  0  0  0
  -33.8587  -11.5986   20.6598 C   0  0  0  0  0  0  0  0  0  0  0  0
  -26.5678  -12.3584   20.2772 C   0  0  0  0  0  0  0  0  0  0  0  0
  -24.6076  -13.2566   20.7083 C   0  0  0  0  0  0  0  0  0  0  0  0
  -17.8889  -10.1632   15.0232 C   0  0  0  0  0  0  0  0  0  0  0  0
  -26.4454  -14.9241   20.4073 C   0  0  0  0  0  0  0  0  0  0  0  0
  -20.5601  -26.9979   23.0819 C   0  0  0  0  0  0  0  0  0  0  0  0
  -23.0596  -28.8169   22.0990 C   0  0  0  0  0  0  0  0  0  0  0  0
  -26.1231  -28.9652   20.6024 C   0  0  0  0  0  0  0  0  0  0  0  0
  -21.2844   -8.4810   19.2938 C   0  0  0  0  0  0  0  0  0  0  0  0
  -17.1607  -30.7562   23.6955 C   0  0  0  0  0  0  0  0  0  0  0  0
  -22.5082  -25.7783   24.1180 C   0  0  0  0  0  0  0  0  0  0  0  0
  -23.0077  -26.4319   21.2776 C   0  0  0  0  0  0  0  0  0  0  0  0
  -18.4028  -11.5856   14.9491 C   0  0  0  0  0  0  0  0  0  0  0  0
  -18.1818  -30.3712   22.6281 C   0  0  0  0  0  0  0  0  0  0  0  0
  -21.9297   -9.7495   22.5575 C   0  0  0  0  0  0  0  0  0  0  0  0
  -18.0464  -28.8953   22.2675 C   0  0  0  0  0  0  0  0  0  0  0  0
  -23.1328  -10.6733   22.3595 C   0  0  0  0  0  0  0  0  0  0  0  0
  -20.2650  -11.0009   16.4929 C   0  0  0  0  0  0  0  0  0  0  0  0
  -22.0122   -8.5156   21.6614 C   0  0  0  0  0  0  0  0  0  0  0  0
  -23.4063   -9.7271   20.0296 C   0  0  0  0  0  0  0  0  0  0  0  0
  -18.3197  -28.0027   23.4841 C   0  0  1  0  0  0  0  0  0  0  0  0
  -22.0037  -27.0746   23.4915 C   0  0  1  0  0  0  0  0  0  0  0  0
  -19.1783  -12.0307   16.1863 C   0  0  1  0  0  0  0  0  0  0  0  0
  -23.3401  -11.0130   20.8713 C   0  0  2  0  0  0  0  0  0  0  0  0
  -19.6224   -9.6457   16.7837 C   0  0  2  0  0  0  0  0  0  0  0  0
  -27.8991  -30.5963   19.9074 C   0  0  0  0  0  0  0  0  0  0  0  0
  -21.3431  -29.6708   19.7254 C   0  0  0  0  0  0  0  0  0  0  0  0
  -23.4246  -30.4981   18.6069 C   0  0  0  0  0  0  0  0  0  0  0  0
  -22.6810  -31.5123   20.7612 C   0  0  0  0  0  0  0  0  0  0  0  0
  -28.1374  -27.7002   22.3633 C   0  0  0  0  0  0  0  0  0  0  0  0
  -19.7828  -13.4170   15.9769 C   0  0  0  0  0  0  0  0  0  0  0  0
  -20.6774   -8.5496   16.8884 C   0  0  0  0  0  0  0  0  0  0  0  0
  -20.0911  -14.1004   17.3088 C   0  0  0  0  0  0  0  0  0  0  0  0
  -20.7273  -15.4750   17.0949 C   0  0  0  0  0  0  0  0  0  0  0  0
  -21.0051  -16.1735   18.4281 C   0  0  0  0  0  0  0  0  0  0  0  0
  -21.6758  -17.5319   18.2122 C   0  0  0  0  0  0  0  0  0  0  0  0
  -21.9658  -18.2815   19.5162 C   0  0  0  0  0  0  0  0  0  0  0  0
  -22.6170  -19.6510   19.2975 C   0  0  0  0  0  0  0  0  0  0  0  0
  -22.8636  -20.3852   20.6108 C   0  0  0  0  0  0  0  0  0  1  0  0
  -23.6567  -29.1799   20.7608 C   0  0  1  0  0  0  0  0  0  0  0  0
  -27.4082  -29.6656   21.0054 C   0  0  2  0  0  0  0  0  0  0  0  0
  -22.7743  -30.1882   19.9721 C   0  0  0  0  0  0  0  0  0  0  0  0
  -25.7420  -11.3159   20.4005 N   0  0  0  0  0  0  0  0  0  0  0  0
  -24.5576  -11.8944   20.6626 N   0  0  0  0  0  0  0  0  0  0  0  0
  -18.6072   -9.2833   15.8009 N   0  0  0  0  0  0  0  0  0  0  0  0
  -22.7651  -27.4612   22.3020 N   0  0  0  0  0  0  0  0  0  0  0  0
  -22.2073   -8.9069   20.2633 N   0  0  0  0  0  0  0  0  0  0  0  0
  -23.5068  -13.9963   20.9599 N   0  0  0  0  0  0  0  0  0  0  0  0
  -27.8111  -15.0901   20.1395 N   0  0  0  0  0  0  0  0  0  0  0  0
  -19.7426  -27.9045   23.7294 N   0  0  0  0  0  0  0  0  0  0  0  0
  -25.0092  -29.6547   21.0326 N   0  0  0  0  0  0  0  0  0  0  0  0
  -21.5399   -8.9014   17.9943 N   0  0  0  0  0  0  0  0  0  0  0  0
  -28.4769  -28.6657   21.2865 N   0  3  0  0  0  0  0  0  0  0  0  0
  -16.9231   -9.8084   14.3451 O   0  0  0  0  0  0  0  0  0  0  0  0
  -25.7320  -15.9360   20.6093 O   0  0  0  0  0  0  0  0  0  0  0  0
  -20.2138  -26.1779   22.2396 O   0  0  0  0  0  0  0  0  0  0  0  0
  -22.8684  -29.7025   22.9362 O   0  0  0  0  0  0  0  0  0  0  0  0
  -26.1088  -27.9138   19.9661 O   0  0  0  0  0  0  0  0  0  0  0  0
  -20.3022   -7.7827   19.5670 O   0  0  0  0  0  0  0  0  0  0  0  0
  -31.9824  -11.5321   19.1518 O   0  0  0  0  0  0  0  0  0  0  0  0
  -23.4767  -21.6408   20.3562 O   0  0  0  0  0  0  0  0  0  1  0  0
  -35.6746  -14.4308   22.0447 F   0  0  0  0  0  0  0  0  0  0  0  0
  -33.8791  -10.2596   20.7094 F   0  0  0  0  0  0  0  0  0  0  0  0
  1  2  1  0  0  0  0
  1  5  2  0  0  0  0
  2  6  2  0  0  0  0
  3  8  2  0  0  0  0
  3 15  1  0  0  0  0
  4  9  1  0  0  0  0
  4 15  2  0  0  0  0
  5 17  1  0  0  0  0
  6 19  1  0  0  0  0
  7 10  2  0  0  0  0
  7 18  1  0  0  0  0
  8 21  1  0  0  0  0
  9 21  2  0  0  0  0
 10 22  1  0  0  0  0
 11 12  2  0  0  0  0
 11 23  1  0  0  0  0
 12 24  1  0  0  0  0
 13 20  1  0  0  0  0
 13 22  2  0  0  0  0
 14 24  2  0  0  0  0
 14 25  1  0  0  0  0
 15 26  1  0  0  0  0
 16 26  1  0  0  0  0
 16 27  2  0  0  0  0
 16 29  1  0  0  0  0
 17 19  2  0  0  0  0
 17 34  1  0  0  0  0
 18 20  2  0  0  0  0
 18 35  1  0  0  0  0
 19 45  1  0  0  0  0
 20 36  1  0  0  0  0
 21 84  1  0  0  0  0
 22 85  1  0  0  0  0
 23 25  2  0  0  0  0
 23 84  1  0  0  0  0
 24 86  1  0  0  0  0
 25 87  1  0  0  0  0
 26 67  2  0  0  0  0
 27 68  1  0  0  0  0
 27 72  1  0  0  0  0
 28 37  1  0  0  0  0
 28 69  1  0  0  0  0
 28 78  2  0  0  0  0
 29 73  1  0  0  0  0
 29 79  2  0  0  0  0
 30 46  1  0  0  0  0
 30 74  1  0  0  0  0
 30 80  2  0  0  0  0
 31 64  1  0  0  0  0
 31 70  1  0  0  0  0
 31 81  2  0  0  0  0
 32 65  1  0  0  0  0
 32 75  1  0  0  0  0
 32 82  2  0  0  0  0
 33 71  1  0  0  0  0
 33 76  1  0  0  0  0
 33 83  2  0  0  0  0
 34 38  1  0  0  0  0
 35 46  1  0  0  0  0
 36 70  1  0  0  0  0
 37 47  1  0  0  0  0
 38 40  1  0  0  0  0
 39 41  1  0  0  0  0
 39 43  1  0  0  0  0
 40 45  1  0  0  0  0
 41 48  1  0  0  0  0
 42 47  1  0  0  0  0
 42 49  1  0  0  0  0
 43 71  1  0  0  0  0
 44 48  1  0  0  0  0
 44 71  1  0  0  0  0
 45 74  1  0  0  0  0
 46 70  1  0  0  0  0
 47 55  1  0  0  0  0
 48 68  1  0  0  0  0
 49 56  1  0  0  0  0
 49 69  1  0  0  0  0
 50 65  1  0  0  0  0
 51 66  1  0  0  0  0
 52 66  1  0  0  0  0
 53 66  1  0  0  0  0
 54 77  1  0  0  0  0
 55 57  1  0  0  0  0
 56 76  1  0  0  0  0
 57 58  1  0  0  0  0
 58 59  1  0  0  0  0
 59 60  1  0  0  0  0
 60 61  1  0  0  0  0
 61 62  1  0  0  0  0
 62 63  1  0  0  0  0
 63 85  1  0  0  0  0
 64 66  1  0  0  0  0
 64 75  1  0  0  0  0
 65 77  1  0  0  0  0
 67 68  1  0  0  0  0
M  CHG  1  77   1
M  ISO  4  33 100  63 101  76 100  85 101
M  END
> <Batch ID>
0118

> <Smiles>
CNC(C)C(=O)NC(C(=O)N1Cc2cc([101O:1][101CH2:1]CCCCCCCC3CC(=O)NC(C[100NH:0][100C:0](=O)N4CCCC(n5nc(-c6ccc(Oc7ccc(F)cc7F)cc6)c(C(N)=O)c5N)C4)C3)ccc2CC1C(=O)NC1CCCc2ccccc21)C(C)(C)C

> <Shape>
0.226

> <Color>
0.093

> <Negative vol penalty>
0.000

$$$$

  -OEChem-04052320183D

 83 91  0     1  0  0  0  0  0999 V2000
  -30.8958  -23.0911   15.6720 C   0  0  0  0  0  0  0  0  0  0  0  0
  -29.7705  -22.3897   16.0929 C   0  0  0  0  0  0  0  0  0  0  0  0
  -28.5078  -16.4686   21.0684 C   0  0  0  0  0  0  0  0  0  0  0  0
  -27.0098  -17.1726   19.3084 C   0  0  0  0  0  0  0  0  0  0  0  0
  -31.3762  -24.1568   16.4319 C   0  0  0  0  0  0  0  0  0  0  0  0
  -29.1255  -22.7530   17.2746 C   0  0  0  0  0  0  0  0  0  0  0  0
  -22.6044  -22.9896   20.2301 C   0  0  0  0  0  0  0  0  0  0  0  0
  -29.1869  -17.6834   20.9763 C   0  0  0  0  0  0  0  0  0  0  0  0
  -27.6890  -18.3875   19.2164 C   0  0  0  0  0  0  0  0  0  0  0  0
  -21.9263  -22.5797   21.3773 C   0  0  0  0  0  0  0  0  0  0  0  0
  -31.0907  -20.7433   21.4533 C   0  0  0  0  0  0  0  0  0  0  0  0
  -31.4120  -21.3984   22.6421 C   0  0  0  0  0  0  0  0  0  0  0  0
  -22.7988  -24.4879   22.5675 C   0  0  0  0  0  0  0  0  0  0  0  0
  -29.0662  -21.5260   23.2058 C   0  0  0  0  0  0  0  0  0  0  0  0
  -27.4192  -16.2131   20.2344 C   0  0  0  0  0  0  0  0  0  0  0  0
  -27.2495  -13.6699   20.1300 C   0  0  0  0  0  0  0  0  0  0  0  0
  -30.7310  -24.5395   17.6185 C   0  0  0  0  0  0  0  0  0  0  0  0
  -23.3949  -24.1477   20.2461 C   0  0  0  0  0  0  0  0  0  0  0  0
  -29.5985  -23.8240   18.0517 C   0  0  0  0  0  0  0  0  0  0  0  0
  -23.4839  -24.9117   21.4185 C   0  0  0  0  0  0  0  0  0  0  0  0
  -28.7775  -18.6429   20.0504 C   0  0  0  0  0  0  0  0  0  0  0  0
  -22.0257  -23.3273   22.5470 C   0  0  0  0  0  0  0  0  0  0  0  0
  -29.7571  -20.4797   21.1407 C   0  0  0  0  0  0  0  0  0  0  0  0
  -30.3998  -21.7897   23.5184 C   0  0  0  0  0  0  0  0  0  0  0  0
  -28.7449  -20.8710   22.0169 C   0  0  0  0  0  0  0  0  0  0  0  0
  -26.7176  -14.9581   20.3286 C   0  0  0  0  0  0  0  0  0  0  0  0
  -26.1862  -12.8245   20.3329 C   0  0  0  0  0  0  0  0  0  0  0  0
  -22.7385  -18.9126   24.5401 C   0  0  0  0  0  0  0  0  0  0  0  0
  -22.7166  -20.2480   24.3653 C   0  0  0  0  0  0  0  0  0  0  0  0
  -28.5852  -13.2730   19.7924 C   0  0  0  0  0  0  0  0  0  0  0  0
  -26.4811  -24.7633   19.7990 C   0  0  0  0  0  0  0  0  0  0  0  0
  -25.4982  -27.8467   20.0196 C   0  0  0  0  0  0  0  0  0  0  0  0
  -23.2028  -29.7392   22.0609 C   0  0  0  0  0  0  0  0  0  0  0  0
  -22.6450  -16.6198   21.7928 C   0  0  0  0  0  0  0  0  0  0  0  0
  -31.3151  -25.6680   18.4309 C   0  0  0  0  0  0  0  0  0  0  0  0
  -24.0986  -24.5909   18.9928 C   0  0  0  0  0  0  0  0  0  0  0  0
  -24.3032  -26.1739   21.4822 C   0  0  0  0  0  0  0  0  0  0  0  0
  -30.3532  -26.2275   19.4759 C   0  0  0  0  0  0  0  0  0  0  0  0
  -21.4574  -13.6120   19.8071 C   0  0  0  0  0  0  0  0  0  0  0  0
  -29.6859  -25.0940   20.2484 C   0  0  0  0  0  0  0  0  0  0  0  0
  -22.8468  -13.0007   19.6686 C   0  0  0  0  0  0  0  0  0  0  0  0
  -21.2751  -16.9259   25.0341 C   0  0  0  0  0  0  0  0  0  0  0  0
  -21.5616  -15.0740   20.2174 C   0  0  0  0  0  0  0  0  0  0  0  0
  -22.2331  -16.0638   24.2187 C   0  0  0  0  0  0  0  0  0  0  0  0
  -23.0417  -14.1105   21.9902 C   0  0  0  0  0  0  0  0  0  0  0  0
  -28.8567  -24.2037   19.3150 C   0  0  1  0  0  0  0  0  0  0  0  0
  -23.5746  -18.0817   23.5729 C   0  0  1  0  0  0  0  0  0  0  0  0
  -25.2881  -25.5059   19.2672 C   0  0  1  0  0  0  0  0  0  0  0  0
  -23.6995  -13.1901   20.9399 C   0  0  2  0  0  0  0  0  0  0  0  0
  -21.9330  -18.1905   25.6332 C   0  0  0  0  0  0  0  0  0  0  0  0
  -24.9779  -17.7478   24.0868 C   0  0  0  0  0  0  0  0  0  0  0  0
  -20.7855  -19.0498   26.2229 C   0  0  0  0  0  0  0  0  0  0  0  0
  -22.8506  -17.8134   26.8142 C   0  0  0  0  0  0  0  0  0  0  0  0
  -21.9365  -31.8483   21.5653 C   0  0  0  0  0  0  0  0  0  0  0  0
  -21.7542  -23.6011   25.9387 C   0  0  0  0  0  0  0  0  0  0  0  0
  -27.8672  -29.2377   21.3474 C   0  0  0  0  0  0  0  0  0  0  0  0
  -26.2523  -30.8443   22.3861 C   0  0  0  0  0  0  0  0  0  0  0  0
  -26.4625  -30.7198   19.9036 C   0  0  0  0  0  0  0  0  0  0  0  0
  -20.6093  -28.4741   22.7185 C   0  0  0  0  0  0  0  0  0  0  0  0
  -21.9420  -21.1895   25.2352 C   0  0  0  0  0  0  0  0  0  0  0  0
  -25.3247  -28.8354   21.1471 C   0  0  1  0  0  0  0  0  0  0  0  0
  -21.8740  -30.3300   21.6253 C   0  0  2  0  0  0  0  0  0  0  0  0
  -22.1617  -22.6481   24.8221 C   0  0  1  0  0  0  0  0  0  1  0  0
  -26.4740  -29.8813   21.2003 C   0  0  0  0  0  0  0  0  0  0  0  0
  -25.4175  -14.9378   20.6340 N   0  0  0  0  0  0  0  0  0  0  0  0
  -25.1234  -13.6265   20.6288 N   0  0  0  0  0  0  0  0  0  0  0  0
  -24.9776  -26.5623   20.2325 N   0  0  0  0  0  0  0  0  0  0  0  0
  -22.3914  -15.2925   21.4040 N   0  0  0  0  0  0  0  0  0  0  0  0
  -22.8623  -16.8603   23.1595 N   0  0  0  0  0  0  0  0  0  0  0  0
  -26.0659  -11.4807   20.2852 N   0  0  0  0  0  0  0  0  0  0  0  0
  -28.9252  -13.1559   18.4378 N   0  0  0  0  0  0  0  0  0  0  0  0
  -27.5995  -24.8434   18.9914 N   0  0  0  0  0  0  0  0  0  0  0  0
  -23.9963  -29.4152   20.9809 N   0  0  0  0  0  0  0  0  0  0  0  0
  -20.7968  -29.9412   22.5789 N   0  3  0  0  0  0  0  0  0  0  0  0
  -29.4468  -13.0134   20.6663 O   0  0  0  0  0  0  0  0  0  0  0  0
  -26.3939  -24.1633   20.8640 O   0  0  0  0  0  0  0  0  0  0  0  0
  -26.0680  -28.2030   18.9852 O   0  0  0  0  0  0  0  0  0  0  0  0
  -23.5079  -29.5843   23.2414 O   0  0  0  0  0  0  0  0  0  0  0  0
  -22.6939  -17.5344   20.9603 O   0  0  0  0  0  0  0  0  0  0  0  0
  -29.4398  -19.8286   19.9604 O   0  0  0  0  0  0  0  0  0  0  0  0
  -21.3618  -22.9270   23.6745 O   0  0  0  0  0  0  0  0  0  1  0  0
  -30.7085  -22.4174   24.6607 F   0  0  0  0  0  0  0  0  0  0  0  0
  -27.4620  -20.6194   21.7226 F   0  0  0  0  0  0  0  0  0  0  0  0
  1  2  1  0  0  0  0
  1  5  2  0  0  0  0
  2  6  2  0  0  0  0
  3  8  2  0  0  0  0
  3 15  1  0  0  0  0
  4  9  1  0  0  0  0
  4 15  2  0  0  0  0
  5 17  1  0  0  0  0
  6 19  1  0  0  0  0
  7 10  2  0  0  0  0
  7 18  1  0  0  0  0
  8 21  1  0  0  0  0
  9 21  2  0  0  0  0
 10 22  1  0  0  0  0
 11 12  2  0  0  0  0
 11 23  1  0  0  0  0
 12 24  1  0  0  0  0
 13 20  1  0  0  0  0
 13 22  2  0  0  0  0
 14 24  2  0  0  0  0
 14 25  1  0  0  0  0
 15 26  1  0  0  0  0
 16 26  1  0  0  0  0
 16 27  2  0  0  0  0
 16 30  1  0  0  0  0
 17 19  2  0  0  0  0
 17 35  1  0  0  0  0
 18 20  2  0  0  0  0
 18 36  1  0  0  0  0
 19 46  1  0  0  0  0
 20 37  1  0  0  0  0
 21 80  1  0  0  0  0
 22 81  1  0  0  0  0
 23 25  2  0  0  0  0
 23 80  1  0  0  0  0
 24 82  1  0  0  0  0
 25 83  1  0  0  0  0
 26 65  2  0  0  0  0
 27 66  1  0  0  0  0
 27 70  1  0  0  0  0
 28 29  2  0  0  0  0
 28 47  1  0  0  0  0
 28 50  1  0  0  0  0
 29 60  1  0  0  0  0
 30 71  1  0  0  0  0
 30 75  2  0  0  0  0
 31 48  1  0  0  0  0
 31 72  1  0  0  0  0
 31 76  2  0  0  0  0
 32 61  1  0  0  0  0
 32 67  1  0  0  0  0
 32 77  2  0  0  0  0
 33 62  1  0  0  0  0
 33 73  1  0  0  0  0
 33 78  2  0  0  0  0
 34 68  1  0  0  0  0
 34 69  1  0  0  0  0
 34 79  2  0  0  0  0
 35 38  1  0  0  0  0
 36 48  1  0  0  0  0
 37 67  1  0  0  0  0
 38 40  1  0  0  0  0
 39 41  1  0  0  0  0
 39 43  1  0  0  0  0
 40 46  1  0  0  0  0
 41 49  1  0  0  0  0
 42 44  1  0  0  0  0
 42 50  1  0  0  0  0
 43 68  1  0  0  0  0
 44 69  1  0  0  0  0
 45 49  1  0  0  0  0
 45 68  1  0  0  0  0
 46 72  1  0  0  0  0
 47 51  1  0  0  0  0
 47 69  1  0  0  0  0
 48 67  1  0  0  0  0
 49 66  1  0  0  0  0
 50 52  1  0  0  0  0
 50 53  1  0  0  0  0
 54 62  1  0  0  0  0
 55 63  1  0  0  0  0
 56 64  1  0  0  0  0
 57 64  1  0  0  0  0
 58 64  1  0  0  0  0
 59 74  1  0  0  0  0
 60 63  1  0  0  0  0
 61 64  1  0  0  0  0
 61 73  1  0  0  0  0
 62 74  1  0  0  0  0
 63 81  1  0  0  0  0
 65 66  1  0  0  0  0
M  CHG  1  74   1
M  ISO  4  34 100  63 101  69 100  81 101
M  END
> <Batch ID>
0118

> <Smiles>
CNC(C)C(=O)NC(C(=O)N1Cc2cc([101O:1][101CH:1](C)CC=C3C(C)[100N:0]([100C:0](=O)N4CCCC(n5nc(-c6ccc(Oc7ccc(F)cc7F)cc6)c(C(N)=O)c5N)C4)CCC3(C)C)ccc2CC1C(=O)NC1CCCc2ccccc21)C(C)(C)C

> <Shape>
0.236

> <Color>
0.070

> <Negative vol penalty>
0.000

$$$$

  -OEChem-04052320183D

 86 95  0     1  0  0  0  0  0999 V2000
  -43.4573  -22.1316   18.7103 C   0  0  0  0  0  0  0  0  0  0  0  0
  -42.2032  -21.5315   18.6595 C   0  0  0  0  0  0  0  0  0  0  0  0
  -23.0743   -9.8678   19.9412 C   0  0  0  0  0  0  0  0  0  0  0  0
  -23.8377   -9.8742   22.2334 C   0  0  0  0  0  0  0  0  0  0  0  0
  -43.5682  -23.4874   19.0160 C   0  0  0  0  0  0  0  0  0  0  0  0
  -41.0593  -22.2868   18.9154 C   0  0  0  0  0  0  0  0  0  0  0  0
  -35.5594  -21.6399   16.3004 C   0  0  0  0  0  0  0  0  0  0  0  0
  -22.3319   -8.7138   20.1917 C   0  0  0  0  0  0  0  0  0  0  0  0
  -23.0953   -8.7202   22.4839 C   0  0  0  0  0  0  0  0  0  0  0  0
  -34.3925  -21.0000   16.7161 C   0  0  0  0  0  0  0  0  0  0  0  0
  -19.8688   -7.9189   23.0909 C   0  0  0  0  0  0  0  0  0  0  0  0
  -19.1137   -7.8776   24.2629 C   0  0  0  0  0  0  0  0  0  0  0  0
  -33.5466  -23.0989   17.5519 C   0  0  0  0  0  0  0  0  0  0  0  0
  -20.3581   -5.9409   24.9964 C   0  0  0  0  0  0  0  0  0  0  0  0
  -23.8273  -10.4480   20.9621 C   0  0  0  0  0  0  0  0  0  0  0  0
  -24.1665  -12.9735   20.8430 C   0  0  0  0  0  0  0  0  0  0  0  0
  -42.4244  -24.2618   19.2663 C   0  0  0  0  0  0  0  0  0  0  0  0
  -35.7335  -23.0143   16.5175 C   0  0  0  0  0  0  0  0  0  0  0  0
  -41.1551  -23.6539   19.2261 C   0  0  0  0  0  0  0  0  0  0  0  0
  -34.7155  -23.7543   17.1357 C   0  0  0  0  0  0  0  0  0  0  0  0
  -22.3424   -8.1400   21.4630 C   0  0  0  0  0  0  0  0  0  0  0  0
  -33.3871  -21.7290   17.3446 C   0  0  0  0  0  0  0  0  0  0  0  0
  -20.8686   -6.9712   22.8715 C   0  0  0  0  0  0  0  0  0  0  0  0
  -19.3584   -6.8886   25.2157 C   0  0  0  0  0  0  0  0  0  0  0  0
  -21.1132   -5.9822   23.8243 C   0  0  0  0  0  0  0  0  0  0  0  0
  -24.5948  -11.6397   20.7039 C   0  0  0  0  0  0  0  0  0  0  0  0
  -25.2573  -13.7243   20.4785 C   0  0  0  0  0  0  0  0  0  0  0  0
  -22.8961  -13.4879   21.2642 C   0  0  0  0  0  0  0  0  0  0  0  0
  -37.8005  -24.7811   18.1635 C   0  0  0  0  0  0  0  0  0  0  0  0
  -36.2386  -27.2398   16.7361 C   0  0  0  0  0  0  0  0  0  0  0  0
  -33.3914  -28.3880   15.2454 C   0  0  0  0  0  0  0  0  0  0  0  0
  -30.7404  -14.7485   20.6591 C   0  0  0  0  0  0  0  0  0  0  0  0
  -42.5976  -25.7129   19.6391 C   0  0  0  0  0  0  0  0  0  0  0  0
  -36.9867  -23.6947   16.0390 C   0  0  0  0  0  0  0  0  0  0  0  0
  -34.8448  -25.2358   17.3739 C   0  0  0  0  0  0  0  0  0  0  0  0
  -41.3113  -26.5276   19.5293 C   0  0  0  0  0  0  0  0  0  0  0  0
  -30.6659  -23.1235   25.1948 C   0  0  0  0  0  0  0  0  0  0  0  0
  -29.5864  -23.4239   24.1596 C   0  0  0  0  0  0  0  0  0  0  0  0
  -31.8191  -22.3299   24.5886 C   0  0  0  0  0  0  0  0  0  0  0  0
  -29.6014  -12.3643   18.2727 C   0  0  0  0  0  0  0  0  0  0  0  0
  -40.1499  -25.7818   20.1787 C   0  0  0  0  0  0  0  0  0  0  0  0
  -29.0919  -22.1513   23.4758 C   0  0  0  0  0  0  0  0  0  0  0  0
  -31.3284  -21.0555   23.9054 C   0  0  0  0  0  0  0  0  0  0  0  0
  -28.1649  -12.0689   18.7076 C   0  0  0  0  0  0  0  0  0  0  0  0
  -31.3468  -17.9836   19.6587 C   0  0  0  0  0  0  0  0  0  0  0  0
  -30.5202  -12.5853   19.4723 C   0  0  0  0  0  0  0  0  0  0  0  0
  -28.6199  -13.3137   20.8622 C   0  0  0  0  0  0  0  0  0  0  0  0
  -31.5574  -20.2072   20.4819 C   0  0  0  0  0  0  0  0  0  0  0  0
  -39.8892  -24.4454   19.4733 C   0  0  1  0  0  0  0  0  0  0  0  0
  -37.2750  -25.0006   16.7731 C   0  0  1  0  0  0  0  0  0  0  0  0
  -30.2484  -21.3546   22.8569 C   0  0  0  0  0  0  0  0  0  0  0  0
  -31.3240  -19.4320   19.1932 C   0  0  1  0  0  0  0  0  0  0  0  0
  -27.6441  -13.1389   19.6860 C   0  0  2  0  0  0  0  0  0  0  0  0
  -30.5116  -18.0316   20.9316 C   0  0  1  0  0  0  0  0  0  0  0  0
  -32.4012  -30.4515   14.2163 C   0  0  0  0  0  0  0  0  0  0  0  0
  -29.1367  -19.1162   23.2557 C   0  0  0  0  0  0  0  0  0  0  0  0
  -35.8130  -28.4198   19.5175 C   0  0  0  0  0  0  0  0  0  0  0  0
  -34.0556  -29.9111   18.5398 C   0  0  0  0  0  0  0  0  0  0  0  0
  -36.4173  -30.0901   17.7569 C   0  0  0  0  0  0  0  0  0  0  0  0
  -33.0520  -27.0580   12.6234 C   0  0  0  0  0  0  0  0  0  0  0  0
  -32.3554  -19.7343   18.1272 C   0  0  0  0  0  0  0  0  0  1  0  0
  -30.8061  -16.8984   21.8971 C   0  0  0  0  0  0  0  0  0  0  0  0
  -35.0353  -28.0847   17.0785 C   0  0  1  0  0  0  0  0  0  0  0  0
  -33.1703  -29.1648   13.9600 C   0  0  2  0  0  0  0  0  0  0  0  0
  -29.7357  -20.0612   22.2264 C   0  0  2  0  0  0  0  0  0  0  0  0
  -35.3284  -29.0981   18.2206 C   0  0  0  0  0  0  0  0  0  0  0  0
  -25.8591  -11.5454   20.2836 N   0  0  0  0  0  0  0  0  0  0  0  0
  -26.2346  -12.8294   20.1554 N   0  0  0  0  0  0  0  0  0  0  0  0
  -36.0915  -25.8544   16.8937 N   0  0  0  0  0  0  0  0  0  0  0  0
  -29.9700  -13.6128   20.3597 N   0  0  0  0  0  0  0  0  0  0  0  0
  -25.4664  -15.0560   20.4060 N   0  0  0  0  0  0  0  0  0  0  0  0
  -21.8856  -12.5775   21.6025 N   0  0  0  0  0  0  0  0  0  0  0  0
  -39.1752  -24.6595   18.2328 N   0  0  0  0  0  0  0  0  0  0  0  0
  -34.6006  -28.7010   15.8297 N   0  0  0  0  0  0  0  0  0  0  0  0
  -30.1416  -15.6763   21.5026 N   0  0  0  0  0  0  0  0  0  0  0  0
  -30.8856  -19.3697   21.5590 N   0  3  2  0  0  0  0  0  0  0  0  0
  -32.3997  -28.3431   12.9843 N   0  3  0  0  0  0  0  0  0  0  0  0
  -22.6588  -14.7182   21.3226 O   0  0  0  0  0  0  0  0  0  0  0  0
  -37.0168  -24.7275   19.1041 O   0  0  0  0  0  0  0  0  0  0  0  0
  -37.2687  -27.7883   16.3364 O   0  0  0  0  0  0  0  0  0  0  0  0
  -32.5718  -27.5868   15.6890 O   0  0  0  0  0  0  0  0  0  0  0  0
  -31.8755  -14.9253   20.2038 O   0  0  0  0  0  0  0  0  0  0  0  0
  -21.6179   -7.0140   21.7078 O   0  0  0  0  0  0  0  0  0  0  0  0
  -32.2474  -21.1068   17.7519 O   0  0  0  0  0  0  0  0  0  1  0  0
  -18.6342   -6.8499   26.3418 F   0  0  0  0  0  0  0  0  0  0  0  0
  -22.0731   -5.0698   23.6197 F   0  0  0  0  0  0  0  0  0  0  0  0
  1  2  1  0  0  0  0
  1  5  2  0  0  0  0
  2  6  2  0  0  0  0
  3  8  2  0  0  0  0
  3 15  1  0  0  0  0
  4  9  1  0  0  0  0
  4 15  2  0  0  0  0
  5 17  1  0  0  0  0
  6 19  1  0  0  0  0
  7 10  2  0  0  0  0
  7 18  1  0  0  0  0
  8 21  1  0  0  0  0
  9 21  2  0  0  0  0
 10 22  1  0  0  0  0
 11 12  2  0  0  0  0
 11 23  1  0  0  0  0
 12 24  1  0  0  0  0
 13 20  1  0  0  0  0
 13 22  2  0  0  0  0
 14 24  2  0  0  0  0
 14 25  1  0  0  0  0
 15 26  1  0  0  0  0
 16 26  1  0  0  0  0
 16 27  2  0  0  0  0
 16 28  1  0  0  0  0
 17 19  2  0  0  0  0
 17 33  1  0  0  0  0
 18 20  2  0  0  0  0
 18 34  1  0  0  0  0
 19 49  1  0  0  0  0
 20 35  1  0  0  0  0
 21 83  1  0  0  0  0
 22 84  1  0  0  0  0
 23 25  2  0  0  0  0
 23 83  1  0  0  0  0
 24 85  1  0  0  0  0
 25 86  1  0  0  0  0
 26 67  2  0  0  0  0
 27 68  1  0  0  0  0
 27 71  1  0  0  0  0
 28 72  1  0  0  0  0
 28 78  2  0  0  0  0
 29 50  1  0  0  0  0
 29 73  1  0  0  0  0
 29 79  2  0  0  0  0
 30 63  1  0  0  0  0
 30 69  1  0  0  0  0
 30 80  2  0  0  0  0
 31 64  1  0  0  0  0
 31 74  1  0  0  0  0
 31 81  2  0  0  0  0
 32 70  1  0  0  0  0
 32 75  1  0  0  0  0
 32 82  2  0  0  0  0
 33 36  1  0  0  0  0
 34 50  1  0  0  0  0
 35 69  1  0  0  0  0
 36 41  1  0  0  0  0
 37 38  1  0  0  0  0
 37 39  1  0  0  0  0
 38 42  1  0  0  0  0
 39 43  1  0  0  0  0
 40 44  1  0  0  0  0
 40 46  1  0  0  0  0
 41 49  1  0  0  0  0
 42 51  1  0  0  0  0
 43 51  1  0  0  0  0
 44 53  1  0  0  0  0
 45 52  1  0  0  0  0
 45 54  1  0  0  0  0
 46 70  1  0  0  0  0
 47 53  1  0  0  0  0
 47 70  1  0  0  0  0
 48 52  1  0  0  0  0
 48 76  1  0  0  0  0
 49 73  1  0  0  0  0
 50 69  1  0  0  0  0
 51 65  1  0  0  0  0
 52 61  1  0  0  0  0
 53 68  1  0  0  0  0
 54 62  1  0  0  0  0
 54 76  1  0  0  0  0
 55 64  1  0  0  0  0
 56 65  1  0  0  0  0
 57 66  1  0  0  0  0
 58 66  1  0  0  0  0
 59 66  1  0  0  0  0
 60 77  1  0  0  0  0
 61 84  1  0  0  0  0
 62 75  1  0  0  0  0
 63 66  1  0  0  0  0
 63 74  1  0  0  0  0
 64 77  1  0  0  0  0
 65 76  1  0  0  0  0
 67 68  1  0  0  0  0
M  CHG  2  76   1  77   1
M  ISO  4  32 100  61 101  75 100  84 101
M  END
> <Batch ID>
0118

> <Smiles>
CNC(C)C(=O)NC(C(=O)N1Cc2cc([101O:1][101CH2:1]C3CC(C[100NH:0][100C:0](=O)N4CCCC(n5nc(-c6ccc(Oc7ccc(F)cc7F)cc6)c(C(N)=O)c5N)C4)N(C(C)C4CCCCC4)C3)ccc2CC1C(=O)NC1CCCc2ccccc21)C(C)(C)C

> <Shape>
0.175

> <Color>
0.187

> <Negative vol penalty>
0.000

$$$$

  -OEChem-04052320183D

 85 93  0     1  0  0  0  0  0999 V2000
  -17.8595  -25.3716   22.9498 C   0  0  0  0  0  0  0  0  0  0  0  0
  -19.1307  -25.0815   22.4645 C   0  0  0  0  0  0  0  0  0  0  0  0
  -21.9043  -20.1441   20.0715 C   0  0  0  0  0  0  0  0  0  0  0  0
  -20.3206  -18.3204   20.0122 C   0  0  0  0  0  0  0  0  0  0  0  0
  -17.3992  -26.6877   22.9522 C   0  0  0  0  0  0  0  0  0  0  0  0
  -19.9418  -26.1071   21.9804 C   0  0  0  0  0  0  0  0  0  0  0  0
  -26.0372  -26.5010   22.4239 C   0  0  0  0  0  0  0  0  0  0  0  0
  -20.8567  -21.0481   20.2468 C   0  0  0  0  0  0  0  0  0  0  0  0
  -19.2730  -19.2245   20.1875 C   0  0  0  0  0  0  0  0  0  0  0  0
  -27.0641  -26.2009   21.5299 C   0  0  0  0  0  0  0  0  0  0  0  0
  -17.8727  -20.9482   22.7348 C   0  0  0  0  0  0  0  0  0  0  0  0
  -16.8837  -20.6199   23.6620 C   0  0  0  0  0  0  0  0  0  0  0  0
  -27.1456  -28.5157   20.8558 C   0  0  0  0  0  0  0  0  0  0  0  0
  -15.2203  -20.6854   21.9110 C   0  0  0  0  0  0  0  0  0  0  0  0
  -21.6363  -18.7802   19.9541 C   0  0  0  0  0  0  0  0  0  0  0  0
  -23.4453  -17.1813   20.7781 C   0  0  0  0  0  0  0  0  0  0  0  0
  -18.2088  -27.7313   22.4768 C   0  0  0  0  0  0  0  0  0  0  0  0
  -25.5486  -27.8109   22.5329 C   0  0  0  0  0  0  0  0  0  0  0  0
  -19.4914  -27.4382   21.9752 C   0  0  0  0  0  0  0  0  0  0  0  0
  -26.1142  -28.8303   21.7538 C   0  0  0  0  0  0  0  0  0  0  0  0
  -19.5410  -20.5884   20.3049 C   0  0  0  0  0  0  0  0  0  0  0  0
  -27.6164  -27.2077   20.7436 C   0  0  0  0  0  0  0  0  0  0  0  0
  -17.5355  -21.1452   21.3957 C   0  0  0  0  0  0  0  0  0  0  0  0
  -15.5575  -20.4885   23.2502 C   0  0  0  0  0  0  0  0  0  0  0  0
  -16.2093  -21.0137   20.9838 C   0  0  0  0  0  0  0  0  0  0  0  0
  -22.7180  -17.8458   19.7724 C   0  0  0  0  0  0  0  0  0  0  0  0
  -24.3546  -16.4128   20.0933 C   0  0  0  0  0  0  0  0  0  0  0  0
  -23.3108  -17.2523   22.2038 C   0  0  0  0  0  0  0  0  0  0  0  0
  -22.7362  -29.2048   22.0316 C   0  0  0  0  0  0  0  0  0  0  0  0
  -24.2391  -31.7979   23.2723 C   0  0  0  0  0  0  0  0  0  0  0  0
  -27.1753  -33.4205   23.8989 C   0  0  0  0  0  0  0  0  0  0  0  0
  -26.9198  -16.7796   14.8362 C   0  0  0  0  0  0  0  0  0  0  0  0
  -17.6497  -29.1319   22.4556 C   0  0  0  0  0  0  0  0  0  0  0  0
  -24.4587  -28.1233   23.5213 C   0  0  0  0  0  0  0  0  0  0  0  0
  -25.6391  -30.2564   21.8477 C   0  0  0  0  0  0  0  0  0  0  0  0
  -18.7146  -30.2101   22.2721 C   0  0  0  0  0  0  0  0  0  0  0  0
  -24.9759  -14.1433   15.9339 C   0  0  0  0  0  0  0  0  0  0  0  0
  -19.6696  -29.8308   21.1448 C   0  0  0  0  0  0  0  0  0  0  0  0
  -24.2413  -14.7157   17.1461 C   0  0  0  0  0  0  0  0  0  0  0  0
  -25.0431  -15.1643   14.8037 C   0  0  0  0  0  0  0  0  0  0  0  0
  -28.8734  -18.1340   15.5011 C   0  0  0  0  0  0  0  0  0  0  0  0
  -26.7088  -19.2660   15.2200 C   0  0  0  0  0  0  0  0  0  0  0  0
  -29.1946  -19.0868   16.6526 C   0  0  0  0  0  0  0  0  0  0  0  0
  -27.0571  -20.1929   16.3827 C   0  0  0  0  0  0  0  0  0  0  0  0
  -24.9503  -17.0438   16.4083 C   0  0  0  0  0  0  0  0  0  0  0  0
  -20.4103  -28.5267   21.4646 C   0  0  1  0  0  0  0  0  0  0  0  0
  -23.6878  -29.3944   23.1788 C   0  0  1  0  0  0  0  0  0  0  0  0
  -24.8611  -16.0536   17.5869 C   0  0  1  0  0  0  0  0  0  0  0  0
  -28.0822  -35.5391   24.8922 C   0  0  0  0  0  0  0  0  0  0  0  0
  -28.7469  -20.4948   18.8993 C   0  0  0  0  0  0  0  0  0  0  0  0
  -23.3873  -33.3304   20.7751 C   0  0  0  0  0  0  0  0  0  0  0  0
  -25.0786  -35.0820   21.3579 C   0  0  0  0  0  0  0  0  0  0  0  0
  -23.1816  -34.6172   22.9097 C   0  0  0  0  0  0  0  0  0  0  0  0
  -31.4088  -21.2764   17.9726 C   0  0  0  0  0  0  0  0  0  0  0  0
  -30.4591  -22.2248   15.8477 C   0  0  0  0  0  0  0  0  0  0  0  0
  -28.6931  -31.9398   25.9636 C   0  0  0  0  0  0  0  0  0  0  0  0
  -29.2662  -25.6653   17.9243 C   0  0  0  0  0  0  0  0  0  0  0  0
  -29.3129  -24.3206   17.2145 C   0  0  0  0  0  0  0  0  0  0  0  0
  -28.6323  -25.6061   19.3086 C   0  0  0  0  0  0  0  0  0  1  0  0
  -25.0563  -32.9333   22.7046 C   0  0  1  0  0  0  0  0  0  0  0  0
  -27.7095  -34.0880   25.1534 C   0  0  2  0  0  0  0  0  0  0  0  0
  -28.8401  -21.2808   17.5861 C   0  0  1  0  0  0  0  0  0  0  0  0
  -24.1838  -33.9636   21.9334 C   0  0  0  0  0  0  0  0  0  0  0  0
  -30.2049  -21.9913   17.3460 C   0  0  0  0  0  0  0  0  0  0  0  0
  -23.1299  -17.5275   18.5424 N   0  0  0  0  0  0  0  0  0  0  0  0
  -24.1259  -16.6546   18.7706 N   0  0  0  0  0  0  0  0  0  0  0  0
  -24.5670  -30.5104   22.8243 N   0  0  0  0  0  0  0  0  0  0  0  0
  -25.6327  -16.4212   15.2639 N   0  0  0  0  0  0  0  0  0  0  0  0
  -27.4317  -17.9936   15.3185 N   0  0  0  0  0  0  0  0  0  0  0  0
  -28.5118  -20.3769   16.4848 N   0  0  0  0  0  0  0  0  0  0  0  0
  -25.3196  -15.5606   20.4995 N   0  0  0  0  0  0  0  0  0  0  0  0
  -22.3253  -18.0917   22.7409 N   0  0  0  0  0  0  0  0  0  0  0  0
  -21.4795  -28.7712   22.4088 N   0  0  0  0  0  0  0  0  0  0  0  0
  -25.8008  -33.4999   23.8240 N   0  0  0  0  0  0  0  0  0  0  0  0
  -28.9210  -33.3727   25.6449 N   0  3  0  0  0  0  0  0  0  0  0  0
  -30.1392  -23.3583   17.9753 N   0  3  0  0  0  0  0  0  0  0  0  0
  -24.0538  -16.6035   22.9788 O   0  0  0  0  0  0  0  0  0  0  0  0
  -23.1137  -29.4362   20.8889 O   0  0  0  0  0  0  0  0  0  0  0  0
  -23.3476  -32.0436   24.0886 O   0  0  0  0  0  0  0  0  0  0  0  0
  -27.9048  -32.8857   23.0668 O   0  0  0  0  0  0  0  0  0  0  0  0
  -27.5763  -16.0582   14.0752 O   0  0  0  0  0  0  0  0  0  0  0  0
  -18.5186  -21.4703   20.4762 O   0  0  0  0  0  0  0  0  0  0  0  0
  -28.6254  -26.9154   19.8636 O   0  0  0  0  0  0  0  0  0  1  0  0
  -14.6082  -20.1717   24.1404 F   0  0  0  0  0  0  0  0  0  0  0  0
  -15.8794  -21.2005   19.6985 F   0  0  0  0  0  0  0  0  0  0  0  0
  1  2  1  0  0  0  0
  1  5  2  0  0  0  0
  2  6  2  0  0  0  0
  3  8  2  0  0  0  0
  3 15  1  0  0  0  0
  4  9  1  0  0  0  0
  4 15  2  0  0  0  0
  5 17  1  0  0  0  0
  6 19  1  0  0  0  0
  7 10  2  0  0  0  0
  7 18  1  0  0  0  0
  8 21  1  0  0  0  0
  9 21  2  0  0  0  0
 10 22  1  0  0  0  0
 11 12  2  0  0  0  0
 11 23  1  0  0  0  0
 12 24  1  0  0  0  0
 13 20  1  0  0  0  0
 13 22  2  0  0  0  0
 14 24  2  0  0  0  0
 14 25  1  0  0  0  0
 15 26  1  0  0  0  0
 16 26  1  0  0  0  0
 16 27  2  0  0  0  0
 16 28  1  0  0  0  0
 17 19  2  0  0  0  0
 17 33  1  0  0  0  0
 18 20  2  0  0  0  0
 18 34  1  0  0  0  0
 19 46  1  0  0  0  0
 20 35  1  0  0  0  0
 21 82  1  0  0  0  0
 22 83  1  0  0  0  0
 23 25  2  0  0  0  0
 23 82  1  0  0  0  0
 24 84  1  0  0  0  0
 25 85  1  0  0  0  0
 26 65  2  0  0  0  0
 27 66  1  0  0  0  0
 27 71  1  0  0  0  0
 28 72  1  0  0  0  0
 28 77  2  0  0  0  0
 29 47  1  0  0  0  0
 29 73  1  0  0  0  0
 29 78  2  0  0  0  0
 30 60  1  0  0  0  0
 30 67  1  0  0  0  0
 30 79  2  0  0  0  0
 31 61  1  0  0  0  0
 31 74  1  0  0  0  0
 31 80  2  0  0  0  0
 32 68  1  0  0  0  0
 32 69  1  0  0  0  0
 32 81  2  0  0  0  0
 33 36  1  0  0  0  0
 34 47  1  0  0  0  0
 35 67  1  0  0  0  0
 36 38  1  0  0  0  0
 37 39  1  0  0  0  0
 37 40  1  0  0  0  0
 38 46  1  0  0  0  0
 39 48  1  0  0  0  0
 40 68  1  0  0  0  0
 41 43  1  0  0  0  0
 41 69  1  0  0  0  0
 42 44  1  0  0  0  0
 42 69  1  0  0  0  0
 43 70  1  0  0  0  0
 44 70  1  0  0  0  0
 45 48  1  0  0  0  0
 45 68  1  0  0  0  0
 46 73  1  0  0  0  0
 47 67  1  0  0  0  0
 48 66  1  0  0  0  0
 49 61  1  0  0  0  0
 50 62  1  0  0  0  0
 51 63  1  0  0  0  0
 52 63  1  0  0  0  0
 53 63  1  0  0  0  0
 54 64  1  0  0  0  0
 55 64  1  0  0  0  0
 56 75  1  0  0  0  0
 57 58  1  0  0  0  0
 57 59  1  0  0  0  0
 58 76  1  0  0  0  0
 59 83  1  0  0  0  0
 60 63  1  0  0  0  0
 60 74  1  0  0  0  0
 61 75  1  0  0  0  0
 62 64  1  0  0  0  0
 62 70  1  0  0  0  0
 64 76  1  0  0  0  0
 65 66  1  0  0  0  0
M  CHG  2  75   1  76   1
M  ISO  4  32 100  59 101  69 100  83 101
M  END
> <Batch ID>
0118

> <Smiles>
CNC(C)C(=O)NC(C(=O)N1Cc2cc([101O:1][101CH2:1]CCNC(C)(C)C(C)N3CC[100N:0]([100C:0](=O)N4CCCC(n5nc(-c6ccc(Oc7ccc(F)cc7F)cc6)c(C(N)=O)c5N)C4)CC3)ccc2CC1C(=O)NC1CCCc2ccccc21)C(C)(C)C

> <Shape>
0.178

> <Color>
0.102

> <Negative vol penalty>
0.000

$$$$

  -OEChem-04052320183D

 88 96  0     1  0  0  0  0  0999 V2000
  -27.4047  -38.5786   23.8510 C   0  0  0  0  0  0  0  0  0  0  0  0
  -28.2207  -37.4740   24.0732 C   0  0  0  0  0  0  0  0  0  0  0  0
  -23.6300  -14.1965   21.4425 C   0  0  0  0  0  0  0  0  0  0  0  0
  -25.7440  -14.4556   20.3021 C   0  0  0  0  0  0  0  0  0  0  0  0
  -26.0288  -38.4796   24.0540 C   0  0  0  0  0  0  0  0  0  0  0  0
  -27.6614  -36.2699   24.4996 C   0  0  0  0  0  0  0  0  0  0  0  0
  -28.4549  -30.2399   20.6393 C   0  0  0  0  0  0  0  0  0  0  0  0
  -23.9109  -12.8471   21.6568 C   0  0  0  0  0  0  0  0  0  0  0  0
  -26.0250  -13.1062   20.5163 C   0  0  0  0  0  0  0  0  0  0  0  0
  -28.7402  -29.0008   20.0656 C   0  0  0  0  0  0  0  0  0  0  0  0
  -23.8167   -9.9716   19.8829 C   0  0  0  0  0  0  0  0  0  0  0  0
  -22.7984   -9.0511   19.6353 C   0  0  0  0  0  0  0  0  0  0  0  0
  -27.3312  -27.9080   21.6992 C   0  0  0  0  0  0  0  0  0  0  0  0
  -22.8916   -8.3285   21.9389 C   0  0  0  0  0  0  0  0  0  0  0  0
  -24.5465  -15.0007   20.7651 C   0  0  0  0  0  0  0  0  0  0  0  0
  -23.1670  -16.9336   19.8331 C   0  0  0  0  0  0  0  0  0  0  0  0
  -25.4512  -37.2709   24.4738 C   0  0  0  0  0  0  0  0  0  0  0  0
  -27.5934  -30.3195   21.7370 C   0  0  0  0  0  0  0  0  0  0  0  0
  -26.2767  -36.1550   24.7097 C   0  0  0  0  0  0  0  0  0  0  0  0
  -27.0319  -29.1477   22.2704 C   0  0  0  0  0  0  0  0  0  0  0  0
  -25.1084  -12.3020   21.1937 C   0  0  0  0  0  0  0  0  0  0  0  0
  -28.1799  -27.8377   20.5944 C   0  0  0  0  0  0  0  0  0  0  0  0
  -24.3726  -10.0705   21.1584 C   0  0  0  0  0  0  0  0  0  0  0  0
  -22.3358   -8.2296   20.6633 C   0  0  0  0  0  0  0  0  0  0  0  0
  -23.9100   -9.2490   22.1864 C   0  0  0  0  0  0  0  0  0  0  0  0
  -24.2566  -16.3945   20.5430 C   0  0  0  0  0  0  0  0  0  0  0  0
  -23.3453  -18.2932   19.9109 C   0  0  0  0  0  0  0  0  0  0  0  0
  -23.8877  -25.0651   18.3397 C   0  0  0  0  0  0  0  0  0  0  0  0
  -24.8939  -24.9288   17.4629 C   0  0  0  0  0  0  0  0  0  0  0  0
  -22.0900  -16.2650   19.1632 C   0  0  0  0  0  0  0  0  0  0  0  0
  -25.8659  -32.5126   24.2434 C   0  0  0  0  0  0  0  0  0  0  0  0
  -24.5673  -22.8297   22.9469 C   0  0  0  0  0  0  0  0  0  0  0  0
  -23.8439  -30.3687   23.3919 C   0  0  0  0  0  0  0  0  0  0  0  0
  -21.1171  -29.1534   22.3965 C   0  0  0  0  0  0  0  0  0  0  0  0
  -23.9648  -37.2255   24.7253 C   0  0  0  0  0  0  0  0  0  0  0  0
  -27.3066  -31.6264   22.4253 C   0  0  0  0  0  0  0  0  0  0  0  0
  -26.1382  -29.2779   23.4734 C   0  0  0  0  0  0  0  0  0  0  0  0
  -22.8022  -24.0351   18.4794 C   0  0  0  0  0  0  0  0  0  0  0  0
  -23.4057  -35.8080   24.8170 C   0  0  0  0  0  0  0  0  0  0  0  0
  -27.2937  -21.0199   21.4870 C   0  0  0  0  0  0  0  0  0  0  0  0
  -24.2848  -34.9444   25.7160 C   0  0  0  0  0  0  0  0  0  0  0  0
  -26.6639  -19.6882   21.0806 C   0  0  0  0  0  0  0  0  0  0  0  0
  -26.6805  -21.5571   22.7763 C   0  0  0  0  0  0  0  0  0  0  0  0
  -24.5611  -20.3630   22.3247 C   0  0  0  0  0  0  0  0  0  0  0  0
  -22.7107  -23.4755   19.9000 C   0  0  0  0  0  0  0  0  0  0  0  0
  -22.9138  -25.9110   20.5120 C   0  0  0  0  0  0  0  0  0  0  0  0
  -25.7044  -34.8246   25.1486 C   0  0  1  0  0  0  0  0  0  0  0  0
  -23.8050  -26.2342   19.3013 C   0  0  2  0  0  0  0  0  0  0  0  0
  -25.8700  -31.7190   22.9700 C   0  0  1  0  0  0  0  0  0  0  0  0
  -25.1306  -19.8004   21.0104 C   0  0  2  0  0  0  0  0  0  0  0  0
  -23.3004  -27.5009   18.6088 C   0  0  0  0  0  0  0  0  0  0  0  0
  -25.9515  -26.5057   15.8681 C   0  0  0  0  0  0  0  0  0  0  0  0
  -18.8971  -28.0295   22.7220 C   0  0  0  0  0  0  0  0  0  0  0  0
  -25.2694  -28.2678   25.0825 C   0  0  0  0  0  0  0  0  0  0  0  0
  -23.1016  -27.0249   25.2384 C   0  0  0  0  0  0  0  0  0  0  0  0
  -23.2889  -29.3256   26.1840 C   0  0  0  0  0  0  0  0  0  0  0  0
  -19.6590  -31.4224   21.1780 C   0  0  0  0  0  0  0  0  0  0  0  0
  -27.3860  -25.3111   17.5541 C   0  0  0  0  0  0  0  0  0  0  0  0
  -22.5958  -24.1841   22.2953 C   0  0  0  0  0  0  0  0  0  0  0  0
  -22.4069  -22.4342   24.1419 C   0  0  0  0  0  0  0  0  0  0  0  0
  -27.4519  -25.6246   20.1149 C   0  0  0  0  0  0  0  0  0  1  0  0
  -26.0032  -25.9358   17.2888 C   0  0  2  0  0  0  0  0  0  0  0  0
  -23.0647  -22.8252   22.8203 C   0  0  2  0  0  0  0  0  0  0  0  0
  -23.2386  -29.0171   23.6752 C   0  0  1  0  0  0  0  0  0  0  0  0
  -19.6245  -29.3578   22.5834 C   0  0  2  0  0  0  0  0  0  0  0  0
  -27.5592  -24.6599   18.9362 C   0  0  2  0  0  0  0  0  0  0  0  0
  -23.7360  -28.4151   25.0197 C   0  0  0  0  0  0  0  0  0  0  0  0
  -25.0672  -17.3350   21.0355 N   0  0  0  0  0  0  0  0  0  0  0  0
  -24.4866  -18.4787   20.6343 N   0  0  0  0  0  0  0  0  0  0  0  0
  -25.2402  -30.4317   23.3097 N   0  0  0  0  0  0  0  0  0  0  0  0
  -25.2216  -21.6275   22.6774 N   0  0  0  0  0  0  0  0  0  0  0  0
  -22.6357  -19.3363   19.4304 N   0  0  0  0  0  0  0  0  0  0  0  0
  -22.0593  -14.8639   19.1808 N   0  0  0  0  0  0  0  0  0  0  0  0
  -25.7338  -33.8754   24.0566 N   0  0  0  0  0  0  0  0  0  0  0  0
  -21.7924  -29.1932   23.5980 N   0  0  0  0  0  0  0  0  0  0  0  0
  -23.1640  -24.4843   20.9370 N   0  3  1  0  0  0  0  0  0  0  0  0
  -20.9280  -22.4958   24.0035 N   0  3  0  0  0  0  0  0  0  0  0  0
  -19.0517  -30.0879   21.4173 N   0  3  0  0  0  0  0  0  0  0  0  0
  -21.1907  -16.8912   18.5527 O   0  0  0  0  0  0  0  0  0  0  0  0
  -25.9731  -31.9323   25.3174 O   0  0  0  0  0  0  0  0  0  0  0  0
  -25.1409  -23.8723   23.2727 O   0  0  0  0  0  0  0  0  0  0  0  0
  -23.1015  -31.3447   23.2525 O   0  0  0  0  0  0  0  0  0  0  0  0
  -21.6319  -28.9726   21.2953 O   0  0  0  0  0  0  0  0  0  0  0  0
  -28.8570  -24.0599   18.9878 O   0  0  0  0  0  0  0  0  0  0  0  0
  -25.3830  -10.9854   21.4028 O   0  0  0  0  0  0  0  0  0  0  0  0
  -28.4590  -26.6317   20.0265 O   0  0  0  0  0  0  0  0  0  1  0  0
  -21.3568   -7.3468   20.4258 F   0  0  0  0  0  0  0  0  0  0  0  0
  -24.4392   -9.3403   23.4142 F   0  0  0  0  0  0  0  0  0  0  0  0
  1  2  1  0  0  0  0
  1  5  2  0  0  0  0
  2  6  2  0  0  0  0
  3  8  2  0  0  0  0
  3 15  1  0  0  0  0
  4  9  1  0  0  0  0
  4 15  2  0  0  0  0
  5 17  1  0  0  0  0
  6 19  1  0  0  0  0
  7 10  2  0  0  0  0
  7 18  1  0  0  0  0
  8 21  1  0  0  0  0
  9 21  2  0  0  0  0
 10 22  1  0  0  0  0
 11 12  2  0  0  0  0
 11 23  1  0  0  0  0
 12 24  1  0  0  0  0
 13 20  1  0  0  0  0
 13 22  2  0  0  0  0
 14 24  2  0  0  0  0
 14 25  1  0  0  0  0
 15 26  1  0  0  0  0
 16 26  1  0  0  0  0
 16 27  2  0  0  0  0
 16 30  1  0  0  0  0
 17 19  2  0  0  0  0
 17 35  1  0  0  0  0
 18 20  2  0  0  0  0
 18 36  1  0  0  0  0
 19 47  1  0  0  0  0
 20 37  1  0  0  0  0
 21 85  1  0  0  0  0
 22 86  1  0  0  0  0
 23 25  2  0  0  0  0
 23 85  1  0  0  0  0
 24 87  1  0  0  0  0
 25 88  1  0  0  0  0
 26 68  2  0  0  0  0
 27 69  1  0  0  0  0
 27 72  1  0  0  0  0
 28 29  2  0  0  0  0
 28 38  1  0  0  0  0
 28 48  1  0  0  0  0
 29 62  1  0  0  0  0
 30 73  1  0  0  0  0
 30 79  2  0  0  0  0
 31 49  1  0  0  0  0
 31 74  1  0  0  0  0
 31 80  2  0  0  0  0
 32 63  1  0  0  0  0
 32 71  1  0  0  0  0
 32 81  2  0  0  0  0
 33 64  1  0  0  0  0
 33 70  1  0  0  0  0
 33 82  2  0  0  0  0
 34 65  1  0  0  0  0
 34 75  1  0  0  0  0
 34 83  2  0  0  0  0
 35 39  1  0  0  0  0
 36 49  1  0  0  0  0
 37 70  1  0  0  0  0
 38 45  1  0  0  0  0
 39 41  1  0  0  0  0
 40 42  1  0  0  0  0
 40 43  1  0  0  0  0
 41 47  1  0  0  0  0
 42 50  1  0  0  0  0
 43 71  1  0  0  0  0
 44 50  1  0  0  0  0
 44 71  1  0  0  0  0
 45 76  1  0  0  0  0
 46 48  1  0  0  0  0
 46 76  1  0  0  0  0
 47 74  1  0  0  0  0
 48 51  1  0  0  0  0
 49 70  1  0  0  0  0
 50 69  1  0  0  0  0
 52 62  1  0  0  0  0
 53 65  1  0  0  0  0
 54 67  1  0  0  0  0
 55 67  1  0  0  0  0
 56 67  1  0  0  0  0
 57 78  1  0  0  0  0
 58 62  1  0  0  0  0
 58 66  1  0  0  0  0
 59 63  1  0  0  0  0
 59 76  1  0  0  0  0
 60 63  1  0  0  0  0
 60 77  1  0  0  0  0
 61 66  1  0  0  0  0
 61 86  1  0  0  0  0
 64 67  1  0  0  0  0
 64 75  1  0  0  0  0
 65 78  1  0  0  0  0
 66 84  1  0  0  0  0
 68 69  1  0  0  0  0
M  CHG  3  76   1  77   1  78   1
M  ISO  4  32 100  61 101  63 100  86 101
M  END
> <Batch ID>
0118

> <Smiles>
CNC(C)C(=O)NC(C(=O)N1Cc2cc([101O:1][101CH2:1]C(O)CC(C)C=C3CCN(C[100CH:0](CN)[100C:0](=O)N4CCCC(n5nc(-c6ccc(Oc7ccc(F)cc7F)cc6)c(C(N)=O)c5N)C4)CC3C)ccc2CC1C(=O)NC1CCCc2ccccc21)C(C)(C)C

> <Shape>
0.249

> <Color>
0.075

> <Negative vol penalty>
0.000

$$$$

  -OEChem-04052320183D

 85 93  0     1  0  0  0  0  0999 V2000
  -28.9958  -33.0376   26.3097 C   0  0  0  0  0  0  0  0  0  0  0  0
  -28.7882  -31.8314   25.6483 C   0  0  0  0  0  0  0  0  0  0  0  0
  -21.8704  -14.2448   22.4604 C   0  0  0  0  0  0  0  0  0  0  0  0
  -21.7737  -14.8488   20.1231 C   0  0  0  0  0  0  0  0  0  0  0  0
  -27.9144  -33.8701   26.5949 C   0  0  0  0  0  0  0  0  0  0  0  0
  -27.4988  -31.4565   25.2727 C   0  0  0  0  0  0  0  0  0  0  0  0
  -27.3020  -29.6400   20.5497 C   0  0  0  0  0  0  0  0  0  0  0  0
  -20.5943  -14.7749   22.6502 C   0  0  0  0  0  0  0  0  0  0  0  0
  -20.4976  -15.3788   20.3128 C   0  0  0  0  0  0  0  0  0  0  0  0
  -27.7327  -28.3287   20.3534 C   0  0  0  0  0  0  0  0  0  0  0  0
  -19.1982  -17.8290   23.0354 C   0  0  0  0  0  0  0  0  0  0  0  0
  -18.9922  -18.6354   24.1546 C   0  0  0  0  0  0  0  0  0  0  0  0
  -25.4385  -27.5834   20.3405 C   0  0  0  0  0  0  0  0  0  0  0  0
  -17.3020  -17.1022   24.9482 C   0  0  0  0  0  0  0  0  0  0  0  0
  -22.4602  -14.2818   21.1968 C   0  0  0  0  0  0  0  0  0  0  0  0
  -24.1062  -12.4126   20.6449 C   0  0  0  0  0  0  0  0  0  0  0  0
  -26.6122  -33.5096   26.2140 C   0  0  0  0  0  0  0  0  0  0  0  0
  -25.9344  -29.9320   20.6539 C   0  0  0  0  0  0  0  0  0  0  0  0
  -26.3987  -32.2843   25.5542 C   0  0  0  0  0  0  0  0  0  0  0  0
  -24.9929  -28.8997   20.5356 C   0  0  0  0  0  0  0  0  0  0  0  0
  -19.9078  -15.3419   21.5764 C   0  0  0  0  0  0  0  0  0  0  0  0
  -26.8011  -27.2997   20.2517 C   0  0  0  0  0  0  0  0  0  0  0  0
  -18.4562  -16.6591   22.8725 C   0  0  0  0  0  0  0  0  0  0  0  0
  -18.0441  -18.2721   25.1111 C   0  0  0  0  0  0  0  0  0  0  0  0
  -17.5081  -16.2957   23.8289 C   0  0  0  0  0  0  0  0  0  0  0  0
  -23.7787  -13.7348   21.0003 C   0  0  0  0  0  0  0  0  0  0  0  0
  -25.4784  -12.4031   20.5848 C   0  0  0  0  0  0  0  0  0  0  0  0
  -23.2470  -11.2932   20.3916 C   0  0  0  0  0  0  0  0  0  0  0  0
  -24.0690  -31.1601   22.9157 C   0  0  0  0  0  0  0  0  0  0  0  0
  -21.8184  -31.0325   20.5831 C   0  0  0  0  0  0  0  0  0  0  0  0
  -20.7386  -29.6127   17.6736 C   0  0  0  0  0  0  0  0  0  0  0  0
  -29.5468  -16.6869   19.6109 C   0  0  0  0  0  0  0  0  0  0  0  0
  -25.4688  -34.4201   26.5860 C   0  0  0  0  0  0  0  0  0  0  0  0
  -25.4849  -31.3554   20.8389 C   0  0  0  0  0  0  0  0  0  0  0  0
  -23.5124  -29.1631   20.6204 C   0  0  0  0  0  0  0  0  0  0  0  0
  -24.1811  -34.1243   25.8214 C   0  0  0  0  0  0  0  0  0  0  0  0
  -29.3231  -14.5529   22.4522 C   0  0  0  0  0  0  0  0  0  0  0  0
  -23.8964  -32.6257   25.8147 C   0  0  0  0  0  0  0  0  0  0  0  0
  -27.9063  -13.9820   22.3702 C   0  0  0  0  0  0  0  0  0  0  0  0
  -29.3736  -16.0064   21.9865 C   0  0  0  0  0  0  0  0  0  0  0  0
  -27.3870  -15.6771   20.5658 C   0  0  0  0  0  0  0  0  0  0  0  0
  -28.0373  -21.1708   18.1742 C   0  0  0  0  0  0  0  0  0  0  0  0
  -26.8616  -19.7857   15.9316 C   0  0  0  0  0  0  0  0  0  0  0  0
  -25.0179  -31.8543   25.1085 C   0  0  1  0  0  0  0  0  0  0  0  0
  -24.0894  -31.4673   21.4450 C   0  0  1  0  0  0  0  0  0  0  0  0
  -27.2955  -14.1963   20.9723 C   0  0  2  0  0  0  0  0  0  0  0  0
  -27.7927  -19.1068   16.9368 C   0  0  1  0  0  0  0  0  0  0  0  0
  -27.1158  -21.9157   17.2071 C   0  0  2  0  0  0  0  0  0  0  0  0
  -18.8452  -29.6890   16.0285 C   0  0  0  0  0  0  0  0  0  0  0  0
  -25.3206  -23.6240   16.9116 C   0  0  0  0  0  0  0  0  0  0  0  0
  -28.1609  -24.7225   17.6398 C   0  0  0  0  0  0  0  0  0  0  0  0
  -30.3256  -16.1919   16.4903 C   0  0  0  0  0  0  0  0  0  0  0  0
  -20.0625  -29.4788   22.5358 C   0  0  0  0  0  0  0  0  0  0  0  0
  -18.6451  -28.7776   20.5948 C   0  0  0  0  0  0  0  0  0  0  0  0
  -18.8491  -31.1941   21.1793 C   0  0  0  0  0  0  0  0  0  0  0  0
  -22.5373  -30.4145   15.4643 C   0  0  0  0  0  0  0  0  0  0  0  0
  -28.5728  -17.9812   16.2606 C   0  0  0  0  0  0  0  0  0  0  0  0
  -26.3462  -25.1521   19.3370 C   0  0  0  0  0  0  0  0  0  1  0  0
  -20.8136  -30.0044   20.1222 C   0  0  1  0  0  0  0  0  0  0  0  0
  -20.2228  -30.2260   16.3843 C   0  0  2  0  0  0  0  0  0  0  0  0
  -26.3040  -22.9965   17.9053 C   0  0  2  0  0  0  0  0  0  0  0  0
  -27.1680  -24.0735   18.6159 C   0  0  1  0  0  0  0  0  0  0  0  0
  -29.5709  -17.3064   17.2078 C   0  0  1  0  0  0  0  0  0  0  0  0
  -19.6204  -29.8582   21.1083 C   0  0  0  0  0  0  0  0  0  0  0  0
  -24.8560  -14.5091   21.1552 N   0  0  0  0  0  0  0  0  0  0  0  0
  -25.8739  -13.6708   20.8961 N   0  0  0  0  0  0  0  0  0  0  0  0
  -28.7435  -20.0685   17.5140 N   0  0  0  0  0  0  0  0  0  0  0  0
  -23.1229  -30.5705   20.8080 N   0  0  0  0  0  0  0  0  0  0  0  0
  -28.7805  -16.1410   20.6539 N   0  0  0  0  0  0  0  0  0  0  0  0
  -26.3731  -11.4342   20.2967 N   0  0  0  0  0  0  0  0  0  0  0  0
  -21.8615  -11.4769   20.4972 N   0  0  0  0  0  0  0  0  0  0  0  0
  -24.8883  -31.9760   23.6723 N   0  0  0  0  0  0  0  0  0  0  0  0
  -20.4268  -30.3897   18.7693 N   0  0  0  0  0  0  0  0  0  0  0  0
  -28.9108  -16.7729   18.3785 N   0  0  0  0  0  0  0  0  0  0  0  0
  -26.1646  -20.9229   16.6060 N   0  3  0  0  0  0  0  0  0  0  0  0
  -21.1508  -29.9220   15.2586 N   0  3  0  0  0  0  0  0  0  0  0  0
  -23.6952  -10.1592   20.0970 O   0  0  0  0  0  0  0  0  0  0  0  0
  -23.3611  -30.2512   23.3333 O   0  0  0  0  0  0  0  0  0  0  0  0
  -21.4607  -32.2037   20.7311 O   0  0  0  0  0  0  0  0  0  0  0  0
  -21.3532  -28.5489   17.7060 O   0  0  0  0  0  0  0  0  0  0  0  0
  -30.7132  -17.0645   19.7653 O   0  0  0  0  0  0  0  0  0  0  0  0
  -18.6625  -15.8591   21.7612 O   0  0  0  0  0  0  0  0  0  0  0  0
  -27.2188  -26.0187   20.0607 O   0  0  0  0  0  0  0  0  0  1  0  0
  -17.8474  -19.0458   26.1866 F   0  0  0  0  0  0  0  0  0  0  0  0
  -16.7930  -15.1724   23.6785 F   0  0  0  0  0  0  0  0  0  0  0  0
  1  2  1  0  0  0  0
  1  5  2  0  0  0  0
  2  6  2  0  0  0  0
  3  8  2  0  0  0  0
  3 15  1  0  0  0  0
  4  9  1  0  0  0  0
  4 15  2  0  0  0  0
  5 17  1  0  0  0  0
  6 19  1  0  0  0  0
  7 10  2  0  0  0  0
  7 18  1  0  0  0  0
  8 21  1  0  0  0  0
  9 21  2  0  0  0  0
 10 22  1  0  0  0  0
 11 12  2  0  0  0  0
 11 23  1  0  0  0  0
 12 24  1  0  0  0  0
 13 20  1  0  0  0  0
 13 22  2  0  0  0  0
 14 24  2  0  0  0  0
 14 25  1  0  0  0  0
 15 26  1  0  0  0  0
 16 26  1  0  0  0  0
 16 27  2  0  0  0  0
 16 28  1  0  0  0  0
 17 19  2  0  0  0  0
 17 33  1  0  0  0  0
 18 20  2  0  0  0  0
 18 34  1  0  0  0  0
 19 44  1  0  0  0  0
 20 35  1  0  0  0  0
 21 82  1  0  0  0  0
 22 83  1  0  0  0  0
 23 25  2  0  0  0  0
 23 82  1  0  0  0  0
 24 84  1  0  0  0  0
 25 85  1  0  0  0  0
 26 65  2  0  0  0  0
 27 66  1  0  0  0  0
 27 70  1  0  0  0  0
 28 71  1  0  0  0  0
 28 77  2  0  0  0  0
 29 45  1  0  0  0  0
 29 72  1  0  0  0  0
 29 78  2  0  0  0  0
 30 59  1  0  0  0  0
 30 68  1  0  0  0  0
 30 79  2  0  0  0  0
 31 60  1  0  0  0  0
 31 73  1  0  0  0  0
 31 80  2  0  0  0  0
 32 69  1  0  0  0  0
 32 74  1  0  0  0  0
 32 81  2  0  0  0  0
 33 36  1  0  0  0  0
 34 45  1  0  0  0  0
 35 68  1  0  0  0  0
 36 38  1  0  0  0  0
 37 39  1  0  0  0  0
 37 40  1  0  0  0  0
 38 44  1  0  0  0  0
 39 46  1  0  0  0  0
 40 69  1  0  0  0  0
 41 46  1  0  0  0  0
 41 69  1  0  0  0  0
 42 48  1  0  0  0  0
 42 67  1  0  0  0  0
 43 47  1  0  0  0  0
 43 75  1  0  0  0  0
 44 72  1  0  0  0  0
 45 68  1  0  0  0  0
 46 66  1  0  0  0  0
 47 57  1  0  0  0  0
 47 67  1  0  0  0  0
 48 61  1  0  0  0  0
 48 75  1  0  0  0  0
 49 60  1  0  0  0  0
 50 61  1  0  0  0  0
 51 62  1  0  0  0  0
 52 63  1  0  0  0  0
 53 64  1  0  0  0  0
 54 64  1  0  0  0  0
 55 64  1  0  0  0  0
 56 76  1  0  0  0  0
 57 63  1  0  0  0  0
 58 62  1  0  0  0  0
 58 83  1  0  0  0  0
 59 64  1  0  0  0  0
 59 73  1  0  0  0  0
 60 76  1  0  0  0  0
 61 62  1  0  0  0  0
 63 74  1  0  0  0  0
 65 66  1  0  0  0  0
M  CHG  2  75   1  76   1
M  ISO  4  32 100  58 101  74 100  83 101
M  END
> <Batch ID>
0118

> <Smiles>
CNC(C)C(=O)NC(C(=O)N1Cc2cc([101O:1][101CH2:1]C(C)C(C)C3CNC(CC(C)[100NH:0][100C:0](=O)N4CCCC(n5nc(-c6ccc(Oc7ccc(F)cc7F)cc6)c(C(N)=O)c5N)C4)CN3)ccc2CC1C(=O)NC1CCCc2ccccc21)C(C)(C)C

> <Shape>
0.228

> <Color>
0.071

> <Negative vol penalty>
0.000

$$$$

  -OEChem-04052320183D

 80 88  0     1  0  0  0  0  0999 V2000
  -32.6544  -25.3068   17.7593 C   0  0  0  0  0  0  0  0  0  0  0  0
  -31.3778  -25.6107   17.2976 C   0  0  0  0  0  0  0  0  0  0  0  0
  -27.6495  -15.2459   21.1773 C   0  0  0  0  0  0  0  0  0  0  0  0
  -25.8720  -15.4974   19.5605 C   0  0  0  0  0  0  0  0  0  0  0  0
  -32.8835  -25.1607   19.1269 C   0  0  0  0  0  0  0  0  0  0  0  0
  -30.3291  -25.7677   18.2032 C   0  0  0  0  0  0  0  0  0  0  0  0
  -25.6099  -29.6428   17.7356 C   0  0  0  0  0  0  0  0  0  0  0  0
  -27.3639  -13.8844   21.2795 C   0  0  0  0  0  0  0  0  0  0  0  0
  -25.5864  -14.1359   19.6626 C   0  0  0  0  0  0  0  0  0  0  0  0
  -24.2960  -29.4727   17.3014 C   0  0  0  0  0  0  0  0  0  0  0  0
  -23.9583  -12.0855   21.8017 C   0  0  0  0  0  0  0  0  0  0  0  0
  -22.6193  -11.7107   21.9122 C   0  0  0  0  0  0  0  0  0  0  0  0
  -23.5862  -29.1704   19.5871 C   0  0  0  0  0  0  0  0  0  0  0  0
  -22.8122  -10.4217   19.8779 C   0  0  0  0  0  0  0  0  0  0  0  0
  -26.9035  -16.0524   20.3178 C   0  0  0  0  0  0  0  0  0  0  0  0
  -28.4115  -18.0456   19.8071 C   0  0  0  0  0  0  0  0  0  0  0  0
  -31.8391  -25.3254   20.0503 C   0  0  0  0  0  0  0  0  0  0  0  0
  -25.9241  -29.5670   19.1002 C   0  0  0  0  0  0  0  0  0  0  0  0
  -30.5441  -25.6223   19.5843 C   0  0  0  0  0  0  0  0  0  0  0  0
  -24.9045  -29.3424   20.0362 C   0  0  0  0  0  0  0  0  0  0  0  0
  -26.3324  -13.3294   20.5221 C   0  0  0  0  0  0  0  0  0  0  0  0
  -23.2844  -29.2335   18.2269 C   0  0  0  0  0  0  0  0  0  0  0  0
  -24.7242  -11.6285   20.7292 C   0  0  0  0  0  0  0  0  0  0  0  0
  -22.0462  -10.8788   20.9504 C   0  0  0  0  0  0  0  0  0  0  0  0
  -24.1512  -10.7966   19.7674 C   0  0  0  0  0  0  0  0  0  0  0  0
  -27.1976  -17.4590   20.2123 C   0  0  0  0  0  0  0  0  0  0  0  0
  -28.1793  -19.3976   19.8759 C   0  0  0  0  0  0  0  0  0  0  0  0
  -29.6391  -17.4239   19.4043 C   0  0  0  0  0  0  0  0  0  0  0  0
  -27.7568  -27.6740   20.8782 C   0  0  0  0  0  0  0  0  0  0  0  0
  -26.9716  -29.7707   23.2256 C   0  0  0  0  0  0  0  0  0  0  0  0
  -24.7791  -32.0994   24.4158 C   0  0  0  0  0  0  0  0  0  0  0  0
  -23.2124  -22.5618   19.4603 C   0  0  0  0  0  0  0  0  0  0  0  0
  -32.1252  -25.1111   21.5156 C   0  0  0  0  0  0  0  0  0  0  0  0
  -27.3421  -29.7793   19.5546 C   0  0  0  0  0  0  0  0  0  0  0  0
  -25.1862  -29.2721   21.5141 C   0  0  0  0  0  0  0  0  0  0  0  0
  -31.0390  -25.6629   22.4353 C   0  0  0  0  0  0  0  0  0  0  0  0
  -25.5457  -22.6301   22.2259 C   0  0  0  0  0  0  0  0  0  0  0  0
  -29.6572  -25.2544   21.9346 C   0  0  0  0  0  0  0  0  0  0  0  0
  -19.8313  -26.0625   18.5331 C   0  0  0  0  0  0  0  0  0  0  0  0
  -21.8825  -26.3169   17.0785 C   0  0  0  0  0  0  0  0  0  0  0  0
  -26.3520  -21.3545   21.9751 C   0  0  0  0  0  0  0  0  0  0  0  0
  -20.6362  -25.2220   19.5249 C   0  0  0  0  0  0  0  0  0  0  0  0
  -22.6908  -25.4761   18.0673 C   0  0  0  0  0  0  0  0  0  0  0  0
  -24.0740  -22.4316   21.8756 C   0  0  0  0  0  0  0  0  0  0  0  0
  -24.6351  -20.6843   20.2307 C   0  0  0  0  0  0  0  0  0  0  0  0
  -29.3860  -25.8246   20.5372 C   0  0  1  0  0  0  0  0  0  0  0  0
  -27.6282  -29.1704   20.9238 C   0  0  1  0  0  0  0  0  0  0  0  0
  -20.6986  -27.0441   17.7320 C   0  0  0  0  0  0  0  0  0  0  0  0
  -26.1356  -20.8269   20.5444 C   0  0  2  0  0  0  0  0  0  0  0  0
  -21.7963  -24.5011   18.8350 C   0  0  0  0  0  0  0  0  0  0  0  0
  -20.4121  -30.2347   19.9387 C   0  0  0  0  0  0  0  0  0  0  0  0
  -24.3856  -33.6125   26.3787 C   0  0  0  0  0  0  0  0  0  0  0  0
  -26.0507  -27.3790   24.8815 C   0  0  0  0  0  0  0  0  0  0  0  0
  -24.8259  -28.9727   26.3742 C   0  0  0  0  0  0  0  0  0  0  0  0
  -27.3077  -29.1167   26.1679 C   0  0  0  0  0  0  0  0  0  0  0  0
  -24.9059  -34.5224   22.7212 C   0  0  0  0  0  0  0  0  0  0  0  0
  -19.9745  -29.0337   19.1103 C   0  0  0  0  0  0  0  0  0  0  0  0
  -25.8578  -29.8724   24.2395 C   0  0  1  0  0  0  0  0  0  0  0  0
  -24.9975  -33.4867   24.9922 C   0  0  2  0  0  0  0  0  0  0  0  0
  -21.1639  -28.2212   18.5936 C   0  0  2  0  0  0  0  0  0  1  0  0
  -26.0052  -28.8345   25.3878 C   0  0  0  0  0  0  0  0  0  0  0  0
  -26.2636  -18.3642   20.5162 N   0  0  0  0  0  0  0  0  0  0  0  0
  -26.8908  -19.5333   20.3019 N   0  0  0  0  0  0  0  0  0  0  0  0
  -26.5894  -29.4799   21.9083 N   0  0  0  0  0  0  0  0  0  0  0  0
  -23.9364  -21.9466   20.4950 N   0  0  0  0  0  0  0  0  0  0  0  0
  -28.9538  -20.4716   19.6131 N   0  0  0  0  0  0  0  0  0  0  0  0
  -29.8240  -17.1274   18.0471 N   0  0  0  0  0  0  0  0  0  0  0  0
  -29.0391  -27.2271   20.6222 N   0  0  0  0  0  0  0  0  0  0  0  0
  -25.8392  -31.2606   24.6876 N   0  0  0  0  0  0  0  0  0  0  0  0
  -22.5742  -23.7498   19.7950 N   0  0  0  0  0  0  0  0  0  0  0  0
  -24.3797  -34.5171   24.1105 N   0  3  0  0  0  0  0  0  0  0  0  0
  -30.5384  -17.1249   20.2261 O   0  0  0  0  0  0  0  0  0  0  0  0
  -26.7663  -26.9766   21.0632 O   0  0  0  0  0  0  0  0  0  0  0  0
  -28.1371  -29.9499   23.5875 O   0  0  0  0  0  0  0  0  0  0  0  0
  -23.7674  -31.7896   23.7905 O   0  0  0  0  0  0  0  0  0  0  0  0
  -23.1440  -22.0899   18.3202 O   0  0  0  0  0  0  0  0  0  0  0  0
  -26.0536  -12.0009   20.6213 O   0  0  0  0  0  0  0  0  0  0  0  0
  -22.0012  -29.0665   17.8058 O   0  0  0  0  0  0  0  0  0  1  0  0
  -20.7608  -10.5177   21.0575 F   0  0  0  0  0  0  0  0  0  0  0  0
  -24.8823  -10.3534   18.7355 F   0  0  0  0  0  0  0  0  0  0  0  0
  1  2  1  0  0  0  0
  1  5  2  0  0  0  0
  2  6  2  0  0  0  0
  3  8  2  0  0  0  0
  3 15  1  0  0  0  0
  4  9  1  0  0  0  0
  4 15  2  0  0  0  0
  5 17  1  0  0  0  0
  6 19  1  0  0  0  0
  7 10  2  0  0  0  0
  7 18  1  0  0  0  0
  8 21  1  0  0  0  0
  9 21  2  0  0  0  0
 10 22  1  0  0  0  0
 11 12  2  0  0  0  0
 11 23  1  0  0  0  0
 12 24  1  0  0  0  0
 13 20  1  0  0  0  0
 13 22  2  0  0  0  0
 14 24  2  0  0  0  0
 14 25  1  0  0  0  0
 15 26  1  0  0  0  0
 16 26  1  0  0  0  0
 16 27  2  0  0  0  0
 16 28  1  0  0  0  0
 17 19  2  0  0  0  0
 17 33  1  0  0  0  0
 18 20  2  0  0  0  0
 18 34  1  0  0  0  0
 19 46  1  0  0  0  0
 20 35  1  0  0  0  0
 21 77  1  0  0  0  0
 22 78  1  0  0  0  0
 23 25  2  0  0  0  0
 23 77  1  0  0  0  0
 24 79  1  0  0  0  0
 25 80  1  0  0  0  0
 26 62  2  0  0  0  0
 27 63  1  0  0  0  0
 27 66  1  0  0  0  0
 28 67  1  0  0  0  0
 28 72  2  0  0  0  0
 29 47  1  0  0  0  0
 29 68  1  0  0  0  0
 29 73  2  0  0  0  0
 30 58  1  0  0  0  0
 30 64  1  0  0  0  0
 30 74  2  0  0  0  0
 31 59  1  0  0  0  0
 31 69  1  0  0  0  0
 31 75  2  0  0  0  0
 32 65  1  0  0  0  0
 32 70  1  0  0  0  0
 32 76  2  0  0  0  0
 33 36  1  0  0  0  0
 34 47  1  0  0  0  0
 35 64  1  0  0  0  0
 36 38  1  0  0  0  0
 37 41  1  0  0  0  0
 37 44  1  0  0  0  0
 38 46  1  0  0  0  0
 39 42  1  0  0  0  0
 39 48  1  0  0  0  0
 40 43  1  0  0  0  0
 40 48  1  0  0  0  0
 41 49  1  0  0  0  0
 42 50  1  0  0  0  0
 43 50  1  0  0  0  0
 44 65  1  0  0  0  0
 45 49  1  0  0  0  0
 45 65  1  0  0  0  0
 46 68  1  0  0  0  0
 47 64  1  0  0  0  0
 48 60  1  0  0  0  0
 49 63  1  0  0  0  0
 50 70  1  0  0  0  0
 51 57  1  0  0  0  0
 52 59  1  0  0  0  0
 53 61  1  0  0  0  0
 54 61  1  0  0  0  0
 55 61  1  0  0  0  0
 56 71  1  0  0  0  0
 57 60  1  0  0  0  0
 58 61  1  0  0  0  0
 58 69  1  0  0  0  0
 59 71  1  0  0  0  0
 60 78  1  0  0  0  0
 62 63  1  0  0  0  0
M  CHG  1  71   1
M  ISO  4  32 100  60 101  70 100  78 101
M  END
> <Batch ID>
0118

> <Smiles>
CC[101CH:1](C1CCC([100NH:0][100C:0](=O)N2CCCC(n3nc(-c4ccc(Oc5ccc(F)cc5F)cc4)c(C(N)=O)c3N)C2)CC1)[101O:1]c1ccc2c(c1)CN(C(=O)C(NC(=O)C(C)NC)C(C)(C)C)C(C(=O)NC1CCCc3ccccc31)C2

> <Shape>
0.235

> <Color>
0.070

> <Negative vol penalty>
0.000

$$$$

  -OEChem-04052320183D

 89 98  0     1  0  0  0  0  0999 V2000
  -33.4924  -29.1394   15.5269 C   0  0  0  0  0  0  0  0  0  0  0  0
  -33.0578  -28.3007   16.5482 C   0  0  0  0  0  0  0  0  0  0  0  0
  -23.0007   -9.8947   19.9796 C   0  0  0  0  0  0  0  0  0  0  0  0
  -23.7259   -9.9436   22.2837 C   0  0  0  0  0  0  0  0  0  0  0  0
  -32.8156  -29.1605   14.3081 C   0  0  0  0  0  0  0  0  0  0  0  0
  -31.9453  -27.4833   16.3516 C   0  0  0  0  0  0  0  0  0  0  0  0
  -32.6812  -22.7633   18.0324 C   0  0  0  0  0  0  0  0  0  0  0  0
  -22.2343   -8.7598   20.2449 C   0  0  0  0  0  0  0  0  0  0  0  0
  -22.9595   -8.8088   22.5490 C   0  0  0  0  0  0  0  0  0  0  0  0
  -32.5827  -22.5544   19.4074 C   0  0  0  0  0  0  0  0  0  0  0  0
  -21.4786   -5.7143   23.7495 C   0  0  0  0  0  0  0  0  0  0  0  0
  -22.0648   -4.6979   24.5038 C   0  0  0  0  0  0  0  0  0  0  0  0
  -30.3444  -21.7049   19.1118 C   0  0  0  0  0  0  0  0  0  0  0  0
  -29.7970  -17.7099   22.7011 C   0  0  0  0  0  0  0  0  0  0  0  0
  -23.7911   -4.4526   22.8314 C   0  0  0  0  0  0  0  0  0  0  0  0
  -32.3514  -18.4423   21.9800 C   0  0  0  0  0  0  0  0  0  0  0  0
  -23.7465  -10.4866   20.9990 C   0  0  0  0  0  0  0  0  0  0  0  0
  -24.1314  -13.0024   20.8253 C   0  0  0  0  0  0  0  0  0  0  0  0
  -31.7001  -28.3359   14.0932 C   0  0  0  0  0  0  0  0  0  0  0  0
  -31.6062  -22.4542   17.1867 C   0  0  0  0  0  0  0  0  0  0  0  0
  -31.2521  -27.4943   15.1293 C   0  0  0  0  0  0  0  0  0  0  0  0
  -30.4327  -21.9084   17.7262 C   0  0  0  0  0  0  0  0  0  0  0  0
  -31.6001  -19.3062   22.7640 C   0  0  0  0  0  0  0  0  0  0  0  0
  -30.3096  -18.9319   23.1259 C   0  0  0  0  0  0  0  0  0  0  0  0
  -22.2137   -8.2169   21.5296 C   0  0  0  0  0  0  0  0  0  0  0  0
  -31.4131  -22.0278   19.9476 C   0  0  0  0  0  0  0  0  0  0  0  0
  -22.0486   -6.0998   22.5362 C   0  0  0  0  0  0  0  0  0  0  0  0
  -23.2211   -4.0671   24.0447 C   0  0  0  0  0  0  0  0  0  0  0  0
  -23.2048   -5.4690   22.0772 C   0  0  0  0  0  0  0  0  0  0  0  0
  -24.5388  -11.6586   20.7255 C   0  0  0  0  0  0  0  0  0  0  0  0
  -25.2411  -13.7255   20.4616 C   0  0  0  0  0  0  0  0  0  0  0  0
  -30.5939  -16.8864   21.9186 C   0  0  0  0  0  0  0  0  0  0  0  0
  -22.8634  -13.5482   21.2124 C   0  0  0  0  0  0  0  0  0  0  0  0
  -29.7409  -24.1239   15.2281 C   0  0  0  0  0  0  0  0  0  0  0  0
  -28.5940  -21.1911   14.4501 C   0  0  0  0  0  0  0  0  0  0  0  0
  -28.1146  -17.9349   15.3523 C   0  0  0  0  0  0  0  0  0  0  0  0
  -30.7204  -14.6872   20.6963 C   0  0  0  0  0  0  0  0  0  0  0  0
  -30.9724  -28.4281   12.7754 C   0  0  0  0  0  0  0  0  0  0  0  0
  -31.7381  -22.6604   15.7026 C   0  0  0  0  0  0  0  0  0  0  0  0
  -29.2574  -21.5408   16.8590 C   0  0  0  0  0  0  0  0  0  0  0  0
  -30.0283  -27.2565   12.5177 C   0  0  0  0  0  0  0  0  0  0  0  0
  -25.5593  -19.9522   21.8835 C   0  0  0  0  0  0  0  0  0  0  0  0
  -29.6024  -12.2363   18.3681 C   0  0  0  0  0  0  0  0  0  0  0  0
  -29.1830  -26.9700   13.7546 C   0  0  0  0  0  0  0  0  0  0  0  0
  -26.6271  -21.0465   21.6770 C   0  0  0  0  0  0  0  0  0  0  0  0
  -26.3903  -19.4685   23.0899 C   0  0  0  0  0  0  0  0  0  0  0  0
  -28.1519  -11.9781   18.7821 C   0  0  0  0  0  0  0  0  0  0  0  0
  -30.5029  -12.4788   19.5781 C   0  0  0  0  0  0  0  0  0  0  0  0
  -28.5875  -13.2661   20.9124 C   0  0  0  0  0  0  0  0  0  0  0  0
  -30.0643  -26.5748   14.9457 C   0  0  1  0  0  0  0  0  0  0  0  0
  -30.3926  -22.7902   14.9955 C   0  0  1  0  0  0  0  0  0  0  0  0
  -27.6250  -20.1049   22.4002 C   0  0  0  0  0  0  0  0  0  0  0  0
  -27.6298  -13.0807   19.7241 C   0  0  2  0  0  0  0  0  0  0  0  0
  -33.2125  -19.6432   25.3402 C   0  0  0  0  0  0  0  0  0  0  0  0
  -28.5082  -18.6866   25.8442 C   0  0  0  0  0  0  0  0  0  0  0  0
  -27.1141  -15.7879   14.5235 C   0  0  0  0  0  0  0  0  0  0  0  0
  -25.8022  -22.2576   15.0651 C   0  0  0  0  0  0  0  0  0  0  0  0
  -24.9922  -19.8901   15.1493 C   0  0  0  0  0  0  0  0  0  0  0  0
  -25.9405  -20.8074   13.0323 C   0  0  0  0  0  0  0  0  0  0  0  0
  -30.7271  -16.5472   15.4429 C   0  0  0  0  0  0  0  0  0  0  0  0
  -28.6439  -20.7630   23.3070 C   0  0  0  0  0  0  0  0  0  0  0  0
  -33.4678  -20.4485   24.0717 C   0  0  0  0  0  0  0  0  0  0  0  0
  -29.5314  -19.6604   25.3673 C   0  0  0  0  0  0  0  0  0  0  0  0
  -32.5198  -21.5241   21.9915 C   0  0  0  0  0  0  0  0  0  1  0  0
  -32.2049  -20.6322   23.2042 C   0  0  1  0  0  0  0  0  0  0  0  0
  -27.4875  -20.3041   14.9676 C   0  0  1  0  0  0  0  0  0  0  0  0
  -28.3736  -16.6356   14.6111 C   0  0  2  0  0  0  0  0  0  0  0  0
  -26.0769  -20.8234   14.5704 C   0  0  0  0  0  0  0  0  0  0  0  0
  -25.8081  -11.5326   20.3291 N   0  0  0  0  0  0  0  0  0  0  0  0
  -26.2078  -12.8066   20.1767 N   0  0  0  0  0  0  0  0  0  0  0  0
  -31.8332  -17.2715   21.5846 N   0  3  0  0  0  0  0  0  0  0  0  0
  -29.4327  -21.7670   15.4149 N   0  0  0  0  0  0  0  0  0  0  0  0
  -29.9478  -13.5388   20.4224 N   0  0  0  0  0  0  0  0  0  0  0  0
  -25.4743  -15.0513   20.3608 N   0  0  0  0  0  0  0  0  0  0  0  0
  -21.8317  -12.6636   21.5551 N   0  0  0  0  0  0  0  0  0  0  0  0
  -30.0760  -15.6416   21.4828 N   0  0  0  0  0  0  0  0  0  0  0  0
  -30.5021  -25.2014   14.8167 N   0  0  0  0  0  0  0  0  0  0  0  0
  -27.7854  -18.9585   14.4891 N   0  0  0  0  0  0  0  0  0  0  0  0
  -29.5084  -19.7778   23.9236 N   0  0  3  0  0  0  0  0  0  0  0  0
  -29.4261  -15.8430   15.3074 N   0  3  0  0  0  0  0  0  0  0  0  0
  -22.6465  -14.7835   21.2373 O   0  0  0  0  0  0  0  0  0  0  0  0
  -28.6292  -24.1719   15.7413 O   0  0  0  0  0  0  0  0  0  0  0  0
  -28.7143  -21.3608   13.2342 O   0  0  0  0  0  0  0  0  0  0  0  0
  -28.1926  -18.0311   16.5751 O   0  0  0  0  0  0  0  0  0  0  0  0
  -31.8590  -14.8267   20.2424 O   0  0  0  0  0  0  0  0  0  0  0  0
  -21.4658   -7.1096   21.7889 O   0  0  0  0  0  0  0  0  0  0  0  0
  -31.3141  -21.8236   21.2894 O   0  0  0  0  0  0  0  0  0  1  0  0
  -23.7848   -3.0921   24.7699 F   0  0  0  0  0  0  0  0  0  0  0  0
  -23.7577   -5.8359   20.9129 F   0  0  0  0  0  0  0  0  0  0  0  0
  1  2  1  0  0  0  0
  1  5  2  0  0  0  0
  2  6  2  0  0  0  0
  3  8  2  0  0  0  0
  3 17  1  0  0  0  0
  4  9  1  0  0  0  0
  4 17  2  0  0  0  0
  5 19  1  0  0  0  0
  6 21  1  0  0  0  0
  7 10  2  0  0  0  0
  7 20  1  0  0  0  0
  8 25  1  0  0  0  0
  9 25  2  0  0  0  0
 10 26  1  0  0  0  0
 11 12  2  0  0  0  0
 11 27  1  0  0  0  0
 12 28  1  0  0  0  0
 13 22  1  0  0  0  0
 13 26  2  0  0  0  0
 14 24  1  0  0  0  0
 14 32  2  0  0  0  0
 15 28  2  0  0  0  0
 15 29  1  0  0  0  0
 16 23  1  0  0  0  0
 16 71  2  0  0  0  0
 17 30  1  0  0  0  0
 18 30  1  0  0  0  0
 18 31  2  0  0  0  0
 18 33  1  0  0  0  0
 19 21  2  0  0  0  0
 19 38  1  0  0  0  0
 20 22  2  0  0  0  0
 20 39  1  0  0  0  0
 21 50  1  0  0  0  0
 22 40  1  0  0  0  0
 23 24  2  0  0  0  0
 23 65  1  0  0  0  0
 24 79  1  0  0  0  0
 25 86  1  0  0  0  0
 26 87  1  0  0  0  0
 27 29  2  0  0  0  0
 27 86  1  0  0  0  0
 28 88  1  0  0  0  0
 29 89  1  0  0  0  0
 30 69  2  0  0  0  0
 31 70  1  0  0  0  0
 31 74  1  0  0  0  0
 32 71  1  0  0  0  0
 32 76  1  0  0  0  0
 33 75  1  0  0  0  0
 33 81  2  0  0  0  0
 34 51  1  0  0  0  0
 34 77  1  0  0  0  0
 34 82  2  0  0  0  0
 35 66  1  0  0  0  0
 35 72  1  0  0  0  0
 35 83  2  0  0  0  0
 36 67  1  0  0  0  0
 36 78  1  0  0  0  0
 36 84  2  0  0  0  0
 37 73  1  0  0  0  0
 37 76  1  0  0  0  0
 37 85  2  0  0  0  0
 38 41  1  0  0  0  0
 39 51  1  0  0  0  0
 40 72  1  0  0  0  0
 41 44  1  0  0  0  0
 42 45  1  0  0  0  0
 42 46  1  0  0  0  0
 43 47  1  0  0  0  0
 43 48  1  0  0  0  0
 44 50  1  0  0  0  0
 45 52  1  0  0  0  0
 46 52  1  0  0  0  0
 47 53  1  0  0  0  0
 48 73  1  0  0  0  0
 49 53  1  0  0  0  0
 49 73  1  0  0  0  0
 50 77  1  0  0  0  0
 51 72  1  0  0  0  0
 52 61  1  0  0  0  0
 53 70  1  0  0  0  0
 54 62  1  0  0  0  0
 55 63  1  0  0  0  0
 56 67  1  0  0  0  0
 57 68  1  0  0  0  0
 58 68  1  0  0  0  0
 59 68  1  0  0  0  0
 60 80  1  0  0  0  0
 61 79  1  0  0  0  0
 62 65  1  0  0  0  0
 63 79  1  0  0  0  0
 64 65  1  0  0  0  0
 64 87  1  0  0  0  0
 66 68  1  0  0  0  0
 66 78  1  0  0  0  0
 67 80  1  0  0  0  0
 69 70  1  0  0  0  0
M  CHG  2  71   1  80   1
M  ISO  4  37 100  64 101  76 100  87 101
M  END
> <Batch ID>
0118

> <Smiles>
CCC(c1cnc([100NH:0][100C:0](=O)N2CCCC(n3nc(-c4ccc(Oc5ccc(F)cc5F)cc4)c(C(N)=O)c3N)C2)cc1N(CC)CC1CCC1)[101CH2:1][101O:1]c1ccc2c(c1)CN(C(=O)C(NC(=O)C(C)NC)C(C)(C)C)C(C(=O)NC1CCCc3ccccc31)C2

> <Shape>
0.192

> <Color>
0.193

> <Negative vol penalty>
0.000

$$$$

  -OEChem-04052320183D

 83 91  0     1  0  0  0  0  0999 V2000
  -17.5888  -25.9264   23.1141 C   0  0  0  0  0  0  0  0  0  0  0  0
  -18.8468  -25.5419   22.6612 C   0  0  0  0  0  0  0  0  0  0  0  0
  -24.1736  -14.5829   21.5635 C   0  0  0  0  0  0  0  0  0  0  0  0
  -25.0532  -14.8576   19.3302 C   0  0  0  0  0  0  0  0  0  0  0  0
  -17.2028  -27.2643   23.0438 C   0  0  0  0  0  0  0  0  0  0  0  0
  -19.7191  -26.4949   22.1366 C   0  0  0  0  0  0  0  0  0  0  0  0
  -25.8220  -26.5732   22.6410 C   0  0  0  0  0  0  0  0  0  0  0  0
  -23.5425  -13.4029   21.1698 C   0  0  0  0  0  0  0  0  0  0  0  0
  -24.4222  -13.6776   18.9365 C   0  0  0  0  0  0  0  0  0  0  0  0
  -26.8398  -26.1713   21.7771 C   0  0  0  0  0  0  0  0  0  0  0  0
  -21.9966  -10.1287   20.8464 C   0  0  0  0  0  0  0  0  0  0  0  0
  -22.0948   -9.0263   21.6953 C   0  0  0  0  0  0  0  0  0  0  0  0
  -27.0577  -28.4404   20.9879 C   0  0  0  0  0  0  0  0  0  0  0  0
  -26.9872  -25.1830   17.5562 C   0  0  0  0  0  0  0  0  0  0  0  0
  -24.5007   -9.0744   21.4794 C   0  0  0  0  0  0  0  0  0  0  0  0
  -27.8902  -23.2118   16.9488 C   0  0  0  0  0  0  0  0  0  0  0  0
  -24.9289  -15.3103   20.6437 C   0  0  0  0  0  0  0  0  0  0  0  0
  -26.8787  -16.6646   21.5774 C   0  0  0  0  0  0  0  0  0  0  0  0
  -18.0745  -28.2358   22.5270 C   0  0  0  0  0  0  0  0  0  0  0  0
  -25.4062  -27.9120   22.6770 C   0  0  0  0  0  0  0  0  0  0  0  0
  -19.3438  -27.8469   22.0581 C   0  0  0  0  0  0  0  0  0  0  0  0
  -26.0361  -28.8572   21.8550 C   0  0  0  0  0  0  0  0  0  0  0  0
  -26.6922  -23.8452   17.1951 C   0  0  0  0  0  0  0  0  0  0  0  0
  -23.6668  -12.9503   19.8563 C   0  0  0  0  0  0  0  0  0  0  0  0
  -27.4558  -27.1044   20.9483 C   0  0  0  0  0  0  0  0  0  0  0  0
  -23.1505  -10.7039   20.3139 C   0  0  0  0  0  0  0  0  0  0  0  0
  -23.3469   -8.4991   22.0118 C   0  0  0  0  0  0  0  0  0  0  0  0
  -24.4025  -10.1767   20.6304 C   0  0  0  0  0  0  0  0  0  0  0  0
  -25.5806  -16.5296   21.0497 C   0  0  0  0  0  0  0  0  0  0  0  0
  -28.3567  -25.3264   17.5194 C   0  0  0  0  0  0  0  0  0  0  0  0
  -27.0209  -18.0128   21.7984 C   0  0  0  0  0  0  0  0  0  0  0  0
  -27.8675  -15.6612   21.8440 C   0  0  0  0  0  0  0  0  0  0  0  0
  -22.6816  -29.4318   22.0683 C   0  0  0  0  0  0  0  0  0  0  0  0
  -24.3141  -31.9980   23.1961 C   0  0  0  0  0  0  0  0  0  0  0  0
  -27.3297  -33.4857   23.7790 C   0  0  0  0  0  0  0  0  0  0  0  0
  -24.4352  -22.8374   19.3720 C   0  0  0  0  0  0  0  0  0  0  0  0
  -17.5948  -29.6622   22.4275 C   0  0  0  0  0  0  0  0  0  0  0  0
  -24.3252  -28.3344   23.6337 C   0  0  0  0  0  0  0  0  0  0  0  0
  -25.6406  -30.3104   21.8702 C   0  0  0  0  0  0  0  0  0  0  0  0
  -18.7203  -30.6690   22.2039 C   0  0  0  0  0  0  0  0  0  0  0  0
  -24.4693  -21.9303   22.8147 C   0  0  0  0  0  0  0  0  0  0  0  0
  -19.6644  -30.1802   21.1101 C   0  0  0  0  0  0  0  0  0  0  0  0
  -24.8751  -20.4555   22.8004 C   0  0  0  0  0  0  0  0  0  0  0  0
  -23.5752  -22.2812   21.6275 C   0  0  0  0  0  0  0  0  0  0  0  0
  -24.5317  -20.4423   20.2943 C   0  0  0  0  0  0  0  0  0  0  0  0
  -20.3276  -28.8553   21.5054 C   0  0  1  0  0  0  0  0  0  0  0  0
  -23.6303  -29.6271   23.2171 C   0  0  1  0  0  0  0  0  0  0  0  0
  -25.4796  -20.0534   21.4416 C   0  0  2  0  0  0  0  0  0  0  0  0
  -29.5043  -27.3392   16.5379 C   0  0  0  0  0  0  0  0  0  0  0  0
  -28.3432  -35.5990   24.6758 C   0  0  0  0  0  0  0  0  0  0  0  0
  -30.6524  -23.4626   15.5467 C   0  0  0  0  0  0  0  0  0  0  0  0
  -30.7897  -22.7766   17.9791 C   0  0  0  0  0  0  0  0  0  0  0  0
  -23.5756  -33.4452   20.6134 C   0  0  0  0  0  0  0  0  0  0  0  0
  -25.3561  -35.1281   21.1293 C   0  0  0  0  0  0  0  0  0  0  0  0
  -23.4198  -34.8492   22.6772 C   0  0  0  0  0  0  0  0  0  0  0  0
  -28.7405  -32.0311   25.9360 C   0  0  0  0  0  0  0  0  0  0  0  0
  -25.3498  -23.2406   17.1004 C   0  0  0  0  0  0  0  0  0  0  0  0
  -28.5907  -27.4458   18.8864 C   0  0  0  0  0  0  0  0  0  1  0  0
  -29.2185  -26.5439   17.8149 C   0  0  1  0  0  0  0  0  0  0  0  0
  -25.1994  -33.0558   22.5826 C   0  0  1  0  0  0  0  0  0  0  0  0
  -27.8872  -34.1860   25.0050 C   0  0  2  0  0  0  0  0  0  0  0  0
  -30.3043  -23.8367   16.9888 C   0  0  0  0  0  0  0  0  0  0  0  0
  -24.3941  -34.0919   21.7487 C   0  0  0  0  0  0  0  0  0  0  0  0
  -24.9435  -17.6986   20.9420 N   0  0  0  0  0  0  0  0  0  0  0  0
  -28.8952  -24.1219   17.1487 N   0  0  0  0  0  0  0  0  0  0  0  0
  -25.8450  -18.5810   21.4052 N   0  0  0  0  0  0  0  0  0  0  0  0
  -24.5742  -30.6731   22.8183 N   0  0  0  0  0  0  0  0  0  0  0  0
  -24.2069  -21.8754   20.3697 N   0  0  0  0  0  0  0  0  0  0  0  0
  -28.0358  -18.7556   22.2888 N   0  0  0  0  0  0  0  0  0  0  0  0
  -27.5572  -14.3247   21.5581 N   0  0  0  0  0  0  0  0  0  0  0  0
  -21.3988  -29.0883   22.4502 N   0  0  0  0  0  0  0  0  0  0  0  0
  -25.9627  -33.6370   23.6817 N   0  0  0  0  0  0  0  0  0  0  0  0
  -25.0440  -22.3701   18.2137 N   0  0  0  0  0  0  0  0  0  0  0  0
  -29.0516  -33.4310   25.5482 N   0  3  0  0  0  0  0  0  0  0  0  0
  -28.9870  -15.9397   22.3368 O   0  0  0  0  0  0  0  0  0  0  0  0
  -23.0834  -29.5830   20.9205 O   0  0  0  0  0  0  0  0  0  0  0  0
  -23.4293  -32.3342   23.9870 O   0  0  0  0  0  0  0  0  0  0  0  0
  -28.0368  -32.8694   22.9848 O   0  0  0  0  0  0  0  0  0  0  0  0
  -24.1246  -24.0260   19.5058 O   0  0  0  0  0  0  0  0  0  0  0  0
  -23.0513  -11.7988   19.4718 O   0  0  0  0  0  0  0  0  0  0  0  0
  -28.4491  -26.7146   20.1037 O   0  0  0  0  0  0  0  0  0  1  0  0
  -23.4411   -7.4414   22.8283 F   0  0  0  0  0  0  0  0  0  0  0  0
  -25.5146  -10.7258   20.1228 F   0  0  0  0  0  0  0  0  0  0  0  0
  1  2  1  0  0  0  0
  1  5  2  0  0  0  0
  2  6  2  0  0  0  0
  3  8  2  0  0  0  0
  3 17  1  0  0  0  0
  4  9  1  0  0  0  0
  4 17  2  0  0  0  0
  5 19  1  0  0  0  0
  6 21  1  0  0  0  0
  7 10  2  0  0  0  0
  7 20  1  0  0  0  0
  8 24  1  0  0  0  0
  9 24  2  0  0  0  0
 10 25  1  0  0  0  0
 11 12  2  0  0  0  0
 11 26  1  0  0  0  0
 12 27  1  0  0  0  0
 13 22  1  0  0  0  0
 13 25  2  0  0  0  0
 14 23  1  0  0  0  0
 14 30  2  0  0  0  0
 15 27  2  0  0  0  0
 15 28  1  0  0  0  0
 16 23  2  0  0  0  0
 16 65  1  0  0  0  0
 17 29  1  0  0  0  0
 18 29  1  0  0  0  0
 18 31  2  0  0  0  0
 18 32  1  0  0  0  0
 19 21  2  0  0  0  0
 19 37  1  0  0  0  0
 20 22  2  0  0  0  0
 20 38  1  0  0  0  0
 21 46  1  0  0  0  0
 22 39  1  0  0  0  0
 23 57  1  0  0  0  0
 24 80  1  0  0  0  0
 25 81  1  0  0  0  0
 26 28  2  0  0  0  0
 26 80  1  0  0  0  0
 27 82  1  0  0  0  0
 28 83  1  0  0  0  0
 29 64  2  0  0  0  0
 30 59  1  0  0  0  0
 30 65  1  0  0  0  0
 31 66  1  0  0  0  0
 31 69  1  0  0  0  0
 32 70  1  0  0  0  0
 32 75  2  0  0  0  0
 33 47  1  0  0  0  0
 33 71  1  0  0  0  0
 33 76  2  0  0  0  0
 34 60  1  0  0  0  0
 34 67  1  0  0  0  0
 34 77  2  0  0  0  0
 35 61  1  0  0  0  0
 35 72  1  0  0  0  0
 35 78  2  0  0  0  0
 36 68  1  0  0  0  0
 36 73  1  0  0  0  0
 36 79  2  0  0  0  0
 37 40  1  0  0  0  0
 38 47  1  0  0  0  0
 39 67  1  0  0  0  0
 40 42  1  0  0  0  0
 41 43  1  0  0  0  0
 41 44  1  0  0  0  0
 42 46  1  0  0  0  0
 43 48  1  0  0  0  0
 44 68  1  0  0  0  0
 45 48  1  0  0  0  0
 45 68  1  0  0  0  0
 46 71  1  0  0  0  0
 47 67  1  0  0  0  0
 48 66  1  0  0  0  0
 49 59  1  0  0  0  0
 50 61  1  0  0  0  0
 51 62  1  0  0  0  0
 52 62  1  0  0  0  0
 53 63  1  0  0  0  0
 54 63  1  0  0  0  0
 55 63  1  0  0  0  0
 56 74  1  0  0  0  0
 57 73  1  0  0  0  0
 58 59  1  0  0  0  0
 58 81  1  0  0  0  0
 60 63  1  0  0  0  0
 60 72  1  0  0  0  0
 61 74  1  0  0  0  0
 62 65  1  0  0  0  0
 64 66  1  0  0  0  0
M  CHG  1  74   1
M  ISO  4  36 100  58 101  73 100  81 101
M  END
> <Batch ID>
0118

> <Smiles>
CNC(C)C(=O)NC(C(=O)N1Cc2cc([101O:1][101CH2:1]C(C)c3cc(C[100NH:0][100C:0](=O)N4CCCC(n5nc(-c6ccc(Oc7ccc(F)cc7F)cc6)c(C(N)=O)c5N)C4)cn3C(C)C)ccc2CC1C(=O)NC1CCCc2ccccc21)C(C)(C)C

> <Shape>
0.252

> <Color>
0.092

> <Negative vol penalty>
0.000

$$$$

  -OEChem-04052320183D

 86 95  0     1  0  0  0  0  0999 V2000
  -29.0680  -23.6136   18.5022 C   0  0  0  0  0  0  0  0  0  0  0  0
  -27.7983  -23.9072   18.9891 C   0  0  0  0  0  0  0  0  0  0  0  0
  -27.7786  -14.9107   21.4619 C   0  0  0  0  0  0  0  0  0  0  0  0
  -26.0945  -15.3635   19.7898 C   0  0  0  0  0  0  0  0  0  0  0  0
  -30.1894  -24.2067   19.0805 C   0  0  0  0  0  0  0  0  0  0  0  0
  -27.6494  -24.7932   20.0554 C   0  0  0  0  0  0  0  0  0  0  0  0
  -23.9140  -28.1287   19.3028 C   0  0  0  0  0  0  0  0  0  0  0  0
  -27.4355  -13.5589   21.4414 C   0  0  0  0  0  0  0  0  0  0  0  0
  -25.7514  -14.0117   19.7692 C   0  0  0  0  0  0  0  0  0  0  0  0
  -22.6094  -27.6796   19.5032 C   0  0  0  0  0  0  0  0  0  0  0  0
  -24.1866  -10.7394   19.5379 C   0  0  0  0  0  0  0  0  0  0  0  0
  -22.8302  -10.4145   19.5521 C   0  0  0  0  0  0  0  0  0  0  0  0
  -17.6142  -27.1025   19.6523 C   0  0  0  0  0  0  0  0  0  0  0  0
  -22.5945  -28.7141   21.6824 C   0  0  0  0  0  0  0  0  0  0  0  0
  -22.5813  -11.5465   21.6720 C   0  0  0  0  0  0  0  0  0  0  0  0
  -16.3293  -26.7498   20.0321 C   0  0  0  0  0  0  0  0  0  0  0  0
  -27.1081  -15.8131   20.6361 C   0  0  0  0  0  0  0  0  0  0  0  0
  -18.4234  -25.4146   21.1624 C   0  0  0  0  0  0  0  0  0  0  0  0
  -28.4263  -17.8546   19.8601 C   0  0  0  0  0  0  0  0  0  0  0  0
  -30.0536  -25.1079   20.1482 C   0  0  0  0  0  0  0  0  0  0  0  0
  -24.5736  -28.8658   20.2968 C   0  0  0  0  0  0  0  0  0  0  0  0
  -28.7702  -25.3979   20.6495 C   0  0  0  0  0  0  0  0  0  0  0  0
  -23.9066  -29.1735   21.4911 C   0  0  0  0  0  0  0  0  0  0  0  0
  -18.6757  -26.4174   20.2329 C   0  0  0  0  0  0  0  0  0  0  0  0
  -26.4219  -13.1094   20.5951 C   0  0  0  0  0  0  0  0  0  0  0  0
  -21.9505  -27.9698   20.6943 C   0  0  0  0  0  0  0  0  0  0  0  0
  -24.7404  -11.4678   20.5907 C   0  0  0  0  0  0  0  0  0  0  0  0
  -22.0275  -10.8181   20.6192 C   0  0  0  0  0  0  0  0  0  0  0  0
  -23.9378  -11.8713   21.6577 C   0  0  0  0  0  0  0  0  0  0  0  0
  -27.4617  -17.2097   20.6572 C   0  0  0  0  0  0  0  0  0  0  0  0
  -17.1022  -25.1375   21.4747 C   0  0  0  0  0  0  0  0  0  0  0  0
  -28.3805  -19.1676   20.2605 C   0  0  0  0  0  0  0  0  0  0  0  0
  -19.5196  -24.6808   21.7833 C   0  0  0  0  0  0  0  0  0  0  0  0
  -29.2867  -17.3150   18.8481 C   0  0  0  0  0  0  0  0  0  0  0  0
  -27.1857  -28.4261   22.0539 C   0  0  0  0  0  0  0  0  0  0  0  0
  -26.5593  -31.4522   23.0400 C   0  0  0  0  0  0  0  0  0  0  0  0
  -24.2634  -33.9379   23.4838 C   0  0  0  0  0  0  0  0  0  0  0  0
  -24.1086  -22.5110   22.7949 C   0  0  0  0  0  0  0  0  0  0  0  0
  -31.2985  -25.6877   20.7717 C   0  0  0  0  0  0  0  0  0  0  0  0
  -25.9714  -29.3658   20.0543 C   0  0  0  0  0  0  0  0  0  0  0  0
  -24.5633  -29.9788   22.5814 C   0  0  0  0  0  0  0  0  0  0  0  0
  -31.0281  -26.9037   21.6540 C   0  0  0  0  0  0  0  0  0  0  0  0
  -27.3761  -21.8892   24.0651 C   0  0  0  0  0  0  0  0  0  0  0  0
  -29.8498  -26.6365   22.5850 C   0  0  0  0  0  0  0  0  0  0  0  0
  -16.6816  -22.6427   21.9974 C   0  0  0  0  0  0  0  0  0  0  0  0
  -15.4413  -23.3824   22.3909 C   0  0  0  0  0  0  0  0  0  0  0  0
  -27.8556  -20.6776   23.2638 C   0  0  0  0  0  0  0  0  0  0  0  0
  -25.8828  -21.8067   24.3737 C   0  0  0  0  0  0  0  0  0  0  0  0
  -25.4973  -20.3876   22.3959 C   0  0  0  0  0  0  0  0  0  0  0  0
  -28.5661  -26.3731   21.7886 C   0  0  1  0  0  0  0  0  0  0  0  0
  -16.7779  -24.0679   22.4686 C   0  0  0  0  0  0  0  0  0  0  0  0
  -26.7295  -29.6688   21.3430 C   0  0  1  0  0  0  0  0  0  0  0  0
  -26.9856  -20.4529   22.0124 C   0  0  2  0  0  0  0  0  0  0  0  0
  -24.0423  -36.2844   24.3455 C   0  0  0  0  0  0  0  0  0  0  0  0
  -26.6706  -30.4081   25.9049 C   0  0  0  0  0  0  0  0  0  0  0  0
  -25.5307  -32.5118   26.6419 C   0  0  0  0  0  0  0  0  0  0  0  0
  -27.7750  -32.6251   25.5588 C   0  0  0  0  0  0  0  0  0  0  0  0
  -23.3893  -34.9489   20.8432 C   0  0  0  0  0  0  0  0  0  0  0  0
  -20.0771  -26.7808   19.8385 C   0  0  0  0  0  0  0  0  0  1  0  0
  -21.0104  -22.6745   21.6348 C   0  0  0  0  0  0  0  0  0  0  0  0
  -22.3762  -23.0933   21.1159 C   0  0  0  0  0  0  0  0  0  0  0  0
  -25.7479  -32.0670   24.1548 C   0  0  1  0  0  0  0  0  0  0  0  0
  -24.2933  -35.4127   23.1249 C   0  0  2  0  0  0  0  0  0  0  0  0
  -26.4191  -31.8862   25.5455 C   0  0  0  0  0  0  0  0  0  0  0  0
  -16.0449  -25.7814   20.9315 N   0  0  0  0  0  0  0  0  0  0  0  0
  -26.8481  -18.0443   21.5004 N   0  0  0  0  0  0  0  0  0  0  0  0
  -27.4286  -19.2270   21.2354 N   0  0  0  0  0  0  0  0  0  0  0  0
  -25.9328  -30.4398   22.2996 N   0  0  0  0  0  0  0  0  0  0  0  0
  -25.1141  -21.5947   23.1448 N   0  0  0  0  0  0  0  0  0  0  0  0
  -29.0622  -20.2656   19.8703 N   0  0  0  0  0  0  0  0  0  0  0  0
  -29.2041  -15.9455   18.5615 N   0  0  0  0  0  0  0  0  0  0  0  0
  -19.9521  -23.5212   21.1329 N   0  0  0  0  0  0  0  0  0  0  0  0
  -28.0117  -27.6165   21.2977 N   0  0  0  0  0  0  0  0  0  0  0  0
  -25.5224  -33.4578   23.7764 N   0  0  0  0  0  0  0  0  0  0  0  0
  -23.4325  -22.2394   21.6117 N   0  0  0  0  0  0  0  0  0  0  0  0
  -23.2500  -35.7191   22.1059 N   0  3  0  0  0  0  0  0  0  0  0  0
  -20.0147  -25.0769   22.8512 O   0  0  0  0  0  0  0  0  0  0  0  0
  -30.1161  -18.0230   18.2281 O   0  0  0  0  0  0  0  0  0  0  0  0
  -26.8169  -28.2180   23.2038 O   0  0  0  0  0  0  0  0  0  0  0  0
  -27.7041  -31.8604   22.8292 O   0  0  0  0  0  0  0  0  0  0  0  0
  -23.2263  -33.2788   23.5062 O   0  0  0  0  0  0  0  0  0  0  0  0
  -23.8372  -23.5008   23.4830 O   0  0  0  0  0  0  0  0  0  0  0  0
  -26.0870  -11.7903   20.5747 O   0  0  0  0  0  0  0  0  0  0  0  0
  -20.6774  -27.5321   20.8928 O   0  0  0  0  0  0  0  0  0  1  0  0
  -20.7247  -10.5073   20.6320 F   0  0  0  0  0  0  0  0  0  0  0  0
  -24.4639  -12.5723   22.6715 F   0  0  0  0  0  0  0  0  0  0  0  0
  1  2  1  0  0  0  0
  1  5  2  0  0  0  0
  2  6  2  0  0  0  0
  3  8  2  0  0  0  0
  3 17  1  0  0  0  0
  4  9  1  0  0  0  0
  4 17  2  0  0  0  0
  5 20  1  0  0  0  0
  6 22  1  0  0  0  0
  7 10  2  0  0  0  0
  7 21  1  0  0  0  0
  8 25  1  0  0  0  0
  9 25  2  0  0  0  0
 10 26  1  0  0  0  0
 11 12  2  0  0  0  0
 11 27  1  0  0  0  0
 12 28  1  0  0  0  0
 13 16  2  0  0  0  0
 13 24  1  0  0  0  0
 14 23  1  0  0  0  0
 14 26  2  0  0  0  0
 15 28  2  0  0  0  0
 15 29  1  0  0  0  0
 16 65  1  0  0  0  0
 17 30  1  0  0  0  0
 18 24  2  0  0  0  0
 18 31  1  0  0  0  0
 18 33  1  0  0  0  0
 19 30  1  0  0  0  0
 19 32  2  0  0  0  0
 19 34  1  0  0  0  0
 20 22  2  0  0  0  0
 20 39  1  0  0  0  0
 21 23  2  0  0  0  0
 21 40  1  0  0  0  0
 22 50  1  0  0  0  0
 23 41  1  0  0  0  0
 24 59  1  0  0  0  0
 25 83  1  0  0  0  0
 26 84  1  0  0  0  0
 27 29  2  0  0  0  0
 27 83  1  0  0  0  0
 28 85  1  0  0  0  0
 29 86  1  0  0  0  0
 30 66  2  0  0  0  0
 31 51  1  0  0  0  0
 31 65  2  0  0  0  0
 32 67  1  0  0  0  0
 32 70  1  0  0  0  0
 33 72  1  0  0  0  0
 33 77  2  0  0  0  0
 34 71  1  0  0  0  0
 34 78  2  0  0  0  0
 35 52  1  0  0  0  0
 35 73  1  0  0  0  0
 35 79  2  0  0  0  0
 36 62  1  0  0  0  0
 36 68  1  0  0  0  0
 36 80  2  0  0  0  0
 37 63  1  0  0  0  0
 37 74  1  0  0  0  0
 37 81  2  0  0  0  0
 38 69  1  0  0  0  0
 38 75  1  0  0  0  0
 38 82  2  0  0  0  0
 39 42  1  0  0  0  0
 40 52  1  0  0  0  0
 41 68  1  0  0  0  0
 42 44  1  0  0  0  0
 43 47  1  0  0  0  0
 43 48  1  0  0  0  0
 44 50  1  0  0  0  0
 45 46  1  0  0  0  0
 45 51  1  0  0  0  0
 46 51  1  0  0  0  0
 47 53  1  0  0  0  0
 48 69  1  0  0  0  0
 49 53  1  0  0  0  0
 49 69  1  0  0  0  0
 50 73  1  0  0  0  0
 52 68  1  0  0  0  0
 53 67  1  0  0  0  0
 54 63  1  0  0  0  0
 55 64  1  0  0  0  0
 56 64  1  0  0  0  0
 57 64  1  0  0  0  0
 58 76  1  0  0  0  0
 59 84  1  0  0  0  0
 60 61  1  0  0  0  0
 60 72  1  0  0  0  0
 61 75  1  0  0  0  0
 62 64  1  0  0  0  0
 62 74  1  0  0  0  0
 63 76  1  0  0  0  0
 66 67  1  0  0  0  0
M  CHG  1  76   1
M  ISO  4  38 100  59 101  75 100  84 101
M  END
> <Batch ID>
0118

> <Smiles>
CNC(C)C(=O)NC(C(=O)N1Cc2cc([101O:1][101CH2:1]c3ccnc(C4CC4)c3C(=O)NCC[100NH:0][100C:0](=O)N3CCCC(n4nc(-c5ccc(Oc6ccc(F)cc6F)cc5)c(C(N)=O)c4N)C3)ccc2CC1C(=O)NC1CCCc2ccccc21)C(C)(C)C

> <Shape>
0.285

> <Color>
0.075

> <Negative vol penalty>
0.000

$$$$

  -OEChem-04052320183D

 89 97  0     1  0  0  0  0  0999 V2000
  -31.6874  -30.5005   21.4292 C   0  0  0  0  0  0  0  0  0  0  0  0
  -31.1901  -29.4220   20.7046 C   0  0  0  0  0  0  0  0  0  0  0  0
  -26.6656  -12.9282   20.3047 C   0  0  0  0  0  0  0  0  0  0  0  0
  -25.0408  -14.6201   19.7262 C   0  0  0  0  0  0  0  0  0  0  0  0
  -31.1713  -30.7877   22.6921 C   0  0  0  0  0  0  0  0  0  0  0  0
  -30.1771  -28.6294   21.2432 C   0  0  0  0  0  0  0  0  0  0  0  0
  -25.6218  -25.9013   18.1916 C   0  0  0  0  0  0  0  0  0  0  0  0
  -25.7085  -11.9362   20.0918 C   0  0  0  0  0  0  0  0  0  0  0  0
  -24.0836  -13.6280   19.5133 C   0  0  0  0  0  0  0  0  0  0  0  0
  -25.4512  -24.5969   17.7299 C   0  0  0  0  0  0  0  0  0  0  0  0
  -23.5906   -8.9804   20.0485 C   0  0  0  0  0  0  0  0  0  0  0  0
  -23.4903   -7.9602   20.9943 C   0  0  0  0  0  0  0  0  0  0  0  0
  -24.1947  -24.0636   19.7188 C   0  0  0  0  0  0  0  0  0  0  0  0
  -22.9770   -9.5923   22.7002 C   0  0  0  0  0  0  0  0  0  0  0  0
  -26.3317  -14.2702   20.1219 C   0  0  0  0  0  0  0  0  0  0  0  0
  -28.5500  -15.4479   19.6750 C   0  0  0  0  0  0  0  0  0  0  0  0
  -30.1448  -30.0041   23.2423 C   0  0  0  0  0  0  0  0  0  0  0  0
  -25.0885  -26.2943   19.4276 C   0  0  0  0  0  0  0  0  0  0  0  0
  -29.6477  -28.9056   22.5152 C   0  0  0  0  0  0  0  0  0  0  0  0
  -24.3577  -25.3743   20.1928 C   0  0  0  0  0  0  0  0  0  0  0  0
  -24.4175  -12.2860   19.6961 C   0  0  0  0  0  0  0  0  0  0  0  0
  -24.7401  -23.6770   18.4948 C   0  0  0  0  0  0  0  0  0  0  0  0
  -23.3842  -10.3066   20.4284 C   0  0  0  0  0  0  0  0  0  0  0  0
  -23.1835   -8.2662   22.3202 C   0  0  0  0  0  0  0  0  0  0  0  0
  -23.0773  -10.6125   21.7543 C   0  0  0  0  0  0  0  0  0  0  0  0
  -27.3199  -15.2955   20.3422 C   0  0  0  0  0  0  0  0  0  0  0  0
  -29.1138  -16.5633   20.2448 C   0  0  0  0  0  0  0  0  0  0  0  0
  -29.1312  -14.6525   18.6333 C   0  0  0  0  0  0  0  0  0  0  0  0
  -26.3113  -27.3575   22.1621 C   0  0  0  0  0  0  0  0  0  0  0  0
  -23.1902  -27.7489   22.9544 C   0  0  0  0  0  0  0  0  0  0  0  0
  -20.1185  -25.9004   22.5484 C   0  0  0  0  0  0  0  0  0  0  0  0
  -28.7060  -21.8021   22.1247 C   0  0  0  0  0  0  0  0  0  0  0  0
  -29.6515  -30.3249   24.6310 C   0  0  0  0  0  0  0  0  0  0  0  0
  -25.2584  -27.7125   19.8991 C   0  0  0  0  0  0  0  0  0  0  0  0
  -23.7478  -25.7517   21.5172 C   0  0  0  0  0  0  0  0  0  0  0  0
  -28.3194  -29.6622   24.9724 C   0  0  0  0  0  0  0  0  0  0  0  0
  -27.7835  -19.1881   24.3591 C   0  0  0  0  0  0  0  0  0  0  0  0
  -28.3357  -28.1915   24.5681 C   0  0  0  0  0  0  0  0  0  0  0  0
  -27.6761  -17.9570   23.4574 C   0  0  0  0  0  0  0  0  0  0  0  0
  -31.4992  -24.0395   18.6713 C   0  0  0  0  0  0  0  0  0  0  0  0
  -27.2981  -20.4507   23.6505 C   0  0  0  0  0  0  0  0  0  0  0  0
  -27.8313  -19.4843   21.4469 C   0  0  0  0  0  0  0  0  0  0  0  0
  -31.5267  -24.2630   17.1706 C   0  0  0  0  0  0  0  0  0  0  0  0
  -29.0291  -23.8084   17.4027 C   0  0  0  0  0  0  0  0  0  0  0  0
  -28.5320  -28.0374   23.0551 C   0  0  1  0  0  0  0  0  0  0  0  0
  -25.1119  -27.8613   21.4103 C   0  0  1  0  0  0  0  0  0  0  0  0
  -29.5446  -22.5071   18.0179 C   0  0  1  0  0  0  0  0  0  0  0  0
  -28.3616  -18.1957   22.0986 C   0  0  2  0  0  0  0  0  0  0  0  0
  -30.6701  -22.7863   19.0735 C   0  0  1  0  0  0  0  0  0  0  0  0
  -17.7406  -26.6933   22.4301 C   0  0  0  0  0  0  0  0  0  0  0  0
  -31.1243  -20.4854   18.1760 C   0  0  0  0  0  0  0  0  0  0  0  0
  -33.0349  -21.9799   18.8240 C   0  0  0  0  0  0  0  0  0  0  0  0
  -27.8923  -20.5965   16.2981 C   0  0  0  0  0  0  0  0  0  0  0  0
  -23.9371  -20.4786   19.3293 C   0  0  0  0  0  0  0  0  0  0  0  0
  -29.2315  -24.2760   20.4867 C   0  0  0  0  0  0  0  0  0  0  0  0
  -31.2817  -23.2206   21.4656 C   0  0  0  0  0  0  0  0  0  0  0  0
  -23.1598  -27.1919   25.9542 C   0  0  0  0  0  0  0  0  0  0  0  0
  -20.8195  -26.3391   25.7015 C   0  0  0  0  0  0  0  0  0  0  0  0
  -21.3443  -28.7164   25.1578 C   0  0  0  0  0  0  0  0  0  0  0  0
  -19.6767  -24.5538   19.9502 C   0  0  0  0  0  0  0  0  0  0  0  0
  -28.3677  -21.6829   18.5501 C   0  0  0  0  0  0  0  0  0  0  0  0
  -26.1303  -20.5379   18.0782 C   0  0  0  0  0  0  0  0  0  0  0  0
  -22.1357  -26.8858   23.6040 C   0  0  1  0  0  0  0  0  0  0  0  0
  -18.9594  -26.2536   21.6340 C   0  0  2  0  0  0  0  0  0  0  0  0
  -31.6069  -21.5604   19.1383 C   0  0  0  0  0  0  0  0  0  0  0  0
  -27.2983  -21.3625   17.4870 C   0  0  2  0  0  0  0  0  0  0  0  0
  -25.0937  -21.3541   18.8620 C   0  0  1  0  0  0  0  0  0  1  0  0
  -30.1171  -23.0291   20.4930 C   0  0  0  0  0  0  0  0  0  0  0  0
  -21.8861  -27.2720   25.0892 C   0  0  0  0  0  0  0  0  0  0  0  0
  -27.1137  -16.2384   21.2654 N   0  0  0  0  0  0  0  0  0  0  0  0
  -28.2219  -16.9941   21.1824 N   0  0  0  0  0  0  0  0  0  0  0  0
  -23.9468  -27.1484   21.9381 N   0  0  0  0  0  0  0  0  0  0  0  0
  -27.9883  -20.6197   22.3694 N   0  0  0  0  0  0  0  0  0  0  0  0
  -30.2805  -17.2076   20.0303 N   0  0  0  0  0  0  0  0  0  0  0  0
  -28.8551  -14.9907   17.3014 N   0  0  0  0  0  0  0  0  0  0  0  0
  -27.2949  -28.3088   22.3547 N   0  0  0  0  0  0  0  0  0  0  0  0
  -20.9526  -26.9786   22.7554 N   0  0  0  0  0  0  0  0  0  0  0  0
  -29.3358  -21.8785   20.8885 N   0  0  0  0  0  0  0  0  0  0  0  0
  -30.1367  -24.5086   16.6749 N   0  3  0  0  0  0  0  0  0  0  0  0
  -18.5782  -25.0768   20.8027 N   0  3  0  0  0  0  0  0  0  0  0  0
  -29.8600  -13.6609   18.8764 O   0  0  0  0  0  0  0  0  0  0  0  0
  -26.3415  -26.1925   22.5408 O   0  0  0  0  0  0  0  0  0  0  0  0
  -23.3324  -28.9154   23.3297 O   0  0  0  0  0  0  0  0  0  0  0  0
  -20.2670  -24.7810   23.0336 O   0  0  0  0  0  0  0  0  0  0  0  0
  -28.7845  -22.7193   22.9490 O   0  0  0  0  0  0  0  0  0  0  0  0
  -23.4833  -11.3183   19.4880 O   0  0  0  0  0  0  0  0  0  0  0  0
  -24.5727  -22.4030   18.0468 O   0  0  0  0  0  0  0  0  0  1  0  0
  -23.0856   -7.2862   23.2281 F   0  0  0  0  0  0  0  0  0  0  0  0
  -22.8767  -11.8846   22.1250 F   0  0  0  0  0  0  0  0  0  0  0  0
  1  2  1  0  0  0  0
  1  5  2  0  0  0  0
  2  6  2  0  0  0  0
  3  8  2  0  0  0  0
  3 15  1  0  0  0  0
  4  9  1  0  0  0  0
  4 15  2  0  0  0  0
  5 17  1  0  0  0  0
  6 19  1  0  0  0  0
  7 10  2  0  0  0  0
  7 18  1  0  0  0  0
  8 21  1  0  0  0  0
  9 21  2  0  0  0  0
 10 22  1  0  0  0  0
 11 12  2  0  0  0  0
 11 23  1  0  0  0  0
 12 24  1  0  0  0  0
 13 20  1  0  0  0  0
 13 22  2  0  0  0  0
 14 24  2  0  0  0  0
 14 25  1  0  0  0  0
 15 26  1  0  0  0  0
 16 26  1  0  0  0  0
 16 27  2  0  0  0  0
 16 28  1  0  0  0  0
 17 19  2  0  0  0  0
 17 33  1  0  0  0  0
 18 20  2  0  0  0  0
 18 34  1  0  0  0  0
 19 45  1  0  0  0  0
 20 35  1  0  0  0  0
 21 86  1  0  0  0  0
 22 87  1  0  0  0  0
 23 25  2  0  0  0  0
 23 86  1  0  0  0  0
 24 88  1  0  0  0  0
 25 89  1  0  0  0  0
 26 70  2  0  0  0  0
 27 71  1  0  0  0  0
 27 74  1  0  0  0  0
 28 75  1  0  0  0  0
 28 81  2  0  0  0  0
 29 46  1  0  0  0  0
 29 76  1  0  0  0  0
 29 82  2  0  0  0  0
 30 63  1  0  0  0  0
 30 72  1  0  0  0  0
 30 83  2  0  0  0  0
 31 64  1  0  0  0  0
 31 77  1  0  0  0  0
 31 84  2  0  0  0  0
 32 73  1  0  0  0  0
 32 78  1  0  0  0  0
 32 85  2  0  0  0  0
 33 36  1  0  0  0  0
 34 46  1  0  0  0  0
 35 72  1  0  0  0  0
 36 38  1  0  0  0  0
 37 39  1  0  0  0  0
 37 41  1  0  0  0  0
 38 45  1  0  0  0  0
 39 48  1  0  0  0  0
 40 43  1  0  0  0  0
 40 49  1  0  0  0  0
 41 73  1  0  0  0  0
 42 48  1  0  0  0  0
 42 73  1  0  0  0  0
 43 79  1  0  0  0  0
 44 47  1  0  0  0  0
 44 79  1  0  0  0  0
 45 76  1  0  0  0  0
 46 72  1  0  0  0  0
 47 49  1  0  0  0  0
 47 61  1  0  0  0  0
 48 71  1  0  0  0  0
 49 65  1  0  0  0  0
 49 68  1  0  0  0  0
 50 64  1  0  0  0  0
 51 65  1  0  0  0  0
 52 65  1  0  0  0  0
 53 66  1  0  0  0  0
 54 67  1  0  0  0  0
 55 68  1  0  0  0  0
 56 68  1  0  0  0  0
 57 69  1  0  0  0  0
 58 69  1  0  0  0  0
 59 69  1  0  0  0  0
 60 80  1  0  0  0  0
 61 66  1  0  0  0  0
 62 66  1  0  0  0  0
 62 67  1  0  0  0  0
 63 69  1  0  0  0  0
 63 77  1  0  0  0  0
 64 80  1  0  0  0  0
 67 87  1  0  0  0  0
 68 78  1  0  0  0  0
 70 71  1  0  0  0  0
M  CHG  2  79   1  80   1
M  ISO  4  32 100  67 101  78 100  87 101
M  END
> <Batch ID>
0118

> <Smiles>
CNC(C)C(=O)NC(C(=O)N1Cc2cc([101O:1][101CH:1](C)CC(C)CC3CNCCC3(C(C)C)C(C)(C)[100NH:0][100C:0](=O)N3CCCC(n4nc(-c5ccc(Oc6ccc(F)cc6F)cc5)c(C(N)=O)c4N)C3)ccc2CC1C(=O)NC1CCCc2ccccc21)C(C)(C)C

> <Shape>
0.225

> <Color>
0.056

> <Negative vol penalty>
0.000

$$$$

  -OEChem-04052320183D

 88 97  0     1  0  0  0  0  0999 V2000
  -25.3231  -23.8554   23.0302 C   0  0  0  0  0  0  0  0  0  0  0  0
  -26.0093  -23.0263   22.1501 C   0  0  0  0  0  0  0  0  0  0  0  0
  -26.5394  -29.0100   19.2740 C   0  0  0  0  0  0  0  0  0  0  0  0
  -26.5025  -28.3566   21.5996 C   0  0  0  0  0  0  0  0  0  0  0  0
  -24.7573  -23.3221   24.1864 C   0  0  0  0  0  0  0  0  0  0  0  0
  -26.1197  -21.6618   22.4197 C   0  0  0  0  0  0  0  0  0  0  0  0
  -29.1356  -17.2708   19.4614 C   0  0  0  0  0  0  0  0  0  0  0  0
  -25.2952  -29.6219   19.4261 C   0  0  0  0  0  0  0  0  0  0  0  0
  -25.2583  -28.9686   21.7518 C   0  0  0  0  0  0  0  0  0  0  0  0
  -30.3964  -16.6776   19.5077 C   0  0  0  0  0  0  0  0  0  0  0  0
  -22.0302  -28.2616   21.0375 C   0  0  0  0  0  0  0  0  0  0  0  0
  -21.0436  -27.5605   21.7309 C   0  0  0  0  0  0  0  0  0  0  0  0
  -29.5022  -14.8974   20.8680 C   0  0  0  0  0  0  0  0  0  0  0  0
  -20.9200  -29.3430   23.3572 C   0  0  0  0  0  0  0  0  0  0  0  0
  -27.1430  -28.3773   20.3607 C   0  0  0  0  0  0  0  0  0  0  0  0
  -29.6934  -28.3326   20.3895 C   0  0  0  0  0  0  0  0  0  0  0  0
  -24.8721  -21.9525   24.4759 C   0  0  0  0  0  0  0  0  0  0  0  0
  -28.0491  -16.6865   20.1283 C   0  0  0  0  0  0  0  0  0  0  0  0
  -25.5350  -21.1004   23.5693 C   0  0  0  0  0  0  0  0  0  0  0  0
  -28.2281  -15.4838   20.8265 C   0  0  0  0  0  0  0  0  0  0  0  0
  -24.6546  -29.6012   20.6651 C   0  0  0  0  0  0  0  0  0  0  0  0
  -30.5806  -15.4922   20.2134 C   0  0  0  0  0  0  0  0  0  0  0  0
  -22.4617  -29.5033   21.5039 C   0  0  0  0  0  0  0  0  0  0  0  0
  -20.4885  -28.1012   22.8907 C   0  0  0  0  0  0  0  0  0  0  0  0
  -21.9066  -30.0440   22.6637 C   0  0  0  0  0  0  0  0  0  0  0  0
  -28.4279  -27.7445   20.2040 C   0  0  0  0  0  0  0  0  0  0  0  0
  -30.5843  -27.3224   20.1207 C   0  0  0  0  0  0  0  0  0  0  0  0
  -30.0333  -29.6723   20.7709 C   0  0  0  0  0  0  0  0  0  0  0  0
  -26.1188  -17.5857   22.4881 C   0  0  0  0  0  0  0  0  0  0  0  0
  -34.8276  -16.3494   24.1641 C   0  0  0  0  0  0  0  0  0  0  0  0
  -24.5757  -14.8286   21.7534 C   0  0  0  0  0  0  0  0  0  0  0  0
  -24.7172  -11.7053   20.3853 C   0  0  0  0  0  0  0  0  0  0  0  0
  -29.6179  -21.2698   20.2829 C   0  0  0  0  0  0  0  0  0  0  0  0
  -24.2339  -21.4269   25.7375 C   0  0  0  0  0  0  0  0  0  0  0  0
  -26.6896  -17.3248   20.0464 C   0  0  0  0  0  0  0  0  0  0  0  0
  -27.0897  -14.8055   21.5424 C   0  0  0  0  0  0  0  0  0  0  0  0
  -24.7802  -20.0664   26.1579 C   0  0  0  0  0  0  0  0  0  0  0  0
  -31.0673  -23.3212   17.5568 C   0  0  0  0  0  0  0  0  0  0  0  0
  -24.7699  -19.1132   24.9723 C   0  0  0  0  0  0  0  0  0  0  0  0
  -35.4274  -14.1118   23.2097 C   0  0  0  0  0  0  0  0  0  0  0  0
  -30.5892  -24.7278   17.9124 C   0  0  0  0  0  0  0  0  0  0  0  0
  -34.0936  -13.4539   22.8916 C   0  0  0  0  0  0  0  0  0  0  0  0
  -31.1285  -19.5463   22.8876 C   0  0  0  0  0  0  0  0  0  0  0  0
  -32.2238  -21.8037   22.5930 C   0  0  0  0  0  0  0  0  0  0  0  0
  -30.1109  -22.2505   18.0723 C   0  0  0  0  0  0  0  0  0  0  0  0
  -29.7948  -20.1794   22.4999 C   0  0  0  0  0  0  0  0  0  0  0  0
  -30.8686  -22.3882   22.1839 C   0  0  0  0  0  0  0  0  0  0  0  0
  -29.3580  -23.7509   19.8901 C   0  0  0  0  0  0  0  0  0  0  0  0
  -25.6942  -19.6185   23.8572 C   0  0  1  0  0  0  0  0  0  0  0  0
  -25.7673  -16.9149   21.1904 C   0  0  1  0  0  0  0  0  0  0  0  0
  -35.1949  -15.5908   22.9315 C   0  0  1  0  0  0  0  0  0  0  0  0
  -30.3236  -24.8503   19.4226 C   0  0  2  0  0  0  0  0  0  0  0  0
  -32.0477  -20.5952   23.5100 C   0  0  0  0  0  0  0  0  0  0  0  0
  -33.6262  -14.2129   21.6621 C   0  0  1  0  0  0  0  0  0  0  0  0
  -23.3064   -9.6730   19.9653 C   0  0  0  0  0  0  0  0  0  0  0  0
  -24.8165  -14.0565   24.6955 C   0  0  0  0  0  0  0  0  0  0  0  0
  -24.2782  -11.6985   24.0487 C   0  0  0  0  0  0  0  0  0  0  0  0
  -22.6107  -13.5107   23.6509 C   0  0  0  0  0  0  0  0  0  0  0  0
  -25.0563  -11.9329   17.4540 C   0  0  0  0  0  0  0  0  0  0  0  0
  -32.1310  -14.1567   21.4251 C   0  0  0  0  0  0  0  0  0  1  0  0
  -34.8472  -18.6166   25.1850 C   0  0  0  0  0  0  0  0  0  0  0  0
  -33.4579  -19.2067   25.0339 C   0  0  0  0  0  0  0  0  0  0  0  0
  -24.6809  -13.3918   22.2043 C   0  0  1  0  0  0  0  0  0  0  0  0
  -23.8054  -10.9943   19.4016 C   0  0  2  0  0  0  0  0  0  0  0  0
  -24.1186  -13.1779   23.6381 C   0  0  0  0  0  0  0  0  0  0  0  0
  -28.5038  -26.4602   19.8449 N   0  0  0  0  0  0  0  0  0  0  0  0
  -29.8277  -26.2331   19.8025 N   0  0  0  0  0  0  0  0  0  0  0  0
  -25.7810  -15.4718   21.4382 N   0  0  0  0  0  0  0  0  0  0  0  0
  -29.8362  -22.4157   19.4998 N   0  0  0  0  0  0  0  0  0  0  0  0
  -29.9946  -21.3420   21.6325 N   0  0  0  0  0  0  0  0  0  0  0  0
  -31.9332  -27.2685   20.1277 N   0  0  0  0  0  0  0  0  0  0  0  0
  -28.9949  -30.5829   21.0095 N   0  0  0  0  0  0  0  0  0  0  0  0
  -25.4982  -18.8058   22.6770 N   0  0  0  0  0  0  0  0  0  0  0  0
  -35.1280  -17.6763   24.0771 N   0  0  0  0  0  0  0  0  0  0  0  0
  -24.0203  -12.5925   21.1781 N   0  0  0  0  0  0  0  0  0  0  0  0
  -34.0538  -15.6263   21.9471 N   0  3  0  0  0  0  0  0  0  0  0  0
  -33.3770  -19.9836   23.7681 N   0  3  0  0  0  0  0  0  0  0  0  0
  -24.5308  -10.7185   18.1293 N   0  3  0  0  0  0  0  0  0  0  0  0
  -31.2228  -30.0552   20.8804 O   0  0  0  0  0  0  0  0  0  0  0  0
  -26.8945  -17.0363   23.2615 O   0  0  0  0  0  0  0  0  0  0  0  0
  -34.3127  -15.7587   25.1061 O   0  0  0  0  0  0  0  0  0  0  0  0
  -23.4644  -15.3586   21.6766 O   0  0  0  0  0  0  0  0  0  0  0  0
  -25.9260  -11.4922   20.4469 O   0  0  0  0  0  0  0  0  0  0  0  0
  -29.1186  -20.2443   19.8031 O   0  0  0  0  0  0  0  0  0  0  0  0
  -23.4407  -30.1985   20.8140 O   0  0  0  0  0  0  0  0  0  0  0  0
  -31.8200  -14.9069   20.2611 O   0  0  0  0  0  0  0  0  0  1  0  0
  -19.5400  -27.4286   23.5556 F   0  0  0  0  0  0  0  0  0  0  0  0
  -22.3163  -31.2371   23.1161 F   0  0  0  0  0  0  0  0  0  0  0  0
  1  2  1  0  0  0  0
  1  5  2  0  0  0  0
  2  6  2  0  0  0  0
  3  8  2  0  0  0  0
  3 15  1  0  0  0  0
  4  9  1  0  0  0  0
  4 15  2  0  0  0  0
  5 17  1  0  0  0  0
  6 19  1  0  0  0  0
  7 10  2  0  0  0  0
  7 18  1  0  0  0  0
  8 21  1  0  0  0  0
  9 21  2  0  0  0  0
 10 22  1  0  0  0  0
 11 12  2  0  0  0  0
 11 23  1  0  0  0  0
 12 24  1  0  0  0  0
 13 20  1  0  0  0  0
 13 22  2  0  0  0  0
 14 24  2  0  0  0  0
 14 25  1  0  0  0  0
 15 26  1  0  0  0  0
 16 26  1  0  0  0  0
 16 27  2  0  0  0  0
 16 28  1  0  0  0  0
 17 19  2  0  0  0  0
 17 34  1  0  0  0  0
 18 20  2  0  0  0  0
 18 35  1  0  0  0  0
 19 49  1  0  0  0  0
 20 36  1  0  0  0  0
 21 85  1  0  0  0  0
 22 86  1  0  0  0  0
 23 25  2  0  0  0  0
 23 85  1  0  0  0  0
 24 87  1  0  0  0  0
 25 88  1  0  0  0  0
 26 66  2  0  0  0  0
 27 67  1  0  0  0  0
 27 71  1  0  0  0  0
 28 72  1  0  0  0  0
 28 79  2  0  0  0  0
 29 50  1  0  0  0  0
 29 73  1  0  0  0  0
 29 80  2  0  0  0  0
 30 51  1  0  0  0  0
 30 74  1  0  0  0  0
 30 81  2  0  0  0  0
 31 63  1  0  0  0  0
 31 68  1  0  0  0  0
 31 82  2  0  0  0  0
 32 64  1  0  0  0  0
 32 75  1  0  0  0  0
 32 83  2  0  0  0  0
 33 69  1  0  0  0  0
 33 70  1  0  0  0  0
 33 84  2  0  0  0  0
 34 37  1  0  0  0  0
 35 50  1  0  0  0  0
 36 68  1  0  0  0  0
 37 39  1  0  0  0  0
 38 41  1  0  0  0  0
 38 45  1  0  0  0  0
 39 49  1  0  0  0  0
 40 42  1  0  0  0  0
 40 51  1  0  0  0  0
 41 52  1  0  0  0  0
 42 54  1  0  0  0  0
 43 46  1  0  0  0  0
 43 53  1  0  0  0  0
 44 47  1  0  0  0  0
 44 53  1  0  0  0  0
 45 69  1  0  0  0  0
 46 70  1  0  0  0  0
 47 70  1  0  0  0  0
 48 52  1  0  0  0  0
 48 69  1  0  0  0  0
 49 73  1  0  0  0  0
 50 68  1  0  0  0  0
 51 76  1  0  0  0  0
 52 67  1  0  0  0  0
 53 77  1  0  0  0  0
 54 60  1  0  0  0  0
 54 76  1  0  0  0  0
 55 64  1  0  0  0  0
 56 65  1  0  0  0  0
 57 65  1  0  0  0  0
 58 65  1  0  0  0  0
 59 78  1  0  0  0  0
 60 86  1  0  0  0  0
 61 62  1  0  0  0  0
 61 74  1  0  0  0  0
 62 77  1  0  0  0  0
 63 65  1  0  0  0  0
 63 75  1  0  0  0  0
 64 78  1  0  0  0  0
 66 67  1  0  0  0  0
M  CHG  3  76   1  77   1  78   1
M  ISO  4  33 100  60 101  70 100  86 101
M  END
> <Batch ID>
0118

> <Smiles>
CNC(C)C(=O)NC(C(=O)N1Cc2cc([101O:1][101CH2:1]C3CCC(C(=O)NCCNC4CC[100N:0]([100C:0](=O)N5CCCC(n6nc(-c7ccc(Oc8ccc(F)cc8F)cc7)c(C(N)=O)c6N)C5)CC4)N3)ccc2CC1C(=O)NC1CCCc2ccccc21)C(C)(C)C

> <Shape>
0.229

> <Color>
0.076

> <Negative vol penalty>
0.000

$$$$

  -OEChem-04052320183D

 83 91  0     1  0  0  0  0  0999 V2000
  -17.1695  -32.1760   22.3948 C   0  0  0  0  0  0  0  0  0  0  0  0
  -18.4546  -32.5250   21.9921 C   0  0  0  0  0  0  0  0  0  0  0  0
  -25.4671  -13.5438   22.0935 C   0  0  0  0  0  0  0  0  0  0  0  0
  -26.3724  -13.8224   19.8709 C   0  0  0  0  0  0  0  0  0  0  0  0
  -16.9697  -31.0379   23.1751 C   0  0  0  0  0  0  0  0  0  0  0  0
  -19.5408  -31.7366   22.3703 C   0  0  0  0  0  0  0  0  0  0  0  0
  -25.9444  -29.5549   20.0144 C   0  0  0  0  0  0  0  0  0  0  0  0
  -31.4846  -25.8362   21.7722 C   0  0  0  0  0  0  0  0  0  0  0  0
  -24.5135  -12.6568   21.5939 C   0  0  0  0  0  0  0  0  0  0  0  0
  -25.4188  -12.9353   19.3713 C   0  0  0  0  0  0  0  0  0  0  0  0
  -27.2784  -29.5001   20.4161 C   0  0  0  0  0  0  0  0  0  0  0  0
  -24.3827   -9.4134   20.6471 C   0  0  0  0  0  0  0  0  0  0  0  0
  -24.1608   -8.2331   21.3564 C   0  0  0  0  0  0  0  0  0  0  0  0
  -31.3926  -24.4710   21.5248 C   0  0  0  0  0  0  0  0  0  0  0  0
  -26.8044  -27.5128   21.6986 C   0  0  0  0  0  0  0  0  0  0  0  0
  -21.8483   -8.8575   21.6719 C   0  0  0  0  0  0  0  0  0  0  0  0
  -30.8998  -26.2343   19.5015 C   0  0  0  0  0  0  0  0  0  0  0  0
  -26.3965  -14.1266   21.2319 C   0  0  0  0  0  0  0  0  0  0  0  0
  -28.6655  -14.7282   22.2306 C   0  0  0  0  0  0  0  0  0  0  0  0
  -18.0530  -30.2298   23.5549 C   0  0  0  0  0  0  0  0  0  0  0  0
  -25.0265  -28.5936   20.4614 C   0  0  0  0  0  0  0  0  0  0  0  0
  -19.3555  -30.5874   23.1574 C   0  0  0  0  0  0  0  0  0  0  0  0
  -25.4599  -27.5561   21.2991 C   0  0  0  0  0  0  0  0  0  0  0  0
  -31.2351  -26.7413   20.7466 C   0  0  0  0  0  0  0  0  0  0  0  0
  -24.4894  -12.3526   20.2328 C   0  0  0  0  0  0  0  0  0  0  0  0
  -27.7079  -28.4806   21.2606 C   0  0  0  0  0  0  0  0  0  0  0  0
  -23.3375  -10.3159   20.4502 C   0  0  0  0  0  0  0  0  0  0  0  0
  -22.8936   -7.9551   21.8688 C   0  0  0  0  0  0  0  0  0  0  0  0
  -22.0702  -10.0378   20.9626 C   0  0  0  0  0  0  0  0  0  0  0  0
  -27.3814  -15.0434   21.7473 C   0  0  0  0  0  0  0  0  0  0  0  0
  -31.0501  -24.0657   20.2449 C   0  0  0  0  0  0  0  0  0  0  0  0
  -29.2002  -15.9385   22.5991 C   0  0  0  0  0  0  0  0  0  0  0  0
  -29.3168  -13.4553   22.3368 C   0  0  0  0  0  0  0  0  0  0  0  0
  -22.3646  -28.6703   22.1969 C   0  0  0  0  0  0  0  0  0  0  0  0
  -22.2178  -25.5295   21.3993 C   0  0  0  0  0  0  0  0  0  0  0  0
  -23.8709  -22.7078   20.4235 C   0  0  0  0  0  0  0  0  0  0  0  0
  -28.1331  -21.5673   20.8589 C   0  0  0  0  0  0  0  0  0  0  0  0
  -17.7929  -29.0354   24.4384 C   0  0  0  0  0  0  0  0  0  0  0  0
  -23.5968  -28.6514   19.9975 C   0  0  0  0  0  0  0  0  0  0  0  0
  -24.5185  -26.4881   21.7907 C   0  0  0  0  0  0  0  0  0  0  0  0
  -18.9547  -28.0462   24.4827 C   0  0  0  0  0  0  0  0  0  0  0  0
  -27.9236  -20.2738   24.1694 C   0  0  0  0  0  0  0  0  0  0  0  0
  -20.2750  -28.7821   24.6875 C   0  0  0  0  0  0  0  0  0  0  0  0
  -27.8767  -18.7582   23.9677 C   0  0  0  0  0  0  0  0  0  0  0  0
  -27.1639  -21.0132   23.0702 C   0  0  0  0  0  0  0  0  0  0  0  0
  -27.5264  -19.1538   21.4939 C   0  0  0  0  0  0  0  0  0  0  0  0
  -20.5564  -29.7439   23.5268 C   0  0  1  0  0  0  0  0  0  0  0  0
  -22.6369  -27.9149   20.9269 C   0  0  1  0  0  0  0  0  0  0  0  0
  -28.3260  -18.3675   22.5468 C   0  0  2  0  0  0  0  0  0  0  0  0
  -32.4253  -28.8681   20.1207 C   0  0  0  0  0  0  0  0  0  0  0  0
  -23.4882  -20.2860   19.8887 C   0  0  0  0  0  0  0  0  0  0  0  0
  -21.9689  -24.9136   24.3774 C   0  0  0  0  0  0  0  0  0  0  0  0
  -22.5437  -22.5320   23.8617 C   0  0  0  0  0  0  0  0  0  0  0  0
  -20.4787  -23.5507   22.9021 C   0  0  0  0  0  0  0  0  0  0  0  0
  -24.8384  -23.0482   17.6474 C   0  0  0  0  0  0  0  0  0  0  0  0
  -30.6164  -22.1262   18.7363 C   0  0  0  0  0  0  0  0  0  0  0  0
  -29.1093  -21.9622   18.6116 C   0  0  0  0  0  0  0  0  0  0  0  0
  -29.9843  -28.9437   20.7508 C   0  0  0  0  0  0  0  0  0  1  0  0
  -31.3281  -28.2403   20.9849 C   0  0  1  0  0  0  0  0  0  0  0  0
  -22.7371  -24.2474   22.0041 C   0  0  1  0  0  0  0  0  0  0  0  0
  -23.5793  -21.6971   19.3290 C   0  0  2  0  0  0  0  0  0  0  0  0
  -21.9497  -23.8320   23.2788 C   0  0  0  0  0  0  0  0  0  0  0  0
  -30.8006  -24.9151   19.2232 N   0  0  0  0  0  0  0  0  0  0  0  0
  -27.1163  -16.3513   21.8027 N   0  0  0  0  0  0  0  0  0  0  0  0
  -28.2411  -16.8687   22.3252 N   0  0  0  0  0  0  0  0  0  0  0  0
  -23.1293  -26.5914   21.3144 N   0  0  0  0  0  0  0  0  0  0  0  0
  -27.6388  -20.5987   21.7479 N   0  0  0  0  0  0  0  0  0  0  0  0
  -30.3925  -16.2871   23.1277 N   0  0  0  0  0  0  0  0  0  0  0  0
  -28.6243  -12.3131   21.9124 N   0  0  0  0  0  0  0  0  0  0  0  0
  -30.9599  -22.6712   20.0091 N   0  0  0  0  0  0  0  0  0  0  0  0
  -21.0382  -29.0157   22.3726 N   0  0  0  0  0  0  0  0  0  0  0  0
  -22.7132  -23.2534   20.9365 N   0  0  0  0  0  0  0  0  0  0  0  0
  -28.5688  -21.0888   19.6293 N   0  0  0  0  0  0  0  0  0  0  0  0
  -24.6549  -21.7253   18.2980 N   0  3  0  0  0  0  0  0  0  0  0  0
  -30.4721  -13.3325   22.8097 O   0  0  0  0  0  0  0  0  0  0  0  0
  -23.2891  -28.9198   22.9616 O   0  0  0  0  0  0  0  0  0  0  0  0
  -21.0486  -25.5842   21.0098 O   0  0  0  0  0  0  0  0  0  0  0  0
  -25.0115  -22.9827   20.7896 O   0  0  0  0  0  0  0  0  0  0  0  0
  -28.1875  -22.7689   21.1421 O   0  0  0  0  0  0  0  0  0  0  0  0
  -23.5592  -11.4869   19.7451 O   0  0  0  0  0  0  0  0  0  0  0  0
  -29.0093  -28.4252   21.6546 O   0  0  0  0  0  0  0  0  0  1  0  0
  -22.6803   -6.8209   22.5486 F   0  0  0  0  0  0  0  0  0  0  0  0
  -21.0618  -10.9004   20.7756 F   0  0  0  0  0  0  0  0  0  0  0  0
  1  2  1  0  0  0  0
  1  5  2  0  0  0  0
  2  6  2  0  0  0  0
  3  9  2  0  0  0  0
  3 18  1  0  0  0  0
  4 10  1  0  0  0  0
  4 18  2  0  0  0  0
  5 20  1  0  0  0  0
  6 22  1  0  0  0  0
  7 11  2  0  0  0  0
  7 21  1  0  0  0  0
  8 14  2  0  0  0  0
  8 24  1  0  0  0  0
  9 25  1  0  0  0  0
 10 25  2  0  0  0  0
 11 26  1  0  0  0  0
 12 13  2  0  0  0  0
 12 27  1  0  0  0  0
 13 28  1  0  0  0  0
 14 31  1  0  0  0  0
 15 23  1  0  0  0  0
 15 26  2  0  0  0  0
 16 28  2  0  0  0  0
 16 29  1  0  0  0  0
 17 24  2  0  0  0  0
 17 63  1  0  0  0  0
 18 30  1  0  0  0  0
 19 30  1  0  0  0  0
 19 32  2  0  0  0  0
 19 33  1  0  0  0  0
 20 22  2  0  0  0  0
 20 38  1  0  0  0  0
 21 23  2  0  0  0  0
 21 39  1  0  0  0  0
 22 47  1  0  0  0  0
 23 40  1  0  0  0  0
 24 59  1  0  0  0  0
 25 80  1  0  0  0  0
 26 81  1  0  0  0  0
 27 29  2  0  0  0  0
 27 80  1  0  0  0  0
 28 82  1  0  0  0  0
 29 83  1  0  0  0  0
 30 64  2  0  0  0  0
 31 63  2  0  0  0  0
 31 70  1  0  0  0  0
 32 65  1  0  0  0  0
 32 68  1  0  0  0  0
 33 69  1  0  0  0  0
 33 75  2  0  0  0  0
 34 48  1  0  0  0  0
 34 71  1  0  0  0  0
 34 76  2  0  0  0  0
 35 60  1  0  0  0  0
 35 66  1  0  0  0  0
 35 77  2  0  0  0  0
 36 61  1  0  0  0  0
 36 72  1  0  0  0  0
 36 78  2  0  0  0  0
 37 67  1  0  0  0  0
 37 73  1  0  0  0  0
 37 79  2  0  0  0  0
 38 41  1  0  0  0  0
 39 48  1  0  0  0  0
 40 66  1  0  0  0  0
 41 43  1  0  0  0  0
 42 44  1  0  0  0  0
 42 45  1  0  0  0  0
 43 47  1  0  0  0  0
 44 49  1  0  0  0  0
 45 67  1  0  0  0  0
 46 49  1  0  0  0  0
 46 67  1  0  0  0  0
 47 71  1  0  0  0  0
 48 66  1  0  0  0  0
 49 65  1  0  0  0  0
 50 59  1  0  0  0  0
 51 61  1  0  0  0  0
 52 62  1  0  0  0  0
 53 62  1  0  0  0  0
 54 62  1  0  0  0  0
 55 74  1  0  0  0  0
 56 57  1  0  0  0  0
 56 70  1  0  0  0  0
 57 73  1  0  0  0  0
 58 59  1  0  0  0  0
 58 81  1  0  0  0  0
 60 62  1  0  0  0  0
 60 72  1  0  0  0  0
 61 74  1  0  0  0  0
 64 65  1  0  0  0  0
M  CHG  1  74   1
M  ISO  4  37 100  58 101  73 100  81 101
M  END
> <Batch ID>
0118

> <Smiles>
CNC(C)C(=O)NC(C(=O)N1Cc2cc([101O:1][101CH2:1]C(C)c3ccc(NCC[100NH:0][100C:0](=O)N4CCCC(n5nc(-c6ccc(Oc7ccc(F)cc7F)cc6)c(C(N)=O)c5N)C4)nc3)ccc2CC1C(=O)NC1CCCc2ccccc21)C(C)(C)C

> <Shape>
0.247

> <Color>
0.091

> <Negative vol penalty>
0.000

$$$$

  -OEChem-04052320183D

 92102  0     1  0  0  0  0  0999 V2000
  -24.1808  -23.6446   19.9845 C   0  0  0  0  0  0  0  0  0  0  0  0
  -25.1666  -22.7820   20.4531 C   0  0  0  0  0  0  0  0  0  0  0  0
  -21.2962  -29.8512   20.2334 C   0  0  0  0  0  0  0  0  0  0  0  0
  -21.6286  -28.2914   22.0481 C   0  0  0  0  0  0  0  0  0  0  0  0
  -22.8376  -23.2827   20.0779 C   0  0  0  0  0  0  0  0  0  0  0  0
  -24.8097  -21.5575   21.0165 C   0  0  0  0  0  0  0  0  0  0  0  0
  -27.6926  -17.7402   19.3544 C   0  0  0  0  0  0  0  0  0  0  0  0
  -19.9585  -29.4659   20.1471 C   0  0  0  0  0  0  0  0  0  0  0  0
  -20.2908  -27.9061   21.9619 C   0  0  0  0  0  0  0  0  0  0  0  0
  -28.9658  -17.6159   19.9085 C   0  0  0  0  0  0  0  0  0  0  0  0
  -17.2875  -29.1022   22.9467 C   0  0  0  0  0  0  0  0  0  0  0  0
  -16.5711  -28.9825   24.1375 C   0  0  0  0  0  0  0  0  0  0  0  0
  -34.1039  -23.3762   25.3924 C   0  0  0  0  0  0  0  0  0  0  0  0
  -28.1534  -15.8771   21.3700 C   0  0  0  0  0  0  0  0  0  0  0  0
  -34.2465  -25.7959   25.2461 C   0  0  0  0  0  0  0  0  0  0  0  0
  -16.1562  -26.6521   23.6535 C   0  0  0  0  0  0  0  0  0  0  0  0
  -31.1062  -23.0402   23.3282 C   0  0  0  0  0  0  0  0  0  0  0  0
  -32.9512  -23.4036   24.5825 C   0  0  0  0  0  0  0  0  0  0  0  0
  -22.1313  -29.2639   21.1838 C   0  0  0  0  0  0  0  0  0  0  0  0
  -24.0517  -30.6946   22.0630 C   0  0  0  0  0  0  0  0  0  0  0  0
  -22.4645  -22.0489   20.6340 C   0  0  0  0  0  0  0  0  0  0  0  0
  -26.6358  -16.9402   19.8123 C   0  0  0  0  0  0  0  0  0  0  0  0
  -23.4601  -21.1793   21.1188 C   0  0  0  0  0  0  0  0  0  0  0  0
  -26.8682  -15.9915   20.8183 C   0  0  0  0  0  0  0  0  0  0  0  0
  -32.0752  -22.4058   24.0707 C   0  0  0  0  0  0  0  0  0  0  0  0
  -34.7401  -24.5803   25.7154 C   0  0  0  0  0  0  0  0  0  0  0  0
  -33.1047  -25.8479   24.4414 C   0  0  0  0  0  0  0  0  0  0  0  0
  -32.4791  -24.6363   24.1266 C   0  0  0  0  0  0  0  0  0  0  0  0
  -19.4557  -28.4934   21.0114 C   0  0  0  0  0  0  0  0  0  0  0  0
  -29.1957  -16.6862   20.9185 C   0  0  0  0  0  0  0  0  0  0  0  0
  -17.4381  -27.9969   22.1092 C   0  0  0  0  0  0  0  0  0  0  0  0
  -16.0055  -27.7574   24.4910 C   0  0  0  0  0  0  0  0  0  0  0  0
  -16.8725  -26.7719   22.4627 C   0  0  0  0  0  0  0  0  0  0  0  0
  -23.5135  -29.6611   21.2730 C   0  0  0  0  0  0  0  0  0  0  0  0
  -25.3983  -30.6669   21.7937 C   0  0  0  0  0  0  0  0  0  0  0  0
  -23.3934  -31.5987   22.9601 C   0  0  0  0  0  0  0  0  0  0  0  0
  -23.8377  -17.5048   21.2107 C   0  0  0  0  0  0  0  0  0  0  0  0
  -23.4320  -14.3121   20.8054 C   0  0  0  0  0  0  0  0  0  0  0  0
  -24.8589  -11.2401   20.3885 C   0  0  0  0  0  0  0  0  0  0  0  0
  -29.0851  -26.3561   19.8764 C   0  0  0  0  0  0  0  0  0  0  0  0
  -20.9973  -21.7219   20.7568 C   0  0  0  0  0  0  0  0  0  0  0  0
  -25.2744  -17.0680   19.1856 C   0  0  0  0  0  0  0  0  0  0  0  0
  -25.7723  -15.0946   21.3309 C   0  0  0  0  0  0  0  0  0  0  0  0
  -20.7230  -20.2445   21.0256 C   0  0  0  0  0  0  0  0  0  0  0  0
  -28.5033  -29.5152   18.3407 C   0  0  0  0  0  0  0  0  0  0  0  0
  -21.6411  -19.7227   22.1263 C   0  0  0  0  0  0  0  0  0  0  0  0
  -27.2071  -30.0041   18.9894 C   0  0  0  0  0  0  0  0  0  0  0  0
  -30.7884  -20.2877   24.3067 C   0  0  0  0  0  0  0  0  0  0  0  0
  -33.0729  -20.2869   23.2261 C   0  0  0  0  0  0  0  0  0  0  0  0
  -28.4910  -28.0036   18.1244 C   0  0  0  0  0  0  0  0  0  0  0  0
  -26.8968  -27.6968   19.9786 C   0  0  0  0  0  0  0  0  0  0  0  0
  -30.8831  -18.7779   24.4855 C   0  0  0  0  0  0  0  0  0  0  0  0
  -33.1503  -18.7771   23.4136 C   0  0  0  0  0  0  0  0  0  0  0  0
  -32.1792  -20.9422   24.2914 C   0  0  0  0  0  0  0  0  0  0  0  0
  -23.1140  -19.8316   21.7138 C   0  0  1  0  0  0  0  0  0  0  0  0
  -24.1523  -16.5599   20.0856 C   0  0  1  0  0  0  0  0  0  0  0  0
  -26.8848  -29.2075   20.2680 C   0  0  2  0  0  0  0  0  0  0  0  0
  -35.9616  -24.5588   26.5736 C   0  0  0  0  0  0  0  0  0  0  0  0
  -32.6227  -27.1804   23.9689 C   0  0  0  0  0  0  0  0  0  0  0  0
  -24.2715   -8.8147   20.1244 C   0  0  0  0  0  0  0  0  0  0  0  0
  -22.8212  -14.1375   23.7898 C   0  0  0  0  0  0  0  0  0  0  0  0
  -23.1832  -11.6642   23.6483 C   0  0  0  0  0  0  0  0  0  0  0  0
  -21.3472  -12.7312   22.3393 C   0  0  0  0  0  0  0  0  0  0  0  0
  -26.1304  -11.1032   17.7195 C   0  0  0  0  0  0  0  0  0  0  0  0
  -30.5399  -25.3712   22.6943 C   0  0  0  0  0  0  0  0  0  0  0  0
  -29.5470  -24.7528   21.7136 C   0  0  0  0  0  0  0  0  0  0  0  0
  -31.7811  -16.6939   23.4516 C   0  0  0  0  0  0  0  0  0  0  0  0
  -30.5118  -16.1506   22.8256 C   0  0  0  0  0  0  0  0  0  1  0  0
  -23.7462  -13.0822   21.6226 C   0  0  1  0  0  0  0  0  0  0  0  0
  -24.5704  -10.1206   19.4047 C   0  0  2  0  0  0  0  0  0  0  0  0
  -22.7949  -12.9219   22.8419 C   0  0  0  0  0  0  0  0  0  0  0  0
  -24.4423  -29.0235   20.5555 N   0  0  0  0  0  0  0  0  0  0  0  0
  -31.3584  -24.3853   23.3676 N   0  0  0  0  0  0  0  0  0  0  0  0
  -25.5777  -29.6580   20.8936 N   0  0  0  0  0  0  0  0  0  0  0  0
  -24.4571  -15.2618   20.6908 N   0  0  0  0  0  0  0  0  0  0  0  0
  -28.1809  -27.3071   19.3753 N   0  0  0  0  0  0  0  0  0  0  0  0
  -26.4345  -31.4074   22.2413 N   0  0  0  0  0  0  0  0  0  0  0  0
  -22.0052  -31.4894   23.1194 N   0  0  0  0  0  0  0  0  0  0  0  0
  -23.4618  -18.7682   20.7959 N   0  0  0  0  0  0  0  0  0  0  0  0
  -23.7216  -11.9576   20.6936 N   0  0  0  0  0  0  0  0  0  0  0  0
  -28.7176  -25.7472   21.0701 N   0  0  0  0  0  0  0  0  0  0  0  0
  -31.7567  -18.1775   23.4001 N   0  3  0  0  0  0  0  0  0  0  0  0
  -25.7405   -9.9055   18.5072 N   0  3  0  0  0  0  0  0  0  0  0  0
  -24.0153  -32.4882   23.5890 O   0  0  0  0  0  0  0  0  0  0  0  0
  -23.9278  -17.1160   22.3693 O   0  0  0  0  0  0  0  0  0  0  0  0
  -22.3205  -14.4226   20.2820 O   0  0  0  0  0  0  0  0  0  0  0  0
  -25.9802  -11.4542   20.8439 O   0  0  0  0  0  0  0  0  0  0  0  0
  -30.1442  -26.0748   19.3053 O   0  0  0  0  0  0  0  0  0  0  0  0
  -18.1503  -28.1173   20.9277 O   0  0  0  0  0  0  0  0  0  0  0  0
  -30.4375  -16.5632   21.4616 O   0  0  0  0  0  0  0  0  0  1  0  0
  -15.3189  -27.6421   25.6353 F   0  0  0  0  0  0  0  0  0  0  0  0
  -17.0149  -25.7062   21.6627 F   0  0  0  0  0  0  0  0  0  0  0  0
  1  2  1  0  0  0  0
  1  5  2  0  0  0  0
  2  6  2  0  0  0  0
  3  8  2  0  0  0  0
  3 19  1  0  0  0  0
  4  9  1  0  0  0  0
  4 19  2  0  0  0  0
  5 21  1  0  0  0  0
  6 23  1  0  0  0  0
  7 10  2  0  0  0  0
  7 22  1  0  0  0  0
  8 29  1  0  0  0  0
  9 29  2  0  0  0  0
 10 30  1  0  0  0  0
 11 12  2  0  0  0  0
 11 31  1  0  0  0  0
 12 32  1  0  0  0  0
 13 18  1  0  0  0  0
 13 26  2  0  0  0  0
 14 24  1  0  0  0  0
 14 30  2  0  0  0  0
 15 26  1  0  0  0  0
 15 27  2  0  0  0  0
 16 32  2  0  0  0  0
 16 33  1  0  0  0  0
 17 25  2  0  0  0  0
 17 73  1  0  0  0  0
 18 25  1  0  0  0  0
 18 28  2  0  0  0  0
 19 34  1  0  0  0  0
 20 34  1  0  0  0  0
 20 35  2  0  0  0  0
 20 36  1  0  0  0  0
 21 23  2  0  0  0  0
 21 41  1  0  0  0  0
 22 24  2  0  0  0  0
 22 42  1  0  0  0  0
 23 55  1  0  0  0  0
 24 43  1  0  0  0  0
 25 54  1  0  0  0  0
 26 58  1  0  0  0  0
 27 28  1  0  0  0  0
 27 59  1  0  0  0  0
 28 73  1  0  0  0  0
 29 89  1  0  0  0  0
 30 90  1  0  0  0  0
 31 33  2  0  0  0  0
 31 89  1  0  0  0  0
 32 91  1  0  0  0  0
 33 92  1  0  0  0  0
 34 72  2  0  0  0  0
 35 74  1  0  0  0  0
 35 77  1  0  0  0  0
 36 78  1  0  0  0  0
 36 84  2  0  0  0  0
 37 56  1  0  0  0  0
 37 79  1  0  0  0  0
 37 85  2  0  0  0  0
 38 69  1  0  0  0  0
 38 75  1  0  0  0  0
 38 86  2  0  0  0  0
 39 70  1  0  0  0  0
 39 80  1  0  0  0  0
 39 87  2  0  0  0  0
 40 76  1  0  0  0  0
 40 81  1  0  0  0  0
 40 88  2  0  0  0  0
 41 44  1  0  0  0  0
 42 56  1  0  0  0  0
 43 75  1  0  0  0  0
 44 46  1  0  0  0  0
 45 47  1  0  0  0  0
 45 50  1  0  0  0  0
 46 55  1  0  0  0  0
 47 57  1  0  0  0  0
 48 52  1  0  0  0  0
 48 54  1  0  0  0  0
 49 53  1  0  0  0  0
 49 54  1  0  0  0  0
 50 76  1  0  0  0  0
 51 57  1  0  0  0  0
 51 76  1  0  0  0  0
 52 82  1  0  0  0  0
 53 82  1  0  0  0  0
 55 79  1  0  0  0  0
 56 75  1  0  0  0  0
 57 74  1  0  0  0  0
 60 70  1  0  0  0  0
 61 71  1  0  0  0  0
 62 71  1  0  0  0  0
 63 71  1  0  0  0  0
 64 83  1  0  0  0  0
 65 66  1  0  0  0  0
 65 73  1  0  0  0  0
 66 81  1  0  0  0  0
 67 68  1  0  0  0  0
 67 82  1  0  0  0  0
 68 90  1  0  0  0  0
 69 71  1  0  0  0  0
 69 80  1  0  0  0  0
 70 83  1  0  0  0  0
 72 74  1  0  0  0  0
M  CHG  2  82   1  83   1
M  ISO  4  40 100  68 101  81 100  90 101
M  END
> <Batch ID>
0118

> <Smiles>
CNC(C)C(=O)NC(C(=O)N1Cc2cc([101O:1][101CH2:1]CN3CCC(c4cn(CC[100NH:0][100C:0](=O)N5CCCC(n6nc(-c7ccc(Oc8ccc(F)cc8F)cc7)c(C(N)=O)c6N)C5)c5c(C)cc(C)cc45)CC3)ccc2CC1C(=O)NC1CCCc2ccccc21)C(C)(C)C

> <Shape>
0.219

> <Color>
0.069

> <Negative vol penalty>
0.000

$$$$

  -OEChem-04052320183D

 83 91  0     1  0  0  0  0  0999 V2000
  -20.1590  -31.3820   18.3736 C   0  0  0  0  0  0  0  0  0  0  0  0
  -21.3557  -31.0540   17.7444 C   0  0  0  0  0  0  0  0  0  0  0  0
  -23.0640   -9.9314   19.8998 C   0  0  0  0  0  0  0  0  0  0  0  0
  -23.8613   -9.8472   22.1789 C   0  0  0  0  0  0  0  0  0  0  0  0
  -19.9042  -30.9248   19.6659 C   0  0  0  0  0  0  0  0  0  0  0  0
  -22.2986  -30.2695   18.4075 C   0  0  0  0  0  0  0  0  0  0  0  0
  -27.3114  -25.3089   17.1502 C   0  0  0  0  0  0  0  0  0  0  0  0
  -22.3190   -8.7725   20.1176 C   0  0  0  0  0  0  0  0  0  0  0  0
  -23.1163   -8.6883   22.3967 C   0  0  0  0  0  0  0  0  0  0  0  0
  -28.6565  -25.0475   17.4076 C   0  0  0  0  0  0  0  0  0  0  0  0
  -19.8947   -7.8807   23.0215 C   0  0  0  0  0  0  0  0  0  0  0  0
  -19.1569   -7.7989   24.2023 C   0  0  0  0  0  0  0  0  0  0  0  0
  -28.0740  -24.2481   19.6078 C   0  0  0  0  0  0  0  0  0  0  0  0
  -20.4012   -5.8296   24.8433 C   0  0  0  0  0  0  0  0  0  0  0  0
  -23.8352  -10.4687   20.9304 C   0  0  0  0  0  0  0  0  0  0  0  0
  -24.1867  -12.9953   20.9017 C   0  0  0  0  0  0  0  0  0  0  0  0
  -20.8403  -30.1262   20.3415 C   0  0  0  0  0  0  0  0  0  0  0  0
  -26.3371  -25.0516   18.1254 C   0  0  0  0  0  0  0  0  0  0  0  0
  -22.0566  -29.8023   19.7106 C   0  0  0  0  0  0  0  0  0  0  0  0
  -26.7169  -24.5047   19.3594 C   0  0  0  0  0  0  0  0  0  0  0  0
  -22.3451   -8.1509   21.3661 C   0  0  0  0  0  0  0  0  0  0  0  0
  -29.0383  -24.5197   18.6376 C   0  0  0  0  0  0  0  0  0  0  0  0
  -20.8858   -6.9370   22.7514 C   0  0  0  0  0  0  0  0  0  0  0  0
  -19.4101   -6.7733   25.1132 C   0  0  0  0  0  0  0  0  0  0  0  0
  -21.1391   -5.9115   23.6624 C   0  0  0  0  0  0  0  0  0  0  0  0
  -24.6054  -11.6656   20.7059 C   0  0  0  0  0  0  0  0  0  0  0  0
  -25.2762  -13.7538   20.5495 C   0  0  0  0  0  0  0  0  0  0  0  0
  -22.9256  -13.4996   21.3611 C   0  0  0  0  0  0  0  0  0  0  0  0
  -24.2498  -26.8286   19.7344 C   0  0  0  0  0  0  0  0  0  0  0  0
  -23.2264  -23.9486   20.8208 C   0  0  0  0  0  0  0  0  0  0  0  0
  -23.9334  -20.6678   21.4398 C   0  0  0  0  0  0  0  0  0  0  0  0
  -30.7669  -14.7430   20.6862 C   0  0  0  0  0  0  0  0  0  0  0  0
  -20.5406  -29.6949   21.7553 C   0  0  0  0  0  0  0  0  0  0  0  0
  -24.8874  -25.3141   17.8224 C   0  0  0  0  0  0  0  0  0  0  0  0
  -25.7075  -24.1916   20.4324 C   0  0  0  0  0  0  0  0  0  0  0  0
  -21.4311  -28.5565   22.2466 C   0  0  0  0  0  0  0  0  0  0  0  0
  -32.7333  -20.7869   22.8104 C   0  0  0  0  0  0  0  0  0  0  0  0
  -29.5794  -12.4565   18.2288 C   0  0  0  0  0  0  0  0  0  0  0  0
  -22.8912  -28.8352   21.9046 C   0  0  0  0  0  0  0  0  0  0  0  0
  -32.4359  -21.9287   21.8424 C   0  0  0  0  0  0  0  0  0  0  0  0
  -31.7210  -19.6532   22.6724 C   0  0  0  0  0  0  0  0  0  0  0  0
  -28.1479  -12.1521   18.6738 C   0  0  0  0  0  0  0  0  0  0  0  0
  -31.3339  -20.2956   20.2587 C   0  0  0  0  0  0  0  0  0  0  0  0
  -30.5171  -12.6274   19.4220 C   0  0  0  0  0  0  0  0  0  0  0  0
  -28.6417  -13.3122   20.8668 C   0  0  0  0  0  0  0  0  0  0  0  0
  -23.0937  -28.9328   20.3877 C   0  0  1  0  0  0  0  0  0  0  0  0
  -24.0379  -25.4943   19.0768 C   0  0  1  0  0  0  0  0  0  0  0  0
  -32.3555  -21.4341   20.3926 C   0  0  1  0  0  0  0  0  0  0  0  0
  -31.6367  -19.1438   21.2280 C   0  0  2  0  0  0  0  0  0  0  0  0
  -27.6476  -13.1869   19.6996 C   0  0  2  0  0  0  0  0  0  0  0  0
  -22.9086  -18.5724   22.3654 C   0  0  0  0  0  0  0  0  0  0  0  0
  -33.0927  -23.6592   19.4959 C   0  0  0  0  0  0  0  0  0  0  0  0
  -23.5638  -25.0368   23.6513 C   0  0  0  0  0  0  0  0  0  0  0  0
  -23.4579  -22.6818   24.4945 C   0  0  0  0  0  0  0  0  0  0  0  0
  -21.5019  -23.6660   23.2995 C   0  0  0  0  0  0  0  0  0  0  0  0
  -24.2628  -19.2338   18.8718 C   0  0  0  0  0  0  0  0  0  0  0  0
  -30.8629  -16.8441   22.0034 C   0  0  0  0  0  0  0  0  0  0  0  0
  -30.6420  -23.1919   19.7868 C   0  0  0  0  0  0  0  0  0  1  0  0
  -23.5780  -23.0605   21.9899 C   0  0  1  0  0  0  0  0  0  0  0  0
  -23.1735  -19.3947   21.1138 C   0  0  2  0  0  0  0  0  0  0  0  0
  -32.0069  -22.5864   19.4480 C   0  0  2  0  0  0  0  0  0  0  0  0
  -30.5833  -18.0444   21.1049 C   0  0  1  0  0  0  0  0  0  0  0  0
  -23.0449  -23.6189   23.3395 C   0  0  0  0  0  0  0  0  0  0  0  0
  -25.8628  -11.5808   20.2634 N   0  0  0  0  0  0  0  0  0  0  0  0
  -26.2435  -12.8669   20.1782 N   0  0  0  0  0  0  0  0  0  0  0  0
  -24.3031  -24.4717   20.0907 N   0  0  0  0  0  0  0  0  0  0  0  0
  -29.9858  -13.6233   20.3557 N   0  0  0  0  0  0  0  0  0  0  0  0
  -25.4915  -15.0862   20.5241 N   0  0  0  0  0  0  0  0  0  0  0  0
  -21.9151  -12.5822   21.6799 N   0  0  0  0  0  0  0  0  0  0  0  0
  -23.1136  -27.6129   19.7946 N   0  0  0  0  0  0  0  0  0  0  0  0
  -23.0814  -21.7301   21.6557 N   0  0  0  0  0  0  0  0  0  0  0  0
  -30.1859  -15.6411   21.5730 N   0  0  0  0  0  0  0  0  0  0  0  0
  -23.9516  -18.5575   20.1574 N   0  3  0  0  0  0  0  0  0  0  0  0
  -22.6960  -14.7281   21.4695 O   0  0  0  0  0  0  0  0  0  0  0  0
  -25.3613  -27.1242   20.1572 O   0  0  0  0  0  0  0  0  0  0  0  0
  -22.0401  -24.1642   20.5604 O   0  0  0  0  0  0  0  0  0  0  0  0
  -25.1601  -20.7142   21.5007 O   0  0  0  0  0  0  0  0  0  0  0  0
  -31.8961  -14.9312   20.2209 O   0  0  0  0  0  0  0  0  0  0  0  0
  -29.3025  -18.5776   21.4239 O   0  0  0  0  0  0  0  0  0  0  0  0
  -21.6180   -7.0201   21.5790 O   0  0  0  0  0  0  0  0  0  0  0  0
  -30.3506  -24.2643   18.8916 O   0  0  0  0  0  0  0  0  0  1  0  0
  -18.7025   -6.6957   26.2479 F   0  0  0  0  0  0  0  0  0  0  0  0
  -22.0907   -5.0026   23.4090 F   0  0  0  0  0  0  0  0  0  0  0  0
  1  2  1  0  0  0  0
  1  5  2  0  0  0  0
  2  6  2  0  0  0  0
  3  8  2  0  0  0  0
  3 15  1  0  0  0  0
  4  9  1  0  0  0  0
  4 15  2  0  0  0  0
  5 17  1  0  0  0  0
  6 19  1  0  0  0  0
  7 10  2  0  0  0  0
  7 18  1  0  0  0  0
  8 21  1  0  0  0  0
  9 21  2  0  0  0  0
 10 22  1  0  0  0  0
 11 12  2  0  0  0  0
 11 23  1  0  0  0  0
 12 24  1  0  0  0  0
 13 20  1  0  0  0  0
 13 22  2  0  0  0  0
 14 24  2  0  0  0  0
 14 25  1  0  0  0  0
 15 26  1  0  0  0  0
 16 26  1  0  0  0  0
 16 27  2  0  0  0  0
 16 28  1  0  0  0  0
 17 19  2  0  0  0  0
 17 33  1  0  0  0  0
 18 20  2  0  0  0  0
 18 34  1  0  0  0  0
 19 46  1  0  0  0  0
 20 35  1  0  0  0  0
 21 80  1  0  0  0  0
 22 81  1  0  0  0  0
 23 25  2  0  0  0  0
 23 80  1  0  0  0  0
 24 82  1  0  0  0  0
 25 83  1  0  0  0  0
 26 64  2  0  0  0  0
 27 65  1  0  0  0  0
 27 68  1  0  0  0  0
 28 69  1  0  0  0  0
 28 74  2  0  0  0  0
 29 47  1  0  0  0  0
 29 70  1  0  0  0  0
 29 75  2  0  0  0  0
 30 59  1  0  0  0  0
 30 66  1  0  0  0  0
 30 76  2  0  0  0  0
 31 60  1  0  0  0  0
 31 71  1  0  0  0  0
 31 77  2  0  0  0  0
 32 67  1  0  0  0  0
 32 72  1  0  0  0  0
 32 78  2  0  0  0  0
 33 36  1  0  0  0  0
 34 47  1  0  0  0  0
 35 66  1  0  0  0  0
 36 39  1  0  0  0  0
 37 40  1  0  0  0  0
 37 41  1  0  0  0  0
 38 42  1  0  0  0  0
 38 44  1  0  0  0  0
 39 46  1  0  0  0  0
 40 48  1  0  0  0  0
 41 49  1  0  0  0  0
 42 50  1  0  0  0  0
 43 48  1  0  0  0  0
 43 49  1  0  0  0  0
 44 67  1  0  0  0  0
 45 50  1  0  0  0  0
 45 67  1  0  0  0  0
 46 70  1  0  0  0  0
 47 66  1  0  0  0  0
 48 61  1  0  0  0  0
 49 62  1  0  0  0  0
 50 65  1  0  0  0  0
 51 60  1  0  0  0  0
 52 61  1  0  0  0  0
 53 63  1  0  0  0  0
 54 63  1  0  0  0  0
 55 63  1  0  0  0  0
 56 73  1  0  0  0  0
 57 62  1  0  0  0  0
 57 72  1  0  0  0  0
 58 61  1  0  0  0  0
 58 81  1  0  0  0  0
 59 63  1  0  0  0  0
 59 71  1  0  0  0  0
 60 73  1  0  0  0  0
 62 79  1  0  0  0  0
 64 65  1  0  0  0  0
M  CHG  1  73   1
M  ISO  4  32 100  58 101  72 100  81 101
M  END
> <Batch ID>
0118

> <Smiles>
CNC(C)C(=O)NC(C(=O)N1Cc2cc([101O:1][101CH2:1]C(C)C3CCCC(C(O)C[100NH:0][100C:0](=O)N4CCCC(n5nc(-c6ccc(Oc7ccc(F)cc7F)cc6)c(C(N)=O)c5N)C4)C3)ccc2CC1C(=O)NC1CCCc2ccccc21)C(C)(C)C

> <Shape>
0.256

> <Color>
0.192

> <Negative vol penalty>
0.000

$$$$

  -OEChem-04052320183D

 86 95  0     1  0  0  0  0  0999 V2000
  -29.9103  -28.3910   13.9201 C   0  0  0  0  0  0  0  0  0  0  0  0
  -29.9428  -27.1674   14.5812 C   0  0  0  0  0  0  0  0  0  0  0  0
  -22.9357   -9.9238   19.7840 C   0  0  0  0  0  0  0  0  0  0  0  0
  -23.7221  -10.2484   22.0452 C   0  0  0  0  0  0  0  0  0  0  0  0
  -29.5634  -29.5487   14.6154 C   0  0  0  0  0  0  0  0  0  0  0  0
  -29.6295  -27.1009   15.9384 C   0  0  0  0  0  0  0  0  0  0  0  0
  -30.2450  -17.4897   23.5886 C   0  0  0  0  0  0  0  0  0  0  0  0
  -28.1978  -16.2611   23.2190 C   0  0  0  0  0  0  0  0  0  0  0  0
  -26.7668  -22.5276   18.8360 C   0  0  0  0  0  0  0  0  0  0  0  0
  -29.8344  -18.4516   22.6657 C   0  0  0  0  0  0  0  0  0  0  0  0
  -27.7871  -17.2231   22.2962 C   0  0  0  0  0  0  0  0  0  0  0  0
  -22.0619   -8.9324   20.2301 C   0  0  0  0  0  0  0  0  0  0  0  0
  -22.8483   -9.2569   22.4914 C   0  0  0  0  0  0  0  0  0  0  0  0
  -27.2380  -21.4596   19.5983 C   0  0  0  0  0  0  0  0  0  0  0  0
  -22.7295   -5.8784   22.5398 C   0  0  0  0  0  0  0  0  0  0  0  0
  -23.2268   -4.9310   23.4346 C   0  0  0  0  0  0  0  0  0  0  0  0
  -26.8522  -22.7333   21.6103 C   0  0  0  0  0  0  0  0  0  0  0  0
  -21.5822   -5.6110   25.0686 C   0  0  0  0  0  0  0  0  0  0  0  0
  -23.7659  -10.5818   20.6915 C   0  0  0  0  0  0  0  0  0  0  0  0
  -24.3316  -12.8057   19.5771 C   0  0  0  0  0  0  0  0  0  0  0  0
  -29.4268  -16.3944   23.8652 C   0  0  0  0  0  0  0  0  0  0  0  0
  -29.2363  -29.4949   15.9795 C   0  0  0  0  0  0  0  0  0  0  0  0
  -26.3443  -23.7126   19.4556 C   0  0  0  0  0  0  0  0  0  0  0  0
  -29.2792  -28.2591   16.6529 C   0  0  0  0  0  0  0  0  0  0  0  0
  -26.3737  -23.8140   20.8538 C   0  0  0  0  0  0  0  0  0  0  0  0
  -28.6054  -18.3184   22.0195 C   0  0  0  0  0  0  0  0  0  0  0  0
  -22.0181   -8.5989   21.5838 C   0  0  0  0  0  0  0  0  0  0  0  0
  -27.2835  -21.5634   20.9855 C   0  0  0  0  0  0  0  0  0  0  0  0
  -21.6585   -6.6922   22.9094 C   0  0  0  0  0  0  0  0  0  0  0  0
  -22.6532   -4.7973   24.6990 C   0  0  0  0  0  0  0  0  0  0  0  0
  -21.0849   -6.5584   24.1738 C   0  0  0  0  0  0  0  0  0  0  0  0
  -24.6691  -11.6057   20.2311 C   0  0  0  0  0  0  0  0  0  0  0  0
  -25.5367  -13.4252   19.3527 C   0  0  0  0  0  0  0  0  0  0  0  0
  -23.0438  -13.3150   19.2057 C   0  0  0  0  0  0  0  0  0  0  0  0
  -27.2885  -26.7466   19.3736 C   0  0  0  0  0  0  0  0  0  0  0  0
  -24.6500  -27.2103   21.2027 C   0  0  0  0  0  0  0  0  0  0  0  0
  -22.3589  -25.9021   23.3674 C   0  0  0  0  0  0  0  0  0  0  0  0
  -30.8658  -13.0789   22.0605 C   0  0  0  0  0  0  0  0  0  0  0  0
  -28.9135  -30.7800   16.6998 C   0  0  0  0  0  0  0  0  0  0  0  0
  -25.8137  -24.8456   18.6207 C   0  0  0  0  0  0  0  0  0  0  0  0
  -25.9126  -25.0569   21.5686 C   0  0  0  0  0  0  0  0  0  0  0  0
  -28.2312  -30.5673   18.0488 C   0  0  0  0  0  0  0  0  0  0  0  0
  -30.1657  -12.4584   18.6252 C   0  0  0  0  0  0  0  0  0  0  0  0
  -28.9560  -29.4902   18.8496 C   0  0  0  0  0  0  0  0  0  0  0  0
  -28.6471  -12.2778   18.5882 C   0  0  0  0  0  0  0  0  0  0  0  0
  -31.3017  -13.2888   25.2889 C   0  0  0  0  0  0  0  0  0  0  0  0
  -30.1673  -12.6558   26.0983 C   0  0  0  0  0  0  0  0  0  0  0  0
  -28.7248  -14.6951   25.6755 C   0  0  0  0  0  0  0  0  0  0  0  0
  -30.7728  -11.8734   19.8984 C   0  0  0  0  0  0  0  0  0  0  0  0
  -28.6523  -12.1819   21.1159 C   0  0  0  0  0  0  0  0  0  0  0  0
  -29.8742  -15.3441   24.8722 C   0  0  1  0  0  0  0  0  0  0  0  0
  -28.9218  -28.1425   18.1187 C   0  0  1  0  0  0  0  0  0  0  0  0
  -25.8914  -26.1956   19.3269 C   0  0  1  0  0  0  0  0  0  0  0  0
  -27.9881  -12.8058   19.8766 C   0  0  2  0  0  0  0  0  0  0  0  0
  -30.7959  -14.2785   24.2320 C   0  0  2  0  0  0  0  0  0  0  0  0
  -29.2453  -13.7036   26.7207 C   0  0  2  0  0  0  0  0  0  0  0  0
  -20.3433  -26.5346   24.7219 C   0  0  0  0  0  0  0  0  0  0  0  0
  -26.4530  -28.6103   23.2275 C   0  0  0  0  0  0  0  0  0  0  0  0
  -24.6245  -28.3656   24.9202 C   0  0  0  0  0  0  0  0  0  0  0  0
  -24.2412  -29.7178   22.8592 C   0  0  0  0  0  0  0  0  0  0  0  0
  -20.6409  -23.9696   21.9276 C   0  0  0  0  0  0  0  0  0  0  0  0
  -29.0828  -15.0437   28.6444 C   0  0  0  0  0  0  0  0  0  0  0  0
  -28.1636  -19.3544   21.0283 C   0  0  0  0  0  0  0  0  0  1  0  0
  -24.3607  -27.1984   22.6843 C   0  0  1  0  0  0  0  0  0  0  0  0
  -20.8431  -25.9789   23.3974 C   0  0  2  0  0  0  0  0  0  0  0  0
  -24.9304  -28.4502   23.4095 C   0  0  0  0  0  0  0  0  0  0  0  0
  -25.9856  -11.4688   20.4104 N   0  0  0  0  0  0  0  0  0  0  0  0
  -26.4859  -12.5908   19.8657 N   0  0  0  0  0  0  0  0  0  0  0  0
  -25.4081  -26.1396   20.7080 N   0  0  0  0  0  0  0  0  0  0  0  0
  -30.1045  -12.4160   21.0838 N   0  0  0  0  0  0  0  0  0  0  0  0
  -25.8665  -14.5967   18.7685 N   0  0  0  0  0  0  0  0  0  0  0  0
  -22.3544  -14.1209   20.1219 N   0  0  0  0  0  0  0  0  0  0  0  0
  -27.6273  -27.5149   18.2761 N   0  0  0  0  0  0  0  0  0  0  0  0
  -22.9169  -27.0365   22.8170 N   0  0  0  0  0  0  0  0  0  0  0  0
  -30.1535  -13.5682   23.1486 N   0  0  0  0  0  0  0  0  0  0  0  0
  -20.2518  -24.6248   23.2028 N   0  3  0  0  0  0  0  0  0  0  0  0
  -22.5128  -13.0494   18.1007 O   0  0  0  0  0  0  0  0  0  0  0  0
  -28.0055  -26.4947   20.3349 O   0  0  0  0  0  0  0  0  0  0  0  0
  -24.2133  -28.1319   20.5087 O   0  0  0  0  0  0  0  0  0  0  0  0
  -22.9854  -24.9343   23.7932 O   0  0  0  0  0  0  0  0  0  0  0  0
  -32.0888  -13.2287   21.9670 O   0  0  0  0  0  0  0  0  0  0  0  0
  -21.1654   -7.6317   22.0196 O   0  0  0  0  0  0  0  0  0  0  0  0
  -27.7435  -20.5227   21.7319 O   0  0  0  0  0  0  0  0  0  1  0  0
  -29.9641  -14.4008   27.7363 O   0  0  0  0  0  0  0  0  0  0  0  0
  -23.1298   -3.8864   25.5577 F   0  0  0  0  0  0  0  0  0  0  0  0
  -20.0550   -7.3365   24.5341 F   0  0  0  0  0  0  0  0  0  0  0  0
  1  2  1  0  0  0  0
  1  5  2  0  0  0  0
  2  6  2  0  0  0  0
  3 12  2  0  0  0  0
  3 19  1  0  0  0  0
  4 13  1  0  0  0  0
  4 19  2  0  0  0  0
  5 22  1  0  0  0  0
  6 24  1  0  0  0  0
  7 10  2  0  0  0  0
  7 21  1  0  0  0  0
  8 11  1  0  0  0  0
  8 21  2  0  0  0  0
  9 14  2  0  0  0  0
  9 23  1  0  0  0  0
 10 26  1  0  0  0  0
 11 26  2  0  0  0  0
 12 27  1  0  0  0  0
 13 27  2  0  0  0  0
 14 28  1  0  0  0  0
 15 16  2  0  0  0  0
 15 29  1  0  0  0  0
 16 30  1  0  0  0  0
 17 25  1  0  0  0  0
 17 28  2  0  0  0  0
 18 30  2  0  0  0  0
 18 31  1  0  0  0  0
 19 32  1  0  0  0  0
 20 32  1  0  0  0  0
 20 33  2  0  0  0  0
 20 34  1  0  0  0  0
 21 51  1  0  0  0  0
 22 24  2  0  0  0  0
 22 39  1  0  0  0  0
 23 25  2  0  0  0  0
 23 40  1  0  0  0  0
 24 52  1  0  0  0  0
 25 41  1  0  0  0  0
 26 63  1  0  0  0  0
 27 82  1  0  0  0  0
 28 83  1  0  0  0  0
 29 31  2  0  0  0  0
 29 82  1  0  0  0  0
 30 85  1  0  0  0  0
 31 86  1  0  0  0  0
 32 67  2  0  0  0  0
 33 68  1  0  0  0  0
 33 71  1  0  0  0  0
 34 72  1  0  0  0  0
 34 77  2  0  0  0  0
 35 53  1  0  0  0  0
 35 73  1  0  0  0  0
 35 78  2  0  0  0  0
 36 64  1  0  0  0  0
 36 69  1  0  0  0  0
 36 79  2  0  0  0  0
 37 65  1  0  0  0  0
 37 74  1  0  0  0  0
 37 80  2  0  0  0  0
 38 70  1  0  0  0  0
 38 75  1  0  0  0  0
 38 81  2  0  0  0  0
 39 42  1  0  0  0  0
 40 53  1  0  0  0  0
 41 69  1  0  0  0  0
 42 44  1  0  0  0  0
 43 45  1  0  0  0  0
 43 49  1  0  0  0  0
 44 52  1  0  0  0  0
 45 54  1  0  0  0  0
 46 47  1  0  0  0  0
 46 55  1  0  0  0  0
 47 56  1  0  0  0  0
 48 51  1  0  0  0  0
 48 56  1  0  0  0  0
 49 70  1  0  0  0  0
 50 54  1  0  0  0  0
 50 70  1  0  0  0  0
 51 55  1  0  0  0  0
 52 73  1  0  0  0  0
 53 69  1  0  0  0  0
 54 68  1  0  0  0  0
 55 75  1  0  0  0  0
 56 84  1  0  0  0  0
 57 65  1  0  0  0  0
 58 66  1  0  0  0  0
 59 66  1  0  0  0  0
 60 66  1  0  0  0  0
 61 76  1  0  0  0  0
 62 84  1  0  0  0  0
 63 83  1  0  0  0  0
 64 66  1  0  0  0  0
 64 74  1  0  0  0  0
 65 76  1  0  0  0  0
 67 68  1  0  0  0  0
M  CHG  1  76   1
M  ISO  4  38 100  63 101  75 100  83 101
M  END
> <Batch ID>
0118

> <Smiles>
CNC(C)C(=O)NC(C(=O)N1Cc2cc([101O:1][101CH2:1]c3ccc(C4CC(OC)CCC4[100NH:0][100C:0](=O)N4CCCC(n5nc(-c6ccc(Oc7ccc(F)cc7F)cc6)c(C(N)=O)c5N)C4)cc3)ccc2CC1C(=O)NC1CCCc2ccccc21)C(C)(C)C

> <Shape>
0.205

> <Color>
0.090

> <Negative vol penalty>
0.000

$$$$

  -OEChem-04052320183D

 81 89  0     1  0  0  0  0  0999 V2000
  -23.1199  -20.2585   26.6071 C   0  0  0  0  0  0  0  0  0  0  0  0
  -24.2095  -21.1052   26.4371 C   0  0  0  0  0  0  0  0  0  0  0  0
  -26.2689  -12.6686   21.5971 C   0  0  0  0  0  0  0  0  0  0  0  0
  -25.1821  -13.4138   19.5721 C   0  0  0  0  0  0  0  0  0  0  0  0
  -21.9617  -20.4608   25.8595 C   0  0  0  0  0  0  0  0  0  0  0  0
  -24.1371  -22.1614   25.5282 C   0  0  0  0  0  0  0  0  0  0  0  0
  -28.3654  -26.1908   23.7927 C   0  0  0  0  0  0  0  0  0  0  0  0
  -25.4451  -11.5433   21.6251 C   0  0  0  0  0  0  0  0  0  0  0  0
  -24.3583  -12.2885   19.6001 C   0  0  0  0  0  0  0  0  0  0  0  0
  -29.3285  -26.3050   22.7911 C   0  0  0  0  0  0  0  0  0  0  0  0
  -21.7257   -9.7967   19.3351 C   0  0  0  0  0  0  0  0  0  0  0  0
  -20.3652   -9.9830   19.0902 C   0  0  0  0  0  0  0  0  0  0  0  0
  -27.7939  -27.6200   21.4739 C   0  0  0  0  0  0  0  0  0  0  0  0
  -20.2234  -11.4569   20.9993 C   0  0  0  0  0  0  0  0  0  0  0  0
  -29.7557  -22.0458   17.4386 C   0  0  0  0  0  0  0  0  0  0  0  0
  -26.1373  -13.6039   20.5706 C   0  0  0  0  0  0  0  0  0  0  0  0
  -28.2414  -14.8875   19.9127 C   0  0  0  0  0  0  0  0  0  0  0  0
  -21.8804  -21.5126   24.9322 C   0  0  0  0  0  0  0  0  0  0  0  0
  -27.1035  -26.7822   23.6375 C   0  0  0  0  0  0  0  0  0  0  0  0
  -22.9683  -22.3964   24.7817 C   0  0  0  0  0  0  0  0  0  0  0  0
  -26.8175  -27.5141   22.4762 C   0  0  0  0  0  0  0  0  0  0  0  0
  -24.4899  -11.3533   20.6266 C   0  0  0  0  0  0  0  0  0  0  0  0
  -29.0418  -27.0172   21.6302 C   0  0  0  0  0  0  0  0  0  0  0  0
  -22.3351  -10.4405   20.4121 C   0  0  0  0  0  0  0  0  0  0  0  0
  -19.6141  -10.8130   19.9223 C   0  0  0  0  0  0  0  0  0  0  0  0
  -21.5839  -11.2706   21.2442 C   0  0  0  0  0  0  0  0  0  0  0  0
  -26.9876  -14.7668   20.5414 C   0  0  0  0  0  0  0  0  0  0  0  0
  -30.3261  -23.2400   17.0711 C   0  0  0  0  0  0  0  0  0  0  0  0
  -29.0364  -22.3455   18.6110 C   0  0  0  0  0  0  0  0  0  0  0  0
  -28.6344  -16.1771   20.1754 C   0  0  0  0  0  0  0  0  0  0  0  0
  -28.9843  -13.9205   19.1587 C   0  0  0  0  0  0  0  0  0  0  0  0
  -24.1193  -25.6965   23.4980 C   0  0  0  0  0  0  0  0  0  0  0  0
  -23.3835  -28.8557   23.4942 C   0  0  0  0  0  0  0  0  0  0  0  0
  -24.3637  -32.0579   22.8369 C   0  0  0  0  0  0  0  0  0  0  0  0
  -27.5475  -21.6276   20.5121 C   0  0  0  0  0  0  0  0  0  0  0  0
  -20.5998  -21.6904   24.1551 C   0  0  0  0  0  0  0  0  0  0  0  0
  -26.0849  -26.6724   24.7388 C   0  0  0  0  0  0  0  0  0  0  0  0
  -25.4849  -28.1849   22.2696 C   0  0  0  0  0  0  0  0  0  0  0  0
  -20.7753  -22.5525   22.9092 C   0  0  0  0  0  0  0  0  0  0  0  0
  -26.7067  -19.6290   23.3362 C   0  0  0  0  0  0  0  0  0  0  0  0
  -21.5096  -23.8366   23.2648 C   0  0  0  0  0  0  0  0  0  0  0  0
  -26.8079  -18.1958   22.8091 C   0  0  0  0  0  0  0  0  0  0  0  0
  -26.1496  -20.5832   22.2813 C   0  0  0  0  0  0  0  0  0  0  0  0
  -26.9512  -19.1261   20.4637 C   0  0  0  0  0  0  0  0  0  0  0  0
  -22.9235  -23.5333   23.7768 C   0  0  1  0  0  0  0  0  0  0  0  0
  -24.6541  -26.8808   24.2524 C   0  0  1  0  0  0  0  0  0  0  0  0
  -27.5681  -18.1404   21.4695 C   0  0  2  0  0  0  0  0  0  0  0  0
  -31.1955  -23.5884   15.9324 C   0  0  0  0  0  0  0  0  0  0  0  0
  -23.5316  -34.4246   22.8983 C   0  0  0  0  0  0  0  0  0  0  0  0
  -32.0964  -27.2483   18.6415 C   0  0  0  0  0  0  0  0  0  0  0  0
  -21.7496  -28.3442   20.9686 C   0  0  0  0  0  0  0  0  0  0  0  0
  -21.7441  -30.8136   20.5559 C   0  0  0  0  0  0  0  0  0  0  0  0
  -20.6733  -29.8921   22.6118 C   0  0  0  0  0  0  0  0  0  0  0  0
  -26.4488  -32.8633   24.7767 C   0  0  0  0  0  0  0  0  0  0  0  0
  -30.2861  -25.6125   18.0618 C   0  0  0  0  0  0  0  0  0  0  0  0
  -30.9081  -26.0546   20.5140 C   0  0  0  0  0  0  0  0  0  1  0  0
  -23.1948  -29.9082   22.4285 C   0  0  1  0  0  0  0  0  0  0  0  0
  -24.2646  -33.3305   23.6587 C   0  0  2  0  0  0  0  0  0  0  0  0
  -31.4104  -25.9446   19.0663 C   0  0  2  0  0  0  0  0  0  0  0  0
  -21.8650  -29.7254   21.6440 C   0  0  0  0  0  0  0  0  0  0  0  0
  -26.6092  -15.8900   21.1572 N   0  0  0  0  0  0  0  0  0  0  0  0
  -29.1389  -23.6293   18.9649 N   0  0  0  0  0  0  0  0  0  0  0  0
  -29.9294  -24.1469   18.0093 N   0  0  0  0  0  0  0  0  0  0  0  0
  -27.6313  -16.7288   20.9169 N   0  0  0  0  0  0  0  0  0  0  0  0
  -24.5199  -28.0435   23.3725 N   0  0  0  0  0  0  0  0  0  0  0  0
  -26.9217  -20.4790   21.0412 N   0  0  0  0  0  0  0  0  0  0  0  0
  -29.7367  -16.8817   19.8423 N   0  0  0  0  0  0  0  0  0  0  0  0
  -28.4345  -12.6432   18.9846 N   0  0  0  0  0  0  0  0  0  0  0  0
  -28.2806  -21.4002   19.3479 N   0  0  0  0  0  0  0  0  0  0  0  0
  -23.5080  -24.7495   24.2974 N   0  0  0  0  0  0  0  0  0  0  0  0
  -23.3196  -31.1969   23.1009 N   0  0  0  0  0  0  0  0  0  0  0  0
  -25.6251  -33.8300   24.0060 N   0  3  0  0  0  0  0  0  0  0  0  0
  -30.1101  -14.1764   18.6681 O   0  0  0  0  0  0  0  0  0  0  0  0
  -24.2502  -25.6462   22.2806 O   0  0  0  0  0  0  0  0  0  0  0  0
  -22.5571  -28.7625   24.4052 O   0  0  0  0  0  0  0  0  0  0  0  0
  -25.2741  -31.8503   22.0378 O   0  0  0  0  0  0  0  0  0  0  0  0
  -27.4632  -22.7263   21.0669 O   0  0  0  0  0  0  0  0  0  0  0  0
  -23.6860  -10.2552   20.6535 O   0  0  0  0  0  0  0  0  0  0  0  0
  -29.9797  -27.1296   20.6507 O   0  0  0  0  0  0  0  0  0  1  0  0
  -18.3079  -10.9930   19.6861 F   0  0  0  0  0  0  0  0  0  0  0  0
  -22.1640  -11.8927   22.2797 F   0  0  0  0  0  0  0  0  0  0  0  0
  1  2  1  0  0  0  0
  1  5  2  0  0  0  0
  2  6  2  0  0  0  0
  3  8  2  0  0  0  0
  3 16  1  0  0  0  0
  4  9  1  0  0  0  0
  4 16  2  0  0  0  0
  5 18  1  0  0  0  0
  6 20  1  0  0  0  0
  7 10  2  0  0  0  0
  7 19  1  0  0  0  0
  8 22  1  0  0  0  0
  9 22  2  0  0  0  0
 10 23  1  0  0  0  0
 11 12  2  0  0  0  0
 11 24  1  0  0  0  0
 12 25  1  0  0  0  0
 13 21  1  0  0  0  0
 13 23  2  0  0  0  0
 14 25  2  0  0  0  0
 14 26  1  0  0  0  0
 15 28  2  0  0  0  0
 15 29  1  0  0  0  0
 16 27  1  0  0  0  0
 17 27  1  0  0  0  0
 17 30  2  0  0  0  0
 17 31  1  0  0  0  0
 18 20  2  0  0  0  0
 18 36  1  0  0  0  0
 19 21  2  0  0  0  0
 19 37  1  0  0  0  0
 20 45  1  0  0  0  0
 21 38  1  0  0  0  0
 22 78  1  0  0  0  0
 23 79  1  0  0  0  0
 24 26  2  0  0  0  0
 24 78  1  0  0  0  0
 25 80  1  0  0  0  0
 26 81  1  0  0  0  0
 27 61  2  0  0  0  0
 28 48  1  0  0  0  0
 28 63  1  0  0  0  0
 29 62  2  0  0  0  0
 29 69  1  0  0  0  0
 30 64  1  0  0  0  0
 30 67  1  0  0  0  0
 31 68  1  0  0  0  0
 31 73  2  0  0  0  0
 32 46  1  0  0  0  0
 32 70  1  0  0  0  0
 32 74  2  0  0  0  0
 33 57  1  0  0  0  0
 33 65  1  0  0  0  0
 33 75  2  0  0  0  0
 34 58  1  0  0  0  0
 34 71  1  0  0  0  0
 34 76  2  0  0  0  0
 35 66  1  0  0  0  0
 35 69  1  0  0  0  0
 35 77  2  0  0  0  0
 36 39  1  0  0  0  0
 37 46  1  0  0  0  0
 38 65  1  0  0  0  0
 39 41  1  0  0  0  0
 40 42  1  0  0  0  0
 40 43  1  0  0  0  0
 41 45  1  0  0  0  0
 42 47  1  0  0  0  0
 43 66  1  0  0  0  0
 44 47  1  0  0  0  0
 44 66  1  0  0  0  0
 45 70  1  0  0  0  0
 46 65  1  0  0  0  0
 47 64  1  0  0  0  0
 49 58  1  0  0  0  0
 50 59  1  0  0  0  0
 51 60  1  0  0  0  0
 52 60  1  0  0  0  0
 53 60  1  0  0  0  0
 54 72  1  0  0  0  0
 55 59  1  0  0  0  0
 55 63  1  0  0  0  0
 56 59  1  0  0  0  0
 56 79  1  0  0  0  0
 57 60  1  0  0  0  0
 57 71  1  0  0  0  0
 58 72  1  0  0  0  0
 61 64  1  0  0  0  0
 62 63  1  0  0  0  0
M  CHG  1  72   1
M  ISO  4  35 100  56 101  69 100  79 101
M  END
> <Batch ID>
0118

> <Smiles>
CNC(C)C(=O)NC(C(=O)N1Cc2cc([101O:1][101CH2:1]C(C)Cn3nc([100NH:0][100C:0](=O)N4CCCC(n5nc(-c6ccc(Oc7ccc(F)cc7F)cc6)c(C(N)=O)c5N)C4)cc3C)ccc2CC1C(=O)NC1CCCc2ccccc21)C(C)(C)C

> <Shape>
0.241

> <Color>
0.061

> <Negative vol penalty>
0.000

$$$$

  -OEChem-04052320183D

 85 93  0     1  0  0  0  0  0999 V2000
  -24.8900  -31.5528   20.5045 C   0  0  0  0  0  0  0  0  0  0  0  0
  -25.2980  -30.3990   19.8429 C   0  0  0  0  0  0  0  0  0  0  0  0
  -24.8238  -11.8545   20.1772 C   0  0  0  0  0  0  0  0  0  0  0  0
  -25.3828  -12.4923   22.4394 C   0  0  0  0  0  0  0  0  0  0  0  0
  -24.2440  -31.4571   21.7363 C   0  0  0  0  0  0  0  0  0  0  0  0
  -25.0611  -29.1488   20.4133 C   0  0  0  0  0  0  0  0  0  0  0  0
  -23.2739  -25.7939   17.0673 C   0  0  0  0  0  0  0  0  0  0  0  0
  -25.1862  -10.5373   20.4590 C   0  0  0  0  0  0  0  0  0  0  0  0
  -25.7452  -11.1751   22.7213 C   0  0  0  0  0  0  0  0  0  0  0  0
  -24.1933  -25.2135   16.1945 C   0  0  0  0  0  0  0  0  0  0  0  0
  -26.4760   -7.9090   24.1413 C   0  0  0  0  0  0  0  0  0  0  0  0
  -26.0293   -7.3552   25.3410 C   0  0  0  0  0  0  0  0  0  0  0  0
  -24.2555  -23.2408   17.5816 C   0  0  0  0  0  0  0  0  0  0  0  0
  -29.7462  -24.1869   20.7457 C   0  0  0  0  0  0  0  0  0  0  0  0
  -29.4159  -25.4387   18.7188 C   0  0  0  0  0  0  0  0  0  0  0  0
  -23.7408   -7.7104   24.6527 C   0  0  0  0  0  0  0  0  0  0  0  0
  -24.9222  -12.8320   21.1674 C   0  0  0  0  0  0  0  0  0  0  0  0
  -23.2759  -14.7756   21.0272 C   0  0  0  0  0  0  0  0  0  0  0  0
  -23.9905  -30.2047   22.3176 C   0  0  0  0  0  0  0  0  0  0  0  0
  -22.8460  -25.1053   18.2115 C   0  0  0  0  0  0  0  0  0  0  0  0
  -24.4123  -29.0363   21.6547 C   0  0  0  0  0  0  0  0  0  0  0  0
  -23.3287  -23.8137   18.4659 C   0  0  0  0  0  0  0  0  0  0  0  0
  -29.7322  -25.4034   20.0723 C   0  0  0  0  0  0  0  0  0  0  0  0
  -25.6468  -10.1976   21.7310 C   0  0  0  0  0  0  0  0  0  0  0  0
  -24.6864  -23.9380   16.4531 C   0  0  0  0  0  0  0  0  0  0  0  0
  -25.5552   -8.3636   23.1973 C   0  0  0  0  0  0  0  0  0  0  0  0
  -24.6617   -7.2559   25.5967 C   0  0  0  0  0  0  0  0  0  0  0  0
  -24.1876   -8.2642   23.4530 C   0  0  0  0  0  0  0  0  0  0  0  0
  -24.5485  -14.1929   20.8768 C   0  0  0  0  0  0  0  0  0  0  0  0
  -29.4390  -23.0436   20.0258 C   0  0  0  0  0  0  0  0  0  0  0  0
  -29.1237  -24.2393   18.0896 C   0  0  0  0  0  0  0  0  0  0  0  0
  -23.4437  -16.0766   20.6198 C   0  0  0  0  0  0  0  0  0  0  0  0
  -22.0516  -14.1931   21.4935 C   0  0  0  0  0  0  0  0  0  0  0  0
  -23.0353  -25.6218   21.3421 C   0  0  0  0  0  0  0  0  0  0  0  0
  -21.1457  -22.9897   21.4964 C   0  0  0  0  0  0  0  0  0  0  0  0
  -20.0665  -20.1075   20.0215 C   0  0  0  0  0  0  0  0  0  0  0  0
  -28.1882  -19.5889   20.5288 C   0  0  0  0  0  0  0  0  0  0  0  0
  -23.3312  -30.1536   23.6731 C   0  0  0  0  0  0  0  0  0  0  0  0
  -21.8336  -25.7346   19.1287 C   0  0  0  0  0  0  0  0  0  0  0  0
  -22.8856  -23.0243   19.6697 C   0  0  0  0  0  0  0  0  0  0  0  0
  -22.7837  -28.7746   24.0325 C   0  0  0  0  0  0  0  0  0  0  0  0
  -26.1008  -18.7696   17.6882 C   0  0  0  0  0  0  0  0  0  0  0  0
  -23.8155  -27.6940   23.7253 C   0  0  0  0  0  0  0  0  0  0  0  0
  -25.3423  -17.5481   18.2104 C   0  0  0  0  0  0  0  0  0  0  0  0
  -27.5452  -18.7752   18.1800 C   0  0  0  0  0  0  0  0  0  0  0  0
  -26.9348  -17.4786   20.1850 C   0  0  0  0  0  0  0  0  0  0  0  0
  -24.1512  -27.6610   22.2294 C   0  0  1  0  0  0  0  0  0  0  0  0
  -21.8579  -25.1489   20.5372 C   0  0  1  0  0  0  0  0  0  0  0  0
  -25.4616  -17.4267   19.7412 C   0  0  2  0  0  0  0  0  0  0  0  0
  -28.8735  -27.6532   20.8170 C   0  0  0  0  0  0  0  0  0  0  0  0
  -31.3102  -27.3618   20.2405 C   0  0  0  0  0  0  0  0  0  0  0  0
  -18.5490  -18.1462   20.4064 C   0  0  0  0  0  0  0  0  0  0  0  0
  -23.1889  -21.7891   23.4184 C   0  0  0  0  0  0  0  0  0  0  0  0
  -22.1453  -19.5488   23.0182 C   0  0  0  0  0  0  0  0  0  0  0  0
  -20.8023  -21.3828   24.0456 C   0  0  0  0  0  0  0  0  0  0  0  0
  -18.4145  -20.7740   17.6581 C   0  0  0  0  0  0  0  0  0  0  0  0
  -29.4442  -21.7207   20.7163 C   0  0  0  0  0  0  0  0  0  0  0  0
  -27.7839  -23.5347   14.6579 C   0  0  0  0  0  0  0  0  0  0  0  0
  -28.4844  -23.1285   15.9488 C   0  0  0  0  0  0  0  0  0  0  0  0
  -26.4595  -24.2495   14.8991 C   0  0  0  0  0  0  0  0  0  1  0  0
  -30.0550  -26.6645   20.7988 C   0  0  0  0  0  0  0  0  0  0  0  0
  -21.3893  -21.5027   21.5893 C   0  0  1  0  0  0  0  0  0  0  0  0
  -18.6728  -19.5421   19.8155 C   0  0  2  0  0  0  0  0  0  0  0  0
  -21.8914  -21.0713   22.9961 C   0  0  0  0  0  0  0  0  0  0  0  0
  -25.4576  -15.0530   20.4102 N   0  0  0  0  0  0  0  0  0  0  0  0
  -29.1270  -23.0384   18.7104 N   0  0  0  0  0  0  0  0  0  0  0  0
  -24.7554  -16.1894   20.2637 N   0  0  0  0  0  0  0  0  0  0  0  0
  -21.8990  -23.6852   20.5400 N   0  0  0  0  0  0  0  0  0  0  0  0
  -27.5882  -18.6760   19.6457 N   0  0  0  0  0  0  0  0  0  0  0  0
  -22.5956  -17.1235   20.5350 N   0  0  0  0  0  0  0  0  0  0  0  0
  -22.0554  -12.8437   21.8722 N   0  0  0  0  0  0  0  0  0  0  0  0
  -28.8105  -24.2902   16.7403 N   0  0  0  0  0  0  0  0  0  0  0  0
  -23.1008  -26.9941   21.4903 N   0  0  0  0  0  0  0  0  0  0  0  0
  -20.1474  -20.8590   21.1748 N   0  0  0  0  0  0  0  0  0  0  0  0
  -28.7912  -20.6922   19.9373 N   0  0  0  0  0  0  0  0  0  0  0  0
  -18.3540  -19.4670   18.3617 N   0  3  0  0  0  0  0  0  0  0  0  0
  -20.9820  -14.8454   21.5565 O   0  0  0  0  0  0  0  0  0  0  0  0
  -23.8249  -24.8022   21.7965 O   0  0  0  0  0  0  0  0  0  0  0  0
  -20.3124  -23.5136   22.2398 O   0  0  0  0  0  0  0  0  0  0  0  0
  -20.9918  -19.9000   19.2397 O   0  0  0  0  0  0  0  0  0  0  0  0
  -28.1823  -19.4351   21.7550 O   0  0  0  0  0  0  0  0  0  0  0  0
  -26.0003   -8.9124   22.0064 O   0  0  0  0  0  0  0  0  0  0  0  0
  -25.5843  -23.3694   15.6033 O   0  0  0  0  0  0  0  0  0  1  0  0
  -24.2327   -6.7226   26.7482 F   0  0  0  0  0  0  0  0  0  0  0  0
  -23.2981   -8.6981   22.5494 F   0  0  0  0  0  0  0  0  0  0  0  0
  1  2  1  0  0  0  0
  1  5  2  0  0  0  0
  2  6  2  0  0  0  0
  3  8  2  0  0  0  0
  3 17  1  0  0  0  0
  4  9  1  0  0  0  0
  4 17  2  0  0  0  0
  5 19  1  0  0  0  0
  6 21  1  0  0  0  0
  7 10  2  0  0  0  0
  7 20  1  0  0  0  0
  8 24  1  0  0  0  0
  9 24  2  0  0  0  0
 10 25  1  0  0  0  0
 11 12  2  0  0  0  0
 11 26  1  0  0  0  0
 12 27  1  0  0  0  0
 13 22  1  0  0  0  0
 13 25  2  0  0  0  0
 14 23  1  0  0  0  0
 14 30  2  0  0  0  0
 15 23  2  0  0  0  0
 15 31  1  0  0  0  0
 16 27  2  0  0  0  0
 16 28  1  0  0  0  0
 17 29  1  0  0  0  0
 18 29  1  0  0  0  0
 18 32  2  0  0  0  0
 18 33  1  0  0  0  0
 19 21  2  0  0  0  0
 19 38  1  0  0  0  0
 20 22  2  0  0  0  0
 20 39  1  0  0  0  0
 21 47  1  0  0  0  0
 22 40  1  0  0  0  0
 23 61  1  0  0  0  0
 24 82  1  0  0  0  0
 25 83  1  0  0  0  0
 26 28  2  0  0  0  0
 26 82  1  0  0  0  0
 27 84  1  0  0  0  0
 28 85  1  0  0  0  0
 29 65  2  0  0  0  0
 30 57  1  0  0  0  0
 30 66  1  0  0  0  0
 31 66  2  0  0  0  0
 31 72  1  0  0  0  0
 32 67  1  0  0  0  0
 32 70  1  0  0  0  0
 33 71  1  0  0  0  0
 33 77  2  0  0  0  0
 34 48  1  0  0  0  0
 34 73  1  0  0  0  0
 34 78  2  0  0  0  0
 35 62  1  0  0  0  0
 35 68  1  0  0  0  0
 35 79  2  0  0  0  0
 36 63  1  0  0  0  0
 36 74  1  0  0  0  0
 36 80  2  0  0  0  0
 37 69  1  0  0  0  0
 37 75  1  0  0  0  0
 37 81  2  0  0  0  0
 38 41  1  0  0  0  0
 39 48  1  0  0  0  0
 40 68  1  0  0  0  0
 41 43  1  0  0  0  0
 42 44  1  0  0  0  0
 42 45  1  0  0  0  0
 43 47  1  0  0  0  0
 44 49  1  0  0  0  0
 45 69  1  0  0  0  0
 46 49  1  0  0  0  0
 46 69  1  0  0  0  0
 47 73  1  0  0  0  0
 48 68  1  0  0  0  0
 49 67  1  0  0  0  0
 50 61  1  0  0  0  0
 51 61  1  0  0  0  0
 52 63  1  0  0  0  0
 53 64  1  0  0  0  0
 54 64  1  0  0  0  0
 55 64  1  0  0  0  0
 56 76  1  0  0  0  0
 57 75  1  0  0  0  0
 58 59  1  0  0  0  0
 58 60  1  0  0  0  0
 59 72  1  0  0  0  0
 60 83  1  0  0  0  0
 62 64  1  0  0  0  0
 62 74  1  0  0  0  0
 63 76  1  0  0  0  0
 65 67  1  0  0  0  0
M  CHG  1  76   1
M  ISO  4  37 100  60 101  75 100  83 101
M  END
> <Batch ID>
0118

> <Smiles>
CNC(C)C(=O)NC(C(=O)N1Cc2cc([101O:1][101CH2:1]CCNc3cc(C(C)C)cc(C[100NH:0][100C:0](=O)N4CCCC(n5nc(-c6ccc(Oc7ccc(F)cc7F)cc6)c(C(N)=O)c5N)C4)n3)ccc2CC1C(=O)NC1CCCc2ccccc21)C(C)(C)C

> <Shape>
0.186

> <Color>
0.077

> <Negative vol penalty>
0.000

$$$$

  -OEChem-04052320183D

 87 95  0     1  0  0  0  0  0999 V2000
  -26.2455  -32.1308   13.5943 C   0  0  0  0  0  0  0  0  0  0  0  0
  -26.1583  -31.1796   14.6058 C   0  0  0  0  0  0  0  0  0  0  0  0
  -23.1352   -9.7583   20.4210 C   0  0  0  0  0  0  0  0  0  0  0  0
  -23.8437  -10.2197   22.6842 C   0  0  0  0  0  0  0  0  0  0  0  0
  -26.8981  -33.3400   13.8305 C   0  0  0  0  0  0  0  0  0  0  0  0
  -26.7247  -31.4367   15.8538 C   0  0  0  0  0  0  0  0  0  0  0  0
  -23.6632  -30.1537   19.6782 C   0  0  0  0  0  0  0  0  0  0  0  0
  -22.4197   -8.6488   20.8712 C   0  0  0  0  0  0  0  0  0  0  0  0
  -23.1281   -9.1102   23.1344 C   0  0  0  0  0  0  0  0  0  0  0  0
  -23.5818  -28.8001   20.0020 C   0  0  0  0  0  0  0  0  0  0  0  0
  -23.5275   -5.7539   23.2163 C   0  0  0  0  0  0  0  0  0  0  0  0
  -24.1564   -4.9019   24.1242 C   0  0  0  0  0  0  0  0  0  0  0  0
  -25.1121  -29.1523   21.8332 C   0  0  0  0  0  0  0  0  0  0  0  0
  -22.4134   -5.3367   25.7397 C   0  0  0  0  0  0  0  0  0  0  0  0
  -23.8472  -10.5438   21.3275 C   0  0  0  0  0  0  0  0  0  0  0  0
  -24.1183  -13.0115   20.7405 C   0  0  0  0  0  0  0  0  0  0  0  0
  -27.4644  -33.6160   15.0850 C   0  0  0  0  0  0  0  0  0  0  0  0
  -24.4795  -31.0161   20.4240 C   0  0  0  0  0  0  0  0  0  0  0  0
  -27.3867  -32.6502   16.1066 C   0  0  0  0  0  0  0  0  0  0  0  0
  -25.2002  -30.5169   21.5183 C   0  0  0  0  0  0  0  0  0  0  0  0
  -22.4162   -8.3247   22.2278 C   0  0  0  0  0  0  0  0  0  0  0  0
  -24.3085  -28.2986   21.0779 C   0  0  0  0  0  0  0  0  0  0  0  0
  -22.3415   -6.3974   23.5702 C   0  0  0  0  0  0  0  0  0  0  0  0
  -23.5994   -4.6933   25.3858 C   0  0  0  0  0  0  0  0  0  0  0  0
  -21.7845   -6.1887   24.8319 C   0  0  0  0  0  0  0  0  0  0  0  0
  -24.5870  -11.6897   20.8631 C   0  0  0  0  0  0  0  0  0  0  0  0
  -25.1960  -13.7148   20.2607 C   0  0  0  0  0  0  0  0  0  0  0  0
  -22.8244  -13.5549   21.0343 C   0  0  0  0  0  0  0  0  0  0  0  0
  -27.0155  -32.8207   19.7789 C   0  0  0  0  0  0  0  0  0  0  0  0
  -26.5667  -22.7343   22.4394 C   0  0  0  0  0  0  0  0  0  0  0  0
  -26.5863  -33.8310   22.8314 C   0  0  0  0  0  0  0  0  0  0  0  0
  -25.3412  -33.1970   25.9450 C   0  0  0  0  0  0  0  0  0  0  0  0
  -30.7710  -14.7619   20.6685 C   0  0  0  0  0  0  0  0  0  0  0  0
  -30.7853  -16.9826   21.9424 C   0  0  0  0  0  0  0  0  0  0  0  0
  -28.2010  -34.9178   15.2785 C   0  0  0  0  0  0  0  0  0  0  0  0
  -24.5356  -32.4789   20.0783 C   0  0  0  0  0  0  0  0  0  0  0  0
  -26.0753  -31.4050   22.3632 C   0  0  0  0  0  0  0  0  0  0  0  0
  -28.4481  -35.2659   16.7441 C   0  0  0  0  0  0  0  0  0  0  0  0
  -29.6037  -12.1538   18.3986 C   0  0  0  0  0  0  0  0  0  0  0  0
  -28.9815  -34.0521   17.4984 C   0  0  0  0  0  0  0  0  0  0  0  0
  -28.4574  -19.9480   24.2918 C   0  0  0  0  0  0  0  0  0  0  0  0
  -27.9257  -19.9077   21.8231 C   0  0  0  0  0  0  0  0  0  0  0  0
  -28.1874  -11.8593   18.8798 C   0  0  0  0  0  0  0  0  0  0  0  0
  -28.3530  -18.4237   24.3440 C   0  0  0  0  0  0  0  0  0  0  0  0
  -27.8188  -18.3833   21.8660 C   0  0  0  0  0  0  0  0  0  0  0  0
  -30.5005  -12.5744   19.5556 C   0  0  0  0  0  0  0  0  0  0  0  0
  -28.5491  -13.5106   20.7793 C   0  0  0  0  0  0  0  0  0  0  0  0
  -27.9669  -32.9024   17.4813 C   0  0  1  0  0  0  0  0  0  0  0  0
  -25.7983  -33.1657   20.5896 C   0  0  1  0  0  0  0  0  0  0  0  0
  -27.5840  -20.5396   23.1783 C   0  0  0  0  0  0  0  0  0  0  0  0
  -27.6169  -13.0676   19.6355 C   0  0  2  0  0  0  0  0  0  0  0  0
  -28.6431  -17.7696   22.9952 C   0  0  0  0  0  0  0  0  0  0  0  0
  -25.1784  -34.1941   28.2421 C   0  0  0  0  0  0  0  0  0  0  0  0
  -25.6050  -24.7501   20.0869 C   0  0  0  0  0  0  0  0  0  0  0  0
  -29.5074  -33.1152   23.3465 C   0  0  0  0  0  0  0  0  0  0  0  0
  -29.0280  -33.2216   25.8015 C   0  0  0  0  0  0  0  0  0  0  0  0
  -28.7593  -35.2611   24.3905 C   0  0  0  0  0  0  0  0  0  0  0  0
  -22.3836  -33.2349   25.8452 C   0  0  0  0  0  0  0  0  0  0  0  0
  -27.7409  -22.0581   23.1197 C   0  0  0  0  0  0  0  0  0  0  0  0
  -26.6666  -24.2505   22.3309 C   0  0  0  0  0  0  0  0  0  0  0  0
  -25.3820  -26.3844   21.9941 C   0  0  0  0  0  0  0  0  0  1  0  0
  -27.0803  -33.3821   24.1855 C   0  0  1  0  0  0  0  0  0  0  0  0
  -24.5047  -34.0439   26.8870 C   0  0  2  0  0  0  0  0  0  0  0  0
  -25.4778  -24.9025   21.6083 C   0  0  1  0  0  0  0  0  0  0  0  0
  -28.5789  -33.7277   24.4141 C   0  0  0  0  0  0  0  0  0  0  0  0
  -25.8630  -11.5585   20.4909 N   0  0  0  0  0  0  0  0  0  0  0  0
  -26.2053  -12.8069   20.1297 N   0  0  0  0  0  0  0  0  0  0  0  0
  -26.1020  -32.8267   21.9813 N   0  0  0  0  0  0  0  0  0  0  0  0
  -29.9349  -13.6890   20.3210 N   0  0  0  0  0  0  0  0  0  0  0  0
  -25.3693  -15.0152   19.9421 N   0  0  0  0  0  0  0  0  0  0  0  0
  -21.8321  -12.6925   21.5199 N   0  0  0  0  0  0  0  0  0  0  0  0
  -32.1354  -17.2280   21.7008 N   0  0  0  0  0  0  0  0  0  0  0  0
  -26.9106  -33.1462   18.4401 N   0  0  0  0  0  0  0  0  0  0  0  0
  -26.1749  -33.9713   25.1661 N   0  0  0  0  0  0  0  0  0  0  0  0
  -30.1625  -15.8201   21.4500 N   0  0  0  0  0  0  0  0  0  0  0  0
  -30.0644  -17.9254   22.6856 N   0  3  0  0  0  0  0  0  0  0  0  0
  -23.1668  -33.4208   27.0938 N   0  3  0  0  0  0  0  0  0  0  0  0
  -22.5514  -14.7661   20.8554 O   0  0  0  0  0  0  0  0  0  0  0  0
  -27.9791  -32.2993   20.3278 O   0  0  0  0  0  0  0  0  0  0  0  0
  -25.5886  -22.1089   22.0335 O   0  0  0  0  0  0  0  0  0  0  0  0
  -26.6221  -35.0294   22.5414 O   0  0  0  0  0  0  0  0  0  0  0  0
  -25.2656  -31.9708   25.9068 O   0  0  0  0  0  0  0  0  0  0  0  0
  -31.9609  -14.8174   20.3629 O   0  0  0  0  0  0  0  0  0  0  0  0
  -21.7179   -7.2423   22.6675 O   0  0  0  0  0  0  0  0  0  0  0  0
  -24.2309  -26.9683   21.3979 O   0  0  0  0  0  0  0  0  0  1  0  0
  -24.2026   -3.8739   26.2570 F   0  0  0  0  0  0  0  0  0  0  0  0
  -20.6447   -6.8031   25.1771 F   0  0  0  0  0  0  0  0  0  0  0  0
  1  2  1  0  0  0  0
  1  5  2  0  0  0  0
  2  6  2  0  0  0  0
  3  8  2  0  0  0  0
  3 15  1  0  0  0  0
  4  9  1  0  0  0  0
  4 15  2  0  0  0  0
  5 17  1  0  0  0  0
  6 19  1  0  0  0  0
  7 10  2  0  0  0  0
  7 18  1  0  0  0  0
  8 21  1  0  0  0  0
  9 21  2  0  0  0  0
 10 22  1  0  0  0  0
 11 12  2  0  0  0  0
 11 23  1  0  0  0  0
 12 24  1  0  0  0  0
 13 20  1  0  0  0  0
 13 22  2  0  0  0  0
 14 24  2  0  0  0  0
 14 25  1  0  0  0  0
 15 26  1  0  0  0  0
 16 26  1  0  0  0  0
 16 27  2  0  0  0  0
 16 28  1  0  0  0  0
 17 19  2  0  0  0  0
 17 35  1  0  0  0  0
 18 20  2  0  0  0  0
 18 36  1  0  0  0  0
 19 48  1  0  0  0  0
 20 37  1  0  0  0  0
 21 84  1  0  0  0  0
 22 85  1  0  0  0  0
 23 25  2  0  0  0  0
 23 84  1  0  0  0  0
 24 86  1  0  0  0  0
 25 87  1  0  0  0  0
 26 66  2  0  0  0  0
 27 67  1  0  0  0  0
 27 70  1  0  0  0  0
 28 71  1  0  0  0  0
 28 78  2  0  0  0  0
 29 49  1  0  0  0  0
 29 73  1  0  0  0  0
 29 79  2  0  0  0  0
 30 59  1  0  0  0  0
 30 60  1  0  0  0  0
 30 80  2  0  0  0  0
 31 62  1  0  0  0  0
 31 68  1  0  0  0  0
 31 81  2  0  0  0  0
 32 63  1  0  0  0  0
 32 74  1  0  0  0  0
 32 82  2  0  0  0  0
 33 69  1  0  0  0  0
 33 75  1  0  0  0  0
 33 83  2  0  0  0  0
 34 72  1  0  0  0  0
 34 75  1  0  0  0  0
 34 76  2  0  0  0  0
 35 38  1  0  0  0  0
 36 49  1  0  0  0  0
 37 68  1  0  0  0  0
 38 40  1  0  0  0  0
 39 43  1  0  0  0  0
 39 46  1  0  0  0  0
 40 48  1  0  0  0  0
 41 44  1  0  0  0  0
 41 50  1  0  0  0  0
 42 45  1  0  0  0  0
 42 50  1  0  0  0  0
 43 51  1  0  0  0  0
 44 52  1  0  0  0  0
 45 52  1  0  0  0  0
 46 69  1  0  0  0  0
 47 51  1  0  0  0  0
 47 69  1  0  0  0  0
 48 73  1  0  0  0  0
 49 68  1  0  0  0  0
 50 59  1  0  0  0  0
 51 67  1  0  0  0  0
 52 76  1  0  0  0  0
 53 63  1  0  0  0  0
 54 64  1  0  0  0  0
 55 65  1  0  0  0  0
 56 65  1  0  0  0  0
 57 65  1  0  0  0  0
 58 77  1  0  0  0  0
 60 64  1  0  0  0  0
 61 64  1  0  0  0  0
 61 85  1  0  0  0  0
 62 65  1  0  0  0  0
 62 74  1  0  0  0  0
 63 77  1  0  0  0  0
 66 67  1  0  0  0  0
M  CHG  2  76   1  77   1
M  ISO  4  33 100  61 101  75 100  85 101
M  END
> <Batch ID>
0118

> <Smiles>
CNC(C)C(=O)NC(C(=O)N1Cc2cc([101O:1][101CH2:1]C(C)CC(=O)CC3CCC(NC(=N)[100NH:0][100C:0](=O)N4CCCC(n5nc(-c6ccc(Oc7ccc(F)cc7F)cc6)c(C(N)=O)c5N)C4)CC3)ccc2CC1C(=O)NC1CCCc2ccccc21)C(C)(C)C

> <Shape>
0.267

> <Color>
0.206

> <Negative vol penalty>
0.000

$$$$

  -OEChem-04052320183D

 83 92  0     1  0  0  0  0  0999 V2000
  -41.6798  -22.6644   26.5479 C   0  0  0  0  0  0  0  0  0  0  0  0
  -40.6128  -22.1678   25.8060 C   0  0  0  0  0  0  0  0  0  0  0  0
  -23.0003   -9.8918   19.9821 C   0  0  0  0  0  0  0  0  0  0  0  0
  -23.7258   -9.9454   22.2860 C   0  0  0  0  0  0  0  0  0  0  0  0
  -41.8189  -24.0394   26.7324 C   0  0  0  0  0  0  0  0  0  0  0  0
  -39.6837  -23.0459   25.2491 C   0  0  0  0  0  0  0  0  0  0  0  0
  -38.5398  -21.8805   20.4555 C   0  0  0  0  0  0  0  0  0  0  0  0
  -22.2344   -8.7571   20.2497 C   0  0  0  0  0  0  0  0  0  0  0  0
  -22.9599   -8.8107   22.5536 C   0  0  0  0  0  0  0  0  0  0  0  0
  -37.6531  -20.8242   20.2513 C   0  0  0  0  0  0  0  0  0  0  0  0
  -23.2059   -5.4715   22.0849 C   0  0  0  0  0  0  0  0  0  0  0  0
  -23.7941   -4.4553   22.8379 C   0  0  0  0  0  0  0  0  0  0  0  0
  -35.8618  -22.4025   19.9058 C   0  0  0  0  0  0  0  0  0  0  0  0
  -29.7595  -17.6982   22.6656 C   0  0  0  0  0  0  0  0  0  0  0  0
  -31.5205  -19.3362   22.6822 C   0  0  0  0  0  0  0  0  0  0  0  0
  -22.0704   -4.6990   24.5132 C   0  0  0  0  0  0  0  0  0  0  0  0
  -23.7461  -10.4859   21.0003 C   0  0  0  0  0  0  0  0  0  0  0  0
  -24.1300  -13.0015   20.8217 C   0  0  0  0  0  0  0  0  0  0  0  0
  -40.8964  -24.9353   26.1694 C   0  0  0  0  0  0  0  0  0  0  0  0
  -38.0912  -23.2078   20.3971 C   0  0  0  0  0  0  0  0  0  0  0  0
  -39.8099  -24.4341   25.4274 C   0  0  0  0  0  0  0  0  0  0  0  0
  -36.7454  -23.4739   20.1071 C   0  0  0  0  0  0  0  0  0  0  0  0
  -30.2462  -18.9365   23.0693 C   0  0  0  0  0  0  0  0  0  0  0  0
  -22.2142   -8.2166   21.5354 C   0  0  0  0  0  0  0  0  0  0  0  0
  -36.3133  -21.0850   19.9792 C   0  0  0  0  0  0  0  0  0  0  0  0
  -22.0500   -6.1015   22.5460 C   0  0  0  0  0  0  0  0  0  0  0  0
  -23.2264   -4.0691   24.0520 C   0  0  0  0  0  0  0  0  0  0  0  0
  -21.4822   -5.7152   23.7601 C   0  0  0  0  0  0  0  0  0  0  0  0
  -24.5378  -11.6577   20.7244 C   0  0  0  0  0  0  0  0  0  0  0  0
  -30.5799  -16.9031   21.8817 C   0  0  0  0  0  0  0  0  0  0  0  0
  -32.2621  -18.4677   21.8977 C   0  0  0  0  0  0  0  0  0  0  0  0
  -25.2393  -13.7243   20.4564 C   0  0  0  0  0  0  0  0  0  0  0  0
  -22.8618  -13.5476   21.2079 C   0  0  0  0  0  0  0  0  0  0  0  0
  -37.9609  -25.6243   22.4580 C   0  0  0  0  0  0  0  0  0  0  0  0
  -36.9730  -27.2833   19.8514 C   0  0  0  0  0  0  0  0  0  0  0  0
  -35.5285  -27.2307   16.7599 C   0  0  0  0  0  0  0  0  0  0  0  0
  -30.7183  -14.6886   20.6886 C   0  0  0  0  0  0  0  0  0  0  0  0
  -41.0619  -26.4105   26.4358 C   0  0  0  0  0  0  0  0  0  0  0  0
  -39.0658  -24.3366   20.5933 C   0  0  0  0  0  0  0  0  0  0  0  0
  -36.2177  -24.8815   20.0135 C   0  0  0  0  0  0  0  0  0  0  0  0
  -40.2438  -27.2944   25.4979 C   0  0  0  0  0  0  0  0  0  0  0  0
  -29.6010  -12.2329   18.3653 C   0  0  0  0  0  0  0  0  0  0  0  0
  -28.0306  -20.2149   23.4308 C   0  0  0  0  0  0  0  0  0  0  0  0
  -29.1257  -21.2351   23.4424 C   0  0  0  0  0  0  0  0  0  0  0  0
  -38.8163  -26.7699   25.3800 C   0  0  0  0  0  0  0  0  0  0  0  0
  -28.1506  -11.9748   18.7799 C   0  0  0  0  0  0  0  0  0  0  0  0
  -30.5015  -12.4779   19.5747 C   0  0  0  0  0  0  0  0  0  0  0  0
  -28.5860  -13.2671   20.9077 C   0  0  0  0  0  0  0  0  0  0  0  0
  -29.4059  -19.8310   23.9131 C   0  0  0  0  0  0  0  0  0  0  0  0
  -38.7952  -25.3560   24.7867 C   0  0  1  0  0  0  0  0  0  0  0  0
  -38.3943  -25.6385   21.0193 C   0  0  1  0  0  0  0  0  0  0  0  0
  -27.6282  -13.0790   19.7199 C   0  0  2  0  0  0  0  0  0  0  0  0
  -34.8204  -28.7476   14.8904 C   0  0  0  0  0  0  0  0  0  0  0  0
  -34.5458  -28.1556   21.4817 C   0  0  0  0  0  0  0  0  0  0  0  0
  -33.4425  -28.8422   19.3417 C   0  0  0  0  0  0  0  0  0  0  0  0
  -35.5539  -29.9550   20.0673 C   0  0  0  0  0  0  0  0  0  0  0  0
  -37.3602  -25.9150   14.8435 C   0  0  0  0  0  0  0  0  0  0  0  0
  -34.4204  -18.0853   20.7055 C   0  0  0  0  0  0  0  0  0  0  0  0
  -35.7206  -18.8331   20.4625 C   0  0  0  0  0  0  0  0  0  1  0  0
  -35.6362  -27.5764   19.2142 C   0  0  1  0  0  0  0  0  0  0  0  0
  -35.9349  -27.8754   15.4471 C   0  0  2  0  0  0  0  0  0  0  0  0
  -34.8038  -28.6056   20.0298 C   0  0  0  0  0  0  0  0  0  0  0  0
  -25.8071  -11.5315   20.3281 N   0  0  0  0  0  0  0  0  0  0  0  0
  -31.8231  -17.2572   21.4859 N   0  0  0  0  0  0  0  0  0  0  0  0
  -26.2064  -12.8053   20.1732 N   0  0  0  0  0  0  0  0  0  0  0  0
  -37.2084  -25.9510   20.2192 N   0  0  0  0  0  0  0  0  0  0  0  0
  -29.9461  -13.5394   20.4170 N   0  0  0  0  0  0  0  0  0  0  0  0
  -25.4720  -15.0501   20.3530 N   0  0  0  0  0  0  0  0  0  0  0  0
  -21.8305  -12.6632   21.5525 N   0  0  0  0  0  0  0  0  0  0  0  0
  -30.0736  -15.6442   21.4734 N   0  0  0  0  0  0  0  0  0  0  0  0
  -33.5298  -18.8791   21.5208 N   0  0  0  0  0  0  0  0  0  0  0  0
  -38.9905  -25.4064   23.3536 N   0  0  0  0  0  0  0  0  0  0  0  0
  -35.9190  -27.9886   17.8436 N   0  0  0  0  0  0  0  0  0  0  0  0
  -36.2631  -26.8304   14.4366 N   0  3  0  0  0  0  0  0  0  0  0  0
  -22.6444  -14.7828   21.2305 O   0  0  0  0  0  0  0  0  0  0  0  0
  -36.7802  -25.7997   22.7351 O   0  0  0  0  0  0  0  0  0  0  0  0
  -37.7815  -28.2013   20.0103 O   0  0  0  0  0  0  0  0  0  0  0  0
  -34.9216  -26.1635   16.8182 O   0  0  0  0  0  0  0  0  0  0  0  0
  -31.8568  -14.8277   20.2343 O   0  0  0  0  0  0  0  0  0  0  0  0
  -21.4668   -7.1096   21.7969 O   0  0  0  0  0  0  0  0  0  0  0  0
  -35.4456  -20.0558   19.7801 O   0  0  0  0  0  0  0  0  0  1  0  0
  -23.7905   -3.0922   24.7743 F   0  0  0  0  0  0  0  0  0  0  0  0
  -20.3710   -6.3159   24.2077 F   0  0  0  0  0  0  0  0  0  0  0  0
  1  2  1  0  0  0  0
  1  5  2  0  0  0  0
  2  6  2  0  0  0  0
  3  8  2  0  0  0  0
  3 17  1  0  0  0  0
  4  9  1  0  0  0  0
  4 17  2  0  0  0  0
  5 19  1  0  0  0  0
  6 21  1  0  0  0  0
  7 10  2  0  0  0  0
  7 20  1  0  0  0  0
  8 24  1  0  0  0  0
  9 24  2  0  0  0  0
 10 25  1  0  0  0  0
 11 12  2  0  0  0  0
 11 26  1  0  0  0  0
 12 27  1  0  0  0  0
 13 22  1  0  0  0  0
 13 25  2  0  0  0  0
 14 23  1  0  0  0  0
 14 30  2  0  0  0  0
 15 23  2  0  0  0  0
 15 31  1  0  0  0  0
 16 27  2  0  0  0  0
 16 28  1  0  0  0  0
 17 29  1  0  0  0  0
 18 29  1  0  0  0  0
 18 32  2  0  0  0  0
 18 33  1  0  0  0  0
 19 21  2  0  0  0  0
 19 38  1  0  0  0  0
 20 22  2  0  0  0  0
 20 39  1  0  0  0  0
 21 50  1  0  0  0  0
 22 40  1  0  0  0  0
 23 49  1  0  0  0  0
 24 80  1  0  0  0  0
 25 81  1  0  0  0  0
 26 28  2  0  0  0  0
 26 80  1  0  0  0  0
 27 82  1  0  0  0  0
 28 83  1  0  0  0  0
 29 63  2  0  0  0  0
 30 64  1  0  0  0  0
 30 70  1  0  0  0  0
 31 64  2  0  0  0  0
 31 71  1  0  0  0  0
 32 65  1  0  0  0  0
 32 68  1  0  0  0  0
 33 69  1  0  0  0  0
 33 75  2  0  0  0  0
 34 51  1  0  0  0  0
 34 72  1  0  0  0  0
 34 76  2  0  0  0  0
 35 60  1  0  0  0  0
 35 66  1  0  0  0  0
 35 77  2  0  0  0  0
 36 61  1  0  0  0  0
 36 73  1  0  0  0  0
 36 78  2  0  0  0  0
 37 67  1  0  0  0  0
 37 70  1  0  0  0  0
 37 79  2  0  0  0  0
 38 41  1  0  0  0  0
 39 51  1  0  0  0  0
 40 66  1  0  0  0  0
 41 45  1  0  0  0  0
 42 46  1  0  0  0  0
 42 47  1  0  0  0  0
 43 44  1  0  0  0  0
 43 49  1  0  0  0  0
 44 49  1  0  0  0  0
 45 50  1  0  0  0  0
 46 52  1  0  0  0  0
 47 67  1  0  0  0  0
 48 52  1  0  0  0  0
 48 67  1  0  0  0  0
 50 72  1  0  0  0  0
 51 66  1  0  0  0  0
 52 65  1  0  0  0  0
 53 61  1  0  0  0  0
 54 62  1  0  0  0  0
 55 62  1  0  0  0  0
 56 62  1  0  0  0  0
 57 74  1  0  0  0  0
 58 59  1  0  0  0  0
 58 71  1  0  0  0  0
 59 81  1  0  0  0  0
 60 62  1  0  0  0  0
 60 73  1  0  0  0  0
 61 74  1  0  0  0  0
 63 65  1  0  0  0  0
M  CHG  1  74   1
M  ISO  4  37 100  59 101  70 100  81 101
M  END
> <Batch ID>
0118

> <Smiles>
CNC(C)C(=O)NC(C(=O)N1Cc2cc([101O:1][101CH2:1]CNc3cc(C4CC4)cc([100NH:0][100C:0](=O)N4CCCC(n5nc(-c6ccc(Oc7ccc(F)cc7F)cc6)c(C(N)=O)c5N)C4)n3)ccc2CC1C(=O)NC1CCCc2ccccc21)C(C)(C)C

> <Shape>
0.177

> <Color>
0.198

> <Negative vol penalty>
0.000

$$$$

  -OEChem-04052320183D

 82 90  0     1  0  0  0  0  0999 V2000
  -23.6683   -7.8921   21.4188 C   0  0  0  0  0  0  0  0  0  0  0  0
  -23.9831   -8.8045   20.4168 C   0  0  0  0  0  0  0  0  0  0  0  0
  -22.5194  -28.2975   22.0396 C   0  0  0  0  0  0  0  0  0  0  0  0
  -23.4469  -30.4588   22.5922 C   0  0  0  0  0  0  0  0  0  0  0  0
  -22.7547   -8.2385   22.4134 C   0  0  0  0  0  0  0  0  0  0  0  0
  -23.3837  -10.0634   20.4083 C   0  0  0  0  0  0  0  0  0  0  0  0
  -25.9210  -15.3369   18.6033 C   0  0  0  0  0  0  0  0  0  0  0  0
  -21.4393  -28.5443   22.8870 C   0  0  0  0  0  0  0  0  0  0  0  0
  -22.3668  -30.7057   23.4395 C   0  0  0  0  0  0  0  0  0  0  0  0
  -25.8458  -16.0540   17.4100 C   0  0  0  0  0  0  0  0  0  0  0  0
  -18.5547  -30.3060   22.7972 C   0  0  0  0  0  0  0  0  0  0  0  0
  -17.2780  -29.9998   22.3261 C   0  0  0  0  0  0  0  0  0  0  0  0
  -24.1000  -17.4267   18.3520 C   0  0  0  0  0  0  0  0  0  0  0  0
  -16.9752  -28.4498   24.1545 C   0  0  0  0  0  0  0  0  0  0  0  0
  -23.5233  -29.2547   21.8923 C   0  0  0  0  0  0  0  0  0  0  0  0
  -24.7340  -29.3099   19.6475 C   0  0  0  0  0  0  0  0  0  0  0  0
  -22.1511   -9.5059   22.4226 C   0  0  0  0  0  0  0  0  0  0  0  0
  -25.0773  -15.6529   19.6779 C   0  0  0  0  0  0  0  0  0  0  0  0
  -22.4602  -10.4266   21.4033 C   0  0  0  0  0  0  0  0  0  0  0  0
  -24.1683  -16.7138   19.5587 C   0  0  0  0  0  0  0  0  0  0  0  0
  -21.3630  -29.7484   23.5869 C   0  0  0  0  0  0  0  0  0  0  0  0
  -24.9332  -17.0972   17.2832 C   0  0  0  0  0  0  0  0  0  0  0  0
  -19.0417  -29.6841   23.9469 C   0  0  0  0  0  0  0  0  0  0  0  0
  -16.4882  -29.0717   23.0048 C   0  0  0  0  0  0  0  0  0  0  0  0
  -18.2519  -28.7560   24.6255 C   0  0  0  0  0  0  0  0  0  0  0  0
  -24.6395  -29.0000   21.0175 C   0  0  0  0  0  0  0  0  0  0  0  0
  -25.9821  -28.8690   19.2810 C   0  0  0  0  0  0  0  0  0  0  0  0
  -23.7790  -29.9402   18.7836 C   0  0  0  0  0  0  0  0  0  0  0  0
  -22.8144  -14.1027   21.2842 C   0  0  0  0  0  0  0  0  0  0  0  0
  -22.8774  -16.7492   23.1588 C   0  0  0  0  0  0  0  0  0  0  0  0
  -23.6043  -20.0700   23.4594 C   0  0  0  0  0  0  0  0  0  0  0  0
  -29.9701  -24.9742   19.4130 C   0  0  0  0  0  0  0  0  0  0  0  0
  -21.1339   -9.8177   23.4916 C   0  0  0  0  0  0  0  0  0  0  0  0
  -25.1894  -14.8871   20.9677 C   0  0  0  0  0  0  0  0  0  0  0  0
  -23.2543  -17.1059   20.6898 C   0  0  0  0  0  0  0  0  0  0  0  0
  -20.8258  -11.3070   23.6233 C   0  0  0  0  0  0  0  0  0  0  0  0
  -29.8897  -27.3136   22.0584 C   0  0  0  0  0  0  0  0  0  0  0  0
  -20.5958  -11.9281   22.2492 C   0  0  0  0  0  0  0  0  0  0  0  0
  -28.5158  -27.9678   21.9412 C   0  0  0  0  0  0  0  0  0  0  0  0
  -29.0146  -22.5966   16.7424 C   0  0  0  0  0  0  0  0  0  0  0  0
  -29.8124  -25.8300   21.7243 C   0  0  0  0  0  0  0  0  0  0  0  0
  -30.0457  -23.4525   17.4614 C   0  0  0  0  0  0  0  0  0  0  0  0
  -27.9342  -23.6491   18.5850 C   0  0  0  0  0  0  0  0  0  0  0  0
  -27.8946  -26.2141   20.1998 C   0  0  0  0  0  0  0  0  0  0  0  0
  -21.8495  -11.8110   21.3740 C   0  0  1  0  0  0  0  0  0  0  0  0
  -23.9253  -14.9616   21.8186 C   0  0  1  0  0  0  0  0  0  0  0  0
  -27.9874  -22.3155   17.8397 C   0  0  1  0  0  0  0  0  0  0  0  0
  -27.9134  -27.7165   20.5501 C   0  0  1  0  0  0  0  0  0  0  0  0
  -23.5129  -21.9658   25.1010 C   0  0  0  0  0  0  0  0  0  0  0  0
  -25.6635  -21.5083   18.4076 C   0  0  0  0  0  0  0  0  0  0  0  0
  -27.3326  -19.3932   13.7474 C   0  0  0  0  0  0  0  0  0  0  0  0
  -19.8647  -16.9718   22.7301 C   0  0  0  0  0  0  0  0  0  0  0  0
  -19.9910  -19.3302   23.5610 C   0  0  0  0  0  0  0  0  0  0  0  0
  -20.6238  -17.4439   25.0658 C   0  0  0  0  0  0  0  0  0  0  0  0
  -26.5387  -20.4441   23.3677 C   0  0  0  0  0  0  0  0  0  0  0  0
  -25.7606  -20.4435   15.4490 C   0  0  0  0  0  0  0  0  0  0  0  0
  -26.0547  -17.9160   15.3525 C   0  0  0  0  0  0  0  0  0  1  0  0
  -22.1585  -18.0766   23.1589 C   0  0  1  0  0  0  0  0  0  0  0  0
  -24.3612  -20.8431   24.5243 C   0  0  2  0  0  0  0  0  0  0  0  0
  -26.6394  -21.8727   17.2994 C   0  0  2  0  0  0  0  0  0  0  0  0
  -26.0423  -19.2281   14.5582 C   0  0  2  0  0  0  0  0  0  0  0  0
  -20.6752  -17.9472   23.6068 C   0  0  0  0  0  0  0  0  0  0  0  0
  -25.7399  -28.4078   21.4892 N   0  0  0  0  0  0  0  0  0  0  0  0
  -26.5375  -28.3420   20.4097 N   0  0  0  0  0  0  0  0  0  0  0  0
  -23.3974  -16.3230   21.9284 N   0  0  0  0  0  0  0  0  0  0  0  0
  -29.2118  -25.5992   20.4092 N   0  0  0  0  0  0  0  0  0  0  0  0
  -29.3011  -24.1682   18.4928 N   0  0  0  0  0  0  0  0  0  0  0  0
  -26.6475  -28.8844   18.1066 N   0  0  0  0  0  0  0  0  0  0  0  0
  -22.5457  -30.3307   19.3229 N   0  0  0  0  0  0  0  0  0  0  0  0
  -22.8288  -12.8048   21.7583 N   0  0  0  0  0  0  0  0  0  0  0  0
  -22.9569  -18.9732   23.9878 N   0  0  0  0  0  0  0  0  0  0  0  0
  -25.6007  -21.4383   23.9497 N   0  3  0  0  0  0  0  0  0  0  0  0
  -26.8439  -20.6739   16.4398 N   0  3  0  0  0  0  0  0  0  0  0  0
  -24.0059  -30.1359   17.5655 O   0  0  0  0  0  0  0  0  0  0  0  0
  -22.0032  -14.5823   20.5008 O   0  0  0  0  0  0  0  0  0  0  0  0
  -22.9803  -16.1171   24.2131 O   0  0  0  0  0  0  0  0  0  0  0  0
  -23.5860  -20.4076   22.2778 O   0  0  0  0  0  0  0  0  0  0  0  0
  -31.2019  -25.0961   19.3713 O   0  0  0  0  0  0  0  0  0  0  0  0
  -20.3090  -29.9897   24.4137 O   0  0  0  0  0  0  0  0  0  0  0  0
  -24.8567  -17.8030   16.1115 O   0  0  0  0  0  0  0  0  0  1  0  0
  -15.2616  -28.7789   22.5532 F   0  0  0  0  0  0  0  0  0  0  0  0
  -18.7138  -28.1562   25.7313 F   0  0  0  0  0  0  0  0  0  0  0  0
  1  2  1  0  0  0  0
  1  5  2  0  0  0  0
  2  6  2  0  0  0  0
  3  8  2  0  0  0  0
  3 15  1  0  0  0  0
  4  9  1  0  0  0  0
  4 15  2  0  0  0  0
  5 17  1  0  0  0  0
  6 19  1  0  0  0  0
  7 10  2  0  0  0  0
  7 18  1  0  0  0  0
  8 21  1  0  0  0  0
  9 21  2  0  0  0  0
 10 22  1  0  0  0  0
 11 12  2  0  0  0  0
 11 23  1  0  0  0  0
 12 24  1  0  0  0  0
 13 20  1  0  0  0  0
 13 22  2  0  0  0  0
 14 24  2  0  0  0  0
 14 25  1  0  0  0  0
 15 26  1  0  0  0  0
 16 26  1  0  0  0  0
 16 27  2  0  0  0  0
 16 28  1  0  0  0  0
 17 19  2  0  0  0  0
 17 33  1  0  0  0  0
 18 20  2  0  0  0  0
 18 34  1  0  0  0  0
 19 45  1  0  0  0  0
 20 35  1  0  0  0  0
 21 79  1  0  0  0  0
 22 80  1  0  0  0  0
 23 25  2  0  0  0  0
 23 79  1  0  0  0  0
 24 81  1  0  0  0  0
 25 82  1  0  0  0  0
 26 63  2  0  0  0  0
 27 64  1  0  0  0  0
 27 68  1  0  0  0  0
 28 69  1  0  0  0  0
 28 74  2  0  0  0  0
 29 46  1  0  0  0  0
 29 70  1  0  0  0  0
 29 75  2  0  0  0  0
 30 58  1  0  0  0  0
 30 65  1  0  0  0  0
 30 76  2  0  0  0  0
 31 59  1  0  0  0  0
 31 71  1  0  0  0  0
 31 77  2  0  0  0  0
 32 66  1  0  0  0  0
 32 67  1  0  0  0  0
 32 78  2  0  0  0  0
 33 36  1  0  0  0  0
 34 46  1  0  0  0  0
 35 65  1  0  0  0  0
 36 38  1  0  0  0  0
 37 39  1  0  0  0  0
 37 41  1  0  0  0  0
 38 45  1  0  0  0  0
 39 48  1  0  0  0  0
 40 42  1  0  0  0  0
 40 47  1  0  0  0  0
 41 66  1  0  0  0  0
 42 67  1  0  0  0  0
 43 47  1  0  0  0  0
 43 67  1  0  0  0  0
 44 48  1  0  0  0  0
 44 66  1  0  0  0  0
 45 70  1  0  0  0  0
 46 65  1  0  0  0  0
 47 60  1  0  0  0  0
 48 64  1  0  0  0  0
 49 59  1  0  0  0  0
 50 60  1  0  0  0  0
 51 61  1  0  0  0  0
 52 62  1  0  0  0  0
 53 62  1  0  0  0  0
 54 62  1  0  0  0  0
 55 72  1  0  0  0  0
 56 61  1  0  0  0  0
 56 73  1  0  0  0  0
 57 61  1  0  0  0  0
 57 80  1  0  0  0  0
 58 62  1  0  0  0  0
 58 71  1  0  0  0  0
 59 72  1  0  0  0  0
 60 73  1  0  0  0  0
 63 64  1  0  0  0  0
M  CHG  2  72   1  73   1
M  ISO  4  32 100  57 101  67 100  80 101
M  END
> <Batch ID>
0118

> <Smiles>
CNC(C)C(=O)NC(C(=O)N1Cc2cc([101O:1][101CH2:1]C(C)CNC(C)C3CC[100N:0]([100C:0](=O)N4CCCC(n5nc(-c6ccc(Oc7ccc(F)cc7F)cc6)c(C(N)=O)c5N)C4)C3)ccc2CC1C(=O)NC1CCCc2ccccc21)C(C)(C)C

> <Shape>
0.205

> <Color>
0.091

> <Negative vol penalty>
0.000

$$$$

  -OEChem-04052320183D

 88 98  0     1  0  0  0  0  0999 V2000
  -21.6227   -7.9420   24.4669 C   0  0  0  0  0  0  0  0  0  0  0  0
  -22.6655   -8.7881   24.8302 C   0  0  0  0  0  0  0  0  0  0  0  0
  -23.2017  -29.9167   20.1125 C   0  0  0  0  0  0  0  0  0  0  0  0
  -23.4605  -28.4648   22.0261 C   0  0  0  0  0  0  0  0  0  0  0  0
  -21.3950   -7.6560   23.1214 C   0  0  0  0  0  0  0  0  0  0  0  0
  -23.4821   -9.3478   23.8481 C   0  0  0  0  0  0  0  0  0  0  0  0
  -24.1060  -16.4926   23.1737 C   0  0  0  0  0  0  0  0  0  0  0  0
  -21.9220  -30.2616   20.5472 C   0  0  0  0  0  0  0  0  0  0  0  0
  -22.1808  -28.8097   22.4609 C   0  0  0  0  0  0  0  0  0  0  0  0
  -24.4420  -17.8453   23.1164 C   0  0  0  0  0  0  0  0  0  0  0  0
  -18.9884  -27.9907   21.7068 C   0  0  0  0  0  0  0  0  0  0  0  0
  -18.1521  -26.9621   22.1406 C   0  0  0  0  0  0  0  0  0  0  0  0
  -25.8545  -17.4242   21.1992 C   0  0  0  0  0  0  0  0  0  0  0  0
  -18.0054  -27.9994   24.3176 C   0  0  0  0  0  0  0  0  0  0  0  0
  -23.9709  -29.0182   20.8519 C   0  0  0  0  0  0  0  0  0  0  0  0
  -26.5029  -29.3033   20.7268 C   0  0  0  0  0  0  0  0  0  0  0  0
  -22.2031   -8.2202   22.1218 C   0  0  0  0  0  0  0  0  0  0  0  0
  -24.6315  -15.6020   22.2334 C   0  0  0  0  0  0  0  0  0  0  0  0
  -23.2658   -9.0681   22.4881 C   0  0  0  0  0  0  0  0  0  0  0  0
  -25.5117  -16.0702   21.2440 C   0  0  0  0  0  0  0  0  0  0  0  0
  -21.4115  -29.7081   21.7214 C   0  0  0  0  0  0  0  0  0  0  0  0
  -25.3143  -18.3099   22.1317 C   0  0  0  0  0  0  0  0  0  0  0  0
  -19.3332  -29.0237   22.5785 C   0  0  0  0  0  0  0  0  0  0  0  0
  -17.6606  -26.9664   23.4459 C   0  0  0  0  0  0  0  0  0  0  0  0
  -18.8417  -29.0281   23.8838 C   0  0  0  0  0  0  0  0  0  0  0  0
  -25.2927  -28.6611   20.4030 C   0  0  0  0  0  0  0  0  0  0  0  0
  -27.4625  -28.5867   20.0544 C   0  0  0  0  0  0  0  0  0  0  0  0
  -26.7385  -30.4454   21.5609 C   0  0  0  0  0  0  0  0  0  0  0  0
  -24.7937  -12.0719   20.9732 C   0  0  0  0  0  0  0  0  0  0  0  0
  -24.6815  -13.8940   18.5078 C   0  0  0  0  0  0  0  0  0  0  0  0
  -24.1200  -16.2148   16.0715 C   0  0  0  0  0  0  0  0  0  0  0  0
  -29.6800  -23.7176   18.4671 C   0  0  0  0  0  0  0  0  0  0  0  0
  -21.9478   -7.8441   20.6837 C   0  0  0  0  0  0  0  0  0  0  0  0
  -24.3456  -14.1261   22.2946 C   0  0  0  0  0  0  0  0  0  0  0  0
  -26.0799  -15.0700   20.2747 C   0  0  0  0  0  0  0  0  0  0  0  0
  -22.6251   -8.7750   19.6813 C   0  0  0  0  0  0  0  0  0  0  0  0
  -27.0174  -25.0204   16.4949 C   0  0  0  0  0  0  0  0  0  0  0  0
  -24.0751   -9.0270   20.0821 C   0  0  0  0  0  0  0  0  0  0  0  0
  -28.4602  -21.9207   21.1309 C   0  0  0  0  0  0  0  0  0  0  0  0
  -29.4000  -19.7419   22.0059 C   0  0  0  0  0  0  0  0  0  0  0  0
  -26.4277  -26.1319   17.3649 C   0  0  0  0  0  0  0  0  0  0  0  0
  -31.4270  -24.3764   24.1979 C   0  0  0  0  0  0  0  0  0  0  0  0
  -30.4869  -23.2348   24.4636 C   0  0  0  0  0  0  0  0  0  0  0  0
  -27.0625  -21.4864   21.5616 C   0  0  0  0  0  0  0  0  0  0  0  0
  -27.9995  -19.3134   22.4336 C   0  0  0  0  0  0  0  0  0  0  0  0
  -32.4453  -25.1553   21.7271 C   0  0  0  0  0  0  0  0  0  0  0  0
  -27.4798  -23.8317   17.3346 C   0  0  0  0  0  0  0  0  0  0  0  0
  -27.8202  -25.2818   19.2981 C   0  0  0  0  0  0  0  0  0  0  0  0
  -33.4064  -25.9539   20.8574 C   0  0  0  0  0  0  0  0  0  0  0  0
  -32.8164  -24.5486   18.8653 C   0  0  0  0  0  0  0  0  0  0  0  0
  -24.1578   -9.7142   21.4504 C   0  0  1  0  0  0  0  0  0  0  0  0
  -24.2552  -13.4708   20.9048 C   0  0  1  0  0  0  0  0  0  0  0  0
  -29.5465  -21.2698   21.9985 C   0  0  0  0  0  0  0  0  0  0  0  0
  -27.3909  -26.5255   18.5009 C   0  0  2  0  0  0  0  0  0  0  0  0
  -31.8361  -23.7253   19.6983 C   0  0  1  0  0  0  0  0  0  0  0  0
  -31.5985  -23.0761   23.4658 C   0  0  0  0  0  0  0  0  0  0  0  0
  -32.2498  -23.7410   21.1776 C   0  0  2  0  0  0  0  0  0  0  0  0
  -26.9217  -19.9666   21.5710 C   0  0  0  0  0  0  0  0  0  1  0  0
  -23.8567  -16.4370   13.5858 C   0  0  0  0  0  0  0  0  0  0  0  0
  -27.6958  -13.5783   18.1640 C   0  0  0  0  0  0  0  0  0  0  0  0
  -27.4907  -14.7194   15.9449 C   0  0  0  0  0  0  0  0  0  0  0  0
  -26.3244  -12.5504   16.3427 C   0  0  0  0  0  0  0  0  0  0  0  0
  -21.3703  -17.2757   16.3409 C   0  0  0  0  0  0  0  0  0  0  0  0
  -30.9376  -21.6758   21.5154 C   0  0  0  0  0  0  0  0  0  0  0  0
  -25.4550  -14.6475   17.4556 C   0  0  1  0  0  0  0  0  0  0  0  0
  -23.1397  -16.2422   14.9127 C   0  0  2  0  0  0  0  0  0  0  0  0
  -26.7324  -13.8867   17.0005 C   0  0  0  0  0  0  0  0  0  0  0  0
  -25.4650  -27.6170   19.5881 N   0  0  0  0  0  0  0  0  0  0  0  0
  -26.7947  -27.5976   19.3941 N   0  0  0  0  0  0  0  0  0  0  0  0
  -25.0286  -14.1359   19.8425 N   0  0  0  0  0  0  0  0  0  0  0  0
  -28.3919  -24.2727   18.3928 N   0  0  0  0  0  0  0  0  0  0  0  0
  -28.8039  -28.7126   19.9693 N   0  0  0  0  0  0  0  0  0  0  0  0
  -25.6402  -31.0616   22.1760 N   0  0  0  0  0  0  0  0  0  0  0  0
  -23.8531  -11.1237   21.3273 N   0  0  0  0  0  0  0  0  0  0  0  0
  -24.5118  -14.9290   16.3788 N   0  0  0  0  0  0  0  0  0  0  0  0
  -30.4826  -24.1956   19.4958 N   0  0  0  0  0  0  0  0  0  0  0  0
  -32.9366  -25.9239   19.4395 N   0  3  0  0  0  0  0  0  0  0  0  0
  -22.1628  -17.3541   15.0868 N   0  3  0  0  0  0  0  0  0  0  0  0
  -31.2279  -23.0401   22.0007 N   0  3  1  0  0  0  0  0  0  0  0  0
  -27.8872  -30.9159   21.7419 O   0  0  0  0  0  0  0  0  0  0  0  0
  -25.9753  -11.8665   20.7217 O   0  0  0  0  0  0  0  0  0  0  0  0
  -23.7970  -13.1073   18.1585 O   0  0  0  0  0  0  0  0  0  0  0  0
  -24.5030  -17.2326   16.6441 O   0  0  0  0  0  0  0  0  0  0  0  0
  -30.0868  -22.8635   17.6721 O   0  0  0  0  0  0  0  0  0  0  0  0
  -20.1629  -30.0446   22.1461 O   0  0  0  0  0  0  0  0  0  0  0  0
  -25.6345  -19.6325   22.0787 O   0  0  0  0  0  0  0  0  0  1  0  0
  -16.8563  -25.9794   23.8619 F   0  0  0  0  0  0  0  0  0  0  0  0
  -19.1686  -30.0184   24.7255 F   0  0  0  0  0  0  0  0  0  0  0  0
  1  2  1  0  0  0  0
  1  5  2  0  0  0  0
  2  6  2  0  0  0  0
  3  8  2  0  0  0  0
  3 15  1  0  0  0  0
  4  9  1  0  0  0  0
  4 15  2  0  0  0  0
  5 17  1  0  0  0  0
  6 19  1  0  0  0  0
  7 10  2  0  0  0  0
  7 18  1  0  0  0  0
  8 21  1  0  0  0  0
  9 21  2  0  0  0  0
 10 22  1  0  0  0  0
 11 12  2  0  0  0  0
 11 23  1  0  0  0  0
 12 24  1  0  0  0  0
 13 20  1  0  0  0  0
 13 22  2  0  0  0  0
 14 24  2  0  0  0  0
 14 25  1  0  0  0  0
 15 26  1  0  0  0  0
 16 26  1  0  0  0  0
 16 27  2  0  0  0  0
 16 28  1  0  0  0  0
 17 19  2  0  0  0  0
 17 33  1  0  0  0  0
 18 20  2  0  0  0  0
 18 34  1  0  0  0  0
 19 51  1  0  0  0  0
 20 35  1  0  0  0  0
 21 85  1  0  0  0  0
 22 86  1  0  0  0  0
 23 25  2  0  0  0  0
 23 85  1  0  0  0  0
 24 87  1  0  0  0  0
 25 88  1  0  0  0  0
 26 68  2  0  0  0  0
 27 69  1  0  0  0  0
 27 72  1  0  0  0  0
 28 73  1  0  0  0  0
 28 80  2  0  0  0  0
 29 52  1  0  0  0  0
 29 74  1  0  0  0  0
 29 81  2  0  0  0  0
 30 65  1  0  0  0  0
 30 70  1  0  0  0  0
 30 82  2  0  0  0  0
 31 66  1  0  0  0  0
 31 75  1  0  0  0  0
 31 83  2  0  0  0  0
 32 71  1  0  0  0  0
 32 76  1  0  0  0  0
 32 84  2  0  0  0  0
 33 36  1  0  0  0  0
 34 52  1  0  0  0  0
 35 70  1  0  0  0  0
 36 38  1  0  0  0  0
 37 41  1  0  0  0  0
 37 47  1  0  0  0  0
 38 51  1  0  0  0  0
 39 44  1  0  0  0  0
 39 53  1  0  0  0  0
 40 45  1  0  0  0  0
 40 53  1  0  0  0  0
 41 54  1  0  0  0  0
 42 43  1  0  0  0  0
 42 56  1  0  0  0  0
 43 56  1  0  0  0  0
 44 58  1  0  0  0  0
 45 58  1  0  0  0  0
 46 49  1  0  0  0  0
 46 57  1  0  0  0  0
 47 71  1  0  0  0  0
 48 54  1  0  0  0  0
 48 71  1  0  0  0  0
 49 77  1  0  0  0  0
 50 55  1  0  0  0  0
 50 77  1  0  0  0  0
 51 74  1  0  0  0  0
 52 70  1  0  0  0  0
 53 64  1  0  0  0  0
 54 69  1  0  0  0  0
 55 57  1  0  0  0  0
 55 76  1  0  0  0  0
 56 79  1  0  0  0  0
 57 79  1  0  0  0  0
 58 86  1  0  0  0  0
 59 66  1  0  0  0  0
 60 67  1  0  0  0  0
 61 67  1  0  0  0  0
 62 67  1  0  0  0  0
 63 78  1  0  0  0  0
 64 79  1  0  0  0  0
 65 67  1  0  0  0  0
 65 75  1  0  0  0  0
 66 78  1  0  0  0  0
 68 69  1  0  0  0  0
M  CHG  3  77   1  78   1  79   1
M  ISO  4  32 100  58 101  76 100  86 101
M  END
> <Batch ID>
0118

> <Smiles>
CNC(C)C(=O)NC(C(=O)N1Cc2cc([101O:1][101CH:1]3CCC(CN(C4CC4)C4CCNCC4[100NH:0][100C:0](=O)N4CCCC(n5nc(-c6ccc(Oc7ccc(F)cc7F)cc6)c(C(N)=O)c5N)C4)CC3)ccc2CC1C(=O)NC1CCCc2ccccc21)C(C)(C)C

> <Shape>
0.252

> <Color>
0.057

> <Negative vol penalty>
0.000

$$$$

  -OEChem-04052320183D

 88 96  0     1  0  0  0  0  0999 V2000
  -24.5536  -30.0714   30.8740 C   0  0  0  0  0  0  0  0  0  0  0  0
  -24.7806  -28.8840   30.1856 C   0  0  0  0  0  0  0  0  0  0  0  0
  -23.0783   -9.8621   19.9477 C   0  0  0  0  0  0  0  0  0  0  0  0
  -23.8360   -9.8823   22.2417 C   0  0  0  0  0  0  0  0  0  0  0  0
  -24.5846  -31.2876   30.1929 C   0  0  0  0  0  0  0  0  0  0  0  0
  -25.0378  -28.9120   28.8154 C   0  0  0  0  0  0  0  0  0  0  0  0
  -28.7631  -25.1874   25.6921 C   0  0  0  0  0  0  0  0  0  0  0  0
  -22.3362   -8.7089   20.2029 C   0  0  0  0  0  0  0  0  0  0  0  0
  -23.0939   -8.7292   22.4970 C   0  0  0  0  0  0  0  0  0  0  0  0
  -28.5230  -24.0485   24.9246 C   0  0  0  0  0  0  0  0  0  0  0  0
  -19.8666   -7.9289   23.1006 C   0  0  0  0  0  0  0  0  0  0  0  0
  -19.1086   -7.8937   24.2710 C   0  0  0  0  0  0  0  0  0  0  0  0
  -28.5037  -25.4043   22.9295 C   0  0  0  0  0  0  0  0  0  0  0  0
  -20.3527   -5.9623   25.0187 C   0  0  0  0  0  0  0  0  0  0  0  0
  -23.8283  -10.4488   20.9670 C   0  0  0  0  0  0  0  0  0  0  0  0
  -24.1658  -12.9738   20.8342 C   0  0  0  0  0  0  0  0  0  0  0  0
  -24.8519  -31.3313   28.8154 C   0  0  0  0  0  0  0  0  0  0  0  0
  -28.8647  -26.4470   25.0841 C   0  0  0  0  0  0  0  0  0  0  0  0
  -25.0712  -30.1298   28.1150 C   0  0  0  0  0  0  0  0  0  0  0  0
  -28.7477  -26.5573   23.6912 C   0  0  0  0  0  0  0  0  0  0  0  0
  -22.3440   -8.1425   21.4776 C   0  0  0  0  0  0  0  0  0  0  0  0
  -28.3904  -24.1572   23.5434 C   0  0  0  0  0  0  0  0  0  0  0  0
  -20.8676   -6.9807   22.8892 C   0  0  0  0  0  0  0  0  0  0  0  0
  -19.3516   -6.9105   25.2301 C   0  0  0  0  0  0  0  0  0  0  0  0
  -21.1106   -5.9975   23.8483 C   0  0  0  0  0  0  0  0  0  0  0  0
  -24.5955  -11.6396   20.7038 C   0  0  0  0  0  0  0  0  0  0  0  0
  -25.2570  -13.7233   20.4680 C   0  0  0  0  0  0  0  0  0  0  0  0
  -22.8940  -13.4896   21.2492 C   0  0  0  0  0  0  0  0  0  0  0  0
  -27.2352  -29.1692   25.2782 C   0  0  0  0  0  0  0  0  0  0  0  0
  -28.4849  -19.2792   21.6555 C   0  0  0  0  0  0  0  0  0  0  0  0
  -29.6021  -30.2700   23.3525 C   0  0  0  0  0  0  0  0  0  0  0  0
  -32.0352  -29.5715   21.0635 C   0  0  0  0  0  0  0  0  0  0  0  0
  -30.7388  -14.7530   20.6562 C   0  0  0  0  0  0  0  0  0  0  0  0
  -24.8284  -32.6659   28.1134 C   0  0  0  0  0  0  0  0  0  0  0  0
  -29.1505  -27.6621   25.9232 C   0  0  0  0  0  0  0  0  0  0  0  0
  -28.8686  -27.8837   22.9879 C   0  0  0  0  0  0  0  0  0  0  0  0
  -25.4786  -32.6393   26.7325 C   0  0  0  0  0  0  0  0  0  0  0  0
  -29.6076  -12.3541   18.2808 C   0  0  0  0  0  0  0  0  0  0  0  0
  -24.9927  -31.4319   25.9369 C   0  0  0  0  0  0  0  0  0  0  0  0
  -26.2509  -18.4809   22.3036 C   0  0  0  0  0  0  0  0  0  0  0  0
  -24.7424  -18.6447   22.1680 C   0  0  0  0  0  0  0  0  0  0  0  0
  -28.1702  -12.0601   18.7139 C   0  0  0  0  0  0  0  0  0  0  0  0
  -30.5232  -12.5828   19.4814 C   0  0  0  0  0  0  0  0  0  0  0  0
  -28.6189  -13.3177   20.8624 C   0  0  0  0  0  0  0  0  0  0  0  0
  -25.0793  -21.0448   21.4899 C   0  0  0  0  0  0  0  0  0  0  0  0
  -25.3780  -30.1211   26.6331 C   0  0  1  0  0  0  0  0  0  0  0  0
  -28.7235  -28.9646   25.2534 C   0  0  1  0  0  0  0  0  0  0  0  0
  -27.0205  -19.4392   21.3958 C   0  0  1  0  0  0  0  0  0  0  0  0
  -24.3217  -20.0946   22.4159 C   0  0  1  0  0  0  0  0  0  0  0  0
  -27.6461  -13.1353   19.6848 C   0  0  2  0  0  0  0  0  0  0  0  0
  -33.7796  -30.6821   19.6419 C   0  0  0  0  0  0  0  0  0  0  0  0
  -22.0520  -19.3348   23.1740 C   0  0  0  0  0  0  0  0  0  0  0  0
  -22.3998  -21.7098   22.4379 C   0  0  0  0  0  0  0  0  0  0  0  0
  -26.0505  -23.8346   21.9194 C   0  0  0  0  0  0  0  0  0  0  0  0
  -27.4280  -31.2296   21.4387 C   0  0  0  0  0  0  0  0  0  0  0  0
  -29.1824  -31.4483   19.6660 C   0  0  0  0  0  0  0  0  0  0  0  0
  -29.3302  -32.8249   21.7411 C   0  0  0  0  0  0  0  0  0  0  0  0
  -34.2256  -28.0822   22.3837 C   0  0  0  0  0  0  0  0  0  0  0  0
  -30.5140  -18.0475   20.9151 C   0  0  0  0  0  0  0  0  0  0  0  0
  -30.7997  -16.9101   21.8819 C   0  0  0  0  0  0  0  0  0  0  0  0
  -27.3260  -21.8877   20.8578 C   0  0  0  0  0  0  0  0  0  0  0  0
  -29.8174  -30.3469   21.8603 C   0  0  1  0  0  0  0  0  0  0  0  0
  -33.4869  -30.0059   20.9722 C   0  0  2  0  0  0  0  0  0  0  0  0
  -22.8145  -20.2560   22.2248 C   0  0  0  0  0  0  0  0  0  0  0  0
  -27.4061  -23.2231   21.5903 C   0  0  2  0  0  0  0  0  0  1  0  0
  -28.9353  -31.4376   21.1897 C   0  0  0  0  0  0  0  0  0  0  0  0
  -25.8609  -11.5438   20.2872 N   0  0  0  0  0  0  0  0  0  0  0  0
  -26.2357  -12.8274   20.1526 N   0  0  0  0  0  0  0  0  0  0  0  0
  -29.1421  -29.0435   23.8525 N   0  0  0  0  0  0  0  0  0  0  0  0
  -29.9700  -13.6149   20.3615 N   0  0  0  0  0  0  0  0  0  0  0  0
  -25.4651  -15.0548   20.3883 N   0  0  0  0  0  0  0  0  0  0  0  0
  -21.8834  -12.5804   21.5903 N   0  0  0  0  0  0  0  0  0  0  0  0
  -26.7755  -29.8204   26.4069 N   0  0  0  0  0  0  0  0  0  0  0  0
  -29.1042  -18.3556   20.8351 N   0  0  0  0  0  0  0  0  0  0  0  0
  -31.2509  -30.5338   21.6638 N   0  0  0  0  0  0  0  0  0  0  0  0
  -30.1372  -15.6851   21.4928 N   0  0  0  0  0  0  0  0  0  0  0  0
  -26.5725  -20.8653   21.6743 N   0  3  1  0  0  0  0  0  0  0  0  0
  -34.3896  -28.8281   21.1095 N   0  3  0  0  0  0  0  0  0  0  0  0
  -22.6556  -14.7201   21.2999 O   0  0  0  0  0  0  0  0  0  0  0  0
  -26.5544  -28.7674   24.3418 O   0  0  0  0  0  0  0  0  0  0  0  0
  -29.0188  -19.9448   22.5350 O   0  0  0  0  0  0  0  0  0  0  0  0
  -29.8403  -31.2593   24.0497 O   0  0  0  0  0  0  0  0  0  0  0  0
  -31.6361  -28.4886   20.6410 O   0  0  0  0  0  0  0  0  0  0  0  0
  -31.8748  -14.9281   20.2027 O   0  0  0  0  0  0  0  0  0  0  0  0
  -21.6198   -7.0174   21.7271 O   0  0  0  0  0  0  0  0  0  0  0  0
  -28.1553  -23.0473   22.7920 O   0  0  0  0  0  0  0  0  0  1  0  0
  -18.6247   -6.8778   26.3546 F   0  0  0  0  0  0  0  0  0  0  0  0
  -22.0718   -5.0846   23.6513 F   0  0  0  0  0  0  0  0  0  0  0  0
  1  2  1  0  0  0  0
  1  5  2  0  0  0  0
  2  6  2  0  0  0  0
  3  8  2  0  0  0  0
  3 15  1  0  0  0  0
  4  9  1  0  0  0  0
  4 15  2  0  0  0  0
  5 17  1  0  0  0  0
  6 19  1  0  0  0  0
  7 10  2  0  0  0  0
  7 18  1  0  0  0  0
  8 21  1  0  0  0  0
  9 21  2  0  0  0  0
 10 22  1  0  0  0  0
 11 12  2  0  0  0  0
 11 23  1  0  0  0  0
 12 24  1  0  0  0  0
 13 20  1  0  0  0  0
 13 22  2  0  0  0  0
 14 24  2  0  0  0  0
 14 25  1  0  0  0  0
 15 26  1  0  0  0  0
 16 26  1  0  0  0  0
 16 27  2  0  0  0  0
 16 28  1  0  0  0  0
 17 19  2  0  0  0  0
 17 34  1  0  0  0  0
 18 20  2  0  0  0  0
 18 35  1  0  0  0  0
 19 46  1  0  0  0  0
 20 36  1  0  0  0  0
 21 85  1  0  0  0  0
 22 86  1  0  0  0  0
 23 25  2  0  0  0  0
 23 85  1  0  0  0  0
 24 87  1  0  0  0  0
 25 88  1  0  0  0  0
 26 67  2  0  0  0  0
 27 68  1  0  0  0  0
 27 71  1  0  0  0  0
 28 72  1  0  0  0  0
 28 79  2  0  0  0  0
 29 47  1  0  0  0  0
 29 73  1  0  0  0  0
 29 80  2  0  0  0  0
 30 48  1  0  0  0  0
 30 74  1  0  0  0  0
 30 81  2  0  0  0  0
 31 62  1  0  0  0  0
 31 69  1  0  0  0  0
 31 82  2  0  0  0  0
 32 63  1  0  0  0  0
 32 75  1  0  0  0  0
 32 83  2  0  0  0  0
 33 70  1  0  0  0  0
 33 76  1  0  0  0  0
 33 84  2  0  0  0  0
 34 37  1  0  0  0  0
 35 47  1  0  0  0  0
 36 69  1  0  0  0  0
 37 39  1  0  0  0  0
 38 42  1  0  0  0  0
 38 43  1  0  0  0  0
 39 46  1  0  0  0  0
 40 41  1  0  0  0  0
 40 48  1  0  0  0  0
 41 49  1  0  0  0  0
 42 50  1  0  0  0  0
 43 70  1  0  0  0  0
 44 50  1  0  0  0  0
 44 70  1  0  0  0  0
 45 49  1  0  0  0  0
 45 77  1  0  0  0  0
 46 73  1  0  0  0  0
 47 69  1  0  0  0  0
 48 77  1  0  0  0  0
 49 64  1  0  0  0  0
 50 68  1  0  0  0  0
 51 63  1  0  0  0  0
 52 64  1  0  0  0  0
 53 64  1  0  0  0  0
 54 65  1  0  0  0  0
 55 66  1  0  0  0  0
 56 66  1  0  0  0  0
 57 66  1  0  0  0  0
 58 78  1  0  0  0  0
 59 60  1  0  0  0  0
 59 74  1  0  0  0  0
 60 76  1  0  0  0  0
 61 65  1  0  0  0  0
 61 77  1  0  0  0  0
 62 66  1  0  0  0  0
 62 75  1  0  0  0  0
 63 78  1  0  0  0  0
 65 86  1  0  0  0  0
 67 68  1  0  0  0  0
M  CHG  2  77   1  78   1
M  ISO  4  33 100  65 101  76 100  86 101
M  END
> <Batch ID>
0118

> <Smiles>
CNC(C)C(=O)NC(C(=O)N1Cc2cc([101O:1][101CH:1](C)CN3CC(C(C)C)CCC3C(=O)NCC[100NH:0][100C:0](=O)N3CCCC(n4nc(-c5ccc(Oc6ccc(F)cc6F)cc5)c(C(N)=O)c4N)C3)ccc2CC1C(=O)NC1CCCc2ccccc21)C(C)(C)C

> <Shape>
0.231

> <Color>
0.180

> <Negative vol penalty>
0.000

$$$$

  -OEChem-04052320183D

 87 95  0     1  0  0  0  0  0999 V2000
  -22.2894  -12.3695   18.6457 C   0  0  0  0  0  0  0  0  0  0  0  0
  -22.0790  -13.7441   18.6050 C   0  0  0  0  0  0  0  0  0  0  0  0
  -17.1333  -24.9663   13.3140 C   0  0  0  0  0  0  0  0  0  0  0  0
  -25.7581  -27.5029   21.9910 C   0  0  0  0  0  0  0  0  0  0  0  0
  -25.1051  -28.5676   19.9230 C   0  0  0  0  0  0  0  0  0  0  0  0
  -23.3329  -11.8475   19.4089 C   0  0  0  0  0  0  0  0  0  0  0  0
  -22.9114  -14.5975   19.3284 C   0  0  0  0  0  0  0  0  0  0  0  0
  -24.3622  -18.6361   16.6395 C   0  0  0  0  0  0  0  0  0  0  0  0
  -17.7745  -23.7400   13.4883 C   0  0  0  0  0  0  0  0  0  0  0  0
  -17.1593  -25.9182   14.3333 C   0  0  0  0  0  0  0  0  0  0  0  0
  -26.9648  -27.1138   21.4097 C   0  0  0  0  0  0  0  0  0  0  0  0
  -26.3119  -28.1785   19.3416 C   0  0  0  0  0  0  0  0  0  0  0  0
  -23.4387  -19.6705   16.4958 C   0  0  0  0  0  0  0  0  0  0  0  0
  -29.0656  -27.1565   17.2010 C   0  0  0  0  0  0  0  0  0  0  0  0
  -29.0218  -26.6172   15.9154 C   0  0  0  0  0  0  0  0  0  0  0  0
  -24.5515  -20.8994   18.2481 C   0  0  0  0  0  0  0  0  0  0  0  0
  -27.5974  -24.8354   16.7114 C   0  0  0  0  0  0  0  0  0  0  0  0
  -24.8282  -28.2298   21.2476 C   0  0  0  0  0  0  0  0  0  0  0  0
  -23.3192  -29.8260   22.5449 C   0  0  0  0  0  0  0  0  0  0  0  0
  -24.1845  -12.6956   20.1344 C   0  0  0  0  0  0  0  0  0  0  0  0
  -25.3825  -18.7209   17.5978 C   0  0  0  0  0  0  0  0  0  0  0  0
  -23.9664  -14.0863   20.1031 C   0  0  0  0  0  0  0  0  0  0  0  0
  -25.4882  -19.8658   18.4003 C   0  0  0  0  0  0  0  0  0  0  0  0
  -18.4416  -23.4653   14.6821 C   0  0  0  0  0  0  0  0  0  0  0  0
  -17.8265  -25.6435   15.5271 C   0  0  0  0  0  0  0  0  0  0  0  0
  -18.4677  -24.4170   15.7015 C   0  0  0  0  0  0  0  0  0  0  0  0
  -27.2417  -27.4516   20.0850 C   0  0  0  0  0  0  0  0  0  0  0  0
  -23.5314  -20.8012   17.3021 C   0  0  0  0  0  0  0  0  0  0  0  0
  -28.3754  -26.5352   18.2419 C   0  0  0  0  0  0  0  0  0  0  0  0
  -28.2877  -25.4567   15.6705 C   0  0  0  0  0  0  0  0  0  0  0  0
  -27.6413  -25.3747   17.9970 C   0  0  0  0  0  0  0  0  0  0  0  0
  -23.5812  -28.6316   21.8474 C   0  0  0  0  0  0  0  0  0  0  0  0
  -21.9989  -29.7278   22.9102 C   0  0  0  0  0  0  0  0  0  0  0  0
  -24.1914  -30.9261   22.8363 C   0  0  0  0  0  0  0  0  0  0  0  0
  -26.1901  -17.0365   20.1696 C   0  0  0  0  0  0  0  0  0  0  0  0
  -28.7680  -19.0054   20.1698 C   0  0  0  0  0  0  0  0  0  0  0  0
  -30.1300  -21.9954   19.2469 C   0  0  0  0  0  0  0  0  0  0  0  0
  -17.3582  -26.6925   20.6514 C   0  0  0  0  0  0  0  0  0  0  0  0
  -25.2699  -12.0817   20.9827 C   0  0  0  0  0  0  0  0  0  0  0  0
  -26.3869  -17.6082   17.7221 C   0  0  0  0  0  0  0  0  0  0  0  0
  -26.5772  -20.0147   19.4301 C   0  0  0  0  0  0  0  0  0  0  0  0
  -26.3379  -13.0802   21.4216 C   0  0  0  0  0  0  0  0  0  0  0  0
  -18.6373  -26.4919   23.9681 C   0  0  0  0  0  0  0  0  0  0  0  0
  -25.6908  -14.3578   21.9466 C   0  0  0  0  0  0  0  0  0  0  0  0
  -20.0257  -27.1253   23.8636 C   0  0  0  0  0  0  0  0  0  0  0  0
  -18.2875  -25.6892   22.7169 C   0  0  0  0  0  0  0  0  0  0  0  0
  -19.8030  -27.0654   21.3446 C   0  0  0  0  0  0  0  0  0  0  0  0
  -24.8633  -15.0461   20.8544 C   0  0  1  0  0  0  0  0  0  0  0  0
  -27.0766  -17.5749   19.0825 C   0  0  1  0  0  0  0  0  0  0  0  0
  -20.1777  -27.9313   22.5596 C   0  0  2  0  0  0  0  0  0  0  0  0
  -19.1186  -22.1424   14.8401 C   0  0  0  0  0  0  0  0  0  0  0  0
  -32.2447  -23.3350   19.4232 C   0  0  0  0  0  0  0  0  0  0  0  0
  -20.5476  -23.9345   19.4979 C   0  0  0  0  0  0  0  0  0  0  0  0
  -21.3380  -25.1367   16.8025 C   0  0  0  0  0  0  0  0  0  0  0  0
  -28.0975  -19.6777   23.0696 C   0  0  0  0  0  0  0  0  0  0  0  0
  -29.6068  -21.6666   22.8845 C   0  0  0  0  0  0  0  0  0  0  0  0
  -30.5357  -19.3681   22.6074 C   0  0  0  0  0  0  0  0  0  0  0  0
  -30.4780  -22.0494   16.3084 C   0  0  0  0  0  0  0  0  0  0  0  0
  -17.8359  -26.6822   16.6013 C   0  0  0  0  0  0  0  0  0  0  0  0
  -16.5400  -26.7497   17.4310 C   0  0  0  0  0  0  0  0  0  0  0  0
  -16.5696  -27.7753   18.5622 C   0  0  0  0  0  0  0  0  0  0  0  0
  -22.3308  -22.5780   18.3303 C   0  0  0  0  0  0  0  0  0  1  0  0
  -29.0877  -20.3481   20.7813 C   0  0  1  0  0  0  0  0  0  0  0  0
  -31.4543  -22.3388   18.5891 C   0  0  2  0  0  0  0  0  0  0  0  0
  -20.8801  -23.0803   18.2645 C   0  0  2  0  0  0  0  0  0  0  0  0
  -20.5434  -23.8424   16.9611 C   0  0  1  0  0  0  0  0  0  0  0  0
  -29.3101  -20.2618   22.3177 C   0  0  0  0  0  0  0  0  0  0  0  0
  -22.5131  -27.8331   21.7730 N   0  0  0  0  0  0  0  0  0  0  0  0
  -21.5672  -28.5271   22.4285 N   0  0  0  0  0  0  0  0  0  0  0  0
  -27.5314  -18.8969   19.5180 N   0  0  0  0  0  0  0  0  0  0  0  0
  -18.4507  -26.5114   21.5156 N   0  0  0  0  0  0  0  0  0  0  0  0
  -21.1767  -30.5522   23.5934 N   0  0  0  0  0  0  0  0  0  0  0  0
  -25.5175  -30.8646   22.3869 N   0  0  0  0  0  0  0  0  0  0  0  0
  -19.1281  -24.1443   16.8853 N   0  0  0  0  0  0  0  0  0  0  0  0
  -25.7284  -15.7551   19.9361 N   0  0  0  0  0  0  0  0  0  0  0  0
  -30.2300  -20.8724   20.0407 N   0  0  0  0  0  0  0  0  0  0  0  0
  -17.5966  -27.4910   19.5396 N   0  0  0  0  0  0  0  0  0  0  0  0
  -31.2249  -22.9319   17.2413 N   0  3  0  0  0  0  0  0  0  0  0  0
  -23.8107  -31.9263   23.4906 O   0  0  0  0  0  0  0  0  0  0  0  0
  -25.9444  -17.7315   21.1486 O   0  0  0  0  0  0  0  0  0  0  0  0
  -29.5884  -18.0888   20.2608 O   0  0  0  0  0  0  0  0  0  0  0  0
  -29.1098  -22.6593   19.0767 O   0  0  0  0  0  0  0  0  0  0  0  0
  -16.2508  -26.1848   20.8584 O   0  0  0  0  0  0  0  0  0  0  0  0
  -28.4193  -27.0723   19.5175 O   0  0  0  0  0  0  0  0  0  0  0  0
  -22.6309  -21.8121   17.1643 O   0  0  0  0  0  0  0  0  0  1  0  0
  -28.2444  -24.9398   14.4356 F   0  0  0  0  0  0  0  0  0  0  0  0
  -26.9752  -24.7740   18.9927 F   0  0  0  0  0  0  0  0  0  0  0  0
  1  2  1  0  0  0  0
  1  6  2  0  0  0  0
  2  7  2  0  0  0  0
  3  9  1  0  0  0  0
  3 10  2  0  0  0  0
  4 11  2  0  0  0  0
  4 18  1  0  0  0  0
  5 12  1  0  0  0  0
  5 18  2  0  0  0  0
  6 20  1  0  0  0  0
  7 22  1  0  0  0  0
  8 13  2  0  0  0  0
  8 21  1  0  0  0  0
  9 24  2  0  0  0  0
 10 25  1  0  0  0  0
 11 27  1  0  0  0  0
 12 27  2  0  0  0  0
 13 28  1  0  0  0  0
 14 15  2  0  0  0  0
 14 29  1  0  0  0  0
 15 30  1  0  0  0  0
 16 23  1  0  0  0  0
 16 28  2  0  0  0  0
 17 30  2  0  0  0  0
 17 31  1  0  0  0  0
 18 32  1  0  0  0  0
 19 32  1  0  0  0  0
 19 33  2  0  0  0  0
 19 34  1  0  0  0  0
 20 22  2  0  0  0  0
 20 39  1  0  0  0  0
 21 23  2  0  0  0  0
 21 40  1  0  0  0  0
 22 48  1  0  0  0  0
 23 41  1  0  0  0  0
 24 26  1  0  0  0  0
 24 51  1  0  0  0  0
 25 26  2  0  0  0  0
 25 59  1  0  0  0  0
 26 74  1  0  0  0  0
 27 84  1  0  0  0  0
 28 85  1  0  0  0  0
 29 31  2  0  0  0  0
 29 84  1  0  0  0  0
 30 86  1  0  0  0  0
 31 87  1  0  0  0  0
 32 68  2  0  0  0  0
 33 69  1  0  0  0  0
 33 72  1  0  0  0  0
 34 73  1  0  0  0  0
 34 79  2  0  0  0  0
 35 49  1  0  0  0  0
 35 75  1  0  0  0  0
 35 80  2  0  0  0  0
 36 63  1  0  0  0  0
 36 70  1  0  0  0  0
 36 81  2  0  0  0  0
 37 64  1  0  0  0  0
 37 76  1  0  0  0  0
 37 82  2  0  0  0  0
 38 71  1  0  0  0  0
 38 77  1  0  0  0  0
 38 83  2  0  0  0  0
 39 42  1  0  0  0  0
 40 49  1  0  0  0  0
 41 70  1  0  0  0  0
 42 44  1  0  0  0  0
 43 45  1  0  0  0  0
 43 46  1  0  0  0  0
 44 48  1  0  0  0  0
 45 50  1  0  0  0  0
 46 71  1  0  0  0  0
 47 50  1  0  0  0  0
 47 71  1  0  0  0  0
 48 75  1  0  0  0  0
 49 70  1  0  0  0  0
 50 69  1  0  0  0  0
 52 64  1  0  0  0  0
 53 65  1  0  0  0  0
 54 66  1  0  0  0  0
 55 67  1  0  0  0  0
 56 67  1  0  0  0  0
 57 67  1  0  0  0  0
 58 78  1  0  0  0  0
 59 60  1  0  0  0  0
 60 61  1  0  0  0  0
 61 77  1  0  0  0  0
 62 65  1  0  0  0  0
 62 85  1  0  0  0  0
 63 67  1  0  0  0  0
 63 76  1  0  0  0  0
 64 78  1  0  0  0  0
 65 66  1  0  0  0  0
 66 74  1  0  0  0  0
 68 69  1  0  0  0  0
M  CHG  1  78   1
M  ISO  4  38 100  62 101  77 100  85 101
M  END
> <Batch ID>
0118

> <Smiles>
CNC(C)C(=O)NC(C(=O)N1Cc2cc([101O:1][101CH2:1]C(C)C(C)Nc3c(C)cccc3CCC[100NH:0][100C:0](=O)N3CCCC(n4nc(-c5ccc(Oc6ccc(F)cc6F)cc5)c(C(N)=O)c4N)C3)ccc2CC1C(=O)NC1CCCc2ccccc21)C(C)(C)C

> <Shape>
0.204

> <Color>
0.096

> <Negative vol penalty>
0.000

$$$$

  -OEChem-04052320183D

 91101  0     1  0  0  0  0  0999 V2000
  -25.8537  -37.9170   21.1665 C   0  0  0  0  0  0  0  0  0  0  0  0
  -26.3203  -36.6142   21.0234 C   0  0  0  0  0  0  0  0  0  0  0  0
  -25.1116   -8.4203   22.1165 C   0  0  0  0  0  0  0  0  0  0  0  0
  -24.7208   -8.1472   19.7480 C   0  0  0  0  0  0  0  0  0  0  0  0
  -29.0823  -23.7650   22.4636 C   0  0  0  0  0  0  0  0  0  0  0  0
  -24.8175  -38.1912   22.0581 C   0  0  0  0  0  0  0  0  0  0  0  0
  -25.7515  -35.5849   21.7727 C   0  0  0  0  0  0  0  0  0  0  0  0
  -24.9056  -29.7814   20.0096 C   0  0  0  0  0  0  0  0  0  0  0  0
  -23.8200   -7.9656   22.3821 C   0  0  0  0  0  0  0  0  0  0  0  0
  -23.4292   -7.6925   20.0136 C   0  0  0  0  0  0  0  0  0  0  0  0
  -25.6345  -28.6154   20.2397 C   0  0  0  0  0  0  0  0  0  0  0  0
  -22.2057   -4.9985   22.5336 C   0  0  0  0  0  0  0  0  0  0  0  0
  -22.0449   -4.0646   23.5571 C   0  0  0  0  0  0  0  0  0  0  0  0
  -28.5087  -24.9915   22.1474 C   0  0  0  0  0  0  0  0  0  0  0  0
  -24.1775  -28.0760   22.0851 C   0  0  0  0  0  0  0  0  0  0  0  0
  -20.5893   -5.5974   24.7269 C   0  0  0  0  0  0  0  0  0  0  0  0
  -25.5620   -8.5112   20.7995 C   0  0  0  0  0  0  0  0  0  0  0  0
  -28.8510  -22.6643   21.6462 C   0  0  0  0  0  0  0  0  0  0  0  0
  -28.0662   -8.2058   20.4206 C   0  0  0  0  0  0  0  0  0  0  0  0
  -24.2291  -37.1632   22.8116 C   0  0  0  0  0  0  0  0  0  0  0  0
  -23.8120  -30.1094   20.8236 C   0  0  0  0  0  0  0  0  0  0  0  0
  -24.7072  -35.8458   22.6762 C   0  0  0  0  0  0  0  0  0  0  0  0
  -23.4348  -29.2454   21.8615 C   0  0  0  0  0  0  0  0  0  0  0  0
  -22.9788   -7.6017   21.3306 C   0  0  0  0  0  0  0  0  0  0  0  0
  -25.2723  -27.7639   21.2794 C   0  0  0  0  0  0  0  0  0  0  0  0
  -21.5584   -6.2319   22.6067 C   0  0  0  0  0  0  0  0  0  0  0  0
  -21.2367   -4.3640   24.6537 C   0  0  0  0  0  0  0  0  0  0  0  0
  -20.7501   -6.5313   23.7034 C   0  0  0  0  0  0  0  0  0  0  0  0
  -26.8960   -8.9814   20.5245 C   0  0  0  0  0  0  0  0  0  0  0  0
  -28.0450  -22.8410   20.5331 C   0  0  0  0  0  0  0  0  0  0  0  0
  -27.7181  -25.0641   21.0118 C   0  0  0  0  0  0  0  0  0  0  0  0
  -29.0587   -9.1161   20.1511 C   0  0  0  0  0  0  0  0  0  0  0  0
  -29.4587  -21.3452   21.9722 C   0  0  0  0  0  0  0  0  0  0  0  0
  -28.2405   -6.7891   20.5557 C   0  0  0  0  0  0  0  0  0  0  0  0
  -23.1162  -32.5127   22.7842 C   0  0  0  0  0  0  0  0  0  0  0  0
  -20.2323  -31.0359   22.9415 C   0  0  0  0  0  0  0  0  0  0  0  0
  -18.4300  -28.1566   22.6129 C   0  0  0  0  0  0  0  0  0  0  0  0
  -29.7938  -14.7224   21.3416 C   0  0  0  0  0  0  0  0  0  0  0  0
  -23.1435  -37.5157   23.7973 C   0  0  0  0  0  0  0  0  0  0  0  0
  -23.0196  -31.3573   20.5455 C   0  0  0  0  0  0  0  0  0  0  0  0
  -22.2564  -29.5418   22.7514 C   0  0  0  0  0  0  0  0  0  0  0  0
  -22.3422  -36.3088   24.2784 C   0  0  0  0  0  0  0  0  0  0  0  0
  -27.1999  -21.0633   17.5203 C   0  0  0  0  0  0  0  0  0  0  0  0
  -29.7931  -13.3705   18.1021 C   0  0  0  0  0  0  0  0  0  0  0  0
  -23.2769  -35.1653   24.6603 C   0  0  0  0  0  0  0  0  0  0  0  0
  -26.4286  -21.8320   18.6100 C   0  0  0  0  0  0  0  0  0  0  0  0
  -28.4924  -21.5841   18.1778 C   0  0  0  0  0  0  0  0  0  0  0  0
  -29.1583  -12.0014   18.3448 C   0  0  0  0  0  0  0  0  0  0  0  0
  -32.0163  -17.6465   20.8344 C   0  0  0  0  0  0  0  0  0  0  0  0
  -29.7221  -18.1844   19.9088 C   0  0  0  0  0  0  0  0  0  0  0  0
  -29.1096  -14.4713   18.9150 C   0  0  0  0  0  0  0  0  0  0  0  0
  -31.3815  -16.5725   21.7164 C   0  0  0  0  0  0  0  0  0  0  0  0
  -29.1398  -17.1014   20.8141 C   0  0  0  0  0  0  0  0  0  0  0  0
  -28.3928  -12.8162   20.6071 C   0  0  0  0  0  0  0  0  0  0  0  0
  -24.0992  -34.6983   23.4532 C   0  0  1  0  0  0  0  0  0  0  0  0
  -27.6916  -21.6835   19.5113 C   0  0  0  0  0  0  0  0  0  0  0  0
  -22.2386  -31.8521   21.7590 C   0  0  1  0  0  0  0  0  0  0  0  0
  -29.0961  -11.6799   19.8486 C   0  0  1  0  0  0  0  0  0  0  0  0
  -31.0331  -18.7539   20.4535 C   0  0  0  0  0  0  0  0  0  0  0  0
  -29.1095  -20.7029   23.3003 C   0  0  0  0  0  0  0  0  0  0  0  0
  -16.1000  -27.2538   22.8440 C   0  0  0  0  0  0  0  0  0  0  0  0
  -20.5301  -31.0515   25.9781 C   0  0  0  0  0  0  0  0  0  0  0  0
  -18.7049  -29.3418   26.0961 C   0  0  0  0  0  0  0  0  0  0  0  0
  -18.2347  -31.6025   25.1522 C   0  0  0  0  0  0  0  0  0  0  0  0
  -18.3195  -27.3890   19.7567 C   0  0  0  0  0  0  0  0  0  0  0  0
  -27.0867  -26.3646   20.6423 C   0  0  0  0  0  0  0  0  0  1  0  0
  -19.6251  -29.9665   23.8171 C   0  0  1  0  0  0  0  0  0  0  0  0
  -17.1237  -27.8620   21.8979 C   0  0  2  0  0  0  0  0  0  0  0  0
  -19.2971  -30.4857   25.2455 C   0  0  0  0  0  0  0  0  0  0  0  0
  -27.1225  -10.2842   20.3364 N   0  0  0  0  0  0  0  0  0  0  0  0
  -27.4706  -24.0167   20.1936 N   0  0  0  0  0  0  0  0  0  0  0  0
  -30.2701  -20.8056   21.1116 N   0  0  0  0  0  0  0  0  0  0  0  0
  -28.4465  -10.3343   20.1117 N   0  0  0  0  0  0  0  0  0  0  0  0
  -21.5171  -30.7772   22.4434 N   0  0  0  0  0  0  0  0  0  0  0  0
  -29.0388  -14.1019   20.3350 N   0  0  0  0  0  0  0  0  0  0  0  0
  -30.1346  -16.0706   21.1400 N   0  0  0  0  0  0  0  0  0  0  0  0
  -30.3866   -8.9854   19.9463 N   0  0  0  0  0  0  0  0  0  0  0  0
  -27.1152   -6.0009   20.8330 N   0  0  0  0  0  0  0  0  0  0  0  0
  -23.2935  -33.8683   22.5835 N   0  0  0  0  0  0  0  0  0  0  0  0
  -18.4710  -29.4498   23.0895 N   0  0  0  0  0  0  0  0  0  0  0  0
  -17.3511  -26.9084   20.7755 N   0  3  0  0  0  0  0  0  0  0  0  0
  -29.3635   -6.2403   20.4503 O   0  0  0  0  0  0  0  0  0  0  0  0
  -23.5956  -31.8424   23.6912 O   0  0  0  0  0  0  0  0  0  0  0  0
  -19.5874  -32.0598   22.7022 O   0  0  0  0  0  0  0  0  0  0  0  0
  -19.3231  -27.3218   22.7393 O   0  0  0  0  0  0  0  0  0  0  0  0
  -30.1463  -14.1106   22.3577 O   0  0  0  0  0  0  0  0  0  0  0  0
  -21.7184   -7.1577   21.5894 O   0  0  0  0  0  0  0  0  0  0  0  0
  -25.9875  -26.6176   21.5082 O   0  0  0  0  0  0  0  0  0  1  0  0
  -30.7737  -19.5872   21.5812 O   0  0  0  0  0  0  0  0  0  0  0  0
  -21.0811   -3.4665   25.6358 F   0  0  0  0  0  0  0  0  0  0  0  0
  -20.1247   -7.7141   23.7787 F   0  0  0  0  0  0  0  0  0  0  0  0
  1  2  1  0  0  0  0
  1  6  2  0  0  0  0
  2  7  2  0  0  0  0
  3  9  2  0  0  0  0
  3 17  1  0  0  0  0
  4 10  1  0  0  0  0
  4 17  2  0  0  0  0
  5 14  2  0  0  0  0
  5 18  1  0  0  0  0
  6 20  1  0  0  0  0
  7 22  1  0  0  0  0
  8 11  2  0  0  0  0
  8 21  1  0  0  0  0
  9 24  1  0  0  0  0
 10 24  2  0  0  0  0
 11 25  1  0  0  0  0
 12 13  2  0  0  0  0
 12 26  1  0  0  0  0
 13 27  1  0  0  0  0
 14 31  1  0  0  0  0
 15 23  1  0  0  0  0
 15 25  2  0  0  0  0
 16 27  2  0  0  0  0
 16 28  1  0  0  0  0
 17 29  1  0  0  0  0
 18 30  2  0  0  0  0
 18 33  1  0  0  0  0
 19 29  1  0  0  0  0
 19 32  2  0  0  0  0
 19 34  1  0  0  0  0
 20 22  2  0  0  0  0
 20 39  1  0  0  0  0
 21 23  2  0  0  0  0
 21 40  1  0  0  0  0
 22 55  1  0  0  0  0
 23 41  1  0  0  0  0
 24 87  1  0  0  0  0
 25 88  1  0  0  0  0
 26 28  2  0  0  0  0
 26 87  1  0  0  0  0
 27 90  1  0  0  0  0
 28 91  1  0  0  0  0
 29 70  2  0  0  0  0
 30 56  1  0  0  0  0
 30 71  1  0  0  0  0
 31 66  1  0  0  0  0
 31 71  2  0  0  0  0
 32 73  1  0  0  0  0
 32 77  1  0  0  0  0
 33 60  1  0  0  0  0
 33 72  2  0  0  0  0
 34 78  1  0  0  0  0
 34 82  2  0  0  0  0
 35 57  1  0  0  0  0
 35 79  1  0  0  0  0
 35 83  2  0  0  0  0
 36 67  1  0  0  0  0
 36 74  1  0  0  0  0
 36 84  2  0  0  0  0
 37 68  1  0  0  0  0
 37 80  1  0  0  0  0
 37 85  2  0  0  0  0
 38 75  1  0  0  0  0
 38 76  1  0  0  0  0
 38 86  2  0  0  0  0
 39 42  1  0  0  0  0
 40 57  1  0  0  0  0
 41 74  1  0  0  0  0
 42 45  1  0  0  0  0
 43 46  1  0  0  0  0
 43 47  1  0  0  0  0
 44 48  1  0  0  0  0
 44 51  1  0  0  0  0
 45 55  1  0  0  0  0
 46 56  1  0  0  0  0
 47 56  1  0  0  0  0
 48 58  1  0  0  0  0
 49 52  1  0  0  0  0
 49 59  1  0  0  0  0
 50 53  1  0  0  0  0
 50 59  1  0  0  0  0
 51 75  1  0  0  0  0
 52 76  1  0  0  0  0
 53 76  1  0  0  0  0
 54 58  1  0  0  0  0
 54 75  1  0  0  0  0
 55 79  1  0  0  0  0
 57 74  1  0  0  0  0
 58 73  1  0  0  0  0
 59 89  1  0  0  0  0
 61 68  1  0  0  0  0
 62 69  1  0  0  0  0
 63 69  1  0  0  0  0
 64 69  1  0  0  0  0
 65 81  1  0  0  0  0
 66 88  1  0  0  0  0
 67 69  1  0  0  0  0
 67 80  1  0  0  0  0
 68 81  1  0  0  0  0
 70 73  1  0  0  0  0
 72 89  1  0  0  0  0
M  CHG  1  81   1
M  ISO  4  38 100  66 101  76 100  88 101
M  END
> <Batch ID>
0118

> <Smiles>
CNC(C)C(=O)NC(C(=O)N1Cc2cc([101O:1][101CH2:1]c3ccc(C(C)=NOC4CC[100N:0]([100C:0](=O)N5CCCC(n6nc(-c7ccc(Oc8ccc(F)cc8F)cc7)c(C(N)=O)c6N)C5)CC4)c(C4CCC4)n3)ccc2CC1C(=O)NC1CCCc2ccccc21)C(C)(C)C

> <Shape>
0.304

> <Color>
0.078

> <Negative vol penalty>
0.000

$$$$

  -OEChem-04052320183D

 82 90  0     1  0  0  0  0  0999 V2000
  -31.2792  -32.9937   14.4536 C   0  0  0  0  0  0  0  0  0  0  0  0
  -31.0955  -31.6718   14.8461 C   0  0  0  0  0  0  0  0  0  0  0  0
  -22.8729  -10.1454   19.9690 C   0  0  0  0  0  0  0  0  0  0  0  0
  -23.7883   -9.8572   22.1862 C   0  0  0  0  0  0  0  0  0  0  0  0
  -31.0708  -34.0263   15.3669 C   0  0  0  0  0  0  0  0  0  0  0  0
  -30.7043  -31.3816   16.1527 C   0  0  0  0  0  0  0  0  0  0  0  0
  -27.0479  -26.8186   17.9736 C   0  0  0  0  0  0  0  0  0  0  0  0
  -22.0637   -9.0251   20.1574 C   0  0  0  0  0  0  0  0  0  0  0  0
  -22.9790   -8.7368   22.3747 C   0  0  0  0  0  0  0  0  0  0  0  0
  -27.3150  -25.5584   18.5069 C   0  0  0  0  0  0  0  0  0  0  0  0
  -22.9802   -5.4809   21.4636 C   0  0  0  0  0  0  0  0  0  0  0  0
  -23.5652   -4.3459   22.0249 C   0  0  0  0  0  0  0  0  0  0  0  0
  -27.0156  -26.4429   20.7311 C   0  0  0  0  0  0  0  0  0  0  0  0
  -22.0040   -4.4515   23.8657 C   0  0  0  0  0  0  0  0  0  0  0  0
  -23.7353  -10.5614   20.9834 C   0  0  0  0  0  0  0  0  0  0  0  0
  -24.2567  -13.0562   21.0934 C   0  0  0  0  0  0  0  0  0  0  0  0
  -30.6675  -33.7491   16.6827 C   0  0  0  0  0  0  0  0  0  0  0  0
  -26.7728  -27.9046   18.8169 C   0  0  0  0  0  0  0  0  0  0  0  0
  -30.4916  -32.4114   17.0849 C   0  0  0  0  0  0  0  0  0  0  0  0
  -26.7427  -27.7152   20.2059 C   0  0  0  0  0  0  0  0  0  0  0  0
  -22.1166   -8.3208   21.3602 C   0  0  0  0  0  0  0  0  0  0  0  0
  -27.3017  -25.3710   19.8859 C   0  0  0  0  0  0  0  0  0  0  0  0
  -21.9071   -6.1013   22.1034 C   0  0  0  0  0  0  0  0  0  0  0  0
  -23.0771   -3.8311   23.2259 C   0  0  0  0  0  0  0  0  0  0  0  0
  -21.4190   -5.5866   23.3044 C   0  0  0  0  0  0  0  0  0  0  0  0
  -24.5719  -11.7183   20.7891 C   0  0  0  0  0  0  0  0  0  0  0  0
  -25.3742  -13.7646   20.7251 C   0  0  0  0  0  0  0  0  0  0  0  0
  -23.0606  -13.6091   21.6586 C   0  0  0  0  0  0  0  0  0  0  0  0
  -28.1579  -30.7080   19.3883 C   0  0  0  0  0  0  0  0  0  0  0  0
  -25.5237  -31.1966   21.2170 C   0  0  0  0  0  0  0  0  0  0  0  0
  -22.9528  -29.8499   23.0126 C   0  0  0  0  0  0  0  0  0  0  0  0
  -30.9189  -14.3853   20.5942 C   0  0  0  0  0  0  0  0  0  0  0  0
  -30.5003  -34.8962   17.6476 C   0  0  0  0  0  0  0  0  0  0  0  0
  -26.4604  -29.2516   18.2249 C   0  0  0  0  0  0  0  0  0  0  0  0
  -26.4330  -28.8440   21.1537 C   0  0  0  0  0  0  0  0  0  0  0  0
  -29.7236  -34.5237   18.9078 C   0  0  0  0  0  0  0  0  0  0  0  0
  -29.4427  -12.3504   18.0729 C   0  0  0  0  0  0  0  0  0  0  0  0
  -30.2378  -33.2075   19.4823 C   0  0  0  0  0  0  0  0  0  0  0  0
  -29.1202  -21.7662   20.6779 C   0  0  0  0  0  0  0  0  0  0  0  0
  -27.2286  -20.4914   19.5811 C   0  0  0  0  0  0  0  0  0  0  0  0
  -28.0207  -12.1100   18.5829 C   0  0  0  0  0  0  0  0  0  0  0  0
  -29.5684  -20.4891   21.3884 C   0  0  0  0  0  0  0  0  0  0  0  0
  -27.6774  -19.2147   20.2919 C   0  0  0  0  0  0  0  0  0  0  0  0
  -30.4549  -12.3799   19.2160 C   0  0  0  0  0  0  0  0  0  0  0  0
  -28.7141  -13.0860   20.8112 C   0  0  0  0  0  0  0  0  0  0  0  0
  -30.0437  -32.0577   18.4865 C   0  0  1  0  0  0  0  0  0  0  0  0
  -26.6992  -30.4020   19.1981 C   0  0  1  0  0  0  0  0  0  0  0  0
  -27.6151  -21.7481   20.3744 C   0  0  0  0  0  0  0  0  0  0  0  0
  -27.6503  -13.1038   19.7002 C   0  0  2  0  0  0  0  0  0  0  0  0
  -29.1748  -19.2527   20.5848 C   0  0  0  0  0  0  0  0  0  0  0  0
  -20.9838  -30.5008   24.4257 C   0  0  0  0  0  0  0  0  0  0  0  0
  -25.7058  -23.0380   19.3512 C   0  0  0  0  0  0  0  0  0  0  0  0
  -27.4037  -31.8601   23.5268 C   0  0  0  0  0  0  0  0  0  0  0  0
  -25.4721  -31.5654   25.0921 C   0  0  0  0  0  0  0  0  0  0  0  0
  -25.4024  -33.3494   23.3499 C   0  0  0  0  0  0  0  0  0  0  0  0
  -21.0471  -28.5398   21.1659 C   0  0  0  0  0  0  0  0  0  0  0  0
  -31.2316  -16.3828   22.0334 C   0  0  0  0  0  0  0  0  0  0  0  0
  -30.9705  -17.6376   21.2213 C   0  0  0  0  0  0  0  0  0  0  0  0
  -25.1576  -30.9303   22.6572 C   0  0  1  0  0  0  0  0  0  0  0  0
  -21.4656  -30.1538   23.0256 C   0  0  2  0  0  0  0  0  0  0  0  0
  -27.2029  -23.0100   19.6187 C   0  0  1  0  0  0  0  0  0  1  0  0
  -25.8667  -31.9053   23.6390 C   0  0  0  0  0  0  0  0  0  0  0  0
  -25.7940  -11.5824   20.2675 N   0  0  0  0  0  0  0  0  0  0  0  0
  -26.2564  -12.8439   20.2411 N   0  0  0  0  0  0  0  0  0  0  0  0
  -26.1404  -30.1435   20.5267 N   0  0  0  0  0  0  0  0  0  0  0  0
  -30.0458  -13.3432   20.2411 N   0  0  0  0  0  0  0  0  0  0  0  0
  -25.6785  -15.0790   20.7711 N   0  0  0  0  0  0  0  0  0  0  0  0
  -22.0091  -12.7396   21.9789 N   0  0  0  0  0  0  0  0  0  0  0  0
  -28.6641  -31.6203   18.4822 N   0  0  0  0  0  0  0  0  0  0  0  0
  -23.7007  -30.9714   22.7224 N   0  0  0  0  0  0  0  0  0  0  0  0
  -30.4510  -15.2577   21.5693 N   0  0  0  0  0  0  0  0  0  0  0  0
  -29.5450  -18.0379   21.3582 N   0  3  0  0  0  0  0  0  0  0  0  0
  -20.6920  -28.9758   22.5409 N   0  3  0  0  0  0  0  0  0  0  0  0
  -22.9220  -14.8397   21.8580 O   0  0  0  0  0  0  0  0  0  0  0  0
  -28.7778  -30.1584   20.2912 O   0  0  0  0  0  0  0  0  0  0  0  0
  -25.2653  -32.2959   20.7208 O   0  0  0  0  0  0  0  0  0  0  0  0
  -23.4060  -28.7306   23.2411 O   0  0  0  0  0  0  0  0  0  0  0  0
  -32.0306  -14.5310   20.0748 O   0  0  0  0  0  0  0  0  0  0  0  0
  -21.3269   -7.2277   21.5445 O   0  0  0  0  0  0  0  0  0  0  0  0
  -27.5628  -24.1422   20.4091 O   0  0  0  0  0  0  0  0  0  1  0  0
  -23.6380   -2.7402   23.7640 F   0  0  0  0  0  0  0  0  0  0  0  0
  -20.3876   -6.1775   23.9231 F   0  0  0  0  0  0  0  0  0  0  0  0
  1  2  1  0  0  0  0
  1  5  2  0  0  0  0
  2  6  2  0  0  0  0
  3  8  2  0  0  0  0
  3 15  1  0  0  0  0
  4  9  1  0  0  0  0
  4 15  2  0  0  0  0
  5 17  1  0  0  0  0
  6 19  1  0  0  0  0
  7 10  2  0  0  0  0
  7 18  1  0  0  0  0
  8 21  1  0  0  0  0
  9 21  2  0  0  0  0
 10 22  1  0  0  0  0
 11 12  2  0  0  0  0
 11 23  1  0  0  0  0
 12 24  1  0  0  0  0
 13 20  1  0  0  0  0
 13 22  2  0  0  0  0
 14 24  2  0  0  0  0
 14 25  1  0  0  0  0
 15 26  1  0  0  0  0
 16 26  1  0  0  0  0
 16 27  2  0  0  0  0
 16 28  1  0  0  0  0
 17 19  2  0  0  0  0
 17 33  1  0  0  0  0
 18 20  2  0  0  0  0
 18 34  1  0  0  0  0
 19 46  1  0  0  0  0
 20 35  1  0  0  0  0
 21 79  1  0  0  0  0
 22 80  1  0  0  0  0
 23 25  2  0  0  0  0
 23 79  1  0  0  0  0
 24 81  1  0  0  0  0
 25 82  1  0  0  0  0
 26 63  2  0  0  0  0
 27 64  1  0  0  0  0
 27 67  1  0  0  0  0
 28 68  1  0  0  0  0
 28 74  2  0  0  0  0
 29 47  1  0  0  0  0
 29 69  1  0  0  0  0
 29 75  2  0  0  0  0
 30 59  1  0  0  0  0
 30 65  1  0  0  0  0
 30 76  2  0  0  0  0
 31 60  1  0  0  0  0
 31 70  1  0  0  0  0
 31 77  2  0  0  0  0
 32 66  1  0  0  0  0
 32 71  1  0  0  0  0
 32 78  2  0  0  0  0
 33 36  1  0  0  0  0
 34 47  1  0  0  0  0
 35 65  1  0  0  0  0
 36 38  1  0  0  0  0
 37 41  1  0  0  0  0
 37 44  1  0  0  0  0
 38 46  1  0  0  0  0
 39 42  1  0  0  0  0
 39 48  1  0  0  0  0
 40 43  1  0  0  0  0
 40 48  1  0  0  0  0
 41 49  1  0  0  0  0
 42 50  1  0  0  0  0
 43 50  1  0  0  0  0
 44 66  1  0  0  0  0
 45 49  1  0  0  0  0
 45 66  1  0  0  0  0
 46 69  1  0  0  0  0
 47 65  1  0  0  0  0
 48 61  1  0  0  0  0
 49 64  1  0  0  0  0
 50 72  1  0  0  0  0
 51 60  1  0  0  0  0
 52 61  1  0  0  0  0
 53 62  1  0  0  0  0
 54 62  1  0  0  0  0
 55 62  1  0  0  0  0
 56 73  1  0  0  0  0
 57 58  1  0  0  0  0
 57 71  1  0  0  0  0
 58 72  1  0  0  0  0
 59 62  1  0  0  0  0
 59 70  1  0  0  0  0
 60 73  1  0  0  0  0
 61 80  1  0  0  0  0
 63 64  1  0  0  0  0
M  CHG  2  72   1  73   1
M  ISO  4  32 100  61 101  71 100  80 101
M  END
> <Batch ID>
0118

> <Smiles>
CNC(C)C(=O)NC(C(=O)N1Cc2cc([101O:1][101CH:1](C)C3CCC(NCC[100NH:0][100C:0](=O)N4CCCC(n5nc(-c6ccc(Oc7ccc(F)cc7F)cc6)c(C(N)=O)c5N)C4)CC3)ccc2CC1C(=O)NC1CCCc2ccccc21)C(C)(C)C

> <Shape>
0.359

> <Color>
0.226

> <Negative vol penalty>
0.000

$$$$

  -OEChem-04052320183D

 85 93  0     1  0  0  0  0  0999 V2000
  -28.0278  -24.6259   16.7289 C   0  0  0  0  0  0  0  0  0  0  0  0
  -26.8466  -24.8254   17.4361 C   0  0  0  0  0  0  0  0  0  0  0  0
  -26.1832  -13.8644   18.1182 C   0  0  0  0  0  0  0  0  0  0  0  0
  -25.1936  -14.5861   20.2007 C   0  0  0  0  0  0  0  0  0  0  0  0
  -29.2291  -25.1319   17.2235 C   0  0  0  0  0  0  0  0  0  0  0  0
  -26.8661  -25.5303   18.6391 C   0  0  0  0  0  0  0  0  0  0  0  0
  -23.1038  -28.9032   18.9758 C   0  0  0  0  0  0  0  0  0  0  0  0
  -26.1917  -12.5477   18.5785 C   0  0  0  0  0  0  0  0  0  0  0  0
  -25.2021  -13.2695   20.6611 C   0  0  0  0  0  0  0  0  0  0  0  0
  -21.8368  -28.4144   19.2912 C   0  0  0  0  0  0  0  0  0  0  0  0
  -24.6308  -10.0471   22.2448 C   0  0  0  0  0  0  0  0  0  0  0  0
  -23.4813   -9.5728   22.8767 C   0  0  0  0  0  0  0  0  0  0  0  0
  -22.1531  -29.0914   21.5848 C   0  0  0  0  0  0  0  0  0  0  0  0
  -20.9443  -25.7386   22.8890 C   0  0  0  0  0  0  0  0  0  0  0  0
  -22.2039   -9.9954   20.8700 C   0  0  0  0  0  0  0  0  0  0  0  0
  -25.6842  -14.8836   18.9293 C   0  0  0  0  0  0  0  0  0  0  0  0
  -24.6470  -16.8894   17.7423 C   0  0  0  0  0  0  0  0  0  0  0  0
  -29.2619  -25.8517   18.4283 C   0  0  0  0  0  0  0  0  0  0  0  0
  -23.9107  -29.4809   19.9666 C   0  0  0  0  0  0  0  0  0  0  0  0
  -28.0692  -26.0453   19.1511 C   0  0  0  0  0  0  0  0  0  0  0  0
  -23.4289  -29.5891   21.2790 C   0  0  0  0  0  0  0  0  0  0  0  0
  -20.8502  -25.7884   21.4763 C   0  0  0  0  0  0  0  0  0  0  0  0
  -25.7011  -12.2503   19.8499 C   0  0  0  0  0  0  0  0  0  0  0  0
  -21.3624  -28.5058   20.5964 C   0  0  0  0  0  0  0  0  0  0  0  0
  -24.5668  -10.4957   20.9256 C   0  0  0  0  0  0  0  0  0  0  0  0
  -22.2678   -9.5469   22.1893 C   0  0  0  0  0  0  0  0  0  0  0  0
  -23.3534  -10.4698   20.2382 C   0  0  0  0  0  0  0  0  0  0  0  0
  -25.6756  -16.2440   18.4545 C   0  0  0  0  0  0  0  0  0  0  0  0
  -21.9418  -24.8423   23.2035 C   0  0  0  0  0  0  0  0  0  0  0  0
  -21.7930  -24.9208   20.9705 C   0  0  0  0  0  0  0  0  0  0  0  0
  -25.1223  -18.1602   17.5287 C   0  0  0  0  0  0  0  0  0  0  0  0
  -23.3755  -16.3853   17.3124 C   0  0  0  0  0  0  0  0  0  0  0  0
  -26.7453  -28.7967   21.2319 C   0  0  0  0  0  0  0  0  0  0  0  0
  -26.3080  -31.6223   22.7639 C   0  0  0  0  0  0  0  0  0  0  0  0
  -24.1334  -33.9823   23.9249 C   0  0  0  0  0  0  0  0  0  0  0  0
  -29.1323  -21.5508   20.4054 C   0  0  0  0  0  0  0  0  0  0  0  0
  -30.5917  -26.3387   18.9470 C   0  0  0  0  0  0  0  0  0  0  0  0
  -25.2644  -30.0277   19.6046 C   0  0  0  0  0  0  0  0  0  0  0  0
  -24.2478  -30.2189   22.3750 C   0  0  0  0  0  0  0  0  0  0  0  0
  -30.4685  -27.3972   20.0400 C   0  0  0  0  0  0  0  0  0  0  0  0
  -29.2093  -20.5861   16.9790 C   0  0  0  0  0  0  0  0  0  0  0  0
  -29.4352  -26.9738   21.0792 C   0  0  0  0  0  0  0  0  0  0  0  0
  -28.2196  -19.4222   16.9044 C   0  0  0  0  0  0  0  0  0  0  0  0
  -29.9882  -20.5814   18.2925 C   0  0  0  0  0  0  0  0  0  0  0  0
  -28.1633  -19.3801   19.4330 C   0  0  0  0  0  0  0  0  0  0  0  0
  -28.0459  -26.8260   20.4472 C   0  0  1  0  0  0  0  0  0  0  0  0
  -26.2062  -30.1312   20.8003 C   0  0  1  0  0  0  0  0  0  0  0  0
  -27.3145  -19.3750   18.1501 C   0  0  2  0  0  0  0  0  0  0  0  0
  -22.4495  -24.4162   24.5238 C   0  0  0  0  0  0  0  0  0  0  0  0
  -22.1242  -24.5853   19.5691 C   0  0  0  0  0  0  0  0  0  0  0  0
  -18.4354  -26.3355   21.0152 C   0  0  0  0  0  0  0  0  0  0  0  0
  -24.0703  -36.1608   25.1690 C   0  0  0  0  0  0  0  0  0  0  0  0
  -26.8226  -30.1399   25.3808 C   0  0  0  0  0  0  0  0  0  0  0  0
  -25.8294  -32.0886   26.5991 C   0  0  0  0  0  0  0  0  0  0  0  0
  -27.8930  -32.3953   25.2315 C   0  0  0  0  0  0  0  0  0  0  0  0
  -22.8966  -35.3885   21.6332 C   0  0  0  0  0  0  0  0  0  0  0  0
  -23.5186  -23.3794   21.9249 C   0  0  0  0  0  0  0  0  0  0  0  0
  -28.1605  -22.4053   22.5231 C   0  0  0  0  0  0  0  0  0  0  0  0
  -24.8921  -23.9954   22.1549 C   0  0  0  0  0  0  0  0  0  0  0  0
  -27.1959  -23.5343   22.2072 C   0  0  0  0  0  0  0  0  0  0  0  0
  -19.8896  -26.6403   20.6786 C   0  0  1  0  0  0  0  0  0  1  0  0
  -25.6758  -32.0446   24.0681 C   0  0  1  0  0  0  0  0  0  0  0  0
  -24.1295  -35.4955   23.8028 C   0  0  2  0  0  0  0  0  0  0  0  0
  -26.5403  -31.6534   25.2999 C   0  0  0  0  0  0  0  0  0  0  0  0
  -26.7253  -17.0391   18.6783 N   0  0  0  0  0  0  0  0  0  0  0  0
  -22.4504  -24.3511   22.0295 N   0  0  0  0  0  0  0  0  0  0  0  0
  -26.3587  -18.1972   18.1033 N   0  0  0  0  0  0  0  0  0  0  0  0
  -25.5674  -30.7330   21.9725 N   0  0  0  0  0  0  0  0  0  0  0  0
  -29.0715  -20.5376   19.4344 N   0  0  0  0  0  0  0  0  0  0  0  0
  -24.5992  -19.2384   16.9073 N   0  0  0  0  0  0  0  0  0  0  0  0
  -23.0463  -15.0571   17.6154 N   0  0  0  0  0  0  0  0  0  0  0  0
  -27.4418  -28.1255   20.2450 N   0  0  0  0  0  0  0  0  0  0  0  0
  -25.4154  -33.4753   23.9511 N   0  0  0  0  0  0  0  0  0  0  0  0
  -28.2243  -21.4371   21.4510 N   0  0  0  0  0  0  0  0  0  0  0  0
  -22.9527  -35.9480   23.0082 N   0  3  0  0  0  0  0  0  0  0  0  0
  -22.5625  -17.0868   16.6640 O   0  0  0  0  0  0  0  0  0  0  0  0
  -26.5454  -28.4057   22.3759 O   0  0  0  0  0  0  0  0  0  0  0  0
  -27.4150  -32.0707   22.4553 O   0  0  0  0  0  0  0  0  0  0  0  0
  -23.1023  -33.3170   23.9942 O   0  0  0  0  0  0  0  0  0  0  0  0
  -29.9326  -22.4901   20.3422 O   0  0  0  0  0  0  0  0  0  0  0  0
  -25.7091  -10.9655   20.2994 O   0  0  0  0  0  0  0  0  0  0  0  0
  -20.1263  -28.0289   20.9071 O   0  0  0  0  0  0  0  0  0  1  0  0
  -25.8955  -23.0001   22.0004 O   0  0  0  0  0  0  0  0  0  0  0  0
  -21.1644   -9.0900   22.7957 F   0  0  0  0  0  0  0  0  0  0  0  0
  -23.2860  -10.8982   18.9702 F   0  0  0  0  0  0  0  0  0  0  0  0
  1  2  1  0  0  0  0
  1  5  2  0  0  0  0
  2  6  2  0  0  0  0
  3  8  2  0  0  0  0
  3 16  1  0  0  0  0
  4  9  1  0  0  0  0
  4 16  2  0  0  0  0
  5 18  1  0  0  0  0
  6 20  1  0  0  0  0
  7 10  2  0  0  0  0
  7 19  1  0  0  0  0
  8 23  1  0  0  0  0
  9 23  2  0  0  0  0
 10 24  1  0  0  0  0
 11 12  2  0  0  0  0
 11 25  1  0  0  0  0
 12 26  1  0  0  0  0
 13 21  1  0  0  0  0
 13 24  2  0  0  0  0
 14 22  1  0  0  0  0
 14 29  2  0  0  0  0
 15 26  2  0  0  0  0
 15 27  1  0  0  0  0
 16 28  1  0  0  0  0
 17 28  1  0  0  0  0
 17 31  2  0  0  0  0
 17 32  1  0  0  0  0
 18 20  2  0  0  0  0
 18 37  1  0  0  0  0
 19 21  2  0  0  0  0
 19 38  1  0  0  0  0
 20 46  1  0  0  0  0
 21 39  1  0  0  0  0
 22 30  2  0  0  0  0
 22 61  1  0  0  0  0
 23 81  1  0  0  0  0
 24 82  1  0  0  0  0
 25 27  2  0  0  0  0
 25 81  1  0  0  0  0
 26 84  1  0  0  0  0
 27 85  1  0  0  0  0
 28 65  2  0  0  0  0
 29 49  1  0  0  0  0
 29 66  1  0  0  0  0
 30 50  1  0  0  0  0
 30 66  1  0  0  0  0
 31 67  1  0  0  0  0
 31 70  1  0  0  0  0
 32 71  1  0  0  0  0
 32 76  2  0  0  0  0
 33 47  1  0  0  0  0
 33 72  1  0  0  0  0
 33 77  2  0  0  0  0
 34 62  1  0  0  0  0
 34 68  1  0  0  0  0
 34 78  2  0  0  0  0
 35 63  1  0  0  0  0
 35 73  1  0  0  0  0
 35 79  2  0  0  0  0
 36 69  1  0  0  0  0
 36 74  1  0  0  0  0
 36 80  2  0  0  0  0
 37 40  1  0  0  0  0
 38 47  1  0  0  0  0
 39 68  1  0  0  0  0
 40 42  1  0  0  0  0
 41 43  1  0  0  0  0
 41 44  1  0  0  0  0
 42 46  1  0  0  0  0
 43 48  1  0  0  0  0
 44 69  1  0  0  0  0
 45 48  1  0  0  0  0
 45 69  1  0  0  0  0
 46 72  1  0  0  0  0
 47 68  1  0  0  0  0
 48 67  1  0  0  0  0
 51 61  1  0  0  0  0
 52 63  1  0  0  0  0
 53 64  1  0  0  0  0
 54 64  1  0  0  0  0
 55 64  1  0  0  0  0
 56 75  1  0  0  0  0
 57 59  1  0  0  0  0
 57 66  1  0  0  0  0
 58 60  1  0  0  0  0
 58 74  1  0  0  0  0
 59 83  1  0  0  0  0
 60 83  1  0  0  0  0
 61 82  1  0  0  0  0
 62 64  1  0  0  0  0
 62 73  1  0  0  0  0
 63 75  1  0  0  0  0
 65 67  1  0  0  0  0
M  CHG  1  75   1
M  ISO  4  36 100  61 101  74 100  82 101
M  END
> <Batch ID>
0118

> <Smiles>
CNC(C)C(=O)NC(C(=O)N1Cc2cc([101O:1][101CH:1](C)c3cc(C)n(CCOCC[100NH:0][100C:0](=O)N4CCCC(n5nc(-c6ccc(Oc7ccc(F)cc7F)cc6)c(C(N)=O)c5N)C4)c3C)ccc2CC1C(=O)NC1CCCc2ccccc21)C(C)(C)C

> <Shape>
0.307

> <Color>
0.077

> <Negative vol penalty>
0.000

$$$$

  -OEChem-04052320183D

 80 88  0     1  0  0  0  0  0999 V2000
  -34.5153  -29.7437   27.2443 C   0  0  0  0  0  0  0  0  0  0  0  0
  -33.7720  -28.6321   26.8604 C   0  0  0  0  0  0  0  0  0  0  0  0
  -23.0751   -9.8664   19.9407 C   0  0  0  0  0  0  0  0  0  0  0  0
  -23.8394   -9.8721   22.2326 C   0  0  0  0  0  0  0  0  0  0  0  0
  -34.4685  -30.9096   26.4812 C   0  0  0  0  0  0  0  0  0  0  0  0
  -32.9806  -28.6863   25.7136 C   0  0  0  0  0  0  0  0  0  0  0  0
  -33.4511  -24.5491   22.8313 C   0  0  0  0  0  0  0  0  0  0  0  0
  -22.3335   -8.7119   20.1909 C   0  0  0  0  0  0  0  0  0  0  0  0
  -23.0977   -8.7176   22.4828 C   0  0  0  0  0  0  0  0  0  0  0  0
  -32.7661  -23.4061   23.2414 C   0  0  0  0  0  0  0  0  0  0  0  0
  -19.8719   -7.9143   23.0907 C   0  0  0  0  0  0  0  0  0  0  0  0
  -19.1172   -7.8720   24.2630 C   0  0  0  0  0  0  0  0  0  0  0  0
  -31.0300  -23.8774   21.6342 C   0  0  0  0  0  0  0  0  0  0  0  0
  -20.3629   -5.9357   24.9950 C   0  0  0  0  0  0  0  0  0  0  0  0
  -23.8281  -10.4465   20.9616 C   0  0  0  0  0  0  0  0  0  0  0  0
  -24.1659  -12.9723   20.8436 C   0  0  0  0  0  0  0  0  0  0  0  0
  -33.6836  -30.9749   25.3192 C   0  0  0  0  0  0  0  0  0  0  0  0
  -32.9245  -25.3721   21.8255 C   0  0  0  0  0  0  0  0  0  0  0  0
  -32.9222  -29.8546   24.9349 C   0  0  0  0  0  0  0  0  0  0  0  0
  -31.7116  -25.0288   21.2114 C   0  0  0  0  0  0  0  0  0  0  0  0
  -22.3447   -8.1375   21.4619 C   0  0  0  0  0  0  0  0  0  0  0  0
  -31.5539  -23.0717   22.6448 C   0  0  0  0  0  0  0  0  0  0  0  0
  -20.8720   -6.9672   22.8705 C   0  0  0  0  0  0  0  0  0  0  0  0
  -19.3627   -6.8827   25.2151 C   0  0  0  0  0  0  0  0  0  0  0  0
  -21.1176   -5.9779   23.8226 C   0  0  0  0  0  0  0  0  0  0  0  0
  -24.5949  -11.6388   20.7036 C   0  0  0  0  0  0  0  0  0  0  0  0
  -25.2563  -13.7238   20.4790 C   0  0  0  0  0  0  0  0  0  0  0  0
  -22.8955  -13.4858   21.2654 C   0  0  0  0  0  0  0  0  0  0  0  0
  -31.9607  -28.3975   21.6783 C   0  0  0  0  0  0  0  0  0  0  0  0
  -31.6645  -27.7414   18.5154 C   0  0  0  0  0  0  0  0  0  0  0  0
  -31.2348  -25.3999   16.0701 C   0  0  0  0  0  0  0  0  0  0  0  0
  -30.7388  -14.7509   20.6580 C   0  0  0  0  0  0  0  0  0  0  0  0
  -33.6281  -32.2726   24.5527 C   0  0  0  0  0  0  0  0  0  0  0  0
  -33.6889  -26.5870   21.3759 C   0  0  0  0  0  0  0  0  0  0  0  0
  -31.1134  -25.8680   20.1130 C   0  0  0  0  0  0  0  0  0  0  0  0
  -33.0568  -32.1244   23.1448 C   0  0  0  0  0  0  0  0  0  0  0  0
  -29.6003  -12.3672   18.2709 C   0  0  0  0  0  0  0  0  0  0  0  0
  -31.7850  -31.2827   23.1706 C   0  0  0  0  0  0  0  0  0  0  0  0
  -30.7084  -19.4226   21.6988 C   0  0  0  0  0  0  0  0  0  0  0  0
  -28.1641  -12.0708   18.7062 C   0  0  0  0  0  0  0  0  0  0  0  0
  -30.0330  -18.1025   21.3378 C   0  0  0  0  0  0  0  0  0  0  0  0
  -31.6914  -18.3586   23.7671 C   0  0  0  0  0  0  0  0  0  0  0  0
  -30.5193  -12.5881   19.4702 C   0  0  0  0  0  0  0  0  0  0  0  0
  -28.6191  -13.3149   20.8612 C   0  0  0  0  0  0  0  0  0  0  0  0
  -32.0711  -29.8663   23.6837 C   0  0  1  0  0  0  0  0  0  0  0  0
  -32.8064  -27.6320   20.7003 C   0  0  1  0  0  0  0  0  0  0  0  0
  -30.9178  -19.5635   23.2096 C   0  0  1  0  0  0  0  0  0  0  0  0
  -27.6430  -13.1401   19.6853 C   0  0  2  0  0  0  0  0  0  0  0  0
  -30.8038  -16.9002   21.8970 C   0  0  1  0  0  0  0  0  0  0  0  0
  -31.0399  -16.9911   23.4328 C   0  0  0  0  0  0  0  0  0  0  0  0
  -29.7288  -16.8232   24.2302 C   0  0  0  0  0  0  0  0  0  0  0  0
  -32.0155  -15.8847   23.8925 C   0  0  0  0  0  0  0  0  0  0  0  0
  -30.9935  -25.1707   13.5828 C   0  0  0  0  0  0  0  0  0  0  0  0
  -28.7897  -28.7465   18.7040 C   0  0  0  0  0  0  0  0  0  0  0  0
  -28.3296  -27.6315   16.5102 C   0  0  0  0  0  0  0  0  0  0  0  0
  -30.0137  -29.4667   16.6455 C   0  0  0  0  0  0  0  0  0  0  0  0
  -33.6708  -23.7311   15.8710 C   0  0  0  0  0  0  0  0  0  0  0  0
  -31.6528  -20.8658   23.5282 C   0  0  0  0  0  0  0  0  0  1  0  0
  -30.5629  -27.2052   17.6334 C   0  0  1  0  0  0  0  0  0  0  0  0
  -31.9604  -25.1703   14.7566 C   0  0  2  0  0  0  0  0  0  0  0  0
  -29.4340  -28.2475   17.3953 C   0  0  0  0  0  0  0  0  0  0  0  0
  -25.8591  -11.5453   20.2828 N   0  0  0  0  0  0  0  0  0  0  0  0
  -26.2339  -12.8296   20.1551 N   0  0  0  0  0  0  0  0  0  0  0  0
  -31.8955  -27.0494   19.7128 N   0  0  0  0  0  0  0  0  0  0  0  0
  -29.9689  -13.6149   20.3583 N   0  0  0  0  0  0  0  0  0  0  0  0
  -25.4645  -15.0557   20.4070 N   0  0  0  0  0  0  0  0  0  0  0  0
  -21.8856  -12.5747   21.6037 N   0  0  0  0  0  0  0  0  0  0  0  0
  -32.6858  -29.0672   22.6454 N   0  0  0  0  0  0  0  0  0  0  0  0
  -31.2094  -26.7352   16.4130 N   0  0  0  0  0  0  0  0  0  0  0  0
  -30.1399  -15.6779   21.5021 N   0  0  0  0  0  0  0  0  0  0  0  0
  -32.6713  -23.8607   14.7796 N   0  3  0  0  0  0  0  0  0  0  0  0
  -22.6575  -14.7160   21.3245 O   0  0  0  0  0  0  0  0  0  0  0  0
  -30.7408  -28.3830   21.5632 O   0  0  0  0  0  0  0  0  0  0  0  0
  -32.3014  -28.7333   18.1519 O   0  0  0  0  0  0  0  0  0  0  0  0
  -30.7368  -24.4865   16.7245 O   0  0  0  0  0  0  0  0  0  0  0  0
  -31.8736  -14.9285   20.2024 O   0  0  0  0  0  0  0  0  0  0  0  0
  -21.6209   -7.0110   21.7065 O   0  0  0  0  0  0  0  0  0  0  0  0
  -30.8766  -21.9465   23.0474 O   0  0  0  0  0  0  0  0  0  1  0  0
  -18.6390   -6.8431   26.3416 F   0  0  0  0  0  0  0  0  0  0  0  0
  -22.0779   -5.0661   23.6172 F   0  0  0  0  0  0  0  0  0  0  0  0
  1  2  1  0  0  0  0
  1  5  2  0  0  0  0
  2  6  2  0  0  0  0
  3  8  2  0  0  0  0
  3 15  1  0  0  0  0
  4  9  1  0  0  0  0
  4 15  2  0  0  0  0
  5 17  1  0  0  0  0
  6 19  1  0  0  0  0
  7 10  2  0  0  0  0
  7 18  1  0  0  0  0
  8 21  1  0  0  0  0
  9 21  2  0  0  0  0
 10 22  1  0  0  0  0
 11 12  2  0  0  0  0
 11 23  1  0  0  0  0
 12 24  1  0  0  0  0
 13 20  1  0  0  0  0
 13 22  2  0  0  0  0
 14 24  2  0  0  0  0
 14 25  1  0  0  0  0
 15 26  1  0  0  0  0
 16 26  1  0  0  0  0
 16 27  2  0  0  0  0
 16 28  1  0  0  0  0
 17 19  2  0  0  0  0
 17 33  1  0  0  0  0
 18 20  2  0  0  0  0
 18 34  1  0  0  0  0
 19 45  1  0  0  0  0
 20 35  1  0  0  0  0
 21 77  1  0  0  0  0
 22 78  1  0  0  0  0
 23 25  2  0  0  0  0
 23 77  1  0  0  0  0
 24 79  1  0  0  0  0
 25 80  1  0  0  0  0
 26 62  2  0  0  0  0
 27 63  1  0  0  0  0
 27 66  1  0  0  0  0
 28 67  1  0  0  0  0
 28 72  2  0  0  0  0
 29 46  1  0  0  0  0
 29 68  1  0  0  0  0
 29 73  2  0  0  0  0
 30 59  1  0  0  0  0
 30 64  1  0  0  0  0
 30 74  2  0  0  0  0
 31 60  1  0  0  0  0
 31 69  1  0  0  0  0
 31 75  2  0  0  0  0
 32 65  1  0  0  0  0
 32 70  1  0  0  0  0
 32 76  2  0  0  0  0
 33 36  1  0  0  0  0
 34 46  1  0  0  0  0
 35 64  1  0  0  0  0
 36 38  1  0  0  0  0
 37 40  1  0  0  0  0
 37 43  1  0  0  0  0
 38 45  1  0  0  0  0
 39 41  1  0  0  0  0
 39 47  1  0  0  0  0
 40 48  1  0  0  0  0
 41 49  1  0  0  0  0
 42 47  1  0  0  0  0
 42 50  1  0  0  0  0
 43 65  1  0  0  0  0
 44 48  1  0  0  0  0
 44 65  1  0  0  0  0
 45 68  1  0  0  0  0
 46 64  1  0  0  0  0
 47 58  1  0  0  0  0
 48 63  1  0  0  0  0
 49 50  1  0  0  0  0
 49 70  1  0  0  0  0
 50 51  1  0  0  0  0
 50 52  1  0  0  0  0
 53 60  1  0  0  0  0
 54 61  1  0  0  0  0
 55 61  1  0  0  0  0
 56 61  1  0  0  0  0
 57 71  1  0  0  0  0
 58 78  1  0  0  0  0
 59 61  1  0  0  0  0
 59 69  1  0  0  0  0
 60 71  1  0  0  0  0
 62 63  1  0  0  0  0
M  CHG  1  71   1
M  ISO  4  32 100  58 101  70 100  78 101
M  END
> <Batch ID>
0118

> <Smiles>
CNC(C)C(=O)NC(C(=O)N1Cc2cc([101O:1][101CH2:1]C3CCC([100NH:0][100C:0](=O)N4CCCC(n5nc(-c6ccc(Oc7ccc(F)cc7F)cc6)c(C(N)=O)c5N)C4)C(C)(C)C3)ccc2CC1C(=O)NC1CCCc2ccccc21)C(C)(C)C

> <Shape>
0.212

> <Color>
0.196

> <Negative vol penalty>
0.000

$$$$

  -OEChem-04052320182D

  0  0  0     0  0  0  0  0  0999 V2000
M  END
$$$$

  -OEChem-04052320183D

 88 97  0     1  0  0  0  0  0999 V2000
  -21.7890  -12.2007   21.3382 C   0  0  0  0  0  0  0  0  0  0  0  0
  -21.9265  -13.4953   21.8287 C   0  0  0  0  0  0  0  0  0  0  0  0
  -17.3377  -28.4221   22.3395 C   0  0  0  0  0  0  0  0  0  0  0  0
  -29.1882  -27.3710   24.6561 C   0  0  0  0  0  0  0  0  0  0  0  0
  -27.3597  -25.8083   24.8824 C   0  0  0  0  0  0  0  0  0  0  0  0
  -22.8962  -11.5329   20.8165 C   0  0  0  0  0  0  0  0  0  0  0  0
  -23.1716  -14.1224   21.7988 C   0  0  0  0  0  0  0  0  0  0  0  0
  -18.3296  -27.4920   22.6299 C   0  0  0  0  0  0  0  0  0  0  0  0
  -22.8979  -18.9077   20.1646 C   0  0  0  0  0  0  0  0  0  0  0  0
  -29.7952  -26.8246   25.7869 C   0  0  0  0  0  0  0  0  0  0  0  0
  -27.9666  -25.2618   26.0131 C   0  0  0  0  0  0  0  0  0  0  0  0
  -22.4454  -19.8653   21.0713 C   0  0  0  0  0  0  0  0  0  0  0  0
  -28.2959  -26.0417   29.2864 C   0  0  0  0  0  0  0  0  0  0  0  0
  -27.4913  -25.7959   30.3989 C   0  0  0  0  0  0  0  0  0  0  0  0
  -24.7247  -20.5309   21.4966 C   0  0  0  0  0  0  0  0  0  0  0  0
  -28.0497  -23.4481   30.2841 C   0  0  0  0  0  0  0  0  0  0  0  0
  -17.7226  -29.7364   22.1289 C   0  0  0  0  0  0  0  0  0  0  0  0
  -27.9704  -26.8629   24.2039 C   0  0  0  0  0  0  0  0  0  0  0  0
  -27.5195  -27.0264   21.6984 C   0  0  0  0  0  0  0  0  0  0  0  0
  -24.1534  -12.1557   20.7713 C   0  0  0  0  0  0  0  0  0  0  0  0
  -24.2701  -18.7469   19.9248 C   0  0  0  0  0  0  0  0  0  0  0  0
  -24.2969  -13.4618   21.2773 C   0  0  0  0  0  0  0  0  0  0  0  0
  -19.6573  -27.8988   22.6997 C   0  0  0  0  0  0  0  0  0  0  0  0
  -25.1919  -19.5723   20.5845 C   0  0  0  0  0  0  0  0  0  0  0  0
  -29.1844  -25.7700   26.4654 C   0  0  0  0  0  0  0  0  0  0  0  0
  -23.3590  -20.6751   21.7396 C   0  0  0  0  0  0  0  0  0  0  0  0
  -28.9774  -24.9906   28.6726 C   0  0  0  0  0  0  0  0  0  0  0  0
  -27.3682  -24.4991   30.8978 C   0  0  0  0  0  0  0  0  0  0  0  0
  -28.8543  -23.6939   29.1715 C   0  0  0  0  0  0  0  0  0  0  0  0
  -27.3427  -27.4273   23.0362 C   0  0  0  0  0  0  0  0  0  0  0  0
  -19.9385  -29.2364   22.4728 C   0  0  0  0  0  0  0  0  0  0  0  0
  -26.7091  -27.8690   20.9774 C   0  0  0  0  0  0  0  0  0  0  0  0
  -28.3427  -25.9854   21.1558 C   0  0  0  0  0  0  0  0  0  0  0  0
  -26.3527  -16.3773   20.3145 C   0  0  0  0  0  0  0  0  0  0  0  0
  -28.3632  -18.4140   18.7874 C   0  0  0  0  0  0  0  0  0  0  0  0
  -29.1474  -21.6290   17.9536 C   0  0  0  0  0  0  0  0  0  0  0  0
  -21.7780  -30.9530   22.3479 C   0  0  0  0  0  0  0  0  0  0  0  0
  -25.3310  -11.3764   20.2415 C   0  0  0  0  0  0  0  0  0  0  0  0
  -24.7406  -17.7275   18.9238 C   0  0  0  0  0  0  0  0  0  0  0  0
  -26.6745  -19.4533   20.3473 C   0  0  0  0  0  0  0  0  0  0  0  0
  -26.5365  -12.2495   19.9026 C   0  0  0  0  0  0  0  0  0  0  0  0
  -24.8379  -32.2757   21.0969 C   0  0  0  0  0  0  0  0  0  0  0  0
  -26.8139  -13.2378   21.0309 C   0  0  0  0  0  0  0  0  0  0  0  0
  -25.8423  -31.1437   21.3249 C   0  0  0  0  0  0  0  0  0  0  0  0
  -20.9620  -26.8332   24.5299 C   0  0  0  0  0  0  0  0  0  0  0  0
  -20.3236  -25.5132   22.4715 C   0  0  0  0  0  0  0  0  0  0  0  0
  -23.8185  -32.3664   22.2311 C   0  0  0  0  0  0  0  0  0  0  0  0
  -24.1223  -29.9809   22.7660 C   0  0  0  0  0  0  0  0  0  0  0  0
  -21.9822  -25.7606   24.8895 C   0  0  0  0  0  0  0  0  0  0  0  0
  -21.3489  -24.4509   22.8467 C   0  0  0  0  0  0  0  0  0  0  0  0
  -20.7206  -26.8960   23.0130 C   0  0  0  0  0  0  0  0  0  0  0  0
  -25.6258  -14.1848   21.2394 C   0  0  1  0  0  0  0  0  0  0  0  0
  -26.1892  -17.3012   19.1409 C   0  0  1  0  0  0  0  0  0  0  0  0
  -25.1299  -29.8086   21.6176 C   0  0  2  0  0  0  0  0  0  0  0  0
  -30.8706  -22.9825   16.7306 C   0  0  0  0  0  0  0  0  0  0  0  0
  -30.2967  -18.0561   21.1205 C   0  0  0  0  0  0  0  0  0  0  0  0
  -31.5144  -20.0972   20.3336 C   0  0  0  0  0  0  0  0  0  0  0  0
  -31.3772  -18.0853   18.8653 C   0  0  0  0  0  0  0  0  0  0  0  0
  -20.2810  -22.0367   25.2565 C   0  0  0  0  0  0  0  0  0  0  0  0
  -22.5107  -20.9928   25.6817 C   0  0  0  0  0  0  0  0  0  0  0  0
  -27.1436  -22.6618   16.0361 C   0  0  0  0  0  0  0  0  0  0  0  0
  -22.4306  -23.3107   24.7818 C   0  0  0  0  0  0  0  0  0  0  0  0
  -21.7067  -21.3267   23.3211 C   0  0  0  0  0  0  0  0  0  1  0  0
  -29.3143  -19.5031   19.2212 C   0  0  1  0  0  0  0  0  0  0  0  0
  -29.5365  -22.2598   16.6288 C   0  0  2  0  0  0  0  0  0  0  0  0
  -30.5979  -18.9366   19.8913 C   0  0  0  0  0  0  0  0  0  0  0  0
  -21.7286  -21.9342   24.7413 C   0  0  0  0  0  0  0  0  0  0  0  0
  -19.0020  -30.1691   22.1883 N   0  0  0  0  0  0  0  0  0  0  0  0
  -26.4873  -28.4455   23.1606 N   0  0  0  0  0  0  0  0  0  0  0  0
  -26.1194  -28.6916   21.8916 N   0  0  0  0  0  0  0  0  0  0  0  0
  -27.0854  -18.4376   19.3640 N   0  0  0  0  0  0  0  0  0  0  0  0
  -23.1808  -31.0661   22.4486 N   0  0  0  0  0  0  0  0  0  0  0  0
  -26.4506  -27.9792   19.6570 N   0  0  0  0  0  0  0  0  0  0  0  0
  -29.1120  -25.2140   22.0375 N   0  0  0  0  0  0  0  0  0  0  0  0
  -21.2882  -29.6620   22.5424 N   0  0  0  0  0  0  0  0  0  0  0  0
  -25.6143  -15.2130   20.2210 N   0  0  0  0  0  0  0  0  0  0  0  0
  -29.5679  -20.3186   18.0384 N   0  0  0  0  0  0  0  0  0  0  0  0
  -21.5361  -24.4131   24.3524 N   0  3  0  0  0  0  0  0  0  0  0  0
  -28.5014  -23.2421   16.1990 N   0  3  0  0  0  0  0  0  0  0  0  0
  -28.4070  -25.7570   19.9241 O   0  0  0  0  0  0  0  0  0  0  0  0
  -27.0949  -16.6964   21.2359 O   0  0  0  0  0  0  0  0  0  0  0  0
  -28.7377  -17.5775   17.9618 O   0  0  0  0  0  0  0  0  0  0  0  0
  -28.5353  -22.2390   18.8275 O   0  0  0  0  0  0  0  0  0  0  0  0
  -21.0662  -31.9244   22.0801 O   0  0  0  0  0  0  0  0  0  0  0  0
  -29.7765  -25.2364   27.5687 O   0  0  0  0  0  0  0  0  0  0  0  0
  -22.9201  -21.6101   22.6256 O   0  0  0  0  0  0  0  0  0  1  0  0
  -26.5967  -24.2635   31.9671 F   0  0  0  0  0  0  0  0  0  0  0  0
  -29.5074  -22.6803   28.5869 F   0  0  0  0  0  0  0  0  0  0  0  0
  1  2  1  0  0  0  0
  1  6  2  0  0  0  0
  2  7  2  0  0  0  0
  3  8  2  0  0  0  0
  3 17  1  0  0  0  0
  4 10  2  0  0  0  0
  4 18  1  0  0  0  0
  5 11  1  0  0  0  0
  5 18  2  0  0  0  0
  6 20  1  0  0  0  0
  7 22  1  0  0  0  0
  8 23  1  0  0  0  0
  9 12  2  0  0  0  0
  9 21  1  0  0  0  0
 10 25  1  0  0  0  0
 11 25  2  0  0  0  0
 12 26  1  0  0  0  0
 13 14  2  0  0  0  0
 13 27  1  0  0  0  0
 14 28  1  0  0  0  0
 15 24  1  0  0  0  0
 15 26  2  0  0  0  0
 16 28  2  0  0  0  0
 16 29  1  0  0  0  0
 17 68  2  0  0  0  0
 18 30  1  0  0  0  0
 19 30  1  0  0  0  0
 19 32  2  0  0  0  0
 19 33  1  0  0  0  0
 20 22  2  0  0  0  0
 20 38  1  0  0  0  0
 21 24  2  0  0  0  0
 21 39  1  0  0  0  0
 22 52  1  0  0  0  0
 23 31  2  0  0  0  0
 23 51  1  0  0  0  0
 24 40  1  0  0  0  0
 25 85  1  0  0  0  0
 26 86  1  0  0  0  0
 27 29  2  0  0  0  0
 27 85  1  0  0  0  0
 28 87  1  0  0  0  0
 29 88  1  0  0  0  0
 30 69  2  0  0  0  0
 31 68  1  0  0  0  0
 31 75  1  0  0  0  0
 32 70  1  0  0  0  0
 32 73  1  0  0  0  0
 33 74  1  0  0  0  0
 33 80  2  0  0  0  0
 34 53  1  0  0  0  0
 34 76  1  0  0  0  0
 34 81  2  0  0  0  0
 35 64  1  0  0  0  0
 35 71  1  0  0  0  0
 35 82  2  0  0  0  0
 36 65  1  0  0  0  0
 36 77  1  0  0  0  0
 36 83  2  0  0  0  0
 37 72  1  0  0  0  0
 37 75  1  0  0  0  0
 37 84  2  0  0  0  0
 38 41  1  0  0  0  0
 39 53  1  0  0  0  0
 40 71  1  0  0  0  0
 41 43  1  0  0  0  0
 42 44  1  0  0  0  0
 42 47  1  0  0  0  0
 43 52  1  0  0  0  0
 44 54  1  0  0  0  0
 45 49  1  0  0  0  0
 45 51  1  0  0  0  0
 46 50  1  0  0  0  0
 46 51  1  0  0  0  0
 47 72  1  0  0  0  0
 48 54  1  0  0  0  0
 48 72  1  0  0  0  0
 49 78  1  0  0  0  0
 50 78  1  0  0  0  0
 52 76  1  0  0  0  0
 53 71  1  0  0  0  0
 54 70  1  0  0  0  0
 55 65  1  0  0  0  0
 56 66  1  0  0  0  0
 57 66  1  0  0  0  0
 58 66  1  0  0  0  0
 59 67  1  0  0  0  0
 60 67  1  0  0  0  0
 61 79  1  0  0  0  0
 62 67  1  0  0  0  0
 62 78  1  0  0  0  0
 63 67  1  0  0  0  0
 63 86  1  0  0  0  0
 64 66  1  0  0  0  0
 64 77  1  0  0  0  0
 65 79  1  0  0  0  0
 69 70  1  0  0  0  0
M  CHG  2  78   1  79   1
M  ISO  4  37 100  63 101  75 100  86 101
M  END
> <Batch ID>
0118

> <Smiles>
CNC(C)C(=O)NC(C(=O)N1Cc2cc([101O:1][101CH2:1]C(C)(C)CN3CCC(c4cccnc4[100NH:0][100C:0](=O)N4CCCC(n5nc(-c6ccc(Oc7ccc(F)cc7F)cc6)c(C(N)=O)c5N)C4)CC3)ccc2CC1C(=O)NC1CCCc2ccccc21)C(C)(C)C

> <Shape>
0.211

> <Color>
0.073

> <Negative vol penalty>
0.000

$$$$

  -OEChem-04052320183D

 84 93  0     1  0  0  0  0  0999 V2000
  -16.2039  -29.6683   22.8286 C   0  0  0  0  0  0  0  0  0  0  0  0
  -17.1604  -30.3169   22.0541 C   0  0  0  0  0  0  0  0  0  0  0  0
  -22.6952  -14.2651   21.6286 C   0  0  0  0  0  0  0  0  0  0  0  0
  -23.8988  -13.2750   19.7824 C   0  0  0  0  0  0  0  0  0  0  0  0
  -16.5536  -29.1460   24.0731 C   0  0  0  0  0  0  0  0  0  0  0  0
  -18.4670  -30.4444   22.5241 C   0  0  0  0  0  0  0  0  0  0  0  0
  -25.1993  -28.2026   19.2564 C   0  0  0  0  0  0  0  0  0  0  0  0
  -30.4704  -24.4383   20.6059 C   0  0  0  0  0  0  0  0  0  0  0  0
  -21.9749  -13.0821   21.7935 C   0  0  0  0  0  0  0  0  0  0  0  0
  -23.1785  -12.0919   19.9473 C   0  0  0  0  0  0  0  0  0  0  0  0
  -26.4407  -27.7109   18.8524 C   0  0  0  0  0  0  0  0  0  0  0  0
  -23.2326   -9.4108   22.0038 C   0  0  0  0  0  0  0  0  0  0  0  0
  -23.9429   -8.2109   21.9675 C   0  0  0  0  0  0  0  0  0  0  0  0
  -30.3919  -23.6222   21.7266 C   0  0  0  0  0  0  0  0  0  0  0  0
  -27.1662  -27.6186   21.1574 C   0  0  0  0  0  0  0  0  0  0  0  0
  -22.6238   -7.4871   20.0772 C   0  0  0  0  0  0  0  0  0  0  0  0
  -23.6571  -14.3616   20.6230 C   0  0  0  0  0  0  0  0  0  0  0  0
  -23.8837  -16.8605   20.1632 C   0  0  0  0  0  0  0  0  0  0  0  0
  -17.8675  -29.2587   24.5545 C   0  0  0  0  0  0  0  0  0  0  0  0
  -24.9308  -28.3897   20.6152 C   0  0  0  0  0  0  0  0  0  0  0  0
  -18.8343  -29.9243   23.7768 C   0  0  0  0  0  0  0  0  0  0  0  0
  -29.6543  -24.2128   19.4835 C   0  0  0  0  0  0  0  0  0  0  0  0
  -25.9201  -28.0990   21.5689 C   0  0  0  0  0  0  0  0  0  0  0  0
  -22.2165  -11.9955   20.9529 C   0  0  0  0  0  0  0  0  0  0  0  0
  -27.4218  -27.4200   19.8006 C   0  0  0  0  0  0  0  0  0  0  0  0
  -22.2178   -9.6488   21.0768 C   0  0  0  0  0  0  0  0  0  0  0  0
  -23.6385   -7.2491   21.0042 C   0  0  0  0  0  0  0  0  0  0  0  0
  -21.9134   -8.6870   20.1135 C   0  0  0  0  0  0  0  0  0  0  0  0
  -24.4012  -15.5836   20.4519 C   0  0  0  0  0  0  0  0  0  0  0  0
  -28.7593  -23.1397   19.5575 C   0  0  0  0  0  0  0  0  0  0  0  0
  -29.4835  -22.5873   21.6978 C   0  0  0  0  0  0  0  0  0  0  0  0
  -24.9894  -17.6731   20.1013 C   0  0  0  0  0  0  0  0  0  0  0  0
  -22.5251  -17.2752   19.9684 C   0  0  0  0  0  0  0  0  0  0  0  0
  -22.4579  -29.4527   23.2287 C   0  0  0  0  0  0  0  0  0  0  0  0
  -23.9032  -26.9783   24.3235 C   0  0  0  0  0  0  0  0  0  0  0  0
  -25.4272  -23.9983   24.9828 C   0  0  0  0  0  0  0  0  0  0  0  0
  -29.8995  -19.3733   22.1372 C   0  0  0  0  0  0  0  0  0  0  0  0
  -18.1867  -28.7198   25.9264 C   0  0  0  0  0  0  0  0  0  0  0  0
  -23.6294  -28.9752   21.0918 C   0  0  0  0  0  0  0  0  0  0  0  0
  -25.5990  -28.3487   23.0172 C   0  0  0  0  0  0  0  0  0  0  0  0
  -27.7965  -22.7910   18.4556 C   0  0  0  0  0  0  0  0  0  0  0  0
  -19.6830  -28.5678   26.1882 C   0  0  0  0  0  0  0  0  0  0  0  0
  -28.4635  -22.4384   17.1317 C   0  0  0  0  0  0  0  0  0  0  0  0
  -28.9230  -23.6554   16.3367 C   0  0  0  0  0  0  0  0  0  0  0  0
  -29.9152  -16.5277   19.9974 C   0  0  0  0  0  0  0  0  0  0  0  0
  -30.0848  -24.4130   16.9718 C   0  0  0  0  0  0  0  0  0  0  0  0
  -20.4321  -29.8212   25.7472 C   0  0  0  0  0  0  0  0  0  0  0  0
  -28.4408  -16.1304   19.9063 C   0  0  0  0  0  0  0  0  0  0  0  0
  -30.2762  -17.0420   21.3892 C   0  0  0  0  0  0  0  0  0  0  0  0
  -27.9475  -17.7397   21.7946 C   0  0  0  0  0  0  0  0  0  0  0  0
  -29.7977  -25.1415   18.2957 C   0  0  1  0  0  0  0  0  0  0  0  0
  -20.2681  -30.0609   24.2415 C   0  0  1  0  0  0  0  0  0  0  0  0
  -23.1608  -28.3901   22.4361 C   0  0  1  0  0  0  0  0  0  0  0  0
  -27.5226  -17.2673   20.3937 C   0  0  2  0  0  0  0  0  0  0  0  0
  -25.5712  -22.2038   26.7310 C   0  0  0  0  0  0  0  0  0  0  0  0
  -25.6644  -28.7897   26.0325 C   0  0  0  0  0  0  0  0  0  0  0  0
  -26.5217  -26.7432   27.1922 C   0  0  0  0  0  0  0  0  0  0  0  0
  -24.1010  -27.3300   27.3284 C   0  0  0  0  0  0  0  0  0  0  0  0
  -24.4046  -21.9391   23.1192 C   0  0  0  0  0  0  0  0  0  0  0  0
  -29.3616  -21.6807   22.8759 C   0  0  0  0  0  0  0  0  0  0  0  0
  -28.6514  -26.1522   18.2073 C   0  0  0  0  0  0  0  0  0  1  0  0
  -25.0409  -26.4428   25.1555 C   0  0  1  0  0  0  0  0  0  0  0  0
  -24.8742  -22.6681   25.4616 C   0  0  2  0  0  0  0  0  0  0  0  0
  -25.3342  -27.3290   26.3989 C   0  0  0  0  0  0  0  0  0  0  0  0
  -25.7320  -15.5801   20.5654 N   0  0  0  0  0  0  0  0  0  0  0  0
  -28.6728  -22.3316   20.6503 N   0  0  0  0  0  0  0  0  0  0  0  0
  -26.0602  -16.8648   20.3468 N   0  0  0  0  0  0  0  0  0  0  0  0
  -24.2326  -27.8917   23.3148 N   0  0  0  0  0  0  0  0  0  0  0  0
  -29.3689  -18.1196   21.7911 N   0  0  0  0  0  0  0  0  0  0  0  0
  -25.1403  -18.9929   19.8613 N   0  0  0  0  0  0  0  0  0  0  0  0
  -21.9943  -17.2373   18.6719 N   0  0  0  0  0  0  0  0  0  0  0  0
  -21.1304  -29.1730   23.4914 N   0  0  0  0  0  0  0  0  0  0  0  0
  -24.6985  -25.0609   25.4740 N   0  0  0  0  0  0  0  0  0  0  0  0
  -28.9701  -20.3405   22.4999 N   0  0  0  0  0  0  0  0  0  0  0  0
  -25.0591  -21.6234   24.4150 N   0  3  0  0  0  0  0  0  0  0  0  0
  -21.8084  -17.6833   20.9136 O   0  0  0  0  0  0  0  0  0  0  0  0
  -23.0739  -30.4527   23.5781 O   0  0  0  0  0  0  0  0  0  0  0  0
  -22.7521  -26.6030   24.5631 O   0  0  0  0  0  0  0  0  0  0  0  0
  -26.4096  -24.0862   24.2495 O   0  0  0  0  0  0  0  0  0  0  0  0
  -31.1113  -19.6146   22.1187 O   0  0  0  0  0  0  0  0  0  0  0  0
  -21.5140  -10.8409   21.1136 O   0  0  0  0  0  0  0  0  0  0  0  0
  -28.6301  -26.9360   19.3996 O   0  0  0  0  0  0  0  0  0  1  0  0
  -24.3218   -6.0976   20.9685 F   0  0  0  0  0  0  0  0  0  0  0  0
  -20.9404   -8.9105   19.2196 F   0  0  0  0  0  0  0  0  0  0  0  0
  1  2  1  0  0  0  0
  1  5  2  0  0  0  0
  2  6  2  0  0  0  0
  3  9  2  0  0  0  0
  3 17  1  0  0  0  0
  4 10  1  0  0  0  0
  4 17  2  0  0  0  0
  5 19  1  0  0  0  0
  6 21  1  0  0  0  0
  7 11  2  0  0  0  0
  7 20  1  0  0  0  0
  8 14  2  0  0  0  0
  8 22  1  0  0  0  0
  9 24  1  0  0  0  0
 10 24  2  0  0  0  0
 11 25  1  0  0  0  0
 12 13  2  0  0  0  0
 12 26  1  0  0  0  0
 13 27  1  0  0  0  0
 14 31  1  0  0  0  0
 15 23  1  0  0  0  0
 15 25  2  0  0  0  0
 16 27  2  0  0  0  0
 16 28  1  0  0  0  0
 17 29  1  0  0  0  0
 18 29  1  0  0  0  0
 18 32  2  0  0  0  0
 18 33  1  0  0  0  0
 19 21  2  0  0  0  0
 19 38  1  0  0  0  0
 20 23  2  0  0  0  0
 20 39  1  0  0  0  0
 21 52  1  0  0  0  0
 22 30  2  0  0  0  0
 22 51  1  0  0  0  0
 23 40  1  0  0  0  0
 24 81  1  0  0  0  0
 25 82  1  0  0  0  0
 26 28  2  0  0  0  0
 26 81  1  0  0  0  0
 27 83  1  0  0  0  0
 28 84  1  0  0  0  0
 29 65  2  0  0  0  0
 30 41  1  0  0  0  0
 30 66  1  0  0  0  0
 31 60  1  0  0  0  0
 31 66  2  0  0  0  0
 32 67  1  0  0  0  0
 32 70  1  0  0  0  0
 33 71  1  0  0  0  0
 33 76  2  0  0  0  0
 34 53  1  0  0  0  0
 34 72  1  0  0  0  0
 34 77  2  0  0  0  0
 35 62  1  0  0  0  0
 35 68  1  0  0  0  0
 35 78  2  0  0  0  0
 36 63  1  0  0  0  0
 36 73  1  0  0  0  0
 36 79  2  0  0  0  0
 37 69  1  0  0  0  0
 37 74  1  0  0  0  0
 37 80  2  0  0  0  0
 38 42  1  0  0  0  0
 39 53  1  0  0  0  0
 40 68  1  0  0  0  0
 41 43  1  0  0  0  0
 42 47  1  0  0  0  0
 43 44  1  0  0  0  0
 44 46  1  0  0  0  0
 45 48  1  0  0  0  0
 45 49  1  0  0  0  0
 46 51  1  0  0  0  0
 47 52  1  0  0  0  0
 48 54  1  0  0  0  0
 49 69  1  0  0  0  0
 50 54  1  0  0  0  0
 50 69  1  0  0  0  0
 51 61  1  0  0  0  0
 52 72  1  0  0  0  0
 53 68  1  0  0  0  0
 54 67  1  0  0  0  0
 55 63  1  0  0  0  0
 56 64  1  0  0  0  0
 57 64  1  0  0  0  0
 58 64  1  0  0  0  0
 59 75  1  0  0  0  0
 60 74  1  0  0  0  0
 61 82  1  0  0  0  0
 62 64  1  0  0  0  0
 62 73  1  0  0  0  0
 63 75  1  0  0  0  0
 65 67  1  0  0  0  0
M  CHG  1  75   1
M  ISO  4  37 100  61 101  74 100  82 101
M  END
> <Batch ID>
0118

> <Smiles>
CNC(C)C(=O)NC(C(=O)N1Cc2cc([101O:1][101CH2:1]C3CCCCc4nc(C[100NH:0][100C:0](=O)N5CCCC(n6nc(-c7ccc(Oc8ccc(F)cc8F)cc7)c(C(N)=O)c6N)C5)ccc43)ccc2CC1C(=O)NC1CCCc2ccccc21)C(C)(C)C

> <Shape>
0.241

> <Color>
0.076

> <Negative vol penalty>
0.000

$$$$

  -OEChem-04052320183D

 87 96  0     1  0  0  0  0  0999 V2000
  -28.3493  -36.2369   22.8579 C   0  0  0  0  0  0  0  0  0  0  0  0
  -27.0104  -35.9419   23.0890 C   0  0  0  0  0  0  0  0  0  0  0  0
  -17.6166  -26.0218   21.7826 C   0  0  0  0  0  0  0  0  0  0  0  0
  -19.4875  -27.3529   22.5342 C   0  0  0  0  0  0  0  0  0  0  0  0
  -28.9081  -35.9869   21.6064 C   0  0  0  0  0  0  0  0  0  0  0  0
  -26.2331  -35.3859   22.0724 C   0  0  0  0  0  0  0  0  0  0  0  0
  -25.0162  -28.6513   18.5482 C   0  0  0  0  0  0  0  0  0  0  0  0
  -16.8183  -26.5801   22.7809 C   0  0  0  0  0  0  0  0  0  0  0  0
  -18.6893  -27.9112   23.5325 C   0  0  0  0  0  0  0  0  0  0  0  0
  -25.9220  -27.6233   18.2904 C   0  0  0  0  0  0  0  0  0  0  0  0
  -16.3437  -26.1818   26.1037 C   0  0  0  0  0  0  0  0  0  0  0  0
  -15.5331  -25.3197   26.8421 C   0  0  0  0  0  0  0  0  0  0  0  0
  -26.8312  -27.8758   20.5104 C   0  0  0  0  0  0  0  0  0  0  0  0
  -13.5751  -26.5247   26.0998 C   0  0  0  0  0  0  0  0  0  0  0  0
  -18.9512  -26.4081   21.6592 C   0  0  0  0  0  0  0  0  0  0  0  0
  -19.9607  -26.3124   19.3184 C   0  0  0  0  0  0  0  0  0  0  0  0
  -28.1334  -35.4391   20.5707 C   0  0  0  0  0  0  0  0  0  0  0  0
  -25.0184  -29.3077   19.7873 C   0  0  0  0  0  0  0  0  0  0  0  0
  -26.7851  -35.1040   20.8096 C   0  0  0  0  0  0  0  0  0  0  0  0
  -25.9227  -28.9101   20.7824 C   0  0  0  0  0  0  0  0  0  0  0  0
  -31.1889  -22.8623   18.7742 C   0  0  0  0  0  0  0  0  0  0  0  0
  -17.3546  -27.5248   23.6559 C   0  0  0  0  0  0  0  0  0  0  0  0
  -26.8317  -27.2373   19.2705 C   0  0  0  0  0  0  0  0  0  0  0  0
  -15.7699  -27.2155   25.3633 C   0  0  0  0  0  0  0  0  0  0  0  0
  -14.1488  -25.4911   26.8402 C   0  0  0  0  0  0  0  0  0  0  0  0
  -14.3857  -27.3869   25.3613 C   0  0  0  0  0  0  0  0  0  0  0  0
  -19.7765  -25.8313   20.6285 C   0  0  0  0  0  0  0  0  0  0  0  0
  -31.6018  -24.1732   18.8981 C   0  0  0  0  0  0  0  0  0  0  0  0
  -29.8724  -22.6170   19.1074 C   0  0  0  0  0  0  0  0  0  0  0  0
  -20.8295  -25.4177   18.7431 C   0  0  0  0  0  0  0  0  0  0  0  0
  -29.5384  -24.8088   19.6091 C   0  0  0  0  0  0  0  0  0  0  0  0
  -19.3970  -27.4652   18.6788 C   0  0  0  0  0  0  0  0  0  0  0  0
  -25.5271  -32.2968   20.7413 C   0  0  0  0  0  0  0  0  0  0  0  0
  -24.6283  -31.1163   23.6259 C   0  0  0  0  0  0  0  0  0  0  0  0
  -24.5812  -28.5765   26.1881 C   0  0  0  0  0  0  0  0  0  0  0  0
  -24.7355  -21.6998   21.5428 C   0  0  0  0  0  0  0  0  0  0  0  0
  -28.7912  -35.1817   19.2379 C   0  0  0  0  0  0  0  0  0  0  0  0
  -24.0171  -30.3967   20.0591 C   0  0  0  0  0  0  0  0  0  0  0  0
  -25.9524  -29.5693   22.1363 C   0  0  0  0  0  0  0  0  0  0  0  0
  -27.7871  -35.0094   18.1028 C   0  0  0  0  0  0  0  0  0  0  0  0
  -22.1876  -20.8419   18.9477 C   0  0  0  0  0  0  0  0  0  0  0  0
  -26.7122  -34.0114   18.5067 C   0  0  0  0  0  0  0  0  0  0  0  0
  -21.2631  -22.0561   19.0333 C   0  0  0  0  0  0  0  0  0  0  0  0
  -27.7526  -20.9557   22.4891 C   0  0  0  0  0  0  0  0  0  0  0  0
  -22.8658  -20.5722   20.2852 C   0  0  0  0  0  0  0  0  0  0  0  0
  -26.4678  -20.1425   22.3500 C   0  0  0  0  0  0  0  0  0  0  0  0
  -25.8586  -20.0999   19.9210 C   0  0  0  0  0  0  0  0  0  0  0  0
  -22.7054  -22.9541   20.9180 C   0  0  0  0  0  0  0  0  0  0  0  0
  -28.7874  -20.7383   21.3935 C   0  0  0  0  0  0  0  0  0  0  0  0
  -27.3172  -19.8361   19.5597 C   0  0  0  0  0  0  0  0  0  0  0  0
  -25.9123  -34.5271   19.7097 C   0  0  1  0  0  0  0  0  0  0  0  0
  -24.4508  -31.3423   21.1750 C   0  0  1  0  0  0  0  0  0  0  0  0
  -22.0112  -23.2821   19.5854 C   0  0  2  0  0  0  0  0  0  0  0  0
  -32.1031  -21.7846   18.3098 C   0  0  0  0  0  0  0  0  0  0  0  0
  -33.0058  -24.5583   18.5652 C   0  0  0  0  0  0  0  0  0  0  0  0
  -23.6714  -27.8294   28.4042 C   0  0  0  0  0  0  0  0  0  0  0  0
  -27.2259  -32.2478   24.7582 C   0  0  0  0  0  0  0  0  0  0  0  0
  -26.9040  -30.7890   26.7673 C   0  0  0  0  0  0  0  0  0  0  0  0
  -25.2261  -32.5545   26.2283 C   0  0  0  0  0  0  0  0  0  0  0  0
  -22.5445  -26.8563   24.9029 C   0  0  0  0  0  0  0  0  0  0  0  0
  -29.3101  -21.2293   19.0134 C   0  0  0  0  0  0  0  0  0  0  0  0
  -28.6211  -25.8902   20.0700 C   0  0  0  0  0  0  0  0  0  1  0  0
  -25.3461  -30.4782   24.7906 C   0  0  1  0  0  0  0  0  0  0  0  0
  -23.3637  -28.0593   26.9328 C   0  0  2  0  0  0  0  0  0  0  0  0
  -26.1765  -31.5061   25.6100 C   0  0  0  0  0  0  0  0  0  0  0  0
  -20.4721  -24.7173   20.8713 N   0  0  0  0  0  0  0  0  0  0  0  0
  -30.8001  -25.1755   19.3141 N   0  0  0  0  0  0  0  0  0  0  0  0
  -29.0161  -23.5700   19.5303 N   0  0  0  0  0  0  0  0  0  0  0  0
  -21.1019  -24.4909   19.7059 N   0  0  0  0  0  0  0  0  0  0  0  0
  -24.9577  -30.6331   22.3516 N   0  0  0  0  0  0  0  0  0  0  0  0
  -23.5519  -21.7663   20.7921 N   0  0  0  0  0  0  0  0  0  0  0  0
  -25.6146  -20.6323   21.2670 N   0  0  0  0  0  0  0  0  0  0  0  0
  -21.3792  -25.3410   17.5125 N   0  0  0  0  0  0  0  0  0  0  0  0
  -18.5229  -28.2770   19.4145 N   0  0  0  0  0  0  0  0  0  0  0  0
  -25.0494  -33.4708   20.1907 N   0  0  0  0  0  0  0  0  0  0  0  0
  -24.3262  -29.7803   25.5659 N   0  0  0  0  0  0  0  0  0  0  0  0
  -28.2118  -20.9674   20.0140 N   0  3  2  0  0  0  0  0  0  0  0  0
  -22.9037  -26.7708   26.3419 N   0  3  0  0  0  0  0  0  0  0  0  0
  -19.6477  -27.7572   17.4849 O   0  0  0  0  0  0  0  0  0  0  0  0
  -26.7037  -31.9916   20.8962 O   0  0  0  0  0  0  0  0  0  0  0  0
  -23.8004  -32.0054   23.8394 O   0  0  0  0  0  0  0  0  0  0  0  0
  -25.6526  -27.9747   26.1639 O   0  0  0  0  0  0  0  0  0  0  0  0
  -25.0029  -22.5593   22.3926 O   0  0  0  0  0  0  0  0  0  0  0  0
  -16.5759  -28.0700   24.6300 O   0  0  0  0  0  0  0  0  0  0  0  0
  -27.7234  -26.2278   19.0196 O   0  0  0  0  0  0  0  0  0  1  0  0
  -13.3705  -24.6622   27.5482 F   0  0  0  0  0  0  0  0  0  0  0  0
  -13.8286  -28.3773   24.6510 F   0  0  0  0  0  0  0  0  0  0  0  0
  1  2  1  0  0  0  0
  1  5  2  0  0  0  0
  2  6  2  0  0  0  0
  3  8  2  0  0  0  0
  3 15  1  0  0  0  0
  4  9  1  0  0  0  0
  4 15  2  0  0  0  0
  5 17  1  0  0  0  0
  6 19  1  0  0  0  0
  7 10  2  0  0  0  0
  7 18  1  0  0  0  0
  8 22  1  0  0  0  0
  9 22  2  0  0  0  0
 10 23  1  0  0  0  0
 11 12  2  0  0  0  0
 11 24  1  0  0  0  0
 12 25  1  0  0  0  0
 13 20  1  0  0  0  0
 13 23  2  0  0  0  0
 14 25  2  0  0  0  0
 14 26  1  0  0  0  0
 15 27  1  0  0  0  0
 16 27  1  0  0  0  0
 16 30  2  0  0  0  0
 16 32  1  0  0  0  0
 17 19  2  0  0  0  0
 17 37  1  0  0  0  0
 18 20  2  0  0  0  0
 18 38  1  0  0  0  0
 19 51  1  0  0  0  0
 20 39  1  0  0  0  0
 21 28  1  0  0  0  0
 21 29  2  0  0  0  0
 21 54  1  0  0  0  0
 22 84  1  0  0  0  0
 23 85  1  0  0  0  0
 24 26  2  0  0  0  0
 24 84  1  0  0  0  0
 25 86  1  0  0  0  0
 26 87  1  0  0  0  0
 27 66  2  0  0  0  0
 28 55  1  0  0  0  0
 28 67  2  0  0  0  0
 29 61  1  0  0  0  0
 29 68  1  0  0  0  0
 30 69  1  0  0  0  0
 30 73  1  0  0  0  0
 31 62  1  0  0  0  0
 31 67  1  0  0  0  0
 31 68  2  0  0  0  0
 32 74  1  0  0  0  0
 32 79  2  0  0  0  0
 33 52  1  0  0  0  0
 33 75  1  0  0  0  0
 33 80  2  0  0  0  0
 34 63  1  0  0  0  0
 34 70  1  0  0  0  0
 34 81  2  0  0  0  0
 35 64  1  0  0  0  0
 35 76  1  0  0  0  0
 35 82  2  0  0  0  0
 36 71  1  0  0  0  0
 36 72  1  0  0  0  0
 36 83  2  0  0  0  0
 37 40  1  0  0  0  0
 38 52  1  0  0  0  0
 39 70  1  0  0  0  0
 40 42  1  0  0  0  0
 41 43  1  0  0  0  0
 41 45  1  0  0  0  0
 42 51  1  0  0  0  0
 43 53  1  0  0  0  0
 44 46  1  0  0  0  0
 44 49  1  0  0  0  0
 45 71  1  0  0  0  0
 46 72  1  0  0  0  0
 47 50  1  0  0  0  0
 47 72  1  0  0  0  0
 48 53  1  0  0  0  0
 48 71  1  0  0  0  0
 49 77  1  0  0  0  0
 50 77  1  0  0  0  0
 51 75  1  0  0  0  0
 52 70  1  0  0  0  0
 53 69  1  0  0  0  0
 56 64  1  0  0  0  0
 57 65  1  0  0  0  0
 58 65  1  0  0  0  0
 59 65  1  0  0  0  0
 60 78  1  0  0  0  0
 61 77  1  0  0  0  0
 62 85  1  0  0  0  0
 63 65  1  0  0  0  0
 63 76  1  0  0  0  0
 64 78  1  0  0  0  0
 66 69  1  0  0  0  0
M  CHG  2  77   1  78   1
M  ISO  4  36 100  62 101  72 100  85 101
M  END
> <Batch ID>
0118

> <Smiles>
CNC(C)C(=O)NC(C(=O)N1Cc2cc([101O:1][101CH2:1]c3nc(C)c(C)c(CN4CCC[100N:0]([100C:0](=O)N5CCCC(n6nc(-c7ccc(Oc8ccc(F)cc8F)cc7)c(C(N)=O)c6N)C5)CC4)n3)ccc2CC1C(=O)NC1CCCc2ccccc21)C(C)(C)C

> <Shape>
0.206

> <Color>
0.093

> <Negative vol penalty>
0.000

$$$$

  -OEChem-04052320182D

  0  0  0     0  0  0  0  0  0999 V2000
M  END
$$$$

  -OEChem-04052320183D

 85 93  0     1  0  0  0  0  0999 V2000
  -33.5975  -32.1606   11.0020 C   0  0  0  0  0  0  0  0  0  0  0  0
  -32.2565  -31.8993   11.2644 C   0  0  0  0  0  0  0  0  0  0  0  0
  -23.1064   -9.8521   19.9254 C   0  0  0  0  0  0  0  0  0  0  0  0
  -23.7923   -9.8884   22.2417 C   0  0  0  0  0  0  0  0  0  0  0  0
  -34.4788  -31.1062   10.7665 C   0  0  0  0  0  0  0  0  0  0  0  0
  -31.7957  -30.5835   11.2903 C   0  0  0  0  0  0  0  0  0  0  0  0
  -28.6676  -27.8650   17.1823 C   0  0  0  0  0  0  0  0  0  0  0  0
  -22.3477   -8.7071   20.1680 C   0  0  0  0  0  0  0  0  0  0  0  0
  -23.0335   -8.7434   22.4843 C   0  0  0  0  0  0  0  0  0  0  0  0
  -27.8698  -27.3376   18.1979 C   0  0  0  0  0  0  0  0  0  0  0  0
  -19.3494   -7.9491   21.5350 C   0  0  0  0  0  0  0  0  0  0  0  0
  -18.0585   -7.9033   21.0086 C   0  0  0  0  0  0  0  0  0  0  0  0
  -27.7346  -25.2335   17.0137 C   0  0  0  0  0  0  0  0  0  0  0  0
  -18.6482   -5.9378   19.7334 C   0  0  0  0  0  0  0  0  0  0  0  0
  -23.8288  -10.4428   20.9623 C   0  0  0  0  0  0  0  0  0  0  0  0
  -24.1901  -12.9638   20.8167 C   0  0  0  0  0  0  0  0  0  0  0  0
  -34.0306  -29.7763   10.7991 C   0  0  0  0  0  0  0  0  0  0  0  0
  -29.0151  -27.0727   16.0847 C   0  0  0  0  0  0  0  0  0  0  0  0
  -32.6716  -29.5104   11.0537 C   0  0  0  0  0  0  0  0  0  0  0  0
  -28.5438  -25.7523   15.9994 C   0  0  0  0  0  0  0  0  0  0  0  0
  -22.3112   -8.1528   21.4474 C   0  0  0  0  0  0  0  0  0  0  0  0
  -27.4043  -26.0252   18.1137 C   0  0  0  0  0  0  0  0  0  0  0  0
  -20.2898   -6.9893   21.1605 C   0  0  0  0  0  0  0  0  0  0  0  0
  -17.7079   -6.8976   20.1078 C   0  0  0  0  0  0  0  0  0  0  0  0
  -19.9391   -5.9836   20.2597 C   0  0  0  0  0  0  0  0  0  0  0  0
  -24.6132  -11.6252   20.7122 C   0  0  0  0  0  0  0  0  0  0  0  0
  -25.2981  -13.7016   20.4779 C   0  0  0  0  0  0  0  0  0  0  0  0
  -22.9101  -13.4931   21.1869 C   0  0  0  0  0  0  0  0  0  0  0  0
  -30.8710  -26.8194   12.8339 C   0  0  0  0  0  0  0  0  0  0  0  0
  -31.2824  -24.1588   14.3045 C   0  0  0  0  0  0  0  0  0  0  0  0
  -27.5456  -19.9465   23.2190 C   0  0  0  0  0  0  0  0  0  0  0  0
  -31.8389  -21.5487   16.4293 C   0  0  0  0  0  0  0  0  0  0  0  0
  -30.6643  -14.7698   20.6589 C   0  0  0  0  0  0  0  0  0  0  0  0
  -35.0109  -28.6721   10.4916 C   0  0  0  0  0  0  0  0  0  0  0  0
  -29.8214  -27.6188   14.9376 C   0  0  0  0  0  0  0  0  0  0  0  0
  -28.9143  -24.9481   14.7833 C   0  0  0  0  0  0  0  0  0  0  0  0
  -34.5193  -27.2880   10.9073 C   0  0  0  0  0  0  0  0  0  0  0  0
  -29.7016  -12.3036   18.4352 C   0  0  0  0  0  0  0  0  0  0  0  0
  -33.0773  -27.0761   10.4573 C   0  0  0  0  0  0  0  0  0  0  0  0
  -28.2540  -12.0074   18.8263 C   0  0  0  0  0  0  0  0  0  0  0  0
  -29.0143  -17.9455   21.6177 C   0  0  0  0  0  0  0  0  0  0  0  0
  -28.4824  -16.1928   23.3480 C   0  0  0  0  0  0  0  0  0  0  0  0
  -30.5717  -12.5006   19.6713 C   0  0  0  0  0  0  0  0  0  0  0  0
  -30.2424  -17.1389   21.2052 C   0  0  0  0  0  0  0  0  0  0  0  0
  -29.7227  -15.4226   22.9071 C   0  0  0  0  0  0  0  0  0  0  0  0
  -28.6339  -13.2888   20.9901 C   0  0  0  0  0  0  0  0  0  0  0  0
  -32.1389  -28.0952   11.1147 C   0  0  1  0  0  0  0  0  0  0  0  0
  -30.7622  -26.5746   14.3102 C   0  0  1  0  0  0  0  0  0  0  0  0
  -28.6381  -17.6965   23.0840 C   0  0  0  0  0  0  0  0  0  0  0  0
  -27.7058  -13.0880   19.7752 C   0  0  2  0  0  0  0  0  0  0  0  0
  -26.9739  -18.1622   24.9025 C   0  0  0  0  0  0  0  0  0  0  0  0
  -33.0341  -19.3469   16.5740 C   0  0  0  0  0  0  0  0  0  0  0  0
  -29.1363  -22.8830   12.5523 C   0  0  0  0  0  0  0  0  0  0  0  0
  -29.7942  -20.6569   13.4904 C   0  0  0  0  0  0  0  0  0  0  0  0
  -31.4458  -21.9962   12.1860 C   0  0  0  0  0  0  0  0  0  0  0  0
  -33.5001  -22.4679   18.6997 C   0  0  0  0  0  0  0  0  0  0  0  0
  -26.5323  -22.3143   21.1113 C   0  0  0  0  0  0  0  0  0  0  0  0
  -26.4242  -23.8102   20.8140 C   0  0  0  0  0  0  0  0  0  0  0  0
  -26.2843  -21.9912   22.5813 C   0  0  0  0  0  0  0  0  0  0  0  0
  -26.7154  -24.1121   19.3493 C   0  0  0  0  0  0  0  0  0  1  0  0
  -30.8075  -22.7435   14.5154 C   0  0  1  0  0  0  0  0  0  0  0  0
  -27.3613  -18.4480   23.4533 C   0  0  1  0  0  0  0  0  0  0  0  0
  -33.1167  -20.8414   16.8433 C   0  0  2  0  0  0  0  0  0  0  0  0
  -30.2878  -22.0910   13.2033 C   0  0  0  0  0  0  0  0  0  0  0  0
  -25.8902  -11.5159   20.3363 N   0  0  0  0  0  0  0  0  0  0  0  0
  -26.2791  -12.7953   20.2015 N   0  0  0  0  0  0  0  0  0  0  0  0
  -30.3278  -25.1737   14.4433 N   0  0  0  0  0  0  0  0  0  0  0  0
  -30.0156  -13.5307   20.5484 N   0  0  0  0  0  0  0  0  0  0  0  0
  -30.0783  -15.7188   21.5129 N   0  0  0  0  0  0  0  0  0  0  0  0
  -25.5191  -15.0306   20.3924 N   0  0  0  0  0  0  0  0  0  0  0  0
  -21.8822  -12.5949   21.5046 N   0  0  0  0  0  0  0  0  0  0  0  0
  -31.8615  -27.7170   12.4839 N   0  0  0  0  0  0  0  0  0  0  0  0
  -26.3628  -20.5759   22.8589 N   0  0  0  0  0  0  0  0  0  0  0  0
  -31.9163  -22.0295   15.1393 N   0  0  0  0  0  0  0  0  0  0  0  0
  -33.3728  -21.0434   18.2975 N   0  3  0  0  0  0  0  0  0  0  0  0
  -22.6799  -14.7258   21.2188 O   0  0  0  0  0  0  0  0  0  0  0  0
  -30.1135  -26.2360   12.0673 O   0  0  0  0  0  0  0  0  0  0  0  0
  -32.4659  -24.3617   14.0188 O   0  0  0  0  0  0  0  0  0  0  0  0
  -28.6312  -20.5104   23.3386 O   0  0  0  0  0  0  0  0  0  0  0  0
  -30.8678  -21.6602   17.1744 O   0  0  0  0  0  0  0  0  0  0  0  0
  -31.7012  -15.0176   20.0307 O   0  0  0  0  0  0  0  0  0  0  0  0
  -21.5707   -7.0356   21.6845 O   0  0  0  0  0  0  0  0  0  0  0  0
  -26.6239  -25.5115   19.1180 O   0  0  0  0  0  0  0  0  0  1  0  0
  -16.4677   -6.8529   19.6036 F   0  0  0  0  0  0  0  0  0  0  0  0
  -20.8378   -5.0580   19.8972 F   0  0  0  0  0  0  0  0  0  0  0  0
  1  2  1  0  0  0  0
  1  5  2  0  0  0  0
  2  6  2  0  0  0  0
  3  8  2  0  0  0  0
  3 15  1  0  0  0  0
  4  9  1  0  0  0  0
  4 15  2  0  0  0  0
  5 17  1  0  0  0  0
  6 19  1  0  0  0  0
  7 10  2  0  0  0  0
  7 18  1  0  0  0  0
  8 21  1  0  0  0  0
  9 21  2  0  0  0  0
 10 22  1  0  0  0  0
 11 12  2  0  0  0  0
 11 23  1  0  0  0  0
 12 24  1  0  0  0  0
 13 20  1  0  0  0  0
 13 22  2  0  0  0  0
 14 24  2  0  0  0  0
 14 25  1  0  0  0  0
 15 26  1  0  0  0  0
 16 26  1  0  0  0  0
 16 27  2  0  0  0  0
 16 28  1  0  0  0  0
 17 19  2  0  0  0  0
 17 34  1  0  0  0  0
 18 20  2  0  0  0  0
 18 35  1  0  0  0  0
 19 47  1  0  0  0  0
 20 36  1  0  0  0  0
 21 82  1  0  0  0  0
 22 83  1  0  0  0  0
 23 25  2  0  0  0  0
 23 82  1  0  0  0  0
 24 84  1  0  0  0  0
 25 85  1  0  0  0  0
 26 65  2  0  0  0  0
 27 66  1  0  0  0  0
 27 70  1  0  0  0  0
 28 71  1  0  0  0  0
 28 76  2  0  0  0  0
 29 48  1  0  0  0  0
 29 72  1  0  0  0  0
 29 77  2  0  0  0  0
 30 61  1  0  0  0  0
 30 67  1  0  0  0  0
 30 78  2  0  0  0  0
 31 62  1  0  0  0  0
 31 73  1  0  0  0  0
 31 79  2  0  0  0  0
 32 63  1  0  0  0  0
 32 74  1  0  0  0  0
 32 80  2  0  0  0  0
 33 68  1  0  0  0  0
 33 69  1  0  0  0  0
 33 81  2  0  0  0  0
 34 37  1  0  0  0  0
 35 48  1  0  0  0  0
 36 67  1  0  0  0  0
 37 39  1  0  0  0  0
 38 40  1  0  0  0  0
 38 43  1  0  0  0  0
 39 47  1  0  0  0  0
 40 50  1  0  0  0  0
 41 44  1  0  0  0  0
 41 49  1  0  0  0  0
 42 45  1  0  0  0  0
 42 49  1  0  0  0  0
 43 68  1  0  0  0  0
 44 69  1  0  0  0  0
 45 69  1  0  0  0  0
 46 50  1  0  0  0  0
 46 68  1  0  0  0  0
 47 72  1  0  0  0  0
 48 67  1  0  0  0  0
 49 62  1  0  0  0  0
 50 66  1  0  0  0  0
 51 62  1  0  0  0  0
 52 63  1  0  0  0  0
 53 64  1  0  0  0  0
 54 64  1  0  0  0  0
 55 64  1  0  0  0  0
 56 75  1  0  0  0  0
 57 58  1  0  0  0  0
 57 59  1  0  0  0  0
 58 60  1  0  0  0  0
 59 73  1  0  0  0  0
 60 83  1  0  0  0  0
 61 64  1  0  0  0  0
 61 74  1  0  0  0  0
 63 75  1  0  0  0  0
 65 66  1  0  0  0  0
M  CHG  1  75   1
M  ISO  4  33 100  60 101  69 100  83 101
M  END
> <Batch ID>
0118

> <Smiles>
CNC(C)C(=O)NC(C(=O)N1Cc2cc([101O:1][101CH2:1]CCCNC(=O)C(C)C3CC[100N:0]([100C:0](=O)N4CCCC(n5nc(-c6ccc(Oc7ccc(F)cc7F)cc6)c(C(N)=O)c5N)C4)CC3)ccc2CC1C(=O)NC1CCCc2ccccc21)C(C)(C)C

> <Shape>
0.164

> <Color>
0.190

> <Negative vol penalty>
0.000

$$$$

  -OEChem-04052320183D

 90 99  0     1  0  0  0  0  0999 V2000
  -27.7881  -24.0911   17.8165 C   0  0  0  0  0  0  0  0  0  0  0  0
  -26.4859  -24.5693   17.9210 C   0  0  0  0  0  0  0  0  0  0  0  0
  -24.9698  -12.6673   19.8649 C   0  0  0  0  0  0  0  0  0  0  0  0
  -25.4281  -13.2181   22.1722 C   0  0  0  0  0  0  0  0  0  0  0  0
  -28.7063  -24.3442   18.8347 C   0  0  0  0  0  0  0  0  0  0  0  0
  -26.1008  -25.3001   19.0444 C   0  0  0  0  0  0  0  0  0  0  0  0
  -22.1289  -29.9583   19.2220 C   0  0  0  0  0  0  0  0  0  0  0  0
  -25.6065  -11.4375   20.0319 C   0  0  0  0  0  0  0  0  0  0  0  0
  -26.0648  -11.9883   22.3393 C   0  0  0  0  0  0  0  0  0  0  0  0
  -20.7799  -30.0280   19.5669 C   0  0  0  0  0  0  0  0  0  0  0  0
  -27.4277   -8.3023   19.7535 C   0  0  0  0  0  0  0  0  0  0  0  0
  -28.3166   -7.8904   18.7607 C   0  0  0  0  0  0  0  0  0  0  0  0
  -21.3920  -30.7029   21.8005 C   0  0  0  0  0  0  0  0  0  0  0  0
  -19.2245  -27.7486   23.1119 C   0  0  0  0  0  0  0  0  0  0  0  0
  -29.6665   -9.8551   19.1542 C   0  0  0  0  0  0  0  0  0  0  0  0
  -19.1528  -25.3996   21.7253 C   0  0  0  0  0  0  0  0  0  0  0  0
  -24.8807  -13.5576   20.9350 C   0  0  0  0  0  0  0  0  0  0  0  0
  -22.8603  -15.1148   20.9655 C   0  0  0  0  0  0  0  0  0  0  0  0
  -28.3349  -25.0868   19.9667 C   0  0  0  0  0  0  0  0  0  0  0  0
  -23.1216  -30.2503   20.1685 C   0  0  0  0  0  0  0  0  0  0  0  0
  -27.0145  -25.5623   20.0793 C   0  0  0  0  0  0  0  0  0  0  0  0
  -22.7529  -30.6386   21.4644 C   0  0  0  0  0  0  0  0  0  0  0  0
  -20.0351  -26.6934   23.5154 C   0  0  0  0  0  0  0  0  0  0  0  0
  -20.0045  -25.4931   22.8142 C   0  0  0  0  0  0  0  0  0  0  0  0
  -26.1540  -11.0980   21.2691 C   0  0  0  0  0  0  0  0  0  0  0  0
  -20.4113  -30.3976   20.8572 C   0  0  0  0  0  0  0  0  0  0  0  0
  -27.6581   -9.4907   20.4466 C   0  0  0  0  0  0  0  0  0  0  0  0
  -29.4360   -8.6667   18.4611 C   0  0  0  0  0  0  0  0  0  0  0  0
  -28.7775  -10.2670   20.1470 C   0  0  0  0  0  0  0  0  0  0  0  0
  -24.2236  -14.8283   20.7629 C   0  0  0  0  0  0  0  0  0  0  0  0
  -18.4079  -27.5543   22.0096 C   0  0  0  0  0  0  0  0  0  0  0  0
  -22.7427  -16.4511   20.6708 C   0  0  0  0  0  0  0  0  0  0  0  0
  -21.7954  -14.2502   21.3830 C   0  0  0  0  0  0  0  0  0  0  0  0
  -25.4972  -28.6150   21.5048 C   0  0  0  0  0  0  0  0  0  0  0  0
  -26.2325  -31.4965   22.8004 C   0  0  0  0  0  0  0  0  0  0  0  0
  -25.1773  -34.5996   23.7515 C   0  0  0  0  0  0  0  0  0  0  0  0
  -26.1790  -21.2301   21.3728 C   0  0  0  0  0  0  0  0  0  0  0  0
  -29.3492  -25.2946   21.0634 C   0  0  0  0  0  0  0  0  0  0  0  0
  -24.5718  -30.1963   19.7731 C   0  0  0  0  0  0  0  0  0  0  0  0
  -23.7795  -30.9818   22.5117 C   0  0  0  0  0  0  0  0  0  0  0  0
  -28.9654  -26.3970   22.0471 C   0  0  0  0  0  0  0  0  0  0  0  0
  -25.3902  -19.7131   18.0839 C   0  0  0  0  0  0  0  0  0  0  0  0
  -27.5083  -26.2486   22.4733 C   0  0  0  0  0  0  0  0  0  0  0  0
  -24.9572  -18.2994   18.4679 C   0  0  0  0  0  0  0  0  0  0  0  0
  -24.6096  -23.7637   23.1489 C   0  0  0  0  0  0  0  0  0  0  0  0
  -22.8853  -22.2165   22.1413 C   0  0  0  0  0  0  0  0  0  0  0  0
  -26.3703  -20.2997   19.0948 C   0  0  0  0  0  0  0  0  0  0  0  0
  -25.5216  -22.5578   23.3579 C   0  0  0  0  0  0  0  0  0  0  0  0
  -23.8456  -21.0412   22.3466 C   0  0  0  0  0  0  0  0  0  0  0  0
  -25.4359  -18.8669   20.8825 C   0  0  0  0  0  0  0  0  0  0  0  0
  -26.5657  -26.3801   21.2709 C   0  0  1  0  0  0  0  0  0  0  0  0
  -25.5093  -30.0164   20.9631 C   0  0  1  0  0  0  0  0  0  0  0  0
  -24.4136  -18.2651   19.9066 C   0  0  2  0  0  0  0  0  0  0  0  0
  -23.1466  -23.3251   23.1587 C   0  0  0  0  0  0  0  0  0  0  0  0
  -20.1379  -27.1426   25.9936 C   0  0  0  0  0  0  0  0  0  0  0  0
  -21.9763  -27.9770   24.4839 C   0  0  0  0  0  0  0  0  0  0  0  0
  -25.9981  -36.7192   24.8150 C   0  0  0  0  0  0  0  0  0  0  0  0
  -17.1864  -30.4116   19.7445 C   0  0  0  0  0  0  0  0  0  0  0  0
  -26.1951  -30.1376   25.5320 C   0  0  0  0  0  0  0  0  0  0  0  0
  -26.0692  -32.4070   26.5818 C   0  0  0  0  0  0  0  0  0  0  0  0
  -28.0546  -31.7783   25.2085 C   0  0  0  0  0  0  0  0  0  0  0  0
  -24.5282  -36.1953   21.3450 C   0  0  0  0  0  0  0  0  0  0  0  0
  -20.8573  -24.3227   23.2063 C   0  0  0  0  0  0  0  0  0  0  0  0
  -17.5243  -28.6649   21.5484 C   0  0  0  0  0  0  0  0  0  0  0  0
  -20.9268  -26.8708   24.6993 C   0  0  0  0  0  0  0  0  0  0  0  0
  -25.8473  -32.2312   24.0617 C   0  0  1  0  0  0  0  0  0  0  0  0
  -25.7595  -35.9802   23.5074 C   0  0  2  0  0  0  0  0  0  0  0  0
  -18.2046  -29.5797   20.5139 C   0  0  2  0  0  0  0  0  0  1  0  0
  -26.5220  -31.6303   25.3271 C   0  0  0  0  0  0  0  0  0  0  0  0
  -18.3509  -26.4029   21.3034 N   0  0  0  0  0  0  0  0  0  0  0  0
  -24.9221  -15.8968   20.3696 N   0  0  0  0  0  0  0  0  0  0  0  0
  -23.9940  -16.8676   20.3227 N   0  0  0  0  0  0  0  0  0  0  0  0
  -25.1846  -30.9081   22.0783 N   0  0  0  0  0  0  0  0  0  0  0  0
  -25.8523  -20.2130   20.4604 N   0  0  0  0  0  0  0  0  0  0  0  0
  -25.2401  -21.5068   22.3781 N   0  0  0  0  0  0  0  0  0  0  0  0
  -21.6921  -17.2988   20.6779 N   0  0  0  0  0  0  0  0  0  0  0  0
  -22.0904  -12.9053   21.6447 N   0  0  0  0  0  0  0  0  0  0  0  0
  -26.4093  -27.7706   20.9011 N   0  0  0  0  0  0  0  0  0  0  0  0
  -26.1612  -33.6366   23.8276 N   0  0  0  0  0  0  0  0  0  0  0  0
  -22.2876  -24.4934   22.8354 N   0  3  0  0  0  0  0  0  0  0  0  0
  -24.8320  -36.7929   22.6707 N   0  3  0  0  0  0  0  0  0  0  0  0
  -20.6141  -14.6545   21.5040 O   0  0  0  0  0  0  0  0  0  0  0  0
  -24.7192  -28.3219   22.4050 O   0  0  0  0  0  0  0  0  0  0  0  0
  -27.4185  -31.4526   22.4643 O   0  0  0  0  0  0  0  0  0  0  0  0
  -23.9707  -34.3964   23.8670 O   0  0  0  0  0  0  0  0  0  0  0  0
  -27.2446  -21.8539   21.2915 O   0  0  0  0  0  0  0  0  0  0  0  0
  -26.7751   -9.8980   21.4326 O   0  0  0  0  0  0  0  0  0  0  0  0
  -19.0880  -30.4662   21.1985 O   0  0  0  0  0  0  0  0  0  1  0  0
  -30.2904   -8.2702   17.5087 F   0  0  0  0  0  0  0  0  0  0  0  0
  -29.0049  -11.4091   20.8103 F   0  0  0  0  0  0  0  0  0  0  0  0
  1  2  1  0  0  0  0
  1  5  2  0  0  0  0
  2  6  2  0  0  0  0
  3  8  2  0  0  0  0
  3 17  1  0  0  0  0
  4  9  1  0  0  0  0
  4 17  2  0  0  0  0
  5 19  1  0  0  0  0
  6 21  1  0  0  0  0
  7 10  2  0  0  0  0
  7 20  1  0  0  0  0
  8 25  1  0  0  0  0
  9 25  2  0  0  0  0
 10 26  1  0  0  0  0
 11 12  2  0  0  0  0
 11 27  1  0  0  0  0
 12 28  1  0  0  0  0
 13 22  1  0  0  0  0
 13 26  2  0  0  0  0
 14 23  2  0  0  0  0
 14 31  1  0  0  0  0
 15 28  2  0  0  0  0
 15 29  1  0  0  0  0
 16 24  2  0  0  0  0
 16 70  1  0  0  0  0
 17 30  1  0  0  0  0
 18 30  1  0  0  0  0
 18 32  2  0  0  0  0
 18 33  1  0  0  0  0
 19 21  2  0  0  0  0
 19 38  1  0  0  0  0
 20 22  2  0  0  0  0
 20 39  1  0  0  0  0
 21 51  1  0  0  0  0
 22 40  1  0  0  0  0
 23 24  1  0  0  0  0
 23 65  1  0  0  0  0
 24 63  1  0  0  0  0
 25 87  1  0  0  0  0
 26 88  1  0  0  0  0
 27 29  2  0  0  0  0
 27 87  1  0  0  0  0
 28 89  1  0  0  0  0
 29 90  1  0  0  0  0
 30 71  2  0  0  0  0
 31 64  1  0  0  0  0
 31 70  2  0  0  0  0
 32 72  1  0  0  0  0
 32 76  1  0  0  0  0
 33 77  1  0  0  0  0
 33 82  2  0  0  0  0
 34 52  1  0  0  0  0
 34 78  1  0  0  0  0
 34 83  2  0  0  0  0
 35 66  1  0  0  0  0
 35 73  1  0  0  0  0
 35 84  2  0  0  0  0
 36 67  1  0  0  0  0
 36 79  1  0  0  0  0
 36 85  2  0  0  0  0
 37 74  1  0  0  0  0
 37 75  1  0  0  0  0
 37 86  2  0  0  0  0
 38 41  1  0  0  0  0
 39 52  1  0  0  0  0
 40 73  1  0  0  0  0
 41 43  1  0  0  0  0
 42 44  1  0  0  0  0
 42 47  1  0  0  0  0
 43 51  1  0  0  0  0
 44 53  1  0  0  0  0
 45 48  1  0  0  0  0
 45 54  1  0  0  0  0
 46 49  1  0  0  0  0
 46 54  1  0  0  0  0
 47 74  1  0  0  0  0
 48 75  1  0  0  0  0
 49 75  1  0  0  0  0
 50 53  1  0  0  0  0
 50 74  1  0  0  0  0
 51 78  1  0  0  0  0
 52 73  1  0  0  0  0
 53 72  1  0  0  0  0
 54 80  1  0  0  0  0
 55 65  1  0  0  0  0
 56 65  1  0  0  0  0
 57 67  1  0  0  0  0
 58 68  1  0  0  0  0
 59 69  1  0  0  0  0
 60 69  1  0  0  0  0
 61 69  1  0  0  0  0
 62 81  1  0  0  0  0
 63 80  1  0  0  0  0
 64 68  1  0  0  0  0
 66 69  1  0  0  0  0
 66 79  1  0  0  0  0
 67 81  1  0  0  0  0
 68 88  1  0  0  0  0
 71 72  1  0  0  0  0
M  CHG  2  80   1  81   1
M  ISO  4  37 100  68 101  75 100  88 101
M  END
> <Batch ID>
0118

> <Smiles>
CNC(C)C(=O)NC(C(=O)N1Cc2cc([101O:1][101CH:1](C)Cc3cc(C(C)C)c(CNC4CC[100N:0]([100C:0](=O)N5CCCC(n6nc(-c7ccc(Oc8ccc(F)cc8F)cc7)c(C(N)=O)c6N)C5)CC4)cn3)ccc2CC1C(=O)NC1CCCc2ccccc21)C(C)(C)C

> <Shape>
0.259

> <Color>
0.085

> <Negative vol penalty>
0.000

$$$$

  -OEChem-04052320183D

 86 94  0     1  0  0  0  0  0999 V2000
  -16.2660  -28.0899   24.9099 C   0  0  0  0  0  0  0  0  0  0  0  0
  -16.9409  -26.9232   25.2544 C   0  0  0  0  0  0  0  0  0  0  0  0
  -23.1806   -9.7023   19.9786 C   0  0  0  0  0  0  0  0  0  0  0  0
  -23.8236   -9.8940   22.2995 C   0  0  0  0  0  0  0  0  0  0  0  0
  -16.8093  -28.9534   23.9596 C   0  0  0  0  0  0  0  0  0  0  0  0
  -18.1591  -26.6188   24.6480 C   0  0  0  0  0  0  0  0  0  0  0  0
  -24.4302  -23.4339   26.0068 C   0  0  0  0  0  0  0  0  0  0  0  0
  -22.4591   -8.5457   20.2739 C   0  0  0  0  0  0  0  0  0  0  0  0
  -23.1021   -8.7373   22.5949 C   0  0  0  0  0  0  0  0  0  0  0  0
  -25.2763  -22.4555   25.4866 C   0  0  0  0  0  0  0  0  0  0  0  0
  -19.8725   -7.8782   23.0967 C   0  0  0  0  0  0  0  0  0  0  0  0
  -19.0591   -7.8952   24.2297 C   0  0  0  0  0  0  0  0  0  0  0  0
  -26.1575  -24.0610   23.9164 C   0  0  0  0  0  0  0  0  0  0  0  0
  -29.0836  -19.2697   24.4720 C   0  0  0  0  0  0  0  0  0  0  0  0
  -20.3180   -6.0555   25.1611 C   0  0  0  0  0  0  0  0  0  0  0  0
  -27.6633  -19.1210   22.5701 C   0  0  0  0  0  0  0  0  0  0  0  0
  -23.8629  -10.3765   20.9914 C   0  0  0  0  0  0  0  0  0  0  0  0
  -24.1363  -12.8970   20.7084 C   0  0  0  0  0  0  0  0  0  0  0  0
  -18.0394  -28.6643   23.3482 C   0  0  0  0  0  0  0  0  0  0  0  0
  -24.4336  -24.7325   25.4775 C   0  0  0  0  0  0  0  0  0  0  0  0
  -18.7187  -27.4786   23.6876 C   0  0  0  0  0  0  0  0  0  0  0  0
  -25.3122  -25.0547   24.4333 C   0  0  0  0  0  0  0  0  0  0  0  0
  -27.8958  -19.6219   23.8409 C   0  0  0  0  0  0  0  0  0  0  0  0
  -29.9899  -18.4392   23.8222 C   0  0  0  0  0  0  0  0  0  0  0  0
  -22.4199   -8.0632   21.5821 C   0  0  0  0  0  0  0  0  0  0  0  0
  -26.1381  -22.7682   24.4394 C   0  0  0  0  0  0  0  0  0  0  0  0
  -20.9086   -6.9498   22.9959 C   0  0  0  0  0  0  0  0  0  0  0  0
  -19.2818   -6.9839   25.2619 C   0  0  0  0  0  0  0  0  0  0  0  0
  -21.1314   -6.0384   24.0281 C   0  0  0  0  0  0  0  0  0  0  0  0
  -24.6088  -11.5710   20.6868 C   0  0  0  0  0  0  0  0  0  0  0  0
  -29.6636  -17.9911   22.5524 C   0  0  0  0  0  0  0  0  0  0  0  0
  -25.2229  -13.6546   20.3456 C   0  0  0  0  0  0  0  0  0  0  0  0
  -22.8318  -13.3988   21.0279 C   0  0  0  0  0  0  0  0  0  0  0  0
  -22.2839  -26.5677   24.0233 C   0  0  0  0  0  0  0  0  0  0  0  0
  -24.6150  -28.8112   24.2571 C   0  0  0  0  0  0  0  0  0  0  0  0
  -27.9407  -29.5124   24.5650 C   0  0  0  0  0  0  0  0  0  0  0  0
  -30.6581  -14.8633   20.7246 C   0  0  0  0  0  0  0  0  0  0  0  0
  -18.5639  -29.6044   22.2920 C   0  0  0  0  0  0  0  0  0  0  0  0
  -23.5338  -25.7835   26.0675 C   0  0  0  0  0  0  0  0  0  0  0  0
  -25.3689  -26.4393   23.8433 C   0  0  0  0  0  0  0  0  0  0  0  0
  -20.0415  -29.3958   21.9702 C   0  0  0  0  0  0  0  0  0  0  0  0
  -29.7122  -12.2823   18.4618 C   0  0  0  0  0  0  0  0  0  0  0  0
  -20.3432  -27.9120   21.7853 C   0  0  0  0  0  0  0  0  0  0  0  0
  -28.2640  -11.9726   18.8448 C   0  0  0  0  0  0  0  0  0  0  0  0
  -30.5609  -12.6162   19.6866 C   0  0  0  0  0  0  0  0  0  0  0  0
  -28.5713  -13.3795   20.9245 C   0  0  0  0  0  0  0  0  0  0  0  0
  -20.0545  -27.1260   23.0699 C   0  0  1  0  0  0  0  0  0  0  0  0
  -23.2543  -26.9372   25.1093 C   0  0  1  0  0  0  0  0  0  0  0  0
  -27.6631  -13.0914   19.7168 C   0  0  2  0  0  0  0  0  0  0  0  0
  -29.5445  -31.4385   24.6904 C   0  0  0  0  0  0  0  0  0  0  0  0
  -33.7768  -17.6137   23.6797 C   0  0  0  0  0  0  0  0  0  0  0  0
  -32.9637  -19.9587   23.8744 C   0  0  0  0  0  0  0  0  0  0  0  0
  -31.4638  -18.6670   25.9345 C   0  0  0  0  0  0  0  0  0  0  0  0
  -24.3274  -29.2432   21.2504 C   0  0  0  0  0  0  0  0  0  0  0  0
  -26.5322  -30.4289   21.2803 C   0  0  0  0  0  0  0  0  0  0  0  0
  -24.6102  -31.3403   22.5833 C   0  0  0  0  0  0  0  0  0  0  0  0
  -28.8652  -28.7177   27.2618 C   0  0  0  0  0  0  0  0  0  0  0  0
  -26.8965  -20.5154   24.5150 C   0  0  0  0  0  0  0  0  0  1  0  0
  -30.5987  -17.0958   21.8069 C   0  0  0  0  0  0  0  0  0  0  0  0
  -31.3748  -16.4906   24.6844 C   0  0  0  0  0  0  0  0  0  0  0  0
  -25.7722  -29.2449   23.3901 C   0  0  1  0  0  0  0  0  0  0  0  0
  -28.6892  -30.4621   25.4828 C   0  0  2  0  0  0  0  0  0  0  0  0
  -32.5285  -18.5079   23.5997 C   0  0  0  0  0  0  0  0  0  0  0  0
  -31.2653  -18.0595   24.4920 C   0  0  1  0  0  0  0  0  0  0  0  0
  -25.3083  -30.0377   22.1356 C   0  0  0  0  0  0  0  0  0  0  0  0
  -28.5196  -18.3118   21.9072 N   0  0  0  0  0  0  0  0  0  0  0  0
  -25.8953  -11.4877   20.3377 N   0  0  0  0  0  0  0  0  0  0  0  0
  -26.2405  -12.7709   20.1366 N   0  0  0  0  0  0  0  0  0  0  0  0
  -24.4652  -27.4305   24.4502 N   0  0  0  0  0  0  0  0  0  0  0  0
  -29.9367  -13.6854   20.4695 N   0  0  0  0  0  0  0  0  0  0  0  0
  -25.3977  -14.9840   20.1882 N   0  0  0  0  0  0  0  0  0  0  0  0
  -21.8312  -12.4828   21.3800 N   0  0  0  0  0  0  0  0  0  0  0  0
  -21.1217  -27.3153   24.0289 N   0  0  0  0  0  0  0  0  0  0  0  0
  -26.6807  -29.9828   24.2610 N   0  0  0  0  0  0  0  0  0  0  0  0
  -29.9904  -15.8284   21.4685 N   0  0  0  0  0  0  0  0  0  0  0  0
  -30.2768  -15.9741   25.5464 N   0  3  0  0  0  0  0  0  0  0  0  0
  -29.5780  -29.6992   26.4042 N   0  3  0  0  0  0  0  0  0  0  0  0
  -22.5570  -14.6221   20.9860 O   0  0  0  0  0  0  0  0  0  0  0  0
  -22.5690  -25.6716   23.2375 O   0  0  0  0  0  0  0  0  0  0  0  0
  -23.8757  -29.6662   24.7510 O   0  0  0  0  0  0  0  0  0  0  0  0
  -28.4267  -28.4604   24.1555 O   0  0  0  0  0  0  0  0  0  0  0  0
  -31.8098  -15.0438   20.3148 O   0  0  0  0  0  0  0  0  0  0  0  0
  -21.7158   -6.9347   21.8707 O   0  0  0  0  0  0  0  0  0  0  0  0
  -26.9646  -21.8150   23.9293 O   0  0  0  0  0  0  0  0  0  1  0  0
  -18.5016   -7.0013   26.3506 F   0  0  0  0  0  0  0  0  0  0  0  0
  -22.1260   -5.1450   23.9374 F   0  0  0  0  0  0  0  0  0  0  0  0
  1  2  1  0  0  0  0
  1  5  2  0  0  0  0
  2  6  2  0  0  0  0
  3  8  2  0  0  0  0
  3 17  1  0  0  0  0
  4  9  1  0  0  0  0
  4 17  2  0  0  0  0
  5 19  1  0  0  0  0
  6 21  1  0  0  0  0
  7 10  2  0  0  0  0
  7 20  1  0  0  0  0
  8 25  1  0  0  0  0
  9 25  2  0  0  0  0
 10 26  1  0  0  0  0
 11 12  2  0  0  0  0
 11 27  1  0  0  0  0
 12 28  1  0  0  0  0
 13 22  1  0  0  0  0
 13 26  2  0  0  0  0
 14 23  2  0  0  0  0
 14 24  1  0  0  0  0
 15 28  2  0  0  0  0
 15 29  1  0  0  0  0
 16 23  1  0  0  0  0
 16 66  2  0  0  0  0
 17 30  1  0  0  0  0
 18 30  1  0  0  0  0
 18 32  2  0  0  0  0
 18 33  1  0  0  0  0
 19 21  2  0  0  0  0
 19 38  1  0  0  0  0
 20 22  2  0  0  0  0
 20 39  1  0  0  0  0
 21 47  1  0  0  0  0
 22 40  1  0  0  0  0
 23 58  1  0  0  0  0
 24 31  2  0  0  0  0
 24 64  1  0  0  0  0
 25 83  1  0  0  0  0
 26 84  1  0  0  0  0
 27 29  2  0  0  0  0
 27 83  1  0  0  0  0
 28 85  1  0  0  0  0
 29 86  1  0  0  0  0
 30 67  2  0  0  0  0
 31 59  1  0  0  0  0
 31 66  1  0  0  0  0
 32 68  1  0  0  0  0
 32 71  1  0  0  0  0
 33 72  1  0  0  0  0
 33 78  2  0  0  0  0
 34 48  1  0  0  0  0
 34 73  1  0  0  0  0
 34 79  2  0  0  0  0
 35 61  1  0  0  0  0
 35 69  1  0  0  0  0
 35 80  2  0  0  0  0
 36 62  1  0  0  0  0
 36 74  1  0  0  0  0
 36 81  2  0  0  0  0
 37 70  1  0  0  0  0
 37 75  1  0  0  0  0
 37 82  2  0  0  0  0
 38 41  1  0  0  0  0
 39 48  1  0  0  0  0
 40 69  1  0  0  0  0
 41 43  1  0  0  0  0
 42 44  1  0  0  0  0
 42 45  1  0  0  0  0
 43 47  1  0  0  0  0
 44 49  1  0  0  0  0
 45 70  1  0  0  0  0
 46 49  1  0  0  0  0
 46 70  1  0  0  0  0
 47 73  1  0  0  0  0
 48 69  1  0  0  0  0
 49 68  1  0  0  0  0
 50 62  1  0  0  0  0
 51 63  1  0  0  0  0
 52 63  1  0  0  0  0
 53 64  1  0  0  0  0
 54 65  1  0  0  0  0
 55 65  1  0  0  0  0
 56 65  1  0  0  0  0
 57 77  1  0  0  0  0
 58 84  1  0  0  0  0
 59 75  1  0  0  0  0
 60 64  1  0  0  0  0
 60 76  1  0  0  0  0
 61 65  1  0  0  0  0
 61 74  1  0  0  0  0
 62 77  1  0  0  0  0
 63 64  1  0  0  0  0
 67 68  1  0  0  0  0
M  CHG  2  76   1  77   1
M  ISO  4  37 100  58 101  75 100  84 101
M  END
> <Batch ID>
0118

> <Smiles>
CNC(C)C(=O)NC(C(=O)N1Cc2cc([101O:1][101CH2:1]c3cnc(C[100NH:0][100C:0](=O)N4CCCC(n5nc(-c6ccc(Oc7ccc(F)cc7F)cc6)c(C(N)=O)c5N)C4)c(C(C)(CN)C(C)C)c3)ccc2CC1C(=O)NC1CCCc2ccccc21)C(C)(C)C

> <Shape>
0.275

> <Color>
0.190

> <Negative vol penalty>
0.000

$$$$

  -OEChem-04052320183D

 83 92  0     1  0  0  0  0  0999 V2000
  -29.3386  -36.4612   21.5754 C   0  0  0  0  0  0  0  0  0  0  0  0
  -29.6700  -35.3970   20.7429 C   0  0  0  0  0  0  0  0  0  0  0  0
  -22.9368   -9.9523   21.5799 C   0  0  0  0  0  0  0  0  0  0  0  0
  -25.0453   -9.2550   20.6284 C   0  0  0  0  0  0  0  0  0  0  0  0
  -28.6497  -36.2263   22.7645 C   0  0  0  0  0  0  0  0  0  0  0  0
  -29.3134  -34.0970   21.0996 C   0  0  0  0  0  0  0  0  0  0  0  0
  -27.3510  -27.8499   18.1947 C   0  0  0  0  0  0  0  0  0  0  0  0
  -27.9432  -21.5011   17.5597 C   0  0  0  0  0  0  0  0  0  0  0  0
  -22.4842   -8.6334   21.5436 C   0  0  0  0  0  0  0  0  0  0  0  0
  -24.5927   -7.9361   20.5921 C   0  0  0  0  0  0  0  0  0  0  0  0
  -27.6909  -26.4979   18.2164 C   0  0  0  0  0  0  0  0  0  0  0  0
  -20.9068   -5.3955   22.0363 C   0  0  0  0  0  0  0  0  0  0  0  0
  -20.2516   -4.9034   23.1651 C   0  0  0  0  0  0  0  0  0  0  0  0
  -28.1719  -20.1403   17.7308 C   0  0  0  0  0  0  0  0  0  0  0  0
  -26.4326  -26.2204   20.2557 C   0  0  0  0  0  0  0  0  0  0  0  0
  -22.2268   -5.3188   24.4928 C   0  0  0  0  0  0  0  0  0  0  0  0
  -29.4838  -21.9285   19.3205 C   0  0  0  0  0  0  0  0  0  0  0  0
  -24.2173  -10.2631   21.1223 C   0  0  0  0  0  0  0  0  0  0  0  0
  -24.1171  -12.7372   20.5086 C   0  0  0  0  0  0  0  0  0  0  0  0
  -28.2760  -34.9238   23.1313 C   0  0  0  0  0  0  0  0  0  0  0  0
  -26.5570  -28.4005   19.2110 C   0  0  0  0  0  0  0  0  0  0  0  0
  -28.6200  -33.8442   22.2954 C   0  0  0  0  0  0  0  0  0  0  0  0
  -26.0819  -27.5790   20.2433 C   0  0  0  0  0  0  0  0  0  0  0  0
  -28.6077  -22.4188   18.3656 C   0  0  0  0  0  0  0  0  0  0  0  0
  -23.3122   -7.6253   21.0497 C   0  0  0  0  0  0  0  0  0  0  0  0
  -27.2342  -25.6836   19.2485 C   0  0  0  0  0  0  0  0  0  0  0  0
  -22.2221   -5.8492   22.1358 C   0  0  0  0  0  0  0  0  0  0  0  0
  -20.9116   -4.8651   24.3933 C   0  0  0  0  0  0  0  0  0  0  0  0
  -22.8821   -5.8109   23.3640 C   0  0  0  0  0  0  0  0  0  0  0  0
  -24.6852  -11.6254   21.1590 C   0  0  0  0  0  0  0  0  0  0  0  0
  -29.0677  -19.7520   18.7140 C   0  0  0  0  0  0  0  0  0  0  0  0
  -24.9268  -13.7901   20.8581 C   0  0  0  0  0  0  0  0  0  0  0  0
  -22.9609  -12.8114   19.6641 C   0  0  0  0  0  0  0  0  0  0  0  0
  -26.9761  -30.6552   21.4119 C   0  0  0  0  0  0  0  0  0  0  0  0
  -23.8284  -30.1275   21.9912 C   0  0  0  0  0  0  0  0  0  0  0  0
  -21.1663  -27.9996   21.8110 C   0  0  0  0  0  0  0  0  0  0  0  0
  -29.9457  -15.9834   21.6674 C   0  0  0  0  0  0  0  0  0  0  0  0
  -27.5738  -34.7140   24.4494 C   0  0  0  0  0  0  0  0  0  0  0  0
  -26.1770  -29.8549   19.1587 C   0  0  0  0  0  0  0  0  0  0  0  0
  -25.2098  -28.1170   21.3472 C   0  0  0  0  0  0  0  0  0  0  0  0
  -26.9037  -33.3479   24.5720 C   0  0  0  0  0  0  0  0  0  0  0  0
  -28.5783  -14.1486   24.3192 C   0  0  0  0  0  0  0  0  0  0  0  0
  -27.8516  -32.2451   24.1115 C   0  0  0  0  0  0  0  0  0  0  0  0
  -27.4078  -13.3982   23.6879 C   0  0  0  0  0  0  0  0  0  0  0  0
  -29.7313  -16.1225   17.9586 C   0  0  0  0  0  0  0  0  0  0  0  0
  -29.7669  -14.1965   23.3680 C   0  0  0  0  0  0  0  0  0  0  0  0
  -29.1574  -17.5089   17.7001 C   0  0  0  0  0  0  0  0  0  0  0  0
  -29.2096  -15.5906   19.2810 C   0  0  0  0  0  0  0  0  0  0  0  0
  -28.2689  -14.0993   21.3952 C   0  0  0  0  0  0  0  0  0  0  0  0
  -29.9301  -17.8650   20.0830 C   0  0  0  0  0  0  0  0  0  0  0  0
  -28.2289  -32.4225   22.6358 C   0  0  1  0  0  0  0  0  0  0  0  0
  -25.7888  -30.4203   20.5215 C   0  0  1  0  0  0  0  0  0  0  0  0
  -27.0413  -14.0075   22.3247 C   0  0  1  0  0  0  0  0  0  0  0  0
  -18.7324  -27.8353   22.3996 C   0  0  0  0  0  0  0  0  0  0  0  0
  -24.5681  -29.6963   24.9199 C   0  0  0  0  0  0  0  0  0  0  0  0
  -22.3288  -28.6282   25.2559 C   0  0  0  0  0  0  0  0  0  0  0  0
  -22.4763  -31.0179   24.5559 C   0  0  0  0  0  0  0  0  0  0  0  0
  -20.3864  -27.6419   18.9786 C   0  0  0  0  0  0  0  0  0  0  0  0
  -28.3838  -23.8807   18.2074 C   0  0  0  0  0  0  0  0  0  1  0  0
  -23.0477  -29.2016   22.8926 C   0  0  1  0  0  0  0  0  0  0  0  0
  -19.7430  -28.2059   21.3252 C   0  0  2  0  0  0  0  0  0  0  0  0
  -23.1233  -29.6260   24.3865 C   0  0  0  0  0  0  0  0  0  0  0  0
  -29.7318  -20.6140   19.5161 N   0  0  0  0  0  0  0  0  0  0  0  0
  -25.7719  -11.9425   21.8679 N   0  0  0  0  0  0  0  0  0  0  0  0
  -25.8932  -13.2654   21.6649 N   0  0  0  0  0  0  0  0  0  0  0  0
  -29.2877  -18.3779   18.8735 N   0  0  3  0  0  0  0  0  0  0  0  0
  -24.8709  -29.5467   21.2553 N   0  0  0  0  0  0  0  0  0  0  0  0
  -29.3950  -14.7592   22.0696 N   0  0  0  0  0  0  0  0  0  0  0  0
  -29.5816  -16.4708   20.3950 N   0  0  0  0  0  0  0  0  0  0  0  0
  -24.8993  -15.1044   20.5508 N   0  0  0  0  0  0  0  0  0  0  0  0
  -23.1284  -12.6301   18.2844 N   0  0  0  0  0  0  0  0  0  0  0  0
  -27.1501  -31.9754   21.7810 N   0  0  0  0  0  0  0  0  0  0  0  0
  -21.6932  -29.1528   22.3530 N   0  0  0  0  0  0  0  0  0  0  0  0
  -19.4794  -27.3664   20.1225 N   0  3  0  0  0  0  0  0  0  0  0  0
  -21.8155  -13.0484   20.1175 O   0  0  0  0  0  0  0  0  0  0  0  0
  -27.6812  -29.7085   21.7410 O   0  0  0  0  0  0  0  0  0  0  0  0
  -23.5197  -31.3205   21.9366 O   0  0  0  0  0  0  0  0  0  0  0  0
  -21.7509  -26.9221   21.7223 O   0  0  0  0  0  0  0  0  0  0  0  0
  -30.7414  -16.5994   22.3888 O   0  0  0  0  0  0  0  0  0  0  0  0
  -22.8710   -6.3382   21.0144 O   0  0  0  0  0  0  0  0  0  0  0  0
  -27.5672  -24.3553   19.2726 O   0  0  0  0  0  0  0  0  0  1  0  0
  -20.2817   -4.3939   25.4775 F   0  0  0  0  0  0  0  0  0  0  0  0
  -24.1453   -6.2464   23.4660 F   0  0  0  0  0  0  0  0  0  0  0  0
  1  2  1  0  0  0  0
  1  5  2  0  0  0  0
  2  6  2  0  0  0  0
  3  9  2  0  0  0  0
  3 18  1  0  0  0  0
  4 10  1  0  0  0  0
  4 18  2  0  0  0  0
  5 20  1  0  0  0  0
  6 22  1  0  0  0  0
  7 11  2  0  0  0  0
  7 21  1  0  0  0  0
  8 14  2  0  0  0  0
  8 24  1  0  0  0  0
  9 25  1  0  0  0  0
 10 25  2  0  0  0  0
 11 26  1  0  0  0  0
 12 13  2  0  0  0  0
 12 27  1  0  0  0  0
 13 28  1  0  0  0  0
 14 31  1  0  0  0  0
 15 23  1  0  0  0  0
 15 26  2  0  0  0  0
 16 28  2  0  0  0  0
 16 29  1  0  0  0  0
 17 24  2  0  0  0  0
 17 63  1  0  0  0  0
 18 30  1  0  0  0  0
 19 30  1  0  0  0  0
 19 32  2  0  0  0  0
 19 33  1  0  0  0  0
 20 22  2  0  0  0  0
 20 38  1  0  0  0  0
 21 23  2  0  0  0  0
 21 39  1  0  0  0  0
 22 51  1  0  0  0  0
 23 40  1  0  0  0  0
 24 59  1  0  0  0  0
 25 80  1  0  0  0  0
 26 81  1  0  0  0  0
 27 29  2  0  0  0  0
 27 80  1  0  0  0  0
 28 82  1  0  0  0  0
 29 83  1  0  0  0  0
 30 64  2  0  0  0  0
 31 63  2  0  0  0  0
 31 66  1  0  0  0  0
 32 65  1  0  0  0  0
 32 70  1  0  0  0  0
 33 71  1  0  0  0  0
 33 75  2  0  0  0  0
 34 52  1  0  0  0  0
 34 72  1  0  0  0  0
 34 76  2  0  0  0  0
 35 60  1  0  0  0  0
 35 67  1  0  0  0  0
 35 77  2  0  0  0  0
 36 61  1  0  0  0  0
 36 73  1  0  0  0  0
 36 78  2  0  0  0  0
 37 68  1  0  0  0  0
 37 69  1  0  0  0  0
 37 79  2  0  0  0  0
 38 41  1  0  0  0  0
 39 52  1  0  0  0  0
 40 67  1  0  0  0  0
 41 43  1  0  0  0  0
 42 44  1  0  0  0  0
 42 46  1  0  0  0  0
 43 51  1  0  0  0  0
 44 53  1  0  0  0  0
 45 47  1  0  0  0  0
 45 48  1  0  0  0  0
 46 68  1  0  0  0  0
 47 66  1  0  0  0  0
 48 69  1  0  0  0  0
 49 53  1  0  0  0  0
 49 68  1  0  0  0  0
 50 66  1  0  0  0  0
 50 69  1  0  0  0  0
 51 72  1  0  0  0  0
 52 67  1  0  0  0  0
 53 65  1  0  0  0  0
 54 61  1  0  0  0  0
 55 62  1  0  0  0  0
 56 62  1  0  0  0  0
 57 62  1  0  0  0  0
 58 74  1  0  0  0  0
 59 81  1  0  0  0  0
 60 62  1  0  0  0  0
 60 73  1  0  0  0  0
 61 74  1  0  0  0  0
 64 65  1  0  0  0  0
M  CHG  1  74   1
M  ISO  4  37 100  59 101  69 100  81 101
M  END
> <Batch ID>
0118

> <Smiles>
CNC(C)C(=O)NC(C(=O)N1Cc2cc([101O:1][101CH2:1]c3ccc(N4CCC[100N:0]([100C:0](=O)N5CCCC(n6nc(-c7ccc(Oc8ccc(F)cc8F)cc7)c(C(N)=O)c6N)C5)C4)nc3)ccc2CC1C(=O)NC1CCCc2ccccc21)C(C)(C)C

> <Shape>
0.301

> <Color>
0.130

> <Negative vol penalty>
0.000

$$$$

  -OEChem-04052320183D

 87 96  0     1  0  0  0  0  0999 V2000
  -15.8343  -27.0669   21.7876 C   0  0  0  0  0  0  0  0  0  0  0  0
  -16.3072  -25.7712   21.6058 C   0  0  0  0  0  0  0  0  0  0  0  0
  -29.3986  -22.7174   21.1999 C   0  0  0  0  0  0  0  0  0  0  0  0
  -28.9461  -22.4291   18.8442 C   0  0  0  0  0  0  0  0  0  0  0  0
  -16.7131  -28.0821   22.1632 C   0  0  0  0  0  0  0  0  0  0  0  0
  -17.6594  -25.4902   21.7983 C   0  0  0  0  0  0  0  0  0  0  0  0
  -20.0625  -20.3258   24.0478 C   0  0  0  0  0  0  0  0  0  0  0  0
  -22.2633  -15.5343   20.2979 C   0  0  0  0  0  0  0  0  0  0  0  0
  -23.4018  -15.2142   22.4047 C   0  0  0  0  0  0  0  0  0  0  0  0
  -23.0041  -14.4928   19.7393 C   0  0  0  0  0  0  0  0  0  0  0  0
  -24.1425  -14.1726   21.8461 C   0  0  0  0  0  0  0  0  0  0  0  0
  -30.0447  -23.9233   20.9282 C   0  0  0  0  0  0  0  0  0  0  0  0
  -29.5922  -23.6351   18.5725 C   0  0  0  0  0  0  0  0  0  0  0  0
  -20.6262  -19.2083   23.4336 C   0  0  0  0  0  0  0  0  0  0  0  0
  -31.4976  -27.2554   20.8939 C   0  0  0  0  0  0  0  0  0  0  0  0
  -31.2064  -28.3461   21.7131 C   0  0  0  0  0  0  0  0  0  0  0  0
  -22.8239  -20.1524   23.7465 C   0  0  0  0  0  0  0  0  0  0  0  0
  -28.8822  -28.2105   21.0674 C   0  0  0  0  0  0  0  0  0  0  0  0
  -28.8493  -21.9703   20.1579 C   0  0  0  0  0  0  0  0  0  0  0  0
  -26.8164  -20.5364   20.7229 C   0  0  0  0  0  0  0  0  0  0  0  0
  -18.0749  -27.8115   22.3698 C   0  0  0  0  0  0  0  0  0  0  0  0
  -20.8758  -21.3718   24.5069 C   0  0  0  0  0  0  0  0  0  0  0  0
  -18.5574  -26.5031   22.1757 C   0  0  0  0  0  0  0  0  0  0  0  0
  -22.2682  -21.2810   24.3685 C   0  0  0  0  0  0  0  0  0  0  0  0
  -22.4622  -15.8951   21.6306 C   0  0  0  0  0  0  0  0  0  0  0  0
  -23.9437  -13.8119   20.5134 C   0  0  0  0  0  0  0  0  0  0  0  0
  -30.1416  -24.3822   19.6146 C   0  0  0  0  0  0  0  0  0  0  0  0
  -22.0068  -19.1228   23.2803 C   0  0  0  0  0  0  0  0  0  0  0  0
  -30.4812  -26.6423   20.1614 C   0  0  0  0  0  0  0  0  0  0  0  0
  -29.8986  -28.8236   21.7999 C   0  0  0  0  0  0  0  0  0  0  0  0
  -29.1735  -27.1198   20.2482 C   0  0  0  0  0  0  0  0  0  0  0  0
  -28.1822  -20.7242   20.4378 C   0  0  0  0  0  0  0  0  0  0  0  0
  -26.6882  -19.1821   20.9124 C   0  0  0  0  0  0  0  0  0  0  0  0
  -25.7582  -21.5001   20.8087 C   0  0  0  0  0  0  0  0  0  0  0  0
  -21.1665  -24.4593   23.8093 C   0  0  0  0  0  0  0  0  0  0  0  0
  -23.2284  -24.4312   26.3132 C   0  0  0  0  0  0  0  0  0  0  0  0
  -25.3399  -22.6393   28.3076 C   0  0  0  0  0  0  0  0  0  0  0  0
  -27.7931  -13.9286   19.3876 C   0  0  0  0  0  0  0  0  0  0  0  0
  -18.9951  -28.9511   22.7292 C   0  0  0  0  0  0  0  0  0  0  0  0
  -20.2542  -22.5582   25.1912 C   0  0  0  0  0  0  0  0  0  0  0  0
  -23.1868  -22.3675   24.8624 C   0  0  0  0  0  0  0  0  0  0  0  0
  -20.3446  -28.4946   23.2777 C   0  0  0  0  0  0  0  0  0  0  0  0
  -30.2045  -15.5814   21.4199 C   0  0  0  0  0  0  0  0  0  0  0  0
  -20.9268  -27.3851   22.4078 C   0  0  0  0  0  0  0  0  0  0  0  0
  -29.7844  -17.0512   21.3638 C   0  0  0  0  0  0  0  0  0  0  0  0
  -24.6140   -9.7178   21.0057 C   0  0  0  0  0  0  0  0  0  0  0  0
  -22.1989   -9.9089   20.2767 C   0  0  0  0  0  0  0  0  0  0  0  0
  -29.9728  -14.8769   20.0850 C   0  0  0  0  0  0  0  0  0  0  0  0
  -28.1825  -16.4649   19.4959 C   0  0  0  0  0  0  0  0  0  0  0  0
  -24.1968   -8.7376   22.0927 C   0  0  0  0  0  0  0  0  0  0  0  0
  -21.8028   -8.9268   21.3698 C   0  0  0  0  0  0  0  0  0  0  0  0
  -20.0128  -26.1538   22.3991 C   0  0  1  0  0  0  0  0  0  0  0  0
  -21.1410  -23.7991   25.1588 C   0  0  1  0  0  0  0  0  0  0  0  0
  -28.3452  -17.2033   20.8356 C   0  0  2  0  0  0  0  0  0  0  0  0
  -23.4693  -10.6675   20.6569 C   0  0  0  0  0  0  0  0  0  0  0  0
  -26.9132  -22.8983   30.2455 C   0  0  0  0  0  0  0  0  0  0  0  0
  -25.2996  -25.6909   24.4603 C   0  0  0  0  0  0  0  0  0  0  0  0
  -27.0661  -25.0543   26.1163 C   0  0  0  0  0  0  0  0  0  0  0  0
  -25.2557  -26.6395   26.7739 C   0  0  0  0  0  0  0  0  0  0  0  0
  -23.7627  -20.7808   29.9861 C   0  0  0  0  0  0  0  0  0  0  0  0
  -21.6658  -17.0154   22.2323 C   0  0  0  0  0  0  0  0  0  1  0  0
  -25.5508  -13.1309   18.6842 C   0  0  0  0  0  0  0  0  0  0  0  0
  -24.7341  -12.6972   19.9158 C   0  0  2  0  0  0  0  0  0  0  0  0
  -24.7096  -24.1890   26.4758 C   0  0  1  0  0  0  0  0  0  0  0  0
  -25.4897  -22.5774   29.8170 C   0  0  2  0  0  0  0  0  0  0  0  0
  -25.5656  -25.3737   25.9454 C   0  0  0  0  0  0  0  0  0  0  0  0
  -28.8723  -19.5806   20.4446 N   0  0  0  0  0  0  0  0  0  0  0  0
  -27.9364  -18.6613   20.7364 N   0  0  0  0  0  0  0  0  0  0  0  0
  -22.5306  -23.5102   25.5191 N   0  0  0  0  0  0  0  0  0  0  0  0
  -28.5887  -15.0582   19.6407 N   0  0  0  0  0  0  0  0  0  0  0  0
  -25.6307  -18.3978   21.2107 N   0  0  0  0  0  0  0  0  0  0  0  0
  -26.0638  -22.8496   20.5857 N   0  0  0  0  0  0  0  0  0  0  0  0
  -20.1703  -25.3988   23.6238 N   0  0  0  0  0  0  0  0  0  0  0  0
  -24.9209  -23.8837   27.8866 N   0  0  0  0  0  0  0  0  0  0  0  0
  -26.4917  -14.1892   18.9765 N   0  0  0  0  0  0  0  0  0  0  0  0
  -22.9569   -8.0230   21.6614 N   0  3  0  0  0  0  0  0  0  0  0  0
  -23.8822  -11.5226   19.5133 N   0  3  0  0  0  0  0  0  0  0  0  0
  -25.1441  -21.2165   30.3164 N   0  3  0  0  0  0  0  0  0  0  0  0
  -24.5799  -21.1760   21.0915 O   0  0  0  0  0  0  0  0  0  0  0  0
  -22.0270  -24.1409   22.9971 O   0  0  0  0  0  0  0  0  0  0  0  0
  -22.7084  -25.3978   26.8762 O   0  0  0  0  0  0  0  0  0  0  0  0
  -25.5749  -21.6809   27.5750 O   0  0  0  0  0  0  0  0  0  0  0  0
  -28.2100  -12.7733   19.5236 O   0  0  0  0  0  0  0  0  0  0  0  0
  -30.7718  -25.5590   19.3491 O   0  0  0  0  0  0  0  0  0  0  0  0
  -22.5596  -18.0334   22.6807 O   0  0  0  0  0  0  0  0  0  1  0  0
  -29.6188  -29.8701   22.5878 F   0  0  0  0  0  0  0  0  0  0  0  0
  -28.1926  -26.5341   19.5478 F   0  0  0  0  0  0  0  0  0  0  0  0
  1  2  1  0  0  0  0
  1  5  2  0  0  0  0
  2  6  2  0  0  0  0
  3 12  2  0  0  0  0
  3 19  1  0  0  0  0
  4 13  1  0  0  0  0
  4 19  2  0  0  0  0
  5 21  1  0  0  0  0
  6 23  1  0  0  0  0
  7 14  2  0  0  0  0
  7 22  1  0  0  0  0
  8 10  2  0  0  0  0
  8 25  1  0  0  0  0
  9 11  1  0  0  0  0
  9 25  2  0  0  0  0
 10 26  1  0  0  0  0
 11 26  2  0  0  0  0
 12 27  1  0  0  0  0
 13 27  2  0  0  0  0
 14 28  1  0  0  0  0
 15 16  2  0  0  0  0
 15 29  1  0  0  0  0
 16 30  1  0  0  0  0
 17 24  1  0  0  0  0
 17 28  2  0  0  0  0
 18 30  2  0  0  0  0
 18 31  1  0  0  0  0
 19 32  1  0  0  0  0
 20 32  1  0  0  0  0
 20 33  2  0  0  0  0
 20 34  1  0  0  0  0
 21 23  2  0  0  0  0
 21 39  1  0  0  0  0
 22 24  2  0  0  0  0
 22 40  1  0  0  0  0
 23 52  1  0  0  0  0
 24 41  1  0  0  0  0
 25 61  1  0  0  0  0
 26 63  1  0  0  0  0
 27 84  1  0  0  0  0
 28 85  1  0  0  0  0
 29 31  2  0  0  0  0
 29 84  1  0  0  0  0
 30 86  1  0  0  0  0
 31 87  1  0  0  0  0
 32 67  2  0  0  0  0
 33 68  1  0  0  0  0
 33 71  1  0  0  0  0
 34 72  1  0  0  0  0
 34 79  2  0  0  0  0
 35 53  1  0  0  0  0
 35 73  1  0  0  0  0
 35 80  2  0  0  0  0
 36 64  1  0  0  0  0
 36 69  1  0  0  0  0
 36 81  2  0  0  0  0
 37 65  1  0  0  0  0
 37 74  1  0  0  0  0
 37 82  2  0  0  0  0
 38 70  1  0  0  0  0
 38 75  1  0  0  0  0
 38 83  2  0  0  0  0
 39 42  1  0  0  0  0
 40 53  1  0  0  0  0
 41 69  1  0  0  0  0
 42 44  1  0  0  0  0
 43 45  1  0  0  0  0
 43 48  1  0  0  0  0
 44 52  1  0  0  0  0
 45 54  1  0  0  0  0
 46 50  1  0  0  0  0
 46 55  1  0  0  0  0
 47 51  1  0  0  0  0
 47 55  1  0  0  0  0
 48 70  1  0  0  0  0
 49 54  1  0  0  0  0
 49 70  1  0  0  0  0
 50 76  1  0  0  0  0
 51 76  1  0  0  0  0
 52 73  1  0  0  0  0
 53 69  1  0  0  0  0
 54 68  1  0  0  0  0
 55 77  1  0  0  0  0
 56 65  1  0  0  0  0
 57 66  1  0  0  0  0
 58 66  1  0  0  0  0
 59 66  1  0  0  0  0
 60 78  1  0  0  0  0
 61 85  1  0  0  0  0
 62 63  1  0  0  0  0
 62 75  1  0  0  0  0
 63 77  1  0  0  0  0
 64 66  1  0  0  0  0
 64 74  1  0  0  0  0
 65 78  1  0  0  0  0
 67 68  1  0  0  0  0
M  CHG  3  76   1  77   1  78   1
M  ISO  4  38 100  61 101  75 100  85 101
M  END
> <Batch ID>
0118

> <Smiles>
CNC(C)C(=O)NC(C(=O)N1Cc2cc([101O:1][101CH2:1]c3ccc(C(C[100NH:0][100C:0](=O)N4CCCC(n5nc(-c6ccc(Oc7ccc(F)cc7F)cc6)c(C(N)=O)c5N)C4)NC4CCNCC4)cc3)ccc2CC1C(=O)NC1CCCc2ccccc21)C(C)(C)C

> <Shape>
0.242

> <Color>
0.058

> <Negative vol penalty>
0.000

$$$$

  -OEChem-04052320183D

 84 92  0     1  0  0  0  0  0999 V2000
  -21.7268  -12.3611   19.8597 C   0  0  0  0  0  0  0  0  0  0  0  0
  -21.6854  -13.6785   20.3048 C   0  0  0  0  0  0  0  0  0  0  0  0
  -26.2037  -26.5437   20.7392 C   0  0  0  0  0  0  0  0  0  0  0  0
  -24.4889  -26.9374   19.0834 C   0  0  0  0  0  0  0  0  0  0  0  0
  -22.9307  -11.6580   19.8777 C   0  0  0  0  0  0  0  0  0  0  0  0
  -22.8476  -14.2932   20.7692 C   0  0  0  0  0  0  0  0  0  0  0  0
  -23.4185  -18.9881   18.9589 C   0  0  0  0  0  0  0  0  0  0  0  0
  -26.3781  -25.2489   20.2507 C   0  0  0  0  0  0  0  0  0  0  0  0
  -24.6633  -25.6426   18.5949 C   0  0  0  0  0  0  0  0  0  0  0  0
  -22.6578  -19.9956   19.5506 C   0  0  0  0  0  0  0  0  0  0  0  0
  -24.9094  -22.5626   16.6789 C   0  0  0  0  0  0  0  0  0  0  0  0
  -24.9750  -22.3938   15.2958 C   0  0  0  0  0  0  0  0  0  0  0  0
  -24.5716  -20.6644   20.8580 C   0  0  0  0  0  0  0  0  0  0  0  0
  -26.9101  -23.8379   15.2114 C   0  0  0  0  0  0  0  0  0  0  0  0
  -25.2590  -27.3880   20.1556 C   0  0  0  0  0  0  0  0  0  0  0  0
  -25.7491  -29.8900   20.2417 C   0  0  0  0  0  0  0  0  0  0  0  0
  -24.1102  -12.2675   20.3335 C   0  0  0  0  0  0  0  0  0  0  0  0
  -24.7607  -18.8039   19.3208 C   0  0  0  0  0  0  0  0  0  0  0  0
  -24.0681  -13.5972   20.7945 C   0  0  0  0  0  0  0  0  0  0  0  0
  -25.3479  -19.6555   20.2675 C   0  0  0  0  0  0  0  0  0  0  0  0
  -25.6080  -24.7984   19.1786 C   0  0  0  0  0  0  0  0  0  0  0  0
  -23.2335  -20.8321   20.5024 C   0  0  0  0  0  0  0  0  0  0  0  0
  -25.8441  -23.3691   17.3282 C   0  0  0  0  0  0  0  0  0  0  0  0
  -25.9754  -23.0315   14.5621 C   0  0  0  0  0  0  0  0  0  0  0  0
  -26.8445  -24.0067   16.5945 C   0  0  0  0  0  0  0  0  0  0  0  0
  -25.0780  -28.7254   20.6602 C   0  0  0  0  0  0  0  0  0  0  0  0
  -25.2227  -30.8893   21.0232 C   0  0  0  0  0  0  0  0  0  0  0  0
  -26.7582  -30.0538   19.2363 C   0  0  0  0  0  0  0  0  0  0  0  0
  -26.4220  -16.4416   20.6486 C   0  0  0  0  0  0  0  0  0  0  0  0
  -28.9442  -18.3792   20.0106 C   0  0  0  0  0  0  0  0  0  0  0  0
  -30.0976  -21.5396   19.4381 C   0  0  0  0  0  0  0  0  0  0  0  0
  -21.4191  -27.9323   23.7155 C   0  0  0  0  0  0  0  0  0  0  0  0
  -25.3782  -11.4521   20.3784 C   0  0  0  0  0  0  0  0  0  0  0  0
  -25.5752  -17.7297   18.6537 C   0  0  0  0  0  0  0  0  0  0  0  0
  -26.7905  -19.5124   20.6760 C   0  0  0  0  0  0  0  0  0  0  0  0
  -26.6402  -12.2966   20.5349 C   0  0  0  0  0  0  0  0  0  0  0  0
  -24.1394  -29.8186   25.0605 C   0  0  0  0  0  0  0  0  0  0  0  0
  -17.9510  -28.2520   22.7057 C   0  0  0  0  0  0  0  0  0  0  0  0
  -26.4515  -13.3406   21.6309 C   0  0  0  0  0  0  0  0  0  0  0  0
  -24.1821  -31.0930   24.2248 C   0  0  0  0  0  0  0  0  0  0  0  0
  -18.3239  -27.0220   21.8902 C   0  0  0  0  0  0  0  0  0  0  0  0
  -22.7039  -29.3604   25.2661 C   0  0  0  0  0  0  0  0  0  0  0  0
  -19.2781  -28.9846   22.8278 C   0  0  0  0  0  0  0  0  0  0  0  0
  -22.0306  -30.3212   23.0730 C   0  0  0  0  0  0  0  0  0  0  0  0
  -25.3127  -14.3066   21.2824 C   0  0  1  0  0  0  0  0  0  0  0  0
  -26.7889  -17.3039   19.4741 C   0  0  1  0  0  0  0  0  0  0  0  0
  -23.4320  -30.9486   22.8910 C   0  0  2  0  0  0  0  0  0  0  0  0
  -19.7097  -26.6518   22.4261 C   0  0  1  0  0  0  0  0  0  0  0  0
  -31.7324  -23.3512   18.8525 C   0  0  0  0  0  0  0  0  0  0  0  0
  -19.0501  -22.0817   22.6222 C   0  0  0  0  0  0  0  0  0  0  0  0
  -20.7271  -28.0354   19.7723 C   0  0  0  0  0  0  0  0  0  0  0  0
  -29.7199  -18.1290   22.9510 C   0  0  0  0  0  0  0  0  0  0  0  0
  -31.2135  -20.1162   22.6540 C   0  0  0  0  0  0  0  0  0  0  0  0
  -31.6413  -18.0311   21.3533 C   0  0  0  0  0  0  0  0  0  0  0  0
  -29.5155  -21.2905   16.5471 C   0  0  0  0  0  0  0  0  0  0  0  0
  -20.9281  -23.7906   22.4718 C   0  0  0  0  0  0  0  0  0  0  0  0
  -21.0928  -21.5793   21.2199 C   0  0  0  0  0  0  0  0  0  1  0  0
  -29.6598  -19.4819   20.7528 C   0  0  1  0  0  0  0  0  0  0  0  0
  -31.0210  -22.0968   18.3697 C   0  0  2  0  0  0  0  0  0  0  0  0
  -20.5771  -25.9985   21.3579 C   0  0  2  0  0  0  0  0  0  0  0  0
  -20.5584  -22.3028   22.4623 C   0  0  2  0  0  0  0  0  0  0  0  0
  -20.3997  -26.5493   19.9277 C   0  0  2  0  0  0  0  0  0  0  0  0
  -30.5309  -18.9413   21.9217 C   0  0  0  0  0  0  0  0  0  0  0  0
  -24.1929  -28.9615   21.6322 N   0  0  0  0  0  0  0  0  0  0  0  0
  -24.3043  -30.2860   21.8311 N   0  0  0  0  0  0  0  0  0  0  0  0
  -27.5436  -18.4432   19.9999 N   0  0  0  0  0  0  0  0  0  0  0  0
  -22.0006  -29.1776   23.9962 N   0  0  0  0  0  0  0  0  0  0  0  0
  -20.2738  -27.9153   22.9162 N   0  0  0  0  0  0  0  0  0  0  0  0
  -25.4606  -32.2164   21.0914 N   0  0  0  0  0  0  0  0  0  0  0  0
  -27.1844  -28.9227   18.5270 N   0  0  0  0  0  0  0  0  0  0  0  0
  -21.2389  -25.7886   18.9966 N   0  0  0  0  0  0  0  0  0  0  0  0
  -25.7560  -15.2799   20.3075 N   0  0  0  0  0  0  0  0  0  0  0  0
  -30.4063  -20.2321   19.7487 N   0  0  0  0  0  0  0  0  0  0  0  0
  -30.2471  -22.4381   17.1428 N   0  3  0  0  0  0  0  0  0  0  0  0
  -20.2826  -24.5336   21.3611 N   0  3  0  0  0  0  0  0  0  0  0  0
  -27.2784  -31.1675   18.9862 O   0  0  0  0  0  0  0  0  0  0  0  0
  -26.7224  -16.8028   21.7805 O   0  0  0  0  0  0  0  0  0  0  0  0
  -29.6038  -17.4975   19.4546 O   0  0  0  0  0  0  0  0  0  0  0  0
  -29.1954  -22.1996   19.9489 O   0  0  0  0  0  0  0  0  0  0  0  0
  -21.8957  -26.8826   24.1671 O   0  0  0  0  0  0  0  0  0  0  0  0
  -25.7781  -23.5350   18.7015 O   0  0  0  0  0  0  0  0  0  0  0  0
  -22.4881  -21.8224   21.0859 O   0  0  0  0  0  0  0  0  0  1  0  0
  -26.0392  -22.8681   13.2342 F   0  0  0  0  0  0  0  0  0  0  0  0
  -27.7460  -24.7818   17.2129 F   0  0  0  0  0  0  0  0  0  0  0  0
  1  2  1  0  0  0  0
  1  5  2  0  0  0  0
  2  6  2  0  0  0  0
  3  8  2  0  0  0  0
  3 15  1  0  0  0  0
  4  9  1  0  0  0  0
  4 15  2  0  0  0  0
  5 17  1  0  0  0  0
  6 19  1  0  0  0  0
  7 10  2  0  0  0  0
  7 18  1  0  0  0  0
  8 21  1  0  0  0  0
  9 21  2  0  0  0  0
 10 22  1  0  0  0  0
 11 12  2  0  0  0  0
 11 23  1  0  0  0  0
 12 24  1  0  0  0  0
 13 20  1  0  0  0  0
 13 22  2  0  0  0  0
 14 24  2  0  0  0  0
 14 25  1  0  0  0  0
 15 26  1  0  0  0  0
 16 26  1  0  0  0  0
 16 27  2  0  0  0  0
 16 28  1  0  0  0  0
 17 19  2  0  0  0  0
 17 33  1  0  0  0  0
 18 20  2  0  0  0  0
 18 34  1  0  0  0  0
 19 45  1  0  0  0  0
 20 35  1  0  0  0  0
 21 81  1  0  0  0  0
 22 82  1  0  0  0  0
 23 25  2  0  0  0  0
 23 81  1  0  0  0  0
 24 83  1  0  0  0  0
 25 84  1  0  0  0  0
 26 64  2  0  0  0  0
 27 65  1  0  0  0  0
 27 69  1  0  0  0  0
 28 70  1  0  0  0  0
 28 76  2  0  0  0  0
 29 46  1  0  0  0  0
 29 72  1  0  0  0  0
 29 77  2  0  0  0  0
 30 58  1  0  0  0  0
 30 66  1  0  0  0  0
 30 78  2  0  0  0  0
 31 59  1  0  0  0  0
 31 73  1  0  0  0  0
 31 79  2  0  0  0  0
 32 67  1  0  0  0  0
 32 68  1  0  0  0  0
 32 80  2  0  0  0  0
 33 36  1  0  0  0  0
 34 46  1  0  0  0  0
 35 66  1  0  0  0  0
 36 39  1  0  0  0  0
 37 40  1  0  0  0  0
 37 42  1  0  0  0  0
 38 41  1  0  0  0  0
 38 43  1  0  0  0  0
 39 45  1  0  0  0  0
 40 47  1  0  0  0  0
 41 48  1  0  0  0  0
 42 67  1  0  0  0  0
 43 68  1  0  0  0  0
 44 47  1  0  0  0  0
 44 67  1  0  0  0  0
 45 72  1  0  0  0  0
 46 66  1  0  0  0  0
 47 65  1  0  0  0  0
 48 60  1  0  0  0  0
 48 68  1  0  0  0  0
 49 59  1  0  0  0  0
 50 61  1  0  0  0  0
 51 62  1  0  0  0  0
 52 63  1  0  0  0  0
 53 63  1  0  0  0  0
 54 63  1  0  0  0  0
 55 74  1  0  0  0  0
 56 61  1  0  0  0  0
 56 75  1  0  0  0  0
 57 61  1  0  0  0  0
 57 82  1  0  0  0  0
 58 63  1  0  0  0  0
 58 73  1  0  0  0  0
 59 74  1  0  0  0  0
 60 62  1  0  0  0  0
 60 75  1  0  0  0  0
 62 71  1  0  0  0  0
 64 65  1  0  0  0  0
M  CHG  2  74   1  75   1
M  ISO  4  32 100  57 101  68 100  82 101
M  END
> <Batch ID>
0118

> <Smiles>
CNC(C)C(=O)NC(C(=O)N1Cc2cc([101O:1][101CH2:1]C(C)CNC(C(C)N)C3CCC[100N:0]3[100C:0](=O)N3CCCC(n4nc(-c5ccc(Oc6ccc(F)cc6F)cc5)c(C(N)=O)c4N)C3)ccc2CC1C(=O)NC1CCCc2ccccc21)C(C)(C)C

> <Shape>
0.235

> <Color>
0.079

> <Negative vol penalty>
0.000

$$$$

  -OEChem-04052320183D

 95105  0     1  0  0  0  0  0999 V2000
  -40.1212  -26.0721   11.4160 C   0  0  0  0  0  0  0  0  0  0  0  0
  -40.5060  -25.8522   12.7347 C   0  0  0  0  0  0  0  0  0  0  0  0
  -23.1077   -9.7619   20.1063 C   0  0  0  0  0  0  0  0  0  0  0  0
  -23.7912  -10.0278   22.4083 C   0  0  0  0  0  0  0  0  0  0  0  0
  -38.9727  -26.8130   11.1404 C   0  0  0  0  0  0  0  0  0  0  0  0
  -39.7430  -26.3742   13.7787 C   0  0  0  0  0  0  0  0  0  0  0  0
  -36.8743  -22.0663   18.7891 C   0  0  0  0  0  0  0  0  0  0  0  0
  -22.3871   -8.6188   20.4523 C   0  0  0  0  0  0  0  0  0  0  0  0
  -23.0706   -8.8848   22.7543 C   0  0  0  0  0  0  0  0  0  0  0  0
  -36.4685  -21.3304   19.9026 C   0  0  0  0  0  0  0  0  0  0  0  0
  -23.4685   -5.5333   22.5541 C   0  0  0  0  0  0  0  0  0  0  0  0
  -24.0872   -4.6063   23.3927 C   0  0  0  0  0  0  0  0  0  0  0  0
  -35.4454  -23.3065   20.8492 C   0  0  0  0  0  0  0  0  0  0  0  0
  -22.3265   -4.9036   25.0203 C   0  0  0  0  0  0  0  0  0  0  0  0
  -23.8098  -10.4664   21.0843 C   0  0  0  0  0  0  0  0  0  0  0  0
  -24.0877  -12.9749   20.7130 C   0  0  0  0  0  0  0  0  0  0  0  0
  -38.1900  -27.3361   12.1816 C   0  0  0  0  0  0  0  0  0  0  0  0
  -36.5533  -23.4233   18.6941 C   0  0  0  0  0  0  0  0  0  0  0  0
  -38.5837  -27.1239   13.5167 C   0  0  0  0  0  0  0  0  0  0  0  0
  -35.8383  -24.0459   19.7304 C   0  0  0  0  0  0  0  0  0  0  0  0
  -22.3685   -8.1803   21.7763 C   0  0  0  0  0  0  0  0  0  0  0  0
  -35.7561  -21.9490   20.9302 C   0  0  0  0  0  0  0  0  0  0  0  0
  -22.2788   -6.1455   22.9485 C   0  0  0  0  0  0  0  0  0  0  0  0
  -23.5163   -4.2914   24.6258 C   0  0  0  0  0  0  0  0  0  0  0  0
  -21.7078   -5.8306   24.1815 C   0  0  0  0  0  0  0  0  0  0  0  0
  -24.5548  -11.6469   20.7275 C   0  0  0  0  0  0  0  0  0  0  0  0
  -25.1708  -13.7154   20.3067 C   0  0  0  0  0  0  0  0  0  0  0  0
  -22.7908  -13.4927   21.0378 C   0  0  0  0  0  0  0  0  0  0  0  0
  -36.7513  -26.5819   16.6792 C   0  0  0  0  0  0  0  0  0  0  0  0
  -30.7165  -20.3897   24.2927 C   0  0  0  0  0  0  0  0  0  0  0  0
  -33.9323  -26.4686   17.8839 C   0  0  0  0  0  0  0  0  0  0  0  0
  -30.8066  -25.7587   19.0513 C   0  0  0  0  0  0  0  0  0  0  0  0
  -30.6162  -14.9125   20.5524 C   0  0  0  0  0  0  0  0  0  0  0  0
  -36.9829  -28.1707   11.8336 C   0  0  0  0  0  0  0  0  0  0  0  0
  -37.0230  -24.2692   17.5419 C   0  0  0  0  0  0  0  0  0  0  0  0
  -35.5455  -25.5158   19.6015 C   0  0  0  0  0  0  0  0  0  0  0  0
  -36.0234  -28.3717   13.0038 C   0  0  0  0  0  0  0  0  0  0  0  0
  -29.6219  -12.2619   18.3932 C   0  0  0  0  0  0  0  0  0  0  0  0
  -36.7914  -28.7599   14.2632 C   0  0  0  0  0  0  0  0  0  0  0  0
  -37.6712  -21.6112   24.1702 C   0  0  0  0  0  0  0  0  0  0  0  0
  -36.8426  -22.1480   25.3037 C   0  0  0  0  0  0  0  0  0  0  0  0
  -28.1794  -11.9713   18.8110 C   0  0  0  0  0  0  0  0  0  0  0  0
  -30.5737  -22.0514   26.9643 C   0  0  0  0  0  0  0  0  0  0  0  0
  -30.8036  -23.5456   27.0771 C   0  0  0  0  0  0  0  0  0  0  0  0
  -31.3913  -17.1097   22.8593 C   0  0  0  0  0  0  0  0  0  0  0  0
  -29.5343  -18.2929   21.6266 C   0  0  0  0  0  0  0  0  0  0  0  0
  -30.4928  -12.6326   19.5916 C   0  0  0  0  0  0  0  0  0  0  0  0
  -31.9889  -18.4698   23.2169 C   0  0  0  0  0  0  0  0  0  0  0  0
  -30.1705  -19.6287   22.0045 C   0  0  0  0  0  0  0  0  0  0  0  0
  -28.5276  -13.4452   20.8372 C   0  0  0  0  0  0  0  0  0  0  0  0
  -37.7685  -27.6527   14.6769 C   0  0  1  0  0  0  0  0  0  0  0  0
  -36.0135  -25.3607   17.1436 C   0  0  1  0  0  0  0  0  0  0  0  0
  -36.2015  -21.3015   24.2392 C   0  0  0  0  0  0  0  0  0  0  0  0
  -27.5977  -13.1211   19.6554 C   0  0  2  0  0  0  0  0  0  0  0  0
  -30.5837  -17.1800   21.5606 C   0  0  0  0  0  0  0  0  0  0  0  0
  -31.7961  -21.5826   26.1908 C   0  0  1  0  0  0  0  0  0  0  0  0
  -31.3458  -23.9535   25.7098 C   0  0  2  0  0  0  0  0  0  0  0  0
  -31.0139  -19.2104   26.4729 C   0  0  0  0  0  0  0  0  0  0  0  0
  -28.4772  -26.6883   19.1355 C   0  0  0  0  0  0  0  0  0  0  0  0
  -29.4846  -25.5915   25.3138 C   0  0  0  0  0  0  0  0  0  0  0  0
  -30.8619  -24.7654   23.3839 C   0  0  0  0  0  0  0  0  0  0  0  0
  -34.8002  -28.4379   20.0455 C   0  0  0  0  0  0  0  0  0  0  0  0
  -32.4012  -28.6282   20.7357 C   0  0  0  0  0  0  0  0  0  0  0  0
  -33.0975  -29.3287   18.4450 C   0  0  0  0  0  0  0  0  0  0  0  0
  -29.7058  -23.4467   17.5674 C   0  0  0  0  0  0  0  0  0  0  0  0
  -33.7886  -21.8359   23.7003 C   0  0  0  0  0  0  0  0  0  0  0  0
  -33.4268  -22.8768   24.7504 C   0  0  0  0  0  0  0  0  0  0  0  0
  -31.5990  -20.2419   25.5066 C   0  0  1  0  0  0  0  0  0  0  0  0
  -33.0254  -26.8679   19.0203 C   0  0  1  0  0  0  0  0  0  0  0  0
  -29.4469  -25.7953   18.3772 C   0  0  2  0  0  0  0  0  0  0  0  0
  -35.2519  -21.9178   23.2545 C   0  0  2  0  0  0  0  0  0  1  0  0
  -30.2602  -24.4049   24.7419 C   0  0  0  0  0  0  0  0  0  0  0  0
  -33.3440  -28.2903   19.5611 C   0  0  0  0  0  0  0  0  0  0  0  0
  -25.8349  -11.5466   20.3595 N   0  0  0  0  0  0  0  0  0  0  0  0
  -26.1813  -12.8208   20.1099 N   0  0  0  0  0  0  0  0  0  0  0  0
  -35.1287  -25.8262   18.2251 N   0  0  0  0  0  0  0  0  0  0  0  0
  -30.9545  -19.5112   23.2354 N   0  0  0  0  0  0  0  0  0  0  0  0
  -29.8861  -13.7299   20.3491 N   0  0  0  0  0  0  0  0  0  0  0  0
  -25.3478  -15.0380   20.1021 N   0  0  0  0  0  0  0  0  0  0  0  0
  -21.7930  -12.5932   21.4372 N   0  0  0  0  0  0  0  0  0  0  0  0
  -37.0614  -26.5737   15.3326 N   0  0  0  0  0  0  0  0  0  0  0  0
  -31.6610  -26.7069   18.5296 N   0  0  0  0  0  0  0  0  0  0  0  0
  -29.9650  -15.9047   21.2751 N   0  0  0  0  0  0  0  0  0  0  0  0
  -31.9971  -22.6825   25.1583 N   0  3  1  0  0  0  0  0  0  0  0  0
  -28.8666  -24.4245   18.3068 N   0  3  0  0  0  0  0  0  0  0  0  0
  -22.5200  -14.7151   20.9599 O   0  0  0  0  0  0  0  0  0  0  0  0
  -37.0188  -27.4680   17.4822 O   0  0  0  0  0  0  0  0  0  0  0  0
  -29.8407  -21.2587   24.2872 O   0  0  0  0  0  0  0  0  0  0  0  0
  -33.5944  -26.7233   16.7245 O   0  0  0  0  0  0  0  0  0  0  0  0
  -31.0819  -24.9705   19.9532 O   0  0  0  0  0  0  0  0  0  0  0  0
  -31.7613  -15.0744   20.1172 O   0  0  0  0  0  0  0  0  0  0  0  0
  -21.6653   -7.0650   22.1143 O   0  0  0  0  0  0  0  0  0  0  0  0
  -35.3592  -21.2236   22.0123 O   0  0  0  0  0  0  0  0  0  1  0  0
  -24.1097   -3.4000   25.4305 F   0  0  0  0  0  0  0  0  0  0  0  0
  -20.5644   -6.4146   24.5654 F   0  0  0  0  0  0  0  0  0  0  0  0
  1  2  1  0  0  0  0
  1  5  2  0  0  0  0
  2  6  2  0  0  0  0
  3  8  2  0  0  0  0
  3 15  1  0  0  0  0
  4  9  1  0  0  0  0
  4 15  2  0  0  0  0
  5 17  1  0  0  0  0
  6 19  1  0  0  0  0
  7 10  2  0  0  0  0
  7 18  1  0  0  0  0
  8 21  1  0  0  0  0
  9 21  2  0  0  0  0
 10 22  1  0  0  0  0
 11 12  2  0  0  0  0
 11 23  1  0  0  0  0
 12 24  1  0  0  0  0
 13 20  1  0  0  0  0
 13 22  2  0  0  0  0
 14 24  2  0  0  0  0
 14 25  1  0  0  0  0
 15 26  1  0  0  0  0
 16 26  1  0  0  0  0
 16 27  2  0  0  0  0
 16 28  1  0  0  0  0
 17 19  2  0  0  0  0
 17 34  1  0  0  0  0
 18 20  2  0  0  0  0
 18 35  1  0  0  0  0
 19 51  1  0  0  0  0
 20 36  1  0  0  0  0
 21 92  1  0  0  0  0
 22 93  1  0  0  0  0
 23 25  2  0  0  0  0
 23 92  1  0  0  0  0
 24 94  1  0  0  0  0
 25 95  1  0  0  0  0
 26 74  2  0  0  0  0
 27 75  1  0  0  0  0
 27 79  1  0  0  0  0
 28 80  1  0  0  0  0
 28 86  2  0  0  0  0
 29 52  1  0  0  0  0
 29 81  1  0  0  0  0
 29 87  2  0  0  0  0
 30 68  1  0  0  0  0
 30 77  1  0  0  0  0
 30 88  2  0  0  0  0
 31 69  1  0  0  0  0
 31 76  1  0  0  0  0
 31 89  2  0  0  0  0
 32 70  1  0  0  0  0
 32 82  1  0  0  0  0
 32 90  2  0  0  0  0
 33 78  1  0  0  0  0
 33 83  1  0  0  0  0
 33 91  2  0  0  0  0
 34 37  1  0  0  0  0
 35 52  1  0  0  0  0
 36 76  1  0  0  0  0
 37 39  1  0  0  0  0
 38 42  1  0  0  0  0
 38 47  1  0  0  0  0
 39 51  1  0  0  0  0
 40 41  1  0  0  0  0
 40 53  1  0  0  0  0
 41 53  1  0  0  0  0
 42 54  1  0  0  0  0
 43 44  1  0  0  0  0
 43 56  1  0  0  0  0
 44 57  1  0  0  0  0
 45 48  1  0  0  0  0
 45 55  1  0  0  0  0
 46 49  1  0  0  0  0
 46 55  1  0  0  0  0
 47 78  1  0  0  0  0
 48 77  1  0  0  0  0
 49 77  1  0  0  0  0
 50 54  1  0  0  0  0
 50 78  1  0  0  0  0
 51 81  1  0  0  0  0
 52 76  1  0  0  0  0
 53 71  1  0  0  0  0
 54 75  1  0  0  0  0
 55 83  1  0  0  0  0
 56 68  1  0  0  0  0
 56 84  1  0  0  0  0
 57 72  1  0  0  0  0
 57 84  1  0  0  0  0
 58 68  1  0  0  0  0
 59 70  1  0  0  0  0
 60 72  1  0  0  0  0
 61 72  1  0  0  0  0
 62 73  1  0  0  0  0
 63 73  1  0  0  0  0
 64 73  1  0  0  0  0
 65 85  1  0  0  0  0
 66 67  1  0  0  0  0
 66 71  1  0  0  0  0
 67 84  1  0  0  0  0
 69 73  1  0  0  0  0
 69 82  1  0  0  0  0
 70 85  1  0  0  0  0
 71 93  1  0  0  0  0
 74 75  1  0  0  0  0
M  CHG  2  84   1  85   1
M  ISO  4  33 100  71 101  83 100  93 101
M  END
> <Batch ID>
0118

> <Smiles>
CNC(C)C(=O)NC(C(=O)N1Cc2cc([101O:1][101CH:1](CCN3C(C(C)C)CCC3C(C)C(=O)N3CCC([100NH:0][100C:0](=O)N4CCCC(n5nc(-c6ccc(Oc7ccc(F)cc7F)cc6)c(C(N)=O)c5N)C4)CC3)C3CC3)ccc2CC1C(=O)NC1CCCc2ccccc21)C(C)(C)C

> <Shape>
0.204

> <Color>
0.185

> <Negative vol penalty>
0.000

$$$$

  -OEChem-04052320183D

 83 91  0     1  0  0  0  0  0999 V2000
  -27.6913  -10.4788   16.9220 C   0  0  0  0  0  0  0  0  0  0  0  0
  -26.6644  -11.4170   16.9479 C   0  0  0  0  0  0  0  0  0  0  0  0
  -26.1619  -31.1913   22.3260 C   0  0  0  0  0  0  0  0  0  0  0  0
  -26.9611  -31.8173   20.1336 C   0  0  0  0  0  0  0  0  0  0  0  0
  -28.8121  -10.6511   17.7331 C   0  0  0  0  0  0  0  0  0  0  0  0
  -26.7574  -12.5277   17.7859 C   0  0  0  0  0  0  0  0  0  0  0  0
  -24.6615  -18.1717   16.6641 C   0  0  0  0  0  0  0  0  0  0  0  0
  -26.1229  -32.5356   22.6957 C   0  0  0  0  0  0  0  0  0  0  0  0
  -26.9220  -33.1618   20.5033 C   0  0  0  0  0  0  0  0  0  0  0  0
  -23.5000  -18.8360   17.0556 C   0  0  0  0  0  0  0  0  0  0  0  0
  -28.3149  -34.9122   23.6813 C   0  0  0  0  0  0  0  0  0  0  0  0
  -28.8328  -35.2554   24.9301 C   0  0  0  0  0  0  0  0  0  0  0  0
  -24.7013  -19.8431   18.8892 C   0  0  0  0  0  0  0  0  0  0  0  0
  -26.6759  -36.1242   25.5858 C   0  0  0  0  0  0  0  0  0  0  0  0
  -26.5811  -30.8321   21.0449 C   0  0  0  0  0  0  0  0  0  0  0  0
  -27.3777  -28.4185   21.2630 C   0  0  0  0  0  0  0  0  0  0  0  0
  -28.9233  -11.7694   18.5743 C   0  0  0  0  0  0  0  0  0  0  0  0
  -25.8510  -18.3298   17.3898 C   0  0  0  0  0  0  0  0  0  0  0  0
  -27.8802  -12.7144   18.6101 C   0  0  0  0  0  0  0  0  0  0  0  0
  -25.8772  -19.1817   18.5032 C   0  0  0  0  0  0  0  0  0  0  0  0
  -26.5029  -33.5209   21.7844 C   0  0  0  0  0  0  0  0  0  0  0  0
  -23.5190  -19.6695   18.1700 C   0  0  0  0  0  0  0  0  0  0  0  0
  -26.9775  -35.1750   23.3847 C   0  0  0  0  0  0  0  0  0  0  0  0
  -28.0133  -35.8614   25.8824 C   0  0  0  0  0  0  0  0  0  0  0  0
  -26.1580  -35.7809   24.3369 C   0  0  0  0  0  0  0  0  0  0  0  0
  -26.6222  -29.4435   20.6626 C   0  0  0  0  0  0  0  0  0  0  0  0
  -27.0688  -27.2941   20.5372 C   0  0  0  0  0  0  0  0  0  0  0  0
  -22.6948  -24.4610   20.8049 C   0  0  0  0  0  0  0  0  0  0  0  0
  -28.2782  -28.4774   22.3772 C   0  0  0  0  0  0  0  0  0  0  0  0
  -27.7520  -16.3829   19.0327 C   0  0  0  0  0  0  0  0  0  0  0  0
  -29.6270  -19.0218   19.2392 C   0  0  0  0  0  0  0  0  0  0  0  0
  -29.8558  -22.4261   19.1679 C   0  0  0  0  0  0  0  0  0  0  0  0
  -22.3165  -25.7478   17.2393 C   0  0  0  0  0  0  0  0  0  0  0  0
  -30.1324  -11.8883   19.4679 C   0  0  0  0  0  0  0  0  0  0  0  0
  -27.1020  -17.6271   16.9386 C   0  0  0  0  0  0  0  0  0  0  0  0
  -27.1336  -19.4012   19.3043 C   0  0  0  0  0  0  0  0  0  0  0  0
  -30.3242  -13.2862   20.0504 C   0  0  0  0  0  0  0  0  0  0  0  0
  -25.7057  -25.9188   16.1620 C   0  0  0  0  0  0  0  0  0  0  0  0
  -29.0052  -13.8217   20.5985 C   0  0  0  0  0  0  0  0  0  0  0  0
  -26.3931  -26.7491   17.2475 C   0  0  0  0  0  0  0  0  0  0  0  0
  -20.2888  -26.1268   21.0468 C   0  0  0  0  0  0  0  0  0  0  0  0
  -24.2857  -26.4102   15.8902 C   0  0  0  0  0  0  0  0  0  0  0  0
  -21.4438  -26.1970   22.0384 C   0  0  0  0  0  0  0  0  0  0  0  0
  -24.1108  -27.3332   18.1686 C   0  0  0  0  0  0  0  0  0  0  0  0
  -27.9556  -13.9451   19.4874 C   0  0  1  0  0  0  0  0  0  0  0  0
  -21.3205  -23.8023   20.7009 C   0  0  1  0  0  0  0  0  0  0  0  0
  -28.1286  -17.4594   18.0546 C   0  0  1  0  0  0  0  0  0  0  0  0
  -20.2699  -24.8266   20.2072 C   0  0  2  0  0  0  0  0  0  0  0  0
  -25.5256  -26.8403   18.5173 C   0  0  2  0  0  0  0  0  0  0  0  0
  -31.5144  -24.2944   19.4048 C   0  0  0  0  0  0  0  0  0  0  0  0
  -20.4951  -19.4453   19.7456 C   0  0  0  0  0  0  0  0  0  0  0  0
  -29.6439  -18.6200   22.2638 C   0  0  0  0  0  0  0  0  0  0  0  0
  -30.4740  -20.9701   22.5013 C   0  0  0  0  0  0  0  0  0  0  0  0
  -31.8494  -19.2802   21.2867 C   0  0  0  0  0  0  0  0  0  0  0  0
  -29.3422  -23.3864   16.4160 C   0  0  0  0  0  0  0  0  0  0  0  0
  -21.3722  -22.5282   19.8600 C   0  0  0  0  0  0  0  0  0  0  0  0
  -20.4093  -25.1655   18.7167 C   0  0  0  0  0  0  0  0  0  0  0  0
  -21.8744  -21.3364   20.6803 C   0  0  0  0  0  0  0  0  0  0  0  0
  -29.7466  -20.1754   20.2055 C   0  0  1  0  0  0  0  0  0  0  0  0
  -30.8078  -23.3567   18.4383 C   0  0  2  0  0  0  0  0  0  0  0  0
  -21.8917  -20.0408   19.8641 C   0  0  2  0  0  0  0  0  0  1  0  0
  -30.4042  -19.7560   21.5506 C   0  0  0  0  0  0  0  0  0  0  0  0
  -25.8887  -29.0088   19.6345 N   0  0  0  0  0  0  0  0  0  0  0  0
  -26.1819  -27.6983   19.5831 N   0  0  0  0  0  0  0  0  0  0  0  0
  -22.6636  -25.6775   21.4631 N   0  0  0  0  0  0  0  0  0  0  0  0
  -28.3294  -18.6871   18.8271 N   0  0  0  0  0  0  0  0  0  0  0  0
  -23.5153  -26.4723   17.1346 N   0  0  0  0  0  0  0  0  0  0  0  0
  -27.4721  -26.0090   20.6283 N   0  0  0  0  0  0  0  0  0  0  0  0
  -29.6316  -28.7438   22.1290 N   0  0  0  0  0  0  0  0  0  0  0  0
  -28.2044  -15.1242   18.6859 N   0  0  0  0  0  0  0  0  0  0  0  0
  -30.4605  -21.2308   19.4950 N   0  0  0  0  0  0  0  0  0  0  0  0
  -21.6520  -25.8568   18.4548 N   0  0  0  0  0  0  0  0  0  0  0  0
  -30.0656  -24.1802   17.4424 N   0  3  0  0  0  0  0  0  0  0  0  0
  -23.7267  -23.9532   20.3734 O   0  0  0  0  0  0  0  0  0  0  0  0
  -27.8969  -28.2830   23.5563 O   0  0  0  0  0  0  0  0  0  0  0  0
  -27.1004  -16.6730   20.0292 O   0  0  0  0  0  0  0  0  0  0  0  0
  -30.6480  -18.4437   18.8582 O   0  0  0  0  0  0  0  0  0  0  0  0
  -28.6933  -22.7307   19.4254 O   0  0  0  0  0  0  0  0  0  0  0  0
  -21.8741  -25.0509   16.3198 O   0  0  0  0  0  0  0  0  0  0  0  0
  -26.4646  -34.8329   22.1447 O   0  0  0  0  0  0  0  0  0  0  0  0
  -22.3866  -20.3186   18.5548 O   0  0  0  0  0  0  0  0  0  1  0  0
  -28.5104  -36.1896   27.0821 F   0  0  0  0  0  0  0  0  0  0  0  0
  -24.8720  -36.0348   24.0582 F   0  0  0  0  0  0  0  0  0  0  0  0
  1  2  1  0  0  0  0
  1  5  2  0  0  0  0
  2  6  2  0  0  0  0
  3  8  2  0  0  0  0
  3 15  1  0  0  0  0
  4  9  1  0  0  0  0
  4 15  2  0  0  0  0
  5 17  1  0  0  0  0
  6 19  1  0  0  0  0
  7 10  2  0  0  0  0
  7 18  1  0  0  0  0
  8 21  1  0  0  0  0
  9 21  2  0  0  0  0
 10 22  1  0  0  0  0
 11 12  2  0  0  0  0
 11 23  1  0  0  0  0
 12 24  1  0  0  0  0
 13 20  1  0  0  0  0
 13 22  2  0  0  0  0
 14 24  2  0  0  0  0
 14 25  1  0  0  0  0
 15 26  1  0  0  0  0
 16 26  1  0  0  0  0
 16 27  2  0  0  0  0
 16 29  1  0  0  0  0
 17 19  2  0  0  0  0
 17 34  1  0  0  0  0
 18 20  2  0  0  0  0
 18 35  1  0  0  0  0
 19 45  1  0  0  0  0
 20 36  1  0  0  0  0
 21 80  1  0  0  0  0
 22 81  1  0  0  0  0
 23 25  2  0  0  0  0
 23 80  1  0  0  0  0
 24 82  1  0  0  0  0
 25 83  1  0  0  0  0
 26 63  2  0  0  0  0
 27 64  1  0  0  0  0
 27 68  1  0  0  0  0
 28 46  1  0  0  0  0
 28 65  1  0  0  0  0
 28 74  2  0  0  0  0
 29 69  1  0  0  0  0
 29 75  2  0  0  0  0
 30 47  1  0  0  0  0
 30 70  1  0  0  0  0
 30 76  2  0  0  0  0
 31 59  1  0  0  0  0
 31 66  1  0  0  0  0
 31 77  2  0  0  0  0
 32 60  1  0  0  0  0
 32 71  1  0  0  0  0
 32 78  2  0  0  0  0
 33 67  1  0  0  0  0
 33 72  1  0  0  0  0
 33 79  2  0  0  0  0
 34 37  1  0  0  0  0
 35 47  1  0  0  0  0
 36 66  1  0  0  0  0
 37 39  1  0  0  0  0
 38 40  1  0  0  0  0
 38 42  1  0  0  0  0
 39 45  1  0  0  0  0
 40 49  1  0  0  0  0
 41 43  1  0  0  0  0
 41 48  1  0  0  0  0
 42 67  1  0  0  0  0
 43 65  1  0  0  0  0
 44 49  1  0  0  0  0
 44 67  1  0  0  0  0
 45 70  1  0  0  0  0
 46 48  1  0  0  0  0
 46 56  1  0  0  0  0
 47 66  1  0  0  0  0
 48 57  1  0  0  0  0
 49 64  1  0  0  0  0
 50 60  1  0  0  0  0
 51 61  1  0  0  0  0
 52 62  1  0  0  0  0
 53 62  1  0  0  0  0
 54 62  1  0  0  0  0
 55 73  1  0  0  0  0
 56 58  1  0  0  0  0
 57 72  1  0  0  0  0
 58 61  1  0  0  0  0
 59 62  1  0  0  0  0
 59 71  1  0  0  0  0
 60 73  1  0  0  0  0
 61 81  1  0  0  0  0
 63 64  1  0  0  0  0
M  CHG  1  73   1
M  ISO  4  33 100  61 101  72 100  81 101
M  END
> <Batch ID>
0118

> <Smiles>
CNC(C)C(=O)NC(C(=O)N1Cc2cc([101O:1][101CH:1](C)CCC3C(=O)NCCC3C[100NH:0][100C:0](=O)N3CCCC(n4nc(-c5ccc(Oc6ccc(F)cc6F)cc5)c(C(N)=O)c4N)C3)ccc2CC1C(=O)NC1CCCc2ccccc21)C(C)(C)C

> <Shape>
0.227

> <Color>
0.066

> <Negative vol penalty>
0.000

$$$$

  -OEChem-04052320183D

 86 95  0     1  0  0  0  0  0999 V2000
  -14.8635  -29.3852   31.6212 C   0  0  0  0  0  0  0  0  0  0  0  0
  -15.8249  -28.3821   31.5521 C   0  0  0  0  0  0  0  0  0  0  0  0
  -23.2575   -9.7319   20.1678 C   0  0  0  0  0  0  0  0  0  0  0  0
  -23.8299  -10.1054   22.4851 C   0  0  0  0  0  0  0  0  0  0  0  0
  -14.5672  -30.1443   30.4899 C   0  0  0  0  0  0  0  0  0  0  0  0
  -16.4898  -28.1367   30.3512 C   0  0  0  0  0  0  0  0  0  0  0  0
  -22.8469  -26.0136   27.8221 C   0  0  0  0  0  0  0  0  0  0  0  0
  -26.5791  -22.0366   22.4177 C   0  0  0  0  0  0  0  0  0  0  0  0
  -22.5605   -8.5780   20.5260 C   0  0  0  0  0  0  0  0  0  0  0  0
  -23.1329   -8.9515   22.8433 C   0  0  0  0  0  0  0  0  0  0  0  0
  -23.4012  -25.0763   26.9515 C   0  0  0  0  0  0  0  0  0  0  0  0
  -19.9156   -8.0344   23.3212 C   0  0  0  0  0  0  0  0  0  0  0  0
  -19.0707   -8.1069   24.4287 C   0  0  0  0  0  0  0  0  0  0  0  0
  -26.0748  -22.8591   23.4190 C   0  0  0  0  0  0  0  0  0  0  0  0
  -22.8636  -26.5035   25.0824 C   0  0  0  0  0  0  0  0  0  0  0  0
  -20.3538   -6.3754   25.5209 C   0  0  0  0  0  0  0  0  0  0  0  0
  -25.0431  -20.3533   23.0989 C   0  0  0  0  0  0  0  0  0  0  0  0
  -23.8923  -10.4956   21.1474 C   0  0  0  0  0  0  0  0  0  0  0  0
  -24.1034  -12.9969   20.6930 C   0  0  0  0  0  0  0  0  0  0  0  0
  -26.0588  -20.7584   22.2480 C   0  0  0  0  0  0  0  0  0  0  0  0
  -15.2356  -29.9146   29.2770 C   0  0  0  0  0  0  0  0  0  0  0  0
  -22.2860  -27.1999   27.3277 C   0  0  0  0  0  0  0  0  0  0  0  0
  -16.2012  -28.8926   29.2022 C   0  0  0  0  0  0  0  0  0  0  0  0
  -22.3051  -27.4553   25.9491 C   0  0  0  0  0  0  0  0  0  0  0  0
  -22.4981   -8.1878   21.8637 C   0  0  0  0  0  0  0  0  0  0  0  0
  -23.4070  -25.3198   25.5812 C   0  0  0  0  0  0  0  0  0  0  0  0
  -20.9795   -7.1323   23.3135 C   0  0  0  0  0  0  0  0  0  0  0  0
  -19.2899   -7.2775   25.5286 C   0  0  0  0  0  0  0  0  0  0  0  0
  -21.1986   -6.3029   24.4133 C   0  0  0  0  0  0  0  0  0  0  0  0
  -24.6129  -11.6874   20.7780 C   0  0  0  0  0  0  0  0  0  0  0  0
  -25.0583  -22.3600   24.2174 C   0  0  0  0  0  0  0  0  0  0  0  0
  -25.1783  -13.7591   20.3055 C   0  0  0  0  0  0  0  0  0  0  0  0
  -22.7770  -13.4811   20.9422 C   0  0  0  0  0  0  0  0  0  0  0  0
  -19.3839  -28.4959   27.3675 C   0  0  0  0  0  0  0  0  0  0  0  0
  -20.9172  -31.0186   26.0231 C   0  0  0  0  0  0  0  0  0  0  0  0
  -23.5792  -32.1662   24.2222 C   0  0  0  0  0  0  0  0  0  0  0  0
  -30.5651  -15.1521   20.7380 C   0  0  0  0  0  0  0  0  0  0  0  0
  -14.8476  -30.7293   28.0686 C   0  0  0  0  0  0  0  0  0  0  0  0
  -21.7161  -28.2130   28.2823 C   0  0  0  0  0  0  0  0  0  0  0  0
  -21.7339  -28.7227   25.3694 C   0  0  0  0  0  0  0  0  0  0  0  0
  -15.8644  -30.6558   26.9324 C   0  0  0  0  0  0  0  0  0  0  0  0
  -26.9370  -19.6060   18.6863 C   0  0  0  0  0  0  0  0  0  0  0  0
  -29.7548  -12.3914   18.6407 C   0  0  0  0  0  0  0  0  0  0  0  0
  -26.3515  -20.4771   19.7954 C   0  0  0  0  0  0  0  0  0  0  0  0
  -16.2847  -29.2105   26.6847 C   0  0  0  0  0  0  0  0  0  0  0  0
  -28.4162  -19.3117   18.9221 C   0  0  0  0  0  0  0  0  0  0  0  0
  -28.3056  -12.0666   19.0073 C   0  0  0  0  0  0  0  0  0  0  0  0
  -28.0733  -19.5589   21.4152 C   0  0  0  0  0  0  0  0  0  0  0  0
  -30.5594  -12.8357   19.8603 C   0  0  0  0  0  0  0  0  0  0  0  0
  -28.5155  -13.6248   20.9889 C   0  0  0  0  0  0  0  0  0  0  0  0
  -26.5770  -19.8545   21.1864 C   0  0  1  0  0  0  0  0  0  0  0  0
  -16.9616  -28.6128   27.9241 C   0  0  1  0  0  0  0  0  0  0  0  0
  -20.7102  -29.1532   27.6254 C   0  0  1  0  0  0  0  0  0  0  0  0
  -28.6570  -18.6792   20.2990 C   0  0  2  0  0  0  0  0  0  0  0  0
  -27.6498  -13.2257   19.7816 C   0  0  2  0  0  0  0  0  0  0  0  0
  -24.5383  -34.2706   23.2480 C   0  0  0  0  0  0  0  0  0  0  0  0
  -18.8496  -30.9203   23.7814 C   0  0  0  0  0  0  0  0  0  0  0  0
  -20.3714  -32.3587   22.4091 C   0  0  0  0  0  0  0  0  0  0  0  0
  -19.4402  -33.2238   24.5556 C   0  0  0  0  0  0  0  0  0  0  0  0
  -26.0383  -31.9382   25.8530 C   0  0  0  0  0  0  0  0  0  0  0  0
  -24.4899  -23.2202   25.3075 C   0  0  0  0  0  0  0  0  0  1  0  0
  -30.1481  -18.4379   20.5278 C   0  0  0  0  0  0  0  0  0  0  0  0
  -30.4136  -17.4525   21.6569 C   0  0  0  0  0  0  0  0  0  0  0  0
  -21.2372  -31.4462   24.6112 C   0  0  1  0  0  0  0  0  0  0  0  0
  -24.5188  -33.3369   24.4483 C   0  0  2  0  0  0  0  0  0  0  0  0
  -19.9837  -31.9624   23.8498 C   0  0  0  0  0  0  0  0  0  0  0  0
  -24.5276  -21.1239   24.0827 N   0  0  0  0  0  0  0  0  0  0  0  0
  -25.9105  -11.6179   20.4692 N   0  0  0  0  0  0  0  0  0  0  0  0
  -26.2254  -12.8934   20.1863 N   0  0  0  0  0  0  0  0  0  0  0  0
  -21.1823  -29.6795   26.3430 N   0  0  0  0  0  0  0  0  0  0  0  0
  -29.8840  -13.9383   20.5488 N   0  0  0  0  0  0  0  0  0  0  0  0
  -25.3204  -15.0787   20.0585 N   0  0  0  0  0  0  0  0  0  0  0  0
  -21.7929  -12.5628   21.3326 N   0  0  0  0  0  0  0  0  0  0  0  0
  -18.3253  -29.0850   28.0323 N   0  0  0  0  0  0  0  0  0  0  0  0
  -22.3170  -32.4218   24.7150 N   0  0  0  0  0  0  0  0  0  0  0  0
  -29.8504  -16.1470   21.3939 N   0  0  0  0  0  0  0  0  0  0  0  0
  -25.9065  -32.8487   24.6866 N   0  3  0  0  0  0  0  0  0  0  0  0
  -22.4697  -14.6897   20.8063 O   0  0  0  0  0  0  0  0  0  0  0  0
  -19.3250  -27.5269   26.6197 O   0  0  0  0  0  0  0  0  0  0  0  0
  -20.4557  -31.8440   26.8152 O   0  0  0  0  0  0  0  0  0  0  0  0
  -23.9288  -31.1302   23.6610 O   0  0  0  0  0  0  0  0  0  0  0  0
  -31.7223  -15.3375   20.3463 O   0  0  0  0  0  0  0  0  0  0  0  0
  -21.8179   -7.0620   22.2135 O   0  0  0  0  0  0  0  0  0  0  0  0
  -23.9468  -24.4064   24.7291 O   0  0  0  0  0  0  0  0  0  1  0  0
  -18.4794   -7.3483   26.5927 F   0  0  0  0  0  0  0  0  0  0  0  0
  -22.2198   -5.4351   24.4122 F   0  0  0  0  0  0  0  0  0  0  0  0
  1  2  1  0  0  0  0
  1  5  2  0  0  0  0
  2  6  2  0  0  0  0
  3  9  2  0  0  0  0
  3 18  1  0  0  0  0
  4 10  1  0  0  0  0
  4 18  2  0  0  0  0
  5 21  1  0  0  0  0
  6 23  1  0  0  0  0
  7 11  2  0  0  0  0
  7 22  1  0  0  0  0
  8 14  2  0  0  0  0
  8 20  1  0  0  0  0
  9 25  1  0  0  0  0
 10 25  2  0  0  0  0
 11 26  1  0  0  0  0
 12 13  2  0  0  0  0
 12 27  1  0  0  0  0
 13 28  1  0  0  0  0
 14 31  1  0  0  0  0
 15 24  1  0  0  0  0
 15 26  2  0  0  0  0
 16 28  2  0  0  0  0
 16 29  1  0  0  0  0
 17 20  2  0  0  0  0
 17 67  1  0  0  0  0
 18 30  1  0  0  0  0
 19 30  1  0  0  0  0
 19 32  2  0  0  0  0
 19 33  1  0  0  0  0
 20 51  1  0  0  0  0
 21 23  2  0  0  0  0
 21 38  1  0  0  0  0
 22 24  2  0  0  0  0
 22 39  1  0  0  0  0
 23 52  1  0  0  0  0
 24 40  1  0  0  0  0
 25 83  1  0  0  0  0
 26 84  1  0  0  0  0
 27 29  2  0  0  0  0
 27 83  1  0  0  0  0
 28 85  1  0  0  0  0
 29 86  1  0  0  0  0
 30 68  2  0  0  0  0
 31 61  1  0  0  0  0
 31 67  2  0  0  0  0
 32 69  1  0  0  0  0
 32 72  1  0  0  0  0
 33 73  1  0  0  0  0
 33 78  2  0  0  0  0
 34 53  1  0  0  0  0
 34 74  1  0  0  0  0
 34 79  2  0  0  0  0
 35 64  1  0  0  0  0
 35 70  1  0  0  0  0
 35 80  2  0  0  0  0
 36 65  1  0  0  0  0
 36 75  1  0  0  0  0
 36 81  2  0  0  0  0
 37 71  1  0  0  0  0
 37 76  1  0  0  0  0
 37 82  2  0  0  0  0
 38 41  1  0  0  0  0
 39 53  1  0  0  0  0
 40 70  1  0  0  0  0
 41 45  1  0  0  0  0
 42 44  1  0  0  0  0
 42 46  1  0  0  0  0
 43 47  1  0  0  0  0
 43 49  1  0  0  0  0
 44 51  1  0  0  0  0
 45 52  1  0  0  0  0
 46 54  1  0  0  0  0
 47 55  1  0  0  0  0
 48 51  1  0  0  0  0
 48 54  1  0  0  0  0
 49 71  1  0  0  0  0
 50 55  1  0  0  0  0
 50 71  1  0  0  0  0
 52 74  1  0  0  0  0
 53 70  1  0  0  0  0
 54 62  1  0  0  0  0
 55 69  1  0  0  0  0
 56 65  1  0  0  0  0
 57 66  1  0  0  0  0
 58 66  1  0  0  0  0
 59 66  1  0  0  0  0
 60 77  1  0  0  0  0
 61 84  1  0  0  0  0
 62 63  1  0  0  0  0
 63 76  1  0  0  0  0
 64 66  1  0  0  0  0
 64 75  1  0  0  0  0
 65 77  1  0  0  0  0
 68 69  1  0  0  0  0
M  CHG  1  77   1
M  ISO  4  37 100  61 101  76 100  84 101
M  END
> <Batch ID>
0118

> <Smiles>
CNC(C)C(=O)NC(C(=O)N1Cc2cc([101O:1][101CH2:1]c3ccc(C4CCCC(CC[100NH:0][100C:0](=O)N5CCCC(n6nc(-c7ccc(Oc8ccc(F)cc8F)cc7)c(C(N)=O)c6N)C5)C4)cn3)ccc2CC1C(=O)NC1CCCc2ccccc21)C(C)(C)C

> <Shape>
0.230

> <Color>
0.183

> <Negative vol penalty>
0.000

$$$$

  -OEChem-04052320183D

 83 91  0     1  0  0  0  0  0999 V2000
  -35.9644  -31.1160   14.6301 C   0  0  0  0  0  0  0  0  0  0  0  0
  -35.9251  -29.9224   13.9165 C   0  0  0  0  0  0  0  0  0  0  0  0
  -23.1669   -9.8503   19.9138 C   0  0  0  0  0  0  0  0  0  0  0  0
  -23.8332   -9.9018   22.2356 C   0  0  0  0  0  0  0  0  0  0  0  0
  -36.5715  -31.1571   15.8845 C   0  0  0  0  0  0  0  0  0  0  0  0
  -36.4940  -28.7695   14.4565 C   0  0  0  0  0  0  0  0  0  0  0  0
  -34.4965  -23.0188   13.7892 C   0  0  0  0  0  0  0  0  0  0  0  0
  -22.4401   -8.6831   20.1483 C   0  0  0  0  0  0  0  0  0  0  0  0
  -23.1064   -8.7346   22.4700 C   0  0  0  0  0  0  0  0  0  0  0  0
  -34.8861  -21.9829   12.9412 C   0  0  0  0  0  0  0  0  0  0  0  0
  -19.8756   -7.8687   22.9526 C   0  0  0  0  0  0  0  0  0  0  0  0
  -19.0731   -7.8247   24.0926 C   0  0  0  0  0  0  0  0  0  0  0  0
  -36.3001  -21.0968   14.6833 C   0  0  0  0  0  0  0  0  0  0  0  0
  -20.3277   -5.9255   24.9026 C   0  0  0  0  0  0  0  0  0  0  0  0
  -23.8635  -10.4597   20.9575 C   0  0  0  0  0  0  0  0  0  0  0  0
  -24.1521  -12.9905   20.8195 C   0  0  0  0  0  0  0  0  0  0  0  0
  -37.1396  -30.0019   16.4444 C   0  0  0  0  0  0  0  0  0  0  0  0
  -35.0150  -23.1077   15.0891 C   0  0  0  0  0  0  0  0  0  0  0  0
  -37.1105  -28.7955   15.7190 C   0  0  0  0  0  0  0  0  0  0  0  0
  -35.9135  -22.1332   15.5466 C   0  0  0  0  0  0  0  0  0  0  0  0
  -22.4098   -8.1253   21.4264 C   0  0  0  0  0  0  0  0  0  0  0  0
  -35.7902  -21.0234   13.3872 C   0  0  0  0  0  0  0  0  0  0  0  0
  -20.9041   -6.9410   22.7875 C   0  0  0  0  0  0  0  0  0  0  0  0
  -19.2991   -6.8532   25.0676 C   0  0  0  0  0  0  0  0  0  0  0  0
  -21.1302   -5.9695   23.7625 C   0  0  0  0  0  0  0  0  0  0  0  0
  -24.6149  -11.6651   20.7158 C   0  0  0  0  0  0  0  0  0  0  0  0
  -25.2406  -13.7610   20.4909 C   0  0  0  0  0  0  0  0  0  0  0  0
  -22.8542  -13.4814   21.1806 C   0  0  0  0  0  0  0  0  0  0  0  0
  -36.7712  -25.2392   16.6626 C   0  0  0  0  0  0  0  0  0  0  0  0
  -36.1808  -23.2854   19.1838 C   0  0  0  0  0  0  0  0  0  0  0  0
  -36.2427  -17.6185   12.2161 C   0  0  0  0  0  0  0  0  0  0  0  0
  -35.3721  -20.1648   20.3037 C   0  0  0  0  0  0  0  0  0  0  0  0
  -30.0752  -12.2584   17.1919 C   0  0  0  0  0  0  0  0  0  0  0  0
  -37.8266  -30.1063   17.7830 C   0  0  0  0  0  0  0  0  0  0  0  0
  -34.5642  -24.2161   16.0005 C   0  0  0  0  0  0  0  0  0  0  0  0
  -36.4837  -22.1722   16.9401 C   0  0  0  0  0  0  0  0  0  0  0  0
  -38.0752  -28.7545   18.4471 C   0  0  0  0  0  0  0  0  0  0  0  0
  -30.0213  -13.7368   20.5928 C   0  0  0  0  0  0  0  0  0  0  0  0
  -38.6635  -27.7671   17.4442 C   0  0  0  0  0  0  0  0  0  0  0  0
  -28.5842  -13.4426   21.0252 C   0  0  0  0  0  0  0  0  0  0  0  0
  -32.6779  -14.6396   16.1586 C   0  0  0  0  0  0  0  0  0  0  0  0
  -30.5368  -12.6606   19.6463 C   0  0  0  0  0  0  0  0  0  0  0  0
  -31.8840  -14.0704   17.3303 C   0  0  0  0  0  0  0  0  0  0  0  0
  -28.2559  -12.1589   18.8571 C   0  0  0  0  0  0  0  0  0  0  0  0
  -31.9064  -12.4723   15.5345 C   0  0  0  0  0  0  0  0  0  0  0  0
  -37.6947  -27.5181   16.2819 C   0  0  1  0  0  0  0  0  0  0  0  0
  -35.5499  -24.4991   17.1299 C   0  0  1  0  0  0  0  0  0  0  0  0
  -27.6706  -13.2196   19.8062 C   0  0  1  0  0  0  0  0  0  0  0  0
  -33.1242  -13.3734   15.4429 C   0  0  1  0  0  0  0  0  0  0  0  0
  -34.9998  -18.8658   22.4183 C   0  0  0  0  0  0  0  0  0  0  0  0
  -39.1951  -23.1756   19.6441 C   0  0  0  0  0  0  0  0  0  0  0  0
  -38.8288  -21.1756   21.1051 C   0  0  0  0  0  0  0  0  0  0  0  0
  -37.8280  -23.3738   21.7289 C   0  0  0  0  0  0  0  0  0  0  0  0
  -32.5692  -19.5565   19.5738 C   0  0  0  0  0  0  0  0  0  0  0  0
  -36.5209  -18.7720   13.1561 C   0  0  0  0  0  0  0  0  0  1  0  0
  -35.0545  -14.5396   12.3738 C   0  0  0  0  0  0  0  0  0  0  0  0
  -36.4291  -15.1414   12.0939 C   0  0  0  0  0  0  0  0  0  0  0  0
  -34.8291  -14.2784   13.8577 C   0  0  0  0  0  0  0  0  0  0  0  0
  -36.8618  -22.0792   19.7840 C   0  0  1  0  0  0  0  0  0  0  0  0
  -34.3487  -19.6935   21.3211 C   0  0  2  0  0  0  0  0  0  0  0  0
  -38.1694  -22.4511   20.5386 C   0  0  0  0  0  0  0  0  0  0  0  0
  -25.8975  -11.5940   20.3499 N   0  0  0  0  0  0  0  0  0  0  0  0
  -26.2498  -12.8844   20.2206 N   0  0  0  0  0  0  0  0  0  0  0  0
  -36.0171  -23.2791   17.7914 N   0  0  0  0  0  0  0  0  0  0  0  0
  -29.6382  -12.4870   18.5016 N   0  0  0  0  0  0  0  0  0  0  0  0
  -31.2794  -12.8429   16.8022 N   0  0  0  0  0  0  0  0  0  0  0  0
  -25.4233  -15.0961   20.4096 N   0  0  0  0  0  0  0  0  0  0  0  0
  -21.8506  -12.5528   21.4884 N   0  0  0  0  0  0  0  0  0  0  0  0
  -36.6396  -26.6145   16.6882 N   0  0  0  0  0  0  0  0  0  0  0  0
  -36.5910  -16.4008   12.7807 N   0  0  0  0  0  0  0  0  0  0  0  0
  -35.8613  -21.4162   20.6133 N   0  0  0  0  0  0  0  0  0  0  0  0
  -33.4882  -13.6483   14.0433 N   0  3  0  0  0  0  0  0  0  0  0  0
  -33.3062  -18.8594   20.6590 N   0  3  0  0  0  0  0  0  0  0  0  0
  -22.5878  -14.7067   21.2129 O   0  0  0  0  0  0  0  0  0  0  0  0
  -37.7601  -24.6092   16.3067 O   0  0  0  0  0  0  0  0  0  0  0  0
  -35.8015  -24.1964   19.9240 O   0  0  0  0  0  0  0  0  0  0  0  0
  -35.7671  -17.7750   11.0948 O   0  0  0  0  0  0  0  0  0  0  0  0
  -35.7069  -19.4887   19.3335 O   0  0  0  0  0  0  0  0  0  0  0  0
  -29.3962  -11.6020   16.3912 O   0  0  0  0  0  0  0  0  0  0  0  0
  -21.7005   -6.9864   21.6555 O   0  0  0  0  0  0  0  0  0  0  0  0
  -36.1766  -20.0011   12.5528 O   0  0  0  0  0  0  0  0  0  1  0  0
  -18.5294   -6.8121   26.1630 F   0  0  0  0  0  0  0  0  0  0  0  0
  -22.1176   -5.0763   23.6101 F   0  0  0  0  0  0  0  0  0  0  0  0
  1  2  1  0  0  0  0
  1  5  2  0  0  0  0
  2  6  2  0  0  0  0
  3  8  2  0  0  0  0
  3 15  1  0  0  0  0
  4  9  1  0  0  0  0
  4 15  2  0  0  0  0
  5 17  1  0  0  0  0
  6 19  1  0  0  0  0
  7 10  2  0  0  0  0
  7 18  1  0  0  0  0
  8 21  1  0  0  0  0
  9 21  2  0  0  0  0
 10 22  1  0  0  0  0
 11 12  2  0  0  0  0
 11 23  1  0  0  0  0
 12 24  1  0  0  0  0
 13 20  1  0  0  0  0
 13 22  2  0  0  0  0
 14 24  2  0  0  0  0
 14 25  1  0  0  0  0
 15 26  1  0  0  0  0
 16 26  1  0  0  0  0
 16 27  2  0  0  0  0
 16 28  1  0  0  0  0
 17 19  2  0  0  0  0
 17 34  1  0  0  0  0
 18 20  2  0  0  0  0
 18 35  1  0  0  0  0
 19 46  1  0  0  0  0
 20 36  1  0  0  0  0
 21 80  1  0  0  0  0
 22 81  1  0  0  0  0
 23 25  2  0  0  0  0
 23 80  1  0  0  0  0
 24 82  1  0  0  0  0
 25 83  1  0  0  0  0
 26 62  2  0  0  0  0
 27 63  1  0  0  0  0
 27 67  1  0  0  0  0
 28 68  1  0  0  0  0
 28 74  2  0  0  0  0
 29 47  1  0  0  0  0
 29 69  1  0  0  0  0
 29 75  2  0  0  0  0
 30 59  1  0  0  0  0
 30 64  1  0  0  0  0
 30 76  2  0  0  0  0
 31 55  1  0  0  0  0
 31 70  1  0  0  0  0
 31 77  2  0  0  0  0
 32 60  1  0  0  0  0
 32 71  1  0  0  0  0
 32 78  2  0  0  0  0
 33 65  1  0  0  0  0
 33 66  1  0  0  0  0
 33 79  2  0  0  0  0
 34 37  1  0  0  0  0
 35 47  1  0  0  0  0
 36 64  1  0  0  0  0
 37 39  1  0  0  0  0
 38 40  1  0  0  0  0
 38 42  1  0  0  0  0
 39 46  1  0  0  0  0
 40 48  1  0  0  0  0
 41 43  1  0  0  0  0
 41 49  1  0  0  0  0
 42 65  1  0  0  0  0
 43 66  1  0  0  0  0
 44 48  1  0  0  0  0
 44 65  1  0  0  0  0
 45 49  1  0  0  0  0
 45 66  1  0  0  0  0
 46 69  1  0  0  0  0
 47 64  1  0  0  0  0
 48 63  1  0  0  0  0
 49 72  1  0  0  0  0
 50 60  1  0  0  0  0
 51 61  1  0  0  0  0
 52 61  1  0  0  0  0
 53 61  1  0  0  0  0
 54 73  1  0  0  0  0
 55 81  1  0  0  0  0
 56 57  1  0  0  0  0
 56 58  1  0  0  0  0
 57 70  1  0  0  0  0
 58 72  1  0  0  0  0
 59 61  1  0  0  0  0
 59 71  1  0  0  0  0
 60 73  1  0  0  0  0
 62 63  1  0  0  0  0
M  CHG  2  72   1  73   1
M  ISO  4  33 100  55 101  66 100  81 101
M  END
> <Batch ID>
0118

> <Smiles>
CNC(C)C(=O)NC(C(=O)N1Cc2cc([101O:1][101CH2:1]C(=O)NCCCNC3CC[100N:0]([100C:0](=O)N4CCCC(n5nc(-c6ccc(Oc7ccc(F)cc7F)cc6)c(C(N)=O)c5N)C4)C3)ccc2CC1C(=O)NC1CCCc2ccccc21)C(C)(C)C

> <Shape>
0.143

> <Color>
0.167

> <Negative vol penalty>
0.000

$$$$

  -OEChem-04052320183D

 81 89  0     1  0  0  0  0  0999 V2000
  -21.7337  -11.7678   20.6275 C   0  0  0  0  0  0  0  0  0  0  0  0
  -21.5917  -13.0786   21.0714 C   0  0  0  0  0  0  0  0  0  0  0  0
  -26.2840  -28.9449   21.4477 C   0  0  0  0  0  0  0  0  0  0  0  0
  -25.3305  -26.9073   20.5666 C   0  0  0  0  0  0  0  0  0  0  0  0
  -23.0057  -11.2427   20.4038 C   0  0  0  0  0  0  0  0  0  0  0  0
  -22.7219  -13.8647   21.2930 C   0  0  0  0  0  0  0  0  0  0  0  0
  -22.2386  -18.5381   19.4033 C   0  0  0  0  0  0  0  0  0  0  0  0
  -27.5093  -28.6242   20.8634 C   0  0  0  0  0  0  0  0  0  0  0  0
  -26.5558  -26.5867   19.9822 C   0  0  0  0  0  0  0  0  0  0  0  0
  -21.4732  -19.4449   20.1352 C   0  0  0  0  0  0  0  0  0  0  0  0
  -30.1246  -26.5865   21.5208 C   0  0  0  0  0  0  0  0  0  0  0  0
  -31.2733  -26.7491   22.2951 C   0  0  0  0  0  0  0  0  0  0  0  0
  -23.4915  -20.4154   21.0318 C   0  0  0  0  0  0  0  0  0  0  0  0
  -32.1370  -28.3270   20.6822 C   0  0  0  0  0  0  0  0  0  0  0  0
  -25.1946  -28.0864   21.2994 C   0  0  0  0  0  0  0  0  0  0  0  0
  -22.8793  -29.1571   21.3267 C   0  0  0  0  0  0  0  0  0  0  0  0
  -24.1517  -12.0259   20.6135 C   0  0  0  0  0  0  0  0  0  0  0  0
  -23.6381  -18.5561   19.4887 C   0  0  0  0  0  0  0  0  0  0  0  0
  -24.0105  -13.3492   21.0732 C   0  0  0  0  0  0  0  0  0  0  0  0
  -24.2724  -19.5095   20.2979 C   0  0  0  0  0  0  0  0  0  0  0  0
  -27.6452  -27.4451   20.1306 C   0  0  0  0  0  0  0  0  0  0  0  0
  -22.0995  -20.3818   20.9519 C   0  0  0  0  0  0  0  0  0  0  0  0
  -29.9820  -27.2940   20.3272 C   0  0  0  0  0  0  0  0  0  0  0  0
  -32.2795  -27.6194   21.8758 C   0  0  0  0  0  0  0  0  0  0  0  0
  -30.9882  -28.1643   19.9079 C   0  0  0  0  0  0  0  0  0  0  0  0
  -23.9288  -28.4168   21.9033 C   0  0  0  0  0  0  0  0  0  0  0  0
  -21.9087  -29.1903   22.2979 C   0  0  0  0  0  0  0  0  0  0  0  0
  -17.7791  -23.6619   24.3837 C   0  0  0  0  0  0  0  0  0  0  0  0
  -18.9519  -23.1343   24.7794 C   0  0  0  0  0  0  0  0  0  0  0  0
  -20.6709  -20.0589   24.9198 C   0  0  0  0  0  0  0  0  0  0  0  0
  -19.6262  -20.7654   24.4752 C   0  0  0  0  0  0  0  0  0  0  0  0
  -22.7898  -29.7606   20.0293 C   0  0  0  0  0  0  0  0  0  0  0  0
  -25.8531  -16.4921   20.4569 C   0  0  0  0  0  0  0  0  0  0  0  0
  -27.8919  -18.7471   19.3252 C   0  0  0  0  0  0  0  0  0  0  0  0
  -28.4404  -22.0207   18.5317 C   0  0  0  0  0  0  0  0  0  0  0  0
  -20.6350  -25.5963   26.9144 C   0  0  0  0  0  0  0  0  0  0  0  0
  -25.5075  -11.3995   20.4033 C   0  0  0  0  0  0  0  0  0  0  0  0
  -24.4503  -17.5886   18.6721 C   0  0  0  0  0  0  0  0  0  0  0  0
  -25.7726  -19.5837   20.4087 C   0  0  0  0  0  0  0  0  0  0  0  0
  -17.1099  -23.3474   23.0789 C   0  0  0  0  0  0  0  0  0  0  0  0
  -26.6401  -12.4180   20.3031 C   0  0  0  0  0  0  0  0  0  0  0  0
  -17.7568  -22.1959   22.3070 C   0  0  0  0  0  0  0  0  0  0  0  0
  -21.3608  -29.0793   27.0496 C   0  0  0  0  0  0  0  0  0  0  0  0
  -26.5241  -13.4565   21.4144 C   0  0  0  0  0  0  0  0  0  0  0  0
  -22.0066  -29.3713   25.6940 C   0  0  0  0  0  0  0  0  0  0  0  0
  -21.7569  -27.7026   27.5786 C   0  0  0  0  0  0  0  0  0  0  0  0
  -22.1566  -26.8786   25.2906 C   0  0  0  0  0  0  0  0  0  0  0  0
  -25.2115  -14.2413   21.3012 C   0  0  1  0  0  0  0  0  0  0  0  0
  -19.7290  -22.1563   23.9121 C   0  0  1  0  0  0  0  0  0  0  0  0
  -25.8512  -17.3628   19.2323 C   0  0  1  0  0  0  0  0  0  0  0  0
  -19.2866  -22.2429   22.4247 C   0  0  1  0  0  0  0  0  0  0  0  0
  -21.7423  -28.2329   24.6902 C   0  0  2  0  0  0  0  0  0  0  0  0
  -30.2169  -23.5665   17.6647 C   0  0  0  0  0  0  0  0  0  0  0  0
  -29.2636  -18.6952   22.0502 C   0  0  0  0  0  0  0  0  0  0  0  0
  -30.3659  -20.8640   21.4589 C   0  0  0  0  0  0  0  0  0  0  0  0
  -30.8233  -18.8230   20.0995 C   0  0  0  0  0  0  0  0  0  0  0  0
  -26.8208  -22.7402   16.1615 C   0  0  0  0  0  0  0  0  0  0  0  0
  -19.5699  -23.5085   26.0982 C   0  0  0  0  0  0  0  0  0  0  0  0
  -19.9367  -21.1806   21.5351 C   0  0  0  0  0  0  0  0  0  1  0  0
  -28.5738  -19.9611   19.9083 C   0  0  1  0  0  0  0  0  0  0  0  0
  -29.0431  -22.6712   17.2996 C   0  0  2  0  0  0  0  0  0  0  0  0
  -29.7283  -19.5834   20.8788 C   0  0  0  0  0  0  0  0  0  0  0  0
  -23.6512  -28.0094   23.1446 N   0  0  0  0  0  0  0  0  0  0  0  0
  -22.4162  -28.4954   23.3561 N   0  0  0  0  0  0  0  0  0  0  0  0
  -26.5228  -18.6122   19.5957 N   0  0  0  0  0  0  0  0  0  0  0  0
  -21.4792  -26.6678   26.5796 N   0  0  0  0  0  0  0  0  0  0  0  0
  -20.6792  -29.7460   22.3415 N   0  0  0  0  0  0  0  0  0  0  0  0
  -23.8777  -29.6303   19.1553 N   0  0  0  0  0  0  0  0  0  0  0  0
  -25.3074  -15.2385   20.2568 N   0  0  0  0  0  0  0  0  0  0  0  0
  -28.9899  -20.7796   18.7746 N   0  0  0  0  0  0  0  0  0  0  0  0
  -20.4193  -24.6631   25.9077 N   0  0  0  0  0  0  0  0  0  0  0  0
  -28.0211  -23.4987   16.5984 N   0  3  0  0  0  0  0  0  0  0  0  0
  -21.7817  -30.4105   19.6620 O   0  0  0  0  0  0  0  0  0  0  0  0
  -26.3168  -16.9251   21.5053 O   0  0  0  0  0  0  0  0  0  0  0  0
  -28.5482  -17.9515   18.6484 O   0  0  0  0  0  0  0  0  0  0  0  0
  -27.5719  -22.5612   19.2129 O   0  0  0  0  0  0  0  0  0  0  0  0
  -20.1079  -25.4826   28.0262 O   0  0  0  0  0  0  0  0  0  0  0  0
  -28.8406  -27.1320   19.5600 O   0  0  0  0  0  0  0  0  0  0  0  0
  -21.3549  -21.2676   21.6679 O   0  0  0  0  0  0  0  0  0  1  0  0
  -33.3819  -27.7767   22.6202 F   0  0  0  0  0  0  0  0  0  0  0  0
  -30.8564  -28.8477   18.7627 F   0  0  0  0  0  0  0  0  0  0  0  0
  1  2  1  0  0  0  0
  1  5  2  0  0  0  0
  2  6  2  0  0  0  0
  3  8  2  0  0  0  0
  3 15  1  0  0  0  0
  4  9  1  0  0  0  0
  4 15  2  0  0  0  0
  5 17  1  0  0  0  0
  6 19  1  0  0  0  0
  7 10  2  0  0  0  0
  7 18  1  0  0  0  0
  8 21  1  0  0  0  0
  9 21  2  0  0  0  0
 10 22  1  0  0  0  0
 11 12  2  0  0  0  0
 11 23  1  0  0  0  0
 12 24  1  0  0  0  0
 13 20  1  0  0  0  0
 13 22  2  0  0  0  0
 14 24  2  0  0  0  0
 14 25  1  0  0  0  0
 15 26  1  0  0  0  0
 16 26  1  0  0  0  0
 16 27  2  0  0  0  0
 16 32  1  0  0  0  0
 17 19  2  0  0  0  0
 17 37  1  0  0  0  0
 18 20  2  0  0  0  0
 18 38  1  0  0  0  0
 19 48  1  0  0  0  0
 20 39  1  0  0  0  0
 21 78  1  0  0  0  0
 22 79  1  0  0  0  0
 23 25  2  0  0  0  0
 23 78  1  0  0  0  0
 24 80  1  0  0  0  0
 25 81  1  0  0  0  0
 26 63  2  0  0  0  0
 27 64  1  0  0  0  0
 27 67  1  0  0  0  0
 28 29  2  0  0  0  0
 28 40  1  0  0  0  0
 29 49  1  0  0  0  0
 29 58  1  0  0  0  0
 30 31  2  0  0  0  0
 31 49  1  0  0  0  0
 32 68  1  0  0  0  0
 32 73  2  0  0  0  0
 33 50  1  0  0  0  0
 33 69  1  0  0  0  0
 33 74  2  0  0  0  0
 34 60  1  0  0  0  0
 34 65  1  0  0  0  0
 34 75  2  0  0  0  0
 35 61  1  0  0  0  0
 35 70  1  0  0  0  0
 35 76  2  0  0  0  0
 36 66  1  0  0  0  0
 36 71  1  0  0  0  0
 36 77  2  0  0  0  0
 37 41  1  0  0  0  0
 38 50  1  0  0  0  0
 39 65  1  0  0  0  0
 40 42  1  0  0  0  0
 41 44  1  0  0  0  0
 42 51  1  0  0  0  0
 43 45  1  0  0  0  0
 43 46  1  0  0  0  0
 44 48  1  0  0  0  0
 45 52  1  0  0  0  0
 46 66  1  0  0  0  0
 47 52  1  0  0  0  0
 47 66  1  0  0  0  0
 48 69  1  0  0  0  0
 49 51  1  0  0  0  0
 50 65  1  0  0  0  0
 51 59  1  0  0  0  0
 52 64  1  0  0  0  0
 53 61  1  0  0  0  0
 54 62  1  0  0  0  0
 55 62  1  0  0  0  0
 56 62  1  0  0  0  0
 57 72  1  0  0  0  0
 58 71  1  0  0  0  0
 59 79  1  0  0  0  0
 60 62  1  0  0  0  0
 60 70  1  0  0  0  0
 61 72  1  0  0  0  0
 63 64  1  0  0  0  0
M  CHG  1  72   1
M  ISO  4  36 100  59 101  71 100  79 101
M  END
> <Batch ID>
0118

> <Smiles>
C=CC1C(C[100NH:0][100C:0](=O)N2CCCC(n3nc(-c4ccc(Oc5ccc(F)cc5F)cc4)c(C(N)=O)c3N)C2)=CCCC1[101CH2:1][101O:1]c1ccc2c(c1)CN(C(=O)C(NC(=O)C(C)NC)C(C)(C)C)C(C(=O)NC1CCCc3ccccc31)C2

> <Shape>
0.206

> <Color>
0.079

> <Negative vol penalty>
0.000

$$$$

  -OEChem-04052320183D

 83 91  0     1  0  0  0  0  0999 V2000
  -26.2917  -26.3672    7.1271 C   0  0  0  0  0  0  0  0  0  0  0  0
  -26.4531  -25.2581    7.9513 C   0  0  0  0  0  0  0  0  0  0  0  0
  -22.6067  -10.2591   20.2246 C   0  0  0  0  0  0  0  0  0  0  0  0
  -24.2313   -9.4674   21.8281 C   0  0  0  0  0  0  0  0  0  0  0  0
  -27.1361  -27.4676    7.2679 C   0  0  0  0  0  0  0  0  0  0  0  0
  -27.4598  -25.2483    8.9160 C   0  0  0  0  0  0  0  0  0  0  0  0
  -27.2286  -22.6396   14.4520 C   0  0  0  0  0  0  0  0  0  0  0  0
  -21.8452   -9.1083   20.4279 C   0  0  0  0  0  0  0  0  0  0  0  0
  -23.4698   -8.3166   22.0314 C   0  0  0  0  0  0  0  0  0  0  0  0
  -27.7049  -21.4218   14.9357 C   0  0  0  0  0  0  0  0  0  0  0  0
  -19.6659   -7.9384   22.7333 C   0  0  0  0  0  0  0  0  0  0  0  0
  -18.2886   -8.0920   22.8910 C   0  0  0  0  0  0  0  0  0  0  0  0
  -29.6936  -22.5257   15.7393 C   0  0  0  0  0  0  0  0  0  0  0  0
  -17.9115   -6.7010   20.9519 C   0  0  0  0  0  0  0  0  0  0  0  0
  -23.7998  -10.4387   20.9247 C   0  0  0  0  0  0  0  0  0  0  0  0
  -24.1890  -12.9598   20.9311 C   0  0  0  0  0  0  0  0  0  0  0  0
  -28.1476  -27.4753    8.2413 C   0  0  0  0  0  0  0  0  0  0  0  0
  -27.9875  -23.8096   14.5989 C   0  0  0  0  0  0  0  0  0  0  0  0
  -28.3195  -26.3494    9.0691 C   0  0  0  0  0  0  0  0  0  0  0  0
  -29.2236  -23.7575   15.2589 C   0  0  0  0  0  0  0  0  0  0  0  0
  -22.2767   -8.1371   21.3313 C   0  0  0  0  0  0  0  0  0  0  0  0
  -28.9388  -21.3642   15.5769 C   0  0  0  0  0  0  0  0  0  0  0  0
  -20.1661   -7.1662   21.6848 C   0  0  0  0  0  0  0  0  0  0  0  0
  -17.4113   -7.4733   22.0004 C   0  0  0  0  0  0  0  0  0  0  0  0
  -19.2888   -6.5475   20.7942 C   0  0  0  0  0  0  0  0  0  0  0  0
  -24.5871  -11.6270   20.7147 C   0  0  0  0  0  0  0  0  0  0  0  0
  -25.2886  -13.7070   20.5860 C   0  0  0  0  0  0  0  0  0  0  0  0
  -22.9371  -13.4763   21.4021 C   0  0  0  0  0  0  0  0  0  0  0  0
  -29.3239  -25.8830   12.5942 C   0  0  0  0  0  0  0  0  0  0  0  0
  -29.9787  -27.5063   15.3252 C   0  0  0  0  0  0  0  0  0  0  0  0
  -30.4585  -27.4196   18.7029 C   0  0  0  0  0  0  0  0  0  0  0  0
  -30.7939  -14.6120   20.7177 C   0  0  0  0  0  0  0  0  0  0  0  0
  -29.0661  -28.6686    8.3244 C   0  0  0  0  0  0  0  0  0  0  0  0
  -27.4476  -25.1201   14.0953 C   0  0  0  0  0  0  0  0  0  0  0  0
  -30.0677  -24.9885   15.4601 C   0  0  0  0  0  0  0  0  0  0  0  0
  -29.8683  -28.7306    9.6216 C   0  0  0  0  0  0  0  0  0  0  0  0
  -29.5642  -12.3793   18.2318 C   0  0  0  0  0  0  0  0  0  0  0  0
  -30.4761  -27.3681    9.9392 C   0  0  0  0  0  0  0  0  0  0  0  0
  -28.1298  -12.0899   18.6774 C   0  0  0  0  0  0  0  0  0  0  0  0
  -29.1347  -18.2000   21.1400 C   0  0  0  0  0  0  0  0  0  0  0  0
  -30.5083  -12.5189   19.4240 C   0  0  0  0  0  0  0  0  0  0  0  0
  -28.6481  -13.2107   20.8852 C   0  0  0  0  0  0  0  0  0  0  0  0
  -31.2908  -18.7086   18.8647 C   0  0  0  0  0  0  0  0  0  0  0  0
  -29.3841  -26.3111   10.1439 C   0  0  1  0  0  0  0  0  0  0  0  0
  -28.5369  -26.1582   13.8442 C   0  0  1  0  0  0  0  0  0  0  0  0
  -28.6855  -19.3028   20.1604 C   0  0  1  0  0  0  0  0  0  0  0  0
  -30.0653  -18.8948   17.9692 C   0  0  1  0  0  0  0  0  0  0  0  0
  -28.6726  -18.8835   18.6635 C   0  0  1  0  0  0  0  0  0  0  0  0
  -27.6484  -13.1171   19.7198 C   0  0  2  0  0  0  0  0  0  0  0  0
  -30.6304  -17.8822   21.1542 C   0  0  1  0  0  0  0  0  0  0  0  0
  -27.2873  -19.7903   20.5829 C   0  0  0  0  0  0  0  0  0  0  0  0
  -27.8781  -17.2525   16.9438 C   0  0  0  0  0  0  0  0  0  0  0  0
  -31.0164  -28.8986   20.6520 C   0  0  0  0  0  0  0  0  0  0  0  0
  -32.8994  -27.5614   14.4441 C   0  0  0  0  0  0  0  0  0  0  0  0
  -33.5234  -28.1708   16.7910 C   0  0  0  0  0  0  0  0  0  0  0  0
  -32.0733  -29.6960   15.4517 C   0  0  0  0  0  0  0  0  0  0  0  0
  -27.8894  -26.8184   20.0435 C   0  0  0  0  0  0  0  0  0  0  0  0
  -27.9564  -17.5471   18.4016 C   0  0  0  0  0  0  0  0  0  0  0  0
  -30.2494  -20.2078   17.1896 C   0  0  0  0  0  0  0  0  0  1  0  0
  -30.9258  -16.6922   22.0647 C   0  0  0  0  0  0  0  0  0  0  0  0
  -31.1195  -27.5192   16.3139 C   0  0  1  0  0  0  0  0  0  0  0  0
  -29.9017  -28.2813   19.8219 C   0  0  2  0  0  0  0  0  0  0  0  0
  -32.3891  -28.2131   15.7448 C   0  0  0  0  0  0  0  0  0  0  0  0
  -25.8417  -11.5299   20.2666 N   0  0  0  0  0  0  0  0  0  0  0  0
  -26.2413  -12.8112   20.1986 N   0  0  0  0  0  0  0  0  0  0  0  0
  -29.4994  -26.2449   14.9444 N   0  0  0  0  0  0  0  0  0  0  0  0
  -29.9951  -13.5090   20.3739 N   0  0  0  0  0  0  0  0  0  0  0  0
  -25.5238  -15.0363   20.5791 N   0  0  0  0  0  0  0  0  0  0  0  0
  -21.9141  -12.5696   21.7112 N   0  0  0  0  0  0  0  0  0  0  0  0
  -28.7860  -26.4496   11.4545 N   0  0  0  0  0  0  0  0  0  0  0  0
  -30.5981  -28.1322   17.5308 N   0  0  0  0  0  0  0  0  0  0  0  0
  -30.2294  -15.5058   21.6194 N   0  0  0  0  0  0  0  0  0  0  0  0
  -31.1413  -17.5506   19.7875 N   0  3  0  0  0  0  0  0  0  0  0  0
  -29.0404  -27.4658   20.7241 N   0  3  0  0  0  0  0  0  0  0  0  0
  -22.7263  -14.7063   21.5290 O   0  0  0  0  0  0  0  0  0  0  0  0
  -30.3445  -25.2078   12.6592 O   0  0  0  0  0  0  0  0  0  0  0  0
  -29.5247  -28.5761   14.9117 O   0  0  0  0  0  0  0  0  0  0  0  0
  -30.7447  -26.2340   18.8547 O   0  0  0  0  0  0  0  0  0  0  0  0
  -31.9243  -14.7901   20.2512 O   0  0  0  0  0  0  0  0  0  0  0  0
  -21.5338   -7.0141   21.5301 O   0  0  0  0  0  0  0  0  0  0  0  0
  -29.4112  -20.1645   16.0542 O   0  0  0  0  0  0  0  0  0  1  0  0
  -16.0886   -7.6196   22.1529 F   0  0  0  0  0  0  0  0  0  0  0  0
  -19.7634   -5.8034   19.7857 F   0  0  0  0  0  0  0  0  0  0  0  0
  1  2  1  0  0  0  0
  1  5  2  0  0  0  0
  2  6  2  0  0  0  0
  3  8  2  0  0  0  0
  3 15  1  0  0  0  0
  4  9  1  0  0  0  0
  4 15  2  0  0  0  0
  5 17  1  0  0  0  0
  6 19  1  0  0  0  0
  7 10  2  0  0  0  0
  7 18  1  0  0  0  0
  8 21  1  0  0  0  0
  9 21  2  0  0  0  0
 10 22  1  0  0  0  0
 11 12  2  0  0  0  0
 11 23  1  0  0  0  0
 12 24  1  0  0  0  0
 13 20  1  0  0  0  0
 13 22  2  0  0  0  0
 14 24  2  0  0  0  0
 14 25  1  0  0  0  0
 15 26  1  0  0  0  0
 16 26  1  0  0  0  0
 16 27  2  0  0  0  0
 16 28  1  0  0  0  0
 17 19  2  0  0  0  0
 17 33  1  0  0  0  0
 18 20  2  0  0  0  0
 18 34  1  0  0  0  0
 19 44  1  0  0  0  0
 20 35  1  0  0  0  0
 21 80  1  0  0  0  0
 22 81  1  0  0  0  0
 23 25  2  0  0  0  0
 23 80  1  0  0  0  0
 24 82  1  0  0  0  0
 25 83  1  0  0  0  0
 26 64  2  0  0  0  0
 27 65  1  0  0  0  0
 27 68  1  0  0  0  0
 28 69  1  0  0  0  0
 28 75  2  0  0  0  0
 29 45  1  0  0  0  0
 29 70  1  0  0  0  0
 29 76  2  0  0  0  0
 30 61  1  0  0  0  0
 30 66  1  0  0  0  0
 30 77  2  0  0  0  0
 31 62  1  0  0  0  0
 31 71  1  0  0  0  0
 31 78  2  0  0  0  0
 32 67  1  0  0  0  0
 32 72  1  0  0  0  0
 32 79  2  0  0  0  0
 33 36  1  0  0  0  0
 34 45  1  0  0  0  0
 35 66  1  0  0  0  0
 36 38  1  0  0  0  0
 37 39  1  0  0  0  0
 37 41  1  0  0  0  0
 38 44  1  0  0  0  0
 39 49  1  0  0  0  0
 40 46  1  0  0  0  0
 40 50  1  0  0  0  0
 41 67  1  0  0  0  0
 42 49  1  0  0  0  0
 42 67  1  0  0  0  0
 43 47  1  0  0  0  0
 43 73  1  0  0  0  0
 44 70  1  0  0  0  0
 45 66  1  0  0  0  0
 46 48  1  0  0  0  0
 46 51  1  0  0  0  0
 47 48  1  0  0  0  0
 47 59  1  0  0  0  0
 48 58  1  0  0  0  0
 49 65  1  0  0  0  0
 50 60  1  0  0  0  0
 50 73  1  0  0  0  0
 52 58  1  0  0  0  0
 53 62  1  0  0  0  0
 54 63  1  0  0  0  0
 55 63  1  0  0  0  0
 56 63  1  0  0  0  0
 57 74  1  0  0  0  0
 59 81  1  0  0  0  0
 60 72  1  0  0  0  0
 61 63  1  0  0  0  0
 61 71  1  0  0  0  0
 62 74  1  0  0  0  0
 64 65  1  0  0  0  0
M  CHG  2  73   1  74   1
M  ISO  4  32 100  59 101  72 100  81 101
M  END
> <Batch ID>
0118

> <Smiles>
CCC1C(C)CC(C[100NH:0][100C:0](=O)N2CCCC(n3nc(-c4ccc(Oc5ccc(F)cc5F)cc4)c(C(N)=O)c3N)C2)NCC1[101CH2:1][101O:1]c1ccc2c(c1)CN(C(=O)C(NC(=O)C(C)NC)C(C)(C)C)C(C(=O)NC1CCCc3ccccc31)C2

> <Shape>
0.224

> <Color>
0.191

> <Negative vol penalty>
0.000

$$$$

  -OEChem-04052320183D

 86 95  0     1  0  0  0  0  0999 V2000
  -18.4316  -11.4068   20.9635 C   0  0  0  0  0  0  0  0  0  0  0  0
  -18.4651  -12.4137   21.9229 C   0  0  0  0  0  0  0  0  0  0  0  0
  -22.2730  -28.4644   20.7569 C   0  0  0  0  0  0  0  0  0  0  0  0
  -23.1387  -26.7749   22.2513 C   0  0  0  0  0  0  0  0  0  0  0  0
  -19.6000  -10.7220   20.6322 C   0  0  0  0  0  0  0  0  0  0  0  0
  -19.6670  -12.7357   22.5524 C   0  0  0  0  0  0  0  0  0  0  0  0
  -23.1861  -18.3145   25.3469 C   0  0  0  0  0  0  0  0  0  0  0  0
  -30.1441  -19.5999   26.5918 C   0  0  0  0  0  0  0  0  0  0  0  0
  -20.9894  -28.2509   21.2591 C   0  0  0  0  0  0  0  0  0  0  0  0
  -21.8551  -26.5614   22.7536 C   0  0  0  0  0  0  0  0  0  0  0  0
  -23.8376  -18.7001   26.5176 C   0  0  0  0  0  0  0  0  0  0  0  0
  -19.2099  -29.1220   23.9991 C   0  0  0  0  0  0  0  0  0  0  0  0
  -18.4384  -30.2433   24.3042 C   0  0  0  0  0  0  0  0  0  0  0  0
  -30.6425  -20.0092   25.3600 C   0  0  0  0  0  0  0  0  0  0  0  0
  -25.8085  -17.5039   25.8078 C   0  0  0  0  0  0  0  0  0  0  0  0
  -16.7696  -29.5291   22.7098 C   0  0  0  0  0  0  0  0  0  0  0  0
  -29.7428  -21.8818   27.1292 C   0  0  0  0  0  0  0  0  0  0  0  0
  -23.3477  -27.7263   21.2529 C   0  0  0  0  0  0  0  0  0  0  0  0
  -25.4085  -29.1466   20.7592 C   0  0  0  0  0  0  0  0  0  0  0  0
  -20.8187  -11.0423   21.2510 C   0  0  0  0  0  0  0  0  0  0  0  0
  -23.8384  -17.5102   24.4012 C   0  0  0  0  0  0  0  0  0  0  0  0
  -20.8526  -12.0536   22.2300 C   0  0  0  0  0  0  0  0  0  0  0  0
  -25.1640  -17.1116   24.6247 C   0  0  0  0  0  0  0  0  0  0  0  0
  -29.6837  -20.5477   27.4990 C   0  0  0  0  0  0  0  0  0  0  0  0
  -20.7804  -27.2995   22.2575 C   0  0  0  0  0  0  0  0  0  0  0  0
  -25.1480  -18.2924   26.7496 C   0  0  0  0  0  0  0  0  0  0  0  0
  -18.7613  -28.2042   23.0493 C   0  0  0  0  0  0  0  0  0  0  0  0
  -17.2183  -30.4468   23.6597 C   0  0  0  0  0  0  0  0  0  0  0  0
  -17.5412  -28.4078   22.4047 C   0  0  0  0  0  0  0  0  0  0  0  0
  -24.6739  -27.9460   20.7341 C   0  0  0  0  0  0  0  0  0  0  0  0
  -30.6585  -21.3673   25.0859 C   0  0  0  0  0  0  0  0  0  0  0  0
  -26.5975  -28.8345   20.1467 C   0  0  0  0  0  0  0  0  0  0  0  0
  -25.0482  -30.4293   21.2889 C   0  0  0  0  0  0  0  0  0  0  0  0
  -23.3373  -14.6132   23.1931 C   0  0  0  0  0  0  0  0  0  0  0  0
  -25.8121  -15.4186   21.2569 C   0  0  0  0  0  0  0  0  0  0  0  0
  -28.6007  -17.3219   20.7591 C   0  0  0  0  0  0  0  0  0  0  0  0
  -29.5912  -23.6984   19.4326 C   0  0  0  0  0  0  0  0  0  0  0  0
  -22.0464  -10.2422   20.8941 C   0  0  0  0  0  0  0  0  0  0  0  0
  -23.1309  -17.1250   23.1310 C   0  0  0  0  0  0  0  0  0  0  0  0
  -25.9155  -16.2646   23.6315 C   0  0  0  0  0  0  0  0  0  0  0  0
  -23.3513  -10.8989   21.3368 C   0  0  0  0  0  0  0  0  0  0  0  0
  -32.9768  -23.2110   22.5728 C   0  0  0  0  0  0  0  0  0  0  0  0
  -28.4605  -25.8920   16.8661 C   0  0  0  0  0  0  0  0  0  0  0  0
  -23.2408  -11.3883   22.7773 C   0  0  0  0  0  0  0  0  0  0  0  0
  -32.4373  -22.7415   23.9222 C   0  0  0  0  0  0  0  0  0  0  0  0
  -27.4281  -26.7754   17.5687 C   0  0  0  0  0  0  0  0  0  0  0  0
  -31.9011  -23.9159   21.7494 C   0  0  0  0  0  0  0  0  0  0  0  0
  -30.1120  -22.5670   22.9230 C   0  0  0  0  0  0  0  0  0  0  0  0
  -28.4210  -24.4562   17.3849 C   0  0  0  0  0  0  0  0  0  0  0  0
  -27.5154  -25.2062   19.5508 C   0  0  0  0  0  0  0  0  0  0  0  0
  -22.1418  -12.4486   22.9170 C   0  0  1  0  0  0  0  0  0  0  0  0
  -31.1953  -21.8505   23.7506 C   0  0  2  0  0  0  0  0  0  0  0  0
  -23.7162  -15.8779   22.4757 C   0  0  1  0  0  0  0  0  0  0  0  0
  -27.5553  -26.6767   19.1008 C   0  0  2  0  0  0  0  0  0  0  0  0
  -30.6624  -23.0340   21.5704 C   0  0  1  0  0  0  0  0  0  0  0  0
  -30.4360  -17.7304   19.0971 C   0  0  0  0  0  0  0  0  0  0  0  0
  -27.1694  -12.8265   22.1223 C   0  0  0  0  0  0  0  0  0  0  0  0
  -29.3205  -13.7322   21.2164 C   0  0  0  0  0  0  0  0  0  0  0  0
  -27.3859  -13.3550   19.6875 C   0  0  0  0  0  0  0  0  0  0  0  0
  -27.8068  -20.1507   20.4031 C   0  0  0  0  0  0  0  0  0  0  0  0
  -29.1377  -20.1363   28.8430 C   0  0  0  0  0  0  0  0  0  0  0  0
  -27.6304  -19.8725   28.8409 C   0  0  0  0  0  0  0  0  0  0  0  0
  -27.2030  -18.8208   27.8237 C   0  0  0  0  0  0  0  0  0  1  0  0
  -27.3136  -15.2785   21.3267 C   0  0  1  0  0  0  0  0  0  0  0  0
  -29.0545  -18.1528   19.5724 C   0  0  2  0  0  0  0  0  0  0  0  0
  -27.7828  -13.8124   21.1080 C   0  0  0  0  0  0  0  0  0  0  0  0
  -30.2201  -22.3175   25.9418 N   0  0  0  0  0  0  0  0  0  0  0  0
  -25.3404  -26.9457   20.1516 N   0  0  0  0  0  0  0  0  0  0  0  0
  -26.5063  -27.5172   19.8050 N   0  0  0  0  0  0  0  0  0  0  0  0
  -25.1786  -15.9085   22.4077 N   0  0  0  0  0  0  0  0  0  0  0  0
  -28.5482  -24.4324   18.8441 N   0  0  0  0  0  0  0  0  0  0  0  0
  -27.7018  -29.5610   19.8724 N   0  0  0  0  0  0  0  0  0  0  0  0
  -25.3592  -30.7113   22.6261 N   0  0  0  0  0  0  0  0  0  0  0  0
  -22.6075  -13.7271   22.4239 N   0  0  0  0  0  0  0  0  0  0  0  0
  -27.8575  -16.2299   20.3636 N   0  0  0  0  0  0  0  0  0  0  0  0
  -29.6433  -23.7341   20.8206 N   0  0  0  0  0  0  0  0  0  0  0  0
  -29.1048  -19.5962   19.9396 N   0  3  0  0  0  0  0  0  0  0  0  0
  -24.4531  -31.2936   20.6016 O   0  0  0  0  0  0  0  0  0  0  0  0
  -23.6829  -14.4525   24.3578 O   0  0  0  0  0  0  0  0  0  0  0  0
  -25.2238  -15.1116   20.2170 O   0  0  0  0  0  0  0  0  0  0  0  0
  -28.8808  -17.6106   21.9204 O   0  0  0  0  0  0  0  0  0  0  0  0
  -30.4183  -23.0630   18.7698 O   0  0  0  0  0  0  0  0  0  0  0  0
  -19.5280  -27.0911   22.7480 O   0  0  0  0  0  0  0  0  0  0  0  0
  -25.7859  -18.6669   27.8918 O   0  0  0  0  0  0  0  0  0  1  0  0
  -16.4769  -31.5229   23.9539 F   0  0  0  0  0  0  0  0  0  0  0  0
  -17.1044  -27.5289   21.4921 F   0  0  0  0  0  0  0  0  0  0  0  0
  1  2  1  0  0  0  0
  1  5  2  0  0  0  0
  2  6  2  0  0  0  0
  3  9  2  0  0  0  0
  3 18  1  0  0  0  0
  4 10  1  0  0  0  0
  4 18  2  0  0  0  0
  5 20  1  0  0  0  0
  6 22  1  0  0  0  0
  7 11  2  0  0  0  0
  7 21  1  0  0  0  0
  8 14  2  0  0  0  0
  8 24  1  0  0  0  0
  9 25  1  0  0  0  0
 10 25  2  0  0  0  0
 11 26  1  0  0  0  0
 12 13  2  0  0  0  0
 12 27  1  0  0  0  0
 13 28  1  0  0  0  0
 14 31  1  0  0  0  0
 15 23  1  0  0  0  0
 15 26  2  0  0  0  0
 16 28  2  0  0  0  0
 16 29  1  0  0  0  0
 17 24  2  0  0  0  0
 17 67  1  0  0  0  0
 18 30  1  0  0  0  0
 19 30  1  0  0  0  0
 19 32  2  0  0  0  0
 19 33  1  0  0  0  0
 20 22  2  0  0  0  0
 20 38  1  0  0  0  0
 21 23  2  0  0  0  0
 21 39  1  0  0  0  0
 22 51  1  0  0  0  0
 23 40  1  0  0  0  0
 24 61  1  0  0  0  0
 25 83  1  0  0  0  0
 26 84  1  0  0  0  0
 27 29  2  0  0  0  0
 27 83  1  0  0  0  0
 28 85  1  0  0  0  0
 29 86  1  0  0  0  0
 30 68  2  0  0  0  0
 31 52  1  0  0  0  0
 31 67  2  0  0  0  0
 32 69  1  0  0  0  0
 32 72  1  0  0  0  0
 33 73  1  0  0  0  0
 33 78  2  0  0  0  0
 34 53  1  0  0  0  0
 34 74  1  0  0  0  0
 34 79  2  0  0  0  0
 35 64  1  0  0  0  0
 35 70  1  0  0  0  0
 35 80  2  0  0  0  0
 36 65  1  0  0  0  0
 36 75  1  0  0  0  0
 36 81  2  0  0  0  0
 37 71  1  0  0  0  0
 37 76  1  0  0  0  0
 37 82  2  0  0  0  0
 38 41  1  0  0  0  0
 39 53  1  0  0  0  0
 40 70  1  0  0  0  0
 41 44  1  0  0  0  0
 42 45  1  0  0  0  0
 42 47  1  0  0  0  0
 43 46  1  0  0  0  0
 43 49  1  0  0  0  0
 44 51  1  0  0  0  0
 45 52  1  0  0  0  0
 46 54  1  0  0  0  0
 47 55  1  0  0  0  0
 48 52  1  0  0  0  0
 48 55  1  0  0  0  0
 49 71  1  0  0  0  0
 50 54  1  0  0  0  0
 50 71  1  0  0  0  0
 51 74  1  0  0  0  0
 53 70  1  0  0  0  0
 54 69  1  0  0  0  0
 55 76  1  0  0  0  0
 56 65  1  0  0  0  0
 57 66  1  0  0  0  0
 58 66  1  0  0  0  0
 59 66  1  0  0  0  0
 60 77  1  0  0  0  0
 61 62  1  0  0  0  0
 62 63  1  0  0  0  0
 63 84  1  0  0  0  0
 64 66  1  0  0  0  0
 64 75  1  0  0  0  0
 65 77  1  0  0  0  0
 68 69  1  0  0  0  0
M  CHG  1  77   1
M  ISO  4  37 100  63 101  76 100  84 101
M  END
> <Batch ID>
0118

> <Smiles>
CNC(C)C(=O)NC(C(=O)N1Cc2cc([101O:1][101CH2:1]CCc3ccc(C4CCCC([100NH:0][100C:0](=O)N5CCCC(n6nc(-c7ccc(Oc8ccc(F)cc8F)cc7)c(C(N)=O)c6N)C5)C4)nc3)ccc2CC1C(=O)NC1CCCc2ccccc21)C(C)(C)C

> <Shape>
0.246

> <Color>
0.059

> <Negative vol penalty>
0.000

$$$$

  -OEChem-04052320183D

 89 98  0     1  0  0  0  0  0999 V2000
  -16.9689  -29.0169   24.3808 C   0  0  0  0  0  0  0  0  0  0  0  0
  -17.6953  -27.9643   23.8332 C   0  0  0  0  0  0  0  0  0  0  0  0
  -29.3917  -20.0508   21.2031 C   0  0  0  0  0  0  0  0  0  0  0  0
  -27.1293  -19.6143   20.4764 C   0  0  0  0  0  0  0  0  0  0  0  0
  -17.2471  -30.3282   23.9974 C   0  0  0  0  0  0  0  0  0  0  0  0
  -18.6996  -28.2224   22.9008 C   0  0  0  0  0  0  0  0  0  0  0  0
  -22.9198  -25.5746   23.8081 C   0  0  0  0  0  0  0  0  0  0  0  0
  -29.4422  -21.1708   20.3733 C   0  0  0  0  0  0  0  0  0  0  0  0
  -27.1797  -20.7344   19.6467 C   0  0  0  0  0  0  0  0  0  0  0  0
  -22.9234  -24.2328   23.4296 C   0  0  0  0  0  0  0  0  0  0  0  0
  -29.8961  -21.8172   17.0869 C   0  0  0  0  0  0  0  0  0  0  0  0
  -31.0421  -21.9981   16.3126 C   0  0  0  0  0  0  0  0  0  0  0  0
  -24.1532  -24.8049   21.4348 C   0  0  0  0  0  0  0  0  0  0  0  0
  -31.4410  -24.1191   17.3987 C   0  0  0  0  0  0  0  0  0  0  0  0
  -28.2353  -19.2724   21.2546 C   0  0  0  0  0  0  0  0  0  0  0  0
  -27.7604  -18.0690   23.4531 C   0  0  0  0  0  0  0  0  0  0  0  0
  -18.2617  -30.6032   23.0671 C   0  0  0  0  0  0  0  0  0  0  0  0
  -23.5245  -26.5448   22.9960 C   0  0  0  0  0  0  0  0  0  0  0  0
  -18.9906  -29.5386   22.5036 C   0  0  0  0  0  0  0  0  0  0  0  0
  -24.1583  -26.1580   21.8065 C   0  0  0  0  0  0  0  0  0  0  0  0
  -28.3362  -21.5127   19.5952 C   0  0  0  0  0  0  0  0  0  0  0  0
  -23.5376  -23.8481   22.2414 C   0  0  0  0  0  0  0  0  0  0  0  0
  -29.5225  -22.7872   18.0171 C   0  0  0  0  0  0  0  0  0  0  0  0
  -31.8146  -23.1491   16.4685 C   0  0  0  0  0  0  0  0  0  0  0  0
  -30.2949  -23.9382   18.1729 C   0  0  0  0  0  0  0  0  0  0  0  0
  -28.1828  -18.1149   22.1110 C   0  0  0  0  0  0  0  0  0  0  0  0
  -27.8988  -16.7503   23.8117 C   0  0  0  0  0  0  0  0  0  0  0  0
  -23.6790  -19.2350   22.8443 C   0  0  0  0  0  0  0  0  0  0  0  0
  -23.0613  -20.2324   22.1928 C   0  0  0  0  0  0  0  0  0  0  0  0
  -27.2853  -19.1239   24.3000 C   0  0  0  0  0  0  0  0  0  0  0  0
  -22.4725  -15.8917   21.5037 C   0  0  0  0  0  0  0  0  0  0  0  0
  -22.5004  -29.1139   21.4294 C   0  0  0  0  0  0  0  0  0  0  0  0
  -25.6635  -29.5418   20.8510 C   0  0  0  0  0  0  0  0  0  0  0  0
  -28.7721  -28.1598   20.5802 C   0  0  0  0  0  0  0  0  0  0  0  0
  -27.8624  -11.6667   20.8847 C   0  0  0  0  0  0  0  0  0  0  0  0
  -18.4942  -32.0333   22.6481 C   0  0  0  0  0  0  0  0  0  0  0  0
  -23.5354  -27.9844   23.4316 C   0  0  0  0  0  0  0  0  0  0  0  0
  -24.8392  -27.1579   20.9093 C   0  0  0  0  0  0  0  0  0  0  0  0
  -19.8265  -32.2502   21.9353 C   0  0  0  0  0  0  0  0  0  0  0  0
  -30.4680  -12.8421   22.8297 C   0  0  0  0  0  0  0  0  0  0  0  0
  -20.0460  -31.1757   20.8751 C   0  0  0  0  0  0  0  0  0  0  0  0
  -30.1474  -14.3261   23.0073 C   0  0  0  0  0  0  0  0  0  0  0  0
  -24.1967  -12.0594   21.2520 C   0  0  0  0  0  0  0  0  0  0  0  0
  -25.0400  -13.7641   19.5992 C   0  0  0  0  0  0  0  0  0  0  0  0
  -24.0532  -16.7598   23.3272 C   0  0  0  0  0  0  0  0  0  0  0  0
  -30.1741  -12.3868   21.4048 C   0  0  0  0  0  0  0  0  0  0  0  0
  -25.4389  -11.2138   20.9854 C   0  0  0  0  0  0  0  0  0  0  0  0
  -26.2627  -12.8844   19.3599 C   0  0  0  0  0  0  0  0  0  0  0  0
  -28.4335  -14.1232   21.1391 C   0  0  0  0  0  0  0  0  0  0  0  0
  -20.1044  -29.7801   21.5079 C   0  0  1  0  0  0  0  0  0  0  0  0
  -23.8620  -17.8811   22.3440 C   0  0  1  0  0  0  0  0  0  0  0  0
  -22.7681  -16.8849   22.5787 C   0  0  1  0  0  0  0  0  0  0  0  0
  -23.7335  -28.9576   22.2736 C   0  0  1  0  0  0  0  0  0  0  0  0
  -23.8313  -12.9284   20.0417 C   0  0  0  0  0  0  0  0  0  0  0  0
  -28.7055  -14.6364   22.5675 C   0  0  2  0  0  0  0  0  0  0  0  0
  -20.4693  -17.2917   20.9963 C   0  0  0  0  0  0  0  0  0  0  0  0
  -22.2532  -16.9539   19.2501 C   0  0  0  0  0  0  0  0  0  0  0  0
  -31.1537  -28.7545   20.0594 C   0  0  0  0  0  0  0  0  0  0  0  0
  -21.4170  -13.0118   20.7554 C   0  0  0  0  0  0  0  0  0  0  0  0
  -24.9707  -29.7077   17.8841 C   0  0  0  0  0  0  0  0  0  0  0  0
  -27.3938  -29.3449   17.3694 C   0  0  0  0  0  0  0  0  0  0  0  0
  -26.6812  -31.3635   18.6501 C   0  0  0  0  0  0  0  0  0  0  0  0
  -29.6956  -27.2909   23.2544 C   0  0  0  0  0  0  0  0  0  0  0  0
  -22.8998  -21.6122   22.7413 C   0  0  0  0  0  0  0  0  0  1  0  0
  -21.4986  -16.3256   20.4179 C   0  0  0  0  0  0  0  0  0  0  0  0
  -26.6226  -29.0988   19.7726 C   0  0  1  0  0  0  0  0  0  0  0  0
  -30.1137  -28.5775   21.1547 C   0  0  2  0  0  0  0  0  0  0  0  0
  -22.6367  -13.8255   20.3568 C   0  0  1  0  0  0  0  0  0  0  0  0
  -26.4026  -29.8599   18.4348 C   0  0  0  0  0  0  0  0  0  0  0  0
  -28.5613  -16.9205   21.6484 N   0  0  0  0  0  0  0  0  0  0  0  0
  -22.9981  -14.7208   21.4588 N   0  0  0  0  0  0  0  0  0  0  0  0
  -28.3773  -16.1116   22.7057 N   0  0  0  0  0  0  0  0  0  0  0  0
  -24.8175  -28.5543   21.3755 N   0  0  0  0  0  0  0  0  0  0  0  0
  -28.7977  -12.7032   21.0239 N   0  0  0  0  0  0  0  0  0  0  0  0
  -26.5563  -12.0353   20.5221 N   0  0  0  0  0  0  0  0  0  0  0  0
  -27.6566  -16.0865   24.9619 N   0  0  0  0  0  0  0  0  0  0  0  0
  -27.2056  -20.4198   23.7722 N   0  0  0  0  0  0  0  0  0  0  0  0
  -21.3938  -29.5594   22.1269 N   0  0  0  0  0  0  0  0  0  0  0  0
  -27.9620  -29.2475   20.3315 N   0  0  0  0  0  0  0  0  0  0  0  0
  -30.6100  -27.5491   22.1123 N   0  3  0  0  0  0  0  0  0  0  0  0
  -26.9572  -18.9263   25.4945 O   0  0  0  0  0  0  0  0  0  0  0  0
  -22.5497  -28.8514   20.2334 O   0  0  0  0  0  0  0  0  0  0  0  0
  -25.6697  -30.7189   21.2196 O   0  0  0  0  0  0  0  0  0  0  0  0
  -28.4740  -26.9862   20.3695 O   0  0  0  0  0  0  0  0  0  0  0  0
  -28.1713  -10.4839   21.0765 O   0  0  0  0  0  0  0  0  0  0  0  0
  -28.3849  -22.6057   18.7856 O   0  0  0  0  0  0  0  0  0  0  0  0
  -23.5419  -22.5295   21.8666 O   0  0  0  0  0  0  0  0  0  1  0  0
  -32.9159  -23.3220   15.7260 F   0  0  0  0  0  0  0  0  0  0  0  0
  -29.9417  -24.8730   19.0657 F   0  0  0  0  0  0  0  0  0  0  0  0
  1  2  1  0  0  0  0
  1  5  2  0  0  0  0
  2  6  2  0  0  0  0
  3  8  2  0  0  0  0
  3 15  1  0  0  0  0
  4  9  1  0  0  0  0
  4 15  2  0  0  0  0
  5 17  1  0  0  0  0
  6 19  1  0  0  0  0
  7 10  2  0  0  0  0
  7 18  1  0  0  0  0
  8 21  1  0  0  0  0
  9 21  2  0  0  0  0
 10 22  1  0  0  0  0
 11 12  2  0  0  0  0
 11 23  1  0  0  0  0
 12 24  1  0  0  0  0
 13 20  1  0  0  0  0
 13 22  2  0  0  0  0
 14 24  2  0  0  0  0
 14 25  1  0  0  0  0
 15 26  1  0  0  0  0
 16 26  1  0  0  0  0
 16 27  2  0  0  0  0
 16 30  1  0  0  0  0
 17 19  2  0  0  0  0
 17 36  1  0  0  0  0
 18 20  2  0  0  0  0
 18 37  1  0  0  0  0
 19 50  1  0  0  0  0
 20 38  1  0  0  0  0
 21 86  1  0  0  0  0
 22 87  1  0  0  0  0
 23 25  2  0  0  0  0
 23 86  1  0  0  0  0
 24 88  1  0  0  0  0
 25 89  1  0  0  0  0
 26 70  2  0  0  0  0
 27 72  1  0  0  0  0
 27 76  1  0  0  0  0
 28 29  2  0  0  0  0
 28 51  1  0  0  0  0
 29 64  1  0  0  0  0
 30 77  1  0  0  0  0
 30 81  2  0  0  0  0
 31 52  1  0  0  0  0
 31 65  1  0  0  0  0
 31 71  2  0  0  0  0
 32 53  1  0  0  0  0
 32 78  1  0  0  0  0
 32 82  2  0  0  0  0
 33 66  1  0  0  0  0
 33 73  1  0  0  0  0
 33 83  2  0  0  0  0
 34 67  1  0  0  0  0
 34 79  1  0  0  0  0
 34 84  2  0  0  0  0
 35 74  1  0  0  0  0
 35 75  1  0  0  0  0
 35 85  2  0  0  0  0
 36 39  1  0  0  0  0
 37 53  1  0  0  0  0
 38 73  1  0  0  0  0
 39 41  1  0  0  0  0
 40 42  1  0  0  0  0
 40 46  1  0  0  0  0
 41 50  1  0  0  0  0
 42 55  1  0  0  0  0
 43 47  1  0  0  0  0
 43 54  1  0  0  0  0
 44 48  1  0  0  0  0
 44 54  1  0  0  0  0
 45 51  1  0  0  0  0
 45 52  1  0  0  0  0
 46 74  1  0  0  0  0
 47 75  1  0  0  0  0
 48 75  1  0  0  0  0
 49 55  1  0  0  0  0
 49 74  1  0  0  0  0
 50 78  1  0  0  0  0
 51 52  1  0  0  0  0
 53 73  1  0  0  0  0
 54 68  1  0  0  0  0
 55 72  1  0  0  0  0
 56 65  1  0  0  0  0
 57 65  1  0  0  0  0
 58 67  1  0  0  0  0
 59 68  1  0  0  0  0
 60 69  1  0  0  0  0
 61 69  1  0  0  0  0
 62 69  1  0  0  0  0
 63 80  1  0  0  0  0
 64 87  1  0  0  0  0
 66 69  1  0  0  0  0
 66 79  1  0  0  0  0
 67 80  1  0  0  0  0
 68 71  1  0  0  0  0
 70 72  1  0  0  0  0
M  CHG  1  80   1
M  ISO  4  35 100  64 101  75 100  87 101
M  END
> <Batch ID>
0118

> <Smiles>
CNC(C)C(=O)NC(C(=O)N1Cc2cc([101O:1][101CH2:1]C=CC3CC3C(=NC(C)C3CC[100N:0]([100C:0](=O)N4CCCC(n5nc(-c6ccc(Oc7ccc(F)cc7F)cc6)c(C(N)=O)c5N)C4)CC3)C(C)C)ccc2CC1C(=O)NC1CCCc2ccccc21)C(C)(C)C

> <Shape>
0.235

> <Color>
0.089

> <Negative vol penalty>
0.000

$$$$

  -OEChem-04052320183D

 80 88  0     1  0  0  0  0  0999 V2000
  -28.4621  -24.5785   16.9801 C   0  0  0  0  0  0  0  0  0  0  0  0
  -27.2828  -24.7202   17.7044 C   0  0  0  0  0  0  0  0  0  0  0  0
  -24.7142  -14.5280   19.6136 C   0  0  0  0  0  0  0  0  0  0  0  0
  -25.3240  -14.4461   21.9500 C   0  0  0  0  0  0  0  0  0  0  0  0
  -29.6317  -25.1912   17.4278 C   0  0  0  0  0  0  0  0  0  0  0  0
  -27.2727  -25.4739   18.8776 C   0  0  0  0  0  0  0  0  0  0  0  0
  -23.2780  -28.5733   19.1612 C   0  0  0  0  0  0  0  0  0  0  0  0
  -25.0683  -13.1861   19.4741 C   0  0  0  0  0  0  0  0  0  0  0  0
  -25.6781  -13.1042   21.8105 C   0  0  0  0  0  0  0  0  0  0  0  0
  -22.0568  -28.0065   19.5235 C   0  0  0  0  0  0  0  0  0  0  0  0
  -26.4026   -9.5582   22.1554 C   0  0  0  0  0  0  0  0  0  0  0  0
  -25.9736   -8.6678   23.1397 C   0  0  0  0  0  0  0  0  0  0  0  0
  -20.4307  -23.7226   22.5347 C   0  0  0  0  0  0  0  0  0  0  0  0
  -22.3652  -28.7994   21.7808 C   0  0  0  0  0  0  0  0  0  0  0  0
  -23.6759   -9.2244   22.6418 C   0  0  0  0  0  0  0  0  0  0  0  0
  -19.3497  -24.2621   21.8679 C   0  0  0  0  0  0  0  0  0  0  0  0
  -24.8421  -15.1581   20.8515 C   0  0  0  0  0  0  0  0  0  0  0  0
  -23.2137  -17.0590   21.3440 C   0  0  0  0  0  0  0  0  0  0  0  0
  -29.6338  -25.9608   18.6018 C   0  0  0  0  0  0  0  0  0  0  0  0
  -24.0584  -29.2491   20.1103 C   0  0  0  0  0  0  0  0  0  0  0  0
  -28.4438  -26.0964   19.3421 C   0  0  0  0  0  0  0  0  0  0  0  0
  -23.5947  -29.3761   21.4275 C   0  0  0  0  0  0  0  0  0  0  0  0
  -25.5502  -12.4742   20.5726 C   0  0  0  0  0  0  0  0  0  0  0  0
  -21.6016  -28.1170   20.8341 C   0  0  0  0  0  0  0  0  0  0  0  0
  -25.4682  -10.2817   21.4143 C   0  0  0  0  0  0  0  0  0  0  0  0
  -24.6103   -8.5009   23.3829 C   0  0  0  0  0  0  0  0  0  0  0  0
  -24.1049  -10.1148   21.6575 C   0  0  0  0  0  0  0  0  0  0  0  0
  -24.4770  -16.5444   20.9961 C   0  0  0  0  0  0  0  0  0  0  0  0
  -21.5048  -24.5701   22.7147 C   0  0  0  0  0  0  0  0  0  0  0  0
  -23.3870  -18.4215   21.3474 C   0  0  0  0  0  0  0  0  0  0  0  0
  -20.4178  -26.2562   21.6457 C   0  0  0  0  0  0  0  0  0  1  0  0
  -21.9928  -16.3672   21.6380 C   0  0  0  0  0  0  0  0  0  0  0  0
  -26.9592  -28.8274   21.3397 C   0  0  0  0  0  0  0  0  0  0  0  0
  -26.3428  -31.6745   22.7667 C   0  0  0  0  0  0  0  0  0  0  0  0
  -24.0216  -33.9151   23.8796 C   0  0  0  0  0  0  0  0  0  0  0  0
  -26.3606  -22.9459   22.7014 C   0  0  0  0  0  0  0  0  0  0  0  0
  -30.9334  -26.5650   19.0715 C   0  0  0  0  0  0  0  0  0  0  0  0
  -25.3608  -29.8780   19.6973 C   0  0  0  0  0  0  0  0  0  0  0  0
  -24.3852  -30.1090   22.4793 C   0  0  0  0  0  0  0  0  0  0  0  0
  -30.7527  -27.6561   20.1237 C   0  0  0  0  0  0  0  0  0  0  0  0
  -27.2371  -21.2547   19.6934 C   0  0  0  0  0  0  0  0  0  0  0  0
  -29.7734  -27.2016   21.2013 C   0  0  0  0  0  0  0  0  0  0  0  0
  -26.4983  -19.9192   19.7959 C   0  0  0  0  0  0  0  0  0  0  0  0
  -27.7486  -21.7227   21.0540 C   0  0  0  0  0  0  0  0  0  0  0  0
  -25.9843  -20.4523   22.2147 C   0  0  0  0  0  0  0  0  0  0  0  0
  -28.3871  -26.9264   20.6062 C   0  0  1  0  0  0  0  0  0  0  0  0
  -26.3147  -30.0998   20.8670 C   0  0  1  0  0  0  0  0  0  0  0  0
  -25.4013  -19.9668   20.8765 C   0  0  2  0  0  0  0  0  0  0  0  0
  -23.8208  -36.1328   25.0367 C   0  0  0  0  0  0  0  0  0  0  0  0
  -27.0149  -30.3436   25.4289 C   0  0  0  0  0  0  0  0  0  0  0  0
  -25.9032  -32.2632   26.5897 C   0  0  0  0  0  0  0  0  0  0  0  0
  -27.9123  -32.6631   25.1662 C   0  0  0  0  0  0  0  0  0  0  0  0
  -22.6411  -35.1306   21.5611 C   0  0  0  0  0  0  0  0  0  0  0  0
  -23.8055  -24.8312   23.6442 C   0  0  0  0  0  0  0  0  0  0  0  0
  -24.8797  -24.0360   24.3681 C   0  0  0  0  0  0  0  0  0  0  0  0
  -25.7057  -32.1031   24.0665 C   0  0  1  0  0  0  0  0  0  0  0  0
  -23.9034  -35.4175   23.6972 C   0  0  2  0  0  0  0  0  0  0  0  0
  -26.6198  -31.8277   25.2937 C   0  0  0  0  0  0  0  0  0  0  0  0
  -19.3091  -25.5298   21.4080 N   0  0  0  0  0  0  0  0  0  0  0  0
  -25.3857  -17.5020   20.7930 N   0  0  0  0  0  0  0  0  0  0  0  0
  -21.5324  -25.8476   22.2816 N   0  0  0  0  0  0  0  0  0  0  0  0
  -24.6926  -18.6320   21.0139 N   0  0  0  0  0  0  0  0  0  0  0  0
  -25.6553  -30.7012   22.0279 N   0  0  0  0  0  0  0  0  0  0  0  0
  -26.6590  -21.7471   22.0329 N   0  0  0  0  0  0  0  0  0  0  0  0
  -22.5484  -19.4480   21.6030 N   0  0  0  0  0  0  0  0  0  0  0  0
  -21.9900  -14.9665   21.5889 N   0  0  0  0  0  0  0  0  0  0  0  0
  -22.6344  -24.0546   23.3964 N   0  0  0  0  0  0  0  0  0  0  0  0
  -27.6847  -28.1686   20.3655 N   0  0  0  0  0  0  0  0  0  0  0  0
  -25.3379  -33.5048   23.8980 N   0  0  0  0  0  0  0  0  0  0  0  0
  -25.3094  -22.8835   23.6080 N   0  0  0  0  0  0  0  0  0  0  0  0
  -22.6816  -35.7493   22.9111 N   0  3  0  0  0  0  0  0  0  0  0  0
  -20.9314  -16.9737   21.9194 O   0  0  0  0  0  0  0  0  0  0  0  0
  -26.8104  -28.4705   22.5025 O   0  0  0  0  0  0  0  0  0  0  0  0
  -27.4075  -32.1895   22.4164 O   0  0  0  0  0  0  0  0  0  0  0  0
  -23.0441  -33.1795   23.9979 O   0  0  0  0  0  0  0  0  0  0  0  0
  -26.9812  -23.9954   22.5009 O   0  0  0  0  0  0  0  0  0  0  0  0
  -25.8956  -11.1646   20.4369 O   0  0  0  0  0  0  0  0  0  0  0  0
  -20.4103  -27.5641   21.1904 O   0  0  0  0  0  0  0  0  0  1  0  0
  -24.1985   -7.6447   24.3271 F   0  0  0  0  0  0  0  0  0  0  0  0
  -23.2025  -10.8062   20.9480 F   0  0  0  0  0  0  0  0  0  0  0  0
  1  2  1  0  0  0  0
  1  5  2  0  0  0  0
  2  6  2  0  0  0  0
  3  8  2  0  0  0  0
  3 17  1  0  0  0  0
  4  9  1  0  0  0  0
  4 17  2  0  0  0  0
  5 19  1  0  0  0  0
  6 21  1  0  0  0  0
  7 10  2  0  0  0  0
  7 20  1  0  0  0  0
  8 23  1  0  0  0  0
  9 23  2  0  0  0  0
 10 24  1  0  0  0  0
 11 12  2  0  0  0  0
 11 25  1  0  0  0  0
 12 26  1  0  0  0  0
 13 16  1  0  0  0  0
 13 29  2  0  0  0  0
 14 22  1  0  0  0  0
 14 24  2  0  0  0  0
 15 26  2  0  0  0  0
 15 27  1  0  0  0  0
 16 59  2  0  0  0  0
 17 28  1  0  0  0  0
 18 28  1  0  0  0  0
 18 30  2  0  0  0  0
 18 32  1  0  0  0  0
 19 21  2  0  0  0  0
 19 37  1  0  0  0  0
 20 22  2  0  0  0  0
 20 38  1  0  0  0  0
 21 46  1  0  0  0  0
 22 39  1  0  0  0  0
 23 77  1  0  0  0  0
 24 78  1  0  0  0  0
 25 27  2  0  0  0  0
 25 77  1  0  0  0  0
 26 79  1  0  0  0  0
 27 80  1  0  0  0  0
 28 60  2  0  0  0  0
 29 61  1  0  0  0  0
 29 67  1  0  0  0  0
 30 62  1  0  0  0  0
 30 65  1  0  0  0  0
 31 59  1  0  0  0  0
 31 61  2  0  0  0  0
 31 78  1  0  0  0  0
 32 66  1  0  0  0  0
 32 72  2  0  0  0  0
 33 47  1  0  0  0  0
 33 68  1  0  0  0  0
 33 73  2  0  0  0  0
 34 56  1  0  0  0  0
 34 63  1  0  0  0  0
 34 74  2  0  0  0  0
 35 57  1  0  0  0  0
 35 69  1  0  0  0  0
 35 75  2  0  0  0  0
 36 64  1  0  0  0  0
 36 70  1  0  0  0  0
 36 76  2  0  0  0  0
 37 40  1  0  0  0  0
 38 47  1  0  0  0  0
 39 63  1  0  0  0  0
 40 42  1  0  0  0  0
 41 43  1  0  0  0  0
 41 44  1  0  0  0  0
 42 46  1  0  0  0  0
 43 48  1  0  0  0  0
 44 64  1  0  0  0  0
 45 48  1  0  0  0  0
 45 64  1  0  0  0  0
 46 68  1  0  0  0  0
 47 63  1  0  0  0  0
 48 62  1  0  0  0  0
 49 57  1  0  0  0  0
 50 58  1  0  0  0  0
 51 58  1  0  0  0  0
 52 58  1  0  0  0  0
 53 71  1  0  0  0  0
 54 55  1  0  0  0  0
 54 67  1  0  0  0  0
 55 70  1  0  0  0  0
 56 58  1  0  0  0  0
 56 69  1  0  0  0  0
 57 71  1  0  0  0  0
 60 62  1  0  0  0  0
M  CHG  1  71   1
M  ISO  4  31 101  36 100  70 100  78 101
M  END
> <Batch ID>
0118

> <Smiles>
CNC(C)C(=O)NC(C(=O)N1Cc2cc([101O:1][101c:1]3nccc(NCC[100NH:0][100C:0](=O)N4CCCC(n5nc(-c6ccc(Oc7ccc(F)cc7F)cc6)c(C(N)=O)c5N)C4)n3)ccc2CC1C(=O)NC1CCCc2ccccc21)C(C)(C)C

> <Shape>
0.275

> <Color>
0.070

> <Negative vol penalty>
0.000

$$$$

  -OEChem-04052320183D

 84 92  0     1  0  0  0  0  0999 V2000
  -23.9671  -24.0283   18.2262 C   0  0  0  0  0  0  0  0  0  0  0  0
  -24.8289  -22.9429   18.1169 C   0  0  0  0  0  0  0  0  0  0  0  0
  -19.6297  -28.9898   23.4031 C   0  0  0  0  0  0  0  0  0  0  0  0
  -19.3913  -26.8549   22.2976 C   0  0  0  0  0  0  0  0  0  0  0  0
  -22.9021  -23.9802   19.1233 C   0  0  0  0  0  0  0  0  0  0  0  0
  -24.6193  -21.8045   18.8960 C   0  0  0  0  0  0  0  0  0  0  0  0
  -27.4688  -17.9035   17.9655 C   0  0  0  0  0  0  0  0  0  0  0  0
  -18.2699  -29.2382   23.2168 C   0  0  0  0  0  0  0  0  0  0  0  0
  -18.0314  -27.1032   22.1114 C   0  0  0  0  0  0  0  0  0  0  0  0
  -28.8209  -17.8602   18.3026 C   0  0  0  0  0  0  0  0  0  0  0  0
  -14.9323  -30.5908   22.7124 C   0  0  0  0  0  0  0  0  0  0  0  0
  -14.5587  -31.8558   22.2587 C   0  0  0  0  0  0  0  0  0  0  0  0
  -28.3002  -16.4434   20.1843 C   0  0  0  0  0  0  0  0  0  0  0  0
  -15.8689  -31.5247   20.2561 C   0  0  0  0  0  0  0  0  0  0  0  0
  -20.1905  -27.7982   22.9435 C   0  0  0  0  0  0  0  0  0  0  0  0
  -22.2007  -26.9041   24.2347 C   0  0  0  0  0  0  0  0  0  0  0  0
  -22.6874  -22.8452   19.9224 C   0  0  0  0  0  0  0  0  0  0  0  0
  -26.5193  -17.2248   18.7429 C   0  0  0  0  0  0  0  0  0  0  0  0
  -23.5360  -21.7273   19.7900 C   0  0  0  0  0  0  0  0  0  0  0  0
  -26.9370  -16.4776   19.8534 C   0  0  0  0  0  0  0  0  0  0  0  0
  -17.4707  -28.2949   22.5710 C   0  0  0  0  0  0  0  0  0  0  0  0
  -29.2365  -17.1325   19.4138 C   0  0  0  0  0  0  0  0  0  0  0  0
  -15.7743  -29.7927   21.9379 C   0  0  0  0  0  0  0  0  0  0  0  0
  -15.0270  -32.3227   21.0306 C   0  0  0  0  0  0  0  0  0  0  0  0
  -16.2426  -30.2596   20.7097 C   0  0  0  0  0  0  0  0  0  0  0  0
  -21.5952  -27.5413   23.1351 C   0  0  0  0  0  0  0  0  0  0  0  0
  -23.5417  -26.9071   23.9378 C   0  0  0  0  0  0  0  0  0  0  0  0
  -21.6042  -26.3581   25.4187 C   0  0  0  0  0  0  0  0  0  0  0  0
  -24.0015  -18.0975   20.4757 C   0  0  0  0  0  0  0  0  0  0  0  0
  -23.5745  -14.8941   20.7563 C   0  0  0  0  0  0  0  0  0  0  0  0
  -24.9481  -11.7709   20.6835 C   0  0  0  0  0  0  0  0  0  0  0  0
  -27.7280  -26.1527   20.3252 C   0  0  0  0  0  0  0  0  0  0  0  0
  -21.5147  -22.8436   20.8712 C   0  0  0  0  0  0  0  0  0  0  0  0
  -25.0677  -17.2596   18.3504 C   0  0  0  0  0  0  0  0  0  0  0  0
  -25.9598  -15.7148   20.7089 C   0  0  0  0  0  0  0  0  0  0  0  0
  -21.6346  -21.7852   21.9628 C   0  0  0  0  0  0  0  0  0  0  0  0
  -26.1038  -29.3210   20.3052 C   0  0  0  0  0  0  0  0  0  0  0  0
  -21.9796  -20.4383   21.3452 C   0  0  0  0  0  0  0  0  0  0  0  0
  -24.8336  -29.0861   21.1247 C   0  0  0  0  0  0  0  0  0  0  0  0
  -28.2415  -20.1342   22.7322 C   0  0  0  0  0  0  0  0  0  0  0  0
  -29.7961  -22.0979   22.4081 C   0  0  0  0  0  0  0  0  0  0  0  0
  -26.4647  -28.1005   19.4613 C   0  0  0  0  0  0  0  0  0  0  0  0
  -25.3003  -26.6016   21.0333 C   0  0  0  0  0  0  0  0  0  0  0  0
  -27.0489  -21.0628   22.5642 C   0  0  0  0  0  0  0  0  0  0  0  0
  -23.3456  -20.4905   20.6492 C   0  0  1  0  0  0  0  0  0  0  0  0
  -24.1273  -16.9519   19.5115 C   0  0  1  0  0  0  0  0  0  0  0  0
  -29.4657  -20.8789   23.2824 C   0  0  2  0  0  0  0  0  0  0  0  0
  -24.9272  -27.7844   21.9433 C   0  0  2  0  0  0  0  0  0  0  0  0
  -28.5866  -23.0202   22.2465 C   0  0  1  0  0  0  0  0  0  0  0  0
  -24.3565   -9.3511   20.9875 C   0  0  0  0  0  0  0  0  0  0  0  0
  -31.7608  -20.5133   24.2689 C   0  0  0  0  0  0  0  0  0  0  0  0
  -23.4975  -15.2955   23.7800 C   0  0  0  0  0  0  0  0  0  0  0  0
  -23.8627  -12.8329   24.0461 C   0  0  0  0  0  0  0  0  0  0  0  0
  -21.8118  -13.6712   22.9000 C   0  0  0  0  0  0  0  0  0  0  0  0
  -25.7350  -11.1098   17.9081 C   0  0  0  0  0  0  0  0  0  0  0  0
  -28.8661  -24.1682   21.2874 C   0  0  0  0  0  0  0  0  0  0  0  0
  -32.4829  -18.3486   20.4181 C   0  0  0  0  0  0  0  0  0  0  0  0
  -32.0100  -18.5007   21.8560 C   0  0  0  0  0  0  0  0  0  0  0  0
  -31.3477  -18.2274   19.4089 C   0  0  0  0  0  0  0  0  0  1  0  0
  -24.0435  -13.8337   21.7230 C   0  0  1  0  0  0  0  0  0  0  0  0
  -24.5072  -10.4924   19.9938 C   0  0  2  0  0  0  0  0  0  0  0  0
  -30.6628  -19.9472   23.3828 C   0  0  2  0  0  0  0  0  0  0  0  0
  -23.3223  -13.9242   23.0975 C   0  0  0  0  0  0  0  0  0  0  0  0
  -22.4791  -27.9217   22.2087 N   0  0  0  0  0  0  0  0  0  0  0  0
  -23.6536  -27.5224   22.7257 N   0  0  0  0  0  0  0  0  0  0  0  0
  -24.5508  -15.7849   20.2880 N   0  0  0  0  0  0  0  0  0  0  0  0
  -26.5390  -26.9001   20.2975 N   0  0  0  0  0  0  0  0  0  0  0  0
  -24.6242  -26.4436   24.5978 N   0  0  0  0  0  0  0  0  0  0  0  0
  -20.2125  -26.4392   25.5641 N   0  0  0  0  0  0  0  0  0  0  0  0
  -23.5418  -19.2676   19.9023 N   0  0  0  0  0  0  0  0  0  0  0  0
  -23.8721  -12.5553   21.0413 N   0  0  0  0  0  0  0  0  0  0  0  0
  -27.7159  -25.0334   21.1485 N   0  0  0  0  0  0  0  0  0  0  0  0
  -27.4409  -22.2178   21.7027 N   0  3  0  0  0  0  0  0  0  0  0  0
  -25.5051  -10.0893   18.9630 N   0  3  0  0  0  0  0  0  0  0  0  0
  -31.2175  -19.7424   22.0161 N   0  3  0  0  0  0  0  0  0  0  0  0
  -22.2867  -25.8293   26.3286 O   0  0  0  0  0  0  0  0  0  0  0  0
  -24.2981  -17.9315   21.6531 O   0  0  0  0  0  0  0  0  0  0  0  0
  -22.3872  -14.9264   20.4232 O   0  0  0  0  0  0  0  0  0  0  0  0
  -26.1287  -12.0444   20.8879 O   0  0  0  0  0  0  0  0  0  0  0  0
  -28.7281  -26.4631   19.6692 O   0  0  0  0  0  0  0  0  0  0  0  0
  -16.1437  -28.5368   22.3892 O   0  0  0  0  0  0  0  0  0  0  0  0
  -30.5556  -17.0891   19.7454 O   0  0  0  0  0  0  0  0  0  1  0  0
  -14.6669  -33.5369   20.5944 F   0  0  0  0  0  0  0  0  0  0  0  0
  -17.0507  -29.4970   19.9607 F   0  0  0  0  0  0  0  0  0  0  0  0
  1  2  1  0  0  0  0
  1  5  2  0  0  0  0
  2  6  2  0  0  0  0
  3  8  2  0  0  0  0
  3 15  1  0  0  0  0
  4  9  1  0  0  0  0
  4 15  2  0  0  0  0
  5 17  1  0  0  0  0
  6 19  1  0  0  0  0
  7 10  2  0  0  0  0
  7 18  1  0  0  0  0
  8 21  1  0  0  0  0
  9 21  2  0  0  0  0
 10 22  1  0  0  0  0
 11 12  2  0  0  0  0
 11 23  1  0  0  0  0
 12 24  1  0  0  0  0
 13 20  1  0  0  0  0
 13 22  2  0  0  0  0
 14 24  2  0  0  0  0
 14 25  1  0  0  0  0
 15 26  1  0  0  0  0
 16 26  1  0  0  0  0
 16 27  2  0  0  0  0
 16 28  1  0  0  0  0
 17 19  2  0  0  0  0
 17 33  1  0  0  0  0
 18 20  2  0  0  0  0
 18 34  1  0  0  0  0
 19 45  1  0  0  0  0
 20 35  1  0  0  0  0
 21 81  1  0  0  0  0
 22 82  1  0  0  0  0
 23 25  2  0  0  0  0
 23 81  1  0  0  0  0
 24 83  1  0  0  0  0
 25 84  1  0  0  0  0
 26 64  2  0  0  0  0
 27 65  1  0  0  0  0
 27 68  1  0  0  0  0
 28 69  1  0  0  0  0
 28 76  2  0  0  0  0
 29 46  1  0  0  0  0
 29 70  1  0  0  0  0
 29 77  2  0  0  0  0
 30 60  1  0  0  0  0
 30 66  1  0  0  0  0
 30 78  2  0  0  0  0
 31 61  1  0  0  0  0
 31 71  1  0  0  0  0
 31 79  2  0  0  0  0
 32 67  1  0  0  0  0
 32 72  1  0  0  0  0
 32 80  2  0  0  0  0
 33 36  1  0  0  0  0
 34 46  1  0  0  0  0
 35 66  1  0  0  0  0
 36 38  1  0  0  0  0
 37 39  1  0  0  0  0
 37 42  1  0  0  0  0
 38 45  1  0  0  0  0
 39 48  1  0  0  0  0
 40 44  1  0  0  0  0
 40 47  1  0  0  0  0
 41 47  1  0  0  0  0
 41 49  1  0  0  0  0
 42 67  1  0  0  0  0
 43 48  1  0  0  0  0
 43 67  1  0  0  0  0
 44 73  1  0  0  0  0
 45 70  1  0  0  0  0
 46 66  1  0  0  0  0
 47 62  1  0  0  0  0
 48 65  1  0  0  0  0
 49 56  1  0  0  0  0
 49 73  1  0  0  0  0
 50 61  1  0  0  0  0
 51 62  1  0  0  0  0
 52 63  1  0  0  0  0
 53 63  1  0  0  0  0
 54 63  1  0  0  0  0
 55 74  1  0  0  0  0
 56 72  1  0  0  0  0
 57 58  1  0  0  0  0
 57 59  1  0  0  0  0
 58 75  1  0  0  0  0
 59 82  1  0  0  0  0
 60 63  1  0  0  0  0
 60 71  1  0  0  0  0
 61 74  1  0  0  0  0
 62 75  1  0  0  0  0
 64 65  1  0  0  0  0
M  CHG  3  73   1  74   1  75   1
M  ISO  4  32 100  59 101  72 100  82 101
M  END
> <Batch ID>
0118

> <Smiles>
CNC(C)C(=O)NC(C(=O)N1Cc2cc([101O:1][101CH2:1]CCNC(C)C3CCNC(C[100NH:0][100C:0](=O)N4CCCC(n5nc(-c6ccc(Oc7ccc(F)cc7F)cc6)c(C(N)=O)c5N)C4)C3)ccc2CC1C(=O)NC1CCCc2ccccc21)C(C)(C)C

> <Shape>
0.178

> <Color>
0.080

> <Negative vol penalty>
0.000

$$$$

  -OEChem-04052320183D

 88 97  0     1  0  0  0  0  0999 V2000
  -32.1742  -26.6557   18.4060 C   0  0  0  0  0  0  0  0  0  0  0  0
  -31.3745  -25.9133   19.2689 C   0  0  0  0  0  0  0  0  0  0  0  0
  -27.1764  -14.3476   19.3892 C   0  0  0  0  0  0  0  0  0  0  0  0
  -28.2134  -13.7545   21.4891 C   0  0  0  0  0  0  0  0  0  0  0  0
  -32.0416  -28.0427   18.3544 C   0  0  0  0  0  0  0  0  0  0  0  0
  -30.4425  -26.5575   20.0817 C   0  0  0  0  0  0  0  0  0  0  0  0
  -25.9496  -24.2212   20.1143 C   0  0  0  0  0  0  0  0  0  0  0  0
  -27.5267  -15.6823   19.5931 C   0  0  0  0  0  0  0  0  0  0  0  0
  -28.5638  -15.0892   21.6930 C   0  0  0  0  0  0  0  0  0  0  0  0
  -25.8332  -23.0760   20.9009 C   0  0  0  0  0  0  0  0  0  0  0  0
  -30.2899  -17.6069   19.2875 C   0  0  0  0  0  0  0  0  0  0  0  0
  -30.8375  -18.3051   18.2113 C   0  0  0  0  0  0  0  0  0  0  0  0
  -24.7545  -24.3759   22.6231 C   0  0  0  0  0  0  0  0  0  0  0  0
  -20.3432  -14.5919   22.9441 C   0  0  0  0  0  0  0  0  0  0  0  0
  -29.0147  -19.8877   18.3105 C   0  0  0  0  0  0  0  0  0  0  0  0
  -22.2757  -14.4170   24.0863 C   0  0  0  0  0  0  0  0  0  0  0  0
  -27.5197  -13.3837   20.3372 C   0  0  0  0  0  0  0  0  0  0  0  0
  -27.9172  -11.0166   19.4733 C   0  0  0  0  0  0  0  0  0  0  0  0
  -31.1007  -28.7034   19.1599 C   0  0  0  0  0  0  0  0  0  0  0  0
  -25.4784  -25.4565   20.5815 C   0  0  0  0  0  0  0  0  0  0  0  0
  -30.2980  -27.9548   20.0418 C   0  0  0  0  0  0  0  0  0  0  0  0
  -24.8638  -25.5348   21.8394 C   0  0  0  0  0  0  0  0  0  0  0  0
  -21.5119  -13.8095   23.1142 C   0  0  0  0  0  0  0  0  0  0  0  0
  -28.2205  -16.0531   20.7450 C   0  0  0  0  0  0  0  0  0  0  0  0
  -25.2382  -23.1538   22.1567 C   0  0  0  0  0  0  0  0  0  0  0  0
  -29.1047  -18.0491   19.8752 C   0  0  0  0  0  0  0  0  0  0  0  0
  -30.1999  -19.4455   17.7228 C   0  0  0  0  0  0  0  0  0  0  0  0
  -28.4671  -19.1894   19.3867 C   0  0  0  0  0  0  0  0  0  0  0  0
  -27.1576  -12.0050   20.1274 C   0  0  0  0  0  0  0  0  0  0  0  0
  -20.4284  -15.6538   23.8173 C   0  0  0  0  0  0  0  0  0  0  0  0
  -27.1396   -9.8864   19.5391 C   0  0  0  0  0  0  0  0  0  0  0  0
  -29.2102  -11.1116   18.8611 C   0  0  0  0  0  0  0  0  0  0  0  0
  -26.8149  -28.2654   21.2353 C   0  0  0  0  0  0  0  0  0  0  0  0
  -23.7370  -29.1864   21.6831 C   0  0  0  0  0  0  0  0  0  0  0  0
  -20.5244  -28.2980   22.4159 C   0  0  0  0  0  0  0  0  0  0  0  0
  -23.0086  -11.8415   22.5888 C   0  0  0  0  0  0  0  0  0  0  0  0
  -31.0265  -30.2087   19.1037 C   0  0  0  0  0  0  0  0  0  0  0  0
  -25.5874  -26.6774   19.7098 C   0  0  0  0  0  0  0  0  0  0  0  0
  -24.3234  -26.8331   22.3786 C   0  0  0  0  0  0  0  0  0  0  0  0
  -29.7545  -30.7795   19.7253 C   0  0  0  0  0  0  0  0  0  0  0  0
  -22.3765   -9.1662   19.8852 C   0  0  0  0  0  0  0  0  0  0  0  0
  -29.4795  -30.1246   21.0752 C   0  0  0  0  0  0  0  0  0  0  0  0
  -24.5071  -18.6123   23.3876 C   0  0  0  0  0  0  0  0  0  0  0  0
  -25.1570  -18.8328   25.8179 C   0  0  0  0  0  0  0  0  0  0  0  0
  -23.2297  -17.8807   23.7957 C   0  0  0  0  0  0  0  0  0  0  0  0
  -23.8794  -18.1014   26.2258 C   0  0  0  0  0  0  0  0  0  0  0  0
  -23.8061   -9.3089   19.3783 C   0  0  0  0  0  0  0  0  0  0  0  0
  -22.0103  -10.3502   20.7759 C   0  0  0  0  0  0  0  0  0  0  0  0
  -24.1643   -9.7538   21.8880 C   0  0  0  0  0  0  0  0  0  0  0  0
  -29.2583  -28.6150   20.9211 C   0  0  1  0  0  0  0  0  0  0  0  0
  -25.5361  -27.9818   20.4992 C   0  0  1  0  0  0  0  0  0  0  0  0
  -24.9863  -19.5717   24.4845 C   0  0  0  0  0  0  0  0  0  0  0  0
  -23.4009  -17.1418   25.1291 C   0  0  0  0  0  0  0  0  0  0  0  0
  -24.8148   -9.3718   20.5426 C   0  0  2  0  0  0  0  0  0  0  0  0
  -19.4853  -16.7665   24.0511 C   0  0  0  0  0  0  0  0  0  0  0  0
  -18.2370  -29.2755   22.7470 C   0  0  0  0  0  0  0  0  0  0  0  0
  -26.7829  -21.1729   25.1885 C   0  0  0  0  0  0  0  0  0  0  0  0
  -22.2206  -15.7761   26.9033 C   0  0  0  0  0  0  0  0  0  0  0  0
  -24.5740  -30.2069   24.4341 C   0  0  0  0  0  0  0  0  0  0  0  0
  -22.1524  -30.2840   25.0653 C   0  0  0  0  0  0  0  0  0  0  0  0
  -22.9992  -31.7071   23.1997 C   0  0  0  0  0  0  0  0  0  0  0  0
  -19.4030  -26.7317   20.1691 C   0  0  0  0  0  0  0  0  0  0  0  0
  -26.1256  -21.0338   22.7684 C   0  0  0  0  0  0  0  0  0  1  0  0
  -22.7885  -29.2110   22.8573 C   0  0  1  0  0  0  0  0  0  0  0  0
  -19.2053  -28.6524   21.7536 C   0  0  2  0  0  0  0  0  0  0  0  0
  -26.2910  -20.2517   24.0742 C   0  0  2  0  0  0  0  0  0  0  0  0
  -22.0968  -16.4605   25.5397 C   0  0  2  0  0  0  0  0  0  0  0  0
  -23.1404  -30.3280   23.8800 C   0  0  0  0  0  0  0  0  0  0  0  0
  -25.9871  -11.5433   20.5756 N   0  0  0  0  0  0  0  0  0  0  0  0
  -21.6074  -15.5374   24.5062 N   0  0  0  0  0  0  0  0  0  0  0  0
  -26.0054  -10.2523   20.2025 N   0  0  0  0  0  0  0  0  0  0  0  0
  -24.4593  -28.0001   21.4913 N   0  0  0  0  0  0  0  0  0  0  0  0
  -23.0576  -10.7033   21.7455 N   0  0  0  0  0  0  0  0  0  0  0  0
  -27.3221   -8.6252   19.0936 N   0  0  0  0  0  0  0  0  0  0  0  0
  -29.8707  -12.3476   18.8832 N   0  0  0  0  0  0  0  0  0  0  0  0
  -21.8585  -12.6188   22.4271 N   0  0  0  0  0  0  0  0  0  0  0  0
  -27.9273  -28.3478   20.4196 N   0  0  0  0  0  0  0  0  0  0  0  0
  -21.4462  -29.3164   22.2956 N   0  0  0  0  0  0  0  0  0  0  0  0
  -18.5697  -27.4328   21.1796 N   0  3  0  0  0  0  0  0  0  0  0  0
  -29.7563  -10.1337   18.2964 O   0  0  0  0  0  0  0  0  0  0  0  0
  -26.7938  -28.4009   22.4531 O   0  0  0  0  0  0  0  0  0  0  0  0
  -23.8283  -30.1805   20.9585 O   0  0  0  0  0  0  0  0  0  0  0  0
  -20.7166  -27.2265   22.9865 O   0  0  0  0  0  0  0  0  0  0  0  0
  -23.9130  -12.0956   23.3870 O   0  0  0  0  0  0  0  0  0  0  0  0
  -28.5627  -17.3553   20.9442 O   0  0  0  0  0  0  0  0  0  0  0  0
  -25.1238  -22.0376   22.9268 O   0  0  0  0  0  0  0  0  0  1  0  0
  -30.7267  -20.1167   16.6903 F   0  0  0  0  0  0  0  0  0  0  0  0
  -27.3288  -19.6197   19.9480 F   0  0  0  0  0  0  0  0  0  0  0  0
  1  2  1  0  0  0  0
  1  5  2  0  0  0  0
  2  6  2  0  0  0  0
  3  8  2  0  0  0  0
  3 17  1  0  0  0  0
  4  9  1  0  0  0  0
  4 17  2  0  0  0  0
  5 19  1  0  0  0  0
  6 21  1  0  0  0  0
  7 10  2  0  0  0  0
  7 20  1  0  0  0  0
  8 24  1  0  0  0  0
  9 24  2  0  0  0  0
 10 25  1  0  0  0  0
 11 12  2  0  0  0  0
 11 26  1  0  0  0  0
 12 27  1  0  0  0  0
 13 22  1  0  0  0  0
 13 25  2  0  0  0  0
 14 23  1  0  0  0  0
 14 30  2  0  0  0  0
 15 27  2  0  0  0  0
 15 28  1  0  0  0  0
 16 23  2  0  0  0  0
 16 70  1  0  0  0  0
 17 29  1  0  0  0  0
 18 29  1  0  0  0  0
 18 31  2  0  0  0  0
 18 32  1  0  0  0  0
 19 21  2  0  0  0  0
 19 37  1  0  0  0  0
 20 22  2  0  0  0  0
 20 38  1  0  0  0  0
 21 50  1  0  0  0  0
 22 39  1  0  0  0  0
 23 76  1  0  0  0  0
 24 85  1  0  0  0  0
 25 86  1  0  0  0  0
 26 28  2  0  0  0  0
 26 85  1  0  0  0  0
 27 87  1  0  0  0  0
 28 88  1  0  0  0  0
 29 69  2  0  0  0  0
 30 55  1  0  0  0  0
 30 70  1  0  0  0  0
 31 71  1  0  0  0  0
 31 74  1  0  0  0  0
 32 75  1  0  0  0  0
 32 80  2  0  0  0  0
 33 51  1  0  0  0  0
 33 77  1  0  0  0  0
 33 81  2  0  0  0  0
 34 64  1  0  0  0  0
 34 72  1  0  0  0  0
 34 82  2  0  0  0  0
 35 65  1  0  0  0  0
 35 78  1  0  0  0  0
 35 83  2  0  0  0  0
 36 73  1  0  0  0  0
 36 76  1  0  0  0  0
 36 84  2  0  0  0  0
 37 40  1  0  0  0  0
 38 51  1  0  0  0  0
 39 72  1  0  0  0  0
 40 42  1  0  0  0  0
 41 47  1  0  0  0  0
 41 48  1  0  0  0  0
 42 50  1  0  0  0  0
 43 45  1  0  0  0  0
 43 52  1  0  0  0  0
 44 46  1  0  0  0  0
 44 52  1  0  0  0  0
 45 53  1  0  0  0  0
 46 53  1  0  0  0  0
 47 54  1  0  0  0  0
 48 73  1  0  0  0  0
 49 54  1  0  0  0  0
 49 73  1  0  0  0  0
 50 77  1  0  0  0  0
 51 72  1  0  0  0  0
 52 66  1  0  0  0  0
 53 67  1  0  0  0  0
 54 71  1  0  0  0  0
 56 65  1  0  0  0  0
 57 66  1  0  0  0  0
 58 67  1  0  0  0  0
 59 68  1  0  0  0  0
 60 68  1  0  0  0  0
 61 68  1  0  0  0  0
 62 79  1  0  0  0  0
 63 66  1  0  0  0  0
 63 86  1  0  0  0  0
 64 68  1  0  0  0  0
 64 78  1  0  0  0  0
 65 79  1  0  0  0  0
 67 70  1  0  0  0  0
 69 71  1  0  0  0  0
M  CHG  1  79   1
M  ISO  4  36 100  63 101  76 100  86 101
M  END
> <Batch ID>
0118

> <Smiles>
CNC(C)C(=O)NC(C(=O)N1Cc2cc([101O:1][101CH2:1]C(C)C3CCC(C(C)n4cc([100NH:0][100C:0](=O)N5CCCC(n6nc(-c7ccc(Oc8ccc(F)cc8F)cc7)c(C(N)=O)c6N)C5)cc4C)CC3)ccc2CC1C(=O)NC1CCCc2ccccc21)C(C)(C)C

> <Shape>
0.248

> <Color>
0.063

> <Negative vol penalty>
0.000

$$$$

  -OEChem-04052320183D

 93103  0     1  0  0  0  0  0999 V2000
  -17.4666  -32.8962   18.4421 C   0  0  0  0  0  0  0  0  0  0  0  0
  -18.7125  -32.8092   17.8291 C   0  0  0  0  0  0  0  0  0  0  0  0
  -24.2033   -9.6477   22.5340 C   0  0  0  0  0  0  0  0  0  0  0  0
  -24.8916   -9.2189   20.2582 C   0  0  0  0  0  0  0  0  0  0  0  0
  -17.3776  -33.2243   19.7942 C   0  0  0  0  0  0  0  0  0  0  0  0
  -19.8701  -33.0514   18.5678 C   0  0  0  0  0  0  0  0  0  0  0  0
  -24.9977  -28.0289   19.1790 C   0  0  0  0  0  0  0  0  0  0  0  0
  -24.0263   -8.2793   22.7383 C   0  0  0  0  0  0  0  0  0  0  0  0
  -24.7146   -7.8505   20.4624 C   0  0  0  0  0  0  0  0  0  0  0  0
  -26.1179  -27.1974   19.1689 C   0  0  0  0  0  0  0  0  0  0  0  0
  -21.7080   -5.9313   22.0054 C   0  0  0  0  0  0  0  0  0  0  0  0
  -20.5464   -5.5192   22.6584 C   0  0  0  0  0  0  0  0  0  0  0  0
  -27.2823  -28.7305   20.6324 C   0  0  0  0  0  0  0  0  0  0  0  0
  -29.2808  -17.1854   24.9459 C   0  0  0  0  0  0  0  0  0  0  0  0
  -21.8832   -4.5143   24.4021 C   0  0  0  0  0  0  0  0  0  0  0  0
  -30.8775  -18.2171   23.7392 C   0  0  0  0  0  0  0  0  0  0  0  0
  -24.6360  -10.1175   21.2940 C   0  0  0  0  0  0  0  0  0  0  0  0
  -23.8430  -12.5400   21.1920 C   0  0  0  0  0  0  0  0  0  0  0  0
  -18.5352  -33.4612   20.5522 C   0  0  0  0  0  0  0  0  0  0  0  0
  -25.0101  -29.2081   19.9291 C   0  0  0  0  0  0  0  0  0  0  0  0
  -19.7964  -33.3843   19.9311 C   0  0  0  0  0  0  0  0  0  0  0  0
  -26.1587  -29.5610   20.6563 C   0  0  0  0  0  0  0  0  0  0  0  0
  -30.3827  -16.9776   24.0800 C   0  0  0  0  0  0  0  0  0  0  0  0
  -24.2820   -7.3807   21.7025 C   0  0  0  0  0  0  0  0  0  0  0  0
  -27.2574  -27.5475   19.8936 C   0  0  0  0  0  0  0  0  0  0  0  0
  -22.9572   -5.6348   22.5507 C   0  0  0  0  0  0  0  0  0  0  0  0
  -20.6340   -4.8108   23.8568 C   0  0  0  0  0  0  0  0  0  0  0  0
  -23.0448   -4.9263   23.7490 C   0  0  0  0  0  0  0  0  0  0  0  0
  -24.8185  -11.5310   21.0822 C   0  0  0  0  0  0  0  0  0  0  0  0
  -29.1358  -18.5457   25.1078 C   0  0  0  0  0  0  0  0  0  0  0  0
  -24.5146  -13.7007   20.8951 C   0  0  0  0  0  0  0  0  0  0  0  0
  -22.4539  -12.4373   21.5322 C   0  0  0  0  0  0  0  0  0  0  0  0
  -23.1398  -32.2658   21.0374 C   0  0  0  0  0  0  0  0  0  0  0  0
  -24.6922  -31.2383   23.4756 C   0  0  0  0  0  0  0  0  0  0  0  0
  -25.7755  -30.4384   26.6098 C   0  0  0  0  0  0  0  0  0  0  0  0
  -30.2778  -15.2836   21.2573 C   0  0  0  0  0  0  0  0  0  0  0  0
  -18.3865  -33.8591   21.9993 C   0  0  0  0  0  0  0  0  0  0  0  0
  -23.8486  -30.1644   19.9200 C   0  0  0  0  0  0  0  0  0  0  0  0
  -26.1392  -30.8563   21.4212 C   0  0  0  0  0  0  0  0  0  0  0  0
  -19.6792  -33.7334   22.8015 C   0  0  0  0  0  0  0  0  0  0  0  0
  -28.2220  -15.3355   18.3508 C   0  0  0  0  0  0  0  0  0  0  0  0
  -27.6092  -20.4099   28.1577 C   0  0  0  0  0  0  0  0  0  0  0  0
  -20.8459  -34.3463   22.0332 C   0  0  0  0  0  0  0  0  0  0  0  0
  -28.6455  -19.6396   27.3398 C   0  0  0  0  0  0  0  0  0  0  0  0
  -27.0286  -14.4574   18.7311 C   0  0  0  0  0  0  0  0  0  0  0  0
  -28.7812  -20.7805   22.2463 C   0  0  0  0  0  0  0  0  0  0  0  0
  -29.5247  -14.8060   18.9462 C   0  0  0  0  0  0  0  0  0  0  0  0
  -28.3026  -13.7112   20.7851 C   0  0  0  0  0  0  0  0  0  0  0  0
  -26.2712  -19.6884   28.1913 C   0  0  0  0  0  0  0  0  0  0  0  0
  -28.6666  -21.7021   21.0438 C   0  0  0  0  0  0  0  0  0  0  0  0
  -26.7673  -18.6129   25.9834 C   0  0  0  0  0  0  0  0  0  0  0  0
  -30.1632  -22.6365   22.7376 C   0  0  0  0  0  0  0  0  0  0  0  0
  -21.0763  -33.6156   20.7049 C   0  0  1  0  0  0  0  0  0  0  0  0
  -28.1208  -19.3282   25.9269 C   0  0  2  0  0  0  0  0  0  0  0  0
  -23.6369  -30.8696   21.2717 C   0  0  1  0  0  0  0  0  0  0  0  0
  -30.1414  -21.1204   22.8378 C   0  0  1  0  0  0  0  0  0  0  0  0
  -26.9578  -14.2364   20.2541 C   0  0  2  0  0  0  0  0  0  0  0  0
  -26.3073  -31.4721   28.8338 C   0  0  0  0  0  0  0  0  0  0  0  0
  -31.6718  -21.0368   24.8520 C   0  0  0  0  0  0  0  0  0  0  0  0
  -27.3080  -32.3229   22.3418 C   0  0  0  0  0  0  0  0  0  0  0  0
  -28.1804  -32.4686   24.6840 C   0  0  0  0  0  0  0  0  0  0  0  0
  -26.1938  -33.8177   24.0087 C   0  0  0  0  0  0  0  0  0  0  0  0
  -23.7059  -28.8292   27.9832 C   0  0  0  0  0  0  0  0  0  0  0  0
  -30.9051  -15.6745   23.6264 C   0  0  0  0  0  0  0  0  0  0  0  0
  -29.8187  -25.3577   21.1880 C   0  0  0  0  0  0  0  0  0  0  0  0
  -28.8204  -24.2158   21.3043 C   0  0  0  0  0  0  0  0  0  0  0  0
  -29.1685  -26.7288   21.0489 C   0  0  0  0  0  0  0  0  0  1  0  0
  -25.9542  -31.3174   24.2969 C   0  0  1  0  0  0  0  0  0  0  0  0
  -25.2405  -30.7999   27.9837 C   0  0  2  0  0  0  0  0  0  0  0  0
  -30.3207  -20.6167   24.2589 C   0  0  2  0  0  0  0  0  0  0  0  0
  -26.8996  -32.4569   23.8224 C   0  0  0  0  0  0  0  0  0  0  0  0
  -26.0184  -12.0088   20.7418 N   0  0  0  0  0  0  0  0  0  0  0  0
  -30.1116  -19.1628   24.3694 N   0  0  0  0  0  0  0  0  0  0  0  0
  -25.8013  -13.3308   20.6352 N   0  0  0  0  0  0  0  0  0  0  0  0
  -24.8447  -31.0187   22.1012 N   0  0  0  0  0  0  0  0  0  0  0  0
  -29.3913  -14.6200   20.3931 N   0  0  0  0  0  0  0  0  0  0  0  0
  -24.1240  -14.9915   20.8335 N   0  0  0  0  0  0  0  0  0  0  0  0
  -21.9257  -11.1688   21.8083 N   0  0  0  0  0  0  0  0  0  0  0  0
  -21.7656  -32.3632   20.9298 N   0  0  0  0  0  0  0  0  0  0  0  0
  -25.5294  -31.4336   25.6877 N   0  0  0  0  0  0  0  0  0  0  0  0
  -30.0779  -15.0575   22.6136 N   0  0  0  0  0  0  0  0  0  0  0  0
  -25.8140  -19.4327   26.7930 N   0  3  0  0  0  0  0  0  0  0  0  0
  -29.5300  -22.9026   21.3878 N   0  3  2  0  0  0  0  0  0  0  0  0
  -24.7734  -29.5771   28.6960 N   0  3  0  0  0  0  0  0  0  0  0  0
  -21.6996  -13.4387   21.5736 O   0  0  0  0  0  0  0  0  0  0  0  0
  -23.9430  -33.1882   20.9610 O   0  0  0  0  0  0  0  0  0  0  0  0
  -23.5998  -31.3730   24.0339 O   0  0  0  0  0  0  0  0  0  0  0  0
  -26.3572  -29.3806   26.3787 O   0  0  0  0  0  0  0  0  0  0  0  0
  -31.1771  -16.0270   20.8505 O   0  0  0  0  0  0  0  0  0  0  0  0
  -24.1095   -6.0453   21.9016 O   0  0  0  0  0  0  0  0  0  0  0  0
  -28.3459  -26.7291   19.8829 O   0  0  0  0  0  0  0  0  0  1  0  0
  -19.5183   -4.4165   24.4845 F   0  0  0  0  0  0  0  0  0  0  0  0
  -24.2420   -4.6396   24.2783 F   0  0  0  0  0  0  0  0  0  0  0  0
  1  2  1  0  0  0  0
  1  5  2  0  0  0  0
  2  6  2  0  0  0  0
  3  8  2  0  0  0  0
  3 17  1  0  0  0  0
  4  9  1  0  0  0  0
  4 17  2  0  0  0  0
  5 19  1  0  0  0  0
  6 21  1  0  0  0  0
  7 10  2  0  0  0  0
  7 20  1  0  0  0  0
  8 24  1  0  0  0  0
  9 24  2  0  0  0  0
 10 25  1  0  0  0  0
 11 12  2  0  0  0  0
 11 26  1  0  0  0  0
 12 27  1  0  0  0  0
 13 22  1  0  0  0  0
 13 25  2  0  0  0  0
 14 23  1  0  0  0  0
 14 30  2  0  0  0  0
 15 27  2  0  0  0  0
 15 28  1  0  0  0  0
 16 23  2  0  0  0  0
 16 73  1  0  0  0  0
 17 29  1  0  0  0  0
 18 29  1  0  0  0  0
 18 31  2  0  0  0  0
 18 32  1  0  0  0  0
 19 21  2  0  0  0  0
 19 37  1  0  0  0  0
 20 22  2  0  0  0  0
 20 38  1  0  0  0  0
 21 53  1  0  0  0  0
 22 39  1  0  0  0  0
 23 64  1  0  0  0  0
 24 90  1  0  0  0  0
 25 91  1  0  0  0  0
 26 28  2  0  0  0  0
 26 90  1  0  0  0  0
 27 92  1  0  0  0  0
 28 93  1  0  0  0  0
 29 72  2  0  0  0  0
 30 54  1  0  0  0  0
 30 73  1  0  0  0  0
 31 74  1  0  0  0  0
 31 77  1  0  0  0  0
 32 78  1  0  0  0  0
 32 85  2  0  0  0  0
 33 55  1  0  0  0  0
 33 79  1  0  0  0  0
 33 86  2  0  0  0  0
 34 68  1  0  0  0  0
 34 75  1  0  0  0  0
 34 87  2  0  0  0  0
 35 69  1  0  0  0  0
 35 80  1  0  0  0  0
 35 88  2  0  0  0  0
 36 76  1  0  0  0  0
 36 81  1  0  0  0  0
 36 89  2  0  0  0  0
 37 40  1  0  0  0  0
 38 55  1  0  0  0  0
 39 75  1  0  0  0  0
 40 43  1  0  0  0  0
 41 45  1  0  0  0  0
 41 47  1  0  0  0  0
 42 44  1  0  0  0  0
 42 49  1  0  0  0  0
 43 53  1  0  0  0  0
 44 54  1  0  0  0  0
 45 57  1  0  0  0  0
 46 50  1  0  0  0  0
 46 56  1  0  0  0  0
 47 76  1  0  0  0  0
 48 57  1  0  0  0  0
 48 76  1  0  0  0  0
 49 82  1  0  0  0  0
 50 83  1  0  0  0  0
 51 54  1  0  0  0  0
 51 82  1  0  0  0  0
 52 56  1  0  0  0  0
 52 83  1  0  0  0  0
 53 79  1  0  0  0  0
 55 75  1  0  0  0  0
 56 70  1  0  0  0  0
 57 74  1  0  0  0  0
 58 69  1  0  0  0  0
 59 70  1  0  0  0  0
 60 71  1  0  0  0  0
 61 71  1  0  0  0  0
 62 71  1  0  0  0  0
 63 84  1  0  0  0  0
 64 81  1  0  0  0  0
 65 66  1  0  0  0  0
 65 67  1  0  0  0  0
 66 83  1  0  0  0  0
 67 91  1  0  0  0  0
 68 71  1  0  0  0  0
 68 80  1  0  0  0  0
 69 84  1  0  0  0  0
 70 73  1  0  0  0  0
 72 74  1  0  0  0  0
M  CHG  3  82   1  83   1  84   1
M  ISO  4  36 100  67 101  81 100  91 101
M  END
> <Batch ID>
0118

> <Smiles>
CNC(C)C(=O)NC(C(=O)N1Cc2cc([101O:1][101CH2:1]CCN3CCC(C(C)n4cc(C[100NH:0][100C:0](=O)N5CCCC(n6nc(-c7ccc(Oc8ccc(F)cc8F)cc7)c(C(N)=O)c6N)C5)cc4C4CCCNC4)C3)ccc2CC1C(=O)NC1CCCc2ccccc21)C(C)(C)C

> <Shape>
0.291

> <Color>
0.125

> <Negative vol penalty>
0.000

$$$$

  -OEChem-04052320183D

 84 92  0     1  0  0  0  0  0999 V2000
  -29.9499  -31.8976   25.8174 C   0  0  0  0  0  0  0  0  0  0  0  0
  -29.5854  -30.7833   25.0686 C   0  0  0  0  0  0  0  0  0  0  0  0
  -24.8831   -8.2770   20.9333 C   0  0  0  0  0  0  0  0  0  0  0  0
  -23.2507   -9.9630   20.3592 C   0  0  0  0  0  0  0  0  0  0  0  0
  -28.9667  -32.7022   26.3918 C   0  0  0  0  0  0  0  0  0  0  0  0
  -28.2373  -30.4723   24.8945 C   0  0  0  0  0  0  0  0  0  0  0  0
  -27.1288  -29.2456   20.1079 C   0  0  0  0  0  0  0  0  0  0  0  0
  -23.8551   -7.3771   21.2138 C   0  0  0  0  0  0  0  0  0  0  0  0
  -22.2226   -9.0631   20.6397 C   0  0  0  0  0  0  0  0  0  0  0  0
  -27.4722  -27.9627   19.6835 C   0  0  0  0  0  0  0  0  0  0  0  0
  -21.6887   -6.7791   23.7385 C   0  0  0  0  0  0  0  0  0  0  0  0
  -21.7901   -6.0242   24.9070 C   0  0  0  0  0  0  0  0  0  0  0  0
  -25.1893  -27.2521   20.0045 C   0  0  0  0  0  0  0  0  0  0  0  0
  -21.7566   -3.9937   23.5982 C   0  0  0  0  0  0  0  0  0  0  0  0
  -24.5810   -9.5700   20.5060 C   0  0  0  0  0  0  0  0  0  0  0  0
  -26.6611  -10.3557   19.2556 C   0  0  0  0  0  0  0  0  0  0  0  0
  -27.6057  -32.4064   26.2166 C   0  0  0  0  0  0  0  0  0  0  0  0
  -25.8133  -29.5391   20.4948 C   0  0  0  0  0  0  0  0  0  0  0  0
  -27.2349  -31.2729   25.4681 C   0  0  0  0  0  0  0  0  0  0  0  0
  -24.8313  -28.5402   20.4309 C   0  0  0  0  0  0  0  0  0  0  0  0
  -22.5248   -7.7701   21.0670 C   0  0  0  0  0  0  0  0  0  0  0  0
  -26.5030  -26.9650   19.6345 C   0  0  0  0  0  0  0  0  0  0  0  0
  -21.6212   -6.1412   22.4998 C   0  0  0  0  0  0  0  0  0  0  0  0
  -21.8241   -4.6315   24.8369 C   0  0  0  0  0  0  0  0  0  0  0  0
  -21.6551   -4.7486   22.4296 C   0  0  0  0  0  0  0  0  0  0  0  0
  -25.6425  -10.5003   20.2166 C   0  0  0  0  0  0  0  0  0  0  0  0
  -27.4097  -11.5012   19.3737 C   0  0  0  0  0  0  0  0  0  0  0  0
  -26.9084   -9.2820   18.3382 C   0  0  0  0  0  0  0  0  0  0  0  0
  -24.4301  -30.5057   23.1884 C   0  0  0  0  0  0  0  0  0  0  0  0
  -27.3247  -23.4149   20.8671 C   0  0  0  0  0  0  0  0  0  0  0  0
  -21.7921  -30.6894   21.3097 C   0  0  0  0  0  0  0  0  0  0  0  0
  -19.3709  -30.3883   18.9235 C   0  0  0  0  0  0  0  0  0  0  0  0
  -26.0340  -16.9212   21.2675 C   0  0  0  0  0  0  0  0  0  0  0  0
  -26.5799  -33.2785   26.8961 C   0  0  0  0  0  0  0  0  0  0  0  0
  -25.4533  -30.9348   20.9246 C   0  0  0  0  0  0  0  0  0  0  0  0
  -23.4003  -28.8092   20.8161 C   0  0  0  0  0  0  0  0  0  0  0  0
  -25.1660  -33.0933   26.3514 C   0  0  0  0  0  0  0  0  0  0  0  0
  -28.6846  -14.8288   22.5690 C   0  0  0  0  0  0  0  0  0  0  0  0
  -24.8340  -31.6102   26.2214 C   0  0  0  0  0  0  0  0  0  0  0  0
  -28.2915  -13.4589   22.0129 C   0  0  0  0  0  0  0  0  0  0  0  0
  -27.0371  -19.8484   20.1846 C   0  0  0  0  0  0  0  0  0  0  0  0
  -26.0947  -20.4348   22.4508 C   0  0  0  0  0  0  0  0  0  0  0  0
  -27.4541  -15.6340   22.9760 C   0  0  0  0  0  0  0  0  0  0  0  0
  -26.6785  -21.2519   19.6983 C   0  0  0  0  0  0  0  0  0  0  0  0
  -25.7510  -21.8243   21.9189 C   0  0  0  0  0  0  0  0  0  0  0  0
  -26.0533  -14.4438   21.3344 C   0  0  0  0  0  0  0  0  0  0  0  0
  -25.7825  -30.9168   25.2360 C   0  0  1  0  0  0  0  0  0  0  0  0
  -24.1949  -30.9890   21.7853 C   0  0  1  0  0  0  0  0  0  0  0  0
  -27.2523  -13.5898   20.8837 C   0  0  2  0  0  0  0  0  0  0  0  0
  -26.1155  -19.4006   21.3221 C   0  0  0  0  0  0  0  0  0  0  0  0
  -16.9038  -30.6840   18.5721 C   0  0  0  0  0  0  0  0  0  0  0  0
  -30.4481  -24.0098   20.7907 C   0  0  0  0  0  0  0  0  0  0  0  0
  -30.3475  -23.0244   18.4858 C   0  0  0  0  0  0  0  0  0  0  0  0
  -21.2671  -28.0973   22.8313 C   0  0  0  0  0  0  0  0  0  0  0  0
  -19.0538  -27.9460   21.6709 C   0  0  0  0  0  0  0  0  0  0  0  0
  -19.5426  -29.8757   23.1742 C   0  0  0  0  0  0  0  0  0  0  0  0
  -19.7970  -32.4363   16.8299 C   0  0  0  0  0  0  0  0  0  0  0  0
  -28.1709  -25.2772   19.4749 C   0  0  0  0  0  0  0  0  0  1  0  0
  -28.1765  -23.7600   19.6715 C   0  0  1  0  0  0  0  0  0  0  0  0
  -20.6861  -29.7371   20.9236 C   0  0  1  0  0  0  0  0  0  0  0  0
  -18.2738  -31.3374   18.4763 C   0  0  2  0  0  0  0  0  0  0  0  0
  -29.6036  -23.1823   19.8154 C   0  0  0  0  0  0  0  0  0  0  0  0
  -20.1615  -28.9157   22.1350 C   0  0  0  0  0  0  0  0  0  0  0  0
  -25.7329  -11.6472   20.8952 N   0  0  0  0  0  0  0  0  0  0  0  0
  -26.8173  -12.2336   20.3601 N   0  0  0  0  0  0  0  0  0  0  0  0
  -23.0993  -30.1879   21.2357 N   0  0  0  0  0  0  0  0  0  0  0  0
  -26.6369  -22.2022   20.8163 N   0  0  0  0  0  0  0  0  0  0  0  0
  -26.5136  -15.7369   21.8513 N   0  0  0  0  0  0  0  0  0  0  0  0
  -28.5104  -11.9433   18.7291 N   0  0  0  0  0  0  0  0  0  0  0  0
  -26.3105   -9.3343   17.0717 N   0  0  0  0  0  0  0  0  0  0  0  0
  -25.3999  -31.2137   23.8723 N   0  0  0  0  0  0  0  0  0  0  0  0
  -19.6662  -30.5431   20.2614 N   0  0  0  0  0  0  0  0  0  0  0  0
  -26.5134  -18.1026   21.8199 N   0  0  0  0  0  0  0  0  0  0  0  0
  -18.4963  -31.7578   17.0640 N   0  3  0  0  0  0  0  0  0  0  0  0
  -27.6247   -8.2971   18.6388 O   0  0  0  0  0  0  0  0  0  0  0  0
  -23.7788  -29.5613   23.6193 O   0  0  0  0  0  0  0  0  0  0  0  0
  -27.2755  -24.1996   21.8179 O   0  0  0  0  0  0  0  0  0  0  0  0
  -21.5071  -31.8382   21.6571 O   0  0  0  0  0  0  0  0  0  0  0  0
  -19.9094  -29.5871   18.1629 O   0  0  0  0  0  0  0  0  0  0  0  0
  -25.2410  -16.9256   20.3198 O   0  0  0  0  0  0  0  0  0  0  0  0
  -21.5213   -6.8921   21.3405 O   0  0  0  0  0  0  0  0  0  0  0  0
  -26.8355  -25.7117   19.2213 O   0  0  0  0  0  0  0  0  0  1  0  0
  -21.9230   -3.9068   25.9590 F   0  0  0  0  0  0  0  0  0  0  0  0
  -21.5918   -4.1302   21.2424 F   0  0  0  0  0  0  0  0  0  0  0  0
  1  2  1  0  0  0  0
  1  5  2  0  0  0  0
  2  6  2  0  0  0  0
  3  8  2  0  0  0  0
  3 15  1  0  0  0  0
  4  9  1  0  0  0  0
  4 15  2  0  0  0  0
  5 17  1  0  0  0  0
  6 19  1  0  0  0  0
  7 10  2  0  0  0  0
  7 18  1  0  0  0  0
  8 21  1  0  0  0  0
  9 21  2  0  0  0  0
 10 22  1  0  0  0  0
 11 12  2  0  0  0  0
 11 23  1  0  0  0  0
 12 24  1  0  0  0  0
 13 20  1  0  0  0  0
 13 22  2  0  0  0  0
 14 24  2  0  0  0  0
 14 25  1  0  0  0  0
 15 26  1  0  0  0  0
 16 26  1  0  0  0  0
 16 27  2  0  0  0  0
 16 28  1  0  0  0  0
 17 19  2  0  0  0  0
 17 34  1  0  0  0  0
 18 20  2  0  0  0  0
 18 35  1  0  0  0  0
 19 47  1  0  0  0  0
 20 36  1  0  0  0  0
 21 81  1  0  0  0  0
 22 82  1  0  0  0  0
 23 25  2  0  0  0  0
 23 81  1  0  0  0  0
 24 83  1  0  0  0  0
 25 84  1  0  0  0  0
 26 64  2  0  0  0  0
 27 65  1  0  0  0  0
 27 69  1  0  0  0  0
 28 70  1  0  0  0  0
 28 75  2  0  0  0  0
 29 48  1  0  0  0  0
 29 71  1  0  0  0  0
 29 76  2  0  0  0  0
 30 59  1  0  0  0  0
 30 67  1  0  0  0  0
 30 77  2  0  0  0  0
 31 60  1  0  0  0  0
 31 66  1  0  0  0  0
 31 78  2  0  0  0  0
 32 61  1  0  0  0  0
 32 72  1  0  0  0  0
 32 79  2  0  0  0  0
 33 68  1  0  0  0  0
 33 73  1  0  0  0  0
 33 80  2  0  0  0  0
 34 37  1  0  0  0  0
 35 48  1  0  0  0  0
 36 66  1  0  0  0  0
 37 39  1  0  0  0  0
 38 40  1  0  0  0  0
 38 43  1  0  0  0  0
 39 47  1  0  0  0  0
 40 49  1  0  0  0  0
 41 44  1  0  0  0  0
 41 50  1  0  0  0  0
 42 45  1  0  0  0  0
 42 50  1  0  0  0  0
 43 68  1  0  0  0  0
 44 67  1  0  0  0  0
 45 67  1  0  0  0  0
 46 49  1  0  0  0  0
 46 68  1  0  0  0  0
 47 71  1  0  0  0  0
 48 66  1  0  0  0  0
 49 65  1  0  0  0  0
 50 73  1  0  0  0  0
 51 61  1  0  0  0  0
 52 62  1  0  0  0  0
 53 62  1  0  0  0  0
 54 63  1  0  0  0  0
 55 63  1  0  0  0  0
 56 63  1  0  0  0  0
 57 74  1  0  0  0  0
 58 59  1  0  0  0  0
 58 82  1  0  0  0  0
 59 62  1  0  0  0  0
 60 63  1  0  0  0  0
 60 72  1  0  0  0  0
 61 74  1  0  0  0  0
 64 65  1  0  0  0  0
M  CHG  1  74   1
M  ISO  4  33 100  58 101  73 100  82 101
M  END
> <Batch ID>
0118

> <Smiles>
CNC(C)C(=O)NC(C(=O)N1Cc2cc([101O:1][101CH2:1]C(C(=O)N3CCC([100NH:0][100C:0](=O)N4CCCC(n5nc(-c6ccc(Oc7ccc(F)cc7F)cc6)c(C(N)=O)c5N)C4)CC3)C(C)C)ccc2CC1C(=O)NC1CCCc2ccccc21)C(C)(C)C

> <Shape>
0.321

> <Color>
0.114

> <Negative vol penalty>
0.000

$$$$
