
  -OEChem-04052320203D

 84 92  0     1  0  0  0  0  0999 V2000
  -13.5748  -10.1261   20.8594 C   0  0  0  0  0  0  0  0  0  0  0  0
  -14.9159   -9.7567   20.8812 C   0  0  0  0  0  0  0  0  0  0  0  0
  -22.8523  -10.0827   20.0744 C   0  0  0  0  0  0  0  0  0  0  0  0
  -24.2894   -9.5001   21.9272 C   0  0  0  0  0  0  0  0  0  0  0  0
  -13.1869  -11.3682   21.3603 C   0  0  0  0  0  0  0  0  0  0  0  0
  -15.8700  -10.6296   21.4028 C   0  0  0  0  0  0  0  0  0  0  0  0
  -22.0872  -10.6255   24.9614 C   0  0  0  0  0  0  0  0  0  0  0  0
  -22.1497   -8.8898   20.2442 C   0  0  0  0  0  0  0  0  0  0  0  0
  -23.5867   -8.3072   22.0970 C   0  0  0  0  0  0  0  0  0  0  0  0
  -23.3763  -11.1498   24.8778 C   0  0  0  0  0  0  0  0  0  0  0  0
  -20.6633   -7.3143   23.4711 C   0  0  0  0  0  0  0  0  0  0  0  0
  -20.3091   -6.9519   24.7706 C   0  0  0  0  0  0  0  0  0  0  0  0
  -22.5800  -13.2371   25.7879 C   0  0  0  0  0  0  0  0  0  0  0  0
  -21.5883   -4.9141   24.5511 C   0  0  0  0  0  0  0  0  0  0  0  0
  -23.9222  -10.3879   20.9159 C   0  0  0  0  0  0  0  0  0  0  0  0
  -24.1353  -12.9281   20.8190 C   0  0  0  0  0  0  0  0  0  0  0  0
  -14.1355  -12.2528   21.8972 C   0  0  0  0  0  0  0  0  0  0  0  0
  -21.0308  -11.4081   25.4494 C   0  0  0  0  0  0  0  0  0  0  0  0
  -15.4946  -11.8851   21.9101 C   0  0  0  0  0  0  0  0  0  0  0  0
  -21.2788  -12.7196   25.8790 C   0  0  0  0  0  0  0  0  0  0  0  0
  -22.5169   -8.0021   21.2555 C   0  0  0  0  0  0  0  0  0  0  0  0
  -23.6224  -12.4567   25.2884 C   0  0  0  0  0  0  0  0  0  0  0  0
  -21.4799   -6.4765   22.7115 C   0  0  0  0  0  0  0  0  0  0  0  0
  -20.7716   -5.7519   25.3106 C   0  0  0  0  0  0  0  0  0  0  0  0
  -21.9424   -5.2765   23.2515 C   0  0  0  0  0  0  0  0  0  0  0  0
  -24.6488  -11.6197   20.7406 C   0  0  0  0  0  0  0  0  0  0  0  0
  -25.2189  -13.7373   20.5792 C   0  0  0  0  0  0  0  0  0  0  0  0
  -22.7983  -13.3724   21.0850 C   0  0  0  0  0  0  0  0  0  0  0  0
  -18.2961  -12.4889   24.2425 C   0  0  0  0  0  0  0  0  0  0  0  0
  -17.8101  -13.5119   27.2821 C   0  0  0  0  0  0  0  0  0  0  0  0
  -28.8088  -14.5096   24.3051 C   0  0  0  0  0  0  0  0  0  0  0  0
  -19.1573  -14.4304   30.2802 C   0  0  0  0  0  0  0  0  0  0  0  0
  -31.1163  -12.9648   21.2684 C   0  0  0  0  0  0  0  0  0  0  0  0
  -13.6745  -13.6039   22.3836 C   0  0  0  0  0  0  0  0  0  0  0  0
  -19.6511  -10.8189   25.5582 C   0  0  0  0  0  0  0  0  0  0  0  0
  -20.1833  -13.5943   26.4295 C   0  0  0  0  0  0  0  0  0  0  0  0
  -14.6993  -14.3173   23.2618 C   0  0  0  0  0  0  0  0  0  0  0  0
  -29.4038  -13.8016   18.2612 C   0  0  0  0  0  0  0  0  0  0  0  0
  -16.0855  -14.2473   22.6290 C   0  0  0  0  0  0  0  0  0  0  0  0
  -27.9446  -13.4554   18.5627 C   0  0  0  0  0  0  0  0  0  0  0  0
  -30.3653  -12.8103   18.9129 C   0  0  0  0  0  0  0  0  0  0  0  0
  -28.7158  -12.2792   20.6652 C   0  0  0  0  0  0  0  0  0  0  0  0
  -32.5049  -13.1855   26.5123 C   0  0  0  0  0  0  0  0  0  0  0  0
  -31.9536  -11.8150   24.4809 C   0  0  0  0  0  0  0  0  0  0  0  0
  -16.5560  -12.7944   22.4905 C   0  0  1  0  0  0  0  0  0  0  0  0
  -18.5511  -11.8755   25.5902 C   0  0  1  0  0  0  0  0  0  0  0  0
  -32.2634  -14.4751   25.7250 C   0  0  1  0  0  0  0  0  0  0  0  0
  -27.7103  -13.2830   20.0755 C   0  0  2  0  0  0  0  0  0  0  0  0
  -31.7148  -13.0883   23.6738 C   0  0  2  0  0  0  0  0  0  0  0  0
  -31.2667  -14.2646   24.5622 C   0  0  1  0  0  0  0  0  0  0  0  0
  -31.8343  -15.6028   26.6660 C   0  0  0  0  0  0  0  0  0  0  0  0
  -18.5108  -15.2533   32.5610 C   0  0  0  0  0  0  0  0  0  0  0  0
  -17.3015  -16.2920   26.1322 C   0  0  0  0  0  0  0  0  0  0  0  0
  -17.6068  -17.2244   28.4355 C   0  0  0  0  0  0  0  0  0  0  0  0
  -15.7484  -15.6253   27.9755 C   0  0  0  0  0  0  0  0  0  0  0  0
  -20.3308  -12.0541   31.5975 C   0  0  0  0  0  0  0  0  0  0  0  0
  -27.5076  -14.1958   25.0219 C   0  0  0  0  0  0  0  0  0  0  0  0
  -26.2843  -14.6578   24.2383 C   0  0  0  0  0  0  0  0  0  0  0  0
  -24.9935  -14.3775   24.9939 C   0  0  0  0  0  0  0  0  0  1  0  0
  -18.1274  -14.7727   28.0494 C   0  0  1  0  0  0  0  0  0  0  0  0
  -18.8112  -14.0335   31.7039 C   0  0  2  0  0  0  0  0  0  0  0  0
  -17.2165  -15.9630   27.6360 C   0  0  0  0  0  0  0  0  0  0  0  0
  -25.9569  -11.5945   20.4718 N   0  0  0  0  0  0  0  0  0  0  0  0
  -26.2745  -12.8970   20.3791 N   0  0  0  0  0  0  0  0  0  0  0  0
  -18.8500  -12.9749   26.5100 N   0  0  0  0  0  0  0  0  0  0  0  0
  -30.0911  -12.6942   20.3472 N   0  0  0  0  0  0  0  0  0  0  0  0
  -25.3623  -15.0784   20.5219 N   0  0  0  0  0  0  0  0  0  0  0  0
  -21.9269  -13.5543   20.0024 N   0  0  0  0  0  0  0  0  0  0  0  0
  -17.0146  -12.2878   23.7662 N   0  0  0  0  0  0  0  0  0  0  0  0
  -29.9095  -14.0820   25.0331 N   0  0  0  0  0  0  0  0  0  0  0  0
  -18.0467  -14.4215   29.4631 N   0  0  0  0  0  0  0  0  0  0  0  0
  -30.7703  -12.8372   22.6081 N   0  0  0  0  0  0  0  0  0  0  0  0
  -32.9313  -12.1053   25.5729 N   0  3  0  0  0  0  0  0  0  0  0  0
  -19.9442  -13.2905   32.3246 N   0  3  0  0  0  0  0  0  0  0  0  0
  -22.3934  -13.6171   22.2468 O   0  0  0  0  0  0  0  0  0  0  0  0
  -19.1950  -13.1006   23.6772 O   0  0  0  0  0  0  0  0  0  0  0  0
  -16.6834  -13.0176   27.3704 O   0  0  0  0  0  0  0  0  0  0  0  0
  -28.8598  -15.0727   23.2149 O   0  0  0  0  0  0  0  0  0  0  0  0
  -20.2982  -14.7229   29.9289 O   0  0  0  0  0  0  0  0  0  0  0  0
  -32.2541  -13.3007   20.9228 O   0  0  0  0  0  0  0  0  0  0  0  0
  -21.8313   -6.8380   21.4217 O   0  0  0  0  0  0  0  0  0  0  0  0
  -24.8796  -12.9711   25.2073 O   0  0  0  0  0  0  0  0  0  1  0  0
  -20.4327   -5.4048   26.5592 F   0  0  0  0  0  0  0  0  0  0  0  0
  -22.7282   -4.4681   22.5270 F   0  0  0  0  0  0  0  0  0  0  0  0
  1  2  1  0  0  0  0
  1  5  2  0  0  0  0
  2  6  2  0  0  0  0
  3  8  2  0  0  0  0
  3 15  1  0  0  0  0
  4  9  1  0  0  0  0
  4 15  2  0  0  0  0
  5 17  1  0  0  0  0
  6 19  1  0  0  0  0
  7 10  2  0  0  0  0
  7 18  1  0  0  0  0
  8 21  1  0  0  0  0
  9 21  2  0  0  0  0
 10 22  1  0  0  0  0
 11 12  2  0  0  0  0
 11 23  1  0  0  0  0
 12 24  1  0  0  0  0
 13 20  1  0  0  0  0
 13 22  2  0  0  0  0
 14 24  2  0  0  0  0
 14 25  1  0  0  0  0
 15 26  1  0  0  0  0
 16 26  1  0  0  0  0
 16 27  2  0  0  0  0
 16 28  1  0  0  0  0
 17 19  2  0  0  0  0
 17 34  1  0  0  0  0
 18 20  2  0  0  0  0
 18 35  1  0  0  0  0
 19 45  1  0  0  0  0
 20 36  1  0  0  0  0
 21 81  1  0  0  0  0
 22 82  1  0  0  0  0
 23 25  2  0  0  0  0
 23 81  1  0  0  0  0
 24 83  1  0  0  0  0
 25 84  1  0  0  0  0
 26 63  2  0  0  0  0
 27 64  1  0  0  0  0
 27 67  1  0  0  0  0
 28 68  1  0  0  0  0
 28 75  2  0  0  0  0
 29 46  1  0  0  0  0
 29 69  1  0  0  0  0
 29 76  2  0  0  0  0
 30 60  1  0  0  0  0
 30 65  1  0  0  0  0
 30 77  2  0  0  0  0
 31 57  1  0  0  0  0
 31 70  1  0  0  0  0
 31 78  2  0  0  0  0
 32 61  1  0  0  0  0
 32 71  1  0  0  0  0
 32 79  2  0  0  0  0
 33 66  1  0  0  0  0
 33 72  1  0  0  0  0
 33 80  2  0  0  0  0
 34 37  1  0  0  0  0
 35 46  1  0  0  0  0
 36 65  1  0  0  0  0
 37 39  1  0  0  0  0
 38 40  1  0  0  0  0
 38 41  1  0  0  0  0
 39 45  1  0  0  0  0
 40 48  1  0  0  0  0
 41 66  1  0  0  0  0
 42 48  1  0  0  0  0
 42 66  1  0  0  0  0
 43 47  1  0  0  0  0
 43 73  1  0  0  0  0
 44 49  1  0  0  0  0
 44 73  1  0  0  0  0
 45 69  1  0  0  0  0
 46 65  1  0  0  0  0
 47 50  1  0  0  0  0
 47 51  1  0  0  0  0
 48 64  1  0  0  0  0
 49 50  1  0  0  0  0
 49 72  1  0  0  0  0
 50 70  1  0  0  0  0
 52 61  1  0  0  0  0
 53 62  1  0  0  0  0
 54 62  1  0  0  0  0
 55 62  1  0  0  0  0
 56 74  1  0  0  0  0
 57 58  1  0  0  0  0
 58 59  1  0  0  0  0
 59 82  1  0  0  0  0
 60 62  1  0  0  0  0
 60 71  1  0  0  0  0
 61 74  1  0  0  0  0
 63 64  1  0  0  0  0
M  CHG  2  73   1  74   1
M  ISO  4  33 100  59 101  72 100  82 101
M  END
> <Batch ID>
0119

> <Smiles>
CNC(C)C(=O)NC(C(=O)N1Cc2cc([101O:1][101CH2:1]CCC(=O)NC3C(C)CNCC3[100NH:0][100C:0](=O)N3CCCC(n4nc(-c5ccc(Oc6ccc(F)cc6F)cc5)c(C(N)=O)c4N)C3)ccc2CC1C(=O)NC1CCCc2ccccc21)C(C)(C)C

> <Shape>
0.153

> <Color>
0.141

> <Negative vol penalty>
0.000

$$$$

  -OEChem-04052320203D

 88 96  0     1  0  0  0  0  0999 V2000
  -18.3935  -27.0339   22.9272 C   0  0  0  0  0  0  0  0  0  0  0  0
  -19.6522  -26.5048   23.1942 C   0  0  0  0  0  0  0  0  0  0  0  0
  -22.9848   -9.9914   19.9646 C   0  0  0  0  0  0  0  0  0  0  0  0
  -23.9144   -9.8024   22.1866 C   0  0  0  0  0  0  0  0  0  0  0  0
  -18.1664  -27.7228   21.7365 C   0  0  0  0  0  0  0  0  0  0  0  0
  -20.6842  -26.6633   22.2700 C   0  0  0  0  0  0  0  0  0  0  0  0
  -26.6371  -27.4203   23.4929 C   0  0  0  0  0  0  0  0  0  0  0  0
  -22.2414   -8.8304   20.1769 C   0  0  0  0  0  0  0  0  0  0  0  0
  -23.1709   -8.6414   22.3989 C   0  0  0  0  0  0  0  0  0  0  0  0
  -27.7125  -26.5330   23.5050 C   0  0  0  0  0  0  0  0  0  0  0  0
  -19.9833   -7.8347   23.1792 C   0  0  0  0  0  0  0  0  0  0  0  0
  -19.3156   -7.7082   24.3973 C   0  0  0  0  0  0  0  0  0  0  0  0
  -28.2767  -27.1957   21.2552 C   0  0  0  0  0  0  0  0  0  0  0  0
  -20.5740   -5.7028   24.8788 C   0  0  0  0  0  0  0  0  0  0  0  0
  -23.8214  -10.4773   20.9695 C   0  0  0  0  0  0  0  0  0  0  0  0
  -24.1981  -12.9997   21.0274 C   0  0  0  0  0  0  0  0  0  0  0  0
  -19.1988  -27.8982   20.8016 C   0  0  0  0  0  0  0  0  0  0  0  0
  -26.3666  -28.1953   22.3560 C   0  0  0  0  0  0  0  0  0  0  0  0
  -20.4704  -27.3541   21.0650 C   0  0  0  0  0  0  0  0  0  0  0  0
  -27.1989  -28.0940   21.2322 C   0  0  0  0  0  0  0  0  0  0  0  0
  -22.3344   -8.1554   21.3940 C   0  0  0  0  0  0  0  0  0  0  0  0
  -28.5307  -26.4185   22.3850 C   0  0  0  0  0  0  0  0  0  0  0  0
  -20.9463   -6.8952   22.8108 C   0  0  0  0  0  0  0  0  0  0  0  0
  -19.6110   -6.6423   25.2471 C   0  0  0  0  0  0  0  0  0  0  0  0
  -21.2417   -5.8293   23.6606 C   0  0  0  0  0  0  0  0  0  0  0  0
  -24.5900  -11.6762   20.7506 C   0  0  0  0  0  0  0  0  0  0  0  0
  -25.2731  -13.7636   20.6436 C   0  0  0  0  0  0  0  0  0  0  0  0
  -22.9719  -13.4944   21.5820 C   0  0  0  0  0  0  0  0  0  0  0  0
  -23.9274  -28.4329   20.3317 C   0  0  0  0  0  0  0  0  0  0  0  0
  -25.6602  -30.9044   19.1436 C   0  0  0  0  0  0  0  0  0  0  0  0
  -28.7126  -32.3806   18.7560 C   0  0  0  0  0  0  0  0  0  0  0  0
  -30.7728  -14.6999   20.4954 C   0  0  0  0  0  0  0  0  0  0  0  0
  -18.8929  -28.6093   19.5072 C   0  0  0  0  0  0  0  0  0  0  0  0
  -25.2187  -29.1673   22.3686 C   0  0  0  0  0  0  0  0  0  0  0  0
  -26.9633  -28.9184   19.9939 C   0  0  0  0  0  0  0  0  0  0  0  0
  -20.1397  -29.0575   18.7490 C   0  0  0  0  0  0  0  0  0  0  0  0
  -25.0916  -22.8797   19.7159 C   0  0  0  0  0  0  0  0  0  0  0  0
  -26.1968  -23.9296   19.6629 C   0  0  0  0  0  0  0  0  0  0  0  0
  -29.4174  -12.5315   18.0180 C   0  0  0  0  0  0  0  0  0  0  0  0
  -21.1639  -27.9286   18.6913 C   0  0  0  0  0  0  0  0  0  0  0  0
  -25.5376  -21.6126   20.4423 C   0  0  0  0  0  0  0  0  0  0  0  0
  -28.0114  -12.2202   18.5340 C   0  0  0  0  0  0  0  0  0  0  0  0
  -27.4836  -23.3641   19.0632 C   0  0  0  0  0  0  0  0  0  0  0  0
  -30.4257  -12.6429   19.1595 C   0  0  0  0  0  0  0  0  0  0  0  0
  -28.6464  -13.2805   20.7411 C   0  0  0  0  0  0  0  0  0  0  0  0
  -21.6219  -27.5267   20.0985 C   0  0  1  0  0  0  0  0  0  0  0  0
  -24.7289  -29.5316   20.9705 C   0  0  1  0  0  0  0  0  0  0  0  0
  -26.8270  -21.0341   19.8374 C   0  0  1  0  0  0  0  0  0  0  0  0
  -27.5838  -13.2140   19.6308 C   0  0  2  0  0  0  0  0  0  0  0  0
  -27.9539  -22.0823   19.7567 C   0  0  2  0  0  0  0  0  0  0  0  0
  -29.8178  -34.3735   17.7052 C   0  0  0  0  0  0  0  0  0  0  0  0
  -26.5115  -18.5578   19.9497 C   0  0  0  0  0  0  0  0  0  0  0  0
  -26.8203  -19.8657   22.0564 C   0  0  0  0  0  0  0  0  0  0  0  0
  -25.4344  -29.5817   16.4032 C   0  0  0  0  0  0  0  0  0  0  0  0
  -27.3000  -31.0541   15.6161 C   0  0  0  0  0  0  0  0  0  0  0  0
  -25.1551  -32.0669   16.3882 C   0  0  0  0  0  0  0  0  0  0  0  0
  -29.6568  -33.3836   21.3754 C   0  0  0  0  0  0  0  0  0  0  0  0
  -30.2728  -23.2629   22.5697 C   0  0  0  0  0  0  0  0  0  0  0  0
  -30.9694  -16.7415   21.8927 C   0  0  0  0  0  0  0  0  0  0  0  0
  -29.8555  -22.9196   21.1476 C   0  0  0  0  0  0  0  0  0  0  0  0
  -30.6367  -17.9621   21.0550 C   0  0  0  0  0  0  0  0  0  0  0  0
  -28.7632  -19.5003   20.4528 C   0  0  0  0  0  0  0  0  0  0  0  0
  -29.4492  -24.3807   23.1973 C   0  0  0  0  0  0  0  0  0  1  0  0
  -26.7282  -31.0507   18.0867 C   0  0  1  0  0  0  0  0  0  0  0  0
  -29.1726  -33.8124   18.9628 C   0  0  2  0  0  0  0  0  0  0  0  0
  -27.2444  -19.7621   20.5782 C   0  0  0  0  0  0  0  0  0  0  0  0
  -26.1580  -30.9213   16.6460 C   0  0  0  0  0  0  0  0  0  0  0  0
  -25.8181  -11.6001   20.2310 N   0  0  0  0  0  0  0  0  0  0  0  0
  -26.2071  -12.8854   20.1780 N   0  0  0  0  0  0  0  0  0  0  0  0
  -25.8247  -29.8498   20.0528 N   0  0  0  0  0  0  0  0  0  0  0  0
  -29.9614  -13.6021   20.1647 N   0  0  0  0  0  0  0  0  0  0  0  0
  -25.5011  -15.0940   20.6621 N   0  0  0  0  0  0  0  0  0  0  0  0
  -21.9721  -12.5726   21.9210 N   0  0  0  0  0  0  0  0  0  0  0  0
  -22.5756  -28.4861   20.6129 N   0  0  0  0  0  0  0  0  0  0  0  0
  -27.3952  -32.3205   18.3535 N   0  0  0  0  0  0  0  0  0  0  0  0
  -30.2550  -15.5639   21.4526 N   0  0  0  0  0  0  0  0  0  0  0  0
  -28.4568  -22.4315   21.1175 N   0  3  0  0  0  0  0  0  0  0  0  0
  -30.1657  -33.8823   20.0718 N   0  3  0  0  0  0  0  0  0  0  0  0
  -29.1889  -18.2826   21.1848 N   0  3  0  0  0  0  0  0  0  0  0  0
  -22.7626  -14.7189   21.7560 O   0  0  0  0  0  0  0  0  0  0  0  0
  -24.4934  -27.5994   19.6341 O   0  0  0  0  0  0  0  0  0  0  0  0
  -24.7185  -31.7009   19.1661 O   0  0  0  0  0  0  0  0  0  0  0  0
  -29.4494  -31.4125   18.9301 O   0  0  0  0  0  0  0  0  0  0  0  0
  -31.8745  -14.8986   19.9722 O   0  0  0  0  0  0  0  0  0  0  0  0
  -21.6089   -7.0227   21.6015 O   0  0  0  0  0  0  0  0  0  0  0  0
  -29.5806  -25.5527   22.3939 O   0  0  0  0  0  0  0  0  0  1  0  0
  -18.9708   -6.5218   26.4175 F   0  0  0  0  0  0  0  0  0  0  0  0
  -22.1668   -4.9243   23.3127 F   0  0  0  0  0  0  0  0  0  0  0  0
  1  2  1  0  0  0  0
  1  5  2  0  0  0  0
  2  6  2  0  0  0  0
  3  8  2  0  0  0  0
  3 15  1  0  0  0  0
  4  9  1  0  0  0  0
  4 15  2  0  0  0  0
  5 17  1  0  0  0  0
  6 19  1  0  0  0  0
  7 10  2  0  0  0  0
  7 18  1  0  0  0  0
  8 21  1  0  0  0  0
  9 21  2  0  0  0  0
 10 22  1  0  0  0  0
 11 12  2  0  0  0  0
 11 23  1  0  0  0  0
 12 24  1  0  0  0  0
 13 20  1  0  0  0  0
 13 22  2  0  0  0  0
 14 24  2  0  0  0  0
 14 25  1  0  0  0  0
 15 26  1  0  0  0  0
 16 26  1  0  0  0  0
 16 27  2  0  0  0  0
 16 28  1  0  0  0  0
 17 19  2  0  0  0  0
 17 33  1  0  0  0  0
 18 20  2  0  0  0  0
 18 34  1  0  0  0  0
 19 46  1  0  0  0  0
 20 35  1  0  0  0  0
 21 85  1  0  0  0  0
 22 86  1  0  0  0  0
 23 25  2  0  0  0  0
 23 85  1  0  0  0  0
 24 87  1  0  0  0  0
 25 88  1  0  0  0  0
 26 68  2  0  0  0  0
 27 69  1  0  0  0  0
 27 72  1  0  0  0  0
 28 73  1  0  0  0  0
 28 80  2  0  0  0  0
 29 47  1  0  0  0  0
 29 74  1  0  0  0  0
 29 81  2  0  0  0  0
 30 64  1  0  0  0  0
 30 70  1  0  0  0  0
 30 82  2  0  0  0  0
 31 65  1  0  0  0  0
 31 75  1  0  0  0  0
 31 83  2  0  0  0  0
 32 71  1  0  0  0  0
 32 76  1  0  0  0  0
 32 84  2  0  0  0  0
 33 36  1  0  0  0  0
 34 47  1  0  0  0  0
 35 70  1  0  0  0  0
 36 40  1  0  0  0  0
 37 38  1  0  0  0  0
 37 41  1  0  0  0  0
 38 43  1  0  0  0  0
 39 42  1  0  0  0  0
 39 44  1  0  0  0  0
 40 46  1  0  0  0  0
 41 48  1  0  0  0  0
 42 49  1  0  0  0  0
 43 50  1  0  0  0  0
 44 71  1  0  0  0  0
 45 49  1  0  0  0  0
 45 71  1  0  0  0  0
 46 74  1  0  0  0  0
 47 70  1  0  0  0  0
 48 50  1  0  0  0  0
 48 66  1  0  0  0  0
 49 69  1  0  0  0  0
 50 77  1  0  0  0  0
 51 65  1  0  0  0  0
 52 66  1  0  0  0  0
 53 66  1  0  0  0  0
 54 67  1  0  0  0  0
 55 67  1  0  0  0  0
 56 67  1  0  0  0  0
 57 78  1  0  0  0  0
 58 60  1  0  0  0  0
 58 63  1  0  0  0  0
 59 61  1  0  0  0  0
 59 76  1  0  0  0  0
 60 77  1  0  0  0  0
 61 79  1  0  0  0  0
 62 66  1  0  0  0  0
 62 79  1  0  0  0  0
 63 86  1  0  0  0  0
 64 67  1  0  0  0  0
 64 75  1  0  0  0  0
 65 78  1  0  0  0  0
 68 69  1  0  0  0  0
M  CHG  3  77   1  78   1  79   1
M  ISO  4  32 100  63 101  76 100  86 101
M  END
> <Batch ID>
0119

> <Smiles>
CNC(C)C(=O)NC(C(=O)N1Cc2cc([101O:1][101CH2:1]CCNC3CCCCC3C(C)(C)CNCC[100NH:0][100C:0](=O)N3CCCC(n4nc(-c5ccc(Oc6ccc(F)cc6F)cc5)c(C(N)=O)c4N)C3)ccc2CC1C(=O)NC1CCCc2ccccc21)C(C)(C)C

> <Shape>
0.318

> <Color>
0.193

> <Negative vol penalty>
0.000

$$$$

  -OEChem-04052320203D

 87 96  0     1  0  0  0  0  0999 V2000
  -30.2817  -31.5499   20.3939 C   0  0  0  0  0  0  0  0  0  0  0  0
  -29.7991  -30.3822   20.9762 C   0  0  0  0  0  0  0  0  0  0  0  0
  -23.0855   -9.9330   19.8498 C   0  0  0  0  0  0  0  0  0  0  0  0
  -23.9338   -9.7557   22.1050 C   0  0  0  0  0  0  0  0  0  0  0  0
  -30.9821  -31.4892   19.1899 C   0  0  0  0  0  0  0  0  0  0  0  0
  -30.0157  -29.1531   20.3542 C   0  0  0  0  0  0  0  0  0  0  0  0
  -31.5120  -25.5684   23.6031 C   0  0  0  0  0  0  0  0  0  0  0  0
  -29.2261  -18.6401   26.6704 C   0  0  0  0  0  0  0  0  0  0  0  0
  -22.3754   -8.7451   20.0235 C   0  0  0  0  0  0  0  0  0  0  0  0
  -23.2236   -8.5678   22.2787 C   0  0  0  0  0  0  0  0  0  0  0  0
  -30.5305  -24.9831   24.4017 C   0  0  0  0  0  0  0  0  0  0  0  0
  -20.0382   -7.6440   22.9268 C   0  0  0  0  0  0  0  0  0  0  0  0
  -19.3283   -7.4831   24.1167 C   0  0  0  0  0  0  0  0  0  0  0  0
  -28.5048  -19.8143   26.8552 C   0  0  0  0  0  0  0  0  0  0  0  0
  -30.4605  -23.0852   22.9143 C   0  0  0  0  0  0  0  0  0  0  0  0
  -20.6364   -5.5181   24.6314 C   0  0  0  0  0  0  0  0  0  0  0  0
  -31.1982  -19.9494   26.4390 C   0  0  0  0  0  0  0  0  0  0  0  0
  -23.8647  -10.4383   20.8906 C   0  0  0  0  0  0  0  0  0  0  0  0
  -24.1505  -12.9716   20.9832 C   0  0  0  0  0  0  0  0  0  0  0  0
  -31.2158  -30.2577   18.5577 C   0  0  0  0  0  0  0  0  0  0  0  0
  -31.9681  -24.9204   22.4462 C   0  0  0  0  0  0  0  0  0  0  0  0
  -30.7188  -29.0760   19.1399 C   0  0  0  0  0  0  0  0  0  0  0  0
  -31.4497  -23.6633   22.1041 C   0  0  0  0  0  0  0  0  0  0  0  0
  -30.5989  -18.7003   26.4578 C   0  0  0  0  0  0  0  0  0  0  0  0
  -22.4444   -8.0625   21.2379 C   0  0  0  0  0  0  0  0  0  0  0  0
  -30.0025  -23.7427   24.0558 C   0  0  0  0  0  0  0  0  0  0  0  0
  -21.0471   -6.7419   22.5891 C   0  0  0  0  0  0  0  0  0  0  0  0
  -19.6275   -6.4202   24.9690 C   0  0  0  0  0  0  0  0  0  0  0  0
  -21.3462   -5.6790   23.4414 C   0  0  0  0  0  0  0  0  0  0  0  0
  -24.5989  -11.6651   20.7116 C   0  0  0  0  0  0  0  0  0  0  0  0
  -29.1978  -21.0136   26.8189 C   0  0  0  0  0  0  0  0  0  0  0  0
  -25.2123  -13.7757   20.6480 C   0  0  0  0  0  0  0  0  0  0  0  0
  -22.8871  -13.4183   21.4931 C   0  0  0  0  0  0  0  0  0  0  0  0
  -31.9492  -25.5977   19.3406 C   0  0  0  0  0  0  0  0  0  0  0  0
  -30.7034  -14.8291   20.8132 C   0  0  0  0  0  0  0  0  0  0  0  0
  -33.7432  -22.9027   19.1393 C   0  0  0  0  0  0  0  0  0  0  0  0
  -34.6406  -19.9103   20.5131 C   0  0  0  0  0  0  0  0  0  0  0  0
  -31.9371  -30.2470   17.2332 C   0  0  0  0  0  0  0  0  0  0  0  0
  -33.0465  -25.5530   21.6099 C   0  0  0  0  0  0  0  0  0  0  0  0
  -31.9201  -22.9171   20.8832 C   0  0  0  0  0  0  0  0  0  0  0  0
  -32.4487  -28.8667   16.8294 C   0  0  0  0  0  0  0  0  0  0  0  0
  -29.4892  -12.7343   18.1717 C   0  0  0  0  0  0  0  0  0  0  0  0
  -31.3632  -27.8144   17.0330 C   0  0  0  0  0  0  0  0  0  0  0  0
  -28.0835  -12.3524   18.6338 C   0  0  0  0  0  0  0  0  0  0  0  0
  -31.9595  -15.2299   23.5149 C   0  0  0  0  0  0  0  0  0  0  0  0
  -30.4514  -12.8521   19.3496 C   0  0  0  0  0  0  0  0  0  0  0  0
  -28.5895  -13.4154   20.8785 C   0  0  0  0  0  0  0  0  0  0  0  0
  -32.6631  -16.0066   24.6159 C   0  0  0  0  0  0  0  0  0  0  0  0
  -30.6449  -17.1662   23.8699 C   0  0  0  0  0  0  0  0  0  0  0  0
  -30.9550  -27.7213   18.5082 C   0  0  1  0  0  0  0  0  0  0  0  0
  -33.0677  -25.0388   20.1737 C   0  0  1  0  0  0  0  0  0  0  0  0
  -31.1853  -16.2941   22.7497 C   0  0  2  0  0  0  0  0  0  0  0  0
  -27.5786  -13.3159   19.7224 C   0  0  2  0  0  0  0  0  0  0  0  0
  -28.3363  -22.6725   28.5034 C   0  0  0  0  0  0  0  0  0  0  0  0
  -29.2910  -16.8190   21.1770 C   0  0  0  0  0  0  0  0  0  0  0  0
  -36.0996  -17.9111   20.0988 C   0  0  0  0  0  0  0  0  0  0  0  0
  -31.7508  -21.8813   17.0663 C   0  0  0  0  0  0  0  0  0  0  0  0
  -32.6886  -19.5839   17.3991 C   0  0  0  0  0  0  0  0  0  0  0  0
  -34.1478  -21.4109   16.5299 C   0  0  0  0  0  0  0  0  0  0  0  0
  -36.2012  -20.3927   22.9811 C   0  0  0  0  0  0  0  0  0  0  0  0
  -31.3984  -17.4623   26.2564 C   0  0  0  0  0  0  0  0  0  0  0  0
  -29.0709  -23.4731   26.2273 C   0  0  0  0  0  0  0  0  0  1  0  0
  -28.4414  -22.3177   27.0176 C   0  0  1  0  0  0  0  0  0  0  0  0
  -30.0926  -15.7210   21.8646 C   0  0  1  0  0  0  0  0  0  0  0  0
  -33.4484  -21.4331   18.9593 C   0  0  1  0  0  0  0  0  0  0  0  0
  -36.0004  -19.2799   20.7539 C   0  0  2  0  0  0  0  0  0  0  0  0
  -32.9984  -21.0920   17.5107 C   0  0  0  0  0  0  0  0  0  0  0  0
  -30.5306  -21.1118   26.6148 N   0  0  0  0  0  0  0  0  0  0  0  0
  -25.8482  -11.6364   20.2400 N   0  0  0  0  0  0  0  0  0  0  0  0
  -26.1938  -12.9348   20.2125 N   0  0  0  0  0  0  0  0  0  0  0  0
  -32.9716  -23.5798   20.0942 N   0  0  0  0  0  0  0  0  0  0  0  0
  -29.9255  -13.7586   20.3718 N   0  0  0  0  0  0  0  0  0  0  0  0
  -25.3927  -15.1130   20.6860 N   0  0  0  0  0  0  0  0  0  0  0  0
  -21.9077  -12.4593   21.7853 N   0  0  0  0  0  0  0  0  0  0  0  0
  -31.9428  -26.9772   19.2599 N   0  0  0  0  0  0  0  0  0  0  0  0
  -34.6436  -20.7203   19.3973 N   0  0  0  0  0  0  0  0  0  0  0  0
  -31.8065  -17.2414   24.8398 N   0  3  1  0  0  0  0  0  0  0  0  0
  -36.2460  -19.1205   22.2152 N   0  3  0  0  0  0  0  0  0  0  0  0
  -22.6284  -14.6332   21.6684 O   0  0  0  0  0  0  0  0  0  0  0  0
  -31.1519  -24.8339   18.8090 O   0  0  0  0  0  0  0  0  0  0  0  0
  -31.8370  -15.0798   20.3957 O   0  0  0  0  0  0  0  0  0  0  0  0
  -34.6304  -23.4287   18.4628 O   0  0  0  0  0  0  0  0  0  0  0  0
  -33.6716  -19.7019   21.2398 O   0  0  0  0  0  0  0  0  0  0  0  0
  -21.7514   -6.9034   21.4079 O   0  0  0  0  0  0  0  0  0  0  0  0
  -29.0440  -23.1694   24.8332 O   0  0  0  0  0  0  0  0  0  1  0  0
  -18.9468   -6.2667   26.1124 F   0  0  0  0  0  0  0  0  0  0  0  0
  -22.3152   -4.8098   23.1230 F   0  0  0  0  0  0  0  0  0  0  0  0
  1  2  1  0  0  0  0
  1  5  2  0  0  0  0
  2  6  2  0  0  0  0
  3  9  2  0  0  0  0
  3 18  1  0  0  0  0
  4 10  1  0  0  0  0
  4 18  2  0  0  0  0
  5 20  1  0  0  0  0
  6 22  1  0  0  0  0
  7 11  2  0  0  0  0
  7 21  1  0  0  0  0
  8 14  2  0  0  0  0
  8 24  1  0  0  0  0
  9 25  1  0  0  0  0
 10 25  2  0  0  0  0
 11 26  1  0  0  0  0
 12 13  2  0  0  0  0
 12 27  1  0  0  0  0
 13 28  1  0  0  0  0
 14 31  1  0  0  0  0
 15 23  1  0  0  0  0
 15 26  2  0  0  0  0
 16 28  2  0  0  0  0
 16 29  1  0  0  0  0
 17 24  2  0  0  0  0
 17 68  1  0  0  0  0
 18 30  1  0  0  0  0
 19 30  1  0  0  0  0
 19 32  2  0  0  0  0
 19 33  1  0  0  0  0
 20 22  2  0  0  0  0
 20 38  1  0  0  0  0
 21 23  2  0  0  0  0
 21 39  1  0  0  0  0
 22 50  1  0  0  0  0
 23 40  1  0  0  0  0
 24 61  1  0  0  0  0
 25 84  1  0  0  0  0
 26 85  1  0  0  0  0
 27 29  2  0  0  0  0
 27 84  1  0  0  0  0
 28 86  1  0  0  0  0
 29 87  1  0  0  0  0
 30 69  2  0  0  0  0
 31 63  1  0  0  0  0
 31 68  2  0  0  0  0
 32 70  1  0  0  0  0
 32 73  1  0  0  0  0
 33 74  1  0  0  0  0
 33 79  2  0  0  0  0
 34 51  1  0  0  0  0
 34 75  1  0  0  0  0
 34 80  2  0  0  0  0
 35 64  1  0  0  0  0
 35 72  1  0  0  0  0
 35 81  2  0  0  0  0
 36 65  1  0  0  0  0
 36 71  1  0  0  0  0
 36 82  2  0  0  0  0
 37 66  1  0  0  0  0
 37 76  1  0  0  0  0
 37 83  2  0  0  0  0
 38 41  1  0  0  0  0
 39 51  1  0  0  0  0
 40 71  1  0  0  0  0
 41 43  1  0  0  0  0
 42 44  1  0  0  0  0
 42 46  1  0  0  0  0
 43 50  1  0  0  0  0
 44 53  1  0  0  0  0
 45 48  1  0  0  0  0
 45 52  1  0  0  0  0
 46 72  1  0  0  0  0
 47 53  1  0  0  0  0
 47 72  1  0  0  0  0
 48 77  1  0  0  0  0
 49 52  1  0  0  0  0
 49 77  1  0  0  0  0
 50 75  1  0  0  0  0
 51 71  1  0  0  0  0
 52 64  1  0  0  0  0
 53 70  1  0  0  0  0
 54 63  1  0  0  0  0
 55 64  1  0  0  0  0
 56 66  1  0  0  0  0
 57 67  1  0  0  0  0
 58 67  1  0  0  0  0
 59 67  1  0  0  0  0
 60 78  1  0  0  0  0
 61 77  1  0  0  0  0
 62 63  1  0  0  0  0
 62 85  1  0  0  0  0
 65 67  1  0  0  0  0
 65 76  1  0  0  0  0
 66 78  1  0  0  0  0
 69 70  1  0  0  0  0
M  CHG  2  77   1  78   1
M  ISO  4  35 100  62 101  64 100  85 101
M  END
> <Batch ID>
0119

> <Smiles>
CNC(C)C(=O)NC(C(=O)N1Cc2cc([101O:1][101CH2:1]C(C)c3ccc(CN4CCC([100CH:0](C)[100C:0](=O)N5CCCC(n6nc(-c7ccc(Oc8ccc(F)cc8F)cc7)c(C(N)=O)c6N)C5)C4)cn3)ccc2CC1C(=O)NC1CCCc2ccccc21)C(C)(C)C

> <Shape>
0.194

> <Color>
0.180

> <Negative vol penalty>
0.000

$$$$

  -OEChem-04052320203D

 86 94  0     1  0  0  0  0  0999 V2000
  -19.4715  -23.9483   22.0884 C   0  0  0  0  0  0  0  0  0  0  0  0
  -20.6705  -24.3000   21.4768 C   0  0  0  0  0  0  0  0  0  0  0  0
  -27.7484  -15.7964   20.6227 C   0  0  0  0  0  0  0  0  0  0  0  0
  -25.4745  -16.2748   21.2844 C   0  0  0  0  0  0  0  0  0  0  0  0
  -18.6096  -24.9411   22.5527 C   0  0  0  0  0  0  0  0  0  0  0  0
  -21.0079  -25.6449   21.3282 C   0  0  0  0  0  0  0  0  0  0  0  0
  -25.8280  -26.5866   22.5630 C   0  0  0  0  0  0  0  0  0  0  0  0
  -27.4476  -14.4353   20.5731 C   0  0  0  0  0  0  0  0  0  0  0  0
  -25.1737  -14.9137   21.2347 C   0  0  0  0  0  0  0  0  0  0  0  0
  -26.8033  -26.2459   21.6268 C   0  0  0  0  0  0  0  0  0  0  0  0
  -25.9054  -12.3009   18.4521 C   0  0  0  0  0  0  0  0  0  0  0  0
  -26.3584  -11.5767   17.3495 C   0  0  0  0  0  0  0  0  0  0  0  0
  -26.9213  -28.5494   20.9204 C   0  0  0  0  0  0  0  0  0  0  0  0
  -27.6362  -10.1434   18.8158 C   0  0  0  0  0  0  0  0  0  0  0  0
  -26.7619  -16.7162   20.9785 C   0  0  0  0  0  0  0  0  0  0  0  0
  -28.0358  -18.7508   21.8417 C   0  0  0  0  0  0  0  0  0  0  0  0
  -18.9410  -26.2985   22.4183 C   0  0  0  0  0  0  0  0  0  0  0  0
  -25.3834  -27.9116   22.6776 C   0  0  0  0  0  0  0  0  0  0  0  0
  -20.1490  -26.6567   21.7899 C   0  0  0  0  0  0  0  0  0  0  0  0
  -25.9421  -28.9048   21.8606 C   0  0  0  0  0  0  0  0  0  0  0  0
  -26.1603  -13.9939   20.8790 C   0  0  0  0  0  0  0  0  0  0  0  0
  -27.3481  -27.2269   20.8033 C   0  0  0  0  0  0  0  0  0  0  0  0
  -26.3177  -11.9464   19.7367 C   0  0  0  0  0  0  0  0  0  0  0  0
  -27.2238  -10.4979   17.5313 C   0  0  0  0  0  0  0  0  0  0  0  0
  -27.1831  -10.8676   19.9185 C   0  0  0  0  0  0  0  0  0  0  0  0
  -27.0721  -18.1223   21.0305 C   0  0  0  0  0  0  0  0  0  0  0  0
  -27.9405  -20.0824   21.5191 C   0  0  0  0  0  0  0  0  0  0  0  0
  -28.9368  -18.1817   22.8009 C   0  0  0  0  0  0  0  0  0  0  0  0
  -22.5929  -29.3829   22.2879 C   0  0  0  0  0  0  0  0  0  0  0  0
  -24.2267  -31.9440   23.4255 C   0  0  0  0  0  0  0  0  0  0  0  0
  -27.2348  -33.4853   23.8966 C   0  0  0  0  0  0  0  0  0  0  0  0
  -26.0406  -22.9673   16.6284 C   0  0  0  0  0  0  0  0  0  0  0  0
  -17.9556  -27.3368   22.8932 C   0  0  0  0  0  0  0  0  0  0  0  0
  -24.3499  -28.2675   23.7108 C   0  0  0  0  0  0  0  0  0  0  0  0
  -25.5137  -30.3454   21.9580 C   0  0  0  0  0  0  0  0  0  0  0  0
  -18.5604  -28.7314   23.0336 C   0  0  0  0  0  0  0  0  0  0  0  0
  -24.8079  -23.3396   19.9479 C   0  0  0  0  0  0  0  0  0  0  0  0
  -19.3907  -29.0796   21.8023 C   0  0  0  0  0  0  0  0  0  0  0  0
  -25.3353  -22.1014   20.6749 C   0  0  0  0  0  0  0  0  0  0  0  0
  -24.4232  -23.0250   18.5039 C   0  0  0  0  0  0  0  0  0  0  0  0
  -26.0107  -21.1412   18.4342 C   0  0  0  0  0  0  0  0  0  0  0  0
  -29.0625  -25.5630   15.2217 C   0  0  0  0  0  0  0  0  0  0  0  0
  -29.9930  -23.2294   13.7782 C   0  0  0  0  0  0  0  0  0  0  0  0
  -20.5616  -28.1042   21.6325 C   0  0  1  0  0  0  0  0  0  0  0  0
  -23.6015  -29.5571   23.3879 C   0  0  1  0  0  0  0  0  0  0  0  0
  -26.4642  -21.4211   19.8773 C   0  0  2  0  0  0  0  0  0  0  0  0
  -29.2051  -23.1170   15.0893 C   0  0  2  0  0  0  0  0  0  0  0  0
  -29.8078  -25.7425   13.8952 C   0  0  1  0  0  0  0  0  0  0  0  0
  -28.2481  -35.5870   24.8205 C   0  0  0  0  0  0  0  0  0  0  0  0
  -27.6046  -21.7564   13.7038 C   0  0  0  0  0  0  0  0  0  0  0  0
  -31.9759  -26.1894   12.7036 C   0  0  0  0  0  0  0  0  0  0  0  0
  -31.4832  -27.3357   14.8823 C   0  0  0  0  0  0  0  0  0  0  0  0
  -29.5595  -23.2006   18.0627 C   0  0  0  0  0  0  0  0  0  0  0  0
  -23.3058  -33.4729   20.9508 C   0  0  0  0  0  0  0  0  0  0  0  0
  -25.0727  -35.1797   21.4333 C   0  0  0  0  0  0  0  0  0  0  0  0
  -23.2365  -34.7893   23.0760 C   0  0  0  0  0  0  0  0  0  0  0  0
  -28.8022  -31.9834   25.9083 C   0  0  0  0  0  0  0  0  0  0  0  0
  -28.8352  -25.6073   17.9366 C   0  0  0  0  0  0  0  0  0  0  0  0
  -28.2484  -25.5787   19.3443 C   0  0  0  0  0  0  0  0  0  1  0  0
  -25.0496  -33.0480   22.8067 C   0  0  1  0  0  0  0  0  0  0  0  0
  -27.8456  -34.1507   25.1167 C   0  0  2  0  0  0  0  0  0  0  0  0
  -27.7298  -22.7792   14.8201 C   0  0  1  0  0  0  0  0  0  0  0  0
  -31.2910  -26.0586   14.0643 C   0  0  0  0  0  0  0  0  0  0  0  0
  -28.8161  -24.2442   17.2298 C   0  0  1  0  0  0  0  0  0  0  0  0
  -24.1730  -34.0951   22.0633 C   0  0  0  0  0  0  0  0  0  0  0  0
  -26.4128  -18.9839   20.2514 N   0  0  0  0  0  0  0  0  0  0  0  0
  -26.9632  -20.1674   20.5716 N   0  0  0  0  0  0  0  0  0  0  0  0
  -24.4958  -30.6423   22.9794 N   0  0  0  0  0  0  0  0  0  0  0  0
  -25.5375  -22.3829   17.8025 N   0  0  0  0  0  0  0  0  0  0  0  0
  -29.4357  -24.3213   15.9102 N   0  0  2  0  0  0  0  0  0  0  0  0
  -28.5980  -21.1773   21.9565 N   0  0  0  0  0  0  0  0  0  0  0  0
  -28.5124  -18.0700   24.1320 N   0  0  0  0  0  0  0  0  0  0  0  0
  -21.6285  -28.4299   22.5545 N   0  0  0  0  0  0  0  0  0  0  0  0
  -25.8612  -33.6048   23.8836 N   0  0  0  0  0  0  0  0  0  0  0  0
  -27.1010  -22.2980   16.0300 N   0  0  0  0  0  0  0  0  0  0  0  0
  -29.6445  -24.4992   13.0719 N   0  3  0  0  0  0  0  0  0  0  0  0
  -29.0570  -33.4053   25.5614 N   0  3  0  0  0  0  0  0  0  0  0  0
  -30.0903  -17.7990   22.4901 O   0  0  0  0  0  0  0  0  0  0  0  0
  -22.6821  -30.0639   21.2730 O   0  0  0  0  0  0  0  0  0  0  0  0
  -23.3813  -32.2254   24.2787 O   0  0  0  0  0  0  0  0  0  0  0  0
  -27.9092  -32.9196   23.0388 O   0  0  0  0  0  0  0  0  0  0  0  0
  -25.5823  -24.0113   16.1520 O   0  0  0  0  0  0  0  0  0  0  0  0
  -25.8664  -12.6658   20.8304 O   0  0  0  0  0  0  0  0  0  0  0  0
  -28.2997  -26.8969   19.8883 O   0  0  0  0  0  0  0  0  0  1  0  0
  -27.6576   -9.8016   16.4725 F   0  0  0  0  0  0  0  0  0  0  0  0
  -27.5818  -10.5216   21.1502 F   0  0  0  0  0  0  0  0  0  0  0  0
  1  2  1  0  0  0  0
  1  5  2  0  0  0  0
  2  6  2  0  0  0  0
  3  8  2  0  0  0  0
  3 15  1  0  0  0  0
  4  9  1  0  0  0  0
  4 15  2  0  0  0  0
  5 17  1  0  0  0  0
  6 19  1  0  0  0  0
  7 10  2  0  0  0  0
  7 18  1  0  0  0  0
  8 21  1  0  0  0  0
  9 21  2  0  0  0  0
 10 22  1  0  0  0  0
 11 12  2  0  0  0  0
 11 23  1  0  0  0  0
 12 24  1  0  0  0  0
 13 20  1  0  0  0  0
 13 22  2  0  0  0  0
 14 24  2  0  0  0  0
 14 25  1  0  0  0  0
 15 26  1  0  0  0  0
 16 26  1  0  0  0  0
 16 27  2  0  0  0  0
 16 28  1  0  0  0  0
 17 19  2  0  0  0  0
 17 33  1  0  0  0  0
 18 20  2  0  0  0  0
 18 34  1  0  0  0  0
 19 44  1  0  0  0  0
 20 35  1  0  0  0  0
 21 83  1  0  0  0  0
 22 84  1  0  0  0  0
 23 25  2  0  0  0  0
 23 83  1  0  0  0  0
 24 85  1  0  0  0  0
 25 86  1  0  0  0  0
 26 66  2  0  0  0  0
 27 67  1  0  0  0  0
 27 71  1  0  0  0  0
 28 72  1  0  0  0  0
 28 78  2  0  0  0  0
 29 45  1  0  0  0  0
 29 73  1  0  0  0  0
 29 79  2  0  0  0  0
 30 60  1  0  0  0  0
 30 68  1  0  0  0  0
 30 80  2  0  0  0  0
 31 61  1  0  0  0  0
 31 74  1  0  0  0  0
 31 81  2  0  0  0  0
 32 69  1  0  0  0  0
 32 75  1  0  0  0  0
 32 82  2  0  0  0  0
 33 36  1  0  0  0  0
 34 45  1  0  0  0  0
 35 68  1  0  0  0  0
 36 38  1  0  0  0  0
 37 39  1  0  0  0  0
 37 40  1  0  0  0  0
 38 44  1  0  0  0  0
 39 46  1  0  0  0  0
 40 69  1  0  0  0  0
 41 46  1  0  0  0  0
 41 69  1  0  0  0  0
 42 48  1  0  0  0  0
 42 70  1  0  0  0  0
 43 47  1  0  0  0  0
 43 76  1  0  0  0  0
 44 73  1  0  0  0  0
 45 68  1  0  0  0  0
 46 67  1  0  0  0  0
 47 62  1  0  0  0  0
 47 70  1  0  0  0  0
 48 63  1  0  0  0  0
 48 76  1  0  0  0  0
 49 61  1  0  0  0  0
 50 62  1  0  0  0  0
 51 63  1  0  0  0  0
 52 63  1  0  0  0  0
 53 64  1  0  0  0  0
 54 65  1  0  0  0  0
 55 65  1  0  0  0  0
 56 65  1  0  0  0  0
 57 77  1  0  0  0  0
 58 59  1  0  0  0  0
 58 64  1  0  0  0  0
 59 84  1  0  0  0  0
 60 65  1  0  0  0  0
 60 74  1  0  0  0  0
 61 77  1  0  0  0  0
 62 75  1  0  0  0  0
 64 70  1  0  0  0  0
 66 67  1  0  0  0  0
M  CHG  2  76   1  77   1
M  ISO  4  32 100  59 101  75 100  84 101
M  END
> <Batch ID>
0119

> <Smiles>
CNC(C)C(=O)NC(C(=O)N1Cc2cc([101O:1][101CH2:1]CC(C)N3CC(C(C)C)NCC3C(C)[100NH:0][100C:0](=O)N3CCCC(n4nc(-c5ccc(Oc6ccc(F)cc6F)cc5)c(C(N)=O)c4N)C3)ccc2CC1C(=O)NC1CCCc2ccccc21)C(C)(C)C

> <Shape>
0.227

> <Color>
0.078

> <Negative vol penalty>
0.000

$$$$

  -OEChem-04052320203D

 86 94  0     1  0  0  0  0  0999 V2000
  -17.5075  -29.7822   19.5032 C   0  0  0  0  0  0  0  0  0  0  0  0
  -18.8635  -29.7138   19.1997 C   0  0  0  0  0  0  0  0  0  0  0  0
  -26.7108  -12.5463   21.7195 C   0  0  0  0  0  0  0  0  0  0  0  0
  -26.0959  -13.8887   19.8072 C   0  0  0  0  0  0  0  0  0  0  0  0
  -17.0548  -29.3840   20.7603 C   0  0  0  0  0  0  0  0  0  0  0  0
  -19.7677  -29.2480   20.1536 C   0  0  0  0  0  0  0  0  0  0  0  0
  -24.8441  -25.9796   19.1273 C   0  0  0  0  0  0  0  0  0  0  0  0
  -25.4297  -11.9952   21.7446 C   0  0  0  0  0  0  0  0  0  0  0  0
  -24.8148  -13.3376   19.8323 C   0  0  0  0  0  0  0  0  0  0  0  0
  -26.1880  -26.3388   19.0331 C   0  0  0  0  0  0  0  0  0  0  0  0
  -23.7064   -9.6198   20.0652 C   0  0  0  0  0  0  0  0  0  0  0  0
  -23.5978   -8.2393   20.2325 C   0  0  0  0  0  0  0  0  0  0  0  0
  -26.5001  -25.7559   21.3530 C   0  0  0  0  0  0  0  0  0  0  0  0
  -30.4314  -22.7569   20.1666 C   0  0  0  0  0  0  0  0  0  0  0  0
  -22.3228   -8.5849   22.2554 C   0  0  0  0  0  0  0  0  0  0  0  0
  -27.0439  -13.4931   20.7508 C   0  0  0  0  0  0  0  0  0  0  0  0
  -29.4877  -13.5786   20.0240 C   0  0  0  0  0  0  0  0  0  0  0  0
  -17.9527  -28.9040   21.7268 C   0  0  0  0  0  0  0  0  0  0  0  0
  -24.3148  -25.5154   20.3400 C   0  0  0  0  0  0  0  0  0  0  0  0
  -19.3267  -28.8442   21.4253 C   0  0  0  0  0  0  0  0  0  0  0  0
  -25.1499  -25.3890   21.4593 C   0  0  0  0  0  0  0  0  0  0  0  0
  -30.1413  -23.5680   19.0418 C   0  0  0  0  0  0  0  0  0  0  0  0
  -24.4817  -12.3909   20.8010 C   0  0  0  0  0  0  0  0  0  0  0  0
  -27.0155  -26.2297   20.1468 C   0  0  0  0  0  0  0  0  0  0  0  0
  -23.1234  -10.4829   20.9930 C   0  0  0  0  0  0  0  0  0  0  0  0
  -22.9059   -7.7218   21.3276 C   0  0  0  0  0  0  0  0  0  0  0  0
  -22.4315   -9.9654   22.0881 C   0  0  0  0  0  0  0  0  0  0  0  0
  -28.3670  -14.0631   20.7247 C   0  0  0  0  0  0  0  0  0  0  0  0
  -29.4441  -22.7910   18.1433 C   0  0  0  0  0  0  0  0  0  0  0  0
  -29.9026  -21.5089   19.9211 C   0  0  0  0  0  0  0  0  0  0  0  0
  -30.4909  -14.4673   20.3242 C   0  0  0  0  0  0  0  0  0  0  0  0
  -29.6108  -12.4280   19.1773 C   0  0  0  0  0  0  0  0  0  0  0  0
  -22.0573  -26.5274   22.3358 C   0  0  0  0  0  0  0  0  0  0  0  0
  -22.6589  -23.7099   23.8266 C   0  0  0  0  0  0  0  0  0  0  0  0
  -24.8468  -21.1617   24.4318 C   0  0  0  0  0  0  0  0  0  0  0  0
  -30.4975  -20.2050   21.9928 C   0  0  0  0  0  0  0  0  0  0  0  0
  -17.4223  -28.5295   23.0881 C   0  0  0  0  0  0  0  0  0  0  0  0
  -22.8693  -25.1066   20.4180 C   0  0  0  0  0  0  0  0  0  0  0  0
  -24.6352  -24.8768   22.7789 C   0  0  0  0  0  0  0  0  0  0  0  0
  -18.3982  -27.6950   23.9136 C   0  0  0  0  0  0  0  0  0  0  0  0
  -31.9277  -17.4696   23.7675 C   0  0  0  0  0  0  0  0  0  0  0  0
  -19.7968  -28.3016   23.8605 C   0  0  0  0  0  0  0  0  0  0  0  0
  -31.2835  -16.2412   23.1207 C   0  0  0  0  0  0  0  0  0  0  0  0
  -30.9479  -18.6373   23.8676 C   0  0  0  0  0  0  0  0  0  0  0  0
  -29.6466  -17.7779   21.9605 C   0  0  0  0  0  0  0  0  0  0  0  0
  -20.3354  -28.3213   22.4249 C   0  0  1  0  0  0  0  0  0  0  0  0
  -22.3168  -25.1330   21.8398 C   0  0  1  0  0  0  0  0  0  0  0  0
  -30.6139  -16.5969   21.7788 C   0  0  2  0  0  0  0  0  0  0  0  0
  -28.8980  -23.1320   16.8120 C   0  0  0  0  0  0  0  0  0  0  0  0
  -31.8660  -25.1399   18.1226 C   0  0  0  0  0  0  0  0  0  0  0  0
  -25.0686  -19.0201   25.7210 C   0  0  0  0  0  0  0  0  0  0  0  0
  -26.7674  -18.7602   18.3335 C   0  0  0  0  0  0  0  0  0  0  0  0
  -23.0813  -25.3024   26.3947 C   0  0  0  0  0  0  0  0  0  0  0  0
  -24.2015  -23.2898   27.3760 C   0  0  0  0  0  0  0  0  0  0  0  0
  -21.8070  -23.1704   26.6869 C   0  0  0  0  0  0  0  0  0  0  0  0
  -25.2142  -19.5763   21.9599 C   0  0  0  0  0  0  0  0  0  0  0  0
  -25.1315  -21.2119   18.8350 C   0  0  0  0  0  0  0  0  0  0  0  0
  -30.5923  -25.7984   20.1992 C   0  0  0  0  0  0  0  0  0  0  0  0
  -28.6293  -20.4272   18.0555 C   0  0  0  0  0  0  0  0  0  0  0  0
  -29.2433  -25.8893   20.9063 C   0  0  0  0  0  0  0  0  0  1  0  0
  -30.5303  -25.0259   18.8673 C   0  0  2  0  0  0  0  0  0  0  0  0
  -23.6050  -23.2551   24.9115 C   0  0  1  0  0  0  0  0  0  0  0  0
  -24.6719  -19.6542   24.3968 C   0  0  2  0  0  0  0  0  0  0  0  0
  -27.2324  -20.1787   18.6317 C   0  0  1  0  0  0  0  0  0  0  0  0
  -23.1832  -23.7659   26.3181 C   0  0  0  0  0  0  0  0  0  0  0  0
  -28.6328  -15.1734   21.4180 N   0  0  0  0  0  0  0  0  0  0  0  0
  -29.3051  -21.5412   18.6882 N   0  0  0  0  0  0  0  0  0  0  0  0
  -29.9320  -15.3938   21.1544 N   0  0  0  0  0  0  0  0  0  0  0  0
  -23.2134  -24.4959   22.8065 N   0  0  0  0  0  0  0  0  0  0  0  0
  -30.3562  -18.9199   22.5581 N   0  0  0  0  0  0  0  0  0  0  0  0
  -31.7879  -14.5387   19.9564 N   0  0  0  0  0  0  0  0  0  0  0  0
  -28.4816  -11.6227   18.9760 N   0  0  0  0  0  0  0  0  0  0  0  0
  -29.9217  -20.3462   20.7307 N   0  0  0  0  0  0  0  0  0  0  0  0
  -20.7947  -27.0041   22.0392 N   0  0  0  0  0  0  0  0  0  0  0  0
  -23.6833  -21.8024   24.8021 N   0  0  0  0  0  0  0  0  0  0  0  0
  -25.5138  -19.0599   23.3203 N   0  3  0  0  0  0  0  0  0  0  0  0
  -30.6945  -12.1140   18.6290 O   0  0  0  0  0  0  0  0  0  0  0  0
  -22.9369  -27.1258   22.9440 O   0  0  0  0  0  0  0  0  0  0  0  0
  -21.4731  -23.3740   23.8784 O   0  0  0  0  0  0  0  0  0  0  0  0
  -25.9103  -21.7153   24.1616 O   0  0  0  0  0  0  0  0  0  0  0  0
  -31.1095  -21.1054   22.5730 O   0  0  0  0  0  0  0  0  0  0  0  0
  -23.2315  -11.8532   20.8251 O   0  0  0  0  0  0  0  0  0  0  0  0
  -28.3274  -26.5803   20.0578 O   0  0  0  0  0  0  0  0  0  1  0  0
  -26.2936  -21.0692   18.0325 O   0  0  0  0  0  0  0  0  0  0  0  0
  -22.8003   -6.3961   21.4873 F   0  0  0  0  0  0  0  0  0  0  0  0
  -21.8683  -10.7895   22.9822 F   0  0  0  0  0  0  0  0  0  0  0  0
  1  2  1  0  0  0  0
  1  5  2  0  0  0  0
  2  6  2  0  0  0  0
  3  8  2  0  0  0  0
  3 16  1  0  0  0  0
  4  9  1  0  0  0  0
  4 16  2  0  0  0  0
  5 18  1  0  0  0  0
  6 20  1  0  0  0  0
  7 10  2  0  0  0  0
  7 19  1  0  0  0  0
  8 23  1  0  0  0  0
  9 23  2  0  0  0  0
 10 24  1  0  0  0  0
 11 12  2  0  0  0  0
 11 25  1  0  0  0  0
 12 26  1  0  0  0  0
 13 21  1  0  0  0  0
 13 24  2  0  0  0  0
 14 22  1  0  0  0  0
 14 30  2  0  0  0  0
 15 26  2  0  0  0  0
 15 27  1  0  0  0  0
 16 28  1  0  0  0  0
 17 28  1  0  0  0  0
 17 31  2  0  0  0  0
 17 32  1  0  0  0  0
 18 20  2  0  0  0  0
 18 37  1  0  0  0  0
 19 21  2  0  0  0  0
 19 38  1  0  0  0  0
 20 46  1  0  0  0  0
 21 39  1  0  0  0  0
 22 29  2  0  0  0  0
 22 61  1  0  0  0  0
 23 82  1  0  0  0  0
 24 83  1  0  0  0  0
 25 27  2  0  0  0  0
 25 82  1  0  0  0  0
 26 85  1  0  0  0  0
 27 86  1  0  0  0  0
 28 66  2  0  0  0  0
 29 49  1  0  0  0  0
 29 67  1  0  0  0  0
 30 67  1  0  0  0  0
 30 73  1  0  0  0  0
 31 68  1  0  0  0  0
 31 71  1  0  0  0  0
 32 72  1  0  0  0  0
 32 77  2  0  0  0  0
 33 47  1  0  0  0  0
 33 74  1  0  0  0  0
 33 78  2  0  0  0  0
 34 62  1  0  0  0  0
 34 69  1  0  0  0  0
 34 79  2  0  0  0  0
 35 63  1  0  0  0  0
 35 75  1  0  0  0  0
 35 80  2  0  0  0  0
 36 70  1  0  0  0  0
 36 73  1  0  0  0  0
 36 81  2  0  0  0  0
 37 40  1  0  0  0  0
 38 47  1  0  0  0  0
 39 69  1  0  0  0  0
 40 42  1  0  0  0  0
 41 43  1  0  0  0  0
 41 44  1  0  0  0  0
 42 46  1  0  0  0  0
 43 48  1  0  0  0  0
 44 70  1  0  0  0  0
 45 48  1  0  0  0  0
 45 70  1  0  0  0  0
 46 74  1  0  0  0  0
 47 69  1  0  0  0  0
 48 68  1  0  0  0  0
 50 61  1  0  0  0  0
 51 63  1  0  0  0  0
 52 64  1  0  0  0  0
 53 65  1  0  0  0  0
 54 65  1  0  0  0  0
 55 65  1  0  0  0  0
 56 76  1  0  0  0  0
 57 84  1  0  0  0  0
 58 60  1  0  0  0  0
 58 61  1  0  0  0  0
 59 64  1  0  0  0  0
 59 67  1  0  0  0  0
 60 83  1  0  0  0  0
 62 65  1  0  0  0  0
 62 75  1  0  0  0  0
 63 76  1  0  0  0  0
 64 84  1  0  0  0  0
 66 68  1  0  0  0  0
M  CHG  1  76   1
M  ISO  4  36 100  60 101  73 100  83 101
M  END
> <Batch ID>
0119

> <Smiles>
CNC(C)C(=O)NC(C(=O)N1Cc2cc([101O:1][101CH2:1]CC(C)c3cc([100NH:0][100C:0](=O)N4CCCC(n5nc(-c6ccc(Oc7ccc(F)cc7F)cc6)c(C(N)=O)c5N)C4)n(CC(C)OC)c3C)ccc2CC1C(=O)NC1CCCc2ccccc21)C(C)(C)C

> <Shape>
0.258

> <Color>
0.080

> <Negative vol penalty>
0.000

$$$$

  -OEChem-04052320203D

 87 96  0     1  0  0  0  0  0999 V2000
  -28.7277  -34.8814   24.4500 C   0  0  0  0  0  0  0  0  0  0  0  0
  -28.7999  -33.5468   24.0641 C   0  0  0  0  0  0  0  0  0  0  0  0
  -24.8934  -13.9232   21.3390 C   0  0  0  0  0  0  0  0  0  0  0  0
  -26.3290  -13.6739   19.4118 C   0  0  0  0  0  0  0  0  0  0  0  0
  -27.5148  -35.4163   24.8821 C   0  0  0  0  0  0  0  0  0  0  0  0
  -27.6594  -32.7459   24.1112 C   0  0  0  0  0  0  0  0  0  0  0  0
  -27.1077  -29.9048   19.9556 C   0  0  0  0  0  0  0  0  0  0  0  0
  -24.8667  -12.5378   21.4984 C   0  0  0  0  0  0  0  0  0  0  0  0
  -26.3024  -12.2885   19.5712 C   0  0  0  0  0  0  0  0  0  0  0  0
  -27.8983  -28.7607   19.8569 C   0  0  0  0  0  0  0  0  0  0  0  0
  -23.2825   -9.9000   20.0995 C   0  0  0  0  0  0  0  0  0  0  0  0
  -22.0483   -9.3011   20.3520 C   0  0  0  0  0  0  0  0  0  0  0  0
  -26.0298  -27.4150   20.5760 C   0  0  0  0  0  0  0  0  0  0  0  0
  -22.8917   -8.4473   22.4489 C   0  0  0  0  0  0  0  0  0  0  0  0
  -25.6245  -14.4913   20.2956 C   0  0  0  0  0  0  0  0  0  0  0  0
  -26.1159  -16.8764   21.0555 C   0  0  0  0  0  0  0  0  0  0  0  0
  -26.3567  -34.6241   24.9253 C   0  0  0  0  0  0  0  0  0  0  0  0
  -25.7731  -29.8137   20.3764 C   0  0  0  0  0  0  0  0  0  0  0  0
  -26.4301  -33.2703   24.5456 C   0  0  0  0  0  0  0  0  0  0  0  0
  -25.2237  -28.5591   20.6767 C   0  0  0  0  0  0  0  0  0  0  0  0
  -25.5713  -11.7204   20.6145 C   0  0  0  0  0  0  0  0  0  0  0  0
  -27.3602  -27.5159   20.1699 C   0  0  0  0  0  0  0  0  0  0  0  0
  -24.3213   -9.7726   21.0217 C   0  0  0  0  0  0  0  0  0  0  0  0
  -21.8529   -8.5747   21.5267 C   0  0  0  0  0  0  0  0  0  0  0  0
  -24.1259   -9.0462   22.1964 C   0  0  0  0  0  0  0  0  0  0  0  0
  -25.6519  -15.9224   20.1301 C   0  0  0  0  0  0  0  0  0  0  0  0
  -25.9289  -18.0834   20.4272 C   0  0  0  0  0  0  0  0  0  0  0  0
  -26.6668  -16.6884   22.3658 C   0  0  0  0  0  0  0  0  0  0  0  0
  -24.1142  -30.9533   22.8367 C   0  0  0  0  0  0  0  0  0  0  0  0
  -21.6039  -29.6569   21.2428 C   0  0  0  0  0  0  0  0  0  0  0  0
  -20.9288  -26.6185   19.4180 C   0  0  0  0  0  0  0  0  0  0  0  0
  -25.5740  -19.6685   14.6641 C   0  0  0  0  0  0  0  0  0  0  0  0
  -25.0788  -35.2342   25.4445 C   0  0  0  0  0  0  0  0  0  0  0  0
  -24.9259  -31.0542   20.4519 C   0  0  0  0  0  0  0  0  0  0  0  0
  -23.7906  -28.4051   21.1138 C   0  0  0  0  0  0  0  0  0  0  0  0
  -23.8337  -34.4173   25.1090 C   0  0  0  0  0  0  0  0  0  0  0  0
  -33.4056  -21.1422   16.6850 C   0  0  0  0  0  0  0  0  0  0  0  0
  -23.1302  -20.2270   17.1925 C   0  0  0  0  0  0  0  0  0  0  0  0
  -24.0665  -32.9405   25.4117 C   0  0  0  0  0  0  0  0  0  0  0  0
  -32.4879  -22.3820   16.7107 C   0  0  0  0  0  0  0  0  0  0  0  0
  -32.2778  -20.4108   15.9280 C   0  0  0  0  0  0  0  0  0  0  0  0
  -27.7463  -22.9474   18.6183 C   0  0  0  0  0  0  0  0  0  0  0  0
  -28.9190  -24.9904   17.7086 C   0  0  0  0  0  0  0  0  0  0  0  0
  -28.6663  -22.0511   17.7913 C   0  0  0  0  0  0  0  0  0  0  0  0
  -29.8390  -24.0940   16.8816 C   0  0  0  0  0  0  0  0  0  0  0  0
  -23.5412  -19.2732   18.3156 C   0  0  0  0  0  0  0  0  0  0  0  0
  -23.3809  -19.6179   15.8148 C   0  0  0  0  0  0  0  0  0  0  0  0
  -25.1668  -18.1786   16.7162 C   0  0  0  0  0  0  0  0  0  0  0  0
  -25.2094  -32.3761   24.5591 C   0  0  1  0  0  0  0  0  0  0  0  0
  -23.7285  -30.9040   21.3853 C   0  0  1  0  0  0  0  0  0  0  0  0
  -28.4207  -24.2787   18.9727 C   0  0  0  0  0  0  0  0  0  0  0  0
  -31.2892  -21.4051   16.5906 C   0  0  0  0  0  0  0  0  0  0  0  0
  -29.1645  -22.7627   16.5271 C   0  0  0  0  0  0  0  0  0  0  0  0
  -24.9849  -18.7707   18.1242 C   0  0  2  0  0  0  0  0  0  0  0  0
  -19.3017  -26.1560   17.5644 C   0  0  0  0  0  0  0  0  0  0  0  0
  -28.7807  -18.4844   13.2679 C   0  0  0  0  0  0  0  0  0  0  0  0
  -19.7477  -28.7517   23.4889 C   0  0  0  0  0  0  0  0  0  0  0  0
  -18.9520  -26.9077   21.9938 C   0  0  0  0  0  0  0  0  0  0  0  0
  -18.5951  -29.2871   21.3349 C   0  0  0  0  0  0  0  0  0  0  0  0
  -23.0645  -25.5978   17.6415 C   0  0  0  0  0  0  0  0  0  0  0  0
  -27.4644  -25.1763   19.7557 C   0  0  0  0  0  0  0  0  0  1  0  0
  -28.5462  -20.8987   14.0631 C   0  0  0  0  0  0  0  0  0  0  0  0
  -20.9243  -28.3090   21.2337 C   0  0  1  0  0  0  0  0  0  0  0  0
  -20.7447  -26.4815   17.9174 C   0  0  2  0  0  0  0  0  0  0  0  0
  -30.1207  -21.8651   15.7440 C   0  0  2  0  0  0  0  0  0  0  0  0
  -27.8290  -19.6210   13.6287 C   0  0  2  0  0  0  0  0  0  0  0  0
  -19.5824  -28.3165   22.0190 C   0  0  0  0  0  0  0  0  0  0  0  0
  -25.2037  -16.4756   19.0001 N   0  0  0  0  0  0  0  0  0  0  0  0
  -25.3851  -17.7904   19.2112 N   0  0  0  0  0  0  0  0  0  0  0  0
  -23.0045  -29.6482   21.1782 N   0  0  0  0  0  0  0  0  0  0  0  0
  -24.7684  -19.1629   15.6977 N   0  0  0  0  0  0  0  0  0  0  0  0
  -26.1781  -19.3562   20.8018 N   0  0  0  0  0  0  0  0  0  0  0  0
  -26.7886  -15.3819   22.8582 N   0  0  0  0  0  0  0  0  0  0  0  0
  -24.7541  -32.1198   23.2095 N   0  0  0  0  0  0  0  0  0  0  0  0
  -20.7940  -27.9269   19.8318 N   0  0  0  0  0  0  0  0  0  0  0  0
  -26.8780  -19.1899   14.6290 N   0  0  0  0  0  0  0  0  0  0  0  0
  -21.6152  -25.3951   17.3857 N   0  3  0  0  0  0  0  0  0  0  0  0
  -29.3651  -20.6710   15.2835 N   0  3  0  0  0  0  0  0  0  0  0  0
  -27.0248  -17.6516   23.0853 O   0  0  0  0  0  0  0  0  0  0  0  0
  -23.8493  -30.0038   23.5647 O   0  0  0  0  0  0  0  0  0  0  0  0
  -20.9171  -30.6801   21.2977 O   0  0  0  0  0  0  0  0  0  0  0  0
  -21.1647  -25.6602   20.1504 O   0  0  0  0  0  0  0  0  0  0  0  0
  -25.1634  -20.4899   13.8374 O   0  0  0  0  0  0  0  0  0  0  0  0
  -25.5457  -10.3685   20.7699 O   0  0  0  0  0  0  0  0  0  0  0  0
  -28.1299  -26.3976   20.0751 O   0  0  0  0  0  0  0  0  0  1  0  0
  -20.6673   -8.0009   21.7697 F   0  0  0  0  0  0  0  0  0  0  0  0
  -25.1197   -8.9213   23.0866 F   0  0  0  0  0  0  0  0  0  0  0  0
  1  2  1  0  0  0  0
  1  5  2  0  0  0  0
  2  6  2  0  0  0  0
  3  8  2  0  0  0  0
  3 15  1  0  0  0  0
  4  9  1  0  0  0  0
  4 15  2  0  0  0  0
  5 17  1  0  0  0  0
  6 19  1  0  0  0  0
  7 10  2  0  0  0  0
  7 18  1  0  0  0  0
  8 21  1  0  0  0  0
  9 21  2  0  0  0  0
 10 22  1  0  0  0  0
 11 12  2  0  0  0  0
 11 23  1  0  0  0  0
 12 24  1  0  0  0  0
 13 20  1  0  0  0  0
 13 22  2  0  0  0  0
 14 24  2  0  0  0  0
 14 25  1  0  0  0  0
 15 26  1  0  0  0  0
 16 26  1  0  0  0  0
 16 27  2  0  0  0  0
 16 28  1  0  0  0  0
 17 19  2  0  0  0  0
 17 33  1  0  0  0  0
 18 20  2  0  0  0  0
 18 34  1  0  0  0  0
 19 49  1  0  0  0  0
 20 35  1  0  0  0  0
 21 84  1  0  0  0  0
 22 85  1  0  0  0  0
 23 25  2  0  0  0  0
 23 84  1  0  0  0  0
 24 86  1  0  0  0  0
 25 87  1  0  0  0  0
 26 68  2  0  0  0  0
 27 69  1  0  0  0  0
 27 72  1  0  0  0  0
 28 73  1  0  0  0  0
 28 79  2  0  0  0  0
 29 50  1  0  0  0  0
 29 74  1  0  0  0  0
 29 80  2  0  0  0  0
 30 63  1  0  0  0  0
 30 70  1  0  0  0  0
 30 81  2  0  0  0  0
 31 64  1  0  0  0  0
 31 75  1  0  0  0  0
 31 82  2  0  0  0  0
 32 71  1  0  0  0  0
 32 76  1  0  0  0  0
 32 83  2  0  0  0  0
 33 36  1  0  0  0  0
 34 50  1  0  0  0  0
 35 70  1  0  0  0  0
 36 39  1  0  0  0  0
 37 40  1  0  0  0  0
 37 41  1  0  0  0  0
 38 46  1  0  0  0  0
 38 47  1  0  0  0  0
 39 49  1  0  0  0  0
 40 52  1  0  0  0  0
 41 52  1  0  0  0  0
 42 44  1  0  0  0  0
 42 51  1  0  0  0  0
 43 45  1  0  0  0  0
 43 51  1  0  0  0  0
 44 53  1  0  0  0  0
 45 53  1  0  0  0  0
 46 54  1  0  0  0  0
 47 71  1  0  0  0  0
 48 54  1  0  0  0  0
 48 71  1  0  0  0  0
 49 74  1  0  0  0  0
 50 70  1  0  0  0  0
 51 61  1  0  0  0  0
 52 65  1  0  0  0  0
 53 65  1  0  0  0  0
 54 69  1  0  0  0  0
 55 64  1  0  0  0  0
 56 66  1  0  0  0  0
 57 67  1  0  0  0  0
 58 67  1  0  0  0  0
 59 67  1  0  0  0  0
 60 77  1  0  0  0  0
 61 85  1  0  0  0  0
 62 66  1  0  0  0  0
 62 78  1  0  0  0  0
 63 67  1  0  0  0  0
 63 75  1  0  0  0  0
 64 77  1  0  0  0  0
 65 78  1  0  0  0  0
 66 76  1  0  0  0  0
 68 69  1  0  0  0  0
M  CHG  2  77   1  78   1
M  ISO  4  32 100  61 101  76 100  85 101
M  END
> <Batch ID>
0119

> <Smiles>
CNC(C)C(=O)NC(C(=O)N1Cc2cc([101O:1][101CH2:1]C3CCC(C(NCC(C)[100NH:0][100C:0](=O)N4CCCC(n5nc(-c6ccc(Oc7ccc(F)cc7F)cc6)c(C(N)=O)c5N)C4)C4CCC4)CC3)ccc2CC1C(=O)NC1CCCc2ccccc21)C(C)(C)C

> <Shape>
0.249

> <Color>
0.081

> <Negative vol penalty>
0.000

$$$$

  -OEChem-04052320203D

 81 89  0     1  0  0  0  0  0999 V2000
  -22.5579  -17.6762   23.1422 C   0  0  0  0  0  0  0  0  0  0  0  0
  -23.4718  -18.6974   23.3765 C   0  0  0  0  0  0  0  0  0  0  0  0
  -26.0039  -14.3301   21.3910 C   0  0  0  0  0  0  0  0  0  0  0  0
  -27.0046  -13.7449   19.2713 C   0  0  0  0  0  0  0  0  0  0  0  0
  -21.4952  -17.8847   22.2656 C   0  0  0  0  0  0  0  0  0  0  0  0
  -23.3166  -19.9312   22.7436 C   0  0  0  0  0  0  0  0  0  0  0  0
  -26.8624  -24.8862   22.8005 C   0  0  0  0  0  0  0  0  0  0  0  0
  -25.5137  -13.0305   21.5184 C   0  0  0  0  0  0  0  0  0  0  0  0
  -26.5144  -12.4452   19.3987 C   0  0  0  0  0  0  0  0  0  0  0  0
  -27.9110  -25.4099   22.0456 C   0  0  0  0  0  0  0  0  0  0  0  0
  -22.9417  -11.2082   20.2983 C   0  0  0  0  0  0  0  0  0  0  0  0
  -21.6185  -11.0530   20.7114 C   0  0  0  0  0  0  0  0  0  0  0  0
  -26.3407  -26.7689   20.8183 C   0  0  0  0  0  0  0  0  0  0  0  0
  -31.1722  -23.2133   17.9783 C   0  0  0  0  0  0  0  0  0  0  0  0
  -29.7258  -24.8966   17.0516 C   0  0  0  0  0  0  0  0  0  0  0  0
  -22.3674   -9.8098   22.6430 C   0  0  0  0  0  0  0  0  0  0  0  0
  -26.7493  -14.6873   20.2674 C   0  0  0  0  0  0  0  0  0  0  0  0
  -28.4963  -16.5188   20.5855 C   0  0  0  0  0  0  0  0  0  0  0  0
  -21.3347  -19.1179   21.6124 C   0  0  0  0  0  0  0  0  0  0  0  0
  -25.5416  -25.2925   22.5622 C   0  0  0  0  0  0  0  0  0  0  0  0
  -22.2370  -20.1690   21.8738 C   0  0  0  0  0  0  0  0  0  0  0  0
  -25.2774  -26.2508   21.5732 C   0  0  0  0  0  0  0  0  0  0  0  0
  -30.2428  -23.6062   17.0217 C   0  0  0  0  0  0  0  0  0  0  0  0
  -25.7690  -12.0880   20.5223 C   0  0  0  0  0  0  0  0  0  0  0  0
  -27.6500  -26.3493   21.0524 C   0  0  0  0  0  0  0  0  0  0  0  0
  -23.9778  -10.6641   21.0575 C   0  0  0  0  0  0  0  0  0  0  0  0
  -21.3314  -10.3539   21.8838 C   0  0  0  0  0  0  0  0  0  0  0  0
  -23.6906   -9.9650   22.2298 C   0  0  0  0  0  0  0  0  0  0  0  0
  -27.2555  -16.0298   20.1349 C   0  0  0  0  0  0  0  0  0  0  0  0
  -31.5490  -24.1410   18.9359 C   0  0  0  0  0  0  0  0  0  0  0  0
  -30.1672  -25.7489   18.0509 C   0  0  0  0  0  0  0  0  0  0  0  0
  -28.4971  -17.8426   20.2194 C   0  0  0  0  0  0  0  0  0  0  0  0
  -29.5537  -15.8373   21.2734 C   0  0  0  0  0  0  0  0  0  0  0  0
  -22.8777  -23.8288   21.6322 C   0  0  0  0  0  0  0  0  0  0  0  0
  -21.5403  -26.7215   22.2373 C   0  0  0  0  0  0  0  0  0  0  0  0
  -21.9493  -30.0961   22.5398 C   0  0  0  0  0  0  0  0  0  0  0  0
  -27.5054  -21.8558   16.4702 C   0  0  0  0  0  0  0  0  0  0  0  0
  -20.1621  -19.2917   20.6797 C   0  0  0  0  0  0  0  0  0  0  0  0
  -24.4246  -24.7379   23.4032 C   0  0  0  0  0  0  0  0  0  0  0  0
  -23.8794  -26.7352   21.2917 C   0  0  0  0  0  0  0  0  0  0  0  0
  -20.3318  -20.4685   19.7244 C   0  0  0  0  0  0  0  0  0  0  0  0
  -24.7660  -20.7776   18.4726 C   0  0  0  0  0  0  0  0  0  0  0  0
  -20.7429  -21.7117   20.4989 C   0  0  0  0  0  0  0  0  0  0  0  0
  -25.2695  -19.4840   19.1153 C   0  0  0  0  0  0  0  0  0  0  0  0
  -25.2785  -20.9340   17.0426 C   0  0  0  0  0  0  0  0  0  0  0  0
  -27.2456  -19.5339   17.5369 C   0  0  0  0  0  0  0  0  0  0  0  0
  -22.1057  -21.5093   21.1732 C   0  0  1  0  0  0  0  0  0  0  0  0
  -23.0605  -24.8406   22.7278 C   0  0  1  0  0  0  0  0  0  0  0  0
  -26.8006  -19.3592   18.9990 C   0  0  2  0  0  0  0  0  0  0  0  0
  -32.5456  -23.7549   19.9773 C   0  0  0  0  0  0  0  0  0  0  0  0
  -20.6660  -32.2022   23.0034 C   0  0  0  0  0  0  0  0  0  0  0  0
  -20.3984  -26.6455   19.4088 C   0  0  0  0  0  0  0  0  0  0  0  0
  -19.9618  -29.1038   19.5938 C   0  0  0  0  0  0  0  0  0  0  0  0
  -18.8245  -27.5166   21.1462 C   0  0  0  0  0  0  0  0  0  0  0  0
  -23.5509  -30.6771   24.9598 C   0  0  0  0  0  0  0  0  0  0  0  0
  -29.8030  -22.6478   15.9673 C   0  0  0  0  0  0  0  0  0  0  0  0
  -29.6258  -27.1565   18.1149 C   0  0  0  0  0  0  0  0  0  0  0  0
  -28.3712  -27.2566   18.9757 C   0  0  0  0  0  0  0  0  0  1  0  0
  -21.2943  -27.9749   21.4326 C   0  0  1  0  0  0  0  0  0  0  0  0
  -21.4902  -31.0749   23.6055 C   0  0  2  0  0  0  0  0  0  0  0  0
  -20.1460  -27.7998   20.3991 C   0  0  0  0  0  0  0  0  0  0  0  0
  -26.5213  -16.9668   19.5290 N   0  0  0  0  0  0  0  0  0  0  0  0
  -31.0687  -25.4032   18.9971 N   0  0  0  0  0  0  0  0  0  0  0  0
  -27.3030  -18.0578   19.5964 N   0  0  0  0  0  0  0  0  0  0  0  0
  -22.8204  -26.1585   22.1364 N   0  0  0  0  0  0  0  0  0  0  0  0
  -26.7373  -20.8068   17.0018 N   0  0  0  0  0  0  0  0  0  0  0  0
  -29.4026  -18.8320   20.3729 N   0  0  0  0  0  0  0  0  0  0  0  0
  -29.3893  -14.4779   21.5719 N   0  0  0  0  0  0  0  0  0  0  0  0
  -22.3624  -22.6209   22.0622 N   0  0  0  0  0  0  0  0  0  0  0  0
  -21.0696  -29.0435   22.4001 N   0  0  0  0  0  0  0  0  0  0  0  0
  -28.8806  -21.6568   16.4751 N   0  0  0  0  0  0  0  0  0  0  0  0
  -22.6652  -31.6716   24.3015 N   0  3  0  0  0  0  0  0  0  0  0  0
  -30.6061  -16.4208   21.6277 O   0  0  0  0  0  0  0  0  0  0  0  0
  -23.1802  -24.1228   20.4817 O   0  0  0  0  0  0  0  0  0  0  0  0
  -20.6325  -26.2630   22.9353 O   0  0  0  0  0  0  0  0  0  0  0  0
  -22.9828  -30.2519   21.8932 O   0  0  0  0  0  0  0  0  0  0  0  0
  -27.0032  -22.8951   16.0291 O   0  0  0  0  0  0  0  0  0  0  0  0
  -25.2910  -10.8197   20.6464 O   0  0  0  0  0  0  0  0  0  0  0  0
  -28.6716  -26.8616   20.3137 O   0  0  0  0  0  0  0  0  0  1  0  0
  -20.0607  -10.2063   22.2812 F   0  0  0  0  0  0  0  0  0  0  0  0
  -24.6818   -9.4411   22.9640 F   0  0  0  0  0  0  0  0  0  0  0  0
  1  2  1  0  0  0  0
  1  5  2  0  0  0  0
  2  6  2  0  0  0  0
  3  8  2  0  0  0  0
  3 17  1  0  0  0  0
  4  9  1  0  0  0  0
  4 17  2  0  0  0  0
  5 19  1  0  0  0  0
  6 21  1  0  0  0  0
  7 10  2  0  0  0  0
  7 20  1  0  0  0  0
  8 24  1  0  0  0  0
  9 24  2  0  0  0  0
 10 25  1  0  0  0  0
 11 12  2  0  0  0  0
 11 26  1  0  0  0  0
 12 27  1  0  0  0  0
 13 22  1  0  0  0  0
 13 25  2  0  0  0  0
 14 23  1  0  0  0  0
 14 30  2  0  0  0  0
 15 23  2  0  0  0  0
 15 31  1  0  0  0  0
 16 27  2  0  0  0  0
 16 28  1  0  0  0  0
 17 29  1  0  0  0  0
 18 29  1  0  0  0  0
 18 32  2  0  0  0  0
 18 33  1  0  0  0  0
 19 21  2  0  0  0  0
 19 38  1  0  0  0  0
 20 22  2  0  0  0  0
 20 39  1  0  0  0  0
 21 47  1  0  0  0  0
 22 40  1  0  0  0  0
 23 56  1  0  0  0  0
 24 78  1  0  0  0  0
 25 79  1  0  0  0  0
 26 28  2  0  0  0  0
 26 78  1  0  0  0  0
 27 80  1  0  0  0  0
 28 81  1  0  0  0  0
 29 62  2  0  0  0  0
 30 50  1  0  0  0  0
 30 63  1  0  0  0  0
 31 57  1  0  0  0  0
 31 63  2  0  0  0  0
 32 64  1  0  0  0  0
 32 67  1  0  0  0  0
 33 68  1  0  0  0  0
 33 73  2  0  0  0  0
 34 48  1  0  0  0  0
 34 69  1  0  0  0  0
 34 74  2  0  0  0  0
 35 59  1  0  0  0  0
 35 65  1  0  0  0  0
 35 75  2  0  0  0  0
 36 60  1  0  0  0  0
 36 70  1  0  0  0  0
 36 76  2  0  0  0  0
 37 66  1  0  0  0  0
 37 71  1  0  0  0  0
 37 77  2  0  0  0  0
 38 41  1  0  0  0  0
 39 48  1  0  0  0  0
 40 65  1  0  0  0  0
 41 43  1  0  0  0  0
 42 44  1  0  0  0  0
 42 45  1  0  0  0  0
 43 47  1  0  0  0  0
 44 49  1  0  0  0  0
 45 66  1  0  0  0  0
 46 49  1  0  0  0  0
 46 66  1  0  0  0  0
 47 69  1  0  0  0  0
 48 65  1  0  0  0  0
 49 64  1  0  0  0  0
 51 60  1  0  0  0  0
 52 61  1  0  0  0  0
 53 61  1  0  0  0  0
 54 61  1  0  0  0  0
 55 72  1  0  0  0  0
 56 71  1  0  0  0  0
 57 58  1  0  0  0  0
 58 79  1  0  0  0  0
 59 61  1  0  0  0  0
 59 70  1  0  0  0  0
 60 72  1  0  0  0  0
 62 64  1  0  0  0  0
M  CHG  1  72   1
M  ISO  4  37 100  58 101  71 100  79 101
M  END
> <Batch ID>
0119

> <Smiles>
CNC(C)C(=O)NC(C(=O)N1Cc2cc([101O:1][101CH2:1]Cc3cc(C[100NH:0][100C:0](=O)N4CCCC(n5nc(-c6ccc(Oc7ccc(F)cc7F)cc6)c(C(N)=O)c5N)C4)cc(C)n3)ccc2CC1C(=O)NC1CCCc2ccccc21)C(C)(C)C

> <Shape>
0.204

> <Color>
0.062

> <Negative vol penalty>
0.000

$$$$

  -OEChem-04052320203D

 83 92  0     1  0  0  0  0  0999 V2000
  -22.2602  -28.5497   23.3130 C   0  0  0  0  0  0  0  0  0  0  0  0
  -22.8483  -27.3029   23.1261 C   0  0  0  0  0  0  0  0  0  0  0  0
  -23.7744   -9.9081   21.8014 C   0  0  0  0  0  0  0  0  0  0  0  0
  -24.3630  -11.1303   23.8006 C   0  0  0  0  0  0  0  0  0  0  0  0
  -22.7916  -29.6719   22.6787 C   0  0  0  0  0  0  0  0  0  0  0  0
  -23.9675  -27.1773   22.3039 C   0  0  0  0  0  0  0  0  0  0  0  0
  -27.5720  -24.2740   24.3592 C   0  0  0  0  0  0  0  0  0  0  0  0
  -23.2397   -8.8850   22.5843 C   0  0  0  0  0  0  0  0  0  0  0  0
  -23.8282  -10.1072   24.5835 C   0  0  0  0  0  0  0  0  0  0  0  0
  -27.3857  -22.8934   24.3044 C   0  0  0  0  0  0  0  0  0  0  0  0
  -20.3963   -8.3024   24.3189 C   0  0  0  0  0  0  0  0  0  0  0  0
  -19.1561   -7.7831   23.9480 C   0  0  0  0  0  0  0  0  0  0  0  0
  -28.8826  -22.7726   22.4165 C   0  0  0  0  0  0  0  0  0  0  0  0
  -20.1512   -5.5979   23.6801 C   0  0  0  0  0  0  0  0  0  0  0  0
  -24.3361  -11.0308   22.4096 C   0  0  0  0  0  0  0  0  0  0  0  0
  -24.2160  -13.2209   21.1071 C   0  0  0  0  0  0  0  0  0  0  0  0
  -23.9237  -29.5616   21.8561 C   0  0  0  0  0  0  0  0  0  0  0  0
  -28.4078  -24.9168   23.4347 C   0  0  0  0  0  0  0  0  0  0  0  0
  -24.5138  -28.2988   21.6570 C   0  0  0  0  0  0  0  0  0  0  0  0
  -29.0797  -24.1611   22.4633 C   0  0  0  0  0  0  0  0  0  0  0  0
  -23.2665   -8.9845   23.9753 C   0  0  0  0  0  0  0  0  0  0  0  0
  -28.0388  -22.1429   23.3311 C   0  0  0  0  0  0  0  0  0  0  0  0
  -21.5141   -7.4696   24.3704 C   0  0  0  0  0  0  0  0  0  0  0  0
  -19.0335   -6.4308   23.6286 C   0  0  0  0  0  0  0  0  0  0  0  0
  -21.3915   -6.1173   24.0510 C   0  0  0  0  0  0  0  0  0  0  0  0
  -24.8892  -12.0877   21.6014 C   0  0  0  0  0  0  0  0  0  0  0  0
  -25.1740  -13.9102   20.4047 C   0  0  0  0  0  0  0  0  0  0  0  0
  -22.8470  -13.6152   21.2685 C   0  0  0  0  0  0  0  0  0  0  0  0
  -27.9891  -27.1324   21.1942 C   0  0  0  0  0  0  0  0  0  0  0  0
  -31.2200  -26.9549   20.9659 C   0  0  0  0  0  0  0  0  0  0  0  0
  -34.0622  -25.1272   21.4438 C   0  0  0  0  0  0  0  0  0  0  0  0
  -31.1477  -14.1000   20.7659 C   0  0  0  0  0  0  0  0  0  0  0  0
  -24.4338  -30.7951   21.1539 C   0  0  0  0  0  0  0  0  0  0  0  0
  -28.6190  -26.4033   23.5240 C   0  0  0  0  0  0  0  0  0  0  0  0
  -30.0036  -24.8005   21.4603 C   0  0  0  0  0  0  0  0  0  0  0  0
  -25.8465  -30.6388   20.5972 C   0  0  0  0  0  0  0  0  0  0  0  0
  -29.2019  -13.2336   17.9128 C   0  0  0  0  0  0  0  0  0  0  0  0
  -25.9835  -29.3143   19.8530 C   0  0  0  0  0  0  0  0  0  0  0  0
  -29.0645  -18.7275   24.9692 C   0  0  0  0  0  0  0  0  0  0  0  0
  -29.8044  -17.4523   25.3852 C   0  0  0  0  0  0  0  0  0  0  0  0
  -27.8152  -12.9439   18.4901 C   0  0  0  0  0  0  0  0  0  0  0  0
  -32.9908  -14.7367   26.7189 C   0  0  0  0  0  0  0  0  0  0  0  0
  -32.2822  -13.4236   26.8953 C   0  0  0  0  0  0  0  0  0  0  0  0
  -30.0739  -17.7539   23.0144 C   0  0  0  0  0  0  0  0  0  0  0  0
  -30.3126  -12.7678   18.8517 C   0  0  0  0  0  0  0  0  0  0  0  0
  -28.8295  -12.9951   20.8068 C   0  0  0  0  0  0  0  0  0  0  0  0
  -25.7437  -28.1263   20.7925 C   0  0  1  0  0  0  0  0  0  0  0  0
  -29.0902  -27.0199   22.2105 C   0  0  1  0  0  0  0  0  0  0  0  0
  -28.9209  -18.6560   23.4462 C   0  0  2  0  0  0  0  0  0  0  0  0
  -30.0655  -16.6739   24.0927 C   0  0  1  0  0  0  0  0  0  0  0  0
  -27.6766  -13.4976   19.9210 C   0  0  2  0  0  0  0  0  0  0  0  0
  -32.3601  -14.0586   25.5363 C   0  0  0  0  0  0  0  0  0  0  0  0
  -36.5493  -25.2336   21.1267 C   0  0  0  0  0  0  0  0  0  0  0  0
  -30.8569  -26.4724   17.9750 C   0  0  0  0  0  0  0  0  0  0  0  0
  -33.2225  -25.6568   17.8902 C   0  0  0  0  0  0  0  0  0  0  0  0
  -32.7397  -28.0100   18.5626 C   0  0  0  0  0  0  0  0  0  0  0  0
  -34.5615  -24.8309   24.3458 C   0  0  0  0  0  0  0  0  0  0  0  0
  -28.9450  -20.0145   22.7790 C   0  0  0  0  0  0  0  0  0  1  0  0
  -31.8381  -15.4153   22.7540 C   0  0  0  0  0  0  0  0  0  0  0  0
  -32.1908  -26.1275   20.1585 C   0  0  1  0  0  0  0  0  0  0  0  0
  -35.3928  -25.4825   22.0824 C   0  0  2  0  0  0  0  0  0  0  0  0
  -31.3465  -15.8582   24.1318 C   0  0  2  0  0  0  0  0  0  0  0  0
  -32.2336  -26.5546   18.6641 C   0  0  0  0  0  0  0  0  0  0  0  0
  -26.1755  -12.0551   21.2433 N   0  0  0  0  0  0  0  0  0  0  0  0
  -26.3182  -13.1764   20.5163 N   0  0  0  0  0  0  0  0  0  0  0  0
  -30.1726  -26.2578   21.5846 N   0  0  0  0  0  0  0  0  0  0  0  0
  -30.1235  -13.3293   20.1914 N   0  0  0  0  0  0  0  0  0  0  0  0
  -25.1409  -15.0663   19.7085 N   0  0  0  0  0  0  0  0  0  0  0  0
  -21.9986  -12.7915   22.0209 N   0  0  0  0  0  0  0  0  0  0  0  0
  -26.9111  -27.8881   21.6141 N   0  0  0  0  0  0  0  0  0  0  0  0
  -33.4754  -26.2213   20.8438 N   0  0  0  0  0  0  0  0  0  0  0  0
  -30.8845  -14.5998   22.0354 N   0  0  0  0  0  0  0  0  0  0  0  0
  -31.1181  -14.6540   24.9800 N   0  3  0  0  0  0  0  0  0  0  0  0
  -35.6129  -24.6658   23.3094 N   0  3  0  0  0  0  0  0  0  0  0  0
  -22.3855  -14.6585   20.7468 O   0  0  0  0  0  0  0  0  0  0  0  0
  -28.1094  -26.5761   20.1090 O   0  0  0  0  0  0  0  0  0  0  0  0
  -31.3889  -28.1739   21.0505 O   0  0  0  0  0  0  0  0  0  0  0  0
  -33.5923  -23.9919   21.4710 O   0  0  0  0  0  0  0  0  0  0  0  0
  -32.2153  -14.3304   20.1879 O   0  0  0  0  0  0  0  0  0  0  0  0
  -22.7446   -7.9865   24.7396 O   0  0  0  0  0  0  0  0  0  0  0  0
  -27.8583  -20.7952   23.2749 O   0  0  0  0  0  0  0  0  0  1  0  0
  -17.8421   -5.9319   23.2739 F   0  0  0  0  0  0  0  0  0  0  0  0
  -22.4615   -5.3120   24.0998 F   0  0  0  0  0  0  0  0  0  0  0  0
  1  2  1  0  0  0  0
  1  5  2  0  0  0  0
  2  6  2  0  0  0  0
  3  8  2  0  0  0  0
  3 15  1  0  0  0  0
  4  9  1  0  0  0  0
  4 15  2  0  0  0  0
  5 17  1  0  0  0  0
  6 19  1  0  0  0  0
  7 10  2  0  0  0  0
  7 18  1  0  0  0  0
  8 21  1  0  0  0  0
  9 21  2  0  0  0  0
 10 22  1  0  0  0  0
 11 12  2  0  0  0  0
 11 23  1  0  0  0  0
 12 24  1  0  0  0  0
 13 20  1  0  0  0  0
 13 22  2  0  0  0  0
 14 24  2  0  0  0  0
 14 25  1  0  0  0  0
 15 26  1  0  0  0  0
 16 26  1  0  0  0  0
 16 27  2  0  0  0  0
 16 28  1  0  0  0  0
 17 19  2  0  0  0  0
 17 33  1  0  0  0  0
 18 20  2  0  0  0  0
 18 34  1  0  0  0  0
 19 47  1  0  0  0  0
 20 35  1  0  0  0  0
 21 80  1  0  0  0  0
 22 81  1  0  0  0  0
 23 25  2  0  0  0  0
 23 80  1  0  0  0  0
 24 82  1  0  0  0  0
 25 83  1  0  0  0  0
 26 64  2  0  0  0  0
 27 65  1  0  0  0  0
 27 68  1  0  0  0  0
 28 69  1  0  0  0  0
 28 75  2  0  0  0  0
 29 48  1  0  0  0  0
 29 70  1  0  0  0  0
 29 76  2  0  0  0  0
 30 60  1  0  0  0  0
 30 66  1  0  0  0  0
 30 77  2  0  0  0  0
 31 61  1  0  0  0  0
 31 71  1  0  0  0  0
 31 78  2  0  0  0  0
 32 67  1  0  0  0  0
 32 72  1  0  0  0  0
 32 79  2  0  0  0  0
 33 36  1  0  0  0  0
 34 48  1  0  0  0  0
 35 66  1  0  0  0  0
 36 38  1  0  0  0  0
 37 41  1  0  0  0  0
 37 45  1  0  0  0  0
 38 47  1  0  0  0  0
 39 40  1  0  0  0  0
 39 49  1  0  0  0  0
 40 50  1  0  0  0  0
 41 51  1  0  0  0  0
 42 43  1  0  0  0  0
 42 52  1  0  0  0  0
 43 52  1  0  0  0  0
 44 49  1  0  0  0  0
 44 50  1  0  0  0  0
 45 67  1  0  0  0  0
 46 51  1  0  0  0  0
 46 67  1  0  0  0  0
 47 70  1  0  0  0  0
 48 66  1  0  0  0  0
 49 58  1  0  0  0  0
 50 62  1  0  0  0  0
 51 65  1  0  0  0  0
 52 73  1  0  0  0  0
 53 61  1  0  0  0  0
 54 63  1  0  0  0  0
 55 63  1  0  0  0  0
 56 63  1  0  0  0  0
 57 74  1  0  0  0  0
 58 81  1  0  0  0  0
 59 62  1  0  0  0  0
 59 72  1  0  0  0  0
 60 63  1  0  0  0  0
 60 71  1  0  0  0  0
 61 74  1  0  0  0  0
 62 73  1  0  0  0  0
 64 65  1  0  0  0  0
M  CHG  2  73   1  74   1
M  ISO  4  32 100  58 101  72 100  81 101
M  END
> <Batch ID>
0119

> <Smiles>
CNC(C)C(=O)NC(C(=O)N1Cc2cc([101O:1][101CH2:1]C3CCC(C(C[100NH:0][100C:0](=O)N4CCCC(n5nc(-c6ccc(Oc7ccc(F)cc7F)cc6)c(C(N)=O)c5N)C4)NC4CC4)C3)ccc2CC1C(=O)NC1CCCc2ccccc21)C(C)(C)C

> <Shape>
0.234

> <Color>
0.156

> <Negative vol penalty>
0.000

$$$$

  -OEChem-04052320203D

 92101  0     1  0  0  0  0  0999 V2000
  -21.4766  -28.9133   14.0290 C   0  0  0  0  0  0  0  0  0  0  0  0
  -22.6765  -28.6292   14.6731 C   0  0  0  0  0  0  0  0  0  0  0  0
  -24.7040   -9.2092   22.1227 C   0  0  0  0  0  0  0  0  0  0  0  0
  -22.9379  -10.0705   20.7170 C   0  0  0  0  0  0  0  0  0  0  0  0
  -20.8624  -30.1509   14.2157 C   0  0  0  0  0  0  0  0  0  0  0  0
  -23.2636  -29.5833   15.5035 C   0  0  0  0  0  0  0  0  0  0  0  0
  -24.9195  -27.6091   19.8631 C   0  0  0  0  0  0  0  0  0  0  0  0
  -23.7583   -8.8138   23.0686 C   0  0  0  0  0  0  0  0  0  0  0  0
  -21.9921   -9.6751   21.6630 C   0  0  0  0  0  0  0  0  0  0  0  0
  -26.1244  -26.9088   19.8278 C   0  0  0  0  0  0  0  0  0  0  0  0
  -20.4579   -6.8149   22.6039 C   0  0  0  0  0  0  0  0  0  0  0  0
  -19.3139   -6.1643   22.1417 C   0  0  0  0  0  0  0  0  0  0  0  0
  -27.2688  -28.8458   20.6983 C   0  0  0  0  0  0  0  0  0  0  0  0
  -26.0443  -19.1084   17.0067 C   0  0  0  0  0  0  0  0  0  0  0  0
  -17.9390   -7.9158   23.0793 C   0  0  0  0  0  0  0  0  0  0  0  0
  -28.2073  -19.7097   17.1797 C   0  0  0  0  0  0  0  0  0  0  0  0
  -24.2938   -9.8376   20.9468 C   0  0  0  0  0  0  0  0  0  0  0  0
  -25.7606   -9.4893   18.8890 C   0  0  0  0  0  0  0  0  0  0  0  0
  -21.4373  -31.1170   15.0564 C   0  0  0  0  0  0  0  0  0  0  0  0
  -24.8818  -28.9389   20.3066 C   0  0  0  0  0  0  0  0  0  0  0  0
  -22.6573  -30.8356   15.7006 C   0  0  0  0  0  0  0  0  0  0  0  0
  -26.0616  -29.5600   20.7406 C   0  0  0  0  0  0  0  0  0  0  0  0
  -27.3300  -18.6738   17.4132 C   0  0  0  0  0  0  0  0  0  0  0  0
  -22.4023   -9.0468   22.8388 C   0  0  0  0  0  0  0  0  0  0  0  0
  -27.2998  -27.5280   20.2428 C   0  0  0  0  0  0  0  0  0  0  0  0
  -20.3425   -8.0158   23.3040 C   0  0  0  0  0  0  0  0  0  0  0  0
  -18.0545   -6.7148   22.3793 C   0  0  0  0  0  0  0  0  0  0  0  0
  -19.0830   -8.5663   23.5416 C   0  0  0  0  0  0  0  0  0  0  0  0
  -25.2703  -10.2468   19.9695 C   0  0  0  0  0  0  0  0  0  0  0  0
  -26.1751  -20.3967   16.5370 C   0  0  0  0  0  0  0  0  0  0  0  0
  -26.6599  -10.3205   18.2670 C   0  0  0  0  0  0  0  0  0  0  0  0
  -25.4324   -8.1537   18.4837 C   0  0  0  0  0  0  0  0  0  0  0  0
  -24.0886  -31.7211   18.9900 C   0  0  0  0  0  0  0  0  0  0  0  0
  -24.5368  -32.8320   22.0045 C   0  0  0  0  0  0  0  0  0  0  0  0
  -26.0247  -32.4291   25.0493 C   0  0  0  0  0  0  0  0  0  0  0  0
  -26.8357  -16.3307   18.2195 C   0  0  0  0  0  0  0  0  0  0  0  0
  -20.7607  -32.4583   15.1900 C   0  0  0  0  0  0  0  0  0  0  0  0
  -23.5696  -29.6719   20.3638 C   0  0  0  0  0  0  0  0  0  0  0  0
  -26.0715  -30.9792   21.2447 C   0  0  0  0  0  0  0  0  0  0  0  0
  -21.2560  -33.2744   16.3812 C   0  0  0  0  0  0  0  0  0  0  0  0
  -29.3280  -13.9866   19.9567 C   0  0  0  0  0  0  0  0  0  0  0  0
  -22.7802  -33.2610   16.4406 C   0  0  0  0  0  0  0  0  0  0  0  0
  -28.8649  -12.6512   19.3791 C   0  0  0  0  0  0  0  0  0  0  0  0
  -29.6354  -22.5828   18.1841 C   0  0  0  0  0  0  0  0  0  0  0  0
  -28.9359  -15.1647   19.0738 C   0  0  0  0  0  0  0  0  0  0  0  0
  -26.7177  -14.0096   19.1055 C   0  0  0  0  0  0  0  0  0  0  0  0
  -29.9084  -23.8066   19.0423 C   0  0  0  0  0  0  0  0  0  0  0  0
  -28.5642  -24.3806   17.0814 C   0  0  0  0  0  0  0  0  0  0  0  0
  -23.3125  -31.8353   16.6287 C   0  0  1  0  0  0  0  0  0  0  0  0
  -23.7314  -31.1888   20.3489 C   0  0  1  0  0  0  0  0  0  0  0  0
  -28.3415  -22.9261   17.4607 C   0  0  1  0  0  0  0  0  0  0  0  0
  -27.4742  -12.7291   18.7187 C   0  0  2  0  0  0  0  0  0  0  0  0
  -26.2322  -33.5193   27.3000 C   0  0  0  0  0  0  0  0  0  0  0  0
  -31.9911  -27.5493   19.0096 C   0  0  0  0  0  0  0  0  0  0  0  0
  -24.3475  -24.8192   17.1163 C   0  0  0  0  0  0  0  0  0  0  0  0
  -22.7337  -23.3150   15.8885 C   0  0  0  0  0  0  0  0  0  0  0  0
  -26.4479  -34.8975   20.8251 C   0  0  0  0  0  0  0  0  0  0  0  0
  -27.3240  -35.3033   23.1351 C   0  0  0  0  0  0  0  0  0  0  0  0
  -24.9321  -35.7776   22.6090 C   0  0  0  0  0  0  0  0  0  0  0  0
  -24.8361  -30.0910   26.4202 C   0  0  0  0  0  0  0  0  0  0  0  0
  -23.8340  -21.9143   18.0196 C   0  0  0  0  0  0  0  0  0  0  0  0
  -25.1538  -21.3159   15.9946 C   0  0  0  0  0  0  0  0  0  0  0  0
  -28.0695  -22.0349   16.2619 C   0  0  0  0  0  0  0  0  0  0  0  0
  -30.1572  -26.1021   18.0036 C   0  0  0  0  0  0  0  0  0  0  0  0
  -29.6636  -27.6107   19.9947 C   0  0  0  0  0  0  0  0  0  1  0  0
  -25.7118  -33.3785   22.7788 C   0  0  1  0  0  0  0  0  0  0  0  0
  -25.4693  -32.5068   26.4600 C   0  0  2  0  0  0  0  0  0  0  0  0
  -30.7112  -26.7497   19.2778 C   0  0  2  0  0  0  0  0  0  0  0  0
  -24.1893  -23.6004   16.2216 C   0  0  0  0  0  0  0  0  0  0  0  0
  -26.1044  -34.8131   22.3257 C   0  0  0  0  0  0  0  0  0  0  0  0
  -25.8132  -11.4655   20.0333 N   0  0  0  0  0  0  0  0  0  0  0  0
  -27.4943  -20.7517   16.6467 N   0  0  0  0  0  0  0  0  0  0  0  0
  -26.6540  -11.4800   18.9850 N   0  0  0  0  0  0  0  0  0  0  0  0
  -24.7645  -31.6561   21.2755 N   0  0  0  0  0  0  0  0  0  0  0  0
  -27.4974  -15.2076   18.7736 N   0  0  0  0  0  0  0  0  0  0  0  0
  -27.4472  -10.1653   17.1814 N   0  0  0  0  0  0  0  0  0  0  0  0
  -24.4880   -7.4406   19.2346 N   0  0  0  0  0  0  0  0  0  0  0  0
  -27.6794  -17.4143   17.9614 N   0  0  0  0  0  0  0  0  0  0  0  0
  -23.1658  -31.4187   18.0069 N   0  0  0  0  0  0  0  0  0  0  0  0
  -25.3552  -33.2741   24.1896 N   0  0  0  0  0  0  0  0  0  0  0  0
  -29.2453  -24.9565   18.3053 N   0  3  2  0  0  0  0  0  0  0  0  0
  -25.5620  -31.1775   27.1271 N   0  3  0  0  0  0  0  0  0  0  0  0
  -24.7581  -22.4055   16.9382 N   0  3  1  0  0  0  0  0  0  0  0  0
  -25.9731   -7.6029   17.4948 O   0  0  0  0  0  0  0  0  0  0  0  0
  -25.1240  -32.3603   18.8444 O   0  0  0  0  0  0  0  0  0  0  0  0
  -23.4547  -33.4225   22.0507 O   0  0  0  0  0  0  0  0  0  0  0  0
  -26.9613  -31.6952   24.7416 O   0  0  0  0  0  0  0  0  0  0  0  0
  -25.6254  -16.3188   17.9850 O   0  0  0  0  0  0  0  0  0  0  0  0
  -21.4792   -8.6609   23.7616 O   0  0  0  0  0  0  0  0  0  0  0  0
  -28.4774  -26.8469   20.2088 O   0  0  0  0  0  0  0  0  0  1  0  0
  -16.9561   -6.0907   21.9340 F   0  0  0  0  0  0  0  0  0  0  0  0
  -18.9659   -9.7204   24.2125 F   0  0  0  0  0  0  0  0  0  0  0  0
  1  2  1  0  0  0  0
  1  5  2  0  0  0  0
  2  6  2  0  0  0  0
  3  8  2  0  0  0  0
  3 17  1  0  0  0  0
  4  9  1  0  0  0  0
  4 17  2  0  0  0  0
  5 19  1  0  0  0  0
  6 21  1  0  0  0  0
  7 10  2  0  0  0  0
  7 20  1  0  0  0  0
  8 24  1  0  0  0  0
  9 24  2  0  0  0  0
 10 25  1  0  0  0  0
 11 12  2  0  0  0  0
 11 26  1  0  0  0  0
 12 27  1  0  0  0  0
 13 22  1  0  0  0  0
 13 25  2  0  0  0  0
 14 23  1  0  0  0  0
 14 30  2  0  0  0  0
 15 27  2  0  0  0  0
 15 28  1  0  0  0  0
 16 23  2  0  0  0  0
 16 72  1  0  0  0  0
 17 29  1  0  0  0  0
 18 29  1  0  0  0  0
 18 31  2  0  0  0  0
 18 32  1  0  0  0  0
 19 21  2  0  0  0  0
 19 37  1  0  0  0  0
 20 22  2  0  0  0  0
 20 38  1  0  0  0  0
 21 49  1  0  0  0  0
 22 39  1  0  0  0  0
 23 78  1  0  0  0  0
 24 89  1  0  0  0  0
 25 90  1  0  0  0  0
 26 28  2  0  0  0  0
 26 89  1  0  0  0  0
 27 91  1  0  0  0  0
 28 92  1  0  0  0  0
 29 71  2  0  0  0  0
 30 62  1  0  0  0  0
 30 72  1  0  0  0  0
 31 73  1  0  0  0  0
 31 76  1  0  0  0  0
 32 77  1  0  0  0  0
 32 84  2  0  0  0  0
 33 50  1  0  0  0  0
 33 79  1  0  0  0  0
 33 85  2  0  0  0  0
 34 66  1  0  0  0  0
 34 74  1  0  0  0  0
 34 86  2  0  0  0  0
 35 67  1  0  0  0  0
 35 80  1  0  0  0  0
 35 87  2  0  0  0  0
 36 75  1  0  0  0  0
 36 78  1  0  0  0  0
 36 88  2  0  0  0  0
 37 40  1  0  0  0  0
 38 50  1  0  0  0  0
 39 74  1  0  0  0  0
 40 42  1  0  0  0  0
 41 43  1  0  0  0  0
 41 45  1  0  0  0  0
 42 49  1  0  0  0  0
 43 52  1  0  0  0  0
 44 47  1  0  0  0  0
 44 51  1  0  0  0  0
 45 75  1  0  0  0  0
 46 52  1  0  0  0  0
 46 75  1  0  0  0  0
 47 81  1  0  0  0  0
 48 51  1  0  0  0  0
 48 81  1  0  0  0  0
 49 79  1  0  0  0  0
 50 74  1  0  0  0  0
 51 63  1  0  0  0  0
 52 73  1  0  0  0  0
 53 67  1  0  0  0  0
 54 68  1  0  0  0  0
 55 69  1  0  0  0  0
 56 69  1  0  0  0  0
 57 70  1  0  0  0  0
 58 70  1  0  0  0  0
 59 70  1  0  0  0  0
 60 82  1  0  0  0  0
 61 83  1  0  0  0  0
 62 83  1  0  0  0  0
 63 72  1  0  0  0  0
 64 68  1  0  0  0  0
 64 81  1  0  0  0  0
 65 68  1  0  0  0  0
 65 90  1  0  0  0  0
 66 70  1  0  0  0  0
 66 80  1  0  0  0  0
 67 82  1  0  0  0  0
 69 83  1  0  0  0  0
 71 73  1  0  0  0  0
M  CHG  3  81   1  82   1  83   1
M  ISO  4  36 100  65 101  78 100  90 101
M  END
> <Batch ID>
0119

> <Smiles>
CNC(C)C(=O)NC(C(=O)N1Cc2cc([101O:1][101CH2:1]C(C)CN3CCC(Cn4cc([100NH:0][100C:0](=O)N5CCCC(n6nc(-c7ccc(Oc8ccc(F)cc8F)cc7)c(C(N)=O)c6N)C5)cc4CN(C)C(C)C)C3)ccc2CC1C(=O)NC1CCCc2ccccc21)C(C)(C)C

> <Shape>
0.241

> <Color>
0.086

> <Negative vol penalty>
0.000

$$$$

  -OEChem-04052320203D

 85 93  0     1  0  0  0  0  0999 V2000
  -30.5491  -22.0330   15.4542 C   0  0  0  0  0  0  0  0  0  0  0  0
  -30.2966  -22.0781   16.8215 C   0  0  0  0  0  0  0  0  0  0  0  0
  -29.3234  -15.0361   18.5585 C   0  0  0  0  0  0  0  0  0  0  0  0
  -28.7209  -14.9805   20.8975 C   0  0  0  0  0  0  0  0  0  0  0  0
  -30.5269  -23.2076   14.7033 C   0  0  0  0  0  0  0  0  0  0  0  0
  -30.0228  -23.2981   17.4390 C   0  0  0  0  0  0  0  0  0  0  0  0
  -26.1107  -23.0192   20.6425 C   0  0  0  0  0  0  0  0  0  0  0  0
  -29.0181  -13.6796   18.4476 C   0  0  0  0  0  0  0  0  0  0  0  0
  -28.4154  -13.6240   20.7866 C   0  0  0  0  0  0  0  0  0  0  0  0
  -26.3503  -22.4488   21.8919 C   0  0  0  0  0  0  0  0  0  0  0  0
  -27.1334  -10.2308   21.0332 C   0  0  0  0  0  0  0  0  0  0  0  0
  -25.9506   -9.7815   21.6204 C   0  0  0  0  0  0  0  0  0  0  0  0
  -26.5095  -24.6524   22.8606 C   0  0  0  0  0  0  0  0  0  0  0  0
  -32.0099  -21.6617   26.7379 C   0  0  0  0  0  0  0  0  0  0  0  0
  -24.6824  -11.2813   20.2134 C   0  0  0  0  0  0  0  0  0  0  0  0
  -30.7501  -19.9657   27.5167 C   0  0  0  0  0  0  0  0  0  0  0  0
  -29.1749  -15.6865   19.7835 C   0  0  0  0  0  0  0  0  0  0  0  0
  -28.6187  -18.1748   19.7003 C   0  0  0  0  0  0  0  0  0  0  0  0
  -30.2432  -24.4412   15.3101 C   0  0  0  0  0  0  0  0  0  0  0  0
  -26.0795  -24.4129   20.4905 C   0  0  0  0  0  0  0  0  0  0  0  0
  -29.9981  -24.4904   16.6957 C   0  0  0  0  0  0  0  0  0  0  0  0
  -26.2668  -25.2379   21.6086 C   0  0  0  0  0  0  0  0  0  0  0  0
  -30.8451  -21.3393   27.4770 C   0  0  0  0  0  0  0  0  0  0  0  0
  -28.5640  -12.9736   19.5616 C   0  0  0  0  0  0  0  0  0  0  0  0
  -26.5526  -23.2655   23.0007 C   0  0  0  0  0  0  0  0  0  0  0  0
  -27.0907  -11.2055   20.0362 C   0  0  0  0  0  0  0  0  0  0  0  0
  -24.7251  -10.3067   21.2105 C   0  0  0  0  0  0  0  0  0  0  0  0
  -25.8652  -11.7306   19.6263 C   0  0  0  0  0  0  0  0  0  0  0  0
  -29.4907  -17.0876   19.8989 C   0  0  0  0  0  0  0  0  0  0  0  0
  -32.5913  -20.4753   26.3482 C   0  0  0  0  0  0  0  0  0  0  0  0
  -29.3958  -19.2842   19.9277 C   0  0  0  0  0  0  0  0  0  0  0  0
  -27.2304  -18.1812   19.3423 C   0  0  0  0  0  0  0  0  0  0  0  0
  -27.7854  -26.5282   18.8415 C   0  0  0  0  0  0  0  0  0  0  0  0
  -25.5507  -28.6055   19.9429 C   0  0  0  0  0  0  0  0  0  0  0  0
  -23.2090  -29.3558   22.3094 C   0  0  0  0  0  0  0  0  0  0  0  0
  -34.3660  -20.1922   23.1408 C   0  0  0  0  0  0  0  0  0  0  0  0
  -30.2769  -25.6904   14.4656 C   0  0  0  0  0  0  0  0  0  0  0  0
  -25.7933  -25.0123   19.1409 C   0  0  0  0  0  0  0  0  0  0  0  0
  -26.2230  -26.7397   21.5024 C   0  0  0  0  0  0  0  0  0  0  0  0
  -29.6093  -26.8923   15.1289 C   0  0  0  0  0  0  0  0  0  0  0  0
  -33.9252  -20.8020   19.6608 C   0  0  0  0  0  0  0  0  0  0  0  0
  -30.0679  -27.0255   16.5776 C   0  0  0  0  0  0  0  0  0  0  0  0
  -32.6601  -20.0173   19.3092 C   0  0  0  0  0  0  0  0  0  0  0  0
  -34.7722  -20.0710   20.7001 C   0  0  0  0  0  0  0  0  0  0  0  0
  -32.7863  -18.9048   21.5775 C   0  0  0  0  0  0  0  0  0  0  0  0
  -29.6727  -25.7912   17.3972 C   0  0  1  0  0  0  0  0  0  0  0  0
  -26.2941  -26.4470   19.0060 C   0  0  1  0  0  0  0  0  0  0  0  0
  -31.8718  -19.6285   20.5744 C   0  0  2  0  0  0  0  0  0  0  0  0
  -30.5850  -23.1462   29.1959 C   0  0  0  0  0  0  0  0  0  0  0  0
  -21.5719  -31.1415   22.9641 C   0  0  0  0  0  0  0  0  0  0  0  0
  -30.9610  -17.3577   25.8398 C   0  0  0  0  0  0  0  0  0  0  0  0
  -32.3241  -17.3251   27.9722 C   0  0  0  0  0  0  0  0  0  0  0  0
  -27.8443  -30.3162   21.0026 C   0  0  0  0  0  0  0  0  0  0  0  0
  -26.1851  -31.5335   22.4287 C   0  0  0  0  0  0  0  0  0  0  0  0
  -25.9827  -31.6075   19.9435 C   0  0  0  0  0  0  0  0  0  0  0  0
  -20.9105  -27.5119   22.0341 C   0  0  0  0  0  0  0  0  0  0  0  0
  -33.8182  -20.2344   25.5610 C   0  0  0  0  0  0  0  0  0  0  0  0
  -28.3251  -22.5089   26.0752 C   0  0  0  0  0  0  0  0  0  0  0  0
  -29.2060  -23.2618   27.0828 C   0  0  0  0  0  0  0  0  0  0  0  0
  -27.5986  -23.4571   25.1279 C   0  0  0  0  0  0  0  0  0  1  0  0
  -29.8785  -22.3254   28.1100 C   0  0  1  0  0  0  0  0  0  0  0  0
  -25.4100  -29.4725   21.1707 C   0  0  1  0  0  0  0  0  0  0  0  0
  -21.7783  -29.8489   22.1899 C   0  0  2  0  0  0  0  0  0  0  0  0
  -32.0707  -18.0389   26.6430 C   0  0  0  0  0  0  0  0  0  0  0  0
  -26.3583  -30.7042   21.1383 C   0  0  0  0  0  0  0  0  0  0  0  0
  -30.7272  -17.4717   20.2271 N   0  0  0  0  0  0  0  0  0  0  0  0
  -31.8167  -19.4510   26.8270 N   0  0  0  0  0  0  0  0  0  0  0  0
  -30.6377  -18.8126   20.2363 N   0  0  0  0  0  0  0  0  0  0  0  0
  -25.9461  -27.2780   20.1604 N   0  0  0  0  0  0  0  0  0  0  0  0
  -33.9659  -19.7322   21.8753 N   0  0  0  0  0  0  0  0  0  0  0  0
  -29.1311  -20.6075   19.8917 N   0  0  0  0  0  0  0  0  0  0  0  0
  -26.5853  -16.9525   19.1461 N   0  0  0  0  0  0  0  0  0  0  0  0
  -28.2684  -25.8426   17.7432 N   0  0  0  0  0  0  0  0  0  0  0  0
  -23.9944  -29.8108   21.2714 N   0  0  0  0  0  0  0  0  0  0  0  0
  -33.5421  -19.8315   24.2000 N   0  0  0  0  0  0  0  0  0  0  0  0
  -20.8322  -28.8270   22.7206 N   0  3  0  0  0  0  0  0  0  0  0  0
  -26.5852  -19.2454   19.1845 O   0  0  0  0  0  0  0  0  0  0  0  0
  -28.4486  -27.1667   19.6502 O   0  0  0  0  0  0  0  0  0  0  0  0
  -25.3116  -29.0864   18.8324 O   0  0  0  0  0  0  0  0  0  0  0  0
  -23.5925  -28.6417   23.2332 O   0  0  0  0  0  0  0  0  0  0  0  0
  -35.3792  -20.8782   23.3131 O   0  0  0  0  0  0  0  0  0  0  0  0
  -28.2657  -11.6500   19.4537 O   0  0  0  0  0  0  0  0  0  0  0  0
  -26.7873  -22.7114   24.2212 O   0  0  0  0  0  0  0  0  0  1  0  0
  -23.5893   -9.8739   21.7733 F   0  0  0  0  0  0  0  0  0  0  0  0
  -25.8177  -12.6663   18.6681 F   0  0  0  0  0  0  0  0  0  0  0  0
  1  2  1  0  0  0  0
  1  5  2  0  0  0  0
  2  6  2  0  0  0  0
  3  8  2  0  0  0  0
  3 17  1  0  0  0  0
  4  9  1  0  0  0  0
  4 17  2  0  0  0  0
  5 19  1  0  0  0  0
  6 21  1  0  0  0  0
  7 10  2  0  0  0  0
  7 20  1  0  0  0  0
  8 24  1  0  0  0  0
  9 24  2  0  0  0  0
 10 25  1  0  0  0  0
 11 12  2  0  0  0  0
 11 26  1  0  0  0  0
 12 27  1  0  0  0  0
 13 22  1  0  0  0  0
 13 25  2  0  0  0  0
 14 23  1  0  0  0  0
 14 30  2  0  0  0  0
 15 27  2  0  0  0  0
 15 28  1  0  0  0  0
 16 23  2  0  0  0  0
 16 67  1  0  0  0  0
 17 29  1  0  0  0  0
 18 29  1  0  0  0  0
 18 31  2  0  0  0  0
 18 32  1  0  0  0  0
 19 21  2  0  0  0  0
 19 37  1  0  0  0  0
 20 22  2  0  0  0  0
 20 38  1  0  0  0  0
 21 46  1  0  0  0  0
 22 39  1  0  0  0  0
 23 61  1  0  0  0  0
 24 82  1  0  0  0  0
 25 83  1  0  0  0  0
 26 28  2  0  0  0  0
 26 82  1  0  0  0  0
 27 84  1  0  0  0  0
 28 85  1  0  0  0  0
 29 66  2  0  0  0  0
 30 57  1  0  0  0  0
 30 67  1  0  0  0  0
 31 68  1  0  0  0  0
 31 71  1  0  0  0  0
 32 72  1  0  0  0  0
 32 77  2  0  0  0  0
 33 47  1  0  0  0  0
 33 73  1  0  0  0  0
 33 78  2  0  0  0  0
 34 62  1  0  0  0  0
 34 69  1  0  0  0  0
 34 79  2  0  0  0  0
 35 63  1  0  0  0  0
 35 74  1  0  0  0  0
 35 80  2  0  0  0  0
 36 70  1  0  0  0  0
 36 75  1  0  0  0  0
 36 81  2  0  0  0  0
 37 40  1  0  0  0  0
 38 47  1  0  0  0  0
 39 69  1  0  0  0  0
 40 42  1  0  0  0  0
 41 43  1  0  0  0  0
 41 44  1  0  0  0  0
 42 46  1  0  0  0  0
 43 48  1  0  0  0  0
 44 70  1  0  0  0  0
 45 48  1  0  0  0  0
 45 70  1  0  0  0  0
 46 73  1  0  0  0  0
 47 69  1  0  0  0  0
 48 68  1  0  0  0  0
 49 61  1  0  0  0  0
 50 63  1  0  0  0  0
 51 64  1  0  0  0  0
 52 64  1  0  0  0  0
 53 65  1  0  0  0  0
 54 65  1  0  0  0  0
 55 65  1  0  0  0  0
 56 76  1  0  0  0  0
 57 75  1  0  0  0  0
 58 59  1  0  0  0  0
 58 60  1  0  0  0  0
 59 61  1  0  0  0  0
 60 83  1  0  0  0  0
 62 65  1  0  0  0  0
 62 74  1  0  0  0  0
 63 76  1  0  0  0  0
 64 67  1  0  0  0  0
 66 68  1  0  0  0  0
M  CHG  1  76   1
M  ISO  4  36 100  60 101  75 100  83 101
M  END
> <Batch ID>
0119

> <Smiles>
CNC(C)C(=O)NC(C(=O)N1Cc2cc([101O:1][101CH2:1]CCC(C)c3cc(C[100NH:0][100C:0](=O)N4CCCC(n5nc(-c6ccc(Oc7ccc(F)cc7F)cc6)c(C(N)=O)c5N)C4)n(C(C)C)c3)ccc2CC1C(=O)NC1CCCc2ccccc21)C(C)(C)C

> <Shape>
0.210

> <Color>
0.076

> <Negative vol penalty>
0.000

$$$$

  -OEChem-04052320203D

 91100  0     1  0  0  0  0  0999 V2000
  -17.4553  -24.4164   21.5291 C   0  0  0  0  0  0  0  0  0  0  0  0
  -18.3401  -24.5005   20.4588 C   0  0  0  0  0  0  0  0  0  0  0  0
  -21.3785  -10.3226   22.5342 C   0  0  0  0  0  0  0  0  0  0  0  0
  -23.4797  -10.4212   21.3458 C   0  0  0  0  0  0  0  0  0  0  0  0
  -17.4727  -25.3922   22.5247 C   0  0  0  0  0  0  0  0  0  0  0  0
  -19.2422  -25.5611   20.3831 C   0  0  0  0  0  0  0  0  0  0  0  0
  -26.3437  -24.3788   20.1344 C   0  0  0  0  0  0  0  0  0  0  0  0
  -21.3049   -8.9512   22.2905 C   0  0  0  0  0  0  0  0  0  0  0  0
  -23.4062   -9.0498   21.1021 C   0  0  0  0  0  0  0  0  0  0  0  0
  -27.7053  -24.2276   19.8709 C   0  0  0  0  0  0  0  0  0  0  0  0
  -22.6637   -6.1215   23.5473 C   0  0  0  0  0  0  0  0  0  0  0  0
  -22.3006   -5.2930   24.6090 C   0  0  0  0  0  0  0  0  0  0  0  0
  -27.9886  -26.6290   19.9010 C   0  0  0  0  0  0  0  0  0  0  0  0
  -20.3809   -4.5292   23.3566 C   0  0  0  0  0  0  0  0  0  0  0  0
  -22.4658  -11.0577   22.0619 C   0  0  0  0  0  0  0  0  0  0  0  0
  -22.5758  -13.1152   23.5658 C   0  0  0  0  0  0  0  0  0  0  0  0
  -18.3819  -26.4601   22.4662 C   0  0  0  0  0  0  0  0  0  0  0  0
  -25.8017  -25.6566   20.2977 C   0  0  0  0  0  0  0  0  0  0  0  0
  -19.2709  -26.5529   21.3783 C   0  0  0  0  0  0  0  0  0  0  0  0
  -26.6279  -26.7861   20.1775 C   0  0  0  0  0  0  0  0  0  0  0  0
  -22.3188   -8.3148   21.5745 C   0  0  0  0  0  0  0  0  0  0  0  0
  -28.5256  -25.3500   19.7542 C   0  0  0  0  0  0  0  0  0  0  0  0
  -21.8853   -6.1540   22.3902 C   0  0  0  0  0  0  0  0  0  0  0  0
  -21.1593   -4.4968   24.5137 C   0  0  0  0  0  0  0  0  0  0  0  0
  -20.7440   -5.3578   22.2949 C   0  0  0  0  0  0  0  0  0  0  0  0
  -22.5421  -12.4745   22.3128 C   0  0  0  0  0  0  0  0  0  0  0  0
  -22.6483  -14.4535   23.2653 C   0  0  0  0  0  0  0  0  0  0  0  0
  -22.5445  -12.5512   24.8836 C   0  0  0  0  0  0  0  0  0  0  0  0
  -22.7536  -27.7280   21.0006 C   0  0  0  0  0  0  0  0  0  0  0  0
  -25.0792  -29.0172   22.5304 C   0  0  0  0  0  0  0  0  0  0  0  0
  -27.0521  -30.6811   24.7611 C   0  0  0  0  0  0  0  0  0  0  0  0
  -24.6641  -17.4576   18.4942 C   0  0  0  0  0  0  0  0  0  0  0  0
  -18.3313  -27.5165   23.5415 C   0  0  0  0  0  0  0  0  0  0  0  0
  -24.3291  -25.8693   20.5216 C   0  0  0  0  0  0  0  0  0  0  0  0
  -25.9946  -28.1425   20.3264 C   0  0  0  0  0  0  0  0  0  0  0  0
  -19.5719  -28.4051   23.5813 C   0  0  0  0  0  0  0  0  0  0  0  0
  -33.4997  -26.5189   17.2630 C   0  0  0  0  0  0  0  0  0  0  0  0
  -32.4156  -26.1223   16.2669 C   0  0  0  0  0  0  0  0  0  0  0  0
  -33.8645  -25.3680   18.1939 C   0  0  0  0  0  0  0  0  0  0  0  0
  -21.3935  -17.6072   19.8933 C   0  0  0  0  0  0  0  0  0  0  0  0
  -19.9425  -28.8677   22.1758 C   0  0  0  0  0  0  0  0  0  0  0  0
  -28.9181  -19.7558   17.7542 C   0  0  0  0  0  0  0  0  0  0  0  0
  -29.5672  -19.9575   20.1863 C   0  0  0  0  0  0  0  0  0  0  0  0
  -30.2473  -20.3890   17.3470 C   0  0  0  0  0  0  0  0  0  0  0  0
  -30.8965  -20.5905   19.7790 C   0  0  0  0  0  0  0  0  0  0  0  0
  -21.3200  -16.3665   20.7851 C   0  0  0  0  0  0  0  0  0  0  0  0
  -31.1819  -25.5566   16.9702 C   0  0  0  0  0  0  0  0  0  0  0  0
  -32.6332  -24.8008   18.9002 C   0  0  0  0  0  0  0  0  0  0  0  0
  -22.1929  -17.3403   18.6198 C   0  0  0  0  0  0  0  0  0  0  0  0
  -23.4702  -15.5500   19.7321 C   0  0  0  0  0  0  0  0  0  0  0  0
  -20.2811  -27.6748   21.2737 C   0  0  1  0  0  0  0  0  0  0  0  0
  -24.0252  -27.0650   21.4420 C   0  0  1  0  0  0  0  0  0  0  0  0
  -29.0271  -19.0222   19.0971 C   0  0  0  0  0  0  0  0  0  0  0  0
  -30.7870  -21.3243   18.4365 C   0  0  0  0  0  0  0  0  0  0  0  0
  -22.7213  -15.7861   21.0548 C   0  0  2  0  0  0  0  0  0  0  0  0
  -31.5035  -24.3878   17.9294 C   0  0  0  0  0  0  0  0  0  0  0  0
  -27.3068  -32.9101   25.8854 C   0  0  0  0  0  0  0  0  0  0  0  0
  -27.7874  -17.7625   20.8725 C   0  0  0  0  0  0  0  0  0  0  0  0
  -26.2075  -30.1862   19.9489 C   0  0  0  0  0  0  0  0  0  0  0  0
  -27.2835  -31.9855   21.3175 C   0  0  0  0  0  0  0  0  0  0  0  0
  -24.7989  -31.7655   21.2815 C   0  0  0  0  0  0  0  0  0  0  0  0
  -26.7106  -29.4938   27.4505 C   0  0  0  0  0  0  0  0  0  0  0  0
  -31.9055  -23.1302   17.1346 C   0  0  0  0  0  0  0  0  0  0  0  0
  -30.2418  -24.0484   18.7452 C   0  0  0  0  0  0  0  0  0  1  0  0
  -27.1457  -17.4454   18.4678 C   0  0  0  0  0  0  0  0  0  0  0  0
  -33.0526  -20.8292   17.4247 C   0  0  0  0  0  0  0  0  0  0  0  0
  -26.1771  -30.0505   22.5270 C   0  0  1  0  0  0  0  0  0  0  0  0
  -26.7098  -31.5148   25.9827 C   0  0  2  0  0  0  0  0  0  0  0  0
  -27.6746  -18.4425   19.5064 C   0  0  2  0  0  0  0  0  0  0  0  0
  -32.1391  -21.9055   18.0275 C   0  0  2  0  0  0  0  0  0  0  0  0
  -26.1222  -30.9695   21.2740 C   0  0  0  0  0  0  0  0  0  0  0  0
  -22.5891  -13.3348   21.2923 N   0  0  0  0  0  0  0  0  0  0  0  0
  -22.6530  -14.5300   21.9036 N   0  0  0  0  0  0  0  0  0  0  0  0
  -25.0409  -28.1314   21.4467 N   0  0  0  0  0  0  0  0  0  0  0  0
  -23.5120  -16.7926   18.9453 N   0  0  0  0  0  0  0  0  0  0  0  0
  -22.7078  -15.5605   24.0356 N   0  0  0  0  0  0  0  0  0  0  0  0
  -23.7602  -12.2220   25.4985 N   0  0  0  0  0  0  0  0  0  0  0  0
  -21.6126  -27.1859   21.5608 N   0  0  0  0  0  0  0  0  0  0  0  0
  -26.0710  -30.7630   23.7957 N   0  0  0  0  0  0  0  0  0  0  0  0
  -25.8738  -16.8750   18.8521 N   0  0  0  0  0  0  0  0  0  0  0  0
  -34.4774  -21.2367   17.4400 N   0  3  0  0  0  0  0  0  0  0  0  0
  -27.2338  -30.8645   27.2170 N   0  3  0  0  0  0  0  0  0  0  0  0
  -21.4696  -12.3300   25.4911 O   0  0  0  0  0  0  0  0  0  0  0  0
  -22.8027  -28.6639   20.2111 O   0  0  0  0  0  0  0  0  0  0  0  0
  -24.2726  -28.9972   23.4644 O   0  0  0  0  0  0  0  0  0  0  0  0
  -28.0880  -30.0260   24.6707 O   0  0  0  0  0  0  0  0  0  0  0  0
  -24.6182  -18.4966   17.8269 O   0  0  0  0  0  0  0  0  0  0  0  0
  -22.2475   -6.9765   21.3367 O   0  0  0  0  0  0  0  0  0  0  0  0
  -29.8548  -25.1951   19.5013 O   0  0  0  0  0  0  0  0  0  1  0  0
  -20.8116   -3.7001   25.5328 F   0  0  0  0  0  0  0  0  0  0  0  0
  -19.9929   -5.3839   21.1854 F   0  0  0  0  0  0  0  0  0  0  0  0
  1  2  1  0  0  0  0
  1  5  2  0  0  0  0
  2  6  2  0  0  0  0
  3  8  2  0  0  0  0
  3 15  1  0  0  0  0
  4  9  1  0  0  0  0
  4 15  2  0  0  0  0
  5 17  1  0  0  0  0
  6 19  1  0  0  0  0
  7 10  2  0  0  0  0
  7 18  1  0  0  0  0
  8 21  1  0  0  0  0
  9 21  2  0  0  0  0
 10 22  1  0  0  0  0
 11 12  2  0  0  0  0
 11 23  1  0  0  0  0
 12 24  1  0  0  0  0
 13 20  1  0  0  0  0
 13 22  2  0  0  0  0
 14 24  2  0  0  0  0
 14 25  1  0  0  0  0
 15 26  1  0  0  0  0
 16 26  1  0  0  0  0
 16 27  2  0  0  0  0
 16 28  1  0  0  0  0
 17 19  2  0  0  0  0
 17 33  1  0  0  0  0
 18 20  2  0  0  0  0
 18 34  1  0  0  0  0
 19 51  1  0  0  0  0
 20 35  1  0  0  0  0
 21 88  1  0  0  0  0
 22 89  1  0  0  0  0
 23 25  2  0  0  0  0
 23 88  1  0  0  0  0
 24 90  1  0  0  0  0
 25 91  1  0  0  0  0
 26 72  2  0  0  0  0
 27 73  1  0  0  0  0
 27 76  1  0  0  0  0
 28 77  1  0  0  0  0
 28 83  2  0  0  0  0
 29 52  1  0  0  0  0
 29 78  1  0  0  0  0
 29 84  2  0  0  0  0
 30 67  1  0  0  0  0
 30 74  1  0  0  0  0
 30 85  2  0  0  0  0
 31 68  1  0  0  0  0
 31 79  1  0  0  0  0
 31 86  2  0  0  0  0
 32 75  1  0  0  0  0
 32 80  1  0  0  0  0
 32 87  2  0  0  0  0
 33 36  1  0  0  0  0
 34 52  1  0  0  0  0
 35 74  1  0  0  0  0
 36 41  1  0  0  0  0
 37 38  1  0  0  0  0
 37 39  1  0  0  0  0
 38 47  1  0  0  0  0
 39 48  1  0  0  0  0
 40 46  1  0  0  0  0
 40 49  1  0  0  0  0
 41 51  1  0  0  0  0
 42 44  1  0  0  0  0
 42 53  1  0  0  0  0
 43 45  1  0  0  0  0
 43 53  1  0  0  0  0
 44 54  1  0  0  0  0
 45 54  1  0  0  0  0
 46 55  1  0  0  0  0
 47 56  1  0  0  0  0
 48 56  1  0  0  0  0
 49 75  1  0  0  0  0
 50 55  1  0  0  0  0
 50 75  1  0  0  0  0
 51 78  1  0  0  0  0
 52 74  1  0  0  0  0
 53 69  1  0  0  0  0
 54 70  1  0  0  0  0
 55 73  1  0  0  0  0
 56 63  1  0  0  0  0
 56 64  1  0  0  0  0
 57 68  1  0  0  0  0
 58 69  1  0  0  0  0
 59 71  1  0  0  0  0
 60 71  1  0  0  0  0
 61 71  1  0  0  0  0
 62 82  1  0  0  0  0
 63 70  1  0  0  0  0
 64 89  1  0  0  0  0
 65 69  1  0  0  0  0
 65 80  1  0  0  0  0
 66 70  1  0  0  0  0
 66 81  1  0  0  0  0
 67 71  1  0  0  0  0
 67 79  1  0  0  0  0
 68 82  1  0  0  0  0
 72 73  1  0  0  0  0
M  CHG  2  81   1  82   1
M  ISO  4  32 100  64 101  80 100  89 101
M  END
> <Batch ID>
0119

> <Smiles>
CNC(C)C(=O)NC(C(=O)N1Cc2cc([101O:1][101CH2:1]C3(CC(CN)C4CCC(C(C)C[100NH:0][100C:0](=O)N5CCCC(n6nc(-c7ccc(Oc8ccc(F)cc8F)cc7)c(C(N)=O)c6N)C5)CC4)CCCCC3)ccc2CC1C(=O)NC1CCCc2ccccc21)C(C)(C)C

> <Shape>
0.283

> <Color>
0.075

> <Negative vol penalty>
0.000

$$$$

  -OEChem-04052320203D

 86 95  0     1  0  0  0  0  0999 V2000
  -21.6456  -12.8632   18.8107 C   0  0  0  0  0  0  0  0  0  0  0  0
  -21.6209  -14.1858   19.2414 C   0  0  0  0  0  0  0  0  0  0  0  0
  -19.5737  -20.3334   21.7729 C   0  0  0  0  0  0  0  0  0  0  0  0
  -21.4879  -21.3704   20.7253 C   0  0  0  0  0  0  0  0  0  0  0  0
  -22.6951  -12.0273   19.1899 C   0  0  0  0  0  0  0  0  0  0  0  0
  -22.6453  -14.6730   20.0525 C   0  0  0  0  0  0  0  0  0  0  0  0
  -26.6499  -20.2956   17.9932 C   0  0  0  0  0  0  0  0  0  0  0  0
  -19.6977  -19.2394   20.9166 C   0  0  0  0  0  0  0  0  0  0  0  0
  -21.6120  -20.2763   19.8690 C   0  0  0  0  0  0  0  0  0  0  0  0
  -27.3212  -21.4969   17.7650 C   0  0  0  0  0  0  0  0  0  0  0  0
  -20.1264  -19.1340   17.0550 C   0  0  0  0  0  0  0  0  0  0  0  0
  -20.3471  -19.3917   15.7020 C   0  0  0  0  0  0  0  0  0  0  0  0
  -26.0218  -30.7624   21.4696 C   0  0  0  0  0  0  0  0  0  0  0  0
  -28.6018  -21.1787   19.7915 C   0  0  0  0  0  0  0  0  0  0  0  0
  -24.9166  -28.6303   21.6018 C   0  0  0  0  0  0  0  0  0  0  0  0
  -22.4338  -18.1789   15.8115 C   0  0  0  0  0  0  0  0  0  0  0  0
  -24.7676  -31.3479   21.4053 C   0  0  0  0  0  0  0  0  0  0  0  0
  -20.4687  -21.3990   21.6772 C   0  0  0  0  0  0  0  0  0  0  0  0
  -20.4070  -22.5214   23.9672 C   0  0  0  0  0  0  0  0  0  0  0  0
  -23.7378  -12.5071   19.9980 C   0  0  0  0  0  0  0  0  0  0  0  0
  -26.9632  -19.5226   19.1147 C   0  0  0  0  0  0  0  0  0  0  0  0
  -23.7090  -13.8423   20.4439 C   0  0  0  0  0  0  0  0  0  0  0  0
  -26.0890  -29.3772   21.5696 C   0  0  0  0  0  0  0  0  0  0  0  0
  -27.9414  -19.9682   20.0187 C   0  0  0  0  0  0  0  0  0  0  0  0
  -20.7169  -19.2108   19.9647 C   0  0  0  0  0  0  0  0  0  0  0  0
  -28.2946  -21.9375   18.6621 C   0  0  0  0  0  0  0  0  0  0  0  0
  -21.0594  -18.3988   17.7863 C   0  0  0  0  0  0  0  0  0  0  0  0
  -21.5008  -18.9141   15.0803 C   0  0  0  0  0  0  0  0  0  0  0  0
  -22.2131  -17.9213   17.1645 C   0  0  0  0  0  0  0  0  0  0  0  0
  -20.3408  -22.5297   22.5610 C   0  0  0  0  0  0  0  0  0  0  0  0
  -23.7119  -29.3113   21.5318 C   0  0  0  0  0  0  0  0  0  0  0  0
  -20.2277  -23.8346   24.3272 C   0  0  0  0  0  0  0  0  0  0  0  0
  -20.6124  -21.4245   24.8675 C   0  0  0  0  0  0  0  0  0  0  0  0
  -26.3046  -16.3944   21.0784 C   0  0  0  0  0  0  0  0  0  0  0  0
  -29.3393  -16.8418   21.1066 C   0  0  0  0  0  0  0  0  0  0  0  0
  -32.6469  -17.4593   20.5447 C   0  0  0  0  0  0  0  0  0  0  0  0
  -21.2108  -29.0109   21.5086 C   0  0  0  0  0  0  0  0  0  0  0  0
  -24.8265  -11.5528   20.4209 C   0  0  0  0  0  0  0  0  0  0  0  0
  -26.2223  -18.2523   19.4329 C   0  0  0  0  0  0  0  0  0  0  0  0
  -28.2211  -19.1210   21.2299 C   0  0  0  0  0  0  0  0  0  0  0  0
  -26.0668  -12.2502   20.9737 C   0  0  0  0  0  0  0  0  0  0  0  0
  -18.1148  -27.8688   22.8456 C   0  0  0  0  0  0  0  0  0  0  0  0
  -25.6701  -13.3319   21.9734 C   0  0  0  0  0  0  0  0  0  0  0  0
  -18.3424  -26.3704   23.0580 C   0  0  0  0  0  0  0  0  0  0  0  0
  -28.6788  -29.5686   21.5518 C   0  0  0  0  0  0  0  0  0  0  0  0
  -18.8099  -28.3746   21.5827 C   0  0  0  0  0  0  0  0  0  0  0  0
  -20.4677  -26.5562   21.7031 C   0  0  0  0  0  0  0  0  0  0  0  0
  -29.7884  -28.5631   21.3289 C   0  0  0  0  0  0  0  0  0  0  0  0
  -27.6648  -27.6724   20.5151 C   0  0  0  0  0  0  0  0  0  0  0  0
  -27.4333  -28.6857   21.6430 C   0  0  2  0  0  0  0  0  0  0  0  0
  -24.8147  -14.4145   21.3043 C   0  0  1  0  0  0  0  0  0  0  0  0
  -27.1128  -17.1827   20.0902 C   0  0  1  0  0  0  0  0  0  0  0  0
  -19.8406  -26.0138   22.9979 C   0  0  2  0  0  0  0  0  0  0  0  0
  -34.9343  -16.5785   21.0828 C   0  0  0  0  0  0  0  0  0  0  0  0
  -30.3824  -25.6407   18.0994 C   0  0  0  0  0  0  0  0  0  0  0  0
  -29.1205  -18.0023   23.9189 C   0  0  0  0  0  0  0  0  0  0  0  0
  -31.6203  -17.9642   24.0525 C   0  0  0  0  0  0  0  0  0  0  0  0
  -30.3549  -15.8319   23.7788 C   0  0  0  0  0  0  0  0  0  0  0  0
  -33.2630  -16.9852   17.6891 C   0  0  0  0  0  0  0  0  0  0  0  0
  -29.7185  -26.1903   20.4925 C   0  0  0  0  0  0  0  0  0  0  0  0
  -29.3982  -23.8375   19.5729 C   0  0  0  0  0  0  0  0  0  1  0  0
  -30.5243  -17.4318   21.8285 C   0  0  1  0  0  0  0  0  0  0  0  0
  -33.7787  -16.5532   20.0945 C   0  0  2  0  0  0  0  0  0  0  0  0
  -29.4207  -25.3376   19.2539 C   0  0  2  0  0  0  0  0  0  0  0  0
  -30.3918  -17.3216   23.3737 C   0  0  0  0  0  0  0  0  0  0  0  0
  -23.6068  -30.6555   21.4339 N   0  0  0  0  0  0  0  0  0  0  0  0
  -20.1352  -23.7514   22.0618 N   0  0  0  0  0  0  0  0  0  0  0  0
  -20.0707  -24.5230   23.1603 N   0  0  0  0  0  0  0  0  0  0  0  0
  -28.2632  -17.7002   20.8503 N   0  0  0  0  0  0  0  0  0  0  0  0
  -20.2266  -28.0038   21.5974 N   0  0  0  0  0  0  0  0  0  0  0  0
  -20.1905  -24.4562   25.5250 N   0  0  0  0  0  0  0  0  0  0  0  0
  -21.9254  -21.0951   25.2307 N   0  0  0  0  0  0  0  0  0  0  0  0
  -22.5227  -28.5416   21.5654 N   0  0  0  0  0  0  0  0  0  0  0  0
  -25.6473  -15.3097   20.5298 N   0  0  0  0  0  0  0  0  0  0  0  0
  -31.7052  -16.7725   21.2814 N   0  0  0  0  0  0  0  0  0  0  0  0
  -29.1728  -27.5767   20.3658 N   0  3  2  0  0  0  0  0  0  0  0  0
  -34.2896  -16.9852   18.7629 N   0  3  0  0  0  0  0  0  0  0  0  0
  -19.6608  -20.7460   25.3230 O   0  0  0  0  0  0  0  0  0  0  0  0
  -26.2796  -16.7426   22.2531 O   0  0  0  0  0  0  0  0  0  0  0  0
  -29.3621  -15.6511   20.7826 O   0  0  0  0  0  0  0  0  0  0  0  0
  -32.6045  -18.6572   20.2733 O   0  0  0  0  0  0  0  0  0  0  0  0
  -20.9118  -30.2044   21.4182 O   0  0  0  0  0  0  0  0  0  0  0  0
  -20.8384  -18.1432   19.1292 O   0  0  0  0  0  0  0  0  0  0  0  0
  -28.9493  -23.1091   18.4309 O   0  0  0  0  0  0  0  0  0  1  0  0
  -21.7119  -19.1603   13.7807 F   0  0  0  0  0  0  0  0  0  0  0  0
  -23.1124  -17.2134   17.8616 F   0  0  0  0  0  0  0  0  0  0  0  0
  1  2  1  0  0  0  0
  1  5  2  0  0  0  0
  2  6  2  0  0  0  0
  3  8  2  0  0  0  0
  3 18  1  0  0  0  0
  4  9  1  0  0  0  0
  4 18  2  0  0  0  0
  5 20  1  0  0  0  0
  6 22  1  0  0  0  0
  7 10  2  0  0  0  0
  7 21  1  0  0  0  0
  8 25  1  0  0  0  0
  9 25  2  0  0  0  0
 10 26  1  0  0  0  0
 11 12  2  0  0  0  0
 11 27  1  0  0  0  0
 12 28  1  0  0  0  0
 13 17  2  0  0  0  0
 13 23  1  0  0  0  0
 14 24  1  0  0  0  0
 14 26  2  0  0  0  0
 15 23  2  0  0  0  0
 15 31  1  0  0  0  0
 16 28  2  0  0  0  0
 16 29  1  0  0  0  0
 17 66  1  0  0  0  0
 18 30  1  0  0  0  0
 19 30  1  0  0  0  0
 19 32  2  0  0  0  0
 19 33  1  0  0  0  0
 20 22  2  0  0  0  0
 20 38  1  0  0  0  0
 21 24  2  0  0  0  0
 21 39  1  0  0  0  0
 22 51  1  0  0  0  0
 23 50  1  0  0  0  0
 24 40  1  0  0  0  0
 25 83  1  0  0  0  0
 26 84  1  0  0  0  0
 27 29  2  0  0  0  0
 27 83  1  0  0  0  0
 28 85  1  0  0  0  0
 29 86  1  0  0  0  0
 30 67  2  0  0  0  0
 31 66  2  0  0  0  0
 31 73  1  0  0  0  0
 32 68  1  0  0  0  0
 32 71  1  0  0  0  0
 33 72  1  0  0  0  0
 33 78  2  0  0  0  0
 34 52  1  0  0  0  0
 34 74  1  0  0  0  0
 34 79  2  0  0  0  0
 35 62  1  0  0  0  0
 35 69  1  0  0  0  0
 35 80  2  0  0  0  0
 36 63  1  0  0  0  0
 36 75  1  0  0  0  0
 36 81  2  0  0  0  0
 37 70  1  0  0  0  0
 37 73  1  0  0  0  0
 37 82  2  0  0  0  0
 38 41  1  0  0  0  0
 39 52  1  0  0  0  0
 40 69  1  0  0  0  0
 41 43  1  0  0  0  0
 42 44  1  0  0  0  0
 42 46  1  0  0  0  0
 43 51  1  0  0  0  0
 44 53  1  0  0  0  0
 45 48  1  0  0  0  0
 45 50  1  0  0  0  0
 46 70  1  0  0  0  0
 47 53  1  0  0  0  0
 47 70  1  0  0  0  0
 48 76  1  0  0  0  0
 49 50  1  0  0  0  0
 49 76  1  0  0  0  0
 51 74  1  0  0  0  0
 52 69  1  0  0  0  0
 53 68  1  0  0  0  0
 54 63  1  0  0  0  0
 55 64  1  0  0  0  0
 56 65  1  0  0  0  0
 57 65  1  0  0  0  0
 58 65  1  0  0  0  0
 59 77  1  0  0  0  0
 60 64  1  0  0  0  0
 60 76  1  0  0  0  0
 61 64  1  0  0  0  0
 61 84  1  0  0  0  0
 62 65  1  0  0  0  0
 62 75  1  0  0  0  0
 63 77  1  0  0  0  0
 67 68  1  0  0  0  0
M  CHG  2  76   1  77   1
M  ISO  4  37 100  61 101  73 100  84 101
M  END
> <Batch ID>
0119

> <Smiles>
CNC(C)C(=O)NC(C(=O)N1Cc2cc([101O:1][101CH2:1]C(C)CN3CCC(c4ccnc([100NH:0][100C:0](=O)N5CCCC(n6nc(-c7ccc(Oc8ccc(F)cc8F)cc7)c(C(N)=O)c6N)C5)c4)C3)ccc2CC1C(=O)NC1CCCc2ccccc21)C(C)(C)C

> <Shape>
0.229

> <Color>
0.074

> <Negative vol penalty>
0.000

$$$$

  -OEChem-04052320203D

 94103  0     1  0  0  0  0  0999 V2000
  -18.9343  -26.2218   23.1743 C   0  0  0  0  0  0  0  0  0  0  0  0
  -20.2149  -26.5514   23.6066 C   0  0  0  0  0  0  0  0  0  0  0  0
  -24.4924  -13.7431   21.0494 C   0  0  0  0  0  0  0  0  0  0  0  0
  -26.6894  -13.2804   20.1572 C   0  0  0  0  0  0  0  0  0  0  0  0
  -18.6589  -26.1438   21.8098 C   0  0  0  0  0  0  0  0  0  0  0  0
  -21.2212  -26.8021   22.6744 C   0  0  0  0  0  0  0  0  0  0  0  0
  -29.6991  -25.1129   22.8931 C   0  0  0  0  0  0  0  0  0  0  0  0
  -23.9587  -30.9038   23.8265 C   0  0  0  0  0  0  0  0  0  0  0  0
  -30.0954  -24.3466   21.7971 C   0  0  0  0  0  0  0  0  0  0  0  0
  -24.0620  -12.4796   20.6448 C   0  0  0  0  0  0  0  0  0  0  0  0
  -26.2590  -12.0169   19.7525 C   0  0  0  0  0  0  0  0  0  0  0  0
  -24.9251  -30.7654   24.8218 C   0  0  0  0  0  0  0  0  0  0  0  0
  -22.4863   -9.2384   20.1685 C   0  0  0  0  0  0  0  0  0  0  0  0
  -21.7344   -8.4889   21.0732 C   0  0  0  0  0  0  0  0  0  0  0  0
  -26.6306  -30.5577   23.1284 C   0  0  0  0  0  0  0  0  0  0  0  0
  -30.5091  -22.4687   23.2599 C   0  0  0  0  0  0  0  0  0  0  0  0
  -23.5711   -8.5400   22.6420 C   0  0  0  0  0  0  0  0  0  0  0  0
  -25.8062  -14.1436   20.8056 C   0  0  0  0  0  0  0  0  0  0  0  0
  -26.8269  -15.7955   22.4599 C   0  0  0  0  0  0  0  0  0  0  0  0
  -19.6599  -26.4031   20.8604 C   0  0  0  0  0  0  0  0  0  0  0  0
  -24.3201  -30.8592   22.4723 C   0  0  0  0  0  0  0  0  0  0  0  0
  -20.9592  -26.7262   21.2959 C   0  0  0  0  0  0  0  0  0  0  0  0
  -29.7078  -24.5572   24.1725 C   0  0  0  0  0  0  0  0  0  0  0  0
  -25.6671  -30.6984   22.1179 C   0  0  0  0  0  0  0  0  0  0  0  0
  -30.5004  -23.0244   21.9805 C   0  0  0  0  0  0  0  0  0  0  0  0
  -30.1128  -23.2351   24.3559 C   0  0  0  0  0  0  0  0  0  0  0  0
  -24.9452  -11.6165   19.9963 C   0  0  0  0  0  0  0  0  0  0  0  0
  -26.2609  -30.5893   24.4728 C   0  0  0  0  0  0  0  0  0  0  0  0
  -23.7807   -9.6386   20.5005 C   0  0  0  0  0  0  0  0  0  0  0  0
  -22.2767   -8.1397   22.3099 C   0  0  0  0  0  0  0  0  0  0  0  0
  -24.3230   -9.2894   21.7372 C   0  0  0  0  0  0  0  0  0  0  0  0
  -26.2513  -15.4489   21.2229 C   0  0  0  0  0  0  0  0  0  0  0  0
  -27.0708  -17.1435   22.3594 C   0  0  0  0  0  0  0  0  0  0  0  0
  -27.1153  -14.9727   23.5981 C   0  0  0  0  0  0  0  0  0  0  0  0
  -26.8731  -24.7153   25.2186 C   0  0  0  0  0  0  0  0  0  0  0  0
  -23.6129  -28.9604   20.0233 C   0  0  0  0  0  0  0  0  0  0  0  0
  -25.3071  -31.1535   18.3375 C   0  0  0  0  0  0  0  0  0  0  0  0
  -27.6957  -33.5910   18.3344 C   0  0  0  0  0  0  0  0  0  0  0  0
  -28.9288  -21.5520   19.4858 C   0  0  0  0  0  0  0  0  0  0  0  0
  -19.3264  -26.2601   19.3965 C   0  0  0  0  0  0  0  0  0  0  0  0
  -23.2692  -31.0369   21.4110 C   0  0  0  0  0  0  0  0  0  0  0  0
  -26.1098  -30.6639   20.6787 C   0  0  0  0  0  0  0  0  0  0  0  0
  -20.3543  -26.9071   18.4717 C   0  0  0  0  0  0  0  0  0  0  0  0
  -25.5761  -20.5103   18.8929 C   0  0  0  0  0  0  0  0  0  0  0  0
  -21.7691  -26.5281   18.8978 C   0  0  0  0  0  0  0  0  0  0  0  0
  -25.5025  -19.1274   19.5426 C   0  0  0  0  0  0  0  0  0  0  0  0
  -30.2332  -26.5991   25.4646 C   0  0  0  0  0  0  0  0  0  0  0  0
  -26.9368  -20.7580   18.2455 C   0  0  0  0  0  0  0  0  0  0  0  0
  -28.0200  -19.1687   19.7866 C   0  0  0  0  0  0  0  0  0  0  0  0
  -29.7960  -27.5558   26.5642 C   0  0  0  0  0  0  0  0  0  0  0  0
  -27.4134  -26.8602   26.2561 C   0  0  0  0  0  0  0  0  0  0  0  0
  -29.2777  -25.3996   25.3344 C   0  0  1  0  0  0  0  0  0  0  0  0
  -22.0712  -27.0293   20.3152 C   0  0  1  0  0  0  0  0  0  0  0  0
  -27.8208  -25.8784   25.1585 C   0  0  1  0  0  0  0  0  0  0  0  0
  -23.6812  -30.4609   20.0598 C   0  0  1  0  0  0  0  0  0  0  0  0
  -26.6857  -18.8945   20.5013 C   0  0  2  0  0  0  0  0  0  0  0  0
  -30.1308  -22.6188   25.7163 C   0  0  0  0  0  0  0  0  0  0  0  0
  -23.6857  -23.9584   25.5459 C   0  0  0  0  0  0  0  0  0  0  0  0
  -25.8910  -25.8863   22.2993 C   0  0  0  0  0  0  0  0  0  0  0  0
  -28.8907  -35.1761   16.7991 C   0  0  0  0  0  0  0  0  0  0  0  0
  -26.9987  -28.8465   17.2761 C   0  0  0  0  0  0  0  0  0  0  0  0
  -28.7057  -30.5260   16.5456 C   0  0  0  0  0  0  0  0  0  0  0  0
  -26.4099  -30.5790   15.5713 C   0  0  0  0  0  0  0  0  0  0  0  0
  -26.6866  -35.9552   19.8010 C   0  0  0  0  0  0  0  0  0  0  0  0
  -30.9243  -22.2052   20.8087 C   0  0  0  0  0  0  0  0  0  0  0  0
  -24.6857  -23.7782   24.4549 C   0  0  0  0  0  0  0  0  0  0  0  0
  -25.3781  -26.0184   23.6928 C   0  0  0  0  0  0  0  0  0  0  0  0
  -27.9491  -29.0740   27.2666 C   0  0  0  0  0  0  0  0  0  0  0  0
  -26.7948  -29.8558   26.6712 C   0  0  0  0  0  0  0  0  0  1  0  0
  -26.7593  -31.3242   17.9618 C   0  0  1  0  0  0  0  0  0  0  0  0
  -27.7095  -34.9870   17.7382 C   0  0  2  0  0  0  0  0  0  0  0  0
  -27.2101  -30.3176   16.8659 C   0  0  0  0  0  0  0  0  0  0  0  0
  -26.1363  -16.4925   20.3972 N   0  0  0  0  0  0  0  0  0  0  0  0
  -26.6429  -17.5081   21.1168 N   0  0  0  0  0  0  0  0  0  0  0  0
  -25.0442  -30.8357   19.6775 N   0  0  0  0  0  0  0  0  0  0  0  0
  -28.0156  -20.5215   19.2080 N   0  0  0  0  0  0  0  0  0  0  0  0
  -27.6075  -18.0405   23.2137 N   0  0  0  0  0  0  0  0  0  0  0  0
  -26.8008  -13.6084   23.5331 N   0  0  0  0  0  0  0  0  0  0  0  0
  -22.3597  -28.4474   20.2990 N   0  0  0  0  0  0  0  0  0  0  0  0
  -26.9227  -32.7253   17.5898 N   0  0  0  0  0  0  0  0  0  0  0  0
  -29.9163  -21.2466   20.4144 N   0  0  0  0  0  0  0  0  0  0  0  0
  -25.6920  -24.8319   24.4847 N   0  0  0  0  0  0  0  0  0  0  0  0
  -28.3790  -28.0269   26.3059 N   0  3  1  0  0  0  0  0  0  0  0  0
  -27.7990  -36.0104   18.8179 N   0  3  0  0  0  0  0  0  0  0  0  0
  -27.6214  -15.4367   24.6479 O   0  0  0  0  0  0  0  0  0  0  0  0
  -27.1721  -23.7298   25.8981 O   0  0  0  0  0  0  0  0  0  0  0  0
  -24.6219  -28.3158   19.7627 O   0  0  0  0  0  0  0  0  0  0  0  0
  -24.4377  -31.3040   17.4754 O   0  0  0  0  0  0  0  0  0  0  0  0
  -28.3123  -33.2969   19.3561 O   0  0  0  0  0  0  0  0  0  0  0  0
  -28.8653  -22.6638   18.9502 O   0  0  0  0  0  0  0  0  0  0  0  0
  -24.5256  -10.3833   19.6015 O   0  0  0  0  0  0  0  0  0  0  0  0
  -27.2061  -30.4533   25.4423 O   0  0  0  0  0  0  0  0  0  1  0  0
  -21.5540   -7.4213   23.1792 F   0  0  0  0  0  0  0  0  0  0  0  0
  -25.5655   -9.6721   22.0623 F   0  0  0  0  0  0  0  0  0  0  0  0
  1  2  1  0  0  0  0
  1  5  2  0  0  0  0
  2  6  2  0  0  0  0
  3 10  2  0  0  0  0
  3 18  1  0  0  0  0
  4 11  1  0  0  0  0
  4 18  2  0  0  0  0
  5 20  1  0  0  0  0
  6 22  1  0  0  0  0
  7  9  2  0  0  0  0
  7 23  1  0  0  0  0
  8 12  2  0  0  0  0
  8 21  1  0  0  0  0
  9 25  1  0  0  0  0
 10 27  1  0  0  0  0
 11 27  2  0  0  0  0
 12 28  1  0  0  0  0
 13 14  2  0  0  0  0
 13 29  1  0  0  0  0
 14 30  1  0  0  0  0
 15 24  1  0  0  0  0
 15 28  2  0  0  0  0
 16 25  2  0  0  0  0
 16 26  1  0  0  0  0
 17 30  2  0  0  0  0
 17 31  1  0  0  0  0
 18 32  1  0  0  0  0
 19 32  1  0  0  0  0
 19 33  2  0  0  0  0
 19 34  1  0  0  0  0
 20 22  2  0  0  0  0
 20 40  1  0  0  0  0
 21 24  2  0  0  0  0
 21 41  1  0  0  0  0
 22 53  1  0  0  0  0
 23 26  2  0  0  0  0
 23 52  1  0  0  0  0
 24 42  1  0  0  0  0
 25 65  1  0  0  0  0
 26 57  1  0  0  0  0
 27 91  1  0  0  0  0
 28 92  1  0  0  0  0
 29 31  2  0  0  0  0
 29 91  1  0  0  0  0
 30 93  1  0  0  0  0
 31 94  1  0  0  0  0
 32 73  2  0  0  0  0
 33 74  1  0  0  0  0
 33 77  1  0  0  0  0
 34 78  1  0  0  0  0
 34 85  2  0  0  0  0
 35 54  1  0  0  0  0
 35 82  1  0  0  0  0
 35 86  2  0  0  0  0
 36 55  1  0  0  0  0
 36 79  1  0  0  0  0
 36 87  2  0  0  0  0
 37 70  1  0  0  0  0
 37 75  1  0  0  0  0
 37 88  2  0  0  0  0
 38 71  1  0  0  0  0
 38 80  1  0  0  0  0
 38 89  2  0  0  0  0
 39 76  1  0  0  0  0
 39 81  1  0  0  0  0
 39 90  2  0  0  0  0
 40 43  1  0  0  0  0
 41 55  1  0  0  0  0
 42 75  1  0  0  0  0
 43 45  1  0  0  0  0
 44 46  1  0  0  0  0
 44 48  1  0  0  0  0
 45 53  1  0  0  0  0
 46 56  1  0  0  0  0
 47 50  1  0  0  0  0
 47 52  1  0  0  0  0
 48 76  1  0  0  0  0
 49 56  1  0  0  0  0
 49 76  1  0  0  0  0
 50 83  1  0  0  0  0
 51 54  1  0  0  0  0
 51 83  1  0  0  0  0
 52 54  1  0  0  0  0
 53 79  1  0  0  0  0
 55 75  1  0  0  0  0
 56 74  1  0  0  0  0
 58 66  1  0  0  0  0
 59 67  1  0  0  0  0
 60 71  1  0  0  0  0
 61 72  1  0  0  0  0
 62 72  1  0  0  0  0
 63 72  1  0  0  0  0
 64 84  1  0  0  0  0
 65 81  1  0  0  0  0
 66 82  1  0  0  0  0
 67 82  1  0  0  0  0
 68 69  1  0  0  0  0
 68 83  1  0  0  0  0
 69 92  1  0  0  0  0
 70 72  1  0  0  0  0
 70 80  1  0  0  0  0
 71 84  1  0  0  0  0
 73 74  1  0  0  0  0
M  CHG  2  83   1  84   1
M  ISO  4  39 100  69 101  81 100  92 101
M  END
> <Batch ID>
0119

> <Smiles>
CCN(CC)C(=O)C1CN(C[101CH2:1][101O:1]c2ccc3c(c2)CN(C(=O)C(NC(=O)C(C)NC)C(C)(C)C)C(C(=O)NC2CCCc4ccccc42)C3)CCC1c1ccc(C[100NH:0][100C:0](=O)N2CCCC(n3nc(-c4ccc(Oc5ccc(F)cc5F)cc4)c(C(N)=O)c3N)C2)cc1C

> <Shape>
0.231

> <Color>
0.065

> <Negative vol penalty>
0.000

$$$$

  -OEChem-04052320203D

 88 96  0     1  0  0  0  0  0999 V2000
  -18.7241  -31.1844   23.8096 C   0  0  0  0  0  0  0  0  0  0  0  0
  -20.0937  -31.0399   23.6130 C   0  0  0  0  0  0  0  0  0  0  0  0
  -25.8413  -13.9838   21.5944 C   0  0  0  0  0  0  0  0  0  0  0  0
  -25.1831  -14.8913   19.4542 C   0  0  0  0  0  0  0  0  0  0  0  0
  -17.8749  -30.0951   23.6193 C   0  0  0  0  0  0  0  0  0  0  0  0
  -20.6151  -29.8055   23.2271 C   0  0  0  0  0  0  0  0  0  0  0  0
  -25.3971  -28.8226   19.5296 C   0  0  0  0  0  0  0  0  0  0  0  0
  -24.7682  -13.0941   21.5472 C   0  0  0  0  0  0  0  0  0  0  0  0
  -24.1099  -14.0015   19.4070 C   0  0  0  0  0  0  0  0  0  0  0  0
  -26.7365  -28.5322   19.7854 C   0  0  0  0  0  0  0  0  0  0  0  0
  -24.0251  -10.1659   20.0283 C   0  0  0  0  0  0  0  0  0  0  0  0
  -24.2694   -8.8368   20.3738 C   0  0  0  0  0  0  0  0  0  0  0  0
  -26.2730  -26.1808   19.5110 C   0  0  0  0  0  0  0  0  0  0  0  0
  -22.6579   -9.0065   22.1659 C   0  0  0  0  0  0  0  0  0  0  0  0
  -26.0488  -14.8825   20.5479 C   0  0  0  0  0  0  0  0  0  0  0  0
  -28.4593  -15.5907   20.1058 C   0  0  0  0  0  0  0  0  0  0  0  0
  -18.3850  -28.8492   23.2215 C   0  0  0  0  0  0  0  0  0  0  0  0
  -24.4819  -27.7917   19.2728 C   0  0  0  0  0  0  0  0  0  0  0  0
  -19.7721  -28.6981   23.0326 C   0  0  0  0  0  0  0  0  0  0  0  0
  -24.9231  -26.4609   19.2497 C   0  0  0  0  0  0  0  0  0  0  0  0
  -23.9025  -13.1029   20.4535 C   0  0  0  0  0  0  0  0  0  0  0  0
  -27.1741  -27.2110   19.7790 C   0  0  0  0  0  0  0  0  0  0  0  0
  -23.0973  -10.9154   20.7517 C   0  0  0  0  0  0  0  0  0  0  0  0
  -23.5858   -8.2571   21.4425 C   0  0  0  0  0  0  0  0  0  0  0  0
  -22.4137  -10.3356   21.8204 C   0  0  0  0  0  0  0  0  0  0  0  0
  -27.1568  -15.8023   20.5963 C   0  0  0  0  0  0  0  0  0  0  0  0
  -29.1278  -16.7556   20.3932 C   0  0  0  0  0  0  0  0  0  0  0  0
  -29.0151  -14.4438   19.4490 C   0  0  0  0  0  0  0  0  0  0  0  0
  -21.8457  -26.7269   20.6943 C   0  0  0  0  0  0  0  0  0  0  0  0
  -21.6746  -24.8168   18.0781 C   0  0  0  0  0  0  0  0  0  0  0  0
  -23.3018  -23.2771   15.5036 C   0  0  0  0  0  0  0  0  0  0  0  0
  -29.3699  -22.2226   20.4036 C   0  0  0  0  0  0  0  0  0  0  0  0
  -17.4333  -27.6886   23.0741 C   0  0  0  0  0  0  0  0  0  0  0  0
  -23.0459  -28.1234   18.9723 C   0  0  0  0  0  0  0  0  0  0  0  0
  -23.9846  -25.3192   18.9595 C   0  0  0  0  0  0  0  0  0  0  0  0
  -18.0230  -26.5116   22.3014 C   0  0  0  0  0  0  0  0  0  0  0  0
  -27.7987  -20.6905   23.2813 C   0  0  0  0  0  0  0  0  0  0  0  0
  -19.4277  -26.1932   22.8039 C   0  0  0  0  0  0  0  0  0  0  0  0
  -27.5998  -19.2552   22.7911 C   0  0  0  0  0  0  0  0  0  0  0  0
  -27.5692  -21.6957   22.1565 C   0  0  0  0  0  0  0  0  0  0  0  0
  -34.1133  -24.1300   20.5685 C   0  0  0  0  0  0  0  0  0  0  0  0
  -28.2098  -20.0331   20.4538 C   0  0  0  0  0  0  0  0  0  0  0  0
  -33.1542  -23.0489   21.0479 C   0  0  0  0  0  0  0  0  0  0  0  0
  -20.3728  -27.3816   22.5898 C   0  0  1  0  0  0  0  0  0  0  0  0
  -22.0965  -26.9575   19.2309 C   0  0  1  0  0  0  0  0  0  0  0  0
  -28.4497  -18.9679   21.5391 C   0  0  2  0  0  0  0  0  0  0  0  0
  -32.4891  -25.9003   21.0713 C   0  0  1  0  0  0  0  0  0  0  0  0
  -31.4596  -24.8516   21.5485 C   0  0  1  0  0  0  0  0  0  0  0  0
  -36.1185  -26.6301   17.7167 C   0  0  0  0  0  0  0  0  0  0  0  0
  -22.9015  -21.7515   13.5518 C   0  0  0  0  0  0  0  0  0  0  0  0
  -33.0328  -28.1714   24.1758 C   0  0  0  0  0  0  0  0  0  0  0  0
  -33.5479  -27.5110   19.0272 C   0  0  0  0  0  0  0  0  0  0  0  0
  -21.4663  -22.4408   19.9811 C   0  0  0  0  0  0  0  0  0  0  0  0
  -22.0238  -20.9397   18.0565 C   0  0  0  0  0  0  0  0  0  0  0  0
  -19.9494  -22.3238   17.9962 C   0  0  0  0  0  0  0  0  0  0  0  0
  -24.2304  -25.3166   13.5705 C   0  0  0  0  0  0  0  0  0  0  0  0
  -33.1962  -26.5559   22.2711 C   0  0  0  0  0  0  0  0  0  0  0  0
  -30.4435  -24.4585   20.4771 C   0  0  0  0  0  0  0  0  0  0  0  0
  -35.1038  -25.6636   18.3141 C   0  0  0  0  0  0  0  0  0  0  0  0
  -30.2788  -27.0376   21.6158 C   0  0  0  0  0  0  0  0  0  0  0  0
  -31.0672  -27.9351   22.5722 C   0  0  0  0  0  0  0  0  0  0  0  0
  -29.1872  -27.8155   20.8917 C   0  0  0  0  0  0  0  0  0  1  0  0
  -22.1973  -23.4470   17.7185 C   0  0  1  0  0  0  0  0  0  0  0  0
  -22.9902  -23.1956   14.0201 C   0  0  2  0  0  0  0  0  0  0  0  0
  -32.2340  -27.2160   23.2813 C   0  0  2  0  0  0  0  0  0  0  0  0
  -34.3189  -26.2759   19.4813 C   0  0  2  0  0  0  0  0  0  0  0  0
  -21.4267  -22.3090   18.4455 C   0  0  0  0  0  0  0  0  0  0  0  0
  -27.0049  -17.0068   21.1533 N   0  0  0  0  0  0  0  0  0  0  0  0
  -28.2206  -17.5625   21.0145 N   0  0  0  0  0  0  0  0  0  0  0  0
  -22.5890  -25.6942   18.6779 N   0  0  0  0  0  0  0  0  0  0  0  0
  -28.4214  -21.3768   21.0023 N   0  0  0  0  0  0  0  0  0  0  0  0
  -33.3967  -25.3082   20.0681 N   0  0  1  0  0  0  0  0  0  0  0  0
  -30.3974  -17.1581   20.1726 N   0  0  0  0  0  0  0  0  0  0  0  0
  -28.1893  -13.3323   19.2326 N   0  0  0  0  0  0  0  0  0  0  0  0
  -20.7877  -27.4543   21.2052 N   0  0  0  0  0  0  0  0  0  0  0  0
  -22.1539  -23.3628   16.2627 N   0  0  0  0  0  0  0  0  0  0  0  0
  -29.5042  -23.4803   20.9789 N   0  0  0  0  0  0  0  0  0  0  0  0
  -32.1858  -23.6255   22.0260 N   0  3  0  0  0  0  0  0  0  0  0  0
  -24.0510  -23.8818   13.2296 N   0  3  0  0  0  0  0  0  0  0  0  0
  -30.2133  -14.3996   19.0802 O   0  0  0  0  0  0  0  0  0  0  0  0
  -22.5583  -25.9458   21.3138 O   0  0  0  0  0  0  0  0  0  0  0  0
  -20.5001  -25.1004   17.8294 O   0  0  0  0  0  0  0  0  0  0  0  0
  -24.4487  -23.2621   15.9452 O   0  0  0  0  0  0  0  0  0  0  0  0
  -30.0511  -21.8804   19.4310 O   0  0  0  0  0  0  0  0  0  0  0  0
  -22.8553  -12.2346   20.4070 O   0  0  0  0  0  0  0  0  0  0  0  0
  -28.4808  -26.9248   20.0291 O   0  0  0  0  0  0  0  0  0  1  0  0
  -23.8193   -6.9802   21.7732 F   0  0  0  0  0  0  0  0  0  0  0  0
  -21.5203  -11.0503   22.5183 F   0  0  0  0  0  0  0  0  0  0  0  0
  1  2  1  0  0  0  0
  1  5  2  0  0  0  0
  2  6  2  0  0  0  0
  3  8  2  0  0  0  0
  3 15  1  0  0  0  0
  4  9  1  0  0  0  0
  4 15  2  0  0  0  0
  5 17  1  0  0  0  0
  6 19  1  0  0  0  0
  7 10  2  0  0  0  0
  7 18  1  0  0  0  0
  8 21  1  0  0  0  0
  9 21  2  0  0  0  0
 10 22  1  0  0  0  0
 11 12  2  0  0  0  0
 11 23  1  0  0  0  0
 12 24  1  0  0  0  0
 13 20  1  0  0  0  0
 13 22  2  0  0  0  0
 14 24  2  0  0  0  0
 14 25  1  0  0  0  0
 15 26  1  0  0  0  0
 16 26  1  0  0  0  0
 16 27  2  0  0  0  0
 16 28  1  0  0  0  0
 17 19  2  0  0  0  0
 17 33  1  0  0  0  0
 18 20  2  0  0  0  0
 18 34  1  0  0  0  0
 19 44  1  0  0  0  0
 20 35  1  0  0  0  0
 21 85  1  0  0  0  0
 22 86  1  0  0  0  0
 23 25  2  0  0  0  0
 23 85  1  0  0  0  0
 24 87  1  0  0  0  0
 25 88  1  0  0  0  0
 26 68  2  0  0  0  0
 27 69  1  0  0  0  0
 27 73  1  0  0  0  0
 28 74  1  0  0  0  0
 28 80  2  0  0  0  0
 29 45  1  0  0  0  0
 29 75  1  0  0  0  0
 29 81  2  0  0  0  0
 30 63  1  0  0  0  0
 30 70  1  0  0  0  0
 30 82  2  0  0  0  0
 31 64  1  0  0  0  0
 31 76  1  0  0  0  0
 31 83  2  0  0  0  0
 32 71  1  0  0  0  0
 32 77  1  0  0  0  0
 32 84  2  0  0  0  0
 33 36  1  0  0  0  0
 34 45  1  0  0  0  0
 35 70  1  0  0  0  0
 36 38  1  0  0  0  0
 37 39  1  0  0  0  0
 37 40  1  0  0  0  0
 38 44  1  0  0  0  0
 39 46  1  0  0  0  0
 40 71  1  0  0  0  0
 41 43  1  0  0  0  0
 41 72  1  0  0  0  0
 42 46  1  0  0  0  0
 42 71  1  0  0  0  0
 43 78  1  0  0  0  0
 44 75  1  0  0  0  0
 45 70  1  0  0  0  0
 46 69  1  0  0  0  0
 47 48  1  0  0  0  0
 47 57  1  0  0  0  0
 47 72  1  0  0  0  0
 48 58  1  0  0  0  0
 48 78  1  0  0  0  0
 49 59  1  0  0  0  0
 50 64  1  0  0  0  0
 51 65  1  0  0  0  0
 52 66  1  0  0  0  0
 53 67  1  0  0  0  0
 54 67  1  0  0  0  0
 55 67  1  0  0  0  0
 56 79  1  0  0  0  0
 57 65  1  0  0  0  0
 58 77  1  0  0  0  0
 59 66  1  0  0  0  0
 60 61  1  0  0  0  0
 60 62  1  0  0  0  0
 61 65  1  0  0  0  0
 62 86  1  0  0  0  0
 63 67  1  0  0  0  0
 63 76  1  0  0  0  0
 64 79  1  0  0  0  0
 66 72  1  0  0  0  0
 68 69  1  0  0  0  0
M  CHG  2  78   1  79   1
M  ISO  4  32 100  62 101  77 100  86 101
M  END
> <Batch ID>
0119

> <Smiles>
CCC(C)N1CCNC(C[100NH:0][100C:0](=O)N2CCCC(n3nc(-c4ccc(Oc5ccc(F)cc5F)cc4)c(C(N)=O)c3N)C2)C1CC(C)CC[101CH2:1][101O:1]c1ccc2c(c1)CN(C(=O)C(NC(=O)C(C)NC)C(C)(C)C)C(C(=O)NC1CCCc3ccccc31)C2

> <Shape>
0.253

> <Color>
0.073

> <Negative vol penalty>
0.000

$$$$

  -OEChem-04052320203D

 91101  0     1  0  0  0  0  0999 V2000
  -17.0117  -13.7074   22.3892 C   0  0  0  0  0  0  0  0  0  0  0  0
  -17.9304  -14.7399   22.5482 C   0  0  0  0  0  0  0  0  0  0  0  0
  -23.6934  -29.6949   22.9315 C   0  0  0  0  0  0  0  0  0  0  0  0
  -23.4971  -31.0164   20.9185 C   0  0  0  0  0  0  0  0  0  0  0  0
  -17.4272  -12.3818   22.5076 C   0  0  0  0  0  0  0  0  0  0  0  0
  -19.2650  -14.4474   22.8268 C   0  0  0  0  0  0  0  0  0  0  0  0
  -22.4789  -17.2027   20.0476 C   0  0  0  0  0  0  0  0  0  0  0  0
  -22.3074  -29.5422   22.9664 C   0  0  0  0  0  0  0  0  0  0  0  0
  -22.1110  -30.8637   20.9534 C   0  0  0  0  0  0  0  0  0  0  0  0
  -22.6930  -18.5223   20.4433 C   0  0  0  0  0  0  0  0  0  0  0  0
  -19.9695  -27.6538   21.4169 C   0  0  0  0  0  0  0  0  0  0  0  0
  -19.4640  -26.3799   21.6763 C   0  0  0  0  0  0  0  0  0  0  0  0
  -24.7566  -17.8629   21.5046 C   0  0  0  0  0  0  0  0  0  0  0  0
  -24.9814  -22.2783   21.0717 C   0  0  0  0  0  0  0  0  0  0  0  0
  -18.3427  -27.2251   23.6424 C   0  0  0  0  0  0  0  0  0  0  0  0
  -25.8660  -21.2301   18.7128 C   0  0  0  0  0  0  0  0  0  0  0  0
  -24.2883  -30.4320   21.9075 C   0  0  0  0  0  0  0  0  0  0  0  0
  -26.1502  -22.5580   18.9882 C   0  0  0  0  0  0  0  0  0  0  0  0
  -26.5347  -31.1839   22.8539 C   0  0  0  0  0  0  0  0  0  0  0  0
  -18.7695  -12.0726   22.7783 C   0  0  0  0  0  0  0  0  0  0  0  0
  -23.3981  -16.1997   20.3874 C   0  0  0  0  0  0  0  0  0  0  0  0
  -19.6986  -13.1164   22.9503 C   0  0  0  0  0  0  0  0  0  0  0  0
  -24.5531  -16.5318   21.1098 C   0  0  0  0  0  0  0  0  0  0  0  0
  -25.6958  -23.0844   20.1924 C   0  0  0  0  0  0  0  0  0  0  0  0
  -21.5162  -30.1266   21.9774 C   0  0  0  0  0  0  0  0  0  0  0  0
  -23.8305  -18.8521   21.1744 C   0  0  0  0  0  0  0  0  0  0  0  0
  -19.6617  -28.7134   22.2704 C   0  0  0  0  0  0  0  0  0  0  0  0
  -18.6506  -26.1656   22.7890 C   0  0  0  0  0  0  0  0  0  0  0  0
  -18.8483  -28.4990   23.3831 C   0  0  0  0  0  0  0  0  0  0  0  0
  -25.7199  -30.5906   21.8711 C   0  0  0  0  0  0  0  0  0  0  0  0
  -24.7495  -20.9630   20.7032 C   0  0  0  0  0  0  0  0  0  1  0  0
  -27.8081  -31.0874   22.3482 C   0  0  0  0  0  0  0  0  0  0  0  0
  -26.9012  -23.3540   18.0300 C   0  0  0  0  0  0  0  0  0  0  0  0
  -26.1729  -31.7698   24.1115 C   0  0  0  0  0  0  0  0  0  0  0  0
  -23.2738  -13.5355   22.1167 C   0  0  0  0  0  0  0  0  0  0  0  0
  -26.2866  -13.1247   20.9867 C   0  0  0  0  0  0  0  0  0  0  0  0
  -29.1922  -15.1883   20.4241 C   0  0  0  0  0  0  0  0  0  0  0  0
  -30.3656  -27.3563   18.4253 C   0  0  0  0  0  0  0  0  0  0  0  0
  -19.1620  -10.6259   22.9442 C   0  0  0  0  0  0  0  0  0  0  0  0
  -23.1660  -14.7857   19.9300 C   0  0  0  0  0  0  0  0  0  0  0  0
  -25.5807  -15.4957   21.4824 C   0  0  0  0  0  0  0  0  0  0  0  0
  -20.6686  -10.3911   22.8698 C   0  0  0  0  0  0  0  0  0  0  0  0
  -30.1860  -30.9051   18.2006 C   0  0  0  0  0  0  0  0  0  0  0  0
  -21.4107  -11.4107   23.7279 C   0  0  0  0  0  0  0  0  0  0  0  0
  -29.0946  -31.2805   19.2045 C   0  0  0  0  0  0  0  0  0  0  0  0
  -30.5517  -22.6188   19.4490 C   0  0  0  0  0  0  0  0  0  0  0  0
  -29.8683  -29.5937   17.4855 C   0  0  0  0  0  0  0  0  0  0  0  0
  -30.1948  -23.8925   16.8636 C   0  0  0  0  0  0  0  0  0  0  0  0
  -28.4923  -28.8301   19.3821 C   0  0  0  0  0  0  0  0  0  0  0  0
  -31.2556  -22.5539   20.7959 C   0  0  0  0  0  0  0  0  0  0  0  0
  -29.3659  -23.4989   15.6534 C   0  0  0  0  0  0  0  0  0  0  0  0
  -31.4560  -25.0510   20.8353 C   0  0  0  0  0  0  0  0  0  0  0  0
  -21.1599  -12.8388   23.2288 C   0  0  1  0  0  0  0  0  0  0  0  0
  -28.2738  -22.8942   17.6797 C   0  0  2  0  0  0  0  0  0  0  0  0
  -23.9103  -13.7551   20.7734 C   0  0  1  0  0  0  0  0  0  0  0  0
  -28.7954  -30.1168   20.1687 C   0  0  2  0  0  0  0  0  0  0  0  0
  -29.8052  -23.9485   19.2654 C   0  0  1  0  0  0  0  0  0  0  0  0
  -30.7530  -25.1446   19.4831 C   0  0  1  0  0  0  0  0  0  0  0  0
  -25.9629  -24.5058   20.5640 C   0  0  0  0  0  0  0  0  0  0  0  0
  -31.0807  -14.9365   18.7908 C   0  0  0  0  0  0  0  0  0  0  0  0
  -27.7047  -11.7095   23.2881 C   0  0  0  0  0  0  0  0  0  0  0  0
  -29.8316  -12.8149   22.5653 C   0  0  0  0  0  0  0  0  0  0  0  0
  -28.6615  -11.2389   21.0259 C   0  0  0  0  0  0  0  0  0  0  0  0
  -28.7424  -17.8928   19.3094 C   0  0  0  0  0  0  0  0  0  0  0  0
  -27.6664  -13.5237   21.4515 C   0  0  1  0  0  0  0  0  0  0  0  0
  -29.7538  -15.6204   19.0816 C   0  0  2  0  0  0  0  0  0  0  0  0
  -28.4431  -12.3373   22.0891 C   0  0  0  0  0  0  0  0  0  0  0  0
  -25.1749  -20.4161   19.5423 N   0  0  0  0  0  0  0  0  0  0  0  0
  -26.4171  -30.1499   20.8205 N   0  0  0  0  0  0  0  0  0  0  0  0
  -27.6834  -30.4667   21.1402 N   0  0  0  0  0  0  0  0  0  0  0  0
  -25.3057  -14.1261   21.0177 N   0  0  0  0  0  0  0  0  0  0  0  0
  -29.5959  -28.5310   18.4562 N   0  0  0  0  0  0  0  0  0  0  0  0
  -29.1971  -23.9994   17.9342 N   0  0  1  0  0  0  0  0  0  0  0  0
  -29.0111  -31.4740   22.8235 N   0  0  0  0  0  0  0  0  0  0  0  0
  -25.8692  -33.1376   24.1486 N   0  0  0  0  0  0  0  0  0  0  0  0
  -21.9601  -13.1115   22.0542 N   0  0  0  0  0  0  0  0  0  0  0  0
  -28.3293  -14.1203   20.2969 N   0  0  0  0  0  0  0  0  0  0  0  0
  -30.0462  -26.4025   19.3839 N   0  0  0  0  0  0  0  0  0  0  0  0
  -32.1564  -23.7350   20.9363 N   0  3  0  0  0  0  0  0  0  0  0  0
  -28.3563  -22.5503   16.2217 N   0  3  0  0  0  0  0  0  0  0  0  0
  -29.9705  -17.0947   19.0610 N   0  3  0  0  0  0  0  0  0  0  0  0
  -26.4894  -24.3826   17.4898 O   0  0  0  0  0  0  0  0  0  0  0  0
  -26.1365  -31.1038   25.1738 O   0  0  0  0  0  0  0  0  0  0  0  0
  -23.9267  -13.7345   23.1344 O   0  0  0  0  0  0  0  0  0  0  0  0
  -26.0882  -11.9692   20.6034 O   0  0  0  0  0  0  0  0  0  0  0  0
  -29.4920  -15.7404   21.4804 O   0  0  0  0  0  0  0  0  0  0  0  0
  -31.2738  -27.1735   17.6076 O   0  0  0  0  0  0  0  0  0  0  0  0
  -20.1637  -29.9776   22.0111 O   0  0  0  0  0  0  0  0  0  0  0  0
  -24.0416  -20.1392   21.5624 O   0  0  0  0  0  0  0  0  0  1  0  0
  -18.1640  -24.9425   23.0371 F   0  0  0  0  0  0  0  0  0  0  0  0
  -18.5482  -29.5133   24.2059 F   0  0  0  0  0  0  0  0  0  0  0  0
  1  2  1  0  0  0  0
  1  5  2  0  0  0  0
  2  6  2  0  0  0  0
  3  8  2  0  0  0  0
  3 17  1  0  0  0  0
  4  9  1  0  0  0  0
  4 17  2  0  0  0  0
  5 20  1  0  0  0  0
  6 22  1  0  0  0  0
  7 10  2  0  0  0  0
  7 21  1  0  0  0  0
  8 25  1  0  0  0  0
  9 25  2  0  0  0  0
 10 26  1  0  0  0  0
 11 12  2  0  0  0  0
 11 27  1  0  0  0  0
 12 28  1  0  0  0  0
 13 23  1  0  0  0  0
 13 26  2  0  0  0  0
 14 24  2  0  0  0  0
 14 31  1  0  0  0  0
 15 28  2  0  0  0  0
 15 29  1  0  0  0  0
 16 18  2  0  0  0  0
 16 68  1  0  0  0  0
 17 30  1  0  0  0  0
 18 24  1  0  0  0  0
 18 33  1  0  0  0  0
 19 30  1  0  0  0  0
 19 32  2  0  0  0  0
 19 34  1  0  0  0  0
 20 22  2  0  0  0  0
 20 39  1  0  0  0  0
 21 23  2  0  0  0  0
 21 40  1  0  0  0  0
 22 53  1  0  0  0  0
 23 41  1  0  0  0  0
 24 59  1  0  0  0  0
 25 88  1  0  0  0  0
 26 89  1  0  0  0  0
 27 29  2  0  0  0  0
 27 88  1  0  0  0  0
 28 90  1  0  0  0  0
 29 91  1  0  0  0  0
 30 69  2  0  0  0  0
 31 68  2  0  0  0  0
 31 89  1  0  0  0  0
 32 70  1  0  0  0  0
 32 74  1  0  0  0  0
 33 54  1  0  0  0  0
 33 82  2  0  0  0  0
 34 75  1  0  0  0  0
 34 83  2  0  0  0  0
 35 55  1  0  0  0  0
 35 76  1  0  0  0  0
 35 84  2  0  0  0  0
 36 65  1  0  0  0  0
 36 71  1  0  0  0  0
 36 85  2  0  0  0  0
 37 66  1  0  0  0  0
 37 77  1  0  0  0  0
 37 86  2  0  0  0  0
 38 72  1  0  0  0  0
 38 78  1  0  0  0  0
 38 87  2  0  0  0  0
 39 42  1  0  0  0  0
 40 55  1  0  0  0  0
 41 71  1  0  0  0  0
 42 44  1  0  0  0  0
 43 45  1  0  0  0  0
 43 47  1  0  0  0  0
 44 53  1  0  0  0  0
 45 56  1  0  0  0  0
 46 50  1  0  0  0  0
 46 57  1  0  0  0  0
 47 72  1  0  0  0  0
 48 51  1  0  0  0  0
 48 73  1  0  0  0  0
 49 56  1  0  0  0  0
 49 72  1  0  0  0  0
 50 79  1  0  0  0  0
 51 80  1  0  0  0  0
 52 58  1  0  0  0  0
 52 79  1  0  0  0  0
 53 76  1  0  0  0  0
 54 73  1  0  0  0  0
 54 80  1  0  0  0  0
 55 71  1  0  0  0  0
 56 70  1  0  0  0  0
 57 58  1  0  0  0  0
 57 73  1  0  0  0  0
 58 78  1  0  0  0  0
 60 66  1  0  0  0  0
 61 67  1  0  0  0  0
 62 67  1  0  0  0  0
 63 67  1  0  0  0  0
 64 81  1  0  0  0  0
 65 67  1  0  0  0  0
 65 77  1  0  0  0  0
 66 81  1  0  0  0  0
 69 70  1  0  0  0  0
M  CHG  3  79   1  80   1  81   1
M  ISO  4  31 101  38 100  78 100  89 101
M  END
> <Batch ID>
0119

> <Smiles>
CNC(C)C(=O)NC(C(=O)N1Cc2cc([101O:1][101c:1]3cc(C)c(C(=O)C4NCCN4C4CCNCC4[100NH:0][100C:0](=O)N4CCCC(n5nc(-c6ccc(Oc7ccc(F)cc7F)cc6)c(C(N)=O)c5N)C4)cn3)ccc2CC1C(=O)NC1CCCc2ccccc21)C(C)(C)C

> <Shape>
0.271

> <Color>
0.054

> <Negative vol penalty>
0.000

$$$$

  -OEChem-04052320203D

 85 94  0     1  0  0  0  0  0999 V2000
  -16.8271  -29.1413   24.0671 C   0  0  0  0  0  0  0  0  0  0  0  0
  -17.5058  -28.0056   23.6371 C   0  0  0  0  0  0  0  0  0  0  0  0
  -24.4479   -9.3601   21.3921 C   0  0  0  0  0  0  0  0  0  0  0  0
  -24.1214  -10.8771   23.2440 C   0  0  0  0  0  0  0  0  0  0  0  0
  -17.2947  -30.4066   23.7147 C   0  0  0  0  0  0  0  0  0  0  0  0
  -18.6520  -28.1346   22.8534 C   0  0  0  0  0  0  0  0  0  0  0  0
  -23.5983  -24.5246   22.9427 C   0  0  0  0  0  0  0  0  0  0  0  0
  -24.2837   -8.2745   22.2524 C   0  0  0  0  0  0  0  0  0  0  0  0
  -23.9572   -9.7915   24.1043 C   0  0  0  0  0  0  0  0  0  0  0  0
  -23.9997  -23.4632   22.1326 C   0  0  0  0  0  0  0  0  0  0  0  0
  -21.7241   -6.6326   23.7307 C   0  0  0  0  0  0  0  0  0  0  0  0
  -20.9050   -5.5867   23.3057 C   0  0  0  0  0  0  0  0  0  0  0  0
  -25.3524  -24.9772   20.8298 C   0  0  0  0  0  0  0  0  0  0  0  0
  -22.7696   -4.0593   23.4705 C   0  0  0  0  0  0  0  0  0  0  0  0
  -29.1120  -20.0392   21.0608 C   0  0  0  0  0  0  0  0  0  0  0  0
  -24.3668  -10.6614   21.8879 C   0  0  0  0  0  0  0  0  0  0  0  0
  -23.5334  -12.4530   20.2745 C   0  0  0  0  0  0  0  0  0  0  0  0
  -18.4526  -30.5514   22.9344 C   0  0  0  0  0  0  0  0  0  0  0  0
  -24.0632  -25.8242   22.6953 C   0  0  0  0  0  0  0  0  0  0  0  0
  -19.1347  -29.4030   22.4891 C   0  0  0  0  0  0  0  0  0  0  0  0
  -24.9574  -26.0528   21.6398 C   0  0  0  0  0  0  0  0  0  0  0  0
  -28.4288  -19.1450   21.8596 C   0  0  0  0  0  0  0  0  0  0  0  0
  -24.0384   -8.4902   23.6085 C   0  0  0  0  0  0  0  0  0  0  0  0
  -24.8746  -23.6899   21.0742 C   0  0  0  0  0  0  0  0  0  0  0  0
  -23.0661   -6.3919   24.0256 C   0  0  0  0  0  0  0  0  0  0  0  0
  -21.4277   -4.3001   23.1756 C   0  0  0  0  0  0  0  0  0  0  0  0
  -23.5888   -5.1052   23.8955 C   0  0  0  0  0  0  0  0  0  0  0  0
  -24.5369  -11.7832   20.9998 C   0  0  0  0  0  0  0  0  0  0  0  0
  -27.1050  -19.4508   22.1011 C   0  0  0  0  0  0  0  0  0  0  0  0
  -24.2037  -13.4361   19.5884 C   0  0  0  0  0  0  0  0  0  0  0  0
  -27.2585  -21.3367   20.8415 C   0  0  0  0  0  0  0  0  0  0  0  0
  -22.1215  -12.2085   20.2253 C   0  0  0  0  0  0  0  0  0  0  0  0
  -22.6941  -28.5875   21.9248 C   0  0  0  0  0  0  0  0  0  0  0  0
  -25.6990  -29.7416   22.3264 C   0  0  0  0  0  0  0  0  0  0  0  0
  -29.0565  -29.1310   22.3607 C   0  0  0  0  0  0  0  0  0  0  0  0
  -29.3721  -16.2947   20.5717 C   0  0  0  0  0  0  0  0  0  0  0  0
  -18.8929  -31.9387   22.5393 C   0  0  0  0  0  0  0  0  0  0  0  0
  -23.6417  -26.9537   23.5948 C   0  0  0  0  0  0  0  0  0  0  0  0
  -25.5013  -27.4259   21.3445 C   0  0  0  0  0  0  0  0  0  0  0  0
  -20.3271  -31.9977   22.0196 C   0  0  0  0  0  0  0  0  0  0  0  0
  -28.4790  -14.4201   17.6795 C   0  0  0  0  0  0  0  0  0  0  0  0
  -20.5758  -30.8809   21.0109 C   0  0  0  0  0  0  0  0  0  0  0  0
  -27.2769  -13.5922   18.1370 C   0  0  0  0  0  0  0  0  0  0  0  0
  -23.2351  -17.8175   20.6392 C   0  0  0  0  0  0  0  0  0  0  0  0
  -24.1394  -18.8830   20.0874 C   0  0  0  0  0  0  0  0  0  0  0  0
  -29.5128  -14.5769   18.7925 C   0  0  0  0  0  0  0  0  0  0  0  0
  -27.7790  -14.2809   20.5187 C   0  0  0  0  0  0  0  0  0  0  0  0
  -20.3957  -29.5025   21.6584 C   0  0  1  0  0  0  0  0  0  0  0  0
  -23.7737  -28.3233   22.9359 C   0  0  1  0  0  0  0  0  0  0  0  0
  -26.6833  -14.1424   19.4478 C   0  0  2  0  0  0  0  0  0  0  0  0
  -24.6409  -17.9487   21.1513 C   0  0  0  0  0  0  0  0  0  0  0  0
  -26.2797  -18.9350   24.4347 C   0  0  0  0  0  0  0  0  0  0  0  0
  -31.2644  -30.2798   22.6811 C   0  0  0  0  0  0  0  0  0  0  0  0
  -25.4759  -30.9447   19.5312 C   0  0  0  0  0  0  0  0  0  0  0  0
  -27.9628  -31.2337   19.5329 C   0  0  0  0  0  0  0  0  0  0  0  0
  -26.5689  -32.4288   21.2216 C   0  0  0  0  0  0  0  0  0  0  0  0
  -29.7236  -27.4483   24.7021 C   0  0  0  0  0  0  0  0  0  0  0  0
  -29.0981  -17.9391   22.4102 C   0  0  0  0  0  0  0  0  0  0  0  0
  -26.2659  -18.5530   22.9494 C   0  0  1  0  0  0  0  0  0  0  0  0
  -26.8999  -29.9311   21.4315 C   0  0  1  0  0  0  0  0  0  0  0  0
  -30.1391  -29.5102   23.3550 C   0  0  2  0  0  0  0  0  0  0  0  0
  -26.7153  -31.1089   20.4334 C   0  0  0  0  0  0  0  0  0  0  0  0
  -28.5558  -21.1494   20.5330 N   0  0  0  0  0  0  0  0  0  0  0  0
  -25.7523  -12.2973   20.7936 N   0  0  0  0  0  0  0  0  0  0  0  0
  -26.4854  -20.5424   21.6063 N   0  0  0  0  0  0  0  0  0  0  0  0
  -25.5169  -13.3005   19.9309 N   0  0  0  0  0  0  0  0  0  0  0  0
  -25.0547  -28.4987   22.2485 N   0  0  0  0  0  0  0  0  0  0  0  0
  -28.8859  -15.1041   20.0069 N   0  0  0  0  0  0  0  0  0  0  0  0
  -23.7921  -14.3947   18.7316 N   0  0  0  0  0  0  0  0  0  0  0  0
  -21.5981  -11.1585   20.9922 N   0  0  0  0  0  0  0  0  0  0  0  0
  -26.6478  -22.4800   20.3095 N   0  0  0  0  0  0  0  0  0  1  0  0
  -21.5553  -29.1630   22.4551 N   0  0  0  0  0  0  0  0  0  0  0  0
  -28.0506  -30.0731   22.3170 N   0  0  0  0  0  0  0  0  0  0  0  0
  -28.7173  -16.7280   21.7181 N   0  0  0  0  0  0  0  0  0  0  0  0
  -24.8289  -18.4953   22.5145 N   0  3  0  0  0  0  0  0  0  0  0  0
  -30.7161  -28.2883   23.9835 N   0  3  0  0  0  0  0  0  0  0  0  0
  -21.3491  -12.8901   19.5095 O   0  0  0  0  0  0  0  0  0  0  0  0
  -22.8811  -28.2925   20.7502 O   0  0  0  0  0  0  0  0  0  0  0  0
  -25.3498  -30.6598   23.0724 O   0  0  0  0  0  0  0  0  0  0  0  0
  -29.1007  -28.1039   21.6872 O   0  0  0  0  0  0  0  0  0  0  0  0
  -30.3163  -16.9277   20.0871 O   0  0  0  0  0  0  0  0  0  0  0  0
  -23.8779   -7.4311   24.4482 O   0  0  0  0  0  0  0  0  0  0  0  0
  -25.2674  -22.6559   20.2816 O   0  0  0  0  0  0  0  0  0  1  0  0
  -20.6405   -3.2955   22.7689 F   0  0  0  0  0  0  0  0  0  0  0  0
  -24.8770   -4.8676   24.1784 F   0  0  0  0  0  0  0  0  0  0  0  0
  1  2  1  0  0  0  0
  1  5  2  0  0  0  0
  2  6  2  0  0  0  0
  3  8  2  0  0  0  0
  3 16  1  0  0  0  0
  4  9  1  0  0  0  0
  4 16  2  0  0  0  0
  5 18  1  0  0  0  0
  6 20  1  0  0  0  0
  7 10  2  0  0  0  0
  7 19  1  0  0  0  0
  8 23  1  0  0  0  0
  9 23  2  0  0  0  0
 10 24  1  0  0  0  0
 11 12  2  0  0  0  0
 11 25  1  0  0  0  0
 12 26  1  0  0  0  0
 13 21  1  0  0  0  0
 13 24  2  0  0  0  0
 14 26  2  0  0  0  0
 14 27  1  0  0  0  0
 15 22  1  0  0  0  0
 15 63  2  0  0  0  0
 16 28  1  0  0  0  0
 17 28  1  0  0  0  0
 17 30  2  0  0  0  0
 17 32  1  0  0  0  0
 18 20  2  0  0  0  0
 18 37  1  0  0  0  0
 19 21  2  0  0  0  0
 19 38  1  0  0  0  0
 20 48  1  0  0  0  0
 21 39  1  0  0  0  0
 22 29  2  0  0  0  0
 22 58  1  0  0  0  0
 23 82  1  0  0  0  0
 24 83  1  0  0  0  0
 25 27  2  0  0  0  0
 25 82  1  0  0  0  0
 26 84  1  0  0  0  0
 27 85  1  0  0  0  0
 28 64  2  0  0  0  0
 29 59  1  0  0  0  0
 29 65  1  0  0  0  0
 30 66  1  0  0  0  0
 30 69  1  0  0  0  0
 31 63  1  0  0  0  0
 31 65  2  0  0  0  0
 31 71  1  0  0  0  0
 32 70  1  0  0  0  0
 32 77  2  0  0  0  0
 33 49  1  0  0  0  0
 33 72  1  0  0  0  0
 33 78  2  0  0  0  0
 34 60  1  0  0  0  0
 34 67  1  0  0  0  0
 34 79  2  0  0  0  0
 35 61  1  0  0  0  0
 35 73  1  0  0  0  0
 35 80  2  0  0  0  0
 36 68  1  0  0  0  0
 36 74  1  0  0  0  0
 36 81  2  0  0  0  0
 37 40  1  0  0  0  0
 38 49  1  0  0  0  0
 39 67  1  0  0  0  0
 40 42  1  0  0  0  0
 41 43  1  0  0  0  0
 41 46  1  0  0  0  0
 42 48  1  0  0  0  0
 43 50  1  0  0  0  0
 44 45  1  0  0  0  0
 44 51  1  0  0  0  0
 45 51  1  0  0  0  0
 46 68  1  0  0  0  0
 47 50  1  0  0  0  0
 47 68  1  0  0  0  0
 48 72  1  0  0  0  0
 49 67  1  0  0  0  0
 50 66  1  0  0  0  0
 51 75  1  0  0  0  0
 52 59  1  0  0  0  0
 53 61  1  0  0  0  0
 54 62  1  0  0  0  0
 55 62  1  0  0  0  0
 56 62  1  0  0  0  0
 57 76  1  0  0  0  0
 58 74  1  0  0  0  0
 59 75  1  0  0  0  0
 60 62  1  0  0  0  0
 60 73  1  0  0  0  0
 61 76  1  0  0  0  0
 64 66  1  0  0  0  0
 71 83  1  0  0  0  0
M  CHG  2  75   1  76   1
M  ISO  4  36 100  71 101  74 100  83 101
M  END
> <Batch ID>
0119

> <Smiles>
CNC(C)C(=O)NC(C(=O)N1Cc2cc([101O:1][101NH:1]c3ncc(C[100NH:0][100C:0](=O)N4CCCC(n5nc(-c6ccc(Oc7ccc(F)cc7F)cc6)c(C(N)=O)c5N)C4)c(C(C)NC4CC4)n3)ccc2CC1C(=O)NC1CCCc2ccccc21)C(C)(C)C

> <Shape>
0.236

> <Color>
0.089

> <Negative vol penalty>
0.000

$$$$

  -OEChem-04052320203D

 85 93  0     1  0  0  0  0  0999 V2000
  -30.0499  -11.3277   19.1665 C   0  0  0  0  0  0  0  0  0  0  0  0
  -29.7275  -12.3410   18.2695 C   0  0  0  0  0  0  0  0  0  0  0  0
  -26.5598  -28.7673   21.2357 C   0  0  0  0  0  0  0  0  0  0  0  0
  -24.4448  -28.4614   20.1088 C   0  0  0  0  0  0  0  0  0  0  0  0
  -29.4939  -11.3272   20.4451 C   0  0  0  0  0  0  0  0  0  0  0  0
  -28.8481  -13.3539   18.6502 C   0  0  0  0  0  0  0  0  0  0  0  0
  -27.5696  -20.3239   17.6006 C   0  0  0  0  0  0  0  0  0  0  0  0
  -27.1939  -28.0088   20.2517 C   0  0  0  0  0  0  0  0  0  0  0  0
  -25.0788  -27.7029   19.1247 C   0  0  0  0  0  0  0  0  0  0  0  0
  -26.5365  -21.1866   17.2371 C   0  0  0  0  0  0  0  0  0  0  0  0
  -29.3093  -25.8509   18.2288 C   0  0  0  0  0  0  0  0  0  0  0  0
  -30.2262  -24.8848   18.6429 C   0  0  0  0  0  0  0  0  0  0  0  0
  -25.6987  -21.1265   19.4984 C   0  0  0  0  0  0  0  0  0  0  0  0
  -28.4865  -23.7708   19.8957 C   0  0  0  0  0  0  0  0  0  0  0  0
  -25.1852  -28.9935   21.1643 C   0  0  0  0  0  0  0  0  0  0  0  0
  -24.7935  -31.1160   22.5242 C   0  0  0  0  0  0  0  0  0  0  0  0
  -28.6146  -12.3459   20.8449 C   0  0  0  0  0  0  0  0  0  0  0  0
  -27.6689  -19.8465   18.9154 C   0  0  0  0  0  0  0  0  0  0  0  0
  -28.2787  -13.3663   19.9348 C   0  0  0  0  0  0  0  0  0  0  0  0
  -26.7355  -20.2599   19.8767 C   0  0  0  0  0  0  0  0  0  0  0  0
  -26.4534  -27.4766   19.1962 C   0  0  0  0  0  0  0  0  0  0  0  0
  -25.5992  -21.5858   18.1853 C   0  0  0  0  0  0  0  0  0  0  0  0
  -27.9810  -25.7771   18.6483 C   0  0  0  0  0  0  0  0  0  0  0  0
  -29.8148  -23.8447   19.4763 C   0  0  0  0  0  0  0  0  0  0  0  0
  -27.5696  -24.7370   19.4817 C   0  0  0  0  0  0  0  0  0  0  0  0
  -24.5296  -29.7765   22.1807 C   0  0  0  0  0  0  0  0  0  0  0  0
  -23.9097  -31.3907   23.5391 C   0  0  0  0  0  0  0  0  0  0  0  0
  -25.7517  -32.0302   21.9749 C   0  0  0  0  0  0  0  0  0  0  0  0
  -27.5592  -16.9747   20.2735 C   0  0  0  0  0  0  0  0  0  0  0  0
  -28.3412  -18.6384   22.9461 C   0  0  0  0  0  0  0  0  0  0  0  0
  -28.3427  -21.6204   24.6057 C   0  0  0  0  0  0  0  0  0  0  0  0
  -21.1612  -26.6048   23.5758 C   0  0  0  0  0  0  0  0  0  0  0  0
  -28.0018  -12.2771   22.2213 C   0  0  0  0  0  0  0  0  0  0  0  0
  -28.8047  -18.9377   19.2979 C   0  0  0  0  0  0  0  0  0  0  0  0
  -26.8095  -19.7920   21.3064 C   0  0  0  0  0  0  0  0  0  0  0  0
  -27.3706  -13.5914   22.6733 C   0  0  0  0  0  0  0  0  0  0  0  0
  -22.9881  -28.1469   26.2313 C   0  0  0  0  0  0  0  0  0  0  0  0
  -17.8642  -26.4960   22.0702 C   0  0  0  0  0  0  0  0  0  0  0  0
  -26.5071  -14.1791   21.5617 C   0  0  0  0  0  0  0  0  0  0  0  0
  -22.6524  -29.6304   26.1265 C   0  0  0  0  0  0  0  0  0  0  0  0
  -18.6842  -26.0112   20.8829 C   0  0  0  0  0  0  0  0  0  0  0  0
  -21.7819  -27.2971   25.8627 C   0  0  0  0  0  0  0  0  0  0  0  0
  -18.8542  -27.3720   22.8222 C   0  0  0  0  0  0  0  0  0  0  0  0
  -20.9698  -29.0437   24.2891 C   0  0  0  0  0  0  0  0  0  0  0  0
  -27.3479  -14.4960   20.3191 C   0  0  1  0  0  0  0  0  0  0  0  0
  -28.5111  -18.1057   20.5426 C   0  0  1  0  0  0  0  0  0  0  0  0
  -22.0852  -30.0105   24.7494 C   0  0  2  0  0  0  0  0  0  0  0  0
  -20.0748  -25.7883   21.4837 C   0  0  1  0  0  0  0  0  0  0  0  0
  -22.0384  -20.1888   16.7602 C   0  0  0  0  0  0  0  0  0  0  0  0
  -29.0164  -22.6599   26.7882 C   0  0  0  0  0  0  0  0  0  0  0  0
  -22.1991  -26.5379   17.5484 C   0  0  0  0  0  0  0  0  0  0  0  0
  -25.9255  -17.3567   24.2995 C   0  0  0  0  0  0  0  0  0  0  0  0
  -26.0874  -19.1032   26.0860 C   0  0  0  0  0  0  0  0  0  0  0  0
  -27.9689  -17.5036   25.7339 C   0  0  0  0  0  0  0  0  0  0  0  0
  -30.2160  -23.4840   23.2728 C   0  0  0  0  0  0  0  0  0  0  0  0
  -22.0836  -21.6712   16.4161 C   0  0  0  0  0  0  0  0  0  0  0  0
  -21.0723  -25.0538   19.2872 C   0  0  0  0  0  0  0  0  0  0  0  0
  -22.0968  -24.0671   17.1585 C   0  0  0  0  0  0  0  0  0  0  0  0
  -23.3603  -22.3035   18.5435 C   0  0  0  0  0  0  0  0  0  1  0  0
  -27.5646  -19.3343   24.0377 C   0  0  1  0  0  0  0  0  0  0  0  0
  -29.4378  -22.3532   25.3595 C   0  0  2  0  0  0  0  0  0  0  0  0
  -21.1806  -26.0321   20.4648 C   0  0  2  0  0  0  0  0  0  0  0  0
  -22.2037  -25.1683   18.2405 C   0  0  1  0  0  0  0  0  0  0  0  0
  -22.1430  -22.5993   17.6525 C   0  0  2  0  0  0  0  0  0  0  0  0
  -26.8838  -18.3319   25.0120 C   0  0  0  0  0  0  0  0  0  0  0  0
  -23.5547  -29.2377   22.9177 N   0  0  0  0  0  0  0  0  0  0  0  0
  -23.1982  -30.2436   23.7345 N   0  0  0  0  0  0  0  0  0  0  0  0
  -27.9347  -18.8994   21.6299 N   0  0  0  0  0  0  0  0  0  0  0  0
  -21.2674  -27.6249   24.5329 N   0  0  0  0  0  0  0  0  0  0  0  0
  -20.1447  -26.7103   22.6238 N   0  0  0  0  0  0  0  0  0  0  0  0
  -23.6797  -32.4991   24.2746 N   0  0  0  0  0  0  0  0  0  0  0  0
  -25.3656  -32.8322   20.8923 N   0  0  0  0  0  0  0  0  0  0  0  0
  -28.0921  -15.7222   20.5117 N   0  0  0  0  0  0  0  0  0  0  0  0
  -28.4981  -20.2525   24.6811 N   0  0  0  0  0  0  0  0  0  0  0  0
  -29.7639  -23.6385   24.6795 N   0  3  0  0  0  0  0  0  0  0  0  0
  -26.9209  -32.1211   22.4201 O   0  0  0  0  0  0  0  0  0  0  0  0
  -26.4248  -17.2203   19.8804 O   0  0  0  0  0  0  0  0  0  0  0  0
  -29.2787  -17.8965   23.2497 O   0  0  0  0  0  0  0  0  0  0  0  0
  -27.4375  -22.2033   24.0128 O   0  0  0  0  0  0  0  0  0  0  0  0
  -21.9339  -25.6373   23.5775 O   0  0  0  0  0  0  0  0  0  0  0  0
  -22.4420  -25.8582   21.1032 O   0  0  0  0  0  0  0  0  0  0  0  0
  -27.0718  -26.7367   18.2357 O   0  0  0  0  0  0  0  0  0  0  0  0
  -24.5819  -22.4336   17.8304 O   0  0  0  0  0  0  0  0  0  1  0  0
  -30.6950  -22.9161   19.8726 F   0  0  0  0  0  0  0  0  0  0  0  0
  -26.2946  -24.6601   19.8869 F   0  0  0  0  0  0  0  0  0  0  0  0
  1  2  1  0  0  0  0
  1  5  2  0  0  0  0
  2  6  2  0  0  0  0
  3  8  2  0  0  0  0
  3 15  1  0  0  0  0
  4  9  1  0  0  0  0
  4 15  2  0  0  0  0
  5 17  1  0  0  0  0
  6 19  1  0  0  0  0
  7 10  2  0  0  0  0
  7 18  1  0  0  0  0
  8 21  1  0  0  0  0
  9 21  2  0  0  0  0
 10 22  1  0  0  0  0
 11 12  2  0  0  0  0
 11 23  1  0  0  0  0
 12 24  1  0  0  0  0
 13 20  1  0  0  0  0
 13 22  2  0  0  0  0
 14 24  2  0  0  0  0
 14 25  1  0  0  0  0
 15 26  1  0  0  0  0
 16 26  1  0  0  0  0
 16 27  2  0  0  0  0
 16 28  1  0  0  0  0
 17 19  2  0  0  0  0
 17 33  1  0  0  0  0
 18 20  2  0  0  0  0
 18 34  1  0  0  0  0
 19 45  1  0  0  0  0
 20 35  1  0  0  0  0
 21 82  1  0  0  0  0
 22 83  1  0  0  0  0
 23 25  2  0  0  0  0
 23 82  1  0  0  0  0
 24 84  1  0  0  0  0
 25 85  1  0  0  0  0
 26 66  2  0  0  0  0
 27 67  1  0  0  0  0
 27 71  1  0  0  0  0
 28 72  1  0  0  0  0
 28 76  2  0  0  0  0
 29 46  1  0  0  0  0
 29 73  1  0  0  0  0
 29 77  2  0  0  0  0
 30 60  1  0  0  0  0
 30 68  1  0  0  0  0
 30 78  2  0  0  0  0
 31 61  1  0  0  0  0
 31 74  1  0  0  0  0
 31 79  2  0  0  0  0
 32 69  1  0  0  0  0
 32 70  1  0  0  0  0
 32 80  2  0  0  0  0
 33 36  1  0  0  0  0
 34 46  1  0  0  0  0
 35 68  1  0  0  0  0
 36 39  1  0  0  0  0
 37 40  1  0  0  0  0
 37 42  1  0  0  0  0
 38 41  1  0  0  0  0
 38 43  1  0  0  0  0
 39 45  1  0  0  0  0
 40 47  1  0  0  0  0
 41 48  1  0  0  0  0
 42 69  1  0  0  0  0
 43 70  1  0  0  0  0
 44 47  1  0  0  0  0
 44 69  1  0  0  0  0
 45 73  1  0  0  0  0
 46 68  1  0  0  0  0
 47 67  1  0  0  0  0
 48 62  1  0  0  0  0
 48 70  1  0  0  0  0
 49 56  1  0  0  0  0
 50 61  1  0  0  0  0
 51 63  1  0  0  0  0
 52 65  1  0  0  0  0
 53 65  1  0  0  0  0
 54 65  1  0  0  0  0
 55 75  1  0  0  0  0
 56 64  1  0  0  0  0
 57 62  1  0  0  0  0
 57 63  1  0  0  0  0
 58 63  1  0  0  0  0
 58 64  1  0  0  0  0
 59 64  1  0  0  0  0
 59 83  1  0  0  0  0
 60 65  1  0  0  0  0
 60 74  1  0  0  0  0
 61 75  1  0  0  0  0
 62 81  1  0  0  0  0
 66 67  1  0  0  0  0
M  CHG  1  75   1
M  ISO  4  32 100  59 101  70 100  83 101
M  END
> <Batch ID>
0119

> <Smiles>
CCC(CC(C)CC(O)C1CCC[100N:0]1[100C:0](=O)N1CCCC(n2nc(-c3ccc(Oc4ccc(F)cc4F)cc3)c(C(N)=O)c2N)C1)[101CH2:1][101O:1]c1ccc2c(c1)CN(C(=O)C(NC(=O)C(C)NC)C(C)(C)C)C(C(=O)NC1CCCc3ccccc31)C2

> <Shape>
0.238

> <Color>
0.062

> <Negative vol penalty>
0.000

$$$$

  -OEChem-04052320203D

 83 91  0     1  0  0  0  0  0999 V2000
  -38.5139  -31.0562   19.1804 C   0  0  0  0  0  0  0  0  0  0  0  0
  -38.0027  -30.0563   20.0015 C   0  0  0  0  0  0  0  0  0  0  0  0
  -23.1032   -9.7884   19.9961 C   0  0  0  0  0  0  0  0  0  0  0  0
  -23.8909   -9.8834   22.2781 C   0  0  0  0  0  0  0  0  0  0  0  0
  -37.6546  -31.8024   18.3750 C   0  0  0  0  0  0  0  0  0  0  0  0
  -36.6316  -29.8027   20.0184 C   0  0  0  0  0  0  0  0  0  0  0  0
  -35.5691  -24.8541   19.8528 C   0  0  0  0  0  0  0  0  0  0  0  0
  -22.4011   -8.6188   20.2871 C   0  0  0  0  0  0  0  0  0  0  0  0
  -23.1887   -8.7138   22.5692 C   0  0  0  0  0  0  0  0  0  0  0  0
  -35.7099  -24.1326   21.0375 C   0  0  0  0  0  0  0  0  0  0  0  0
  -21.3123   -5.9509   24.0058 C   0  0  0  0  0  0  0  0  0  0  0  0
  -20.5725   -5.9149   25.1877 C   0  0  0  0  0  0  0  0  0  0  0  0
  -33.3264  -24.2556   21.3885 C   0  0  0  0  0  0  0  0  0  0  0  0
  -19.2554   -7.7894   24.4206 C   0  0  0  0  0  0  0  0  0  0  0  0
  -23.8481  -10.4207   20.9916 C   0  0  0  0  0  0  0  0  0  0  0  0
  -24.1046  -12.9514   20.7986 C   0  0  0  0  0  0  0  0  0  0  0  0
  -36.2735  -31.5513   18.3748 C   0  0  0  0  0  0  0  0  0  0  0  0
  -34.3052  -25.2918   19.4319 C   0  0  0  0  0  0  0  0  0  0  0  0
  -35.7529  -30.5471   19.2132 C   0  0  0  0  0  0  0  0  0  0  0  0
  -33.1720  -24.9802   20.1968 C   0  0  0  0  0  0  0  0  0  0  0  0
  -22.4438   -8.0815   21.5736 C   0  0  0  0  0  0  0  0  0  0  0  0
  -34.5888  -23.8358   21.8070 C   0  0  0  0  0  0  0  0  0  0  0  0
  -21.0238   -6.9063   23.0312 C   0  0  0  0  0  0  0  0  0  0  0  0
  -19.5441   -6.8341   25.3951 C   0  0  0  0  0  0  0  0  0  0  0  0
  -19.9953   -7.8255   23.2386 C   0  0  0  0  0  0  0  0  0  0  0  0
  -24.5741  -11.6286   20.6915 C   0  0  0  0  0  0  0  0  0  0  0  0
  -25.1667  -13.7260   20.4007 C   0  0  0  0  0  0  0  0  0  0  0  0
  -22.8230  -13.4366   21.2203 C   0  0  0  0  0  0  0  0  0  0  0  0
  -32.9748  -28.1304   18.9061 C   0  0  0  0  0  0  0  0  0  0  0  0
  -30.6399  -14.8660   20.5867 C   0  0  0  0  0  0  0  0  0  0  0  0
  -30.5028  -26.3350   17.8160 C   0  0  0  0  0  0  0  0  0  0  0  0
  -30.8523  -17.0691   21.8133 C   0  0  0  0  0  0  0  0  0  0  0  0
  -28.8551  -23.3466   17.8530 C   0  0  0  0  0  0  0  0  0  0  0  0
  -35.3786  -32.4158   17.5224 C   0  0  0  0  0  0  0  0  0  0  0  0
  -34.1669  -26.0460   18.1379 C   0  0  0  0  0  0  0  0  0  0  0  0
  -31.7903  -25.4096   19.7785 C   0  0  0  0  0  0  0  0  0  0  0  0
  -33.9825  -31.8328   17.3192 C   0  0  0  0  0  0  0  0  0  0  0  0
  -29.5209  -12.4647   18.1739 C   0  0  0  0  0  0  0  0  0  0  0  0
  -33.4100  -31.3436   18.6457 C   0  0  0  0  0  0  0  0  0  0  0  0
  -36.4928  -19.9939   24.0996 C   0  0  0  0  0  0  0  0  0  0  0  0
  -35.7549  -18.6704   24.3240 C   0  0  0  0  0  0  0  0  0  0  0  0
  -28.1072  -12.1194   18.6400 C   0  0  0  0  0  0  0  0  0  0  0  0
  -34.1867  -20.2868   23.4800 C   0  0  0  0  0  0  0  0  0  0  0  0
  -30.4490  -12.7304   19.3550 C   0  0  0  0  0  0  0  0  0  0  0  0
  -28.5399  -13.4406   20.7595 C   0  0  0  0  0  0  0  0  0  0  0  0
  -34.2744  -30.2255   19.2409 C   0  0  1  0  0  0  0  0  0  0  0  0
  -32.8950  -26.8855   18.0685 C   0  0  1  0  0  0  0  0  0  0  0  0
  -35.4077  -21.0656   23.9619 C   0  0  2  0  0  0  0  0  0  0  0  0
  -34.2622  -19.0115   24.3150 C   0  0  1  0  0  0  0  0  0  0  0  0
  -27.5624  -13.1949   19.5966 C   0  0  2  0  0  0  0  0  0  0  0  0
  -26.8460  -22.1929   16.8888 C   0  0  0  0  0  0  0  0  0  0  0  0
  -33.6098  -16.5956   24.5656 C   0  0  0  0  0  0  0  0  0  0  0  0
  -28.6989  -27.8818   19.7301 C   0  0  0  0  0  0  0  0  0  0  0  0
  -26.9688  -26.0970   19.4313 C   0  0  0  0  0  0  0  0  0  0  0  0
  -27.7059  -27.4572   17.4744 C   0  0  0  0  0  0  0  0  0  0  0  0
  -30.5249  -21.2895   16.5344 C   0  0  0  0  0  0  0  0  0  0  0  0
  -29.9910  -15.8646   21.5119 C   0  0  0  0  0  0  0  0  0  0  0  0
  -35.7980  -22.1959   23.0336 C   0  0  0  0  0  0  0  0  0  1  0  0
  -31.9059  -18.2712   23.7050 C   0  0  0  0  0  0  0  0  0  0  0  0
  -29.2715  -25.7213   18.4376 C   0  0  1  0  0  0  0  0  0  0  0  0
  -28.3326  -22.4705   16.7288 C   0  0  2  0  0  0  0  0  0  0  0  0
  -33.3936  -17.8894   23.7723 C   0  0  1  0  0  0  0  0  0  0  0  0
  -28.1874  -26.7828   18.7775 C   0  0  0  0  0  0  0  0  0  0  0  0
  -25.8361  -11.5628   20.2591 N   0  0  0  0  0  0  0  0  0  0  0  0
  -26.1687  -12.8540   20.0911 N   0  0  0  0  0  0  0  0  0  0  0  0
  -31.7077  -26.1501   18.5087 N   0  0  0  0  0  0  0  0  0  0  0  0
  -29.8857  -13.7413   20.2517 N   0  0  0  0  0  0  0  0  0  0  0  0
  -25.3320  -15.0611   20.2888 N   0  0  0  0  0  0  0  0  0  0  0  0
  -21.8461  -12.5044   21.5956 N   0  0  0  0  0  0  0  0  0  0  0  0
  -34.0158  -28.9724   18.5646 N   0  0  0  0  0  0  0  0  0  0  0  0
  -31.0838  -17.1688   23.1572 N   0  0  0  0  0  0  0  0  0  0  0  0
  -28.8231  -24.6833   17.5158 N   0  0  0  0  0  0  0  0  0  0  0  0
  -29.0547  -21.1670   16.7096 N   0  3  0  0  0  0  0  0  0  0  0  0
  -22.5469  -14.6600   21.2474 O   0  0  0  0  0  0  0  0  0  0  0  0
  -32.1519  -28.3141   19.7953 O   0  0  0  0  0  0  0  0  0  0  0  0
  -31.7819  -15.0823   20.1729 O   0  0  0  0  0  0  0  0  0  0  0  0
  -30.4004  -26.9496   16.7514 O   0  0  0  0  0  0  0  0  0  0  0  0
  -31.2676  -17.8296   20.9427 O   0  0  0  0  0  0  0  0  0  0  0  0
  -29.2485  -22.8912   18.9246 O   0  0  0  0  0  0  0  0  0  0  0  0
  -21.7586   -6.9404   21.8580 O   0  0  0  0  0  0  0  0  0  0  0  0
  -34.7234  -23.1323   22.9641 O   0  0  0  0  0  0  0  0  0  1  0  0
  -18.8327   -6.7983   26.5295 F   0  0  0  0  0  0  0  0  0  0  0  0
  -19.7127   -8.7449   22.3055 F   0  0  0  0  0  0  0  0  0  0  0  0
  1  2  1  0  0  0  0
  1  5  2  0  0  0  0
  2  6  2  0  0  0  0
  3  8  2  0  0  0  0
  3 15  1  0  0  0  0
  4  9  1  0  0  0  0
  4 15  2  0  0  0  0
  5 17  1  0  0  0  0
  6 19  1  0  0  0  0
  7 10  2  0  0  0  0
  7 18  1  0  0  0  0
  8 21  1  0  0  0  0
  9 21  2  0  0  0  0
 10 22  1  0  0  0  0
 11 12  2  0  0  0  0
 11 23  1  0  0  0  0
 12 24  1  0  0  0  0
 13 20  1  0  0  0  0
 13 22  2  0  0  0  0
 14 24  2  0  0  0  0
 14 25  1  0  0  0  0
 15 26  1  0  0  0  0
 16 26  1  0  0  0  0
 16 27  2  0  0  0  0
 16 28  1  0  0  0  0
 17 19  2  0  0  0  0
 17 34  1  0  0  0  0
 18 20  2  0  0  0  0
 18 35  1  0  0  0  0
 19 46  1  0  0  0  0
 20 36  1  0  0  0  0
 21 80  1  0  0  0  0
 22 81  1  0  0  0  0
 23 25  2  0  0  0  0
 23 80  1  0  0  0  0
 24 82  1  0  0  0  0
 25 83  1  0  0  0  0
 26 64  2  0  0  0  0
 27 65  1  0  0  0  0
 27 68  1  0  0  0  0
 28 69  1  0  0  0  0
 28 74  2  0  0  0  0
 29 47  1  0  0  0  0
 29 70  1  0  0  0  0
 29 75  2  0  0  0  0
 30 57  1  0  0  0  0
 30 67  1  0  0  0  0
 30 76  2  0  0  0  0
 31 60  1  0  0  0  0
 31 66  1  0  0  0  0
 31 77  2  0  0  0  0
 32 57  1  0  0  0  0
 32 71  1  0  0  0  0
 32 78  2  0  0  0  0
 33 61  1  0  0  0  0
 33 72  1  0  0  0  0
 33 79  2  0  0  0  0
 34 37  1  0  0  0  0
 35 47  1  0  0  0  0
 36 66  1  0  0  0  0
 37 39  1  0  0  0  0
 38 42  1  0  0  0  0
 38 44  1  0  0  0  0
 39 46  1  0  0  0  0
 40 41  1  0  0  0  0
 40 48  1  0  0  0  0
 41 49  1  0  0  0  0
 42 50  1  0  0  0  0
 43 48  1  0  0  0  0
 43 49  1  0  0  0  0
 44 67  1  0  0  0  0
 45 50  1  0  0  0  0
 45 67  1  0  0  0  0
 46 70  1  0  0  0  0
 47 66  1  0  0  0  0
 48 58  1  0  0  0  0
 49 62  1  0  0  0  0
 50 65  1  0  0  0  0
 51 61  1  0  0  0  0
 52 62  1  0  0  0  0
 53 63  1  0  0  0  0
 54 63  1  0  0  0  0
 55 63  1  0  0  0  0
 56 73  1  0  0  0  0
 58 81  1  0  0  0  0
 59 62  1  0  0  0  0
 59 71  1  0  0  0  0
 60 63  1  0  0  0  0
 60 72  1  0  0  0  0
 61 73  1  0  0  0  0
 64 65  1  0  0  0  0
M  CHG  1  73   1
M  ISO  4  30 100  57 100  58 101  81 101
M  END
> <Batch ID>
0119

> <Smiles>
CNC(C)C(=O)NC(C(=O)N1Cc2cc([101O:1][101CH2:1]C3CCC(C(C)CNC(=O)[100CH2:0][100C:0](=O)N4CCCC(n5nc(-c6ccc(Oc7ccc(F)cc7F)cc6)c(C(N)=O)c5N)C4)C3)ccc2CC1C(=O)NC1CCCc2ccccc21)C(C)(C)C

> <Shape>
0.221

> <Color>
0.209

> <Negative vol penalty>
0.000

$$$$

  -OEChem-04052320203D

 82 90  0     1  0  0  0  0  0999 V2000
  -27.5103  -19.3022   23.6201 C   0  0  0  0  0  0  0  0  0  0  0  0
  -27.9048  -20.4913   23.0153 C   0  0  0  0  0  0  0  0  0  0  0  0
  -25.4732  -15.0449   21.8744 C   0  0  0  0  0  0  0  0  0  0  0  0
  -25.6493  -13.9256   19.7406 C   0  0  0  0  0  0  0  0  0  0  0  0
  -26.1620  -18.9480   23.6453 C   0  0  0  0  0  0  0  0  0  0  0  0
  -26.9512  -21.3265   22.4344 C   0  0  0  0  0  0  0  0  0  0  0  0
  -27.6561  -26.1992   23.6196 C   0  0  0  0  0  0  0  0  0  0  0  0
  -24.4289  -14.1934   22.2349 C   0  0  0  0  0  0  0  0  0  0  0  0
  -24.6050  -13.0740   20.1011 C   0  0  0  0  0  0  0  0  0  0  0  0
  -28.6606  -26.8821   22.9352 C   0  0  0  0  0  0  0  0  0  0  0  0
  -22.2255  -10.3712   20.6018 C   0  0  0  0  0  0  0  0  0  0  0  0
  -22.3777   -9.0098   20.3391 C   0  0  0  0  0  0  0  0  0  0  0  0
  -26.9996  -27.8584   21.4836 C   0  0  0  0  0  0  0  0  0  0  0  0
  -24.3369   -8.9563   21.7519 C   0  0  0  0  0  0  0  0  0  0  0  0
  -26.0833  -14.9110   20.6272 C   0  0  0  0  0  0  0  0  0  0  0  0
  -28.5377  -15.5893   20.4730 C   0  0  0  0  0  0  0  0  0  0  0  0
  -25.1904  -19.7840   23.0729 C   0  0  0  0  0  0  0  0  0  0  0  0
  -26.3146  -26.3325   23.2336 C   0  0  0  0  0  0  0  0  0  0  0  0
  -25.5888  -20.9826   22.4508 C   0  0  0  0  0  0  0  0  0  0  0  0
  -25.9797  -27.1781   22.1664 C   0  0  0  0  0  0  0  0  0  0  0  0
  -23.9948  -13.2079   21.3483 C   0  0  0  0  0  0  0  0  0  0  0  0
  -28.3328  -27.7096   21.8652 C   0  0  0  0  0  0  0  0  0  0  0  0
  -23.1290  -11.0252   21.4394 C   0  0  0  0  0  0  0  0  0  0  0  0
  -23.4334   -8.3023   20.9142 C   0  0  0  0  0  0  0  0  0  0  0  0
  -24.1846  -10.3178   22.0145 C   0  0  0  0  0  0  0  0  0  0  0  0
  -27.1617  -15.7907   20.2540 C   0  0  0  0  0  0  0  0  0  0  0  0
  -29.1373  -16.7029   19.9374 C   0  0  0  0  0  0  0  0  0  0  0  0
  -29.2134  -14.4934   21.1040 C   0  0  0  0  0  0  0  0  0  0  0  0
  -24.0838  -24.3438   22.1510 C   0  0  0  0  0  0  0  0  0  0  0  0
  -22.1722  -26.9479   22.4463 C   0  0  0  0  0  0  0  0  0  0  0  0
  -21.9074  -30.3479   22.5748 C   0  0  0  0  0  0  0  0  0  0  0  0
  -30.5717  -27.9932   17.8954 C   0  0  0  0  0  0  0  0  0  0  0  0
  -29.5526  -21.9960   19.1478 C   0  0  0  0  0  0  0  0  0  0  0  0
  -23.7502  -19.3361   23.0831 C   0  0  0  0  0  0  0  0  0  0  0  0
  -25.2402  -25.6100   23.9991 C   0  0  0  0  0  0  0  0  0  0  0  0
  -24.5526  -27.3713   21.7253 C   0  0  0  0  0  0  0  0  0  0  0  0
  -22.7614  -20.4575   22.7749 C   0  0  0  0  0  0  0  0  0  0  0  0
  -27.2680  -20.3833   17.0259 C   0  0  0  0  0  0  0  0  0  0  0  0
  -23.2260  -21.2612   21.5646 C   0  0  0  0  0  0  0  0  0  0  0  0
  -27.1436  -19.0158   17.6973 C   0  0  0  0  0  0  0  0  0  0  0  0
  -30.4034  -24.9505   17.0755 C   0  0  0  0  0  0  0  0  0  0  0  0
  -28.1435  -25.3233   18.1542 C   0  0  0  0  0  0  0  0  0  0  0  0
  -27.3202  -21.5206   18.0476 C   0  0  0  0  0  0  0  0  0  0  0  0
  -30.7274  -23.9294   18.1649 C   0  0  0  0  0  0  0  0  0  0  0  0
  -28.5205  -24.2971   19.2202 C   0  0  0  0  0  0  0  0  0  0  0  0
  -28.2403  -19.9842   19.7534 C   0  0  0  0  0  0  0  0  0  0  0  0
  -24.5813  -21.9270   21.8316 C   0  0  1  0  0  0  0  0  0  0  0  0
  -23.9588  -25.4184   23.1937 C   0  0  1  0  0  0  0  0  0  0  0  0
  -28.2446  -18.8168   18.7542 C   0  0  1  0  0  0  0  0  0  0  0  0
  -29.3708  -25.9848   17.5249 C   0  0  0  0  0  0  0  0  0  0  0  0
  -20.2109  -32.1851   22.7838 C   0  0  0  0  0  0  0  0  0  0  0  0
  -21.3652  -26.5306   19.5335 C   0  0  0  0  0  0  0  0  0  0  0  0
  -20.4586  -28.8643   19.5231 C   0  0  0  0  0  0  0  0  0  0  0  0
  -19.4839  -27.1563   21.0579 C   0  0  0  0  0  0  0  0  0  0  0  0
  -23.1113  -31.3311   25.0934 C   0  0  0  0  0  0  0  0  0  0  0  0
  -31.1433  -28.8529   18.9996 C   0  0  0  0  0  0  0  0  0  0  0  0
  -30.1337  -29.8772   19.5075 C   0  0  0  0  0  0  0  0  0  0  0  0
  -28.9072  -29.2073   20.1094 C   0  0  0  0  0  0  0  0  0  1  0  0
  -21.7805  -28.0943   21.5456 C   0  0  1  0  0  0  0  0  0  0  0  0
  -21.1647  -31.2650   23.5297 C   0  0  2  0  0  0  0  0  0  0  0  0
  -20.7992  -27.6564   20.4218 C   0  0  0  0  0  0  0  0  0  0  0  0
  -26.9023  -16.9419   19.6282 N   0  0  0  0  0  0  0  0  0  0  0  0
  -28.1235  -17.4738   19.4495 N   0  0  0  0  0  0  0  0  0  0  0  0
  -23.5386  -26.6384   22.5013 N   0  0  0  0  0  0  0  0  0  0  0  0
  -28.3575  -21.2667   19.0563 N   0  0  0  0  0  0  0  0  0  0  0  0
  -29.5134  -23.3350   18.7235 N   0  0  0  0  0  0  0  0  0  0  0  0
  -30.4275  -17.0881   19.8410 N   0  0  0  0  0  0  0  0  0  0  0  0
  -28.4454  -13.4307   21.5990 N   0  0  0  0  0  0  0  0  0  0  0  0
  -24.4129  -23.1019   22.6596 N   0  0  0  0  0  0  0  0  0  0  0  0
  -21.2601  -29.1404   22.4192 N   0  0  0  0  0  0  0  0  0  0  0  0
  -22.1281  -32.1067   24.2941 N   0  3  0  0  0  0  0  0  0  0  0  0
  -30.4601  -14.4655   21.2401 O   0  0  0  0  0  0  0  0  0  0  0  0
  -23.8941  -24.6206   20.9724 O   0  0  0  0  0  0  0  0  0  0  0  0
  -21.2989  -26.3537   23.0833 O   0  0  0  0  0  0  0  0  0  0  0  0
  -22.9549  -30.6718   22.0195 O   0  0  0  0  0  0  0  0  0  0  0  0
  -30.6447  -28.2398   16.6994 O   0  0  0  0  0  0  0  0  0  0  0  0
  -30.5933  -21.4836   19.5784 O   0  0  0  0  0  0  0  0  0  0  0  0
  -22.9760  -12.3767   21.6998 O   0  0  0  0  0  0  0  0  0  0  0  0
  -29.3186  -28.3816   21.1901 O   0  0  0  0  0  0  0  0  0  1  0  0
  -29.9618  -26.8976   18.4473 O   0  0  0  0  0  0  0  0  0  0  0  0
  -23.5786   -6.9946   20.6631 F   0  0  0  0  0  0  0  0  0  0  0  0
  -25.0551  -10.9404   22.8211 F   0  0  0  0  0  0  0  0  0  0  0  0
  1  2  1  0  0  0  0
  1  5  2  0  0  0  0
  2  6  2  0  0  0  0
  3  8  2  0  0  0  0
  3 15  1  0  0  0  0
  4  9  1  0  0  0  0
  4 15  2  0  0  0  0
  5 17  1  0  0  0  0
  6 19  1  0  0  0  0
  7 10  2  0  0  0  0
  7 18  1  0  0  0  0
  8 21  1  0  0  0  0
  9 21  2  0  0  0  0
 10 22  1  0  0  0  0
 11 12  2  0  0  0  0
 11 23  1  0  0  0  0
 12 24  1  0  0  0  0
 13 20  1  0  0  0  0
 13 22  2  0  0  0  0
 14 24  2  0  0  0  0
 14 25  1  0  0  0  0
 15 26  1  0  0  0  0
 16 26  1  0  0  0  0
 16 27  2  0  0  0  0
 16 28  1  0  0  0  0
 17 19  2  0  0  0  0
 17 34  1  0  0  0  0
 18 20  2  0  0  0  0
 18 35  1  0  0  0  0
 19 47  1  0  0  0  0
 20 36  1  0  0  0  0
 21 78  1  0  0  0  0
 22 79  1  0  0  0  0
 23 25  2  0  0  0  0
 23 78  1  0  0  0  0
 24 81  1  0  0  0  0
 25 82  1  0  0  0  0
 26 62  2  0  0  0  0
 27 63  1  0  0  0  0
 27 67  1  0  0  0  0
 28 68  1  0  0  0  0
 28 72  2  0  0  0  0
 29 48  1  0  0  0  0
 29 69  1  0  0  0  0
 29 73  2  0  0  0  0
 30 59  1  0  0  0  0
 30 64  1  0  0  0  0
 30 74  2  0  0  0  0
 31 60  1  0  0  0  0
 31 70  1  0  0  0  0
 31 75  2  0  0  0  0
 32 56  1  0  0  0  0
 32 76  2  0  0  0  0
 32 80  1  0  0  0  0
 33 65  1  0  0  0  0
 33 66  1  0  0  0  0
 33 77  2  0  0  0  0
 34 37  1  0  0  0  0
 35 48  1  0  0  0  0
 36 64  1  0  0  0  0
 37 39  1  0  0  0  0
 38 40  1  0  0  0  0
 38 43  1  0  0  0  0
 39 47  1  0  0  0  0
 40 49  1  0  0  0  0
 41 44  1  0  0  0  0
 41 50  1  0  0  0  0
 42 45  1  0  0  0  0
 42 50  1  0  0  0  0
 43 65  1  0  0  0  0
 44 66  1  0  0  0  0
 45 66  1  0  0  0  0
 46 49  1  0  0  0  0
 46 65  1  0  0  0  0
 47 69  1  0  0  0  0
 48 64  1  0  0  0  0
 49 63  1  0  0  0  0
 50 80  1  0  0  0  0
 51 60  1  0  0  0  0
 52 61  1  0  0  0  0
 53 61  1  0  0  0  0
 54 61  1  0  0  0  0
 55 71  1  0  0  0  0
 56 57  1  0  0  0  0
 57 58  1  0  0  0  0
 58 79  1  0  0  0  0
 59 61  1  0  0  0  0
 59 70  1  0  0  0  0
 60 71  1  0  0  0  0
 62 63  1  0  0  0  0
M  CHG  1  71   1
M  ISO  4  33 100  58 101  66 100  79 101
M  END
> <Batch ID>
0119

> <Smiles>
CNC(C)C(=O)NC(C(=O)N1Cc2cc([101O:1][101CH2:1]CCC(=O)OC3CC[100N:0]([100C:0](=O)N4CCCC(n5nc(-c6ccc(Oc7ccc(F)cc7F)cc6)c(C(N)=O)c5N)C4)CC3)ccc2CC1C(=O)NC1CCCc2ccccc21)C(C)(C)C

> <Shape>
0.231

> <Color>
0.052

> <Negative vol penalty>
0.000

$$$$

  -OEChem-04052320203D

 89 97  0     1  0  0  0  0  0999 V2000
  -20.4553  -34.2013   23.4845 C   0  0  0  0  0  0  0  0  0  0  0  0
  -21.7354  -33.7360   23.2013 C   0  0  0  0  0  0  0  0  0  0  0  0
  -22.4957  -10.0714   23.4365 C   0  0  0  0  0  0  0  0  0  0  0  0
  -23.9736  -10.0551   21.5253 C   0  0  0  0  0  0  0  0  0  0  0  0
  -19.4499  -33.3018   23.8367 C   0  0  0  0  0  0  0  0  0  0  0  0
  -22.0112  -32.3709   23.2714 C   0  0  0  0  0  0  0  0  0  0  0  0
  -25.8717  -29.2082   19.7218 C   0  0  0  0  0  0  0  0  0  0  0  0
  -21.9462   -8.8583   23.0219 C   0  0  0  0  0  0  0  0  0  0  0  0
  -23.4241   -8.8419   21.1107 C   0  0  0  0  0  0  0  0  0  0  0  0
  -27.1853  -28.7816   19.9122 C   0  0  0  0  0  0  0  0  0  0  0  0
  -22.7770   -5.5823   23.1259 C   0  0  0  0  0  0  0  0  0  0  0  0
  -22.5885   -4.5927   24.0906 C   0  0  0  0  0  0  0  0  0  0  0  0
  -32.2479  -24.2573   19.4710 C   0  0  0  0  0  0  0  0  0  0  0  0
  -26.3746  -26.6282   20.6367 C   0  0  0  0  0  0  0  0  0  0  0  0
  -20.2171   -4.5936   23.6281 C   0  0  0  0  0  0  0  0  0  0  0  0
  -32.8258  -23.0301   19.7536 C   0  0  0  0  0  0  0  0  0  0  0  0
  -23.5094  -10.6699   22.6881 C   0  0  0  0  0  0  0  0  0  0  0  0
  -25.1818  -12.1095   23.9680 C   0  0  0  0  0  0  0  0  0  0  0  0
  -19.7111  -31.9240   23.9017 C   0  0  0  0  0  0  0  0  0  0  0  0
  -24.7975  -28.3501   19.9982 C   0  0  0  0  0  0  0  0  0  0  0  0
  -21.0087  -31.4523   23.6261 C   0  0  0  0  0  0  0  0  0  0  0  0
  -25.0484  -27.0454   20.4465 C   0  0  0  0  0  0  0  0  0  0  0  0
  -30.1683  -23.0958   19.1380 C   0  0  0  0  0  0  0  0  0  0  0  0
  -22.4104   -8.2435   21.8590 C   0  0  0  0  0  0  0  0  0  0  0  0
  -27.4368  -27.4924   20.3725 C   0  0  0  0  0  0  0  0  0  0  0  0
  -21.6856   -6.0777   22.4123 C   0  0  0  0  0  0  0  0  0  0  0  0
  -30.8933  -24.2821   19.1582 C   0  0  0  0  0  0  0  0  0  0  0  0
  -21.3085   -4.0983   24.3417 C   0  0  0  0  0  0  0  0  0  0  0  0
  -20.4057   -5.5833   22.6634 C   0  0  0  0  0  0  0  0  0  0  0  0
  -24.0771  -11.9233   23.1156 C   0  0  0  0  0  0  0  0  0  0  0  0
  -30.8394  -21.9207   19.4354 C   0  0  0  0  0  0  0  0  0  0  0  0
  -25.3181  -13.4731   24.0607 C   0  0  0  0  0  0  0  0  0  0  0  0
  -26.0108  -11.1368   24.6179 C   0  0  0  0  0  0  0  0  0  0  0  0
  -22.3463  -28.4047   22.0211 C   0  0  0  0  0  0  0  0  0  0  0  0
  -21.4537  -25.7398   20.4013 C   0  0  0  0  0  0  0  0  0  0  0  0
  -22.3701  -23.0839   18.4639 C   0  0  0  0  0  0  0  0  0  0  0  0
  -25.4277  -18.5252   21.6923 C   0  0  0  0  0  0  0  0  0  0  0  0
  -18.6042  -30.9949   24.3331 C   0  0  0  0  0  0  0  0  0  0  0  0
  -23.3872  -28.8165   19.7622 C   0  0  0  0  0  0  0  0  0  0  0  0
  -23.9310  -26.0787   20.7385 C   0  0  0  0  0  0  0  0  0  0  0  0
  -18.8840  -29.5273   24.0197 C   0  0  0  0  0  0  0  0  0  0  0  0
  -22.2409  -17.1984   22.5643 C   0  0  0  0  0  0  0  0  0  0  0  0
  -20.3022  -29.1530   24.4385 C   0  0  0  0  0  0  0  0  0  0  0  0
  -22.5247  -15.7226   22.8495 C   0  0  0  0  0  0  0  0  0  0  0  0
  -23.0990  -17.7266   21.4169 C   0  0  0  0  0  0  0  0  0  0  0  0
  -24.8326  -16.0324   21.8616 C   0  0  0  0  0  0  0  0  0  0  0  0
  -21.3407  -29.9764   23.6672 C   0  0  1  0  0  0  0  0  0  0  0  0
  -22.3556  -28.0308   20.5658 C   0  0  1  0  0  0  0  0  0  0  0  0
  -24.0313  -15.4694   23.0478 C   0  0  2  0  0  0  0  0  0  0  0  0
  -28.7147  -23.0979   18.8044 C   0  0  0  0  0  0  0  0  0  0  0  0
  -21.4253  -21.0562   17.3267 C   0  0  0  0  0  0  0  0  0  0  0  0
  -31.9163  -18.9604   20.2045 C   0  0  0  0  0  0  0  0  0  0  0  0
  -21.2835  -24.3125   23.0927 C   0  0  0  0  0  0  0  0  0  0  0  0
  -21.2803  -22.1341   21.8587 C   0  0  0  0  0  0  0  0  0  0  0  0
  -19.4297  -23.7689   21.5046 C   0  0  0  0  0  0  0  0  0  0  0  0
  -23.1926  -24.0560   15.7923 C   0  0  0  0  0  0  0  0  0  0  0  0
  -31.1183  -20.1196   16.6801 C   0  0  0  0  0  0  0  0  0  0  0  0
  -27.8032  -19.1718   22.0054 C   0  0  0  0  0  0  0  0  0  0  0  0
  -28.4327  -19.4025   20.6390 C   0  0  0  0  0  0  0  0  0  0  0  0
  -29.7179  -27.6453   19.7172 C   0  0  0  0  0  0  0  0  0  1  0  0
  -30.8280  -26.6333   19.5094 C   0  0  0  0  0  0  0  0  0  0  0  0
  -30.1128  -20.6154   19.4280 C   0  0  1  0  0  0  0  0  0  0  0  0
  -21.7178  -24.2607   20.5482 C   0  0  1  0  0  0  0  0  0  0  0  0
  -21.7866  -22.5260   17.1783 C   0  0  2  0  0  0  0  0  0  0  0  0
  -30.9960  -19.3915   19.0663 C   0  0  1  0  0  0  0  0  0  0  0  0
  -20.9491  -23.6377   21.7475 C   0  0  0  0  0  0  0  0  0  0  0  0
  -32.1541  -21.8570   19.7439 N   0  0  0  0  0  0  0  0  0  0  0  0
  -23.5489  -13.0764   22.6967 N   0  0  0  0  0  0  0  0  0  0  0  0
  -24.3251  -14.0002   23.2885 N   0  0  0  0  0  0  0  0  0  0  0  0
  -22.5691  -26.5837   20.4981 N   0  0  0  0  0  0  0  0  0  0  0  0
  -24.5167  -17.4563   21.6675 N   0  0  0  0  0  0  0  0  0  0  0  0
  -26.1891  -14.2606   24.7267 N   0  0  0  0  0  0  0  0  0  0  0  0
  -25.7319   -9.7784   24.4148 N   0  0  0  0  0  0  0  0  0  0  0  0
  -21.5035  -29.4563   22.3265 N   0  0  0  0  0  0  0  0  0  0  0  0
  -21.4003  -23.6592   19.2575 N   0  0  0  0  0  0  0  0  0  0  0  0
  -26.7507  -18.1823   21.9427 N   0  0  0  0  0  0  0  0  0  0  0  0
  -29.4980  -20.3893   20.7334 N   0  0  0  0  0  0  0  0  0  0  0  0
  -22.7672  -22.6587   16.0640 N   0  3  0  0  0  0  0  0  0  0  0  0
  -31.8693  -19.7389   17.9006 N   0  3  0  0  0  0  0  0  0  0  0  0
  -26.9603  -11.4627   25.3701 O   0  0  0  0  0  0  0  0  0  0  0  0
  -23.0504  -27.7839   22.8089 O   0  0  0  0  0  0  0  0  0  0  0  0
  -20.3013  -26.1313   20.2007 O   0  0  0  0  0  0  0  0  0  0  0  0
  -23.5660  -23.0128   18.7385 O   0  0  0  0  0  0  0  0  0  0  0  0
  -25.0864  -19.6988   21.5103 O   0  0  0  0  0  0  0  0  0  0  0  0
  -21.8745   -7.0596   21.4543 O   0  0  0  0  0  0  0  0  0  0  0  0
  -28.7180  -27.0737   20.5598 O   0  0  0  0  0  0  0  0  0  1  0  0
  -30.2919  -25.4797   18.8731 O   0  0  0  0  0  0  0  0  0  0  0  0
  -21.1278   -3.1469   25.2671 F   0  0  0  0  0  0  0  0  0  0  0  0
  -19.3535   -6.0544   21.9802 F   0  0  0  0  0  0  0  0  0  0  0  0
  1  2  1  0  0  0  0
  1  5  2  0  0  0  0
  2  6  2  0  0  0  0
  3  8  2  0  0  0  0
  3 17  1  0  0  0  0
  4  9  1  0  0  0  0
  4 17  2  0  0  0  0
  5 19  1  0  0  0  0
  6 21  1  0  0  0  0
  7 10  2  0  0  0  0
  7 20  1  0  0  0  0
  8 24  1  0  0  0  0
  9 24  2  0  0  0  0
 10 25  1  0  0  0  0
 11 12  2  0  0  0  0
 11 26  1  0  0  0  0
 12 28  1  0  0  0  0
 13 16  2  0  0  0  0
 13 27  1  0  0  0  0
 14 22  1  0  0  0  0
 14 25  2  0  0  0  0
 15 28  2  0  0  0  0
 15 29  1  0  0  0  0
 16 67  1  0  0  0  0
 17 30  1  0  0  0  0
 18 30  1  0  0  0  0
 18 32  2  0  0  0  0
 18 33  1  0  0  0  0
 19 21  2  0  0  0  0
 19 38  1  0  0  0  0
 20 22  2  0  0  0  0
 20 39  1  0  0  0  0
 21 47  1  0  0  0  0
 22 40  1  0  0  0  0
 23 27  2  0  0  0  0
 23 31  1  0  0  0  0
 23 50  1  0  0  0  0
 24 85  1  0  0  0  0
 25 86  1  0  0  0  0
 26 29  2  0  0  0  0
 26 85  1  0  0  0  0
 27 87  1  0  0  0  0
 28 88  1  0  0  0  0
 29 89  1  0  0  0  0
 30 68  2  0  0  0  0
 31 62  1  0  0  0  0
 31 67  2  0  0  0  0
 32 69  1  0  0  0  0
 32 72  1  0  0  0  0
 33 73  1  0  0  0  0
 33 80  2  0  0  0  0
 34 48  1  0  0  0  0
 34 74  1  0  0  0  0
 34 81  2  0  0  0  0
 35 63  1  0  0  0  0
 35 70  1  0  0  0  0
 35 82  2  0  0  0  0
 36 64  1  0  0  0  0
 36 75  1  0  0  0  0
 36 83  2  0  0  0  0
 37 71  1  0  0  0  0
 37 76  1  0  0  0  0
 37 84  2  0  0  0  0
 38 41  1  0  0  0  0
 39 48  1  0  0  0  0
 40 70  1  0  0  0  0
 41 43  1  0  0  0  0
 42 44  1  0  0  0  0
 42 45  1  0  0  0  0
 43 47  1  0  0  0  0
 44 49  1  0  0  0  0
 45 71  1  0  0  0  0
 46 49  1  0  0  0  0
 46 71  1  0  0  0  0
 47 74  1  0  0  0  0
 48 70  1  0  0  0  0
 49 69  1  0  0  0  0
 51 64  1  0  0  0  0
 52 65  1  0  0  0  0
 53 66  1  0  0  0  0
 54 66  1  0  0  0  0
 55 66  1  0  0  0  0
 56 78  1  0  0  0  0
 57 79  1  0  0  0  0
 58 59  1  0  0  0  0
 58 76  1  0  0  0  0
 59 77  1  0  0  0  0
 60 61  1  0  0  0  0
 60 86  1  0  0  0  0
 61 87  1  0  0  0  0
 62 65  1  0  0  0  0
 62 77  1  0  0  0  0
 63 66  1  0  0  0  0
 63 75  1  0  0  0  0
 64 78  1  0  0  0  0
 65 79  1  0  0  0  0
 68 69  1  0  0  0  0
M  CHG  2  78   1  79   1
M  ISO  4  37 100  60 101  76 100  86 101
M  END
> <Batch ID>
0119

> <Smiles>
CNC(C)C(=O)NC(C(=O)N1Cc2cc([101O:1][101CH2:1]COc3ccnc(C(NCC[100NH:0][100C:0](=O)N4CCCC(n5nc(-c6ccc(Oc7ccc(F)cc7F)cc6)c(C(N)=O)c5N)C4)C(C)NC)c3C)ccc2CC1C(=O)NC1CCCc2ccccc21)C(C)(C)C

> <Shape>
0.203

> <Color>
0.099

> <Negative vol penalty>
0.000

$$$$

  -OEChem-04052320203D

 86 95  0     1  0  0  0  0  0999 V2000
  -28.7766  -21.8345   15.0411 C   0  0  0  0  0  0  0  0  0  0  0  0
  -28.2543  -21.7385   16.3269 C   0  0  0  0  0  0  0  0  0  0  0  0
  -23.1952  -16.0236   22.0107 C   0  0  0  0  0  0  0  0  0  0  0  0
  -22.4317  -15.4725   19.7857 C   0  0  0  0  0  0  0  0  0  0  0  0
  -29.4076  -23.0085   14.6320 C   0  0  0  0  0  0  0  0  0  0  0  0
  -28.3637  -22.8163   17.2049 C   0  0  0  0  0  0  0  0  0  0  0  0
  -24.0485  -23.7465   19.6865 C   0  0  0  0  0  0  0  0  0  0  0  0
  -22.1792  -16.9725   22.1243 C   0  0  0  0  0  0  0  0  0  0  0  0
  -21.4157  -16.4214   19.8993 C   0  0  0  0  0  0  0  0  0  0  0  0
  -23.7390  -22.9127   20.7601 C   0  0  0  0  0  0  0  0  0  0  0  0
  -18.8423  -18.9508   19.4635 C   0  0  0  0  0  0  0  0  0  0  0  0
  -18.6237  -19.7996   18.3785 C   0  0  0  0  0  0  0  0  0  0  0  0
  -28.5358  -21.7542   23.3755 C   0  0  0  0  0  0  0  0  0  0  0  0
  -24.5487  -24.5924   22.2904 C   0  0  0  0  0  0  0  0  0  0  0  0
  -20.8847  -20.6289   18.5718 C   0  0  0  0  0  0  0  0  0  0  0  0
  -27.6281  -22.6296   23.9496 C   0  0  0  0  0  0  0  0  0  0  0  0
  -23.3215  -15.2736   20.8414 C   0  0  0  0  0  0  0  0  0  0  0  0
  -24.3086  -12.9336   21.0812 C   0  0  0  0  0  0  0  0  0  0  0  0
  -29.5164  -24.1046   15.5022 C   0  0  0  0  0  0  0  0  0  0  0  0
  -24.6216  -25.0073   19.9067 C   0  0  0  0  0  0  0  0  0  0  0  0
  -28.9981  -24.0056   16.8076 C   0  0  0  0  0  0  0  0  0  0  0  0
  -24.8623  -25.4414   21.2180 C   0  0  0  0  0  0  0  0  0  0  0  0
  -26.6594  -20.4657   22.5986 C   0  0  0  0  0  0  0  0  0  0  0  0
  -21.2894  -17.1714   21.0687 C   0  0  0  0  0  0  0  0  0  0  0  0
  -23.9917  -23.3344   22.0622 C   0  0  0  0  0  0  0  0  0  0  0  0
  -20.0821  -18.9410   20.1027 C   0  0  0  0  0  0  0  0  0  0  0  0
  -28.0341  -20.6542   22.6889 C   0  0  0  0  0  0  0  0  0  0  0  0
  -19.6449  -20.6387   17.9326 C   0  0  0  0  0  0  0  0  0  0  0  0
  -21.1033  -19.7801   19.6569 C   0  0  0  0  0  0  0  0  0  0  0  0
  -24.3711  -14.2936   20.7232 C   0  0  0  0  0  0  0  0  0  0  0  0
  -25.8357  -21.3987   23.2077 C   0  0  0  0  0  0  0  0  0  0  0  0
  -25.5535  -12.4404   20.7753 C   0  0  0  0  0  0  0  0  0  0  0  0
  -23.2224  -12.1831   21.6403 C   0  0  0  0  0  0  0  0  0  0  0  0
  -27.3705  -26.3915   19.1122 C   0  0  0  0  0  0  0  0  0  0  0  0
  -25.9819  -29.0119   20.4266 C   0  0  0  0  0  0  0  0  0  0  0  0
  -23.6668  -30.2893   22.5842 C   0  0  0  0  0  0  0  0  0  0  0  0
  -30.9237  -15.0286   20.2703 C   0  0  0  0  0  0  0  0  0  0  0  0
  -30.2490  -25.3358   15.0309 C   0  0  0  0  0  0  0  0  0  0  0  0
  -24.9249  -25.9057   18.7391 C   0  0  0  0  0  0  0  0  0  0  0  0
  -25.4574  -26.7941   21.5090 C   0  0  0  0  0  0  0  0  0  0  0  0
  -29.9923  -26.5663   15.8971 C   0  0  0  0  0  0  0  0  0  0  0  0
  -29.2409  -13.1085   17.8291 C   0  0  0  0  0  0  0  0  0  0  0  0
  -30.1156  -26.2133   17.3759 C   0  0  0  0  0  0  0  0  0  0  0  0
  -27.7891  -13.0902   18.2993 C   0  0  0  0  0  0  0  0  0  0  0  0
  -31.7225  -17.4193   22.9803 C   0  0  0  0  0  0  0  0  0  0  0  0
  -29.8812  -14.4625   18.1041 C   0  0  0  0  0  0  0  0  0  0  0  0
  -32.0927  -16.2536   22.0766 C   0  0  0  0  0  0  0  0  0  0  0  0
  -29.8992  -17.0365   21.4972 C   0  0  0  0  0  0  0  0  0  0  0  0
  -28.3978  -14.8322   20.0566 C   0  0  0  0  0  0  0  0  0  0  0  0
  -29.0752  -25.1620   17.7807 C   0  0  1  0  0  0  0  0  0  0  0  0
  -25.9810  -26.9604   19.0553 C   0  0  1  0  0  0  0  0  0  0  0  0
  -30.6863  -18.1745   22.1470 C   0  0  1  0  0  0  0  0  0  0  0  0
  -27.6946  -13.4871   19.7807 C   0  0  1  0  0  0  0  0  0  0  0  0
  -26.0983  -19.2928   21.8682 C   0  0  0  0  0  0  0  0  0  0  0  0
  -23.7857  -20.4543   24.3252 C   0  0  0  0  0  0  0  0  0  0  0  0
  -22.7919  -32.4675   23.4717 C   0  0  0  0  0  0  0  0  0  0  0  0
  -28.4576  -29.2854   22.1891 C   0  0  0  0  0  0  0  0  0  0  0  0
  -27.1535  -30.8358   23.6601 C   0  0  0  0  0  0  0  0  0  0  0  0
  -27.5814  -31.4437   21.2789 C   0  0  0  0  0  0  0  0  0  0  0  0
  -20.9506  -29.7589   21.5353 C   0  0  0  0  0  0  0  0  0  0  0  0
  -29.8218  -19.1114   22.9715 C   0  0  0  0  0  0  0  0  0  0  0  0
  -24.3508  -21.2477   23.1451 C   0  0  1  0  0  0  0  0  0  1  0  0
  -25.9242  -29.6101   21.8115 C   0  0  1  0  0  0  0  0  0  0  0  0
  -22.6297  -31.3850   22.4159 C   0  0  2  0  0  0  0  0  0  0  0  0
  -27.2697  -30.2674   22.2297 C   0  0  0  0  0  0  0  0  0  0  0  0
  -26.2862  -22.4797   23.8831 N   0  0  0  0  0  0  0  0  0  0  0  0
  -25.5616  -14.6422   20.2278 N   0  0  0  0  0  0  0  0  0  0  0  0
  -26.2586  -13.4941   20.2725 N   0  0  0  0  0  0  0  0  0  0  0  0
  -25.7424  -27.6336   20.3336 N   0  0  0  0  0  0  0  0  0  0  0  0
  -29.7619  -14.8446   19.5124 N   0  0  0  0  0  0  0  0  0  0  0  0
  -30.8961  -15.9839   21.2854 N   0  0  0  0  0  0  0  0  0  0  0  0
  -26.1028  -11.2126   20.8901 N   0  0  0  0  0  0  0  0  0  0  0  0
  -22.0129  -12.8449   21.8922 N   0  0  0  0  0  0  0  0  0  0  0  0
  -27.7743  -25.7748   17.9435 N   0  0  0  0  0  0  0  0  0  0  0  0
  -24.7866  -30.5235   21.8145 N   0  0  0  0  0  0  0  0  0  0  0  0
  -21.2555  -30.8195   22.5298 N   0  3  0  0  0  0  0  0  0  0  0  0
  -23.3266  -10.9656   21.9238 O   0  0  0  0  0  0  0  0  0  0  0  0
  -28.0282  -26.5050   20.1400 O   0  0  0  0  0  0  0  0  0  0  0  0
  -26.2233  -29.7420   19.4621 O   0  0  0  0  0  0  0  0  0  0  0  0
  -23.5017  -29.3243   23.3272 O   0  0  0  0  0  0  0  0  0  0  0  0
  -31.9591  -14.3955   20.0235 O   0  0  0  0  0  0  0  0  0  0  0  0
  -20.2978  -18.0971   21.1793 O   0  0  0  0  0  0  0  0  0  0  0  0
  -28.9066  -19.7680   22.1096 O   0  0  0  0  0  0  0  0  0  0  0  0
  -23.6902  -22.5196   23.1152 O   0  0  0  0  0  0  0  0  0  1  0  0
  -19.4353  -21.4527   16.8897 F   0  0  0  0  0  0  0  0  0  0  0  0
  -22.2968  -19.7743   20.2662 F   0  0  0  0  0  0  0  0  0  0  0  0
  1  2  1  0  0  0  0
  1  5  2  0  0  0  0
  2  6  2  0  0  0  0
  3  8  2  0  0  0  0
  3 17  1  0  0  0  0
  4  9  1  0  0  0  0
  4 17  2  0  0  0  0
  5 19  1  0  0  0  0
  6 21  1  0  0  0  0
  7 10  2  0  0  0  0
  7 20  1  0  0  0  0
  8 24  1  0  0  0  0
  9 24  2  0  0  0  0
 10 25  1  0  0  0  0
 11 12  2  0  0  0  0
 11 26  1  0  0  0  0
 12 28  1  0  0  0  0
 13 16  1  0  0  0  0
 13 27  2  0  0  0  0
 14 22  1  0  0  0  0
 14 25  2  0  0  0  0
 15 28  2  0  0  0  0
 15 29  1  0  0  0  0
 16 66  2  0  0  0  0
 17 30  1  0  0  0  0
 18 30  1  0  0  0  0
 18 32  2  0  0  0  0
 18 33  1  0  0  0  0
 19 21  2  0  0  0  0
 19 38  1  0  0  0  0
 20 22  2  0  0  0  0
 20 39  1  0  0  0  0
 21 50  1  0  0  0  0
 22 40  1  0  0  0  0
 23 27  1  0  0  0  0
 23 31  2  0  0  0  0
 23 54  1  0  0  0  0
 24 82  1  0  0  0  0
 25 84  1  0  0  0  0
 26 29  2  0  0  0  0
 26 82  1  0  0  0  0
 27 83  1  0  0  0  0
 28 85  1  0  0  0  0
 29 86  1  0  0  0  0
 30 67  2  0  0  0  0
 31 62  1  0  0  0  0
 31 66  1  0  0  0  0
 32 68  1  0  0  0  0
 32 72  1  0  0  0  0
 33 73  1  0  0  0  0
 33 77  2  0  0  0  0
 34 51  1  0  0  0  0
 34 74  1  0  0  0  0
 34 78  2  0  0  0  0
 35 63  1  0  0  0  0
 35 69  1  0  0  0  0
 35 79  2  0  0  0  0
 36 64  1  0  0  0  0
 36 75  1  0  0  0  0
 36 80  2  0  0  0  0
 37 70  1  0  0  0  0
 37 71  1  0  0  0  0
 37 81  2  0  0  0  0
 38 41  1  0  0  0  0
 39 51  1  0  0  0  0
 40 69  1  0  0  0  0
 41 43  1  0  0  0  0
 42 44  1  0  0  0  0
 42 46  1  0  0  0  0
 43 50  1  0  0  0  0
 44 53  1  0  0  0  0
 45 47  1  0  0  0  0
 45 52  1  0  0  0  0
 46 70  1  0  0  0  0
 47 71  1  0  0  0  0
 48 52  1  0  0  0  0
 48 71  1  0  0  0  0
 49 53  1  0  0  0  0
 49 70  1  0  0  0  0
 50 74  1  0  0  0  0
 51 69  1  0  0  0  0
 52 61  1  0  0  0  0
 53 68  1  0  0  0  0
 55 62  1  0  0  0  0
 56 64  1  0  0  0  0
 57 65  1  0  0  0  0
 58 65  1  0  0  0  0
 59 65  1  0  0  0  0
 60 76  1  0  0  0  0
 61 83  1  0  0  0  0
 62 84  1  0  0  0  0
 63 65  1  0  0  0  0
 63 75  1  0  0  0  0
 64 76  1  0  0  0  0
 67 68  1  0  0  0  0
M  CHG  1  76   1
M  ISO  4  37 100  62 101  71 100  84 101
M  END
> <Batch ID>
0119

> <Smiles>
CNC(C)C(=O)NC(C(=O)N1Cc2cc([101O:1][101CH:1](C)c3nccc(OCC4CC[100N:0]([100C:0](=O)N5CCCC(n6nc(-c7ccc(Oc8ccc(F)cc8F)cc7)c(C(N)=O)c6N)C5)C4)c3C)ccc2CC1C(=O)NC1CCCc2ccccc21)C(C)(C)C

> <Shape>
0.217

> <Color>
0.111

> <Negative vol penalty>
0.000

$$$$

  -OEChem-04052320203D

 90 99  0     1  0  0  0  0  0999 V2000
  -20.2049  -12.7456   16.6432 C   0  0  0  0  0  0  0  0  0  0  0  0
  -20.5041  -14.0601   16.9866 C   0  0  0  0  0  0  0  0  0  0  0  0
  -28.8551  -27.6044   20.1416 C   0  0  0  0  0  0  0  0  0  0  0  0
  -27.3517  -25.8327   19.4798 C   0  0  0  0  0  0  0  0  0  0  0  0
  -20.9368  -11.6972   17.1992 C   0  0  0  0  0  0  0  0  0  0  0  0
  -21.5348  -14.3269   17.8872 C   0  0  0  0  0  0  0  0  0  0  0  0
  -25.3409  -19.1242   17.8103 C   0  0  0  0  0  0  0  0  0  0  0  0
  -23.6491  -23.4737   21.1086 C   0  0  0  0  0  0  0  0  0  0  0  0
  -22.2715  -23.5121   20.8932 C   0  0  0  0  0  0  0  0  0  0  0  0
  -29.9425  -26.7503   19.9581 C   0  0  0  0  0  0  0  0  0  0  0  0
  -28.4391  -24.9785   19.2963 C   0  0  0  0  0  0  0  0  0  0  0  0
  -25.3456  -20.3291   18.5117 C   0  0  0  0  0  0  0  0  0  0  0  0
  -30.4997  -23.1188   21.2266 C   0  0  0  0  0  0  0  0  0  0  0  0
  -30.3999  -21.8240   21.7357 C   0  0  0  0  0  0  0  0  0  0  0  0
  -26.8681  -19.3782   20.1231 C   0  0  0  0  0  0  0  0  0  0  0  0
  -23.3008  -22.1514   23.1004 C   0  0  0  0  0  0  0  0  0  0  0  0
  -30.6921  -20.9269   19.5115 C   0  0  0  0  0  0  0  0  0  0  0  0
  -19.0492  -24.6623   18.4782 C   0  0  0  0  0  0  0  0  0  0  0  0
  -27.5597  -27.1456   19.9025 C   0  0  0  0  0  0  0  0  0  0  0  0
  -26.1910  -29.2464   19.4324 C   0  0  0  0  0  0  0  0  0  0  0  0
  -21.9832  -11.9518   18.0996 C   0  0  0  0  0  0  0  0  0  0  0  0
  -26.0924  -18.0319   18.2669 C   0  0  0  0  0  0  0  0  0  0  0  0
  -22.2805  -13.2809   18.4568 C   0  0  0  0  0  0  0  0  0  0  0  0
  -26.8732  -18.1613   19.4244 C   0  0  0  0  0  0  0  0  0  0  0  0
  -24.1637  -22.7933   22.2122 C   0  0  0  0  0  0  0  0  0  0  0  0
  -21.4085  -22.8702   21.7814 C   0  0  0  0  0  0  0  0  0  0  0  0
  -21.9232  -22.1898   22.8850 C   0  0  0  0  0  0  0  0  0  0  0  0
  -29.7345  -25.4374   19.5355 C   0  0  0  0  0  0  0  0  0  0  0  0
  -26.1070  -20.4554   19.6698 C   0  0  0  0  0  0  0  0  0  0  0  0
  -30.6957  -23.3177   19.8599 C   0  0  0  0  0  0  0  0  0  0  0  0
  -30.4961  -20.7281   20.8782 C   0  0  0  0  0  0  0  0  0  0  0  0
  -30.7919  -22.2217   19.0024 C   0  0  0  0  0  0  0  0  0  0  0  0
  -26.4360  -28.0273   20.0923 C   0  0  0  0  0  0  0  0  0  0  0  0
  -19.2202  -24.6549   19.8338 C   0  0  0  0  0  0  0  0  0  0  0  0
  -25.0053  -29.6921   19.9635 C   0  0  0  0  0  0  0  0  0  0  0  0
  -19.7169  -22.6368   19.0715 C   0  0  0  0  0  0  0  0  0  0  0  0
  -26.9659  -29.9161   18.4291 C   0  0  0  0  0  0  0  0  0  0  0  0
  -25.4030  -15.0894   19.2518 C   0  0  0  0  0  0  0  0  0  0  0  0
  -28.6304  -14.7667   19.2939 C   0  0  0  0  0  0  0  0  0  0  0  0
  -31.6894  -16.2650   19.5050 C   0  0  0  0  0  0  0  0  0  0  0  0
  -20.3847  -26.8911   22.5433 C   0  0  0  0  0  0  0  0  0  0  0  0
  -22.7153  -10.7834   18.7110 C   0  0  0  0  0  0  0  0  0  0  0  0
  -26.0977  -16.7474   17.4842 C   0  0  0  0  0  0  0  0  0  0  0  0
  -27.7135  -17.0251   19.9453 C   0  0  0  0  0  0  0  0  0  0  0  0
  -24.0370  -11.1700   19.3697 C   0  0  0  0  0  0  0  0  0  0  0  0
  -22.3770  -29.4820   23.9558 C   0  0  0  0  0  0  0  0  0  0  0  0
  -23.8558  -12.4059   20.2452 C   0  0  0  0  0  0  0  0  0  0  0  0
  -23.6210  -29.5129   23.0663 C   0  0  0  0  0  0  0  0  0  0  0  0
  -21.8605  -28.0586   24.1544 C   0  0  0  0  0  0  0  0  0  0  0  0
  -22.8584  -27.3406   22.0184 C   0  0  0  0  0  0  0  0  0  0  0  0
  -23.4073  -13.6119   19.4111 C   0  0  1  0  0  0  0  0  0  0  0  0
  -26.4964  -15.5377   18.3239 C   0  0  1  0  0  0  0  0  0  0  0  0
  -23.3834  -28.7601   21.7434 C   0  0  2  0  0  0  0  0  0  0  0  0
  -21.0185  -21.4956   23.8496 C   0  0  0  0  0  0  0  0  0  0  0  0
  -19.3467  -18.8128   18.6903 C   0  0  0  0  0  0  0  0  0  0  0  0
  -34.1424  -15.7376   19.5497 C   0  0  0  0  0  0  0  0  0  0  0  0
  -28.3736  -13.8293   22.1862 C   0  0  0  0  0  0  0  0  0  0  0  0
  -30.8293  -14.2321   22.4616 C   0  0  0  0  0  0  0  0  0  0  0  0
  -30.0214  -12.5417   20.8146 C   0  0  0  0  0  0  0  0  0  0  0  0
  -32.1885  -17.8273   17.0414 C   0  0  0  0  0  0  0  0  0  0  0  0
  -25.6544  -22.7523   22.4454 C   0  0  0  0  0  0  0  0  0  0  0  0
  -19.9373  -22.9260   21.5307 C   0  0  0  0  0  0  0  0  0  0  0  0
  -19.0303  -25.7229   20.8229 C   0  0  0  0  0  0  0  0  0  0  0  0
  -20.1251  -21.2121   18.9934 C   0  0  0  0  0  0  0  0  0  0  0  0
  -18.9236  -20.2686   18.8064 C   0  0  0  0  0  0  0  0  0  0  0  0
  -26.3147  -21.5567   21.7674 C   0  0  0  0  0  0  0  0  0  1  0  0
  -29.7150  -15.0015   20.3174 C   0  0  1  0  0  0  0  0  0  0  0  0
  -32.9510  -16.1003   18.6769 C   0  0  2  0  0  0  0  0  0  0  0  0
  -29.7176  -13.9221   21.4365 C   0  0  0  0  0  0  0  0  0  0  0  0
  -25.4827  -27.7182   20.9753 N   0  0  0  0  0  0  0  0  0  0  0  0
  -19.6331  -23.3891   20.1736 N   0  0  0  0  0  0  0  0  0  0  0  0
  -24.6271  -28.7497   20.8740 N   0  0  0  0  0  0  0  0  0  0  0  0
  -19.3638  -23.4010   18.0329 N   0  3  0  0  0  0  0  0  0  0  0  0
  -27.6804  -15.7876   19.1484 N   0  0  0  0  0  0  0  0  0  0  0  0
  -21.6543  -27.4008   22.8618 N   0  0  0  0  0  0  0  0  0  0  0  0
  -24.2599  -30.7943   19.7359 N   0  0  0  0  0  0  0  0  0  0  0  0
  -26.7073  -29.6277   17.0821 N   0  0  0  0  0  0  0  0  0  0  0  0
  -24.5303  -14.1753   18.6928 N   0  0  0  0  0  0  0  0  0  0  0  0
  -30.9662  -15.0930   19.5726 N   0  0  0  0  0  0  0  0  0  0  0  0
  -20.2739  -26.2888   21.2960 N   0  0  0  0  0  0  0  0  0  0  0  0
  -33.2654  -17.3654   17.9547 N   0  3  0  0  0  0  0  0  0  0  0  0
  -27.8723  -30.7335   18.7188 O   0  0  0  0  0  0  0  0  0  0  0  0
  -25.3554  -15.5383   20.3910 O   0  0  0  0  0  0  0  0  0  0  0  0
  -28.6303  -13.7192   18.6424 O   0  0  0  0  0  0  0  0  0  0  0  0
  -31.3786  -17.3262   20.0415 O   0  0  0  0  0  0  0  0  0  0  0  0
  -19.4200  -26.9719   23.3113 O   0  0  0  0  0  0  0  0  0  0  0  0
  -30.7954  -24.6037   19.3561 O   0  0  0  0  0  0  0  0  0  0  0  0
  -26.1128  -21.6301   20.3567 O   0  0  0  0  0  0  0  0  0  1  0  0
  -30.4018  -19.4847   21.3674 F   0  0  0  0  0  0  0  0  0  0  0  0
  -30.9813  -22.4065   17.6887 F   0  0  0  0  0  0  0  0  0  0  0  0
  1  2  1  0  0  0  0
  1  5  2  0  0  0  0
  2  6  2  0  0  0  0
  3 10  2  0  0  0  0
  3 19  1  0  0  0  0
  4 11  1  0  0  0  0
  4 19  2  0  0  0  0
  5 21  1  0  0  0  0
  6 23  1  0  0  0  0
  7 12  2  0  0  0  0
  7 22  1  0  0  0  0
  8  9  2  0  0  0  0
  8 25  1  0  0  0  0
  9 26  1  0  0  0  0
 10 28  1  0  0  0  0
 11 28  2  0  0  0  0
 12 29  1  0  0  0  0
 13 14  2  0  0  0  0
 13 30  1  0  0  0  0
 14 31  1  0  0  0  0
 15 24  1  0  0  0  0
 15 29  2  0  0  0  0
 16 25  2  0  0  0  0
 16 27  1  0  0  0  0
 17 31  2  0  0  0  0
 17 32  1  0  0  0  0
 18 34  2  0  0  0  0
 18 73  1  0  0  0  0
 19 33  1  0  0  0  0
 20 33  1  0  0  0  0
 20 35  2  0  0  0  0
 20 37  1  0  0  0  0
 21 23  2  0  0  0  0
 21 42  1  0  0  0  0
 22 24  2  0  0  0  0
 22 43  1  0  0  0  0
 23 51  1  0  0  0  0
 24 44  1  0  0  0  0
 25 61  1  0  0  0  0
 26 27  2  0  0  0  0
 26 62  1  0  0  0  0
 27 54  1  0  0  0  0
 28 87  1  0  0  0  0
 29 88  1  0  0  0  0
 30 32  2  0  0  0  0
 30 87  1  0  0  0  0
 31 89  1  0  0  0  0
 32 90  1  0  0  0  0
 33 70  2  0  0  0  0
 34 63  1  0  0  0  0
 34 71  1  0  0  0  0
 35 72  1  0  0  0  0
 35 76  1  0  0  0  0
 36 64  1  0  0  0  0
 36 71  1  0  0  0  0
 36 73  2  0  0  0  0
 37 77  1  0  0  0  0
 37 82  2  0  0  0  0
 38 52  1  0  0  0  0
 38 78  1  0  0  0  0
 38 83  2  0  0  0  0
 39 67  1  0  0  0  0
 39 74  1  0  0  0  0
 39 84  2  0  0  0  0
 40 68  1  0  0  0  0
 40 79  1  0  0  0  0
 40 85  2  0  0  0  0
 41 75  1  0  0  0  0
 41 80  1  0  0  0  0
 41 86  2  0  0  0  0
 42 45  1  0  0  0  0
 43 52  1  0  0  0  0
 44 74  1  0  0  0  0
 45 47  1  0  0  0  0
 46 48  1  0  0  0  0
 46 49  1  0  0  0  0
 47 51  1  0  0  0  0
 48 53  1  0  0  0  0
 49 75  1  0  0  0  0
 50 53  1  0  0  0  0
 50 75  1  0  0  0  0
 51 78  1  0  0  0  0
 52 74  1  0  0  0  0
 53 72  1  0  0  0  0
 55 65  1  0  0  0  0
 56 68  1  0  0  0  0
 57 69  1  0  0  0  0
 58 69  1  0  0  0  0
 59 69  1  0  0  0  0
 60 81  1  0  0  0  0
 61 66  1  0  0  0  0
 62 71  1  0  0  0  0
 63 80  1  0  0  0  0
 64 65  1  0  0  0  0
 66 88  1  0  0  0  0
 67 69  1  0  0  0  0
 67 79  1  0  0  0  0
 68 81  1  0  0  0  0
 70 72  1  0  0  0  0
M  CHG  2  73   1  81   1
M  ISO  4  41 100  66 101  80 100  88 101
M  END
> <Batch ID>
0119

> <Smiles>
CCCc1ncc(C[100NH:0][100C:0](=O)N2CCCC(n3nc(-c4ccc(Oc5ccc(F)cc5F)cc4)c(C(N)=O)c3N)C2)n1Cc1ccc(C[101CH2:1][101O:1]c2ccc3c(c2)CN(C(=O)C(NC(=O)C(C)NC)C(C)(C)C)C(C(=O)NC2CCCc4ccccc42)C3)cc1C

> <Shape>
0.200

> <Color>
0.044

> <Negative vol penalty>
0.000

$$$$

  -OEChem-04052320203D

 83 91  0     1  0  0  0  0  0999 V2000
  -17.7142  -25.6938   23.2030 C   0  0  0  0  0  0  0  0  0  0  0  0
  -18.9776  -25.3445   22.7369 C   0  0  0  0  0  0  0  0  0  0  0  0
  -24.2319  -14.6691   21.5804 C   0  0  0  0  0  0  0  0  0  0  0  0
  -25.0041  -14.9517   19.3087 C   0  0  0  0  0  0  0  0  0  0  0  0
  -17.2894  -27.0200   23.1351 C   0  0  0  0  0  0  0  0  0  0  0  0
  -19.8166  -26.3212   22.2015 C   0  0  0  0  0  0  0  0  0  0  0  0
  -25.9199  -26.5743   22.6390 C   0  0  0  0  0  0  0  0  0  0  0  0
  -23.5582  -13.5063   21.2068 C   0  0  0  0  0  0  0  0  0  0  0  0
  -24.3304  -13.7889   18.9350 C   0  0  0  0  0  0  0  0  0  0  0  0
  -26.9393  -26.2002   21.7645 C   0  0  0  0  0  0  0  0  0  0  0  0
  -24.3260  -10.2719   20.5889 C   0  0  0  0  0  0  0  0  0  0  0  0
  -24.4474   -9.1573   21.4187 C   0  0  0  0  0  0  0  0  0  0  0  0
  -27.0837  -28.4733   20.9699 C   0  0  0  0  0  0  0  0  0  0  0  0
  -27.0224  -25.2883   17.5692 C   0  0  0  0  0  0  0  0  0  0  0  0
  -22.0554   -9.1495   21.7582 C   0  0  0  0  0  0  0  0  0  0  0  0
  -28.9157  -24.1592   17.1105 C   0  0  0  0  0  0  0  0  0  0  0  0
  -24.9548  -15.3918   20.6314 C   0  0  0  0  0  0  0  0  0  0  0  0
  -26.9759  -16.6969   21.4798 C   0  0  0  0  0  0  0  0  0  0  0  0
  -18.1273  -28.0151   22.6075 C   0  0  0  0  0  0  0  0  0  0  0  0
  -25.4665  -27.9007   22.6777 C   0  0  0  0  0  0  0  0  0  0  0  0
  -19.4021  -27.6618   22.1252 C   0  0  0  0  0  0  0  0  0  0  0  0
  -26.0602  -28.8622   21.8475 C   0  0  0  0  0  0  0  0  0  0  0  0
  -28.4332  -25.3918   17.4916 C   0  0  0  0  0  0  0  0  0  0  0  0
  -23.6074  -13.0662   19.8841 C   0  0  0  0  0  0  0  0  0  0  0  0
  -27.5194  -27.1491   20.9277 C   0  0  0  0  0  0  0  0  0  0  0  0
  -23.0693  -10.8254   20.3438 C   0  0  0  0  0  0  0  0  0  0  0  0
  -23.3121   -8.5961   22.0033 C   0  0  0  0  0  0  0  0  0  0  0  0
  -21.9340  -10.2641   20.9284 C   0  0  0  0  0  0  0  0  0  0  0  0
  -25.6505  -16.5934   21.0166 C   0  0  0  0  0  0  0  0  0  0  0  0
  -26.6858  -23.9955   17.2332 C   0  0  0  0  0  0  0  0  0  0  0  0
  -27.1562  -18.0394   21.7072 C   0  0  0  0  0  0  0  0  0  0  0  0
  -27.9563  -15.6713   21.6860 C   0  0  0  0  0  0  0  0  0  0  0  0
  -22.6932  -29.3412   22.0968 C   0  0  0  0  0  0  0  0  0  0  0  0
  -24.2640  -31.9548   23.2032 C   0  0  0  0  0  0  0  0  0  0  0  0
  -27.2421  -33.5289   23.7510 C   0  0  0  0  0  0  0  0  0  0  0  0
  -24.5504  -22.9412   19.4637 C   0  0  0  0  0  0  0  0  0  0  0  0
  -17.6061  -29.4271   22.5114 C   0  0  0  0  0  0  0  0  0  0  0  0
  -24.3844  -28.2938   23.6456 C   0  0  0  0  0  0  0  0  0  0  0  0
  -25.6235  -30.3036   21.8651 C   0  0  0  0  0  0  0  0  0  0  0  0
  -18.6998  -30.4652   22.2741 C   0  0  0  0  0  0  0  0  0  0  0  0
  -24.7384  -21.9946   22.8909 C   0  0  0  0  0  0  0  0  0  0  0  0
  -19.6455  -30.0017   21.1707 C   0  0  0  0  0  0  0  0  0  0  0  0
  -25.1130  -20.5124   22.8409 C   0  0  0  0  0  0  0  0  0  0  0  0
  -23.7933  -22.3765   21.7538 C   0  0  0  0  0  0  0  0  0  0  0  0
  -24.6445  -20.5343   20.3552 C   0  0  0  0  0  0  0  0  0  0  0  0
  -20.3506  -28.6969   21.5604 C   0  0  1  0  0  0  0  0  0  0  0  0
  -23.6483  -29.5654   23.2349 C   0  0  1  0  0  0  0  0  0  0  0  0
  -25.6406  -20.1139   21.4495 C   0  0  2  0  0  0  0  0  0  0  0  0
  -29.5121  -27.4349   16.4949 C   0  0  0  0  0  0  0  0  0  0  0  0
  -28.2045  -35.6717   24.6338 C   0  0  0  0  0  0  0  0  0  0  0  0
  -28.7101  -21.0951   17.5871 C   0  0  0  0  0  0  0  0  0  0  0  0
  -28.5258  -21.7748   15.1560 C   0  0  0  0  0  0  0  0  0  0  0  0
  -23.4564  -33.3761   20.6268 C   0  0  0  0  0  0  0  0  0  0  0  0
  -25.1936  -35.1100   21.1209 C   0  0  0  0  0  0  0  0  0  0  0  0
  -23.2831  -34.7785   22.6902 C   0  0  0  0  0  0  0  0  0  0  0  0
  -28.7172  -32.1187   25.8945 C   0  0  0  0  0  0  0  0  0  0  0  0
  -25.3582  -23.3519   17.1533 C   0  0  0  0  0  0  0  0  0  0  0  0
  -28.6215  -27.5193   18.8531 C   0  0  0  0  0  0  0  0  0  1  0  0
  -29.2630  -26.6339   17.7760 C   0  0  1  0  0  0  0  0  0  0  0  0
  -25.1120  -33.0364   22.5786 C   0  0  1  0  0  0  0  0  0  0  0  0
  -27.7927  -34.2469   24.9699 C   0  0  2  0  0  0  0  0  0  0  0  0
  -27.9414  -21.9302   16.5612 C   0  0  0  0  0  0  0  0  0  0  0  0
  -24.2684  -34.0478   21.7522 C   0  0  0  0  0  0  0  0  0  0  0  0
  -25.0326  -17.7758   20.9532 N   0  0  0  0  0  0  0  0  0  0  0  0
  -27.8446  -23.3183   16.9566 N   0  0  0  0  0  0  0  0  0  0  0  0
  -25.9739  -18.6351   21.3796 N   0  0  0  0  0  0  0  0  0  0  0  0
  -24.5576  -30.6372   22.8243 N   0  0  0  0  0  0  0  0  0  0  0  0
  -24.3529  -21.9726   20.4616 N   0  0  0  0  0  0  0  0  0  0  0  0
  -28.2092  -18.7566   22.1537 N   0  0  0  0  0  0  0  0  0  0  0  0
  -27.6051  -14.3445   21.4023 N   0  0  0  0  0  0  0  0  0  0  0  0
  -21.4249  -28.9620   22.4931 N   0  0  0  0  0  0  0  0  0  0  0  0
  -25.8703  -33.6410   23.6685 N   0  0  0  0  0  0  0  0  0  0  0  0
  -25.0909  -22.4750   18.2715 N   0  0  0  0  0  0  0  0  0  0  0  0
  -28.9840  -33.5263   25.5014 N   0  3  0  0  0  0  0  0  0  0  0  0
  -29.1044  -15.9220   22.1248 O   0  0  0  0  0  0  0  0  0  0  0  0
  -23.0780  -29.5020   20.9445 O   0  0  0  0  0  0  0  0  0  0  0  0
  -23.3786  -32.2670   24.0033 O   0  0  0  0  0  0  0  0  0  0  0  0
  -27.9578  -32.9317   22.9500 O   0  0  0  0  0  0  0  0  0  0  0  0
  -24.2710  -24.1340   19.6252 O   0  0  0  0  0  0  0  0  0  0  0  0
  -22.9503  -11.9315   19.5192 O   0  0  0  0  0  0  0  0  0  0  0  0
  -28.5141  -26.7864   20.0728 O   0  0  0  0  0  0  0  0  0  1  0  0
  -23.4287   -7.5248   22.7988 F   0  0  0  0  0  0  0  0  0  0  0  0
  -20.7239  -10.7907   20.6957 F   0  0  0  0  0  0  0  0  0  0  0  0
  1  2  1  0  0  0  0
  1  5  2  0  0  0  0
  2  6  2  0  0  0  0
  3  8  2  0  0  0  0
  3 17  1  0  0  0  0
  4  9  1  0  0  0  0
  4 17  2  0  0  0  0
  5 19  1  0  0  0  0
  6 21  1  0  0  0  0
  7 10  2  0  0  0  0
  7 20  1  0  0  0  0
  8 24  1  0  0  0  0
  9 24  2  0  0  0  0
 10 25  1  0  0  0  0
 11 12  2  0  0  0  0
 11 26  1  0  0  0  0
 12 27  1  0  0  0  0
 13 22  1  0  0  0  0
 13 25  2  0  0  0  0
 14 23  1  0  0  0  0
 14 30  2  0  0  0  0
 15 27  2  0  0  0  0
 15 28  1  0  0  0  0
 16 23  2  0  0  0  0
 16 65  1  0  0  0  0
 17 29  1  0  0  0  0
 18 29  1  0  0  0  0
 18 31  2  0  0  0  0
 18 32  1  0  0  0  0
 19 21  2  0  0  0  0
 19 37  1  0  0  0  0
 20 22  2  0  0  0  0
 20 38  1  0  0  0  0
 21 46  1  0  0  0  0
 22 39  1  0  0  0  0
 23 59  1  0  0  0  0
 24 80  1  0  0  0  0
 25 81  1  0  0  0  0
 26 28  2  0  0  0  0
 26 80  1  0  0  0  0
 27 82  1  0  0  0  0
 28 83  1  0  0  0  0
 29 64  2  0  0  0  0
 30 57  1  0  0  0  0
 30 65  1  0  0  0  0
 31 66  1  0  0  0  0
 31 69  1  0  0  0  0
 32 70  1  0  0  0  0
 32 75  2  0  0  0  0
 33 47  1  0  0  0  0
 33 71  1  0  0  0  0
 33 76  2  0  0  0  0
 34 60  1  0  0  0  0
 34 67  1  0  0  0  0
 34 77  2  0  0  0  0
 35 61  1  0  0  0  0
 35 72  1  0  0  0  0
 35 78  2  0  0  0  0
 36 68  1  0  0  0  0
 36 73  1  0  0  0  0
 36 79  2  0  0  0  0
 37 40  1  0  0  0  0
 38 47  1  0  0  0  0
 39 67  1  0  0  0  0
 40 42  1  0  0  0  0
 41 43  1  0  0  0  0
 41 44  1  0  0  0  0
 42 46  1  0  0  0  0
 43 48  1  0  0  0  0
 44 68  1  0  0  0  0
 45 48  1  0  0  0  0
 45 68  1  0  0  0  0
 46 71  1  0  0  0  0
 47 67  1  0  0  0  0
 48 66  1  0  0  0  0
 49 59  1  0  0  0  0
 50 61  1  0  0  0  0
 51 62  1  0  0  0  0
 52 62  1  0  0  0  0
 53 63  1  0  0  0  0
 54 63  1  0  0  0  0
 55 63  1  0  0  0  0
 56 74  1  0  0  0  0
 57 73  1  0  0  0  0
 58 59  1  0  0  0  0
 58 81  1  0  0  0  0
 60 63  1  0  0  0  0
 60 72  1  0  0  0  0
 61 74  1  0  0  0  0
 62 65  1  0  0  0  0
 64 66  1  0  0  0  0
M  CHG  1  74   1
M  ISO  4  36 100  58 101  73 100  81 101
M  END
> <Batch ID>
0119

> <Smiles>
CNC(C)C(=O)NC(C(=O)N1Cc2cc([101O:1][101CH2:1]C(C)c3cc(C[100NH:0][100C:0](=O)N4CCCC(n5nc(-c6ccc(Oc7ccc(F)cc7F)cc6)c(C(N)=O)c5N)C4)n(C(C)C)c3)ccc2CC1C(=O)NC1CCCc2ccccc21)C(C)(C)C

> <Shape>
0.240

> <Color>
0.089

> <Negative vol penalty>
0.000

$$$$

  -OEChem-04052320203D

 88 97  0     1  0  0  0  0  0999 V2000
  -16.2648  -23.5275   23.8335 C   0  0  0  0  0  0  0  0  0  0  0  0
  -17.5726  -23.1005   24.0406 C   0  0  0  0  0  0  0  0  0  0  0  0
  -27.7142  -16.9311   19.0033 C   0  0  0  0  0  0  0  0  0  0  0  0
  -27.6588  -17.1463   21.4091 C   0  0  0  0  0  0  0  0  0  0  0  0
  -16.0172  -24.6631   23.0633 C   0  0  0  0  0  0  0  0  0  0  0  0
  -18.6335  -23.8083   23.4767 C   0  0  0  0  0  0  0  0  0  0  0  0
  -22.4447  -24.5187   26.7347 C   0  0  0  0  0  0  0  0  0  0  0  0
  -23.7688  -18.3235   24.2139 C   0  0  0  0  0  0  0  0  0  0  0  0
  -28.3730  -18.1569   18.9088 C   0  0  0  0  0  0  0  0  0  0  0  0
  -28.3177  -18.3722   21.3146 C   0  0  0  0  0  0  0  0  0  0  0  0
  -23.2963  -23.4389   26.9637 C   0  0  0  0  0  0  0  0  0  0  0  0
  -29.6642  -21.7276   21.6858 C   0  0  0  0  0  0  0  0  0  0  0  0
  -29.1821  -22.7840   22.4585 C   0  0  0  0  0  0  0  0  0  0  0  0
  -24.9034  -19.1262   24.2571 C   0  0  0  0  0  0  0  0  0  0  0  0
  -24.9072  -24.3946   25.4436 C   0  0  0  0  0  0  0  0  0  0  0  0
  -27.0477  -22.6306   21.3369 C   0  0  0  0  0  0  0  0  0  0  0  0
  -23.6093  -18.5115   26.5795 C   0  0  0  0  0  0  0  0  0  0  0  0
  -27.3571  -16.4258   20.2535 C   0  0  0  0  0  0  0  0  0  0  0  0
  -27.2627  -13.8866   20.4793 C   0  0  0  0  0  0  0  0  0  0  0  0
  -17.0762  -25.3906   22.4977 C   0  0  0  0  0  0  0  0  0  0  0  0
  -22.8140  -25.5409   25.8486 C   0  0  0  0  0  0  0  0  0  0  0  0
  -18.3998  -24.9538   22.6971 C   0  0  0  0  0  0  0  0  0  0  0  0
  -24.0596  -25.4876   25.2070 C   0  0  0  0  0  0  0  0  0  0  0  0
  -23.1036  -18.0057   25.3928 C   0  0  0  0  0  0  0  0  0  0  0  0
  -28.6748  -18.8774   20.0644 C   0  0  0  0  0  0  0  0  0  0  0  0
  -24.5265  -23.3752   26.3159 C   0  0  0  0  0  0  0  0  0  0  0  0
  -28.8380  -21.1227   20.7385 C   0  0  0  0  0  0  0  0  0  0  0  0
  -27.8739  -23.2355   22.2841 C   0  0  0  0  0  0  0  0  0  0  0  0
  -27.5298  -21.5742   20.5641 C   0  0  0  0  0  0  0  0  0  0  0  0
  -26.6760  -15.1599   20.3517 C   0  0  0  0  0  0  0  0  0  0  0  0
  -25.3284  -19.5820   25.4946 C   0  0  0  0  0  0  0  0  0  0  0  0
  -26.1973  -13.0214   20.5330 C   0  0  0  0  0  0  0  0  0  0  0  0
  -28.6470  -13.5187   20.5437 C   0  0  0  0  0  0  0  0  0  0  0  0
  -21.6374  -26.6822   23.1252 C   0  0  0  0  0  0  0  0  0  0  0  0
  -23.9598  -28.9139   23.5102 C   0  0  0  0  0  0  0  0  0  0  0  0
  -26.9703  -29.7559   24.8795 C   0  0  0  0  0  0  0  0  0  0  0  0
  -20.8112  -13.2241   22.8494 C   0  0  0  0  0  0  0  0  0  0  0  0
  -16.7566  -26.5846   21.6334 C   0  0  0  0  0  0  0  0  0  0  0  0
  -21.8955  -26.7124   25.6329 C   0  0  0  0  0  0  0  0  0  0  0  0
  -24.5117  -26.5695   24.2618 C   0  0  0  0  0  0  0  0  0  0  0  0
  -17.9570  -27.4933   21.3820 C   0  0  0  0  0  0  0  0  0  0  0  0
  -19.4704  -13.4945   26.9503 C   0  0  0  0  0  0  0  0  0  0  0  0
  -21.4615  -13.2154   19.1658 C   0  0  0  0  0  0  0  0  0  0  0  0
  -19.1796  -26.6677   20.9941 C   0  0  0  0  0  0  0  0  0  0  0  0
  -20.2706  -14.7977   26.8989 C   0  0  0  0  0  0  0  0  0  0  0  0
  -22.9203  -13.6681   19.1263 C   0  0  0  0  0  0  0  0  0  0  0  0
  -19.9608  -12.6393   25.7811 C   0  0  0  0  0  0  0  0  0  0  0  0
  -20.7421  -13.7779   20.3858 C   0  0  0  0  0  0  0  0  0  0  0  0
  -22.8632  -13.8965   21.6520 C   0  0  0  0  0  0  0  0  0  0  0  0
  -19.5786  -25.7091   22.1226 C   0  0  1  0  0  0  0  0  0  0  0  0
  -22.1531  -27.4390   24.3164 C   0  0  1  0  0  0  0  0  0  0  0  0
  -20.9802  -14.7849   25.5436 C   0  0  2  0  0  0  0  0  0  0  0  0
  -23.6357  -13.3352   20.4466 C   0  0  2  0  0  0  0  0  0  0  0  0
  -21.2631  -13.2961   25.3374 C   0  0  2  0  0  0  0  0  0  0  0  0
  -22.3556  -10.6125   24.1016 C   0  0  0  0  0  0  0  0  0  0  0  0
  -28.6295  -31.6356   24.9853 C   0  0  0  0  0  0  0  0  0  0  0  0
  -24.9080  -28.2324   20.6913 C   0  0  0  0  0  0  0  0  0  0  0  0
  -27.0611  -29.4008   21.2081 C   0  0  0  0  0  0  0  0  0  0  0  0
  -24.9160  -30.6739   21.2329 C   0  0  0  0  0  0  0  0  0  0  0  0
  -26.6784  -30.0027   27.8143 C   0  0  0  0  0  0  0  0  0  0  0  0
  -21.8876  -17.1492   25.3799 C   0  0  0  0  0  0  0  0  0  0  0  0
  -26.5562  -20.4559   25.5792 C   0  0  0  0  0  0  0  0  0  0  0  0
  -22.2263  -15.6558   25.5216 C   0  0  0  0  0  0  0  0  0  0  0  0
  -22.7504  -12.0473   23.8159 C   0  0  0  0  0  0  0  0  0  0  0  0
  -26.2210  -21.9391   25.4660 C   0  0  0  0  0  0  0  0  0  1  0  0
  -25.4060  -29.0346   23.0943 C   0  0  1  0  0  0  0  0  0  0  0  0
  -27.4203  -30.9887   25.6426 C   0  0  2  0  0  0  0  0  0  0  0  0
  -25.5637  -29.3139   21.5729 C   0  0  0  0  0  0  0  0  0  0  0  0
  -24.7085  -19.2942   26.6610 N   0  0  0  0  0  0  0  0  0  0  0  0
  -25.3414  -15.1124   20.3257 N   0  0  0  0  0  0  0  0  0  0  0  0
  -25.0807  -13.7988   20.4377 N   0  0  0  0  0  0  0  0  0  0  0  0
  -23.5758  -27.6912   24.0789 N   0  0  0  0  0  0  0  0  0  0  0  0
  -21.4617  -13.4713   21.6293 N   0  0  0  0  0  0  0  0  0  0  0  0
  -26.1160  -11.6792   20.6520 N   0  0  0  0  0  0  0  0  0  0  0  0
  -29.6118  -14.5330   20.4744 N   0  0  0  0  0  0  0  0  0  0  0  0
  -20.2808  -26.4229   23.1675 N   0  0  0  0  0  0  0  0  0  0  0  0
  -25.9939  -30.0566   23.9535 N   0  0  0  0  0  0  0  0  0  0  0  0
  -21.6220  -12.9556   23.9626 N   0  0  0  0  0  0  0  0  0  0  0  0
  -27.7831  -30.6277   27.0422 N   0  3  0  0  0  0  0  0  0  0  0  0
  -29.0178  -12.3245   20.6426 O   0  0  0  0  0  0  0  0  0  0  0  0
  -22.4127  -26.3588   22.2330 O   0  0  0  0  0  0  0  0  0  0  0  0
  -23.2006  -29.8717   23.3435 O   0  0  0  0  0  0  0  0  0  0  0  0
  -27.4407  -28.6387   25.0819 O   0  0  0  0  0  0  0  0  0  0  0  0
  -19.5772  -13.2525   22.9407 O   0  0  0  0  0  0  0  0  0  0  0  0
  -29.3179  -20.0735   19.9726 O   0  0  0  0  0  0  0  0  0  0  0  0
  -25.3593  -22.3219   26.5372 O   0  0  0  0  0  0  0  0  0  1  0  0
  -27.4106  -24.2489   23.0274 F   0  0  0  0  0  0  0  0  0  0  0  0
  -26.7311  -20.9962   19.6564 F   0  0  0  0  0  0  0  0  0  0  0  0
  1  2  1  0  0  0  0
  1  5  2  0  0  0  0
  2  6  2  0  0  0  0
  3  9  2  0  0  0  0
  3 18  1  0  0  0  0
  4 10  1  0  0  0  0
  4 18  2  0  0  0  0
  5 20  1  0  0  0  0
  6 22  1  0  0  0  0
  7 11  2  0  0  0  0
  7 21  1  0  0  0  0
  8 14  2  0  0  0  0
  8 24  1  0  0  0  0
  9 25  1  0  0  0  0
 10 25  2  0  0  0  0
 11 26  1  0  0  0  0
 12 13  2  0  0  0  0
 12 27  1  0  0  0  0
 13 28  1  0  0  0  0
 14 31  1  0  0  0  0
 15 23  1  0  0  0  0
 15 26  2  0  0  0  0
 16 28  2  0  0  0  0
 16 29  1  0  0  0  0
 17 24  2  0  0  0  0
 17 69  1  0  0  0  0
 18 30  1  0  0  0  0
 19 30  1  0  0  0  0
 19 32  2  0  0  0  0
 19 33  1  0  0  0  0
 20 22  2  0  0  0  0
 20 38  1  0  0  0  0
 21 23  2  0  0  0  0
 21 39  1  0  0  0  0
 22 50  1  0  0  0  0
 23 40  1  0  0  0  0
 24 61  1  0  0  0  0
 25 85  1  0  0  0  0
 26 86  1  0  0  0  0
 27 29  2  0  0  0  0
 27 85  1  0  0  0  0
 28 87  1  0  0  0  0
 29 88  1  0  0  0  0
 30 70  2  0  0  0  0
 31 62  1  0  0  0  0
 31 69  2  0  0  0  0
 32 71  1  0  0  0  0
 32 74  1  0  0  0  0
 33 75  1  0  0  0  0
 33 80  2  0  0  0  0
 34 51  1  0  0  0  0
 34 76  1  0  0  0  0
 34 81  2  0  0  0  0
 35 66  1  0  0  0  0
 35 72  1  0  0  0  0
 35 82  2  0  0  0  0
 36 67  1  0  0  0  0
 36 77  1  0  0  0  0
 36 83  2  0  0  0  0
 37 73  1  0  0  0  0
 37 78  1  0  0  0  0
 37 84  2  0  0  0  0
 38 41  1  0  0  0  0
 39 51  1  0  0  0  0
 40 72  1  0  0  0  0
 41 44  1  0  0  0  0
 42 45  1  0  0  0  0
 42 47  1  0  0  0  0
 43 46  1  0  0  0  0
 43 48  1  0  0  0  0
 44 50  1  0  0  0  0
 45 52  1  0  0  0  0
 46 53  1  0  0  0  0
 47 54  1  0  0  0  0
 48 73  1  0  0  0  0
 49 53  1  0  0  0  0
 49 73  1  0  0  0  0
 50 76  1  0  0  0  0
 51 72  1  0  0  0  0
 52 54  1  0  0  0  0
 52 63  1  0  0  0  0
 53 71  1  0  0  0  0
 54 78  1  0  0  0  0
 55 64  1  0  0  0  0
 56 67  1  0  0  0  0
 57 68  1  0  0  0  0
 58 68  1  0  0  0  0
 59 68  1  0  0  0  0
 60 79  1  0  0  0  0
 61 63  1  0  0  0  0
 62 65  1  0  0  0  0
 64 78  1  0  0  0  0
 65 86  1  0  0  0  0
 66 68  1  0  0  0  0
 66 77  1  0  0  0  0
 67 79  1  0  0  0  0
 70 71  1  0  0  0  0
M  CHG  1  79   1
M  ISO  4  37 100  65 101  78 100  86 101
M  END
> <Batch ID>
0119

> <Smiles>
CC[100N:0](C1CCCC1CCc1ccc(C[101CH2:1][101O:1]c2ccc3c(c2)CN(C(=O)C(NC(=O)C(C)NC)C(C)(C)C)C(C(=O)NC2CCCc4ccccc42)C3)nc1)[100C:0](=O)N1CCCC(n2nc(-c3ccc(Oc4ccc(F)cc4F)cc3)c(C(N)=O)c2N)C1

> <Shape>
0.220

> <Color>
0.062

> <Negative vol penalty>
0.000

$$$$

  -OEChem-04052320203D

 86 94  0     1  0  0  0  0  0999 V2000
  -21.4667  -20.7660   24.0955 C   0  0  0  0  0  0  0  0  0  0  0  0
  -22.7929  -21.1337   23.8922 C   0  0  0  0  0  0  0  0  0  0  0  0
  -25.9541  -13.9358   21.7195 C   0  0  0  0  0  0  0  0  0  0  0  0
  -24.9860  -14.9983   19.7776 C   0  0  0  0  0  0  0  0  0  0  0  0
  -20.4408  -21.5169   23.5231 C   0  0  0  0  0  0  0  0  0  0  0  0
  -23.0941  -22.2519   23.1155 C   0  0  0  0  0  0  0  0  0  0  0  0
  -27.7287  -26.1689   23.9426 C   0  0  0  0  0  0  0  0  0  0  0  0
  -24.9096  -13.0115   21.7346 C   0  0  0  0  0  0  0  0  0  0  0  0
  -23.9414  -14.0740   19.7927 C   0  0  0  0  0  0  0  0  0  0  0  0
  -28.9853  -26.2741   23.3480 C   0  0  0  0  0  0  0  0  0  0  0  0
  -22.6905  -10.1515   22.0676 C   0  0  0  0  0  0  0  0  0  0  0  0
  -23.0155   -8.8086   22.2585 C   0  0  0  0  0  0  0  0  0  0  0  0
  -28.1131  -27.9143   21.8091 C   0  0  0  0  0  0  0  0  0  0  0  0
  -29.0975  -24.8440   18.8975 C   0  0  0  0  0  0  0  0  0  0  0  0
  -31.1202  -23.5439   18.9489 C   0  0  0  0  0  0  0  0  0  0  0  0
  -24.3736   -8.8532   20.2608 C   0  0  0  0  0  0  0  0  0  0  0  0
  -25.9923  -14.9292   20.7410 C   0  0  0  0  0  0  0  0  0  0  0  0
  -28.2998  -15.7682   20.0486 C   0  0  0  0  0  0  0  0  0  0  0  0
  -20.7292  -22.6506   22.7470 C   0  0  0  0  0  0  0  0  0  0  0  0
  -26.6503  -26.9288   23.4671 C   0  0  0  0  0  0  0  0  0  0  0  0
  -22.0711  -23.0179   22.5312 C   0  0  0  0  0  0  0  0  0  0  0  0
  -26.8444  -27.8187   22.4010 C   0  0  0  0  0  0  0  0  0  0  0  0
  -30.4828  -24.7786   18.9970 C   0  0  0  0  0  0  0  0  0  0  0  0
  -23.9032  -13.0806   20.7712 C   0  0  0  0  0  0  0  0  0  0  0  0
  -29.1770  -27.1448   22.2792 C   0  0  0  0  0  0  0  0  0  0  0  0
  -23.2070  -10.8453   20.9732 C   0  0  0  0  0  0  0  0  0  0  0  0
  -23.8571   -8.1594   21.3552 C   0  0  0  0  0  0  0  0  0  0  0  0
  -24.0485  -10.1962   20.0699 C   0  0  0  0  0  0  0  0  0  0  0  0
  -27.0708  -15.8846   20.7253 C   0  0  0  0  0  0  0  0  0  0  0  0
  -28.4009  -23.6551   18.7522 C   0  0  0  0  0  0  0  0  0  0  0  0
  -30.3331  -22.4131   18.8015 C   0  0  0  0  0  0  0  0  0  0  0  0
  -28.9687  -16.9295   20.3495 C   0  0  0  0  0  0  0  0  0  0  0  0
  -28.7926  -14.7055   19.2220 C   0  0  0  0  0  0  0  0  0  0  0  0
  -23.8237  -26.2518   22.1802 C   0  0  0  0  0  0  0  0  0  0  0  0
  -23.3889  -29.4583   22.4075 C   0  0  0  0  0  0  0  0  0  0  0  0
  -24.7878  -32.5650   22.6042 C   0  0  0  0  0  0  0  0  0  0  0  0
  -27.1283  -22.3959   21.9563 C   0  0  0  0  0  0  0  0  0  0  0  0
  -19.5883  -23.4035   22.1097 C   0  0  0  0  0  0  0  0  0  0  0  0
  -25.3076  -26.8235   24.1366 C   0  0  0  0  0  0  0  0  0  0  0  0
  -25.7242  -28.6717   21.8661 C   0  0  0  0  0  0  0  0  0  0  0  0
  -19.9786  -24.7920   21.6097 C   0  0  0  0  0  0  0  0  0  0  0  0
  -29.3350  -20.2633   23.7616 C   0  0  0  0  0  0  0  0  0  0  0  0
  -21.2869  -24.7295   20.8279 C   0  0  0  0  0  0  0  0  0  0  0  0
  -29.1158  -18.8887   23.1271 C   0  0  0  0  0  0  0  0  0  0  0  0
  -28.0366  -21.0636   23.8368 C   0  0  0  0  0  0  0  0  0  0  0  0
  -27.1004  -19.8280   21.9210 C   0  0  0  0  0  0  0  0  0  0  0  0
  -22.4371  -24.2389   21.7154 C   0  0  1  0  0  0  0  0  0  0  0  0
  -24.1559  -27.2651   23.2388 C   0  0  1  0  0  0  0  0  0  0  0  0
  -28.3918  -19.0056   21.7723 C   0  0  2  0  0  0  0  0  0  0  0  0
  -32.2232  -26.2508   17.9510 C   0  0  0  0  0  0  0  0  0  0  0  0
  -31.7373  -20.7309   20.0473 C   0  0  0  0  0  0  0  0  0  0  0  0
  -31.9290  -20.9237   17.5411 C   0  0  0  0  0  0  0  0  0  0  0  0
  -24.1773  -34.9952   22.7407 C   0  0  0  0  0  0  0  0  0  0  0  0
  -22.6979  -29.4492   19.4356 C   0  0  0  0  0  0  0  0  0  0  0  0
  -23.0326  -31.9303   19.4214 C   0  0  0  0  0  0  0  0  0  0  0  0
  -21.2450  -30.9228   20.8399 C   0  0  0  0  0  0  0  0  0  0  0  0
  -26.1271  -32.8736   25.2253 C   0  0  0  0  0  0  0  0  0  0  0  0
  -26.9132  -23.6870   18.6407 C   0  0  0  0  0  0  0  0  0  0  0  0
  -32.1070  -26.0901   20.4666 C   0  0  0  0  0  0  0  0  0  0  0  0
  -26.1946  -23.5906   19.9915 C   0  0  0  0  0  0  0  0  0  0  0  0
  -31.2318  -26.0879   21.7165 C   0  0  0  0  0  0  0  0  0  1  0  0
  -31.2967  -26.0512   19.1565 C   0  0  2  0  0  0  0  0  0  0  0  0
  -30.9837  -21.0713   18.7480 C   0  0  0  0  0  0  0  0  0  0  0  0
  -23.6662  -30.6410   21.5112 C   0  0  1  0  0  0  0  0  0  0  0  0
  -24.5113  -33.7376   23.5278 C   0  0  2  0  0  0  0  0  0  0  0  0
  -22.6813  -30.7185   20.3106 C   0  0  0  0  0  0  0  0  0  0  0  0
  -26.9628  -17.0294   21.4049 N   0  0  0  0  0  0  0  0  0  0  0  0
  -28.9851  -22.4370   18.7015 N   0  0  0  0  0  0  0  0  0  0  0  0
  -28.1325  -17.6429   21.1569 N   0  0  0  0  0  0  0  0  0  0  0  0
  -24.4285  -28.5283   22.5502 N   0  0  0  0  0  0  0  0  0  0  0  0
  -27.4007  -21.1382   22.5192 N   0  0  0  0  0  0  0  0  0  0  0  0
  -30.1848  -17.3997   19.9996 N   0  0  0  0  0  0  0  0  0  0  0  0
  -27.9761  -13.5850   19.0169 N   0  0  0  0  0  0  0  0  0  0  0  0
  -22.8997  -25.3046   22.5783 N   0  0  0  0  0  0  0  0  0  0  0  0
  -23.6520  -31.8183   22.3727 N   0  0  0  0  0  0  0  0  0  0  0  0
  -26.5304  -22.3769   20.7021 N   0  0  0  0  0  0  0  0  0  0  0  0
  -25.7017  -34.0183   24.3792 N   0  3  0  0  0  0  0  0  0  0  0  0
  -29.9302  -14.7409   18.6945 O   0  0  0  0  0  0  0  0  0  0  0  0
  -24.3646  -26.3249   21.0830 O   0  0  0  0  0  0  0  0  0  0  0  0
  -22.2931  -29.3668   22.9663 O   0  0  0  0  0  0  0  0  0  0  0  0
  -25.8993  -32.3366   22.1321 O   0  0  0  0  0  0  0  0  0  0  0  0
  -27.4029  -23.4572   22.5265 O   0  0  0  0  0  0  0  0  0  0  0  0
  -22.8839  -12.1787   20.7854 O   0  0  0  0  0  0  0  0  0  0  0  0
  -30.4024  -27.2489   21.6966 O   0  0  0  0  0  0  0  0  0  1  0  0
  -24.1704   -6.8702   21.5395 F   0  0  0  0  0  0  0  0  0  0  0  0
  -24.5487  -10.8578   19.0173 F   0  0  0  0  0  0  0  0  0  0  0  0
  1  2  1  0  0  0  0
  1  5  2  0  0  0  0
  2  6  2  0  0  0  0
  3  8  2  0  0  0  0
  3 17  1  0  0  0  0
  4  9  1  0  0  0  0
  4 17  2  0  0  0  0
  5 19  1  0  0  0  0
  6 21  1  0  0  0  0
  7 10  2  0  0  0  0
  7 20  1  0  0  0  0
  8 24  1  0  0  0  0
  9 24  2  0  0  0  0
 10 25  1  0  0  0  0
 11 12  2  0  0  0  0
 11 26  1  0  0  0  0
 12 27  1  0  0  0  0
 13 22  1  0  0  0  0
 13 25  2  0  0  0  0
 14 23  1  0  0  0  0
 14 30  2  0  0  0  0
 15 23  2  0  0  0  0
 15 31  1  0  0  0  0
 16 27  2  0  0  0  0
 16 28  1  0  0  0  0
 17 29  1  0  0  0  0
 18 29  1  0  0  0  0
 18 32  2  0  0  0  0
 18 33  1  0  0  0  0
 19 21  2  0  0  0  0
 19 38  1  0  0  0  0
 20 22  2  0  0  0  0
 20 39  1  0  0  0  0
 21 47  1  0  0  0  0
 22 40  1  0  0  0  0
 23 62  1  0  0  0  0
 24 83  1  0  0  0  0
 25 84  1  0  0  0  0
 26 28  2  0  0  0  0
 26 83  1  0  0  0  0
 27 85  1  0  0  0  0
 28 86  1  0  0  0  0
 29 67  2  0  0  0  0
 30 58  1  0  0  0  0
 30 68  1  0  0  0  0
 31 63  1  0  0  0  0
 31 68  2  0  0  0  0
 32 69  1  0  0  0  0
 32 72  1  0  0  0  0
 33 73  1  0  0  0  0
 33 78  2  0  0  0  0
 34 48  1  0  0  0  0
 34 74  1  0  0  0  0
 34 79  2  0  0  0  0
 35 64  1  0  0  0  0
 35 70  1  0  0  0  0
 35 80  2  0  0  0  0
 36 65  1  0  0  0  0
 36 75  1  0  0  0  0
 36 81  2  0  0  0  0
 37 71  1  0  0  0  0
 37 76  1  0  0  0  0
 37 82  2  0  0  0  0
 38 41  1  0  0  0  0
 39 48  1  0  0  0  0
 40 70  1  0  0  0  0
 41 43  1  0  0  0  0
 42 44  1  0  0  0  0
 42 45  1  0  0  0  0
 43 47  1  0  0  0  0
 44 49  1  0  0  0  0
 45 71  1  0  0  0  0
 46 49  1  0  0  0  0
 46 71  1  0  0  0  0
 47 74  1  0  0  0  0
 48 70  1  0  0  0  0
 49 69  1  0  0  0  0
 50 62  1  0  0  0  0
 51 63  1  0  0  0  0
 52 63  1  0  0  0  0
 53 65  1  0  0  0  0
 54 66  1  0  0  0  0
 55 66  1  0  0  0  0
 56 66  1  0  0  0  0
 57 77  1  0  0  0  0
 58 60  1  0  0  0  0
 59 61  1  0  0  0  0
 59 62  1  0  0  0  0
 60 76  1  0  0  0  0
 61 84  1  0  0  0  0
 64 66  1  0  0  0  0
 64 75  1  0  0  0  0
 65 77  1  0  0  0  0
 67 69  1  0  0  0  0
M  CHG  1  77   1
M  ISO  4  37 100  61 101  76 100  84 101
M  END
> <Batch ID>
0119

> <Smiles>
CNC(C)C(=O)NC(C(=O)N1Cc2cc([101O:1][101CH2:1]CC(C)c3cc(CC[100NH:0][100C:0](=O)N4CCCC(n5nc(-c6ccc(Oc7ccc(F)cc7F)cc6)c(C(N)=O)c5N)C4)nc(C(C)C)c3)ccc2CC1C(=O)NC1CCCc2ccccc21)C(C)(C)C

> <Shape>
0.236

> <Color>
0.070

> <Negative vol penalty>
0.000

$$$$

  -OEChem-04052320203D

 85 94  0     1  0  0  0  0  0999 V2000
  -17.9235  -33.3948   18.4808 C   0  0  0  0  0  0  0  0  0  0  0  0
  -19.2550  -33.4082   18.0780 C   0  0  0  0  0  0  0  0  0  0  0  0
  -23.0652   -9.3913   19.7019 C   0  0  0  0  0  0  0  0  0  0  0  0
  -23.9142   -9.9020   21.9055 C   0  0  0  0  0  0  0  0  0  0  0  0
  -17.6072  -33.3780   19.8386 C   0  0  0  0  0  0  0  0  0  0  0  0
  -20.2711  -33.4057   19.0329 C   0  0  0  0  0  0  0  0  0  0  0  0
  -25.2118  -28.1654   19.1773 C   0  0  0  0  0  0  0  0  0  0  0  0
  -27.7658  -20.3244   20.4095 C   0  0  0  0  0  0  0  0  0  0  0  0
  -22.4189   -8.2653   20.2119 C   0  0  0  0  0  0  0  0  0  0  0  0
  -23.2679   -8.7760   22.4154 C   0  0  0  0  0  0  0  0  0  0  0  0
  -26.3159  -27.3136   19.1394 C   0  0  0  0  0  0  0  0  0  0  0  0
  -20.1341   -7.9078   23.3354 C   0  0  0  0  0  0  0  0  0  0  0  0
  -19.4299   -8.0525   24.5307 C   0  0  0  0  0  0  0  0  0  0  0  0
  -27.6496  -18.9407   20.4817 C   0  0  0  0  0  0  0  0  0  0  0  0
  -27.2183  -28.3781   21.1144 C   0  0  0  0  0  0  0  0  0  0  0  0
  -20.8392   -6.3835   25.5629 C   0  0  0  0  0  0  0  0  0  0  0  0
  -23.8129  -10.2097   20.5487 C   0  0  0  0  0  0  0  0  0  0  0  0
  -23.8880  -12.4761   19.3803 C   0  0  0  0  0  0  0  0  0  0  0  0
  -18.6200  -33.3655   20.8105 C   0  0  0  0  0  0  0  0  0  0  0  0
  -25.0990  -29.1177   20.1940 C   0  0  0  0  0  0  0  0  0  0  0  0
  -19.9681  -33.3900   20.4050 C   0  0  0  0  0  0  0  0  0  0  0  0
  -29.0225  -20.9051   20.2793 C   0  0  0  0  0  0  0  0  0  0  0  0
  -26.1085  -29.2258   21.1647 C   0  0  0  0  0  0  0  0  0  0  0  0
  -22.5202   -7.9577   21.5686 C   0  0  0  0  0  0  0  0  0  0  0  0
  -27.3168  -27.4199   20.1054 C   0  0  0  0  0  0  0  0  0  0  0  0
  -21.1908   -7.0010   23.2538 C   0  0  0  0  0  0  0  0  0  0  0  0
  -19.7824   -7.2903   25.6444 C   0  0  0  0  0  0  0  0  0  0  0  0
  -21.5434   -6.2389   24.3676 C   0  0  0  0  0  0  0  0  0  0  0  0
  -24.4812  -11.3726   20.0224 C   0  0  0  0  0  0  0  0  0  0  0  0
  -28.8114  -18.1882   20.4196 C   0  0  0  0  0  0  0  0  0  0  0  0
  -30.1228  -20.0646   20.2265 C   0  0  0  0  0  0  0  0  0  0  0  0
  -24.9417  -13.3022   19.0740 C   0  0  0  0  0  0  0  0  0  0  0  0
  -22.5080  -12.7316   19.0870 C   0  0  0  0  0  0  0  0  0  0  0  0
  -23.0736  -31.8817   21.7218 C   0  0  0  0  0  0  0  0  0  0  0  0
  -24.1885  -30.2085   24.0387 C   0  0  0  0  0  0  0  0  0  0  0  0
  -24.7236  -28.6022   27.0002 C   0  0  0  0  0  0  0  0  0  0  0  0
  -29.7064  -15.8335   20.4497 C   0  0  0  0  0  0  0  0  0  0  0  0
  -18.2290  -33.3951   22.2668 C   0  0  0  0  0  0  0  0  0  0  0  0
  -23.9576  -30.0970   20.2385 C   0  0  0  0  0  0  0  0  0  0  0  0
  -25.9620  -30.2880   22.2197 C   0  0  0  0  0  0  0  0  0  0  0  0
  -19.3668  -33.0150   23.2109 C   0  0  0  0  0  0  0  0  0  0  0  0
  -29.9331  -12.4835   19.2654 C   0  0  0  0  0  0  0  0  0  0  0  0
  -28.6685  -23.1027   21.4860 C   0  0  0  0  0  0  0  0  0  0  0  0
  -28.4585  -22.9907   18.9596 C   0  0  0  0  0  0  0  0  0  0  0  0
  -20.6479  -33.7475   22.8249 C   0  0  0  0  0  0  0  0  0  0  0  0
  -28.4862  -11.9866   19.3039 C   0  0  0  0  0  0  0  0  0  0  0  0
  -28.8212  -24.6191   21.3996 C   0  0  0  0  0  0  0  0  0  0  0  0
  -28.6128  -24.5075   18.8864 C   0  0  0  0  0  0  0  0  0  0  0  0
  -30.2468  -13.4081   20.4403 C   0  0  0  0  0  0  0  0  0  0  0  0
  -27.8742  -14.0390   20.6456 C   0  0  0  0  0  0  0  0  0  0  0  0
  -29.1624  -22.4144   20.2011 C   0  0  0  0  0  0  0  0  0  0  0  0
  -21.0987  -33.3629   21.4106 C   0  0  1  0  0  0  0  0  0  0  0  0
  -23.5212  -30.4504   21.6717 C   0  0  1  0  0  0  0  0  0  0  0  0
  -27.4923  -13.1560   19.4464 C   0  0  2  0  0  0  0  0  0  0  0  0
  -28.1253  -25.1869   20.1639 C   0  0  0  0  0  0  0  0  0  1  0  0
  -24.8727  -29.0219   29.4698 C   0  0  0  0  0  0  0  0  0  0  0  0
  -26.9605  -31.4238   23.6610 C   0  0  0  0  0  0  0  0  0  0  0  0
  -27.4237  -30.9397   26.0734 C   0  0  0  0  0  0  0  0  0  0  0  0
  -25.5828  -32.5025   25.4478 C   0  0  0  0  0  0  0  0  0  0  0  0
  -22.4482  -26.7951   27.5622 C   0  0  0  0  0  0  0  0  0  0  0  0
  -32.4627  -19.6794   20.0473 C   0  0  0  0  0  0  0  0  0  0  0  0
  -25.2932  -30.0229   25.0479 C   0  0  1  0  0  0  0  0  0  0  0  0
  -23.9641  -28.6323   28.3143 C   0  0  2  0  0  0  0  0  0  0  0  0
  -26.3074  -31.2013   25.0398 C   0  0  0  0  0  0  0  0  0  0  0  0
  -25.8086  -11.4844   20.1188 N   0  0  0  0  0  0  0  0  0  0  0  0
  -30.0494  -18.7164   20.2934 N   0  0  0  0  0  0  0  0  0  0  0  0
  -26.0584  -12.6679   19.5331 N   0  0  0  0  0  0  0  0  0  0  0  0
  -24.5713  -30.3330   22.6976 N   0  0  0  0  0  0  0  0  0  0  0  0
  -29.2668  -14.4942   20.5099 N   0  0  0  0  0  0  0  0  0  0  0  0
  -25.0126  -14.5020   18.4593 N   0  0  0  0  0  0  0  0  0  0  0  0
  -21.7384  -13.4155   20.0379 N   0  0  0  0  0  0  0  0  0  0  0  0
  -28.6822  -16.7790   20.4921 N   0  0  0  0  0  0  0  0  0  0  0  0
  -21.7377  -32.0644   21.4195 N   0  0  0  0  0  0  0  0  0  0  0  0
  -24.6391  -29.8064   26.3339 N   0  0  0  0  0  0  0  0  0  0  0  0
  -23.3808  -27.2923   28.6062 N   0  3  0  0  0  0  0  0  0  0  0  0
  -21.9691  -12.3498   18.0205 O   0  0  0  0  0  0  0  0  0  0  0  0
  -23.8798  -32.7569   22.0147 O   0  0  0  0  0  0  0  0  0  0  0  0
  -23.0175  -30.2481   24.4266 O   0  0  0  0  0  0  0  0  0  0  0  0
  -25.3340  -27.6110   26.6062 O   0  0  0  0  0  0  0  0  0  0  0  0
  -30.9013  -16.1200   20.3393 O   0  0  0  0  0  0  0  0  0  0  0  0
  -21.8895   -6.8591   22.0666 O   0  0  0  0  0  0  0  0  0  0  0  0
  -28.3898  -26.5822   20.0652 O   0  0  0  0  0  0  0  0  0  1  0  0
  -31.3783  -20.5987   20.0950 O   0  0  0  0  0  0  0  0  0  0  0  0
  -19.1071   -7.4305   26.7927 F   0  0  0  0  0  0  0  0  0  0  0  0
  -22.5585   -5.3669   24.2956 F   0  0  0  0  0  0  0  0  0  0  0  0
  1  2  1  0  0  0  0
  1  5  2  0  0  0  0
  2  6  2  0  0  0  0
  3  9  2  0  0  0  0
  3 17  1  0  0  0  0
  4 10  1  0  0  0  0
  4 17  2  0  0  0  0
  5 19  1  0  0  0  0
  6 21  1  0  0  0  0
  7 11  2  0  0  0  0
  7 20  1  0  0  0  0
  8 14  2  0  0  0  0
  8 22  1  0  0  0  0
  9 24  1  0  0  0  0
 10 24  2  0  0  0  0
 11 25  1  0  0  0  0
 12 13  2  0  0  0  0
 12 26  1  0  0  0  0
 13 27  1  0  0  0  0
 14 30  1  0  0  0  0
 15 23  1  0  0  0  0
 15 25  2  0  0  0  0
 16 27  2  0  0  0  0
 16 28  1  0  0  0  0
 17 29  1  0  0  0  0
 18 29  1  0  0  0  0
 18 32  2  0  0  0  0
 18 33  1  0  0  0  0
 19 21  2  0  0  0  0
 19 38  1  0  0  0  0
 20 23  2  0  0  0  0
 20 39  1  0  0  0  0
 21 52  1  0  0  0  0
 22 31  2  0  0  0  0
 22 51  1  0  0  0  0
 23 40  1  0  0  0  0
 24 81  1  0  0  0  0
 25 82  1  0  0  0  0
 26 28  2  0  0  0  0
 26 81  1  0  0  0  0
 27 84  1  0  0  0  0
 28 85  1  0  0  0  0
 29 65  2  0  0  0  0
 30 66  2  0  0  0  0
 30 72  1  0  0  0  0
 31 66  1  0  0  0  0
 31 83  1  0  0  0  0
 32 67  1  0  0  0  0
 32 70  1  0  0  0  0
 33 71  1  0  0  0  0
 33 76  2  0  0  0  0
 34 53  1  0  0  0  0
 34 73  1  0  0  0  0
 34 77  2  0  0  0  0
 35 62  1  0  0  0  0
 35 68  1  0  0  0  0
 35 78  2  0  0  0  0
 36 63  1  0  0  0  0
 36 74  1  0  0  0  0
 36 79  2  0  0  0  0
 37 69  1  0  0  0  0
 37 72  1  0  0  0  0
 37 80  2  0  0  0  0
 38 41  1  0  0  0  0
 39 53  1  0  0  0  0
 40 68  1  0  0  0  0
 41 45  1  0  0  0  0
 42 46  1  0  0  0  0
 42 49  1  0  0  0  0
 43 47  1  0  0  0  0
 43 51  1  0  0  0  0
 44 48  1  0  0  0  0
 44 51  1  0  0  0  0
 45 52  1  0  0  0  0
 46 54  1  0  0  0  0
 47 55  1  0  0  0  0
 48 55  1  0  0  0  0
 49 69  1  0  0  0  0
 50 54  1  0  0  0  0
 50 69  1  0  0  0  0
 52 73  1  0  0  0  0
 53 68  1  0  0  0  0
 54 67  1  0  0  0  0
 55 82  1  0  0  0  0
 56 63  1  0  0  0  0
 57 64  1  0  0  0  0
 58 64  1  0  0  0  0
 59 64  1  0  0  0  0
 60 75  1  0  0  0  0
 61 83  1  0  0  0  0
 62 64  1  0  0  0  0
 62 74  1  0  0  0  0
 63 75  1  0  0  0  0
 65 67  1  0  0  0  0
M  CHG  1  75   1
M  ISO  4  37 100  55 101  72 100  82 101
M  END
> <Batch ID>
0119

> <Smiles>
CNC(C)C(=O)NC(C(=O)N1Cc2cc([101O:1][101CH:1]3CCC(c4ccc([100NH:0][100C:0](=O)N5CCCC(n6nc(-c7ccc(Oc8ccc(F)cc8F)cc7)c(C(N)=O)c6N)C5)nc4OC)CC3)ccc2CC1C(=O)NC1CCCc2ccccc21)C(C)(C)C

> <Shape>
0.310

> <Color>
0.152

> <Negative vol penalty>
0.000

$$$$

  -OEChem-04052320203D

 85 94  0     1  0  0  0  0  0999 V2000
  -17.3043  -24.9483   24.7070 C   0  0  0  0  0  0  0  0  0  0  0  0
  -17.9588  -24.1497   23.7747 C   0  0  0  0  0  0  0  0  0  0  0  0
  -26.8764  -14.5438   12.8492 C   0  0  0  0  0  0  0  0  0  0  0  0
  -23.1549  -14.5753   23.0331 C   0  0  0  0  0  0  0  0  0  0  0  0
  -23.5677  -15.9635   21.0993 C   0  0  0  0  0  0  0  0  0  0  0  0
  -17.5309  -26.3239   24.7263 C   0  0  0  0  0  0  0  0  0  0  0  0
  -18.8397  -24.7264   22.8604 C   0  0  0  0  0  0  0  0  0  0  0  0
  -23.9786  -22.2486   20.6336 C   0  0  0  0  0  0  0  0  0  0  0  0
  -27.9624  -14.1856   13.6400 C   0  0  0  0  0  0  0  0  0  0  0  0
  -22.3715  -15.5856   23.5911 C   0  0  0  0  0  0  0  0  0  0  0  0
  -22.7842  -16.9738   21.6573 C   0  0  0  0  0  0  0  0  0  0  0  0
  -24.2597  -21.5867   19.4392 C   0  0  0  0  0  0  0  0  0  0  0  0
  -19.2339  -16.7924   23.2280 C   0  0  0  0  0  0  0  0  0  0  0  0
  -18.0127  -16.4275   23.7946 C   0  0  0  0  0  0  0  0  0  0  0  0
  -25.0608  -23.6542   18.4891 C   0  0  0  0  0  0  0  0  0  0  0  0
  -18.7434  -17.2944   25.9281 C   0  0  0  0  0  0  0  0  0  0  0  0
  -26.3552  -15.8185   13.0020 C   0  0  0  0  0  0  0  0  0  0  0  0
  -23.7530  -14.7643   21.7872 C   0  0  0  0  0  0  0  0  0  0  0  0
  -24.1585  -12.4127   20.8855 C   0  0  0  0  0  0  0  0  0  0  0  0
  -18.4224  -26.9164   23.8181 C   0  0  0  0  0  0  0  0  0  0  0  0
  -24.2267  -23.6228   20.7613 C   0  0  0  0  0  0  0  0  0  0  0  0
  -19.0775  -26.1114   22.8667 C   0  0  0  0  0  0  0  0  0  0  0  0
  -24.7843  -24.3307   19.6870 C   0  0  0  0  0  0  0  0  0  0  0  0
  -28.4868  -15.1001   14.5467 C   0  0  0  0  0  0  0  0  0  0  0  0
  -22.1862  -16.7848   22.9032 C   0  0  0  0  0  0  0  0  0  0  0  0
  -24.7982  -22.2901   18.3657 C   0  0  0  0  0  0  0  0  0  0  0  0
  -20.2100  -17.4082   24.0115 C   0  0  0  0  0  0  0  0  0  0  0  0
  -17.7674  -16.6785   25.1446 C   0  0  0  0  0  0  0  0  0  0  0  0
  -19.9647  -17.6593   25.3615 C   0  0  0  0  0  0  0  0  0  0  0  0
  -24.5628  -13.7214   21.2106 C   0  0  0  0  0  0  0  0  0  0  0  0
  -27.8937  -16.3499   14.6234 C   0  0  0  0  0  0  0  0  0  0  0  0
  -25.2869  -11.8225   20.3710 C   0  0  0  0  0  0  0  0  0  0  0  0
  -22.8773  -11.7866   21.0352 C   0  0  0  0  0  0  0  0  0  0  0  0
  -22.4281  -26.1854   21.3107 C   0  0  0  0  0  0  0  0  0  0  0  0
  -25.2985  -27.6908   21.4403 C   0  0  0  0  0  0  0  0  0  0  0  0
  -28.5916  -27.7316   20.5452 C   0  0  0  0  0  0  0  0  0  0  0  0
  -30.1848  -14.0142   17.7143 C   0  0  0  0  0  0  0  0  0  0  0  0
  -18.5991  -28.4140   23.8466 C   0  0  0  0  0  0  0  0  0  0  0  0
  -23.9428  -24.3167   22.0653 C   0  0  0  0  0  0  0  0  0  0  0  0
  -25.0882  -25.8029   19.7798 C   0  0  0  0  0  0  0  0  0  0  0  0
  -19.8328  -28.8962   23.0877 C   0  0  0  0  0  0  0  0  0  0  0  0
  -30.0603  -11.9963   20.6450 C   0  0  0  0  0  0  0  0  0  0  0  0
  -19.9210  -28.2164   21.7251 C   0  0  0  0  0  0  0  0  0  0  0  0
  -28.6008  -12.0915   21.0929 C   0  0  0  0  0  0  0  0  0  0  0  0
  -25.3339  -19.2808   16.8016 C   0  0  0  0  0  0  0  0  0  0  0  0
  -27.1979  -20.9143   16.3651 C   0  0  0  0  0  0  0  0  0  0  0  0
  -30.5589  -13.3165   20.0616 C   0  0  0  0  0  0  0  0  0  0  0  0
  -28.2678  -13.9618   19.4227 C   0  0  0  0  0  0  0  0  0  0  0  0
  -26.3244  -18.1306   16.7111 C   0  0  0  0  0  0  0  0  0  0  0  0
  -28.1847  -19.7608   16.2760 C   0  0  0  0  0  0  0  0  0  0  0  0
  -20.0592  -26.6965   21.8748 C   0  0  1  0  0  0  0  0  0  0  0  0
  -23.7564  -25.8231   21.9124 C   0  0  1  0  0  0  0  0  0  0  0  0
  -27.7031  -12.6384   19.9667 C   0  0  2  0  0  0  0  0  0  0  0  0
  -26.0063  -20.5739   17.2545 C   0  0  0  0  0  0  0  0  0  1  0  0
  -30.6766  -29.1100   20.7683 C   0  0  0  0  0  0  0  0  0  0  0  0
  -24.2278  -29.6434   19.3545 C   0  0  0  0  0  0  0  0  0  0  0  0
  -26.5848  -30.3718   18.9279 C   0  0  0  0  0  0  0  0  0  0  0  0
  -25.5683  -30.7005   21.1820 C   0  0  0  0  0  0  0  0  0  0  0  0
  -30.0184  -25.5557   21.9554 C   0  0  0  0  0  0  0  0  0  0  0  0
  -29.6504  -14.7223   15.3965 C   0  0  0  0  0  0  0  0  0  0  0  0
  -28.4170  -17.3763   15.5844 C   0  0  0  0  0  0  0  0  0  0  0  0
  -26.1966  -28.3687   20.4338 C   0  0  1  0  0  0  0  0  0  0  0  0
  -29.8525  -27.9744   21.3548 C   0  0  2  0  0  0  0  0  0  0  0  0
  -25.6370  -29.7438   19.9718 C   0  0  0  0  0  0  0  0  0  0  0  0
  -26.8377  -16.7341   13.8718 N   0  0  0  0  0  0  0  0  0  0  0  0
  -25.8479  -13.9496   20.9265 N   0  0  0  0  0  0  0  0  0  0  0  0
  -26.2607  -12.7762   20.4176 N   0  0  0  0  0  0  0  0  0  0  0  0
  -24.7871  -26.4379   21.0735 N   0  0  0  0  0  0  0  0  0  0  0  0
  -29.6645  -13.7796   18.9978 N   0  0  0  0  0  0  0  0  0  0  0  0
  -25.5312  -10.5859   19.8878 N   0  0  0  0  0  0  0  0  0  0  0  0
  -21.8268  -12.5367   21.5813 N   0  0  0  0  0  0  0  0  0  0  0  0
  -21.4156  -26.3457   22.2374 N   0  0  0  0  0  0  0  0  0  0  0  0
  -27.5185  -28.4371   21.0472 N   0  0  0  0  0  0  0  0  0  0  0  0
  -29.2681  -14.4452   16.7632 N   0  0  0  0  0  0  0  0  0  0  0  0
  -27.4651  -18.5205   15.8008 N   0  3  0  0  0  0  0  0  0  0  0  0
  -30.6961  -26.7462   21.3807 N   0  3  0  0  0  0  0  0  0  0  0  0
  -22.6745  -10.5922   20.7099 O   0  0  0  0  0  0  0  0  0  0  0  0
  -22.3294  -26.3118   20.0958 O   0  0  0  0  0  0  0  0  0  0  0  0
  -25.0654  -28.2489   22.5153 O   0  0  0  0  0  0  0  0  0  0  0  0
  -28.5624  -26.9929   19.5633 O   0  0  0  0  0  0  0  0  0  0  0  0
  -31.3768  -13.8466   17.4352 O   0  0  0  0  0  0  0  0  0  0  0  0
  -21.4216  -17.7706   23.4473 O   0  0  0  0  0  0  0  0  0  0  0  0
  -25.0729  -21.6466   17.1986 O   0  0  0  0  0  0  0  0  0  1  0  0
  -16.5940  -16.3294   25.6881 F   0  0  0  0  0  0  0  0  0  0  0  0
  -20.8981  -18.2517   26.1189 F   0  0  0  0  0  0  0  0  0  0  0  0
  1  2  1  0  0  0  0
  1  6  2  0  0  0  0
  2  7  2  0  0  0  0
  3  9  2  0  0  0  0
  3 17  1  0  0  0  0
  4 10  2  0  0  0  0
  4 18  1  0  0  0  0
  5 11  1  0  0  0  0
  5 18  2  0  0  0  0
  6 20  1  0  0  0  0
  7 22  1  0  0  0  0
  8 12  2  0  0  0  0
  8 21  1  0  0  0  0
  9 24  1  0  0  0  0
 10 25  1  0  0  0  0
 11 25  2  0  0  0  0
 12 26  1  0  0  0  0
 13 14  2  0  0  0  0
 13 27  1  0  0  0  0
 14 28  1  0  0  0  0
 15 23  1  0  0  0  0
 15 26  2  0  0  0  0
 16 28  2  0  0  0  0
 16 29  1  0  0  0  0
 17 65  2  0  0  0  0
 18 30  1  0  0  0  0
 19 30  1  0  0  0  0
 19 32  2  0  0  0  0
 19 33  1  0  0  0  0
 20 22  2  0  0  0  0
 20 38  1  0  0  0  0
 21 23  2  0  0  0  0
 21 39  1  0  0  0  0
 22 51  1  0  0  0  0
 23 40  1  0  0  0  0
 24 31  2  0  0  0  0
 24 60  1  0  0  0  0
 25 82  1  0  0  0  0
 26 83  1  0  0  0  0
 27 29  2  0  0  0  0
 27 82  1  0  0  0  0
 28 84  1  0  0  0  0
 29 85  1  0  0  0  0
 30 66  2  0  0  0  0
 31 61  1  0  0  0  0
 31 65  1  0  0  0  0
 32 67  1  0  0  0  0
 32 70  1  0  0  0  0
 33 71  1  0  0  0  0
 33 77  2  0  0  0  0
 34 52  1  0  0  0  0
 34 72  1  0  0  0  0
 34 78  2  0  0  0  0
 35 62  1  0  0  0  0
 35 68  1  0  0  0  0
 35 79  2  0  0  0  0
 36 63  1  0  0  0  0
 36 73  1  0  0  0  0
 36 80  2  0  0  0  0
 37 69  1  0  0  0  0
 37 74  1  0  0  0  0
 37 81  2  0  0  0  0
 38 41  1  0  0  0  0
 39 52  1  0  0  0  0
 40 68  1  0  0  0  0
 41 43  1  0  0  0  0
 42 44  1  0  0  0  0
 42 47  1  0  0  0  0
 43 51  1  0  0  0  0
 44 53  1  0  0  0  0
 45 49  1  0  0  0  0
 45 54  1  0  0  0  0
 46 50  1  0  0  0  0
 46 54  1  0  0  0  0
 47 69  1  0  0  0  0
 48 53  1  0  0  0  0
 48 69  1  0  0  0  0
 49 75  1  0  0  0  0
 50 75  1  0  0  0  0
 51 72  1  0  0  0  0
 52 68  1  0  0  0  0
 53 67  1  0  0  0  0
 54 83  1  0  0  0  0
 55 63  1  0  0  0  0
 56 64  1  0  0  0  0
 57 64  1  0  0  0  0
 58 64  1  0  0  0  0
 59 76  1  0  0  0  0
 60 74  1  0  0  0  0
 61 75  1  0  0  0  0
 62 64  1  0  0  0  0
 62 73  1  0  0  0  0
 63 76  1  0  0  0  0
 66 67  1  0  0  0  0
M  CHG  2  75   1  76   1
M  ISO  4  37 100  54 101  74 100  83 101
M  END
> <Batch ID>
0119

> <Smiles>
CNC(C)C(=O)NC(C(=O)N1Cc2cc([101O:1][101CH:1]3CCN(Cc4ncccc4C[100NH:0][100C:0](=O)N4CCCC(n5nc(-c6ccc(Oc7ccc(F)cc7F)cc6)c(C(N)=O)c5N)C4)CC3)ccc2CC1C(=O)NC1CCCc2ccccc21)C(C)(C)C

> <Shape>
0.189

> <Color>
0.083

> <Negative vol penalty>
0.000

$$$$

  -OEChem-04052320203D

 86 95  0     1  0  0  0  0  0999 V2000
  -29.0889  -12.0198   19.1577 C   0  0  0  0  0  0  0  0  0  0  0  0
  -29.0975  -13.4027   19.3089 C   0  0  0  0  0  0  0  0  0  0  0  0
  -28.0944  -25.5669   18.0828 C   0  0  0  0  0  0  0  0  0  0  0  0
  -26.5676  -24.2814   19.4442 C   0  0  0  0  0  0  0  0  0  0  0  0
  -27.9478  -11.2905   19.4891 C   0  0  0  0  0  0  0  0  0  0  0  0
  -27.9644  -14.0573   19.7905 C   0  0  0  0  0  0  0  0  0  0  0  0
  -21.3654  -25.8620   22.4239 C   0  0  0  0  0  0  0  0  0  0  0  0
  -26.0416  -19.7249   23.7272 C   0  0  0  0  0  0  0  0  0  0  0  0
  -22.3356  -24.8600   22.4052 C   0  0  0  0  0  0  0  0  0  0  0  0
  -29.0448  -24.5515   18.1899 C   0  0  0  0  0  0  0  0  0  0  0  0
  -27.5180  -23.2660   19.5513 C   0  0  0  0  0  0  0  0  0  0  0  0
  -25.2134  -20.8450   23.6700 C   0  0  0  0  0  0  0  0  0  0  0  0
  -29.6745  -20.4927   20.4829 C   0  0  0  0  0  0  0  0  0  0  0  0
  -29.8855  -19.9325   21.7427 C   0  0  0  0  0  0  0  0  0  0  0  0
  -23.3265  -19.4739   24.2852 C   0  0  0  0  0  0  0  0  0  0  0  0
  -21.9114  -24.4056   24.7398 C   0  0  0  0  0  0  0  0  0  0  0  0
  -30.5359  -22.0970   22.5964 C   0  0  0  0  0  0  0  0  0  0  0  0
  -26.8558  -25.4318   18.7100 C   0  0  0  0  0  0  0  0  0  0  0  0
  -24.8800  -26.6145   17.6123 C   0  0  0  0  0  0  0  0  0  0  0  0
  -26.8034  -11.9355   19.9841 C   0  0  0  0  0  0  0  0  0  0  0  0
  -25.5155  -18.4667   24.0537 C   0  0  0  0  0  0  0  0  0  0  0  0
  -26.8063  -13.3361   20.1275 C   0  0  0  0  0  0  0  0  0  0  0  0
  -20.6682  -26.1358   23.6006 C   0  0  0  0  0  0  0  0  0  0  0  0
  -24.1505  -18.3398   24.3484 C   0  0  0  0  0  0  0  0  0  0  0  0
  -22.6086  -24.1318   23.5631 C   0  0  0  0  0  0  0  0  0  0  0  0
  -20.9412  -25.4076   24.7585 C   0  0  0  0  0  0  0  0  0  0  0  0
  -28.7566  -23.4011   18.9241 C   0  0  0  0  0  0  0  0  0  0  0  0
  -23.8552  -20.7191   23.9462 C   0  0  0  0  0  0  0  0  0  0  0  0
  -29.8943  -21.8552   20.2798 C   0  0  0  0  0  0  0  0  0  0  0  0
  -30.3162  -20.7346   22.7995 C   0  0  0  0  0  0  0  0  0  0  0  0
  -30.3249  -22.6573   21.3366 C   0  0  0  0  0  0  0  0  0  0  0  0
  -25.8739  -26.4806   18.6002 C   0  0  0  0  0  0  0  0  0  0  0  0
  -24.2118  -27.7656   17.9513 C   0  0  0  0  0  0  0  0  0  0  0  0
  -24.5869  -25.7735   16.4887 C   0  0  0  0  0  0  0  0  0  0  0  0
  -25.2902  -15.6721   22.5559 C   0  0  0  0  0  0  0  0  0  0  0  0
  -24.1510  -14.6691   25.4227 C   0  0  0  0  0  0  0  0  0  0  0  0
  -22.6447  -15.4633   28.3803 C   0  0  0  0  0  0  0  0  0  0  0  0
  -23.4612  -30.6687   23.1339 C   0  0  0  0  0  0  0  0  0  0  0  0
  -25.5774  -11.1099   20.2841 C   0  0  0  0  0  0  0  0  0  0  0  0
  -26.4270  -17.2731   24.1373 C   0  0  0  0  0  0  0  0  0  0  0  0
  -23.5401  -17.0151   24.7238 C   0  0  0  0  0  0  0  0  0  0  0  0
  -24.5467  -11.8395   21.1418 C   0  0  0  0  0  0  0  0  0  0  0  0
  -24.8689  -31.9719   20.1345 C   0  0  0  0  0  0  0  0  0  0  0  0
  -24.3158  -13.2516   20.6133 C   0  0  0  0  0  0  0  0  0  0  0  0
  -25.1964  -30.7244   19.3120 C   0  0  0  0  0  0  0  0  0  0  0  0
  -18.5663  -28.7620   22.4753 C   0  0  0  0  0  0  0  0  0  0  0  0
  -25.1064  -31.7432   21.6255 C   0  0  0  0  0  0  0  0  0  0  0  0
  -24.7460  -29.3190   21.3664 C   0  0  0  0  0  0  0  0  0  0  0  0
  -19.5916  -27.2563   23.5990 C   0  0  1  0  0  0  0  0  0  0  0  0
  -25.6053  -14.0797   20.6703 C   0  0  1  0  0  0  0  0  0  0  0  0
  -25.6905  -15.9466   23.9780 C   0  0  1  0  0  0  0  0  0  0  0  0
  -20.0073  -28.6503   23.0303 C   0  0  2  0  0  0  0  0  0  0  0  0
  -24.4688  -29.4830   19.8622 C   0  0  2  0  0  0  0  0  0  0  0  0
  -18.5232  -27.2209   22.4699 C   0  0  1  0  0  0  0  0  0  0  0  0
  -20.2061  -25.6851   26.0281 C   0  0  0  0  0  0  0  0  0  0  0  0
  -21.8091  -14.4251   30.5066 C   0  0  0  0  0  0  0  0  0  0  0  0
  -21.7134  -13.5926   23.9363 C   0  0  0  0  0  0  0  0  0  0  0  0
  -20.5256  -13.4428   26.1352 C   0  0  0  0  0  0  0  0  0  0  0  0
  -22.5842  -12.0914   25.7370 C   0  0  0  0  0  0  0  0  0  0  0  0
  -24.5075  -17.0649   30.0307 C   0  0  0  0  0  0  0  0  0  0  0  0
  -23.6523  -23.0540   23.5425 C   0  0  0  0  0  0  0  0  0  1  0  0
  -20.4213  -29.7006   24.0424 C   0  0  0  0  0  0  0  0  0  0  0  0
  -21.8352  -29.4535   24.5617 C   0  0  0  0  0  0  0  0  0  0  0  0
  -22.7858  -14.5905   26.0624 C   0  0  1  0  0  0  0  0  0  0  0  0
  -22.9843  -15.0972   29.8138 C   0  0  2  0  0  0  0  0  0  0  0  0
  -21.9131  -13.4540   25.4588 C   0  0  0  0  0  0  0  0  0  0  0  0
  -25.8436  -27.4679   19.4993 N   0  0  0  0  0  0  0  0  0  0  0  0
  -24.8225  -28.2332   19.0776 N   0  0  0  0  0  0  0  0  0  0  0  0
  -24.4712  -15.8764   24.7859 N   0  0  0  0  0  0  0  0  0  0  0  0
  -24.3877  -30.5521   22.0846 N   0  0  0  0  0  0  0  0  0  0  0  0
  -23.1673  -28.4133   17.3928 N   0  0  0  0  0  0  0  0  0  0  0  0
  -25.3715  -24.6297   16.2875 N   0  0  0  0  0  0  0  0  0  0  0  0
  -25.8570  -14.5305   22.0223 N   0  0  0  0  0  0  0  0  0  0  0  0
  -23.0142  -14.4699   27.4983 N   0  0  0  0  0  0  0  0  0  0  0  0
  -22.8193  -29.4929   23.5030 N   0  0  0  0  0  0  0  0  0  0  0  0
  -17.2349  -26.6716   22.9095 N   0  3  0  0  0  0  0  0  0  0  0  0
  -23.3505  -16.3174   30.5872 N   0  3  0  0  0  0  0  0  0  0  0  0
  -23.6671  -26.0375   15.6775 O   0  0  0  0  0  0  0  0  0  0  0  0
  -24.5227  -16.4385   21.9857 O   0  0  0  0  0  0  0  0  0  0  0  0
  -24.9081  -13.6977   25.4919 O   0  0  0  0  0  0  0  0  0  0  0  0
  -22.1023  -16.5228   28.0740 O   0  0  0  0  0  0  0  0  0  0  0  0
  -23.2198  -31.7421   23.6964 O   0  0  0  0  0  0  0  0  0  0  0  0
  -29.6836  -22.4100   19.0286 O   0  0  0  0  0  0  0  0  0  0  0  0
  -23.0445  -21.8107   23.8905 O   0  0  0  0  0  0  0  0  0  1  0  0
  -30.5173  -20.1967   24.0096 F   0  0  0  0  0  0  0  0  0  0  0  0
  -30.5366  -23.9670   21.1478 F   0  0  0  0  0  0  0  0  0  0  0  0
  1  2  1  0  0  0  0
  1  5  2  0  0  0  0
  2  6  2  0  0  0  0
  3 10  2  0  0  0  0
  3 18  1  0  0  0  0
  4 11  1  0  0  0  0
  4 18  2  0  0  0  0
  5 20  1  0  0  0  0
  6 22  1  0  0  0  0
  7  9  2  0  0  0  0
  7 23  1  0  0  0  0
  8 12  2  0  0  0  0
  8 21  1  0  0  0  0
  9 25  1  0  0  0  0
 10 27  1  0  0  0  0
 11 27  2  0  0  0  0
 12 28  1  0  0  0  0
 13 14  2  0  0  0  0
 13 29  1  0  0  0  0
 14 30  1  0  0  0  0
 15 24  1  0  0  0  0
 15 28  2  0  0  0  0
 16 25  2  0  0  0  0
 16 26  1  0  0  0  0
 17 30  2  0  0  0  0
 17 31  1  0  0  0  0
 18 32  1  0  0  0  0
 19 32  1  0  0  0  0
 19 33  2  0  0  0  0
 19 34  1  0  0  0  0
 20 22  2  0  0  0  0
 20 39  1  0  0  0  0
 21 24  2  0  0  0  0
 21 40  1  0  0  0  0
 22 50  1  0  0  0  0
 23 26  2  0  0  0  0
 23 49  1  0  0  0  0
 24 41  1  0  0  0  0
 25 61  1  0  0  0  0
 26 55  1  0  0  0  0
 27 83  1  0  0  0  0
 28 84  1  0  0  0  0
 29 31  2  0  0  0  0
 29 83  1  0  0  0  0
 30 85  1  0  0  0  0
 31 86  1  0  0  0  0
 32 67  2  0  0  0  0
 33 68  1  0  0  0  0
 33 71  1  0  0  0  0
 34 72  1  0  0  0  0
 34 78  2  0  0  0  0
 35 51  1  0  0  0  0
 35 73  1  0  0  0  0
 35 79  2  0  0  0  0
 36 64  1  0  0  0  0
 36 69  1  0  0  0  0
 36 80  2  0  0  0  0
 37 65  1  0  0  0  0
 37 74  1  0  0  0  0
 37 81  2  0  0  0  0
 38 70  1  0  0  0  0
 38 75  1  0  0  0  0
 38 82  2  0  0  0  0
 39 42  1  0  0  0  0
 40 51  1  0  0  0  0
 41 69  1  0  0  0  0
 42 44  1  0  0  0  0
 43 45  1  0  0  0  0
 43 47  1  0  0  0  0
 44 50  1  0  0  0  0
 45 53  1  0  0  0  0
 46 52  1  0  0  0  0
 46 54  1  0  0  0  0
 47 70  1  0  0  0  0
 48 53  1  0  0  0  0
 48 70  1  0  0  0  0
 49 52  1  0  0  0  0
 49 54  1  0  0  0  0
 50 73  1  0  0  0  0
 51 69  1  0  0  0  0
 52 62  1  0  0  0  0
 53 68  1  0  0  0  0
 54 76  1  0  0  0  0
 56 65  1  0  0  0  0
 57 66  1  0  0  0  0
 58 66  1  0  0  0  0
 59 66  1  0  0  0  0
 60 77  1  0  0  0  0
 61 84  1  0  0  0  0
 62 63  1  0  0  0  0
 63 75  1  0  0  0  0
 64 66  1  0  0  0  0
 64 74  1  0  0  0  0
 65 77  1  0  0  0  0
 67 68  1  0  0  0  0
M  CHG  2  76   1  77   1
M  ISO  4  38 100  61 101  75 100  84 101
M  END
> <Batch ID>
0119

> <Smiles>
CNC(C)C(=O)NC(C(=O)N1Cc2cc([101O:1][101CH2:1]c3ccc(C4C(N)CC4CC[100NH:0][100C:0](=O)N4CCCC(n5nc(-c6ccc(Oc7ccc(F)cc7F)cc6)c(C(N)=O)c5N)C4)c(C)c3)ccc2CC1C(=O)NC1CCCc2ccccc21)C(C)(C)C

> <Shape>
0.202

> <Color>
0.075

> <Negative vol penalty>
0.000

$$$$

  -OEChem-04052320203D

 81 89  0     1  0  0  0  0  0999 V2000
  -24.1126   -7.2129   22.6523 C   0  0  0  0  0  0  0  0  0  0  0  0
  -25.2161   -8.0098   22.9400 C   0  0  0  0  0  0  0  0  0  0  0  0
  -20.2487  -27.1909   23.6722 C   0  0  0  0  0  0  0  0  0  0  0  0
  -20.3002  -27.0945   21.2586 C   0  0  0  0  0  0  0  0  0  0  0  0
  -23.3138   -7.5030   21.5470 C   0  0  0  0  0  0  0  0  0  0  0  0
  -25.5220   -9.0966   22.1217 C   0  0  0  0  0  0  0  0  0  0  0  0
  -28.3162  -15.6866   22.4060 C   0  0  0  0  0  0  0  0  0  0  0  0
  -18.9821  -27.7729   23.6219 C   0  0  0  0  0  0  0  0  0  0  0  0
  -19.0335  -27.6764   21.2084 C   0  0  0  0  0  0  0  0  0  0  0  0
  -29.3007  -16.4661   21.8003 C   0  0  0  0  0  0  0  0  0  0  0  0
  -17.6675  -30.8290   23.0248 C   0  0  0  0  0  0  0  0  0  0  0  0
  -17.4267  -31.9277   23.8496 C   0  0  0  0  0  0  0  0  0  0  0  0
  -27.8037  -16.9189   19.9636 C   0  0  0  0  0  0  0  0  0  0  0  0
  -15.6465  -30.7158   24.9445 C   0  0  0  0  0  0  0  0  0  0  0  0
  -20.9078  -26.8518   22.4905 C   0  0  0  0  0  0  0  0  0  0  0  0
  -22.5197  -24.8778   22.6028 C   0  0  0  0  0  0  0  0  0  0  0  0
  -23.6045   -8.5997   20.7204 C   0  0  0  0  0  0  0  0  0  0  0  0
  -27.0697  -15.5082   21.7887 C   0  0  0  0  0  0  0  0  0  0  0  0
  -24.7272   -9.4008   21.0035 C   0  0  0  0  0  0  0  0  0  0  0  0
  -26.8042  -16.1388   20.5648 C   0  0  0  0  0  0  0  0  0  0  0  0
  -18.3745  -28.0156   22.3901 C   0  0  0  0  0  0  0  0  0  0  0  0
  -29.0456  -17.0801   20.5775 C   0  0  0  0  0  0  0  0  0  0  0  0
  -16.8976  -29.6736   23.1598 C   0  0  0  0  0  0  0  0  0  0  0  0
  -16.4163  -31.8712   24.8095 C   0  0  0  0  0  0  0  0  0  0  0  0
  -15.8872  -29.6170   24.1197 C   0  0  0  0  0  0  0  0  0  0  0  0
  -22.2165  -26.2511   22.5417 C   0  0  0  0  0  0  0  0  0  0  0  0
  -23.8921  -24.8302   22.6332 C   0  0  0  0  0  0  0  0  0  0  0  0
  -21.6396  -23.7463   22.6297 C   0  0  0  0  0  0  0  0  0  0  0  0
  -25.4583  -13.0073   20.6696 C   0  0  0  0  0  0  0  0  0  0  0  0
  -23.1092  -15.2039   20.2462 C   0  0  0  0  0  0  0  0  0  0  0  0
  -22.2479  -18.4772   19.8100 C   0  0  0  0  0  0  0  0  0  0  0  0
  -28.8636  -26.5416   20.7623 C   0  0  0  0  0  0  0  0  0  0  0  0
  -22.7395   -8.8456   19.5096 C   0  0  0  0  0  0  0  0  0  0  0  0
  -26.0090  -14.6861   22.4680 C   0  0  0  0  0  0  0  0  0  0  0  0
  -25.4752  -15.9953   19.8707 C   0  0  0  0  0  0  0  0  0  0  0  0
  -22.9146  -10.2378   18.9086 C   0  0  0  0  0  0  0  0  0  0  0  0
  -27.3004  -28.5108   23.2833 C   0  0  0  0  0  0  0  0  0  0  0  0
  -24.3952  -10.5817   18.7806 C   0  0  0  0  0  0  0  0  0  0  0  0
  -25.8627  -27.9895   23.3155 C   0  0  0  0  0  0  0  0  0  0  0  0
  -30.5436  -22.1049   19.3509 C   0  0  0  0  0  0  0  0  0  0  0  0
  -27.8648  -28.5226   21.8644 C   0  0  0  0  0  0  0  0  0  0  0  0
  -26.3358  -26.7137   21.1831 C   0  0  0  0  0  0  0  0  0  0  0  0
  -29.2349  -22.5930   21.2728 C   0  0  0  0  0  0  0  0  0  0  0  0
  -25.0772  -10.6032   20.1539 C   0  0  1  0  0  0  0  0  0  0  0  0
  -24.9558  -14.1532   21.5015 C   0  0  1  0  0  0  0  0  0  0  0  0
  -29.4106  -23.0091   19.8209 C   0  0  1  0  0  0  0  0  0  0  0  0
  -25.7428  -26.6305   22.6000 C   0  0  2  0  0  0  0  0  0  0  0  0
  -30.1725  -20.7575   19.9568 C   0  0  1  0  0  0  0  0  0  0  0  0
  -20.7553  -20.4807   19.5742 C   0  0  0  0  0  0  0  0  0  0  0  0
  -29.9691  -24.8489   18.2003 C   0  0  0  0  0  0  0  0  0  0  0  0
  -32.1147  -19.5702   18.9000 C   0  0  0  0  0  0  0  0  0  0  0  0
  -22.9535  -14.2928   17.3384 C   0  0  0  0  0  0  0  0  0  0  0  0
  -21.6802  -16.3862   16.8235 C   0  0  0  0  0  0  0  0  0  0  0  0
  -20.7382  -14.7160   18.4191 C   0  0  0  0  0  0  0  0  0  0  0  0
  -22.1666  -18.9060   22.7372 C   0  0  0  0  0  0  0  0  0  0  0  0
  -30.9254  -18.5124   20.8431 C   0  0  0  0  0  0  0  0  0  1  0  0
  -22.7057  -16.1360   19.1293 C   0  0  1  0  0  0  0  0  0  0  0  0
  -21.1918  -19.3386   20.4786 C   0  0  2  0  0  0  0  0  0  0  0  0
  -29.7162  -24.4879   19.6602 C   0  0  1  0  0  0  0  0  0  0  0  0
  -31.3660  -19.8326   20.2050 C   0  0  2  0  0  0  0  0  0  0  0  0
  -22.0452  -15.3841   17.9394 C   0  0  0  0  0  0  0  0  0  0  0  0
  -23.3084  -27.0204   22.5337 N   0  0  0  0  0  0  0  0  0  0  0  0
  -24.3111  -26.1274   22.5904 N   0  0  0  0  0  0  0  0  0  0  0  0
  -24.4727  -15.1762   20.5718 N   0  0  0  0  0  0  0  0  0  0  0  0
  -27.7218  -27.2039   21.2425 N   0  0  0  0  0  0  0  0  0  0  0  0
  -24.7692  -23.8056   22.6921 N   0  0  0  0  0  0  0  0  0  0  0  0
  -20.2572  -23.9740   22.5919 N   0  0  0  0  0  0  0  0  0  0  0  0
  -24.7614  -11.8288   20.8559 N   0  0  0  0  0  0  0  0  0  0  0  0
  -21.8580  -17.1567   19.7357 N   0  0  0  0  0  0  0  0  0  0  0  0
  -28.6404  -25.2938   20.1932 N   0  0  0  0  0  0  0  0  0  0  0  0
  -29.5121  -21.1155   21.2642 N   0  3  0  0  0  0  0  0  0  0  0  0
  -21.7218  -19.9183   21.7450 N   0  3  0  0  0  0  0  0  0  0  0  0
  -22.0660  -22.5688   22.7022 O   0  0  0  0  0  0  0  0  0  0  0  0
  -26.4071  -13.1801   19.9135 O   0  0  0  0  0  0  0  0  0  0  0  0
  -22.2454  -14.5307   20.8138 O   0  0  0  0  0  0  0  0  0  0  0  0
  -23.3108  -18.9311   19.3918 O   0  0  0  0  0  0  0  0  0  0  0  0
  -29.9986  -27.0240   20.8401 O   0  0  0  0  0  0  0  0  0  0  0  0
  -17.1384  -28.5833   22.3407 O   0  0  0  0  0  0  0  0  0  0  0  0
  -30.0050  -17.8409   19.9838 O   0  0  0  0  0  0  0  0  0  1  0  0
  -16.1862  -32.9258   25.6025 F   0  0  0  0  0  0  0  0  0  0  0  0
  -15.1451  -28.5093   24.2549 F   0  0  0  0  0  0  0  0  0  0  0  0
  1  2  1  0  0  0  0
  1  5  2  0  0  0  0
  2  6  2  0  0  0  0
  3  8  2  0  0  0  0
  3 15  1  0  0  0  0
  4  9  1  0  0  0  0
  4 15  2  0  0  0  0
  5 17  1  0  0  0  0
  6 19  1  0  0  0  0
  7 10  2  0  0  0  0
  7 18  1  0  0  0  0
  8 21  1  0  0  0  0
  9 21  2  0  0  0  0
 10 22  1  0  0  0  0
 11 12  2  0  0  0  0
 11 23  1  0  0  0  0
 12 24  1  0  0  0  0
 13 20  1  0  0  0  0
 13 22  2  0  0  0  0
 14 24  2  0  0  0  0
 14 25  1  0  0  0  0
 15 26  1  0  0  0  0
 16 26  1  0  0  0  0
 16 27  2  0  0  0  0
 16 28  1  0  0  0  0
 17 19  2  0  0  0  0
 17 33  1  0  0  0  0
 18 20  2  0  0  0  0
 18 34  1  0  0  0  0
 19 44  1  0  0  0  0
 20 35  1  0  0  0  0
 21 78  1  0  0  0  0
 22 79  1  0  0  0  0
 23 25  2  0  0  0  0
 23 78  1  0  0  0  0
 24 80  1  0  0  0  0
 25 81  1  0  0  0  0
 26 62  2  0  0  0  0
 27 63  1  0  0  0  0
 27 66  1  0  0  0  0
 28 67  1  0  0  0  0
 28 73  2  0  0  0  0
 29 45  1  0  0  0  0
 29 68  1  0  0  0  0
 29 74  2  0  0  0  0
 30 57  1  0  0  0  0
 30 64  1  0  0  0  0
 30 75  2  0  0  0  0
 31 58  1  0  0  0  0
 31 69  1  0  0  0  0
 31 76  2  0  0  0  0
 32 65  1  0  0  0  0
 32 70  1  0  0  0  0
 32 77  2  0  0  0  0
 33 36  1  0  0  0  0
 34 45  1  0  0  0  0
 35 64  1  0  0  0  0
 36 38  1  0  0  0  0
 37 39  1  0  0  0  0
 37 41  1  0  0  0  0
 38 44  1  0  0  0  0
 39 47  1  0  0  0  0
 40 46  1  0  0  0  0
 40 48  1  0  0  0  0
 41 65  1  0  0  0  0
 42 47  1  0  0  0  0
 42 65  1  0  0  0  0
 43 46  1  0  0  0  0
 43 71  1  0  0  0  0
 44 68  1  0  0  0  0
 45 64  1  0  0  0  0
 46 59  1  0  0  0  0
 47 63  1  0  0  0  0
 48 60  1  0  0  0  0
 48 71  1  0  0  0  0
 49 58  1  0  0  0  0
 50 59  1  0  0  0  0
 51 60  1  0  0  0  0
 52 61  1  0  0  0  0
 53 61  1  0  0  0  0
 54 61  1  0  0  0  0
 55 72  1  0  0  0  0
 56 60  1  0  0  0  0
 56 79  1  0  0  0  0
 57 61  1  0  0  0  0
 57 69  1  0  0  0  0
 58 72  1  0  0  0  0
 59 70  1  0  0  0  0
 62 63  1  0  0  0  0
M  CHG  2  71   1  72   1
M  ISO  4  32 100  56 101  70 100  79 101
M  END
> <Batch ID>
0119

> <Smiles>
CNC(C)C(=O)NC(C(=O)N1Cc2cc([101O:1][101CH2:1]C(C)C3CC(C(C)[100NH:0][100C:0](=O)N4CCCC(n5nc(-c6ccc(Oc7ccc(F)cc7F)cc6)c(C(N)=O)c5N)C4)CN3)ccc2CC1C(=O)NC1CCCc2ccccc21)C(C)(C)C

> <Shape>
0.238

> <Color>
0.055

> <Negative vol penalty>
0.000

$$$$

  -OEChem-04052320203D

 84 93  0     1  0  0  0  0  0999 V2000
  -17.6730  -25.2874   25.3223 C   0  0  0  0  0  0  0  0  0  0  0  0
  -18.6129  -24.3318   24.9497 C   0  0  0  0  0  0  0  0  0  0  0  0
  -30.8096  -19.9629   19.0470 C   0  0  0  0  0  0  0  0  0  0  0  0
  -29.0607  -20.4292   20.6473 C   0  0  0  0  0  0  0  0  0  0  0  0
  -17.6480  -26.5256   24.6817 C   0  0  0  0  0  0  0  0  0  0  0  0
  -19.5277  -24.6133   23.9357 C   0  0  0  0  0  0  0  0  0  0  0  0
  -24.2395  -23.1827   25.1173 C   0  0  0  0  0  0  0  0  0  0  0  0
  -21.4851  -15.2480   23.6099 C   0  0  0  0  0  0  0  0  0  0  0  0
  -30.6311  -21.2264   18.4836 C   0  0  0  0  0  0  0  0  0  0  0  0
  -28.8822  -21.6927   20.0840 C   0  0  0  0  0  0  0  0  0  0  0  0
  -24.5408  -21.8263   25.0026 C   0  0  0  0  0  0  0  0  0  0  0  0
  -28.4696  -22.7231   16.3595 C   0  0  0  0  0  0  0  0  0  0  0  0
  -28.4258  -22.8112   14.9681 C   0  0  0  0  0  0  0  0  0  0  0  0
  -22.0000  -16.5360   23.5136 C   0  0  0  0  0  0  0  0  0  0  0  0
  -25.5980  -22.2473   22.8755 C   0  0  0  0  0  0  0  0  0  0  0  0
  -30.3439  -24.2798   15.0008 C   0  0  0  0  0  0  0  0  0  0  0  0
  -30.0244  -19.5643   20.1288 C   0  0  0  0  0  0  0  0  0  0  0  0
  -31.0772  -17.9117   21.7623 C   0  0  0  0  0  0  0  0  0  0  0  0
  -18.5691  -26.8260   23.6659 C   0  0  0  0  0  0  0  0  0  0  0  0
  -24.6063  -24.0814   24.1053 C   0  0  0  0  0  0  0  0  0  0  0  0
  -19.5141  -25.8562   23.2800 C   0  0  0  0  0  0  0  0  0  0  0  0
  -22.2756  -14.1609   23.2541 C   0  0  0  0  0  0  0  0  0  0  0  0
  -25.3025  -23.6150   22.9811 C   0  0  0  0  0  0  0  0  0  0  0  0
  -29.6674  -22.0913   19.0021 C   0  0  0  0  0  0  0  0  0  0  0  0
  -25.2176  -21.3579   23.8802 C   0  0  0  0  0  0  0  0  0  0  0  0
  -29.4504  -23.4134   17.0715 C   0  0  0  0  0  0  0  0  0  0  0  0
  -29.3630  -23.5895   14.2887 C   0  0  0  0  0  0  0  0  0  0  0  0
  -30.3876  -24.1918   16.3922 C   0  0  0  0  0  0  0  0  0  0  0  0
  -30.2080  -18.2591   20.7108 C   0  0  0  0  0  0  0  0  0  0  0  0
  -23.5640  -14.4132   22.8114 C   0  0  0  0  0  0  0  0  0  0  0  0
  -23.3009  -16.6819   23.0595 C   0  0  0  0  0  0  0  0  0  0  0  0
  -30.8796  -16.5642   21.9402 C   0  0  0  0  0  0  0  0  0  0  0  0
  -31.9823  -18.7337   22.5112 C   0  0  0  0  0  0  0  0  0  0  0  0
  -23.0226  -26.0038   22.1305 C   0  0  0  0  0  0  0  0  0  0  0  0
  -26.0056  -26.9885   21.3217 C   0  0  0  0  0  0  0  0  0  0  0  0
  -29.3428  -26.2923   21.1630 C   0  0  0  0  0  0  0  0  0  0  0  0
  -26.2722  -12.9277   20.7578 C   0  0  0  0  0  0  0  0  0  0  0  0
  -18.4728  -28.1607   22.9701 C   0  0  0  0  0  0  0  0  0  0  0  0
  -24.2975  -25.5457   24.2567 C   0  0  0  0  0  0  0  0  0  0  0  0
  -25.7363  -24.5420   21.8761 C   0  0  0  0  0  0  0  0  0  0  0  0
  -19.7179  -28.5178   22.1625 C   0  0  0  0  0  0  0  0  0  0  0  0
  -29.6077  -12.6186   19.5516 C   0  0  0  0  0  0  0  0  0  0  0  0
  -21.1757  -12.3026   24.6722 C   0  0  0  0  0  0  0  0  0  0  0  0
  -22.4747  -11.7530   24.1711 C   0  0  0  0  0  0  0  0  0  0  0  0
  -20.1653  -27.3293   21.3175 C   0  0  0  0  0  0  0  0  0  0  0  0
  -30.2182  -13.9978   19.8068 C   0  0  0  0  0  0  0  0  0  0  0  0
  -28.1395  -12.7181   19.1437 C   0  0  0  0  0  0  0  0  0  0  0  0
  -27.9002  -14.8668   20.3267 C   0  0  0  0  0  0  0  0  0  0  0  0
  -21.7308  -12.7780   23.3542 C   0  0  0  0  0  0  0  0  0  0  0  0
  -20.5388  -26.1333   22.2015 C   0  0  1  0  0  0  0  0  0  0  0  0
  -24.2650  -26.2902   22.9255 C   0  0  1  0  0  0  0  0  0  0  0  0
  -29.3645  -14.8148   20.7952 C   0  0  2  0  0  0  0  0  0  0  0  0
  -31.5274  -27.2775   20.4183 C   0  0  0  0  0  0  0  0  0  0  0  0
  -25.2735  -26.4098   18.4167 C   0  0  0  0  0  0  0  0  0  0  0  0
  -27.7128  -26.4900   17.8588 C   0  0  0  0  0  0  0  0  0  0  0  0
  -26.5751  -28.5167   18.7646 C   0  0  0  0  0  0  0  0  0  0  0  0
  -30.4553  -26.1917   23.9037 C   0  0  0  0  0  0  0  0  0  0  0  0
  -24.4597  -13.2851   22.4150 C   0  0  0  0  0  0  0  0  0  0  0  0
  -25.5785  -19.4958   22.4455 C   0  0  0  0  0  0  0  0  0  1  0  0
  -25.1697  -18.0361   22.4852 C   0  0  0  0  0  0  0  0  0  0  0  0
  -27.0323  -26.5614   20.3007 C   0  0  1  0  0  0  0  0  0  0  0  0
  -30.5607  -27.0978   21.5784 C   0  0  2  0  0  0  0  0  0  0  0  0
  -26.6387  -26.9764   18.8549 C   0  0  0  0  0  0  0  0  0  0  0  0
  -29.5102  -17.2163   20.2528 N   0  0  0  0  0  0  0  0  0  0  0  0
  -24.0990  -15.6501   22.7045 N   0  0  0  0  0  0  0  0  0  0  0  0
  -29.9408  -16.2005   21.0201 N   0  0  0  0  0  0  0  0  0  0  0  0
  -25.4057  -25.9638   22.0673 N   0  0  0  0  0  0  0  0  0  0  0  0
  -27.3851  -13.5037   20.1233 N   0  0  0  0  0  0  0  0  0  0  0  0
  -31.4191  -15.6669   22.7924 N   0  0  0  0  0  0  0  0  0  0  0  0
  -32.0609  -20.0976   22.1984 N   0  0  0  0  0  0  0  0  0  0  0  0
  -21.8490  -26.3259   22.7851 N   0  0  0  0  0  0  0  0  0  0  0  0
  -28.3082  -27.1060   20.7523 N   0  0  0  0  0  0  0  0  0  0  0  0
  -25.6175  -13.7384   21.6771 N   0  0  0  0  0  0  0  0  0  0  0  0
  -31.2810  -26.4124   22.6885 N   0  3  0  0  0  0  0  0  0  0  0  0
  -32.7121  -18.2691   23.4195 O   0  0  0  0  0  0  0  0  0  0  0  0
  -23.1214  -25.5274   21.0058 O   0  0  0  0  0  0  0  0  0  0  0  0
  -25.7507  -28.1877   21.4578 O   0  0  0  0  0  0  0  0  0  0  0  0
  -29.3137  -25.0641   21.1958 O   0  0  0  0  0  0  0  0  0  0  0  0
  -25.8934  -11.7745   20.5265 O   0  0  0  0  0  0  0  0  0  0  0  0
  -29.4930  -23.3244   18.4528 O   0  0  0  0  0  0  0  0  0  0  0  0
  -25.5123  -20.0344   23.7654 O   0  0  0  0  0  0  0  0  0  1  0  0
  -23.8309  -17.9411   22.9563 O   0  0  0  0  0  0  0  0  0  0  0  0
  -29.3218  -23.6728   12.9525 F   0  0  0  0  0  0  0  0  0  0  0  0
  -31.3330  -24.8563   17.0707 F   0  0  0  0  0  0  0  0  0  0  0  0
  1  2  1  0  0  0  0
  1  5  2  0  0  0  0
  2  6  2  0  0  0  0
  3  9  2  0  0  0  0
  3 17  1  0  0  0  0
  4 10  1  0  0  0  0
  4 17  2  0  0  0  0
  5 19  1  0  0  0  0
  6 21  1  0  0  0  0
  7 11  2  0  0  0  0
  7 20  1  0  0  0  0
  8 14  2  0  0  0  0
  8 22  1  0  0  0  0
  9 24  1  0  0  0  0
 10 24  2  0  0  0  0
 11 25  1  0  0  0  0
 12 13  2  0  0  0  0
 12 26  1  0  0  0  0
 13 27  1  0  0  0  0
 14 31  1  0  0  0  0
 15 23  1  0  0  0  0
 15 25  2  0  0  0  0
 16 27  2  0  0  0  0
 16 28  1  0  0  0  0
 17 29  1  0  0  0  0
 18 29  1  0  0  0  0
 18 32  2  0  0  0  0
 18 33  1  0  0  0  0
 19 21  2  0  0  0  0
 19 38  1  0  0  0  0
 20 23  2  0  0  0  0
 20 39  1  0  0  0  0
 21 50  1  0  0  0  0
 22 30  2  0  0  0  0
 22 49  1  0  0  0  0
 23 40  1  0  0  0  0
 24 80  1  0  0  0  0
 25 81  1  0  0  0  0
 26 28  2  0  0  0  0
 26 80  1  0  0  0  0
 27 83  1  0  0  0  0
 28 84  1  0  0  0  0
 29 64  2  0  0  0  0
 30 58  1  0  0  0  0
 30 65  1  0  0  0  0
 31 65  2  0  0  0  0
 31 82  1  0  0  0  0
 32 66  1  0  0  0  0
 32 69  1  0  0  0  0
 33 70  1  0  0  0  0
 33 75  2  0  0  0  0
 34 51  1  0  0  0  0
 34 71  1  0  0  0  0
 34 76  2  0  0  0  0
 35 61  1  0  0  0  0
 35 67  1  0  0  0  0
 35 77  2  0  0  0  0
 36 62  1  0  0  0  0
 36 72  1  0  0  0  0
 36 78  2  0  0  0  0
 37 68  1  0  0  0  0
 37 73  1  0  0  0  0
 37 79  2  0  0  0  0
 38 41  1  0  0  0  0
 39 51  1  0  0  0  0
 40 67  1  0  0  0  0
 41 45  1  0  0  0  0
 42 46  1  0  0  0  0
 42 47  1  0  0  0  0
 43 44  1  0  0  0  0
 43 49  1  0  0  0  0
 44 49  1  0  0  0  0
 45 50  1  0  0  0  0
 46 52  1  0  0  0  0
 47 68  1  0  0  0  0
 48 52  1  0  0  0  0
 48 68  1  0  0  0  0
 50 71  1  0  0  0  0
 51 67  1  0  0  0  0
 52 66  1  0  0  0  0
 53 62  1  0  0  0  0
 54 63  1  0  0  0  0
 55 63  1  0  0  0  0
 56 63  1  0  0  0  0
 57 74  1  0  0  0  0
 58 73  1  0  0  0  0
 59 60  1  0  0  0  0
 59 81  1  0  0  0  0
 60 82  1  0  0  0  0
 61 63  1  0  0  0  0
 61 72  1  0  0  0  0
 62 74  1  0  0  0  0
 64 66  1  0  0  0  0
M  CHG  1  74   1
M  ISO  4  37 100  59 101  73 100  81 101
M  END
> <Batch ID>
0119

> <Smiles>
CNC(C)C(=O)NC(C(=O)N1Cc2cc([101O:1][101CH2:1]COc3ccc(C4CC4)c(C[100NH:0][100C:0](=O)N4CCCC(n5nc(-c6ccc(Oc7ccc(F)cc7F)cc6)c(C(N)=O)c5N)C4)n3)ccc2CC1C(=O)NC1CCCc2ccccc21)C(C)(C)C

> <Shape>
0.215

> <Color>
0.058

> <Negative vol penalty>
0.000

$$$$

  -OEChem-04052320203D

 85 93  0     1  0  0  0  0  0999 V2000
  -26.8431  -21.2929   28.7783 C   0  0  0  0  0  0  0  0  0  0  0  0
  -27.6168  -21.9594   27.8335 C   0  0  0  0  0  0  0  0  0  0  0  0
  -25.7118  -13.1219   22.1596 C   0  0  0  0  0  0  0  0  0  0  0  0
  -26.4517  -13.5231   19.8949 C   0  0  0  0  0  0  0  0  0  0  0  0
  -25.4803  -21.1034   28.5533 C   0  0  0  0  0  0  0  0  0  0  0  0
  -27.0282  -22.4358   26.6626 C   0  0  0  0  0  0  0  0  0  0  0  0
  -28.4987  -27.5410   23.6161 C   0  0  0  0  0  0  0  0  0  0  0  0
  -24.6585  -12.3447   21.6779 C   0  0  0  0  0  0  0  0  0  0  0  0
  -25.3984  -12.7458   19.4132 C   0  0  0  0  0  0  0  0  0  0  0  0
  -29.2912  -27.7668   22.4915 C   0  0  0  0  0  0  0  0  0  0  0  0
  -24.2145   -9.2068   20.4990 C   0  0  0  0  0  0  0  0  0  0  0  0
  -23.9652   -7.9891   21.1319 C   0  0  0  0  0  0  0  0  0  0  0  0
  -27.3204  -27.7221   21.1012 C   0  0  0  0  0  0  0  0  0  0  0  0
  -21.7377   -8.7373   21.6940 C   0  0  0  0  0  0  0  0  0  0  0  0
  -32.5334  -26.3569   18.3121 C   0  0  0  0  0  0  0  0  0  0  0  0
  -26.6084  -13.7112   21.2682 C   0  0  0  0  0  0  0  0  0  0  0  0
  -28.9888  -14.0760   22.1095 C   0  0  0  0  0  0  0  0  0  0  0  0
  -24.8728  -21.5861   27.3835 C   0  0  0  0  0  0  0  0  0  0  0  0
  -27.1100  -27.3929   23.4902 C   0  0  0  0  0  0  0  0  0  0  0  0
  -25.6562  -22.2513   26.4211 C   0  0  0  0  0  0  0  0  0  0  0  0
  -26.5122  -27.4970   22.2261 C   0  0  0  0  0  0  0  0  0  0  0  0
  -24.5018  -12.1566   20.3047 C   0  0  0  0  0  0  0  0  0  0  0  0
  -28.7024  -27.8545   21.2335 C   0  0  0  0  0  0  0  0  0  0  0  0
  -23.2255  -10.1898   20.4636 C   0  0  0  0  0  0  0  0  0  0  0  0
  -22.7268   -7.7543   21.7294 C   0  0  0  0  0  0  0  0  0  0  0  0
  -21.9871   -9.9551   21.0611 C   0  0  0  0  0  0  0  0  0  0  0  0
  -27.6963  -14.5146   21.7652 C   0  0  0  0  0  0  0  0  0  0  0  0
  -31.1851  -26.2665   18.5793 C   0  0  0  0  0  0  0  0  0  0  0  0
  -31.5686  -24.4355   19.8948 C   0  0  0  0  0  0  0  0  0  0  0  0
  -32.9168  -24.5256   19.6269 C   0  0  0  0  0  0  0  0  0  0  0  0
  -29.6388  -15.2133   22.5224 C   0  0  0  0  0  0  0  0  0  0  0  0
  -29.5517  -12.7582   22.0605 C   0  0  0  0  0  0  0  0  0  0  0  0
  -25.0379  -25.0617   24.1033 C   0  0  0  0  0  0  0  0  0  0  0  0
  -22.8525  -27.3288   23.3245 C   0  0  0  0  0  0  0  0  0  0  0  0
  -22.1484  -30.2236   21.6599 C   0  0  0  0  0  0  0  0  0  0  0  0
  -28.8267  -20.9087   21.1965 C   0  0  0  0  0  0  0  0  0  0  0  0
  -23.4055  -21.3157   27.1627 C   0  0  0  0  0  0  0  0  0  0  0  0
  -26.2661  -27.1763   24.7163 C   0  0  0  0  0  0  0  0  0  0  0  0
  -25.0234  -27.3655   22.0396 C   0  0  0  0  0  0  0  0  0  0  0  0
  -22.7847  -22.1802   26.0684 C   0  0  0  0  0  0  0  0  0  0  0  0
  -28.8117  -19.4822   24.5224 C   0  0  0  0  0  0  0  0  0  0  0  0
  -23.6773  -22.1981   24.8315 C   0  0  0  0  0  0  0  0  0  0  0  0
  -28.6454  -17.9931   24.2140 C   0  0  0  0  0  0  0  0  0  0  0  0
  -27.9973  -20.3406   23.5591 C   0  0  0  0  0  0  0  0  0  0  0  0
  -28.1266  -18.6113   21.8080 C   0  0  0  0  0  0  0  0  0  0  0  0
  -25.0493  -22.8045   25.1500 C   0  0  1  0  0  0  0  0  0  0  0  0
  -24.9198  -26.5282   24.4083 C   0  0  1  0  0  0  0  0  0  0  0  0
  -28.9432  -17.6909   22.7334 C   0  0  2  0  0  0  0  0  0  0  0  0
  -29.7365  -26.8044   16.5934 C   0  0  0  0  0  0  0  0  0  0  0  0
  -34.9197  -24.2394   21.1302 C   0  0  0  0  0  0  0  0  0  0  0  0
  -34.6219  -22.7374   19.1276 C   0  0  0  0  0  0  0  0  0  0  0  0
  -20.2656  -31.8115   21.1790 C   0  0  0  0  0  0  0  0  0  0  0  0
  -21.6970  -25.3459   21.3137 C   0  0  0  0  0  0  0  0  0  0  0  0
  -20.4891  -27.2535   20.2320 C   0  0  0  0  0  0  0  0  0  0  0  0
  -19.9885  -26.6439   22.5985 C   0  0  0  0  0  0  0  0  0  0  0  0
  -23.5586  -32.4741   22.9659 C   0  0  0  0  0  0  0  0  0  0  0  0
  -31.0214  -23.3665   20.7777 C   0  0  0  0  0  0  0  0  0  0  0  0
  -29.4926  -23.2534   20.7316 C   0  0  0  0  0  0  0  0  0  0  0  0
  -29.0130  -27.5297   18.8981 C   0  0  0  0  0  0  0  0  0  1  0  0
  -30.2101  -27.2647   17.9749 C   0  0  1  0  0  0  0  0  0  0  0  0
  -33.8910  -23.5582   20.2075 C   0  0  0  0  0  0  0  0  0  0  0  0
  -22.1821  -27.7735   22.0470 C   0  0  1  0  0  0  0  0  0  0  0  0
  -21.4336  -31.4892   22.0980 C   0  0  2  0  0  0  0  0  0  0  0  0
  -21.1175  -26.7548   21.5508 C   0  0  0  0  0  0  0  0  0  0  0  0
  -33.4235  -25.4880   18.8310 N   0  0  0  0  0  0  0  0  0  0  0  0
  -27.5329  -15.8282   21.9439 N   0  0  0  0  0  0  0  0  0  0  0  0
  -30.6785  -25.3042   19.3755 N   0  0  0  0  0  0  0  0  0  0  0  0
  -28.7312  -16.2246   22.4052 N   0  0  0  0  0  0  0  0  0  0  0  0
  -24.2417  -27.1482   23.2681 N   0  0  0  0  0  0  0  0  0  0  0  0
  -28.3417  -20.0169   22.1674 N   0  0  0  0  0  0  0  0  0  0  0  0
  -30.8923  -15.4370   22.9708 N   0  0  0  0  0  0  0  0  0  0  0  0
  -28.7454  -11.7036   21.6111 N   0  0  0  0  0  0  0  0  0  0  0  0
  -24.9608  -24.2474   25.2170 N   0  0  0  0  0  0  0  0  0  0  0  0
  -21.6560  -29.1093   22.3057 N   0  0  0  0  0  0  0  0  0  0  0  0
  -28.9958  -22.2226   21.6157 N   0  0  0  0  0  0  0  0  0  0  0  0
  -22.3738  -32.6455   22.0863 N   0  3  0  0  0  0  0  0  0  0  0  0
  -30.7295  -12.5202   22.4205 O   0  0  0  0  0  0  0  0  0  0  0  0
  -25.1864  -24.6959   22.9432 O   0  0  0  0  0  0  0  0  0  0  0  0
  -22.1696  -27.1552   24.3370 O   0  0  0  0  0  0  0  0  0  0  0  0
  -23.0506  -30.2231   20.8252 O   0  0  0  0  0  0  0  0  0  0  0  0
  -29.0946  -20.5588   20.0420 O   0  0  0  0  0  0  0  0  0  0  0  0
  -23.4743  -11.3980   19.8342 O   0  0  0  0  0  0  0  0  0  0  0  0
  -29.4737  -28.0743   20.1340 O   0  0  0  0  0  0  0  0  0  1  0  0
  -22.4870   -6.5843   22.3358 F   0  0  0  0  0  0  0  0  0  0  0  0
  -21.0327  -10.8952   21.0293 F   0  0  0  0  0  0  0  0  0  0  0  0
  1  2  1  0  0  0  0
  1  5  2  0  0  0  0
  2  6  2  0  0  0  0
  3  8  2  0  0  0  0
  3 16  1  0  0  0  0
  4  9  1  0  0  0  0
  4 16  2  0  0  0  0
  5 18  1  0  0  0  0
  6 20  1  0  0  0  0
  7 10  2  0  0  0  0
  7 19  1  0  0  0  0
  8 22  1  0  0  0  0
  9 22  2  0  0  0  0
 10 23  1  0  0  0  0
 11 12  2  0  0  0  0
 11 24  1  0  0  0  0
 12 25  1  0  0  0  0
 13 21  1  0  0  0  0
 13 23  2  0  0  0  0
 14 25  2  0  0  0  0
 14 26  1  0  0  0  0
 15 28  1  0  0  0  0
 15 65  2  0  0  0  0
 16 27  1  0  0  0  0
 17 27  1  0  0  0  0
 17 31  2  0  0  0  0
 17 32  1  0  0  0  0
 18 20  2  0  0  0  0
 18 37  1  0  0  0  0
 19 21  2  0  0  0  0
 19 38  1  0  0  0  0
 20 46  1  0  0  0  0
 21 39  1  0  0  0  0
 22 82  1  0  0  0  0
 23 83  1  0  0  0  0
 24 26  2  0  0  0  0
 24 82  1  0  0  0  0
 25 84  1  0  0  0  0
 26 85  1  0  0  0  0
 27 66  2  0  0  0  0
 28 60  1  0  0  0  0
 28 67  2  0  0  0  0
 29 30  2  0  0  0  0
 29 57  1  0  0  0  0
 29 67  1  0  0  0  0
 30 61  1  0  0  0  0
 30 65  1  0  0  0  0
 31 68  1  0  0  0  0
 31 71  1  0  0  0  0
 32 72  1  0  0  0  0
 32 77  2  0  0  0  0
 33 47  1  0  0  0  0
 33 73  1  0  0  0  0
 33 78  2  0  0  0  0
 34 62  1  0  0  0  0
 34 69  1  0  0  0  0
 34 79  2  0  0  0  0
 35 63  1  0  0  0  0
 35 74  1  0  0  0  0
 35 80  2  0  0  0  0
 36 70  1  0  0  0  0
 36 75  1  0  0  0  0
 36 81  2  0  0  0  0
 37 40  1  0  0  0  0
 38 47  1  0  0  0  0
 39 69  1  0  0  0  0
 40 42  1  0  0  0  0
 41 43  1  0  0  0  0
 41 44  1  0  0  0  0
 42 46  1  0  0  0  0
 43 48  1  0  0  0  0
 44 70  1  0  0  0  0
 45 48  1  0  0  0  0
 45 70  1  0  0  0  0
 46 73  1  0  0  0  0
 47 69  1  0  0  0  0
 48 68  1  0  0  0  0
 49 60  1  0  0  0  0
 50 61  1  0  0  0  0
 51 61  1  0  0  0  0
 52 63  1  0  0  0  0
 53 64  1  0  0  0  0
 54 64  1  0  0  0  0
 55 64  1  0  0  0  0
 56 76  1  0  0  0  0
 57 58  1  0  0  0  0
 58 75  1  0  0  0  0
 59 60  1  0  0  0  0
 59 83  1  0  0  0  0
 62 64  1  0  0  0  0
 62 74  1  0  0  0  0
 63 76  1  0  0  0  0
 66 68  1  0  0  0  0
M  CHG  1  76   1
M  ISO  4  36 100  59 101  75 100  83 101
M  END
> <Batch ID>
0119

> <Smiles>
CNC(C)C(=O)NC(C(=O)N1Cc2cc([101O:1][101CH2:1]C(C)c3cnc(C(C)C)c(CC[100NH:0][100C:0](=O)N4CCCC(n5nc(-c6ccc(Oc7ccc(F)cc7F)cc6)c(C(N)=O)c5N)C4)n3)ccc2CC1C(=O)NC1CCCc2ccccc21)C(C)(C)C

> <Shape>
0.215

> <Color>
0.085

> <Negative vol penalty>
0.000

$$$$

  -OEChem-04052320203D

 94104  0     1  0  0  0  0  0999 V2000
  -28.8411  -31.5118   26.8726 C   0  0  0  0  0  0  0  0  0  0  0  0
  -28.6093  -30.4140   26.0502 C   0  0  0  0  0  0  0  0  0  0  0  0
  -26.5451  -11.7714   18.5303 C   0  0  0  0  0  0  0  0  0  0  0  0
  -27.3534  -12.0269   20.7927 C   0  0  0  0  0  0  0  0  0  0  0  0
  -27.7883  -32.3592   27.2155 C   0  0  0  0  0  0  0  0  0  0  0  0
  -27.3242  -30.1622   25.5710 C   0  0  0  0  0  0  0  0  0  0  0  0
  -27.2838  -28.9815   20.6466 C   0  0  0  0  0  0  0  0  0  0  0  0
  -29.0693  -23.4615   17.9117 C   0  0  0  0  0  0  0  0  0  0  0  0
  -29.2604  -22.1392   17.5019 C   0  0  0  0  0  0  0  0  0  0  0  0
  -27.5094  -10.7912   18.2964 C   0  0  0  0  0  0  0  0  0  0  0  0
  -28.3178  -11.0466   20.5588 C   0  0  0  0  0  0  0  0  0  0  0  0
  -27.6594  -27.6844   20.2998 C   0  0  0  0  0  0  0  0  0  0  0  0
  -30.7594   -8.3551   20.6701 C   0  0  0  0  0  0  0  0  0  0  0  0
  -30.9422   -7.3776   21.6483 C   0  0  0  0  0  0  0  0  0  0  0  0
  -28.4089  -22.7255   20.1328 C   0  0  0  0  0  0  0  0  0  0  0  0
  -25.3352  -27.0749   20.0861 C   0  0  0  0  0  0  0  0  0  0  0  0
  -28.6390   -6.6933   21.3948 C   0  0  0  0  0  0  0  0  0  0  0  0
  -26.4671  -12.3893   19.7785 C   0  0  0  0  0  0  0  0  0  0  0  0
  -24.1652  -13.2109   20.5091 C   0  0  0  0  0  0  0  0  0  0  0  0
  -26.4915  -32.1232   26.7324 C   0  0  0  0  0  0  0  0  0  0  0  0
  -25.9285  -29.3326   20.7266 C   0  0  0  0  0  0  0  0  0  0  0  0
  -26.2528  -31.0064   25.9088 C   0  0  0  0  0  0  0  0  0  0  0  0
  -28.5992  -21.4199   19.7123 C   0  0  0  0  0  0  0  0  0  0  0  0
  -24.9450  -28.3777   20.4317 C   0  0  0  0  0  0  0  0  0  0  0  0
  -28.6426  -23.7524   19.2170 C   0  0  0  0  0  0  0  0  0  0  0  0
  -28.9989  -21.1243   18.4060 C   0  0  0  0  0  0  0  0  0  0  0  0
  -28.3958  -10.4287   19.3107 C   0  0  0  0  0  0  0  0  0  0  0  0
  -26.6851  -26.7301   20.0223 C   0  0  0  0  0  0  0  0  0  0  0  0
  -29.5164   -8.5017   20.0543 C   0  0  0  0  0  0  0  0  0  0  0  0
  -29.8820   -6.5468   22.0106 C   0  0  0  0  0  0  0  0  0  0  0  0
  -28.4563   -7.6708   20.4167 C   0  0  0  0  0  0  0  0  0  0  0  0
  -25.4715  -13.4024   20.0205 C   0  0  0  0  0  0  0  0  0  0  0  0
  -23.6287  -14.4743   20.5591 C   0  0  0  0  0  0  0  0  0  0  0  0
  -23.4965  -11.9994   20.8844 C   0  0  0  0  0  0  0  0  0  0  0  0
  -24.0107  -30.3611   23.0435 C   0  0  0  0  0  0  0  0  0  0  0  0
  -21.8805  -30.6587   20.6154 C   0  0  0  0  0  0  0  0  0  0  0  0
  -20.8847  -29.6865   17.4993 C   0  0  0  0  0  0  0  0  0  0  0  0
  -26.0645  -19.9220   21.0494 C   0  0  0  0  0  0  0  0  0  0  0  0
  -25.3763  -33.0400   27.1686 C   0  0  0  0  0  0  0  0  0  0  0  0
  -25.5402  -30.7431   21.0761 C   0  0  0  0  0  0  0  0  0  0  0  0
  -23.4768  -28.7095   20.4836 C   0  0  0  0  0  0  0  0  0  0  0  0
  -24.1170  -32.9165   26.3147 C   0  0  0  0  0  0  0  0  0  0  0  0
  -23.9313  -18.7570   18.4477 C   0  0  0  0  0  0  0  0  0  0  0  0
  -23.7601  -31.4492   26.0989 C   0  0  0  0  0  0  0  0  0  0  0  0
  -23.9663  -17.2353   18.5998 C   0  0  0  0  0  0  0  0  0  0  0  0
  -25.2873  -19.3866   18.7590 C   0  0  0  0  0  0  0  0  0  0  0  0
  -28.5893  -19.0873   19.3640 C   0  0  0  0  0  0  0  0  0  0  0  0
  -25.8896  -17.4969   20.2219 C   0  0  0  0  0  0  0  0  0  0  0  0
  -29.8939  -21.5599   24.9378 C   0  0  0  0  0  0  0  0  0  0  0  0
  -28.4645  -20.1453   20.4927 C   0  0  1  0  0  0  0  0  0  0  0  0
  -24.8776  -30.7142   25.3489 C   0  0  1  0  0  0  0  0  0  0  0  0
  -24.1223  -30.8532   21.6282 C   0  0  1  0  0  0  0  0  0  0  0  0
  -30.5103  -21.0553   23.6398 C   0  0  1  0  0  0  0  0  0  0  0  0
  -29.2796  -20.8248   22.7567 C   0  0  2  0  0  0  0  0  0  0  0  0
  -24.5301  -16.8219   19.9726 C   0  0  2  0  0  0  0  0  0  0  0  0
  -28.3136  -20.1383   23.7265 C   0  0  2  0  0  0  0  0  0  0  0  0
  -32.6585  -22.2830   23.9956 C   0  0  0  0  0  0  0  0  0  0  0  0
  -19.0851  -30.0780   15.7948 C   0  0  0  0  0  0  0  0  0  0  0  0
  -23.6770  -19.8845   25.6563 C   0  0  0  0  0  0  0  0  0  0  0  0
  -24.0820  -21.6024   23.8833 C   0  0  0  0  0  0  0  0  0  0  0  0
  -19.9518  -28.9664   22.2666 C   0  0  0  0  0  0  0  0  0  0  0  0
  -18.6043  -28.5998   20.1886 C   0  0  0  0  0  0  0  0  0  0  0  0
  -18.8957  -30.9061   21.0934 C   0  0  0  0  0  0  0  0  0  0  0  0
  -22.8325  -30.6650   15.4974 C   0  0  0  0  0  0  0  0  0  0  0  0
  -28.4468  -25.1808   19.6327 C   0  0  0  0  0  0  0  0  0  1  0  0
  -29.5603  -19.9995   21.5423 C   0  0  0  0  0  0  0  0  0  0  0  0
  -31.5167  -22.0377   23.0609 C   0  0  0  0  0  0  0  0  0  0  0  0
  -25.9531  -20.0167   24.5980 C   0  0  0  0  0  0  0  0  0  0  0  0
  -20.8518  -29.7556   19.9790 C   0  0  1  0  0  0  0  0  0  0  0  0
  -20.4670  -30.4879   16.2796 C   0  0  2  0  0  0  0  0  0  0  0  0
  -26.8463  -20.2979   23.3746 C   0  0  2  0  0  0  0  0  0  0  0  0
  -24.4381  -20.1951   24.3641 C   0  0  0  0  0  0  0  0  0  0  0  0
  -19.6035  -29.5499   20.8827 C   0  0  0  0  0  0  0  0  0  0  0  0
  -25.7481  -14.6863   19.7773 N   0  0  0  0  0  0  0  0  0  0  0  0
  -24.6080  -15.3130   20.1143 N   0  0  0  0  0  0  0  0  0  0  0  0
  -29.1786  -19.7567   18.2098 N   0  0  0  0  0  0  0  0  0  0  0  0
  -23.1474  -30.1004   20.8363 N   0  0  0  0  0  0  0  0  0  0  0  0
  -25.7650  -18.9556   20.0750 N   0  0  0  0  0  0  0  0  0  0  0  0
  -22.4195  -14.9386   20.9395 N   0  0  0  0  0  0  0  0  0  0  0  0
  -24.1937  -10.7889   20.7712 N   0  0  0  0  0  0  0  0  0  0  0  0
  -24.8287  -31.0265   23.9366 N   0  0  0  0  0  0  0  0  0  0  0  0
  -20.5550  -30.3323   18.6722 N   0  0  0  0  0  0  0  0  0  0  0  0
  -26.5051  -19.4281   22.2711 N   0  0  0  0  0  0  0  0  0  0  0  0
  -28.5957  -20.8113   25.0474 N   0  3  0  0  0  0  0  0  0  0  0  0
  -21.4361  -30.2804   15.1667 N   0  3  0  0  0  0  0  0  0  0  0  0
  -22.3103  -11.9889   21.2920 O   0  0  0  0  0  0  0  0  0  0  0  0
  -23.2386  -29.4465   23.3061 O   0  0  0  0  0  0  0  0  0  0  0  0
  -21.5733  -31.8192   20.8994 O   0  0  0  0  0  0  0  0  0  0  0  0
  -21.4440  -28.5950   17.4197 O   0  0  0  0  0  0  0  0  0  0  0  0
  -25.9429  -21.1350   20.8473 O   0  0  0  0  0  0  0  0  0  0  0  0
  -29.3368   -9.4721   19.0828 O   0  0  0  0  0  0  0  0  0  0  0  0
  -27.0490  -25.4632   19.6841 O   0  0  0  0  0  0  0  0  0  1  0  0
  -30.0581   -5.6071   22.9489 F   0  0  0  0  0  0  0  0  0  0  0  0
  -27.2601   -7.8061   19.8278 F   0  0  0  0  0  0  0  0  0  0  0  0
  1  2  1  0  0  0  0
  1  5  2  0  0  0  0
  2  6  2  0  0  0  0
  3 10  2  0  0  0  0
  3 18  1  0  0  0  0
  4 11  1  0  0  0  0
  4 18  2  0  0  0  0
  5 20  1  0  0  0  0
  6 22  1  0  0  0  0
  7 12  2  0  0  0  0
  7 21  1  0  0  0  0
  8  9  2  0  0  0  0
  8 25  1  0  0  0  0
  9 26  1  0  0  0  0
 10 27  1  0  0  0  0
 11 27  2  0  0  0  0
 12 28  1  0  0  0  0
 13 14  2  0  0  0  0
 13 29  1  0  0  0  0
 14 30  1  0  0  0  0
 15 23  1  0  0  0  0
 15 25  2  0  0  0  0
 16 24  1  0  0  0  0
 16 28  2  0  0  0  0
 17 30  2  0  0  0  0
 17 31  1  0  0  0  0
 18 32  1  0  0  0  0
 19 32  1  0  0  0  0
 19 33  2  0  0  0  0
 19 34  1  0  0  0  0
 20 22  2  0  0  0  0
 20 39  1  0  0  0  0
 21 24  2  0  0  0  0
 21 40  1  0  0  0  0
 22 51  1  0  0  0  0
 23 26  2  0  0  0  0
 23 50  1  0  0  0  0
 24 41  1  0  0  0  0
 25 65  1  0  0  0  0
 26 76  1  0  0  0  0
 27 91  1  0  0  0  0
 28 92  1  0  0  0  0
 29 31  2  0  0  0  0
 29 91  1  0  0  0  0
 30 93  1  0  0  0  0
 31 94  1  0  0  0  0
 32 74  2  0  0  0  0
 33 75  1  0  0  0  0
 33 79  1  0  0  0  0
 34 80  1  0  0  0  0
 34 86  2  0  0  0  0
 35 52  1  0  0  0  0
 35 81  1  0  0  0  0
 35 87  2  0  0  0  0
 36 69  1  0  0  0  0
 36 77  1  0  0  0  0
 36 88  2  0  0  0  0
 37 70  1  0  0  0  0
 37 82  1  0  0  0  0
 37 89  2  0  0  0  0
 38 78  1  0  0  0  0
 38 83  1  0  0  0  0
 38 90  2  0  0  0  0
 39 42  1  0  0  0  0
 40 52  1  0  0  0  0
 41 77  1  0  0  0  0
 42 44  1  0  0  0  0
 43 45  1  0  0  0  0
 43 46  1  0  0  0  0
 44 51  1  0  0  0  0
 45 55  1  0  0  0  0
 46 78  1  0  0  0  0
 47 50  1  0  0  0  0
 47 76  1  0  0  0  0
 48 55  1  0  0  0  0
 48 78  1  0  0  0  0
 49 53  1  0  0  0  0
 49 84  1  0  0  0  0
 50 66  1  0  0  0  0
 51 81  1  0  0  0  0
 52 77  1  0  0  0  0
 53 54  1  0  0  0  0
 53 67  1  0  0  0  0
 54 56  1  0  0  0  0
 54 66  1  0  0  0  0
 55 75  1  0  0  0  0
 56 71  1  0  0  0  0
 56 84  1  0  0  0  0
 57 67  1  0  0  0  0
 58 70  1  0  0  0  0
 59 72  1  0  0  0  0
 60 72  1  0  0  0  0
 61 73  1  0  0  0  0
 62 73  1  0  0  0  0
 63 73  1  0  0  0  0
 64 85  1  0  0  0  0
 65 92  1  0  0  0  0
 68 71  1  0  0  0  0
 68 72  1  0  0  0  0
 69 73  1  0  0  0  0
 69 82  1  0  0  0  0
 70 85  1  0  0  0  0
 71 83  1  0  0  0  0
 74 75  1  0  0  0  0
M  CHG  2  84   1  85   1
M  ISO  4  38 100  65 101  83 100  92 101
M  END
> <Batch ID>
0119

> <Smiles>
CCC1CNC(C(CC(C)C)[100NH:0][100C:0](=O)N2CCCC(n3nc(-c4ccc(Oc5ccc(F)cc5F)cc4)c(C(N)=O)c3N)C2)C1CC1CNc2ccc([101CH2:1][101O:1]c3ccc4c(c3)CN(C(=O)C(NC(=O)C(C)NC)C(C)(C)C)C(C(=O)NC3CCCc5ccccc53)C4)cc21

> <Shape>
0.248

> <Color>
0.064

> <Negative vol penalty>
0.000

$$$$

  -OEChem-04052320203D

 88 97  0     1  0  0  0  0  0999 V2000
  -19.9061  -17.3546   17.3704 C   0  0  0  0  0  0  0  0  0  0  0  0
  -21.2136  -17.0382   17.7251 C   0  0  0  0  0  0  0  0  0  0  0  0
  -22.0172  -28.5840   20.9808 C   0  0  0  0  0  0  0  0  0  0  0  0
  -22.5095  -26.5615   22.2073 C   0  0  0  0  0  0  0  0  0  0  0  0
  -18.9128  -17.4051   18.3475 C   0  0  0  0  0  0  0  0  0  0  0  0
  -21.5287  -16.7731   19.0573 C   0  0  0  0  0  0  0  0  0  0  0  0
  -24.4988  -12.7047   19.5787 C   0  0  0  0  0  0  0  0  0  0  0  0
  -20.6816  -28.4969   21.3733 C   0  0  0  0  0  0  0  0  0  0  0  0
  -21.1738  -26.4745   22.5999 C   0  0  0  0  0  0  0  0  0  0  0  0
  -25.8548  -12.8661   19.2976 C   0  0  0  0  0  0  0  0  0  0  0  0
  -17.2168  -29.0054   22.3490 C   0  0  0  0  0  0  0  0  0  0  0  0
  -16.5955  -30.1708   22.7977 C   0  0  0  0  0  0  0  0  0  0  0  0
  -26.3165  -13.0471   21.6584 C   0  0  0  0  0  0  0  0  0  0  0  0
  -18.2215  -30.3532   24.5754 C   0  0  0  0  0  0  0  0  0  0  0  0
  -22.9312  -27.6162   21.3978 C   0  0  0  0  0  0  0  0  0  0  0  0
  -25.2093  -28.7557   21.2591 C   0  0  0  0  0  0  0  0  0  0  0  0
  -19.2140  -17.1311   19.6909 C   0  0  0  0  0  0  0  0  0  0  0  0
  -24.0393  -12.7243   20.9034 C   0  0  0  0  0  0  0  0  0  0  0  0
  -20.5388  -16.8213   20.0535 C   0  0  0  0  0  0  0  0  0  0  0  0
  -24.9545  -12.8832   21.9538 C   0  0  0  0  0  0  0  0  0  0  0  0
  -20.2598  -27.4422   22.1828 C   0  0  0  0  0  0  0  0  0  0  0  0
  -26.7635  -13.0402   20.3373 C   0  0  0  0  0  0  0  0  0  0  0  0
  -18.3405  -28.5138   23.0134 C   0  0  0  0  0  0  0  0  0  0  0  0
  -17.0978  -30.8447   23.9109 C   0  0  0  0  0  0  0  0  0  0  0  0
  -18.8428  -29.1877   24.1266 C   0  0  0  0  0  0  0  0  0  0  0  0
  -24.3109  -27.7053   20.9922 C   0  0  0  0  0  0  0  0  0  0  0  0
  -26.3832  -28.3632   20.6637 C   0  0  0  0  0  0  0  0  0  0  0  0
  -25.0014  -29.9771   21.9807 C   0  0  0  0  0  0  0  0  0  0  0  0
  -22.0556  -14.5726   22.5625 C   0  0  0  0  0  0  0  0  0  0  0  0
  -22.5457  -12.3533   24.8770 C   0  0  0  0  0  0  0  0  0  0  0  0
  -25.3418  -10.4848   26.1839 C   0  0  0  0  0  0  0  0  0  0  0  0
  -28.6383  -23.0030   19.2376 C   0  0  0  0  0  0  0  0  0  0  0  0
  -18.1161  -17.2443   20.7187 C   0  0  0  0  0  0  0  0  0  0  0  0
  -22.5769  -12.5221   21.1914 C   0  0  0  0  0  0  0  0  0  0  0  0
  -24.5148  -12.8913   23.3943 C   0  0  0  0  0  0  0  0  0  0  0  0
  -18.4587  -16.5833   22.0514 C   0  0  0  0  0  0  0  0  0  0  0  0
  -33.0909  -17.0526   19.4304 C   0  0  0  0  0  0  0  0  0  0  0  0
  -28.0403  -25.7305   17.0286 C   0  0  0  0  0  0  0  0  0  0  0  0
  -19.8641  -16.9757   22.4962 C   0  0  0  0  0  0  0  0  0  0  0  0
  -32.0110  -18.1342   19.4383 C   0  0  0  0  0  0  0  0  0  0  0  0
  -32.4904  -15.8485   18.7053 C   0  0  0  0  0  0  0  0  0  0  0  0
  -27.0978  -26.6407   17.8180 C   0  0  0  0  0  0  0  0  0  0  0  0
  -27.8910  -18.4643   20.0723 C   0  0  0  0  0  0  0  0  0  0  0  0
  -28.2431  -17.8946   18.7078 C   0  0  0  0  0  0  0  0  0  0  0  0
  -27.7516  -24.2543   17.2923 C   0  0  0  0  0  0  0  0  0  0  0  0
  -26.8027  -24.7794   19.5054 C   0  0  0  0  0  0  0  0  0  0  0  0
  -20.9150  -16.5032   21.4844 C   0  0  1  0  0  0  0  0  0  0  0  0
  -22.1536  -13.0733   22.5495 C   0  0  1  0  0  0  0  0  0  0  0  0
  -30.7221  -17.4201   19.0288 C   0  0  2  0  0  0  0  0  0  0  0  0
  -31.2266  -16.3768   18.0250 C   0  0  2  0  0  0  0  0  0  0  0  0
  -27.0918  -26.2782   19.3153 C   0  0  2  0  0  0  0  0  0  0  0  0
  -28.4819  -19.8629   20.0162 C   0  0  1  0  0  0  0  0  0  0  0  0
  -29.6755  -18.3799   18.4571 C   0  0  1  0  0  0  0  0  0  0  0  0
  -29.9425  -18.6650   16.9820 C   0  0  0  0  0  0  0  0  0  0  0  0
  -25.4209   -8.2519   27.3264 C   0  0  0  0  0  0  0  0  0  0  0  0
  -30.8370  -14.2750   16.7374 C   0  0  0  0  0  0  0  0  0  0  0  0
  -22.4025  -13.9887   27.4490 C   0  0  0  0  0  0  0  0  0  0  0  0
  -24.0101  -12.3723   28.4839 C   0  0  0  0  0  0  0  0  0  0  0  0
  -21.7754  -11.5815   27.7071 C   0  0  0  0  0  0  0  0  0  0  0  0
  -27.2989   -9.4257   24.2327 C   0  0  0  0  0  0  0  0  0  0  0  0
  -28.7826  -20.4658   21.3733 C   0  0  0  0  0  0  0  0  0  0  0  0
  -29.7586  -14.5403   18.9888 C   0  0  0  0  0  0  0  0  0  0  0  0
  -29.4341  -21.8437   21.2826 C   0  0  0  0  0  0  0  0  0  0  0  0
  -28.4266  -13.8183   18.8258 C   0  0  0  0  0  0  0  0  0  1  0  0
  -23.5407  -12.1807   25.9992 C   0  0  1  0  0  0  0  0  0  0  0  0
  -25.6008   -8.9987   26.0139 C   0  0  2  0  0  0  0  0  0  0  0  0
  -30.2239  -15.2744   17.7209 C   0  0  1  0  0  0  0  0  0  0  0  0
  -22.9390  -12.5446   27.3859 C   0  0  0  0  0  0  0  0  0  0  0  0
  -24.8664  -26.7195   20.2824 N   0  0  0  0  0  0  0  0  0  0  0  0
  -26.1264  -27.1489   20.0981 N   0  0  0  0  0  0  0  0  0  0  0  0
  -23.0738  -12.6962   23.6243 N   0  0  0  0  0  0  0  0  0  0  0  0
  -27.7620  -23.9766   18.7306 N   0  0  0  0  0  0  0  0  0  0  0  0
  -27.5996  -28.9417   20.5739 N   0  0  0  0  0  0  0  0  0  0  0  0
  -23.7346  -30.2224   22.5280 N   0  0  0  0  0  0  0  0  0  0  0  0
  -21.1648  -15.0862   21.6394 N   0  0  0  0  0  0  0  0  0  0  0  0
  -24.0320  -10.8104   25.9020 N   0  0  0  0  0  0  0  0  0  0  0  0
  -28.5888  -22.8065   20.6122 N   0  0  0  0  0  0  0  0  0  0  0  0
  -29.7573  -19.6835   19.2344 N   0  3  0  0  0  0  0  0  0  0  0  0
  -26.9906   -8.7673   25.5282 N   0  3  0  0  0  0  0  0  0  0  0  0
  -25.9073  -30.8332   22.1216 O   0  0  0  0  0  0  0  0  0  0  0  0
  -22.7366  -15.2157   23.3526 O   0  0  0  0  0  0  0  0  0  0  0  0
  -21.3449  -12.1829   25.1020 O   0  0  0  0  0  0  0  0  0  0  0  0
  -26.2133  -11.2769   26.5354 O   0  0  0  0  0  0  0  0  0  0  0  0
  -29.4115  -22.3604   18.5192 O   0  0  0  0  0  0  0  0  0  0  0  0
  -18.9566  -27.3571   22.5662 O   0  0  0  0  0  0  0  0  0  0  0  0
  -28.0875  -13.1985   20.0657 O   0  0  0  0  0  0  0  0  0  1  0  0
  -16.5020  -31.9646   24.3408 F   0  0  0  0  0  0  0  0  0  0  0  0
  -19.9227  -28.7210   24.7683 F   0  0  0  0  0  0  0  0  0  0  0  0
  1  2  1  0  0  0  0
  1  5  2  0  0  0  0
  2  6  2  0  0  0  0
  3  8  2  0  0  0  0
  3 15  1  0  0  0  0
  4  9  1  0  0  0  0
  4 15  2  0  0  0  0
  5 17  1  0  0  0  0
  6 19  1  0  0  0  0
  7 10  2  0  0  0  0
  7 18  1  0  0  0  0
  8 21  1  0  0  0  0
  9 21  2  0  0  0  0
 10 22  1  0  0  0  0
 11 12  2  0  0  0  0
 11 23  1  0  0  0  0
 12 24  1  0  0  0  0
 13 20  1  0  0  0  0
 13 22  2  0  0  0  0
 14 24  2  0  0  0  0
 14 25  1  0  0  0  0
 15 26  1  0  0  0  0
 16 26  1  0  0  0  0
 16 27  2  0  0  0  0
 16 28  1  0  0  0  0
 17 19  2  0  0  0  0
 17 33  1  0  0  0  0
 18 20  2  0  0  0  0
 18 34  1  0  0  0  0
 19 47  1  0  0  0  0
 20 35  1  0  0  0  0
 21 85  1  0  0  0  0
 22 86  1  0  0  0  0
 23 25  2  0  0  0  0
 23 85  1  0  0  0  0
 24 87  1  0  0  0  0
 25 88  1  0  0  0  0
 26 69  2  0  0  0  0
 27 70  1  0  0  0  0
 27 73  1  0  0  0  0
 28 74  1  0  0  0  0
 28 80  2  0  0  0  0
 29 48  1  0  0  0  0
 29 75  1  0  0  0  0
 29 81  2  0  0  0  0
 30 65  1  0  0  0  0
 30 71  1  0  0  0  0
 30 82  2  0  0  0  0
 31 66  1  0  0  0  0
 31 76  1  0  0  0  0
 31 83  2  0  0  0  0
 32 72  1  0  0  0  0
 32 77  1  0  0  0  0
 32 84  2  0  0  0  0
 33 36  1  0  0  0  0
 34 48  1  0  0  0  0
 35 71  1  0  0  0  0
 36 39  1  0  0  0  0
 37 40  1  0  0  0  0
 37 41  1  0  0  0  0
 38 42  1  0  0  0  0
 38 45  1  0  0  0  0
 39 47  1  0  0  0  0
 40 49  1  0  0  0  0
 41 50  1  0  0  0  0
 42 51  1  0  0  0  0
 43 44  1  0  0  0  0
 43 52  1  0  0  0  0
 44 53  1  0  0  0  0
 45 72  1  0  0  0  0
 46 51  1  0  0  0  0
 46 72  1  0  0  0  0
 47 75  1  0  0  0  0
 48 71  1  0  0  0  0
 49 50  1  0  0  0  0
 49 53  1  0  0  0  0
 50 67  1  0  0  0  0
 51 70  1  0  0  0  0
 52 61  1  0  0  0  0
 52 78  1  0  0  0  0
 53 54  1  0  0  0  0
 53 78  1  0  0  0  0
 55 66  1  0  0  0  0
 56 67  1  0  0  0  0
 57 68  1  0  0  0  0
 58 68  1  0  0  0  0
 59 68  1  0  0  0  0
 60 79  1  0  0  0  0
 61 63  1  0  0  0  0
 62 64  1  0  0  0  0
 62 67  1  0  0  0  0
 63 77  1  0  0  0  0
 64 86  1  0  0  0  0
 65 68  1  0  0  0  0
 65 76  1  0  0  0  0
 66 79  1  0  0  0  0
 69 70  1  0  0  0  0
M  CHG  2  78   1  79   1
M  ISO  4  32 100  64 101  77 100  86 101
M  END
> <Batch ID>
0119

> <Smiles>
CNC(C)C(=O)NC(C(=O)N1Cc2cc([101O:1][101CH2:1]CC(C)C3CCCC3C3(C)CCC(CC[100NH:0][100C:0](=O)N4CCCC(n5nc(-c6ccc(Oc7ccc(F)cc7F)cc6)c(C(N)=O)c5N)C4)N3)ccc2CC1C(=O)NC1CCCc2ccccc21)C(C)(C)C

> <Shape>
0.241

> <Color>
0.049

> <Negative vol penalty>
0.000

$$$$

  -OEChem-04052320203D

 89 98  0     1  0  0  0  0  0999 V2000
  -28.2605  -33.3816   26.0040 C   0  0  0  0  0  0  0  0  0  0  0  0
  -28.3399  -32.1402   25.3810 C   0  0  0  0  0  0  0  0  0  0  0  0
  -22.2872  -15.2876   20.7964 C   0  0  0  0  0  0  0  0  0  0  0  0
  -22.9357  -13.2554   21.9307 C   0  0  0  0  0  0  0  0  0  0  0  0
  -27.0149  -33.9275   26.3116 C   0  0  0  0  0  0  0  0  0  0  0  0
  -27.1737  -31.4435   25.0662 C   0  0  0  0  0  0  0  0  0  0  0  0
  -27.2845  -29.4778   20.4005 C   0  0  0  0  0  0  0  0  0  0  0  0
  -21.2962  -15.5056   21.7534 C   0  0  0  0  0  0  0  0  0  0  0  0
  -21.9447  -13.4733   22.8878 C   0  0  0  0  0  0  0  0  0  0  0  0
  -28.0230  -28.3092   20.2193 C   0  0  0  0  0  0  0  0  0  0  0  0
  -18.5965  -13.0783   23.1417 C   0  0  0  0  0  0  0  0  0  0  0  0
  -17.8012  -11.9931   23.5098 C   0  0  0  0  0  0  0  0  0  0  0  0
  -25.9889  -27.0160   20.3159 C   0  0  0  0  0  0  0  0  0  0  0  0
  -30.0200  -18.8441   19.3443 C   0  0  0  0  0  0  0  0  0  0  0  0
  -18.5521  -12.2181   25.7951 C   0  0  0  0  0  0  0  0  0  0  0  0
  -32.7458  -18.8368   19.2194 C   0  0  0  0  0  0  0  0  0  0  0  0
  -23.1070  -14.1624   20.8850 C   0  0  0  0  0  0  0  0  0  0  0  0
  -23.9515  -13.7717   18.5098 C   0  0  0  0  0  0  0  0  0  0  0  0
  -25.8327  -33.2415   25.9917 C   0  0  0  0  0  0  0  0  0  0  0  0
  -25.8915  -29.4232   20.5520 C   0  0  0  0  0  0  0  0  0  0  0  0
  -25.9112  -31.9801   25.3711 C   0  0  0  0  0  0  0  0  0  0  0  0
  -25.2348  -28.1855   20.4964 C   0  0  0  0  0  0  0  0  0  0  0  0
  -30.6948  -20.0348   19.0986 C   0  0  0  0  0  0  0  0  0  0  0  0
  -32.0837  -20.0396   19.0335 C   0  0  0  0  0  0  0  0  0  0  0  0
  -21.1249  -14.5985   22.7991 C   0  0  0  0  0  0  0  0  0  0  0  0
  -27.3756  -27.0778   20.1799 C   0  0  0  0  0  0  0  0  0  0  0  0
  -19.3697  -13.7333   24.1003 C   0  0  0  0  0  0  0  0  0  0  0  0
  -17.7790  -11.5630   24.8365 C   0  0  0  0  0  0  0  0  0  0  0  0
  -19.3475  -13.3032   25.4270 C   0  0  0  0  0  0  0  0  0  0  0  0
  -24.1305  -13.9364   19.8964 C   0  0  0  0  0  0  0  0  0  0  0  0
  -30.7746  -17.6948   19.5161 C   0  0  0  0  0  0  0  0  0  0  0  0
  -25.2212  -13.5878   18.0191 C   0  0  0  0  0  0  0  0  0  0  0  0
  -22.7455  -13.7839   17.7346 C   0  0  0  0  0  0  0  0  0  0  0  0
  -23.8525  -30.2232   22.8555 C   0  0  0  0  0  0  0  0  0  0  0  0
  -21.6310  -29.4607   20.6182 C   0  0  0  0  0  0  0  0  0  0  0  0
  -20.8469  -27.7199   17.7895 C   0  0  0  0  0  0  0  0  0  0  0  0
  -30.6277  -15.2212   19.9701 C   0  0  0  0  0  0  0  0  0  0  0  0
  -24.5106  -33.8503   26.3866 C   0  0  0  0  0  0  0  0  0  0  0  0
  -25.1065  -30.6952   20.7199 C   0  0  0  0  0  0  0  0  0  0  0  0
  -23.7390  -28.0746   20.6336 C   0  0  0  0  0  0  0  0  0  0  0  0
  -23.3137  -33.2176   25.6813 C   0  0  0  0  0  0  0  0  0  0  0  0
  -29.5206  -11.9058   19.2921 C   0  0  0  0  0  0  0  0  0  0  0  0
  -23.4129  -31.6960   25.7225 C   0  0  0  0  0  0  0  0  0  0  0  0
  -27.9967  -12.0365   19.2378 C   0  0  0  0  0  0  0  0  0  0  0  0
  -30.1304  -12.8172   20.3556 C   0  0  0  0  0  0  0  0  0  0  0  0
  -29.0324  -21.7040   21.1120 C   0  0  0  0  0  0  0  0  0  0  0  0
  -28.2157  -14.3602   20.2071 C   0  0  0  0  0  0  0  0  0  0  0  0
  -29.6821  -23.5567   19.7142 C   0  0  0  0  0  0  0  0  0  0  0  0
  -29.1360  -22.5645   22.3632 C   0  0  0  0  0  0  0  0  0  0  0  0
  -24.6682  -31.2050   24.9913 C   0  0  1  0  0  0  0  0  0  0  0  0
  -23.7477  -30.4762   21.3782 C   0  0  1  0  0  0  0  0  0  0  0  0
  -27.5617  -13.5092   19.1063 C   0  0  2  0  0  0  0  0  0  0  0  0
  -29.7955  -24.5027   20.9207 C   0  0  1  0  0  0  0  0  0  0  0  0
  -32.8560  -21.2864   18.7734 C   0  0  0  0  0  0  0  0  0  0  0  0
  -18.9423  -27.2669   16.2196 C   0  0  0  0  0  0  0  0  0  0  0  0
  -30.2497  -24.7683   23.8901 C   0  0  0  0  0  0  0  0  0  0  0  0
  -27.7764  -24.3618   24.1936 C   0  0  0  0  0  0  0  0  0  0  0  0
  -20.3839  -27.5850   22.6765 C   0  0  0  0  0  0  0  0  0  0  0  0
  -19.1248  -26.4881   20.8111 C   0  0  0  0  0  0  0  0  0  0  0  0
  -18.7366  -28.8974   21.3279 C   0  0  0  0  0  0  0  0  0  0  0  0
  -22.3152  -28.8698   15.4914 C   0  0  0  0  0  0  0  0  0  0  0  0
  -29.9069  -21.2983   18.9069 C   0  0  0  0  0  0  0  0  0  0  0  0
  -29.4309  -25.9258   20.5028 C   0  0  0  0  0  0  0  0  0  1  0  0
  -20.9009  -28.1999   20.2228 C   0  0  1  0  0  0  0  0  0  0  0  0
  -20.1525  -28.1417   16.5071 C   0  0  2  0  0  0  0  0  0  0  0  0
  -28.8689  -24.8587   23.2605 C   0  0  0  0  0  0  0  0  0  0  0  0
  -19.8149  -27.7942   21.2589 C   0  0  0  0  0  0  0  0  0  0  0  0
  -32.1249  -17.6603   19.4599 N   0  0  0  0  0  0  0  0  0  0  0  0
  -25.4128  -13.8635   20.2630 N   0  0  0  0  0  0  0  0  0  0  0  0
  -26.0511  -13.6508   19.0996 N   0  0  0  0  0  0  0  0  0  0  0  0
  -23.0162  -29.3460   20.8022 N   0  0  0  0  0  0  0  0  0  0  0  0
  -29.6773  -14.1968   20.1654 N   0  0  0  0  0  0  0  0  0  0  0  0
  -29.9685  -22.1657   20.0832 N   0  0  2  0  0  0  0  0  0  0  0  0
  -25.6975  -13.3800   16.7732 N   0  0  0  0  0  0  0  0  0  0  0  0
  -22.0688  -12.5733   17.5326 N   0  0  0  0  0  0  0  0  0  0  0  0
  -30.0781  -16.4867   19.7676 N   0  0  0  0  0  0  0  0  0  0  0  0
  -24.4658  -31.2424   23.5588 N   0  0  0  0  0  0  0  0  0  0  0  0
  -20.3864  -28.4310   18.8773 N   0  0  0  0  0  0  0  0  0  0  0  0
  -28.8555  -24.0102   22.0138 N   0  3  2  0  0  0  0  0  0  0  0  0
  -21.0901  -28.0409   15.3531 N   0  3  0  0  0  0  0  0  0  0  0  0
  -22.2905  -14.8345   17.2220 O   0  0  0  0  0  0  0  0  0  0  0  0
  -23.4085  -29.1811   23.3230 O   0  0  0  0  0  0  0  0  0  0  0  0
  -20.9967  -30.5102   20.7517 O   0  0  0  0  0  0  0  0  0  0  0  0
  -21.7088  -26.8444   17.8233 O   0  0  0  0  0  0  0  0  0  0  0  0
  -31.8391  -14.9882   19.9547 O   0  0  0  0  0  0  0  0  0  0  0  0
  -20.1582  -14.8110   23.7333 O   0  0  0  0  0  0  0  0  0  0  0  0
  -28.0941  -25.9356   20.0038 O   0  0  0  0  0  0  0  0  0  1  0  0
  -17.0140  -10.5219   25.1902 F   0  0  0  0  0  0  0  0  0  0  0  0
  -20.0872  -13.9293   26.3525 F   0  0  0  0  0  0  0  0  0  0  0  0
  1  2  1  0  0  0  0
  1  5  2  0  0  0  0
  2  6  2  0  0  0  0
  3  8  2  0  0  0  0
  3 17  1  0  0  0  0
  4  9  1  0  0  0  0
  4 17  2  0  0  0  0
  5 19  1  0  0  0  0
  6 21  1  0  0  0  0
  7 10  2  0  0  0  0
  7 20  1  0  0  0  0
  8 25  1  0  0  0  0
  9 25  2  0  0  0  0
 10 26  1  0  0  0  0
 11 12  2  0  0  0  0
 11 27  1  0  0  0  0
 12 28  1  0  0  0  0
 13 22  1  0  0  0  0
 13 26  2  0  0  0  0
 14 23  1  0  0  0  0
 14 31  2  0  0  0  0
 15 28  2  0  0  0  0
 15 29  1  0  0  0  0
 16 24  1  0  0  0  0
 16 68  2  0  0  0  0
 17 30  1  0  0  0  0
 18 30  1  0  0  0  0
 18 32  2  0  0  0  0
 18 33  1  0  0  0  0
 19 21  2  0  0  0  0
 19 38  1  0  0  0  0
 20 22  2  0  0  0  0
 20 39  1  0  0  0  0
 21 50  1  0  0  0  0
 22 40  1  0  0  0  0
 23 24  2  0  0  0  0
 23 62  1  0  0  0  0
 24 54  1  0  0  0  0
 25 86  1  0  0  0  0
 26 87  1  0  0  0  0
 27 29  2  0  0  0  0
 27 86  1  0  0  0  0
 28 88  1  0  0  0  0
 29 89  1  0  0  0  0
 30 69  2  0  0  0  0
 31 68  1  0  0  0  0
 31 76  1  0  0  0  0
 32 70  1  0  0  0  0
 32 74  1  0  0  0  0
 33 75  1  0  0  0  0
 33 81  2  0  0  0  0
 34 51  1  0  0  0  0
 34 77  1  0  0  0  0
 34 82  2  0  0  0  0
 35 64  1  0  0  0  0
 35 71  1  0  0  0  0
 35 83  2  0  0  0  0
 36 65  1  0  0  0  0
 36 78  1  0  0  0  0
 36 84  2  0  0  0  0
 37 72  1  0  0  0  0
 37 76  1  0  0  0  0
 37 85  2  0  0  0  0
 38 41  1  0  0  0  0
 39 51  1  0  0  0  0
 40 71  1  0  0  0  0
 41 43  1  0  0  0  0
 42 44  1  0  0  0  0
 42 45  1  0  0  0  0
 43 50  1  0  0  0  0
 44 52  1  0  0  0  0
 45 72  1  0  0  0  0
 46 49  1  0  0  0  0
 46 73  1  0  0  0  0
 47 52  1  0  0  0  0
 47 72  1  0  0  0  0
 48 53  1  0  0  0  0
 48 73  1  0  0  0  0
 49 79  1  0  0  0  0
 50 77  1  0  0  0  0
 51 71  1  0  0  0  0
 52 70  1  0  0  0  0
 53 63  1  0  0  0  0
 53 79  1  0  0  0  0
 55 65  1  0  0  0  0
 56 66  1  0  0  0  0
 57 66  1  0  0  0  0
 58 67  1  0  0  0  0
 59 67  1  0  0  0  0
 60 67  1  0  0  0  0
 61 80  1  0  0  0  0
 62 73  1  0  0  0  0
 63 87  1  0  0  0  0
 64 67  1  0  0  0  0
 64 78  1  0  0  0  0
 65 80  1  0  0  0  0
 66 79  1  0  0  0  0
 69 70  1  0  0  0  0
M  CHG  2  79   1  80   1
M  ISO  4  37 100  63 101  76 100  87 101
M  END
> <Batch ID>
0119

> <Smiles>
CNC(C)C(=O)NC(C(=O)N1Cc2cc([101O:1][101CH2:1]C3CN(Cc4cc([100NH:0][100C:0](=O)N5CCCC(n6nc(-c7ccc(Oc8ccc(F)cc8F)cc7)c(C(N)=O)c6N)C5)ncc4C)CCN3C(C)C)ccc2CC1C(=O)NC1CCCc2ccccc21)C(C)(C)C

> <Shape>
0.275

> <Color>
0.081

> <Negative vol penalty>
0.000

$$$$

  -OEChem-04052320203D

 84 93  0     1  0  0  0  0  0999 V2000
  -16.3762  -29.1932   24.0318 C   0  0  0  0  0  0  0  0  0  0  0  0
  -17.3112  -28.1818   24.2277 C   0  0  0  0  0  0  0  0  0  0  0  0
  -22.0943  -19.4681   21.6319 C   0  0  0  0  0  0  0  0  0  0  0  0
  -22.9782  -19.1390   23.8562 C   0  0  0  0  0  0  0  0  0  0  0  0
  -16.6794  -30.2695   23.1991 C   0  0  0  0  0  0  0  0  0  0  0  0
  -18.5496  -28.2457   23.5901 C   0  0  0  0  0  0  0  0  0  0  0  0
  -25.4210  -26.4619   24.5487 C   0  0  0  0  0  0  0  0  0  0  0  0
  -32.4435  -23.1486   18.1493 C   0  0  0  0  0  0  0  0  0  0  0  0
  -21.1515  -20.3624   22.1388 C   0  0  0  0  0  0  0  0  0  0  0  0
  -22.0354  -20.0333   24.3631 C   0  0  0  0  0  0  0  0  0  0  0  0
  -26.4554  -25.7785   23.9109 C   0  0  0  0  0  0  0  0  0  0  0  0
  -21.0663  -23.5918   23.1373 C   0  0  0  0  0  0  0  0  0  0  0  0
  -20.8689  -24.7869   22.4456 C   0  0  0  0  0  0  0  0  0  0  0  0
  -32.0928  -21.8264   17.9076 C   0  0  0  0  0  0  0  0  0  0  0  0
  -26.8992  -27.7255   22.5576 C   0  0  0  0  0  0  0  0  0  0  0  0
  -18.5490  -24.2056   22.1033 C   0  0  0  0  0  0  0  0  0  0  0  0
  -23.0076  -18.8563   22.4905 C   0  0  0  0  0  0  0  0  0  0  0  0
  -23.7288  -16.7292   21.2811 C   0  0  0  0  0  0  0  0  0  0  0  0
  -17.9259  -30.3515   22.5586 C   0  0  0  0  0  0  0  0  0  0  0  0
  -25.1103  -27.7808   24.1875 C   0  0  0  0  0  0  0  0  0  0  0  0
  -18.8693  -29.3235   22.7470 C   0  0  0  0  0  0  0  0  0  0  0  0
  -31.5860  -23.9836   18.8722 C   0  0  0  0  0  0  0  0  0  0  0  0
  -25.8620  -28.4243   23.1941 C   0  0  0  0  0  0  0  0  0  0  0  0
  -21.1221  -20.6450   23.5044 C   0  0  0  0  0  0  0  0  0  0  0  0
  -27.1928  -26.4093   22.9132 C   0  0  0  0  0  0  0  0  0  0  0  0
  -20.0051  -22.7035   23.3119 C   0  0  0  0  0  0  0  0  0  0  0  0
  -19.6103  -25.0938   21.9286 C   0  0  0  0  0  0  0  0  0  0  0  0
  -18.7464  -23.0105   22.7949 C   0  0  0  0  0  0  0  0  0  0  0  0
  -23.9813  -17.9320   21.9675 C   0  0  0  0  0  0  0  0  0  0  0  0
  -30.3945  -23.4325   19.3519 C   0  0  0  0  0  0  0  0  0  0  0  0
  -30.8858  -21.3778   18.4099 C   0  0  0  0  0  0  0  0  0  0  0  0
  -24.9754  -16.2264   20.9992 C   0  0  0  0  0  0  0  0  0  0  0  0
  -22.4790  -16.1208   20.9297 C   0  0  0  0  0  0  0  0  0  0  0  0
  -22.5563  -29.2312   22.9722 C   0  0  0  0  0  0  0  0  0  0  0  0
  -24.3127  -31.9084   23.4919 C   0  0  0  0  0  0  0  0  0  0  0  0
  -27.3942  -33.3195   23.8924 C   0  0  0  0  0  0  0  0  0  0  0  0
  -30.3511  -18.7819   20.3489 C   0  0  0  0  0  0  0  0  0  0  0  0
  -18.1903  -31.5105   21.6304 C   0  0  0  0  0  0  0  0  0  0  0  0
  -24.0088  -28.5132   24.9036 C   0  0  0  0  0  0  0  0  0  0  0  0
  -31.9903  -25.4016   19.1665 C   0  0  0  0  0  0  0  0  0  0  0  0
  -25.5817  -29.8460   22.7836 C   0  0  0  0  0  0  0  0  0  0  0  0
  -29.4004  -24.2695   20.1144 C   0  0  0  0  0  0  0  0  0  0  0  0
  -19.6668  -31.6920   21.2879 C   0  0  0  0  0  0  0  0  0  0  0  0
  -30.8291  -26.2740   19.6430 C   0  0  0  0  0  0  0  0  0  0  0  0
  -29.4670  -16.2105   22.6474 C   0  0  0  0  0  0  0  0  0  0  0  0
  -20.2974  -30.3533   20.9178 C   0  0  0  0  0  0  0  0  0  0  0  0
  -27.9381  -16.2516   22.6719 C   0  0  0  0  0  0  0  0  0  0  0  0
  -30.0670  -17.6082   22.5119 C   0  0  0  0  0  0  0  0  0  0  0  0
  -28.0312  -18.4328   21.3942 C   0  0  0  0  0  0  0  0  0  0  0  0
  -20.2330  -29.3696   22.0924 C   0  0  1  0  0  0  0  0  0  0  0  0
  -23.4446  -29.6794   24.0981 C   0  0  1  0  0  0  0  0  0  0  0  0
  -30.0097  -25.5452   20.7132 C   0  0  1  0  0  0  0  0  0  0  0  0
  -27.3791  -17.0418   21.4734 C   0  0  2  0  0  0  0  0  0  0  0  0
  -29.6737  -19.7890   16.8710 C   0  0  0  0  0  0  0  0  0  0  0  0
  -28.5132  -35.5348   24.2630 C   0  0  0  0  0  0  0  0  0  0  0  0
  -23.8509  -32.6289   20.5631 C   0  0  0  0  0  0  0  0  0  0  0  0
  -25.7229  -34.2812   20.7467 C   0  0  0  0  0  0  0  0  0  0  0  0
  -23.6789  -34.5537   22.1505 C   0  0  0  0  0  0  0  0  0  0  0  0
  -28.5505  -32.4353   26.4692 C   0  0  0  0  0  0  0  0  0  0  0  0
  -28.9169  -26.4514   21.2757 C   0  0  0  0  0  0  0  0  0  1  0  0
  -30.4728  -19.9640   18.1702 C   0  0  2  0  0  0  0  0  0  0  0  0
  -25.3145  -32.7024   22.6888 C   0  0  1  0  0  0  0  0  0  0  0  0
  -27.9282  -34.2965   24.9242 C   0  0  2  0  0  0  0  0  0  0  0  0
  -24.6461  -33.5141   21.5434 C   0  0  0  0  0  0  0  0  0  0  0  0
  -25.2860  -18.1785   22.1130 N   0  0  0  0  0  0  0  0  0  0  0  0
  -30.0311  -22.1454   19.1208 N   0  0  0  0  0  0  0  0  0  0  0  0
  -25.8643  -17.1235   21.5142 N   0  0  0  0  0  0  0  0  0  0  0  0
  -24.4907  -30.5178   23.5089 N   0  0  0  0  0  0  0  0  0  0  0  0
  -29.4963  -18.3036   21.3557 N   0  0  0  0  0  0  0  0  0  0  0  0
  -25.3871  -15.1088   20.3636 N   0  0  0  0  0  0  0  0  0  0  0  0
  -21.8925  -15.2273   21.8363 N   0  0  0  0  0  0  0  0  0  0  0  0
  -21.2537  -29.6819   23.0697 N   0  0  0  0  0  0  0  0  0  0  0  0
  -26.0518  -33.5181   23.6477 N   0  0  0  0  0  0  0  0  0  0  0  0
  -29.7280  -19.4233   19.2854 N   0  0  0  0  0  0  0  0  0  0  0  0
  -28.9939  -33.6534   25.7437 N   0  3  0  0  0  0  0  0  0  0  0  0
  -21.9076  -16.3497   19.8367 O   0  0  0  0  0  0  0  0  0  0  0  0
  -23.0188  -28.5297   22.0802 O   0  0  0  0  0  0  0  0  0  0  0  0
  -23.4099  -32.5009   24.0881 O   0  0  0  0  0  0  0  0  0  0  0  0
  -28.0983  -32.4678   23.3544 O   0  0  0  0  0  0  0  0  0  0  0  0
  -31.5782  -18.6426   20.3919 O   0  0  0  0  0  0  0  0  0  0  0  0
  -20.2024  -21.5178   23.9995 O   0  0  0  0  0  0  0  0  0  0  0  0
  -28.2026  -25.7443   22.2887 O   0  0  0  0  0  0  0  0  0  1  0  0
  -19.4205  -26.2422   21.2658 F   0  0  0  0  0  0  0  0  0  0  0  0
  -17.7228  -22.1616   22.9605 F   0  0  0  0  0  0  0  0  0  0  0  0
  1  2  1  0  0  0  0
  1  5  2  0  0  0  0
  2  6  2  0  0  0  0
  3  9  2  0  0  0  0
  3 17  1  0  0  0  0
  4 10  1  0  0  0  0
  4 17  2  0  0  0  0
  5 19  1  0  0  0  0
  6 21  1  0  0  0  0
  7 11  2  0  0  0  0
  7 20  1  0  0  0  0
  8 14  2  0  0  0  0
  8 22  1  0  0  0  0
  9 24  1  0  0  0  0
 10 24  2  0  0  0  0
 11 25  1  0  0  0  0
 12 13  2  0  0  0  0
 12 26  1  0  0  0  0
 13 27  1  0  0  0  0
 14 31  1  0  0  0  0
 15 23  1  0  0  0  0
 15 25  2  0  0  0  0
 16 27  2  0  0  0  0
 16 28  1  0  0  0  0
 17 29  1  0  0  0  0
 18 29  1  0  0  0  0
 18 32  2  0  0  0  0
 18 33  1  0  0  0  0
 19 21  2  0  0  0  0
 19 38  1  0  0  0  0
 20 23  2  0  0  0  0
 20 39  1  0  0  0  0
 21 50  1  0  0  0  0
 22 30  2  0  0  0  0
 22 40  1  0  0  0  0
 23 41  1  0  0  0  0
 24 81  1  0  0  0  0
 25 82  1  0  0  0  0
 26 28  2  0  0  0  0
 26 81  1  0  0  0  0
 27 83  1  0  0  0  0
 28 84  1  0  0  0  0
 29 65  2  0  0  0  0
 30 42  1  0  0  0  0
 30 66  1  0  0  0  0
 31 61  1  0  0  0  0
 31 66  2  0  0  0  0
 32 67  1  0  0  0  0
 32 70  1  0  0  0  0
 33 71  1  0  0  0  0
 33 76  2  0  0  0  0
 34 51  1  0  0  0  0
 34 72  1  0  0  0  0
 34 77  2  0  0  0  0
 35 62  1  0  0  0  0
 35 68  1  0  0  0  0
 35 78  2  0  0  0  0
 36 63  1  0  0  0  0
 36 73  1  0  0  0  0
 36 79  2  0  0  0  0
 37 69  1  0  0  0  0
 37 74  1  0  0  0  0
 37 80  2  0  0  0  0
 38 43  1  0  0  0  0
 39 51  1  0  0  0  0
 40 44  1  0  0  0  0
 41 68  1  0  0  0  0
 42 52  1  0  0  0  0
 43 46  1  0  0  0  0
 44 52  1  0  0  0  0
 45 47  1  0  0  0  0
 45 48  1  0  0  0  0
 46 50  1  0  0  0  0
 47 53  1  0  0  0  0
 48 69  1  0  0  0  0
 49 53  1  0  0  0  0
 49 69  1  0  0  0  0
 50 72  1  0  0  0  0
 51 68  1  0  0  0  0
 52 60  1  0  0  0  0
 53 67  1  0  0  0  0
 54 61  1  0  0  0  0
 55 63  1  0  0  0  0
 56 64  1  0  0  0  0
 57 64  1  0  0  0  0
 58 64  1  0  0  0  0
 59 75  1  0  0  0  0
 60 82  1  0  0  0  0
 61 74  1  0  0  0  0
 62 64  1  0  0  0  0
 62 73  1  0  0  0  0
 63 75  1  0  0  0  0
 65 67  1  0  0  0  0
M  CHG  1  75   1
M  ISO  4  37 100  60 101  74 100  82 101
M  END
> <Batch ID>
0119

> <Smiles>
CNC(C)C(=O)NC(C(=O)N1Cc2cc([101O:1][101CH2:1]C3CCc4ccc(C(C)[100NH:0][100C:0](=O)N5CCCC(n6nc(-c7ccc(Oc8ccc(F)cc8F)cc7)c(C(N)=O)c6N)C5)nc4C3)ccc2CC1C(=O)NC1CCCc2ccccc21)C(C)(C)C

> <Shape>
0.205

> <Color>
0.102

> <Negative vol penalty>
0.000

$$$$

  -OEChem-04052320203D

 84 92  0     1  0  0  0  0  0999 V2000
  -28.9288  -13.1796   18.8670 C   0  0  0  0  0  0  0  0  0  0  0  0
  -28.3690  -14.3866   18.4604 C   0  0  0  0  0  0  0  0  0  0  0  0
  -28.6800  -24.8436   20.5037 C   0  0  0  0  0  0  0  0  0  0  0  0
  -26.5760  -23.7184   20.8833 C   0  0  0  0  0  0  0  0  0  0  0  0
  -28.1824  -12.2920   19.6411 C   0  0  0  0  0  0  0  0  0  0  0  0
  -27.0621  -14.7062   18.8268 C   0  0  0  0  0  0  0  0  0  0  0  0
  -22.9461  -20.3295   20.4862 C   0  0  0  0  0  0  0  0  0  0  0  0
  -29.3569  -23.7783   21.0975 C   0  0  0  0  0  0  0  0  0  0  0  0
  -27.2528  -22.6531   21.4771 C   0  0  0  0  0  0  0  0  0  0  0  0
  -21.7328  -20.9180   20.1322 C   0  0  0  0  0  0  0  0  0  0  0  0
  -28.4549  -19.4742   22.7686 C   0  0  0  0  0  0  0  0  0  0  0  0
  -28.0773  -18.1816   22.4052 C   0  0  0  0  0  0  0  0  0  0  0  0
  -20.5656  -19.3428   21.5377 C   0  0  0  0  0  0  0  0  0  0  0  0
  -19.0243  -27.4995   23.7822 C   0  0  0  0  0  0  0  0  0  0  0  0
  -28.6463  -18.6615   20.1067 C   0  0  0  0  0  0  0  0  0  0  0  0
  -19.5248  -27.4013   21.4592 C   0  0  0  0  0  0  0  0  0  0  0  0
  -27.2895  -24.8137   20.3966 C   0  0  0  0  0  0  0  0  0  0  0  0
  -26.2646  -26.0621   18.4221 C   0  0  0  0  0  0  0  0  0  0  0  0
  -26.8690  -12.6053   20.0252 C   0  0  0  0  0  0  0  0  0  0  0  0
  -22.9775  -19.2345   21.3616 C   0  0  0  0  0  0  0  0  0  0  0  0
  -26.2970  -13.8214   19.6056 C   0  0  0  0  0  0  0  0  0  0  0  0
  -21.7808  -18.7439   21.9033 C   0  0  0  0  0  0  0  0  0  0  0  0
  -19.6042  -28.0845   22.6620 C   0  0  0  0  0  0  0  0  0  0  0  0
  -18.3916  -26.2667   23.6670 C   0  0  0  0  0  0  0  0  0  0  0  0
  -28.6433  -22.6831   21.5842 C   0  0  0  0  0  0  0  0  0  0  0  0
  -20.5421  -20.4228   20.6557 C   0  0  0  0  0  0  0  0  0  0  0  0
  -28.9282  -20.3606   21.8010 C   0  0  0  0  0  0  0  0  0  0  0  0
  -28.1730  -17.7752   21.0742 C   0  0  0  0  0  0  0  0  0  0  0  0
  -29.0239  -19.9542   20.4701 C   0  0  0  0  0  0  0  0  0  0  0  0
  -26.5897  -25.9140   19.7838 C   0  0  0  0  0  0  0  0  0  0  0  0
  -18.3663  -25.6650   22.4192 C   0  0  0  0  0  0  0  0  0  0  0  0
  -25.6076  -27.2663   18.3549 C   0  0  0  0  0  0  0  0  0  0  0  0
  -17.7149  -24.3602   22.2178 C   0  0  0  0  0  0  0  0  0  0  0  0
  -18.0654  -23.4562   21.2893 C   0  0  0  0  0  0  0  0  0  0  0  0
  -26.5326  -25.1891   17.3168 C   0  0  0  0  0  0  0  0  0  0  0  0
  -23.9316  -16.2107   21.1383 C   0  0  0  0  0  0  0  0  0  0  0  0
  -23.2717  -16.1761   24.3141 C   0  0  0  0  0  0  0  0  0  0  0  0
  -21.5405  -17.5235   26.9283 C   0  0  0  0  0  0  0  0  0  0  0  0
  -22.5057  -30.4481   22.3681 C   0  0  0  0  0  0  0  0  0  0  0  0
  -26.0850  -11.5933   20.8226 C   0  0  0  0  0  0  0  0  0  0  0  0
  -24.2966  -18.6279   21.7546 C   0  0  0  0  0  0  0  0  0  0  0  0
  -21.7619  -17.5833   22.8630 C   0  0  0  0  0  0  0  0  0  0  0  0
  -24.8368  -12.1729   21.4831 C   0  0  0  0  0  0  0  0  0  0  0  0
  -25.3578  -31.5219   20.5272 C   0  0  0  0  0  0  0  0  0  0  0  0
  -24.0541  -13.0254   20.4895 C   0  0  0  0  0  0  0  0  0  0  0  0
  -25.9676  -30.2198   20.0051 C   0  0  0  0  0  0  0  0  0  0  0  0
  -24.7706  -31.3489   21.9262 C   0  0  0  0  0  0  0  0  0  0  0  0
  -24.4127  -28.9417   21.5372 C   0  0  0  0  0  0  0  0  0  0  0  0
  -24.8911  -14.2150   20.0037 C   0  0  1  0  0  0  0  0  0  0  0  0
  -24.1692  -17.1913   22.2518 C   0  0  1  0  0  0  0  0  0  0  0  0
  -24.9680  -29.0521   20.1069 C   0  0  2  0  0  0  0  0  0  0  0  0
  -17.7712  -25.6433   24.8710 C   0  0  0  0  0  0  0  0  0  0  0  0
  -21.1800  -17.2589   29.3976 C   0  0  0  0  0  0  0  0  0  0  0  0
  -21.5042  -13.7441   23.7930 C   0  0  0  0  0  0  0  0  0  0  0  0
  -20.4581  -14.1104   26.0379 C   0  0  0  0  0  0  0  0  0  0  0  0
  -22.8936  -13.5987   25.8674 C   0  0  0  0  0  0  0  0  0  0  0  0
  -22.5668  -20.2426   27.4871 C   0  0  0  0  0  0  0  0  0  0  0  0
  -20.2882  -29.4021   22.7523 C   0  0  0  0  0  0  0  0  0  0  0  0
  -18.3074  -20.9476   21.2775 C   0  0  0  0  0  0  0  0  0  1  0  0
  -17.3597  -22.1377   21.1143 C   0  0  2  0  0  0  0  0  0  0  0  0
  -22.0514  -15.8718   25.1492 C   0  0  1  0  0  0  0  0  0  0  0  0
  -21.9846  -17.9585   28.3133 C   0  0  2  0  0  0  0  0  0  0  0  0
  -21.7267  -14.3519   25.1923 C   0  0  0  0  0  0  0  0  0  0  0  0
  -18.9187  -26.2024   21.3083 N   0  0  0  0  0  0  0  0  0  0  0  0
  -26.1736  -26.9422   20.5280 N   0  0  0  0  0  0  0  0  0  0  0  0
  -25.5804  -27.7478   19.6307 N   0  0  0  0  0  0  0  0  0  0  0  0
  -23.0767  -17.0202   23.2117 N   0  0  0  0  0  0  0  0  0  0  0  0
  -23.8296  -30.2266   21.9544 N   0  0  0  0  0  0  0  0  0  0  0  0
  -25.0562  -27.9498   17.3296 N   0  0  0  0  0  0  0  0  0  0  0  0
  -27.2181  -23.9915   17.5622 N   0  0  0  0  0  0  0  0  0  0  0  0
  -24.9217  -15.2555   21.0092 N   0  0  0  0  0  0  0  0  0  0  0  0
  -22.2936  -16.4684   26.4583 N   0  0  0  0  0  0  0  0  0  0  0  0
  -21.6779  -29.3321   22.3593 N   0  0  0  0  0  0  0  0  0  0  0  0
  -16.7012  -22.0334   19.7765 N   0  3  0  0  0  0  0  0  0  0  0  0
  -21.8111  -19.4298   28.4746 N   0  3  0  0  0  0  0  0  0  0  0  0
  -26.1891  -25.4706   16.1436 O   0  0  0  0  0  0  0  0  0  0  0  0
  -22.9239  -16.3123   20.4485 O   0  0  0  0  0  0  0  0  0  0  0  0
  -24.3592  -15.6886   24.6325 O   0  0  0  0  0  0  0  0  0  0  0  0
  -20.6154  -18.0631   26.3254 O   0  0  0  0  0  0  0  0  0  0  0  0
  -22.0906  -31.5594   22.7143 O   0  0  0  0  0  0  0  0  0  0  0  0
  -29.3035  -21.6433   22.1635 O   0  0  0  0  0  0  0  0  0  0  0  0
  -19.3564  -20.9949   20.3112 O   0  0  0  0  0  0  0  0  0  1  0  0
  -27.8118  -16.5334   20.7257 F   0  0  0  0  0  0  0  0  0  0  0  0
  -29.4790  -20.8008   19.5363 F   0  0  0  0  0  0  0  0  0  0  0  0
  1  2  1  0  0  0  0
  1  5  2  0  0  0  0
  2  6  2  0  0  0  0
  3  8  2  0  0  0  0
  3 17  1  0  0  0  0
  4  9  1  0  0  0  0
  4 17  2  0  0  0  0
  5 19  1  0  0  0  0
  6 21  1  0  0  0  0
  7 10  2  0  0  0  0
  7 20  1  0  0  0  0
  8 25  1  0  0  0  0
  9 25  2  0  0  0  0
 10 26  1  0  0  0  0
 11 12  2  0  0  0  0
 11 27  1  0  0  0  0
 12 28  1  0  0  0  0
 13 22  1  0  0  0  0
 13 26  2  0  0  0  0
 14 23  2  0  0  0  0
 14 24  1  0  0  0  0
 15 28  2  0  0  0  0
 15 29  1  0  0  0  0
 16 23  1  0  0  0  0
 16 64  2  0  0  0  0
 17 30  1  0  0  0  0
 18 30  1  0  0  0  0
 18 32  2  0  0  0  0
 18 35  1  0  0  0  0
 19 21  2  0  0  0  0
 19 40  1  0  0  0  0
 20 22  2  0  0  0  0
 20 41  1  0  0  0  0
 21 49  1  0  0  0  0
 22 42  1  0  0  0  0
 23 58  1  0  0  0  0
 24 31  2  0  0  0  0
 24 52  1  0  0  0  0
 25 81  1  0  0  0  0
 26 82  1  0  0  0  0
 27 29  2  0  0  0  0
 27 81  1  0  0  0  0
 28 83  1  0  0  0  0
 29 84  1  0  0  0  0
 30 65  2  0  0  0  0
 31 33  1  0  0  0  0
 31 64  1  0  0  0  0
 32 66  1  0  0  0  0
 32 69  1  0  0  0  0
 33 34  2  0  0  0  0
 34 60  1  0  0  0  0
 35 70  1  0  0  0  0
 35 76  2  0  0  0  0
 36 50  1  0  0  0  0
 36 71  1  0  0  0  0
 36 77  2  0  0  0  0
 37 61  1  0  0  0  0
 37 67  1  0  0  0  0
 37 78  2  0  0  0  0
 38 62  1  0  0  0  0
 38 72  1  0  0  0  0
 38 79  2  0  0  0  0
 39 68  1  0  0  0  0
 39 73  1  0  0  0  0
 39 80  2  0  0  0  0
 40 43  1  0  0  0  0
 41 50  1  0  0  0  0
 42 67  1  0  0  0  0
 43 45  1  0  0  0  0
 44 46  1  0  0  0  0
 44 47  1  0  0  0  0
 45 49  1  0  0  0  0
 46 51  1  0  0  0  0
 47 68  1  0  0  0  0
 48 51  1  0  0  0  0
 48 68  1  0  0  0  0
 49 71  1  0  0  0  0
 50 67  1  0  0  0  0
 51 66  1  0  0  0  0
 53 62  1  0  0  0  0
 54 63  1  0  0  0  0
 55 63  1  0  0  0  0
 56 63  1  0  0  0  0
 57 75  1  0  0  0  0
 58 73  1  0  0  0  0
 59 60  1  0  0  0  0
 59 82  1  0  0  0  0
 60 74  1  0  0  0  0
 61 63  1  0  0  0  0
 61 72  1  0  0  0  0
 62 75  1  0  0  0  0
 65 66  1  0  0  0  0
M  CHG  2  74   1  75   1
M  ISO  4  39 100  59 101  73 100  82 101
M  END
> <Batch ID>
0119

> <Smiles>
CNC(C)C(=O)NC(C(=O)N1Cc2cc([101O:1][101CH2:1]C(N)C=Cc3ncc(C[100NH:0][100C:0](=O)N4CCCC(n5nc(-c6ccc(Oc7ccc(F)cc7F)cc6)c(C(N)=O)c5N)C4)cc3C)ccc2CC1C(=O)NC1CCCc2ccccc21)C(C)(C)C

> <Shape>
0.211

> <Color>
0.074

> <Negative vol penalty>
0.000

$$$$

  -OEChem-04052320203D

 87 95  0     1  0  0  0  0  0999 V2000
  -21.1834   -8.1057   22.2409 C   0  0  0  0  0  0  0  0  0  0  0  0
  -21.9538   -8.7091   21.2522 C   0  0  0  0  0  0  0  0  0  0  0  0
  -22.4049  -28.5408   20.7022 C   0  0  0  0  0  0  0  0  0  0  0  0
  -23.1101  -26.5092   21.8033 C   0  0  0  0  0  0  0  0  0  0  0  0
  -20.3306   -8.8789   23.0276 C   0  0  0  0  0  0  0  0  0  0  0  0
  -21.8710  -10.0862   21.0487 C   0  0  0  0  0  0  0  0  0  0  0  0
  -26.4112  -13.8398   19.3745 C   0  0  0  0  0  0  0  0  0  0  0  0
  -21.0924  -28.3078   21.1129 C   0  0  0  0  0  0  0  0  0  0  0  0
  -21.7976  -26.2762   22.2140 C   0  0  0  0  0  0  0  0  0  0  0  0
  -26.7787  -14.3753   18.1408 C   0  0  0  0  0  0  0  0  0  0  0  0
  -17.6189  -28.4357   22.1775 C   0  0  0  0  0  0  0  0  0  0  0  0
  -16.9030  -29.5115   22.7025 C   0  0  0  0  0  0  0  0  0  0  0  0
  -25.5498  -16.3865   18.6545 C   0  0  0  0  0  0  0  0  0  0  0  0
  -18.5457  -29.7477   24.4583 C   0  0  0  0  0  0  0  0  0  0  0  0
  -23.4138  -27.6415   21.0474 C   0  0  0  0  0  0  0  0  0  0  0  0
  -25.5730  -28.9951   20.9328 C   0  0  0  0  0  0  0  0  0  0  0  0
  -20.2445  -10.2674   22.8401 C   0  0  0  0  0  0  0  0  0  0  0  0
  -25.5997  -14.5704   20.2543 C   0  0  0  0  0  0  0  0  0  0  0  0
  -21.0152  -10.8785   21.8327 C   0  0  0  0  0  0  0  0  0  0  0  0
  -25.1754  -15.8590   19.8998 C   0  0  0  0  0  0  0  0  0  0  0  0
  -20.7888  -27.1756   21.8688 C   0  0  0  0  0  0  0  0  0  0  0  0
  -26.3457  -15.6477   17.7795 C   0  0  0  0  0  0  0  0  0  0  0  0
  -18.7982  -28.0158   22.7929 C   0  0  0  0  0  0  0  0  0  0  0  0
  -17.3664  -30.1675   23.8429 C   0  0  0  0  0  0  0  0  0  0  0  0
  -19.2616  -28.6718   23.9333 C   0  0  0  0  0  0  0  0  0  0  0  0
  -24.7697  -27.8813   20.6230 C   0  0  0  0  0  0  0  0  0  0  0  0
  -26.7641  -28.7473   20.2953 C   0  0  0  0  0  0  0  0  0  0  0  0
  -25.2698  -30.1503   21.7260 C   0  0  0  0  0  0  0  0  0  0  0  0
  -22.7186  -14.1432   21.5271 C   0  0  0  0  0  0  0  0  0  0  0  0
  -23.4876  -16.8165   23.1957 C   0  0  0  0  0  0  0  0  0  0  0  0
  -25.3413  -19.6751   23.3938 C   0  0  0  0  0  0  0  0  0  0  0  0
  -29.5583  -23.8652   18.5534 C   0  0  0  0  0  0  0  0  0  0  0  0
  -19.2732  -11.0549   23.6834 C   0  0  0  0  0  0  0  0  0  0  0  0
  -25.2341  -13.9893   21.5926 C   0  0  0  0  0  0  0  0  0  0  0  0
  -24.3196  -16.6925   20.8171 C   0  0  0  0  0  0  0  0  0  0  0  0
  -19.5229  -12.5606   23.6543 C   0  0  0  0  0  0  0  0  0  0  0  0
  -32.2288  -24.2335   22.5076 C   0  0  0  0  0  0  0  0  0  0  0  0
  -32.4154  -22.8110   23.0291 C   0  0  0  0  0  0  0  0  0  0  0  0
  -28.5952  -26.4921   16.5046 C   0  0  0  0  0  0  0  0  0  0  0  0
  -19.7388  -13.0384   22.2219 C   0  0  0  0  0  0  0  0  0  0  0  0
  -27.5788  -27.2617   17.3470 C   0  0  0  0  0  0  0  0  0  0  0  0
  -30.9202  -24.3877   21.7335 C   0  0  0  0  0  0  0  0  0  0  0  0
  -32.3092  -21.7812   21.9060 C   0  0  0  0  0  0  0  0  0  0  0  0
  -28.4114  -24.9882   16.6693 C   0  0  0  0  0  0  0  0  0  0  0  0
  -27.4899  -25.2839   18.9462 C   0  0  0  0  0  0  0  0  0  0  0  0
  -20.9716  -12.3729   21.5983 C   0  0  1  0  0  0  0  0  0  0  0  0
  -23.9796  -14.6159   22.1935 C   0  0  1  0  0  0  0  0  0  0  0  0
  -27.6313  -26.8146   18.8184 C   0  0  2  0  0  0  0  0  0  0  0  0
  -30.8132  -23.3599   20.6022 C   0  0  1  0  0  0  0  0  0  0  0  0
  -30.9928  -21.9369   21.1454 C   0  0  1  0  0  0  0  0  0  0  0  0
  -25.7239  -21.6773   24.8573 C   0  0  0  0  0  0  0  0  0  0  0  0
  -29.2046  -19.3108   15.0137 C   0  0  0  0  0  0  0  0  0  0  0  0
  -20.8664  -18.0317   22.2144 C   0  0  0  0  0  0  0  0  0  0  0  0
  -21.7365  -20.2799   22.8902 C   0  0  0  0  0  0  0  0  0  0  0  0
  -21.4030  -18.5048   24.6108 C   0  0  0  0  0  0  0  0  0  0  0  0
  -28.3822  -23.0022   20.6215 C   0  0  0  0  0  0  0  0  0  0  0  0
  -28.1861  -18.9726   23.8092 C   0  0  0  0  0  0  0  0  0  0  0  0
  -30.6926  -18.6538   19.1910 C   0  0  0  0  0  0  0  0  0  0  0  0
  -28.5111  -16.8870   15.1708 C   0  0  0  0  0  0  0  0  0  0  0  0
  -30.6892  -19.5695   20.4104 C   0  0  0  0  0  0  0  0  0  0  0  0
  -29.6431  -18.9585   18.1272 C   0  0  0  0  0  0  0  0  0  0  0  0
  -27.9552  -15.7583   16.0322 C   0  0  0  0  0  0  0  0  0  1  0  0
  -23.3193  -18.3003   22.9743 C   0  0  1  0  0  0  0  0  0  0  0  0
  -26.1695  -20.2624   24.5223 C   0  0  2  0  0  0  0  0  0  0  0  0
  -28.7238  -18.1962   15.9334 C   0  0  1  0  0  0  0  0  0  0  0  0
  -21.8458  -18.7630   23.1541 C   0  0  0  0  0  0  0  0  0  0  0  0
  -25.3974  -26.9922   19.8487 N   0  0  0  0  0  0  0  0  0  0  0  0
  -26.6078  -27.5471   19.6666 N   0  0  0  0  0  0  0  0  0  0  0  0
  -23.9834  -16.0779   22.1120 N   0  0  0  0  0  0  0  0  0  0  0  0
  -28.4615  -24.5998   18.0791 N   0  0  0  0  0  0  0  0  0  0  0  0
  -27.9194  -29.4412   20.2167 N   0  0  0  0  0  0  0  0  0  0  0  0
  -25.5452  -30.1087   23.0996 N   0  0  0  0  0  0  0  0  0  0  0  0
  -22.1833  -12.9975   22.0842 N   0  0  0  0  0  0  0  0  0  0  0  0
  -24.2652  -18.9566   23.8704 N   0  0  0  0  0  0  0  0  0  0  0  0
  -29.5542  -23.5103   19.9108 N   0  0  0  0  0  0  0  0  0  0  0  0
  -30.9815  -20.9671   20.0158 N   0  3  0  0  0  0  0  0  0  0  0  0
  -27.6099  -20.3009   24.1420 N   0  3  0  0  0  0  0  0  0  0  0  0
  -29.7504  -18.0021   16.9950 N   0  3  0  0  0  0  0  0  0  0  0  0
  -24.7541  -31.1827   21.2343 O   0  0  0  0  0  0  0  0  0  0  0  0
  -22.2640  -14.7722   20.5788 O   0  0  0  0  0  0  0  0  0  0  0  0
  -23.1968  -16.3319   24.2921 O   0  0  0  0  0  0  0  0  0  0  0  0
  -25.6189  -19.8405   22.2080 O   0  0  0  0  0  0  0  0  0  0  0  0
  -30.4876  -23.5370   17.8044 O   0  0  0  0  0  0  0  0  0  0  0  0
  -19.5082  -26.9480   22.2700 O   0  0  0  0  0  0  0  0  0  0  0  0
  -26.7024  -16.1725   16.5757 O   0  0  0  0  0  0  0  0  0  1  0  0
  -16.6797  -31.2016   24.3461 F   0  0  0  0  0  0  0  0  0  0  0  0
  -20.3945  -28.2737   24.5282 F   0  0  0  0  0  0  0  0  0  0  0  0
  1  2  1  0  0  0  0
  1  5  2  0  0  0  0
  2  6  2  0  0  0  0
  3  8  2  0  0  0  0
  3 15  1  0  0  0  0
  4  9  1  0  0  0  0
  4 15  2  0  0  0  0
  5 17  1  0  0  0  0
  6 19  1  0  0  0  0
  7 10  2  0  0  0  0
  7 18  1  0  0  0  0
  8 21  1  0  0  0  0
  9 21  2  0  0  0  0
 10 22  1  0  0  0  0
 11 12  2  0  0  0  0
 11 23  1  0  0  0  0
 12 24  1  0  0  0  0
 13 20  1  0  0  0  0
 13 22  2  0  0  0  0
 14 24  2  0  0  0  0
 14 25  1  0  0  0  0
 15 26  1  0  0  0  0
 16 26  1  0  0  0  0
 16 27  2  0  0  0  0
 16 28  1  0  0  0  0
 17 19  2  0  0  0  0
 17 33  1  0  0  0  0
 18 20  2  0  0  0  0
 18 34  1  0  0  0  0
 19 46  1  0  0  0  0
 20 35  1  0  0  0  0
 21 84  1  0  0  0  0
 22 85  1  0  0  0  0
 23 25  2  0  0  0  0
 23 84  1  0  0  0  0
 24 86  1  0  0  0  0
 25 87  1  0  0  0  0
 26 67  2  0  0  0  0
 27 68  1  0  0  0  0
 27 71  1  0  0  0  0
 28 72  1  0  0  0  0
 28 79  2  0  0  0  0
 29 47  1  0  0  0  0
 29 73  1  0  0  0  0
 29 80  2  0  0  0  0
 30 63  1  0  0  0  0
 30 69  1  0  0  0  0
 30 81  2  0  0  0  0
 31 64  1  0  0  0  0
 31 74  1  0  0  0  0
 31 82  2  0  0  0  0
 32 70  1  0  0  0  0
 32 75  1  0  0  0  0
 32 83  2  0  0  0  0
 33 36  1  0  0  0  0
 34 47  1  0  0  0  0
 35 69  1  0  0  0  0
 36 40  1  0  0  0  0
 37 38  1  0  0  0  0
 37 42  1  0  0  0  0
 38 43  1  0  0  0  0
 39 41  1  0  0  0  0
 39 44  1  0  0  0  0
 40 46  1  0  0  0  0
 41 48  1  0  0  0  0
 42 49  1  0  0  0  0
 43 50  1  0  0  0  0
 44 70  1  0  0  0  0
 45 48  1  0  0  0  0
 45 70  1  0  0  0  0
 46 73  1  0  0  0  0
 47 69  1  0  0  0  0
 48 68  1  0  0  0  0
 49 50  1  0  0  0  0
 49 75  1  0  0  0  0
 50 76  1  0  0  0  0
 51 64  1  0  0  0  0
 52 65  1  0  0  0  0
 53 66  1  0  0  0  0
 54 66  1  0  0  0  0
 55 66  1  0  0  0  0
 56 75  1  0  0  0  0
 57 77  1  0  0  0  0
 58 60  1  0  0  0  0
 58 61  1  0  0  0  0
 59 62  1  0  0  0  0
 59 65  1  0  0  0  0
 60 76  1  0  0  0  0
 61 78  1  0  0  0  0
 62 85  1  0  0  0  0
 63 66  1  0  0  0  0
 63 74  1  0  0  0  0
 64 77  1  0  0  0  0
 65 78  1  0  0  0  0
 67 68  1  0  0  0  0
M  CHG  3  76   1  77   1  78   1
M  ISO  4  32 100  62 101  75 100  85 101
M  END
> <Batch ID>
0119

> <Smiles>
CNC(C)C(=O)NC(C(=O)N1Cc2cc([101O:1][101CH2:1]CC(C)NCCCNC3CCCCC3[100N:0](C)[100C:0](=O)N3CCCC(n4nc(-c5ccc(Oc6ccc(F)cc6F)cc5)c(C(N)=O)c4N)C3)ccc2CC1C(=O)NC1CCCc2ccccc21)C(C)(C)C

> <Shape>
0.228

> <Color>
0.069

> <Negative vol penalty>
0.000

$$$$

  -OEChem-04052320203D

 87 96  0     1  0  0  0  0  0999 V2000
  -16.9905  -27.2532   24.4368 C   0  0  0  0  0  0  0  0  0  0  0  0
  -17.7213  -26.4830   23.5379 C   0  0  0  0  0  0  0  0  0  0  0  0
  -24.0824   -9.3747   20.1139 C   0  0  0  0  0  0  0  0  0  0  0  0
  -23.9065   -9.6732   22.5049 C   0  0  0  0  0  0  0  0  0  0  0  0
  -17.2359  -28.6217   24.5408 C   0  0  0  0  0  0  0  0  0  0  0  0
  -18.6972  -27.0811   22.7415 C   0  0  0  0  0  0  0  0  0  0  0  0
  -22.9847  -24.3914   22.5738 C   0  0  0  0  0  0  0  0  0  0  0  0
  -23.0484   -8.4395   20.1545 C   0  0  0  0  0  0  0  0  0  0  0  0
  -22.8724   -8.7380   22.5456 C   0  0  0  0  0  0  0  0  0  0  0  0
  -23.0022  -23.2725   21.7423 C   0  0  0  0  0  0  0  0  0  0  0  0
  -22.5533   -5.3726   22.4904 C   0  0  0  0  0  0  0  0  0  0  0  0
  -22.5929   -4.4060   23.4952 C   0  0  0  0  0  0  0  0  0  0  0  0
  -24.1716  -24.5476   20.0612 C   0  0  0  0  0  0  0  0  0  0  0  0
  -20.4700   -5.1945   24.3371 C   0  0  0  0  0  0  0  0  0  0  0  0
  -24.5116   -9.9916   21.2891 C   0  0  0  0  0  0  0  0  0  0  0  0
  -26.8997  -10.7467   20.8050 C   0  0  0  0  0  0  0  0  0  0  0  0
  -18.2220  -29.2352   23.7522 C   0  0  0  0  0  0  0  0  0  0  0  0
  -23.5517  -25.6020   22.1502 C   0  0  0  0  0  0  0  0  0  0  0  0
  -18.9551  -28.4594   22.8340 C   0  0  0  0  0  0  0  0  0  0  0  0
  -24.1622  -25.6797   20.8902 C   0  0  0  0  0  0  0  0  0  0  0  0
  -22.4433   -8.1212   21.3703 C   0  0  0  0  0  0  0  0  0  0  0  0
  -23.5932  -23.3512   20.4846 C   0  0  0  0  0  0  0  0  0  0  0  0
  -21.4722   -6.2502   22.4089 C   0  0  0  0  0  0  0  0  0  0  0  0
  -21.5512   -4.3169   24.4185 C   0  0  0  0  0  0  0  0  0  0  0  0
  -20.4305   -6.1611   23.3323 C   0  0  0  0  0  0  0  0  0  0  0  0
  -25.5801  -10.9573   21.2479 C   0  0  0  0  0  0  0  0  0  0  0  0
  -27.5144  -11.9643   20.9661 C   0  0  0  0  0  0  0  0  0  0  0  0
  -27.5147   -9.5568   20.2936 C   0  0  0  0  0  0  0  0  0  0  0  0
  -26.4001  -19.0075   17.2321 C   0  0  0  0  0  0  0  0  0  0  0  0
  -22.4438  -28.5335   21.6190 C   0  0  0  0  0  0  0  0  0  0  0  0
  -25.5834  -29.2190   21.1767 C   0  0  0  0  0  0  0  0  0  0  0  0
  -28.7080  -28.1027   20.3782 C   0  0  0  0  0  0  0  0  0  0  0  0
  -27.5087  -17.5228   20.4674 C   0  0  0  0  0  0  0  0  0  0  0  0
  -18.4188  -30.7262   23.8659 C   0  0  0  0  0  0  0  0  0  0  0  0
  -23.5483  -26.7924   23.0696 C   0  0  0  0  0  0  0  0  0  0  0  0
  -24.8028  -26.9502   20.3964 C   0  0  0  0  0  0  0  0  0  0  0  0
  -19.7288  -31.2161   23.2544 C   0  0  0  0  0  0  0  0  0  0  0  0
  -25.9689  -16.1408   23.3650 C   0  0  0  0  0  0  0  0  0  0  0  0
  -26.9669  -17.0963   14.5791 C   0  0  0  0  0  0  0  0  0  0  0  0
  -19.9405  -30.5948   21.8775 C   0  0  0  0  0  0  0  0  0  0  0  0
  -27.0243  -18.5917   14.8384 C   0  0  0  0  0  0  0  0  0  0  0  0
  -25.8338  -14.6536   23.0334 C   0  0  0  0  0  0  0  0  0  0  0  0
  -30.2014  -16.1386   17.1246 C   0  0  0  0  0  0  0  0  0  0  0  0
  -25.7469  -17.0161   22.1335 C   0  0  0  0  0  0  0  0  0  0  0  0
  -26.4533  -15.1876   20.6397 C   0  0  0  0  0  0  0  0  0  0  0  0
  -28.1750  -16.5775   15.3259 C   0  0  0  0  0  0  0  0  0  0  0  0
  -31.5161  -16.1411   17.8923 C   0  0  0  0  0  0  0  0  0  0  0  0
  -30.6117  -17.8481   19.4921 C   0  0  0  0  0  0  0  0  0  0  0  0
  -20.0392  -29.0673   21.9707 C   0  0  1  0  0  0  0  0  0  0  0  0
  -27.5138  -18.7243   16.2778 C   0  0  2  0  0  0  0  0  0  0  0  0
  -23.7002  -28.1184   22.3309 C   0  0  1  0  0  0  0  0  0  0  0  0
  -26.7240  -14.2625   21.8384 C   0  0  2  0  0  0  0  0  0  0  0  0
  -29.2735  -17.8730   18.7565 C   0  0  1  0  0  0  0  0  0  0  0  0
  -29.4658  -17.4702   17.2866 C   0  0  2  0  0  0  0  0  0  0  0  0
  -31.0651  -28.9039   20.0626 C   0  0  0  0  0  0  0  0  0  0  0  0
  -24.8137  -30.4116   18.4757 C   0  0  0  0  0  0  0  0  0  0  0  0
  -27.2292  -30.3171   17.8241 C   0  0  0  0  0  0  0  0  0  0  0  0
  -26.5136  -31.7294   19.7517 C   0  0  0  0  0  0  0  0  0  0  0  0
  -29.7133  -26.3633   22.5514 C   0  0  0  0  0  0  0  0  0  0  0  0
  -26.1469  -20.4711   17.5478 C   0  0  0  0  0  0  0  0  0  0  0  0
  -24.9731  -20.6698   18.5001 C   0  0  0  0  0  0  0  0  0  0  0  0
  -24.7073  -22.1446   18.7645 C   0  0  0  0  0  0  0  0  0  1  0  0
  -26.5228  -29.2129   19.9950 C   0  0  1  0  0  0  0  0  0  0  0  0
  -30.0560  -28.3227   21.0407 C   0  0  2  0  0  0  0  0  0  0  0  0
  -26.2561  -30.3942   19.0199 C   0  0  0  0  0  0  0  0  0  0  0  0
  -25.3682  -12.2101   21.6597 N   0  0  0  0  0  0  0  0  0  0  0  0
  -26.5628  -12.7977   21.4762 N   0  0  0  0  0  0  0  0  0  0  0  0
  -24.7683  -28.0885   21.3296 N   0  0  0  0  0  0  0  0  0  0  0  0
  -26.6223  -16.5941   21.0374 N   0  0  0  0  0  0  0  0  0  0  0  0
  -28.7707  -12.3927   20.7198 N   0  0  0  0  0  0  0  0  0  0  0  0
  -28.1339   -8.6831   21.1978 N   0  0  0  0  0  0  0  0  0  0  0  0
  -21.3474  -28.6736   22.4483 N   0  0  0  0  0  0  0  0  0  0  0  0
  -27.8730  -29.1870   20.5470 N   0  0  0  0  0  0  0  0  0  0  0  0
  -28.3071  -17.0390   19.4382 N   0  0  0  0  0  0  0  0  0  0  0  0
  -31.2601  -16.5123   19.3166 N   0  3  0  0  0  0  0  0  0  0  0  0
  -28.1463  -17.3789   16.6056 N   0  3  2  0  0  0  0  0  0  0  0  0
  -30.5941  -27.0339   21.5606 N   0  3  0  0  0  0  0  0  0  0  0  0
  -27.5295   -9.2848   19.0691 O   0  0  0  0  0  0  0  0  0  0  0  0
  -25.7381  -18.0942   17.7227 O   0  0  0  0  0  0  0  0  0  0  0  0
  -22.4677  -28.7148   20.4073 O   0  0  0  0  0  0  0  0  0  0  0  0
  -25.5782  -30.1878   21.9402 O   0  0  0  0  0  0  0  0  0  0  0  0
  -28.4254  -27.0737   19.7685 O   0  0  0  0  0  0  0  0  0  0  0  0
  -27.5869  -18.6948   20.8512 O   0  0  0  0  0  0  0  0  0  0  0  0
  -21.4341   -7.2088   21.4103 O   0  0  0  0  0  0  0  0  0  0  0  0
  -23.6111  -22.2607   19.6708 O   0  0  0  0  0  0  0  0  0  1  0  0
  -21.5885   -3.3876   25.3825 F   0  0  0  0  0  0  0  0  0  0  0  0
  -19.3887   -7.0007   23.2584 F   0  0  0  0  0  0  0  0  0  0  0  0
  1  2  1  0  0  0  0
  1  5  2  0  0  0  0
  2  6  2  0  0  0  0
  3  8  2  0  0  0  0
  3 15  1  0  0  0  0
  4  9  1  0  0  0  0
  4 15  2  0  0  0  0
  5 17  1  0  0  0  0
  6 19  1  0  0  0  0
  7 10  2  0  0  0  0
  7 18  1  0  0  0  0
  8 21  1  0  0  0  0
  9 21  2  0  0  0  0
 10 22  1  0  0  0  0
 11 12  2  0  0  0  0
 11 23  1  0  0  0  0
 12 24  1  0  0  0  0
 13 20  1  0  0  0  0
 13 22  2  0  0  0  0
 14 24  2  0  0  0  0
 14 25  1  0  0  0  0
 15 26  1  0  0  0  0
 16 26  1  0  0  0  0
 16 27  2  0  0  0  0
 16 28  1  0  0  0  0
 17 19  2  0  0  0  0
 17 34  1  0  0  0  0
 18 20  2  0  0  0  0
 18 35  1  0  0  0  0
 19 49  1  0  0  0  0
 20 36  1  0  0  0  0
 21 84  1  0  0  0  0
 22 85  1  0  0  0  0
 23 25  2  0  0  0  0
 23 84  1  0  0  0  0
 24 86  1  0  0  0  0
 25 87  1  0  0  0  0
 26 66  2  0  0  0  0
 27 67  1  0  0  0  0
 27 70  1  0  0  0  0
 28 71  1  0  0  0  0
 28 78  2  0  0  0  0
 29 50  1  0  0  0  0
 29 60  1  0  0  0  0
 29 79  2  0  0  0  0
 30 51  1  0  0  0  0
 30 72  1  0  0  0  0
 30 80  2  0  0  0  0
 31 63  1  0  0  0  0
 31 68  1  0  0  0  0
 31 81  2  0  0  0  0
 32 64  1  0  0  0  0
 32 73  1  0  0  0  0
 32 82  2  0  0  0  0
 33 69  1  0  0  0  0
 33 74  1  0  0  0  0
 33 83  2  0  0  0  0
 34 37  1  0  0  0  0
 35 51  1  0  0  0  0
 36 68  1  0  0  0  0
 37 40  1  0  0  0  0
 38 42  1  0  0  0  0
 38 44  1  0  0  0  0
 39 41  1  0  0  0  0
 39 46  1  0  0  0  0
 40 49  1  0  0  0  0
 41 50  1  0  0  0  0
 42 52  1  0  0  0  0
 43 47  1  0  0  0  0
 43 54  1  0  0  0  0
 44 69  1  0  0  0  0
 45 52  1  0  0  0  0
 45 69  1  0  0  0  0
 46 76  1  0  0  0  0
 47 75  1  0  0  0  0
 48 53  1  0  0  0  0
 48 75  1  0  0  0  0
 49 72  1  0  0  0  0
 50 76  1  0  0  0  0
 51 68  1  0  0  0  0
 52 67  1  0  0  0  0
 53 54  1  0  0  0  0
 53 74  1  0  0  0  0
 54 76  1  0  0  0  0
 55 64  1  0  0  0  0
 56 65  1  0  0  0  0
 57 65  1  0  0  0  0
 58 65  1  0  0  0  0
 59 77  1  0  0  0  0
 60 61  1  0  0  0  0
 61 62  1  0  0  0  0
 62 85  1  0  0  0  0
 63 65  1  0  0  0  0
 63 73  1  0  0  0  0
 64 77  1  0  0  0  0
 66 67  1  0  0  0  0
M  CHG  3  75   1  76   1  77   1
M  ISO  4  33 100  62 101  74 100  85 101
M  END
> <Batch ID>
0119

> <Smiles>
CNC(C)C(=O)NC(C(=O)N1Cc2cc([101O:1][101CH2:1]CCC(=O)C3CCCN3C3CCNCC3[100NH:0][100C:0](=O)N3CCCC(n4nc(-c5ccc(Oc6ccc(F)cc6F)cc5)c(C(N)=O)c4N)C3)ccc2CC1C(=O)NC1CCCc2ccccc21)C(C)(C)C

> <Shape>
0.242

> <Color>
0.084

> <Negative vol penalty>
0.000

$$$$

  -OEChem-04052320203D

 85 93  0     1  0  0  0  0  0999 V2000
  -25.4852  -18.0903   14.2825 C   0  0  0  0  0  0  0  0  0  0  0  0
  -26.4701  -17.8082   15.2237 C   0  0  0  0  0  0  0  0  0  0  0  0
  -23.8560  -30.6286   20.4360 C   0  0  0  0  0  0  0  0  0  0  0  0
  -23.6404  -29.1396   22.3264 C   0  0  0  0  0  0  0  0  0  0  0  0
  -24.1446  -17.8583   14.5871 C   0  0  0  0  0  0  0  0  0  0  0  0
  -26.1147  -17.2950   16.4706 C   0  0  0  0  0  0  0  0  0  0  0  0
  -29.0800  -13.4487   17.9052 C   0  0  0  0  0  0  0  0  0  0  0  0
  -28.6292  -20.1695   19.5441 C   0  0  0  0  0  0  0  0  0  0  0  0
  -22.8627  -31.4497   20.9695 C   0  0  0  0  0  0  0  0  0  0  0  0
  -22.6471  -29.9608   22.8600 C   0  0  0  0  0  0  0  0  0  0  0  0
  -30.3415  -13.7693   18.4047 C   0  0  0  0  0  0  0  0  0  0  0  0
  -19.3520  -30.5305   22.3615 C   0  0  0  0  0  0  0  0  0  0  0  0
  -18.2037  -29.9171   22.8621 C   0  0  0  0  0  0  0  0  0  0  0  0
  -29.3545  -19.1561   20.1608 C   0  0  0  0  0  0  0  0  0  0  0  0
  -29.5161  -13.4867   20.6538 C   0  0  0  0  0  0  0  0  0  0  0  0
  -18.6507  -30.8587   25.0417 C   0  0  0  0  0  0  0  0  0  0  0  0
  -24.2448  -29.4734   21.1144 C   0  0  0  0  0  0  0  0  0  0  0  0
  -26.6573  -28.7104   20.7896 C   0  0  0  0  0  0  0  0  0  0  0  0
  -23.7734  -17.3329   15.8348 C   0  0  0  0  0  0  0  0  0  0  0  0
  -28.0225  -13.1548   18.7780 C   0  0  0  0  0  0  0  0  0  0  0  0
  -24.7677  -17.0570   16.7927 C   0  0  0  0  0  0  0  0  0  0  0  0
  -28.2428  -13.1602   20.1627 C   0  0  0  0  0  0  0  0  0  0  0  0
  -28.8844  -21.4969   19.8702 C   0  0  0  0  0  0  0  0  0  0  0  0
  -22.2583  -31.1159   22.1815 C   0  0  0  0  0  0  0  0  0  0  0  0
  -30.5590  -13.7911   19.7793 C   0  0  0  0  0  0  0  0  0  0  0  0
  -20.1498  -31.3080   23.2011 C   0  0  0  0  0  0  0  0  0  0  0  0
  -17.8530  -30.0812   24.2021 C   0  0  0  0  0  0  0  0  0  0  0  0
  -19.7991  -31.4721   24.5412 C   0  0  0  0  0  0  0  0  0  0  0  0
  -25.2705  -28.6245   20.5635 C   0  0  0  0  0  0  0  0  0  0  0  0
  -30.3164  -19.5198   21.0893 C   0  0  0  0  0  0  0  0  0  0  0  0
  -29.8672  -21.7557   20.8119 C   0  0  0  0  0  0  0  0  0  0  0  0
  -27.1906  -27.6868   20.0452 C   0  0  0  0  0  0  0  0  0  0  0  0
  -27.3973  -29.6330   21.6001 C   0  0  0  0  0  0  0  0  0  0  0  0
  -25.1864  -14.4562   19.3837 C   0  0  0  0  0  0  0  0  0  0  0  0
  -24.8278  -11.8458   21.2757 C   0  0  0  0  0  0  0  0  0  0  0  0
  -26.3001   -9.3600   23.0922 C   0  0  0  0  0  0  0  0  0  0  0  0
  -27.1433  -22.4026   18.2907 C   0  0  0  0  0  0  0  0  0  0  0  0
  -22.3077  -17.1434   16.1357 C   0  0  0  0  0  0  0  0  0  0  0  0
  -26.6745  -12.7849   18.2226 C   0  0  0  0  0  0  0  0  0  0  0  0
  -27.1460  -12.8325   21.1415 C   0  0  0  0  0  0  0  0  0  0  0  0
  -22.0446  -16.2463   17.3424 C   0  0  0  0  0  0  0  0  0  0  0  0
  -25.0712  -24.7104   16.5422 C   0  0  0  0  0  0  0  0  0  0  0  0
  -22.9433  -16.6438   18.5092 C   0  0  0  0  0  0  0  0  0  0  0  0
  -25.0524  -25.9415   17.4511 C   0  0  0  0  0  0  0  0  0  0  0  0
  -25.0781  -23.4116   17.3465 C   0  0  0  0  0  0  0  0  0  0  0  0
  -26.1157  -24.5470   19.2710 C   0  0  0  0  0  0  0  0  0  0  0  0
  -24.4239  -16.4762   18.1472 C   0  0  1  0  0  0  0  0  0  0  0  0
  -25.5380  -13.0050   19.2162 C   0  0  1  0  0  0  0  0  0  0  0  0
  -26.1737  -25.8798   18.5068 C   0  0  2  0  0  0  0  0  0  0  0  0
  -29.3731  -23.6550   22.4061 C   0  0  0  0  0  0  0  0  0  0  0  0
  -25.7476   -7.4001   24.5589 C   0  0  0  0  0  0  0  0  0  0  0  0
  -24.1505  -13.7503   23.5613 C   0  0  0  0  0  0  0  0  0  0  0  0
  -24.5448  -11.8628   25.1582 C   0  0  0  0  0  0  0  0  0  0  0  0
  -22.7270  -11.6966   23.4580 C   0  0  0  0  0  0  0  0  0  0  0  0
  -27.6343   -7.4613   21.2555 C   0  0  0  0  0  0  0  0  0  0  0  0
  -31.1179  -18.4524   21.7744 C   0  0  0  0  0  0  0  0  0  0  0  0
  -33.5029  -15.7748   20.4314 C   0  0  0  0  0  0  0  0  0  0  0  0
  -32.7545  -16.5893   21.4759 C   0  0  0  0  0  0  0  0  0  0  0  0
  -32.5904  -14.9943   19.4933 C   0  0  0  0  0  0  0  0  0  1  0  0
  -30.1874  -23.1617   21.2044 C   0  0  1  0  0  0  0  0  0  0  0  0
  -25.1376  -11.5191   22.7166 C   0  0  1  0  0  0  0  0  0  0  0  0
  -26.0476   -7.8639   23.1420 C   0  0  2  0  0  0  0  0  0  0  0  0
  -24.1604  -12.2153   23.7054 C   0  0  0  0  0  0  0  0  0  0  0  0
  -24.9432  -27.6253   19.7398 N   0  0  0  0  0  0  0  0  0  0  0  0
  -30.5925  -20.7980   21.4320 N   0  0  0  0  0  0  0  0  0  0  0  0
  -26.1321  -27.0740   19.4417 N   0  0  0  0  0  0  0  0  0  0  0  0
  -25.8440  -12.4831   20.5497 N   0  0  0  0  0  0  0  0  0  0  0  0
  -26.1693  -23.4228   18.3233 N   0  0  0  0  0  0  0  0  0  0  0  0
  -28.4571  -27.2601   19.8544 N   0  0  0  0  0  0  0  0  0  0  0  0
  -26.6926  -30.6230   22.2985 N   0  0  0  0  0  0  0  0  0  0  0  0
  -28.1500  -22.5358   19.2465 N   0  0  0  0  0  0  0  0  0  0  0  0
  -24.8053  -15.0816   18.2119 N   0  0  0  0  0  0  0  0  0  0  0  0
  -25.1477  -10.0634   22.8120 N   0  0  0  0  0  0  0  0  0  0  0  0
  -31.6390  -23.3721   21.5281 N   0  3  0  0  0  0  0  0  0  0  0  0
  -27.2405   -7.1205   22.6468 N   0  3  0  0  0  0  0  0  0  0  0  0
  -31.9021  -17.6130   20.8269 N   0  3  0  0  0  0  0  0  0  0  0  0
  -28.6478  -29.5913   21.6890 O   0  0  0  0  0  0  0  0  0  0  0  0
  -25.2543  -14.9700   20.4941 O   0  0  0  0  0  0  0  0  0  0  0  0
  -23.7275  -11.5401   20.8094 O   0  0  0  0  0  0  0  0  0  0  0  0
  -27.4080   -9.8553   23.2864 O   0  0  0  0  0  0  0  0  0  0  0  0
  -27.1035  -21.4937   17.4575 O   0  0  0  0  0  0  0  0  0  0  0  0
  -21.2891  -31.9170   22.7025 O   0  0  0  0  0  0  0  0  0  0  0  0
  -31.7892  -14.1043   20.2695 O   0  0  0  0  0  0  0  0  0  1  0  0
  -16.7493  -29.4933   24.6822 F   0  0  0  0  0  0  0  0  0  0  0  0
  -20.5609  -32.2188   25.3523 F   0  0  0  0  0  0  0  0  0  0  0  0
  1  2  1  0  0  0  0
  1  5  2  0  0  0  0
  2  6  2  0  0  0  0
  3  9  2  0  0  0  0
  3 17  1  0  0  0  0
  4 10  1  0  0  0  0
  4 17  2  0  0  0  0
  5 19  1  0  0  0  0
  6 21  1  0  0  0  0
  7 11  2  0  0  0  0
  7 20  1  0  0  0  0
  8 14  2  0  0  0  0
  8 23  1  0  0  0  0
  9 24  1  0  0  0  0
 10 24  2  0  0  0  0
 11 25  1  0  0  0  0
 12 13  2  0  0  0  0
 12 26  1  0  0  0  0
 13 27  1  0  0  0  0
 14 30  1  0  0  0  0
 15 22  1  0  0  0  0
 15 25  2  0  0  0  0
 16 27  2  0  0  0  0
 16 28  1  0  0  0  0
 17 29  1  0  0  0  0
 18 29  1  0  0  0  0
 18 32  2  0  0  0  0
 18 33  1  0  0  0  0
 19 21  2  0  0  0  0
 19 38  1  0  0  0  0
 20 22  2  0  0  0  0
 20 39  1  0  0  0  0
 21 47  1  0  0  0  0
 22 40  1  0  0  0  0
 23 31  2  0  0  0  0
 23 71  1  0  0  0  0
 24 82  1  0  0  0  0
 25 83  1  0  0  0  0
 26 28  2  0  0  0  0
 26 82  1  0  0  0  0
 27 84  1  0  0  0  0
 28 85  1  0  0  0  0
 29 64  2  0  0  0  0
 30 56  1  0  0  0  0
 30 65  2  0  0  0  0
 31 60  1  0  0  0  0
 31 65  1  0  0  0  0
 32 66  1  0  0  0  0
 32 69  1  0  0  0  0
 33 70  1  0  0  0  0
 33 77  2  0  0  0  0
 34 48  1  0  0  0  0
 34 72  1  0  0  0  0
 34 78  2  0  0  0  0
 35 61  1  0  0  0  0
 35 67  1  0  0  0  0
 35 79  2  0  0  0  0
 36 62  1  0  0  0  0
 36 73  1  0  0  0  0
 36 80  2  0  0  0  0
 37 68  1  0  0  0  0
 37 71  1  0  0  0  0
 37 81  2  0  0  0  0
 38 41  1  0  0  0  0
 39 48  1  0  0  0  0
 40 67  1  0  0  0  0
 41 43  1  0  0  0  0
 42 44  1  0  0  0  0
 42 45  1  0  0  0  0
 43 47  1  0  0  0  0
 44 49  1  0  0  0  0
 45 68  1  0  0  0  0
 46 49  1  0  0  0  0
 46 68  1  0  0  0  0
 47 72  1  0  0  0  0
 48 67  1  0  0  0  0
 49 66  1  0  0  0  0
 50 60  1  0  0  0  0
 51 62  1  0  0  0  0
 52 63  1  0  0  0  0
 53 63  1  0  0  0  0
 54 63  1  0  0  0  0
 55 75  1  0  0  0  0
 56 76  1  0  0  0  0
 57 58  1  0  0  0  0
 57 59  1  0  0  0  0
 58 76  1  0  0  0  0
 59 83  1  0  0  0  0
 60 74  1  0  0  0  0
 61 63  1  0  0  0  0
 61 73  1  0  0  0  0
 62 75  1  0  0  0  0
 64 66  1  0  0  0  0
M  CHG  3  74   1  75   1  76   1
M  ISO  4  37 100  59 101  71 100  83 101
M  END
> <Batch ID>
0119

> <Smiles>
CNC(C)C(=O)NC(C(=O)N1Cc2cc([101O:1][101CH2:1]CCNCc3ccc([100NH:0][100C:0](=O)N4CCCC(n5nc(-c6ccc(Oc7ccc(F)cc7F)cc6)c(C(N)=O)c5N)C4)c(C(C)N)n3)ccc2CC1C(=O)NC1CCCc2ccccc21)C(C)(C)C

> <Shape>
0.252

> <Color>
0.072

> <Negative vol penalty>
0.000

$$$$

  -OEChem-04052320203D

 86 94  0     1  0  0  0  0  0999 V2000
  -14.4528  -28.3793   23.7865 C   0  0  0  0  0  0  0  0  0  0  0  0
  -14.8972  -27.9041   22.5568 C   0  0  0  0  0  0  0  0  0  0  0  0
  -23.0389   -9.9189   19.9236 C   0  0  0  0  0  0  0  0  0  0  0  0
  -23.8703   -9.8192   22.1898 C   0  0  0  0  0  0  0  0  0  0  0  0
  -15.0326  -29.5184   24.3432 C   0  0  0  0  0  0  0  0  0  0  0  0
  -15.9210  -28.5686   21.8825 C   0  0  0  0  0  0  0  0  0  0  0  0
  -22.0374  -25.1765   20.1577 C   0  0  0  0  0  0  0  0  0  0  0  0
  -22.2911   -8.7629   20.1470 C   0  0  0  0  0  0  0  0  0  0  0  0
  -23.1225   -8.6631   22.4133 C   0  0  0  0  0  0  0  0  0  0  0  0
  -23.1500  -24.5404   19.6068 C   0  0  0  0  0  0  0  0  0  0  0  0
  -19.9066   -7.8694   23.0830 C   0  0  0  0  0  0  0  0  0  0  0  0
  -19.1863   -7.7855   24.2745 C   0  0  0  0  0  0  0  0  0  0  0  0
  -23.9390  -26.6531   18.7339 C   0  0  0  0  0  0  0  0  0  0  0  0
  -20.4297   -5.8065   24.8868 C   0  0  0  0  0  0  0  0  0  0  0  0
  -23.8285  -10.4471   20.9450 C   0  0  0  0  0  0  0  0  0  0  0  0
  -24.1929  -12.9718   20.9234 C   0  0  0  0  0  0  0  0  0  0  0  0
  -16.0706  -30.1917   23.6800 C   0  0  0  0  0  0  0  0  0  0  0  0
  -21.8791  -26.5575   20.0117 C   0  0  0  0  0  0  0  0  0  0  0  0
  -16.5143  -29.7187   22.4303 C   0  0  0  0  0  0  0  0  0  0  0  0
  -22.8330  -27.2977   19.2942 C   0  0  0  0  0  0  0  0  0  0  0  0
  -22.3329   -8.1349   21.3918 C   0  0  0  0  0  0  0  0  0  0  0  0
  -24.0983  -25.2769   18.8965 C   0  0  0  0  0  0  0  0  0  0  0  0
  -20.8884   -6.9218   22.7933 C   0  0  0  0  0  0  0  0  0  0  0  0
  -19.4479   -6.7541   25.1764 C   0  0  0  0  0  0  0  0  0  0  0  0
  -21.1500   -5.8905   23.6952 C   0  0  0  0  0  0  0  0  0  0  0  0
  -24.6016  -11.6410   20.7146 C   0  0  0  0  0  0  0  0  0  0  0  0
  -25.2810  -13.7264   20.5583 C   0  0  0  0  0  0  0  0  0  0  0  0
  -22.9417  -13.4805   21.4043 C   0  0  0  0  0  0  0  0  0  0  0  0
  -19.8039  -29.5942   20.7521 C   0  0  0  0  0  0  0  0  0  0  0  0
  -22.7407  -30.4246   21.0623 C   0  0  0  0  0  0  0  0  0  0  0  0
  -26.0663  -30.8227   21.7094 C   0  0  0  0  0  0  0  0  0  0  0  0
  -30.7783  -14.6861   20.6163 C   0  0  0  0  0  0  0  0  0  0  0  0
  -16.6342  -31.4462   24.2990 C   0  0  0  0  0  0  0  0  0  0  0  0
  -20.6647  -27.2750   20.5356 C   0  0  0  0  0  0  0  0  0  0  0  0
  -22.6037  -28.7757   19.1329 C   0  0  0  0  0  0  0  0  0  0  0  0
  -17.9696  -31.8757   23.6969 C   0  0  0  0  0  0  0  0  0  0  0  0
  -29.5415  -12.4182   18.1661 C   0  0  0  0  0  0  0  0  0  0  0  0
  -17.9096  -31.8242   22.1735 C   0  0  0  0  0  0  0  0  0  0  0  0
  -29.0831  -18.2582   21.0281 C   0  0  0  0  0  0  0  0  0  0  0  0
  -31.3910  -19.1984   21.4366 C   0  0  0  0  0  0  0  0  0  0  0  0
  -28.7454  -19.4662   20.1562 C   0  0  0  0  0  0  0  0  0  0  0  0
  -31.0532  -20.4062   20.5643 C   0  0  0  0  0  0  0  0  0  0  0  0
  -28.1153  -12.1191   18.6313 C   0  0  0  0  0  0  0  0  0  0  0  0
  -30.4981  -12.5782   19.3456 C   0  0  0  0  0  0  0  0  0  0  0  0
  -28.6485  -13.2656   20.8222 C   0  0  0  0  0  0  0  0  0  0  0  0
  -17.6396  -30.3977   21.6800 C   0  0  1  0  0  0  0  0  0  0  0  0
  -20.9732  -28.6977   21.0355 C   0  0  1  0  0  0  0  0  0  0  0  0
  -30.5876  -17.9586   21.0239 C   0  0  0  0  0  0  0  0  0  0  0  0
  -29.5490  -20.7059   20.5692 C   0  0  0  0  0  0  0  0  0  0  0  0
  -27.6361  -13.1513   19.6697 C   0  0  2  0  0  0  0  0  0  0  0  0
  -27.7363  -32.5417   22.4534 C   0  0  0  0  0  0  0  0  0  0  0  0
  -30.1618  -24.1528   18.8220 C   0  0  0  0  0  0  0  0  0  0  0  0
  -29.5517  -23.8733   21.2337 C   0  0  0  0  0  0  0  0  0  0  0  0
  -27.4926  -23.1476   17.3443 C   0  0  0  0  0  0  0  0  0  0  0  0
  -22.6481  -31.7063   18.2960 C   0  0  0  0  0  0  0  0  0  0  0  0
  -24.8935  -32.7102   18.7640 C   0  0  0  0  0  0  0  0  0  0  0  0
  -22.9359  -33.3201   20.1848 C   0  0  0  0  0  0  0  0  0  0  0  0
  -26.7962  -29.2455   24.1049 C   0  0  0  0  0  0  0  0  0  0  0  0
  -30.9055  -16.7801   21.9422 C   0  0  0  0  0  0  0  0  0  0  0  0
  -27.6988  -22.1170   19.6645 C   0  0  0  0  0  0  0  0  0  0  0  0
  -25.6673  -23.4953   19.0466 C   0  0  0  0  0  0  0  0  0  1  0  0
  -23.9624  -31.0205   20.4099 C   0  0  1  0  0  0  0  0  0  0  0  0
  -26.7967  -31.4299   22.8936 C   0  0  2  0  0  0  0  0  0  0  0  0
  -29.2308  -21.8853   19.6520 C   0  0  1  0  0  0  0  0  0  0  0  0
  -30.0666  -23.1557   19.9800 C   0  0  0  0  0  0  0  0  0  0  0  0
  -27.1790  -23.3114   18.8341 C   0  0  2  0  0  0  0  0  0  0  0  0
  -23.6061  -32.1611   19.4151 C   0  0  0  0  0  0  0  0  0  0  0  0
  -25.8517  -11.5519   20.2526 N   0  0  0  0  0  0  0  0  0  0  0  0
  -26.2378  -12.8363   20.1680 N   0  0  0  0  0  0  0  0  0  0  0  0
  -22.1302  -29.3519   20.4011 N   0  0  0  0  0  0  0  0  0  0  0  0
  -29.9864  -13.5722   20.2922 N   0  0  0  0  0  0  0  0  0  0  0  0
  -25.5030  -15.0578   20.5362 N   0  0  0  0  0  0  0  0  0  0  0  0
  -21.9313  -12.5668   21.7339 N   0  0  0  0  0  0  0  0  0  0  0  0
  -18.8466  -29.6022   21.7486 N   0  0  0  0  0  0  0  0  0  0  0  0
  -24.8466  -31.4293   21.4959 N   0  0  0  0  0  0  0  0  0  0  0  0
  -30.2156  -15.5829   21.5162 N   0  0  0  0  0  0  0  0  0  0  0  0
  -27.5978  -30.3887   23.5973 N   0  3  0  0  0  0  0  0  0  0  0  0
  -22.7203  -14.7096   21.5222 O   0  0  0  0  0  0  0  0  0  0  0  0
  -19.7720  -30.2334   19.7071 O   0  0  0  0  0  0  0  0  0  0  0  0
  -22.3331  -30.8989   22.1264 O   0  0  0  0  0  0  0  0  0  0  0  0
  -26.5329  -29.9047   21.0384 O   0  0  0  0  0  0  0  0  0  0  0  0
  -31.9013  -14.8708   20.1348 O   0  0  0  0  0  0  0  0  0  0  0  0
  -21.6032   -7.0070   21.6103 O   0  0  0  0  0  0  0  0  0  0  0  0
  -25.1926  -24.6456   18.3612 O   0  0  0  0  0  0  0  0  0  1  0  0
  -18.7572   -6.6745   26.3213 F   0  0  0  0  0  0  0  0  0  0  0  0
  -22.0928   -4.9779   23.4229 F   0  0  0  0  0  0  0  0  0  0  0  0
  1  2  1  0  0  0  0
  1  5  2  0  0  0  0
  2  6  2  0  0  0  0
  3  8  2  0  0  0  0
  3 15  1  0  0  0  0
  4  9  1  0  0  0  0
  4 15  2  0  0  0  0
  5 17  1  0  0  0  0
  6 19  1  0  0  0  0
  7 10  2  0  0  0  0
  7 18  1  0  0  0  0
  8 21  1  0  0  0  0
  9 21  2  0  0  0  0
 10 22  1  0  0  0  0
 11 12  2  0  0  0  0
 11 23  1  0  0  0  0
 12 24  1  0  0  0  0
 13 20  1  0  0  0  0
 13 22  2  0  0  0  0
 14 24  2  0  0  0  0
 14 25  1  0  0  0  0
 15 26  1  0  0  0  0
 16 26  1  0  0  0  0
 16 27  2  0  0  0  0
 16 28  1  0  0  0  0
 17 19  2  0  0  0  0
 17 33  1  0  0  0  0
 18 20  2  0  0  0  0
 18 34  1  0  0  0  0
 19 46  1  0  0  0  0
 20 35  1  0  0  0  0
 21 83  1  0  0  0  0
 22 84  1  0  0  0  0
 23 25  2  0  0  0  0
 23 83  1  0  0  0  0
 24 85  1  0  0  0  0
 25 86  1  0  0  0  0
 26 68  2  0  0  0  0
 27 69  1  0  0  0  0
 27 72  1  0  0  0  0
 28 73  1  0  0  0  0
 28 78  2  0  0  0  0
 29 47  1  0  0  0  0
 29 74  1  0  0  0  0
 29 79  2  0  0  0  0
 30 62  1  0  0  0  0
 30 70  1  0  0  0  0
 30 80  2  0  0  0  0
 31 63  1  0  0  0  0
 31 75  1  0  0  0  0
 31 81  2  0  0  0  0
 32 71  1  0  0  0  0
 32 76  1  0  0  0  0
 32 82  2  0  0  0  0
 33 36  1  0  0  0  0
 34 47  1  0  0  0  0
 35 70  1  0  0  0  0
 36 38  1  0  0  0  0
 37 43  1  0  0  0  0
 37 44  1  0  0  0  0
 38 46  1  0  0  0  0
 39 41  1  0  0  0  0
 39 48  1  0  0  0  0
 40 42  1  0  0  0  0
 40 48  1  0  0  0  0
 41 49  1  0  0  0  0
 42 49  1  0  0  0  0
 43 50  1  0  0  0  0
 44 71  1  0  0  0  0
 45 50  1  0  0  0  0
 45 71  1  0  0  0  0
 46 74  1  0  0  0  0
 47 70  1  0  0  0  0
 48 59  1  0  0  0  0
 49 64  1  0  0  0  0
 50 69  1  0  0  0  0
 51 63  1  0  0  0  0
 52 65  1  0  0  0  0
 53 65  1  0  0  0  0
 54 66  1  0  0  0  0
 55 67  1  0  0  0  0
 56 67  1  0  0  0  0
 57 67  1  0  0  0  0
 58 77  1  0  0  0  0
 59 76  1  0  0  0  0
 60 64  1  0  0  0  0
 60 66  1  0  0  0  0
 61 66  1  0  0  0  0
 61 84  1  0  0  0  0
 62 67  1  0  0  0  0
 62 75  1  0  0  0  0
 63 77  1  0  0  0  0
 64 65  1  0  0  0  0
 68 69  1  0  0  0  0
M  CHG  1  77   1
M  ISO  4  32 100  61 101  76 100  84 101
M  END
> <Batch ID>
0119

> <Smiles>
CNC(C)C(=O)NC(C(=O)N1Cc2cc([101O:1][101CH2:1]C(C)CC(C(C)C)C3CCC(C[100NH:0][100C:0](=O)N4CCCC(n5nc(-c6ccc(Oc7ccc(F)cc7F)cc6)c(C(N)=O)c5N)C4)CC3)ccc2CC1C(=O)NC1CCCc2ccccc21)C(C)(C)C

> <Shape>
0.363

> <Color>
0.187

> <Negative vol penalty>
0.000

$$$$

  -OEChem-04052320203D

 83 92  0     1  0  0  0  0  0999 V2000
  -18.5100  -26.7958   19.8268 C   0  0  0  0  0  0  0  0  0  0  0  0
  -19.6952  -26.3295   20.3865 C   0  0  0  0  0  0  0  0  0  0  0  0
  -23.1423   -9.6797   19.9459 C   0  0  0  0  0  0  0  0  0  0  0  0
  -23.6328   -9.9396   22.2972 C   0  0  0  0  0  0  0  0  0  0  0  0
  -18.2879  -28.1673   19.7100 C   0  0  0  0  0  0  0  0  0  0  0  0
  -20.6595  -27.2344   20.8288 C   0  0  0  0  0  0  0  0  0  0  0  0
  -22.5515  -25.9973   25.3603 C   0  0  0  0  0  0  0  0  0  0  0  0
  -22.3868   -8.5420   20.2292 C   0  0  0  0  0  0  0  0  0  0  0  0
  -22.8772   -8.8019   22.5806 C   0  0  0  0  0  0  0  0  0  0  0  0
  -23.5018  -24.9778   25.3968 C   0  0  0  0  0  0  0  0  0  0  0  0
  -23.2654   -5.4476   22.4110 C   0  0  0  0  0  0  0  0  0  0  0  0
  -23.8049   -4.5156   23.2976 C   0  0  0  0  0  0  0  0  0  0  0  0
  -25.2574  -26.6273   25.5259 C   0  0  0  0  0  0  0  0  0  0  0  0
  -21.9165   -4.8256   24.7724 C   0  0  0  0  0  0  0  0  0  0  0  0
  -23.7654  -10.3785   20.9799 C   0  0  0  0  0  0  0  0  0  0  0  0
  -24.0921  -12.8850   20.6355 C   0  0  0  0  0  0  0  0  0  0  0  0
  -19.2458  -29.0896   20.1599 C   0  0  0  0  0  0  0  0  0  0  0  0
  -22.9482  -27.3418   25.3955 C   0  0  0  0  0  0  0  0  0  0  0  0
  -20.4506  -28.6195   20.7167 C   0  0  0  0  0  0  0  0  0  0  0  0
  -24.3099  -27.6618   25.4923 C   0  0  0  0  0  0  0  0  0  0  0  0
  -22.2542   -8.1030   21.5466 C   0  0  0  0  0  0  0  0  0  0  0  0
  -24.8552  -25.2928   25.4767 C   0  0  0  0  0  0  0  0  0  0  0  0
  -22.0515   -6.0686   22.7051 C   0  0  0  0  0  0  0  0  0  0  0  0
  -23.1304   -4.2046   24.4782 C   0  0  0  0  0  0  0  0  0  0  0  0
  -21.3770   -5.7576   23.8857 C   0  0  0  0  0  0  0  0  0  0  0  0
  -24.5464  -11.5536   20.6877 C   0  0  0  0  0  0  0  0  0  0  0  0
  -25.2109  -13.6175   20.3221 C   0  0  0  0  0  0  0  0  0  0  0  0
  -22.7764  -13.4125   20.8512 C   0  0  0  0  0  0  0  0  0  0  0  0
  -22.6697  -29.8151   23.4183 C   0  0  0  0  0  0  0  0  0  0  0  0
  -23.9647  -31.4487   25.9037 C   0  0  0  0  0  0  0  0  0  0  0  0
  -25.8541  -31.3813   28.7448 C   0  0  0  0  0  0  0  0  0  0  0  0
  -30.5235  -14.8336   20.8394 C   0  0  0  0  0  0  0  0  0  0  0  0
  -18.9814  -30.5621   19.9693 C   0  0  0  0  0  0  0  0  0  0  0  0
  -21.9092  -28.4293   25.3823 C   0  0  0  0  0  0  0  0  0  0  0  0
  -24.7867  -29.0892   25.5533 C   0  0  0  0  0  0  0  0  0  0  0  0
  -19.8925  -31.4577   20.8048 C   0  0  0  0  0  0  0  0  0  0  0  0
  -29.7932  -12.1554   18.7784 C   0  0  0  0  0  0  0  0  0  0  0  0
  -21.3422  -30.9965   20.6936 C   0  0  0  0  0  0  0  0  0  0  0  0
  -28.3236  -11.8586   19.0762 C   0  0  0  0  0  0  0  0  0  0  0  0
  -29.3873  -18.2634   21.6594 C   0  0  0  0  0  0  0  0  0  0  0  0
  -27.7612  -16.6071   22.6399 C   0  0  0  0  0  0  0  0  0  0  0  0
  -27.7379  -20.4735   23.0674 C   0  0  0  0  0  0  0  0  0  0  0  0
  -30.5540  -12.4838   20.0579 C   0  0  0  0  0  0  0  0  0  0  0  0
  -30.4523  -17.1708   21.6277 C   0  0  0  0  0  0  0  0  0  0  0  0
  -28.8576  -15.5480   22.5949 C   0  0  0  0  0  0  0  0  0  0  0  0
  -28.4996  -13.3369   21.1383 C   0  0  0  0  0  0  0  0  0  0  0  0
  -25.8888  -20.0496   24.4977 C   0  0  0  0  0  0  0  0  0  0  0  0
  -21.5101  -29.5700   21.2306 C   0  0  1  0  0  0  0  0  0  0  0  0
  -22.4551  -29.7715   24.9048 C   0  0  1  0  0  0  0  0  0  0  0  0
  -28.3541  -18.0169   22.7664 C   0  0  0  0  0  0  0  0  0  0  0  0
  -26.4763  -21.1347   23.6092 C   0  0  1  0  0  0  0  0  0  0  0  0
  -27.6793  -13.0052   19.8755 C   0  0  2  0  0  0  0  0  0  0  0  0
  -27.2536  -19.0746   22.7289 C   0  0  1  0  0  0  0  0  0  0  0  0
  -26.7688  -32.8795   30.5382 C   0  0  0  0  0  0  0  0  0  0  0  0
  -26.0839  -32.4742   23.9627 C   0  0  0  0  0  0  0  0  0  0  0  0
  -27.4639  -33.1543   25.9379 C   0  0  0  0  0  0  0  0  0  0  0  0
  -25.2236  -34.1875   25.5686 C   0  0  0  0  0  0  0  0  0  0  0  0
  -24.3843  -29.9329   30.8663 C   0  0  0  0  0  0  0  0  0  0  0  0
  -26.7494  -22.4290   24.3548 C   0  0  0  0  0  0  0  0  0  0  0  0
  -25.4652  -23.0843   24.8391 C   0  0  0  0  0  0  0  0  0  1  0  0
  -25.3681  -31.7861   26.3460 C   0  0  1  0  0  0  0  0  0  0  0  0
  -25.6211  -31.9719   30.1237 C   0  0  2  0  0  0  0  0  0  0  0  0
  -26.0263  -32.8736   25.4507 C   0  0  0  0  0  0  0  0  0  0  0  0
  -25.8520  -11.4437   20.4281 N   0  0  0  0  0  0  0  0  0  0  0  0
  -26.2276  -12.7154   20.2096 N   0  0  0  0  0  0  0  0  0  0  0  0
  -23.7328  -30.1170   25.5311 N   0  0  0  0  0  0  0  0  0  0  0  0
  -29.9085  -13.5735   20.7898 N   0  0  0  0  0  0  0  0  0  0  0  0
  -29.8516  -15.8397   21.5533 N   0  0  0  0  0  0  0  0  0  0  0  0
  -25.4142  -14.9388   20.1343 N   0  0  0  0  0  0  0  0  0  0  0  0
  -21.7420  -12.5203   21.1649 N   0  0  0  0  0  0  0  0  0  0  0  0
  -21.5284  -29.5736   22.6777 N   0  0  0  0  0  0  0  0  0  0  0  0
  -25.2755  -32.1487   27.7561 N   0  0  0  0  0  0  0  0  0  0  0  0
  -26.2217  -18.7714   23.7801 N   0  3  0  0  0  0  0  0  0  0  0  0
  -25.4906  -30.8867   31.1368 N   0  3  0  0  0  0  0  0  0  0  0  0
  -22.5222  -14.6368   20.7522 O   0  0  0  0  0  0  0  0  0  0  0  0
  -23.7878  -30.0518   22.9760 O   0  0  0  0  0  0  0  0  0  0  0  0
  -23.1041  -32.3324   25.8960 O   0  0  0  0  0  0  0  0  0  0  0  0
  -26.4893  -30.3451   28.5627 O   0  0  0  0  0  0  0  0  0  0  0  0
  -31.6043  -15.0507   20.2775 O   0  0  0  0  0  0  0  0  0  0  0  0
  -21.5168   -6.9930   21.8235 O   0  0  0  0  0  0  0  0  0  0  0  0
  -25.7917  -24.2924   25.5120 O   0  0  0  0  0  0  0  0  0  1  0  0
  -23.6478   -3.3085   25.3288 F   0  0  0  0  0  0  0  0  0  0  0  0
  -20.2099   -6.3500   24.1731 F   0  0  0  0  0  0  0  0  0  0  0  0
  1  2  1  0  0  0  0
  1  5  2  0  0  0  0
  2  6  2  0  0  0  0
  3  8  2  0  0  0  0
  3 15  1  0  0  0  0
  4  9  1  0  0  0  0
  4 15  2  0  0  0  0
  5 17  1  0  0  0  0
  6 19  1  0  0  0  0
  7 10  2  0  0  0  0
  7 18  1  0  0  0  0
  8 21  1  0  0  0  0
  9 21  2  0  0  0  0
 10 22  1  0  0  0  0
 11 12  2  0  0  0  0
 11 23  1  0  0  0  0
 12 24  1  0  0  0  0
 13 20  1  0  0  0  0
 13 22  2  0  0  0  0
 14 24  2  0  0  0  0
 14 25  1  0  0  0  0
 15 26  1  0  0  0  0
 16 26  1  0  0  0  0
 16 27  2  0  0  0  0
 16 28  1  0  0  0  0
 17 19  2  0  0  0  0
 17 33  1  0  0  0  0
 18 20  2  0  0  0  0
 18 34  1  0  0  0  0
 19 48  1  0  0  0  0
 20 35  1  0  0  0  0
 21 80  1  0  0  0  0
 22 81  1  0  0  0  0
 23 25  2  0  0  0  0
 23 80  1  0  0  0  0
 24 82  1  0  0  0  0
 25 83  1  0  0  0  0
 26 64  2  0  0  0  0
 27 65  1  0  0  0  0
 27 69  1  0  0  0  0
 28 70  1  0  0  0  0
 28 75  2  0  0  0  0
 29 49  1  0  0  0  0
 29 71  1  0  0  0  0
 29 76  2  0  0  0  0
 30 61  1  0  0  0  0
 30 66  1  0  0  0  0
 30 77  2  0  0  0  0
 31 62  1  0  0  0  0
 31 72  1  0  0  0  0
 31 78  2  0  0  0  0
 32 67  1  0  0  0  0
 32 68  1  0  0  0  0
 32 79  2  0  0  0  0
 33 36  1  0  0  0  0
 34 49  1  0  0  0  0
 35 66  1  0  0  0  0
 36 38  1  0  0  0  0
 37 39  1  0  0  0  0
 37 43  1  0  0  0  0
 38 48  1  0  0  0  0
 39 52  1  0  0  0  0
 40 44  1  0  0  0  0
 40 50  1  0  0  0  0
 41 45  1  0  0  0  0
 41 50  1  0  0  0  0
 42 51  1  0  0  0  0
 42 53  1  0  0  0  0
 43 67  1  0  0  0  0
 44 68  1  0  0  0  0
 45 68  1  0  0  0  0
 46 52  1  0  0  0  0
 46 67  1  0  0  0  0
 47 51  1  0  0  0  0
 47 73  1  0  0  0  0
 48 71  1  0  0  0  0
 49 66  1  0  0  0  0
 50 53  1  0  0  0  0
 51 59  1  0  0  0  0
 52 65  1  0  0  0  0
 53 73  1  0  0  0  0
 54 62  1  0  0  0  0
 55 63  1  0  0  0  0
 56 63  1  0  0  0  0
 57 63  1  0  0  0  0
 58 74  1  0  0  0  0
 59 60  1  0  0  0  0
 60 81  1  0  0  0  0
 61 63  1  0  0  0  0
 61 72  1  0  0  0  0
 62 74  1  0  0  0  0
 64 65  1  0  0  0  0
M  CHG  2  73   1  74   1
M  ISO  4  32 100  60 101  68 100  81 101
M  END
> <Batch ID>
0119

> <Smiles>
CNC(C)C(=O)NC(C(=O)N1Cc2cc([101O:1][101CH2:1]CC3CNC(C4CC[100N:0]([100C:0](=O)N5CCCC(n6nc(-c7ccc(Oc8ccc(F)cc8F)cc7)c(C(N)=O)c6N)C5)CC4)C3)ccc2CC1C(=O)NC1CCCc2ccccc21)C(C)(C)C

> <Shape>
0.272

> <Color>
0.216

> <Negative vol penalty>
0.000

$$$$

  -OEChem-04052320203D

 87 95  0     1  0  0  0  0  0999 V2000
  -25.1084  -11.6243   20.5877 C   0  0  0  0  0  0  0  0  0  0  0  0
  -25.8027  -12.4725   19.7310 C   0  0  0  0  0  0  0  0  0  0  0  0
  -18.7068  -21.1951   25.6992 C   0  0  0  0  0  0  0  0  0  0  0  0
  -20.3211  -20.8873   23.9281 C   0  0  0  0  0  0  0  0  0  0  0  0
  -24.3597  -12.1556   21.6370 C   0  0  0  0  0  0  0  0  0  0  0  0
  -25.7479  -13.8526   19.9225 C   0  0  0  0  0  0  0  0  0  0  0  0
  -29.7371  -19.7555   19.1756 C   0  0  0  0  0  0  0  0  0  0  0  0
  -26.0084  -29.6225   20.1703 C   0  0  0  0  0  0  0  0  0  0  0  0
  -26.1046  -28.7474   22.4202 C   0  0  0  0  0  0  0  0  0  0  0  0
  -24.6979  -30.0460   20.3910 C   0  0  0  0  0  0  0  0  0  0  0  0
  -24.7940  -29.1710   22.6410 C   0  0  0  0  0  0  0  0  0  0  0  0
  -18.3808  -19.8403   25.6375 C   0  0  0  0  0  0  0  0  0  0  0  0
  -19.9951  -19.5325   23.8665 C   0  0  0  0  0  0  0  0  0  0  0  0
  -29.6858  -21.0245   18.6005 C   0  0  0  0  0  0  0  0  0  0  0  0
  -17.5307  -17.6200   22.5626 C   0  0  0  0  0  0  0  0  0  0  0  0
  -17.3441  -17.0551   21.3010 C   0  0  0  0  0  0  0  0  0  0  0  0
  -28.4243  -21.8251   20.4945 C   0  0  0  0  0  0  0  0  0  0  0  0
  -19.1435  -15.5012   21.7307 C   0  0  0  0  0  0  0  0  0  0  0  0
  -19.6770  -21.7186   24.8445 C   0  0  0  0  0  0  0  0  0  0  0  0
  -21.0051  -23.7189   25.7062 C   0  0  0  0  0  0  0  0  0  0  0  0
  -24.3034  -13.5424   21.8473 C   0  0  0  0  0  0  0  0  0  0  0  0
  -29.1220  -19.5087   20.4114 C   0  0  0  0  0  0  0  0  0  0  0  0
  -24.9966  -14.4030   20.9749 C   0  0  0  0  0  0  0  0  0  0  0  0
  -28.4715  -20.5527   21.0843 C   0  0  0  0  0  0  0  0  0  0  0  0
  -26.7118  -28.9731   21.1849 C   0  0  0  0  0  0  0  0  0  0  0  0
  -24.0907  -29.8204   21.6263 C   0  0  0  0  0  0  0  0  0  0  0  0
  -19.0249  -19.0090   24.7211 C   0  0  0  0  0  0  0  0  0  0  0  0
  -29.0268  -22.0589   19.2586 C   0  0  0  0  0  0  0  0  0  0  0  0
  -18.5237  -17.1255   23.4083 C   0  0  0  0  0  0  0  0  0  0  0  0
  -18.1505  -15.9957   20.8850 C   0  0  0  0  0  0  0  0  0  0  0  0
  -19.3301  -16.0661   22.9923 C   0  0  0  0  0  0  0  0  0  0  0  0
  -20.0138  -23.1182   24.9073 C   0  0  0  0  0  0  0  0  0  0  0  0
  -20.9276  -25.0560   25.4020 C   0  0  0  0  0  0  0  0  0  0  0  0
  -21.9148  -23.1216   26.6398 C   0  0  0  0  0  0  0  0  0  0  0  0
  -26.7732  -17.6136   21.4092 C   0  0  0  0  0  0  0  0  0  0  0  0
  -27.6614  -18.7032   24.3326 C   0  0  0  0  0  0  0  0  0  0  0  0
  -29.1572  -21.1517   26.1803 C   0  0  0  0  0  0  0  0  0  0  0  0
  -20.4716  -29.1793   21.6690 C   0  0  0  0  0  0  0  0  0  0  0  0
  -23.4425  -14.0726   22.9665 C   0  0  0  0  0  0  0  0  0  0  0  0
  -29.2094  -18.1408   21.0310 C   0  0  0  0  0  0  0  0  0  0  0  0
  -27.8126  -20.3447   22.4226 C   0  0  0  0  0  0  0  0  0  0  0  0
  -23.7392  -15.5259   23.3271 C   0  0  0  0  0  0  0  0  0  0  0  0
  -17.4592  -27.6399   22.7790 C   0  0  0  0  0  0  0  0  0  0  0  0
  -23.8360  -16.3796   22.0666 C   0  0  0  0  0  0  0  0  0  0  0  0
  -17.9367  -26.3734   23.4917 C   0  0  0  0  0  0  0  0  0  0  0  0
  -18.3190  -27.9586   21.5578 C   0  0  0  0  0  0  0  0  0  0  0  0
  -20.2449  -26.7727   22.5369 C   0  0  0  0  0  0  0  0  0  0  0  0
  -24.9818  -15.9043   21.1650 C   0  0  1  0  0  0  0  0  0  0  0  0
  -28.1064  -17.8753   22.0509 C   0  0  1  0  0  0  0  0  0  0  0  0
  -19.4430  -26.4416   23.8072 C   0  0  2  0  0  0  0  0  0  0  0  0
  -29.6970  -21.7801   28.5491 C   0  0  0  0  0  0  0  0  0  0  0  0
  -23.0230  -33.4739   24.1277 C   0  0  0  0  0  0  0  0  0  0  0  0
  -22.8457  -33.3605   21.6355 C   0  0  0  0  0  0  0  0  0  0  0  0
  -24.7498  -19.4970   24.7829 C   0  0  0  0  0  0  0  0  0  0  0  0
  -25.5090  -20.9344   26.6871 C   0  0  0  0  0  0  0  0  0  0  0  0
  -25.8695  -18.4674   26.7681 C   0  0  0  0  0  0  0  0  0  0  0  0
  -32.0671  -21.1486   25.6405 C   0  0  0  0  0  0  0  0  0  0  0  0
  -28.1214  -28.5172   20.9484 C   0  0  0  0  0  0  0  0  0  0  0  0
  -29.5719  -25.6107   18.9212 C   0  0  0  0  0  0  0  0  0  0  0  0
  -22.5237  -31.2589   23.0501 C   0  0  0  0  0  0  0  0  0  0  0  0
  -29.5872  -26.8622   19.7860 C   0  0  0  0  0  0  0  0  0  0  0  0
  -28.9125  -24.4110   19.5904 C   0  0  0  0  0  0  0  0  0  1  0  0
  -22.6900  -30.2751   21.8621 C   0  0  2  0  0  0  0  0  0  0  0  0
  -27.2695  -19.8738   25.2016 C   0  0  1  0  0  0  0  0  0  0  0  0
  -30.1919  -21.0868   27.2892 C   0  0  2  0  0  0  0  0  0  0  0  0
  -23.2690  -32.6011   22.8935 C   0  0  0  0  0  0  0  0  0  0  0  0
  -25.8601  -19.6969   25.8338 C   0  0  0  0  0  0  0  0  0  0  0  0
  -19.3548  -24.0013   24.1525 N   0  0  0  0  0  0  0  0  0  0  0  0
  -19.9330  -25.1705   24.4758 N   0  0  0  0  0  0  0  0  0  0  0  0
  -27.9199  -18.9881   22.9843 N   0  0  0  0  0  0  0  0  0  0  0  0
  -19.7361  -28.0105   21.9254 N   0  0  0  0  0  0  0  0  0  0  0  0
  -21.6137  -26.1333   25.8392 N   0  0  0  0  0  0  0  0  0  0  0  0
  -21.8599  -21.7344   26.8318 N   0  0  0  0  0  0  0  0  0  0  0  0
  -26.2541  -16.3621   21.6808 N   0  0  0  0  0  0  0  0  0  0  0  0
  -28.3444  -20.0379   26.1742 N   0  0  0  0  0  0  0  0  0  0  0  0
  -21.8063  -29.1468   22.0541 N   0  0  0  0  0  0  0  0  0  0  0  0
  -31.4569  -21.7451   26.8565 N   0  3  0  0  0  0  0  0  0  0  0  0
  -28.2057  -27.3022   20.0915 N   0  3  0  0  0  0  0  0  0  0  0  0
  -22.7404  -23.8002   27.2966 O   0  0  0  0  0  0  0  0  0  0  0  0
  -26.2533  -18.4832   20.7199 O   0  0  0  0  0  0  0  0  0  0  0  0
  -27.7423  -17.5787   24.8332 O   0  0  0  0  0  0  0  0  0  0  0  0
  -29.0757  -22.0977   25.3999 O   0  0  0  0  0  0  0  0  0  0  0  0
  -19.9743  -30.1798   21.1411 O   0  0  0  0  0  0  0  0  0  0  0  0
  -18.7072  -17.6869   24.6608 O   0  0  0  0  0  0  0  0  0  0  0  0
  -28.9746  -23.2983   18.6992 O   0  0  0  0  0  0  0  0  0  1  0  0
  -17.9703  -15.4523   19.6741 F   0  0  0  0  0  0  0  0  0  0  0  0
  -20.2850  -15.5861   23.8008 F   0  0  0  0  0  0  0  0  0  0  0  0
  1  2  1  0  0  0  0
  1  5  2  0  0  0  0
  2  6  2  0  0  0  0
  3 12  2  0  0  0  0
  3 19  1  0  0  0  0
  4 13  1  0  0  0  0
  4 19  2  0  0  0  0
  5 21  1  0  0  0  0
  6 23  1  0  0  0  0
  7 14  2  0  0  0  0
  7 22  1  0  0  0  0
  8 10  2  0  0  0  0
  8 25  1  0  0  0  0
  9 11  1  0  0  0  0
  9 25  2  0  0  0  0
 10 26  1  0  0  0  0
 11 26  2  0  0  0  0
 12 27  1  0  0  0  0
 13 27  2  0  0  0  0
 14 28  1  0  0  0  0
 15 16  2  0  0  0  0
 15 29  1  0  0  0  0
 16 30  1  0  0  0  0
 17 24  1  0  0  0  0
 17 28  2  0  0  0  0
 18 30  2  0  0  0  0
 18 31  1  0  0  0  0
 19 32  1  0  0  0  0
 20 32  1  0  0  0  0
 20 33  2  0  0  0  0
 20 34  1  0  0  0  0
 21 23  2  0  0  0  0
 21 39  1  0  0  0  0
 22 24  2  0  0  0  0
 22 40  1  0  0  0  0
 23 48  1  0  0  0  0
 24 41  1  0  0  0  0
 25 58  1  0  0  0  0
 26 63  1  0  0  0  0
 27 84  1  0  0  0  0
 28 85  1  0  0  0  0
 29 31  2  0  0  0  0
 29 84  1  0  0  0  0
 30 86  1  0  0  0  0
 31 87  1  0  0  0  0
 32 68  2  0  0  0  0
 33 69  1  0  0  0  0
 33 72  1  0  0  0  0
 34 73  1  0  0  0  0
 34 79  2  0  0  0  0
 35 49  1  0  0  0  0
 35 74  1  0  0  0  0
 35 80  2  0  0  0  0
 36 64  1  0  0  0  0
 36 70  1  0  0  0  0
 36 81  2  0  0  0  0
 37 65  1  0  0  0  0
 37 75  1  0  0  0  0
 37 82  2  0  0  0  0
 38 71  1  0  0  0  0
 38 76  1  0  0  0  0
 38 83  2  0  0  0  0
 39 42  1  0  0  0  0
 40 49  1  0  0  0  0
 41 70  1  0  0  0  0
 42 44  1  0  0  0  0
 43 45  1  0  0  0  0
 43 46  1  0  0  0  0
 44 48  1  0  0  0  0
 45 50  1  0  0  0  0
 46 71  1  0  0  0  0
 47 50  1  0  0  0  0
 47 71  1  0  0  0  0
 48 74  1  0  0  0  0
 49 70  1  0  0  0  0
 50 69  1  0  0  0  0
 51 65  1  0  0  0  0
 52 66  1  0  0  0  0
 53 66  1  0  0  0  0
 54 67  1  0  0  0  0
 55 67  1  0  0  0  0
 56 67  1  0  0  0  0
 57 77  1  0  0  0  0
 58 78  1  0  0  0  0
 59 61  1  0  0  0  0
 59 62  1  0  0  0  0
 60 63  1  0  0  0  0
 60 66  1  0  0  0  0
 61 78  1  0  0  0  0
 62 85  1  0  0  0  0
 63 76  1  0  0  0  0
 64 67  1  0  0  0  0
 64 75  1  0  0  0  0
 65 77  1  0  0  0  0
 68 69  1  0  0  0  0
M  CHG  2  77   1  78   1
M  ISO  4  38 100  62 101  76 100  85 101
M  END
> <Batch ID>
0119

> <Smiles>
CNC(C)C(=O)NC(C(=O)N1Cc2cc([101O:1][101CH2:1]CCNCc3ccc(C(CC(C)C)[100NH:0][100C:0](=O)N4CCCC(n5nc(-c6ccc(Oc7ccc(F)cc7F)cc6)c(C(N)=O)c5N)C4)cc3)ccc2CC1C(=O)NC1CCCc2ccccc21)C(C)(C)C

> <Shape>
0.193

> <Color>
0.065

> <Negative vol penalty>
0.000

$$$$

  -OEChem-04052320203D

 84 92  0     1  0  0  0  0  0999 V2000
  -29.4882   -9.8723   28.9198 C   0  0  0  0  0  0  0  0  0  0  0  0
  -29.9726  -11.1045   28.4925 C   0  0  0  0  0  0  0  0  0  0  0  0
  -23.0739   -9.8687   19.9415 C   0  0  0  0  0  0  0  0  0  0  0  0
  -23.8383   -9.8745   22.2334 C   0  0  0  0  0  0  0  0  0  0  0  0
  -28.1360   -9.7243   29.2258 C   0  0  0  0  0  0  0  0  0  0  0  0
  -29.1048  -12.1891   28.3699 C   0  0  0  0  0  0  0  0  0  0  0  0
  -30.3959  -18.0772   29.4509 C   0  0  0  0  0  0  0  0  0  0  0  0
  -22.3313   -8.7149   20.1920 C   0  0  0  0  0  0  0  0  0  0  0  0
  -23.0957   -8.7206   22.4840 C   0  0  0  0  0  0  0  0  0  0  0  0
  -30.7322  -19.1342   28.6062 C   0  0  0  0  0  0  0  0  0  0  0  0
  -19.8692   -7.9203   23.0922 C   0  0  0  0  0  0  0  0  0  0  0  0
  -19.1146   -7.8790   24.2645 C   0  0  0  0  0  0  0  0  0  0  0  0
  -28.4241  -19.8346   28.5734 C   0  0  0  0  0  0  0  0  0  0  0  0
  -20.3587   -5.9418   24.9971 C   0  0  0  0  0  0  0  0  0  0  0  0
  -23.8275  -10.4485   20.9622 C   0  0  0  0  0  0  0  0  0  0  0  0
  -24.1675  -12.9739   20.8434 C   0  0  0  0  0  0  0  0  0  0  0  0
  -27.2531  -10.8101   29.1162 C   0  0  0  0  0  0  0  0  0  0  0  0
  -29.0670  -17.8844   29.8551 C   0  0  0  0  0  0  0  0  0  0  0  0
  -27.7393  -12.0551   28.6735 C   0  0  0  0  0  0  0  0  0  0  0  0
  -28.0739  -18.7760   29.4254 C   0  0  0  0  0  0  0  0  0  0  0  0
  -22.3421   -8.1409   21.4632 C   0  0  0  0  0  0  0  0  0  0  0  0
  -29.7458  -20.0113   28.1650 C   0  0  0  0  0  0  0  0  0  0  0  0
  -20.8685   -6.9723   22.8722 C   0  0  0  0  0  0  0  0  0  0  0  0
  -19.3593   -6.8898   25.2170 C   0  0  0  0  0  0  0  0  0  0  0  0
  -21.1133   -5.9831   23.8247 C   0  0  0  0  0  0  0  0  0  0  0  0
  -24.5953  -11.6401   20.7038 C   0  0  0  0  0  0  0  0  0  0  0  0
  -25.2584  -13.7244   20.4785 C   0  0  0  0  0  0  0  0  0  0  0  0
  -22.8975  -13.4886   21.2652 C   0  0  0  0  0  0  0  0  0  0  0  0
  -26.9237  -15.5664   29.4849 C   0  0  0  0  0  0  0  0  0  0  0  0
  -25.1624  -17.4066   31.4932 C   0  0  0  0  0  0  0  0  0  0  0  0
  -24.5355  -20.5018   32.7868 C   0  0  0  0  0  0  0  0  0  0  0  0
  -30.7419  -14.7469   20.6569 C   0  0  0  0  0  0  0  0  0  0  0  0
  -25.7909  -10.5895   29.4128 C   0  0  0  0  0  0  0  0  0  0  0  0
  -28.7249  -16.7552   30.7881 C   0  0  0  0  0  0  0  0  0  0  0  0
  -26.6359  -18.6246   29.8468 C   0  0  0  0  0  0  0  0  0  0  0  0
  -25.0085  -11.8845   29.6159 C   0  0  0  0  0  0  0  0  0  0  0  0
  -29.6011  -12.3634   18.2706 C   0  0  0  0  0  0  0  0  0  0  0  0
  -25.3466  -12.8899   28.5197 C   0  0  0  0  0  0  0  0  0  0  0  0
  -28.1647  -12.0684   18.7061 C   0  0  0  0  0  0  0  0  0  0  0  0
  -30.5011  -18.0554   20.9628 C   0  0  0  0  0  0  0  0  0  0  0  0
  -30.5205  -12.5839   19.4698 C   0  0  0  0  0  0  0  0  0  0  0  0
  -28.6210  -13.3127   20.8607 C   0  0  0  0  0  0  0  0  0  0  0  0
  -30.9617  -19.2691   21.7497 C   0  0  0  0  0  0  0  0  0  0  0  0
  -26.8340  -13.2616   28.5517 C   0  0  1  0  0  0  0  0  0  0  0  0
  -27.2554  -16.3506   30.7229 C   0  0  1  0  0  0  0  0  0  0  0  0
  -27.6446  -13.1384   19.6848 C   0  0  2  0  0  0  0  0  0  0  0  0
  -30.8088  -16.8965   21.8953 C   0  0  1  0  0  0  0  0  0  0  0  0
  -30.3392  -17.4244   23.2476 C   0  0  1  0  0  0  0  0  0  0  0  0
  -23.0097  -21.6993   34.3790 C   0  0  0  0  0  0  0  0  0  0  0  0
  -30.5908  -23.2904   25.5537 C   0  0  0  0  0  0  0  0  0  0  0  0
  -22.9264  -17.3102   29.4193 C   0  0  0  0  0  0  0  0  0  0  0  0
  -21.8502  -19.2428   30.5919 C   0  0  0  0  0  0  0  0  0  0  0  0
  -22.1621  -17.0766   31.7891 C   0  0  0  0  0  0  0  0  0  0  0  0
  -26.7925  -21.3166   34.5191 C   0  0  0  0  0  0  0  0  0  0  0  0
  -30.9794  -16.7290   24.4370 C   0  0  0  0  0  0  0  0  0  0  0  0
  -30.5475  -21.0879   24.3563 C   0  0  0  0  0  0  0  0  0  0  0  0
  -29.8305  -19.8070   23.9423 C   0  0  0  0  0  0  0  0  0  0  0  0
  -30.3478  -15.3721   24.7050 C   0  0  0  0  0  0  0  0  0  0  0  0
  -29.0695  -21.4835   26.4239 C   0  0  0  0  0  0  0  0  0  1  0  0
  -24.1738  -18.5343   31.3197 C   0  0  1  0  0  0  0  0  0  0  0  0
  -24.3369  -20.9752   34.2154 C   0  0  2  0  0  0  0  0  0  0  0  0
  -29.7079  -22.0959   25.1704 C   0  0  1  0  0  0  0  0  0  0  0  0
  -22.8048  -18.0429   30.7703 C   0  0  0  0  0  0  0  0  0  0  0  0
  -25.8594  -11.5454   20.2830 N   0  0  0  0  0  0  0  0  0  0  0  0
  -26.2352  -12.8293   20.1549 N   0  0  0  0  0  0  0  0  0  0  0  0
  -26.3504  -17.5013   30.7547 N   0  0  0  0  0  0  0  0  0  0  0  0
  -29.9710  -13.6114   20.3576 N   0  0  0  0  0  0  0  0  0  0  0  0
  -25.4678  -15.0561   20.4061 N   0  0  0  0  0  0  0  0  0  0  0  0
  -21.8868  -12.5785   21.6037 N   0  0  0  0  0  0  0  0  0  0  0  0
  -27.0971  -14.2021   29.6197 N   0  0  0  0  0  0  0  0  0  0  0  0
  -24.0924  -19.2080   32.6112 N   0  0  0  0  0  0  0  0  0  0  0  0
  -30.1438  -15.6747   21.5008 N   0  0  0  0  0  0  0  0  0  0  0  0
  -30.7511  -18.9013   23.2171 N   0  3  2  0  0  0  0  0  0  0  0  0
  -25.4319  -21.9061   34.6096 N   0  3  0  0  0  0  0  0  0  0  0  0
  -22.6606  -14.7190   21.3239 O   0  0  0  0  0  0  0  0  0  0  0  0
  -26.5376  -16.1553   28.4820 O   0  0  0  0  0  0  0  0  0  0  0  0
  -24.8936  -16.4796   32.2614 O   0  0  0  0  0  0  0  0  0  0  0  0
  -25.0305  -21.2104   31.9130 O   0  0  0  0  0  0  0  0  0  0  0  0
  -31.8768  -14.9234   20.2012 O   0  0  0  0  0  0  0  0  0  0  0  0
  -30.9814  -14.7864   25.8339 O   0  0  0  0  0  0  0  0  0  0  0  0
  -21.6174   -7.0151   21.7082 O   0  0  0  0  0  0  0  0  0  0  0  0
  -30.0714  -21.0434   27.3399 O   0  0  0  0  0  0  0  0  0  1  0  0
  -18.6356   -6.8512   26.3435 F   0  0  0  0  0  0  0  0  0  0  0  0
  -22.0728   -5.0704   23.6195 F   0  0  0  0  0  0  0  0  0  0  0  0
  1  2  1  0  0  0  0
  1  5  2  0  0  0  0
  2  6  2  0  0  0  0
  3  8  2  0  0  0  0
  3 15  1  0  0  0  0
  4  9  1  0  0  0  0
  4 15  2  0  0  0  0
  5 17  1  0  0  0  0
  6 19  1  0  0  0  0
  7 10  2  0  0  0  0
  7 18  1  0  0  0  0
  8 21  1  0  0  0  0
  9 21  2  0  0  0  0
 10 22  1  0  0  0  0
 11 12  2  0  0  0  0
 11 23  1  0  0  0  0
 12 24  1  0  0  0  0
 13 20  1  0  0  0  0
 13 22  2  0  0  0  0
 14 24  2  0  0  0  0
 14 25  1  0  0  0  0
 15 26  1  0  0  0  0
 16 26  1  0  0  0  0
 16 27  2  0  0  0  0
 16 28  1  0  0  0  0
 17 19  2  0  0  0  0
 17 33  1  0  0  0  0
 18 20  2  0  0  0  0
 18 34  1  0  0  0  0
 19 44  1  0  0  0  0
 20 35  1  0  0  0  0
 21 81  1  0  0  0  0
 22 82  1  0  0  0  0
 23 25  2  0  0  0  0
 23 81  1  0  0  0  0
 24 83  1  0  0  0  0
 25 84  1  0  0  0  0
 26 64  2  0  0  0  0
 27 65  1  0  0  0  0
 27 68  1  0  0  0  0
 28 69  1  0  0  0  0
 28 75  2  0  0  0  0
 29 45  1  0  0  0  0
 29 70  1  0  0  0  0
 29 76  2  0  0  0  0
 30 60  1  0  0  0  0
 30 66  1  0  0  0  0
 30 77  2  0  0  0  0
 31 61  1  0  0  0  0
 31 71  1  0  0  0  0
 31 78  2  0  0  0  0
 32 67  1  0  0  0  0
 32 72  1  0  0  0  0
 32 79  2  0  0  0  0
 33 36  1  0  0  0  0
 34 45  1  0  0  0  0
 35 66  1  0  0  0  0
 36 38  1  0  0  0  0
 37 39  1  0  0  0  0
 37 41  1  0  0  0  0
 38 44  1  0  0  0  0
 39 46  1  0  0  0  0
 40 43  1  0  0  0  0
 40 47  1  0  0  0  0
 41 67  1  0  0  0  0
 42 46  1  0  0  0  0
 42 67  1  0  0  0  0
 43 73  1  0  0  0  0
 44 70  1  0  0  0  0
 45 66  1  0  0  0  0
 46 65  1  0  0  0  0
 47 48  1  0  0  0  0
 47 72  1  0  0  0  0
 48 55  1  0  0  0  0
 48 73  1  0  0  0  0
 49 61  1  0  0  0  0
 50 62  1  0  0  0  0
 51 63  1  0  0  0  0
 52 63  1  0  0  0  0
 53 63  1  0  0  0  0
 54 74  1  0  0  0  0
 55 58  1  0  0  0  0
 56 57  1  0  0  0  0
 56 62  1  0  0  0  0
 57 73  1  0  0  0  0
 58 80  1  0  0  0  0
 59 62  1  0  0  0  0
 59 82  1  0  0  0  0
 60 63  1  0  0  0  0
 60 71  1  0  0  0  0
 61 74  1  0  0  0  0
 64 65  1  0  0  0  0
M  CHG  2  73   1  74   1
M  ISO  4  32 100  59 101  72 100  82 101
M  END
> <Batch ID>
0119

> <Smiles>
CNC(C)C(=O)NC(C(=O)N1Cc2cc([101O:1][101CH2:1]C(C)CCN3CCC([100NH:0][100C:0](=O)N4CCCC(n5nc(-c6ccc(Oc7ccc(F)cc7F)cc6)c(C(N)=O)c5N)C4)C3CCO)ccc2CC1C(=O)NC1CCCc2ccccc21)C(C)(C)C

> <Shape>
0.173

> <Color>
0.180

> <Negative vol penalty>
0.000

$$$$

  -OEChem-04052320203D

 92100  0     1  0  0  0  0  0999 V2000
  -27.6673  -28.7550   19.3060 C   0  0  0  0  0  0  0  0  0  0  0  0
  -27.4387  -27.7644   20.2557 C   0  0  0  0  0  0  0  0  0  0  0  0
  -23.6173  -12.0493   19.3070 C   0  0  0  0  0  0  0  0  0  0  0  0
  -24.9836  -11.5815   21.2439 C   0  0  0  0  0  0  0  0  0  0  0  0
  -26.8015  -29.8440   19.2140 C   0  0  0  0  0  0  0  0  0  0  0  0
  -26.3446  -27.8628   21.1147 C   0  0  0  0  0  0  0  0  0  0  0  0
  -23.8440  -23.4843   21.5848 C   0  0  0  0  0  0  0  0  0  0  0  0
  -30.5289  -15.9725   25.6702 C   0  0  0  0  0  0  0  0  0  0  0  0
  -23.5369  -10.6839   19.0338 C   0  0  0  0  0  0  0  0  0  0  0  0
  -24.9032  -10.2160   20.9707 C   0  0  0  0  0  0  0  0  0  0  0  0
  -24.4034  -22.5181   22.4197 C   0  0  0  0  0  0  0  0  0  0  0  0
  -22.6633   -7.7209   21.3921 C   0  0  0  0  0  0  0  0  0  0  0  0
  -22.4004   -6.8624   22.4596 C   0  0  0  0  0  0  0  0  0  0  0  0
  -30.2791  -17.0663   26.4914 C   0  0  0  0  0  0  0  0  0  0  0  0
  -22.8725  -23.1544   24.1720 C   0  0  0  0  0  0  0  0  0  0  0  0
  -24.4938   -5.7244   22.0600 C   0  0  0  0  0  0  0  0  0  0  0  0
  -24.3407  -12.4982   20.4120 C   0  0  0  0  0  0  0  0  0  0  0  0
  -23.5507  -14.6688   21.4946 C   0  0  0  0  0  0  0  0  0  0  0  0
  -25.6909  -29.9509   20.0659 C   0  0  0  0  0  0  0  0  0  0  0  0
  -22.8001  -24.3017   22.0417 C   0  0  0  0  0  0  0  0  0  0  0  0
  -25.4639  -28.9549   21.0348 C   0  0  0  0  0  0  0  0  0  0  0  0
  -22.2998  -24.1286   23.3401 C   0  0  0  0  0  0  0  0  0  0  0  0
  -30.7666  -16.1681   24.3142 C   0  0  0  0  0  0  0  0  0  0  0  0
  -24.1799   -9.7672   19.8657 C   0  0  0  0  0  0  0  0  0  0  0  0
  -23.9197  -22.3549   23.7145 C   0  0  0  0  0  0  0  0  0  0  0  0
  -23.8415   -7.5811   20.6586 C   0  0  0  0  0  0  0  0  0  0  0  0
  -23.3156   -5.8642   22.7935 C   0  0  0  0  0  0  0  0  0  0  0  0
  -24.7567   -6.5829   20.9925 C   0  0  0  0  0  0  0  0  0  0  0  0
  -24.4245  -13.9086   20.6943 C   0  0  0  0  0  0  0  0  0  0  0  0
  -30.2779  -18.3251   25.9124 C   0  0  0  0  0  0  0  0  0  0  0  0
  -30.7433  -17.4671   23.8326 C   0  0  0  0  0  0  0  0  0  0  0  0
  -24.0601  -15.9433   21.4441 C   0  0  0  0  0  0  0  0  0  0  0  0
  -22.3830  -14.2594   22.2189 C   0  0  0  0  0  0  0  0  0  0  0  0
  -22.4282  -27.4272   22.4851 C   0  0  0  0  0  0  0  0  0  0  0  0
  -19.3671  -26.5754   23.1383 C   0  0  0  0  0  0  0  0  0  0  0  0
  -17.1874  -24.1532   24.1524 C   0  0  0  0  0  0  0  0  0  0  0  0
  -29.5467  -18.1032   20.4033 C   0  0  0  0  0  0  0  0  0  0  0  0
  -24.8097  -31.1703   19.9603 C   0  0  0  0  0  0  0  0  0  0  0  0
  -22.1895  -25.3213   21.1197 C   0  0  0  0  0  0  0  0  0  0  0  0
  -21.1671  -24.9669   23.8718 C   0  0  0  0  0  0  0  0  0  0  0  0
  -23.4615  -31.0099   20.6581 C   0  0  0  0  0  0  0  0  0  0  0  0
  -26.5699  -18.8629   18.6038 C   0  0  0  0  0  0  0  0  0  0  0  0
  -23.6480  -30.4111   22.0486 C   0  0  0  0  0  0  0  0  0  0  0  0
  -25.6037  -17.7479   19.0077 C   0  0  0  0  0  0  0  0  0  0  0  0
  -28.0034  -18.3507   18.4815 C   0  0  0  0  0  0  0  0  0  0  0  0
  -27.5453  -16.5275   20.0752 C   0  0  0  0  0  0  0  0  0  0  0  0
  -24.2740  -29.0135   21.9679 C   0  0  1  0  0  0  0  0  0  0  0  0
  -21.4753  -26.4465   21.8622 C   0  0  1  0  0  0  0  0  0  0  0  0
  -26.0963  -17.0075   20.2656 C   0  0  2  0  0  0  0  0  0  0  0  0
  -14.7535  -23.7660   24.6254 C   0  0  0  0  0  0  0  0  0  0  0  0
  -30.0215  -12.2146   22.5014 C   0  0  0  0  0  0  0  0  0  0  0  0
  -29.0481  -11.0763   17.6627 C   0  0  0  0  0  0  0  0  0  0  0  0
  -29.4910  -13.5358   17.3040 C   0  0  0  0  0  0  0  0  0  0  0  0
  -19.6421  -28.0844   25.7759 C   0  0  0  0  0  0  0  0  0  0  0  0
  -17.5977  -26.8913   26.5914 C   0  0  0  0  0  0  0  0  0  0  0  0
  -17.4507  -28.4051   24.6141 C   0  0  0  0  0  0  0  0  0  0  0  0
  -16.9929  -22.0698   22.0595 C   0  0  0  0  0  0  0  0  0  0  0  0
  -31.0335  -15.0000   23.4293 C   0  0  0  0  0  0  0  0  0  0  0  0
  -30.0123  -19.5342   26.7736 C   0  0  0  0  0  0  0  0  0  0  0  0
  -30.9947  -17.7376   22.3854 C   0  0  0  0  0  0  0  0  0  0  0  0
  -28.5299  -19.9127   26.8699 C   0  0  0  0  0  0  0  0  0  0  0  0
  -27.9256  -20.3164   25.5214 C   0  0  0  0  0  0  0  0  0  0  0  0
  -26.4423  -20.6552   25.6590 C   0  0  0  0  0  0  0  0  0  0  0  0
  -29.3620  -13.5854   20.4515 C   0  0  0  0  0  0  0  0  0  0  0  0
  -25.8419  -21.0983   24.3324 C   0  0  0  0  0  0  0  0  0  1  0  0
  -18.6119  -26.1713   24.3814 C   0  0  1  0  0  0  0  0  0  0  0  0
  -15.8581  -23.6917   23.5828 C   0  0  2  0  0  0  0  0  0  0  0  0
  -30.1872  -13.5241   21.7364 C   0  0  1  0  0  0  0  0  0  0  0  0
  -28.9550  -12.4748   18.2516 C   0  0  0  0  0  0  0  0  0  0  0  0
  -18.3483  -27.3734   25.3316 C   0  0  0  0  0  0  0  0  0  0  0  0
  -25.4139  -14.6393   20.1735 N   0  0  0  0  0  0  0  0  0  0  0  0
  -30.5043  -18.5545   24.5995 N   0  0  0  0  0  0  0  0  0  0  0  0
  -25.1648  -15.8719   20.6475 N   0  0  0  0  0  0  0  0  0  0  0  0
  -20.6076  -25.9546   22.9343 N   0  0  0  0  0  0  0  0  0  0  0  0
  -28.4096  -17.6601   19.7079 N   0  0  0  0  0  0  0  0  0  0  0  0
  -23.6663  -17.1070   22.0039 N   0  0  0  0  0  0  0  0  0  0  0  0
  -22.0000  -12.9124   22.1627 N   0  0  0  0  0  0  0  0  0  0  0  0
  -23.2792  -28.0357   21.5823 N   0  0  0  0  0  0  0  0  0  0  0  0
  -17.4029  -25.4957   23.9230 N   0  0  0  0  0  0  0  0  0  0  0  0
  -29.8582  -17.3972   21.5589 N   0  0  0  0  0  0  0  0  0  0  0  0
  -29.9002  -14.6658   22.6034 N   0  0  0  0  0  0  0  0  0  0  0  0
  -15.9600  -22.2835   23.1056 N   0  3  0  0  0  0  0  0  0  0  0  0
  -29.7565  -12.5132   19.5052 N   0  3  0  0  0  0  0  0  0  0  0  0
  -21.6901  -15.0675   22.8825 O   0  0  0  0  0  0  0  0  0  0  0  0
  -22.3928  -27.6189   23.6949 O   0  0  0  0  0  0  0  0  0  0  0  0
  -18.8713  -27.4058   22.3726 O   0  0  0  0  0  0  0  0  0  0  0  0
  -17.9558  -23.3992   24.7452 O   0  0  0  0  0  0  0  0  0  0  0  0
  -30.2304  -19.0607   20.0255 O   0  0  0  0  0  0  0  0  0  0  0  0
  -24.1015   -8.4347   19.5996 O   0  0  0  0  0  0  0  0  0  0  0  0
  -24.4644  -21.4129   24.5317 O   0  0  0  0  0  0  0  0  0  1  0  0
  -23.0637   -5.0408   23.8196 F   0  0  0  0  0  0  0  0  0  0  0  0
  -25.8909   -6.4445   20.2922 F   0  0  0  0  0  0  0  0  0  0  0  0
  1  2  1  0  0  0  0
  1  5  2  0  0  0  0
  2  6  2  0  0  0  0
  3  9  2  0  0  0  0
  3 17  1  0  0  0  0
  4 10  1  0  0  0  0
  4 17  2  0  0  0  0
  5 19  1  0  0  0  0
  6 21  1  0  0  0  0
  7 11  2  0  0  0  0
  7 20  1  0  0  0  0
  8 14  2  0  0  0  0
  8 23  1  0  0  0  0
  9 24  1  0  0  0  0
 10 24  2  0  0  0  0
 11 25  1  0  0  0  0
 12 13  2  0  0  0  0
 12 26  1  0  0  0  0
 13 27  1  0  0  0  0
 14 30  1  0  0  0  0
 15 22  1  0  0  0  0
 15 25  2  0  0  0  0
 16 27  2  0  0  0  0
 16 28  1  0  0  0  0
 17 29  1  0  0  0  0
 18 29  1  0  0  0  0
 18 32  2  0  0  0  0
 18 33  1  0  0  0  0
 19 21  2  0  0  0  0
 19 38  1  0  0  0  0
 20 22  2  0  0  0  0
 20 39  1  0  0  0  0
 21 47  1  0  0  0  0
 22 40  1  0  0  0  0
 23 31  2  0  0  0  0
 23 58  1  0  0  0  0
 24 89  1  0  0  0  0
 25 90  1  0  0  0  0
 26 28  2  0  0  0  0
 26 89  1  0  0  0  0
 27 91  1  0  0  0  0
 28 92  1  0  0  0  0
 29 71  2  0  0  0  0
 30 59  1  0  0  0  0
 30 72  2  0  0  0  0
 31 60  1  0  0  0  0
 31 72  1  0  0  0  0
 32 73  1  0  0  0  0
 32 76  1  0  0  0  0
 33 77  1  0  0  0  0
 33 84  2  0  0  0  0
 34 48  1  0  0  0  0
 34 78  1  0  0  0  0
 34 85  2  0  0  0  0
 35 66  1  0  0  0  0
 35 74  1  0  0  0  0
 35 86  2  0  0  0  0
 36 67  1  0  0  0  0
 36 79  1  0  0  0  0
 36 87  2  0  0  0  0
 37 75  1  0  0  0  0
 37 80  1  0  0  0  0
 37 88  2  0  0  0  0
 38 41  1  0  0  0  0
 39 48  1  0  0  0  0
 40 74  1  0  0  0  0
 41 43  1  0  0  0  0
 42 44  1  0  0  0  0
 42 45  1  0  0  0  0
 43 47  1  0  0  0  0
 44 49  1  0  0  0  0
 45 75  1  0  0  0  0
 46 49  1  0  0  0  0
 46 75  1  0  0  0  0
 47 78  1  0  0  0  0
 48 74  1  0  0  0  0
 49 73  1  0  0  0  0
 50 67  1  0  0  0  0
 51 68  1  0  0  0  0
 52 69  1  0  0  0  0
 53 69  1  0  0  0  0
 54 70  1  0  0  0  0
 55 70  1  0  0  0  0
 56 70  1  0  0  0  0
 57 82  1  0  0  0  0
 58 81  1  0  0  0  0
 59 61  1  0  0  0  0
 60 80  1  0  0  0  0
 61 62  1  0  0  0  0
 62 63  1  0  0  0  0
 63 65  1  0  0  0  0
 64 68  1  0  0  0  0
 64 83  1  0  0  0  0
 65 90  1  0  0  0  0
 66 70  1  0  0  0  0
 66 79  1  0  0  0  0
 67 82  1  0  0  0  0
 68 81  1  0  0  0  0
 69 83  1  0  0  0  0
 71 73  1  0  0  0  0
M  CHG  2  82   1  83   1
M  ISO  4  37 100  65 101  80 100  90 101
M  END
> <Batch ID>
0119

> <Smiles>
CNC(C)C(=O)NC(C(=O)N1Cc2cc([101O:1][101CH2:1]CCCCc3ccc(CNC(C)CNC(C)C)c(C[100NH:0][100C:0](=O)N4CCCC(n5nc(-c6ccc(Oc7ccc(F)cc7F)cc6)c(C(N)=O)c5N)C4)n3)ccc2CC1C(=O)NC1CCCc2ccccc21)C(C)(C)C

> <Shape>
0.233

> <Color>
0.061

> <Negative vol penalty>
0.000

$$$$

  -OEChem-04052320203D

 90 99  0     1  0  0  0  0  0999 V2000
  -27.8208  -32.3848   27.5270 C   0  0  0  0  0  0  0  0  0  0  0  0
  -27.9869  -31.3588   26.6022 C   0  0  0  0  0  0  0  0  0  0  0  0
  -25.6065  -12.8095   22.1210 C   0  0  0  0  0  0  0  0  0  0  0  0
  -26.4554  -13.1036   19.8782 C   0  0  0  0  0  0  0  0  0  0  0  0
  -26.5399  -32.8329   27.8469 C   0  0  0  0  0  0  0  0  0  0  0  0
  -26.8718  -30.7795   25.9977 C   0  0  0  0  0  0  0  0  0  0  0  0
  -27.4726  -30.1537   21.0084 C   0  0  0  0  0  0  0  0  0  0  0  0
  -30.5233  -24.6289   20.0653 C   0  0  0  0  0  0  0  0  0  0  0  0
  -31.1437  -23.4770   19.5819 C   0  0  0  0  0  0  0  0  0  0  0  0
  -24.5551  -12.0406   21.6222 C   0  0  0  0  0  0  0  0  0  0  0  0
  -25.4040  -12.3346   19.3794 C   0  0  0  0  0  0  0  0  0  0  0  0
  -28.2506  -29.0746   20.5912 C   0  0  0  0  0  0  0  0  0  0  0  0
  -24.0799   -8.8712   20.5441 C   0  0  0  0  0  0  0  0  0  0  0  0
  -23.7707   -7.6857   21.2108 C   0  0  0  0  0  0  0  0  0  0  0  0
  -26.2455  -27.8137   20.1339 C   0  0  0  0  0  0  0  0  0  0  0  0
  -31.0448  -25.7750   18.0034 C   0  0  0  0  0  0  0  0  0  0  0  0
  -21.5415   -8.5104   21.6437 C   0  0  0  0  0  0  0  0  0  0  0  0
  -26.5567  -13.3411   21.2490 C   0  0  0  0  0  0  0  0  0  0  0  0
  -28.9068  -13.6790   22.1819 C   0  0  0  0  0  0  0  0  0  0  0  0
  -25.4091  -32.2653   27.2388 C   0  0  0  0  0  0  0  0  0  0  0  0
  -26.0731  -30.0669   21.0018 C   0  0  0  0  0  0  0  0  0  0  0  0
  -25.5745  -31.2194   26.3108 C   0  0  0  0  0  0  0  0  0  0  0  0
  -25.4521  -28.8940   20.5491 C   0  0  0  0  0  0  0  0  0  0  0  0
  -30.4738  -25.7780   19.2760 C   0  0  0  0  0  0  0  0  0  0  0  0
  -31.7147  -23.4740   18.3093 C   0  0  0  0  0  0  0  0  0  0  0  0
  -31.6653  -24.6231   17.5200 C   0  0  0  0  0  0  0  0  0  0  0  0
  -24.4538  -11.8031   20.2514 C   0  0  0  0  0  0  0  0  0  0  0  0
  -27.6371  -27.9033   20.1566 C   0  0  0  0  0  0  0  0  0  0  0  0
  -23.1199   -9.8764   20.4273 C   0  0  0  0  0  0  0  0  0  0  0  0
  -22.5015   -7.5053   21.7606 C   0  0  0  0  0  0  0  0  0  0  0  0
  -21.8507   -9.6960   20.9770 C   0  0  0  0  0  0  0  0  0  0  0  0
  -27.6427  -14.1360   21.7636 C   0  0  0  0  0  0  0  0  0  0  0  0
  -29.5681  -14.8150   22.5802 C   0  0  0  0  0  0  0  0  0  0  0  0
  -29.4360  -12.3467   22.2080 C   0  0  0  0  0  0  0  0  0  0  0  0
  -23.8055  -30.2215   23.2240 C   0  0  0  0  0  0  0  0  0  0  0  0
  -21.8260  -30.1059   20.6568 C   0  0  0  0  0  0  0  0  0  0  0  0
  -21.3552  -29.2023   17.3997 C   0  0  0  0  0  0  0  0  0  0  0  0
  -28.4415  -20.6223   20.9677 C   0  0  0  0  0  0  0  0  0  0  0  0
  -24.0422  -32.7506   27.6518 C   0  0  0  0  0  0  0  0  0  0  0  0
  -25.2478  -31.2493   21.4298 C   0  0  0  0  0  0  0  0  0  0  0  0
  -23.9528  -28.7574   20.5036 C   0  0  0  0  0  0  0  0  0  0  0  0
  -22.9326  -32.3390   26.6876 C   0  0  0  0  0  0  0  0  0  0  0  0
  -28.8015  -19.1796   24.3632 C   0  0  0  0  0  0  0  0  0  0  0  0
  -23.0608  -30.8629   26.3250 C   0  0  0  0  0  0  0  0  0  0  0  0
  -28.5732  -17.6898   24.1147 C   0  0  0  0  0  0  0  0  0  0  0  0
  -29.3184  -21.6729   17.7796 C   0  0  0  0  0  0  0  0  0  0  0  0
  -30.9714  -19.9519   18.6092 C   0  0  0  0  0  0  0  0  0  0  0  0
  -28.0729  -20.0432   23.3384 C   0  0  0  0  0  0  0  0  0  0  0  0
  -28.2148  -20.9215   18.5193 C   0  0  0  0  0  0  0  0  0  0  0  0
  -29.8356  -19.2473   19.3569 C   0  0  0  0  0  0  0  0  0  0  0  0
  -28.1726  -18.2132   21.6760 C   0  0  0  0  0  0  0  0  0  0  0  0
  -24.3909  -30.5826   25.6152 C   0  0  1  0  0  0  0  0  0  0  0  0
  -23.8373  -30.8666   21.8674 C   0  0  1  0  0  0  0  0  0  0  0  0
  -28.9301  -17.3155   22.6659 C   0  0  2  0  0  0  0  0  0  0  0  0
  -30.4423  -20.7128   17.3953 C   0  0  0  0  0  0  0  0  0  0  0  0
  -32.2701  -24.6435   16.1545 C   0  0  0  0  0  0  0  0  0  0  0  0
  -19.6203  -29.2018   15.5867 C   0  0  0  0  0  0  0  0  0  0  0  0
  -20.4288  -27.7481   21.9979 C   0  0  0  0  0  0  0  0  0  0  0  0
  -19.3787  -27.2050   19.7909 C   0  0  0  0  0  0  0  0  0  0  0  0
  -18.8900  -29.3854   20.8997 C   0  0  0  0  0  0  0  0  0  0  0  0
  -23.0114  -30.9256   15.6544 C   0  0  0  0  0  0  0  0  0  0  0  0
  -32.3776  -22.2235   17.8114 C   0  0  0  0  0  0  0  0  0  0  0  0
  -29.8108  -27.0096   19.7932 C   0  0  0  0  0  0  0  0  0  1  0  0
  -31.8138  -20.5258   14.4969 C   0  0  0  0  0  0  0  0  0  0  0  0
  -32.6023  -19.6936   13.4912 C   0  0  0  0  0  0  0  0  0  0  0  0
  -32.4246  -20.6409   15.8895 C   0  0  0  0  0  0  0  0  0  0  0  0
  -21.1651  -29.0034   19.8653 C   0  0  1  0  0  0  0  0  0  0  0  0
  -20.7779  -29.9598   16.2176 C   0  0  2  0  0  0  0  0  0  0  0  0
  -19.9939  -28.3370   20.6410 C   0  0  0  0  0  0  0  0  0  0  0  0
  -27.5066  -15.4591   21.8850 N   0  0  0  0  0  0  0  0  0  0  0  0
  -28.6938  -15.8433   22.3842 N   0  0  0  0  0  0  0  0  0  0  0  0
  -23.1894  -29.9388   20.9381 N   0  0  0  0  0  0  0  0  0  0  0  0
  -28.3910  -19.6381   21.9690 N   0  0  0  0  0  0  0  0  0  0  0  0
  -28.7523  -20.1914   19.6691 N   0  0  0  0  0  0  0  0  0  0  0  0
  -30.8062  -15.0247   23.0756 N   0  0  0  0  0  0  0  0  0  0  0  0
  -28.6225  -11.2958   21.7631 N   0  0  0  0  0  0  0  0  0  0  0  0
  -24.3260  -31.0085   24.2336 N   0  0  0  0  0  0  0  0  0  0  0  0
  -20.7770  -29.5936   18.5888 N   0  0  0  0  0  0  0  0  0  0  0  0
  -32.8021  -18.3152   13.9955 N   0  3  0  0  0  0  0  0  0  0  0  0
  -21.8237  -30.1715   15.1773 N   0  3  0  0  0  0  0  0  0  0  0  0
  -31.5541  -21.4867   16.7848 N   0  3  1  0  0  0  0  0  0  0  0  0
  -30.5902  -12.0937   22.6293 O   0  0  0  0  0  0  0  0  0  0  0  0
  -23.3417  -29.0938   23.3461 O   0  0  0  0  0  0  0  0  0  0  0  0
  -21.1590  -31.0829   21.0064 O   0  0  0  0  0  0  0  0  0  0  0  0
  -22.2289  -28.3463   17.2799 O   0  0  0  0  0  0  0  0  0  0  0  0
  -28.2239  -21.8139   21.2207 O   0  0  0  0  0  0  0  0  0  0  0  0
  -23.4281  -11.0526   19.7644 O   0  0  0  0  0  0  0  0  0  0  0  0
  -28.3993  -26.8411   19.7466 O   0  0  0  0  0  0  0  0  0  1  0  0
  -22.2043   -6.3661   22.3994 F   0  0  0  0  0  0  0  0  0  0  0  0
  -20.9239  -10.6577   20.8669 F   0  0  0  0  0  0  0  0  0  0  0  0
  1  2  1  0  0  0  0
  1  5  2  0  0  0  0
  2  6  2  0  0  0  0
  3 10  2  0  0  0  0
  3 18  1  0  0  0  0
  4 11  1  0  0  0  0
  4 18  2  0  0  0  0
  5 20  1  0  0  0  0
  6 22  1  0  0  0  0
  7 12  2  0  0  0  0
  7 21  1  0  0  0  0
  8  9  2  0  0  0  0
  8 24  1  0  0  0  0
  9 25  1  0  0  0  0
 10 27  1  0  0  0  0
 11 27  2  0  0  0  0
 12 28  1  0  0  0  0
 13 14  2  0  0  0  0
 13 29  1  0  0  0  0
 14 30  1  0  0  0  0
 15 23  1  0  0  0  0
 15 28  2  0  0  0  0
 16 24  2  0  0  0  0
 16 26  1  0  0  0  0
 17 30  2  0  0  0  0
 17 31  1  0  0  0  0
 18 32  1  0  0  0  0
 19 32  1  0  0  0  0
 19 33  2  0  0  0  0
 19 34  1  0  0  0  0
 20 22  2  0  0  0  0
 20 39  1  0  0  0  0
 21 23  2  0  0  0  0
 21 40  1  0  0  0  0
 22 52  1  0  0  0  0
 23 41  1  0  0  0  0
 24 63  1  0  0  0  0
 25 26  2  0  0  0  0
 25 62  1  0  0  0  0
 26 56  1  0  0  0  0
 27 87  1  0  0  0  0
 28 88  1  0  0  0  0
 29 31  2  0  0  0  0
 29 87  1  0  0  0  0
 30 89  1  0  0  0  0
 31 90  1  0  0  0  0
 32 70  2  0  0  0  0
 33 71  1  0  0  0  0
 33 75  1  0  0  0  0
 34 76  1  0  0  0  0
 34 82  2  0  0  0  0
 35 53  1  0  0  0  0
 35 77  1  0  0  0  0
 35 83  2  0  0  0  0
 36 67  1  0  0  0  0
 36 72  1  0  0  0  0
 36 84  2  0  0  0  0
 37 68  1  0  0  0  0
 37 78  1  0  0  0  0
 37 85  2  0  0  0  0
 38 73  1  0  0  0  0
 38 74  1  0  0  0  0
 38 86  2  0  0  0  0
 39 42  1  0  0  0  0
 40 53  1  0  0  0  0
 41 72  1  0  0  0  0
 42 44  1  0  0  0  0
 43 45  1  0  0  0  0
 43 48  1  0  0  0  0
 44 52  1  0  0  0  0
 45 54  1  0  0  0  0
 46 49  1  0  0  0  0
 46 55  1  0  0  0  0
 47 50  1  0  0  0  0
 47 55  1  0  0  0  0
 48 73  1  0  0  0  0
 49 74  1  0  0  0  0
 50 74  1  0  0  0  0
 51 54  1  0  0  0  0
 51 73  1  0  0  0  0
 52 77  1  0  0  0  0
 53 72  1  0  0  0  0
 54 71  1  0  0  0  0
 55 81  1  0  0  0  0
 57 68  1  0  0  0  0
 58 69  1  0  0  0  0
 59 69  1  0  0  0  0
 60 69  1  0  0  0  0
 61 80  1  0  0  0  0
 62 81  1  0  0  0  0
 63 88  1  0  0  0  0
 64 65  1  0  0  0  0
 64 66  1  0  0  0  0
 65 79  1  0  0  0  0
 66 81  1  0  0  0  0
 67 69  1  0  0  0  0
 67 78  1  0  0  0  0
 68 80  1  0  0  0  0
 70 71  1  0  0  0  0
M  CHG  3  79   1  80   1  81   1
M  ISO  4  38 100  63 101  74 100  88 101
M  END
> <Batch ID>
0119

> <Smiles>
CNC(C)C(=O)NC(C(=O)N1Cc2cc([101O:1][101CH2:1]c3ccc(CN(CCCN)C4CC[100N:0]([100C:0](=O)N5CCCC(n6nc(-c7ccc(Oc8ccc(F)cc8F)cc7)c(C(N)=O)c6N)C5)CC4)c(C)c3)ccc2CC1C(=O)NC1CCCc2ccccc21)C(C)(C)C

> <Shape>
0.299

> <Color>
0.087

> <Negative vol penalty>
0.000

$$$$

  -OEChem-04052320203D

 90 99  0     1  0  0  0  0  0999 V2000
  -26.4738  -22.8217   16.1176 C   0  0  0  0  0  0  0  0  0  0  0  0
  -26.3433  -22.8826   17.5013 C   0  0  0  0  0  0  0  0  0  0  0  0
  -25.3651  -12.8031   21.8494 C   0  0  0  0  0  0  0  0  0  0  0  0
  -25.3477  -13.3639   19.4995 C   0  0  0  0  0  0  0  0  0  0  0  0
  -26.4708  -23.9959   15.3659 C   0  0  0  0  0  0  0  0  0  0  0  0
  -26.2108  -24.1180   18.1343 C   0  0  0  0  0  0  0  0  0  0  0  0
  -22.5778  -24.1135   21.6622 C   0  0  0  0  0  0  0  0  0  0  0  0
  -24.4065  -11.8159   21.6209 C   0  0  0  0  0  0  0  0  0  0  0  0
  -24.3892  -12.3766   19.2709 C   0  0  0  0  0  0  0  0  0  0  0  0
  -22.8825  -23.5256   22.8892 C   0  0  0  0  0  0  0  0  0  0  0  0
  -24.3203   -8.6608   20.4080 C   0  0  0  0  0  0  0  0  0  0  0  0
  -24.5166   -7.4160   21.0057 C   0  0  0  0  0  0  0  0  0  0  0  0
  -23.2803  -25.7107   23.8305 C   0  0  0  0  0  0  0  0  0  0  0  0
  -28.4174  -27.2601   22.0042 C   0  0  0  0  0  0  0  0  0  0  0  0
  -22.4267   -7.6570   22.1939 C   0  0  0  0  0  0  0  0  0  0  0  0
  -25.8356  -13.5771   20.7887 C   0  0  0  0  0  0  0  0  0  0  0  0
  -28.2248  -14.4510   20.9787 C   0  0  0  0  0  0  0  0  0  0  0  0
  -26.3285  -25.2458   15.9891 C   0  0  0  0  0  0  0  0  0  0  0  0
  -22.6328  -25.5061   21.5070 C   0  0  0  0  0  0  0  0  0  0  0  0
  -26.2072  -25.3101   17.3904 C   0  0  0  0  0  0  0  0  0  0  0  0
  -22.9734  -26.3140   22.6013 C   0  0  0  0  0  0  0  0  0  0  0  0
  -29.1847  -27.1769   20.8476 C   0  0  0  0  0  0  0  0  0  0  0  0
  -29.5642  -25.9313   20.3598 C   0  0  0  0  0  0  0  0  0  0  0  0
  -23.9186  -11.6026   20.3317 C   0  0  0  0  0  0  0  0  0  0  0  0
  -23.2366  -24.3240   23.9728 C   0  0  0  0  0  0  0  0  0  0  0  0
  -23.1772   -9.4038   20.7032 C   0  0  0  0  0  0  0  0  0  0  0  0
  -23.5698   -6.9140   21.8987 C   0  0  0  0  0  0  0  0  0  0  0  0
  -22.2305   -8.9019   21.5961 C   0  0  0  0  0  0  0  0  0  0  0  0
  -26.8254  -14.5974   21.0242 C   0  0  0  0  0  0  0  0  0  0  0  0
  -28.0585  -26.0776   22.6308 C   0  0  0  0  0  0  0  0  0  0  0  0
  -29.1541  -24.8083   21.0602 C   0  0  0  0  0  0  0  0  0  0  0  0
  -28.7106  -15.7015   21.2727 C   0  0  0  0  0  0  0  0  0  0  0  0
  -29.0148  -13.2884   20.6959 C   0  0  0  0  0  0  0  0  0  0  0  0
  -24.3371  -27.4970   19.7084 C   0  0  0  0  0  0  0  0  0  0  0  0
  -22.3584  -29.7266   20.9875 C   0  0  0  0  0  0  0  0  0  0  0  0
  -20.2874  -30.6380   23.5423 C   0  0  0  0  0  0  0  0  0  0  0  0
  -28.6493  -21.1234   20.5331 C   0  0  0  0  0  0  0  0  0  0  0  0
  -26.3785  -26.4906   15.1391 C   0  0  0  0  0  0  0  0  0  0  0  0
  -22.2753  -26.1264   20.1842 C   0  0  0  0  0  0  0  0  0  0  0  0
  -23.0275  -27.8152   22.4923 C   0  0  0  0  0  0  0  0  0  0  0  0
  -25.8572  -27.7360   15.8517 C   0  0  0  0  0  0  0  0  0  0  0  0
  -26.3546  -19.8262   23.0128 C   0  0  0  0  0  0  0  0  0  0  0  0
  -27.1825  -26.9278   26.2713 C   0  0  0  0  0  0  0  0  0  0  0  0
  -26.4467  -27.8340   17.2552 C   0  0  0  0  0  0  0  0  0  0  0  0
  -27.9605  -26.9419   24.9582 C   0  0  0  0  0  0  0  0  0  0  0  0
  -26.3916  -18.3277   22.7071 C   0  0  0  0  0  0  0  0  0  0  0  0
  -26.4284  -20.6535   21.7329 C   0  0  0  0  0  0  0  0  0  0  0  0
  -27.6468  -18.8570   20.5660 C   0  0  0  0  0  0  0  0  0  0  0  0
  -26.8881  -25.5095   26.7367 C   0  0  0  0  0  0  0  0  0  0  0  0
  -26.9385  -24.7036   24.3609 C   0  0  0  0  0  0  0  0  0  0  0  0
  -26.0364  -26.6297   18.1112 C   0  0  1  0  0  0  0  0  0  0  0  0
  -27.2325  -26.1286   23.8761 C   0  0  2  0  0  0  0  0  0  0  0  0
  -22.8634  -27.5220   20.0004 C   0  0  1  0  0  0  0  0  0  0  0  0
  -27.5982  -17.9663   21.8207 C   0  0  2  0  0  0  0  0  0  0  0  0
  -29.5886  -28.4350   20.1525 C   0  0  0  0  0  0  0  0  0  0  0  0
  -31.8492  -25.5020   19.4212 C   0  0  0  0  0  0  0  0  0  0  0  0
  -18.8436  -32.5348   24.3266 C   0  0  0  0  0  0  0  0  0  0  0  0
  -24.1293  -21.4581   25.6104 C   0  0  0  0  0  0  0  0  0  0  0  0
  -24.8501  -31.2680   21.8391 C   0  0  0  0  0  0  0  0  0  0  0  0
  -23.4100  -32.5981   23.3964 C   0  0  0  0  0  0  0  0  0  0  0  0
  -23.0011  -32.6901   20.9374 C   0  0  0  0  0  0  0  0  0  0  0  0
  -17.8485  -28.9629   23.4733 C   0  0  0  0  0  0  0  0  0  0  0  0
  -30.3851  -25.8112   19.1201 C   0  0  0  0  0  0  0  0  0  0  0  0
  -29.5293  -23.4429   20.5845 C   0  0  0  0  0  0  0  0  0  0  0  0
  -25.7207  -23.3990   26.1048 C   0  0  0  0  0  0  0  0  0  0  0  0
  -22.3854  -30.5995   22.2189 C   0  0  1  0  0  0  0  0  0  0  0  0
  -18.8904  -31.2319   23.5435 C   0  0  2  0  0  0  0  0  0  0  0  0
  -24.6291  -22.8370   25.1998 C   0  0  2  0  0  0  0  0  0  1  0  0
  -23.4126  -31.7605   22.0998 C   0  0  0  0  0  0  0  0  0  0  0  0
  -26.4468  -15.8428   21.3237 N   0  0  0  0  0  0  0  0  0  0  0  0
  -28.4083  -24.8495   22.1870 N   0  0  0  0  0  0  0  0  0  0  0  0
  -27.6154  -16.4903   21.4691 N   0  0  0  0  0  0  0  0  0  0  0  0
  -22.6755  -28.3740   21.1764 N   0  0  0  0  0  0  0  0  0  0  0  0
  -27.6090  -20.2736   20.9442 N   0  0  0  0  0  0  0  0  0  0  0  0
  -29.9636  -16.1925   21.3799 N   0  0  0  0  0  0  0  0  0  0  0  0
  -28.3549  -12.0845   20.4142 N   0  0  0  0  0  0  0  0  0  0  0  0
  -24.6742  -26.7805   18.5759 N   0  0  0  0  0  0  0  0  0  0  0  0
  -21.0113  -31.0376   22.4388 N   0  0  0  0  0  0  0  0  0  0  0  0
  -28.5343  -22.4510   20.9267 N   0  0  0  0  0  0  0  0  0  0  0  0
  -26.1435  -24.7488   25.6555 N   0  3  1  0  0  0  0  0  0  0  0  0
  -17.9230  -30.2792   24.1580 N   0  3  0  0  0  0  0  0  0  0  0  0
  -30.2689  -13.3126   20.7092 O   0  0  0  0  0  0  0  0  0  0  0  0
  -25.1109  -28.0855   20.4544 O   0  0  0  0  0  0  0  0  0  0  0  0
  -22.0597  -30.2249   19.8993 O   0  0  0  0  0  0  0  0  0  0  0  0
  -20.6970  -29.8970   24.4332 O   0  0  0  0  0  0  0  0  0  0  0  0
  -29.6129  -20.7270   19.8687 O   0  0  0  0  0  0  0  0  0  0  0  0
  -22.9834  -10.6392   20.1083 O   0  0  0  0  0  0  0  0  0  0  0  0
  -23.5351  -23.7528   25.1713 O   0  0  0  0  0  0  0  0  0  1  0  0
  -23.7577   -5.7178   22.4714 F   0  0  0  0  0  0  0  0  0  0  0  0
  -21.1298   -9.6106   21.8827 F   0  0  0  0  0  0  0  0  0  0  0  0
  1  2  1  0  0  0  0
  1  5  2  0  0  0  0
  2  6  2  0  0  0  0
  3  8  2  0  0  0  0
  3 16  1  0  0  0  0
  4  9  1  0  0  0  0
  4 16  2  0  0  0  0
  5 18  1  0  0  0  0
  6 20  1  0  0  0  0
  7 10  2  0  0  0  0
  7 19  1  0  0  0  0
  8 24  1  0  0  0  0
  9 24  2  0  0  0  0
 10 25  1  0  0  0  0
 11 12  2  0  0  0  0
 11 26  1  0  0  0  0
 12 27  1  0  0  0  0
 13 21  1  0  0  0  0
 13 25  2  0  0  0  0
 14 22  2  0  0  0  0
 14 30  1  0  0  0  0
 15 27  2  0  0  0  0
 15 28  1  0  0  0  0
 16 29  1  0  0  0  0
 17 29  1  0  0  0  0
 17 32  2  0  0  0  0
 17 33  1  0  0  0  0
 18 20  2  0  0  0  0
 18 38  1  0  0  0  0
 19 21  2  0  0  0  0
 19 39  1  0  0  0  0
 20 51  1  0  0  0  0
 21 40  1  0  0  0  0
 22 23  1  0  0  0  0
 22 55  1  0  0  0  0
 23 31  2  0  0  0  0
 23 63  1  0  0  0  0
 24 87  1  0  0  0  0
 25 88  1  0  0  0  0
 26 28  2  0  0  0  0
 26 87  1  0  0  0  0
 27 89  1  0  0  0  0
 28 90  1  0  0  0  0
 29 70  2  0  0  0  0
 30 52  1  0  0  0  0
 30 71  2  0  0  0  0
 31 64  1  0  0  0  0
 31 71  1  0  0  0  0
 32 72  1  0  0  0  0
 32 75  1  0  0  0  0
 33 76  1  0  0  0  0
 33 82  2  0  0  0  0
 34 53  1  0  0  0  0
 34 77  1  0  0  0  0
 34 83  2  0  0  0  0
 35 66  1  0  0  0  0
 35 73  1  0  0  0  0
 35 84  2  0  0  0  0
 36 67  1  0  0  0  0
 36 78  1  0  0  0  0
 36 85  2  0  0  0  0
 37 74  1  0  0  0  0
 37 79  1  0  0  0  0
 37 86  2  0  0  0  0
 38 41  1  0  0  0  0
 39 53  1  0  0  0  0
 40 73  1  0  0  0  0
 41 44  1  0  0  0  0
 42 46  1  0  0  0  0
 42 47  1  0  0  0  0
 43 45  1  0  0  0  0
 43 49  1  0  0  0  0
 44 51  1  0  0  0  0
 45 52  1  0  0  0  0
 46 54  1  0  0  0  0
 47 74  1  0  0  0  0
 48 54  1  0  0  0  0
 48 74  1  0  0  0  0
 49 80  1  0  0  0  0
 50 52  1  0  0  0  0
 50 80  1  0  0  0  0
 51 77  1  0  0  0  0
 53 73  1  0  0  0  0
 54 72  1  0  0  0  0
 56 63  1  0  0  0  0
 57 67  1  0  0  0  0
 58 68  1  0  0  0  0
 59 69  1  0  0  0  0
 60 69  1  0  0  0  0
 61 69  1  0  0  0  0
 62 81  1  0  0  0  0
 64 79  1  0  0  0  0
 65 68  1  0  0  0  0
 65 80  1  0  0  0  0
 66 69  1  0  0  0  0
 66 78  1  0  0  0  0
 67 81  1  0  0  0  0
 68 88  1  0  0  0  0
 70 72  1  0  0  0  0
M  CHG  2  80   1  81   1
M  ISO  4  37 100  68 101  79 100  88 101
M  END
> <Batch ID>
0119

> <Smiles>
CCc1c(C)cc(C2CCCN(C[101CH:1](C)[101O:1]c3ccc4c(c3)CN(C(=O)C(NC(=O)C(C)NC)C(C)(C)C)C(C(=O)NC3CCCc5ccccc53)C4)C2)nc1C[100NH:0][100C:0](=O)N1CCCC(n2nc(-c3ccc(Oc4ccc(F)cc4F)cc3)c(C(N)=O)c2N)C1

> <Shape>
0.252

> <Color>
0.038

> <Negative vol penalty>
0.000

$$$$

  -OEChem-04052320203D

 85 94  0     1  0  0  0  0  0999 V2000
  -32.2785  -21.6904   22.7228 C   0  0  0  0  0  0  0  0  0  0  0  0
  -31.0454  -22.2067   23.1079 C   0  0  0  0  0  0  0  0  0  0  0  0
  -29.3362  -26.6907   20.7254 C   0  0  0  0  0  0  0  0  0  0  0  0
  -29.6455  -28.6737   19.3803 C   0  0  0  0  0  0  0  0  0  0  0  0
  -32.3649  -20.8475   21.6155 C   0  0  0  0  0  0  0  0  0  0  0  0
  -29.8981  -21.8813   22.3852 C   0  0  0  0  0  0  0  0  0  0  0  0
  -22.8775  -20.7602   23.2636 C   0  0  0  0  0  0  0  0  0  0  0  0
  -30.7189  -26.5192   20.7905 C   0  0  0  0  0  0  0  0  0  0  0  0
  -31.0282  -28.5023   19.4455 C   0  0  0  0  0  0  0  0  0  0  0  0
  -21.6484  -21.1753   22.7531 C   0  0  0  0  0  0  0  0  0  0  0  0
  -33.1774  -25.3293   18.7994 C   0  0  0  0  0  0  0  0  0  0  0  0
  -33.6811  -24.0455   18.5905 C   0  0  0  0  0  0  0  0  0  0  0  0
  -21.9065  -19.6463   20.9051 C   0  0  0  0  0  0  0  0  0  0  0  0
  -20.2480  -25.3864   19.5338 C   0  0  0  0  0  0  0  0  0  0  0  0
  -34.6610  -24.0705   20.7987 C   0  0  0  0  0  0  0  0  0  0  0  0
  -18.7018  -24.1534   20.6103 C   0  0  0  0  0  0  0  0  0  0  0  0
  -28.7995  -27.7679   20.0202 C   0  0  0  0  0  0  0  0  0  0  0  0
  -26.4276  -27.0473   19.4180 C   0  0  0  0  0  0  0  0  0  0  0  0
  -31.2167  -20.5038   20.8847 C   0  0  0  0  0  0  0  0  0  0  0  0
  -23.6367  -19.7913   22.5918 C   0  0  0  0  0  0  0  0  0  0  0  0
  -29.9694  -21.0341   21.2664 C   0  0  0  0  0  0  0  0  0  0  0  0
  -23.1437  -19.2188   21.4106 C   0  0  0  0  0  0  0  0  0  0  0  0
  -19.3306  -25.3789   20.6133 C   0  0  0  0  0  0  0  0  0  0  0  0
  -31.5650  -27.4250   20.1507 C   0  0  0  0  0  0  0  0  0  0  0  0
  -21.1640  -20.6204   21.5721 C   0  0  0  0  0  0  0  0  0  0  0  0
  -33.4156  -25.9838   20.0080 C   0  0  0  0  0  0  0  0  0  0  0  0
  -34.4228  -23.4161   19.5901 C   0  0  0  0  0  0  0  0  0  0  0  0
  -34.1574  -25.3544   21.0076 C   0  0  0  0  0  0  0  0  0  0  0  0
  -27.3712  -27.9453   19.9520 C   0  0  0  0  0  0  0  0  0  0  0  0
  -20.1518  -24.1652   18.9038 C   0  0  0  0  0  0  0  0  0  0  0  0
  -25.2189  -27.6762   19.5911 C   0  0  0  0  0  0  0  0  0  0  0  0
  -26.6259  -25.7599   18.8191 C   0  0  0  0  0  0  0  0  0  0  0  0
  -26.5092  -19.7387   21.2316 C   0  0  0  0  0  0  0  0  0  0  0  0
  -25.8619  -16.5780   20.8943 C   0  0  0  0  0  0  0  0  0  0  0  0
  -23.5170  -14.1080   20.6771 C   0  0  0  0  0  0  0  0  0  0  0  0
  -21.6636  -30.6042   22.7426 C   0  0  0  0  0  0  0  0  0  0  0  0
  -31.3668  -19.6270   19.6668 C   0  0  0  0  0  0  0  0  0  0  0  0
  -24.9483  -19.3350   23.1698 C   0  0  0  0  0  0  0  0  0  0  0  0
  -23.9108  -18.1606   20.6620 C   0  0  0  0  0  0  0  0  0  0  0  0
  -30.0487  -19.0311   19.1791 C   0  0  0  0  0  0  0  0  0  0  0  0
  -24.1452  -32.4273   20.9554 C   0  0  0  0  0  0  0  0  0  0  0  0
  -28.9644  -20.1029   19.1289 C   0  0  0  0  0  0  0  0  0  0  0  0
  -20.0163  -26.4374   22.8101 C   0  0  0  0  0  0  0  0  0  0  0  0
  -25.1305  -31.3508   20.4967 C   0  0  0  0  0  0  0  0  0  0  0  0
  -19.7692  -27.5939   23.7801 C   0  0  0  0  0  0  0  0  0  0  0  0
  -23.5799  -32.1216   22.3407 C   0  0  0  0  0  0  0  0  0  0  0  0
  -23.9600  -29.7075   22.0225 C   0  0  0  0  0  0  0  0  0  0  0  0
  -18.9262  -29.0106   21.8709 C   0  0  0  0  0  0  0  0  0  0  0  0
  -28.6987  -20.6844   20.5227 C   0  0  1  0  0  0  0  0  0  0  0  0
  -19.0859  -26.5082   21.5907 C   0  0  1  0  0  0  0  0  0  0  0  0
  -25.8758  -18.7141   22.1298 C   0  0  1  0  0  0  0  0  0  0  0  0
  -24.5145  -29.9431   20.6071 C   0  0  2  0  0  0  0  0  0  0  0  0
  -19.8374  -28.9607   23.0934 C   0  0  2  0  0  0  0  0  0  0  0  0
  -20.8794  -23.6453   17.7276 C   0  0  0  0  0  0  0  0  0  0  0  0
  -23.2910  -11.6282   20.3658 C   0  0  0  0  0  0  0  0  0  0  0  0
  -26.4739  -16.8978   17.9222 C   0  0  0  0  0  0  0  0  0  0  0  0
  -25.3370  -14.7031   17.5233 C   0  0  0  0  0  0  0  0  0  0  0  0
  -27.3776  -14.8068   18.9543 C   0  0  0  0  0  0  0  0  0  0  0  0
  -22.1891  -13.7825   23.3019 C   0  0  0  0  0  0  0  0  0  0  0  0
  -18.7812  -22.0194   19.2164 C   0  0  0  0  0  0  0  0  0  0  0  0
  -19.8034  -20.9761   19.6542 C   0  0  0  0  0  0  0  0  0  1  0  0
  -25.1960  -15.7299   19.8377 C   0  0  1  0  0  0  0  0  0  0  0  0
  -23.4033  -12.7631   21.3719 C   0  0  2  0  0  0  0  0  0  0  0  0
  -26.0823  -15.5557   18.5722 C   0  0  0  0  0  0  0  0  0  0  0  0
  -26.8102  -29.0598   20.4286 N   0  0  0  0  0  0  0  0  0  0  0  0
  -19.2086  -23.4240   19.5666 N   0  0  0  0  0  0  0  0  0  0  0  0
  -25.5010  -28.8664   20.1945 N   0  0  0  0  0  0  0  0  0  0  0  0
  -25.1908  -17.7523   21.2639 N   0  0  0  0  0  0  0  0  0  0  0  0
  -23.0094  -30.7728   22.3777 N   0  0  0  0  0  0  0  0  0  0  0  0
  -23.9529  -27.3218   19.2845 N   0  0  0  0  0  0  0  0  0  0  0  0
  -27.9328  -25.2631   18.7203 N   0  0  0  0  0  0  0  0  0  0  0  0
  -27.8886  -19.7745   21.3040 N   0  0  0  0  0  0  0  0  0  0  0  0
  -24.8324  -14.4765   20.4898 N   0  0  0  0  0  0  0  0  0  0  0  0
  -21.2008  -29.2940   22.7460 N   0  0  0  0  0  0  0  0  0  0  0  0
  -19.2304  -27.8690   20.9551 N   0  3  0  0  0  0  0  0  0  0  0  0
  -22.1995  -12.7337   22.2499 N   0  3  0  0  0  0  0  0  0  0  0  0
  -25.6742  -25.0775   18.3695 O   0  0  0  0  0  0  0  0  0  0  0  0
  -25.7990  -20.4435   20.5241 O   0  0  0  0  0  0  0  0  0  0  0  0
  -26.9343  -16.2085   21.3791 O   0  0  0  0  0  0  0  0  0  0  0  0
  -22.5369  -14.7641   20.3316 O   0  0  0  0  0  0  0  0  0  0  0  0
  -20.9273  -31.5516   23.0380 O   0  0  0  0  0  0  0  0  0  0  0  0
  -32.9143  -27.2581   20.2143 O   0  0  0  0  0  0  0  0  0  0  0  0
  -19.9649  -21.0243   21.0713 O   0  0  0  0  0  0  0  0  0  1  0  0
  -34.9051  -22.1826   19.3898 F   0  0  0  0  0  0  0  0  0  0  0  0
  -34.3885  -25.9777   22.1712 F   0  0  0  0  0  0  0  0  0  0  0  0
  1  2  1  0  0  0  0
  1  5  2  0  0  0  0
  2  6  2  0  0  0  0
  3  8  2  0  0  0  0
  3 17  1  0  0  0  0
  4  9  1  0  0  0  0
  4 17  2  0  0  0  0
  5 19  1  0  0  0  0
  6 21  1  0  0  0  0
  7 10  2  0  0  0  0
  7 20  1  0  0  0  0
  8 24  1  0  0  0  0
  9 24  2  0  0  0  0
 10 25  1  0  0  0  0
 11 12  2  0  0  0  0
 11 26  1  0  0  0  0
 12 27  1  0  0  0  0
 13 22  1  0  0  0  0
 13 25  2  0  0  0  0
 14 23  1  0  0  0  0
 14 30  2  0  0  0  0
 15 27  2  0  0  0  0
 15 28  1  0  0  0  0
 16 23  2  0  0  0  0
 16 66  1  0  0  0  0
 17 29  1  0  0  0  0
 18 29  1  0  0  0  0
 18 31  2  0  0  0  0
 18 32  1  0  0  0  0
 19 21  2  0  0  0  0
 19 37  1  0  0  0  0
 20 22  2  0  0  0  0
 20 38  1  0  0  0  0
 21 49  1  0  0  0  0
 22 39  1  0  0  0  0
 23 50  1  0  0  0  0
 24 82  1  0  0  0  0
 25 83  1  0  0  0  0
 26 28  2  0  0  0  0
 26 82  1  0  0  0  0
 27 84  1  0  0  0  0
 28 85  1  0  0  0  0
 29 65  2  0  0  0  0
 30 54  1  0  0  0  0
 30 66  1  0  0  0  0
 31 67  1  0  0  0  0
 31 70  1  0  0  0  0
 32 71  1  0  0  0  0
 32 77  2  0  0  0  0
 33 51  1  0  0  0  0
 33 72  1  0  0  0  0
 33 78  2  0  0  0  0
 34 62  1  0  0  0  0
 34 68  1  0  0  0  0
 34 79  2  0  0  0  0
 35 63  1  0  0  0  0
 35 73  1  0  0  0  0
 35 80  2  0  0  0  0
 36 69  1  0  0  0  0
 36 74  1  0  0  0  0
 36 81  2  0  0  0  0
 37 40  1  0  0  0  0
 38 51  1  0  0  0  0
 39 68  1  0  0  0  0
 40 42  1  0  0  0  0
 41 44  1  0  0  0  0
 41 46  1  0  0  0  0
 42 49  1  0  0  0  0
 43 45  1  0  0  0  0
 43 50  1  0  0  0  0
 44 52  1  0  0  0  0
 45 53  1  0  0  0  0
 46 69  1  0  0  0  0
 47 52  1  0  0  0  0
 47 69  1  0  0  0  0
 48 53  1  0  0  0  0
 48 75  1  0  0  0  0
 49 72  1  0  0  0  0
 50 75  1  0  0  0  0
 51 68  1  0  0  0  0
 52 67  1  0  0  0  0
 53 74  1  0  0  0  0
 55 63  1  0  0  0  0
 56 64  1  0  0  0  0
 57 64  1  0  0  0  0
 58 64  1  0  0  0  0
 59 76  1  0  0  0  0
 60 61  1  0  0  0  0
 60 66  1  0  0  0  0
 61 83  1  0  0  0  0
 62 64  1  0  0  0  0
 62 73  1  0  0  0  0
 63 76  1  0  0  0  0
 65 67  1  0  0  0  0
M  CHG  2  75   1  76   1
M  ISO  4  36 100  61 101  74 100  83 101
M  END
> <Batch ID>
0119

> <Smiles>
CNC(C)C(=O)NC(C(=O)N1Cc2cc([101O:1][101CH2:1]Cn3cc(C4CCC([100NH:0][100C:0](=O)N5CCCC(n6nc(-c7ccc(Oc8ccc(F)cc8F)cc7)c(C(N)=O)c6N)C5)CN4)cc3C)ccc2CC1C(=O)NC1CCCc2ccccc21)C(C)(C)C

> <Shape>
0.219

> <Color>
0.098

> <Negative vol penalty>
0.000

$$$$

  -OEChem-04052320203D

 87 95  0     1  0  0  0  0  0999 V2000
  -15.0405  -26.9778   24.8563 C   0  0  0  0  0  0  0  0  0  0  0  0
  -15.4275  -26.4022   23.6503 C   0  0  0  0  0  0  0  0  0  0  0  0
  -26.4838  -14.6417   22.6416 C   0  0  0  0  0  0  0  0  0  0  0  0
  -25.8758  -14.6426   20.3033 C   0  0  0  0  0  0  0  0  0  0  0  0
  -15.6435  -28.1579   25.2894 C   0  0  0  0  0  0  0  0  0  0  0  0
  -16.4170  -27.0072   22.8761 C   0  0  0  0  0  0  0  0  0  0  0  0
  -20.6135  -24.1966   19.4126 C   0  0  0  0  0  0  0  0  0  0  0  0
  -25.3171  -13.9399   22.9447 C   0  0  0  0  0  0  0  0  0  0  0  0
  -24.7091  -13.9408   20.6064 C   0  0  0  0  0  0  0  0  0  0  0  0
  -20.6754  -23.9296   18.0457 C   0  0  0  0  0  0  0  0  0  0  0  0
  -21.7478  -11.8345   20.7179 C   0  0  0  0  0  0  0  0  0  0  0  0
  -21.4095  -10.7545   19.9027 C   0  0  0  0  0  0  0  0  0  0  0  0
  -22.0049  -25.9166   17.7239 C   0  0  0  0  0  0  0  0  0  0  0  0
  -26.7353  -21.6701   14.4171 C   0  0  0  0  0  0  0  0  0  0  0  0
  -23.4899   -9.6688   20.4775 C   0  0  0  0  0  0  0  0  0  0  0  0
  -27.5089  -23.1911   16.5780 C   0  0  0  0  0  0  0  0  0  0  0  0
  -26.7631  -14.9931   21.3209 C   0  0  0  0  0  0  0  0  0  0  0  0
  -29.2254  -15.1771   20.6798 C   0  0  0  0  0  0  0  0  0  0  0  0
  -16.6477  -28.7725   24.5248 C   0  0  0  0  0  0  0  0  0  0  0  0
  -21.2388  -25.3334   19.9448 C   0  0  0  0  0  0  0  0  0  0  0  0
  -17.0330  -28.1974   23.2988 C   0  0  0  0  0  0  0  0  0  0  0  0
  -21.9516  -26.1944   19.0983 C   0  0  0  0  0  0  0  0  0  0  0  0
  -27.3886  -21.0658   15.4870 C   0  0  0  0  0  0  0  0  0  0  0  0
  -27.7815  -21.8305   16.5812 C   0  0  0  0  0  0  0  0  0  0  0  0
  -24.4298  -13.5894   21.9271 C   0  0  0  0  0  0  0  0  0  0  0  0
  -21.3687  -24.7912   17.2006 C   0  0  0  0  0  0  0  0  0  0  0  0
  -22.9572  -11.8317   21.4129 C   0  0  0  0  0  0  0  0  0  0  0  0
  -22.2804   -9.6716   19.7825 C   0  0  0  0  0  0  0  0  0  0  0  0
  -23.8282  -10.7489   21.2927 C   0  0  0  0  0  0  0  0  0  0  0  0
  -27.9679  -15.7186   21.0072 C   0  0  0  0  0  0  0  0  0  0  0  0
  -26.4891  -23.0347   14.4688 C   0  0  0  0  0  0  0  0  0  0  0  0
  -30.0271  -16.2726   20.4709 C   0  0  0  0  0  0  0  0  0  0  0  0
  -29.6325  -13.8064   20.5739 C   0  0  0  0  0  0  0  0  0  0  0  0
  -20.2401  -27.9294   21.4834 C   0  0  0  0  0  0  0  0  0  0  0  0
  -23.4191  -28.5097   21.7656 C   0  0  0  0  0  0  0  0  0  0  0  0
  -26.5743  -28.0026   20.5678 C   0  0  0  0  0  0  0  0  0  0  0  0
  -28.8946  -21.9084   18.8397 C   0  0  0  0  0  0  0  0  0  0  0  0
  -17.2370  -30.0728   25.0112 C   0  0  0  0  0  0  0  0  0  0  0  0
  -21.1853  -25.5929   21.4254 C   0  0  0  0  0  0  0  0  0  0  0  0
  -22.6572  -27.4173   19.6228 C   0  0  0  0  0  0  0  0  0  0  0  0
  -18.5417  -30.4489   24.3135 C   0  0  0  0  0  0  0  0  0  0  0  0
  -30.5474  -20.8417   21.8075 C   0  0  0  0  0  0  0  0  0  0  0  0
  -18.4101  -30.2722   22.8041 C   0  0  0  0  0  0  0  0  0  0  0  0
  -30.1930  -19.3562   21.9060 C   0  0  0  0  0  0  0  0  0  0  0  0
  -29.3829  -21.6679   21.2644 C   0  0  0  0  0  0  0  0  0  0  0  0
  -28.4664  -19.7037   20.0934 C   0  0  0  0  0  0  0  0  0  0  0  0
  -18.1202  -28.8103   22.4429 C   0  0  1  0  0  0  0  0  0  0  0  0
  -21.4251  -27.0561   21.7847 C   0  0  1  0  0  0  0  0  0  0  0  0
  -29.6302  -18.8217   20.5744 C   0  0  2  0  0  0  0  0  0  0  0  0
  -26.6048  -23.7123   12.0478 C   0  0  0  0  0  0  0  0  0  0  0  0
  -28.9657  -28.6385   20.9853 C   0  0  0  0  0  0  0  0  0  0  0  0
  -25.7740  -18.5366   14.4492 C   0  0  0  0  0  0  0  0  0  0  0  0
  -28.1066  -17.5910   14.3467 C   0  0  0  0  0  0  0  0  0  0  0  0
  -22.8982  -31.2587   20.5483 C   0  0  0  0  0  0  0  0  0  0  0  0
  -25.3563  -31.4561   20.1161 C   0  0  0  0  0  0  0  0  0  0  0  0
  -24.5156  -31.2519   22.4558 C   0  0  0  0  0  0  0  0  0  0  0  0
  -27.3617  -25.1888   21.0381 C   0  0  0  0  0  0  0  0  0  0  0  0
  -22.1120  -22.9966   14.1465 C   0  0  0  0  0  0  0  0  0  0  0  0
  -24.3595  -23.2522   13.0872 C   0  0  0  0  0  0  0  0  0  0  0  0
  -21.3849  -23.1642   15.4661 C   0  0  0  0  0  0  0  0  0  1  0  0
  -25.7805  -23.7728   13.3392 C   0  0  1  0  0  0  0  0  0  0  0  0
  -24.4517  -29.2331   20.9352 C   0  0  1  0  0  0  0  0  0  0  0  0
  -27.8680  -27.6240   21.2659 C   0  0  2  0  0  0  0  0  0  0  0  0
  -27.2582  -18.8542   14.3391 C   0  0  0  0  0  0  0  0  0  0  0  0
  -24.2906  -30.7780   21.0034 C   0  0  0  0  0  0  0  0  0  0  0  0
  -27.9659  -17.0543   21.0077 N   0  0  0  0  0  0  0  0  0  0  0  0
  -29.2321  -17.3613   20.6781 N   0  0  0  0  0  0  0  0  0  0  0  0
  -26.8783  -23.7474   15.5347 N   0  3  0  0  0  0  0  0  0  0  0  0
  -22.5706  -27.6314   21.0768 N   0  0  0  0  0  0  0  0  0  0  0  0
  -28.9048  -21.1051   19.9996 N   0  0  0  0  0  0  0  0  0  0  0  0
  -31.3275  -16.4012   20.1321 N   0  0  0  0  0  0  0  0  0  0  0  0
  -28.6823  -12.8063   20.8214 N   0  0  0  0  0  0  0  0  0  0  0  0
  -28.4502  -21.2558   17.6903 N   0  0  0  0  0  0  0  0  0  0  0  0
  -27.6438  -19.6772   15.4419 N   0  0  0  0  0  0  0  0  0  0  0  0
  -19.3309  -28.0211   22.5199 N   0  0  0  0  0  0  0  0  0  0  0  0
  -25.7514  -28.7473   21.3860 N   0  0  0  0  0  0  0  0  0  0  0  0
  -28.3344  -26.2866   20.8026 N   0  3  0  0  0  0  0  0  0  0  0  0
  -23.5308  -23.4007   14.3140 N   0  3  0  0  0  0  0  0  0  0  0  0
  -30.8082  -13.4783   20.2849 O   0  0  0  0  0  0  0  0  0  0  0  0
  -20.1577  -28.4805   20.3920 O   0  0  0  0  0  0  0  0  0  0  0  0
  -23.3720  -28.7109   22.9817 O   0  0  0  0  0  0  0  0  0  0  0  0
  -26.3208  -27.6741   19.4109 O   0  0  0  0  0  0  0  0  0  0  0  0
  -29.2794  -23.0804   18.8586 O   0  0  0  0  0  0  0  0  0  0  0  0
  -23.2913  -12.9044   22.2225 O   0  0  0  0  0  0  0  0  0  0  0  0
  -21.4300  -24.5333   15.8658 O   0  0  0  0  0  0  0  0  0  1  0  0
  -21.9547   -8.6338   19.0008 F   0  0  0  0  0  0  0  0  0  0  0  0
  -24.9909  -10.7400   21.9589 F   0  0  0  0  0  0  0  0  0  0  0  0
  1  2  1  0  0  0  0
  1  5  2  0  0  0  0
  2  6  2  0  0  0  0
  3  8  2  0  0  0  0
  3 17  1  0  0  0  0
  4  9  1  0  0  0  0
  4 17  2  0  0  0  0
  5 19  1  0  0  0  0
  6 21  1  0  0  0  0
  7 10  2  0  0  0  0
  7 20  1  0  0  0  0
  8 25  1  0  0  0  0
  9 25  2  0  0  0  0
 10 26  1  0  0  0  0
 11 12  2  0  0  0  0
 11 27  1  0  0  0  0
 12 28  1  0  0  0  0
 13 22  1  0  0  0  0
 13 26  2  0  0  0  0
 14 23  2  0  0  0  0
 14 31  1  0  0  0  0
 15 28  2  0  0  0  0
 15 29  1  0  0  0  0
 16 24  2  0  0  0  0
 16 68  1  0  0  0  0
 17 30  1  0  0  0  0
 18 30  1  0  0  0  0
 18 32  2  0  0  0  0
 18 33  1  0  0  0  0
 19 21  2  0  0  0  0
 19 38  1  0  0  0  0
 20 22  2  0  0  0  0
 20 39  1  0  0  0  0
 21 47  1  0  0  0  0
 22 40  1  0  0  0  0
 23 24  1  0  0  0  0
 23 74  1  0  0  0  0
 24 73  1  0  0  0  0
 25 84  1  0  0  0  0
 26 85  1  0  0  0  0
 27 29  2  0  0  0  0
 27 84  1  0  0  0  0
 28 86  1  0  0  0  0
 29 87  1  0  0  0  0
 30 66  2  0  0  0  0
 31 61  1  0  0  0  0
 31 68  2  0  0  0  0
 32 67  1  0  0  0  0
 32 71  1  0  0  0  0
 33 72  1  0  0  0  0
 33 79  2  0  0  0  0
 34 48  1  0  0  0  0
 34 75  1  0  0  0  0
 34 80  2  0  0  0  0
 35 62  1  0  0  0  0
 35 69  1  0  0  0  0
 35 81  2  0  0  0  0
 36 63  1  0  0  0  0
 36 76  1  0  0  0  0
 36 82  2  0  0  0  0
 37 70  1  0  0  0  0
 37 73  1  0  0  0  0
 37 83  2  0  0  0  0
 38 41  1  0  0  0  0
 39 48  1  0  0  0  0
 40 69  1  0  0  0  0
 41 43  1  0  0  0  0
 42 44  1  0  0  0  0
 42 45  1  0  0  0  0
 43 47  1  0  0  0  0
 44 49  1  0  0  0  0
 45 70  1  0  0  0  0
 46 49  1  0  0  0  0
 46 70  1  0  0  0  0
 47 75  1  0  0  0  0
 48 69  1  0  0  0  0
 49 67  1  0  0  0  0
 50 61  1  0  0  0  0
 51 63  1  0  0  0  0
 52 64  1  0  0  0  0
 53 64  1  0  0  0  0
 54 65  1  0  0  0  0
 55 65  1  0  0  0  0
 56 65  1  0  0  0  0
 57 77  1  0  0  0  0
 58 60  1  0  0  0  0
 58 78  1  0  0  0  0
 59 61  1  0  0  0  0
 59 78  1  0  0  0  0
 60 85  1  0  0  0  0
 62 65  1  0  0  0  0
 62 76  1  0  0  0  0
 63 77  1  0  0  0  0
 64 74  1  0  0  0  0
 66 67  1  0  0  0  0
M  CHG  3  68   1  77   1  78   1
M  ISO  4  37 100  60 101  73 100  85 101
M  END
> <Batch ID>
0119

> <Smiles>
CNC(C)C(=O)NC(C(=O)N1Cc2cc([101O:1][101CH2:1]CNCC(C)c3cc(NC(C)C)c([100NH:0][100C:0](=O)N4CCCC(n5nc(-c6ccc(Oc7ccc(F)cc7F)cc6)c(C(N)=O)c5N)C4)cn3)ccc2CC1C(=O)NC1CCCc2ccccc21)C(C)(C)C

> <Shape>
0.266

> <Color>
0.052

> <Negative vol penalty>
0.000

$$$$

  -OEChem-04052320203D

 90 99  0     1  0  0  0  0  0999 V2000
  -21.2652  -29.8306   14.9275 C   0  0  0  0  0  0  0  0  0  0  0  0
  -22.2678  -29.0520   15.4967 C   0  0  0  0  0  0  0  0  0  0  0  0
  -22.6506   -9.9722   20.0183 C   0  0  0  0  0  0  0  0  0  0  0  0
  -23.7489  -10.1258   22.1647 C   0  0  0  0  0  0  0  0  0  0  0  0
  -21.0356  -31.1227   15.3983 C   0  0  0  0  0  0  0  0  0  0  0  0
  -23.0422  -29.5656   16.5364 C   0  0  0  0  0  0  0  0  0  0  0  0
  -29.6255  -21.5410   18.7909 C   0  0  0  0  0  0  0  0  0  0  0  0
  -23.6654  -26.2517   20.3147 C   0  0  0  0  0  0  0  0  0  0  0  0
  -28.6016  -22.4843   18.8521 C   0  0  0  0  0  0  0  0  0  0  0  0
  -21.8332   -8.9542   20.5093 C   0  0  0  0  0  0  0  0  0  0  0  0
  -22.9315   -9.1078   22.6558 C   0  0  0  0  0  0  0  0  0  0  0  0
  -24.6046  -25.2390   20.1250 C   0  0  0  0  0  0  0  0  0  0  0  0
  -22.7719   -5.7354   22.4755 C   0  0  0  0  0  0  0  0  0  0  0  0
  -23.3753   -4.7226   23.2209 C   0  0  0  0  0  0  0  0  0  0  0  0
  -27.4350  -21.0804   20.4161 C   0  0  0  0  0  0  0  0  0  0  0  0
  -26.1992  -26.4792   21.4435 C   0  0  0  0  0  0  0  0  0  0  0  0
  -21.9842   -5.2870   25.1139 C   0  0  0  0  0  0  0  0  0  0  0  0
  -23.6085  -10.5580   20.8459 C   0  0  0  0  0  0  0  0  0  0  0  0
  -24.0455  -12.8556   19.8274 C   0  0  0  0  0  0  0  0  0  0  0  0
  -21.8012  -31.6489   16.4507 C   0  0  0  0  0  0  0  0  0  0  0  0
  -29.5704  -20.3410   19.5312 C   0  0  0  0  0  0  0  0  0  0  0  0
  -23.9901  -27.3927   21.0624 C   0  0  0  0  0  0  0  0  0  0  0  0
  -22.8235  -30.8664   17.0208 C   0  0  0  0  0  0  0  0  0  0  0  0
  -28.4698  -20.1213   20.3852 C   0  0  0  0  0  0  0  0  0  0  0  0
  -25.2614  -27.5038   21.6434 C   0  0  0  0  0  0  0  0  0  0  0  0
  -27.4999  -22.2499   19.6608 C   0  0  0  0  0  0  0  0  0  0  0  0
  -21.9737   -8.5220   21.8281 C   0  0  0  0  0  0  0  0  0  0  0  0
  -25.8727  -25.3540   20.6870 C   0  0  0  0  0  0  0  0  0  0  0  0
  -21.7747   -6.5242   23.0493 C   0  0  0  0  0  0  0  0  0  0  0  0
  -22.9815   -4.4983   24.5401 C   0  0  0  0  0  0  0  0  0  0  0  0
  -21.3809   -6.2999   24.3685 C   0  0  0  0  0  0  0  0  0  0  0  0
  -24.4535  -11.6092   20.3391 C   0  0  0  0  0  0  0  0  0  0  0  0
  -25.2165  -13.4849   19.4820 C   0  0  0  0  0  0  0  0  0  0  0  0
  -22.7261  -13.3963   19.6777 C   0  0  0  0  0  0  0  0  0  0  0  0
  -24.1764  -30.5043   20.4401 C   0  0  0  0  0  0  0  0  0  0  0  0
  -24.6846  -30.7166   23.6368 C   0  0  0  0  0  0  0  0  0  0  0  0
  -25.7266  -29.2012   26.5117 C   0  0  0  0  0  0  0  0  0  0  0  0
  -30.4934  -14.9078   20.6113 C   0  0  0  0  0  0  0  0  0  0  0  0
  -21.5475  -33.0679   16.8941 C   0  0  0  0  0  0  0  0  0  0  0  0
  -30.7407  -19.3939   19.3711 C   0  0  0  0  0  0  0  0  0  0  0  0
  -22.9569  -28.4639   21.2802 C   0  0  0  0  0  0  0  0  0  0  0  0
  -28.2832  -18.8967   21.2604 C   0  0  0  0  0  0  0  0  0  0  0  0
  -25.6531  -28.6992   22.4717 C   0  0  0  0  0  0  0  0  0  0  0  0
  -22.1636  -33.4017   18.2503 C   0  0  0  0  0  0  0  0  0  0  0  0
  -30.3919  -17.9094   19.4399 C   0  0  0  0  0  0  0  0  0  0  0  0
  -29.9400  -11.7043   19.1595 C   0  0  0  0  0  0  0  0  0  0  0  0
  -23.6038  -32.9037   18.3195 C   0  0  0  0  0  0  0  0  0  0  0  0
  -28.4314  -11.4945   19.3004 C   0  0  0  0  0  0  0  0  0  0  0  0
  -30.5219  -12.4433   20.3625 C   0  0  0  0  0  0  0  0  0  0  0  0
  -28.3493  -13.5103   20.8264 C   0  0  0  0  0  0  0  0  0  0  0  0
  -23.6682  -31.3792   18.1670 C   0  0  1  0  0  0  0  0  0  0  0  0
  -23.5652  -29.8187   21.6293 C   0  0  1  0  0  0  0  0  0  0  0  0
  -29.5734  -18.3098   21.8572 C   0  0  2  0  0  0  0  0  0  0  0  0
  -27.7077  -12.8184   19.6114 C   0  0  2  0  0  0  0  0  0  0  0  0
  -30.3020  -17.3684   20.8719 C   0  0  1  0  0  0  0  0  0  0  0  0
  -31.6207  -15.5640   25.5402 C   0  0  0  0  0  0  0  0  0  0  0  0
  -26.0632  -29.6400   28.9595 C   0  0  0  0  0  0  0  0  0  0  0  0
  -27.2164  -32.2970   23.0029 C   0  0  0  0  0  0  0  0  0  0  0  0
  -27.9792  -31.8831   25.3513 C   0  0  0  0  0  0  0  0  0  0  0  0
  -25.8905  -33.1804   24.9306 C   0  0  0  0  0  0  0  0  0  0  0  0
  -23.7844  -27.1020   27.2736 C   0  0  0  0  0  0  0  0  0  0  0  0
  -27.7952  -17.9674   25.1635 C   0  0  0  0  0  0  0  0  0  0  0  0
  -29.5925  -19.6137   24.6534 C   0  0  0  0  0  0  0  0  0  0  0  0
  -26.3897  -23.2423   19.7229 C   0  0  0  0  0  0  0  0  0  1  0  0
  -30.3186  -16.0299   24.9060 C   0  0  0  0  0  0  0  0  0  0  0  0
  -30.5685  -17.1057   23.8453 C   0  0  0  0  0  0  0  0  0  0  0  0
  -25.9009  -30.6840   24.5305 C   0  0  1  0  0  0  0  0  0  0  0  0
  -25.1049  -29.1291   27.8948 C   0  0  2  0  0  0  0  0  0  0  0  0
  -29.2827  -17.6178   23.1970 C   0  0  1  0  0  0  0  0  0  0  0  0
  -26.7403  -31.9894   24.4366 C   0  0  0  0  0  0  0  0  0  0  0  0
  -25.7800  -11.4540   20.3220 N   0  0  0  0  0  0  0  0  0  0  0  0
  -26.2157  -12.6111   19.7953 N   0  0  0  0  0  0  0  0  0  0  0  0
  -24.6102  -29.7228   22.6506 N   0  0  0  0  0  0  0  0  0  0  0  0
  -29.7923  -13.6907   20.6026 N   0  0  0  0  0  0  0  0  0  0  0  0
  -25.4786  -14.6949   18.9438 N   0  0  0  0  0  0  0  0  0  0  0  0
  -22.1827  -14.1353   20.7374 N   0  0  0  0  0  0  0  0  0  0  0  0
  -23.2901  -30.7311   19.4045 N   0  0  0  0  0  0  0  0  0  0  0  0
  -25.4138  -30.3820   25.8721 N   0  0  0  0  0  0  0  0  0  0  0  0
  -29.7252  -16.0429   20.8398 N   0  0  0  0  0  0  0  0  0  0  0  0
  -24.7406  -27.7226   28.2263 N   0  3  0  0  0  0  0  0  0  0  0  0
  -28.6205  -18.6136   24.0791 N   0  3  0  0  0  0  0  0  0  0  0  0
  -22.0426  -13.2151   18.6416 O   0  0  0  0  0  0  0  0  0  0  0  0
  -25.3637  -30.8066   20.4613 O   0  0  0  0  0  0  0  0  0  0  0  0
  -23.8285  -31.5872   23.8122 O   0  0  0  0  0  0  0  0  0  0  0  0
  -26.4232  -28.3017   26.0468 O   0  0  0  0  0  0  0  0  0  0  0  0
  -31.7127  -14.9782   20.4237 O   0  0  0  0  0  0  0  0  0  0  0  0
  -21.1761   -7.5288   22.3077 O   0  0  0  0  0  0  0  0  0  0  0  0
  -26.7979  -24.3606   20.5015 O   0  0  0  0  0  0  0  0  0  1  0  0
  -23.5599   -3.5246   25.2552 F   0  0  0  0  0  0  0  0  0  0  0  0
  -20.4226   -7.0536   24.9248 F   0  0  0  0  0  0  0  0  0  0  0  0
  1  2  1  0  0  0  0
  1  5  2  0  0  0  0
  2  6  2  0  0  0  0
  3 10  2  0  0  0  0
  3 18  1  0  0  0  0
  4 11  1  0  0  0  0
  4 18  2  0  0  0  0
  5 20  1  0  0  0  0
  6 23  1  0  0  0  0
  7  9  2  0  0  0  0
  7 21  1  0  0  0  0
  8 12  2  0  0  0  0
  8 22  1  0  0  0  0
  9 26  1  0  0  0  0
 10 27  1  0  0  0  0
 11 27  2  0  0  0  0
 12 28  1  0  0  0  0
 13 14  2  0  0  0  0
 13 29  1  0  0  0  0
 14 30  1  0  0  0  0
 15 24  1  0  0  0  0
 15 26  2  0  0  0  0
 16 25  1  0  0  0  0
 16 28  2  0  0  0  0
 17 30  2  0  0  0  0
 17 31  1  0  0  0  0
 18 32  1  0  0  0  0
 19 32  1  0  0  0  0
 19 33  2  0  0  0  0
 19 34  1  0  0  0  0
 20 23  2  0  0  0  0
 20 39  1  0  0  0  0
 21 24  2  0  0  0  0
 21 40  1  0  0  0  0
 22 25  2  0  0  0  0
 22 41  1  0  0  0  0
 23 51  1  0  0  0  0
 24 42  1  0  0  0  0
 25 43  1  0  0  0  0
 26 64  1  0  0  0  0
 27 87  1  0  0  0  0
 28 88  1  0  0  0  0
 29 31  2  0  0  0  0
 29 87  1  0  0  0  0
 30 89  1  0  0  0  0
 31 90  1  0  0  0  0
 32 71  2  0  0  0  0
 33 72  1  0  0  0  0
 33 75  1  0  0  0  0
 34 76  1  0  0  0  0
 34 82  2  0  0  0  0
 35 52  1  0  0  0  0
 35 77  1  0  0  0  0
 35 83  2  0  0  0  0
 36 67  1  0  0  0  0
 36 73  1  0  0  0  0
 36 84  2  0  0  0  0
 37 68  1  0  0  0  0
 37 78  1  0  0  0  0
 37 85  2  0  0  0  0
 38 74  1  0  0  0  0
 38 79  1  0  0  0  0
 38 86  2  0  0  0  0
 39 44  1  0  0  0  0
 40 45  1  0  0  0  0
 41 52  1  0  0  0  0
 42 53  1  0  0  0  0
 43 73  1  0  0  0  0
 44 47  1  0  0  0  0
 45 55  1  0  0  0  0
 46 48  1  0  0  0  0
 46 49  1  0  0  0  0
 47 51  1  0  0  0  0
 48 54  1  0  0  0  0
 49 74  1  0  0  0  0
 50 54  1  0  0  0  0
 50 74  1  0  0  0  0
 51 77  1  0  0  0  0
 52 73  1  0  0  0  0
 53 55  1  0  0  0  0
 53 69  1  0  0  0  0
 54 72  1  0  0  0  0
 55 79  1  0  0  0  0
 56 65  1  0  0  0  0
 57 68  1  0  0  0  0
 58 70  1  0  0  0  0
 59 70  1  0  0  0  0
 60 70  1  0  0  0  0
 61 80  1  0  0  0  0
 62 81  1  0  0  0  0
 63 81  1  0  0  0  0
 64 88  1  0  0  0  0
 65 66  1  0  0  0  0
 66 69  1  0  0  0  0
 67 70  1  0  0  0  0
 67 78  1  0  0  0  0
 68 80  1  0  0  0  0
 69 81  1  0  0  0  0
 71 72  1  0  0  0  0
M  CHG  2  80   1  81   1
M  ISO  4  38 100  64 101  79 100  88 101
M  END
> <Batch ID>
0119

> <Smiles>
CCCC(C1Cc2cc([101CH2:1][101O:1]c3ccc4c(c3)CN(C(=O)C(NC(=O)C(C)NC)C(C)(C)C)C(C(=O)NC3CCCc5ccccc53)C4)ccc2CCC1[100NH:0][100C:0](=O)N1CCCC(n2nc(-c3ccc(Oc4ccc(F)cc4F)cc3)c(C(N)=O)c2N)C1)N(C)C

> <Shape>
0.303

> <Color>
0.109

> <Negative vol penalty>
0.000

$$$$

  -OEChem-04052320203D

 90 98  0     1  0  0  0  0  0999 V2000
  -18.6213  -21.6615   25.8454 C   0  0  0  0  0  0  0  0  0  0  0  0
  -19.6317  -22.3686   26.4873 C   0  0  0  0  0  0  0  0  0  0  0  0
  -27.3677  -11.2663   20.3891 C   0  0  0  0  0  0  0  0  0  0  0  0
  -26.6494  -12.6969   18.5795 C   0  0  0  0  0  0  0  0  0  0  0  0
  -18.7758  -21.2882   24.5120 C   0  0  0  0  0  0  0  0  0  0  0  0
  -20.7917  -22.7130   25.7927 C   0  0  0  0  0  0  0  0  0  0  0  0
  -27.6700  -26.3045   22.7608 C   0  0  0  0  0  0  0  0  0  0  0  0
  -26.2900  -10.4153   20.1441 C   0  0  0  0  0  0  0  0  0  0  0  0
  -25.5717  -11.8459   18.3345 C   0  0  0  0  0  0  0  0  0  0  0  0
  -28.2305  -26.4338   21.4908 C   0  0  0  0  0  0  0  0  0  0  0  0
  -23.5230   -8.0572   20.2261 C   0  0  0  0  0  0  0  0  0  0  0  0
  -22.7914   -7.6024   21.3231 C   0  0  0  0  0  0  0  0  0  0  0  0
  -26.0331  -26.7983   20.5647 C   0  0  0  0  0  0  0  0  0  0  0  0
  -22.2423   -9.8828   21.9023 C   0  0  0  0  0  0  0  0  0  0  0  0
  -27.5473  -12.4072   19.6068 C   0  0  0  0  0  0  0  0  0  0  0  0
  -30.0289  -12.9626   19.8087 C   0  0  0  0  0  0  0  0  0  0  0  0
  -19.9439  -21.6178   23.8050 C   0  0  0  0  0  0  0  0  0  0  0  0
  -26.2834  -26.4105   22.9409 C   0  0  0  0  0  0  0  0  0  0  0  0
  -20.9563  -22.3662   24.4394 C   0  0  0  0  0  0  0  0  0  0  0  0
  -25.4577  -26.6726   21.8383 C   0  0  0  0  0  0  0  0  0  0  0  0
  -25.3921  -10.7050   19.1168 C   0  0  0  0  0  0  0  0  0  0  0  0
  -27.4117  -26.6778   20.3920 C   0  0  0  0  0  0  0  0  0  0  0  0
  -23.6144   -9.4248   19.9672 C   0  0  0  0  0  0  0  0  0  0  0  0
  -22.1510   -8.5152   22.1612 C   0  0  0  0  0  0  0  0  0  0  0  0
  -22.9740  -10.3376   20.8053 C   0  0  0  0  0  0  0  0  0  0  0  0
  -28.6600  -13.2870   19.8598 C   0  0  0  0  0  0  0  0  0  0  0  0
  -30.6715  -14.1344   20.1256 C   0  0  0  0  0  0  0  0  0  0  0  0
  -30.6630  -11.7137   19.5022 C   0  0  0  0  0  0  0  0  0  0  0  0
  -24.0015  -24.4598   23.9858 C   0  0  0  0  0  0  0  0  0  0  0  0
  -22.1507  -27.1095   23.7095 C   0  0  0  0  0  0  0  0  0  0  0  0
  -21.7553  -29.8112   21.3512 C   0  0  0  0  0  0  0  0  0  0  0  0
  -29.1083  -19.8958   19.6632 C   0  0  0  0  0  0  0  0  0  0  0  0
  -20.0554  -21.1956   22.3612 C   0  0  0  0  0  0  0  0  0  0  0  0
  -25.6970  -26.2952   24.3213 C   0  0  0  0  0  0  0  0  0  0  0  0
  -23.9652  -26.8151   21.9814 C   0  0  0  0  0  0  0  0  0  0  0  0
  -21.4905  -21.2155   21.8451 C   0  0  0  0  0  0  0  0  0  0  0  0
  -32.9015  -21.1005   13.9142 C   0  0  0  0  0  0  0  0  0  0  0  0
  -31.5420  -20.4131   13.9320 C   0  0  0  0  0  0  0  0  0  0  0  0
  -30.0803  -18.1721   22.6231 C   0  0  0  0  0  0  0  0  0  0  0  0
  -22.1494  -22.5421   22.1926 C   0  0  0  0  0  0  0  0  0  0  0  0
  -29.9500  -16.6954   22.2460 C   0  0  0  0  0  0  0  0  0  0  0  0
  -33.2572  -21.6292   15.3004 C   0  0  0  0  0  0  0  0  0  0  0  0
  -28.9858  -19.0184   21.9766 C   0  0  0  0  0  0  0  0  0  0  0  0
  -30.4699  -21.3124   14.5494 C   0  0  0  0  0  0  0  0  0  0  0  0
  -28.7447  -17.3976   20.1358 C   0  0  0  0  0  0  0  0  0  0  0  0
  -22.2398  -22.7252   23.7129 C   0  0  1  0  0  0  0  0  0  0  0  0
  -24.2210  -25.9098   24.3132 C   0  0  1  0  0  0  0  0  0  0  0  0
  -29.8595  -16.5126   20.7190 C   0  0  2  0  0  0  0  0  0  0  0  0
  -32.1371  -22.4886   15.9151 C   0  0  1  0  0  0  0  0  0  0  0  0
  -30.2316  -26.8230   11.2313 C   0  0  0  0  0  0  0  0  0  0  0  0
  -20.9446  -32.1626   21.6849 C   0  0  0  0  0  0  0  0  0  0  0  0
  -28.0897  -24.8715   16.9529 C   0  0  0  0  0  0  0  0  0  0  0  0
  -19.4325  -25.9778   22.9091 C   0  0  0  0  0  0  0  0  0  0  0  0
  -18.9980  -28.0984   21.6512 C   0  0  0  0  0  0  0  0  0  0  0  0
  -19.3367  -28.1630   24.1217 C   0  0  0  0  0  0  0  0  0  0  0  0
  -24.2160  -30.9512   20.1663 C   0  0  0  0  0  0  0  0  0  0  0  0
  -30.5454  -26.9875   12.7075 C   0  0  0  0  0  0  0  0  0  0  0  0
  -30.5898  -25.0176   17.0410 C   0  0  0  0  0  0  0  0  0  0  0  0
  -30.6844  -20.8085   16.9126 C   0  0  0  0  0  0  0  0  0  0  0  0
  -29.2230  -20.6204   17.2924 C   0  0  0  0  0  0  0  0  0  0  0  0
  -30.5118  -25.6575   13.4448 C   0  0  0  0  0  0  0  0  0  0  0  0
  -29.1547  -26.0744   18.8908 C   0  0  0  0  0  0  0  0  0  1  0  0
  -21.3147  -27.7198   22.6107 C   0  0  1  0  0  0  0  0  0  0  0  0
  -22.1614  -31.2600   21.5526 C   0  0  2  0  0  0  0  0  0  0  0  0
  -32.0624  -23.8716   15.2525 C   0  0  1  0  0  0  0  0  0  0  0  0
  -29.2744  -25.7375   17.3989 C   0  0  2  0  0  0  0  0  0  0  0  0
  -30.7792  -24.6615   15.5565 C   0  0  2  0  0  0  0  0  0  0  0  0
  -19.7934  -27.4739   22.8174 C   0  0  0  0  0  0  0  0  0  0  0  0
  -28.4446  -14.5647   20.1837 N   0  0  0  0  0  0  0  0  0  0  0  0
  -29.6868  -15.0535   20.3392 N   0  0  0  0  0  0  0  0  0  0  0  0
  -23.4389  -26.6880   23.3504 N   0  0  0  0  0  0  0  0  0  0  0  0
  -28.9541  -18.8000   20.5284 N   0  0  0  0  0  0  0  0  0  0  0  0
  -30.8128  -21.8369   15.8795 N   0  0  2  0  0  0  0  0  0  0  0  0
  -31.9772  -14.4579   20.2396 N   0  0  0  0  0  0  0  0  0  0  0  0
  -29.8538  -10.6103   19.1989 N   0  0  0  0  0  0  0  0  0  0  0  0
  -22.6746  -24.0742   24.0008 N   0  0  0  0  0  0  0  0  0  0  0  0
  -21.6891  -29.1284   22.5473 N   0  0  0  0  0  0  0  0  0  0  0  0
  -29.0724  -19.6003   18.3060 N   0  0  0  0  0  0  0  0  0  0  0  0
  -33.2268  -24.6705   15.7474 N   0  3  0  0  0  0  0  0  0  0  0  0
  -22.9755  -31.7350   20.3982 N   0  3  0  0  0  0  0  0  0  0  0  0
  -31.9098  -11.5761   19.5135 O   0  0  0  0  0  0  0  0  0  0  0  0
  -24.9646  -23.7443   23.7364 O   0  0  0  0  0  0  0  0  0  0  0  0
  -21.6809  -27.0169   24.8463 O   0  0  0  0  0  0  0  0  0  0  0  0
  -21.5167  -29.3340   20.2440 O   0  0  0  0  0  0  0  0  0  0  0  0
  -29.2717  -21.0511   20.0702 O   0  0  0  0  0  0  0  0  0  0  0  0
  -24.3405   -9.8747   18.8772 O   0  0  0  0  0  0  0  0  0  0  0  0
  -27.9562  -26.8038   19.1512 O   0  0  0  0  0  0  0  0  0  1  0  0
  -30.7982  -25.8854   14.8142 O   0  0  0  0  0  0  0  0  0  0  0  0
  -21.4472   -8.0782   23.2137 F   0  0  0  0  0  0  0  0  0  0  0  0
  -23.0572  -11.6526   20.5610 F   0  0  0  0  0  0  0  0  0  0  0  0
  1  2  1  0  0  0  0
  1  5  2  0  0  0  0
  2  6  2  0  0  0  0
  3  8  2  0  0  0  0
  3 15  1  0  0  0  0
  4  9  1  0  0  0  0
  4 15  2  0  0  0  0
  5 17  1  0  0  0  0
  6 19  1  0  0  0  0
  7 10  2  0  0  0  0
  7 18  1  0  0  0  0
  8 21  1  0  0  0  0
  9 21  2  0  0  0  0
 10 22  1  0  0  0  0
 11 12  2  0  0  0  0
 11 23  1  0  0  0  0
 12 24  1  0  0  0  0
 13 20  1  0  0  0  0
 13 22  2  0  0  0  0
 14 24  2  0  0  0  0
 14 25  1  0  0  0  0
 15 26  1  0  0  0  0
 16 26  1  0  0  0  0
 16 27  2  0  0  0  0
 16 28  1  0  0  0  0
 17 19  2  0  0  0  0
 17 33  1  0  0  0  0
 18 20  2  0  0  0  0
 18 34  1  0  0  0  0
 19 46  1  0  0  0  0
 20 35  1  0  0  0  0
 21 86  1  0  0  0  0
 22 87  1  0  0  0  0
 23 25  2  0  0  0  0
 23 86  1  0  0  0  0
 24 89  1  0  0  0  0
 25 90  1  0  0  0  0
 26 69  2  0  0  0  0
 27 70  1  0  0  0  0
 27 74  1  0  0  0  0
 28 75  1  0  0  0  0
 28 81  2  0  0  0  0
 29 47  1  0  0  0  0
 29 76  1  0  0  0  0
 29 82  2  0  0  0  0
 30 63  1  0  0  0  0
 30 71  1  0  0  0  0
 30 83  2  0  0  0  0
 31 64  1  0  0  0  0
 31 77  1  0  0  0  0
 31 84  2  0  0  0  0
 32 72  1  0  0  0  0
 32 78  1  0  0  0  0
 32 85  2  0  0  0  0
 33 36  1  0  0  0  0
 34 47  1  0  0  0  0
 35 71  1  0  0  0  0
 36 40  1  0  0  0  0
 37 38  1  0  0  0  0
 37 42  1  0  0  0  0
 38 44  1  0  0  0  0
 39 41  1  0  0  0  0
 39 43  1  0  0  0  0
 40 46  1  0  0  0  0
 41 48  1  0  0  0  0
 42 49  1  0  0  0  0
 43 72  1  0  0  0  0
 44 73  1  0  0  0  0
 45 48  1  0  0  0  0
 45 72  1  0  0  0  0
 46 76  1  0  0  0  0
 47 71  1  0  0  0  0
 48 70  1  0  0  0  0
 49 65  1  0  0  0  0
 49 73  1  0  0  0  0
 50 57  1  0  0  0  0
 51 64  1  0  0  0  0
 52 66  1  0  0  0  0
 53 68  1  0  0  0  0
 54 68  1  0  0  0  0
 55 68  1  0  0  0  0
 56 80  1  0  0  0  0
 57 61  1  0  0  0  0
 58 66  1  0  0  0  0
 58 67  1  0  0  0  0
 59 60  1  0  0  0  0
 59 73  1  0  0  0  0
 60 78  1  0  0  0  0
 61 88  1  0  0  0  0
 62 66  1  0  0  0  0
 62 87  1  0  0  0  0
 63 68  1  0  0  0  0
 63 77  1  0  0  0  0
 64 80  1  0  0  0  0
 65 67  1  0  0  0  0
 65 79  1  0  0  0  0
 67 88  1  0  0  0  0
 69 70  1  0  0  0  0
M  CHG  2  79   1  80   1
M  ISO  4  32 100  62 101  78 100  87 101
M  END
> <Batch ID>
0119

> <Smiles>
CCCOC(CC(C)[101CH2:1][101O:1]c1ccc2c(c1)CN(C(=O)C(NC(=O)C(C)NC)C(C)(C)C)C(C(=O)NC1CCCc3ccccc31)C2)C(N)C1CCCCN1CC[100NH:0][100C:0](=O)N1CCCC(n2nc(-c3ccc(Oc4ccc(F)cc4F)cc3)c(C(N)=O)c2N)C1

> <Shape>
0.232

> <Color>
0.068

> <Negative vol penalty>
0.000

$$$$

  -OEChem-04052320203D

 85 93  0     1  0  0  0  0  0999 V2000
  -27.7878  -24.5910   16.5178 C   0  0  0  0  0  0  0  0  0  0  0  0
  -26.6112  -24.8198   17.2239 C   0  0  0  0  0  0  0  0  0  0  0  0
  -25.5538  -14.0252   21.3713 C   0  0  0  0  0  0  0  0  0  0  0  0
  -23.7405  -15.2625   20.3622 C   0  0  0  0  0  0  0  0  0  0  0  0
  -29.0056  -25.0335   17.0325 C   0  0  0  0  0  0  0  0  0  0  0  0
  -26.6519  -25.4903   18.4458 C   0  0  0  0  0  0  0  0  0  0  0  0
  -23.0291  -29.0050   18.8548 C   0  0  0  0  0  0  0  0  0  0  0  0
  -24.6681  -13.0016   21.7079 C   0  0  0  0  0  0  0  0  0  0  0  0
  -22.8548  -14.2388   20.6988 C   0  0  0  0  0  0  0  0  0  0  0  0
  -21.7410  -28.5604   19.1498 C   0  0  0  0  0  0  0  0  0  0  0  0
  -22.9513   -9.9003   22.5137 C   0  0  0  0  0  0  0  0  0  0  0  0
  -23.3552   -8.5874   22.2715 C   0  0  0  0  0  0  0  0  0  0  0  0
  -22.0700  -29.1612   21.4628 C   0  0  0  0  0  0  0  0  0  0  0  0
  -21.0669  -23.9642   20.9150 C   0  0  0  0  0  0  0  0  0  0  0  0
  -23.5657   -9.0866   19.9170 C   0  0  0  0  0  0  0  0  0  0  0  0
  -19.5907  -22.2659   20.9943 C   0  0  0  0  0  0  0  0  0  0  0  0
  -25.0900  -15.1557   20.6984 C   0  0  0  0  0  0  0  0  0  0  0  0
  -26.7495  -16.3372   19.1629 C   0  0  0  0  0  0  0  0  0  0  0  0
  -29.0602  -25.7182   18.2568 C   0  0  0  0  0  0  0  0  0  0  0  0
  -23.8526  -29.5218   19.8653 C   0  0  0  0  0  0  0  0  0  0  0  0
  -27.8717  -25.9412   18.9781 C   0  0  0  0  0  0  0  0  0  0  0  0
  -23.3672  -29.6141   21.1775 C   0  0  0  0  0  0  0  0  0  0  0  0
  -19.8451  -23.4767   20.3891 C   0  0  0  0  0  0  0  0  0  0  0  0
  -23.3186  -13.1084   21.3717 C   0  0  0  0  0  0  0  0  0  0  0  0
  -21.2624  -28.6358   20.4545 C   0  0  0  0  0  0  0  0  0  0  0  0
  -22.8545  -10.8064   21.4576 C   0  0  0  0  0  0  0  0  0  0  0  0
  -23.6624   -8.1805   20.9731 C   0  0  0  0  0  0  0  0  0  0  0  0
  -23.1617  -10.3995   20.1592 C   0  0  0  0  0  0  0  0  0  0  0  0
  -26.0044  -16.2136   20.3509 C   0  0  0  0  0  0  0  0  0  0  0  0
  -21.5221  -23.0363   21.8255 C   0  0  0  0  0  0  0  0  0  0  0  0
  -27.4567  -17.5040   19.3209 C   0  0  0  0  0  0  0  0  0  0  0  0
  -26.7981  -15.4744   18.0189 C   0  0  0  0  0  0  0  0  0  0  0  0
  -26.6485  -28.6873   21.1264 C   0  0  0  0  0  0  0  0  0  0  0  0
  -26.3177  -31.4858   22.7330 C   0  0  0  0  0  0  0  0  0  0  0  0
  -24.2342  -33.9011   23.9466 C   0  0  0  0  0  0  0  0  0  0  0  0
  -26.5233  -22.4249   22.6019 C   0  0  0  0  0  0  0  0  0  0  0  0
  -30.4055  -26.1358   18.7957 C   0  0  0  0  0  0  0  0  0  0  0  0
  -25.2299  -30.0219   19.5257 C   0  0  0  0  0  0  0  0  0  0  0  0
  -24.2042  -30.1796   22.2947 C   0  0  0  0  0  0  0  0  0  0  0  0
  -30.3188  -27.1684   19.9166 C   0  0  0  0  0  0  0  0  0  0  0  0
  -29.3727  -20.2924   22.7039 C   0  0  0  0  0  0  0  0  0  0  0  0
  -29.2622  -26.7599   20.9382 C   0  0  0  0  0  0  0  0  0  0  0  0
  -28.8998  -19.0164   22.0052 C   0  0  0  0  0  0  0  0  0  0  0  0
  -28.2599  -20.9257   23.5362 C   0  0  0  0  0  0  0  0  0  0  0  0
  -26.5336  -19.9054   22.1035 C   0  0  0  0  0  0  0  0  0  0  0  0
  -27.8721  -26.6867   20.2950 C   0  0  1  0  0  0  0  0  0  0  0  0
  -26.1674  -30.0541   20.7288 C   0  0  1  0  0  0  0  0  0  0  0  0
  -27.6049  -19.2610   21.2072 C   0  0  2  0  0  0  0  0  0  0  0  0
  -24.2526  -36.0457   25.2496 C   0  0  0  0  0  0  0  0  0  0  0  0
  -17.3078  -27.1765   21.2089 C   0  0  0  0  0  0  0  0  0  0  0  0
  -26.7541  -29.9130   25.3109 C   0  0  0  0  0  0  0  0  0  0  0  0
  -25.8338  -31.8672   26.5768 C   0  0  0  0  0  0  0  0  0  0  0  0
  -27.9170  -32.1255   25.2292 C   0  0  0  0  0  0  0  0  0  0  0  0
  -20.7064  -20.8222   22.6903 C   0  0  0  0  0  0  0  0  0  0  0  0
  -23.0710  -35.4188   21.6877 C   0  0  0  0  0  0  0  0  0  0  0  0
  -18.9810  -24.1572   19.3570 C   0  0  0  0  0  0  0  0  0  0  0  0
  -17.9220  -25.0963   19.9509 C   0  0  0  0  0  0  0  0  0  0  0  0
  -23.6482  -24.0735   22.6189 C   0  0  0  0  0  0  0  0  0  0  0  0
  -24.7263  -23.7992   21.5815 C   0  0  0  0  0  0  0  0  0  0  0  0
  -19.4833  -27.1417   19.9458 C   0  0  0  0  0  0  0  0  0  1  0  0
  -25.6949  -31.8983   24.0449 C   0  0  1  0  0  0  0  0  0  0  0  0
  -24.2933  -35.4158   23.8659 C   0  0  2  0  0  0  0  0  0  0  0  0
  -18.4777  -26.3003   20.7432 C   0  0  1  0  0  0  0  0  0  0  0  0
  -26.5346  -31.4385   25.2700 C   0  0  0  0  0  0  0  0  0  0  0  0
  -26.2184  -17.2215   21.2009 N   0  0  0  0  0  0  0  0  0  0  0  0
  -20.6170  -22.0080   21.8653 N   0  0  0  0  0  0  0  0  0  0  0  0
  -27.1060  -17.9894   20.5463 N   0  0  0  0  0  0  0  0  0  0  0  0
  -25.5463  -30.6496   21.9136 N   0  0  0  0  0  0  0  0  0  0  0  0
  -27.0610  -21.1327   22.7203 N   0  0  0  0  0  0  0  0  0  0  0  0
  -28.3380  -18.1519   18.5298 N   0  0  0  0  0  0  0  0  0  0  0  0
  -26.0080  -14.3167   18.0210 N   0  0  0  0  0  0  0  0  0  0  0  0
  -22.6310  -23.0217   22.5970 N   0  0  0  0  0  0  0  0  0  0  0  0
  -27.3232  -28.0150   20.1253 N   0  0  0  0  0  0  0  0  0  0  0  0
  -25.4941  -33.3412   23.9657 N   0  0  0  0  0  0  0  0  0  0  0  0
  -25.3903  -22.5343   21.8050 N   0  0  0  0  0  0  0  0  0  0  0  0
  -23.1412  -35.9379   23.0778 N   0  3  0  0  0  0  0  0  0  0  0  0
  -27.5332  -15.7141   17.0311 O   0  0  0  0  0  0  0  0  0  0  0  0
  -26.4253  -28.2739   22.2582 O   0  0  0  0  0  0  0  0  0  0  0  0
  -27.4441  -31.8965   22.4427 O   0  0  0  0  0  0  0  0  0  0  0  0
  -23.1763  -33.2772   23.9921 O   0  0  0  0  0  0  0  0  0  0  0  0
  -27.0196  -23.4092   23.1602 O   0  0  0  0  0  0  0  0  0  0  0  0
  -22.4541  -12.1097   21.6998 O   0  0  0  0  0  0  0  0  0  0  0  0
  -20.0058  -28.2019   20.7454 O   0  0  0  0  0  0  0  0  0  1  0  0
  -24.0518   -6.9201   20.7409 F   0  0  0  0  0  0  0  0  0  0  0  0
  -23.0717  -11.2657   19.1407 F   0  0  0  0  0  0  0  0  0  0  0  0
  1  2  1  0  0  0  0
  1  5  2  0  0  0  0
  2  6  2  0  0  0  0
  3  8  2  0  0  0  0
  3 17  1  0  0  0  0
  4  9  1  0  0  0  0
  4 17  2  0  0  0  0
  5 19  1  0  0  0  0
  6 21  1  0  0  0  0
  7 10  2  0  0  0  0
  7 20  1  0  0  0  0
  8 24  1  0  0  0  0
  9 24  2  0  0  0  0
 10 25  1  0  0  0  0
 11 12  2  0  0  0  0
 11 26  1  0  0  0  0
 12 27  1  0  0  0  0
 13 22  1  0  0  0  0
 13 25  2  0  0  0  0
 14 23  1  0  0  0  0
 14 30  2  0  0  0  0
 15 27  2  0  0  0  0
 15 28  1  0  0  0  0
 16 23  2  0  0  0  0
 16 66  1  0  0  0  0
 17 29  1  0  0  0  0
 18 29  1  0  0  0  0
 18 31  2  0  0  0  0
 18 32  1  0  0  0  0
 19 21  2  0  0  0  0
 19 37  1  0  0  0  0
 20 22  2  0  0  0  0
 20 38  1  0  0  0  0
 21 46  1  0  0  0  0
 22 39  1  0  0  0  0
 23 56  1  0  0  0  0
 24 82  1  0  0  0  0
 25 83  1  0  0  0  0
 26 28  2  0  0  0  0
 26 82  1  0  0  0  0
 27 84  1  0  0  0  0
 28 85  1  0  0  0  0
 29 65  2  0  0  0  0
 30 66  1  0  0  0  0
 30 72  1  0  0  0  0
 31 67  1  0  0  0  0
 31 70  1  0  0  0  0
 32 71  1  0  0  0  0
 32 77  2  0  0  0  0
 33 47  1  0  0  0  0
 33 73  1  0  0  0  0
 33 78  2  0  0  0  0
 34 61  1  0  0  0  0
 34 68  1  0  0  0  0
 34 79  2  0  0  0  0
 35 62  1  0  0  0  0
 35 74  1  0  0  0  0
 35 80  2  0  0  0  0
 36 69  1  0  0  0  0
 36 75  1  0  0  0  0
 36 81  2  0  0  0  0
 37 40  1  0  0  0  0
 38 47  1  0  0  0  0
 39 68  1  0  0  0  0
 40 42  1  0  0  0  0
 41 43  1  0  0  0  0
 41 44  1  0  0  0  0
 42 46  1  0  0  0  0
 43 48  1  0  0  0  0
 44 69  1  0  0  0  0
 45 48  1  0  0  0  0
 45 69  1  0  0  0  0
 46 73  1  0  0  0  0
 47 68  1  0  0  0  0
 48 67  1  0  0  0  0
 49 62  1  0  0  0  0
 50 63  1  0  0  0  0
 51 64  1  0  0  0  0
 52 64  1  0  0  0  0
 53 64  1  0  0  0  0
 54 66  1  0  0  0  0
 55 76  1  0  0  0  0
 56 57  1  0  0  0  0
 57 63  1  0  0  0  0
 58 59  1  0  0  0  0
 58 72  1  0  0  0  0
 59 75  1  0  0  0  0
 60 63  1  0  0  0  0
 60 83  1  0  0  0  0
 61 64  1  0  0  0  0
 61 74  1  0  0  0  0
 62 76  1  0  0  0  0
 65 67  1  0  0  0  0
M  CHG  1  76   1
M  ISO  4  36 100  60 101  75 100  83 101
M  END
> <Batch ID>
0119

> <Smiles>
CNC(C)C(=O)NC(C(=O)N1Cc2cc([101O:1][101CH2:1]C(C)CCc3cc(NCC[100NH:0][100C:0](=O)N4CCCC(n5nc(-c6ccc(Oc7ccc(F)cc7F)cc6)c(C(N)=O)c5N)C4)n(C)c3)ccc2CC1C(=O)NC1CCCc2ccccc21)C(C)(C)C

> <Shape>
0.285

> <Color>
0.073

> <Negative vol penalty>
0.000

$$$$

  -OEChem-04052320203D

 85 94  0     1  0  0  0  0  0999 V2000
  -25.4751  -28.6364   19.0841 C   0  0  0  0  0  0  0  0  0  0  0  0
  -25.6107  -27.2557   19.1874 C   0  0  0  0  0  0  0  0  0  0  0  0
  -27.0490  -11.8539   21.0974 C   0  0  0  0  0  0  0  0  0  0  0  0
  -26.1268  -13.7000   19.8411 C   0  0  0  0  0  0  0  0  0  0  0  0
  -26.2737  -29.4743   19.8613 C   0  0  0  0  0  0  0  0  0  0  0  0
  -26.5460  -26.7121   20.0672 C   0  0  0  0  0  0  0  0  0  0  0  0
  -24.6710  -22.8498   22.7527 C   0  0  0  0  0  0  0  0  0  0  0  0
  -25.7623  -11.4634   21.4682 C   0  0  0  0  0  0  0  0  0  0  0  0
  -24.8400  -13.3095   20.2118 C   0  0  0  0  0  0  0  0  0  0  0  0
  -24.5699  -21.6169   22.1097 C   0  0  0  0  0  0  0  0  0  0  0  0
  -22.6996   -9.7687   22.4495 C   0  0  0  0  0  0  0  0  0  0  0  0
  -22.3850   -8.4122   22.3686 C   0  0  0  0  0  0  0  0  0  0  0  0
  -26.6042  -20.8952   23.1868 C   0  0  0  0  0  0  0  0  0  0  0  0
  -22.8497   -8.4458   19.9979 C   0  0  0  0  0  0  0  0  0  0  0  0
  -27.5679  -22.1749   19.1966 C   0  0  0  0  0  0  0  0  0  0  0  0
  -27.2313  -12.9723   20.2839 C   0  0  0  0  0  0  0  0  0  0  0  0
  -29.2802  -12.9628   18.7643 C   0  0  0  0  0  0  0  0  0  0  0  0
  -27.2125  -28.9405   20.7582 C   0  0  0  0  0  0  0  0  0  0  0  0
  -25.7470  -23.1190   23.6106 C   0  0  0  0  0  0  0  0  0  0  0  0
  -27.3589  -27.5436   20.8562 C   0  0  0  0  0  0  0  0  0  0  0  0
  -26.7152  -22.1314   23.8415 C   0  0  0  0  0  0  0  0  0  0  0  0
  -24.6578  -12.1912   21.0254 C   0  0  0  0  0  0  0  0  0  0  0  0
  -25.5382  -20.6404   22.3244 C   0  0  0  0  0  0  0  0  0  0  0  0
  -23.0892  -10.4638   21.3046 C   0  0  0  0  0  0  0  0  0  0  0  0
  -22.4600   -7.7508   21.1428 C   0  0  0  0  0  0  0  0  0  0  0  0
  -23.1643   -9.8023   20.0788 C   0  0  0  0  0  0  0  0  0  0  0  0
  -28.5602  -13.3765   19.9011 C   0  0  0  0  0  0  0  0  0  0  0  0
  -29.7472  -22.5682   19.7673 C   0  0  0  0  0  0  0  0  0  0  0  0
  -27.7802  -20.8195   19.3202 C   0  0  0  0  0  0  0  0  0  0  0  0
  -29.9593  -21.2128   19.8916 C   0  0  0  0  0  0  0  0  0  0  0  0
  -30.4793  -13.6261   18.8572 C   0  0  0  0  0  0  0  0  0  0  0  0
  -28.8992  -12.0598   17.7179 C   0  0  0  0  0  0  0  0  0  0  0  0
  -28.1231  -25.2302   23.6342 C   0  0  0  0  0  0  0  0  0  0  0  0
  -28.7214  -23.9398   26.5495 C   0  0  0  0  0  0  0  0  0  0  0  0
  -28.4163  -21.2708   28.6544 C   0  0  0  0  0  0  0  0  0  0  0  0
  -32.1286  -18.7092   21.5579 C   0  0  0  0  0  0  0  0  0  0  0  0
  -28.0863  -29.8867   21.5429 C   0  0  0  0  0  0  0  0  0  0  0  0
  -25.8272  -24.4443   24.3174 C   0  0  0  0  0  0  0  0  0  0  0  0
  -27.8791  -22.3633   24.7689 C   0  0  0  0  0  0  0  0  0  0  0  0
  -28.7917  -29.2261   22.7246 C   0  0  0  0  0  0  0  0  0  0  0  0
  -33.5013  -15.4655   22.0783 C   0  0  0  0  0  0  0  0  0  0  0  0
  -29.4162  -27.9006   22.3004 C   0  0  0  0  0  0  0  0  0  0  0  0
  -30.7989  -24.8913   19.3539 C   0  0  0  0  0  0  0  0  0  0  0  0
  -31.8005  -23.8759   18.8999 C   0  0  0  0  0  0  0  0  0  0  0  0
  -32.4556  -14.5249   21.4768 C   0  0  0  0  0  0  0  0  0  0  0  0
  -32.8528  -16.6681   22.7604 C   0  0  0  0  0  0  0  0  0  0  0  0
  -30.8661  -16.4860   21.3135 C   0  0  0  0  0  0  0  0  0  0  0  0
  -28.3448  -26.9156   21.8173 C   0  0  1  0  0  0  0  0  0  0  0  0
  -30.8497  -23.5410   20.0188 C   0  0  0  0  0  0  0  0  0  0  0  0
  -27.2411  -24.7954   24.7702 C   0  0  1  0  0  0  0  0  0  0  0  0
  -31.4740  -15.2868   20.5661 C   0  0  2  0  0  0  0  0  0  0  0  0
  -29.0398  -20.4983   30.9591 C   0  0  0  0  0  0  0  0  0  0  0  0
  -26.6814  -17.4293   22.1408 C   0  0  0  0  0  0  0  0  0  0  0  0
  -31.5863  -23.4653   25.6129 C   0  0  0  0  0  0  0  0  0  0  0  0
  -31.8770  -21.8818   27.5302 C   0  0  0  0  0  0  0  0  0  0  0  0
  -31.3806  -24.2873   27.9658 C   0  0  0  0  0  0  0  0  0  0  0  0
  -25.5807  -20.9637   29.4444 C   0  0  0  0  0  0  0  0  0  0  0  0
  -26.6602  -19.8430   19.0638 C   0  0  0  0  0  0  0  0  0  0  0  0
  -31.2900  -20.6631   20.2780 C   0  0  0  0  0  0  0  0  0  0  0  0
  -26.7667  -18.5492   19.8841 C   0  0  0  0  0  0  0  0  0  0  0  0
  -29.5567  -22.7899   27.0587 C   0  0  1  0  0  0  0  0  0  0  0  0
  -27.9800  -21.1770   30.1053 C   0  0  2  0  0  0  0  0  0  0  0  0
  -26.6632  -18.7602   21.3997 C   0  0  1  0  0  0  0  0  0  1  0  0
  -31.0794  -23.1021   27.0229 C   0  0  0  0  0  0  0  0  0  0  0  0
  -28.5476  -23.0736   19.4179 N   0  0  0  0  0  0  0  0  0  0  0  0
  -29.2448  -14.2359   20.6605 N   0  0  0  0  0  0  0  0  0  0  0  0
  -28.9797  -20.3141   19.6699 N   0  0  0  0  0  0  0  0  0  0  0  0
  -30.4076  -14.3676   19.9997 N   0  0  0  0  0  0  0  0  0  0  0  0
  -27.9168  -23.6774   25.4317 N   0  0  0  0  0  0  0  0  0  0  0  0
  -31.9350  -17.3474   21.8427 N   0  0  0  0  0  0  0  0  0  0  0  0
  -31.5776  -13.6416   18.0723 N   0  0  0  0  0  0  0  0  0  0  0  0
  -27.6312  -11.4656   17.7769 N   0  0  0  0  0  0  0  0  0  0  0  0
  -27.6509  -26.3306   22.9446 N   0  0  0  0  0  0  0  0  0  0  0  0
  -29.0435  -22.4691   28.3861 N   0  0  0  0  0  0  0  0  0  0  0  0
  -31.2179  -19.2741   20.6735 N   0  0  0  0  0  0  0  0  0  0  0  0
  -26.7157  -20.3958   30.2166 N   0  3  0  0  0  0  0  0  0  0  0  0
  -29.6669  -11.7752   16.7675 O   0  0  0  0  0  0  0  0  0  0  0  0
  -29.1564  -24.6139   23.4015 O   0  0  0  0  0  0  0  0  0  0  0  0
  -28.7754  -25.0285   27.1268 O   0  0  0  0  0  0  0  0  0  0  0  0
  -28.2235  -20.3696   27.8412 O   0  0  0  0  0  0  0  0  0  0  0  0
  -33.0483  -19.3711   22.0508 O   0  0  0  0  0  0  0  0  0  0  0  0
  -23.4021  -11.8103   21.3867 O   0  0  0  0  0  0  0  0  0  0  0  0
  -25.4423  -19.4364   21.6975 O   0  0  0  0  0  0  0  0  0  1  0  0
  -22.1593   -6.4478   21.0656 F   0  0  0  0  0  0  0  0  0  0  0  0
  -23.5391  -10.4645   18.9757 F   0  0  0  0  0  0  0  0  0  0  0  0
  1  2  1  0  0  0  0
  1  5  2  0  0  0  0
  2  6  2  0  0  0  0
  3  8  2  0  0  0  0
  3 16  1  0  0  0  0
  4  9  1  0  0  0  0
  4 16  2  0  0  0  0
  5 18  1  0  0  0  0
  6 20  1  0  0  0  0
  7 10  2  0  0  0  0
  7 19  1  0  0  0  0
  8 22  1  0  0  0  0
  9 22  2  0  0  0  0
 10 23  1  0  0  0  0
 11 12  2  0  0  0  0
 11 24  1  0  0  0  0
 12 25  1  0  0  0  0
 13 21  1  0  0  0  0
 13 23  2  0  0  0  0
 14 25  2  0  0  0  0
 14 26  1  0  0  0  0
 15 29  1  0  0  0  0
 15 65  2  0  0  0  0
 16 27  1  0  0  0  0
 17 27  1  0  0  0  0
 17 31  2  0  0  0  0
 17 32  1  0  0  0  0
 18 20  2  0  0  0  0
 18 37  1  0  0  0  0
 19 21  2  0  0  0  0
 19 38  1  0  0  0  0
 20 48  1  0  0  0  0
 21 39  1  0  0  0  0
 22 82  1  0  0  0  0
 23 83  1  0  0  0  0
 24 26  2  0  0  0  0
 24 82  1  0  0  0  0
 25 84  1  0  0  0  0
 26 85  1  0  0  0  0
 27 66  2  0  0  0  0
 28 30  2  0  0  0  0
 28 49  1  0  0  0  0
 28 65  1  0  0  0  0
 29 58  1  0  0  0  0
 29 67  2  0  0  0  0
 30 59  1  0  0  0  0
 30 67  1  0  0  0  0
 31 68  1  0  0  0  0
 31 71  1  0  0  0  0
 32 72  1  0  0  0  0
 32 77  2  0  0  0  0
 33 50  1  0  0  0  0
 33 73  1  0  0  0  0
 33 78  2  0  0  0  0
 34 61  1  0  0  0  0
 34 69  1  0  0  0  0
 34 79  2  0  0  0  0
 35 62  1  0  0  0  0
 35 74  1  0  0  0  0
 35 80  2  0  0  0  0
 36 70  1  0  0  0  0
 36 75  1  0  0  0  0
 36 81  2  0  0  0  0
 37 40  1  0  0  0  0
 38 50  1  0  0  0  0
 39 69  1  0  0  0  0
 40 42  1  0  0  0  0
 41 45  1  0  0  0  0
 41 46  1  0  0  0  0
 42 48  1  0  0  0  0
 43 44  1  0  0  0  0
 43 49  1  0  0  0  0
 44 49  1  0  0  0  0
 45 51  1  0  0  0  0
 46 70  1  0  0  0  0
 47 51  1  0  0  0  0
 47 70  1  0  0  0  0
 48 73  1  0  0  0  0
 50 69  1  0  0  0  0
 51 68  1  0  0  0  0
 52 62  1  0  0  0  0
 53 63  1  0  0  0  0
 54 64  1  0  0  0  0
 55 64  1  0  0  0  0
 56 64  1  0  0  0  0
 57 76  1  0  0  0  0
 58 60  1  0  0  0  0
 59 75  1  0  0  0  0
 60 63  1  0  0  0  0
 61 64  1  0  0  0  0
 61 74  1  0  0  0  0
 62 76  1  0  0  0  0
 63 83  1  0  0  0  0
 66 68  1  0  0  0  0
M  CHG  1  76   1
M  ISO  4  36 100  63 101  75 100  83 101
M  END
> <Batch ID>
0119

> <Smiles>
CNC(C)C(=O)NC(C(=O)N1Cc2cc([101O:1][101CH:1](C)CCc3cnc(C4CC4)c(C[100NH:0][100C:0](=O)N4CCCC(n5nc(-c6ccc(Oc7ccc(F)cc7F)cc6)c(C(N)=O)c5N)C4)n3)ccc2CC1C(=O)NC1CCCc2ccccc21)C(C)(C)C

> <Shape>
0.220

> <Color>
0.077

> <Negative vol penalty>
0.000

$$$$

  -OEChem-04052320203D

 84 92  0     1  0  0  0  0  0999 V2000
  -23.7640   -9.2230   21.9817 C   0  0  0  0  0  0  0  0  0  0  0  0
  -24.9827   -9.8830   21.8618 C   0  0  0  0  0  0  0  0  0  0  0  0
  -22.9365  -28.0951   23.1623 C   0  0  0  0  0  0  0  0  0  0  0  0
  -23.4587  -29.6885   21.4229 C   0  0  0  0  0  0  0  0  0  0  0  0
  -22.5840   -9.8681   21.6138 C   0  0  0  0  0  0  0  0  0  0  0  0
  -25.0223  -11.1883   21.3729 C   0  0  0  0  0  0  0  0  0  0  0  0
  -28.6849  -17.3045   22.0757 C   0  0  0  0  0  0  0  0  0  0  0  0
  -21.7635  -28.7930   23.4495 C   0  0  0  0  0  0  0  0  0  0  0  0
  -22.2857  -30.3864   21.7101 C   0  0  0  0  0  0  0  0  0  0  0  0
  -29.3524  -18.2549   21.3044 C   0  0  0  0  0  0  0  0  0  0  0  0
  -18.6533  -29.0773   22.1537 C   0  0  0  0  0  0  0  0  0  0  0  0
  -17.4858  -28.3359   22.3350 C   0  0  0  0  0  0  0  0  0  0  0  0
  -27.2428  -19.2977   20.7744 C   0  0  0  0  0  0  0  0  0  0  0  0
  -29.3967  -21.9449   17.0715 C   0  0  0  0  0  0  0  0  0  0  0  0
  -17.2805  -29.2078   24.5788 C   0  0  0  0  0  0  0  0  0  0  0  0
  -23.7842  -28.5428   22.1490 C   0  0  0  0  0  0  0  0  0  0  0  0
  -25.1552  -26.7679   20.9334 C   0  0  0  0  0  0  0  0  0  0  0  0
  -22.6082  -11.1854   21.1292 C   0  0  0  0  0  0  0  0  0  0  0  0
  -27.2879  -17.3372   22.1935 C   0  0  0  0  0  0  0  0  0  0  0  0
  -23.8417  -11.8512   20.9969 C   0  0  0  0  0  0  0  0  0  0  0  0
  -26.5601  -18.3482   21.5498 C   0  0  0  0  0  0  0  0  0  0  0  0
  -29.3679  -22.0754   18.4555 C   0  0  0  0  0  0  0  0  0  0  0  0
  -30.1583  -23.0377   19.0740 C   0  0  0  0  0  0  0  0  0  0  0  0
  -21.4380  -29.9387   22.7234 C   0  0  0  0  0  0  0  0  0  0  0  0
  -28.6311  -19.2500   20.6513 C   0  0  0  0  0  0  0  0  0  0  0  0
  -19.1345  -29.8838   23.1851 C   0  0  0  0  0  0  0  0  0  0  0  0
  -16.7994  -28.4012   23.5475 C   0  0  0  0  0  0  0  0  0  0  0  0
  -18.4481  -29.9491   24.3976 C   0  0  0  0  0  0  0  0  0  0  0  0
  -24.9963  -27.8226   21.8522 C   0  0  0  0  0  0  0  0  0  0  0  0
  -30.2260  -22.7943   16.3571 C   0  0  0  0  0  0  0  0  0  0  0  0
  -30.9537  -23.8381   18.2700 C   0  0  0  0  0  0  0  0  0  0  0  0
  -26.4838  -26.4316   21.0231 C   0  0  0  0  0  0  0  0  0  0  0  0
  -24.1882  -26.1477   20.0755 C   0  0  0  0  0  0  0  0  0  0  0  0
  -24.9244  -15.3590   21.4160 C   0  0  0  0  0  0  0  0  0  0  0  0
  -23.1047  -17.5431   22.9782 C   0  0  0  0  0  0  0  0  0  0  0  0
  -22.7279  -20.7574   24.0614 C   0  0  0  0  0  0  0  0  0  0  0  0
  -31.8630  -27.8876   21.3238 C   0  0  0  0  0  0  0  0  0  0  0  0
  -21.3115  -11.8248   20.6996 C   0  0  0  0  0  0  0  0  0  0  0  0
  -26.5851  -16.3207   23.0510 C   0  0  0  0  0  0  0  0  0  0  0  0
  -25.0608  -18.4393   21.6607 C   0  0  0  0  0  0  0  0  0  0  0  0
  -21.4022  -13.3405   20.5432 C   0  0  0  0  0  0  0  0  0  0  0  0
  -30.0145  -27.8262   24.3662 C   0  0  0  0  0  0  0  0  0  0  0  0
  -22.6535  -13.7223   19.7588 C   0  0  0  0  0  0  0  0  0  0  0  0
  -28.5578  -27.7392   23.9074 C   0  0  0  0  0  0  0  0  0  0  0  0
  -30.8489  -28.7005   23.4327 C   0  0  0  0  0  0  0  0  0  0  0  0
  -29.3283  -28.2355   21.5498 C   0  0  0  0  0  0  0  0  0  0  0  0
  -23.9231  -13.2762   20.4940 C   0  0  1  0  0  0  0  0  0  0  0  0
  -25.1152  -16.1429   22.6836 C   0  0  1  0  0  0  0  0  0  0  0  0
  -28.4598  -27.3191   22.4285 C   0  0  2  0  0  0  0  0  0  0  0  0
  -30.1398  -23.1929   20.5591 C   0  0  0  0  0  0  0  0  0  0  0  0
  -30.2818  -22.6833   14.8700 C   0  0  0  0  0  0  0  0  0  0  0  0
  -21.1185  -22.2507   25.2768 C   0  0  0  0  0  0  0  0  0  0  0  0
  -33.3199  -28.2615   18.4308 C   0  0  0  0  0  0  0  0  0  0  0  0
  -21.3574  -17.6884   20.4810 C   0  0  0  0  0  0  0  0  0  0  0  0
  -20.3859  -19.8180   21.3695 C   0  0  0  0  0  0  0  0  0  0  0  0
  -20.0944  -17.6909   22.6395 C   0  0  0  0  0  0  0  0  0  0  0  0
  -24.6806  -21.3011   26.2178 C   0  0  0  0  0  0  0  0  0  0  0  0
  -28.4787  -21.1697   19.2557 C   0  0  0  0  0  0  0  0  0  1  0  0
  -32.2852  -25.9468   18.1917 C   0  0  0  0  0  0  0  0  0  0  0  0
  -22.3662  -18.7989   22.5823 C   0  0  1  0  0  0  0  0  0  0  0  0
  -22.3178  -21.3249   25.4083 C   0  0  2  0  0  0  0  0  0  0  0  0
  -32.7278  -27.0544   19.1519 C   0  0  2  0  0  0  0  0  0  0  0  0
  -21.0791  -18.4965   21.7642 C   0  0  0  0  0  0  0  0  0  0  0  0
  -26.1332  -28.1356   22.4796 N   0  0  0  0  0  0  0  0  0  0  0  0
  -31.0081  -23.7409   16.9226 N   0  0  0  0  0  0  0  0  0  0  0  0
  -27.0191  -27.2724   21.9542 N   0  0  0  0  0  0  0  0  0  0  0  0
  -24.4188  -17.4187   22.5056 N   0  0  0  0  0  0  0  0  0  0  0  0
  -30.7134  -28.2483   22.0459 N   0  0  0  0  0  0  0  0  0  0  0  0
  -27.2348  -25.5017   20.3956 N   0  0  0  0  0  0  0  0  0  0  0  0
  -22.8676  -26.6159   20.1089 N   0  0  0  0  0  0  0  0  0  0  0  0
  -31.7622  -24.8208   18.8941 N   0  0  0  0  0  0  0  0  0  0  0  0
  -24.2209  -14.1815   21.5831 N   0  0  0  0  0  0  0  0  0  0  0  0
  -22.1294  -19.5395   23.8167 N   0  0  0  0  0  0  0  0  0  0  0  0
  -31.6452  -27.4643   20.0184 N   0  0  0  0  0  0  0  0  0  0  0  0
  -23.4426  -22.0955   26.0099 N   0  3  0  0  0  0  0  0  0  0  0  0
  -24.4828  -25.1953   19.3141 O   0  0  0  0  0  0  0  0  0  0  0  0
  -25.3804  -15.7913   20.3639 O   0  0  0  0  0  0  0  0  0  0  0  0
  -22.5389  -16.7068   23.6869 O   0  0  0  0  0  0  0  0  0  0  0  0
  -23.4989  -21.3382   23.3007 O   0  0  0  0  0  0  0  0  0  0  0  0
  -32.9987  -27.9339   21.8084 O   0  0  0  0  0  0  0  0  0  0  0  0
  -20.2934  -30.6198   23.0033 O   0  0  0  0  0  0  0  0  0  0  0  0
  -29.2802  -20.1785   19.8973 O   0  0  0  0  0  0  0  0  0  1  0  0
  -15.6773  -27.6904   23.7209 F   0  0  0  0  0  0  0  0  0  0  0  0
  -18.9049  -30.7231   25.3916 F   0  0  0  0  0  0  0  0  0  0  0  0
  1  2  1  0  0  0  0
  1  5  2  0  0  0  0
  2  6  2  0  0  0  0
  3  8  2  0  0  0  0
  3 16  1  0  0  0  0
  4  9  1  0  0  0  0
  4 16  2  0  0  0  0
  5 18  1  0  0  0  0
  6 20  1  0  0  0  0
  7 10  2  0  0  0  0
  7 19  1  0  0  0  0
  8 24  1  0  0  0  0
  9 24  2  0  0  0  0
 10 25  1  0  0  0  0
 11 12  2  0  0  0  0
 11 26  1  0  0  0  0
 12 27  1  0  0  0  0
 13 21  1  0  0  0  0
 13 25  2  0  0  0  0
 14 22  1  0  0  0  0
 14 30  2  0  0  0  0
 15 27  2  0  0  0  0
 15 28  1  0  0  0  0
 16 29  1  0  0  0  0
 17 29  1  0  0  0  0
 17 32  2  0  0  0  0
 17 33  1  0  0  0  0
 18 20  2  0  0  0  0
 18 38  1  0  0  0  0
 19 21  2  0  0  0  0
 19 39  1  0  0  0  0
 20 47  1  0  0  0  0
 21 40  1  0  0  0  0
 22 23  2  0  0  0  0
 22 58  1  0  0  0  0
 23 31  1  0  0  0  0
 23 50  1  0  0  0  0
 24 81  1  0  0  0  0
 25 82  1  0  0  0  0
 26 28  2  0  0  0  0
 26 81  1  0  0  0  0
 27 83  1  0  0  0  0
 28 84  1  0  0  0  0
 29 64  2  0  0  0  0
 30 51  1  0  0  0  0
 30 65  1  0  0  0  0
 31 65  2  0  0  0  0
 31 71  1  0  0  0  0
 32 66  1  0  0  0  0
 32 69  1  0  0  0  0
 33 70  1  0  0  0  0
 33 76  2  0  0  0  0
 34 48  1  0  0  0  0
 34 72  1  0  0  0  0
 34 77  2  0  0  0  0
 35 60  1  0  0  0  0
 35 67  1  0  0  0  0
 35 78  2  0  0  0  0
 36 61  1  0  0  0  0
 36 73  1  0  0  0  0
 36 79  2  0  0  0  0
 37 68  1  0  0  0  0
 37 74  1  0  0  0  0
 37 80  2  0  0  0  0
 38 41  1  0  0  0  0
 39 48  1  0  0  0  0
 40 67  1  0  0  0  0
 41 43  1  0  0  0  0
 42 44  1  0  0  0  0
 42 45  1  0  0  0  0
 43 47  1  0  0  0  0
 44 49  1  0  0  0  0
 45 68  1  0  0  0  0
 46 49  1  0  0  0  0
 46 68  1  0  0  0  0
 47 72  1  0  0  0  0
 48 67  1  0  0  0  0
 49 66  1  0  0  0  0
 52 61  1  0  0  0  0
 53 62  1  0  0  0  0
 54 63  1  0  0  0  0
 55 63  1  0  0  0  0
 56 63  1  0  0  0  0
 57 75  1  0  0  0  0
 58 82  1  0  0  0  0
 59 62  1  0  0  0  0
 59 71  1  0  0  0  0
 60 63  1  0  0  0  0
 60 73  1  0  0  0  0
 61 75  1  0  0  0  0
 62 74  1  0  0  0  0
 64 66  1  0  0  0  0
M  CHG  1  75   1
M  ISO  4  37 100  58 101  74 100  82 101
M  END
> <Batch ID>
0119

> <Smiles>
CNC(C)C(=O)NC(C(=O)N1Cc2cc([101O:1][101CH2:1]c3cc(C)nc(NCC(C)[100NH:0][100C:0](=O)N4CCCC(n5nc(-c6ccc(Oc7ccc(F)cc7F)cc6)c(C(N)=O)c5N)C4)c3C)ccc2CC1C(=O)NC1CCCc2ccccc21)C(C)(C)C

> <Shape>
0.217

> <Color>
0.052

> <Negative vol penalty>
0.000

$$$$

  -OEChem-04052320203D

 83 91  0     1  0  0  0  0  0999 V2000
  -23.4653  -23.0491   18.3159 C   0  0  0  0  0  0  0  0  0  0  0  0
  -22.7064  -24.1457   18.7120 C   0  0  0  0  0  0  0  0  0  0  0  0
  -23.7534  -14.6795   19.8847 C   0  0  0  0  0  0  0  0  0  0  0  0
  -24.9555  -14.2447   21.9348 C   0  0  0  0  0  0  0  0  0  0  0  0
  -24.6664  -22.7635   18.9637 C   0  0  0  0  0  0  0  0  0  0  0  0
  -23.1477  -24.9568   19.7569 C   0  0  0  0  0  0  0  0  0  0  0  0
  -22.6783  -29.8909   18.7179 C   0  0  0  0  0  0  0  0  0  0  0  0
  -24.6519  -13.8727   19.1866 C   0  0  0  0  0  0  0  0  0  0  0  0
  -25.8541  -13.4379   21.2367 C   0  0  0  0  0  0  0  0  0  0  0  0
  -21.4053  -30.4475   18.8331 C   0  0  0  0  0  0  0  0  0  0  0  0
  -28.5385  -13.8607   19.2253 C   0  0  0  0  0  0  0  0  0  0  0  0
  -29.8980  -14.0248   19.4907 C   0  0  0  0  0  0  0  0  0  0  0  0
  -21.9967  -31.3374   20.9959 C   0  0  0  0  0  0  0  0  0  0  0  0
  -30.0380  -11.7190   20.1985 C   0  0  0  0  0  0  0  0  0  0  0  0
  -20.4893  -23.8598   24.0938 C   0  0  0  0  0  0  0  0  0  0  0  0
  -19.4565  -24.2052   22.1834 C   0  0  0  0  0  0  0  0  0  0  0  0
  -23.9052  -14.8656   21.2587 C   0  0  0  0  0  0  0  0  0  0  0  0
  -19.9835  -23.2002   22.9575 C   0  0  0  0  0  0  0  0  0  0  0  0
  -21.7782  -15.2987   22.5989 C   0  0  0  0  0  0  0  0  0  0  0  0
  -25.1274  -23.5770   20.0107 C   0  0  0  0  0  0  0  0  0  0  0  0
  -23.6181  -30.0443   19.7473 C   0  0  0  0  0  0  0  0  0  0  0  0
  -24.3555  -24.6810   20.4202 C   0  0  0  0  0  0  0  0  0  0  0  0
  -23.2818  -30.7839   20.8902 C   0  0  0  0  0  0  0  0  0  0  0  0
  -25.7022  -13.2519   19.8626 C   0  0  0  0  0  0  0  0  0  0  0  0
  -21.0633  -31.1684   19.9735 C   0  0  0  0  0  0  0  0  0  0  0  0
  -27.9287  -12.6258   19.4466 C   0  0  0  0  0  0  0  0  0  0  0  0
  -30.6478  -12.9540   19.9773 C   0  0  0  0  0  0  0  0  0  0  0  0
  -28.6785  -11.5550   19.9332 C   0  0  0  0  0  0  0  0  0  0  0  0
  -22.9776  -15.6993   21.9803 C   0  0  0  0  0  0  0  0  0  0  0  0
  -21.2701  -16.4531   23.1427 C   0  0  0  0  0  0  0  0  0  0  0  0
  -19.9925  -21.7701   22.6259 C   0  0  0  0  0  0  0  0  0  0  0  0
  -21.1771  -13.9993   22.6752 C   0  0  0  0  0  0  0  0  0  0  0  0
  -25.1692  -28.0567   21.6831 C   0  0  0  0  0  0  0  0  0  0  0  0
  -26.7059  -30.7643   22.5942 C   0  0  0  0  0  0  0  0  0  0  0  0
  -26.6716  -34.1669   22.8556 C   0  0  0  0  0  0  0  0  0  0  0  0
  -26.4086  -23.2009   20.7121 C   0  0  0  0  0  0  0  0  0  0  0  0
  -24.9959  -29.4603   19.5960 C   0  0  0  0  0  0  0  0  0  0  0  0
  -24.2612  -30.9947   22.0148 C   0  0  0  0  0  0  0  0  0  0  0  0
  -26.9911  -24.3274   21.5618 C   0  0  0  0  0  0  0  0  0  0  0  0
  -23.3607  -21.0159   23.7453 C   0  0  0  0  0  0  0  0  0  0  0  0
  -25.9017  -24.9724   22.4127 C   0  0  0  0  0  0  0  0  0  0  0  0
  -23.4643  -19.5264   23.4148 C   0  0  0  0  0  0  0  0  0  0  0  0
  -22.5392  -21.7617   22.6982 C   0  0  0  0  0  0  0  0  0  0  0  0
  -21.2732  -19.7093   22.1519 C   0  0  0  0  0  0  0  0  0  0  0  0
  -24.8130  -25.5988   21.5330 C   0  0  1  0  0  0  0  0  0  0  0  0
  -25.7026  -29.2428   20.9305 C   0  0  1  0  0  0  0  0  0  0  0  0
  -22.0720  -18.9069   23.1936 C   0  0  1  0  0  0  0  0  0  0  0  0
  -28.0539  -36.0935   23.6769 C   0  0  0  0  0  0  0  0  0  0  0  0
  -16.7668  -26.5946   22.4581 C   0  0  0  0  0  0  0  0  0  0  0  0
  -25.9580  -30.0717   25.4701 C   0  0  0  0  0  0  0  0  0  0  0  0
  -26.5050  -32.4304   26.1068 C   0  0  0  0  0  0  0  0  0  0  0  0
  -28.2826  -30.9468   25.1786 C   0  0  0  0  0  0  0  0  0  0  0  0
  -26.8252  -35.3600   20.1515 C   0  0  0  0  0  0  0  0  0  0  0  0
  -17.4635  -31.2871   20.2046 C   0  0  0  0  0  0  0  0  0  0  0  0
  -19.2762  -26.7511   22.4418 C   0  0  0  0  0  0  0  0  0  0  0  0
  -17.5147  -30.8153   21.6500 C   0  0  0  0  0  0  0  0  0  0  0  0
  -17.8413  -28.8034   23.0936 C   0  0  0  0  0  0  0  0  0  0  0  0
  -18.7517  -31.0341   19.4311 C   0  0  0  0  0  0  0  0  0  1  0  0
  -26.4739  -31.8233   23.6448 C   0  0  1  0  0  0  0  0  0  0  0  0
  -27.7042  -35.2160   22.4851 C   0  0  2  0  0  0  0  0  0  0  0  0
  -17.9816  -27.2731   23.1024 C   0  0  1  0  0  0  0  0  0  0  0  0
  -26.7856  -31.3126   25.0799 C   0  0  0  0  0  0  0  0  0  0  0  0
  -20.3005  -25.1813   24.0497 N   0  0  0  0  0  0  0  0  0  0  0  0
  -23.2172  -17.0061   22.1176 N   0  0  0  0  0  0  0  0  0  0  0  0
  -19.6705  -25.3605   22.8763 N   0  0  0  0  0  0  0  0  0  0  0  0
  -22.1612  -17.4367   22.8286 N   0  0  0  0  0  0  0  0  0  0  0  0
  -21.2276  -21.1262   22.5187 N   0  0  0  0  0  0  0  0  0  0  0  0
  -25.5937  -30.3988   21.8227 N   0  0  0  0  0  0  0  0  0  0  0  0
  -20.1525  -16.7126   23.8539 N   0  0  0  0  0  0  0  0  0  0  0  0
  -21.8324  -12.9229   22.0618 N   0  0  0  0  0  0  0  0  0  0  0  0
  -25.2649  -26.8633   20.9932 N   0  0  0  0  0  0  0  0  0  0  0  0
  -27.2626  -32.9813   23.2383 N   0  0  0  0  0  0  0  0  0  0  0  0
  -27.1868  -36.0895   21.3941 N   0  3  0  0  0  0  0  0  0  0  0  0
  -17.7210  -29.3494   21.7134 N   0  3  0  0  0  0  0  0  0  0  0  0
  -18.8921  -21.2410   22.4762 O   0  0  0  0  0  0  0  0  0  0  0  0
  -20.0828  -13.8016   23.2557 O   0  0  0  0  0  0  0  0  0  0  0  0
  -24.7067  -28.2126   22.8071 O   0  0  0  0  0  0  0  0  0  0  0  0
  -27.8341  -30.2844   22.4581 O   0  0  0  0  0  0  0  0  0  0  0  0
  -25.4617  -34.3790   22.8135 O   0  0  0  0  0  0  0  0  0  0  0  0
  -26.5791  -12.4644   19.1818 O   0  0  0  0  0  0  0  0  0  0  0  0
  -19.8212  -31.7123   20.0888 O   0  0  0  0  0  0  0  0  0  1  0  0
  -31.9536  -13.1112   20.2307 F   0  0  0  0  0  0  0  0  0  0  0  0
  -28.0985  -10.3659   20.1466 F   0  0  0  0  0  0  0  0  0  0  0  0
  1  2  1  0  0  0  0
  1  5  2  0  0  0  0
  2  6  2  0  0  0  0
  3  8  2  0  0  0  0
  3 17  1  0  0  0  0
  4  9  1  0  0  0  0
  4 17  2  0  0  0  0
  5 20  1  0  0  0  0
  6 22  1  0  0  0  0
  7 10  2  0  0  0  0
  7 21  1  0  0  0  0
  8 24  1  0  0  0  0
  9 24  2  0  0  0  0
 10 25  1  0  0  0  0
 11 12  2  0  0  0  0
 11 26  1  0  0  0  0
 12 27  1  0  0  0  0
 13 23  1  0  0  0  0
 13 25  2  0  0  0  0
 14 27  2  0  0  0  0
 14 28  1  0  0  0  0
 15 18  1  0  0  0  0
 15 63  2  0  0  0  0
 16 18  2  0  0  0  0
 16 65  1  0  0  0  0
 17 29  1  0  0  0  0
 18 31  1  0  0  0  0
 19 29  1  0  0  0  0
 19 30  2  0  0  0  0
 19 32  1  0  0  0  0
 20 22  2  0  0  0  0
 20 36  1  0  0  0  0
 21 23  2  0  0  0  0
 21 37  1  0  0  0  0
 22 45  1  0  0  0  0
 23 38  1  0  0  0  0
 24 80  1  0  0  0  0
 25 81  1  0  0  0  0
 26 28  2  0  0  0  0
 26 80  1  0  0  0  0
 27 82  1  0  0  0  0
 28 83  1  0  0  0  0
 29 64  2  0  0  0  0
 30 66  1  0  0  0  0
 30 69  1  0  0  0  0
 31 67  1  0  0  0  0
 31 75  2  0  0  0  0
 32 70  1  0  0  0  0
 32 76  2  0  0  0  0
 33 46  1  0  0  0  0
 33 71  1  0  0  0  0
 33 77  2  0  0  0  0
 34 59  1  0  0  0  0
 34 68  1  0  0  0  0
 34 78  2  0  0  0  0
 35 60  1  0  0  0  0
 35 72  1  0  0  0  0
 35 79  2  0  0  0  0
 36 39  1  0  0  0  0
 37 46  1  0  0  0  0
 38 68  1  0  0  0  0
 39 41  1  0  0  0  0
 40 42  1  0  0  0  0
 40 43  1  0  0  0  0
 41 45  1  0  0  0  0
 42 47  1  0  0  0  0
 43 67  1  0  0  0  0
 44 47  1  0  0  0  0
 44 67  1  0  0  0  0
 45 71  1  0  0  0  0
 46 68  1  0  0  0  0
 47 66  1  0  0  0  0
 48 60  1  0  0  0  0
 49 61  1  0  0  0  0
 50 62  1  0  0  0  0
 51 62  1  0  0  0  0
 52 62  1  0  0  0  0
 53 73  1  0  0  0  0
 54 56  1  0  0  0  0
 54 58  1  0  0  0  0
 55 61  1  0  0  0  0
 55 65  1  0  0  0  0
 56 74  1  0  0  0  0
 57 61  1  0  0  0  0
 57 74  1  0  0  0  0
 58 81  1  0  0  0  0
 59 62  1  0  0  0  0
 59 72  1  0  0  0  0
 60 73  1  0  0  0  0
 63 65  1  0  0  0  0
 64 66  1  0  0  0  0
M  CHG  2  73   1  74   1
M  ISO  4  18 100  31 100  58 101  81 101
M  END
> <Batch ID>
0119

> <Smiles>
CNC(C)C(=O)NC(C(=O)N1Cc2cc([101O:1][101CH2:1]CCNCC(C)Cn3c[100c:0]([100C:0](=O)N4CCCC(n5nc(-c6ccc(Oc7ccc(F)cc7F)cc6)c(C(N)=O)c5N)C4)cn3)ccc2CC1C(=O)NC1CCCc2ccccc21)C(C)(C)C

> <Shape>
0.218

> <Color>
0.078

> <Negative vol penalty>
0.000

$$$$

  -OEChem-04052320203D

 85 93  0     1  0  0  0  0  0999 V2000
  -27.9117  -29.2053   29.5288 C   0  0  0  0  0  0  0  0  0  0  0  0
  -28.7333  -28.6936   28.5295 C   0  0  0  0  0  0  0  0  0  0  0  0
  -22.9788  -10.0530   19.8893 C   0  0  0  0  0  0  0  0  0  0  0  0
  -23.8621   -9.7753   22.1209 C   0  0  0  0  0  0  0  0  0  0  0  0
  -26.5605  -28.8633   29.5619 C   0  0  0  0  0  0  0  0  0  0  0  0
  -28.2042  -27.8386   27.5633 C   0  0  0  0  0  0  0  0  0  0  0  0
  -28.9525  -26.0693   20.6621 C   0  0  0  0  0  0  0  0  0  0  0  0
  -22.2069   -8.9026   20.0517 C   0  0  0  0  0  0  0  0  0  0  0  0
  -23.0901   -8.6249   22.2832 C   0  0  0  0  0  0  0  0  0  0  0  0
  -29.1350  -24.9503   19.8508 C   0  0  0  0  0  0  0  0  0  0  0  0
  -23.2256   -5.3805   21.3419 C   0  0  0  0  0  0  0  0  0  0  0  0
  -23.8403   -4.2615   21.9035 C   0  0  0  0  0  0  0  0  0  0  0  0
  -26.7693  -24.4919   19.9612 C   0  0  0  0  0  0  0  0  0  0  0  0
  -28.6687  -20.7269   18.5535 C   0  0  0  0  0  0  0  0  0  0  0  0
  -22.2420   -4.2927   23.7150 C   0  0  0  0  0  0  0  0  0  0  0  0
  -28.8101  -20.6793   21.2779 C   0  0  0  0  0  0  0  0  0  0  0  0
  -23.8065  -10.4893   20.9239 C   0  0  0  0  0  0  0  0  0  0  0  0
  -24.2357  -12.9999   21.0673 C   0  0  0  0  0  0  0  0  0  0  0  0
  -26.0125  -28.0114   28.5900 C   0  0  0  0  0  0  0  0  0  0  0  0
  -27.6765  -26.4023   21.1388 C   0  0  0  0  0  0  0  0  0  0  0  0
  -26.8447  -27.4838   27.5842 C   0  0  0  0  0  0  0  0  0  0  0  0
  -26.5728  -25.6171   20.7763 C   0  0  0  0  0  0  0  0  0  0  0  0
  -28.9353  -19.5260   19.2017 C   0  0  0  0  0  0  0  0  0  0  0  0
  -29.0096  -19.4934   20.5899 C   0  0  0  0  0  0  0  0  0  0  0  0
  -22.2626   -8.1886   21.2486 C   0  0  0  0  0  0  0  0  0  0  0  0
  -28.0438  -24.1597   19.5025 C   0  0  0  0  0  0  0  0  0  0  0  0
  -22.1190   -5.9556   21.9668 C   0  0  0  0  0  0  0  0  0  0  0  0
  -23.3485   -3.7176   23.0901 C   0  0  0  0  0  0  0  0  0  0  0  0
  -21.6272   -5.4117   23.1533 C   0  0  0  0  0  0  0  0  0  0  0  0
  -24.6045  -11.6773   20.7566 C   0  0  0  0  0  0  0  0  0  0  0  0
  -28.4855  -21.8579   19.3327 C   0  0  0  0  0  0  0  0  0  1  0  0
  -25.3338  -13.7515   20.7271 C   0  0  0  0  0  0  0  0  0  0  0  0
  -23.0101  -13.5039   21.6146 C   0  0  0  0  0  0  0  0  0  0  0  0
  -26.3524  -26.6532   24.0176 C   0  0  0  0  0  0  0  0  0  0  0  0
  -23.8208  -27.7736   22.3269 C   0  0  0  0  0  0  0  0  0  0  0  0
  -22.1480  -27.8970   19.3548 C   0  0  0  0  0  0  0  0  0  0  0  0
  -30.8540  -14.5714   20.7083 C   0  0  0  0  0  0  0  0  0  0  0  0
  -24.5564  -27.6325   28.6945 C   0  0  0  0  0  0  0  0  0  0  0  0
  -27.4923  -27.6279   21.9911 C   0  0  0  0  0  0  0  0  0  0  0  0
  -25.1792  -25.9432   21.2452 C   0  0  0  0  0  0  0  0  0  0  0  0
  -23.9934  -27.0190   27.4151 C   0  0  0  0  0  0  0  0  0  0  0  0
  -29.4997  -12.5105   18.1402 C   0  0  0  0  0  0  0  0  0  0  0  0
  -24.9448  -25.9600   26.8672 C   0  0  0  0  0  0  0  0  0  0  0  0
  -28.0779  -12.2143   18.6206 C   0  0  0  0  0  0  0  0  0  0  0  0
  -30.4884  -12.5646   19.3028 C   0  0  0  0  0  0  0  0  0  0  0  0
  -28.6936  -13.1919   20.8709 C   0  0  0  0  0  0  0  0  0  0  0  0
  -26.3025  -26.5731   26.5039 C   0  0  1  0  0  0  0  0  0  0  0  0
  -26.2265  -27.5796   22.8414 C   0  0  1  0  0  0  0  0  0  0  0  0
  -27.6510  -13.1829   19.7399 C   0  0  2  0  0  0  0  0  0  0  0  0
  -20.0902  -28.8621   18.2912 C   0  0  0  0  0  0  0  0  0  0  0  0
  -26.8255  -16.4983   15.7910 C   0  0  0  0  0  0  0  0  0  0  0  0
  -29.3055  -16.8188   15.7056 C   0  0  0  0  0  0  0  0  0  0  0  0
  -22.1119  -25.6730   23.7329 C   0  0  0  0  0  0  0  0  0  0  0  0
  -20.3542  -26.0353   21.9872 C   0  0  0  0  0  0  0  0  0  0  0  0
  -21.0230  -27.9112   23.4894 C   0  0  0  0  0  0  0  0  0  0  0  0
  -23.7428  -29.4379   17.3949 C   0  0  0  0  0  0  0  0  0  0  0  0
  -29.1372  -18.2887   18.3916 C   0  0  0  0  0  0  0  0  0  0  0  0
  -29.2913  -18.2348   21.3348 C   0  0  0  0  0  0  0  0  0  0  0  0
  -27.9168  -17.9736   17.5074 C   0  0  0  0  0  0  0  0  0  0  0  0
  -30.7788  -17.8282   21.3651 C   0  0  0  0  0  0  0  0  0  0  0  0
  -31.0676  -16.5641   22.1720 C   0  0  0  0  0  0  0  0  0  0  0  0
  -22.6105  -27.1500   21.6748 C   0  0  1  0  0  0  0  0  0  0  0  0
  -21.5716  -29.0623   18.5710 C   0  0  2  0  0  0  0  0  0  0  0  0
  -28.0885  -16.7220   16.6266 C   0  0  0  0  0  0  0  0  0  0  0  0
  -21.5513  -26.6848   22.7137 C   0  0  0  0  0  0  0  0  0  0  0  0
  -28.5492  -21.8650   20.6831 N   0  0  0  0  0  0  0  0  0  0  0  0
  -25.8402  -11.5904   20.2572 N   0  0  0  0  0  0  0  0  0  0  0  0
  -26.2575  -12.8678   20.2515 N   0  0  0  0  0  0  0  0  0  0  0  0
  -25.0514  -27.1480   22.0817 N   0  0  0  0  0  0  0  0  0  0  0  0
  -30.0258  -13.5022   20.3288 N   0  0  0  0  0  0  0  0  0  0  0  0
  -25.5897  -15.0754   20.7913 N   0  0  0  0  0  0  0  0  0  0  0  0
  -21.9847  -12.5942   21.9065 N   0  0  0  0  0  0  0  0  0  0  0  0
  -26.2177  -27.2779   25.2428 N   0  0  0  0  0  0  0  0  0  0  0  0
  -22.1148  -28.1291   20.7136 N   0  0  0  0  0  0  0  0  0  0  0  0
  -30.3368  -15.4165   21.6824 N   0  0  0  0  0  0  0  0  0  0  0  0
  -22.2800  -29.2114   17.2684 N   0  3  0  0  0  0  0  0  0  0  0  0
  -22.8236  -14.7268   21.8229 O   0  0  0  0  0  0  0  0  0  0  0  0
  -26.5551  -25.4596   23.8276 O   0  0  0  0  0  0  0  0  0  0  0  0
  -23.6806  -28.7828   23.0222 O   0  0  0  0  0  0  0  0  0  0  0  0
  -22.5809  -26.8808   18.8158 O   0  0  0  0  0  0  0  0  0  0  0  0
  -31.9694  -14.7619   20.2117 O   0  0  0  0  0  0  0  0  0  0  0  0
  -21.5093   -7.0661   21.4075 O   0  0  0  0  0  0  0  0  0  0  0  0
  -28.2193  -23.0666   18.7113 O   0  0  0  0  0  0  0  0  0  1  0  0
  -23.9380   -2.6420   23.6285 F   0  0  0  0  0  0  0  0  0  0  0  0
  -20.5638   -5.9592   23.7577 F   0  0  0  0  0  0  0  0  0  0  0  0
  1  2  1  0  0  0  0
  1  5  2  0  0  0  0
  2  6  2  0  0  0  0
  3  8  2  0  0  0  0
  3 17  1  0  0  0  0
  4  9  1  0  0  0  0
  4 17  2  0  0  0  0
  5 19  1  0  0  0  0
  6 21  1  0  0  0  0
  7 10  2  0  0  0  0
  7 20  1  0  0  0  0
  8 25  1  0  0  0  0
  9 25  2  0  0  0  0
 10 26  1  0  0  0  0
 11 12  2  0  0  0  0
 11 27  1  0  0  0  0
 12 28  1  0  0  0  0
 13 22  1  0  0  0  0
 13 26  2  0  0  0  0
 14 23  2  0  0  0  0
 14 31  1  0  0  0  0
 15 28  2  0  0  0  0
 15 29  1  0  0  0  0
 16 24  2  0  0  0  0
 16 66  1  0  0  0  0
 17 30  1  0  0  0  0
 18 30  1  0  0  0  0
 18 32  2  0  0  0  0
 18 33  1  0  0  0  0
 19 21  2  0  0  0  0
 19 38  1  0  0  0  0
 20 22  2  0  0  0  0
 20 39  1  0  0  0  0
 21 47  1  0  0  0  0
 22 40  1  0  0  0  0
 23 24  1  0  0  0  0
 23 57  1  0  0  0  0
 24 58  1  0  0  0  0
 25 82  1  0  0  0  0
 26 83  1  0  0  0  0
 27 29  2  0  0  0  0
 27 82  1  0  0  0  0
 28 84  1  0  0  0  0
 29 85  1  0  0  0  0
 30 67  2  0  0  0  0
 31 66  2  0  0  0  0
 31 83  1  0  0  0  0
 32 68  1  0  0  0  0
 32 71  1  0  0  0  0
 33 72  1  0  0  0  0
 33 77  2  0  0  0  0
 34 48  1  0  0  0  0
 34 73  1  0  0  0  0
 34 78  2  0  0  0  0
 35 62  1  0  0  0  0
 35 69  1  0  0  0  0
 35 79  2  0  0  0  0
 36 63  1  0  0  0  0
 36 74  1  0  0  0  0
 36 80  2  0  0  0  0
 37 70  1  0  0  0  0
 37 75  1  0  0  0  0
 37 81  2  0  0  0  0
 38 41  1  0  0  0  0
 39 48  1  0  0  0  0
 40 69  1  0  0  0  0
 41 43  1  0  0  0  0
 42 44  1  0  0  0  0
 42 45  1  0  0  0  0
 43 47  1  0  0  0  0
 44 49  1  0  0  0  0
 45 70  1  0  0  0  0
 46 49  1  0  0  0  0
 46 70  1  0  0  0  0
 47 73  1  0  0  0  0
 48 69  1  0  0  0  0
 49 68  1  0  0  0  0
 50 63  1  0  0  0  0
 51 64  1  0  0  0  0
 52 64  1  0  0  0  0
 53 65  1  0  0  0  0
 54 65  1  0  0  0  0
 55 65  1  0  0  0  0
 56 76  1  0  0  0  0
 57 59  1  0  0  0  0
 58 60  1  0  0  0  0
 59 64  1  0  0  0  0
 60 61  1  0  0  0  0
 61 75  1  0  0  0  0
 62 65  1  0  0  0  0
 62 74  1  0  0  0  0
 63 76  1  0  0  0  0
 67 68  1  0  0  0  0
M  CHG  1  76   1
M  ISO  4  31 101  37 100  75 100  83 101
M  END
> <Batch ID>
0119

> <Smiles>
CNC(C)C(=O)NC(C(=O)N1Cc2cc([101O:1][101c:1]3cc(CCC(C)C)c(CCC[100NH:0][100C:0](=O)N4CCCC(n5nc(-c6ccc(Oc7ccc(F)cc7F)cc6)c(C(N)=O)c5N)C4)cn3)ccc2CC1C(=O)NC1CCCc2ccccc21)C(C)(C)C

> <Shape>
0.295

> <Color>
0.219

> <Negative vol penalty>
0.000

$$$$

  -OEChem-04052320203D

 83 91  0     1  0  0  0  0  0999 V2000
  -22.5497  -28.6771   16.7250 C   0  0  0  0  0  0  0  0  0  0  0  0
  -23.1386  -27.8947   17.7132 C   0  0  0  0  0  0  0  0  0  0  0  0
  -23.0725   -9.8685   19.9437 C   0  0  0  0  0  0  0  0  0  0  0  0
  -23.8316   -9.8789   22.2373 C   0  0  0  0  0  0  0  0  0  0  0  0
  -21.5902  -28.1233   15.8786 C   0  0  0  0  0  0  0  0  0  0  0  0
  -22.7672  -26.5583   17.8563 C   0  0  0  0  0  0  0  0  0  0  0  0
  -26.7491  -23.4912   18.4750 C   0  0  0  0  0  0  0  0  0  0  0  0
  -22.3278   -8.7162   20.1954 C   0  0  0  0  0  0  0  0  0  0  0  0
  -23.0869   -8.7266   22.4890 C   0  0  0  0  0  0  0  0  0  0  0  0
  -27.3355  -23.4562   19.7394 C   0  0  0  0  0  0  0  0  0  0  0  0
  -19.3786   -7.9239   21.6470 C   0  0  0  0  0  0  0  0  0  0  0  0
  -18.0718   -7.8777   21.1614 C   0  0  0  0  0  0  0  0  0  0  0  0
  -26.1529  -21.4104   20.2244 C   0  0  0  0  0  0  0  0  0  0  0  0
  -31.4915  -19.3742   22.7463 C   0  0  0  0  0  0  0  0  0  0  0  0
  -29.7533  -17.7122   22.7130 C   0  0  0  0  0  0  0  0  0  0  0  0
  -18.6308   -5.9320   19.8427 C   0  0  0  0  0  0  0  0  0  0  0  0
  -23.8244  -10.4498   20.9647 C   0  0  0  0  0  0  0  0  0  0  0  0
  -24.1679  -12.9745   20.8405 C   0  0  0  0  0  0  0  0  0  0  0  0
  -21.2139  -26.7768   16.0051 C   0  0  0  0  0  0  0  0  0  0  0  0
  -25.8504  -22.4902   18.0792 C   0  0  0  0  0  0  0  0  0  0  0  0
  -21.8007  -25.9863   17.0116 C   0  0  0  0  0  0  0  0  0  0  0  0
  -25.5585  -21.4336   18.9535 C   0  0  0  0  0  0  0  0  0  0  0  0
  -30.2284  -18.9470   23.1406 C   0  0  0  0  0  0  0  0  0  0  0  0
  -22.3350   -8.1453   21.4680 C   0  0  0  0  0  0  0  0  0  0  0  0
  -27.0351  -22.4172   20.6154 C   0  0  0  0  0  0  0  0  0  0  0  0
  -20.3115   -6.9743   21.2304 C   0  0  0  0  0  0  0  0  0  0  0  0
  -17.6979   -6.8817   20.2593 C   0  0  0  0  0  0  0  0  0  0  0  0
  -19.9376   -5.9783   20.3283 C   0  0  0  0  0  0  0  0  0  0  0  0
  -24.5943  -11.6397   20.7052 C   0  0  0  0  0  0  0  0  0  0  0  0
  -32.2342  -18.5360   21.9303 C   0  0  0  0  0  0  0  0  0  0  0  0
  -30.5738  -16.9485   21.8984 C   0  0  0  0  0  0  0  0  0  0  0  0
  -25.2606  -13.7227   20.4763 C   0  0  0  0  0  0  0  0  0  0  0  0
  -22.8976  -13.4918   21.2581 C   0  0  0  0  0  0  0  0  0  0  0  0
  -22.7855  -22.4322   17.2384 C   0  0  0  0  0  0  0  0  0  0  0  0
  -23.4270  -19.3208   16.5826 C   0  0  0  0  0  0  0  0  0  0  0  0
  -25.3800  -16.5818   17.1574 C   0  0  0  0  0  0  0  0  0  0  0  0
  -30.7274  -14.7652   20.6511 C   0  0  0  0  0  0  0  0  0  0  0  0
  -20.1379  -26.2354   15.0976 C   0  0  0  0  0  0  0  0  0  0  0  0
  -25.2470  -22.5281   16.7019 C   0  0  0  0  0  0  0  0  0  0  0  0
  -24.6157  -20.3237   18.5692 C   0  0  0  0  0  0  0  0  0  0  0  0
  -20.0727  -24.7105   15.0724 C   0  0  0  0  0  0  0  0  0  0  0  0
  -29.6123  -12.3480   18.2865 C   0  0  0  0  0  0  0  0  0  0  0  0
  -20.1265  -24.1504   16.4902 C   0  0  0  0  0  0  0  0  0  0  0  0
  -28.1723  -12.0581   18.7161 C   0  0  0  0  0  0  0  0  0  0  0  0
  -30.5271  -12.5783   19.4881 C   0  0  0  0  0  0  0  0  0  0  0  0
  -28.6202  -13.3063   20.8675 C   0  0  0  0  0  0  0  0  0  0  0  0
  -21.4424  -24.5260   17.1821 C   0  0  1  0  0  0  0  0  0  0  0  0
  -23.9496  -21.7325   16.5959 C   0  0  1  0  0  0  0  0  0  0  0  0
  -27.6476  -13.1317   19.6896 C   0  0  2  0  0  0  0  0  0  0  0  0
  -33.5939  -18.9623   21.4868 C   0  0  0  0  0  0  0  0  0  0  0  0
  -30.3150  -18.8010   26.1874 C   0  0  0  0  0  0  0  0  0  0  0  0
  -25.6361  -14.1727   16.5032 C   0  0  0  0  0  0  0  0  0  0  0  0
  -21.0639  -18.5872   18.3681 C   0  0  0  0  0  0  0  0  0  0  0  0
  -21.9384  -16.2425   18.4434 C   0  0  0  0  0  0  0  0  0  0  0  0
  -21.2410  -17.2424   16.2670 C   0  0  0  0  0  0  0  0  0  0  0  0
  -28.0809  -17.0514   16.0422 C   0  0  0  0  0  0  0  0  0  0  0  0
  -30.0328  -20.0808   25.4090 C   0  0  0  0  0  0  0  0  0  0  0  0
  -29.0247  -21.1740   23.3642 C   0  0  0  0  0  0  0  0  0  0  0  0
  -27.8216  -21.0943   22.4285 C   0  0  0  0  0  0  0  0  0  1  0  0
  -29.3699  -19.8269   24.0358 C   0  0  1  0  0  0  0  0  0  0  0  0
  -23.3772  -18.0310   17.3654 C   0  0  1  0  0  0  0  0  0  0  0  0
  -26.0507  -15.6057   16.2077 C   0  0  2  0  0  0  0  0  0  0  0  0
  -21.9214  -17.5476   17.6192 C   0  0  0  0  0  0  0  0  0  0  0  0
  -25.8593  -11.5424   20.2875 N   0  0  0  0  0  0  0  0  0  0  0  0
  -31.8063  -17.3299   21.4947 N   0  0  0  0  0  0  0  0  0  0  0  0
  -26.2370  -12.8255   20.1571 N   0  0  0  0  0  0  0  0  0  0  0  0
  -24.0463  -20.4086   17.2142 N   0  0  0  0  0  0  0  0  0  0  0  0
  -29.9685  -13.6110   20.3635 N   0  0  0  0  0  0  0  0  0  0  0  0
  -25.4719  -15.0539   20.4011 N   0  0  0  0  0  0  0  0  0  0  0  0
  -21.8850  -12.5839   21.5966 N   0  0  0  0  0  0  0  0  0  0  0  0
  -30.0803  -15.6921   21.4677 N   0  0  0  0  0  0  0  0  0  0  0  0
  -22.5197  -23.6818   16.7117 N   0  0  0  0  0  0  0  0  0  0  0  0
  -24.2045  -17.0775   16.6341 N   0  0  0  0  0  0  0  0  0  0  0  0
  -27.5330  -15.7006   16.3291 N   0  3  0  0  0  0  0  0  0  0  0  0
  -22.6621  -14.7227   21.3132 O   0  0  0  0  0  0  0  0  0  0  0  0
  -22.1728  -21.8787   18.1439 O   0  0  0  0  0  0  0  0  0  0  0  0
  -22.9408  -19.3597   15.4496 O   0  0  0  0  0  0  0  0  0  0  0  0
  -25.8498  -16.8724   18.2553 O   0  0  0  0  0  0  0  0  0  0  0  0
  -31.8567  -14.9324   20.1835 O   0  0  0  0  0  0  0  0  0  0  0  0
  -21.6083   -7.0211   21.7141 O   0  0  0  0  0  0  0  0  0  0  0  0
  -27.6055  -22.3810   21.8504 O   0  0  0  0  0  0  0  0  0  1  0  0
  -16.4426   -6.8365   19.7942 F   0  0  0  0  0  0  0  0  0  0  0  0
  -20.8291   -5.0625   19.9253 F   0  0  0  0  0  0  0  0  0  0  0  0
  1  2  1  0  0  0  0
  1  5  2  0  0  0  0
  2  6  2  0  0  0  0
  3  8  2  0  0  0  0
  3 17  1  0  0  0  0
  4  9  1  0  0  0  0
  4 17  2  0  0  0  0
  5 19  1  0  0  0  0
  6 21  1  0  0  0  0
  7 10  2  0  0  0  0
  7 20  1  0  0  0  0
  8 24  1  0  0  0  0
  9 24  2  0  0  0  0
 10 25  1  0  0  0  0
 11 12  2  0  0  0  0
 11 26  1  0  0  0  0
 12 27  1  0  0  0  0
 13 22  1  0  0  0  0
 13 25  2  0  0  0  0
 14 23  1  0  0  0  0
 14 30  2  0  0  0  0
 15 23  2  0  0  0  0
 15 31  1  0  0  0  0
 16 27  2  0  0  0  0
 16 28  1  0  0  0  0
 17 29  1  0  0  0  0
 18 29  1  0  0  0  0
 18 32  2  0  0  0  0
 18 33  1  0  0  0  0
 19 21  2  0  0  0  0
 19 38  1  0  0  0  0
 20 22  2  0  0  0  0
 20 39  1  0  0  0  0
 21 47  1  0  0  0  0
 22 40  1  0  0  0  0
 23 60  1  0  0  0  0
 24 80  1  0  0  0  0
 25 81  1  0  0  0  0
 26 28  2  0  0  0  0
 26 80  1  0  0  0  0
 27 82  1  0  0  0  0
 28 83  1  0  0  0  0
 29 64  2  0  0  0  0
 30 50  1  0  0  0  0
 30 65  1  0  0  0  0
 31 65  2  0  0  0  0
 31 71  1  0  0  0  0
 32 66  1  0  0  0  0
 32 69  1  0  0  0  0
 33 70  1  0  0  0  0
 33 75  2  0  0  0  0
 34 48  1  0  0  0  0
 34 72  1  0  0  0  0
 34 76  2  0  0  0  0
 35 61  1  0  0  0  0
 35 67  1  0  0  0  0
 35 77  2  0  0  0  0
 36 62  1  0  0  0  0
 36 73  1  0  0  0  0
 36 78  2  0  0  0  0
 37 68  1  0  0  0  0
 37 71  1  0  0  0  0
 37 79  2  0  0  0  0
 38 41  1  0  0  0  0
 39 48  1  0  0  0  0
 40 67  1  0  0  0  0
 41 43  1  0  0  0  0
 42 44  1  0  0  0  0
 42 45  1  0  0  0  0
 43 47  1  0  0  0  0
 44 49  1  0  0  0  0
 45 68  1  0  0  0  0
 46 49  1  0  0  0  0
 46 68  1  0  0  0  0
 47 72  1  0  0  0  0
 48 67  1  0  0  0  0
 49 66  1  0  0  0  0
 51 57  1  0  0  0  0
 52 62  1  0  0  0  0
 53 63  1  0  0  0  0
 54 63  1  0  0  0  0
 55 63  1  0  0  0  0
 56 74  1  0  0  0  0
 57 60  1  0  0  0  0
 58 59  1  0  0  0  0
 58 60  1  0  0  0  0
 59 81  1  0  0  0  0
 61 63  1  0  0  0  0
 61 73  1  0  0  0  0
 62 74  1  0  0  0  0
 64 66  1  0  0  0  0
M  CHG  1  74   1
M  ISO  4  37 100  59 101  71 100  81 101
M  END
> <Batch ID>
0119

> <Smiles>
CCC(C[101CH2:1][101O:1]c1ccc2c(c1)CN(C(=O)C(NC(=O)C(C)NC)C(C)(C)C)C(C(=O)NC1CCCc3ccccc31)C2)c1cc(C)nc([100NH:0][100C:0](=O)N2CCCC(n3nc(-c4ccc(Oc5ccc(F)cc5F)cc4)c(C(N)=O)c3N)C2)c1

> <Shape>
0.165

> <Color>
0.192

> <Negative vol penalty>
0.000

$$$$

  -OEChem-04052320203D

 85 93  0     1  0  0  0  0  0999 V2000
  -16.6940  -30.0315   24.1692 C   0  0  0  0  0  0  0  0  0  0  0  0
  -17.8678  -30.5195   24.7344 C   0  0  0  0  0  0  0  0  0  0  0  0
  -29.6006  -20.6248   20.1871 C   0  0  0  0  0  0  0  0  0  0  0  0
  -31.9383  -20.5568   20.7934 C   0  0  0  0  0  0  0  0  0  0  0  0
  -16.7480  -28.9929   23.2406 C   0  0  0  0  0  0  0  0  0  0  0  0
  -19.0964  -29.9683   24.3721 C   0  0  0  0  0  0  0  0  0  0  0  0
  -25.9665  -31.7705   23.4393 C   0  0  0  0  0  0  0  0  0  0  0  0
  -29.6201  -19.2492   19.9574 C   0  0  0  0  0  0  0  0  0  0  0  0
  -31.9578  -19.1811   20.5638 C   0  0  0  0  0  0  0  0  0  0  0  0
  -27.2455  -31.3798   23.8332 C   0  0  0  0  0  0  0  0  0  0  0  0
  -28.9624  -15.6962   19.5591 C   0  0  0  0  0  0  0  0  0  0  0  0
  -27.9056  -14.9392   20.0648 C   0  0  0  0  0  0  0  0  0  0  0  0
  -34.7772  -31.4520   20.5654 C   0  0  0  0  0  0  0  0  0  0  0  0
  -34.2991  -32.0738   21.7452 C   0  0  0  0  0  0  0  0  0  0  0  0
  -27.2235  -29.6425   22.1597 C   0  0  0  0  0  0  0  0  0  0  0  0
  -28.4631  -15.6565   22.3035 C   0  0  0  0  0  0  0  0  0  0  0  0
  -30.7598  -21.2787   20.6050 C   0  0  0  0  0  0  0  0  0  0  0  0
  -30.4458  -23.3560   22.0521 C   0  0  0  0  0  0  0  0  0  0  0  0
  -17.9786  -28.4352   22.8596 C   0  0  0  0  0  0  0  0  0  0  0  0
  -25.3008  -31.0920   22.4083 C   0  0  0  0  0  0  0  0  0  0  0  0
  -19.1668  -28.9203   23.4386 C   0  0  0  0  0  0  0  0  0  0  0  0
  -25.9371  -30.0282   21.7529 C   0  0  0  0  0  0  0  0  0  0  0  0
  -30.7987  -18.5273   20.1457 C   0  0  0  0  0  0  0  0  0  0  0  0
  -27.8731  -30.3138   23.1953 C   0  0  0  0  0  0  0  0  0  0  0  0
  -29.7696  -16.4332   20.4256 C   0  0  0  0  0  0  0  0  0  0  0  0
  -27.6559  -14.9194   21.4370 C   0  0  0  0  0  0  0  0  0  0  0  0
  -29.5199  -16.4134   21.7978 C   0  0  0  0  0  0  0  0  0  0  0  0
  -30.7404  -22.6998   20.8419 C   0  0  0  0  0  0  0  0  0  0  0  0
  -35.0561  -30.1394   20.8763 C   0  0  0  0  0  0  0  0  0  0  0  0
  -34.3006  -31.1223   22.7412 C   0  0  0  0  0  0  0  0  0  0  0  0
  -30.5626  -24.6920   21.7555 C   0  0  0  0  0  0  0  0  0  0  0  0
  -30.0979  -22.8069   23.3300 C   0  0  0  0  0  0  0  0  0  0  0  0
  -22.6147  -29.4052   22.2016 C   0  0  0  0  0  0  0  0  0  0  0  0
  -23.3197  -29.4020   19.0354 C   0  0  0  0  0  0  0  0  0  0  0  0
  -25.6905  -29.6664   16.5948 C   0  0  0  0  0  0  0  0  0  0  0  0
  -33.7459  -28.2920   18.5275 C   0  0  0  0  0  0  0  0  0  0  0  0
  -17.9831  -27.2821   21.8874 C   0  0  0  0  0  0  0  0  0  0  0  0
  -23.9322  -31.5429   21.9773 C   0  0  0  0  0  0  0  0  0  0  0  0
  -25.2737  -29.2799   20.6267 C   0  0  0  0  0  0  0  0  0  0  0  0
  -19.3546  -27.0056   21.2768 C   0  0  0  0  0  0  0  0  0  0  0  0
  -30.4379  -27.3614   17.5961 C   0  0  0  0  0  0  0  0  0  0  0  0
  -20.4296  -27.0005   22.3590 C   0  0  0  0  0  0  0  0  0  0  0  0
  -30.1513  -26.1255   18.4506 C   0  0  0  0  0  0  0  0  0  0  0  0
  -31.8945  -27.4068   17.1400 C   0  0  0  0  0  0  0  0  0  0  0  0
  -32.6005  -26.0606   19.0799 C   0  0  0  0  0  0  0  0  0  0  0  0
  -20.5206  -28.3651   23.0526 C   0  0  1  0  0  0  0  0  0  0  0  0
  -23.1416  -30.4521   21.2614 C   0  0  1  0  0  0  0  0  0  0  0  0
  -31.1578  -25.9998   19.6101 C   0  0  2  0  0  0  0  0  0  0  0  0
  -36.3185  -27.3796   24.5389 C   0  0  0  0  0  0  0  0  0  0  0  0
  -34.7982  -32.2301   24.9348 C   0  0  0  0  0  0  0  0  0  0  0  0
  -25.9695  -29.5839   14.1023 C   0  0  0  0  0  0  0  0  0  0  0  0
  -23.0698  -26.3620   19.1105 C   0  0  0  0  0  0  0  0  0  0  0  0
  -24.2616  -26.2793   16.9102 C   0  0  0  0  0  0  0  0  0  0  0  0
  -22.0621  -27.4420   17.0924 C   0  0  0  0  0  0  0  0  0  0  0  0
  -26.6930  -32.4493   16.4985 C   0  0  0  0  0  0  0  0  0  0  0  0
  -35.5767  -29.0538   20.0199 C   0  0  0  0  0  0  0  0  0  0  0  0
  -36.1663  -28.6992   23.8004 C   0  0  0  0  0  0  0  0  0  0  0  0
  -31.4361  -30.5794   23.8288 C   0  0  0  0  0  0  0  0  0  0  0  0
  -32.4071  -31.6326   24.3819 C   0  0  0  0  0  0  0  0  0  0  0  0
  -34.9177  -28.7038   22.9214 C   0  0  0  0  0  0  0  0  0  0  0  0
  -29.9806  -30.9424   24.1004 C   0  0  0  0  0  0  0  0  0  1  0  0
  -33.8888  -31.2386   24.1986 C   0  0  1  0  0  0  0  0  0  0  0  0
  -24.1144  -28.5044   18.1179 C   0  0  1  0  0  0  0  0  0  0  0  0
  -25.7284  -30.4752   15.3107 C   0  0  2  0  0  0  0  0  0  0  0  0
  -23.3890  -27.1596   17.8302 C   0  0  0  0  0  0  0  0  0  0  0  0
  -31.0228  -23.5490   19.8504 N   0  0  0  0  0  0  0  0  0  0  0  0
  -34.7630  -29.9504   22.2016 N   0  0  0  0  0  0  0  0  0  0  0  0
  -30.9062  -24.7524   20.4370 N   0  0  0  0  0  0  0  0  0  0  0  0
  -23.9330  -29.7545   20.2459 N   0  0  0  0  0  0  0  0  0  0  0  0
  -32.7973  -27.2844   18.2872 N   0  0  0  0  0  0  0  0  0  0  0  0
  -30.4036  -25.8091   22.4965 N   0  0  0  0  0  0  0  0  0  0  0  0
  -30.0227  -21.4135   23.4605 N   0  0  0  0  0  0  0  0  0  0  0  0
  -21.2364  -29.3083   22.2203 N   0  0  0  0  0  0  0  0  0  0  0  0
  -24.4049  -29.2935   16.9258 N   0  0  0  0  0  0  0  0  0  0  0  0
  -34.5576  -28.1013   19.6390 N   0  0  0  0  0  0  0  0  0  0  0  0
  -26.8173  -31.4909   15.3702 N   0  3  0  0  0  0  0  0  0  0  0  0
  -29.8447  -23.5310   24.3226 O   0  0  0  0  0  0  0  0  0  0  0  0
  -23.4004  -28.7340   22.8602 O   0  0  0  0  0  0  0  0  0  0  0  0
  -22.1990  -29.7825   18.6875 O   0  0  0  0  0  0  0  0  0  0  0  0
  -26.7007  -29.3898   17.2379 O   0  0  0  0  0  0  0  0  0  0  0  0
  -33.8574  -29.2905   17.8081 O   0  0  0  0  0  0  0  0  0  0  0  0
  -30.8180  -17.1849   19.9219 O   0  0  0  0  0  0  0  0  0  0  0  0
  -29.1213  -29.9299   23.5782 O   0  0  0  0  0  0  0  0  0  1  0  0
  -26.6400  -14.1937   21.9223 F   0  0  0  0  0  0  0  0  0  0  0  0
  -30.2913  -17.1204   22.6351 F   0  0  0  0  0  0  0  0  0  0  0  0
  1  2  1  0  0  0  0
  1  5  2  0  0  0  0
  2  6  2  0  0  0  0
  3  8  2  0  0  0  0
  3 17  1  0  0  0  0
  4  9  1  0  0  0  0
  4 17  2  0  0  0  0
  5 19  1  0  0  0  0
  6 21  1  0  0  0  0
  7 10  2  0  0  0  0
  7 20  1  0  0  0  0
  8 23  1  0  0  0  0
  9 23  2  0  0  0  0
 10 24  1  0  0  0  0
 11 12  2  0  0  0  0
 11 25  1  0  0  0  0
 12 26  1  0  0  0  0
 13 14  1  0  0  0  0
 13 29  2  0  0  0  0
 14 30  2  0  0  0  0
 15 22  1  0  0  0  0
 15 24  2  0  0  0  0
 16 26  2  0  0  0  0
 16 27  1  0  0  0  0
 17 28  1  0  0  0  0
 18 28  1  0  0  0  0
 18 31  2  0  0  0  0
 18 32  1  0  0  0  0
 19 21  2  0  0  0  0
 19 37  1  0  0  0  0
 20 22  2  0  0  0  0
 20 38  1  0  0  0  0
 21 46  1  0  0  0  0
 22 39  1  0  0  0  0
 23 82  1  0  0  0  0
 24 83  1  0  0  0  0
 25 27  2  0  0  0  0
 25 82  1  0  0  0  0
 26 84  1  0  0  0  0
 27 85  1  0  0  0  0
 28 66  2  0  0  0  0
 29 56  1  0  0  0  0
 29 67  1  0  0  0  0
 30 62  1  0  0  0  0
 30 67  1  0  0  0  0
 31 68  1  0  0  0  0
 31 71  1  0  0  0  0
 32 72  1  0  0  0  0
 32 77  2  0  0  0  0
 33 47  1  0  0  0  0
 33 73  1  0  0  0  0
 33 78  2  0  0  0  0
 34 63  1  0  0  0  0
 34 69  1  0  0  0  0
 34 79  2  0  0  0  0
 35 64  1  0  0  0  0
 35 74  1  0  0  0  0
 35 80  2  0  0  0  0
 36 70  1  0  0  0  0
 36 75  1  0  0  0  0
 36 81  2  0  0  0  0
 37 40  1  0  0  0  0
 38 47  1  0  0  0  0
 39 69  1  0  0  0  0
 40 42  1  0  0  0  0
 41 43  1  0  0  0  0
 41 44  1  0  0  0  0
 42 46  1  0  0  0  0
 43 48  1  0  0  0  0
 44 70  1  0  0  0  0
 45 48  1  0  0  0  0
 45 70  1  0  0  0  0
 46 73  1  0  0  0  0
 47 69  1  0  0  0  0
 48 68  1  0  0  0  0
 49 57  1  0  0  0  0
 50 62  1  0  0  0  0
 51 64  1  0  0  0  0
 52 65  1  0  0  0  0
 53 65  1  0  0  0  0
 54 65  1  0  0  0  0
 55 76  1  0  0  0  0
 56 75  1  0  0  0  0
 57 60  1  0  0  0  0
 58 59  1  0  0  0  0
 58 61  1  0  0  0  0
 59 62  1  0  0  0  0
 60 67  1  0  0  0  0
 61 83  1  0  0  0  0
 63 65  1  0  0  0  0
 63 74  1  0  0  0  0
 64 76  1  0  0  0  0
 66 68  1  0  0  0  0
M  CHG  1  76   1
M  ISO  4  36 100  61 101  75 100  83 101
M  END
> <Batch ID>
0119

> <Smiles>
CCCn1c(C[100NH:0][100C:0](=O)N2CCCC(n3nc(-c4ccc(Oc5ccc(F)cc5F)cc4)c(C(N)=O)c3N)C2)ccc1C(C)CC[101CH2:1][101O:1]c1ccc2c(c1)CN(C(=O)C(NC(=O)C(C)NC)C(C)(C)C)C(C(=O)NC1CCCc3ccccc31)C2

> <Shape>
0.228

> <Color>
0.099

> <Negative vol penalty>
0.000

$$$$

  -OEChem-04052320203D

 85 94  0     1  0  0  0  0  0999 V2000
  -28.7997  -31.2277   27.1284 C   0  0  0  0  0  0  0  0  0  0  0  0
  -28.5219  -30.1894   26.2451 C   0  0  0  0  0  0  0  0  0  0  0  0
  -23.8726  -10.4374   22.6380 C   0  0  0  0  0  0  0  0  0  0  0  0
  -24.4166   -8.6348   21.1242 C   0  0  0  0  0  0  0  0  0  0  0  0
  -27.7995  -32.1369   27.4703 C   0  0  0  0  0  0  0  0  0  0  0  0
  -27.2433  -30.0590   25.7040 C   0  0  0  0  0  0  0  0  0  0  0  0
  -27.3260  -29.1099   20.7304 C   0  0  0  0  0  0  0  0  0  0  0  0
  -28.0162  -22.8157   19.9323 C   0  0  0  0  0  0  0  0  0  0  0  0
  -28.8329  -23.6210   17.8059 C   0  0  0  0  0  0  0  0  0  0  0  0
  -28.1319  -21.5016   19.4791 C   0  0  0  0  0  0  0  0  0  0  0  0
  -28.9487  -22.3069   17.3527 C   0  0  0  0  0  0  0  0  0  0  0  0
  -22.7363   -9.7444   23.0549 C   0  0  0  0  0  0  0  0  0  0  0  0
  -23.2802   -7.9417   21.5412 C   0  0  0  0  0  0  0  0  0  0  0  0
  -27.6180  -27.8050   20.3360 C   0  0  0  0  0  0  0  0  0  0  0  0
  -22.3500   -6.0439   24.1781 C   0  0  0  0  0  0  0  0  0  0  0  0
  -22.4873   -4.6835   24.4537 C   0  0  0  0  0  0  0  0  0  0  0  0
  -25.2660  -27.3860   20.0017 C   0  0  0  0  0  0  0  0  0  0  0  0
  -20.8566   -4.1729   22.7457 C   0  0  0  0  0  0  0  0  0  0  0  0
  -24.7128   -9.8827   21.6725 C   0  0  0  0  0  0  0  0  0  0  0  0
  -27.1790  -10.5237   21.7940 C   0  0  0  0  0  0  0  0  0  0  0  0
  -26.5106  -32.0233   26.9257 C   0  0  0  0  0  0  0  0  0  0  0  0
  -25.9986  -29.5601   20.7739 C   0  0  0  0  0  0  0  0  0  0  0  0
  -26.2246  -30.9668   26.0400 C   0  0  0  0  0  0  0  0  0  0  0  0
  -24.9600  -28.6979   20.3946 C   0  0  0  0  0  0  0  0  0  0  0  0
  -28.3666  -23.8754   19.0957 C   0  0  0  0  0  0  0  0  0  0  0  0
  -28.5982  -21.2472   18.1894 C   0  0  0  0  0  0  0  0  0  0  0  0
  -22.4401   -8.4965   22.5066 C   0  0  0  0  0  0  0  0  0  0  0  0
  -26.5878  -26.9419   19.9743 C   0  0  0  0  0  0  0  0  0  0  0  0
  -21.4660   -6.4689   23.1864 C   0  0  0  0  0  0  0  0  0  0  0  0
  -21.7406   -3.7480   23.7375 C   0  0  0  0  0  0  0  0  0  0  0  0
  -20.7193   -5.5334   22.4702 C   0  0  0  0  0  0  0  0  0  0  0  0
  -25.8865  -10.5984   21.2410 C   0  0  0  0  0  0  0  0  0  0  0  0
  -27.9284  -11.3876   21.0333 C   0  0  0  0  0  0  0  0  0  0  0  0
  -27.6592   -9.7433   22.8967 C   0  0  0  0  0  0  0  0  0  0  0  0
  -24.0655  -30.6264   23.0609 C   0  0  0  0  0  0  0  0  0  0  0  0
  -22.0696  -31.1967   20.5682 C   0  0  0  0  0  0  0  0  0  0  0  0
  -21.1385  -30.4464   17.3718 C   0  0  0  0  0  0  0  0  0  0  0  0
  -25.6881  -15.9651   17.5714 C   0  0  0  0  0  0  0  0  0  0  0  0
  -25.4494  -33.0023   27.3617 C   0  0  0  0  0  0  0  0  0  0  0  0
  -25.7023  -30.9789   21.1760 C   0  0  0  0  0  0  0  0  0  0  0  0
  -23.5198  -29.1386   20.4047 C   0  0  0  0  0  0  0  0  0  0  0  0
  -24.2223  -33.0148   26.4539 C   0  0  0  0  0  0  0  0  0  0  0  0
  -27.7127  -13.0697   16.4861 C   0  0  0  0  0  0  0  0  0  0  0  0
  -23.7662  -31.5905   26.1533 C   0  0  0  0  0  0  0  0  0  0  0  0
  -27.9229  -12.2286   17.7471 C   0  0  0  0  0  0  0  0  0  0  0  0
  -27.6586  -14.5631   16.7897 C   0  0  0  0  0  0  0  0  0  0  0  0
  -25.2293  -17.9057   16.1068 C   0  0  0  0  0  0  0  0  0  0  0  0
  -26.2179  -13.8455   18.7052 C   0  0  0  0  0  0  0  0  0  0  0  0
  -27.4895  -17.6892   17.0939 C   0  0  0  0  0  0  0  0  0  0  0  0
  -25.0828  -19.2994   16.6895 C   0  0  0  0  0  0  0  0  0  0  0  0
  -24.8566  -30.8067   25.4130 C   0  0  1  0  0  0  0  0  0  0  0  0
  -24.2742  -31.1722   21.6766 C   0  0  1  0  0  0  0  0  0  0  0  0
  -27.3972  -12.9161   19.0212 C   0  0  1  0  0  0  0  0  0  0  0  0
  -27.3793  -19.1064   17.6672 C   0  0  1  0  0  0  0  0  0  0  0  0
  -29.7446  -19.0280   18.5287 C   0  0  0  0  0  0  0  0  0  0  0  0
  -19.4480  -31.0520   15.6189 C   0  0  0  0  0  0  0  0  0  0  0  0
  -19.9507  -29.5841   22.0581 C   0  0  0  0  0  0  0  0  0  0  0  0
  -18.6699  -29.4168   19.9134 C   0  0  0  0  0  0  0  0  0  0  0  0
  -19.0940  -31.6505   20.9398 C   0  0  0  0  0  0  0  0  0  0  0  0
  -23.2381  -31.3624   15.4979 C   0  0  0  0  0  0  0  0  0  0  0  0
  -28.2432  -25.2807   19.5794 C   0  0  0  0  0  0  0  0  0  1  0  0
  -28.7256  -19.8152   17.6971 C   0  0  2  0  0  0  0  0  0  0  0  0
  -21.0045  -30.4050   19.8486 C   0  0  1  0  0  0  0  0  0  0  0  0
  -20.8346  -31.3321   16.1770 C   0  0  2  0  0  0  0  0  0  0  0  0
  -19.7067  -30.2549   20.6915 C   0  0  0  0  0  0  0  0  0  0  0  0
  -25.8154  -11.4431   20.2088 N   0  0  0  0  0  0  0  0  0  0  0  0
  -27.0725  -11.9072   20.1072 N   0  0  0  0  0  0  0  0  0  0  0  0
  -23.2806  -30.5332   20.8114 N   0  0  0  0  0  0  0  0  0  0  0  0
  -26.5731  -14.8846   17.7316 N   0  0  0  0  0  0  0  0  0  0  0  0
  -26.1624  -17.0927   16.8879 N   0  0  0  0  0  0  0  0  0  0  0  0
  -29.2293  -11.7459   21.0730 N   0  0  0  0  0  0  0  0  0  0  0  0
  -26.7557   -8.9080   23.5678 N   0  0  0  0  0  0  0  0  0  0  0  0
  -24.8919  -31.1857   24.0167 N   0  0  0  0  0  0  0  0  0  0  0  0
  -20.8080  -31.0616   18.5607 N   0  0  0  0  0  0  0  0  0  0  0  0
  -26.4403  -19.9099   16.8176 N   0  3  0  0  0  0  0  0  0  0  0  0
  -21.8324  -31.1016   15.0942 N   0  3  0  0  0  0  0  0  0  0  0  0
  -28.8504   -9.7976   23.2860 O   0  0  0  0  0  0  0  0  0  0  0  0
  -23.2165  -29.7628   23.2481 O   0  0  0  0  0  0  0  0  0  0  0  0
  -21.8383  -32.3632   20.8959 O   0  0  0  0  0  0  0  0  0  0  0  0
  -21.6175  -29.3200   17.2613 O   0  0  0  0  0  0  0  0  0  0  0  0
  -24.5286  -15.9128   18.0024 O   0  0  0  0  0  0  0  0  0  0  0  0
  -21.3314   -7.8198   22.9134 O   0  0  0  0  0  0  0  0  0  0  0  0
  -26.8720  -25.6587   19.5869 O   0  0  0  0  0  0  0  0  0  1  0  0
  -21.8737   -2.4415   24.0012 F   0  0  0  0  0  0  0  0  0  0  0  0
  -19.8692   -5.9355   21.5154 F   0  0  0  0  0  0  0  0  0  0  0  0
  1  2  1  0  0  0  0
  1  5  2  0  0  0  0
  2  6  2  0  0  0  0
  3 12  2  0  0  0  0
  3 19  1  0  0  0  0
  4 13  1  0  0  0  0
  4 19  2  0  0  0  0
  5 21  1  0  0  0  0
  6 23  1  0  0  0  0
  7 14  2  0  0  0  0
  7 22  1  0  0  0  0
  8 10  2  0  0  0  0
  8 25  1  0  0  0  0
  9 11  1  0  0  0  0
  9 25  2  0  0  0  0
 10 26  1  0  0  0  0
 11 26  2  0  0  0  0
 12 27  1  0  0  0  0
 13 27  2  0  0  0  0
 14 28  1  0  0  0  0
 15 16  2  0  0  0  0
 15 29  1  0  0  0  0
 16 30  1  0  0  0  0
 17 24  1  0  0  0  0
 17 28  2  0  0  0  0
 18 30  2  0  0  0  0
 18 31  1  0  0  0  0
 19 32  1  0  0  0  0
 20 32  1  0  0  0  0
 20 33  2  0  0  0  0
 20 34  1  0  0  0  0
 21 23  2  0  0  0  0
 21 39  1  0  0  0  0
 22 24  2  0  0  0  0
 22 40  1  0  0  0  0
 23 51  1  0  0  0  0
 24 41  1  0  0  0  0
 25 61  1  0  0  0  0
 26 62  1  0  0  0  0
 27 82  1  0  0  0  0
 28 83  1  0  0  0  0
 29 31  2  0  0  0  0
 29 82  1  0  0  0  0
 30 84  1  0  0  0  0
 31 85  1  0  0  0  0
 32 66  2  0  0  0  0
 33 67  1  0  0  0  0
 33 71  1  0  0  0  0
 34 72  1  0  0  0  0
 34 77  2  0  0  0  0
 35 52  1  0  0  0  0
 35 73  1  0  0  0  0
 35 78  2  0  0  0  0
 36 63  1  0  0  0  0
 36 68  1  0  0  0  0
 36 79  2  0  0  0  0
 37 64  1  0  0  0  0
 37 74  1  0  0  0  0
 37 80  2  0  0  0  0
 38 69  1  0  0  0  0
 38 70  1  0  0  0  0
 38 81  2  0  0  0  0
 39 42  1  0  0  0  0
 40 52  1  0  0  0  0
 41 68  1  0  0  0  0
 42 44  1  0  0  0  0
 43 45  1  0  0  0  0
 43 46  1  0  0  0  0
 44 51  1  0  0  0  0
 45 53  1  0  0  0  0
 46 69  1  0  0  0  0
 47 50  1  0  0  0  0
 47 70  1  0  0  0  0
 48 53  1  0  0  0  0
 48 69  1  0  0  0  0
 49 54  1  0  0  0  0
 49 70  1  0  0  0  0
 50 75  1  0  0  0  0
 51 73  1  0  0  0  0
 52 68  1  0  0  0  0
 53 67  1  0  0  0  0
 54 62  1  0  0  0  0
 54 75  1  0  0  0  0
 55 62  1  0  0  0  0
 56 64  1  0  0  0  0
 57 65  1  0  0  0  0
 58 65  1  0  0  0  0
 59 65  1  0  0  0  0
 60 76  1  0  0  0  0
 61 83  1  0  0  0  0
 63 65  1  0  0  0  0
 63 74  1  0  0  0  0
 64 76  1  0  0  0  0
 66 67  1  0  0  0  0
M  CHG  2  75   1  76   1
M  ISO  4  38 100  61 101  70 100  83 101
M  END
> <Batch ID>
0119

> <Smiles>
CNC(C)C(=O)NC(C(=O)N1Cc2cc([101O:1][101CH2:1]c3ccc(C(C)C4C[100N:0]([100C:0](=O)N5CCCC(n6nc(-c7ccc(Oc8ccc(F)cc8F)cc7)c(C(N)=O)c6N)C5)CCN4)cc3)ccc2CC1C(=O)NC1CCCc2ccccc21)C(C)(C)C

> <Shape>
0.264

> <Color>
0.086

> <Negative vol penalty>
0.000

$$$$

  -OEChem-04052320203D

 87 96  0     1  0  0  0  0  0999 V2000
  -27.8647  -36.7135   24.6261 C   0  0  0  0  0  0  0  0  0  0  0  0
  -28.4819  -35.5448   25.0603 C   0  0  0  0  0  0  0  0  0  0  0  0
  -22.6752  -10.2062   20.2455 C   0  0  0  0  0  0  0  0  0  0  0  0
  -24.2629   -9.5847   21.9573 C   0  0  0  0  0  0  0  0  0  0  0  0
  -26.4759  -36.7674   24.5156 C   0  0  0  0  0  0  0  0  0  0  0  0
  -27.7106  -34.4295   25.3853 C   0  0  0  0  0  0  0  0  0  0  0  0
  -31.5159  -21.0983   25.4198 C   0  0  0  0  0  0  0  0  0  0  0  0
  -32.7899  -21.1681   23.3682 C   0  0  0  0  0  0  0  0  0  0  0  0
  -29.6012  -30.1367   23.4769 C   0  0  0  0  0  0  0  0  0  0  0  0
  -32.1104  -22.2916   25.8297 C   0  0  0  0  0  0  0  0  0  0  0  0
  -33.3845  -22.3615   23.7781 C   0  0  0  0  0  0  0  0  0  0  0  0
  -21.9373   -9.0527   20.5110 C   0  0  0  0  0  0  0  0  0  0  0  0
  -23.5249   -8.4311   22.2229 C   0  0  0  0  0  0  0  0  0  0  0  0
  -30.6882  -29.5693   24.1405 C   0  0  0  0  0  0  0  0  0  0  0  0
  -20.7115   -7.6081   23.9044 C   0  0  0  0  0  0  0  0  0  0  0  0
  -20.4737   -7.2860   25.2405 C   0  0  0  0  0  0  0  0  0  0  0  0
  -29.2044  -28.0021   25.2182 C   0  0  0  0  0  0  0  0  0  0  0  0
  -21.6256   -5.1838   24.9387 C   0  0  0  0  0  0  0  0  0  0  0  0
  -23.8380  -10.4722   20.9686 C   0  0  0  0  0  0  0  0  0  0  0  0
  -24.1609  -12.9967   20.7951 C   0  0  0  0  0  0  0  0  0  0  0  0
  -31.8556  -20.5365   24.1891 C   0  0  0  0  0  0  0  0  0  0  0  0
  -25.6877  -35.6491   24.8302 C   0  0  0  0  0  0  0  0  0  0  0  0
  -28.3041  -29.6473   23.6877 C   0  0  0  0  0  0  0  0  0  0  0  0
  -26.3098  -34.4689   25.2802 C   0  0  0  0  0  0  0  0  0  0  0  0
  -28.1030  -28.5633   24.5541 C   0  0  0  0  0  0  0  0  0  0  0  0
  -33.0447  -22.9232   25.0088 C   0  0  0  0  0  0  0  0  0  0  0  0
  -22.3622   -8.1652   21.4997 C   0  0  0  0  0  0  0  0  0  0  0  0
  -30.4895  -28.5037   25.0136 C   0  0  0  0  0  0  0  0  0  0  0  0
  -21.4063   -6.7180   23.0854 C   0  0  0  0  0  0  0  0  0  0  0  0
  -20.9308   -6.0738   25.7577 C   0  0  0  0  0  0  0  0  0  0  0  0
  -21.8634   -5.5059   23.6026 C   0  0  0  0  0  0  0  0  0  0  0  0
  -24.6010  -11.6633   20.6944 C   0  0  0  0  0  0  0  0  0  0  0  0
  -25.2521  -13.7469   20.4302 C   0  0  0  0  0  0  0  0  0  0  0  0
  -22.8804  -13.5112   21.1839 C   0  0  0  0  0  0  0  0  0  0  0  0
  -25.6063  -30.8679   24.8434 C   0  0  0  0  0  0  0  0  0  0  0  0
  -24.3731  -28.0174   23.9075 C   0  0  0  0  0  0  0  0  0  0  0  0
  -25.3795  -24.5539   24.0033 C   0  0  0  0  0  0  0  0  0  0  0  0
  -30.7240  -14.8165   20.6730 C   0  0  0  0  0  0  0  0  0  0  0  0
  -24.1871  -35.7702   24.7404 C   0  0  0  0  0  0  0  0  0  0  0  0
  -27.1456  -30.2530   22.9438 C   0  0  0  0  0  0  0  0  0  0  0  0
  -26.7330  -27.9878   24.7995 C   0  0  0  0  0  0  0  0  0  0  0  0
  -23.4660  -34.4248   24.7460 C   0  0  0  0  0  0  0  0  0  0  0  0
  -29.6405  -12.3682   18.3261 C   0  0  0  0  0  0  0  0  0  0  0  0
  -32.2439  -18.1126   23.5710 C   0  0  0  0  0  0  0  0  0  0  0  0
  -30.3803  -19.4229   22.4595 C   0  0  0  0  0  0  0  0  0  0  0  0
  -24.0215  -33.5259   25.8461 C   0  0  0  0  0  0  0  0  0  0  0  0
  -28.1994  -12.0723   18.7451 C   0  0  0  0  0  0  0  0  0  0  0  0
  -31.5812  -16.8054   23.1347 C   0  0  0  0  0  0  0  0  0  0  0  0
  -29.7222  -18.1130   22.0245 C   0  0  0  0  0  0  0  0  0  0  0  0
  -30.5384  -12.6243   19.5345 C   0  0  0  0  0  0  0  0  0  0  0  0
  -28.6109  -13.3709   20.8766 C   0  0  0  0  0  0  0  0  0  0  0  0
  -31.2091  -19.2379   23.7423 C   0  0  0  0  0  0  0  0  0  0  0  0
  -25.5089  -33.2303   25.6184 C   0  0  1  0  0  0  0  0  0  0  0  0
  -25.8035  -30.0085   23.6267 C   0  0  1  0  0  0  0  0  0  0  0  0
  -27.6553  -13.1610   19.6895 C   0  0  2  0  0  0  0  0  0  0  0  0
  -30.7545  -16.9954   21.8607 C   0  0  0  0  0  0  0  0  0  0  0  0
  -24.7573  -22.6324   22.5141 C   0  0  0  0  0  0  0  0  0  0  0  0
  -22.2147  -27.4754   25.9949 C   0  0  0  0  0  0  0  0  0  0  0  0
  -22.6250  -25.0256   25.6817 C   0  0  0  0  0  0  0  0  0  0  0  0
  -21.8075  -26.4057   23.7713 C   0  0  0  0  0  0  0  0  0  0  0  0
  -28.2142  -23.9460   23.4087 C   0  0  0  0  0  0  0  0  0  0  0  0
  -33.6858  -24.2142   25.4519 C   0  0  0  0  0  0  0  0  0  0  0  0
  -32.9173  -25.4677   25.0188 C   0  0  0  0  0  0  0  0  0  0  0  0
  -33.6222  -26.7672   25.4101 C   0  0  0  0  0  0  0  0  0  0  0  0
  -32.8113  -27.9887   24.9994 C   0  0  0  0  0  0  0  0  0  1  0  0
  -24.1976  -26.6645   24.5539 C   0  0  1  0  0  0  0  0  0  0  0  0
  -25.7989  -23.6965   22.8230 C   0  0  2  0  0  0  0  0  0  0  0  0
  -22.7324  -26.4102   25.0079 C   0  0  0  0  0  0  0  0  0  0  0  0
  -25.8725  -11.5686   20.2965 N   0  0  0  0  0  0  0  0  0  0  0  0
  -26.2407  -12.8520   20.1439 N   0  0  0  0  0  0  0  0  0  0  0  0
  -25.6314  -28.6184   24.0535 N   0  0  0  0  0  0  0  0  0  0  0  0
  -29.9667  -13.6682   20.3885 N   0  0  0  0  0  0  0  0  0  0  0  0
  -25.4526  -15.0780   20.3294 N   0  0  0  0  0  0  0  0  0  0  0  0
  -21.8711  -12.6015   21.5276 N   0  0  0  0  0  0  0  0  0  0  0  0
  -25.6727  -32.2248   24.5905 N   0  0  0  0  0  0  0  0  0  0  0  0
  -24.7053  -25.6863   23.5979 N   0  0  0  0  0  0  0  0  0  0  0  0
  -30.1052  -15.7593   21.4848 N   0  0  0  0  0  0  0  0  0  0  0  0
  -27.0938  -23.0171   23.1105 N   0  3  0  0  0  0  0  0  0  0  0  0
  -22.6333  -14.7408   21.2094 O   0  0  0  0  0  0  0  0  0  0  0  0
  -25.4071  -30.3392   25.9308 O   0  0  0  0  0  0  0  0  0  0  0  0
  -23.4308  -28.5191   23.2895 O   0  0  0  0  0  0  0  0  0  0  0  0
  -25.6221  -24.2478   25.1686 O   0  0  0  0  0  0  0  0  0  0  0  0
  -31.8649  -14.9911   20.2317 O   0  0  0  0  0  0  0  0  0  0  0  0
  -21.6422   -7.0396   21.7593 O   0  0  0  0  0  0  0  0  0  0  0  0
  -31.5486  -27.9484   25.6631 O   0  0  0  0  0  0  0  0  0  1  0  0
  -20.7037   -5.7653   27.0413 F   0  0  0  0  0  0  0  0  0  0  0  0
  -22.5324   -4.6473   22.8209 F   0  0  0  0  0  0  0  0  0  0  0  0
  1  2  1  0  0  0  0
  1  5  2  0  0  0  0
  2  6  2  0  0  0  0
  3 12  2  0  0  0  0
  3 19  1  0  0  0  0
  4 13  1  0  0  0  0
  4 19  2  0  0  0  0
  5 22  1  0  0  0  0
  6 24  1  0  0  0  0
  7 10  2  0  0  0  0
  7 21  1  0  0  0  0
  8 11  1  0  0  0  0
  8 21  2  0  0  0  0
  9 14  2  0  0  0  0
  9 23  1  0  0  0  0
 10 26  1  0  0  0  0
 11 26  2  0  0  0  0
 12 27  1  0  0  0  0
 13 27  2  0  0  0  0
 14 28  1  0  0  0  0
 15 16  2  0  0  0  0
 15 29  1  0  0  0  0
 16 30  1  0  0  0  0
 17 25  1  0  0  0  0
 17 28  2  0  0  0  0
 18 30  2  0  0  0  0
 18 31  1  0  0  0  0
 19 32  1  0  0  0  0
 20 32  1  0  0  0  0
 20 33  2  0  0  0  0
 20 34  1  0  0  0  0
 21 52  1  0  0  0  0
 22 24  2  0  0  0  0
 22 39  1  0  0  0  0
 23 25  2  0  0  0  0
 23 40  1  0  0  0  0
 24 53  1  0  0  0  0
 25 41  1  0  0  0  0
 26 62  1  0  0  0  0
 27 84  1  0  0  0  0
 28 85  1  0  0  0  0
 29 31  2  0  0  0  0
 29 84  1  0  0  0  0
 30 86  1  0  0  0  0
 31 87  1  0  0  0  0
 32 69  2  0  0  0  0
 33 70  1  0  0  0  0
 33 73  1  0  0  0  0
 34 74  1  0  0  0  0
 34 79  2  0  0  0  0
 35 54  1  0  0  0  0
 35 75  1  0  0  0  0
 35 80  2  0  0  0  0
 36 66  1  0  0  0  0
 36 71  1  0  0  0  0
 36 81  2  0  0  0  0
 37 67  1  0  0  0  0
 37 76  1  0  0  0  0
 37 82  2  0  0  0  0
 38 72  1  0  0  0  0
 38 77  1  0  0  0  0
 38 83  2  0  0  0  0
 39 42  1  0  0  0  0
 40 54  1  0  0  0  0
 41 71  1  0  0  0  0
 42 46  1  0  0  0  0
 43 47  1  0  0  0  0
 43 50  1  0  0  0  0
 44 48  1  0  0  0  0
 44 52  1  0  0  0  0
 45 49  1  0  0  0  0
 45 52  1  0  0  0  0
 46 53  1  0  0  0  0
 47 55  1  0  0  0  0
 48 56  1  0  0  0  0
 49 56  1  0  0  0  0
 50 72  1  0  0  0  0
 51 55  1  0  0  0  0
 51 72  1  0  0  0  0
 53 75  1  0  0  0  0
 54 71  1  0  0  0  0
 55 70  1  0  0  0  0
 56 77  1  0  0  0  0
 57 67  1  0  0  0  0
 58 68  1  0  0  0  0
 59 68  1  0  0  0  0
 60 68  1  0  0  0  0
 61 78  1  0  0  0  0
 62 63  1  0  0  0  0
 63 64  1  0  0  0  0
 64 65  1  0  0  0  0
 65 85  1  0  0  0  0
 66 68  1  0  0  0  0
 66 76  1  0  0  0  0
 67 78  1  0  0  0  0
 69 70  1  0  0  0  0
M  CHG  1  78   1
M  ISO  4  38 100  65 101  77 100  85 101
M  END
> <Batch ID>
0119

> <Smiles>
CNC(C)C(=O)NC(C(=O)N1Cc2cc([101O:1][101CH2:1]CCCc3ccc(C4CCC([100NH:0][100C:0](=O)N5CCCC(n6nc(-c7ccc(Oc8ccc(F)cc8F)cc7)c(C(N)=O)c6N)C5)CC4)cc3)ccc2CC1C(=O)NC1CCCc2ccccc21)C(C)(C)C

> <Shape>
0.288

> <Color>
0.223

> <Negative vol penalty>
0.000

$$$$

  -OEChem-04052320203D

 88 96  0     1  0  0  0  0  0999 V2000
  -37.6951  -32.1470   22.5057 C   0  0  0  0  0  0  0  0  0  0  0  0
  -36.6065  -31.4167   22.0399 C   0  0  0  0  0  0  0  0  0  0  0  0
  -22.9979   -9.9349   19.9837 C   0  0  0  0  0  0  0  0  0  0  0  0
  -23.7275   -9.9637   22.2868 C   0  0  0  0  0  0  0  0  0  0  0  0
  -38.5803  -31.5722   23.4167 C   0  0  0  0  0  0  0  0  0  0  0  0
  -36.4031  -30.1106   22.4841 C   0  0  0  0  0  0  0  0  0  0  0  0
  -31.0243  -27.3491   23.4581 C   0  0  0  0  0  0  0  0  0  0  0  0
  -22.2161   -8.8098   20.2455 C   0  0  0  0  0  0  0  0  0  0  0  0
  -22.9457   -8.8386   22.5485 C   0  0  0  0  0  0  0  0  0  0  0  0
  -30.2674  -26.4704   22.6844 C   0  0  0  0  0  0  0  0  0  0  0  0
  -23.1427   -5.4991   22.0588 C   0  0  0  0  0  0  0  0  0  0  0  0
  -23.7173   -4.4699   22.8046 C   0  0  0  0  0  0  0  0  0  0  0  0
  -31.2337  -24.6044   23.8692 C   0  0  0  0  0  0  0  0  0  0  0  0
  -21.9997   -4.7280   24.4840 C   0  0  0  0  0  0  0  0  0  0  0  0
  -23.7537  -10.5119   21.0044 C   0  0  0  0  0  0  0  0  0  0  0  0
  -24.1737  -13.0227   20.8408 C   0  0  0  0  0  0  0  0  0  0  0  0
  -38.3822  -30.2619   23.8797 C   0  0  0  0  0  0  0  0  0  0  0  0
  -31.9012  -26.8608   24.4374 C   0  0  0  0  0  0  0  0  0  0  0  0
  -37.2872  -29.5173   23.4012 C   0  0  0  0  0  0  0  0  0  0  0  0
  -31.9987  -25.4792   24.6557 C   0  0  0  0  0  0  0  0  0  0  0  0
  -28.3691  -19.4357   21.2195 C   0  0  0  0  0  0  0  0  0  0  0  0
  -28.3286  -20.0504   22.4660 C   0  0  0  0  0  0  0  0  0  0  0  0
  -29.2127  -18.3499   21.0130 C   0  0  0  0  0  0  0  0  0  0  0  0
  -22.1899   -8.2617   21.5278 C   0  0  0  0  0  0  0  0  0  0  0  0
  -30.3741  -25.0977   22.8879 C   0  0  0  0  0  0  0  0  0  0  0  0
  -21.9967   -6.1429   22.5256 C   0  0  0  0  0  0  0  0  0  0  0  0
  -23.1457   -4.0843   24.0171 C   0  0  0  0  0  0  0  0  0  0  0  0
  -21.4251   -5.7573   23.7382 C   0  0  0  0  0  0  0  0  0  0  0  0
  -24.5619  -11.6737   20.7345 C   0  0  0  0  0  0  0  0  0  0  0  0
  -29.1450  -19.5452   23.4650 C   0  0  0  0  0  0  0  0  0  0  0  0
  -29.9897  -17.9209   22.0770 C   0  0  0  0  0  0  0  0  0  0  0  0
  -25.2928  -13.7317   20.4783 C   0  0  0  0  0  0  0  0  0  0  0  0
  -22.9141  -13.5847   21.2324 C   0  0  0  0  0  0  0  0  0  0  0  0
  -35.0424  -26.9964   24.9042 C   0  0  0  0  0  0  0  0  0  0  0  0
  -34.2941  -25.5587   27.7140 C   0  0  0  0  0  0  0  0  0  0  0  0
  -32.1037  -23.6394   29.4933 C   0  0  0  0  0  0  0  0  0  0  0  0
  -30.8020  -14.5884   20.7223 C   0  0  0  0  0  0  0  0  0  0  0  0
  -39.3924  -29.6667   24.8284 C   0  0  0  0  0  0  0  0  0  0  0  0
  -32.6908  -27.8230   25.2818 C   0  0  0  0  0  0  0  0  0  0  0  0
  -32.9103  -24.9050   25.7082 C   0  0  0  0  0  0  0  0  0  0  0  0
  -38.8959  -28.4085   25.5360 C   0  0  0  0  0  0  0  0  0  0  0  0
  -29.6239  -12.1932   18.3661 C   0  0  0  0  0  0  0  0  0  0  0  0
  -38.2417  -27.4578   24.5384 C   0  0  0  0  0  0  0  0  0  0  0  0
  -28.1726  -11.9514   18.7848 C   0  0  0  0  0  0  0  0  0  0  0  0
  -30.5314  -12.4097   19.5750 C   0  0  0  0  0  0  0  0  0  0  0  0
  -28.6348  -13.2246   20.9212 C   0  0  0  0  0  0  0  0  0  0  0  0
  -37.0189  -28.1065   23.8785 C   0  0  1  0  0  0  0  0  0  0  0  0
  -33.9350  -27.1931   25.9005 C   0  0  1  0  0  0  0  0  0  0  0  0
  -27.6713  -13.0566   19.7339 C   0  0  2  0  0  0  0  0  0  0  0  0
  -29.1433  -20.1624   24.8254 C   0  0  0  0  0  0  0  0  0  0  0  0
  -31.7823  -22.5998   31.7545 C   0  0  0  0  0  0  0  0  0  0  0  0
  -24.1615  -18.5775   18.6097 C   0  0  0  0  0  0  0  0  0  0  0  0
  -24.8276  -20.9543   19.0188 C   0  0  0  0  0  0  0  0  0  0  0  0
  -36.3332  -23.4011   27.0092 C   0  0  0  0  0  0  0  0  0  0  0  0
  -35.3039  -21.9508   28.7715 C   0  0  0  0  0  0  0  0  0  0  0  0
  -36.3607  -24.1200   29.4044 C   0  0  0  0  0  0  0  0  0  0  0  0
  -29.6204  -25.1757   29.9749 C   0  0  0  0  0  0  0  0  0  0  0  0
  -27.5065  -19.9425   20.1067 C   0  0  0  0  0  0  0  0  0  0  0  0
  -27.4237  -21.2289   22.7224 C   0  0  0  0  0  0  0  0  0  0  0  0
  -30.9170  -16.7598   21.9186 C   0  0  0  0  0  0  0  0  0  0  0  0
  -26.2814  -19.0411   19.8763 C   0  0  0  0  0  0  0  0  0  0  0  0
  -27.9396  -22.5420   22.1300 C   0  0  0  0  0  0  0  0  0  0  0  0
  -29.2584  -23.0026   22.7400 C   0  0  0  0  0  0  0  0  0  1  0  0
  -34.1496  -24.1295   28.1785 C   0  0  1  0  0  0  0  0  0  0  0  0
  -31.5081  -23.8125   30.8789 C   0  0  2  0  0  0  0  0  0  0  0  0
  -25.3438  -19.5381   18.7602 C   0  0  0  0  0  0  0  0  0  0  0  0
  -35.5210  -23.4108   28.3197 C   0  0  0  0  0  0  0  0  0  0  0  0
  -25.8287  -11.5317   20.3355 N   0  0  0  0  0  0  0  0  0  0  0  0
  -29.9775  -18.4925   23.3021 N   0  0  0  0  0  0  0  0  0  0  0  0
  -26.2461  -12.8006   20.1878 N   0  0  0  0  0  0  0  0  0  0  0  0
  -33.6664  -25.8862   26.5039 N   0  0  0  0  0  0  0  0  0  0  0  0
  -30.0008  -13.4714   20.4336 N   0  0  0  0  0  0  0  0  0  0  0  0
  -29.2766  -17.7085   19.7606 N   0  0  0  0  0  0  0  0  0  0  0  0
  -25.5445  -15.0545   20.3827 N   0  0  0  0  0  0  0  0  0  0  0  0
  -21.8706  -12.7132   21.5731 N   0  0  0  0  0  0  0  0  0  0  0  0
  -35.8866  -28.0833   24.7795 N   0  0  0  0  0  0  0  0  0  0  0  0
  -33.3705  -24.1777   29.4110 N   0  0  0  0  0  0  0  0  0  0  0  0
  -30.2204  -15.5511   21.5381 N   0  0  0  0  0  0  0  0  0  0  0  0
  -30.0328  -24.0030   30.7884 N   0  3  0  0  0  0  0  0  0  0  0  0
  -22.7146  -14.8228   21.2630 O   0  0  0  0  0  0  0  0  0  0  0  0
  -35.1258  -25.9365   24.2950 O   0  0  0  0  0  0  0  0  0  0  0  0
  -34.9341  -26.3568   28.4033 O   0  0  0  0  0  0  0  0  0  0  0  0
  -31.5065  -23.0792   28.5768 O   0  0  0  0  0  0  0  0  0  0  0  0
  -31.9487  -14.7207   20.2810 O   0  0  0  0  0  0  0  0  0  0  0  0
  -21.4270   -7.1640   21.7837 O   0  0  0  0  0  0  0  0  0  0  0  0
  -29.6370  -24.2377   22.1336 O   0  0  0  0  0  0  0  0  0  1  0  0
  -23.6967   -3.0949   24.7325 F   0  0  0  0  0  0  0  0  0  0  0  0
  -20.3235   -6.3712   24.1912 F   0  0  0  0  0  0  0  0  0  0  0  0
  1  2  1  0  0  0  0
  1  5  2  0  0  0  0
  2  6  2  0  0  0  0
  3  8  2  0  0  0  0
  3 15  1  0  0  0  0
  4  9  1  0  0  0  0
  4 15  2  0  0  0  0
  5 17  1  0  0  0  0
  6 19  1  0  0  0  0
  7 10  2  0  0  0  0
  7 18  1  0  0  0  0
  8 24  1  0  0  0  0
  9 24  2  0  0  0  0
 10 25  1  0  0  0  0
 11 12  2  0  0  0  0
 11 26  1  0  0  0  0
 12 27  1  0  0  0  0
 13 20  1  0  0  0  0
 13 25  2  0  0  0  0
 14 27  2  0  0  0  0
 14 28  1  0  0  0  0
 15 29  1  0  0  0  0
 16 29  1  0  0  0  0
 16 32  2  0  0  0  0
 16 33  1  0  0  0  0
 17 19  2  0  0  0  0
 17 38  1  0  0  0  0
 18 20  2  0  0  0  0
 18 39  1  0  0  0  0
 19 47  1  0  0  0  0
 20 40  1  0  0  0  0
 21 22  2  0  0  0  0
 21 23  1  0  0  0  0
 21 58  1  0  0  0  0
 22 30  1  0  0  0  0
 22 59  1  0  0  0  0
 23 31  2  0  0  0  0
 23 73  1  0  0  0  0
 24 85  1  0  0  0  0
 25 86  1  0  0  0  0
 26 28  2  0  0  0  0
 26 85  1  0  0  0  0
 27 87  1  0  0  0  0
 28 88  1  0  0  0  0
 29 68  2  0  0  0  0
 30 50  1  0  0  0  0
 30 69  2  0  0  0  0
 31 60  1  0  0  0  0
 31 69  1  0  0  0  0
 32 70  1  0  0  0  0
 32 74  1  0  0  0  0
 33 75  1  0  0  0  0
 33 80  2  0  0  0  0
 34 48  1  0  0  0  0
 34 76  1  0  0  0  0
 34 81  2  0  0  0  0
 35 64  1  0  0  0  0
 35 71  1  0  0  0  0
 35 82  2  0  0  0  0
 36 65  1  0  0  0  0
 36 77  1  0  0  0  0
 36 83  2  0  0  0  0
 37 72  1  0  0  0  0
 37 78  1  0  0  0  0
 37 84  2  0  0  0  0
 38 41  1  0  0  0  0
 39 48  1  0  0  0  0
 40 71  1  0  0  0  0
 41 43  1  0  0  0  0
 42 44  1  0  0  0  0
 42 45  1  0  0  0  0
 43 47  1  0  0  0  0
 44 49  1  0  0  0  0
 45 72  1  0  0  0  0
 46 49  1  0  0  0  0
 46 72  1  0  0  0  0
 47 76  1  0  0  0  0
 48 71  1  0  0  0  0
 49 70  1  0  0  0  0
 51 65  1  0  0  0  0
 52 66  1  0  0  0  0
 53 66  1  0  0  0  0
 54 67  1  0  0  0  0
 55 67  1  0  0  0  0
 56 67  1  0  0  0  0
 57 79  1  0  0  0  0
 58 61  1  0  0  0  0
 59 62  1  0  0  0  0
 60 78  1  0  0  0  0
 61 66  1  0  0  0  0
 62 63  1  0  0  0  0
 63 86  1  0  0  0  0
 64 67  1  0  0  0  0
 64 77  1  0  0  0  0
 65 79  1  0  0  0  0
 68 70  1  0  0  0  0
M  CHG  1  79   1
M  ISO  4  37 100  63 101  78 100  86 101
M  END
> <Batch ID>
0119

> <Smiles>
CNC(C)C(=O)NC(C(=O)N1Cc2cc([101O:1][101CH2:1]CCc3c(C)nc(C[100NH:0][100C:0](=O)N4CCCC(n5nc(-c6ccc(Oc7ccc(F)cc7F)cc6)c(C(N)=O)c5N)C4)c(N)c3CCC(C)C)ccc2CC1C(=O)NC1CCCc2ccccc21)C(C)(C)C

> <Shape>
0.206

> <Color>
0.196

> <Negative vol penalty>
0.000

$$$$

  -OEChem-04052320203D

 86 94  0     1  0  0  0  0  0999 V2000
  -40.5607  -24.5825   25.3431 C   0  0  0  0  0  0  0  0  0  0  0  0
  -39.5616  -24.8192   26.2817 C   0  0  0  0  0  0  0  0  0  0  0  0
  -23.0002   -9.8928   19.9841 C   0  0  0  0  0  0  0  0  0  0  0  0
  -23.7286   -9.9473   22.2870 C   0  0  0  0  0  0  0  0  0  0  0  0
  -40.3174  -24.8241   23.9916 C   0  0  0  0  0  0  0  0  0  0  0  0
  -38.3188  -25.2989   25.8696 C   0  0  0  0  0  0  0  0  0  0  0  0
  -32.2815  -21.6175   27.2441 C   0  0  0  0  0  0  0  0  0  0  0  0
  -22.2350   -8.7580   20.2530 C   0  0  0  0  0  0  0  0  0  0  0  0
  -22.9633   -8.8126   22.5559 C   0  0  0  0  0  0  0  0  0  0  0  0
  -31.0620  -21.0771   27.6529 C   0  0  0  0  0  0  0  0  0  0  0  0
  -23.2097   -5.4732   22.0880 C   0  0  0  0  0  0  0  0  0  0  0  0
  -23.7991   -4.4575   22.8405 C   0  0  0  0  0  0  0  0  0  0  0  0
  -29.8783  -22.7814   26.4109 C   0  0  0  0  0  0  0  0  0  0  0  0
  -29.6569  -19.6170   24.1342 C   0  0  0  0  0  0  0  0  0  0  0  0
  -22.0774   -4.7012   24.5179 C   0  0  0  0  0  0  0  0  0  0  0  0
  -27.8362  -18.2574   23.4321 C   0  0  0  0  0  0  0  0  0  0  0  0
  -23.7471  -10.4875   21.0011 C   0  0  0  0  0  0  0  0  0  0  0  0
  -24.1301  -13.0031   20.8213 C   0  0  0  0  0  0  0  0  0  0  0  0
  -39.0678  -25.2978   23.5617 C   0  0  0  0  0  0  0  0  0  0  0  0
  -32.3039  -22.7340   26.4037 C   0  0  0  0  0  0  0  0  0  0  0  0
  -38.0590  -25.5483   24.5113 C   0  0  0  0  0  0  0  0  0  0  0  0
  -31.0967  -23.3195   25.9881 C   0  0  0  0  0  0  0  0  0  0  0  0
  -28.2941  -19.3426   24.1618 C   0  0  0  0  0  0  0  0  0  0  0  0
  -30.5081  -18.8092   23.3884 C   0  0  0  0  0  0  0  0  0  0  0  0
  -22.2165   -8.2179   21.5389 C   0  0  0  0  0  0  0  0  0  0  0  0
  -29.8634  -21.6578   27.2374 C   0  0  0  0  0  0  0  0  0  0  0  0
  -22.0541   -6.1030   22.5504 C   0  0  0  0  0  0  0  0  0  0  0  0
  -23.2330   -4.0714   24.0555 C   0  0  0  0  0  0  0  0  0  0  0  0
  -21.4880   -5.7170   23.7653 C   0  0  0  0  0  0  0  0  0  0  0  0
  -24.5382  -11.6593   20.7238 C   0  0  0  0  0  0  0  0  0  0  0  0
  -29.9511  -17.7478   22.6935 C   0  0  0  0  0  0  0  0  0  0  0  0
  -25.2387  -13.7261   20.4544 C   0  0  0  0  0  0  0  0  0  0  0  0
  -22.8622  -13.5490   21.2089 C   0  0  0  0  0  0  0  0  0  0  0  0
  -34.3794  -25.2116   24.4985 C   0  0  0  0  0  0  0  0  0  0  0  0
  -31.9964  -24.4829   22.7095 C   0  0  0  0  0  0  0  0  0  0  0  0
  -29.1615  -23.5776   20.6723 C   0  0  0  0  0  0  0  0  0  0  0  0
  -30.7347  -14.6655   20.6939 C   0  0  0  0  0  0  0  0  0  0  0  0
  -38.8672  -25.5891   22.0955 C   0  0  0  0  0  0  0  0  0  0  0  0
  -33.5944  -23.3866   25.9884 C   0  0  0  0  0  0  0  0  0  0  0  0
  -31.1695  -24.5404   25.1122 C   0  0  0  0  0  0  0  0  0  0  0  0
  -37.4007  -25.7412   21.6998 C   0  0  0  0  0  0  0  0  0  0  0  0
  -29.5926  -12.2379   18.3531 C   0  0  0  0  0  0  0  0  0  0  0  0
  -36.6718  -26.6447   22.6894 C   0  0  0  0  0  0  0  0  0  0  0  0
  -28.1449  -11.9775   18.7731 C   0  0  0  0  0  0  0  0  0  0  0  0
  -30.4966  -12.4756   19.5608 C   0  0  0  0  0  0  0  0  0  0  0  0
  -28.5877  -13.2713   20.9013 C   0  0  0  0  0  0  0  0  0  0  0  0
  -36.6898  -26.0451   24.1006 C   0  0  1  0  0  0  0  0  0  0  0  0
  -33.5468  -23.9650   24.5628 C   0  0  1  0  0  0  0  0  0  0  0  0
  -27.6271  -13.0813   19.7149 C   0  0  2  0  0  0  0  0  0  0  0  0
  -32.5702  -17.6492   25.3779 C   0  0  0  0  0  0  0  0  0  0  0  0
  -32.2589  -20.4717   22.7087 C   0  0  0  0  0  0  0  0  0  0  0  0
  -28.7660  -23.8572   18.2100 C   0  0  0  0  0  0  0  0  0  0  0  0
  -28.2614  -18.9321   28.5253 C   0  0  0  0  0  0  0  0  0  0  0  0
  -30.6202  -27.0813   23.5207 C   0  0  0  0  0  0  0  0  0  0  0  0
  -28.9065  -26.6440   21.7487 C   0  0  0  0  0  0  0  0  0  0  0  0
  -31.2979  -26.9659   21.1161 C   0  0  0  0  0  0  0  0  0  0  0  0
  -28.6107  -20.6918   20.3152 C   0  0  0  0  0  0  0  0  0  0  0  0
  -27.3444  -20.1984   24.9613 C   0  0  0  0  0  0  0  0  0  0  0  0
  -30.8173  -16.8460   21.8761 C   0  0  0  0  0  0  0  0  0  0  0  0
  -32.6644  -19.0305   24.7412 C   0  0  0  0  0  0  0  0  0  0  0  0
  -27.1452  -19.7184   26.4063 C   0  0  0  0  0  0  0  0  0  0  0  0
  -31.9691  -19.0987   23.3530 C   0  0  1  0  0  0  0  0  0  0  0  0
  -30.5970  -24.8256   22.2649 C   0  0  1  0  0  0  0  0  0  0  0  0
  -29.1974  -22.9030   19.3128 C   0  0  2  0  0  0  0  0  0  0  0  0
  -28.4166  -19.7701   27.2626 C   0  0  1  0  0  0  0  0  0  1  0  0
  -30.3603  -26.3601   22.1831 C   0  0  0  0  0  0  0  0  0  0  0  0
  -28.6324  -17.4501   22.6960 N   0  0  0  0  0  0  0  0  0  0  0  0
  -25.8070  -11.5334   20.3260 N   0  0  0  0  0  0  0  0  0  0  0  0
  -26.2057  -12.8073   20.1702 N   0  0  0  0  0  0  0  0  0  0  0  0
  -32.2105  -24.3625   24.0879 N   0  0  0  0  0  0  0  0  0  0  0  0
  -29.9501  -13.5349   20.4123 N   0  0  0  0  0  0  0  0  0  0  0  0
  -25.4710  -15.0519   20.3503 N   0  0  0  0  0  0  0  0  0  0  0  0
  -21.8316  -12.6645   21.5551 N   0  0  0  0  0  0  0  0  0  0  0  0
  -35.7118  -24.9841   24.2114 N   0  0  0  0  0  0  0  0  0  0  0  0
  -30.3845  -24.1202   21.0056 N   0  0  0  0  0  0  0  0  0  0  0  0
  -30.1387  -15.6248   21.5033 N   0  0  0  0  0  0  0  0  0  0  0  0
  -28.2874  -21.7230   19.2960 N   0  3  0  0  0  0  0  0  0  0  0  0
  -22.6445  -14.7842   21.2314 O   0  0  0  0  0  0  0  0  0  0  0  0
  -33.8526  -26.3008   24.6934 O   0  0  0  0  0  0  0  0  0  0  0  0
  -32.8789  -24.3311   21.8601 O   0  0  0  0  0  0  0  0  0  0  0  0
  -28.1488  -23.6222   21.3673 O   0  0  0  0  0  0  0  0  0  0  0  0
  -31.8794  -14.8118   20.2520 O   0  0  0  0  0  0  0  0  0  0  0  0
  -21.4697   -7.1108   21.8017 O   0  0  0  0  0  0  0  0  0  0  0  0
  -28.6765  -21.1225   27.6365 O   0  0  0  0  0  0  0  0  0  1  0  0
  -23.7983   -3.0949   24.7773 F   0  0  0  0  0  0  0  0  0  0  0  0
  -20.3773   -6.3175   24.2141 F   0  0  0  0  0  0  0  0  0  0  0  0
  1  2  1  0  0  0  0
  1  5  2  0  0  0  0
  2  6  2  0  0  0  0
  3  8  2  0  0  0  0
  3 17  1  0  0  0  0
  4  9  1  0  0  0  0
  4 17  2  0  0  0  0
  5 19  1  0  0  0  0
  6 21  1  0  0  0  0
  7 10  2  0  0  0  0
  7 20  1  0  0  0  0
  8 25  1  0  0  0  0
  9 25  2  0  0  0  0
 10 26  1  0  0  0  0
 11 12  2  0  0  0  0
 11 27  1  0  0  0  0
 12 28  1  0  0  0  0
 13 22  1  0  0  0  0
 13 26  2  0  0  0  0
 14 23  2  0  0  0  0
 14 24  1  0  0  0  0
 15 28  2  0  0  0  0
 15 29  1  0  0  0  0
 16 23  1  0  0  0  0
 16 67  2  0  0  0  0
 17 30  1  0  0  0  0
 18 30  1  0  0  0  0
 18 32  2  0  0  0  0
 18 33  1  0  0  0  0
 19 21  2  0  0  0  0
 19 38  1  0  0  0  0
 20 22  2  0  0  0  0
 20 39  1  0  0  0  0
 21 47  1  0  0  0  0
 22 40  1  0  0  0  0
 23 58  1  0  0  0  0
 24 31  2  0  0  0  0
 24 62  1  0  0  0  0
 25 83  1  0  0  0  0
 26 84  1  0  0  0  0
 27 29  2  0  0  0  0
 27 83  1  0  0  0  0
 28 85  1  0  0  0  0
 29 86  1  0  0  0  0
 30 68  2  0  0  0  0
 31 59  1  0  0  0  0
 31 67  1  0  0  0  0
 32 69  1  0  0  0  0
 32 72  1  0  0  0  0
 33 73  1  0  0  0  0
 33 78  2  0  0  0  0
 34 48  1  0  0  0  0
 34 74  1  0  0  0  0
 34 79  2  0  0  0  0
 35 63  1  0  0  0  0
 35 70  1  0  0  0  0
 35 80  2  0  0  0  0
 36 64  1  0  0  0  0
 36 75  1  0  0  0  0
 36 81  2  0  0  0  0
 37 71  1  0  0  0  0
 37 76  1  0  0  0  0
 37 82  2  0  0  0  0
 38 41  1  0  0  0  0
 39 48  1  0  0  0  0
 40 70  1  0  0  0  0
 41 43  1  0  0  0  0
 42 44  1  0  0  0  0
 42 45  1  0  0  0  0
 43 47  1  0  0  0  0
 44 49  1  0  0  0  0
 45 71  1  0  0  0  0
 46 49  1  0  0  0  0
 46 71  1  0  0  0  0
 47 74  1  0  0  0  0
 48 70  1  0  0  0  0
 49 69  1  0  0  0  0
 50 60  1  0  0  0  0
 51 62  1  0  0  0  0
 52 64  1  0  0  0  0
 53 65  1  0  0  0  0
 54 66  1  0  0  0  0
 55 66  1  0  0  0  0
 56 66  1  0  0  0  0
 57 77  1  0  0  0  0
 58 61  1  0  0  0  0
 59 76  1  0  0  0  0
 60 62  1  0  0  0  0
 61 65  1  0  0  0  0
 63 66  1  0  0  0  0
 63 75  1  0  0  0  0
 64 77  1  0  0  0  0
 65 84  1  0  0  0  0
 68 69  1  0  0  0  0
M  CHG  1  77   1
M  ISO  4  37 100  65 101  76 100  84 101
M  END
> <Batch ID>
0119

> <Smiles>
CCC(C)c1cc(CC[101CH:1](C)[101O:1]c2ccc3c(c2)CN(C(=O)C(NC(=O)C(C)NC)C(C)(C)C)C(C(=O)NC2CCCc4ccccc42)C3)cnc1C[100NH:0][100C:0](=O)N1CCCC(n2nc(-c3ccc(Oc4ccc(F)cc4F)cc3)c(C(N)=O)c2N)C1

> <Shape>
0.221

> <Color>
0.193

> <Negative vol penalty>
0.000

$$$$

  -OEChem-04052320203D

 85 93  0     1  0  0  0  0  0999 V2000
  -17.5672  -26.0583   22.8614 C   0  0  0  0  0  0  0  0  0  0  0  0
  -18.8287  -25.6888   22.4059 C   0  0  0  0  0  0  0  0  0  0  0  0
  -28.2025  -14.6942   20.4134 C   0  0  0  0  0  0  0  0  0  0  0  0
  -28.6697  -16.2411   18.6174 C   0  0  0  0  0  0  0  0  0  0  0  0
  -17.1868  -27.3995   22.8456 C   0  0  0  0  0  0  0  0  0  0  0  0
  -19.7102  -26.6604   21.9332 C   0  0  0  0  0  0  0  0  0  0  0  0
  -25.8074  -26.6916   22.5071 C   0  0  0  0  0  0  0  0  0  0  0  0
  -28.1481  -13.6451   19.4957 C   0  0  0  0  0  0  0  0  0  0  0  0
  -28.6154  -15.1920   17.6997 C   0  0  0  0  0  0  0  0  0  0  0  0
  -26.8332  -26.3238   21.6376 C   0  0  0  0  0  0  0  0  0  0  0  0
  -30.3359  -11.7084   17.7940 C   0  0  0  0  0  0  0  0  0  0  0  0
  -30.9997  -10.5261   18.1210 C   0  0  0  0  0  0  0  0  0  0  0  0
  -27.0680  -28.6244   20.9511 C   0  0  0  0  0  0  0  0  0  0  0  0
  -23.5408  -24.1237   19.7506 C   0  0  0  0  0  0  0  0  0  0  0  0
  -25.6189  -23.7840   18.5884 C   0  0  0  0  0  0  0  0  0  0  0  0
  -28.9106   -9.3188   17.9970 C   0  0  0  0  0  0  0  0  0  0  0  0
  -28.4632  -15.9922   19.9742 C   0  0  0  0  0  0  0  0  0  0  0  0
  -29.6518  -17.5410   21.6162 C   0  0  0  0  0  0  0  0  0  0  0  0
  -18.0676  -28.3892   22.3815 C   0  0  0  0  0  0  0  0  0  0  0  0
  -25.3960  -28.0292   22.5973 C   0  0  0  0  0  0  0  0  0  0  0  0
  -19.3407  -28.0160   21.9099 C   0  0  0  0  0  0  0  0  0  0  0  0
  -26.0384  -29.0070   21.8244 C   0  0  0  0  0  0  0  0  0  0  0  0
  -24.7914  -23.5208   19.6744 C   0  0  0  0  0  0  0  0  0  0  0  0
  -28.3546  -13.8940   18.1389 C   0  0  0  0  0  0  0  0  0  0  0  0
  -27.4618  -27.2898   20.8573 C   0  0  0  0  0  0  0  0  0  0  0  0
  -28.9594  -11.6960   17.5685 C   0  0  0  0  0  0  0  0  0  0  0  0
  -30.2871   -9.3313   18.2225 C   0  0  0  0  0  0  0  0  0  0  0  0
  -28.2468  -10.5012   17.6700 C   0  0  0  0  0  0  0  0  0  0  0  0
  -28.5189  -17.0764   20.9216 C   0  0  0  0  0  0  0  0  0  0  0  0
  -23.1676  -24.9752   18.7233 C   0  0  0  0  0  0  0  0  0  0  0  0
  -25.1526  -24.6505   17.6130 C   0  0  0  0  0  0  0  0  0  0  0  0
  -29.1818  -18.5773   22.3854 C   0  0  0  0  0  0  0  0  0  0  0  0
  -31.0077  -17.0773   21.5702 C   0  0  0  0  0  0  0  0  0  0  0  0
  -22.6839  -29.5853   22.0261 C   0  0  0  0  0  0  0  0  0  0  0  0
  -24.3130  -32.0930   23.2831 C   0  0  0  0  0  0  0  0  0  0  0  0
  -27.3272  -33.5414   23.9636 C   0  0  0  0  0  0  0  0  0  0  0  0
  -24.5176  -22.2731   21.8457 C   0  0  0  0  0  0  0  0  0  0  0  0
  -17.5943  -29.8205   22.3395 C   0  0  0  0  0  0  0  0  0  0  0  0
  -24.3060  -28.4138   23.5598 C   0  0  0  0  0  0  0  0  0  0  0  0
  -25.6479  -30.4597   21.8990 C   0  0  0  0  0  0  0  0  0  0  0  0
  -18.7257  -30.8316   22.1726 C   0  0  0  0  0  0  0  0  0  0  0  0
  -25.2128  -20.1077   24.5852 C   0  0  0  0  0  0  0  0  0  0  0  0
  -19.6801  -30.3873   21.0687 C   0  0  0  0  0  0  0  0  0  0  0  0
  -26.2471  -19.1307   24.0216 C   0  0  0  0  0  0  0  0  0  0  0  0
  -24.1658  -20.4902   23.5406 C   0  0  0  0  0  0  0  0  0  0  0  0
  -25.7434  -20.0160   21.7088 C   0  0  0  0  0  0  0  0  0  0  0  0
  -20.3342  -29.0436   21.4127 C   0  0  1  0  0  0  0  0  0  0  0  0
  -23.6204  -29.7262   23.1926 C   0  0  1  0  0  0  0  0  0  0  0  0
  -26.8561  -19.6520   22.7052 C   0  0  2  0  0  0  0  0  0  0  0  0
  -21.8323  -25.6394   18.7721 C   0  0  0  0  0  0  0  0  0  0  0  0
  -25.1787  -25.1852   15.1538 C   0  0  0  0  0  0  0  0  0  0  0  0
  -28.3382  -35.6092   24.9633 C   0  0  0  0  0  0  0  0  0  0  0  0
  -30.4729  -26.2192   17.9809 C   0  0  0  0  0  0  0  0  0  0  0  0
  -23.6084  -33.6550   20.7585 C   0  0  0  0  0  0  0  0  0  0  0  0
  -25.3890  -35.3064   21.3672 C   0  0  0  0  0  0  0  0  0  0  0  0
  -23.4347  -34.9678   22.8800 C   0  0  0  0  0  0  0  0  0  0  0  0
  -28.7087  -31.9879   26.0701 C   0  0  0  0  0  0  0  0  0  0  0  0
  -26.9572  -26.1640   16.6413 C   0  0  0  0  0  0  0  0  0  0  0  0
  -28.6207  -27.7166   18.8249 C   0  0  0  0  0  0  0  0  0  1  0  0
  -26.0321  -24.9625   16.4080 C   0  0  1  0  0  0  0  0  0  0  0  0
  -25.2088  -33.1730   22.7263 C   0  0  1  0  0  0  0  0  0  0  0  0
  -27.8736  -34.1851   25.2252 C   0  0  2  0  0  0  0  0  0  0  0  0
  -29.1245  -26.8511   17.6755 C   0  0  2  0  0  0  0  0  0  0  0  0
  -24.4165  -34.2480   21.9299 C   0  0  0  0  0  0  0  0  0  0  0  0
  -27.4125  -17.7612   21.2230 N   0  0  0  0  0  0  0  0  0  0  0  0
  -23.9440  -25.2551   17.6526 N   0  0  0  0  0  0  0  0  0  0  0  0
  -27.8479  -18.6667   22.1156 N   0  0  0  0  0  0  0  0  0  0  0  0
  -24.5724  -30.7848   22.8504 N   0  0  0  0  0  0  0  0  0  0  0  0
  -24.8158  -20.9791   22.3227 N   0  0  0  0  0  0  0  0  0  0  0  0
  -29.7836  -19.4116   23.2596 N   0  0  0  0  0  0  0  0  0  0  0  0
  -31.3180  -16.0024   20.7260 N   0  0  0  0  0  0  0  0  0  0  0  0
  -25.2205  -22.6411   20.6989 N   0  0  0  0  0  0  0  0  0  0  0  0
  -21.3956  -29.2307   22.3785 N   0  0  0  0  0  0  0  0  0  0  0  0
  -25.9619  -33.7024   23.8582 N   0  0  0  0  0  0  0  0  0  0  0  0
  -29.0291  -33.4022   25.7475 N   0  3  0  0  0  0  0  0  0  0  0  0
  -28.1398  -25.7554   17.4411 N   0  3  0  0  0  0  0  0  0  0  0  0
  -31.9140  -17.5901   22.2695 O   0  0  0  0  0  0  0  0  0  0  0  0
  -23.0989  -29.7851   20.8905 O   0  0  0  0  0  0  0  0  0  0  0  0
  -23.4206  -32.3978   24.0783 O   0  0  0  0  0  0  0  0  0  0  0  0
  -28.0409  -32.9576   23.1510 O   0  0  0  0  0  0  0  0  0  0  0  0
  -23.7191  -23.0114   22.4282 O   0  0  0  0  0  0  0  0  0  0  0  0
  -28.3019  -12.8706   17.2432 O   0  0  0  0  0  0  0  0  0  0  0  0
  -28.4630  -26.9334   20.0073 O   0  0  0  0  0  0  0  0  0  1  0  0
  -30.9249   -8.1957   18.5350 F   0  0  0  0  0  0  0  0  0  0  0  0
  -26.9244  -10.4829   17.4533 F   0  0  0  0  0  0  0  0  0  0  0  0
  1  2  1  0  0  0  0
  1  5  2  0  0  0  0
  2  6  2  0  0  0  0
  3  8  2  0  0  0  0
  3 17  1  0  0  0  0
  4  9  1  0  0  0  0
  4 17  2  0  0  0  0
  5 19  1  0  0  0  0
  6 21  1  0  0  0  0
  7 10  2  0  0  0  0
  7 20  1  0  0  0  0
  8 24  1  0  0  0  0
  9 24  2  0  0  0  0
 10 25  1  0  0  0  0
 11 12  2  0  0  0  0
 11 26  1  0  0  0  0
 12 27  1  0  0  0  0
 13 22  1  0  0  0  0
 13 25  2  0  0  0  0
 14 23  1  0  0  0  0
 14 30  2  0  0  0  0
 15 23  2  0  0  0  0
 15 31  1  0  0  0  0
 16 27  2  0  0  0  0
 16 28  1  0  0  0  0
 17 29  1  0  0  0  0
 18 29  1  0  0  0  0
 18 32  2  0  0  0  0
 18 33  1  0  0  0  0
 19 21  2  0  0  0  0
 19 38  1  0  0  0  0
 20 22  2  0  0  0  0
 20 39  1  0  0  0  0
 21 47  1  0  0  0  0
 22 40  1  0  0  0  0
 23 72  1  0  0  0  0
 24 82  1  0  0  0  0
 25 83  1  0  0  0  0
 26 28  2  0  0  0  0
 26 82  1  0  0  0  0
 27 84  1  0  0  0  0
 28 85  1  0  0  0  0
 29 65  2  0  0  0  0
 30 50  1  0  0  0  0
 30 66  1  0  0  0  0
 31 60  1  0  0  0  0
 31 66  2  0  0  0  0
 32 67  1  0  0  0  0
 32 70  1  0  0  0  0
 33 71  1  0  0  0  0
 33 77  2  0  0  0  0
 34 48  1  0  0  0  0
 34 73  1  0  0  0  0
 34 78  2  0  0  0  0
 35 61  1  0  0  0  0
 35 68  1  0  0  0  0
 35 79  2  0  0  0  0
 36 62  1  0  0  0  0
 36 74  1  0  0  0  0
 36 80  2  0  0  0  0
 37 69  1  0  0  0  0
 37 72  1  0  0  0  0
 37 81  2  0  0  0  0
 38 41  1  0  0  0  0
 39 48  1  0  0  0  0
 40 68  1  0  0  0  0
 41 43  1  0  0  0  0
 42 44  1  0  0  0  0
 42 45  1  0  0  0  0
 43 47  1  0  0  0  0
 44 49  1  0  0  0  0
 45 69  1  0  0  0  0
 46 49  1  0  0  0  0
 46 69  1  0  0  0  0
 47 73  1  0  0  0  0
 48 68  1  0  0  0  0
 49 67  1  0  0  0  0
 51 60  1  0  0  0  0
 52 62  1  0  0  0  0
 53 63  1  0  0  0  0
 54 64  1  0  0  0  0
 55 64  1  0  0  0  0
 56 64  1  0  0  0  0
 57 75  1  0  0  0  0
 58 60  1  0  0  0  0
 58 76  1  0  0  0  0
 59 63  1  0  0  0  0
 59 83  1  0  0  0  0
 61 64  1  0  0  0  0
 61 74  1  0  0  0  0
 62 75  1  0  0  0  0
 63 76  1  0  0  0  0
 65 67  1  0  0  0  0
M  CHG  2  75   1  76   1
M  ISO  4  37 100  59 101  72 100  83 101
M  END
> <Batch ID>
0119

> <Smiles>
CNC(C)C(=O)NC(C(=O)N1Cc2cc([101O:1][101CH2:1]C(C)NCC(C)c3cc([100NH:0][100C:0](=O)N4CCCC(n5nc(-c6ccc(Oc7ccc(F)cc7F)cc6)c(C(N)=O)c5N)C4)cc(C)n3)ccc2CC1C(=O)NC1CCCc2ccccc21)C(C)(C)C

> <Shape>
0.229

> <Color>
0.073

> <Negative vol penalty>
0.000

$$$$

  -OEChem-04052320203D

 84 93  0     1  0  0  0  0  0999 V2000
  -38.7814  -25.2294   19.1617 C   0  0  0  0  0  0  0  0  0  0  0  0
  -38.2237  -23.9642   19.0072 C   0  0  0  0  0  0  0  0  0  0  0  0
  -23.2441   -9.7884   21.2908 C   0  0  0  0  0  0  0  0  0  0  0  0
  -23.8973  -10.6086   23.4674 C   0  0  0  0  0  0  0  0  0  0  0  0
  -38.1665  -26.1642   19.9935 C   0  0  0  0  0  0  0  0  0  0  0  0
  -37.0513  -23.6328   19.6854 C   0  0  0  0  0  0  0  0  0  0  0  0
  -31.1177  -19.6824   18.9760 C   0  0  0  0  0  0  0  0  0  0  0  0
  -22.5513   -8.7388   21.8941 C   0  0  0  0  0  0  0  0  0  0  0  0
  -23.2045   -9.5590   24.0708 C   0  0  0  0  0  0  0  0  0  0  0  0
  -30.3825  -18.7116   19.6548 C   0  0  0  0  0  0  0  0  0  0  0  0
  -23.2837   -5.7516   23.2957 C   0  0  0  0  0  0  0  0  0  0  0  0
  -23.4473   -4.4746   22.7589 C   0  0  0  0  0  0  0  0  0  0  0  0
  -29.3648  -20.4337   21.0031 C   0  0  0  0  0  0  0  0  0  0  0  0
  -28.6469  -16.6161   23.1654 C   0  0  0  0  0  0  0  0  0  0  0  0
  -21.0759   -4.3587   22.3117 C   0  0  0  0  0  0  0  0  0  0  0  0
  -23.9171  -10.7232   22.0774 C   0  0  0  0  0  0  0  0  0  0  0  0
  -24.1307  -13.0805   21.1260 C   0  0  0  0  0  0  0  0  0  0  0  0
  -36.9807  -25.8473   20.6747 C   0  0  0  0  0  0  0  0  0  0  0  0
  -30.9898  -21.0375   19.3135 C   0  0  0  0  0  0  0  0  0  0  0  0
  -36.4206  -24.5638   20.5282 C   0  0  0  0  0  0  0  0  0  0  0  0
  -30.0976  -21.4200   20.3253 C   0  0  0  0  0  0  0  0  0  0  0  0
  -29.2358  -16.0687   24.2999 C   0  0  0  0  0  0  0  0  0  0  0  0
  -30.4967  -16.4988   24.6982 C   0  0  0  0  0  0  0  0  0  0  0  0
  -22.5315   -8.6241   23.2841 C   0  0  0  0  0  0  0  0  0  0  0  0
  -29.5081  -19.0869   20.6705 C   0  0  0  0  0  0  0  0  0  0  0  0
  -22.0161   -6.3321   23.3407 C   0  0  0  0  0  0  0  0  0  0  0  0
  -22.3435   -3.7782   22.2668 C   0  0  0  0  0  0  0  0  0  0  0  0
  -20.9122   -5.6357   22.8486 C   0  0  0  0  0  0  0  0  0  0  0  0
  -24.6334  -11.8073   21.4547 C   0  0  0  0  0  0  0  0  0  0  0  0
  -31.1217  -17.4709   23.9339 C   0  0  0  0  0  0  0  0  0  0  0  0
  -29.3547  -17.5829   22.4696 C   0  0  0  0  0  0  0  0  0  1  0  0
  -25.1973  -13.7352   20.5601 C   0  0  0  0  0  0  0  0  0  0  0  0
  -22.8171  -13.6229   21.3153 C   0  0  0  0  0  0  0  0  0  0  0  0
  -32.9621  -23.2673   20.4280 C   0  0  0  0  0  0  0  0  0  0  0  0
  -30.4121  -25.2124   19.9414 C   0  0  0  0  0  0  0  0  0  0  0  0
  -27.0285  -25.5306   19.6309 C   0  0  0  0  0  0  0  0  0  0  0  0
  -31.1261  -13.0807   21.0812 C   0  0  0  0  0  0  0  0  0  0  0  0
  -36.3782  -26.8749   21.5998 C   0  0  0  0  0  0  0  0  0  0  0  0
  -31.7700  -22.0749   18.5536 C   0  0  0  0  0  0  0  0  0  0  0  0
  -29.9088  -22.8633   20.7121 C   0  0  0  0  0  0  0  0  0  0  0  0
  -34.9340  -26.5708   21.9900 C   0  0  0  0  0  0  0  0  0  0  0  0
  -29.2092  -12.9157   18.0854 C   0  0  0  0  0  0  0  0  0  0  0  0
  -34.7871  -25.1073   22.3942 C   0  0  0  0  0  0  0  0  0  0  0  0
  -27.7738  -12.7278   18.5796 C   0  0  0  0  0  0  0  0  0  0  0  0
  -32.8873  -13.1020   23.9756 C   0  0  0  0  0  0  0  0  0  0  0  0
  -30.2111  -12.1723   18.9661 C   0  0  0  0  0  0  0  0  0  0  0  0
  -28.6871  -12.2971   20.8988 C   0  0  0  0  0  0  0  0  0  0  0  0
  -35.1363  -24.1751   21.2277 C   0  0  1  0  0  0  0  0  0  0  0  0
  -31.9442  -23.3776   19.3283 C   0  0  1  0  0  0  0  0  0  0  0  0
  -27.6458  -13.0740   20.0752 C   0  0  2  0  0  0  0  0  0  0  0  0
  -31.8925  -13.9805   23.2635 C   0  0  2  0  0  0  0  0  0  0  0  0
  -31.8270  -13.8189   24.7595 C   0  0  2  0  0  0  0  0  0  0  0  0
  -28.4971  -15.0241   25.0697 C   0  0  0  0  0  0  0  0  0  0  0  0
  -32.4771  -17.9723   24.3123 C   0  0  0  0  0  0  0  0  0  0  0  0
  -25.2359  -27.2506   19.2764 C   0  0  0  0  0  0  0  0  0  0  0  0
  -30.6962  -26.1034   22.8458 C   0  0  0  0  0  0  0  0  0  0  0  0
  -28.3821  -27.0493   22.7090 C   0  0  0  0  0  0  0  0  0  0  0  0
  -30.1834  -27.9462   21.2347 C   0  0  0  0  0  0  0  0  0  0  0  0
  -26.1521  -24.2650   17.1032 C   0  0  0  0  0  0  0  0  0  0  0  0
  -31.1526  -15.9301   25.9113 C   0  0  0  0  0  0  0  0  0  0  0  0
  -29.2290  -25.6516   20.7699 C   0  0  1  0  0  0  0  0  0  0  0  0
  -26.1748  -26.2583   18.6081 C   0  0  2  0  0  0  0  0  0  0  0  0
  -29.6275  -26.6601   21.8841 C   0  0  0  0  0  0  0  0  0  0  0  0
  -25.9193  -11.6598   21.1249 N   0  0  0  0  0  0  0  0  0  0  0  0
  -30.5813  -18.0259   22.8259 N   0  0  0  0  0  0  0  0  0  0  0  0
  -26.2336  -12.8488   20.5831 N   0  0  0  0  0  0  0  0  0  0  0  0
  -30.6987  -23.8399   19.9441 N   0  0  0  0  0  0  0  0  0  0  0  0
  -30.0379  -12.5465   20.3717 N   0  0  0  0  0  0  0  0  0  0  0  0
  -25.3404  -14.9769   20.0500 N   0  0  0  0  0  0  0  0  0  0  0  0
  -21.8401  -12.8146   21.9123 N   0  0  0  0  0  0  0  0  0  0  0  0
  -34.0421  -24.1168   20.2823 N   0  0  0  0  0  0  0  0  0  0  0  0
  -28.2383  -26.1619   19.8284 N   0  0  0  0  0  0  0  0  0  0  0  0
  -30.8747  -13.4147   22.4064 N   0  0  0  0  0  0  0  0  0  0  0  0
  -32.2484  -14.9726   25.5963 N   0  3  0  0  0  0  0  0  0  0  0  0
  -25.3553  -25.2858   17.8313 N   0  3  0  0  0  0  0  0  0  0  0  0
  -22.5140  -14.7842   20.9505 O   0  0  0  0  0  0  0  0  0  0  0  0
  -32.7803  -22.4714   21.3419 O   0  0  0  0  0  0  0  0  0  0  0  0
  -31.0540  -26.0551   19.3093 O   0  0  0  0  0  0  0  0  0  0  0  0
  -26.6575  -24.5067   20.2006 O   0  0  0  0  0  0  0  0  0  0  0  0
  -32.2379  -13.2526   20.5700 O   0  0  0  0  0  0  0  0  0  0  0  0
  -21.8554   -7.6002   23.8733 O   0  0  0  0  0  0  0  0  0  0  0  0
  -28.7898  -18.1413   21.3352 O   0  0  0  0  0  0  0  0  0  1  0  0
  -22.5010   -2.5526   21.7499 F   0  0  0  0  0  0  0  0  0  0  0  0
  -19.6922   -6.1887   22.8880 F   0  0  0  0  0  0  0  0  0  0  0  0
  1  2  1  0  0  0  0
  1  5  2  0  0  0  0
  2  6  2  0  0  0  0
  3  8  2  0  0  0  0
  3 16  1  0  0  0  0
  4  9  1  0  0  0  0
  4 16  2  0  0  0  0
  5 18  1  0  0  0  0
  6 20  1  0  0  0  0
  7 10  2  0  0  0  0
  7 19  1  0  0  0  0
  8 24  1  0  0  0  0
  9 24  2  0  0  0  0
 10 25  1  0  0  0  0
 11 12  2  0  0  0  0
 11 26  1  0  0  0  0
 12 27  1  0  0  0  0
 13 21  1  0  0  0  0
 13 25  2  0  0  0  0
 14 22  2  0  0  0  0
 14 31  1  0  0  0  0
 15 27  2  0  0  0  0
 15 28  1  0  0  0  0
 16 29  1  0  0  0  0
 17 29  1  0  0  0  0
 17 32  2  0  0  0  0
 17 33  1  0  0  0  0
 18 20  2  0  0  0  0
 18 38  1  0  0  0  0
 19 21  2  0  0  0  0
 19 39  1  0  0  0  0
 20 48  1  0  0  0  0
 21 40  1  0  0  0  0
 22 23  1  0  0  0  0
 22 53  1  0  0  0  0
 23 30  2  0  0  0  0
 23 60  1  0  0  0  0
 24 81  1  0  0  0  0
 25 82  1  0  0  0  0
 26 28  2  0  0  0  0
 26 81  1  0  0  0  0
 27 83  1  0  0  0  0
 28 84  1  0  0  0  0
 29 64  2  0  0  0  0
 30 54  1  0  0  0  0
 30 65  1  0  0  0  0
 31 65  2  0  0  0  0
 31 82  1  0  0  0  0
 32 66  1  0  0  0  0
 32 69  1  0  0  0  0
 33 70  1  0  0  0  0
 33 76  2  0  0  0  0
 34 49  1  0  0  0  0
 34 71  1  0  0  0  0
 34 77  2  0  0  0  0
 35 61  1  0  0  0  0
 35 67  1  0  0  0  0
 35 78  2  0  0  0  0
 36 62  1  0  0  0  0
 36 72  1  0  0  0  0
 36 79  2  0  0  0  0
 37 68  1  0  0  0  0
 37 73  1  0  0  0  0
 37 80  2  0  0  0  0
 38 41  1  0  0  0  0
 39 49  1  0  0  0  0
 40 67  1  0  0  0  0
 41 43  1  0  0  0  0
 42 44  1  0  0  0  0
 42 46  1  0  0  0  0
 43 48  1  0  0  0  0
 44 50  1  0  0  0  0
 45 51  1  0  0  0  0
 45 52  1  0  0  0  0
 46 68  1  0  0  0  0
 47 50  1  0  0  0  0
 47 68  1  0  0  0  0
 48 71  1  0  0  0  0
 49 67  1  0  0  0  0
 50 66  1  0  0  0  0
 51 52  1  0  0  0  0
 51 73  1  0  0  0  0
 52 74  1  0  0  0  0
 55 62  1  0  0  0  0
 56 63  1  0  0  0  0
 57 63  1  0  0  0  0
 58 63  1  0  0  0  0
 59 75  1  0  0  0  0
 60 74  1  0  0  0  0
 61 63  1  0  0  0  0
 61 72  1  0  0  0  0
 62 75  1  0  0  0  0
 64 66  1  0  0  0  0
M  CHG  2  74   1  75   1
M  ISO  4  31 101  37 100  73 100  82 101
M  END
> <Batch ID>
0119

> <Smiles>
CNC(C)C(=O)NC(C(=O)N1Cc2cc([101O:1][101c:1]3cc(C)c(CNC4CC4[100NH:0][100C:0](=O)N4CCCC(n5nc(-c6ccc(Oc7ccc(F)cc7F)cc6)c(C(N)=O)c5N)C4)c(C)n3)ccc2CC1C(=O)NC1CCCc2ccccc21)C(C)(C)C

> <Shape>
0.242

> <Color>
0.144

> <Negative vol penalty>
0.000

$$$$

  -OEChem-04052320203D

 82 90  0     1  0  0  0  0  0999 V2000
  -32.8427  -33.0711   24.3031 C   0  0  0  0  0  0  0  0  0  0  0  0
  -32.7259  -31.9601   25.1322 C   0  0  0  0  0  0  0  0  0  0  0  0
  -23.2228  -10.1376   21.6671 C   0  0  0  0  0  0  0  0  0  0  0  0
  -24.8282  -10.4881   23.4383 C   0  0  0  0  0  0  0  0  0  0  0  0
  -31.9935  -33.2135   23.2066 C   0  0  0  0  0  0  0  0  0  0  0  0
  -31.7589  -30.9913   24.8659 C   0  0  0  0  0  0  0  0  0  0  0  0
  -30.6245  -23.9389   25.4071 C   0  0  0  0  0  0  0  0  0  0  0  0
  -22.6754   -9.0677   22.3750 C   0  0  0  0  0  0  0  0  0  0  0  0
  -24.2807   -9.4182   24.1462 C   0  0  0  0  0  0  0  0  0  0  0  0
  -29.6921  -23.0336   25.9120 C   0  0  0  0  0  0  0  0  0  0  0  0
  -20.5695   -8.6233   24.9829 C   0  0  0  0  0  0  0  0  0  0  0  0
  -19.1795   -8.5463   25.0689 C   0  0  0  0  0  0  0  0  0  0  0  0
  -28.3326  -23.3453   23.9439 C   0  0  0  0  0  0  0  0  0  0  0  0
  -19.2305   -6.3960   23.9685 C   0  0  0  0  0  0  0  0  0  0  0  0
  -24.2993  -10.8478   22.1987 C   0  0  0  0  0  0  0  0  0  0  0  0
  -24.2091  -13.1310   21.0645 C   0  0  0  0  0  0  0  0  0  0  0  0
  -31.0220  -32.2412   22.9211 C   0  0  0  0  0  0  0  0  0  0  0  0
  -30.4122  -24.5635   24.1697 C   0  0  0  0  0  0  0  0  0  0  0  0
  -30.8950  -31.1216   23.7653 C   0  0  0  0  0  0  0  0  0  0  0  0
  -29.2650  -24.2562   23.4243 C   0  0  0  0  0  0  0  0  0  0  0  0
  -23.2043   -8.7080   23.6146 C   0  0  0  0  0  0  0  0  0  0  0  0
  -28.5446  -22.7389   25.1818 C   0  0  0  0  0  0  0  0  0  0  0  0
  -21.2901   -7.5866   24.3897 C   0  0  0  0  0  0  0  0  0  0  0  0
  -18.5100   -7.4327   24.5617 C   0  0  0  0  0  0  0  0  0  0  0  0
  -20.6206   -6.4730   23.8825 C   0  0  0  0  0  0  0  0  0  0  0  0
  -24.8656  -11.9528   21.4677 C   0  0  0  0  0  0  0  0  0  0  0  0
  -25.1746  -13.8547   20.4083 C   0  0  0  0  0  0  0  0  0  0  0  0
  -22.8482  -13.5353   21.2653 C   0  0  0  0  0  0  0  0  0  0  0  0
  -30.0379  -27.5705   23.2097 C   0  0  0  0  0  0  0  0  0  0  0  0
  -30.1129  -26.2272   20.2581 C   0  0  0  0  0  0  0  0  0  0  0  0
  -29.6483  -23.4537   18.3246 C   0  0  0  0  0  0  0  0  0  0  0  0
  -31.1528  -13.9159   20.7375 C   0  0  0  0  0  0  0  0  0  0  0  0
  -30.0954  -32.4622   21.7518 C   0  0  0  0  0  0  0  0  0  0  0  0
  -31.4405  -25.5175   23.6267 C   0  0  0  0  0  0  0  0  0  0  0  0
  -29.0001  -24.8843   22.0812 C   0  0  0  0  0  0  0  0  0  0  0  0
  -29.3454  -31.2038   21.3226 C   0  0  0  0  0  0  0  0  0  0  0  0
  -29.1743  -13.2985   17.8425 C   0  0  0  0  0  0  0  0  0  0  0  0
  -28.7649  -30.4877   22.5379 C   0  0  0  0  0  0  0  0  0  0  0  0
  -27.7865  -12.9899   18.4069 C   0  0  0  0  0  0  0  0  0  0  0  0
  -30.2826  -12.7450   18.7354 C   0  0  0  0  0  0  0  0  0  0  0  0
  -28.5543  -18.6682   23.0572 C   0  0  0  0  0  0  0  0  0  0  0  0
  -28.8958  -17.3913   25.0820 C   0  0  0  0  0  0  0  0  0  0  0  0
  -28.8160  -12.8504   20.7133 C   0  0  0  0  0  0  0  0  0  0  0  0
  -29.9566  -18.3274   22.5638 C   0  0  0  0  0  0  0  0  0  0  0  0
  -30.3079  -17.0134   24.6474 C   0  0  0  0  0  0  0  0  0  0  0  0
  -29.8749  -30.0369   23.4950 C   0  0  1  0  0  0  0  0  0  0  0  0
  -30.8718  -26.4838   22.5922 C   0  0  1  0  0  0  0  0  0  0  0  0
  -27.6665  -13.4372   19.8762 C   0  0  2  0  0  0  0  0  0  0  0  0
  -29.7505  -22.6740   15.9415 C   0  0  0  0  0  0  0  0  0  0  0  0
  -27.4692  -27.6388   19.6855 C   0  0  0  0  0  0  0  0  0  0  0  0
  -27.1558  -26.1082   17.7292 C   0  0  0  0  0  0  0  0  0  0  0  0
  -29.1002  -27.6696   17.7899 C   0  0  0  0  0  0  0  0  0  0  0  0
  -31.7486  -21.4628   18.9443 C   0  0  0  0  0  0  0  0  0  0  0  0
  -27.2190  -19.5940   26.4114 C   0  0  0  0  0  0  0  0  0  0  0  0
  -27.1612  -19.0606   24.9835 C   0  0  0  0  0  0  0  0  0  0  0  0
  -31.8785  -15.0668   22.8130 C   0  0  0  0  0  0  0  0  0  0  0  0
  -31.7234  -16.5663   22.6408 C   0  0  0  0  0  0  0  0  0  0  0  0
  -28.1249  -20.8148   26.5150 C   0  0  0  0  0  0  0  0  0  1  0  0
  -29.0802  -25.6550   19.3174 C   0  0  1  0  0  0  0  0  0  0  0  0
  -30.5121  -22.8188   17.2498 C   0  0  2  0  0  0  0  0  0  0  0  0
  -28.2051  -26.7574   18.6566 C   0  0  0  0  0  0  0  0  0  0  0  0
  -26.1489  -11.9254   21.0983 N   0  0  0  0  0  0  0  0  0  0  0  0
  -26.3065  -13.0953   20.4561 N   0  0  0  0  0  0  0  0  0  0  0  0
  -30.0322  -25.8154   21.5959 N   0  0  0  0  0  0  0  0  0  0  0  0
  -30.1117  -13.2078   20.1147 N   0  0  0  0  0  0  0  0  0  0  0  0
  -28.5000  -18.6914   24.5248 N   0  0  0  0  0  0  0  0  0  0  0  0
  -25.1572  -15.0601   19.8008 N   0  0  0  0  0  0  0  0  0  0  0  0
  -21.9904  -12.6720   21.9605 N   0  0  0  0  0  0  0  0  0  0  0  0
  -30.5238  -28.8455   22.9910 N   0  0  0  0  0  0  0  0  0  0  0  0
  -29.8101  -24.8223   18.3675 N   0  0  0  0  0  0  0  0  0  0  0  0
  -30.9064  -14.3236   22.0427 N   0  0  0  0  0  0  0  0  0  0  0  0
  -30.3744  -16.9985   23.1410 N   0  3  0  0  0  0  0  0  0  0  0  0
  -30.9658  -21.4665   17.6817 N   0  3  0  0  0  0  0  0  0  0  0  0
  -22.4017  -14.6223   20.8266 O   0  0  0  0  0  0  0  0  0  0  0  0
  -29.0277  -27.2744   23.8370 O   0  0  0  0  0  0  0  0  0  0  0  0
  -30.9645  -27.0051   19.8206 O   0  0  0  0  0  0  0  0  0  0  0  0
  -28.9017  -22.8012   19.0508 O   0  0  0  0  0  0  0  0  0  0  0  0
  -32.2206  -14.1708   20.1702 O   0  0  0  0  0  0  0  0  0  0  0  0
  -22.6702   -7.6642   24.3058 O   0  0  0  0  0  0  0  0  0  0  0  0
  -27.6326  -21.8561   25.6726 O   0  0  0  0  0  0  0  0  0  1  0  0
  -17.1752   -7.3582   24.6458 F   0  0  0  0  0  0  0  0  0  0  0  0
  -21.3075   -5.4735   23.3126 F   0  0  0  0  0  0  0  0  0  0  0  0
  1  2  1  0  0  0  0
  1  5  2  0  0  0  0
  2  6  2  0  0  0  0
  3  8  2  0  0  0  0
  3 15  1  0  0  0  0
  4  9  1  0  0  0  0
  4 15  2  0  0  0  0
  5 17  1  0  0  0  0
  6 19  1  0  0  0  0
  7 10  2  0  0  0  0
  7 18  1  0  0  0  0
  8 21  1  0  0  0  0
  9 21  2  0  0  0  0
 10 22  1  0  0  0  0
 11 12  2  0  0  0  0
 11 23  1  0  0  0  0
 12 24  1  0  0  0  0
 13 20  1  0  0  0  0
 13 22  2  0  0  0  0
 14 24  2  0  0  0  0
 14 25  1  0  0  0  0
 15 26  1  0  0  0  0
 16 26  1  0  0  0  0
 16 27  2  0  0  0  0
 16 28  1  0  0  0  0
 17 19  2  0  0  0  0
 17 33  1  0  0  0  0
 18 20  2  0  0  0  0
 18 34  1  0  0  0  0
 19 46  1  0  0  0  0
 20 35  1  0  0  0  0
 21 79  1  0  0  0  0
 22 80  1  0  0  0  0
 23 25  2  0  0  0  0
 23 79  1  0  0  0  0
 24 81  1  0  0  0  0
 25 82  1  0  0  0  0
 26 62  2  0  0  0  0
 27 63  1  0  0  0  0
 27 67  1  0  0  0  0
 28 68  1  0  0  0  0
 28 74  2  0  0  0  0
 29 47  1  0  0  0  0
 29 69  1  0  0  0  0
 29 75  2  0  0  0  0
 30 59  1  0  0  0  0
 30 64  1  0  0  0  0
 30 76  2  0  0  0  0
 31 60  1  0  0  0  0
 31 70  1  0  0  0  0
 31 77  2  0  0  0  0
 32 65  1  0  0  0  0
 32 71  1  0  0  0  0
 32 78  2  0  0  0  0
 33 36  1  0  0  0  0
 34 47  1  0  0  0  0
 35 64  1  0  0  0  0
 36 38  1  0  0  0  0
 37 39  1  0  0  0  0
 37 40  1  0  0  0  0
 38 46  1  0  0  0  0
 39 48  1  0  0  0  0
 40 65  1  0  0  0  0
 41 44  1  0  0  0  0
 41 66  1  0  0  0  0
 42 45  1  0  0  0  0
 42 66  1  0  0  0  0
 43 48  1  0  0  0  0
 43 65  1  0  0  0  0
 44 72  1  0  0  0  0
 45 72  1  0  0  0  0
 46 69  1  0  0  0  0
 47 64  1  0  0  0  0
 48 63  1  0  0  0  0
 49 60  1  0  0  0  0
 50 61  1  0  0  0  0
 51 61  1  0  0  0  0
 52 61  1  0  0  0  0
 53 73  1  0  0  0  0
 54 55  1  0  0  0  0
 54 58  1  0  0  0  0
 55 66  1  0  0  0  0
 56 57  1  0  0  0  0
 56 71  1  0  0  0  0
 57 72  1  0  0  0  0
 58 80  1  0  0  0  0
 59 61  1  0  0  0  0
 59 70  1  0  0  0  0
 60 73  1  0  0  0  0
 62 63  1  0  0  0  0
M  CHG  2  72   1  73   1
M  ISO  4  32 100  58 101  71 100  80 101
M  END
> <Batch ID>
0119

> <Smiles>
CNC(C)C(=O)NC(C(=O)N1Cc2cc([101O:1][101CH2:1]CCN3CCN(CC[100NH:0][100C:0](=O)N4CCCC(n5nc(-c6ccc(Oc7ccc(F)cc7F)cc6)c(C(N)=O)c5N)C4)CC3)ccc2CC1C(=O)NC1CCCc2ccccc21)C(C)(C)C

> <Shape>
0.212

> <Color>
0.146

> <Negative vol penalty>
0.000

$$$$

  -OEChem-04052320203D

 90 99  0     1  0  0  0  0  0999 V2000
  -28.1471  -32.5083   26.5797 C   0  0  0  0  0  0  0  0  0  0  0  0
  -28.2111  -31.2859   25.9187 C   0  0  0  0  0  0  0  0  0  0  0  0
  -23.8612   -9.9181   21.8855 C   0  0  0  0  0  0  0  0  0  0  0  0
  -24.4349  -11.1950   23.8547 C   0  0  0  0  0  0  0  0  0  0  0  0
  -26.9148  -33.1309   26.7737 C   0  0  0  0  0  0  0  0  0  0  0  0
  -27.0426  -30.6847   25.4523 C   0  0  0  0  0  0  0  0  0  0  0  0
  -27.5338  -28.8726   20.7491 C   0  0  0  0  0  0  0  0  0  0  0  0
  -30.3883  -19.1556   22.4612 C   0  0  0  0  0  0  0  0  0  0  0  0
  -23.3650   -8.8951   22.6935 C   0  0  0  0  0  0  0  0  0  0  0  0
  -23.9386  -10.1720   24.6626 C   0  0  0  0  0  0  0  0  0  0  0  0
  -28.2077  -27.6611   20.6007 C   0  0  0  0  0  0  0  0  0  0  0  0
  -20.5585   -8.2634   24.4704 C   0  0  0  0  0  0  0  0  0  0  0  0
  -19.3301   -7.7012   24.1232 C   0  0  0  0  0  0  0  0  0  0  0  0
  -30.5249  -17.8180   22.8155 C   0  0  0  0  0  0  0  0  0  0  0  0
  -26.0932  -26.5134   20.4254 C   0  0  0  0  0  0  0  0  0  0  0  0
  -20.3859   -5.5412   23.8854 C   0  0  0  0  0  0  0  0  0  0  0  0
  -24.3962  -11.0681   22.4661 C   0  0  0  0  0  0  0  0  0  0  0  0
  -24.1981  -13.2284   21.1240 C   0  0  0  0  0  0  0  0  0  0  0  0
  -25.7316  -32.5418   26.3009 C   0  0  0  0  0  0  0  0  0  0  0  0
  -26.1321  -28.9122   20.7477 C   0  0  0  0  0  0  0  0  0  0  0  0
  -25.7931  -31.2994   25.6413 C   0  0  0  0  0  0  0  0  0  0  0  0
  -31.3116  -19.7389   21.6007 C   0  0  0  0  0  0  0  0  0  0  0  0
  -25.4039  -27.7269   20.5713 C   0  0  0  0  0  0  0  0  0  0  0  0
  -23.4037   -9.0220   24.0820 C   0  0  0  0  0  0  0  0  0  0  0  0
  -27.4873  -26.4809   20.4417 C   0  0  0  0  0  0  0  0  0  0  0  0
  -21.7007   -7.4645   24.5250 C   0  0  0  0  0  0  0  0  0  0  0  0
  -19.2438   -6.3401   23.8307 C   0  0  0  0  0  0  0  0  0  0  0  0
  -21.6144   -6.1034   24.2326 C   0  0  0  0  0  0  0  0  0  0  0  0
  -24.9095  -12.1250   21.6321 C   0  0  0  0  0  0  0  0  0  0  0  0
  -31.5937  -17.1128   22.2863 C   0  0  0  0  0  0  0  0  0  0  0  0
  -32.3454  -18.9478   21.1260 C   0  0  0  0  0  0  0  0  0  0  0  0
  -25.1281  -13.9317   20.3981 C   0  0  0  0  0  0  0  0  0  0  0  0
  -22.8200  -13.5858   21.2933 C   0  0  0  0  0  0  0  0  0  0  0  0
  -23.9104  -29.7781   22.8496 C   0  0  0  0  0  0  0  0  0  0  0  0
  -21.9023  -29.2505   20.3573 C   0  0  0  0  0  0  0  0  0  0  0  0
  -21.3192  -27.6650   17.3919 C   0  0  0  0  0  0  0  0  0  0  0  0
  -31.0971  -14.3021   20.6889 C   0  0  0  0  0  0  0  0  0  0  0  0
  -24.4179  -33.2297   26.5760 C   0  0  0  0  0  0  0  0  0  0  0  0
  -25.4205  -30.2305   20.8821 C   0  0  0  0  0  0  0  0  0  0  0  0
  -23.8981  -27.7182   20.5424 C   0  0  0  0  0  0  0  0  0  0  0  0
  -23.2661  -32.7076   25.7210 C   0  0  0  0  0  0  0  0  0  0  0  0
  -29.1474  -13.3249   17.8746 C   0  0  0  0  0  0  0  0  0  0  0  0
  -29.8413  -21.3607   20.4576 C   0  0  0  0  0  0  0  0  0  0  0  0
  -23.2579  -31.1822   25.7105 C   0  0  0  0  0  0  0  0  0  0  0  0
  -29.5906  -22.8231   20.0928 C   0  0  0  0  0  0  0  0  0  0  0  0
  -27.7760  -13.0061   18.4726 C   0  0  0  0  0  0  0  0  0  0  0  0
  -30.9609  -23.5675   22.0773 C   0  0  0  0  0  0  0  0  0  0  0  0
  -30.2811  -12.9097   18.8096 C   0  0  0  0  0  0  0  0  0  0  0  0
  -28.8128  -13.1312   20.7765 C   0  0  0  0  0  0  0  0  0  0  0  0
  -31.1705  -21.1793   21.2165 C   0  0  1  0  0  0  0  0  0  0  0  0
  -24.5502  -30.6277   25.0989 C   0  0  1  0  0  0  0  0  0  0  0  0
  -23.9859  -30.0870   21.3811 C   0  0  1  0  0  0  0  0  0  0  0  0
  -29.6309  -23.7299   21.3289 C   0  0  1  0  0  0  0  0  0  0  0  0
  -27.6364  -13.5829   19.8943 C   0  0  2  0  0  0  0  0  0  0  0  0
  -31.2135  -22.1044   22.4505 C   0  0  1  0  0  0  0  0  0  0  0  0
  -33.3647  -19.5199   20.1963 C   0  0  0  0  0  0  0  0  0  0  0  0
  -19.5727  -27.4011   15.6094 C   0  0  0  0  0  0  0  0  0  0  0  0
  -34.0096  -22.8424   24.8736 C   0  0  0  0  0  0  0  0  0  0  0  0
  -32.0242  -21.3690   25.3853 C   0  0  0  0  0  0  0  0  0  0  0  0
  -20.3133  -27.4008   22.1913 C   0  0  0  0  0  0  0  0  0  0  0  0
  -19.1963  -26.4590   20.1583 C   0  0  0  0  0  0  0  0  0  0  0  0
  -18.9162  -28.8713   20.7283 C   0  0  0  0  0  0  0  0  0  0  0  0
  -23.1051  -28.7834   15.3138 C   0  0  0  0  0  0  0  0  0  0  0  0
  -31.7698  -15.6747   22.6440 C   0  0  0  0  0  0  0  0  0  0  0  0
  -29.4128  -25.1755   20.9362 C   0  0  0  0  0  0  0  0  0  1  0  0
  -21.1372  -28.0587   19.8346 C   0  0  1  0  0  0  0  0  0  0  0  0
  -20.7999  -28.1776   16.0607 C   0  0  2  0  0  0  0  0  0  0  0  0
  -32.5793  -22.4795   24.5079 C   0  0  0  0  0  0  0  0  0  0  0  0
  -19.9191  -27.6970   20.7306 C   0  0  0  0  0  0  0  0  0  0  0  0
  -26.1923  -12.1230   21.2603 N   0  0  0  0  0  0  0  0  0  0  0  0
  -32.5108  -17.6451   21.4477 N   0  0  0  0  0  0  0  0  0  0  0  0
  -26.2944  -13.2338   20.5107 N   0  0  0  0  0  0  0  0  0  0  0  0
  -23.2481  -29.0315   20.6842 N   0  0  0  0  0  0  0  0  0  0  0  0
  -30.0899  -13.4911   20.1405 N   0  0  0  0  0  0  0  0  0  0  0  0
  -25.0537  -15.0729   19.6806 N   0  0  0  0  0  0  0  0  0  0  0  0
  -22.0042  -12.7523   22.0705 N   0  0  0  0  0  0  0  0  0  0  0  0
  -24.5096  -30.7271   23.6557 N   0  0  0  0  0  0  0  0  0  0  0  0
  -20.7905  -28.3705   18.4522 N   0  0  0  0  0  0  0  0  0  0  0  0
  -30.8329  -14.8182   21.9517 N   0  0  0  0  0  0  0  0  0  0  0  0
  -32.5566  -22.0200   23.0963 N   0  3  0  0  0  0  0  0  0  0  0  0
  -21.8499  -28.0488   15.0110 N   0  3  0  0  0  0  0  0  0  0  0  0
  -22.3226  -14.6050   20.7572 O   0  0  0  0  0  0  0  0  0  0  0  0
  -23.3487  -28.7552   23.2237 O   0  0  0  0  0  0  0  0  0  0  0  0
  -21.3290  -30.3374   20.4646 O   0  0  0  0  0  0  0  0  0  0  0  0
  -22.1114  -26.7298   17.4824 O   0  0  0  0  0  0  0  0  0  0  0  0
  -32.1513  -14.5523   20.0948 O   0  0  0  0  0  0  0  0  0  0  0  0
  -22.9193   -8.0240   24.8707 O   0  0  0  0  0  0  0  0  0  0  0  0
  -28.1426  -25.2970   20.2973 O   0  0  0  0  0  0  0  0  0  1  0  0
  -18.0638   -5.8001   23.4988 F   0  0  0  0  0  0  0  0  0  0  0  0
  -22.7079   -5.3306   24.2846 F   0  0  0  0  0  0  0  0  0  0  0  0
  1  2  1  0  0  0  0
  1  5  2  0  0  0  0
  2  6  2  0  0  0  0
  3  9  2  0  0  0  0
  3 17  1  0  0  0  0
  4 10  1  0  0  0  0
  4 17  2  0  0  0  0
  5 19  1  0  0  0  0
  6 21  1  0  0  0  0
  7 11  2  0  0  0  0
  7 20  1  0  0  0  0
  8 14  2  0  0  0  0
  8 22  1  0  0  0  0
  9 24  1  0  0  0  0
 10 24  2  0  0  0  0
 11 25  1  0  0  0  0
 12 13  2  0  0  0  0
 12 26  1  0  0  0  0
 13 27  1  0  0  0  0
 14 30  1  0  0  0  0
 15 23  1  0  0  0  0
 15 25  2  0  0  0  0
 16 27  2  0  0  0  0
 16 28  1  0  0  0  0
 17 29  1  0  0  0  0
 18 29  1  0  0  0  0
 18 32  2  0  0  0  0
 18 33  1  0  0  0  0
 19 21  2  0  0  0  0
 19 38  1  0  0  0  0
 20 23  2  0  0  0  0
 20 39  1  0  0  0  0
 21 51  1  0  0  0  0
 22 31  2  0  0  0  0
 22 50  1  0  0  0  0
 23 40  1  0  0  0  0
 24 87  1  0  0  0  0
 25 88  1  0  0  0  0
 26 28  2  0  0  0  0
 26 87  1  0  0  0  0
 27 89  1  0  0  0  0
 28 90  1  0  0  0  0
 29 70  2  0  0  0  0
 30 64  1  0  0  0  0
 30 71  2  0  0  0  0
 31 56  1  0  0  0  0
 31 71  1  0  0  0  0
 32 72  1  0  0  0  0
 32 75  1  0  0  0  0
 33 76  1  0  0  0  0
 33 82  2  0  0  0  0
 34 52  1  0  0  0  0
 34 77  1  0  0  0  0
 34 83  2  0  0  0  0
 35 66  1  0  0  0  0
 35 73  1  0  0  0  0
 35 84  2  0  0  0  0
 36 67  1  0  0  0  0
 36 78  1  0  0  0  0
 36 85  2  0  0  0  0
 37 74  1  0  0  0  0
 37 79  1  0  0  0  0
 37 86  2  0  0  0  0
 38 41  1  0  0  0  0
 39 52  1  0  0  0  0
 40 73  1  0  0  0  0
 41 44  1  0  0  0  0
 42 46  1  0  0  0  0
 42 48  1  0  0  0  0
 43 45  1  0  0  0  0
 43 50  1  0  0  0  0
 44 51  1  0  0  0  0
 45 53  1  0  0  0  0
 46 54  1  0  0  0  0
 47 53  1  0  0  0  0
 47 55  1  0  0  0  0
 48 74  1  0  0  0  0
 49 54  1  0  0  0  0
 49 74  1  0  0  0  0
 50 55  1  0  0  0  0
 51 77  1  0  0  0  0
 52 73  1  0  0  0  0
 53 65  1  0  0  0  0
 54 72  1  0  0  0  0
 55 80  1  0  0  0  0
 57 67  1  0  0  0  0
 58 68  1  0  0  0  0
 59 68  1  0  0  0  0
 60 69  1  0  0  0  0
 61 69  1  0  0  0  0
 62 69  1  0  0  0  0
 63 81  1  0  0  0  0
 64 79  1  0  0  0  0
 65 88  1  0  0  0  0
 66 69  1  0  0  0  0
 66 78  1  0  0  0  0
 67 81  1  0  0  0  0
 68 80  1  0  0  0  0
 70 72  1  0  0  0  0
M  CHG  2  80   1  81   1
M  ISO  4  37 100  65 101  79 100  88 101
M  END
> <Batch ID>
0119

> <Smiles>
CNC(C)C(=O)NC(C(=O)N1Cc2cc([101O:1][101CH2:1]C3CCC(c4ccc(C[100NH:0][100C:0](=O)N5CCCC(n6nc(-c7ccc(Oc8ccc(F)cc8F)cc7)c(C(N)=O)c6N)C5)nc4C)C(NC(C)C)C3)ccc2CC1C(=O)NC1CCCc2ccccc21)C(C)(C)C

> <Shape>
0.320

> <Color>
0.149

> <Negative vol penalty>
0.000

$$$$

  -OEChem-04052320203D

 84 93  0     1  0  0  0  0  0999 V2000
  -17.0881  -30.0244   23.7754 C   0  0  0  0  0  0  0  0  0  0  0  0
  -18.0459  -29.8660   24.7719 C   0  0  0  0  0  0  0  0  0  0  0  0
  -25.0293  -14.6252   22.1956 C   0  0  0  0  0  0  0  0  0  0  0  0
  -27.3788  -14.0637   22.2363 C   0  0  0  0  0  0  0  0  0  0  0  0
  -17.1821  -29.2867   22.5961 C   0  0  0  0  0  0  0  0  0  0  0  0
  -19.0978  -28.9688   24.5900 C   0  0  0  0  0  0  0  0  0  0  0  0
  -26.0059  -28.0541   26.2507 C   0  0  0  0  0  0  0  0  0  0  0  0
  -24.7594  -13.4454   21.5022 C   0  0  0  0  0  0  0  0  0  0  0  0
  -27.1089  -12.8839   21.5429 C   0  0  0  0  0  0  0  0  0  0  0  0
  -26.8617  -27.1102   26.8168 C   0  0  0  0  0  0  0  0  0  0  0  0
  -23.4043  -10.4067   20.0375 C   0  0  0  0  0  0  0  0  0  0  0  0
  -22.3154   -9.6426   20.4569 C   0  0  0  0  0  0  0  0  0  0  0  0
  -26.9662  -25.9477   24.7056 C   0  0  0  0  0  0  0  0  0  0  0  0
  -23.3297   -9.3930   22.6354 C   0  0  0  0  0  0  0  0  0  0  0  0
  -26.3391  -14.9343   22.5627 C   0  0  0  0  0  0  0  0  0  0  0  0
  -26.6378  -16.3338   24.6745 C   0  0  0  0  0  0  0  0  0  0  0  0
  -18.2410  -28.3871   22.3956 C   0  0  0  0  0  0  0  0  0  0  0  0
  -25.6144  -27.9456   24.9085 C   0  0  0  0  0  0  0  0  0  0  0  0
  -19.2053  -28.2173   23.4074 C   0  0  0  0  0  0  0  0  0  0  0  0
  -26.1073  -26.8930   24.1242 C   0  0  0  0  0  0  0  0  0  0  0  0
  -25.7991  -12.5748   21.1758 C   0  0  0  0  0  0  0  0  0  0  0  0
  -27.3397  -26.0552   26.0450 C   0  0  0  0  0  0  0  0  0  0  0  0
  -24.4560  -10.6639   20.9170 C   0  0  0  0  0  0  0  0  0  0  0  0
  -22.2780   -9.1358   21.7559 C   0  0  0  0  0  0  0  0  0  0  0  0
  -24.4186  -10.1571   22.2160 C   0  0  0  0  0  0  0  0  0  0  0  0
  -26.6186  -16.1532   23.2785 C   0  0  0  0  0  0  0  0  0  0  0  0
  -26.9526  -17.6598   24.8449 C   0  0  0  0  0  0  0  0  0  0  0  0
  -26.3931  -15.3875   25.7235 C   0  0  0  0  0  0  0  0  0  0  0  0
  -29.8977  -21.4391   21.3177 C   0  0  0  0  0  0  0  0  0  0  0  0
  -30.8198  -24.1516   25.2549 C   0  0  0  0  0  0  0  0  0  0  0  0
  -22.8408  -27.5571   23.4052 C   0  0  0  0  0  0  0  0  0  0  0  0
  -24.6623  -27.9840   20.7553 C   0  0  0  0  0  0  0  0  0  0  0  0
  -27.7466  -27.8249   19.3032 C   0  0  0  0  0  0  0  0  0  0  0  0
  -18.2743  -27.5769   21.1239 C   0  0  0  0  0  0  0  0  0  0  0  0
  -24.7119  -28.9869   24.3056 C   0  0  0  0  0  0  0  0  0  0  0  0
  -25.7334  -26.7428   22.6730 C   0  0  0  0  0  0  0  0  0  0  0  0
  -19.6270  -26.9231   20.8536 C   0  0  0  0  0  0  0  0  0  0  0  0
  -26.5621  -21.9151   22.7119 C   0  0  0  0  0  0  0  0  0  0  0  0
  -20.1560  -26.2492   22.1156 C   0  0  0  0  0  0  0  0  0  0  0  0
  -26.1918  -20.4871   23.1100 C   0  0  0  0  0  0  0  0  0  0  0  0
  -29.4681  -23.3140   19.6203 C   0  0  0  0  0  0  0  0  0  0  0  0
  -30.9456  -23.0648   19.6331 C   0  0  0  0  0  0  0  0  0  0  0  0
  -33.1238  -24.4132   24.3665 C   0  0  0  0  0  0  0  0  0  0  0  0
  -27.4098  -21.9437   21.4430 C   0  0  0  0  0  0  0  0  0  0  0  0
  -28.2722  -19.6710   21.9214 C   0  0  0  0  0  0  0  0  0  0  0  0
  -33.7571  -24.3417   22.9926 C   0  0  0  0  0  0  0  0  0  0  0  0
  -20.3748  -27.2721   23.2369 C   0  0  1  0  0  0  0  0  0  0  0  0
  -31.6371  -24.5197   24.0612 C   0  0  1  0  0  0  0  0  0  0  0  0
  -23.9694  -28.4904   23.0689 C   0  0  1  0  0  0  0  0  0  0  0  0
  -27.4456  -19.6019   23.2161 C   0  0  2  0  0  0  0  0  0  0  0  0
  -31.4519  -23.5290   22.9151 C   0  0  1  0  0  0  0  0  0  0  0  0
  -30.1391  -22.8531   20.8978 C   0  0  0  0  0  0  0  0  0  0  0  0
  -28.9149  -28.1993   17.1141 C   0  0  0  0  0  0  0  0  0  0  0  0
  -23.5173  -25.3607   19.6983 C   0  0  0  0  0  0  0  0  0  0  0  0
  -25.3744  -25.3070   18.0201 C   0  0  0  0  0  0  0  0  0  0  0  0
  -23.7206  -27.1743   17.9883 C   0  0  0  0  0  0  0  0  0  0  0  0
  -29.4834  -29.9253   20.4569 C   0  0  0  0  0  0  0  0  0  0  0  0
  -30.3006  -23.8686   21.9861 C   0  0  0  0  0  0  0  0  0  0  0  0
  -30.3299  -24.7951   27.6061 C   0  0  0  0  0  0  0  0  0  0  0  0
  -29.0280  -25.5751   27.6497 C   0  0  0  0  0  0  0  0  0  1  0  0
  -25.4428  -27.0751   19.8367 C   0  0  1  0  0  0  0  0  0  0  0  0
  -28.5071  -28.8175   18.4424 C   0  0  2  0  0  0  0  0  0  0  0  0
  -24.5195  -26.2307   18.9137 C   0  0  0  0  0  0  0  0  0  0  0  0
  -26.8988  -17.2748   22.6096 N   0  0  0  0  0  0  0  0  0  0  0  0
  -27.0969  -18.1729   23.5894 N   0  0  0  0  0  0  0  0  0  0  0  0
  -28.5744  -21.0597   21.5657 N   0  0  0  0  0  0  0  0  0  0  0  0
  -24.8434  -27.7828   22.1310 N   0  0  0  0  0  0  0  0  0  0  0  0
  -27.1173  -18.4253   25.9445 N   0  0  0  0  0  0  0  0  0  0  0  0
  -26.0827  -14.0666   25.3727 N   0  0  0  0  0  0  0  0  0  0  0  0
  -21.5971  -28.0139   23.0129 N   0  0  0  0  0  0  0  0  0  0  0  0
  -31.0172  -24.9711   26.3543 N   0  0  0  0  0  0  0  0  0  0  0  0
  -26.3839  -27.9293   19.1204 N   0  0  0  0  0  0  0  0  0  0  0  0
  -32.7541  -23.6007   22.1577 N   0  3  0  0  0  0  0  0  0  0  0  0
  -29.7386  -29.2758   19.1453 N   0  3  0  0  0  0  0  0  0  0  0  0
  -26.4319  -15.7079   26.9357 O   0  0  0  0  0  0  0  0  0  0  0  0
  -30.8706  -20.6965   21.4213 O   0  0  0  0  0  0  0  0  0  0  0  0
  -30.0583  -23.1934   25.1936 O   0  0  0  0  0  0  0  0  0  0  0  0
  -23.0808  -26.5002   23.9770 O   0  0  0  0  0  0  0  0  0  0  0  0
  -23.9247  -28.8455   20.2700 O   0  0  0  0  0  0  0  0  0  0  0  0
  -28.3057  -27.0335   20.0592 O   0  0  0  0  0  0  0  0  0  0  0  0
  -25.5360  -11.4234   20.4993 O   0  0  0  0  0  0  0  0  0  0  0  0
  -28.1747  -25.1322   26.5952 O   0  0  0  0  0  0  0  0  0  1  0  0
  -21.2315   -8.4033   22.1590 F   0  0  0  0  0  0  0  0  0  0  0  0
  -25.4255  -10.4018   23.0658 F   0  0  0  0  0  0  0  0  0  0  0  0
  1  2  1  0  0  0  0
  1  5  2  0  0  0  0
  2  6  2  0  0  0  0
  3  8  2  0  0  0  0
  3 15  1  0  0  0  0
  4  9  1  0  0  0  0
  4 15  2  0  0  0  0
  5 17  1  0  0  0  0
  6 19  1  0  0  0  0
  7 10  2  0  0  0  0
  7 18  1  0  0  0  0
  8 21  1  0  0  0  0
  9 21  2  0  0  0  0
 10 22  1  0  0  0  0
 11 12  2  0  0  0  0
 11 23  1  0  0  0  0
 12 24  1  0  0  0  0
 13 20  1  0  0  0  0
 13 22  2  0  0  0  0
 14 24  2  0  0  0  0
 14 25  1  0  0  0  0
 15 26  1  0  0  0  0
 16 26  1  0  0  0  0
 16 27  2  0  0  0  0
 16 28  1  0  0  0  0
 17 19  2  0  0  0  0
 17 34  1  0  0  0  0
 18 20  2  0  0  0  0
 18 35  1  0  0  0  0
 19 47  1  0  0  0  0
 20 36  1  0  0  0  0
 21 81  1  0  0  0  0
 22 82  1  0  0  0  0
 23 25  2  0  0  0  0
 23 81  1  0  0  0  0
 24 83  1  0  0  0  0
 25 84  1  0  0  0  0
 26 64  2  0  0  0  0
 27 65  1  0  0  0  0
 27 68  1  0  0  0  0
 28 69  1  0  0  0  0
 28 75  2  0  0  0  0
 29 52  1  0  0  0  0
 29 66  1  0  0  0  0
 29 76  2  0  0  0  0
 30 48  1  0  0  0  0
 30 71  1  0  0  0  0
 30 77  2  0  0  0  0
 31 49  1  0  0  0  0
 31 70  1  0  0  0  0
 31 78  2  0  0  0  0
 32 61  1  0  0  0  0
 32 67  1  0  0  0  0
 32 79  2  0  0  0  0
 33 62  1  0  0  0  0
 33 72  1  0  0  0  0
 33 80  2  0  0  0  0
 34 37  1  0  0  0  0
 35 49  1  0  0  0  0
 36 67  1  0  0  0  0
 37 39  1  0  0  0  0
 38 40  1  0  0  0  0
 38 44  1  0  0  0  0
 39 47  1  0  0  0  0
 40 50  1  0  0  0  0
 41 42  1  0  0  0  0
 41 52  1  0  0  0  0
 42 52  1  0  0  0  0
 43 46  1  0  0  0  0
 43 48  1  0  0  0  0
 44 66  1  0  0  0  0
 45 50  1  0  0  0  0
 45 66  1  0  0  0  0
 46 73  1  0  0  0  0
 47 70  1  0  0  0  0
 48 51  1  0  0  0  0
 49 67  1  0  0  0  0
 50 65  1  0  0  0  0
 51 58  1  0  0  0  0
 51 73  1  0  0  0  0
 52 58  1  0  0  0  0
 53 62  1  0  0  0  0
 54 63  1  0  0  0  0
 55 63  1  0  0  0  0
 56 63  1  0  0  0  0
 57 74  1  0  0  0  0
 59 60  1  0  0  0  0
 59 71  1  0  0  0  0
 60 82  1  0  0  0  0
 61 63  1  0  0  0  0
 61 72  1  0  0  0  0
 62 74  1  0  0  0  0
 64 65  1  0  0  0  0
M  CHG  2  73   1  74   1
M  ISO  4  29 100  52 100  60 101  82 101
M  END
> <Batch ID>
0119

> <Smiles>
CNC(C)C(=O)NC(C(=O)N1Cc2cc([101O:1][101CH2:1]CNC(=O)C3CCNC3C[100C:0]3([100C:0](=O)N4CCCC(n5nc(-c6ccc(Oc7ccc(F)cc7F)cc6)c(C(N)=O)c5N)C4)CC3)ccc2CC1C(=O)NC1CCCc2ccccc21)C(C)(C)C

> <Shape>
0.194

> <Color>
0.078

> <Negative vol penalty>
0.000

$$$$

  -OEChem-04052320203D

 82 90  0     1  0  0  0  0  0999 V2000
  -28.3911  -11.2427   19.2893 C   0  0  0  0  0  0  0  0  0  0  0  0
  -28.6004  -12.5975   19.0525 C   0  0  0  0  0  0  0  0  0  0  0  0
  -23.6010  -29.9669   21.5018 C   0  0  0  0  0  0  0  0  0  0  0  0
  -22.8009  -27.8589   22.3698 C   0  0  0  0  0  0  0  0  0  0  0  0
  -27.1691  -10.8060   19.7992 C   0  0  0  0  0  0  0  0  0  0  0  0
  -27.5873  -13.5164   19.3243 C   0  0  0  0  0  0  0  0  0  0  0  0
  -29.2910  -17.6284   21.7397 C   0  0  0  0  0  0  0  0  0  0  0  0
  -22.5533  -30.6283   22.1424 C   0  0  0  0  0  0  0  0  0  0  0  0
  -21.7532  -28.5203   23.0104 C   0  0  0  0  0  0  0  0  0  0  0  0
  -29.9480  -18.5903   20.9736 C   0  0  0  0  0  0  0  0  0  0  0  0
  -18.7499  -29.8279   22.1730 C   0  0  0  0  0  0  0  0  0  0  0  0
  -17.4748  -29.2713   22.0734 C   0  0  0  0  0  0  0  0  0  0  0  0
  -27.9315  -19.9131   20.9163 C   0  0  0  0  0  0  0  0  0  0  0  0
  -17.3827  -29.0524   24.4777 C   0  0  0  0  0  0  0  0  0  0  0  0
  -23.7248  -28.5821   21.6155 C   0  0  0  0  0  0  0  0  0  0  0  0
  -26.1860  -28.0985   21.1504 C   0  0  0  0  0  0  0  0  0  0  0  0
  -26.1439  -11.7210   20.0865 C   0  0  0  0  0  0  0  0  0  0  0  0
  -27.9440  -17.7967   22.0912 C   0  0  0  0  0  0  0  0  0  0  0  0
  -26.3500  -13.0913   19.8372 C   0  0  0  0  0  0  0  0  0  0  0  0
  -27.2605  -18.9531   21.6890 C   0  0  0  0  0  0  0  0  0  0  0  0
  -21.6294  -29.9051   22.8967 C   0  0  0  0  0  0  0  0  0  0  0  0
  -29.2674  -19.7315   20.5593 C   0  0  0  0  0  0  0  0  0  0  0  0
  -19.3414  -29.9967   23.4249 C   0  0  0  0  0  0  0  0  0  0  0  0
  -16.7912  -28.8836   23.2258 C   0  0  0  0  0  0  0  0  0  0  0  0
  -18.6578  -29.6090   24.5773 C   0  0  0  0  0  0  0  0  0  0  0  0
  -24.8066  -27.8982   20.9535 C   0  0  0  0  0  0  0  0  0  0  0  0
  -26.7878  -27.2120   20.2911 C   0  0  0  0  0  0  0  0  0  0  0  0
  -26.8629  -29.0048   22.0314 C   0  0  0  0  0  0  0  0  0  0  0  0
  -25.2580  -16.1987   21.5119 C   0  0  0  0  0  0  0  0  0  0  0  0
  -23.9899  -18.3532   23.5789 C   0  0  0  0  0  0  0  0  0  0  0  0
  -24.1935  -21.4280   25.0456 C   0  0  0  0  0  0  0  0  0  0  0  0
  -24.9548  -22.0841   18.0108 C   0  0  0  0  0  0  0  0  0  0  0  0
  -24.8234  -11.1965   20.5920 C   0  0  0  0  0  0  0  0  0  0  0  0
  -27.2572  -16.7626   22.9405 C   0  0  0  0  0  0  0  0  0  0  0  0
  -25.8195  -19.1910   22.0571 C   0  0  0  0  0  0  0  0  0  0  0  0
  -23.9342  -12.2750   21.2055 C   0  0  0  0  0  0  0  0  0  0  0  0
  -26.0755  -24.9635   16.1265 C   0  0  0  0  0  0  0  0  0  0  0  0
  -23.8893  -13.5056   20.3053 C   0  0  0  0  0  0  0  0  0  0  0  0
  -26.0051  -26.0658   17.1848 C   0  0  0  0  0  0  0  0  0  0  0  0
  -24.9206  -23.9778   16.2772 C   0  0  0  0  0  0  0  0  0  0  0  0
  -28.2807  -17.7260   17.3073 C   0  0  0  0  0  0  0  0  0  0  0  0
  -24.7406  -24.4587   18.6876 C   0  0  0  0  0  0  0  0  0  0  0  0
  -27.4414  -19.5809   16.0031 C   0  0  0  0  0  0  0  0  0  0  0  0
  -26.8804  -17.1492   17.4692 C   0  0  0  0  0  0  0  0  0  0  0  0
  -25.2842  -14.1214   20.1427 C   0  0  1  0  0  0  0  0  0  0  0  0
  -25.7379  -16.7921   22.8062 C   0  0  1  0  0  0  0  0  0  0  0  0
  -25.8940  -25.4748   18.6028 C   0  0  2  0  0  0  0  0  0  0  0  0
  -25.9981  -19.0744   16.0953 C   0  0  2  0  0  0  0  0  0  0  0  0
  -22.9910  -22.9220   26.6640 C   0  0  0  0  0  0  0  0  0  0  0  0
  -29.1667  -22.8924   19.2911 C   0  0  0  0  0  0  0  0  0  0  0  0
  -21.9145  -18.9985   21.4373 C   0  0  0  0  0  0  0  0  0  0  0  0
  -21.3679  -21.0922   22.6968 C   0  0  0  0  0  0  0  0  0  0  0  0
  -21.0065  -18.8666   23.7638 C   0  0  0  0  0  0  0  0  0  0  0  0
  -26.5056  -21.4827   26.8923 C   0  0  0  0  0  0  0  0  0  0  0  0
  -25.1733  -19.7552   17.1829 C   0  0  0  0  0  0  0  0  0  0  0  0
  -29.6109  -21.2075   17.4624 C   0  0  0  0  0  0  0  0  0  0  0  0
  -29.5988  -19.7287   17.0686 C   0  0  0  0  0  0  0  0  0  0  0  0
  -23.3648  -19.7211   23.4474 C   0  0  1  0  0  0  0  0  0  0  0  0
  -24.0692  -21.8630   26.4947 C   0  0  2  0  0  0  0  0  0  0  0  0
  -29.1107  -21.4231   18.8951 C   0  0  1  0  0  0  0  0  0  1  0  0
  -21.9400  -19.6645   22.8276 C   0  0  0  0  0  0  0  0  0  0  0  0
  -24.5471  -26.9583   20.0406 N   0  0  0  0  0  0  0  0  0  0  0  0
  -25.7718  -26.5602   19.6562 N   0  0  0  0  0  0  0  0  0  0  0  0
  -25.1899  -18.1479   22.8835 N   0  0  0  0  0  0  0  0  0  0  0  0
  -24.8821  -23.4381   17.6437 N   0  0  0  0  0  0  0  0  0  0  0  0
  -28.2435  -19.1887   17.1713 N   0  0  2  0  0  0  0  0  0  0  0  0
  -28.0816  -26.9342   20.0242 N   0  0  0  0  0  0  0  0  0  0  0  0
  -27.1767  -28.5690   23.3260 N   0  0  0  0  0  0  0  0  0  0  0  0
  -25.6400  -14.8847   21.3196 N   0  0  0  0  0  0  0  0  0  0  0  0
  -23.4151  -20.3222   24.7757 N   0  0  0  0  0  0  0  0  0  0  0  0
  -25.0809  -21.1812   16.9621 N   0  0  0  0  0  0  0  0  0  0  0  0
  -26.0240  -17.5917   16.3283 N   0  3  0  0  0  0  0  0  0  0  0  0
  -25.3612  -22.4260   26.9791 N   0  3  0  0  0  0  0  0  0  0  0  0
  -27.1654  -30.1723   21.6864 O   0  0  0  0  0  0  0  0  0  0  0  0
  -24.5892  -16.8819   20.7453 O   0  0  0  0  0  0  0  0  0  0  0  0
  -23.4376  -17.5007   24.2787 O   0  0  0  0  0  0  0  0  0  0  0  0
  -24.9066  -22.0129   24.2334 O   0  0  0  0  0  0  0  0  0  0  0  0
  -24.9156  -21.7075   19.1871 O   0  0  0  0  0  0  0  0  0  0  0  0
  -20.6071  -30.5502   23.5222 O   0  0  0  0  0  0  0  0  0  0  0  0
  -29.9061  -20.6717   19.8110 O   0  0  0  0  0  0  0  0  0  1  0  0
  -15.5661  -28.3505   23.1301 F   0  0  0  0  0  0  0  0  0  0  0  0
  -19.2204  -29.7698   25.7829 F   0  0  0  0  0  0  0  0  0  0  0  0
  1  2  1  0  0  0  0
  1  5  2  0  0  0  0
  2  6  2  0  0  0  0
  3  8  2  0  0  0  0
  3 15  1  0  0  0  0
  4  9  1  0  0  0  0
  4 15  2  0  0  0  0
  5 17  1  0  0  0  0
  6 19  1  0  0  0  0
  7 10  2  0  0  0  0
  7 18  1  0  0  0  0
  8 21  1  0  0  0  0
  9 21  2  0  0  0  0
 10 22  1  0  0  0  0
 11 12  2  0  0  0  0
 11 23  1  0  0  0  0
 12 24  1  0  0  0  0
 13 20  1  0  0  0  0
 13 22  2  0  0  0  0
 14 24  2  0  0  0  0
 14 25  1  0  0  0  0
 15 26  1  0  0  0  0
 16 26  1  0  0  0  0
 16 27  2  0  0  0  0
 16 28  1  0  0  0  0
 17 19  2  0  0  0  0
 17 33  1  0  0  0  0
 18 20  2  0  0  0  0
 18 34  1  0  0  0  0
 19 45  1  0  0  0  0
 20 35  1  0  0  0  0
 21 79  1  0  0  0  0
 22 80  1  0  0  0  0
 23 25  2  0  0  0  0
 23 79  1  0  0  0  0
 24 81  1  0  0  0  0
 25 82  1  0  0  0  0
 26 62  2  0  0  0  0
 27 63  1  0  0  0  0
 27 67  1  0  0  0  0
 28 68  1  0  0  0  0
 28 74  2  0  0  0  0
 29 46  1  0  0  0  0
 29 69  1  0  0  0  0
 29 75  2  0  0  0  0
 30 58  1  0  0  0  0
 30 64  1  0  0  0  0
 30 76  2  0  0  0  0
 31 59  1  0  0  0  0
 31 70  1  0  0  0  0
 31 77  2  0  0  0  0
 32 65  1  0  0  0  0
 32 71  1  0  0  0  0
 32 78  2  0  0  0  0
 33 36  1  0  0  0  0
 34 46  1  0  0  0  0
 35 64  1  0  0  0  0
 36 38  1  0  0  0  0
 37 39  1  0  0  0  0
 37 40  1  0  0  0  0
 38 45  1  0  0  0  0
 39 47  1  0  0  0  0
 40 65  1  0  0  0  0
 41 44  1  0  0  0  0
 41 66  1  0  0  0  0
 42 47  1  0  0  0  0
 42 65  1  0  0  0  0
 43 48  1  0  0  0  0
 43 66  1  0  0  0  0
 44 72  1  0  0  0  0
 45 69  1  0  0  0  0
 46 64  1  0  0  0  0
 47 63  1  0  0  0  0
 48 55  1  0  0  0  0
 48 72  1  0  0  0  0
 49 59  1  0  0  0  0
 50 60  1  0  0  0  0
 51 61  1  0  0  0  0
 52 61  1  0  0  0  0
 53 61  1  0  0  0  0
 54 73  1  0  0  0  0
 55 71  1  0  0  0  0
 56 57  1  0  0  0  0
 56 60  1  0  0  0  0
 57 66  1  0  0  0  0
 58 61  1  0  0  0  0
 58 70  1  0  0  0  0
 59 73  1  0  0  0  0
 60 80  1  0  0  0  0
 62 63  1  0  0  0  0
M  CHG  2  72   1  73   1
M  ISO  4  32 100  60 101  71 100  80 101
M  END
> <Batch ID>
0119

> <Smiles>
CNC(C)C(=O)NC(C(=O)N1Cc2cc([101O:1][101CH:1](C)CCN3CCNC(C[100NH:0][100C:0](=O)N4CCCC(n5nc(-c6ccc(Oc7ccc(F)cc7F)cc6)c(C(N)=O)c5N)C4)C3)ccc2CC1C(=O)NC1CCCc2ccccc21)C(C)(C)C

> <Shape>
0.211

> <Color>
0.079

> <Negative vol penalty>
0.000

$$$$

  -OEChem-04052320203D

 85 93  0     1  0  0  0  0  0999 V2000
  -21.6268  -12.9633   19.4915 C   0  0  0  0  0  0  0  0  0  0  0  0
  -21.7014  -14.2332   20.0548 C   0  0  0  0  0  0  0  0  0  0  0  0
  -29.2856  -26.9707   19.7033 C   0  0  0  0  0  0  0  0  0  0  0  0
  -28.9071  -27.0252   22.0889 C   0  0  0  0  0  0  0  0  0  0  0  0
  -22.7470  -12.1333   19.4953 C   0  0  0  0  0  0  0  0  0  0  0  0
  -22.8962  -14.6734   20.6232 C   0  0  0  0  0  0  0  0  0  0  0  0
  -24.0535  -19.4176   19.2822 C   0  0  0  0  0  0  0  0  0  0  0  0
  -30.6609  -26.8954   19.9232 C   0  0  0  0  0  0  0  0  0  0  0  0
  -30.2825  -26.9499   22.3088 C   0  0  0  0  0  0  0  0  0  0  0  0
  -23.3736  -20.4467   19.9321 C   0  0  0  0  0  0  0  0  0  0  0  0
  -33.1738  -29.0086   20.7259 C   0  0  0  0  0  0  0  0  0  0  0  0
  -33.9985  -29.8269   19.9540 C   0  0  0  0  0  0  0  0  0  0  0  0
  -25.2764  -20.7840   21.3760 C   0  0  0  0  0  0  0  0  0  0  0  0
  -35.1183  -27.8729   19.0791 C   0  0  0  0  0  0  0  0  0  0  0  0
  -28.4087  -27.0356   20.7862 C   0  0  0  0  0  0  0  0  0  0  0  0
  -26.0855  -26.0399   20.4412 C   0  0  0  0  0  0  0  0  0  0  0  0
  -23.9589  -12.5672   20.0554 C   0  0  0  0  0  0  0  0  0  0  0  0
  -25.3480  -19.0560   19.6823 C   0  0  0  0  0  0  0  0  0  0  0  0
  -24.0334  -13.8479   20.6357 C   0  0  0  0  0  0  0  0  0  0  0  0
  -25.9716  -19.7516   20.7280 C   0  0  0  0  0  0  0  0  0  0  0  0
  -31.1594  -26.8850   21.2260 C   0  0  0  0  0  0  0  0  0  0  0  0
  -23.9839  -21.1282   20.9810 C   0  0  0  0  0  0  0  0  0  0  0  0
  -33.3214  -27.6225   20.6745 C   0  0  0  0  0  0  0  0  0  0  0  0
  -34.9708  -29.2591   19.1306 C   0  0  0  0  0  0  0  0  0  0  0  0
  -34.2936  -27.0547   19.8511 C   0  0  0  0  0  0  0  0  0  0  0  0
  -26.9879  -27.1139   20.5597 C   0  0  0  0  0  0  0  0  0  0  0  0
  -24.8660  -26.6372   20.2349 C   0  0  0  0  0  0  0  0  0  0  0  0
  -20.5749  -27.3820   22.7393 C   0  0  0  0  0  0  0  0  0  0  0  0
  -26.3279  -24.6285   20.5115 C   0  0  0  0  0  0  0  0  0  0  0  0
  -19.5342  -25.1388   22.3504 C   0  0  0  0  0  0  0  0  0  0  0  0
  -26.6789  -16.4181   20.8545 C   0  0  0  0  0  0  0  0  0  0  0  0
  -29.4214  -18.1152   20.5068 C   0  0  0  0  0  0  0  0  0  0  0  0
  -30.9305  -21.1677   20.2795 C   0  0  0  0  0  0  0  0  0  0  0  0
  -21.8471  -31.3070   21.8455 C   0  0  0  0  0  0  0  0  0  0  0  0
  -25.1296  -11.6166   20.0783 C   0  0  0  0  0  0  0  0  0  0  0  0
  -26.0782  -17.9614   18.9536 C   0  0  0  0  0  0  0  0  0  0  0  0
  -27.3676  -19.4156   21.1824 C   0  0  0  0  0  0  0  0  0  0  0  0
  -26.4638  -12.3003   20.3660 C   0  0  0  0  0  0  0  0  0  0  0  0
  -23.3861  -31.0778   18.6431 C   0  0  0  0  0  0  0  0  0  0  0  0
  -26.3293  -13.2586   21.5451 C   0  0  0  0  0  0  0  0  0  0  0  0
  -24.3879  -29.9324   18.7998 C   0  0  0  0  0  0  0  0  0  0  0  0
  -23.2795  -31.9126   19.9173 C   0  0  0  0  0  0  0  0  0  0  0  0
  -18.3322  -28.1033   22.9561 C   0  0  0  0  0  0  0  0  0  0  0  0
  -23.9867  -29.9966   21.2966 C   0  0  0  0  0  0  0  0  0  0  0  0
  -25.3187  -14.3707   21.2398 C   0  0  1  0  0  0  0  0  0  0  0  0
  -19.7499  -26.5172   21.8111 C   0  0  1  0  0  0  0  0  0  0  0  0
  -27.1957  -17.3345   19.7817 C   0  0  1  0  0  0  0  0  0  0  0  0
  -18.4117  -27.2669   21.6821 C   0  0  2  0  0  0  0  0  0  0  0  0
  -24.0875  -29.0927   20.0560 C   0  0  2  0  0  0  0  0  0  0  0  0
  -18.3896  -28.1504   20.4337 C   0  0  0  0  0  0  0  0  0  0  0  0
  -33.1885  -22.2359   20.0384 C   0  0  0  0  0  0  0  0  0  0  0  0
  -30.0116  -17.5245   23.4416 C   0  0  0  0  0  0  0  0  0  0  0  0
  -31.7202  -19.3539   23.3940 C   0  0  0  0  0  0  0  0  0  0  0  0
  -31.9929  -17.3565   21.9247 C   0  0  0  0  0  0  0  0  0  0  0  0
  -30.1816  -22.4438   17.7164 C   0  0  0  0  0  0  0  0  0  0  0  0
  -20.0366  -23.9582   21.5518 C   0  0  0  0  0  0  0  0  0  0  0  0
  -21.4520  -23.5909   21.9798 C   0  0  0  0  0  0  0  0  0  0  0  0
  -20.0806  -29.2310   24.3774 C   0  0  0  0  0  0  0  0  0  0  0  0
  -20.5089  -30.5709   23.8016 C   0  0  0  0  0  0  0  0  0  0  0  0
  -22.0054  -22.4360   21.1585 C   0  0  0  0  0  0  0  0  0  1  0  0
  -30.2097  -19.0633   21.3778 C   0  0  1  0  0  0  0  0  0  0  0  0
  -31.9621  -21.7115   19.3077 C   0  0  2  0  0  0  0  0  0  0  0  0
  -30.9565  -18.3298   22.5275 C   0  0  0  0  0  0  0  0  0  0  0  0
  -26.3925  -28.3034   20.4385 N   0  0  0  0  0  0  0  0  0  0  0  0
  -18.8954  -24.9772   23.4634 N   0  0  0  0  0  0  0  0  0  0  0  0
  -25.1029  -27.9804   20.2417 N   0  0  0  0  0  0  0  0  0  0  0  0
  -19.7100  -28.2858   23.3462 N   0  0  0  0  0  0  0  0  0  0  0  0
  -28.0379  -18.3335   20.4426 N   0  0  0  0  0  0  0  0  0  0  0  0
  -22.9919  -31.0568   21.0709 N   0  0  0  0  0  0  0  0  0  0  0  0
  -23.6249  -26.1393   20.0501 N   0  0  0  0  0  0  0  0  0  0  0  0
  -27.6398  -24.1859   20.7290 N   0  0  0  0  0  0  0  0  0  0  0  0
  -25.9127  -15.3711   20.3791 N   0  0  0  0  0  0  0  0  0  0  0  0
  -31.0827  -19.8121   20.4803 N   0  0  0  0  0  0  0  0  0  0  0  0
  -21.6454  -30.4451   22.9166 N   0  0  0  0  0  0  0  0  0  0  0  0
  -31.3814  -22.8249   18.5052 N   0  3  0  0  0  0  0  0  0  0  0  0
  -21.7750  -27.2451   22.9297 O   0  0  0  0  0  0  0  0  0  0  0  0
  -25.4109  -23.7845   20.3688 O   0  0  0  0  0  0  0  0  0  0  0  0
  -26.9562  -16.6435   22.0267 O   0  0  0  0  0  0  0  0  0  0  0  0
  -30.0125  -17.2185   19.8999 O   0  0  0  0  0  0  0  0  0  0  0  0
  -30.0775  -21.8755   20.8105 O   0  0  0  0  0  0  0  0  0  0  0  0
  -21.0601  -32.2268   21.5975 O   0  0  0  0  0  0  0  0  0  0  0  0
  -32.5014  -26.8114   21.4409 O   0  0  0  0  0  0  0  0  0  0  0  0
  -23.3222  -22.1327   21.6174 O   0  0  0  0  0  0  0  0  0  1  0  0
  -35.7616  -30.0449   18.3882 F   0  0  0  0  0  0  0  0  0  0  0  0
  -34.4394  -25.7236   19.7966 F   0  0  0  0  0  0  0  0  0  0  0  0
  1  2  1  0  0  0  0
  1  5  2  0  0  0  0
  2  6  2  0  0  0  0
  3  8  2  0  0  0  0
  3 15  1  0  0  0  0
  4  9  1  0  0  0  0
  4 15  2  0  0  0  0
  5 17  1  0  0  0  0
  6 19  1  0  0  0  0
  7 10  2  0  0  0  0
  7 18  1  0  0  0  0
  8 21  1  0  0  0  0
  9 21  2  0  0  0  0
 10 22  1  0  0  0  0
 11 12  2  0  0  0  0
 11 23  1  0  0  0  0
 12 24  1  0  0  0  0
 13 20  1  0  0  0  0
 13 22  2  0  0  0  0
 14 24  2  0  0  0  0
 14 25  1  0  0  0  0
 15 26  1  0  0  0  0
 16 26  1  0  0  0  0
 16 27  2  0  0  0  0
 16 29  1  0  0  0  0
 17 19  2  0  0  0  0
 17 35  1  0  0  0  0
 18 20  2  0  0  0  0
 18 36  1  0  0  0  0
 19 45  1  0  0  0  0
 20 37  1  0  0  0  0
 21 82  1  0  0  0  0
 22 83  1  0  0  0  0
 23 25  2  0  0  0  0
 23 82  1  0  0  0  0
 24 84  1  0  0  0  0
 25 85  1  0  0  0  0
 26 64  2  0  0  0  0
 27 66  1  0  0  0  0
 27 70  1  0  0  0  0
 28 46  1  0  0  0  0
 28 67  1  0  0  0  0
 28 76  2  0  0  0  0
 29 71  1  0  0  0  0
 29 77  2  0  0  0  0
 30 46  1  0  0  0  0
 30 56  1  0  0  0  0
 30 65  2  0  0  0  0
 31 47  1  0  0  0  0
 31 72  1  0  0  0  0
 31 78  2  0  0  0  0
 32 61  1  0  0  0  0
 32 68  1  0  0  0  0
 32 79  2  0  0  0  0
 33 62  1  0  0  0  0
 33 73  1  0  0  0  0
 33 80  2  0  0  0  0
 34 69  1  0  0  0  0
 34 74  1  0  0  0  0
 34 81  2  0  0  0  0
 35 38  1  0  0  0  0
 36 47  1  0  0  0  0
 37 68  1  0  0  0  0
 38 40  1  0  0  0  0
 39 41  1  0  0  0  0
 39 42  1  0  0  0  0
 40 45  1  0  0  0  0
 41 49  1  0  0  0  0
 42 69  1  0  0  0  0
 43 48  1  0  0  0  0
 43 67  1  0  0  0  0
 44 49  1  0  0  0  0
 44 69  1  0  0  0  0
 45 72  1  0  0  0  0
 46 48  1  0  0  0  0
 47 68  1  0  0  0  0
 48 50  1  0  0  0  0
 49 66  1  0  0  0  0
 51 62  1  0  0  0  0
 52 63  1  0  0  0  0
 53 63  1  0  0  0  0
 54 63  1  0  0  0  0
 55 75  1  0  0  0  0
 56 57  1  0  0  0  0
 57 60  1  0  0  0  0
 58 59  1  0  0  0  0
 58 67  1  0  0  0  0
 59 74  1  0  0  0  0
 60 83  1  0  0  0  0
 61 63  1  0  0  0  0
 61 73  1  0  0  0  0
 62 75  1  0  0  0  0
 64 66  1  0  0  0  0
M  CHG  1  75   1
M  ISO  4  34 100  60 101  74 100  83 101
M  END
> <Batch ID>
0119

> <Smiles>
CNC(C)C(=O)NC(C(=O)N1Cc2cc([101O:1][101CH2:1]CCC(N)=C3C(=O)N(CC[100NH:0][100C:0](=O)N4CCCC(n5nc(-c6ccc(Oc7ccc(F)cc7F)cc6)c(C(N)=O)c5N)C4)CC3C)ccc2CC1C(=O)NC1CCCc2ccccc21)C(C)(C)C

> <Shape>
0.245

> <Color>
0.075

> <Negative vol penalty>
0.000

$$$$

  -OEChem-04052320203D

 86 94  0     1  0  0  0  0  0999 V2000
  -32.0108  -25.6362   17.5680 C   0  0  0  0  0  0  0  0  0  0  0  0
  -30.6501  -25.3535   17.6308 C   0  0  0  0  0  0  0  0  0  0  0  0
  -26.6687  -15.1070   18.9063 C   0  0  0  0  0  0  0  0  0  0  0  0
  -25.1117  -15.5489   20.7000 C   0  0  0  0  0  0  0  0  0  0  0  0
  -32.6324  -26.3033   18.6227 C   0  0  0  0  0  0  0  0  0  0  0  0
  -29.9104  -25.7368   18.7490 C   0  0  0  0  0  0  0  0  0  0  0  0
  -24.0763  -27.5971   18.8429 C   0  0  0  0  0  0  0  0  0  0  0  0
  -24.7216  -23.4617   25.8667 C   0  0  0  0  0  0  0  0  0  0  0  0
  -26.6768  -13.7543   19.2465 C   0  0  0  0  0  0  0  0  0  0  0  0
  -25.1198  -14.1962   21.0402 C   0  0  0  0  0  0  0  0  0  0  0  0
  -22.8854  -26.9353   19.1388 C   0  0  0  0  0  0  0  0  0  0  0  0
  -23.7072  -11.3387   19.9177 C   0  0  0  0  0  0  0  0  0  0  0  0
  -22.4794  -10.7301   20.1781 C   0  0  0  0  0  0  0  0  0  0  0  0
  -25.3436  -24.6340   26.2816 C   0  0  0  0  0  0  0  0  0  0  0  0
  -22.9953  -27.7620   21.4023 C   0  0  0  0  0  0  0  0  0  0  0  0
  -23.2204  -10.1918   22.4138 C   0  0  0  0  0  0  0  0  0  0  0  0
  -25.8862  -16.0043   19.6331 C   0  0  0  0  0  0  0  0  0  0  0  0
  -25.0151  -18.0456   18.3753 C   0  0  0  0  0  0  0  0  0  0  0  0
  -31.8980  -26.7036   19.7501 C   0  0  0  0  0  0  0  0  0  0  0  0
  -24.7425  -28.3387   19.8292 C   0  0  0  0  0  0  0  0  0  0  0  0
  -30.5231  -26.4087   19.8204 C   0  0  0  0  0  0  0  0  0  0  0  0
  -24.1932  -28.4344   21.1158 C   0  0  0  0  0  0  0  0  0  0  0  0
  -25.2769  -22.7146   24.8339 C   0  0  0  0  0  0  0  0  0  0  0  0
  -25.9023  -13.2989   20.3134 C   0  0  0  0  0  0  0  0  0  0  0  0
  -22.3462  -27.0153   20.4194 C   0  0  0  0  0  0  0  0  0  0  0  0
  -24.6917  -11.3737   20.9053 C   0  0  0  0  0  0  0  0  0  0  0  0
  -22.2360  -10.1567   21.4261 C   0  0  0  0  0  0  0  0  0  0  0  0
  -24.4482  -10.8003   22.1534 C   0  0  0  0  0  0  0  0  0  0  0  0
  -25.8778  -17.4019   19.2825 C   0  0  0  0  0  0  0  0  0  0  0  0
  -26.5098  -25.0128   25.6365 C   0  0  0  0  0  0  0  0  0  0  0  0
  -26.4461  -23.1794   24.2535 C   0  0  0  0  0  0  0  0  0  0  0  0
  -25.4123  -19.3602   18.3975 C   0  0  0  0  0  0  0  0  0  0  0  0
  -23.9497  -17.5037   17.5834 C   0  0  0  0  0  0  0  0  0  0  0  0
  -27.5901  -28.1591   21.2301 C   0  0  0  0  0  0  0  0  0  0  0  0
  -26.6637  -30.9542   22.5907 C   0  0  0  0  0  0  0  0  0  0  0  0
  -24.1082  -33.0054   23.5440 C   0  0  0  0  0  0  0  0  0  0  0  0
  -28.1843  -22.7186   22.4892 C   0  0  0  0  0  0  0  0  0  0  0  0
  -32.6233  -27.3803   20.8862 C   0  0  0  0  0  0  0  0  0  0  0  0
  -26.0122  -29.0687   19.4869 C   0  0  0  0  0  0  0  0  0  0  0  0
  -24.8587  -29.2342   22.2047 C   0  0  0  0  0  0  0  0  0  0  0  0
  -31.6922  -28.0843   21.8699 C   0  0  0  0  0  0  0  0  0  0  0  0
  -29.2704  -22.0940   19.1564 C   0  0  0  0  0  0  0  0  0  0  0  0
  -30.5226  -27.1777   22.2400 C   0  0  0  0  0  0  0  0  0  0  0  0
  -28.4408  -20.8822   18.7259 C   0  0  0  0  0  0  0  0  0  0  0  0
  -29.6719  -22.0124   20.6282 C   0  0  0  0  0  0  0  0  0  0  0  0
  -27.7316  -20.5806   21.1328 C   0  0  0  0  0  0  0  0  0  0  0  0
  -29.6817  -26.8303   21.0056 C   0  0  1  0  0  0  0  0  0  0  0  0
  -26.8745  -29.3728   20.7081 C   0  0  1  0  0  0  0  0  0  0  0  0
  -27.2487  -20.6494   19.6748 C   0  0  2  0  0  0  0  0  0  0  0  0
  -27.2041  -26.2653   26.0560 C   0  0  0  0  0  0  0  0  0  0  0  0
  -23.6618  -35.2054   24.6656 C   0  0  0  0  0  0  0  0  0  0  0  0
  -19.8215  -23.2940   23.1922 C   0  0  0  0  0  0  0  0  0  0  0  0
  -27.2824  -29.6955   25.3005 C   0  0  0  0  0  0  0  0  0  0  0  0
  -25.9533  -31.5248   26.3755 C   0  0  0  0  0  0  0  0  0  0  0  0
  -28.0043  -32.0786   25.0680 C   0  0  0  0  0  0  0  0  0  0  0  0
  -22.7737  -34.0936   21.1370 C   0  0  0  0  0  0  0  0  0  0  0  0
  -24.6023  -21.4494   24.3888 C   0  0  0  0  0  0  0  0  0  0  0  0
  -20.1021  -24.2361   20.8812 C   0  0  0  0  0  0  0  0  0  0  0  0
  -23.8451  -21.5848   23.0716 C   0  0  0  0  0  0  0  0  0  0  0  0
  -21.9847  -22.8245   21.9576 C   0  0  0  0  0  0  0  0  0  0  0  0
  -20.9081  -25.1710   19.9877 C   0  0  0  0  0  0  0  0  0  1  0  0
  -25.9186  -31.3365   23.8468 C   0  0  1  0  0  0  0  0  0  0  0  0
  -23.8806  -34.4924   23.3403 C   0  0  2  0  0  0  0  0  0  0  0  0
  -20.8355  -23.8197   22.1696 C   0  0  2  0  0  0  0  0  0  0  0  0
  -26.7779  -31.1421   25.1279 C   0  0  0  0  0  0  0  0  0  0  0  0
  -26.7570  -18.2386   19.8402 N   0  0  0  0  0  0  0  0  0  0  0  0
  -27.0792  -24.3132   24.6295 N   0  0  0  0  0  0  0  0  0  0  0  0
  -26.4488  -19.4215   19.2819 N   0  0  0  0  0  0  0  0  0  0  0  0
  -26.1015  -29.9248   21.8225 N   0  0  0  0  0  0  0  0  0  0  0  0
  -28.4913  -21.7955   21.4672 N   0  0  0  0  0  0  0  0  0  0  0  0
  -24.9728  -20.4581   17.7464 N   0  0  0  0  0  0  0  0  0  0  0  0
  -23.6749  -16.1329   17.6815 N   0  0  0  0  0  0  0  0  0  0  0  0
  -27.0207  -22.4260   23.1999 N   0  0  0  0  0  0  0  0  0  0  0  0
  -28.8247  -27.9406   20.6490 N   0  0  0  0  0  0  0  0  0  0  0  0
  -25.4498  -32.7030   23.6433 N   0  0  0  0  0  0  0  0  0  0  0  0
  -22.6845  -34.7204   22.4809 N   0  3  0  0  0  0  0  0  0  0  0  0
  -22.7420  -22.5757   23.2070 N   0  3  0  0  0  0  0  0  0  0  0  0
  -23.2726  -18.2110   16.7994 O   0  0  0  0  0  0  0  0  0  0  0  0
  -27.0620  -27.4725   22.0969 O   0  0  0  0  0  0  0  0  0  0  0  0
  -27.7023  -31.5519   22.2981 O   0  0  0  0  0  0  0  0  0  0  0  0
  -23.1878  -32.1938   23.6123 O   0  0  0  0  0  0  0  0  0  0  0  0
  -28.8860  -23.7113   22.6993 O   0  0  0  0  0  0  0  0  0  0  0  0
  -25.9098  -11.9790   20.6455 O   0  0  0  0  0  0  0  0  0  0  0  0
  -21.1843  -26.3697   20.7110 O   0  0  0  0  0  0  0  0  0  1  0  0
  -21.0563   -9.5738   21.6765 F   0  0  0  0  0  0  0  0  0  0  0  0
  -25.3896  -10.8319   23.1065 F   0  0  0  0  0  0  0  0  0  0  0  0
  1  2  1  0  0  0  0
  1  5  2  0  0  0  0
  2  6  2  0  0  0  0
  3  9  2  0  0  0  0
  3 17  1  0  0  0  0
  4 10  1  0  0  0  0
  4 17  2  0  0  0  0
  5 19  1  0  0  0  0
  6 21  1  0  0  0  0
  7 11  2  0  0  0  0
  7 20  1  0  0  0  0
  8 14  2  0  0  0  0
  8 23  1  0  0  0  0
  9 24  1  0  0  0  0
 10 24  2  0  0  0  0
 11 25  1  0  0  0  0
 12 13  2  0  0  0  0
 12 26  1  0  0  0  0
 13 27  1  0  0  0  0
 14 30  1  0  0  0  0
 15 22  1  0  0  0  0
 15 25  2  0  0  0  0
 16 27  2  0  0  0  0
 16 28  1  0  0  0  0
 17 29  1  0  0  0  0
 18 29  1  0  0  0  0
 18 32  2  0  0  0  0
 18 33  1  0  0  0  0
 19 21  2  0  0  0  0
 19 38  1  0  0  0  0
 20 22  2  0  0  0  0
 20 39  1  0  0  0  0
 21 47  1  0  0  0  0
 22 40  1  0  0  0  0
 23 31  2  0  0  0  0
 23 57  1  0  0  0  0
 24 83  1  0  0  0  0
 25 84  1  0  0  0  0
 26 28  2  0  0  0  0
 26 83  1  0  0  0  0
 27 85  1  0  0  0  0
 28 86  1  0  0  0  0
 29 66  2  0  0  0  0
 30 50  1  0  0  0  0
 30 67  2  0  0  0  0
 31 67  1  0  0  0  0
 31 73  1  0  0  0  0
 32 68  1  0  0  0  0
 32 71  1  0  0  0  0
 33 72  1  0  0  0  0
 33 78  2  0  0  0  0
 34 48  1  0  0  0  0
 34 74  1  0  0  0  0
 34 79  2  0  0  0  0
 35 62  1  0  0  0  0
 35 69  1  0  0  0  0
 35 80  2  0  0  0  0
 36 63  1  0  0  0  0
 36 75  1  0  0  0  0
 36 81  2  0  0  0  0
 37 70  1  0  0  0  0
 37 73  1  0  0  0  0
 37 82  2  0  0  0  0
 38 41  1  0  0  0  0
 39 48  1  0  0  0  0
 40 69  1  0  0  0  0
 41 43  1  0  0  0  0
 42 44  1  0  0  0  0
 42 45  1  0  0  0  0
 43 47  1  0  0  0  0
 44 49  1  0  0  0  0
 45 70  1  0  0  0  0
 46 49  1  0  0  0  0
 46 70  1  0  0  0  0
 47 74  1  0  0  0  0
 48 69  1  0  0  0  0
 49 68  1  0  0  0  0
 51 63  1  0  0  0  0
 52 64  1  0  0  0  0
 53 65  1  0  0  0  0
 54 65  1  0  0  0  0
 55 65  1  0  0  0  0
 56 76  1  0  0  0  0
 57 59  1  0  0  0  0
 58 61  1  0  0  0  0
 58 64  1  0  0  0  0
 59 77  1  0  0  0  0
 60 64  1  0  0  0  0
 60 77  1  0  0  0  0
 61 84  1  0  0  0  0
 62 65  1  0  0  0  0
 62 75  1  0  0  0  0
 63 76  1  0  0  0  0
 66 68  1  0  0  0  0
M  CHG  2  76   1  77   1
M  ISO  4  37 100  61 101  73 100  84 101
M  END
> <Batch ID>
0119

> <Smiles>
CNC(C)C(=O)NC(C(=O)N1Cc2cc([101O:1][101CH2:1]CC(C)CNCCc3ccc(C)nc3[100NH:0][100C:0](=O)N3CCCC(n4nc(-c5ccc(Oc6ccc(F)cc6F)cc5)c(C(N)=O)c4N)C3)ccc2CC1C(=O)NC1CCCc2ccccc21)C(C)(C)C

> <Shape>
0.255

> <Color>
0.059

> <Negative vol penalty>
0.000

$$$$

  -OEChem-04052320203D

 83 91  0     1  0  0  0  0  0999 V2000
  -27.1107  -36.8907   22.5943 C   0  0  0  0  0  0  0  0  0  0  0  0
  -27.6039  -35.6229   22.8860 C   0  0  0  0  0  0  0  0  0  0  0  0
  -23.1520  -10.2248   21.9049 C   0  0  0  0  0  0  0  0  0  0  0  0
  -24.7292  -10.6966   23.6732 C   0  0  0  0  0  0  0  0  0  0  0  0
  -25.7355  -37.0956   22.4908 C   0  0  0  0  0  0  0  0  0  0  0  0
  -26.7219  -34.5596   23.0755 C   0  0  0  0  0  0  0  0  0  0  0  0
  -27.6285  -28.7041   21.5271 C   0  0  0  0  0  0  0  0  0  0  0  0
  -22.5989   -9.1994   22.6718 C   0  0  0  0  0  0  0  0  0  0  0  0
  -24.1761   -9.6711   24.4401 C   0  0  0  0  0  0  0  0  0  0  0  0
  -28.0401  -27.5927   22.2613 C   0  0  0  0  0  0  0  0  0  0  0  0
  -23.3495   -6.0008   23.4657 C   0  0  0  0  0  0  0  0  0  0  0  0
  -23.0872   -4.7869   22.8308 C   0  0  0  0  0  0  0  0  0  0  0  0
  -25.7347  -26.9606   22.5853 C   0  0  0  0  0  0  0  0  0  0  0  0
  -20.7450   -5.0047   23.3817 C   0  0  0  0  0  0  0  0  0  0  0  0
  -24.2172  -10.9734   22.4056 C   0  0  0  0  0  0  0  0  0  0  0  0
  -24.1336  -13.1789   21.1264 C   0  0  0  0  0  0  0  0  0  0  0  0
  -24.8367  -36.0322   22.6695 C   0  0  0  0  0  0  0  0  0  0  0  0
  -26.2644  -28.9586   21.3254 C   0  0  0  0  0  0  0  0  0  0  0  0
  -25.3333  -34.7508   22.9755 C   0  0  0  0  0  0  0  0  0  0  0  0
  -25.3085  -28.0746   21.8460 C   0  0  0  0  0  0  0  0  0  0  0  0
  -23.1109   -8.9225   23.9394 C   0  0  0  0  0  0  0  0  0  0  0  0
  -27.0931  -26.7223   22.7930 C   0  0  0  0  0  0  0  0  0  0  0  0
  -22.3095   -6.7167   24.0587 C   0  0  0  0  0  0  0  0  0  0  0  0
  -21.7850   -4.2888   22.7887 C   0  0  0  0  0  0  0  0  0  0  0  0
  -21.0072   -6.2186   24.0167 C   0  0  0  0  0  0  0  0  0  0  0  0
  -24.7894  -12.0325   21.6136 C   0  0  0  0  0  0  0  0  0  0  0  0
  -25.1055  -13.8644   20.4394 C   0  0  0  0  0  0  0  0  0  0  0  0
  -22.7681  -13.5878   21.2811 C   0  0  0  0  0  0  0  0  0  0  0  0
  -24.2819  -31.3155   22.1119 C   0  0  0  0  0  0  0  0  0  0  0  0
  -22.1896  -29.6422   20.2831 C   0  0  0  0  0  0  0  0  0  0  0  0
  -21.2729  -26.6431   18.9370 C   0  0  0  0  0  0  0  0  0  0  0  0
  -31.0779  -13.9791   20.8510 C   0  0  0  0  0  0  0  0  0  0  0  0
  -23.3567  -36.3123   22.5944 C   0  0  0  0  0  0  0  0  0  0  0  0
  -25.8375  -30.1472   20.5084 C   0  0  0  0  0  0  0  0  0  0  0  0
  -23.8324  -28.2919   21.6407 C   0  0  0  0  0  0  0  0  0  0  0  0
  -22.5058  -35.0545   22.4393 C   0  0  0  0  0  0  0  0  0  0  0  0
  -29.1455  -13.1671   17.9729 C   0  0  0  0  0  0  0  0  0  0  0  0
  -22.9562  -33.9804   23.4244 C   0  0  0  0  0  0  0  0  0  0  0  0
  -27.6060  -22.8715   22.6874 C   0  0  0  0  0  0  0  0  0  0  0  0
  -30.0788  -22.9205   23.1970 C   0  0  0  0  0  0  0  0  0  0  0  0
  -27.5825  -21.3661   22.9465 C   0  0  0  0  0  0  0  0  0  0  0  0
  -30.0552  -21.4152   23.4560 C   0  0  0  0  0  0  0  0  0  0  0  0
  -27.7508  -12.8877   18.5356 C   0  0  0  0  0  0  0  0  0  0  0  0
  -30.2428  -12.6779   18.9155 C   0  0  0  0  0  0  0  0  0  0  0  0
  -28.7465  -12.9015   20.8610 C   0  0  0  0  0  0  0  0  0  0  0  0
  -24.4096  -33.5669   23.1633 C   0  0  1  0  0  0  0  0  0  0  0  0
  -24.4077  -30.5912   20.8014 C   0  0  1  0  0  0  0  0  0  0  0  0
  -28.7174  -23.5664   23.4840 C   0  0  0  0  0  0  0  0  0  0  0  0
  -28.9438  -20.7202   22.6593 C   0  0  0  0  0  0  0  0  0  0  0  0
  -27.6070  -13.4273   19.9714 C   0  0  2  0  0  0  0  0  0  0  0  0
  -19.4958  -25.5813   17.5186 C   0  0  0  0  0  0  0  0  0  0  0  0
  -20.2708  -29.6907   22.6550 C   0  0  0  0  0  0  0  0  0  0  0  0
  -18.9698  -27.8587   21.5508 C   0  0  0  0  0  0  0  0  0  0  0  0
  -19.1918  -30.0773   20.4322 C   0  0  0  0  0  0  0  0  0  0  0  0
  -23.2335  -25.8582   16.8636 C   0  0  0  0  0  0  0  0  0  0  0  0
  -28.7525  -25.0609   23.1702 C   0  0  0  0  0  0  0  0  0  1  0  0
  -28.9087  -19.2257   22.9731 C   0  0  0  0  0  0  0  0  0  0  0  0
  -31.6097  -16.7547   22.5898 C   0  0  0  0  0  0  0  0  0  0  0  0
  -31.7674  -15.2642   22.8590 C   0  0  0  0  0  0  0  0  0  0  0  0
  -30.2252  -17.2791   22.9509 C   0  0  0  0  0  0  0  0  0  0  0  0
  -21.1936  -28.5367   20.5378 C   0  0  1  0  0  0  0  0  0  0  0  0
  -20.8590  -26.2554   17.5289 C   0  0  2  0  0  0  0  0  0  0  0  0
  -19.9342  -29.0375   21.2996 C   0  0  0  0  0  0  0  0  0  0  0  0
  -26.0781  -11.9885   21.2655 N   0  0  0  0  0  0  0  0  0  0  0  0
  -26.2400  -13.1159   20.5522 N   0  0  0  0  0  0  0  0  0  0  0  0
  -23.4648  -29.4715   20.8402 N   0  0  0  0  0  0  0  0  0  0  0  0
  -30.0493  -13.2270   20.2597 N   0  0  0  0  0  0  0  0  0  0  0  0
  -25.0918  -15.0284   19.7558 N   0  0  0  0  0  0  0  0  0  0  0  0
  -21.9040  -12.7660   22.0175 N   0  0  0  0  0  0  0  0  0  0  0  0
  -24.4854  -32.6793   22.0227 N   0  0  0  0  0  0  0  0  0  0  0  0
  -20.9072  -27.9379   19.2386 N   0  0  0  0  0  0  0  0  0  0  0  0
  -30.8102  -14.4680   22.1238 N   0  0  0  0  0  0  0  0  0  0  0  0
  -21.8526  -25.3154   16.9372 N   0  3  0  0  0  0  0  0  0  0  0  0
  -22.3233  -14.6421   20.7672 O   0  0  0  0  0  0  0  0  0  0  0  0
  -24.0182  -30.6839   23.1284 O   0  0  0  0  0  0  0  0  0  0  0  0
  -21.8507  -30.6178   19.6085 O   0  0  0  0  0  0  0  0  0  0  0  0
  -21.8585  -25.8730   19.6950 O   0  0  0  0  0  0  0  0  0  0  0  0
  -32.1528  -14.2031   20.2842 O   0  0  0  0  0  0  0  0  0  0  0  0
  -22.5713   -7.9221   24.6881 O   0  0  0  0  0  0  0  0  0  0  0  0
  -27.4921  -25.6370   23.5105 O   0  0  0  0  0  0  0  0  0  1  0  0
  -30.1801  -18.6762   22.6822 O   0  0  0  0  0  0  0  0  0  0  0  0
  -21.5331   -3.1238   22.1776 F   0  0  0  0  0  0  0  0  0  0  0  0
  -20.0038   -6.9024   24.5836 F   0  0  0  0  0  0  0  0  0  0  0  0
  1  2  1  0  0  0  0
  1  5  2  0  0  0  0
  2  6  2  0  0  0  0
  3  8  2  0  0  0  0
  3 15  1  0  0  0  0
  4  9  1  0  0  0  0
  4 15  2  0  0  0  0
  5 17  1  0  0  0  0
  6 19  1  0  0  0  0
  7 10  2  0  0  0  0
  7 18  1  0  0  0  0
  8 21  1  0  0  0  0
  9 21  2  0  0  0  0
 10 22  1  0  0  0  0
 11 12  2  0  0  0  0
 11 23  1  0  0  0  0
 12 24  1  0  0  0  0
 13 20  1  0  0  0  0
 13 22  2  0  0  0  0
 14 24  2  0  0  0  0
 14 25  1  0  0  0  0
 15 26  1  0  0  0  0
 16 26  1  0  0  0  0
 16 27  2  0  0  0  0
 16 28  1  0  0  0  0
 17 19  2  0  0  0  0
 17 33  1  0  0  0  0
 18 20  2  0  0  0  0
 18 34  1  0  0  0  0
 19 46  1  0  0  0  0
 20 35  1  0  0  0  0
 21 79  1  0  0  0  0
 22 80  1  0  0  0  0
 23 25  2  0  0  0  0
 23 79  1  0  0  0  0
 24 82  1  0  0  0  0
 25 83  1  0  0  0  0
 26 64  2  0  0  0  0
 27 65  1  0  0  0  0
 27 68  1  0  0  0  0
 28 69  1  0  0  0  0
 28 74  2  0  0  0  0
 29 47  1  0  0  0  0
 29 70  1  0  0  0  0
 29 75  2  0  0  0  0
 30 61  1  0  0  0  0
 30 66  1  0  0  0  0
 30 76  2  0  0  0  0
 31 62  1  0  0  0  0
 31 71  1  0  0  0  0
 31 77  2  0  0  0  0
 32 67  1  0  0  0  0
 32 72  1  0  0  0  0
 32 78  2  0  0  0  0
 33 36  1  0  0  0  0
 34 47  1  0  0  0  0
 35 66  1  0  0  0  0
 36 38  1  0  0  0  0
 37 43  1  0  0  0  0
 37 44  1  0  0  0  0
 38 46  1  0  0  0  0
 39 41  1  0  0  0  0
 39 48  1  0  0  0  0
 40 42  1  0  0  0  0
 40 48  1  0  0  0  0
 41 49  1  0  0  0  0
 42 49  1  0  0  0  0
 43 50  1  0  0  0  0
 44 67  1  0  0  0  0
 45 50  1  0  0  0  0
 45 67  1  0  0  0  0
 46 70  1  0  0  0  0
 47 66  1  0  0  0  0
 48 56  1  0  0  0  0
 49 57  1  0  0  0  0
 50 65  1  0  0  0  0
 51 62  1  0  0  0  0
 52 63  1  0  0  0  0
 53 63  1  0  0  0  0
 54 63  1  0  0  0  0
 55 73  1  0  0  0  0
 56 80  1  0  0  0  0
 57 81  1  0  0  0  0
 58 59  1  0  0  0  0
 58 60  1  0  0  0  0
 59 72  1  0  0  0  0
 60 81  1  0  0  0  0
 61 63  1  0  0  0  0
 61 71  1  0  0  0  0
 62 73  1  0  0  0  0
 64 65  1  0  0  0  0
M  CHG  1  73   1
M  ISO  4  32 100  56 101  72 100  80 101
M  END
> <Batch ID>
0119

> <Smiles>
CNC(C)C(=O)NC(C(=O)N1Cc2cc([101O:1][101CH2:1]C3CCC(COCCC[100NH:0][100C:0](=O)N4CCCC(n5nc(-c6ccc(Oc7ccc(F)cc7F)cc6)c(C(N)=O)c5N)C4)CC3)ccc2CC1C(=O)NC1CCCc2ccccc21)C(C)(C)C

> <Shape>
0.286

> <Color>
0.155

> <Negative vol penalty>
0.000

$$$$

  -OEChem-04052320203D

 85 93  0     1  0  0  0  0  0999 V2000
  -20.4866  -32.9412   25.1474 C   0  0  0  0  0  0  0  0  0  0  0  0
  -21.7588  -32.6203   24.6850 C   0  0  0  0  0  0  0  0  0  0  0  0
  -26.1691  -13.6479   18.6032 C   0  0  0  0  0  0  0  0  0  0  0  0
  -25.1793  -14.0079   20.7775 C   0  0  0  0  0  0  0  0  0  0  0  0
  -19.5128  -31.9487   25.2508 C   0  0  0  0  0  0  0  0  0  0  0  0
  -22.0583  -31.3064   24.3267 C   0  0  0  0  0  0  0  0  0  0  0  0
  -25.7942  -29.4765   19.8322 C   0  0  0  0  0  0  0  0  0  0  0  0
  -25.3214  -12.5594   18.3976 C   0  0  0  0  0  0  0  0  0  0  0  0
  -24.3315  -12.9195   20.5719 C   0  0  0  0  0  0  0  0  0  0  0  0
  -27.1217  -29.0503   19.8310 C   0  0  0  0  0  0  0  0  0  0  0  0
  -24.5255   -9.5474   20.7218 C   0  0  0  0  0  0  0  0  0  0  0  0
  -24.3693   -8.6405   21.7699 C   0  0  0  0  0  0  0  0  0  0  0  0
  -26.3790  -26.7563   19.9009 C   0  0  0  0  0  0  0  0  0  0  0  0
  -21.9991   -9.1063   21.8197 C   0  0  0  0  0  0  0  0  0  0  0  0
  -26.0981  -14.3721   19.7933 C   0  0  0  0  0  0  0  0  0  0  0  0
  -28.3815  -15.4854   20.0263 C   0  0  0  0  0  0  0  0  0  0  0  0
  -19.7977  -30.6238   24.8845 C   0  0  0  0  0  0  0  0  0  0  0  0
  -24.7475  -28.5444   19.8788 C   0  0  0  0  0  0  0  0  0  0  0  0
  -21.0879  -30.2950   24.4266 C   0  0  0  0  0  0  0  0  0  0  0  0
  -25.0391  -27.1731   19.9000 C   0  0  0  0  0  0  0  0  0  0  0  0
  -24.4026  -12.1953   19.3819 C   0  0  0  0  0  0  0  0  0  0  0  0
  -27.4143  -27.6902   19.8683 C   0  0  0  0  0  0  0  0  0  0  0  0
  -23.4185  -10.2339   20.2226 C   0  0  0  0  0  0  0  0  0  0  0  0
  -23.1061   -8.4199   22.3189 C   0  0  0  0  0  0  0  0  0  0  0  0
  -22.1553  -10.0133   20.7715 C   0  0  0  0  0  0  0  0  0  0  0  0
  -26.9739  -15.4962   20.0065 C   0  0  0  0  0  0  0  0  0  0  0  0
  -28.7315  -16.7921   20.2638 C   0  0  0  0  0  0  0  0  0  0  0  0
  -29.2912  -14.3920   19.8461 C   0  0  0  0  0  0  0  0  0  0  0  0
  -22.3942  -27.9146   21.9205 C   0  0  0  0  0  0  0  0  0  0  0  0
  -21.4666  -25.8390   19.6066 C   0  0  0  0  0  0  0  0  0  0  0  0
  -22.3306  -23.9201   16.9200 C   0  0  0  0  0  0  0  0  0  0  0  0
  -28.1069  -22.2518   19.2904 C   0  0  0  0  0  0  0  0  0  0  0  0
  -18.7267  -29.5763   25.0584 C   0  0  0  0  0  0  0  0  0  0  0  0
  -23.3206  -29.0195   19.8525 C   0  0  0  0  0  0  0  0  0  0  0  0
  -23.9516  -26.1315   19.9302 C   0  0  0  0  0  0  0  0  0  0  0  0
  -19.0137  -28.2807   24.3038 C   0  0  0  0  0  0  0  0  0  0  0  0
  -25.9136  -20.7535   21.6613 C   0  0  0  0  0  0  0  0  0  0  0  0
  -20.4556  -27.8383   24.5317 C   0  0  0  0  0  0  0  0  0  0  0  0
  -26.1054  -19.2522   21.4394 C   0  0  0  0  0  0  0  0  0  0  0  0
  -25.9864  -21.5318   20.3494 C   0  0  0  0  0  0  0  0  0  0  0  0
  -27.3933  -19.7848   19.3283 C   0  0  0  0  0  0  0  0  0  0  0  0
  -29.9590  -22.2284   15.7605 C   0  0  0  0  0  0  0  0  0  0  0  0
  -32.0376  -23.4159   15.7200 C   0  0  0  0  0  0  0  0  0  0  0  0
  -21.4438  -28.8859   24.0048 C   0  0  1  0  0  0  0  0  0  0  0  0
  -22.3403  -27.9983   20.4213 C   0  0  1  0  0  0  0  0  0  0  0  0
  -27.3837  -18.9640   20.6293 C   0  0  2  0  0  0  0  0  0  0  0  0
  -29.9842  -23.3567   16.7984 C   0  0  1  0  0  0  0  0  0  0  0  0
  -21.3640  -22.3045   15.2608 C   0  0  0  0  0  0  0  0  0  0  0  0
  -32.5271  -26.1412   16.4214 C   0  0  0  0  0  0  0  0  0  0  0  0
  -33.4993  -21.0051   14.9021 C   0  0  0  0  0  0  0  0  0  0  0  0
  -31.3151  -19.7390   14.9151 C   0  0  0  0  0  0  0  0  0  0  0  0
  -21.4457  -23.6610   21.7434 C   0  0  0  0  0  0  0  0  0  0  0  0
  -21.4172  -21.9582   19.9083 C   0  0  0  0  0  0  0  0  0  0  0  0
  -19.5273  -23.5694   20.1416 C   0  0  0  0  0  0  0  0  0  0  0  0
  -23.0109  -25.6773   14.6377 C   0  0  0  0  0  0  0  0  0  0  0  0
  -30.2660  -22.8154   18.2043 C   0  0  0  0  0  0  0  0  0  0  0  0
  -30.8155  -27.2510   18.6805 C   0  0  0  0  0  0  0  0  0  0  0  0
  -30.3466  -26.1850   17.6808 C   0  0  0  0  0  0  0  0  0  0  0  0
  -29.6592  -28.0995   19.1984 C   0  0  0  0  0  0  0  0  0  1  0  0
  -21.7598  -24.3930   19.2875 C   0  0  1  0  0  0  0  0  0  0  0  0
  -21.6955  -23.7601   15.5505 C   0  0  2  0  0  0  0  0  0  0  0  0
  -31.4865  -25.2954   17.1548 C   0  0  1  0  0  0  0  0  0  0  0  0
  -32.1043  -20.9006   15.4972 C   0  0  0  0  0  0  0  0  0  0  0  0
  -21.0583  -23.4148   20.2716 C   0  0  0  0  0  0  0  0  0  0  0  0
  -26.4646  -16.7132   20.2150 N   0  0  0  0  0  0  0  0  0  0  0  0
  -27.5580  -17.4793   20.3681 N   0  0  0  0  0  0  0  0  0  0  0  0
  -22.5724  -26.6461   19.9095 N   0  0  0  0  0  0  0  0  0  0  0  0
  -27.2228  -21.2146   19.6307 N   0  0  0  0  0  0  0  0  0  0  0  0
  -30.9890  -24.2770   16.2481 N   0  0  1  0  0  0  0  0  0  0  0  0
  -29.9256  -17.4089   20.3916 N   0  0  0  0  0  0  0  0  0  0  0  0
  -29.6965  -13.6669   20.9749 N   0  0  0  0  0  0  0  0  0  0  0  0
  -21.5509  -28.8001   22.5641 N   0  0  0  0  0  0  0  0  0  0  0  0
  -21.3908  -24.2006   17.8892 N   0  0  0  0  0  0  0  0  0  0  0  0
  -29.2581  -21.8638   18.6159 N   0  0  0  0  0  0  0  0  0  0  0  0
  -31.3681  -22.1678   15.2044 N   0  3  1  0  0  0  0  0  0  0  0  0
  -22.6201  -24.2516   14.4901 N   0  3  0  0  0  0  0  0  0  0  0  0
  -29.7445  -14.0779   18.7194 O   0  0  0  0  0  0  0  0  0  0  0  0
  -23.1441  -27.1054   22.4539 O   0  0  0  0  0  0  0  0  0  0  0  0
  -20.3002  -26.2395   19.5810 O   0  0  0  0  0  0  0  0  0  0  0  0
  -23.5391  -23.8040   17.1115 O   0  0  0  0  0  0  0  0  0  0  0  0
  -27.8891  -23.4351   19.5718 O   0  0  0  0  0  0  0  0  0  0  0  0
  -23.5751  -11.1334   19.1814 O   0  0  0  0  0  0  0  0  0  0  0  0
  -28.7092  -27.2715   19.8679 O   0  0  0  0  0  0  0  0  0  1  0  0
  -22.9560   -7.5478   23.3244 F   0  0  0  0  0  0  0  0  0  0  0  0
  -21.0879  -10.6689   20.2954 F   0  0  0  0  0  0  0  0  0  0  0  0
  1  2  1  0  0  0  0
  1  5  2  0  0  0  0
  2  6  2  0  0  0  0
  3  8  2  0  0  0  0
  3 15  1  0  0  0  0
  4  9  1  0  0  0  0
  4 15  2  0  0  0  0
  5 17  1  0  0  0  0
  6 19  1  0  0  0  0
  7 10  2  0  0  0  0
  7 18  1  0  0  0  0
  8 21  1  0  0  0  0
  9 21  2  0  0  0  0
 10 22  1  0  0  0  0
 11 12  2  0  0  0  0
 11 23  1  0  0  0  0
 12 24  1  0  0  0  0
 13 20  1  0  0  0  0
 13 22  2  0  0  0  0
 14 24  2  0  0  0  0
 14 25  1  0  0  0  0
 15 26  1  0  0  0  0
 16 26  1  0  0  0  0
 16 27  2  0  0  0  0
 16 28  1  0  0  0  0
 17 19  2  0  0  0  0
 17 33  1  0  0  0  0
 18 20  2  0  0  0  0
 18 34  1  0  0  0  0
 19 44  1  0  0  0  0
 20 35  1  0  0  0  0
 21 82  1  0  0  0  0
 22 83  1  0  0  0  0
 23 25  2  0  0  0  0
 23 82  1  0  0  0  0
 24 84  1  0  0  0  0
 25 85  1  0  0  0  0
 26 65  2  0  0  0  0
 27 66  1  0  0  0  0
 27 70  1  0  0  0  0
 28 71  1  0  0  0  0
 28 77  2  0  0  0  0
 29 45  1  0  0  0  0
 29 72  1  0  0  0  0
 29 78  2  0  0  0  0
 30 60  1  0  0  0  0
 30 67  1  0  0  0  0
 30 79  2  0  0  0  0
 31 61  1  0  0  0  0
 31 73  1  0  0  0  0
 31 80  2  0  0  0  0
 32 68  1  0  0  0  0
 32 74  1  0  0  0  0
 32 81  2  0  0  0  0
 33 36  1  0  0  0  0
 34 45  1  0  0  0  0
 35 67  1  0  0  0  0
 36 38  1  0  0  0  0
 37 39  1  0  0  0  0
 37 40  1  0  0  0  0
 38 44  1  0  0  0  0
 39 46  1  0  0  0  0
 40 68  1  0  0  0  0
 41 46  1  0  0  0  0
 41 68  1  0  0  0  0
 42 47  1  0  0  0  0
 42 75  1  0  0  0  0
 43 69  1  0  0  0  0
 43 75  1  0  0  0  0
 44 72  1  0  0  0  0
 45 67  1  0  0  0  0
 46 66  1  0  0  0  0
 47 56  1  0  0  0  0
 47 69  1  0  0  0  0
 48 61  1  0  0  0  0
 49 62  1  0  0  0  0
 50 63  1  0  0  0  0
 51 63  1  0  0  0  0
 52 64  1  0  0  0  0
 53 64  1  0  0  0  0
 54 64  1  0  0  0  0
 55 76  1  0  0  0  0
 56 74  1  0  0  0  0
 57 58  1  0  0  0  0
 57 59  1  0  0  0  0
 58 62  1  0  0  0  0
 59 83  1  0  0  0  0
 60 64  1  0  0  0  0
 60 73  1  0  0  0  0
 61 76  1  0  0  0  0
 62 69  1  0  0  0  0
 63 75  1  0  0  0  0
 65 66  1  0  0  0  0
M  CHG  2  75   1  76   1
M  ISO  4  32 100  59 101  74 100  83 101
M  END
> <Batch ID>
0119

> <Smiles>
CNC(C)C(=O)NC(C(=O)N1Cc2cc([101O:1][101CH2:1]CCC(C)N3CN(C(C)C)CC3C[100NH:0][100C:0](=O)N3CCCC(n4nc(-c5ccc(Oc6ccc(F)cc6F)cc5)c(C(N)=O)c4N)C3)ccc2CC1C(=O)NC1CCCc2ccccc21)C(C)(C)C

> <Shape>
0.233

> <Color>
0.081

> <Negative vol penalty>
0.000

$$$$

  -OEChem-04052320203D

 82 90  0     1  0  0  0  0  0999 V2000
  -27.9302  -34.4829   23.8127 C   0  0  0  0  0  0  0  0  0  0  0  0
  -28.1065  -33.1460   23.4705 C   0  0  0  0  0  0  0  0  0  0  0  0
  -24.6990  -13.3033   19.6778 C   0  0  0  0  0  0  0  0  0  0  0  0
  -25.2976  -13.7713   21.9712 C   0  0  0  0  0  0  0  0  0  0  0  0
  -26.7085  -34.9141   24.3280 C   0  0  0  0  0  0  0  0  0  0  0  0
  -27.0615  -32.2392   23.6446 C   0  0  0  0  0  0  0  0  0  0  0  0
  -26.4640  -29.1747   19.6576 C   0  0  0  0  0  0  0  0  0  0  0  0
  -25.5175  -12.1740   19.6946 C   0  0  0  0  0  0  0  0  0  0  0  0
  -26.1161  -12.6420   21.9880 C   0  0  0  0  0  0  0  0  0  0  0  0
  -27.3566  -28.1110   19.5327 C   0  0  0  0  0  0  0  0  0  0  0  0
  -27.1682   -8.9660   19.2482 C   0  0  0  0  0  0  0  0  0  0  0  0
  -26.6598   -7.7884   18.7001 C   0  0  0  0  0  0  0  0  0  0  0  0
  -25.7008  -26.6208   20.4583 C   0  0  0  0  0  0  0  0  0  0  0  0
  -24.8530   -7.8222   20.3038 C   0  0  0  0  0  0  0  0  0  0  0  0
  -24.5891  -14.1020   20.8161 C   0  0  0  0  0  0  0  0  0  0  0  0
  -22.3804  -15.3362   21.1417 C   0  0  0  0  0  0  0  0  0  0  0  0
  -25.6449  -34.0141   24.4994 C   0  0  0  0  0  0  0  0  0  0  0  0
  -25.1848  -28.9712   20.1948 C   0  0  0  0  0  0  0  0  0  0  0  0
  -25.8249  -32.6586   24.1640 C   0  0  0  0  0  0  0  0  0  0  0  0
  -24.7929  -27.6831   20.5865 C   0  0  0  0  0  0  0  0  0  0  0  0
  -26.2260  -11.8433   20.8497 C   0  0  0  0  0  0  0  0  0  0  0  0
  -26.9761  -26.8344   19.9357 C   0  0  0  0  0  0  0  0  0  0  0  0
  -26.5191   -9.5717   20.3241 C   0  0  0  0  0  0  0  0  0  0  0  0
  -25.5022   -7.2165   19.2279 C   0  0  0  0  0  0  0  0  0  0  0  0
  -25.3615   -8.9998   20.8518 C   0  0  0  0  0  0  0  0  0  0  0  0
  -23.7442  -15.2690   20.7992 C   0  0  0  0  0  0  0  0  0  0  0  0
  -22.0455  -16.6559   20.9607 C   0  0  0  0  0  0  0  0  0  0  0  0
  -21.4954  -14.2985   21.5840 C   0  0  0  0  0  0  0  0  0  0  0  0
  -23.6255  -30.0500   22.7459 C   0  0  0  0  0  0  0  0  0  0  0  0
  -21.1386  -28.4421   21.4221 C   0  0  0  0  0  0  0  0  0  0  0  0
  -20.0755  -25.9427   19.3559 C   0  0  0  0  0  0  0  0  0  0  0  0
  -24.4728  -20.7857   17.4179 C   0  0  0  0  0  0  0  0  0  0  0  0
  -24.3583  -34.5175   25.1043 C   0  0  0  0  0  0  0  0  0  0  0  0
  -24.2242  -30.1240   20.2981 C   0  0  0  0  0  0  0  0  0  0  0  0
  -23.4238  -27.4079   21.1506 C   0  0  0  0  0  0  0  0  0  0  0  0
  -23.1799  -33.5675   24.9071 C   0  0  0  0  0  0  0  0  0  0  0  0
  -23.9002  -21.0470   21.0533 C   0  0  0  0  0  0  0  0  0  0  0  0
  -23.5865  -32.1359   25.2419 C   0  0  0  0  0  0  0  0  0  0  0  0
  -23.7241  -19.5786   21.4288 C   0  0  0  0  0  0  0  0  0  0  0  0
  -23.3825  -22.6281   15.0786 C   0  0  0  0  0  0  0  0  0  0  0  0
  -23.8537  -23.9427   15.6226 C   0  0  0  0  0  0  0  0  0  0  0  0
  -24.8965  -21.2309   19.9093 C   0  0  0  0  0  0  0  0  0  0  0  0
  -24.3933  -18.9511   19.0765 C   0  0  0  0  0  0  0  0  0  0  0  0
  -24.7072  -31.6496   24.3150 C   0  0  1  0  0  0  0  0  0  0  0  0
  -23.1291  -29.8982   21.3359 C   0  0  1  0  0  0  0  0  0  0  0  0
  -23.3584  -18.7427   20.1927 C   0  0  1  0  0  0  0  0  0  0  0  0
  -24.6794  -22.6960   15.8557 C   0  0  0  0  0  0  0  0  0  0  0  0
  -17.9851  -24.8456   18.5049 C   0  0  0  0  0  0  0  0  0  0  0  0
  -26.1066  -21.1875   14.4197 C   0  0  0  0  0  0  0  0  0  0  0  0
  -29.8381  -23.6801   16.8099 C   0  0  0  0  0  0  0  0  0  0  0  0
  -20.8073  -27.0063   24.0940 C   0  0  0  0  0  0  0  0  0  0  0  0
  -19.3899  -25.3055   22.9249 C   0  0  0  0  0  0  0  0  0  0  0  0
  -18.6627  -27.6904   23.0043 C   0  0  0  0  0  0  0  0  0  0  0  0
  -20.7053  -26.6527   16.5527 C   0  0  0  0  0  0  0  0  0  0  0  0
  -28.2580  -23.6796   18.7620 C   0  0  0  0  0  0  0  0  0  0  0  0
  -27.3869  -24.1530   16.3719 C   0  0  0  0  0  0  0  0  0  0  0  0
  -27.2845  -24.5004   19.5990 C   0  0  0  0  0  0  0  0  0  1  0  0
  -20.6019  -27.0346   21.5204 C   0  0  1  0  0  0  0  0  0  0  0  0
  -19.0302  -25.9218   18.2553 C   0  0  2  0  0  0  0  0  0  0  0  0
  -25.9747  -22.5541   15.0726 C   0  0  2  0  0  0  0  0  0  0  0  0
  -28.5439  -24.2790   17.3726 C   0  0  2  0  0  0  0  0  0  0  0  0
  -19.8920  -26.7644   22.8771 C   0  0  0  0  0  0  0  0  0  0  0  0
  -24.2416  -16.4519   20.4285 N   0  0  0  0  0  0  0  0  0  0  0  0
  -23.1846  -17.2748   20.5369 N   0  0  0  0  0  0  0  0  0  0  0  0
  -22.5227  -28.5689   21.2375 N   0  0  0  0  0  0  0  0  0  0  0  0
  -24.5647  -20.3744   18.7598 N   0  0  0  0  0  0  0  0  0  0  0  0
  -20.8907  -17.3356   21.1242 N   0  0  0  0  0  0  0  0  0  0  0  0
  -22.0030  -12.9988   21.7160 N   0  0  0  0  0  0  0  0  0  0  0  0
  -24.1713  -31.2896   23.0198 N   0  0  0  0  0  0  0  0  0  0  0  0
  -19.7509  -26.8397   20.3516 N   0  0  0  0  0  0  0  0  0  0  0  0
  -24.7292  -22.1309   17.1777 N   0  0  0  0  0  0  0  0  0  0  0  0
  -19.6719  -25.6568   16.9365 N   0  3  0  0  0  0  0  0  0  0  0  0
  -27.1161  -22.7415   16.0104 N   0  3  0  0  0  0  0  0  0  0  0  0
  -20.2862  -14.5141   21.8385 O   0  0  0  0  0  0  0  0  0  0  0  0
  -23.5197  -29.1125   23.5280 O   0  0  0  0  0  0  0  0  0  0  0  0
  -20.3577  -29.3939   21.4989 O   0  0  0  0  0  0  0  0  0  0  0  0
  -21.0776  -25.2315   19.3364 O   0  0  0  0  0  0  0  0  0  0  0  0
  -24.1885  -20.0110   16.4977 O   0  0  0  0  0  0  0  0  0  0  0  0
  -27.0246  -10.7412   20.8665 O   0  0  0  0  0  0  0  0  0  0  0  0
  -27.8456  -25.7945   19.8155 O   0  0  0  0  0  0  0  0  0  1  0  0
  -25.0132   -6.0865   18.7005 F   0  0  0  0  0  0  0  0  0  0  0  0
  -24.7328   -9.5777   21.8846 F   0  0  0  0  0  0  0  0  0  0  0  0
  1  2  1  0  0  0  0
  1  5  2  0  0  0  0
  2  6  2  0  0  0  0
  3  8  2  0  0  0  0
  3 15  1  0  0  0  0
  4  9  1  0  0  0  0
  4 15  2  0  0  0  0
  5 17  1  0  0  0  0
  6 19  1  0  0  0  0
  7 10  2  0  0  0  0
  7 18  1  0  0  0  0
  8 21  1  0  0  0  0
  9 21  2  0  0  0  0
 10 22  1  0  0  0  0
 11 12  2  0  0  0  0
 11 23  1  0  0  0  0
 12 24  1  0  0  0  0
 13 20  1  0  0  0  0
 13 22  2  0  0  0  0
 14 24  2  0  0  0  0
 14 25  1  0  0  0  0
 15 26  1  0  0  0  0
 16 26  1  0  0  0  0
 16 27  2  0  0  0  0
 16 28  1  0  0  0  0
 17 19  2  0  0  0  0
 17 33  1  0  0  0  0
 18 20  2  0  0  0  0
 18 34  1  0  0  0  0
 19 44  1  0  0  0  0
 20 35  1  0  0  0  0
 21 79  1  0  0  0  0
 22 80  1  0  0  0  0
 23 25  2  0  0  0  0
 23 79  1  0  0  0  0
 24 81  1  0  0  0  0
 25 82  1  0  0  0  0
 26 63  2  0  0  0  0
 27 64  1  0  0  0  0
 27 67  1  0  0  0  0
 28 68  1  0  0  0  0
 28 74  2  0  0  0  0
 29 45  1  0  0  0  0
 29 69  1  0  0  0  0
 29 75  2  0  0  0  0
 30 58  1  0  0  0  0
 30 65  1  0  0  0  0
 30 76  2  0  0  0  0
 31 59  1  0  0  0  0
 31 70  1  0  0  0  0
 31 77  2  0  0  0  0
 32 66  1  0  0  0  0
 32 71  1  0  0  0  0
 32 78  2  0  0  0  0
 33 36  1  0  0  0  0
 34 45  1  0  0  0  0
 35 65  1  0  0  0  0
 36 38  1  0  0  0  0
 37 39  1  0  0  0  0
 37 42  1  0  0  0  0
 38 44  1  0  0  0  0
 39 46  1  0  0  0  0
 40 41  1  0  0  0  0
 40 47  1  0  0  0  0
 41 47  1  0  0  0  0
 42 66  1  0  0  0  0
 43 46  1  0  0  0  0
 43 66  1  0  0  0  0
 44 69  1  0  0  0  0
 45 65  1  0  0  0  0
 46 64  1  0  0  0  0
 47 60  1  0  0  0  0
 47 71  1  0  0  0  0
 48 59  1  0  0  0  0
 49 60  1  0  0  0  0
 50 61  1  0  0  0  0
 51 62  1  0  0  0  0
 52 62  1  0  0  0  0
 53 62  1  0  0  0  0
 54 72  1  0  0  0  0
 55 57  1  0  0  0  0
 55 61  1  0  0  0  0
 56 61  1  0  0  0  0
 56 73  1  0  0  0  0
 57 80  1  0  0  0  0
 58 62  1  0  0  0  0
 58 70  1  0  0  0  0
 59 72  1  0  0  0  0
 60 73  1  0  0  0  0
 63 64  1  0  0  0  0
M  CHG  2  72   1  73   1
M  ISO  4  32 100  57 101  71 100  80 101
M  END
> <Batch ID>
0119

> <Smiles>
CNC(C)C(=O)NC(C(=O)N1Cc2cc([101O:1][101CH2:1]CC(C)CNC(C)C3([100NH:0][100C:0](=O)N4CCCC(n5nc(-c6ccc(Oc7ccc(F)cc7F)cc6)c(C(N)=O)c5N)C4)CC3)ccc2CC1C(=O)NC1CCCc2ccccc21)C(C)(C)C

> <Shape>
0.210

> <Color>
0.077

> <Negative vol penalty>
0.000

$$$$

  -OEChem-04052320203D

 85 94  0     1  0  0  0  0  0999 V2000
  -31.7495  -34.1913   21.4069 C   0  0  0  0  0  0  0  0  0  0  0  0
  -32.1544  -33.0608   22.1094 C   0  0  0  0  0  0  0  0  0  0  0  0
  -23.0737   -9.9265   19.9385 C   0  0  0  0  0  0  0  0  0  0  0  0
  -23.8367   -9.9243   22.2309 C   0  0  0  0  0  0  0  0  0  0  0  0
  -30.5050  -34.2116   20.7786 C   0  0  0  0  0  0  0  0  0  0  0  0
  -31.3145  -31.9502   22.1848 C   0  0  0  0  0  0  0  0  0  0  0  0
  -32.9973  -26.0629   22.3011 C   0  0  0  0  0  0  0  0  0  0  0  0
  -32.7742  -17.4068   23.3956 C   0  0  0  0  0  0  0  0  0  0  0  0
  -32.1399  -16.5391   22.5100 C   0  0  0  0  0  0  0  0  0  0  0  0
  -22.3176   -8.7815   20.1891 C   0  0  0  0  0  0  0  0  0  0  0  0
  -23.0805   -8.7793   22.4815 C   0  0  0  0  0  0  0  0  0  0  0  0
  -33.1541  -25.1526   23.3454 C   0  0  0  0  0  0  0  0  0  0  0  0
  -19.8446   -8.0167   23.0880 C   0  0  0  0  0  0  0  0  0  0  0  0
  -19.0889   -7.9846   24.2599 C   0  0  0  0  0  0  0  0  0  0  0  0
  -30.9259  -24.3194   22.9457 C   0  0  0  0  0  0  0  0  0  0  0  0
  -20.3099   -6.0334   24.9940 C   0  0  0  0  0  0  0  0  0  0  0  0
  -23.8333  -10.4979   20.9594 C   0  0  0  0  0  0  0  0  0  0  0  0
  -24.2027  -13.0192   20.8398 C   0  0  0  0  0  0  0  0  0  0  0  0
  -29.6535  -33.0971   20.8382 C   0  0  0  0  0  0  0  0  0  0  0  0
  -31.7975  -26.1158   21.5771 C   0  0  0  0  0  0  0  0  0  0  0  0
  -30.0569  -31.9561   21.5578 C   0  0  0  0  0  0  0  0  0  0  0  0
  -30.7572  -25.2295   21.8910 C   0  0  0  0  0  0  0  0  0  0  0  0
  -30.6269  -18.3499   24.0223 C   0  0  0  0  0  0  0  0  0  0  0  0
  -29.9854  -17.4587   23.1421 C   0  0  0  0  0  0  0  0  0  0  0  0
  -32.0220  -18.3058   24.1515 C   0  0  0  0  0  0  0  0  0  0  0  0
  -30.7516  -16.5655   22.3814 C   0  0  0  0  0  0  0  0  0  0  0  0
  -22.3210   -8.2079   21.4605 C   0  0  0  0  0  0  0  0  0  0  0  0
  -32.1173  -24.2827   23.6697 C   0  0  0  0  0  0  0  0  0  0  0  0
  -20.8330   -7.0571   22.8691 C   0  0  0  0  0  0  0  0  0  0  0  0
  -19.3215   -6.9930   25.2129 C   0  0  0  0  0  0  0  0  0  0  0  0
  -21.0657   -6.0655   23.8221 C   0  0  0  0  0  0  0  0  0  0  0  0
  -24.6151  -11.6804   20.7011 C   0  0  0  0  0  0  0  0  0  0  0  0
  -25.3025  -13.7568   20.4754 C   0  0  0  0  0  0  0  0  0  0  0  0
  -22.9385  -13.5487   21.2606 C   0  0  0  0  0  0  0  0  0  0  0  0
  -29.5607  -28.3233   21.1004 C   0  0  0  0  0  0  0  0  0  0  0  0
  -28.3816  -26.1224   19.0296 C   0  0  0  0  0  0  0  0  0  0  0  0
  -28.1710  -22.8479   18.0914 C   0  0  0  0  0  0  0  0  0  0  0  0
  -30.7800  -14.7423   20.6431 C   0  0  0  0  0  0  0  0  0  0  0  0
  -28.2978  -33.1834   20.1829 C   0  0  0  0  0  0  0  0  0  0  0  0
  -31.6540  -27.0853   20.4361 C   0  0  0  0  0  0  0  0  0  0  0  0
  -29.8284  -19.3044   24.8768 C   0  0  0  0  0  0  0  0  0  0  0  0
  -29.4567  -25.2322   21.1313 C   0  0  0  0  0  0  0  0  0  0  0  0
  -28.4926  -17.4898   22.9690 C   0  0  0  0  0  0  0  0  0  0  0  0
  -27.6244  -31.8264   19.9955 C   0  0  0  0  0  0  0  0  0  0  0  0
  -29.6361  -12.3418   18.2755 C   0  0  0  0  0  0  0  0  0  0  0  0
  -27.7217  -31.0010   21.2746 C   0  0  0  0  0  0  0  0  0  0  0  0
  -28.1939  -12.0658   18.7069 C   0  0  0  0  0  0  0  0  0  0  0  0
  -30.5552  -12.5601   19.4760 C   0  0  0  0  0  0  0  0  0  0  0  0
  -28.6582  -13.3049   20.8600 C   0  0  0  0  0  0  0  0  0  0  0  0
  -28.4319  -19.5718   24.3299 C   0  0  0  0  0  0  0  0  0  0  0  0
  -29.1843  -30.7225   21.6416 C   0  0  1  0  0  0  0  0  0  0  0  0
  -30.1998  -27.4019   20.1004 C   0  0  1  0  0  0  0  0  0  0  0  0
  -27.6819  -13.1427   19.6835 C   0  0  2  0  0  0  0  0  0  0  0  0
  -27.1030  -21.3535   16.3816 C   0  0  0  0  0  0  0  0  0  0  0  0
  -25.7151  -26.3567   20.4941 C   0  0  0  0  0  0  0  0  0  0  0  0
  -25.0054  -24.2200   19.3990 C   0  0  0  0  0  0  0  0  0  0  0  0
  -25.5292  -26.2205   18.0038 C   0  0  0  0  0  0  0  0  0  0  0  0
  -30.7979  -21.9507   17.0651 C   0  0  0  0  0  0  0  0  0  0  0  0
  -32.7522  -19.2060   25.1041 C   0  0  0  0  0  0  0  0  0  0  0  0
  -33.5192  -21.5375   25.5669 C   0  0  0  0  0  0  0  0  0  0  0  0
  -33.5884  -22.9197   24.9481 C   0  0  0  0  0  0  0  0  0  1  0  0
  -27.4136  -24.9686   19.1324 C   0  0  1  0  0  0  0  0  0  0  0  0
  -28.3315  -22.1750   16.7402 C   0  0  2  0  0  0  0  0  0  0  0  0
  -25.9395  -25.4425   19.2731 C   0  0  0  0  0  0  0  0  0  0  0  0
  -25.8782  -11.5708   20.2811 N   0  0  0  0  0  0  0  0  0  0  0  0
  -26.2690  -12.8502   20.1527 N   0  0  0  0  0  0  0  0  0  0  0  0
  -29.3624  -26.2029   20.0283 N   0  0  0  0  0  0  0  0  0  0  0  0
  -30.0088  -13.5966   20.3545 N   0  0  0  0  0  0  0  0  0  0  0  0
  -25.5274  -15.0859   20.4025 N   0  0  0  0  0  0  0  0  0  0  0  0
  -21.9171  -12.6506   21.5989 N   0  0  0  0  0  0  0  0  0  0  0  0
  -30.1439  -15.6741   21.4627 N   0  0  0  0  0  0  0  0  0  0  0  0
  -29.7211  -29.6651   20.8120 N   0  0  0  0  0  0  0  0  0  0  0  0
  -27.6611  -24.1233   17.9694 N   0  0  0  0  0  0  0  0  0  0  0  0
  -27.7780  -18.2632   24.0352 N   0  3  0  0  0  0  0  0  0  0  0  0
  -29.5156  -21.2701   16.7496 N   0  3  0  0  0  0  0  0  0  0  0  0
  -32.8539  -20.6088   24.6187 N   0  3  0  0  0  0  0  0  0  0  0  0
  -22.7158  -14.7819   21.3187 O   0  0  0  0  0  0  0  0  0  0  0  0
  -28.9647  -27.8517   22.0618 O   0  0  0  0  0  0  0  0  0  0  0  0
  -28.2760  -26.9188   18.0935 O   0  0  0  0  0  0  0  0  0  0  0  0
  -28.4648  -22.2961   19.1495 O   0  0  0  0  0  0  0  0  0  0  0  0
  -31.9103  -14.8988   20.1740 O   0  0  0  0  0  0  0  0  0  0  0  0
  -21.5830   -7.0907   21.7054 O   0  0  0  0  0  0  0  0  0  0  0  0
  -32.2675  -23.3936   24.6890 O   0  0  0  0  0  0  0  0  0  1  0  0
  -18.5967   -6.9632   26.3390 F   0  0  0  0  0  0  0  0  0  0  0  0
  -22.0147   -5.1416   23.6178 F   0  0  0  0  0  0  0  0  0  0  0  0
  1  2  1  0  0  0  0
  1  5  2  0  0  0  0
  2  6  2  0  0  0  0
  3 10  2  0  0  0  0
  3 17  1  0  0  0  0
  4 11  1  0  0  0  0
  4 17  2  0  0  0  0
  5 19  1  0  0  0  0
  6 21  1  0  0  0  0
  7 12  2  0  0  0  0
  7 20  1  0  0  0  0
  8  9  2  0  0  0  0
  8 25  1  0  0  0  0
  9 26  1  0  0  0  0
 10 27  1  0  0  0  0
 11 27  2  0  0  0  0
 12 28  1  0  0  0  0
 13 14  2  0  0  0  0
 13 29  1  0  0  0  0
 14 30  1  0  0  0  0
 15 22  1  0  0  0  0
 15 28  2  0  0  0  0
 16 30  2  0  0  0  0
 16 31  1  0  0  0  0
 17 32  1  0  0  0  0
 18 32  1  0  0  0  0
 18 33  2  0  0  0  0
 18 34  1  0  0  0  0
 19 21  2  0  0  0  0
 19 39  1  0  0  0  0
 20 22  2  0  0  0  0
 20 40  1  0  0  0  0
 21 51  1  0  0  0  0
 22 42  1  0  0  0  0
 23 24  1  0  0  0  0
 23 25  2  0  0  0  0
 23 41  1  0  0  0  0
 24 26  2  0  0  0  0
 24 43  1  0  0  0  0
 25 59  1  0  0  0  0
 26 71  1  0  0  0  0
 27 82  1  0  0  0  0
 28 83  1  0  0  0  0
 29 31  2  0  0  0  0
 29 82  1  0  0  0  0
 30 84  1  0  0  0  0
 31 85  1  0  0  0  0
 32 65  2  0  0  0  0
 33 66  1  0  0  0  0
 33 69  1  0  0  0  0
 34 70  1  0  0  0  0
 34 77  2  0  0  0  0
 35 52  1  0  0  0  0
 35 72  1  0  0  0  0
 35 78  2  0  0  0  0
 36 62  1  0  0  0  0
 36 67  1  0  0  0  0
 36 79  2  0  0  0  0
 37 63  1  0  0  0  0
 37 73  1  0  0  0  0
 37 80  2  0  0  0  0
 38 68  1  0  0  0  0
 38 71  1  0  0  0  0
 38 81  2  0  0  0  0
 39 44  1  0  0  0  0
 40 52  1  0  0  0  0
 41 50  1  0  0  0  0
 42 67  1  0  0  0  0
 43 74  1  0  0  0  0
 44 46  1  0  0  0  0
 45 47  1  0  0  0  0
 45 48  1  0  0  0  0
 46 51  1  0  0  0  0
 47 53  1  0  0  0  0
 48 68  1  0  0  0  0
 49 53  1  0  0  0  0
 49 68  1  0  0  0  0
 50 74  1  0  0  0  0
 51 72  1  0  0  0  0
 52 67  1  0  0  0  0
 53 66  1  0  0  0  0
 54 63  1  0  0  0  0
 55 64  1  0  0  0  0
 56 64  1  0  0  0  0
 57 64  1  0  0  0  0
 58 75  1  0  0  0  0
 59 76  1  0  0  0  0
 60 61  1  0  0  0  0
 60 76  1  0  0  0  0
 61 83  1  0  0  0  0
 62 64  1  0  0  0  0
 62 73  1  0  0  0  0
 63 75  1  0  0  0  0
 65 66  1  0  0  0  0
M  CHG  3  74   1  75   1  76   1
M  ISO  4  38 100  61 101  71 100  83 101
M  END
> <Batch ID>
0119

> <Smiles>
CNC(C)C(=O)NC(C(=O)N1Cc2cc([101O:1][101CH2:1]CNCc3ccc([100NH:0][100C:0](=O)N4CCCC(n5nc(-c6ccc(Oc7ccc(F)cc7F)cc6)c(C(N)=O)c5N)C4)c4c3CCNC4)ccc2CC1C(=O)NC1CCCc2ccccc21)C(C)(C)C

> <Shape>
0.242

> <Color>
0.190

> <Negative vol penalty>
0.000

$$$$

  -OEChem-04052320203D

 84 92  0     1  0  0  0  0  0999 V2000
  -29.7636  -35.3864   24.7215 C   0  0  0  0  0  0  0  0  0  0  0  0
  -29.9133  -34.3052   23.8589 C   0  0  0  0  0  0  0  0  0  0  0  0
  -23.1613  -10.7299   21.1789 C   0  0  0  0  0  0  0  0  0  0  0  0
  -24.3997   -8.8070   21.9572 C   0  0  0  0  0  0  0  0  0  0  0  0
  -28.7685  -35.3652   25.6978 C   0  0  0  0  0  0  0  0  0  0  0  0
  -29.0684  -33.2017   23.9728 C   0  0  0  0  0  0  0  0  0  0  0  0
  -26.9733  -29.6835   19.4189 C   0  0  0  0  0  0  0  0  0  0  0  0
  -22.0368   -9.9275   20.9857 C   0  0  0  0  0  0  0  0  0  0  0  0
  -23.2752   -8.0046   21.7640 C   0  0  0  0  0  0  0  0  0  0  0  0
  -27.3861  -28.4480   18.9220 C   0  0  0  0  0  0  0  0  0  0  0  0
  -20.3775   -7.3504   23.3751 C   0  0  0  0  0  0  0  0  0  0  0  0
  -20.0454   -6.4484   24.3859 C   0  0  0  0  0  0  0  0  0  0  0  0
  -25.7281  -27.3512   20.2886 C   0  0  0  0  0  0  0  0  0  0  0  0
  -20.2912   -4.6156   22.8312 C   0  0  0  0  0  0  0  0  0  0  0  0
  -24.3428  -10.1696   21.6647 C   0  0  0  0  0  0  0  0  0  0  0  0
  -25.8590  -11.6987   23.0324 C   0  0  0  0  0  0  0  0  0  0  0  0
  -27.9048  -34.2651   25.8175 C   0  0  0  0  0  0  0  0  0  0  0  0
  -25.9403  -29.7614   20.3641 C   0  0  0  0  0  0  0  0  0  0  0  0
  -28.0616  -33.1653   24.9525 C   0  0  0  0  0  0  0  0  0  0  0  0
  -25.3023  -28.5891   20.7939 C   0  0  0  0  0  0  0  0  0  0  0  0
  -22.0938   -8.5649   21.2782 C   0  0  0  0  0  0  0  0  0  0  0  0
  -26.7655  -27.2814   19.3590 C   0  0  0  0  0  0  0  0  0  0  0  0
  -20.6664   -6.8850   22.0923 C   0  0  0  0  0  0  0  0  0  0  0  0
  -20.0023   -5.0810   24.1140 C   0  0  0  0  0  0  0  0  0  0  0  0
  -20.6232   -5.5176   21.8203 C   0  0  0  0  0  0  0  0  0  0  0  0
  -25.5048  -10.9979   21.8639 C   0  0  0  0  0  0  0  0  0  0  0  0
  -27.0376  -12.3270   22.7120 C   0  0  0  0  0  0  0  0  0  0  0  0
  -29.9128  -18.5214   19.3560 C   0  0  0  0  0  0  0  0  0  0  0  0
  -25.1832  -11.7748   24.2946 C   0  0  0  0  0  0  0  0  0  0  0  0
  -25.7162  -30.7942   23.3619 C   0  0  0  0  0  0  0  0  0  0  0  0
  -22.5589  -30.1952   22.9206 C   0  0  0  0  0  0  0  0  0  0  0  0
  -20.1451  -28.4768   21.2272 C   0  0  0  0  0  0  0  0  0  0  0  0
  -30.0975  -15.3375   19.0783 C   0  0  0  0  0  0  0  0  0  0  0  0
  -26.8745  -34.2675   26.9189 C   0  0  0  0  0  0  0  0  0  0  0  0
  -25.4887  -31.1039   20.8703 C   0  0  0  0  0  0  0  0  0  0  0  0
  -24.1749  -28.6202   21.7921 C   0  0  0  0  0  0  0  0  0  0  0  0
  -25.7790  -33.2212   26.7305 C   0  0  0  0  0  0  0  0  0  0  0  0
  -30.1006  -11.7657   18.7394 C   0  0  0  0  0  0  0  0  0  0  0  0
  -26.3869  -31.8731   26.3566 C   0  0  0  0  0  0  0  0  0  0  0  0
  -28.9186  -11.3084   19.5916 C   0  0  0  0  0  0  0  0  0  0  0  0
  -29.8115  -13.0992   18.0581 C   0  0  0  0  0  0  0  0  0  0  0  0
  -28.2420  -13.7396   19.8573 C   0  0  0  0  0  0  0  0  0  0  0  0
  -27.1487  -31.9607   25.0286 C   0  0  1  0  0  0  0  0  0  0  0  0
  -30.2139  -19.4864   20.5299 C   0  0  2  0  0  0  0  0  0  0  0  0
  -24.7731  -31.0255   22.2153 C   0  0  1  0  0  0  0  0  0  0  0  0
  -28.4988  -12.4060   20.5840 C   0  0  1  0  0  0  0  0  0  0  0  0
  -30.2795  -18.1835   21.3911 C   0  0  2  0  0  0  0  0  0  0  0  0
  -17.6569  -28.1701   21.1151 C   0  0  0  0  0  0  0  0  0  0  0  0
  -31.8135  -19.1152   23.1468 C   0  0  0  0  0  0  0  0  0  0  0  0
  -31.4958  -16.6327   22.9463 C   0  0  0  0  0  0  0  0  0  0  0  0
  -22.6582  -28.4860   25.4462 C   0  0  0  0  0  0  0  0  0  0  0  0
  -20.4735  -27.4724   24.7623 C   0  0  0  0  0  0  0  0  0  0  0  0
  -20.6185  -29.9175   25.2348 C   0  0  0  0  0  0  0  0  0  0  0  0
  -20.0360  -29.4381   18.4303 C   0  0  0  0  0  0  0  0  0  0  0  0
  -29.1097  -20.4623   20.8822 C   0  0  0  0  0  0  0  0  0  0  0  0
  -29.1358  -21.6992   19.9834 C   0  0  0  0  0  0  0  0  0  0  0  0
  -28.0220  -22.6991   20.3058 C   0  0  0  0  0  0  0  0  0  0  0  0
  -28.1037  -23.9285   19.4021 C   0  0  0  0  0  0  0  0  0  0  0  0
  -27.0267  -24.9489   19.7425 C   0  0  0  0  0  0  0  0  0  1  0  0
  -21.6593  -28.9996   23.1215 C   0  0  1  0  0  0  0  0  0  0  0  0
  -18.8543  -28.9347   20.5725 C   0  0  2  0  0  0  0  0  0  0  0  0
  -31.5528  -17.9570   22.1791 C   0  0  0  0  0  0  0  0  0  0  0  0
  -21.3749  -28.7178   24.6238 C   0  0  0  0  0  0  0  0  0  0  0  0
  -26.3869  -11.1651   20.8750 N   0  0  0  0  0  0  0  0  0  0  0  0
  -27.3070  -11.9782   21.4212 N   0  0  0  0  0  0  0  0  0  0  0  0
  -30.2920  -17.4579   20.1181 N   0  0  0  0  0  0  0  0  0  0  0  0
  -23.7736  -29.9564   22.2623 N   0  0  0  0  0  0  0  0  0  0  0  0
  -29.4016  -14.1161   19.0315 N   0  0  0  0  0  0  0  0  0  0  0  0
  -27.8594  -13.1383   23.4112 N   0  0  0  0  0  0  0  0  0  0  0  0
  -23.9836  -11.0676   24.4539 N   0  0  0  0  0  0  0  0  0  0  0  0
  -26.2249  -31.9540   23.9146 N   0  0  0  0  0  0  0  0  0  0  0  0
  -20.4637  -29.2498   22.3237 N   0  0  0  0  0  0  0  0  0  0  0  0
  -29.6540  -16.2483   20.0229 N   0  0  0  0  0  0  0  0  0  0  0  0
  -18.9179  -28.7237   19.0985 N   0  3  0  0  0  0  0  0  0  0  0  0
  -29.4717  -18.6189   18.2338 O   0  0  0  0  0  0  0  0  0  0  0  0
  -25.6213  -12.4631   25.2474 O   0  0  0  0  0  0  0  0  0  0  0  0
  -25.9629  -29.6484   23.7196 O   0  0  0  0  0  0  0  0  0  0  0  0
  -22.1940  -31.3015   23.3262 O   0  0  0  0  0  0  0  0  0  0  0  0
  -20.8028  -27.5260   20.8101 O   0  0  0  0  0  0  0  0  0  0  0  0
  -31.0469  -15.5917   18.3281 O   0  0  0  0  0  0  0  0  0  0  0  0
  -20.9967   -7.7817   21.0900 O   0  0  0  0  0  0  0  0  0  0  0  0
  -27.1670  -26.0741   18.8761 O   0  0  0  0  0  0  0  0  0  1  0  0
  -19.6849   -4.2149   25.0852 F   0  0  0  0  0  0  0  0  0  0  0  0
  -20.9009   -5.0644   20.5902 F   0  0  0  0  0  0  0  0  0  0  0  0
  1  2  1  0  0  0  0
  1  5  2  0  0  0  0
  2  6  2  0  0  0  0
  3  8  2  0  0  0  0
  3 15  1  0  0  0  0
  4  9  1  0  0  0  0
  4 15  2  0  0  0  0
  5 17  1  0  0  0  0
  6 19  1  0  0  0  0
  7 10  2  0  0  0  0
  7 18  1  0  0  0  0
  8 21  1  0  0  0  0
  9 21  2  0  0  0  0
 10 22  1  0  0  0  0
 11 12  2  0  0  0  0
 11 23  1  0  0  0  0
 12 24  1  0  0  0  0
 13 20  1  0  0  0  0
 13 22  2  0  0  0  0
 14 24  2  0  0  0  0
 14 25  1  0  0  0  0
 15 26  1  0  0  0  0
 16 26  1  0  0  0  0
 16 27  2  0  0  0  0
 16 29  1  0  0  0  0
 17 19  2  0  0  0  0
 17 34  1  0  0  0  0
 18 20  2  0  0  0  0
 18 35  1  0  0  0  0
 19 43  1  0  0  0  0
 20 36  1  0  0  0  0
 21 81  1  0  0  0  0
 22 82  1  0  0  0  0
 23 25  2  0  0  0  0
 23 81  1  0  0  0  0
 24 83  1  0  0  0  0
 25 84  1  0  0  0  0
 26 64  2  0  0  0  0
 27 65  1  0  0  0  0
 27 69  1  0  0  0  0
 28 44  1  0  0  0  0
 28 66  1  0  0  0  0
 28 75  2  0  0  0  0
 29 70  1  0  0  0  0
 29 76  2  0  0  0  0
 30 45  1  0  0  0  0
 30 71  1  0  0  0  0
 30 77  2  0  0  0  0
 31 60  1  0  0  0  0
 31 67  1  0  0  0  0
 31 78  2  0  0  0  0
 32 61  1  0  0  0  0
 32 72  1  0  0  0  0
 32 79  2  0  0  0  0
 33 68  1  0  0  0  0
 33 73  1  0  0  0  0
 33 80  2  0  0  0  0
 34 37  1  0  0  0  0
 35 45  1  0  0  0  0
 36 67  1  0  0  0  0
 37 39  1  0  0  0  0
 38 40  1  0  0  0  0
 38 41  1  0  0  0  0
 39 43  1  0  0  0  0
 40 46  1  0  0  0  0
 41 68  1  0  0  0  0
 42 46  1  0  0  0  0
 42 68  1  0  0  0  0
 43 71  1  0  0  0  0
 44 47  1  0  0  0  0
 44 55  1  0  0  0  0
 45 67  1  0  0  0  0
 46 65  1  0  0  0  0
 47 62  1  0  0  0  0
 47 66  1  0  0  0  0
 48 61  1  0  0  0  0
 49 62  1  0  0  0  0
 50 62  1  0  0  0  0
 51 63  1  0  0  0  0
 52 63  1  0  0  0  0
 53 63  1  0  0  0  0
 54 74  1  0  0  0  0
 55 56  1  0  0  0  0
 56 57  1  0  0  0  0
 57 58  1  0  0  0  0
 58 59  1  0  0  0  0
 59 82  1  0  0  0  0
 60 63  1  0  0  0  0
 60 72  1  0  0  0  0
 61 74  1  0  0  0  0
 64 65  1  0  0  0  0
 66 73  1  0  0  0  0
M  CHG  1  74   1
M  ISO  4  33 100  59 101  73 100  82 101
M  END
> <Batch ID>
0119

> <Smiles>
CNC(C)C(=O)NC(C(=O)N1Cc2cc([101O:1][101CH2:1]CCCCC3C(=O)N([100NH:0][100C:0](=O)N4CCCC(n5nc(-c6ccc(Oc7ccc(F)cc7F)cc6)c(C(N)=O)c5N)C4)C3C(C)C)ccc2CC1C(=O)NC1CCCc2ccccc21)C(C)(C)C

> <Shape>
0.321

> <Color>
0.093

> <Negative vol penalty>
0.000

$$$$

  -OEChem-04052320203D

 86 94  0     1  0  0  0  0  0999 V2000
  -28.6592  -35.3937   24.6029 C   0  0  0  0  0  0  0  0  0  0  0  0
  -29.2042  -34.1848   25.0232 C   0  0  0  0  0  0  0  0  0  0  0  0
  -23.1864   -9.8572   19.9383 C   0  0  0  0  0  0  0  0  0  0  0  0
  -23.8959   -9.9107   22.2472 C   0  0  0  0  0  0  0  0  0  0  0  0
  -27.5451  -35.4008   23.7646 C   0  0  0  0  0  0  0  0  0  0  0  0
  -28.6347  -32.9821   24.6065 C   0  0  0  0  0  0  0  0  0  0  0  0
  -31.5687  -27.7457   23.3906 C   0  0  0  0  0  0  0  0  0  0  0  0
  -22.4849   -8.6764   20.1812 C   0  0  0  0  0  0  0  0  0  0  0  0
  -23.1943   -8.7299   22.4901 C   0  0  0  0  0  0  0  0  0  0  0  0
  -31.7762  -26.5903   24.1427 C   0  0  0  0  0  0  0  0  0  0  0  0
  -19.9891   -7.8050   23.0301 C   0  0  0  0  0  0  0  0  0  0  0  0
  -19.2094   -7.7421   24.1850 C   0  0  0  0  0  0  0  0  0  0  0  0
  -29.8740  -25.5607   23.0746 C   0  0  0  0  0  0  0  0  0  0  0  0
  -30.6823  -17.3259   24.6353 C   0  0  0  0  0  0  0  0  0  0  0  0
  -20.5125   -5.8620   24.9623 C   0  0  0  0  0  0  0  0  0  0  0  0
  -31.7549  -16.5806   22.2113 C   0  0  0  0  0  0  0  0  0  0  0  0
  -23.8920  -10.4744   20.9713 C   0  0  0  0  0  0  0  0  0  0  0  0
  -24.1333  -13.0105   20.8393 C   0  0  0  0  0  0  0  0  0  0  0  0
  -26.9675  -34.1976   23.3296 C   0  0  0  0  0  0  0  0  0  0  0  0
  -30.5039  -27.8214   22.4812 C   0  0  0  0  0  0  0  0  0  0  0  0
  -27.5110  -32.9731   23.7627 C   0  0  0  0  0  0  0  0  0  0  0  0
  -29.6567  -26.7173   22.3103 C   0  0  0  0  0  0  0  0  0  0  0  0
  -30.3054  -16.1175   24.0570 C   0  0  0  0  0  0  0  0  0  0  0  0
  -30.8448  -15.7368   22.8320 C   0  0  0  0  0  0  0  0  0  0  0  0
  -22.4888   -8.1127   21.4571 C   0  0  0  0  0  0  0  0  0  0  0  0
  -30.9271  -25.4986   23.9869 C   0  0  0  0  0  0  0  0  0  0  0  0
  -21.0304   -6.8963   22.8413 C   0  0  0  0  0  0  0  0  0  0  0  0
  -19.4711   -6.7706   25.1511 C   0  0  0  0  0  0  0  0  0  0  0  0
  -21.2921   -5.9249   23.8074 C   0  0  0  0  0  0  0  0  0  0  0  0
  -24.6174  -11.6939   20.7208 C   0  0  0  0  0  0  0  0  0  0  0  0
  -31.5966  -18.1294   23.9689 C   0  0  0  0  0  0  0  0  0  0  0  0
  -25.2016  -13.8015   20.4935 C   0  0  0  0  0  0  0  0  0  0  0  0
  -22.8342  -13.4769   21.2272 C   0  0  0  0  0  0  0  0  0  0  0  0
  -27.9181  -29.6488   22.2019 C   0  0  0  0  0  0  0  0  0  0  0  0
  -27.5744  -28.0582   19.3958 C   0  0  0  0  0  0  0  0  0  0  0  0
  -28.2445  -25.2704   17.5448 C   0  0  0  0  0  0  0  0  0  0  0  0
  -30.9519  -14.0229   20.9888 C   0  0  0  0  0  0  0  0  0  0  0  0
  -25.7352  -34.2558   22.4620 C   0  0  0  0  0  0  0  0  0  0  0  0
  -30.3097  -29.0652   21.6580 C   0  0  0  0  0  0  0  0  0  0  0  0
  -28.5113  -26.7404   21.3326 C   0  0  0  0  0  0  0  0  0  0  0  0
  -25.4192  -32.9359   21.7633 C   0  0  0  0  0  0  0  0  0  0  0  0
  -29.3767  -13.0949   17.9336 C   0  0  0  0  0  0  0  0  0  0  0  0
  -25.5167  -31.7743   22.7472 C   0  0  0  0  0  0  0  0  0  0  0  0
  -27.9411  -12.7675   18.3507 C   0  0  0  0  0  0  0  0  0  0  0  0
  -30.3885  -12.6568   18.9910 C   0  0  0  0  0  0  0  0  0  0  0  0
  -28.6870  -12.8248   20.7647 C   0  0  0  0  0  0  0  0  0  0  0  0
  -26.9366  -31.6475   23.3121 C   0  0  1  0  0  0  0  0  0  0  0  0
  -28.8849  -29.2191   21.1349 C   0  0  1  0  0  0  0  0  0  0  0  0
  -27.6271  -13.3059   19.7604 C   0  0  2  0  0  0  0  0  0  0  0  0
  -27.7967  -24.2417   15.3001 C   0  0  0  0  0  0  0  0  0  0  0  0
  -29.7959  -15.3494   27.0952 C   0  0  0  0  0  0  0  0  0  0  0  0
  -27.5035  -14.8636   26.1705 C   0  0  0  0  0  0  0  0  0  0  0  0
  -24.7427  -27.3526   20.2867 C   0  0  0  0  0  0  0  0  0  0  0  0
  -24.6974  -25.5900   18.5092 C   0  0  0  0  0  0  0  0  0  0  0  0
  -24.9499  -27.9900   17.8773 C   0  0  0  0  0  0  0  0  0  0  0  0
  -31.1250  -25.2113   16.8680 C   0  0  0  0  0  0  0  0  0  0  0  0
  -32.0557  -19.4529   24.5270 C   0  0  0  0  0  0  0  0  0  0  0  0
  -31.1912  -20.6454   24.0926 C   0  0  0  0  0  0  0  0  0  0  0  0
  -30.7317  -23.1327   24.1291 C   0  0  0  0  0  0  0  0  0  1  0  0
  -26.8873  -26.7845   18.9661 C   0  0  1  0  0  0  0  0  0  0  0  0
  -28.7440  -25.1027   16.1211 C   0  0  2  0  0  0  0  0  0  0  0  0
  -28.7960  -15.6456   25.9868 C   0  0  0  0  0  0  0  0  0  0  0  0
  -31.5897  -22.0012   24.6908 C   0  0  2  0  0  0  0  0  0  0  0  0
  -25.3397  -26.9292   18.9297 C   0  0  0  0  0  0  0  0  0  0  0  0
  -25.8938  -11.6470   20.3302 N   0  0  0  0  0  0  0  0  0  0  0  0
  -26.2208  -12.9440   20.2001 N   0  0  0  0  0  0  0  0  0  0  0  0
  -32.1004  -17.7386   22.7904 N   0  3  0  0  0  0  0  0  0  0  0  0
  -28.3588  -27.9815   20.5554 N   0  0  0  0  0  0  0  0  0  0  0  0
  -30.0292  -13.2080   20.2994 N   0  0  0  0  0  0  0  0  0  0  0  0
  -25.3592  -15.1399   20.4149 N   0  0  0  0  0  0  0  0  0  0  0  0
  -21.8531  -12.5294   21.5499 N   0  0  0  0  0  0  0  0  0  0  0  0
  -30.4874  -14.5161   22.2077 N   0  0  0  0  0  0  0  0  0  0  0  0
  -29.3746  -15.2941   24.7284 N   0  0  0  0  0  0  0  0  0  0  0  0
  -27.8110  -31.0190   22.3452 N   0  0  0  0  0  0  0  0  0  0  0  0
  -27.4827  -26.4108   17.6877 N   0  0  0  0  0  0  0  0  0  0  0  0
  -33.0146  -22.2953   24.3568 N   0  3  0  0  0  0  0  0  0  0  0  0
  -30.0880  -24.4587   16.1163 N   0  3  0  0  0  0  0  0  0  0  0  0
  -22.5469  -14.6972   21.2702 O   0  0  0  0  0  0  0  0  0  0  0  0
  -27.3130  -28.8001   22.8463 O   0  0  0  0  0  0  0  0  0  0  0  0
  -27.4265  -29.0816   18.7232 O   0  0  0  0  0  0  0  0  0  0  0  0
  -28.5011  -24.4680   18.4397 O   0  0  0  0  0  0  0  0  0  0  0  0
  -32.0615  -14.2875   20.5190 O   0  0  0  0  0  0  0  0  0  0  0  0
  -21.8041   -6.9606   21.6946 O   0  0  0  0  0  0  0  0  0  0  0  0
  -31.1269  -24.3699   24.7203 O   0  0  0  0  0  0  0  0  0  1  0  0
  -18.7233   -6.7113   26.2608 F   0  0  0  0  0  0  0  0  0  0  0  0
  -22.2920   -5.0500   23.6321 F   0  0  0  0  0  0  0  0  0  0  0  0
  1  2  1  0  0  0  0
  1  5  2  0  0  0  0
  2  6  2  0  0  0  0
  3  8  2  0  0  0  0
  3 17  1  0  0  0  0
  4  9  1  0  0  0  0
  4 17  2  0  0  0  0
  5 19  1  0  0  0  0
  6 21  1  0  0  0  0
  7 10  2  0  0  0  0
  7 20  1  0  0  0  0
  8 25  1  0  0  0  0
  9 25  2  0  0  0  0
 10 26  1  0  0  0  0
 11 12  2  0  0  0  0
 11 27  1  0  0  0  0
 12 28  1  0  0  0  0
 13 22  1  0  0  0  0
 13 26  2  0  0  0  0
 14 23  2  0  0  0  0
 14 31  1  0  0  0  0
 15 28  2  0  0  0  0
 15 29  1  0  0  0  0
 16 24  2  0  0  0  0
 16 67  1  0  0  0  0
 17 30  1  0  0  0  0
 18 30  1  0  0  0  0
 18 32  2  0  0  0  0
 18 33  1  0  0  0  0
 19 21  2  0  0  0  0
 19 38  1  0  0  0  0
 20 22  2  0  0  0  0
 20 39  1  0  0  0  0
 21 47  1  0  0  0  0
 22 40  1  0  0  0  0
 23 24  1  0  0  0  0
 23 73  1  0  0  0  0
 24 72  1  0  0  0  0
 25 83  1  0  0  0  0
 26 84  1  0  0  0  0
 27 29  2  0  0  0  0
 27 83  1  0  0  0  0
 28 85  1  0  0  0  0
 29 86  1  0  0  0  0
 30 65  2  0  0  0  0
 31 57  1  0  0  0  0
 31 67  2  0  0  0  0
 32 66  1  0  0  0  0
 32 70  1  0  0  0  0
 33 71  1  0  0  0  0
 33 78  2  0  0  0  0
 34 48  1  0  0  0  0
 34 74  1  0  0  0  0
 34 79  2  0  0  0  0
 35 60  1  0  0  0  0
 35 68  1  0  0  0  0
 35 80  2  0  0  0  0
 36 61  1  0  0  0  0
 36 75  1  0  0  0  0
 36 81  2  0  0  0  0
 37 69  1  0  0  0  0
 37 72  1  0  0  0  0
 37 82  2  0  0  0  0
 38 41  1  0  0  0  0
 39 48  1  0  0  0  0
 40 68  1  0  0  0  0
 41 43  1  0  0  0  0
 42 44  1  0  0  0  0
 42 45  1  0  0  0  0
 43 47  1  0  0  0  0
 44 49  1  0  0  0  0
 45 69  1  0  0  0  0
 46 49  1  0  0  0  0
 46 69  1  0  0  0  0
 47 74  1  0  0  0  0
 48 68  1  0  0  0  0
 49 66  1  0  0  0  0
 50 61  1  0  0  0  0
 51 62  1  0  0  0  0
 52 62  1  0  0  0  0
 53 64  1  0  0  0  0
 54 64  1  0  0  0  0
 55 64  1  0  0  0  0
 56 77  1  0  0  0  0
 57 58  1  0  0  0  0
 58 63  1  0  0  0  0
 59 63  1  0  0  0  0
 59 84  1  0  0  0  0
 60 64  1  0  0  0  0
 60 75  1  0  0  0  0
 61 77  1  0  0  0  0
 62 73  1  0  0  0  0
 63 76  1  0  0  0  0
 65 66  1  0  0  0  0
M  CHG  3  67   1  76   1  77   1
M  ISO  4  37 100  59 101  72 100  84 101
M  END
> <Batch ID>
0119

> <Smiles>
CNC(C)C(=O)NC(C(=O)N1Cc2cc([101O:1][101CH2:1]C(N)CCc3cc(NC(C)C)c([100NH:0][100C:0](=O)N4CCCC(n5nc(-c6ccc(Oc7ccc(F)cc7F)cc6)c(C(N)=O)c5N)C4)cn3)ccc2CC1C(=O)NC1CCCc2ccccc21)C(C)(C)C

> <Shape>
0.284

> <Color>
0.176

> <Negative vol penalty>
0.000

$$$$

  -OEChem-04052320203D

 85 93  0     1  0  0  0  0  0999 V2000
  -22.8084   -7.5632   24.4778 C   0  0  0  0  0  0  0  0  0  0  0  0
  -23.9504   -8.3168   24.7296 C   0  0  0  0  0  0  0  0  0  0  0  0
  -23.1161  -30.4081   20.4041 C   0  0  0  0  0  0  0  0  0  0  0  0
  -25.4795  -30.1763   20.8484 C   0  0  0  0  0  0  0  0  0  0  0  0
  -22.2092   -7.6067   23.2196 C   0  0  0  0  0  0  0  0  0  0  0  0
  -24.4946   -9.1134   23.7228 C   0  0  0  0  0  0  0  0  0  0  0  0
  -28.0003  -15.2876   22.7710 C   0  0  0  0  0  0  0  0  0  0  0  0
  -22.9545  -31.0818   21.6147 C   0  0  0  0  0  0  0  0  0  0  0  0
  -25.3180  -30.8501   22.0590 C   0  0  0  0  0  0  0  0  0  0  0  0
  -29.1454  -15.7923   22.1564 C   0  0  0  0  0  0  0  0  0  0  0  0
  -24.2064  -30.1457   25.1733 C   0  0  0  0  0  0  0  0  0  0  0  0
  -24.8340  -29.6139   26.2997 C   0  0  0  0  0  0  0  0  0  0  0  0
  -27.9795  -15.8502   20.0454 C   0  0  0  0  0  0  0  0  0  0  0  0
  -26.0945  -31.6582   26.5625 C   0  0  0  0  0  0  0  0  0  0  0  0
  -24.3786  -29.9552   20.0210 C   0  0  0  0  0  0  0  0  0  0  0  0
  -24.8377  -29.8241   17.5150 C   0  0  0  0  0  0  0  0  0  0  0  0
  -22.7408   -8.4118   22.1999 C   0  0  0  0  0  0  0  0  0  0  0  0
  -26.8377  -15.0497   22.0241 C   0  0  0  0  0  0  0  0  0  0  0  0
  -23.9028   -9.1667   22.4494 C   0  0  0  0  0  0  0  0  0  0  0  0
  -26.8202  -15.3448   20.6534 C   0  0  0  0  0  0  0  0  0  0  0  0
  -24.0555  -31.3029   22.4421 C   0  0  0  0  0  0  0  0  0  0  0  0
  -29.1361  -16.0709   20.7928 C   0  0  0  0  0  0  0  0  0  0  0  0
  -24.5229  -31.4337   24.7414 C   0  0  0  0  0  0  0  0  0  0  0  0
  -25.7781  -30.3701   26.9944 C   0  0  0  0  0  0  0  0  0  0  0  0
  -25.4669  -32.1900   25.4360 C   0  0  0  0  0  0  0  0  0  0  0  0
  -24.5459  -29.2587   18.7708 C   0  0  0  0  0  0  0  0  0  0  0  0
  -24.8940  -28.7507   16.6599 C   0  0  0  0  0  0  0  0  0  0  0  0
  -25.0397  -31.1968   17.1538 C   0  0  0  0  0  0  0  0  0  0  0  0
  -25.1037  -12.4773   21.3312 C   0  0  0  0  0  0  0  0  0  0  0  0
  -23.1178  -14.6590   19.9826 C   0  0  0  0  0  0  0  0  0  0  0  0
  -22.7267  -17.7505   18.5909 C   0  0  0  0  0  0  0  0  0  0  0  0
  -26.0597  -22.9361   17.4862 C   0  0  0  0  0  0  0  0  0  0  0  0
  -22.0856   -8.3897   20.8416 C   0  0  0  0  0  0  0  0  0  0  0  0
  -25.6024  -14.5302   22.7072 C   0  0  0  0  0  0  0  0  0  0  0  0
  -25.5911  -15.1263   19.8108 C   0  0  0  0  0  0  0  0  0  0  0  0
  -22.5084   -9.5486   19.9425 C   0  0  0  0  0  0  0  0  0  0  0  0
  -23.1213  -24.3482   16.0550 C   0  0  0  0  0  0  0  0  0  0  0  0
  -24.0232   -9.7247   19.9755 C   0  0  0  0  0  0  0  0  0  0  0  0
  -23.1795  -25.8178   16.4754 C   0  0  0  0  0  0  0  0  0  0  0  0
  -23.6550  -23.4265   17.1493 C   0  0  0  0  0  0  0  0  0  0  0  0
  -25.0632  -25.2329   18.0591 C   0  0  0  0  0  0  0  0  0  0  0  0
  -28.7994  -22.8249   20.3418 C   0  0  0  0  0  0  0  0  0  0  0  0
  -24.5086  -10.0621   21.3905 C   0  0  1  0  0  0  0  0  0  0  0  0
  -24.6346  -13.8422   21.7494 C   0  0  1  0  0  0  0  0  0  0  0  0
  -24.5874  -26.2052   16.9662 C   0  0  2  0  0  0  0  0  0  0  0  0
  -28.6779  -21.8444   19.1787 C   0  0  1  0  0  0  0  0  0  0  0  0
  -30.1110  -20.2374   20.3149 C   0  0  2  0  0  0  0  0  0  0  0  0
  -30.2684  -21.1813   21.5225 C   0  0  2  0  0  0  0  0  0  0  0  0
  -20.9943  -19.2362   17.5476 C   0  0  0  0  0  0  0  0  0  0  0  0
  -30.5790  -21.4539   23.9990 C   0  0  0  0  0  0  0  0  0  0  0  0
  -29.1660  -19.5787   23.1098 C   0  0  0  0  0  0  0  0  0  0  0  0
  -32.5470  -17.6438   18.7469 C   0  0  0  0  0  0  0  0  0  0  0  0
  -23.2520  -13.0107   17.4184 C   0  0  0  0  0  0  0  0  0  0  0  0
  -22.3238  -14.9821   16.1853 C   0  0  0  0  0  0  0  0  0  0  0  0
  -20.9774  -13.8873   17.9773 C   0  0  0  0  0  0  0  0  0  0  0  0
  -23.0740  -19.8177   20.6801 C   0  0  0  0  0  0  0  0  0  0  0  0
  -31.3491  -19.3780   20.1032 C   0  0  0  0  0  0  0  0  0  0  0  0
  -28.4893  -22.6014   17.8657 C   0  0  0  0  0  0  0  0  0  0  0  0
  -30.0598  -17.4144   19.0614 C   0  0  0  0  0  0  0  0  0  1  0  0
  -22.9866  -15.2834   18.6145 C   0  0  1  0  0  0  0  0  0  0  0  0
  -21.7011  -18.8427   18.8353 C   0  0  2  0  0  0  0  0  0  0  0  0
  -30.3916  -20.4554   22.8579 C   0  0  0  0  0  0  0  0  0  0  0  0
  -31.2255  -18.4019   18.9173 C   0  0  2  0  0  0  0  0  0  0  0  0
  -22.4089  -14.2933   17.5641 C   0  0  0  0  0  0  0  0  0  0  0  0
  -24.4252  -27.9293   18.7223 N   0  0  0  0  0  0  0  0  0  0  0  0
  -24.6421  -27.6505   17.4256 N   0  0  0  0  0  0  0  0  0  0  0  0
  -29.8796  -21.0077   19.0822 N   0  0  0  0  0  0  0  0  0  0  0  0
  -24.4105  -14.6108   20.5234 N   0  0  0  0  0  0  0  0  0  0  0  0
  -24.9939  -23.8473   17.5691 N   0  0  0  0  0  0  0  0  0  0  0  0
  -25.1339  -28.6501   15.3353 N   0  0  0  0  0  0  0  0  0  0  0  0
  -24.9462  -32.1721   18.1560 N   0  0  0  0  0  0  0  0  0  0  0  0
  -24.2504  -11.4532   21.6951 N   0  0  0  0  0  0  0  0  0  0  0  0
  -22.1937  -16.4949   18.7930 N   0  0  0  0  0  0  0  0  0  0  0  0
  -27.2963  -23.4178   17.8980 N   0  0  0  0  0  0  0  0  0  0  0  0
  -29.0452  -22.0552   21.5969 N   0  3  0  0  0  0  0  0  0  0  0  0
  -22.3597  -20.0548   19.3993 N   0  3  0  0  0  0  0  0  0  0  0  0
  -25.2794  -31.5497   15.9742 O   0  0  0  0  0  0  0  0  0  0  0  0
  -26.1608  -12.3622   20.7222 O   0  0  0  0  0  0  0  0  0  0  0  0
  -22.1094  -14.2362   20.5536 O   0  0  0  0  0  0  0  0  0  0  0  0
  -23.8838  -17.9872   18.2509 O   0  0  0  0  0  0  0  0  0  0  0  0
  -25.9206  -21.7808   17.0706 O   0  0  0  0  0  0  0  0  0  0  0  0
  -23.8983  -31.9606   23.6234 O   0  0  0  0  0  0  0  0  0  0  0  0
  -30.2526  -16.5630   20.1903 O   0  0  0  0  0  0  0  0  0  1  0  0
  -26.3796  -29.8599   28.0770 F   0  0  0  0  0  0  0  0  0  0  0  0
  -25.7742  -33.4284   25.0266 F   0  0  0  0  0  0  0  0  0  0  0  0
  1  2  1  0  0  0  0
  1  5  2  0  0  0  0
  2  6  2  0  0  0  0
  3  8  2  0  0  0  0
  3 15  1  0  0  0  0
  4  9  1  0  0  0  0
  4 15  2  0  0  0  0
  5 17  1  0  0  0  0
  6 19  1  0  0  0  0
  7 10  2  0  0  0  0
  7 18  1  0  0  0  0
  8 21  1  0  0  0  0
  9 21  2  0  0  0  0
 10 22  1  0  0  0  0
 11 12  2  0  0  0  0
 11 23  1  0  0  0  0
 12 24  1  0  0  0  0
 13 20  1  0  0  0  0
 13 22  2  0  0  0  0
 14 24  2  0  0  0  0
 14 25  1  0  0  0  0
 15 26  1  0  0  0  0
 16 26  1  0  0  0  0
 16 27  2  0  0  0  0
 16 28  1  0  0  0  0
 17 19  2  0  0  0  0
 17 33  1  0  0  0  0
 18 20  2  0  0  0  0
 18 34  1  0  0  0  0
 19 43  1  0  0  0  0
 20 35  1  0  0  0  0
 21 82  1  0  0  0  0
 22 83  1  0  0  0  0
 23 25  2  0  0  0  0
 23 82  1  0  0  0  0
 24 84  1  0  0  0  0
 25 85  1  0  0  0  0
 26 65  2  0  0  0  0
 27 66  1  0  0  0  0
 27 70  1  0  0  0  0
 28 71  1  0  0  0  0
 28 77  2  0  0  0  0
 29 44  1  0  0  0  0
 29 72  1  0  0  0  0
 29 78  2  0  0  0  0
 30 60  1  0  0  0  0
 30 68  1  0  0  0  0
 30 79  2  0  0  0  0
 31 61  1  0  0  0  0
 31 73  1  0  0  0  0
 31 80  2  0  0  0  0
 32 69  1  0  0  0  0
 32 74  1  0  0  0  0
 32 81  2  0  0  0  0
 33 36  1  0  0  0  0
 34 44  1  0  0  0  0
 35 68  1  0  0  0  0
 36 38  1  0  0  0  0
 37 39  1  0  0  0  0
 37 40  1  0  0  0  0
 38 43  1  0  0  0  0
 39 45  1  0  0  0  0
 40 69  1  0  0  0  0
 41 45  1  0  0  0  0
 41 69  1  0  0  0  0
 42 46  1  0  0  0  0
 42 75  1  0  0  0  0
 43 72  1  0  0  0  0
 44 68  1  0  0  0  0
 45 66  1  0  0  0  0
 46 58  1  0  0  0  0
 46 67  1  0  0  0  0
 47 48  1  0  0  0  0
 47 57  1  0  0  0  0
 47 67  1  0  0  0  0
 48 62  1  0  0  0  0
 48 75  1  0  0  0  0
 49 61  1  0  0  0  0
 50 62  1  0  0  0  0
 51 62  1  0  0  0  0
 52 63  1  0  0  0  0
 53 64  1  0  0  0  0
 54 64  1  0  0  0  0
 55 64  1  0  0  0  0
 56 76  1  0  0  0  0
 57 63  1  0  0  0  0
 58 74  1  0  0  0  0
 59 63  1  0  0  0  0
 59 83  1  0  0  0  0
 60 64  1  0  0  0  0
 60 73  1  0  0  0  0
 61 76  1  0  0  0  0
 65 66  1  0  0  0  0
M  CHG  2  75   1  76   1
M  ISO  4  32 100  59 101  74 100  83 101
M  END
> <Batch ID>
0119

> <Smiles>
CNC(C)C(=O)NC(C(=O)N1Cc2cc([101O:1][101CH2:1]C(C)CC3NC(C[100NH:0][100C:0](=O)N4CCCC(n5nc(-c6ccc(Oc7ccc(F)cc7F)cc6)c(C(N)=O)c5N)C4)CNC3C(C)C)ccc2CC1C(=O)NC1CCCc2ccccc21)C(C)(C)C

> <Shape>
0.221

> <Color>
0.072

> <Negative vol penalty>
0.000

$$$$

  -OEChem-04052320203D

 92102  0     1  0  0  0  0  0999 V2000
  -20.3597  -22.5352   16.8634 C   0  0  0  0  0  0  0  0  0  0  0  0
  -20.6438  -21.4115   17.6328 C   0  0  0  0  0  0  0  0  0  0  0  0
  -28.9897  -26.5238   18.1656 C   0  0  0  0  0  0  0  0  0  0  0  0
  -28.5240  -26.1339   20.5040 C   0  0  0  0  0  0  0  0  0  0  0  0
  -21.1848  -23.6565   16.9380 C   0  0  0  0  0  0  0  0  0  0  0  0
  -21.7540  -21.4081   18.4765 C   0  0  0  0  0  0  0  0  0  0  0  0
  -20.7091  -19.5125   23.0547 C   0  0  0  0  0  0  0  0  0  0  0  0
  -28.4031  -27.7858   18.2592 C   0  0  0  0  0  0  0  0  0  0  0  0
  -27.9374  -27.3959   20.5976 C   0  0  0  0  0  0  0  0  0  0  0  0
  -20.6291  -18.1251   23.1662 C   0  0  0  0  0  0  0  0  0  0  0  0
  -24.9886  -28.8386   19.7889 C   0  0  0  0  0  0  0  0  0  0  0  0
  -23.7725  -28.9395   20.4646 C   0  0  0  0  0  0  0  0  0  0  0  0
  -22.8677  -18.0742   24.0637 C   0  0  0  0  0  0  0  0  0  0  0  0
  -24.7756  -30.4711   22.0411 C   0  0  0  0  0  0  0  0  0  0  0  0
  -29.0502  -25.6978   19.2880 C   0  0  0  0  0  0  0  0  0  0  0  0
  -31.0078  -24.0664   19.4068 C   0  0  0  0  0  0  0  0  0  0  0  0
  -22.3002  -23.6705   17.7903 C   0  0  0  0  0  0  0  0  0  0  0  0
  -21.8750  -20.1913   23.4372 C   0  0  0  0  0  0  0  0  0  0  0  0
  -22.5957  -22.5302   18.5616 C   0  0  0  0  0  0  0  0  0  0  0  0
  -22.9590  -19.4705   23.9584 C   0  0  0  0  0  0  0  0  0  0  0  0
  -26.7104  -13.3644   19.9247 C   0  0  0  0  0  0  0  0  0  0  0  0
  -27.8769  -28.2219   19.4752 C   0  0  0  0  0  0  0  0  0  0  0  0
  -21.7096  -17.4054   23.6681 C   0  0  0  0  0  0  0  0  0  0  0  0
  -26.0982  -29.5540   20.2393 C   0  0  0  0  0  0  0  0  0  0  0  0
  -23.6660  -29.7558   21.5907 C   0  0  0  0  0  0  0  0  0  0  0  0
  -25.9916  -30.3702   21.3653 C   0  0  0  0  0  0  0  0  0  0  0  0
  -29.6556  -24.3938   19.1919 C   0  0  0  0  0  0  0  0  0  0  0  0
  -25.5861  -12.5840   19.7479 C   0  0  0  0  0  0  0  0  0  0  0  0
  -26.4786  -14.6602   20.3389 C   0  0  0  0  0  0  0  0  0  0  0  0
  -31.0708  -22.7109   19.1942 C   0  0  0  0  0  0  0  0  0  0  0  0
  -24.2334  -14.3057   20.3586 C   0  0  0  0  0  0  0  0  0  0  0  0
  -32.1084  -24.9119   19.7665 C   0  0  0  0  0  0  0  0  0  0  0  0
  -24.0081  -22.0076   21.9357 C   0  0  0  0  0  0  0  0  0  0  0  0
  -25.1793  -22.4289   24.9312 C   0  0  0  0  0  0  0  0  0  0  0  0
  -25.4698  -21.2504   28.1208 C   0  0  0  0  0  0  0  0  0  0  0  0
  -27.9863  -18.0191   20.1345 C   0  0  0  0  0  0  0  0  0  0  0  0
  -23.1899  -24.8883   17.8018 C   0  0  0  0  0  0  0  0  0  0  0  0
  -21.9355  -21.6908   23.3356 C   0  0  0  0  0  0  0  0  0  0  0  0
  -24.2258  -20.1538   24.4020 C   0  0  0  0  0  0  0  0  0  0  0  0
  -24.1330  -24.9423   19.0009 C   0  0  0  0  0  0  0  0  0  0  0  0
  -28.2515  -19.4221   16.8091 C   0  0  0  0  0  0  0  0  0  0  0  0
  -30.0834  -11.8422   20.0486 C   0  0  0  0  0  0  0  0  0  0  0  0
  -24.8094  -23.5911   19.2095 C   0  0  0  0  0  0  0  0  0  0  0  0
  -24.6370  -10.1833   19.6484 C   0  0  0  0  0  0  0  0  0  0  0  0
  -25.9679  -10.0946   20.3274 C   0  0  0  0  0  0  0  0  0  0  0  0
  -28.7773  -20.8263   17.1124 C   0  0  0  0  0  0  0  0  0  0  0  0
  -30.2127  -12.8746   18.9411 C   0  0  0  0  0  0  0  0  0  0  0  0
  -28.7881  -12.2422   20.7491 C   0  0  0  0  0  0  0  0  0  0  0  0
  -27.2487  -18.9672   17.8652 C   0  0  0  0  0  0  0  0  0  0  0  0
  -28.2896  -20.4128   19.5683 C   0  0  0  0  0  0  0  0  0  0  0  0
  -23.7767  -22.4974   19.5073 C   0  0  1  0  0  0  0  0  0  0  0  0
  -25.7224  -11.1644   19.2986 C   0  0  0  0  0  0  0  0  0  0  0  0
  -23.3619  -22.2284   23.2741 C   0  0  1  0  0  0  0  0  0  0  0  0
  -29.3251  -20.9213   18.5488 C   0  0  2  0  0  0  0  0  0  0  0  0
  -28.7647  -13.0851   18.4744 C   0  0  1  0  0  0  0  0  0  0  0  0
  -28.3666  -12.0688   17.4051 C   0  0  0  0  0  0  0  0  0  0  0  0
  -26.5195  -21.7950   30.3342 C   0  0  0  0  0  0  0  0  0  0  0  0
  -21.6418  -13.1326   23.9231 C   0  0  0  0  0  0  0  0  0  0  0  0
  -27.8942  -21.5392   23.8599 C   0  0  0  0  0  0  0  0  0  0  0  0
  -28.6351  -21.1894   26.2257 C   0  0  0  0  0  0  0  0  0  0  0  0
  -27.9811  -23.4680   25.4494 C   0  0  0  0  0  0  0  0  0  0  0  0
  -22.8369  -21.3970   29.4644 C   0  0  0  0  0  0  0  0  0  0  0  0
  -27.6169  -15.6024   20.5592 C   0  0  0  0  0  0  0  0  0  0  0  0
  -22.8419  -14.8330   20.6043 C   0  0  0  0  0  0  0  0  0  0  0  0
  -22.0257  -13.9992   21.6017 C   0  0  0  0  0  0  0  0  0  0  0  0
  -22.8534  -15.3204   23.6489 C   0  0  0  0  0  0  0  0  0  1  0  0
  -26.1921  -21.7149   25.7934 C   0  0  1  0  0  0  0  0  0  0  0  0
  -25.2778  -21.9270   29.4661 C   0  0  2  0  0  0  0  0  0  0  0  0
  -22.5992  -13.9372   23.0347 C   0  0  1  0  0  0  0  0  0  0  0  0
  -27.6526  -21.9645   25.3220 C   0  0  0  0  0  0  0  0  0  0  0  0
  -28.9132  -23.3319   18.8675 N   0  0  0  0  0  0  0  0  0  0  0  0
  -24.3279  -13.0239   19.9566 N   0  0  0  0  0  0  0  0  0  0  0  0
  -25.2486  -15.1659   20.5660 N   0  0  0  0  0  0  0  0  0  0  0  0
  -29.8020  -22.3240   18.8769 N   0  0  0  0  0  0  0  0  0  0  0  0
  -27.9863  -12.8820   19.7032 N   0  0  3  0  0  0  0  0  0  0  0  0
  -24.2387  -21.6207   24.2771 N   0  0  0  0  0  0  0  0  0  0  0  0
  -27.8385  -19.0645   19.2079 N   0  0  0  0  0  0  0  0  0  0  0  0
  -32.0872  -21.8242   19.2495 N   0  0  0  0  0  0  0  0  0  0  0  0
  -31.8683  -26.2810   19.9462 N   0  0  0  0  0  0  0  0  0  0  0  0
  -23.3286  -22.5857   20.8805 N   0  0  0  0  0  0  0  0  0  0  0  0
  -25.9274  -22.1333   27.1657 N   0  0  0  0  0  0  0  0  0  0  0  0
  -27.5275  -16.7753   19.7182 N   0  0  0  0  0  0  0  0  0  0  0  0
  -24.1289  -21.3170   30.1933 N   0  3  0  0  0  0  0  0  0  0  0  0
  -33.2735  -24.4692   19.9078 O   0  0  0  0  0  0  0  0  0  0  0  0
  -25.0472  -21.3617   21.8657 O   0  0  0  0  0  0  0  0  0  0  0  0
  -25.2168  -23.6590   24.8471 O   0  0  0  0  0  0  0  0  0  0  0  0
  -25.2407  -20.0570   27.9366 O   0  0  0  0  0  0  0  0  0  0  0  0
  -28.4948  -18.1809   21.2491 O   0  0  0  0  0  0  0  0  0  0  0  0
  -27.3046  -29.4534   19.5669 O   0  0  0  0  0  0  0  0  0  0  0  0
  -21.6344  -16.0511   23.7774 O   0  0  0  0  0  0  0  0  0  1  0  0
  -22.4977  -29.8537   22.2386 F   0  0  0  0  0  0  0  0  0  0  0  0
  -27.0538  -31.0608   21.8020 F   0  0  0  0  0  0  0  0  0  0  0  0
  1  2  1  0  0  0  0
  1  5  2  0  0  0  0
  2  6  2  0  0  0  0
  3  8  2  0  0  0  0
  3 15  1  0  0  0  0
  4  9  1  0  0  0  0
  4 15  2  0  0  0  0
  5 17  1  0  0  0  0
  6 19  1  0  0  0  0
  7 10  2  0  0  0  0
  7 18  1  0  0  0  0
  8 22  1  0  0  0  0
  9 22  2  0  0  0  0
 10 23  1  0  0  0  0
 11 12  2  0  0  0  0
 11 24  1  0  0  0  0
 12 25  1  0  0  0  0
 13 20  1  0  0  0  0
 13 23  2  0  0  0  0
 14 25  2  0  0  0  0
 14 26  1  0  0  0  0
 15 27  1  0  0  0  0
 16 27  1  0  0  0  0
 16 30  2  0  0  0  0
 16 32  1  0  0  0  0
 17 19  2  0  0  0  0
 17 37  1  0  0  0  0
 18 20  2  0  0  0  0
 18 38  1  0  0  0  0
 19 51  1  0  0  0  0
 20 39  1  0  0  0  0
 21 28  2  0  0  0  0
 21 29  1  0  0  0  0
 21 75  1  0  0  0  0
 22 89  1  0  0  0  0
 23 90  1  0  0  0  0
 24 26  2  0  0  0  0
 24 89  1  0  0  0  0
 25 91  1  0  0  0  0
 26 92  1  0  0  0  0
 27 71  2  0  0  0  0
 28 52  1  0  0  0  0
 28 72  1  0  0  0  0
 29 63  1  0  0  0  0
 29 73  2  0  0  0  0
 30 74  1  0  0  0  0
 30 78  1  0  0  0  0
 31 64  1  0  0  0  0
 31 72  2  0  0  0  0
 31 73  1  0  0  0  0
 32 79  1  0  0  0  0
 32 84  2  0  0  0  0
 33 53  1  0  0  0  0
 33 80  1  0  0  0  0
 33 85  2  0  0  0  0
 34 67  1  0  0  0  0
 34 76  1  0  0  0  0
 34 86  2  0  0  0  0
 35 68  1  0  0  0  0
 35 81  1  0  0  0  0
 35 87  2  0  0  0  0
 36 77  1  0  0  0  0
 36 82  1  0  0  0  0
 36 88  2  0  0  0  0
 37 40  1  0  0  0  0
 38 53  1  0  0  0  0
 39 76  1  0  0  0  0
 40 43  1  0  0  0  0
 41 46  1  0  0  0  0
 41 49  1  0  0  0  0
 42 47  1  0  0  0  0
 42 48  1  0  0  0  0
 43 51  1  0  0  0  0
 44 45  1  0  0  0  0
 44 52  1  0  0  0  0
 45 52  1  0  0  0  0
 46 54  1  0  0  0  0
 47 55  1  0  0  0  0
 48 75  1  0  0  0  0
 49 77  1  0  0  0  0
 50 54  1  0  0  0  0
 50 77  1  0  0  0  0
 51 80  1  0  0  0  0
 53 76  1  0  0  0  0
 54 74  1  0  0  0  0
 55 56  1  0  0  0  0
 55 75  1  0  0  0  0
 57 68  1  0  0  0  0
 58 69  1  0  0  0  0
 59 70  1  0  0  0  0
 60 70  1  0  0  0  0
 61 70  1  0  0  0  0
 62 83  1  0  0  0  0
 63 82  1  0  0  0  0
 64 65  1  0  0  0  0
 65 69  1  0  0  0  0
 66 69  1  0  0  0  0
 66 90  1  0  0  0  0
 67 70  1  0  0  0  0
 67 81  1  0  0  0  0
 68 83  1  0  0  0  0
 71 74  1  0  0  0  0
M  CHG  1  83   1
M  ISO  4  36 100  66 101  82 100  90 101
M  END
> <Batch ID>
0119

> <Smiles>
CNC(C)C(=O)NC(C(=O)N1Cc2cc([101O:1][101CH2:1]C(C)CCc3nc(C[100NH:0][100C:0](=O)N4CCCC(n5nc(-c6ccc(Oc7ccc(F)cc7F)cc6)c(C(N)=O)c5N)C4)c(N4CCCC4C)c(C4CC4)n3)ccc2CC1C(=O)NC1CCCc2ccccc21)C(C)(C)C

> <Shape>
0.214

> <Color>
0.070

> <Negative vol penalty>
0.000

$$$$

  -OEChem-04052320203D

 83 92  0     1  0  0  0  0  0999 V2000
  -31.0492  -34.2004   20.8815 C   0  0  0  0  0  0  0  0  0  0  0  0
  -30.7405  -32.8450   20.8258 C   0  0  0  0  0  0  0  0  0  0  0  0
  -23.2008  -10.0402   21.7458 C   0  0  0  0  0  0  0  0  0  0  0  0
  -23.9018  -11.1849   23.7546 C   0  0  0  0  0  0  0  0  0  0  0  0
  -30.3382  -35.0415   21.7363 C   0  0  0  0  0  0  0  0  0  0  0  0
  -29.7212  -32.3298   21.6257 C   0  0  0  0  0  0  0  0  0  0  0  0
  -26.6712  -29.1771   19.0953 C   0  0  0  0  0  0  0  0  0  0  0  0
  -27.9089  -23.1313   17.2912 C   0  0  0  0  0  0  0  0  0  0  0  0
  -22.4953   -9.1173   22.5178 C   0  0  0  0  0  0  0  0  0  0  0  0
  -23.1962  -10.2621   24.5267 C   0  0  0  0  0  0  0  0  0  0  0  0
  -27.1386  -27.8831   18.8700 C   0  0  0  0  0  0  0  0  0  0  0  0
  -19.5438   -8.9847   24.1622 C   0  0  0  0  0  0  0  0  0  0  0  0
  -18.2523   -8.6512   23.7544 C   0  0  0  0  0  0  0  0  0  0  0  0
  -28.2595  -21.7872   17.2289 C   0  0  0  0  0  0  0  0  0  0  0  0
  -25.8124  -27.0881   20.7216 C   0  0  0  0  0  0  0  0  0  0  0  0
  -18.9186   -6.3393   23.5348 C   0  0  0  0  0  0  0  0  0  0  0  0
  -29.3095  -23.3545   19.2004 C   0  0  0  0  0  0  0  0  0  0  0  0
  -23.9041  -11.0740   22.3641 C   0  0  0  0  0  0  0  0  0  0  0  0
  -24.1526  -13.2420   21.0430 C   0  0  0  0  0  0  0  0  0  0  0  0
  -29.3032  -34.5381   22.5401 C   0  0  0  0  0  0  0  0  0  0  0  0
  -25.7778  -29.4387   20.1441 C   0  0  0  0  0  0  0  0  0  0  0  0
  -28.9965  -33.1648   22.4931 C   0  0  0  0  0  0  0  0  0  0  0  0
  -25.3332  -28.3859   20.9565 C   0  0  0  0  0  0  0  0  0  0  0  0
  -28.4395  -23.9367   18.2926 C   0  0  0  0  0  0  0  0  0  0  0  0
  -22.4929   -9.2283   23.9083 C   0  0  0  0  0  0  0  0  0  0  0  0
  -26.7114  -26.8388   19.6849 C   0  0  0  0  0  0  0  0  0  0  0  0
  -20.5228   -7.9955   24.2562 C   0  0  0  0  0  0  0  0  0  0  0  0
  -17.9396   -7.3285   23.4407 C   0  0  0  0  0  0  0  0  0  0  0  0
  -20.2102   -6.6728   23.9425 C   0  0  0  0  0  0  0  0  0  0  0  0
  -24.6336  -12.0273   21.5671 C   0  0  0  0  0  0  0  0  0  0  0  0
  -29.1377  -21.3012   18.1841 C   0  0  0  0  0  0  0  0  0  0  0  0
  -25.2243  -13.7728   20.3675 C   0  0  0  0  0  0  0  0  0  0  0  0
  -22.8533  -13.8374   21.1565 C   0  0  0  0  0  0  0  0  0  0  0  0
  -25.8665  -31.2213   22.7743 C   0  0  0  0  0  0  0  0  0  0  0  0
  -22.7594  -30.3224   23.0191 C   0  0  0  0  0  0  0  0  0  0  0  0
  -20.3276  -28.0598   22.2355 C   0  0  0  0  0  0  0  0  0  0  0  0
  -30.6588  -15.0049   20.0620 C   0  0  0  0  0  0  0  0  0  0  0  0
  -28.5942  -35.4775   23.4833 C   0  0  0  0  0  0  0  0  0  0  0  0
  -25.2623  -30.8355   20.3572 C   0  0  0  0  0  0  0  0  0  0  0  0
  -24.3590  -28.6105   22.0830 C   0  0  0  0  0  0  0  0  0  0  0  0
  -27.2786  -34.9214   24.0222 C   0  0  0  0  0  0  0  0  0  0  0  0
  -29.6733  -11.7169   19.1161 C   0  0  0  0  0  0  0  0  0  0  0  0
  -27.4595  -33.4805   24.4891 C   0  0  0  0  0  0  0  0  0  0  0  0
  -28.2376  -11.6029   19.6316 C   0  0  0  0  0  0  0  0  0  0  0  0
  -29.6514  -18.6964   20.2405 C   0  0  0  0  0  0  0  0  0  0  0  0
  -30.7554  -17.8723   18.6142 C   0  0  0  0  0  0  0  0  0  0  0  0
  -30.5508  -12.5301   20.0653 C   0  0  0  0  0  0  0  0  0  0  0  0
  -28.5882  -13.7510   20.9204 C   0  0  0  0  0  0  0  0  0  0  0  0
  -27.8811  -32.5729   23.3271 C   0  0  1  0  0  0  0  0  0  0  0  0
  -24.7536  -31.0747   21.7755 C   0  0  1  0  0  0  0  0  0  0  0  0
  -27.6515  -12.9869   19.9692 C   0  0  2  0  0  0  0  0  0  0  0  0
  -30.3754  -19.3123   19.0233 C   0  0  0  0  0  0  0  0  0  0  0  0
  -30.6151  -17.4931   20.1078 C   0  0  0  0  0  0  0  0  0  0  0  0
  -17.8945  -27.5736   22.6108 C   0  0  0  0  0  0  0  0  0  0  0  0
  -23.3896  -29.3638   25.8465 C   0  0  0  0  0  0  0  0  0  0  0  0
  -21.2499  -28.0644   25.8080 C   0  0  0  0  0  0  0  0  0  0  0  0
  -21.2009  -30.5507   25.6109 C   0  0  0  0  0  0  0  0  0  0  0  0
  -19.7287  -28.2260   19.3419 C   0  0  0  0  0  0  0  0  0  0  0  0
  -28.0801  -25.3904   18.3870 C   0  0  0  0  0  0  0  0  0  1  0  0
  -22.0276  -29.1689   23.6617 C   0  0  1  0  0  0  0  0  0  0  0  0
  -18.9171  -28.2405   21.7041 C   0  0  2  0  0  0  0  0  0  0  0  0
  -21.9869  -29.2827   25.2118 C   0  0  0  0  0  0  0  0  0  0  0  0
  -29.6735  -22.0529   19.1719 N   0  0  0  0  0  0  0  0  0  0  0  0
  -25.9114  -11.7995   21.2516 N   0  0  0  0  0  0  0  0  0  0  0  0
  -26.2423  -12.8784   20.5219 N   0  0  0  0  0  0  0  0  0  0  0  0
  -23.8887  -29.9950   22.2554 N   0  0  0  0  0  0  0  0  0  0  0  0
  -29.9393  -13.8318   20.3436 N   0  0  0  0  0  0  0  0  0  0  0  0
  -25.3857  -14.9127   19.6625 N   0  0  0  0  0  0  0  0  0  0  0  0
  -21.8685  -13.1580   21.8865 N   0  0  0  0  0  0  0  0  0  0  0  0
  -29.4856  -19.9297   18.1066 N   0  0  0  0  0  0  0  0  0  0  0  0
  -26.7406  -32.2545   22.4951 N   0  0  0  0  0  0  0  0  0  0  0  0
  -20.7128  -29.1176   23.0316 N   0  0  0  0  0  0  0  0  0  0  0  0
  -30.0037  -16.1960   20.3497 N   0  0  0  0  0  0  0  0  0  0  0  0
  -18.7964  -27.6463   20.3427 N   0  3  0  0  0  0  0  0  0  0  0  0
  -22.5690  -14.9315   20.6126 O   0  0  0  0  0  0  0  0  0  0  0  0
  -25.9269  -30.4548   23.7285 O   0  0  0  0  0  0  0  0  0  0  0  0
  -22.3401  -31.4709   23.1827 O   0  0  0  0  0  0  0  0  0  0  0  0
  -21.0172  -27.0767   21.9737 O   0  0  0  0  0  0  0  0  0  0  0  0
  -31.7984  -14.9918   19.5843 O   0  0  0  0  0  0  0  0  0  0  0  0
  -21.8043   -8.3281   24.6620 O   0  0  0  0  0  0  0  0  0  0  0  0
  -27.1666  -25.5749   19.4676 O   0  0  0  0  0  0  0  0  0  1  0  0
  -16.6989   -7.0081   23.0506 F   0  0  0  0  0  0  0  0  0  0  0  0
  -21.1462   -5.7180   24.0321 F   0  0  0  0  0  0  0  0  0  0  0  0
  1  2  1  0  0  0  0
  1  5  2  0  0  0  0
  2  6  2  0  0  0  0
  3  9  2  0  0  0  0
  3 18  1  0  0  0  0
  4 10  1  0  0  0  0
  4 18  2  0  0  0  0
  5 20  1  0  0  0  0
  6 22  1  0  0  0  0
  7 11  2  0  0  0  0
  7 21  1  0  0  0  0
  8 14  2  0  0  0  0
  8 24  1  0  0  0  0
  9 25  1  0  0  0  0
 10 25  2  0  0  0  0
 11 26  1  0  0  0  0
 12 13  2  0  0  0  0
 12 27  1  0  0  0  0
 13 28  1  0  0  0  0
 14 31  1  0  0  0  0
 15 23  1  0  0  0  0
 15 26  2  0  0  0  0
 16 28  2  0  0  0  0
 16 29  1  0  0  0  0
 17 24  2  0  0  0  0
 17 63  1  0  0  0  0
 18 30  1  0  0  0  0
 19 30  1  0  0  0  0
 19 32  2  0  0  0  0
 19 33  1  0  0  0  0
 20 22  2  0  0  0  0
 20 38  1  0  0  0  0
 21 23  2  0  0  0  0
 21 39  1  0  0  0  0
 22 49  1  0  0  0  0
 23 40  1  0  0  0  0
 24 59  1  0  0  0  0
 25 80  1  0  0  0  0
 26 81  1  0  0  0  0
 27 29  2  0  0  0  0
 27 80  1  0  0  0  0
 28 82  1  0  0  0  0
 29 83  1  0  0  0  0
 30 64  2  0  0  0  0
 31 63  2  0  0  0  0
 31 70  1  0  0  0  0
 32 65  1  0  0  0  0
 32 68  1  0  0  0  0
 33 69  1  0  0  0  0
 33 75  2  0  0  0  0
 34 50  1  0  0  0  0
 34 71  1  0  0  0  0
 34 76  2  0  0  0  0
 35 60  1  0  0  0  0
 35 66  1  0  0  0  0
 35 77  2  0  0  0  0
 36 61  1  0  0  0  0
 36 72  1  0  0  0  0
 36 78  2  0  0  0  0
 37 67  1  0  0  0  0
 37 73  1  0  0  0  0
 37 79  2  0  0  0  0
 38 41  1  0  0  0  0
 39 50  1  0  0  0  0
 40 66  1  0  0  0  0
 41 43  1  0  0  0  0
 42 44  1  0  0  0  0
 42 47  1  0  0  0  0
 43 49  1  0  0  0  0
 44 51  1  0  0  0  0
 45 52  1  0  0  0  0
 45 53  1  0  0  0  0
 46 52  1  0  0  0  0
 46 53  1  0  0  0  0
 47 67  1  0  0  0  0
 48 51  1  0  0  0  0
 48 67  1  0  0  0  0
 49 71  1  0  0  0  0
 50 66  1  0  0  0  0
 51 65  1  0  0  0  0
 52 70  1  0  0  0  0
 53 73  1  0  0  0  0
 54 61  1  0  0  0  0
 55 62  1  0  0  0  0
 56 62  1  0  0  0  0
 57 62  1  0  0  0  0
 58 74  1  0  0  0  0
 59 81  1  0  0  0  0
 60 62  1  0  0  0  0
 60 72  1  0  0  0  0
 61 74  1  0  0  0  0
 64 65  1  0  0  0  0
M  CHG  1  74   1
M  ISO  4  37 100  59 101  73 100  81 101
M  END
> <Batch ID>
0119

> <Smiles>
CNC(C)C(=O)NC(C(=O)N1Cc2cc([101O:1][101CH2:1]c3ccc(NC4CC([100NH:0][100C:0](=O)N5CCCC(n6nc(-c7ccc(Oc8ccc(F)cc8F)cc7)c(C(N)=O)c6N)C5)C4)nc3)ccc2CC1C(=O)NC1CCCc2ccccc21)C(C)(C)C

> <Shape>
0.307

> <Color>
0.172

> <Negative vol penalty>
0.000

$$$$

  -OEChem-04052320203D

 86 95  0     1  0  0  0  0  0999 V2000
  -33.5817  -31.0435   11.5662 C   0  0  0  0  0  0  0  0  0  0  0  0
  -33.5757  -29.9806   12.4637 C   0  0  0  0  0  0  0  0  0  0  0  0
  -23.0540   -9.9309   19.8822 C   0  0  0  0  0  0  0  0  0  0  0  0
  -23.9021   -9.7512   22.1373 C   0  0  0  0  0  0  0  0  0  0  0  0
  -32.4608  -31.8647   11.4524 C   0  0  0  0  0  0  0  0  0  0  0  0
  -32.4489  -29.7389   13.2489 C   0  0  0  0  0  0  0  0  0  0  0  0
  -30.3127  -24.2872   15.0437 C   0  0  0  0  0  0  0  0  0  0  0  0
  -22.3262   -8.7547   20.0621 C   0  0  0  0  0  0  0  0  0  0  0  0
  -23.1742   -8.5751   22.3173 C   0  0  0  0  0  0  0  0  0  0  0  0
  -30.4450  -23.5736   16.2341 C   0  0  0  0  0  0  0  0  0  0  0  0
  -19.9758   -7.7028   22.9731 C   0  0  0  0  0  0  0  0  0  0  0  0
  -19.2650   -7.5583   24.1644 C   0  0  0  0  0  0  0  0  0  0  0  0
  -29.1102  -18.0769   19.6144 C   0  0  0  0  0  0  0  0  0  0  0  0
  -28.3265  -24.4480   16.9867 C   0  0  0  0  0  0  0  0  0  0  0  0
  -20.5436   -5.5761   24.6869 C   0  0  0  0  0  0  0  0  0  0  0  0
  -28.1060  -18.9004   19.1417 C   0  0  0  0  0  0  0  0  0  0  0  0
  -23.8421  -10.4291   20.9197 C   0  0  0  0  0  0  0  0  0  0  0  0
  -24.1663  -12.9582   21.0002 C   0  0  0  0  0  0  0  0  0  0  0  0
  -31.3161  -31.6271   12.2295 C   0  0  0  0  0  0  0  0  0  0  0  0
  -29.1896  -25.0965   14.8201 C   0  0  0  0  0  0  0  0  0  0  0  0
  -31.3120  -30.5585   13.1463 C   0  0  0  0  0  0  0  0  0  0  0  0
  -28.1811  -25.1689   15.7916 C   0  0  0  0  0  0  0  0  0  0  0  0
  -30.0209  -20.0012   20.7553 C   0  0  0  0  0  0  0  0  0  0  0  0
  -30.0805  -18.6427   20.4311 C   0  0  0  0  0  0  0  0  0  0  0  0
  -22.3862   -8.0768   21.2797 C   0  0  0  0  0  0  0  0  0  0  0  0
  -29.4532  -23.6562   17.2070 C   0  0  0  0  0  0  0  0  0  0  0  0
  -20.9705   -6.7839   22.6386 C   0  0  0  0  0  0  0  0  0  0  0  0
  -19.5489   -6.4950   25.0214 C   0  0  0  0  0  0  0  0  0  0  0  0
  -21.2545   -5.7206   23.4955 C   0  0  0  0  0  0  0  0  0  0  0  0
  -24.5946  -11.6438   20.7342 C   0  0  0  0  0  0  0  0  0  0  0  0
  -28.9814  -20.7604   20.2060 C   0  0  0  0  0  0  0  0  0  0  0  0
  -25.2398  -13.7445   20.6600 C   0  0  0  0  0  0  0  0  0  0  0  0
  -22.9104  -13.4264   21.5093 C   0  0  0  0  0  0  0  0  0  0  0  0
  -28.7244  -28.2030   14.3332 C   0  0  0  0  0  0  0  0  0  0  0  0
  -25.6607  -27.2671   13.8236 C   0  0  0  0  0  0  0  0  0  0  0  0
  -23.2105  -24.9533   14.3619 C   0  0  0  0  0  0  0  0  0  0  0  0
  -30.7216  -14.7894   20.7243 C   0  0  0  0  0  0  0  0  0  0  0  0
  -30.1459  -32.5705   12.1056 C   0  0  0  0  0  0  0  0  0  0  0  0
  -29.0491  -25.8390   13.5196 C   0  0  0  0  0  0  0  0  0  0  0  0
  -31.0862  -20.6190   21.6204 C   0  0  0  0  0  0  0  0  0  0  0  0
  -26.9461  -26.0075   15.5917 C   0  0  0  0  0  0  0  0  0  0  0  0
  -28.8538  -32.0201   12.7039 C   0  0  0  0  0  0  0  0  0  0  0  0
  -29.5044  -12.6047   18.1901 C   0  0  0  0  0  0  0  0  0  0  0  0
  -29.1161  -31.4226   14.0827 C   0  0  0  0  0  0  0  0  0  0  0  0
  -28.0863  -12.2638   18.6512 C   0  0  0  0  0  0  0  0  0  0  0  0
  -30.4662  -12.7313   19.3695 C   0  0  0  0  0  0  0  0  0  0  0  0
  -28.6159  -13.3275   20.8843 C   0  0  0  0  0  0  0  0  0  0  0  0
  -30.6511  -21.9353   22.2480 C   0  0  0  0  0  0  0  0  0  0  0  0
  -30.0996  -30.2492   13.9975 C   0  0  1  0  0  0  0  0  0  0  0  0
  -28.8478  -22.2293   20.5419 C   0  0  2  0  0  0  0  0  0  0  0  0
  -28.1086  -27.0365   13.6138 C   0  0  1  0  0  0  0  0  0  0  0  0
  -27.5978  -13.2445   19.7342 C   0  0  2  0  0  0  0  0  0  0  0  0
  -20.7998  -24.4813   13.8490 C   0  0  0  0  0  0  0  0  0  0  0  0
  -24.8160  -29.3291   15.9079 C   0  0  0  0  0  0  0  0  0  0  0  0
  -22.5964  -28.1789   16.0447 C   0  0  0  0  0  0  0  0  0  0  0  0
  -23.3340  -29.2111   13.8969 C   0  0  0  0  0  0  0  0  0  0  0  0
  -29.9323  -17.5428   23.1610 C   0  0  0  0  0  0  0  0  0  0  0  0
  -32.1248  -16.3954   22.8326 C   0  0  0  0  0  0  0  0  0  0  0  0
  -23.8852  -22.4570   12.9223 C   0  0  0  0  0  0  0  0  0  0  0  0
  -31.1777  -17.7622   20.9367 C   0  0  0  0  0  0  0  0  0  0  0  0
  -28.5262  -23.0919   19.3232 C   0  0  0  0  0  0  0  0  0  1  0  0
  -24.4406  -27.0820   14.6932 C   0  0  1  0  0  0  0  0  0  0  0  0
  -22.2414  -24.2728   13.4120 C   0  0  2  0  0  0  0  0  0  0  0  0
  -23.8208  -28.4359   15.1406 C   0  0  0  0  0  0  0  0  0  0  0  0
  -30.8245  -16.8287   22.1348 C   0  0  0  0  0  0  0  0  0  0  0  0
  -28.0157  -20.2193   19.4204 N   0  0  0  0  0  0  0  0  0  0  0  0
  -25.8428  -11.5939   20.2614 N   0  0  0  0  0  0  0  0  0  0  0  0
  -26.2080  -12.8868   20.2275 N   0  0  0  0  0  0  0  0  0  0  0  0
  -26.8578  -26.7197   14.3062 N   0  0  0  0  0  0  0  0  0  0  0  0
  -29.9452  -13.6771   20.3594 N   0  0  0  0  0  0  0  0  0  0  0  0
  -25.4406  -15.0791   20.6916 N   0  0  0  0  0  0  0  0  0  0  0  0
  -21.9169  -12.4838   21.8070 N   0  0  0  0  0  0  0  0  0  0  0  0
  -29.4292  -29.0621   13.5118 N   0  0  0  0  0  0  0  0  0  0  0  0
  -23.5289  -26.2271   13.9407 N   0  0  0  0  0  0  0  0  0  0  0  0
  -30.1508  -15.6391   21.6640 N   0  0  0  0  0  0  0  0  0  0  0  0
  -30.0887  -22.8075   21.1764 N   0  3  0  0  0  0  0  0  0  0  0  0
  -22.5096  -22.8077   13.3602 N   0  3  0  0  0  0  0  0  0  0  0  0
  -22.6704  -14.6459   21.6792 O   0  0  0  0  0  0  0  0  0  0  0  0
  -28.5702  -28.3161   15.5436 O   0  0  0  0  0  0  0  0  0  0  0  0
  -25.5539  -27.8687   12.7520 O   0  0  0  0  0  0  0  0  0  0  0  0
  -23.6390  -24.4107   15.3780 O   0  0  0  0  0  0  0  0  0  0  0  0
  -31.8382  -15.0117   20.2441 O   0  0  0  0  0  0  0  0  0  0  0  0
  -21.6759   -6.9292   21.4558 O   0  0  0  0  0  0  0  0  0  0  0  0
  -29.5802  -22.9612   18.3701 O   0  0  0  0  0  0  0  0  0  1  0  0
  -18.8672   -6.3572   26.1662 F   0  0  0  0  0  0  0  0  0  0  0  0
  -22.2098   -4.8353   23.1801 F   0  0  0  0  0  0  0  0  0  0  0  0
  1  2  1  0  0  0  0
  1  5  2  0  0  0  0
  2  6  2  0  0  0  0
  3  8  2  0  0  0  0
  3 17  1  0  0  0  0
  4  9  1  0  0  0  0
  4 17  2  0  0  0  0
  5 19  1  0  0  0  0
  6 21  1  0  0  0  0
  7 10  2  0  0  0  0
  7 20  1  0  0  0  0
  8 25  1  0  0  0  0
  9 25  2  0  0  0  0
 10 26  1  0  0  0  0
 11 12  2  0  0  0  0
 11 27  1  0  0  0  0
 12 28  1  0  0  0  0
 13 16  1  0  0  0  0
 13 24  2  0  0  0  0
 14 22  1  0  0  0  0
 14 26  2  0  0  0  0
 15 28  2  0  0  0  0
 15 29  1  0  0  0  0
 16 66  2  0  0  0  0
 17 30  1  0  0  0  0
 18 30  1  0  0  0  0
 18 32  2  0  0  0  0
 18 33  1  0  0  0  0
 19 21  2  0  0  0  0
 19 38  1  0  0  0  0
 20 22  2  0  0  0  0
 20 39  1  0  0  0  0
 21 49  1  0  0  0  0
 22 41  1  0  0  0  0
 23 24  1  0  0  0  0
 23 31  2  0  0  0  0
 23 40  1  0  0  0  0
 24 60  1  0  0  0  0
 25 83  1  0  0  0  0
 26 84  1  0  0  0  0
 27 29  2  0  0  0  0
 27 83  1  0  0  0  0
 28 85  1  0  0  0  0
 29 86  1  0  0  0  0
 30 67  2  0  0  0  0
 31 50  1  0  0  0  0
 31 66  1  0  0  0  0
 32 68  1  0  0  0  0
 32 71  1  0  0  0  0
 33 72  1  0  0  0  0
 33 78  2  0  0  0  0
 34 51  1  0  0  0  0
 34 73  1  0  0  0  0
 34 79  2  0  0  0  0
 35 62  1  0  0  0  0
 35 69  1  0  0  0  0
 35 80  2  0  0  0  0
 36 63  1  0  0  0  0
 36 74  1  0  0  0  0
 36 81  2  0  0  0  0
 37 70  1  0  0  0  0
 37 75  1  0  0  0  0
 37 82  2  0  0  0  0
 38 42  1  0  0  0  0
 39 51  1  0  0  0  0
 40 48  1  0  0  0  0
 41 69  1  0  0  0  0
 42 44  1  0  0  0  0
 43 45  1  0  0  0  0
 43 46  1  0  0  0  0
 44 49  1  0  0  0  0
 45 52  1  0  0  0  0
 46 70  1  0  0  0  0
 47 52  1  0  0  0  0
 47 70  1  0  0  0  0
 48 76  1  0  0  0  0
 49 73  1  0  0  0  0
 50 61  1  0  0  0  0
 50 76  1  0  0  0  0
 51 69  1  0  0  0  0
 52 68  1  0  0  0  0
 53 63  1  0  0  0  0
 54 64  1  0  0  0  0
 55 64  1  0  0  0  0
 56 64  1  0  0  0  0
 57 65  1  0  0  0  0
 58 65  1  0  0  0  0
 59 77  1  0  0  0  0
 60 65  1  0  0  0  0
 61 84  1  0  0  0  0
 62 64  1  0  0  0  0
 62 74  1  0  0  0  0
 63 77  1  0  0  0  0
 65 75  1  0  0  0  0
 67 68  1  0  0  0  0
M  CHG  2  76   1  77   1
M  ISO  4  37 100  61 101  75 100  84 101
M  END
> <Batch ID>
0119

> <Smiles>
CNC(C)C(=O)NC(C(=O)N1Cc2cc([101O:1][101CH2:1]C3NCCc4c(CC(C)(C)[100NH:0][100C:0](=O)N5CCCC(n6nc(-c7ccc(Oc8ccc(F)cc8F)cc7)c(C(N)=O)c6N)C5)ccnc43)ccc2CC1C(=O)NC1CCCc2ccccc21)C(C)(C)C

> <Shape>
0.249

> <Color>
0.189

> <Negative vol penalty>
0.000

$$$$

  -OEChem-04052320203D

 86 94  0     1  0  0  0  0  0999 V2000
  -28.3064  -30.4096   22.2003 C   0  0  0  0  0  0  0  0  0  0  0  0
  -28.0673  -29.2988   23.0030 C   0  0  0  0  0  0  0  0  0  0  0  0
  -29.6239  -20.5460   20.9447 C   0  0  0  0  0  0  0  0  0  0  0  0
  -30.1117  -19.7822   18.7051 C   0  0  0  0  0  0  0  0  0  0  0  0
  -27.3430  -30.8251   21.2820 C   0  0  0  0  0  0  0  0  0  0  0  0
  -26.8641  -28.6034   22.8886 C   0  0  0  0  0  0  0  0  0  0  0  0
  -26.0226  -22.5716   23.5327 C   0  0  0  0  0  0  0  0  0  0  0  0
  -29.3710  -21.8265   20.4529 C   0  0  0  0  0  0  0  0  0  0  0  0
  -29.8587  -21.0628   18.2133 C   0  0  0  0  0  0  0  0  0  0  0  0
  -25.5732  -21.7959   24.6005 C   0  0  0  0  0  0  0  0  0  0  0  0
  -31.1666  -24.5079   19.4478 C   0  0  0  0  0  0  0  0  0  0  0  0
  -31.7145  -25.5874   20.1407 C   0  0  0  0  0  0  0  0  0  0  0  0
  -23.3454  -21.8241   23.6755 C   0  0  0  0  0  0  0  0  0  0  0  0
  -22.2043  -15.8048   22.9392 C   0  0  0  0  0  0  0  0  0  0  0  0
  -29.4969  -26.4650   20.5271 C   0  0  0  0  0  0  0  0  0  0  0  0
  -24.0372  -14.5327   24.5101 C   0  0  0  0  0  0  0  0  0  0  0  0
  -29.9944  -19.5238   20.0708 C   0  0  0  0  0  0  0  0  0  0  0  0
  -31.2330  -17.8305   21.5220 C   0  0  0  0  0  0  0  0  0  0  0  0
  -26.1314  -30.1286   21.1495 C   0  0  0  0  0  0  0  0  0  0  0  0
  -25.1330  -22.9891   22.5323 C   0  0  0  0  0  0  0  0  0  0  0  0
  -25.8830  -29.0107   21.9686 C   0  0  0  0  0  0  0  0  0  0  0  0
  -23.7866  -22.6028   22.5947 C   0  0  0  0  0  0  0  0  0  0  0  0
  -22.9878  -14.7949   22.3920 C   0  0  0  0  0  0  0  0  0  0  0  0
  -23.9241  -14.1416   23.1857 C   0  0  0  0  0  0  0  0  0  0  0  0
  -29.4883  -22.0849   19.0872 C   0  0  0  0  0  0  0  0  0  0  0  0
  -24.2339  -21.4245   24.6736 C   0  0  0  0  0  0  0  0  0  0  0  0
  -29.7838  -24.4070   19.2945 C   0  0  0  0  0  0  0  0  0  0  0  0
  -30.8797  -26.5659   20.6804 C   0  0  0  0  0  0  0  0  0  0  0  0
  -28.9490  -25.3855   19.8341 C   0  0  0  0  0  0  0  0  0  0  0  0
  -30.2563  -18.2010   20.5783 C   0  0  0  0  0  0  0  0  0  0  0  0
  -22.3944  -16.1213   24.2747 C   0  0  0  0  0  0  0  0  0  0  0  0
  -31.0755  -16.4736   21.6645 C   0  0  0  0  0  0  0  0  0  0  0  0
  -32.1965  -18.6406   22.2085 C   0  0  0  0  0  0  0  0  0  0  0  0
  -24.1115  -25.8063   21.4722 C   0  0  0  0  0  0  0  0  0  0  0  0
  -22.6514  -23.9897   19.2160 C   0  0  0  0  0  0  0  0  0  0  0  0
  -21.3822  -20.9517   18.3179 C   0  0  0  0  0  0  0  0  0  0  0  0
  -26.4292  -12.7957   20.8065 C   0  0  0  0  0  0  0  0  0  0  0  0
  -25.1008  -30.6436   20.1762 C   0  0  0  0  0  0  0  0  0  0  0  0
  -25.6390  -23.8030   21.3730 C   0  0  0  0  0  0  0  0  0  0  0  0
  -22.7953  -23.0081   21.5357 C   0  0  0  0  0  0  0  0  0  0  0  0
  -24.0072  -29.6286   19.8534 C   0  0  0  0  0  0  0  0  0  0  0  0
  -29.6297  -12.5987   19.2590 C   0  0  0  0  0  0  0  0  0  0  0  0
  -23.4861  -28.9804   21.1321 C   0  0  0  0  0  0  0  0  0  0  0  0
  -30.2413  -13.9788   19.5068 C   0  0  0  0  0  0  0  0  0  0  0  0
  -28.1263  -12.6851   19.0054 C   0  0  0  0  0  0  0  0  0  0  0  0
  -27.9747  -14.7815   20.2921 C   0  0  0  0  0  0  0  0  0  0  0  0
  -24.6004  -28.2154   21.8565 C   0  0  1  0  0  0  0  0  0  0  0  0
  -24.5405  -24.6035   20.6803 C   0  0  1  0  0  0  0  0  0  0  0  0
  -29.4796  -14.7402   20.6083 C   0  0  2  0  0  0  0  0  0  0  0  0
  -20.2193  -19.7841   16.4254 C   0  0  0  0  0  0  0  0  0  0  0  0
  -20.3688  -13.7292   21.2036 C   0  0  0  0  0  0  0  0  0  0  0  0
  -21.6893  -12.9790   19.2144 C   0  0  0  0  0  0  0  0  0  0  0  0
  -20.0404  -25.3785   19.9667 C   0  0  0  0  0  0  0  0  0  0  0  0
  -18.8084  -23.5563   18.7709 C   0  0  0  0  0  0  0  0  0  0  0  0
  -20.3719  -25.0370   17.5115 C   0  0  0  0  0  0  0  0  0  0  0  0
  -23.6000  -19.0189   17.9944 C   0  0  0  0  0  0  0  0  0  0  0  0
  -22.8077  -14.4292   20.9558 C   0  0  0  0  0  0  0  0  0  0  0  0
  -24.7887  -13.0534   22.6509 C   0  0  0  0  0  0  0  0  0  0  0  0
  -22.8274  -18.5668   26.3574 C   0  0  0  0  0  0  0  0  0  0  0  0
  -21.6871  -17.5719   26.1776 C   0  0  0  0  0  0  0  0  0  0  0  0
  -22.6934  -19.7935   25.4628 C   0  0  0  0  0  0  0  0  0  1  0  0
  -21.3108  -23.3059   19.0970 C   0  0  1  0  0  0  0  0  0  0  0  0
  -21.5595  -20.1172   17.0623 C   0  0  2  0  0  0  0  0  0  0  0  0
  -21.7571  -13.3203   20.7051 C   0  0  0  0  0  0  0  0  0  0  0  0
  -20.1509  -24.3133   18.8576 C   0  0  0  0  0  0  0  0  0  0  0  0
  -23.2939  -15.5091   25.0771 N   0  0  0  0  0  0  0  0  0  0  0  0
  -29.5321  -17.1632   20.1513 N   0  0  0  0  0  0  0  0  0  0  0  0
  -30.0541  -16.1272   20.8297 N   0  0  0  0  0  0  0  0  0  0  0  0
  -23.3372  -23.8088   20.4254 N   0  0  0  0  0  0  0  0  0  0  0  0
  -27.4629  -13.4174   20.0869 N   0  0  0  0  0  0  0  0  0  0  0  0
  -31.7126  -15.5548   22.4211 N   0  0  0  0  0  0  0  0  0  0  0  0
  -33.4535  -18.8287   21.6178 N   0  0  0  0  0  0  0  0  0  0  0  0
  -21.6063  -17.1302   24.8062 N   0  0  0  0  0  0  0  0  0  0  0  0
  -24.8466  -26.9459   21.2069 N   0  0  0  0  0  0  0  0  0  0  0  0
  -21.4562  -22.3020   18.0485 N   0  0  0  0  0  0  0  0  0  0  0  0
  -25.8586  -13.5574   21.8189 N   0  0  0  0  0  0  0  0  0  0  0  0
  -22.2578  -18.8404   17.3832 N   0  3  0  0  0  0  0  0  0  0  0  0
  -31.9557  -19.1681   23.3208 O   0  0  0  0  0  0  0  0  0  0  0  0
  -23.1815  -25.7080   22.2641 O   0  0  0  0  0  0  0  0  0  0  0  0
  -23.0778  -24.6538   18.2679 O   0  0  0  0  0  0  0  0  0  0  0  0
  -21.1930  -20.4554   19.4263 O   0  0  0  0  0  0  0  0  0  0  0  0
  -26.0469  -11.6451   20.5682 O   0  0  0  0  0  0  0  0  0  0  0  0
  -29.2414  -23.3343   18.6070 O   0  0  0  0  0  0  0  0  0  0  0  0
  -23.7924  -20.6680   25.7151 O   0  0  0  0  0  0  0  0  0  1  0  0
  -31.4059  -27.6016   21.3471 F   0  0  0  0  0  0  0  0  0  0  0  0
  -27.6198  -25.2933   19.6911 F   0  0  0  0  0  0  0  0  0  0  0  0
  1  2  1  0  0  0  0
  1  5  2  0  0  0  0
  2  6  2  0  0  0  0
  3  8  2  0  0  0  0
  3 17  1  0  0  0  0
  4  9  1  0  0  0  0
  4 17  2  0  0  0  0
  5 19  1  0  0  0  0
  6 21  1  0  0  0  0
  7 10  2  0  0  0  0
  7 20  1  0  0  0  0
  8 25  1  0  0  0  0
  9 25  2  0  0  0  0
 10 26  1  0  0  0  0
 11 12  2  0  0  0  0
 11 27  1  0  0  0  0
 12 28  1  0  0  0  0
 13 22  1  0  0  0  0
 13 26  2  0  0  0  0
 14 23  2  0  0  0  0
 14 31  1  0  0  0  0
 15 28  2  0  0  0  0
 15 29  1  0  0  0  0
 16 24  2  0  0  0  0
 16 66  1  0  0  0  0
 17 30  1  0  0  0  0
 18 30  1  0  0  0  0
 18 32  2  0  0  0  0
 18 33  1  0  0  0  0
 19 21  2  0  0  0  0
 19 38  1  0  0  0  0
 20 22  2  0  0  0  0
 20 39  1  0  0  0  0
 21 47  1  0  0  0  0
 22 40  1  0  0  0  0
 23 24  1  0  0  0  0
 23 57  1  0  0  0  0
 24 58  1  0  0  0  0
 25 83  1  0  0  0  0
 26 84  1  0  0  0  0
 27 29  2  0  0  0  0
 27 83  1  0  0  0  0
 28 85  1  0  0  0  0
 29 86  1  0  0  0  0
 30 67  2  0  0  0  0
 31 66  2  0  0  0  0
 31 73  1  0  0  0  0
 32 68  1  0  0  0  0
 32 71  1  0  0  0  0
 33 72  1  0  0  0  0
 33 78  2  0  0  0  0
 34 48  1  0  0  0  0
 34 74  1  0  0  0  0
 34 79  2  0  0  0  0
 35 62  1  0  0  0  0
 35 69  1  0  0  0  0
 35 80  2  0  0  0  0
 36 63  1  0  0  0  0
 36 75  1  0  0  0  0
 36 81  2  0  0  0  0
 37 70  1  0  0  0  0
 37 76  1  0  0  0  0
 37 82  2  0  0  0  0
 38 41  1  0  0  0  0
 39 48  1  0  0  0  0
 40 69  1  0  0  0  0
 41 43  1  0  0  0  0
 42 44  1  0  0  0  0
 42 45  1  0  0  0  0
 43 47  1  0  0  0  0
 44 49  1  0  0  0  0
 45 70  1  0  0  0  0
 46 49  1  0  0  0  0
 46 70  1  0  0  0  0
 47 74  1  0  0  0  0
 48 69  1  0  0  0  0
 49 68  1  0  0  0  0
 50 63  1  0  0  0  0
 51 64  1  0  0  0  0
 52 64  1  0  0  0  0
 53 65  1  0  0  0  0
 54 65  1  0  0  0  0
 55 65  1  0  0  0  0
 56 77  1  0  0  0  0
 57 64  1  0  0  0  0
 58 76  1  0  0  0  0
 59 60  1  0  0  0  0
 59 61  1  0  0  0  0
 60 73  1  0  0  0  0
 61 84  1  0  0  0  0
 62 65  1  0  0  0  0
 62 75  1  0  0  0  0
 63 77  1  0  0  0  0
 67 68  1  0  0  0  0
M  CHG  1  77   1
M  ISO  4  37 100  61 101  76 100  84 101
M  END
> <Batch ID>
0119

> <Smiles>
CNC(C)C(=O)NC(C(=O)N1Cc2cc([101O:1][101CH2:1]CCNc3cc(CC(C)C)c(C[100NH:0][100C:0](=O)N4CCCC(n5nc(-c6ccc(Oc7ccc(F)cc7F)cc6)c(C(N)=O)c5N)C4)cn3)ccc2CC1C(=O)NC1CCCc2ccccc21)C(C)(C)C

> <Shape>
0.199

> <Color>
0.059

> <Negative vol penalty>
0.000

$$$$

  -OEChem-04052320203D

 86 94  0     1  0  0  0  0  0999 V2000
  -17.6976  -25.4843   22.3317 C   0  0  0  0  0  0  0  0  0  0  0  0
  -19.0040  -25.3367   21.8769 C   0  0  0  0  0  0  0  0  0  0  0  0
  -23.0608  -13.2004   21.6367 C   0  0  0  0  0  0  0  0  0  0  0  0
  -22.6076  -15.0295   20.1248 C   0  0  0  0  0  0  0  0  0  0  0  0
  -17.1589  -26.7593   22.4995 C   0  0  0  0  0  0  0  0  0  0  0  0
  -19.7723  -26.4642   21.5887 C   0  0  0  0  0  0  0  0  0  0  0  0
  -24.4765  -26.1333   23.4340 C   0  0  0  0  0  0  0  0  0  0  0  0
  -21.6954  -13.0730   21.8919 C   0  0  0  0  0  0  0  0  0  0  0  0
  -21.2422  -14.9021   20.3799 C   0  0  0  0  0  0  0  0  0  0  0  0
  -25.3833  -25.3439   22.7281 C   0  0  0  0  0  0  0  0  0  0  0  0
  -18.7069  -12.8871   19.4143 C   0  0  0  0  0  0  0  0  0  0  0  0
  -17.8390  -12.9234   18.3230 C   0  0  0  0  0  0  0  0  0  0  0  0
  -26.3152  -27.3270   21.7192 C   0  0  0  0  0  0  0  0  0  0  0  0
  -16.7392  -14.8588   19.2620 C   0  0  0  0  0  0  0  0  0  0  0  0
  -23.5169  -14.1787   20.7532 C   0  0  0  0  0  0  0  0  0  0  0  0
  -25.7862  -13.3359   19.9485 C   0  0  0  0  0  0  0  0  0  0  0  0
  -17.9241  -27.9031   22.2224 C   0  0  0  0  0  0  0  0  0  0  0  0
  -24.4751  -27.5270   23.2792 C   0  0  0  0  0  0  0  0  0  0  0  0
  -19.2429  -27.7557   21.7517 C   0  0  0  0  0  0  0  0  0  0  0  0
  -25.4091  -28.1321   22.4262 C   0  0  0  0  0  0  0  0  0  0  0  0
  -20.7861  -13.9239   21.2635 C   0  0  0  0  0  0  0  0  0  0  0  0
  -26.3009  -25.9404   21.8683 C   0  0  0  0  0  0  0  0  0  0  0  0
  -18.5908  -13.8366   20.4296 C   0  0  0  0  0  0  0  0  0  0  0  0
  -16.8552  -13.9093   18.2467 C   0  0  0  0  0  0  0  0  0  0  0  0
  -17.6070  -14.8225   20.3534 C   0  0  0  0  0  0  0  0  0  0  0  0
  -24.9273  -14.3112   20.4896 C   0  0  0  0  0  0  0  0  0  0  0  0
  -27.0140  -13.9494   19.8984 C   0  0  0  0  0  0  0  0  0  0  0  0
  -25.4998  -11.9953   19.5285 C   0  0  0  0  0  0  0  0  0  0  0  0
  -22.3694  -29.6654   22.2317 C   0  0  0  0  0  0  0  0  0  0  0  0
  -24.6125  -31.7857   23.2293 C   0  0  0  0  0  0  0  0  0  0  0  0
  -28.2071  -32.0698   23.1055 C   0  0  0  0  0  0  0  0  0  0  0  0
  -28.6952  -19.6878   19.5893 C   0  0  0  0  0  0  0  0  0  0  0  0
  -17.2829  -29.2597   22.3739 C   0  0  0  0  0  0  0  0  0  0  0  0
  -23.5081  -28.3667   24.0681 C   0  0  0  0  0  0  0  0  0  0  0  0
  -25.4621  -29.6258   22.2402 C   0  0  0  0  0  0  0  0  0  0  0  0
  -18.2878  -30.4085   22.4036 C   0  0  0  0  0  0  0  0  0  0  0  0
  -29.6069  -17.3216   22.0885 C   0  0  0  0  0  0  0  0  0  0  0  0
  -19.3127  -30.2503   21.2850 C   0  0  0  0  0  0  0  0  0  0  0  0
  -28.5885  -16.1937   21.9133 C   0  0  0  0  0  0  0  0  0  0  0  0
  -28.9802  -18.6917   21.8394 C   0  0  0  0  0  0  0  0  0  0  0  0
  -26.7075  -23.5848   15.8739 C   0  0  0  0  0  0  0  0  0  0  0  0
  -27.2672  -17.7011   20.3703 C   0  0  0  0  0  0  0  0  0  0  0  0
  -25.6195  -22.7248   15.2324 C   0  0  0  0  0  0  0  0  0  0  0  0
  -25.9404  -21.4372   17.3435 C   0  0  0  0  0  0  0  0  0  0  0  0
  -20.1160  -28.9548   21.4520 C   0  0  1  0  0  0  0  0  0  0  0  0
  -23.2564  -29.7351   23.4425 C   0  0  1  0  0  0  0  0  0  0  0  0
  -27.8660  -16.2964   20.5566 C   0  0  2  0  0  0  0  0  0  0  0  0
  -27.4288  -21.8237   17.4105 C   0  0  1  0  0  0  0  0  0  0  0  0
  -30.7418  -25.6377   18.4172 C   0  0  0  0  0  0  0  0  0  0  0  0
  -30.2780  -22.7423   14.7794 C   0  0  0  0  0  0  0  0  0  0  0  0
  -29.8023  -33.2690   24.6270 C   0  0  0  0  0  0  0  0  0  0  0  0
  -24.3362  -34.0788   21.2354 C   0  0  0  0  0  0  0  0  0  0  0  0
  -26.7767  -34.5463   21.5411 C   0  0  0  0  0  0  0  0  0  0  0  0
  -25.2179  -34.7471   23.4783 C   0  0  0  0  0  0  0  0  0  0  0  0
  -29.7815  -29.6100   23.5845 C   0  0  0  0  0  0  0  0  0  0  0  0
  -28.3024  -20.5671   17.3020 C   0  0  0  0  0  0  0  0  0  0  0  0
  -29.4631  -26.0102   17.6780 C   0  0  0  0  0  0  0  0  0  0  0  0
  -29.7880  -23.9674   15.5388 C   0  0  0  0  0  0  0  0  0  0  0  0
  -27.9131  -24.4732   18.9952 C   0  0  0  0  0  0  0  0  0  0  0  0
  -27.6176  -25.6602   19.9078 C   0  0  0  0  0  0  0  0  0  1  0  0
  -25.8096  -32.4528   22.5961 C   0  0  1  0  0  0  0  0  0  0  0  0
  -29.1702  -31.9324   24.2709 C   0  0  2  0  0  0  0  0  0  0  0  0
  -28.4197  -24.8656   17.5848 C   0  0  2  0  0  0  0  0  0  0  0  0
  -28.9364  -23.6298   16.7813 C   0  0  1  0  0  0  0  0  0  0  0  0
  -25.5263  -33.9305   22.2043 C   0  0  0  0  0  0  0  0  0  0  0  0
  -25.5562  -15.4572   20.7639 N   0  0  0  0  0  0  0  0  0  0  0  0
  -26.8234  -15.2058   20.3937 N   0  0  0  0  0  0  0  0  0  0  0  0
  -24.4920  -30.4033   23.0288 N   0  0  0  0  0  0  0  0  0  0  0  0
  -28.3126  -18.7230   20.5358 N   0  0  0  0  0  0  0  0  0  0  0  0
  -27.8317  -22.7726   16.3478 N   0  0  2  0  0  0  0  0  0  0  0  0
  -28.2274  -13.5313   19.4796 N   0  0  0  0  0  0  0  0  0  0  0  0
  -25.1158  -11.7796   18.1979 N   0  0  0  0  0  0  0  0  0  0  0  0
  -21.1259  -29.1148   22.4762 N   0  0  0  0  0  0  0  0  0  0  0  0
  -26.9143  -32.2846   23.5340 N   0  0  0  0  0  0  0  0  0  0  0  0
  -28.0167  -19.6438   18.3775 N   0  0  0  0  0  0  0  0  0  0  0  0
  -25.5076  -21.4026   15.9187 N   0  3  0  0  0  0  0  0  0  0  0  0
  -30.2592  -30.9729   23.9325 N   0  3  0  0  0  0  0  0  0  0  0  0
  -25.5661  -11.0197   20.3142 O   0  0  0  0  0  0  0  0  0  0  0  0
  -22.7822  -30.0818   21.1556 O   0  0  0  0  0  0  0  0  0  0  0  0
  -23.8176  -32.4649   23.8838 O   0  0  0  0  0  0  0  0  0  0  0  0
  -28.5664  -31.9978   21.9324 O   0  0  0  0  0  0  0  0  0  0  0  0
  -29.5797  -20.5230   19.8060 O   0  0  0  0  0  0  0  0  0  0  0  0
  -19.4537  -13.7997   21.5121 O   0  0  0  0  0  0  0  0  0  0  0  0
  -27.1926  -25.1670   21.1730 O   0  0  0  0  0  0  0  0  0  1  0  0
  -16.0229  -13.9450   17.1979 F   0  0  0  0  0  0  0  0  0  0  0  0
  -17.4914  -15.7380   21.3251 F   0  0  0  0  0  0  0  0  0  0  0  0
  1  2  1  0  0  0  0
  1  5  2  0  0  0  0
  2  6  2  0  0  0  0
  3  8  2  0  0  0  0
  3 15  1  0  0  0  0
  4  9  1  0  0  0  0
  4 15  2  0  0  0  0
  5 17  1  0  0  0  0
  6 19  1  0  0  0  0
  7 10  2  0  0  0  0
  7 18  1  0  0  0  0
  8 21  1  0  0  0  0
  9 21  2  0  0  0  0
 10 22  1  0  0  0  0
 11 12  2  0  0  0  0
 11 23  1  0  0  0  0
 12 24  1  0  0  0  0
 13 20  1  0  0  0  0
 13 22  2  0  0  0  0
 14 24  2  0  0  0  0
 14 25  1  0  0  0  0
 15 26  1  0  0  0  0
 16 26  1  0  0  0  0
 16 27  2  0  0  0  0
 16 28  1  0  0  0  0
 17 19  2  0  0  0  0
 17 33  1  0  0  0  0
 18 20  2  0  0  0  0
 18 34  1  0  0  0  0
 19 45  1  0  0  0  0
 20 35  1  0  0  0  0
 21 83  1  0  0  0  0
 22 84  1  0  0  0  0
 23 25  2  0  0  0  0
 23 83  1  0  0  0  0
 24 85  1  0  0  0  0
 25 86  1  0  0  0  0
 26 66  2  0  0  0  0
 27 67  1  0  0  0  0
 27 71  1  0  0  0  0
 28 72  1  0  0  0  0
 28 78  2  0  0  0  0
 29 46  1  0  0  0  0
 29 73  1  0  0  0  0
 29 79  2  0  0  0  0
 30 61  1  0  0  0  0
 30 68  1  0  0  0  0
 30 80  2  0  0  0  0
 31 62  1  0  0  0  0
 31 74  1  0  0  0  0
 31 81  2  0  0  0  0
 32 69  1  0  0  0  0
 32 75  1  0  0  0  0
 32 82  2  0  0  0  0
 33 36  1  0  0  0  0
 34 46  1  0  0  0  0
 35 68  1  0  0  0  0
 36 38  1  0  0  0  0
 37 39  1  0  0  0  0
 37 40  1  0  0  0  0
 38 45  1  0  0  0  0
 39 47  1  0  0  0  0
 40 69  1  0  0  0  0
 41 43  1  0  0  0  0
 41 70  1  0  0  0  0
 42 47  1  0  0  0  0
 42 69  1  0  0  0  0
 43 76  1  0  0  0  0
 44 48  1  0  0  0  0
 44 76  1  0  0  0  0
 45 73  1  0  0  0  0
 46 68  1  0  0  0  0
 47 67  1  0  0  0  0
 48 56  1  0  0  0  0
 48 70  1  0  0  0  0
 49 57  1  0  0  0  0
 50 58  1  0  0  0  0
 51 62  1  0  0  0  0
 52 65  1  0  0  0  0
 53 65  1  0  0  0  0
 54 65  1  0  0  0  0
 55 77  1  0  0  0  0
 56 75  1  0  0  0  0
 57 63  1  0  0  0  0
 58 64  1  0  0  0  0
 59 60  1  0  0  0  0
 59 63  1  0  0  0  0
 60 84  1  0  0  0  0
 61 65  1  0  0  0  0
 61 74  1  0  0  0  0
 62 77  1  0  0  0  0
 63 64  1  0  0  0  0
 64 70  1  0  0  0  0
 66 67  1  0  0  0  0
M  CHG  2  76   1  77   1
M  ISO  4  32 100  60 101  75 100  84 101
M  END
> <Batch ID>
0119

> <Smiles>
CCC(C[101CH2:1][101O:1]c1ccc2c(c1)CN(C(=O)C(NC(=O)C(C)NC)C(C)(C)C)C(C(=O)NC1CCCc3ccccc31)C2)C(CC)N1CCNCC1C[100NH:0][100C:0](=O)N1CCCC(n2nc(-c3ccc(Oc4ccc(F)cc4F)cc3)c(C(N)=O)c2N)C1

> <Shape>
0.251

> <Color>
0.076

> <Negative vol penalty>
0.000

$$$$

  -OEChem-04052320203D

 82 90  0     1  0  0  0  0  0999 V2000
  -18.8055  -26.7293   22.8441 C   0  0  0  0  0  0  0  0  0  0  0  0
  -20.0585  -26.4722   22.2970 C   0  0  0  0  0  0  0  0  0  0  0  0
  -23.5389   -9.5888   19.9459 C   0  0  0  0  0  0  0  0  0  0  0  0
  -24.0577   -9.8378   22.2923 C   0  0  0  0  0  0  0  0  0  0  0  0
  -18.3783  -28.0451   23.0170 C   0  0  0  0  0  0  0  0  0  0  0  0
  -20.8846  -27.5310   21.9213 C   0  0  0  0  0  0  0  0  0  0  0  0
  -25.6786  -26.8800   23.4175 C   0  0  0  0  0  0  0  0  0  0  0  0
  -22.9662   -8.3436   20.2046 C   0  0  0  0  0  0  0  0  0  0  0  0
  -23.4850   -8.5925   22.5511 C   0  0  0  0  0  0  0  0  0  0  0  0
  -26.4669  -26.0084   22.6675 C   0  0  0  0  0  0  0  0  0  0  0  0
  -20.3805   -7.3078   22.9149 C   0  0  0  0  0  0  0  0  0  0  0  0
  -19.5275   -7.2042   24.0137 C   0  0  0  0  0  0  0  0  0  0  0  0
  -27.4644  -27.8920   21.5379 C   0  0  0  0  0  0  0  0  0  0  0  0
  -20.9814   -5.5370   24.9852 C   0  0  0  0  0  0  0  0  0  0  0  0
  -24.0847  -10.3359   20.9897 C   0  0  0  0  0  0  0  0  0  0  0  0
  -24.0322  -12.8734   20.7330 C   0  0  0  0  0  0  0  0  0  0  0  0
  -19.2034  -29.1206   22.6522 C   0  0  0  0  0  0  0  0  0  0  0  0
  -25.7696  -28.2661   23.2253 C   0  0  0  0  0  0  0  0  0  0  0  0
  -20.4674  -28.8624   22.0882 C   0  0  0  0  0  0  0  0  0  0  0  0
  -26.6780  -28.7793   22.2885 C   0  0  0  0  0  0  0  0  0  0  0  0
  -22.9392   -7.8454   21.5072 C   0  0  0  0  0  0  0  0  0  0  0  0
  -27.3579  -26.5142   21.7255 C   0  0  0  0  0  0  0  0  0  0  0  0
  -21.5339   -6.5259   22.8512 C   0  0  0  0  0  0  0  0  0  0  0  0
  -19.8280   -6.3188   25.0488 C   0  0  0  0  0  0  0  0  0  0  0  0
  -21.8344   -5.6405   23.8864 C   0  0  0  0  0  0  0  0  0  0  0  0
  -24.6770  -11.6221   20.7230 C   0  0  0  0  0  0  0  0  0  0  0  0
  -25.0222  -13.7723   20.4196 C   0  0  0  0  0  0  0  0  0  0  0  0
  -22.6609  -13.1945   21.0016 C   0  0  0  0  0  0  0  0  0  0  0  0
  -23.7557  -30.5366   22.2805 C   0  0  0  0  0  0  0  0  0  0  0  0
  -26.2211  -32.4996   23.0491 C   0  0  0  0  0  0  0  0  0  0  0  0
  -29.5809  -32.8896   23.5034 C   0  0  0  0  0  0  0  0  0  0  0  0
  -30.2294  -15.6856   21.0282 C   0  0  0  0  0  0  0  0  0  0  0  0
  -18.6791  -30.5254   22.8143 C   0  0  0  0  0  0  0  0  0  0  0  0
  -24.9316  -29.1942   24.0612 C   0  0  0  0  0  0  0  0  0  0  0  0
  -26.8283  -30.2601   22.0585 C   0  0  0  0  0  0  0  0  0  0  0  0
  -19.7664  -31.5941   22.7373 C   0  0  0  0  0  0  0  0  0  0  0  0
  -29.7255  -13.0277   18.7134 C   0  0  0  0  0  0  0  0  0  0  0  0
  -20.6877  -31.3337   21.5498 C   0  0  0  0  0  0  0  0  0  0  0  0
  -27.5270  -19.9726   19.8015 C   0  0  0  0  0  0  0  0  0  0  0  0
  -29.5732  -21.3367   20.3758 C   0  0  0  0  0  0  0  0  0  0  0  0
  -27.9344  -18.9259   20.8369 C   0  0  0  0  0  0  0  0  0  0  0  0
  -29.9802  -20.2900   21.4113 C   0  0  0  0  0  0  0  0  0  0  0  0
  -28.3171  -12.5247   19.0349 C   0  0  0  0  0  0  0  0  0  0  0  0
  -30.4729  -13.4572   19.9739 C   0  0  0  0  0  0  0  0  0  0  0  0
  -28.3517  -13.9364   21.1336 C   0  0  0  0  0  0  0  0  0  0  0  0
  -21.4023  -29.9843   21.6914 C   0  0  1  0  0  0  0  0  0  0  0  0
  -24.7358  -30.5641   23.4191 C   0  0  1  0  0  0  0  0  0  0  0  0
  -28.0539  -21.3663   20.1665 C   0  0  0  0  0  0  0  0  0  0  0  0
  -29.4537  -18.8965   21.0459 C   0  0  0  0  0  0  0  0  0  0  0  0
  -27.5387  -13.5443   19.8880 C   0  0  2  0  0  0  0  0  0  0  0  0
  -31.3015  -34.6188   24.0923 C   0  0  0  0  0  0  0  0  0  0  0  0
  -27.7955  -24.7353   18.2318 C   0  0  0  0  0  0  0  0  0  0  0  0
  -25.9937  -33.6778   20.2437 C   0  0  0  0  0  0  0  0  0  0  0  0
  -28.2685  -34.6763   20.5540 C   0  0  0  0  0  0  0  0  0  0  0  0
  -26.3939  -35.3586   22.0517 C   0  0  0  0  0  0  0  0  0  0  0  0
  -30.4244  -31.3967   25.9156 C   0  0  0  0  0  0  0  0  0  0  0  0
  -27.6777  -22.3839   19.0912 C   0  0  0  0  0  0  0  0  0  0  0  0
  -29.8310  -17.8783   22.1203 C   0  0  0  0  0  0  0  0  0  0  0  0
  -27.5884  -24.3739   20.7146 C   0  0  0  0  0  0  0  0  0  1  0  0
  -27.4127  -33.0592   22.3100 C   0  0  1  0  0  0  0  0  0  0  0  0
  -30.3779  -33.5337   24.6234 C   0  0  2  0  0  0  0  0  0  0  0  0
  -28.1566  -23.8148   19.4033 C   0  0  2  0  0  0  0  0  0  0  0  0
  -27.0132  -34.1649   21.2926 C   0  0  0  0  0  0  0  0  0  0  0  0
  -25.9761  -11.7138   20.4265 N   0  0  0  0  0  0  0  0  0  0  0  0
  -26.1556  -13.0335   20.2472 N   0  0  0  0  0  0  0  0  0  0  0  0
  -25.9824  -31.1265   22.8959 N   0  0  0  0  0  0  0  0  0  0  0  0
  -29.6814  -14.4255   20.7369 N   0  0  0  0  0  0  0  0  0  0  0  0
  -25.0251  -15.1148   20.2772 N   0  0  0  0  0  0  0  0  0  0  0  0
  -21.7776  -12.1501   21.3070 N   0  0  0  0  0  0  0  0  0  0  0  0
  -22.4969  -30.0884   22.6324 N   0  0  0  0  0  0  0  0  0  0  0  0
  -28.3565  -33.4998   23.3315 N   0  0  0  0  0  0  0  0  0  0  0  0
  -29.4103  -16.5454   21.7498 N   0  0  0  0  0  0  0  0  0  0  0  0
  -31.2069  -32.5120   25.3232 N   0  3  0  0  0  0  0  0  0  0  0  0
  -22.2281  -14.3710   20.9557 O   0  0  0  0  0  0  0  0  0  0  0  0
  -24.1147  -30.8969   21.1655 O   0  0  0  0  0  0  0  0  0  0  0  0
  -25.5319  -33.2518   23.7426 O   0  0  0  0  0  0  0  0  0  0  0  0
  -30.0040  -31.9425   22.8443 O   0  0  0  0  0  0  0  0  0  0  0  0
  -31.3623  -16.0216   20.6671 O   0  0  0  0  0  0  0  0  0  0  0  0
  -22.3802   -6.6305   21.7601 O   0  0  0  0  0  0  0  0  0  0  0  0
  -28.1281  -25.6655   20.9916 O   0  0  0  0  0  0  0  0  0  1  0  0
  -19.0096   -6.2206   26.1046 F   0  0  0  0  0  0  0  0  0  0  0  0
  -22.9416   -4.8877   23.8313 F   0  0  0  0  0  0  0  0  0  0  0  0
  1  2  1  0  0  0  0
  1  5  2  0  0  0  0
  2  6  2  0  0  0  0
  3  8  2  0  0  0  0
  3 15  1  0  0  0  0
  4  9  1  0  0  0  0
  4 15  2  0  0  0  0
  5 17  1  0  0  0  0
  6 19  1  0  0  0  0
  7 10  2  0  0  0  0
  7 18  1  0  0  0  0
  8 21  1  0  0  0  0
  9 21  2  0  0  0  0
 10 22  1  0  0  0  0
 11 12  2  0  0  0  0
 11 23  1  0  0  0  0
 12 24  1  0  0  0  0
 13 20  1  0  0  0  0
 13 22  2  0  0  0  0
 14 24  2  0  0  0  0
 14 25  1  0  0  0  0
 15 26  1  0  0  0  0
 16 26  1  0  0  0  0
 16 27  2  0  0  0  0
 16 28  1  0  0  0  0
 17 19  2  0  0  0  0
 17 33  1  0  0  0  0
 18 20  2  0  0  0  0
 18 34  1  0  0  0  0
 19 46  1  0  0  0  0
 20 35  1  0  0  0  0
 21 79  1  0  0  0  0
 22 80  1  0  0  0  0
 23 25  2  0  0  0  0
 23 79  1  0  0  0  0
 24 81  1  0  0  0  0
 25 82  1  0  0  0  0
 26 64  2  0  0  0  0
 27 65  1  0  0  0  0
 27 68  1  0  0  0  0
 28 69  1  0  0  0  0
 28 74  2  0  0  0  0
 29 47  1  0  0  0  0
 29 70  1  0  0  0  0
 29 75  2  0  0  0  0
 30 60  1  0  0  0  0
 30 66  1  0  0  0  0
 30 76  2  0  0  0  0
 31 61  1  0  0  0  0
 31 71  1  0  0  0  0
 31 77  2  0  0  0  0
 32 67  1  0  0  0  0
 32 72  1  0  0  0  0
 32 78  2  0  0  0  0
 33 36  1  0  0  0  0
 34 47  1  0  0  0  0
 35 66  1  0  0  0  0
 36 38  1  0  0  0  0
 37 43  1  0  0  0  0
 37 44  1  0  0  0  0
 38 46  1  0  0  0  0
 39 41  1  0  0  0  0
 39 48  1  0  0  0  0
 40 42  1  0  0  0  0
 40 48  1  0  0  0  0
 41 49  1  0  0  0  0
 42 49  1  0  0  0  0
 43 50  1  0  0  0  0
 44 67  1  0  0  0  0
 45 50  1  0  0  0  0
 45 67  1  0  0  0  0
 46 70  1  0  0  0  0
 47 66  1  0  0  0  0
 48 57  1  0  0  0  0
 49 58  1  0  0  0  0
 50 65  1  0  0  0  0
 51 61  1  0  0  0  0
 52 62  1  0  0  0  0
 53 63  1  0  0  0  0
 54 63  1  0  0  0  0
 55 63  1  0  0  0  0
 56 73  1  0  0  0  0
 57 62  1  0  0  0  0
 58 72  1  0  0  0  0
 59 62  1  0  0  0  0
 59 80  1  0  0  0  0
 60 63  1  0  0  0  0
 60 71  1  0  0  0  0
 61 73  1  0  0  0  0
 64 65  1  0  0  0  0
M  CHG  1  73   1
M  ISO  4  32 100  59 101  72 100  80 101
M  END
> <Batch ID>
0119

> <Smiles>
CNC(C)C(=O)NC(C(=O)N1Cc2cc([101O:1][101CH2:1]C(C)CC3CCC(C[100NH:0][100C:0](=O)N4CCCC(n5nc(-c6ccc(Oc7ccc(F)cc7F)cc6)c(C(N)=O)c5N)C4)CC3)ccc2CC1C(=O)NC1CCCc2ccccc21)C(C)(C)C

> <Shape>
0.358

> <Color>
0.174

> <Negative vol penalty>
0.000

$$$$

  -OEChem-04052320203D

 87 96  0     1  0  0  0  0  0999 V2000
  -22.9141  -30.1156   24.4122 C   0  0  0  0  0  0  0  0  0  0  0  0
  -23.6257  -28.9366   24.6095 C   0  0  0  0  0  0  0  0  0  0  0  0
  -22.8732  -10.0255   20.1185 C   0  0  0  0  0  0  0  0  0  0  0  0
  -23.5677  -10.2143   22.4248 C   0  0  0  0  0  0  0  0  0  0  0  0
  -30.5895  -18.8520   22.6488 C   0  0  0  0  0  0  0  0  0  0  0  0
  -22.9962  -30.7818   23.1901 C   0  0  0  0  0  0  0  0  0  0  0  0
  -24.4190  -28.4225   23.5843 C   0  0  0  0  0  0  0  0  0  0  0  0
  -29.7330  -25.4382   24.1853 C   0  0  0  0  0  0  0  0  0  0  0  0
  -22.0389   -8.9602   20.4569 C   0  0  0  0  0  0  0  0  0  0  0  0
  -22.7334   -9.1490   22.7632 C   0  0  0  0  0  0  0  0  0  0  0  0
  -30.0527  -24.0812   24.1788 C   0  0  0  0  0  0  0  0  0  0  0  0
  -22.7914   -5.7750   22.5535 C   0  0  0  0  0  0  0  0  0  0  0  0
  -23.3087   -4.7878   23.3921 C   0  0  0  0  0  0  0  0  0  0  0  0
  -30.0362  -17.6173   22.3284 C   0  0  0  0  0  0  0  0  0  0  0  0
  -30.6099  -24.2299   21.8364 C   0  0  0  0  0  0  0  0  0  0  0  0
  -21.5784   -5.2569   25.0117 C   0  0  0  0  0  0  0  0  0  0  0  0
  -23.6377  -10.6526   21.1024 C   0  0  0  0  0  0  0  0  0  0  0  0
  -31.8913  -19.1463   22.2590 C   0  0  0  0  0  0  0  0  0  0  0  0
  -24.1698  -13.1212   20.7410 C   0  0  0  0  0  0  0  0  0  0  0  0
  -23.7984  -30.2807   22.1528 C   0  0  0  0  0  0  0  0  0  0  0  0
  -29.8392  -26.2001   23.0129 C   0  0  0  0  0  0  0  0  0  0  0  0
  -24.5108  -29.0819   22.3468 C   0  0  0  0  0  0  0  0  0  0  0  0
  -30.2934  -25.5970   21.8313 C   0  0  0  0  0  0  0  0  0  0  0  0
  -21.9689   -8.5219   21.7793 C   0  0  0  0  0  0  0  0  0  0  0  0
  -30.4884  -23.4762   23.0036 C   0  0  0  0  0  0  0  0  0  0  0  0
  -21.6676   -6.5033   22.9440 C   0  0  0  0  0  0  0  0  0  0  0  0
  -22.7022   -4.5287   24.6212 C   0  0  0  0  0  0  0  0  0  0  0  0
  -21.0611   -6.2442   24.1731 C   0  0  0  0  0  0  0  0  0  0  0  0
  -24.5001  -11.7528   20.7533 C   0  0  0  0  0  0  0  0  0  0  0  0
  -32.5922  -18.1796   21.5563 C   0  0  0  0  0  0  0  0  0  0  0  0
  -30.8200  -16.7190   21.6223 C   0  0  0  0  0  0  0  0  0  0  0  0
  -25.3243  -13.7495   20.3428 C   0  0  0  0  0  0  0  0  0  0  0  0
  -32.4878  -20.4760   22.6030 C   0  0  0  0  0  0  0  0  0  0  0  0
  -22.9301  -13.7666   21.0611 C   0  0  0  0  0  0  0  0  0  0  0  0
  -27.7964  -27.8338   21.2067 C   0  0  0  0  0  0  0  0  0  0  0  0
  -30.4961  -28.7308   19.6480 C   0  0  0  0  0  0  0  0  0  0  0  0
  -33.7440  -28.0496   18.8521 C   0  0  0  0  0  0  0  0  0  0  0  0
  -30.8463  -14.4153   20.6032 C   0  0  0  0  0  0  0  0  0  0  0  0
  -23.8183  -31.0107   20.8332 C   0  0  0  0  0  0  0  0  0  0  0  0
  -29.5161  -27.6689   23.0429 C   0  0  0  0  0  0  0  0  0  0  0  0
  -30.4439  -26.3754   20.5508 C   0  0  0  0  0  0  0  0  0  0  0  0
  -24.9759  -30.5995   19.9271 C   0  0  0  0  0  0  0  0  0  0  0  0
  -36.4674  -21.2837   23.1402 C   0  0  0  0  0  0  0  0  0  0  0  0
  -36.2530  -20.9605   24.6189 C   0  0  0  0  0  0  0  0  0  0  0  0
  -29.6212  -11.8562   18.4521 C   0  0  0  0  0  0  0  0  0  0  0  0
  -25.1015  -29.0801   19.8776 C   0  0  0  0  0  0  0  0  0  0  0  0
  -35.2631  -22.1154   22.7054 C   0  0  0  0  0  0  0  0  0  0  0  0
  -34.9327  -21.6181   25.0124 C   0  0  0  0  0  0  0  0  0  0  0  0
  -28.1525  -11.7137   18.8580 C   0  0  0  0  0  0  0  0  0  0  0  0
  -30.5172  -12.1416   19.6560 C   0  0  0  0  0  0  0  0  0  0  0  0
  -28.6320  -13.1384   20.8896 C   0  0  0  0  0  0  0  0  0  0  0  0
  -25.4015  -28.5058   21.2675 C   0  0  1  0  0  0  0  0  0  0  0  0
  -29.1695  -28.2327   21.6683 C   0  0  1  0  0  0  0  0  0  0  0  0
  -34.1700  -21.7710   23.7053 C   0  0  0  0  0  0  0  0  0  0  0  0
  -27.6819  -12.9147   19.7018 C   0  0  2  0  0  0  0  0  0  0  0  0
  -35.0207  -17.7309   21.9894 C   0  0  0  0  0  0  0  0  0  0  0  0
  -35.6784  -28.9483   17.5299 C   0  0  0  0  0  0  0  0  0  0  0  0
  -29.1766  -27.7708   17.0697 C   0  0  0  0  0  0  0  0  0  0  0  0
  -31.4335  -27.7991   15.9864 C   0  0  0  0  0  0  0  0  0  0  0  0
  -30.4433  -29.9166   16.8571 C   0  0  0  0  0  0  0  0  0  0  0  0
  -35.4244  -28.3180   21.2735 C   0  0  0  0  0  0  0  0  0  0  0  0
  -33.9944  -18.4382   21.1099 C   0  0  0  0  0  0  0  0  0  0  0  0
  -31.8024  -21.7269   22.0712 C   0  0  0  0  0  0  0  0  0  1  0  0
  -31.2936  -28.1830   18.4892 C   0  0  1  0  0  0  0  0  0  0  0  0
  -34.9920  -28.9132   18.8866 C   0  0  2  0  0  0  0  0  0  0  0  0
  -30.5822  -28.4020   17.1241 C   0  0  0  0  0  0  0  0  0  0  0  0
  -25.7654  -11.5245   20.3915 N   0  0  0  0  0  0  0  0  0  0  0  0
  -32.0883  -16.9692   21.2267 N   0  0  0  0  0  0  0  0  0  0  0  0
  -33.5487  -20.4949   23.3386 N   0  0  0  0  0  0  0  0  0  0  0  0
  -26.2403  -12.7579   20.1480 N   0  0  0  0  0  0  0  0  0  0  0  0
  -30.1096  -27.8070   20.6295 N   0  0  0  0  0  0  0  0  0  0  0  0
  -30.0125  -13.2945   20.4051 N   0  0  0  0  0  0  0  0  0  0  0  0
  -25.6353  -15.0480   20.1436 N   0  0  0  0  0  0  0  0  0  0  0  0
  -21.8444  -12.9714   21.4523 N   0  0  0  0  0  0  0  0  0  0  0  0
  -30.2472  -15.4634   21.3012 N   0  0  0  0  0  0  0  0  0  0  0  0
  -26.7956  -28.6997   21.6043 N   0  0  0  0  0  0  0  0  0  0  0  0
  -32.6156  -28.7933   18.5787 N   0  0  0  0  0  0  0  0  0  0  0  0
  -35.9598  -28.3852   19.8894 N   0  3  0  0  0  0  0  0  0  0  0  0
  -22.7847  -15.0102   20.9860 O   0  0  0  0  0  0  0  0  0  0  0  0
  -27.6556  -26.8166   20.5380 O   0  0  0  0  0  0  0  0  0  0  0  0
  -30.2320  -29.9352   19.6848 O   0  0  0  0  0  0  0  0  0  0  0  0
  -33.7683  -26.8359   19.0445 O   0  0  0  0  0  0  0  0  0  0  0  0
  -31.9973  -14.4541   20.1609 O   0  0  0  0  0  0  0  0  0  0  0  0
  -21.1547   -7.4825   22.1099 O   0  0  0  0  0  0  0  0  0  0  0  0
  -30.8004  -22.1516   22.9942 O   0  0  0  0  0  0  0  0  0  1  0  0
  -23.1982   -3.5796   25.4258 F   0  0  0  0  0  0  0  0  0  0  0  0
  -19.9805   -6.9397   24.5531 F   0  0  0  0  0  0  0  0  0  0  0  0
  1  2  1  0  0  0  0
  1  6  2  0  0  0  0
  2  7  2  0  0  0  0
  3  9  2  0  0  0  0
  3 17  1  0  0  0  0
  4 10  1  0  0  0  0
  4 17  2  0  0  0  0
  5 14  2  0  0  0  0
  5 18  1  0  0  0  0
  6 20  1  0  0  0  0
  7 22  1  0  0  0  0
  8 11  2  0  0  0  0
  8 21  1  0  0  0  0
  9 24  1  0  0  0  0
 10 24  2  0  0  0  0
 11 25  1  0  0  0  0
 12 13  2  0  0  0  0
 12 26  1  0  0  0  0
 13 27  1  0  0  0  0
 14 31  1  0  0  0  0
 15 23  1  0  0  0  0
 15 25  2  0  0  0  0
 16 27  2  0  0  0  0
 16 28  1  0  0  0  0
 17 29  1  0  0  0  0
 18 30  2  0  0  0  0
 18 33  1  0  0  0  0
 19 29  1  0  0  0  0
 19 32  2  0  0  0  0
 19 34  1  0  0  0  0
 20 22  2  0  0  0  0
 20 39  1  0  0  0  0
 21 23  2  0  0  0  0
 21 40  1  0  0  0  0
 22 52  1  0  0  0  0
 23 41  1  0  0  0  0
 24 84  1  0  0  0  0
 25 85  1  0  0  0  0
 26 28  2  0  0  0  0
 26 84  1  0  0  0  0
 27 86  1  0  0  0  0
 28 87  1  0  0  0  0
 29 67  2  0  0  0  0
 30 62  1  0  0  0  0
 30 68  1  0  0  0  0
 31 68  2  0  0  0  0
 31 75  1  0  0  0  0
 32 70  1  0  0  0  0
 32 73  1  0  0  0  0
 33 63  1  0  0  0  0
 33 69  2  0  0  0  0
 34 74  1  0  0  0  0
 34 79  2  0  0  0  0
 35 53  1  0  0  0  0
 35 76  1  0  0  0  0
 35 80  2  0  0  0  0
 36 64  1  0  0  0  0
 36 71  1  0  0  0  0
 36 81  2  0  0  0  0
 37 65  1  0  0  0  0
 37 77  1  0  0  0  0
 37 82  2  0  0  0  0
 38 72  1  0  0  0  0
 38 75  1  0  0  0  0
 38 83  2  0  0  0  0
 39 42  1  0  0  0  0
 40 53  1  0  0  0  0
 41 71  1  0  0  0  0
 42 46  1  0  0  0  0
 43 44  1  0  0  0  0
 43 47  1  0  0  0  0
 44 48  1  0  0  0  0
 45 49  1  0  0  0  0
 45 50  1  0  0  0  0
 46 52  1  0  0  0  0
 47 54  1  0  0  0  0
 48 54  1  0  0  0  0
 49 55  1  0  0  0  0
 50 72  1  0  0  0  0
 51 55  1  0  0  0  0
 51 72  1  0  0  0  0
 52 76  1  0  0  0  0
 53 71  1  0  0  0  0
 54 69  1  0  0  0  0
 55 70  1  0  0  0  0
 56 62  1  0  0  0  0
 57 65  1  0  0  0  0
 58 66  1  0  0  0  0
 59 66  1  0  0  0  0
 60 66  1  0  0  0  0
 61 78  1  0  0  0  0
 63 85  1  0  0  0  0
 64 66  1  0  0  0  0
 64 77  1  0  0  0  0
 65 78  1  0  0  0  0
 67 70  1  0  0  0  0
M  CHG  1  78   1
M  ISO  4  38 100  63 101  75 100  85 101
M  END
> <Batch ID>
0119

> <Smiles>
CCc1nc([100NH:0][100C:0](=O)N2CCCC(n3nc(-c4ccc(Oc5ccc(F)cc5F)cc4)c(C(N)=O)c3N)C2)ccc1C(=NC1CCCC1)[101CH2:1][101O:1]c1ccc2c(c1)CN(C(=O)C(NC(=O)C(C)NC)C(C)(C)C)C(C(=O)NC1CCCc3ccccc31)C2

> <Shape>
0.270

> <Color>
0.203

> <Negative vol penalty>
0.000

$$$$

  -OEChem-04052320203D

 84 92  0     1  0  0  0  0  0999 V2000
  -37.6629  -24.9394   20.9275 C   0  0  0  0  0  0  0  0  0  0  0  0
  -36.8926  -24.2119   21.8291 C   0  0  0  0  0  0  0  0  0  0  0  0
  -23.1081   -9.8618   19.9519 C   0  0  0  0  0  0  0  0  0  0  0  0
  -23.4925  -10.0226   22.3317 C   0  0  0  0  0  0  0  0  0  0  0  0
  -37.0499  -25.8364   20.0537 C   0  0  0  0  0  0  0  0  0  0  0  0
  -35.5089  -24.3818   21.8581 C   0  0  0  0  0  0  0  0  0  0  0  0
  -33.0162  -19.9814   22.1179 C   0  0  0  0  0  0  0  0  0  0  0  0
  -22.2886   -8.7523   20.1592 C   0  0  0  0  0  0  0  0  0  0  0  0
  -22.6729   -8.9131   22.5390 C   0  0  0  0  0  0  0  0  0  0  0  0
  -32.9581  -19.3550   23.3621 C   0  0  0  0  0  0  0  0  0  0  0  0
  -20.9713   -5.9051   23.6644 C   0  0  0  0  0  0  0  0  0  0  0  0
  -21.4213   -4.9224   24.5461 C   0  0  0  0  0  0  0  0  0  0  0  0
  -30.7269  -20.2138   23.6836 C   0  0  0  0  0  0  0  0  0  0  0  0
  -23.3665   -4.5676   23.1578 C   0  0  0  0  0  0  0  0  0  0  0  0
  -31.2469  -15.5251   26.4011 C   0  0  0  0  0  0  0  0  0  0  0  0
  -23.7101  -10.4969   21.0381 C   0  0  0  0  0  0  0  0  0  0  0  0
  -24.1669  -12.9950   20.7964 C   0  0  0  0  0  0  0  0  0  0  0  0
  -35.6569  -26.0103   20.0654 C   0  0  0  0  0  0  0  0  0  0  0  0
  -31.9324  -20.7390   21.6511 C   0  0  0  0  0  0  0  0  0  0  0  0
  -34.8768  -25.2830   20.9845 C   0  0  0  0  0  0  0  0  0  0  0  0
  -30.7728  -20.8467   22.4320 C   0  0  0  0  0  0  0  0  0  0  0  0
  -30.3057  -15.0633   25.5036 C   0  0  0  0  0  0  0  0  0  0  0  0
  -22.0710   -8.2779   21.4527 C   0  0  0  0  0  0  0  0  0  0  0  0
  -31.8145  -19.4736   24.1464 C   0  0  0  0  0  0  0  0  0  0  0  0
  -21.7189   -6.2190   22.5294 C   0  0  0  0  0  0  0  0  0  0  0  0
  -22.6189   -4.2537   24.2928 C   0  0  0  0  0  0  0  0  0  0  0  0
  -22.9165   -5.5503   22.2761 C   0  0  0  0  0  0  0  0  0  0  0  0
  -24.5572  -11.6427   20.8245 C   0  0  0  0  0  0  0  0  0  0  0  0
  -29.8881  -15.9742   24.5549 C   0  0  0  0  0  0  0  0  0  0  0  0
  -25.3320  -13.6838   20.5625 C   0  0  0  0  0  0  0  0  0  0  0  0
  -31.2620  -17.5706   25.4097 C   0  0  0  0  0  0  0  0  0  1  0  0
  -22.8675  -13.5765   20.9666 C   0  0  0  0  0  0  0  0  0  0  0  0
  -31.4991  -23.7894   20.8695 C   0  0  0  0  0  0  0  0  0  0  0  0
  -28.5838  -22.7280   19.9225 C   0  0  0  0  0  0  0  0  0  0  0  0
  -26.1210  -20.3828   20.2085 C   0  0  0  0  0  0  0  0  0  0  0  0
  -31.0930  -12.4209   21.5956 C   0  0  0  0  0  0  0  0  0  0  0  0
  -35.0444  -27.0262   19.1341 C   0  0  0  0  0  0  0  0  0  0  0  0
  -32.0006  -21.3863   20.2951 C   0  0  0  0  0  0  0  0  0  0  0  0
  -29.5742  -21.6318   21.9677 C   0  0  0  0  0  0  0  0  0  0  0  0
  -33.5343  -26.8717   18.9724 C   0  0  0  0  0  0  0  0  0  0  0  0
  -29.6035  -13.2114   18.4598 C   0  0  0  0  0  0  0  0  0  0  0  0
  -32.8675  -26.6913   20.3325 C   0  0  0  0  0  0  0  0  0  0  0  0
  -28.1061  -13.0210   18.7077 C   0  0  0  0  0  0  0  0  0  0  0  0
  -30.4367  -12.1812   19.2190 C   0  0  0  0  0  0  0  0  0  0  0  0
  -28.6677  -11.9201   20.9148 C   0  0  0  0  0  0  0  0  0  0  0  0
  -33.3705  -25.4213   21.0293 C   0  0  1  0  0  0  0  0  0  0  0  0
  -31.0357  -22.5582   20.1433 C   0  0  1  0  0  0  0  0  0  0  0  0
  -27.7892  -12.9708   20.2145 C   0  0  2  0  0  0  0  0  0  0  0  0
  -28.7756  -16.6004   22.3969 C   0  0  0  0  0  0  0  0  0  0  0  0
  -27.8203  -14.2531   27.1174 C   0  0  0  0  0  0  0  0  0  0  0  0
  -23.9809  -19.1787   19.6913 C   0  0  0  0  0  0  0  0  0  0  0  0
  -27.3602  -24.9008   21.6808 C   0  0  0  0  0  0  0  0  0  0  0  0
  -25.1712  -23.6956   21.5265 C   0  0  0  0  0  0  0  0  0  0  0  0
  -26.2428  -24.6008   19.4637 C   0  0  0  0  0  0  0  0  0  0  0  0
  -27.4382  -18.6693   18.1866 C   0  0  0  0  0  0  0  0  0  0  0  0
  -28.8718  -15.5857   23.5324 C   0  0  0  0  0  0  0  0  0  0  0  0
  -29.0397  -13.3626   26.9085 C   0  0  0  0  0  0  0  0  0  0  0  0
  -30.9015  -12.5902   25.3789 C   0  0  0  0  0  0  0  0  0  0  0  0
  -31.5924  -12.6471   24.0160 C   0  0  0  0  0  0  0  0  0  0  0  0
  -29.7909  -13.6719   25.5766 C   0  0  2  0  0  0  0  0  0  0  0  0
  -27.2377  -22.5656   20.5863 C   0  0  1  0  0  0  0  0  0  0  0  0
  -25.3396  -19.6099   19.1614 C   0  0  2  0  0  0  0  0  0  0  0  0
  -26.5261  -23.9274   20.8242 C   0  0  0  0  0  0  0  0  0  0  0  0
  -31.7487  -16.7773   26.3831 N   0  0  0  0  0  0  0  0  0  0  0  0
  -25.8677  -11.4800   20.6244 N   0  0  0  0  0  0  0  0  0  0  0  0
  -30.3469  -17.2407   24.4785 N   0  0  0  0  0  0  0  0  0  0  0  0
  -26.3111  -12.7390   20.4681 N   0  0  0  0  0  0  0  0  0  0  0  0
  -29.6918  -22.2515   20.6374 N   0  0  0  0  0  0  0  0  0  0  0  0
  -30.0889  -12.1854   20.6419 N   0  0  0  0  0  0  0  0  0  0  0  0
  -25.6042  -14.9994   20.4304 N   0  0  0  0  0  0  0  0  0  0  0  0
  -21.7794  -12.7244   21.1992 N   0  0  0  0  0  0  0  0  0  0  0  0
  -32.7371  -24.2496   20.4633 N   0  0  0  0  0  0  0  0  0  0  0  0
  -26.4826  -21.6340   19.7555 N   0  0  0  0  0  0  0  0  0  0  0  0
  -30.6769  -12.4141   22.9213 N   0  0  0  0  0  0  0  0  0  0  0  0
  -26.0916  -18.3911   18.7489 N   0  3  0  0  0  0  0  0  0  0  0  0
  -22.6743  -14.8141   20.8976 O   0  0  0  0  0  0  0  0  0  0  0  0
  -30.7856  -24.2859   21.7332 O   0  0  0  0  0  0  0  0  0  0  0  0
  -28.6490  -23.2516   18.8075 O   0  0  0  0  0  0  0  0  0  0  0  0
  -26.3812  -19.9241   21.3186 O   0  0  0  0  0  0  0  0  0  0  0  0
  -32.2718  -12.6275   21.2880 O   0  0  0  0  0  0  0  0  0  0  0  0
  -21.2712   -7.1954   21.6554 O   0  0  0  0  0  0  0  0  0  0  0  0
  -31.7554  -18.8637   25.3615 O   0  0  0  0  0  0  0  0  0  1  0  0
  -23.0517   -3.3111   25.1404 F   0  0  0  0  0  0  0  0  0  0  0  0
  -23.6396   -5.8483   21.1879 F   0  0  0  0  0  0  0  0  0  0  0  0
  1  2  1  0  0  0  0
  1  5  2  0  0  0  0
  2  6  2  0  0  0  0
  3  8  2  0  0  0  0
  3 16  1  0  0  0  0
  4  9  1  0  0  0  0
  4 16  2  0  0  0  0
  5 18  1  0  0  0  0
  6 20  1  0  0  0  0
  7 10  2  0  0  0  0
  7 19  1  0  0  0  0
  8 23  1  0  0  0  0
  9 23  2  0  0  0  0
 10 24  1  0  0  0  0
 11 12  2  0  0  0  0
 11 25  1  0  0  0  0
 12 26  1  0  0  0  0
 13 21  1  0  0  0  0
 13 24  2  0  0  0  0
 14 26  2  0  0  0  0
 14 27  1  0  0  0  0
 15 22  1  0  0  0  0
 15 64  2  0  0  0  0
 16 28  1  0  0  0  0
 17 28  1  0  0  0  0
 17 30  2  0  0  0  0
 17 32  1  0  0  0  0
 18 20  2  0  0  0  0
 18 37  1  0  0  0  0
 19 21  2  0  0  0  0
 19 38  1  0  0  0  0
 20 46  1  0  0  0  0
 21 39  1  0  0  0  0
 22 29  2  0  0  0  0
 22 60  1  0  0  0  0
 23 81  1  0  0  0  0
 24 82  1  0  0  0  0
 25 27  2  0  0  0  0
 25 81  1  0  0  0  0
 26 83  1  0  0  0  0
 27 84  1  0  0  0  0
 28 65  2  0  0  0  0
 29 56  1  0  0  0  0
 29 66  1  0  0  0  0
 30 67  1  0  0  0  0
 30 70  1  0  0  0  0
 31 64  1  0  0  0  0
 31 66  2  0  0  0  0
 31 82  1  0  0  0  0
 32 71  1  0  0  0  0
 32 76  2  0  0  0  0
 33 47  1  0  0  0  0
 33 72  1  0  0  0  0
 33 77  2  0  0  0  0
 34 61  1  0  0  0  0
 34 68  1  0  0  0  0
 34 78  2  0  0  0  0
 35 62  1  0  0  0  0
 35 73  1  0  0  0  0
 35 79  2  0  0  0  0
 36 69  1  0  0  0  0
 36 74  1  0  0  0  0
 36 80  2  0  0  0  0
 37 40  1  0  0  0  0
 38 47  1  0  0  0  0
 39 68  1  0  0  0  0
 40 42  1  0  0  0  0
 41 43  1  0  0  0  0
 41 44  1  0  0  0  0
 42 46  1  0  0  0  0
 43 48  1  0  0  0  0
 44 69  1  0  0  0  0
 45 48  1  0  0  0  0
 45 69  1  0  0  0  0
 46 72  1  0  0  0  0
 47 68  1  0  0  0  0
 48 67  1  0  0  0  0
 49 56  1  0  0  0  0
 50 57  1  0  0  0  0
 51 62  1  0  0  0  0
 52 63  1  0  0  0  0
 53 63  1  0  0  0  0
 54 63  1  0  0  0  0
 55 75  1  0  0  0  0
 57 60  1  0  0  0  0
 58 59  1  0  0  0  0
 58 60  1  0  0  0  0
 59 74  1  0  0  0  0
 61 63  1  0  0  0  0
 61 73  1  0  0  0  0
 62 75  1  0  0  0  0
 65 67  1  0  0  0  0
M  CHG  1  75   1
M  ISO  4  31 101  36 100  74 100  82 101
M  END
> <Batch ID>
0119

> <Smiles>
CCc1n[101c:1]([101O:1]c2ccc3c(c2)CN(C(=O)C(NC(=O)C(C)NC)C(C)(C)C)C(C(=O)NC2CCCc4ccccc42)C3)ncc1C(CC)CC[100NH:0][100C:0](=O)N1CCCC(n2nc(-c3ccc(Oc4ccc(F)cc4F)cc3)c(C(N)=O)c2N)C1

> <Shape>
0.193

> <Color>
0.190

> <Negative vol penalty>
0.000

$$$$

  -OEChem-04052320203D

 84 92  0     1  0  0  0  0  0999 V2000
  -29.5937  -31.8477   13.5486 C   0  0  0  0  0  0  0  0  0  0  0  0
  -29.4505  -30.5243   13.9528 C   0  0  0  0  0  0  0  0  0  0  0  0
  -24.2806   -9.3421   21.4546 C   0  0  0  0  0  0  0  0  0  0  0  0
  -24.8010  -10.4210   23.5527 C   0  0  0  0  0  0  0  0  0  0  0  0
  -29.8228  -32.8440   14.4966 C   0  0  0  0  0  0  0  0  0  0  0  0
  -29.5375  -30.1962   15.3053 C   0  0  0  0  0  0  0  0  0  0  0  0
  -26.4096  -25.8262   18.2421 C   0  0  0  0  0  0  0  0  0  0  0  0
  -23.9152   -8.1840   22.1407 C   0  0  0  0  0  0  0  0  0  0  0  0
  -24.4357   -9.2629   24.2389 C   0  0  0  0  0  0  0  0  0  0  0  0
  -26.7411  -24.5238   18.6132 C   0  0  0  0  0  0  0  0  0  0  0  0
  -21.2500   -7.0635   23.8940 C   0  0  0  0  0  0  0  0  0  0  0  0
  -20.0694   -6.4276   23.5100 C   0  0  0  0  0  0  0  0  0  0  0  0
  -27.3495  -25.3113   20.8107 C   0  0  0  0  0  0  0  0  0  0  0  0
  -30.1835  -17.6981   23.1960 C   0  0  0  0  0  0  0  0  0  0  0  0
  -21.3187   -4.4290   22.9788 C   0  0  0  0  0  0  0  0  0  0  0  0
  -24.7235  -10.4606   22.1605 C   0  0  0  0  0  0  0  0  0  0  0  0
  -24.2691  -12.7374   21.1034 C   0  0  0  0  0  0  0  0  0  0  0  0
  -29.9030  -32.5294   15.8623 C   0  0  0  0  0  0  0  0  0  0  0  0
  -26.5561  -26.8843   19.1506 C   0  0  0  0  0  0  0  0  0  0  0  0
  -29.7692  -31.1891   16.2724 C   0  0  0  0  0  0  0  0  0  0  0  0
  -27.0167  -26.6258   20.4495 C   0  0  0  0  0  0  0  0  0  0  0  0
  -29.9072  -19.0486   23.0142 C   0  0  0  0  0  0  0  0  0  0  0  0
  -30.7388  -19.8206   22.2106 C   0  0  0  0  0  0  0  0  0  0  0  0
  -23.9927   -8.1444   23.5329 C   0  0  0  0  0  0  0  0  0  0  0  0
  -27.2138  -24.2666   19.8967 C   0  0  0  0  0  0  0  0  0  0  0  0
  -22.4650   -6.3821   23.8204 C   0  0  0  0  0  0  0  0  0  0  0  0
  -20.1037   -5.1104   23.0524 C   0  0  0  0  0  0  0  0  0  0  0  0
  -22.4993   -5.0649   23.3628 C   0  0  0  0  0  0  0  0  0  0  0  0
  -25.1016  -11.6571   21.4523 C   0  0  0  0  0  0  0  0  0  0  0  0
  -31.2947  -17.1717   22.5573 C   0  0  0  0  0  0  0  0  0  0  0  0
  -31.8253  -19.1993   21.6161 C   0  0  0  0  0  0  0  0  0  0  0  0
  -25.0997  -13.6132   20.4480 C   0  0  0  0  0  0  0  0  0  0  0  0
  -22.8702  -12.9319   21.3499 C   0  0  0  0  0  0  0  0  0  0  0  0
  -28.2935  -29.5448   19.2340 C   0  0  0  0  0  0  0  0  0  0  0  0
  -29.3261  -21.5479   21.0226 C   0  0  0  0  0  0  0  0  0  0  0  0
  -26.5581  -30.1302   21.9114 C   0  0  0  0  0  0  0  0  0  0  0  0
  -24.7090  -28.8849   24.4953 C   0  0  0  0  0  0  0  0  0  0  0  0
  -31.0121  -14.5406   20.6349 C   0  0  0  0  0  0  0  0  0  0  0  0
  -30.1991  -33.6340   16.8456 C   0  0  0  0  0  0  0  0  0  0  0  0
  -26.1688  -28.2795   18.7433 C   0  0  0  0  0  0  0  0  0  0  0  0
  -27.1728  -27.7236   21.4687 C   0  0  0  0  0  0  0  0  0  0  0  0
  -29.9044  -33.2548   18.2946 C   0  0  0  0  0  0  0  0  0  0  0  0
  -29.0629  -13.7227   17.7699 C   0  0  0  0  0  0  0  0  0  0  0  0
  -30.4751  -31.8763   18.6123 C   0  0  0  0  0  0  0  0  0  0  0  0
  -27.7515  -13.1981   18.3573 C   0  0  0  0  0  0  0  0  0  0  0  0
  -30.2650  -13.3124   18.6175 C   0  0  0  0  0  0  0  0  0  0  0  0
  -28.8558  -13.1452   20.6324 C   0  0  0  0  0  0  0  0  0  0  0  0
  -29.8325  -30.7971   17.7327 C   0  0  1  0  0  0  0  0  0  0  0  0
  -26.8447  -29.3571   19.5855 C   0  0  1  0  0  0  0  0  0  0  0  0
  -27.6097  -13.5808   19.8427 C   0  0  2  0  0  0  0  0  0  0  0  0
  -28.7178  -19.6438   23.6925 C   0  0  0  0  0  0  0  0  0  0  0  0
  -32.7537  -19.9761   20.7408 C   0  0  0  0  0  0  0  0  0  0  0  0
  -23.4537  -29.6046   26.5456 C   0  0  0  0  0  0  0  0  0  0  0  0
  -29.1996  -30.5329   23.3844 C   0  0  0  0  0  0  0  0  0  0  0  0
  -27.9516  -30.3003   25.5423 C   0  0  0  0  0  0  0  0  0  0  0  0
  -27.4094  -32.1725   23.9856 C   0  0  0  0  0  0  0  0  0  0  0  0
  -22.1555  -27.8160   23.4485 C   0  0  0  0  0  0  0  0  0  0  0  0
  -30.4631  -21.2851   21.9933 C   0  0  0  0  0  0  0  0  0  0  0  0
  -31.6212  -15.7257   22.7286 C   0  0  0  0  0  0  0  0  0  0  0  0
  -28.5691  -22.8442   21.2369 C   0  0  0  0  0  0  0  0  0  1  0  0
  -26.7190  -29.8171   23.3794 C   0  0  1  0  0  0  0  0  0  0  0  0
  -23.3610  -29.2962   25.0593 C   0  0  2  0  0  0  0  0  0  0  0  0
  -27.8189  -30.6851   24.0533 C   0  0  0  0  0  0  0  0  0  0  0  0
  -26.3641  -11.8286   21.0514 N   0  0  0  0  0  0  0  0  0  0  0  0
  -32.1257  -17.8901   21.7692 N   0  0  0  0  0  0  0  0  0  0  0  0
  -26.3311  -13.0269   20.4439 N   0  0  0  0  0  0  0  0  0  0  0  0
  -26.7870  -29.0719   21.0206 N   0  0  0  0  0  0  0  0  0  0  0  0
  -30.0680  -13.7056   20.0148 N   0  0  0  0  0  0  0  0  0  0  0  0
  -24.8895  -14.8199   19.8804 N   0  0  0  0  0  0  0  0  0  0  0  0
  -22.1676  -11.9327   22.0372 N   0  0  0  0  0  0  0  0  0  0  0  0
  -28.5132  -30.4631   18.2251 N   0  0  0  0  0  0  0  0  0  0  0  0
  -25.3951  -29.9618   23.9751 N   0  0  0  0  0  0  0  0  0  0  0  0
  -30.7462  -14.8703   21.9583 N   0  0  0  0  0  0  0  0  0  0  0  0
  -22.3643  -28.2051   24.8670 N   0  3  0  0  0  0  0  0  0  0  0  0
  -22.2576  -13.9539   20.9576 O   0  0  0  0  0  0  0  0  0  0  0  0
  -29.1487  -28.9050   19.8348 O   0  0  0  0  0  0  0  0  0  0  0  0
  -29.0284  -20.7683   20.1185 O   0  0  0  0  0  0  0  0  0  0  0  0
  -26.2341  -31.2698   21.5680 O   0  0  0  0  0  0  0  0  0  0  0  0
  -25.1146  -27.7249   24.5177 O   0  0  0  0  0  0  0  0  0  0  0  0
  -32.0147  -14.9654   20.0507 O   0  0  0  0  0  0  0  0  0  0  0  0
  -23.6361   -7.0145   24.2028 O   0  0  0  0  0  0  0  0  0  0  0  0
  -27.5387  -22.9964   20.2614 O   0  0  0  0  0  0  0  0  0  1  0  0
  -18.9697   -4.4994   22.6851 F   0  0  0  0  0  0  0  0  0  0  0  0
  -23.6633   -4.4048   23.2910 F   0  0  0  0  0  0  0  0  0  0  0  0
  1  2  1  0  0  0  0
  1  5  2  0  0  0  0
  2  6  2  0  0  0  0
  3  8  2  0  0  0  0
  3 16  1  0  0  0  0
  4  9  1  0  0  0  0
  4 16  2  0  0  0  0
  5 18  1  0  0  0  0
  6 20  1  0  0  0  0
  7 10  2  0  0  0  0
  7 19  1  0  0  0  0
  8 24  1  0  0  0  0
  9 24  2  0  0  0  0
 10 25  1  0  0  0  0
 11 12  2  0  0  0  0
 11 26  1  0  0  0  0
 12 27  1  0  0  0  0
 13 21  1  0  0  0  0
 13 25  2  0  0  0  0
 14 22  2  0  0  0  0
 14 30  1  0  0  0  0
 15 27  2  0  0  0  0
 15 28  1  0  0  0  0
 16 29  1  0  0  0  0
 17 29  1  0  0  0  0
 17 32  2  0  0  0  0
 17 33  1  0  0  0  0
 18 20  2  0  0  0  0
 18 39  1  0  0  0  0
 19 21  2  0  0  0  0
 19 40  1  0  0  0  0
 20 48  1  0  0  0  0
 21 41  1  0  0  0  0
 22 23  1  0  0  0  0
 22 51  1  0  0  0  0
 23 31  2  0  0  0  0
 23 58  1  0  0  0  0
 24 81  1  0  0  0  0
 25 82  1  0  0  0  0
 26 28  2  0  0  0  0
 26 81  1  0  0  0  0
 27 83  1  0  0  0  0
 28 84  1  0  0  0  0
 29 64  2  0  0  0  0
 30 59  1  0  0  0  0
 30 65  2  0  0  0  0
 31 52  1  0  0  0  0
 31 65  1  0  0  0  0
 32 66  1  0  0  0  0
 32 69  1  0  0  0  0
 33 70  1  0  0  0  0
 33 75  2  0  0  0  0
 34 49  1  0  0  0  0
 34 71  1  0  0  0  0
 34 76  2  0  0  0  0
 35 58  1  0  0  0  0
 35 60  1  0  0  0  0
 35 77  2  0  0  0  0
 36 61  1  0  0  0  0
 36 67  1  0  0  0  0
 36 78  2  0  0  0  0
 37 62  1  0  0  0  0
 37 72  1  0  0  0  0
 37 79  2  0  0  0  0
 38 68  1  0  0  0  0
 38 73  1  0  0  0  0
 38 80  2  0  0  0  0
 39 42  1  0  0  0  0
 40 49  1  0  0  0  0
 41 67  1  0  0  0  0
 42 44  1  0  0  0  0
 43 45  1  0  0  0  0
 43 46  1  0  0  0  0
 44 48  1  0  0  0  0
 45 50  1  0  0  0  0
 46 68  1  0  0  0  0
 47 50  1  0  0  0  0
 47 68  1  0  0  0  0
 48 71  1  0  0  0  0
 49 67  1  0  0  0  0
 50 66  1  0  0  0  0
 53 62  1  0  0  0  0
 54 63  1  0  0  0  0
 55 63  1  0  0  0  0
 56 63  1  0  0  0  0
 57 74  1  0  0  0  0
 59 73  1  0  0  0  0
 60 82  1  0  0  0  0
 61 63  1  0  0  0  0
 61 72  1  0  0  0  0
 62 74  1  0  0  0  0
 64 66  1  0  0  0  0
M  CHG  1  74   1
M  ISO  4  38 100  60 101  73 100  82 101
M  END
> <Batch ID>
0119

> <Smiles>
CNC(C)C(=O)NC(C(=O)N1Cc2cc([101O:1][101CH2:1]C(=O)Cc3c(C)cc(C[100NH:0][100C:0](=O)N4CCCC(n5nc(-c6ccc(Oc7ccc(F)cc7F)cc6)c(C(N)=O)c5N)C4)nc3C)ccc2CC1C(=O)NC1CCCc2ccccc21)C(C)(C)C

> <Shape>
0.273

> <Color>
0.145

> <Negative vol penalty>
0.000

$$$$

  -OEChem-04052320203D

 87 96  0     1  0  0  0  0  0999 V2000
  -29.9974  -36.8117   21.6617 C   0  0  0  0  0  0  0  0  0  0  0  0
  -30.1061  -35.6249   20.9440 C   0  0  0  0  0  0  0  0  0  0  0  0
  -23.0804   -9.3661   19.5739 C   0  0  0  0  0  0  0  0  0  0  0  0
  -24.6225   -8.9259   21.3809 C   0  0  0  0  0  0  0  0  0  0  0  0
  -29.2880  -36.8369   22.8617 C   0  0  0  0  0  0  0  0  0  0  0  0
  -29.5064  -34.4622   21.4265 C   0  0  0  0  0  0  0  0  0  0  0  0
  -26.3327  -28.4581   19.1474 C   0  0  0  0  0  0  0  0  0  0  0  0
  -28.2000  -18.2452   23.3996 C   0  0  0  0  0  0  0  0  0  0  0  0
  -22.0379   -8.8367   20.3345 C   0  0  0  0  0  0  0  0  0  0  0  0
  -23.5800   -8.3965   22.1416 C   0  0  0  0  0  0  0  0  0  0  0  0
  -26.4025  -27.0750   19.3086 C   0  0  0  0  0  0  0  0  0  0  0  0
  -21.8463   -5.4992   22.3175 C   0  0  0  0  0  0  0  0  0  0  0  0
  -22.0800   -4.3011   22.9922 C   0  0  0  0  0  0  0  0  0  0  0  0
  -28.8761  -18.1031   24.6063 C   0  0  0  0  0  0  0  0  0  0  0  0
  -25.1351  -27.2554   21.3531 C   0  0  0  0  0  0  0  0  0  0  0  0
  -21.6273   -5.3979   25.0968 C   0  0  0  0  0  0  0  0  0  0  0  0
  -30.1549  -19.2414   22.4815 C   0  0  0  0  0  0  0  0  0  0  0  0
  -24.3727   -9.4107   20.0971 C   0  0  0  0  0  0  0  0  0  0  0  0
  -25.9070   -9.4998   18.0610 C   0  0  0  0  0  0  0  0  0  0  0  0
  -28.6711  -35.6761   23.3543 C   0  0  0  0  0  0  0  0  0  0  0  0
  -25.6719  -29.2527   20.0952 C   0  0  0  0  0  0  0  0  0  0  0  0
  -28.7892  -34.4715   22.6349 C   0  0  0  0  0  0  0  0  0  0  0  0
  -25.0562  -28.6481   21.2004 C   0  0  0  0  0  0  0  0  0  0  0  0
  -28.8445  -18.8242   22.3121 C   0  0  0  0  0  0  0  0  0  0  0  0
  -22.2877   -8.3519   21.6184 C   0  0  0  0  0  0  0  0  0  0  0  0
  -25.8061  -26.4737   20.4131 C   0  0  0  0  0  0  0  0  0  0  0  0
  -21.5031   -6.6468   23.0324 C   0  0  0  0  0  0  0  0  0  0  0  0
  -21.9705   -4.2504   24.3819 C   0  0  0  0  0  0  0  0  0  0  0  0
  -21.3936   -6.5961   24.4220 C   0  0  0  0  0  0  0  0  0  0  0  0
  -25.4501   -9.9569   19.3116 C   0  0  0  0  0  0  0  0  0  0  0  0
  -30.1851  -18.5523   24.6730 C   0  0  0  0  0  0  0  0  0  0  0  0
  -26.9389  -10.3481   17.7415 C   0  0  0  0  0  0  0  0  0  0  0  0
  -25.4403   -8.4062   17.2597 C   0  0  0  0  0  0  0  0  0  0  0  0
  -26.5455  -31.5923   22.0615 C   0  0  0  0  0  0  0  0  0  0  0  0
  -23.3613  -31.7504   22.6605 C   0  0  0  0  0  0  0  0  0  0  0  0
  -20.3335  -30.1760   22.6699 C   0  0  0  0  0  0  0  0  0  0  0  0
  -28.0486  -15.9461   19.6609 C   0  0  0  0  0  0  0  0  0  0  0  0
  -27.9548  -35.7414   24.6800 C   0  0  0  0  0  0  0  0  0  0  0  0
  -25.5826  -30.7405   19.8929 C   0  0  0  0  0  0  0  0  0  0  0  0
  -24.3172  -29.4544   22.2359 C   0  0  0  0  0  0  0  0  0  0  0  0
  -27.0323  -34.5518   24.9331 C   0  0  0  0  0  0  0  0  0  0  0  0
  -29.6389  -12.6649   20.8788 C   0  0  0  0  0  0  0  0  0  0  0  0
  -27.7420  -33.2445   24.5955 C   0  0  0  0  0  0  0  0  0  0  0  0
  -29.3475  -11.9294   19.5742 C   0  0  0  0  0  0  0  0  0  0  0  0
  -27.2766  -22.0680   18.8812 C   0  0  0  0  0  0  0  0  0  0  0  0
  -27.1624  -22.6759   21.3240 C   0  0  0  0  0  0  0  0  0  0  0  0
  -29.5505  -14.1755   20.6855 C   0  0  0  0  0  0  0  0  0  0  0  0
  -27.3634  -13.5603   19.6557 C   0  0  0  0  0  0  0  0  0  0  0  0
  -27.3231  -20.5934   19.2568 C   0  0  0  0  0  0  0  0  0  0  0  0
  -27.2090  -21.1982   21.6874 C   0  0  0  0  0  0  0  0  0  0  0  0
  -28.1316  -33.1952   23.1131 C   0  0  1  0  0  0  0  0  0  0  0  0
  -25.3262  -31.5052   21.1878 C   0  0  1  0  0  0  0  0  0  0  0  0
  -26.5464  -22.9030   19.9390 C   0  0  0  0  0  0  0  0  0  0  0  0
  -28.0188  -12.3748   18.9253 C   0  0  2  0  0  0  0  0  0  0  0  0
  -30.9410  -18.4153   25.9523 C   0  0  0  0  0  0  0  0  0  0  0  0
  -17.9204  -30.5502   23.2483 C   0  0  0  0  0  0  0  0  0  0  0  0
  -24.0325  -31.4805   25.6247 C   0  0  0  0  0  0  0  0  0  0  0  0
  -21.6314  -30.9094   26.0450 C   0  0  0  0  0  0  0  0  0  0  0  0
  -22.2354  -33.1415   25.1090 C   0  0  0  0  0  0  0  0  0  0  0  0
  -19.4699  -29.6938   19.8805 C   0  0  0  0  0  0  0  0  0  0  0  0
  -26.5705  -24.3850   19.5711 C   0  0  0  0  0  0  0  0  0  1  0  0
  -28.8685  -18.2840   19.8422 C   0  0  0  0  0  0  0  0  0  0  0  0
  -28.1368  -18.9935   20.9860 C   0  0  2  0  0  0  0  0  0  0  0  0
  -22.4243  -31.0904   23.6430 C   0  0  1  0  0  0  0  0  0  0  0  0
  -18.9729  -30.6061   22.1519 C   0  0  2  0  0  0  0  0  0  0  0  0
  -22.5964  -31.6402   25.0871 C   0  0  0  0  0  0  0  0  0  0  0  0
  -30.8442  -19.1200   23.6381 N   0  0  0  0  0  0  0  0  0  0  0  0
  -26.1357  -11.0135   19.7563 N   0  0  0  0  0  0  0  0  0  0  0  0
  -27.0339  -11.2272   18.7798 N   0  0  0  0  0  0  0  0  0  0  0  0
  -24.2629  -30.9061   21.9970 N   0  0  0  0  0  0  0  0  0  0  0  0
  -28.3388  -14.6042   19.9754 N   0  0  0  0  0  0  0  0  0  0  0  0
  -27.7653  -10.4202   16.6764 N   0  0  0  0  0  0  0  0  0  0  0  0
  -24.3706   -7.6369   17.7373 N   0  0  0  0  0  0  0  0  0  0  0  0
  -26.9776  -32.8835   22.2973 N   0  0  0  0  0  0  0  0  0  0  0  0
  -21.0808  -31.2528   23.0979 N   0  0  0  0  0  0  0  0  0  0  0  0
  -29.0074  -16.8652   20.0795 N   0  0  0  0  0  0  0  0  0  0  0  0
  -27.9569  -20.4406   20.6178 N   0  3  0  0  0  0  0  0  0  0  0  0
  -18.5382  -29.7174   21.0374 N   0  3  0  0  0  0  0  0  0  0  0  0
  -25.9673   -8.1097   16.1607 O   0  0  0  0  0  0  0  0  0  0  0  0
  -27.0555  -30.5643   22.4913 O   0  0  0  0  0  0  0  0  0  0  0  0
  -23.2910  -32.9690   22.4828 O   0  0  0  0  0  0  0  0  0  0  0  0
  -20.6955  -29.0018   22.6959 O   0  0  0  0  0  0  0  0  0  0  0  0
  -27.0256  -16.2932   19.0631 O   0  0  0  0  0  0  0  0  0  0  0  0
  -21.2707   -7.8354   22.3610 O   0  0  0  0  0  0  0  0  0  0  0  0
  -25.8732  -25.1240   20.5731 O   0  0  0  0  0  0  0  0  0  1  0  0
  -22.1934   -3.0993   25.0296 F   0  0  0  0  0  0  0  0  0  0  0  0
  -21.0631   -7.6950   25.1141 F   0  0  0  0  0  0  0  0  0  0  0  0
  1  2  1  0  0  0  0
  1  5  2  0  0  0  0
  2  6  2  0  0  0  0
  3  9  2  0  0  0  0
  3 18  1  0  0  0  0
  4 10  1  0  0  0  0
  4 18  2  0  0  0  0
  5 20  1  0  0  0  0
  6 22  1  0  0  0  0
  7 11  2  0  0  0  0
  7 21  1  0  0  0  0
  8 14  2  0  0  0  0
  8 24  1  0  0  0  0
  9 25  1  0  0  0  0
 10 25  2  0  0  0  0
 11 26  1  0  0  0  0
 12 13  2  0  0  0  0
 12 27  1  0  0  0  0
 13 28  1  0  0  0  0
 14 31  1  0  0  0  0
 15 23  1  0  0  0  0
 15 26  2  0  0  0  0
 16 28  2  0  0  0  0
 16 29  1  0  0  0  0
 17 24  2  0  0  0  0
 17 67  1  0  0  0  0
 18 30  1  0  0  0  0
 19 30  1  0  0  0  0
 19 32  2  0  0  0  0
 19 33  1  0  0  0  0
 20 22  2  0  0  0  0
 20 38  1  0  0  0  0
 21 23  2  0  0  0  0
 21 39  1  0  0  0  0
 22 51  1  0  0  0  0
 23 40  1  0  0  0  0
 24 63  1  0  0  0  0
 25 84  1  0  0  0  0
 26 85  1  0  0  0  0
 27 29  2  0  0  0  0
 27 84  1  0  0  0  0
 28 86  1  0  0  0  0
 29 87  1  0  0  0  0
 30 68  2  0  0  0  0
 31 55  1  0  0  0  0
 31 67  2  0  0  0  0
 32 69  1  0  0  0  0
 32 72  1  0  0  0  0
 33 73  1  0  0  0  0
 33 79  2  0  0  0  0
 34 52  1  0  0  0  0
 34 74  1  0  0  0  0
 34 80  2  0  0  0  0
 35 64  1  0  0  0  0
 35 70  1  0  0  0  0
 35 81  2  0  0  0  0
 36 65  1  0  0  0  0
 36 75  1  0  0  0  0
 36 82  2  0  0  0  0
 37 71  1  0  0  0  0
 37 76  1  0  0  0  0
 37 83  2  0  0  0  0
 38 41  1  0  0  0  0
 39 52  1  0  0  0  0
 40 70  1  0  0  0  0
 41 43  1  0  0  0  0
 42 44  1  0  0  0  0
 42 47  1  0  0  0  0
 43 51  1  0  0  0  0
 44 54  1  0  0  0  0
 45 49  1  0  0  0  0
 45 53  1  0  0  0  0
 46 50  1  0  0  0  0
 46 53  1  0  0  0  0
 47 71  1  0  0  0  0
 48 54  1  0  0  0  0
 48 71  1  0  0  0  0
 49 77  1  0  0  0  0
 50 77  1  0  0  0  0
 51 74  1  0  0  0  0
 52 70  1  0  0  0  0
 53 61  1  0  0  0  0
 54 69  1  0  0  0  0
 56 65  1  0  0  0  0
 57 66  1  0  0  0  0
 58 66  1  0  0  0  0
 59 66  1  0  0  0  0
 60 78  1  0  0  0  0
 61 85  1  0  0  0  0
 62 63  1  0  0  0  0
 62 76  1  0  0  0  0
 63 77  1  0  0  0  0
 64 66  1  0  0  0  0
 64 75  1  0  0  0  0
 65 78  1  0  0  0  0
 68 69  1  0  0  0  0
M  CHG  2  77   1  78   1
M  ISO  4  37 100  61 101  76 100  85 101
M  END
> <Batch ID>
0119

> <Smiles>
CNC(C)C(=O)NC(C(=O)N1Cc2cc([101O:1][101CH2:1]C3CCN(C(C[100NH:0][100C:0](=O)N4CCCC(n5nc(-c6ccc(Oc7ccc(F)cc7F)cc6)c(C(N)=O)c5N)C4)c4ccc(C)nc4)CC3)ccc2CC1C(=O)NC1CCCc2ccccc21)C(C)(C)C

> <Shape>
0.274

> <Color>
0.086

> <Negative vol penalty>
0.000

$$$$

  -OEChem-04052320203D

 82 90  0     1  0  0  0  0  0999 V2000
  -17.9853  -27.7498   22.4964 C   0  0  0  0  0  0  0  0  0  0  0  0
  -18.9797  -27.2425   21.6663 C   0  0  0  0  0  0  0  0  0  0  0  0
  -23.3999   -9.6962   21.6689 C   0  0  0  0  0  0  0  0  0  0  0  0
  -24.1399  -10.8683   23.6477 C   0  0  0  0  0  0  0  0  0  0  0  0
  -18.3305  -28.5266   23.6016 C   0  0  0  0  0  0  0  0  0  0  0  0
  -20.3200  -27.5126   21.9403 C   0  0  0  0  0  0  0  0  0  0  0  0
  -25.0930  -23.7938   20.9942 C   0  0  0  0  0  0  0  0  0  0  0  0
  -22.7772   -8.7384   22.4691 C   0  0  0  0  0  0  0  0  0  0  0  0
  -23.5170   -9.9105   24.4479 C   0  0  0  0  0  0  0  0  0  0  0  0
  -26.0331  -23.7169   19.9675 C   0  0  0  0  0  0  0  0  0  0  0  0
  -19.9171   -8.4592   24.2509 C   0  0  0  0  0  0  0  0  0  0  0  0
  -18.6252   -8.0647   23.9033 C   0  0  0  0  0  0  0  0  0  0  0  0
  -27.5617  -25.0477   21.2758 C   0  0  0  0  0  0  0  0  0  0  0  0
  -19.3908   -5.7883   23.6411 C   0  0  0  0  0  0  0  0  0  0  0  0
  -24.0813  -10.7611   22.2582 C   0  0  0  0  0  0  0  0  0  0  0  0
  -24.1620  -12.9420   20.9372 C   0  0  0  0  0  0  0  0  0  0  0  0
  -19.6762  -28.7983   23.8947 C   0  0  0  0  0  0  0  0  0  0  0  0
  -25.3765  -24.5086   22.1668 C   0  0  0  0  0  0  0  0  0  0  0  0
  -20.6835  -28.2948   23.0496 C   0  0  0  0  0  0  0  0  0  0  0  0
  -26.6245  -25.1300   22.3169 C   0  0  0  0  0  0  0  0  0  0  0  0
  -22.8357   -8.8455   23.8586 C   0  0  0  0  0  0  0  0  0  0  0  0
  -27.2666  -24.3463   20.1070 C   0  0  0  0  0  0  0  0  0  0  0  0
  -20.9459   -7.5182   24.2936 C   0  0  0  0  0  0  0  0  0  0  0  0
  -18.3620   -6.7293   23.5984 C   0  0  0  0  0  0  0  0  0  0  0  0
  -20.6828   -6.1827   23.9887 C   0  0  0  0  0  0  0  0  0  0  0  0
  -24.7254  -11.7506   21.4321 C   0  0  0  0  0  0  0  0  0  0  0  0
  -25.1736  -13.5257   20.2142 C   0  0  0  0  0  0  0  0  0  0  0  0
  -22.8424  -13.4737   21.1151 C   0  0  0  0  0  0  0  0  0  0  0  0
  -24.1164  -27.0468   23.6067 C   0  0  0  0  0  0  0  0  0  0  0  0
  -26.2377  -26.2895   25.9410 C   0  0  0  0  0  0  0  0  0  0  0  0
  -29.1599  -24.7586   26.8148 C   0  0  0  0  0  0  0  0  0  0  0  0
  -30.6783  -14.9601   20.1997 C   0  0  0  0  0  0  0  0  0  0  0  0
  -19.9981  -29.6822   25.0736 C   0  0  0  0  0  0  0  0  0  0  0  0
  -24.3619  -24.5596   23.2760 C   0  0  0  0  0  0  0  0  0  0  0  0
  -26.9857  -25.8927   23.5643 C   0  0  0  0  0  0  0  0  0  0  0  0
  -21.4598  -29.6101   25.5077 C   0  0  0  0  0  0  0  0  0  0  0  0
  -29.6455  -11.7208   18.7229 C   0  0  0  0  0  0  0  0  0  0  0  0
  -22.3820  -29.7109   24.2969 C   0  0  0  0  0  0  0  0  0  0  0  0
  -28.2565  -11.5122   19.3236 C   0  0  0  0  0  0  0  0  0  0  0  0
  -31.0247  -18.3920   20.5726 C   0  0  0  0  0  0  0  0  0  0  0  0
  -29.0387  -17.8775   19.0984 C   0  0  0  0  0  0  0  0  0  0  0  0
  -30.5354  -12.5624   19.6321 C   0  0  0  0  0  0  0  0  0  0  0  0
  -30.7079  -17.1368   21.3813 C   0  0  0  0  0  0  0  0  0  0  0  0
  -28.7763  -16.6138   19.9229 C   0  0  0  0  0  0  0  0  0  0  0  0
  -28.5488  -13.6662   20.6106 C   0  0  0  0  0  0  0  0  0  0  0  0
  -22.1498  -28.5453   23.3279 C   0  0  1  0  0  0  0  0  0  0  0  0
  -24.5610  -25.7463   24.2138 C   0  0  1  0  0  0  0  0  0  0  0  0
  -27.6139  -12.8589   19.6975 C   0  0  2  0  0  0  0  0  0  0  0  0
  -29.7514  -18.9404   19.9318 C   0  0  0  0  0  0  0  0  0  0  0  0
  -30.6517  -24.3416   28.7892 C   0  0  0  0  0  0  0  0  0  0  0  0
  -30.0483  -23.9919   16.8698 C   0  0  0  0  0  0  0  0  0  0  0  0
  -27.2510  -29.1630   25.7792 C   0  0  0  0  0  0  0  0  0  0  0  0
  -29.2942  -28.4394   27.0321 C   0  0  0  0  0  0  0  0  0  0  0  0
  -27.0479  -28.2577   28.1016 C   0  0  0  0  0  0  0  0  0  0  0  0
  -28.8373  -21.8256   26.5861 C   0  0  0  0  0  0  0  0  0  0  0  0
  -30.6175  -22.5002   18.8030 C   0  0  0  0  0  0  0  0  0  0  0  0
  -30.2617  -21.3804   19.7757 C   0  0  0  0  0  0  0  0  0  0  0  0
  -28.1703  -23.1041   18.2914 C   0  0  0  0  0  0  0  0  0  1  0  0
  -27.6697  -26.6583   26.2449 C   0  0  1  0  0  0  0  0  0  0  0  0
  -29.4999  -23.8102   27.9503 C   0  0  2  0  0  0  0  0  0  0  0  0
  -29.5629  -22.8101   17.7189 C   0  0  1  0  0  0  0  0  0  0  0  0
  -27.8085  -28.1169   26.7650 C   0  0  0  0  0  0  0  0  0  0  0  0
  -25.9961  -11.5856   21.0552 N   0  0  0  0  0  0  0  0  0  0  0  0
  -26.2396  -12.6810   20.3158 N   0  0  0  0  0  0  0  0  0  0  0  0
  -25.9578  -25.9191   24.6180 N   0  0  0  0  0  0  0  0  0  0  0  0
  -29.8844  -13.8162   20.0126 N   0  0  0  0  0  0  0  0  0  0  0  0
  -30.0138  -16.1417   20.5616 N   0  0  0  0  0  0  0  0  0  0  0  0
  -25.2462  -14.6738   19.5079 N   0  0  0  0  0  0  0  0  0  0  0  0
  -21.9273  -12.7456   21.8877 N   0  0  0  0  0  0  0  0  0  0  0  0
  -22.7841  -27.3424   23.8231 N   0  0  0  0  0  0  0  0  0  0  0  0
  -28.1648  -25.6445   27.1699 N   0  0  0  0  0  0  0  0  0  0  0  0
  -30.1042  -20.0880   19.0565 N   0  3  0  0  0  0  0  0  0  0  0  0
  -29.8872  -22.4755   27.4121 N   0  3  0  0  0  0  0  0  0  0  0  0
  -22.4803  -14.5541   20.5906 O   0  0  0  0  0  0  0  0  0  0  0  0
  -24.9229  -27.7321   22.9889 O   0  0  0  0  0  0  0  0  0  0  0  0
  -25.3999  -26.3218   26.8457 O   0  0  0  0  0  0  0  0  0  0  0  0
  -29.7236  -24.7200   25.7233 O   0  0  0  0  0  0  0  0  0  0  0  0
  -31.9061  -14.9265   20.0499 O   0  0  0  0  0  0  0  0  0  0  0  0
  -22.2279   -7.9112   24.6397 O   0  0  0  0  0  0  0  0  0  0  0  0
  -28.1926  -24.2728   19.0987 O   0  0  0  0  0  0  0  0  0  1  0  0
  -17.1210   -6.3503   23.2660 F   0  0  0  0  0  0  0  0  0  0  0  0
  -21.6668   -5.2740   24.0292 F   0  0  0  0  0  0  0  0  0  0  0  0
  1  2  1  0  0  0  0
  1  5  2  0  0  0  0
  2  6  2  0  0  0  0
  3  8  2  0  0  0  0
  3 15  1  0  0  0  0
  4  9  1  0  0  0  0
  4 15  2  0  0  0  0
  5 17  1  0  0  0  0
  6 19  1  0  0  0  0
  7 10  2  0  0  0  0
  7 18  1  0  0  0  0
  8 21  1  0  0  0  0
  9 21  2  0  0  0  0
 10 22  1  0  0  0  0
 11 12  2  0  0  0  0
 11 23  1  0  0  0  0
 12 24  1  0  0  0  0
 13 20  1  0  0  0  0
 13 22  2  0  0  0  0
 14 24  2  0  0  0  0
 14 25  1  0  0  0  0
 15 26  1  0  0  0  0
 16 26  1  0  0  0  0
 16 27  2  0  0  0  0
 16 28  1  0  0  0  0
 17 19  2  0  0  0  0
 17 33  1  0  0  0  0
 18 20  2  0  0  0  0
 18 34  1  0  0  0  0
 19 46  1  0  0  0  0
 20 35  1  0  0  0  0
 21 79  1  0  0  0  0
 22 80  1  0  0  0  0
 23 25  2  0  0  0  0
 23 79  1  0  0  0  0
 24 81  1  0  0  0  0
 25 82  1  0  0  0  0
 26 63  2  0  0  0  0
 27 64  1  0  0  0  0
 27 68  1  0  0  0  0
 28 69  1  0  0  0  0
 28 74  2  0  0  0  0
 29 47  1  0  0  0  0
 29 70  1  0  0  0  0
 29 75  2  0  0  0  0
 30 59  1  0  0  0  0
 30 65  1  0  0  0  0
 30 76  2  0  0  0  0
 31 60  1  0  0  0  0
 31 71  1  0  0  0  0
 31 77  2  0  0  0  0
 32 66  1  0  0  0  0
 32 67  1  0  0  0  0
 32 78  2  0  0  0  0
 33 36  1  0  0  0  0
 34 47  1  0  0  0  0
 35 65  1  0  0  0  0
 36 38  1  0  0  0  0
 37 39  1  0  0  0  0
 37 42  1  0  0  0  0
 38 46  1  0  0  0  0
 39 48  1  0  0  0  0
 40 43  1  0  0  0  0
 40 49  1  0  0  0  0
 41 44  1  0  0  0  0
 41 49  1  0  0  0  0
 42 66  1  0  0  0  0
 43 67  1  0  0  0  0
 44 67  1  0  0  0  0
 45 48  1  0  0  0  0
 45 66  1  0  0  0  0
 46 70  1  0  0  0  0
 47 65  1  0  0  0  0
 48 64  1  0  0  0  0
 49 72  1  0  0  0  0
 50 60  1  0  0  0  0
 51 61  1  0  0  0  0
 52 62  1  0  0  0  0
 53 62  1  0  0  0  0
 54 62  1  0  0  0  0
 55 73  1  0  0  0  0
 56 57  1  0  0  0  0
 56 61  1  0  0  0  0
 57 72  1  0  0  0  0
 58 61  1  0  0  0  0
 58 80  1  0  0  0  0
 59 62  1  0  0  0  0
 59 71  1  0  0  0  0
 60 73  1  0  0  0  0
 63 64  1  0  0  0  0
M  CHG  2  72   1  73   1
M  ISO  4  32 100  58 101  67 100  80 101
M  END
> <Batch ID>
0119

> <Smiles>
CNC(C)C(=O)NC(C(=O)N1Cc2cc([101O:1][101CH2:1]C(C)CCNC3CC[100N:0]([100C:0](=O)N4CCCC(n5nc(-c6ccc(Oc7ccc(F)cc7F)cc6)c(C(N)=O)c5N)C4)CC3)ccc2CC1C(=O)NC1CCCc2ccccc21)C(C)(C)C

> <Shape>
0.246

> <Color>
0.149

> <Negative vol penalty>
0.000

$$$$

  -OEChem-04052320203D

 84 92  0     1  0  0  0  0  0999 V2000
  -19.0989  -28.9057   26.6823 C   0  0  0  0  0  0  0  0  0  0  0  0
  -20.4455  -28.6009   26.5114 C   0  0  0  0  0  0  0  0  0  0  0  0
  -27.6120  -12.7659   18.8224 C   0  0  0  0  0  0  0  0  0  0  0  0
  -28.2844  -13.6915   20.9503 C   0  0  0  0  0  0  0  0  0  0  0  0
  -18.2447  -28.9263   25.5805 C   0  0  0  0  0  0  0  0  0  0  0  0
  -20.9385  -28.3154   25.2386 C   0  0  0  0  0  0  0  0  0  0  0  0
  -26.4833  -29.7052   23.0411 C   0  0  0  0  0  0  0  0  0  0  0  0
  -28.8983  -12.2599   18.6359 C   0  0  0  0  0  0  0  0  0  0  0  0
  -29.5708  -13.1854   20.7639 C   0  0  0  0  0  0  0  0  0  0  0  0
  -27.6539  -28.9595   22.9091 C   0  0  0  0  0  0  0  0  0  0  0  0
  -31.9071  -10.4147   17.7653 C   0  0  0  0  0  0  0  0  0  0  0  0
  -32.0278   -9.1037   17.3047 C   0  0  0  0  0  0  0  0  0  0  0  0
  -27.0720  -28.4622   20.6215 C   0  0  0  0  0  0  0  0  0  0  0  0
  -30.8395   -8.3099   19.2529 C   0  0  0  0  0  0  0  0  0  0  0  0
  -27.3050  -13.4818   19.9795 C   0  0  0  0  0  0  0  0  0  0  0  0
  -24.7752  -13.2739   20.2334 C   0  0  0  0  0  0  0  0  0  0  0  0
  -18.7294  -28.6503   24.2923 C   0  0  0  0  0  0  0  0  0  0  0  0
  -25.5914  -29.8262   21.9658 C   0  0  0  0  0  0  0  0  0  0  0  0
  -20.0897  -28.3310   24.1188 C   0  0  0  0  0  0  0  0  0  0  0  0
  -25.8920  -29.2121   20.7416 C   0  0  0  0  0  0  0  0  0  0  0  0
  -29.8778  -12.4696   19.6067 C   0  0  0  0  0  0  0  0  0  0  0  0
  -27.9470  -28.3355   21.7001 C   0  0  0  0  0  0  0  0  0  0  0  0
  -31.2527  -10.6734   18.9697 C   0  0  0  0  0  0  0  0  0  0  0  0
  -31.4940   -8.0513   18.0485 C   0  0  0  0  0  0  0  0  0  0  0  0
  -30.7189   -9.6210   19.7135 C   0  0  0  0  0  0  0  0  0  0  0  0
  -25.9766  -14.0053   20.1724 C   0  0  0  0  0  0  0  0  0  0  0  0
  -23.8037  -14.2251   20.4281 C   0  0  0  0  0  0  0  0  0  0  0  0
  -24.5570  -11.8611   20.1239 C   0  0  0  0  0  0  0  0  0  0  0  0
  -25.6932  -23.3513   23.0143 C   0  0  0  0  0  0  0  0  0  0  0  0
  -22.5649  -28.9979   21.4577 C   0  0  0  0  0  0  0  0  0  0  0  0
  -22.9936  -30.6233   18.6834 C   0  0  0  0  0  0  0  0  0  0  0  0
  -25.1549  -31.7961   16.3169 C   0  0  0  0  0  0  0  0  0  0  0  0
  -24.2559  -19.7638   22.7460 C   0  0  0  0  0  0  0  0  0  0  0  0
  -17.7583  -28.6383   23.1384 C   0  0  0  0  0  0  0  0  0  0  0  0
  -24.3460  -30.6562   22.1161 C   0  0  0  0  0  0  0  0  0  0  0  0
  -24.9774  -29.3280   19.5506 C   0  0  0  0  0  0  0  0  0  0  0  0
  -18.4358  -28.6914   21.7715 C   0  0  0  0  0  0  0  0  0  0  0  0
  -24.0985  -18.7516   19.0407 C   0  0  0  0  0  0  0  0  0  0  0  0
  -19.5930  -27.6994   21.7104 C   0  0  0  0  0  0  0  0  0  0  0  0
  -23.3888  -17.4331   19.3336 C   0  0  0  0  0  0  0  0  0  0  0  0
  -24.9271  -23.5989   25.3533 C   0  0  0  0  0  0  0  0  0  0  0  0
  -23.9834  -19.7081   20.2235 C   0  0  0  0  0  0  0  0  0  0  0  0
  -24.7924  -17.7040   21.4690 C   0  0  0  0  0  0  0  0  0  0  0  0
  -23.7628  -24.5633   25.1700 C   0  0  0  0  0  0  0  0  0  0  0  0
  -22.6033  -22.9304   23.6640 C   0  0  0  0  0  0  0  0  0  0  0  0
  -20.6671  -28.0400   22.7506 C   0  0  1  0  0  0  0  0  0  0  0  0
  -25.0853  -22.6225   24.1811 C   0  0  1  0  0  0  0  0  0  0  0  0
  -23.2569  -30.2865   21.1138 C   0  0  1  0  0  0  0  0  0  0  0  0
  -23.8427  -16.7976   20.6659 C   0  0  2  0  0  0  0  0  0  0  0  0
  -23.7523  -21.9407   23.8316 C   0  0  2  0  0  0  0  0  0  0  0  0
  -25.2060  -33.0552   14.1468 C   0  0  0  0  0  0  0  0  0  0  0  0
  -30.3288  -25.6135   21.0810 C   0  0  0  0  0  0  0  0  0  0  0  0
  -22.0097  -28.1340   17.2187 C   0  0  0  0  0  0  0  0  0  0  0  0
  -22.9657  -29.0830   15.1083 C   0  0  0  0  0  0  0  0  0  0  0  0
  -21.1419  -30.2939   16.3041 C   0  0  0  0  0  0  0  0  0  0  0  0
  -26.8008  -33.9635   17.4797 C   0  0  0  0  0  0  0  0  0  0  0  0
  -28.1332  -25.5063   22.3247 C   0  0  0  0  0  0  0  0  0  0  0  0
  -27.8605  -24.0373   22.0071 C   0  0  0  0  0  0  0  0  0  0  0  0
  -23.4673  -30.2637   17.2959 C   0  0  1  0  0  0  0  0  0  0  0  0
  -25.2886  -33.1589   15.6618 C   0  0  2  0  0  0  0  0  0  0  0  0
  -28.9431  -26.2258   21.2387 C   0  0  1  0  0  0  0  0  0  1  0  0
  -22.4126  -29.4397   16.5046 C   0  0  0  0  0  0  0  0  0  0  0  0
  -25.7879  -15.3197   20.3166 N   0  0  0  0  0  0  0  0  0  0  0  0
  -24.4567  -15.4218   20.4700 N   0  0  0  0  0  0  0  0  0  0  0  0
  -23.7690  -30.1452   19.7492 N   0  0  0  0  0  0  0  0  0  0  0  0
  -24.3122  -19.0863   21.5125 N   0  0  0  0  0  0  0  0  0  0  0  0
  -22.4631  -14.1463   20.5659 N   0  0  0  0  0  0  0  0  0  0  0  0
  -24.5871  -11.0879   21.2924 N   0  0  0  0  0  0  0  0  0  0  0  0
  -21.4769  -29.1499   22.2960 N   0  0  0  0  0  0  0  0  0  0  0  0
  -27.0790  -23.3937   23.0265 N   0  0  0  0  0  0  0  0  0  0  0  0
  -23.8475  -31.5186   16.6564 N   0  0  0  0  0  0  0  0  0  0  0  0
  -23.8611  -21.0967   22.6635 N   0  0  0  0  0  0  0  0  0  0  0  0
  -22.5196  -23.7916   24.8820 N   0  3  0  0  0  0  0  0  0  0  0  0
  -26.5952  -33.7798   16.0199 N   0  3  0  0  0  0  0  0  0  0  0  0
  -24.3579  -11.2986   19.0205 O   0  0  0  0  0  0  0  0  0  0  0  0
  -24.9627  -23.8404   22.1606 O   0  0  0  0  0  0  0  0  0  0  0  0
  -22.9859  -27.9439   20.9955 O   0  0  0  0  0  0  0  0  0  0  0  0
  -21.9771  -31.3094   18.8165 O   0  0  0  0  0  0  0  0  0  0  0  0
  -26.1136  -31.0505   16.5051 O   0  0  0  0  0  0  0  0  0  0  0  0
  -24.5350  -19.2288   23.8232 O   0  0  0  0  0  0  0  0  0  0  0  0
  -31.1330  -11.9757   19.4252 O   0  0  0  0  0  0  0  0  0  0  0  0
  -29.0885  -27.6065   21.5687 O   0  0  0  0  0  0  0  0  0  1  0  0
  -31.6086   -6.7925   17.6053 F   0  0  0  0  0  0  0  0  0  0  0  0
  -30.0881   -9.8635   20.8707 F   0  0  0  0  0  0  0  0  0  0  0  0
  1  2  1  0  0  0  0
  1  5  2  0  0  0  0
  2  6  2  0  0  0  0
  3  8  2  0  0  0  0
  3 15  1  0  0  0  0
  4  9  1  0  0  0  0
  4 15  2  0  0  0  0
  5 17  1  0  0  0  0
  6 19  1  0  0  0  0
  7 10  2  0  0  0  0
  7 18  1  0  0  0  0
  8 21  1  0  0  0  0
  9 21  2  0  0  0  0
 10 22  1  0  0  0  0
 11 12  2  0  0  0  0
 11 23  1  0  0  0  0
 12 24  1  0  0  0  0
 13 20  1  0  0  0  0
 13 22  2  0  0  0  0
 14 24  2  0  0  0  0
 14 25  1  0  0  0  0
 15 26  1  0  0  0  0
 16 26  1  0  0  0  0
 16 27  2  0  0  0  0
 16 28  1  0  0  0  0
 17 19  2  0  0  0  0
 17 34  1  0  0  0  0
 18 20  2  0  0  0  0
 18 35  1  0  0  0  0
 19 46  1  0  0  0  0
 20 36  1  0  0  0  0
 21 81  1  0  0  0  0
 22 82  1  0  0  0  0
 23 25  2  0  0  0  0
 23 81  1  0  0  0  0
 24 83  1  0  0  0  0
 25 84  1  0  0  0  0
 26 63  2  0  0  0  0
 27 64  1  0  0  0  0
 27 67  1  0  0  0  0
 28 68  1  0  0  0  0
 28 75  2  0  0  0  0
 29 47  1  0  0  0  0
 29 70  1  0  0  0  0
 29 76  2  0  0  0  0
 30 48  1  0  0  0  0
 30 69  1  0  0  0  0
 30 77  2  0  0  0  0
 31 59  1  0  0  0  0
 31 65  1  0  0  0  0
 31 78  2  0  0  0  0
 32 60  1  0  0  0  0
 32 71  1  0  0  0  0
 32 79  2  0  0  0  0
 33 66  1  0  0  0  0
 33 72  1  0  0  0  0
 33 80  2  0  0  0  0
 34 37  1  0  0  0  0
 35 48  1  0  0  0  0
 36 65  1  0  0  0  0
 37 39  1  0  0  0  0
 38 40  1  0  0  0  0
 38 42  1  0  0  0  0
 39 46  1  0  0  0  0
 40 49  1  0  0  0  0
 41 44  1  0  0  0  0
 41 47  1  0  0  0  0
 42 66  1  0  0  0  0
 43 49  1  0  0  0  0
 43 66  1  0  0  0  0
 44 73  1  0  0  0  0
 45 50  1  0  0  0  0
 45 73  1  0  0  0  0
 46 69  1  0  0  0  0
 47 50  1  0  0  0  0
 48 65  1  0  0  0  0
 49 64  1  0  0  0  0
 50 72  1  0  0  0  0
 51 60  1  0  0  0  0
 52 61  1  0  0  0  0
 53 62  1  0  0  0  0
 54 62  1  0  0  0  0
 55 62  1  0  0  0  0
 56 74  1  0  0  0  0
 57 58  1  0  0  0  0
 57 61  1  0  0  0  0
 58 70  1  0  0  0  0
 59 62  1  0  0  0  0
 59 71  1  0  0  0  0
 60 74  1  0  0  0  0
 61 82  1  0  0  0  0
 63 64  1  0  0  0  0
M  CHG  2  73   1  74   1
M  ISO  4  33 100  61 101  72 100  82 101
M  END
> <Batch ID>
0119

> <Smiles>
CNC(C)C(=O)NC(C(=O)N1Cc2cc([101O:1][101CH:1](C)CCNC(=O)C3CCNCC3[100NH:0][100C:0](=O)N3CCCC(n4nc(-c5ccc(Oc6ccc(F)cc6F)cc5)c(C(N)=O)c4N)C3)ccc2CC1C(=O)NC1CCCc2ccccc21)C(C)(C)C

> <Shape>
0.208

> <Color>
0.094

> <Negative vol penalty>
0.000

$$$$

  -OEChem-04052320203D

 89 97  0     1  0  0  0  0  0999 V2000
  -27.6275  -28.8715   25.5151 C   0  0  0  0  0  0  0  0  0  0  0  0
  -27.6725  -27.5302   25.8817 C   0  0  0  0  0  0  0  0  0  0  0  0
  -20.4919  -23.1490   20.8024 C   0  0  0  0  0  0  0  0  0  0  0  0
  -21.6868  -24.1555   22.6452 C   0  0  0  0  0  0  0  0  0  0  0  0
  -27.3220  -29.2239   24.2012 C   0  0  0  0  0  0  0  0  0  0  0  0
  -27.4110  -26.5406   24.9347 C   0  0  0  0  0  0  0  0  0  0  0  0
  -29.2848  -19.8509   23.1873 C   0  0  0  0  0  0  0  0  0  0  0  0
  -20.0266  -24.4063   20.4173 C   0  0  0  0  0  0  0  0  0  0  0  0
  -21.2216  -25.4129   22.2601 C   0  0  0  0  0  0  0  0  0  0  0  0
  -28.7130  -18.6112   22.9046 C   0  0  0  0  0  0  0  0  0  0  0  0
  -20.0579  -28.8444   21.9764 C   0  0  0  0  0  0  0  0  0  0  0  0
  -19.5745  -29.6904   22.9745 C   0  0  0  0  0  0  0  0  0  0  0  0
  -28.2741  -19.3356   20.6458 C   0  0  0  0  0  0  0  0  0  0  0  0
  -17.8878  -28.0565   23.5425 C   0  0  0  0  0  0  0  0  0  0  0  0
  -21.3220  -23.0236   21.9164 C   0  0  0  0  0  0  0  0  0  0  0  0
  -22.9866  -21.0907   21.8939 C   0  0  0  0  0  0  0  0  0  0  0  0
  -27.0661  -28.2379   23.2354 C   0  0  0  0  0  0  0  0  0  0  0  0
  -29.3459  -20.8478   22.2029 C   0  0  0  0  0  0  0  0  0  0  0  0
  -27.1005  -26.8803   23.6070 C   0  0  0  0  0  0  0  0  0  0  0  0
  -28.8495  -20.5862   20.9179 C   0  0  0  0  0  0  0  0  0  0  0  0
  -20.3915  -25.5382   21.1462 C   0  0  0  0  0  0  0  0  0  0  0  0
  -28.2049  -18.3544   21.6346 C   0  0  0  0  0  0  0  0  0  0  0  0
  -19.4562  -27.6044   21.7613 C   0  0  0  0  0  0  0  0  0  0  0  0
  -18.4895  -29.2965   23.7575 C   0  0  0  0  0  0  0  0  0  0  0  0
  -18.3712  -27.2105   22.5444 C   0  0  0  0  0  0  0  0  0  0  0  0
  -21.8025  -21.7250   22.3150 C   0  0  0  0  0  0  0  0  0  0  0  0
  -22.9844  -19.8863   22.5542 C   0  0  0  0  0  0  0  0  0  0  0  0
  -23.9981  -21.5491   20.9871 C   0  0  0  0  0  0  0  0  0  0  0  0
  -28.1469  -23.7758   21.8982 C   0  0  0  0  0  0  0  0  0  0  0  0
  -29.9723  -23.8227   19.2171 C   0  0  0  0  0  0  0  0  0  0  0  0
  -31.5606  -22.0625   16.7623 C   0  0  0  0  0  0  0  0  0  0  0  0
  -19.8756  -15.3340   23.9572 C   0  0  0  0  0  0  0  0  0  0  0  0
  -26.6938  -28.6689   21.8388 C   0  0  0  0  0  0  0  0  0  0  0  0
  -29.9900  -22.1704   22.5160 C   0  0  0  0  0  0  0  0  0  0  0  0
  -28.9091  -21.6156   19.8200 C   0  0  0  0  0  0  0  0  0  0  0  0
  -26.7973  -27.5482   20.8076 C   0  0  0  0  0  0  0  0  0  0  0  0
  -20.0895  -18.1798   26.3207 C   0  0  0  0  0  0  0  0  0  0  0  0
  -26.1426  -26.2753   21.3349 C   0  0  0  0  0  0  0  0  0  0  0  0
  -20.5800  -19.3165   25.4257 C   0  0  0  0  0  0  0  0  0  0  0  0
  -19.2958  -17.1418   25.5337 C   0  0  0  0  0  0  0  0  0  0  0  0
  -20.0825  -13.8686   21.9730 C   0  0  0  0  0  0  0  0  0  0  0  0
  -20.5209  -17.7246   23.4645 C   0  0  0  0  0  0  0  0  0  0  0  0
  -22.0354  -15.2209   22.6327 C   0  0  0  0  0  0  0  0  0  0  0  0
  -20.8790  -12.5804   22.1029 C   0  0  0  0  0  0  0  0  0  0  0  0
  -26.8471  -25.7771   22.6026 C   0  0  1  0  0  0  0  0  0  0  0  0
  -29.5348  -23.2915   21.5869 C   0  0  1  0  0  0  0  0  0  0  0  0
  -21.3607  -18.7659   24.2199 C   0  0  1  0  0  0  0  0  0  0  0  0
  -22.9048  -13.9633   22.7825 C   0  0  1  0  0  0  0  0  0  0  0  0
  -32.9379  -22.3782   14.6885 C   0  0  0  0  0  0  0  0  0  0  0  0
  -24.2009  -12.5665   24.4175 C   0  0  0  0  0  0  0  0  0  0  0  0
  -23.1076  -14.6958   25.1754 C   0  0  0  0  0  0  0  0  0  0  0  0
  -25.5794  -10.7156   21.6437 C   0  0  0  0  0  0  0  0  0  0  0  0
  -22.5818  -10.7067   20.7660 C   0  0  0  0  0  0  0  0  0  0  0  0
  -29.0385  -13.6814   21.7009 C   0  0  0  0  0  0  0  0  0  0  0  0
  -27.4614  -24.6091   17.6721 C   0  0  0  0  0  0  0  0  0  0  0  0
  -28.6507  -23.9857   15.5590 C   0  0  0  0  0  0  0  0  0  0  0  0
  -29.5332  -25.8308   16.9871 C   0  0  0  0  0  0  0  0  0  0  0  0
  -33.8600  -20.6093   17.9284 C   0  0  0  0  0  0  0  0  0  0  0  0
  -24.9562  -12.7433   20.3115 C   0  0  0  0  0  0  0  0  0  0  0  0
  -26.3698  -13.2926   20.1486 C   0  0  0  0  0  0  0  0  0  0  0  0
  -28.1482  -16.0172   22.0704 C   0  0  0  0  0  0  0  0  0  1  0  0
  -29.7605  -23.4385   17.7727 C   0  0  1  0  0  0  0  0  0  0  0  0
  -32.9644  -22.1682   16.1945 C   0  0  2  0  0  0  0  0  0  0  0  0
  -23.0051  -13.4977   24.2350 C   0  0  0  0  0  0  0  0  0  0  0  0
  -24.6702  -11.9542   21.6132 C   0  0  1  0  0  0  0  0  0  0  0  0
  -23.1740  -11.6235   21.8320 C   0  0  1  0  0  0  0  0  0  0  0  0
  -28.0900  -14.7619   21.2073 C   0  0  2  0  0  0  0  0  0  0  0  0
  -28.8484  -24.4471   17.0188 C   0  0  0  0  0  0  0  0  0  0  0  0
  -21.0991  -20.9848   23.1760 N   0  0  0  0  0  0  0  0  0  0  0  0
  -21.8434  -19.8729   23.3013 N   0  0  0  0  0  0  0  0  0  0  0  0
  -29.5428  -22.8956   20.1772 N   0  0  0  0  0  0  0  0  0  0  0  0
  -20.0399  -16.6673   24.3669 N   0  0  0  0  0  0  0  0  0  0  0  0
  -20.6137  -14.9178   22.8390 N   0  0  0  0  0  0  0  0  0  0  0  0
  -23.8472  -18.8480   22.5628 N   0  0  0  0  0  0  0  0  0  0  0  0
  -23.8440  -22.8109   20.3968 N   0  0  0  0  0  0  0  0  0  0  0  0
  -28.0842  -25.1071   22.2632 N   0  0  0  0  0  0  0  0  0  0  0  0
  -31.0899  -23.2854   17.1918 N   0  0  0  0  0  0  0  0  0  0  0  0
  -22.3441  -12.8777   21.8735 N   0  3  1  0  0  0  0  0  0  0  0  0
  -33.7345  -20.9252   16.4822 N   0  3  0  0  0  0  0  0  0  0  0  0
  -26.7036  -14.2197   21.2543 N   0  3  0  0  0  0  0  0  0  0  0  0
  -25.0004  -20.8533   20.6958 O   0  0  0  0  0  0  0  0  0  0  0  0
  -27.2026  -22.9995   21.8121 O   0  0  0  0  0  0  0  0  0  0  0  0
  -30.5059  -24.9025   19.4837 O   0  0  0  0  0  0  0  0  0  0  0  0
  -30.9418  -21.0020   16.8159 O   0  0  0  0  0  0  0  0  0  0  0  0
  -19.1201  -14.5611   24.5596 O   0  0  0  0  0  0  0  0  0  0  0  0
  -19.9378  -26.7653   20.7706 O   0  0  0  0  0  0  0  0  0  0  0  0
  -27.6418  -17.1373   21.3542 O   0  0  0  0  0  0  0  0  0  1  0  0
  -18.0264  -30.1084   24.7170 F   0  0  0  0  0  0  0  0  0  0  0  0
  -17.7898  -26.0200   22.3432 F   0  0  0  0  0  0  0  0  0  0  0  0
  1  2  1  0  0  0  0
  1  5  2  0  0  0  0
  2  6  2  0  0  0  0
  3  8  2  0  0  0  0
  3 15  1  0  0  0  0
  4  9  1  0  0  0  0
  4 15  2  0  0  0  0
  5 17  1  0  0  0  0
  6 19  1  0  0  0  0
  7 10  2  0  0  0  0
  7 18  1  0  0  0  0
  8 21  1  0  0  0  0
  9 21  2  0  0  0  0
 10 22  1  0  0  0  0
 11 12  2  0  0  0  0
 11 23  1  0  0  0  0
 12 24  1  0  0  0  0
 13 20  1  0  0  0  0
 13 22  2  0  0  0  0
 14 24  2  0  0  0  0
 14 25  1  0  0  0  0
 15 26  1  0  0  0  0
 16 26  1  0  0  0  0
 16 27  2  0  0  0  0
 16 28  1  0  0  0  0
 17 19  2  0  0  0  0
 17 33  1  0  0  0  0
 18 20  2  0  0  0  0
 18 34  1  0  0  0  0
 19 45  1  0  0  0  0
 20 35  1  0  0  0  0
 21 86  1  0  0  0  0
 22 87  1  0  0  0  0
 23 25  2  0  0  0  0
 23 86  1  0  0  0  0
 24 88  1  0  0  0  0
 25 89  1  0  0  0  0
 26 69  2  0  0  0  0
 27 70  1  0  0  0  0
 27 74  1  0  0  0  0
 28 75  1  0  0  0  0
 28 81  2  0  0  0  0
 29 46  1  0  0  0  0
 29 76  1  0  0  0  0
 29 82  2  0  0  0  0
 30 62  1  0  0  0  0
 30 71  1  0  0  0  0
 30 83  2  0  0  0  0
 31 63  1  0  0  0  0
 31 77  1  0  0  0  0
 31 84  2  0  0  0  0
 32 72  1  0  0  0  0
 32 73  1  0  0  0  0
 32 85  2  0  0  0  0
 33 36  1  0  0  0  0
 34 46  1  0  0  0  0
 35 71  1  0  0  0  0
 36 38  1  0  0  0  0
 37 39  1  0  0  0  0
 37 40  1  0  0  0  0
 38 45  1  0  0  0  0
 39 47  1  0  0  0  0
 40 72  1  0  0  0  0
 41 44  1  0  0  0  0
 41 73  1  0  0  0  0
 42 47  1  0  0  0  0
 42 72  1  0  0  0  0
 43 48  1  0  0  0  0
 43 73  1  0  0  0  0
 44 78  1  0  0  0  0
 45 76  1  0  0  0  0
 46 71  1  0  0  0  0
 47 70  1  0  0  0  0
 48 64  1  0  0  0  0
 48 78  1  0  0  0  0
 49 63  1  0  0  0  0
 50 64  1  0  0  0  0
 51 64  1  0  0  0  0
 52 65  1  0  0  0  0
 53 66  1  0  0  0  0
 54 67  1  0  0  0  0
 55 68  1  0  0  0  0
 56 68  1  0  0  0  0
 57 68  1  0  0  0  0
 58 79  1  0  0  0  0
 59 60  1  0  0  0  0
 59 65  1  0  0  0  0
 60 80  1  0  0  0  0
 61 67  1  0  0  0  0
 61 87  1  0  0  0  0
 62 68  1  0  0  0  0
 62 77  1  0  0  0  0
 63 79  1  0  0  0  0
 65 66  1  0  0  0  0
 66 78  1  0  0  0  0
 67 80  1  0  0  0  0
 69 70  1  0  0  0  0
M  CHG  3  78   1  79   1  80   1
M  ISO  4  32 100  61 101  73 100  87 101
M  END
> <Batch ID>
0119

> <Smiles>
CNC(C)C(=O)NC(C(=O)N1Cc2cc([101O:1][101CH2:1]C(C)NCCC(C)C(C)N3CC[100N:0]([100C:0](=O)N4CCCC(n5nc(-c6ccc(Oc7ccc(F)cc7F)cc6)c(C(N)=O)c5N)C4)CC3C(C)C)ccc2CC1C(=O)NC1CCCc2ccccc21)C(C)(C)C

> <Shape>
0.200

> <Color>
0.039

> <Negative vol penalty>
0.000

$$$$

  -OEChem-04052320203D

 82 90  0     1  0  0  0  0  0999 V2000
  -31.5421  -23.7149   23.0614 C   0  0  0  0  0  0  0  0  0  0  0  0
  -30.8122  -24.3244   22.0471 C   0  0  0  0  0  0  0  0  0  0  0  0
  -25.6913  -13.7932   21.4693 C   0  0  0  0  0  0  0  0  0  0  0  0
  -26.7227  -13.5478   19.2984 C   0  0  0  0  0  0  0  0  0  0  0  0
  -30.9145  -23.3721   24.2572 C   0  0  0  0  0  0  0  0  0  0  0  0
  -29.4575  -24.6021   22.2328 C   0  0  0  0  0  0  0  0  0  0  0  0
  -27.2132  -27.2256   18.7280 C   0  0  0  0  0  0  0  0  0  0  0  0
  -26.9239  -23.6191   14.2966 C   0  0  0  0  0  0  0  0  0  0  0  0
  -24.7128  -12.8667   21.1092 C   0  0  0  0  0  0  0  0  0  0  0  0
  -25.7442  -12.6213   18.9383 C   0  0  0  0  0  0  0  0  0  0  0  0
  -26.9128  -26.7027   17.4709 C   0  0  0  0  0  0  0  0  0  0  0  0
  -24.4362   -9.5061   20.8591 C   0  0  0  0  0  0  0  0  0  0  0  0
  -24.1086   -8.5162   21.7856 C   0  0  0  0  0  0  0  0  0  0  0  0
  -28.0832  -22.8622   14.4249 C   0  0  0  0  0  0  0  0  0  0  0  0
  -24.6022  -26.4736   18.1250 C   0  0  0  0  0  0  0  0  0  0  0  0
  -21.8246   -9.3031   21.8187 C   0  0  0  0  0  0  0  0  0  0  0  0
  -25.7404  -21.9064   15.4465 C   0  0  0  0  0  0  0  0  0  0  0  0
  -26.6962  -14.1339   20.5639 C   0  0  0  0  0  0  0  0  0  0  0  0
  -28.9438  -14.8256   21.5525 C   0  0  0  0  0  0  0  0  0  0  0  0
  -29.5485  -23.6348   24.4520 C   0  0  0  0  0  0  0  0  0  0  0  0
  -26.2107  -27.3665   19.6983 C   0  0  0  0  0  0  0  0  0  0  0  0
  -28.8116  -24.2855   23.4416 C   0  0  0  0  0  0  0  0  0  0  0  0
  -24.8919  -27.0009   19.3927 C   0  0  0  0  0  0  0  0  0  0  0  0
  -25.7261  -23.1393   14.8144 C   0  0  0  0  0  0  0  0  0  0  0  0
  -24.7393  -12.2807   19.8437 C   0  0  0  0  0  0  0  0  0  0  0  0
  -25.6077  -26.3239   17.1703 C   0  0  0  0  0  0  0  0  0  0  0  0
  -23.4581  -10.3946   20.4125 C   0  0  0  0  0  0  0  0  0  0  0  0
  -22.8027   -8.4147   22.2653 C   0  0  0  0  0  0  0  0  0  0  0  0
  -22.1522  -10.2931   20.8922 C   0  0  0  0  0  0  0  0  0  0  0  0
  -27.7069  -15.0914   20.9350 C   0  0  0  0  0  0  0  0  0  0  0  0
  -27.9920  -21.6418   15.0746 C   0  0  0  0  0  0  0  0  0  0  0  0
  -29.5307  -16.0597   21.6909 C   0  0  0  0  0  0  0  0  0  0  0  0
  -29.5116  -13.5750   21.9641 C   0  0  0  0  0  0  0  0  0  0  0  0
  -25.7070  -26.1582   22.5949 C   0  0  0  0  0  0  0  0  0  0  0  0
  -23.2140  -28.2337   22.6010 C   0  0  0  0  0  0  0  0  0  0  0  0
  -20.9758  -30.0787   20.8029 C   0  0  0  0  0  0  0  0  0  0  0  0
  -28.8914  -21.2322   18.7435 C   0  0  0  0  0  0  0  0  0  0  0  0
  -28.9216  -23.2498   25.7688 C   0  0  0  0  0  0  0  0  0  0  0  0
  -26.5459  -27.9571   21.0404 C   0  0  0  0  0  0  0  0  0  0  0  0
  -23.7755  -27.1509   20.3925 C   0  0  0  0  0  0  0  0  0  0  0  0
  -27.3994  -23.1781   25.7041 C   0  0  0  0  0  0  0  0  0  0  0  0
  -28.4380  -20.6861   22.2324 C   0  0  0  0  0  0  0  0  0  0  0  0
  -26.8466  -24.4403   25.0594 C   0  0  0  0  0  0  0  0  0  0  0  0
  -28.3108  -19.1663   22.3513 C   0  0  0  0  0  0  0  0  0  0  0  0
  -27.7804  -21.2094   20.9574 C   0  0  0  0  0  0  0  0  0  0  0  0
  -28.1101  -19.0414   19.8328 C   0  0  0  0  0  0  0  0  0  0  0  0
  -27.3299  -24.5695   23.6093 C   0  0  1  0  0  0  0  0  0  0  0  0
  -25.5451  -27.5770   22.1273 C   0  0  1  0  0  0  0  0  0  0  0  0
  -28.8071  -18.4606   21.0750 C   0  0  2  0  0  0  0  0  0  0  0  0
  -19.0360  -31.6454   21.0863 C   0  0  0  0  0  0  0  0  0  0  0  0
  -31.4418  -20.5992   16.4262 C   0  0  0  0  0  0  0  0  0  0  0  0
  -21.4121  -25.8725   23.2995 C   0  0  0  0  0  0  0  0  0  0  0  0
  -19.4425  -27.2701   22.6399 C   0  0  0  0  0  0  0  0  0  0  0  0
  -20.8947  -27.9821   24.5390 C   0  0  0  0  0  0  0  0  0  0  0  0
  -22.3996  -32.2763   19.4237 C   0  0  0  0  0  0  0  0  0  0  0  0
  -24.4504  -23.9366   14.6912 C   0  0  0  0  0  0  0  0  0  0  0  0
  -29.2165  -20.8032   15.2307 C   0  0  0  0  0  0  0  0  0  0  0  0
  -24.2375  -24.8763   15.8731 C   0  0  0  0  0  0  0  0  0  1  0  0
  -21.7676  -28.1685   22.1736 C   0  0  1  0  0  0  0  0  0  0  0  0
  -20.5430  -31.5292   20.9182 C   0  0  2  0  0  0  0  0  0  0  0  0
  -30.0017  -21.0917   16.5284 C   0  0  1  0  0  0  0  0  0  0  0  0
  -20.9004  -27.3185   23.1446 C   0  0  0  0  0  0  0  0  0  0  0  0
  -26.8465  -21.1425   15.5905 N   0  0  0  0  0  0  0  0  0  0  0  0
  -27.5180  -16.3921   20.6977 N   0  0  0  0  0  0  0  0  0  0  0  0
  -28.6440  -16.9547   21.1686 N   0  0  0  0  0  0  0  0  0  0  0  0
  -24.1547  -27.7274   21.6930 N   0  0  0  0  0  0  0  0  0  0  0  0
  -28.2958  -20.5002   19.7839 N   0  0  0  0  0  0  0  0  0  0  0  0
  -30.7135  -16.4556   22.2072 N   0  0  0  0  0  0  0  0  0  0  0  0
  -28.7743  -12.4029   21.7472 N   0  0  0  0  0  0  0  0  0  0  0  0
  -26.9600  -25.8728   23.1028 N   0  0  0  0  0  0  0  0  0  0  0  0
  -21.3222  -29.5502   22.0285 N   0  0  0  0  0  0  0  0  0  0  0  0
  -29.3592  -20.4822   17.6714 N   0  0  0  0  0  0  0  0  0  0  0  0
  -20.9395  -32.2866   19.6975 N   0  3  0  0  0  0  0  0  0  0  0  0
  -30.6321  -13.5009   22.5230 O   0  0  0  0  0  0  0  0  0  0  0  0
  -24.7644  -25.3805   22.5031 O   0  0  0  0  0  0  0  0  0  0  0  0
  -23.4993  -28.7225   23.6971 O   0  0  0  0  0  0  0  0  0  0  0  0
  -21.0003  -29.4739   19.7333 O   0  0  0  0  0  0  0  0  0  0  0  0
  -29.0032  -22.4626   18.7706 O   0  0  0  0  0  0  0  0  0  0  0  0
  -23.7847  -11.3763   19.4921 O   0  0  0  0  0  0  0  0  0  0  0  0
  -25.3119  -25.8127   15.9443 O   0  0  0  0  0  0  0  0  0  1  0  0
  -22.4879   -7.4630   23.1538 F   0  0  0  0  0  0  0  0  0  0  0  0
  -21.2080  -11.1431   20.4659 F   0  0  0  0  0  0  0  0  0  0  0  0
  1  2  1  0  0  0  0
  1  5  2  0  0  0  0
  2  6  2  0  0  0  0
  3  9  2  0  0  0  0
  3 18  1  0  0  0  0
  4 10  1  0  0  0  0
  4 18  2  0  0  0  0
  5 20  1  0  0  0  0
  6 22  1  0  0  0  0
  7 11  2  0  0  0  0
  7 21  1  0  0  0  0
  8 14  2  0  0  0  0
  8 24  1  0  0  0  0
  9 25  1  0  0  0  0
 10 25  2  0  0  0  0
 11 26  1  0  0  0  0
 12 13  2  0  0  0  0
 12 27  1  0  0  0  0
 13 28  1  0  0  0  0
 14 31  1  0  0  0  0
 15 23  1  0  0  0  0
 15 26  2  0  0  0  0
 16 28  2  0  0  0  0
 16 29  1  0  0  0  0
 17 24  2  0  0  0  0
 17 63  1  0  0  0  0
 18 30  1  0  0  0  0
 19 30  1  0  0  0  0
 19 32  2  0  0  0  0
 19 33  1  0  0  0  0
 20 22  2  0  0  0  0
 20 38  1  0  0  0  0
 21 23  2  0  0  0  0
 21 39  1  0  0  0  0
 22 47  1  0  0  0  0
 23 40  1  0  0  0  0
 24 56  1  0  0  0  0
 25 79  1  0  0  0  0
 26 80  1  0  0  0  0
 27 29  2  0  0  0  0
 27 79  1  0  0  0  0
 28 81  1  0  0  0  0
 29 82  1  0  0  0  0
 30 64  2  0  0  0  0
 31 57  1  0  0  0  0
 31 63  2  0  0  0  0
 32 65  1  0  0  0  0
 32 68  1  0  0  0  0
 33 69  1  0  0  0  0
 33 74  2  0  0  0  0
 34 48  1  0  0  0  0
 34 70  1  0  0  0  0
 34 75  2  0  0  0  0
 35 59  1  0  0  0  0
 35 66  1  0  0  0  0
 35 76  2  0  0  0  0
 36 60  1  0  0  0  0
 36 71  1  0  0  0  0
 36 77  2  0  0  0  0
 37 67  1  0  0  0  0
 37 72  1  0  0  0  0
 37 78  2  0  0  0  0
 38 41  1  0  0  0  0
 39 48  1  0  0  0  0
 40 66  1  0  0  0  0
 41 43  1  0  0  0  0
 42 44  1  0  0  0  0
 42 45  1  0  0  0  0
 43 47  1  0  0  0  0
 44 49  1  0  0  0  0
 45 67  1  0  0  0  0
 46 49  1  0  0  0  0
 46 67  1  0  0  0  0
 47 70  1  0  0  0  0
 48 66  1  0  0  0  0
 49 65  1  0  0  0  0
 50 60  1  0  0  0  0
 51 61  1  0  0  0  0
 52 62  1  0  0  0  0
 53 62  1  0  0  0  0
 54 62  1  0  0  0  0
 55 73  1  0  0  0  0
 56 58  1  0  0  0  0
 57 61  1  0  0  0  0
 58 80  1  0  0  0  0
 59 62  1  0  0  0  0
 59 71  1  0  0  0  0
 60 73  1  0  0  0  0
 61 72  1  0  0  0  0
 64 65  1  0  0  0  0
M  CHG  1  73   1
M  ISO  4  37 100  58 101  72 100  80 101
M  END
> <Batch ID>
0119

> <Smiles>
CNC(C)C(=O)NC(C(=O)N1Cc2cc([101O:1][101CH2:1]Cc3ccc(CC(C)[100NH:0][100C:0](=O)N4CCCC(n5nc(-c6ccc(Oc7ccc(F)cc7F)cc6)c(C(N)=O)c5N)C4)nc3)ccc2CC1C(=O)NC1CCCc2ccccc21)C(C)(C)C

> <Shape>
0.211

> <Color>
0.080

> <Negative vol penalty>
0.000

$$$$

  -OEChem-04052320203D

 83 91  0     1  0  0  0  0  0999 V2000
  -22.8616   -7.8488   20.5175 C   0  0  0  0  0  0  0  0  0  0  0  0
  -21.9281   -8.7774   20.0685 C   0  0  0  0  0  0  0  0  0  0  0  0
  -17.4739  -25.8912   21.7312 C   0  0  0  0  0  0  0  0  0  0  0  0
  -26.1391  -29.3634   21.2439 C   0  0  0  0  0  0  0  0  0  0  0  0
  -25.0768  -27.7202   19.8267 C   0  0  0  0  0  0  0  0  0  0  0  0
  -23.7925   -8.2121   21.4897 C   0  0  0  0  0  0  0  0  0  0  0  0
  -21.9243  -10.0697   20.5923 C   0  0  0  0  0  0  0  0  0  0  0  0
  -20.5491  -16.8471   18.7239 C   0  0  0  0  0  0  0  0  0  0  0  0
  -27.3231  -29.2220   20.5203 C   0  0  0  0  0  0  0  0  0  0  0  0
  -26.2608  -27.5789   19.1030 C   0  0  0  0  0  0  0  0  0  0  0  0
  -19.8024  -17.9487   19.1396 C   0  0  0  0  0  0  0  0  0  0  0  0
  -29.2299  -26.0031   19.4667 C   0  0  0  0  0  0  0  0  0  0  0  0
  -29.6531  -24.7092   19.1627 C   0  0  0  0  0  0  0  0  0  0  0  0
  -17.5346  -24.7547   20.8875 C   0  0  0  0  0  0  0  0  0  0  0  0
  -21.5086  -18.4870   20.7578 C   0  0  0  0  0  0  0  0  0  0  0  0
  -29.5338  -25.2240   16.8052 C   0  0  0  0  0  0  0  0  0  0  0  0
  -17.6490  -25.4527   23.0252 C   0  0  0  0  0  0  0  0  0  0  0  0
  -25.0159  -28.6124   20.8971 C   0  0  0  0  0  0  0  0  0  0  0  0
  -22.7415  -29.6581   21.3882 C   0  0  0  0  0  0  0  0  0  0  0  0
  -23.8063   -9.5123   22.0188 C   0  0  0  0  0  0  0  0  0  0  0  0
  -21.7781  -16.5505   19.3305 C   0  0  0  0  0  0  0  0  0  0  0  0
  -22.8554  -10.4503   21.5736 C   0  0  0  0  0  0  0  0  0  0  0  0
  -22.2702  -17.3826   20.3462 C   0  0  0  0  0  0  0  0  0  0  0  0
  -27.3840  -28.3298   19.4498 C   0  0  0  0  0  0  0  0  0  0  0  0
  -20.2807  -18.7671   20.1587 C   0  0  0  0  0  0  0  0  0  0  0  0
  -28.9585  -26.9074   18.4399 C   0  0  0  0  0  0  0  0  0  0  0  0
  -29.8051  -24.3197   17.8320 C   0  0  0  0  0  0  0  0  0  0  0  0
  -29.1105  -26.5179   17.1092 C   0  0  0  0  0  0  0  0  0  0  0  0
  -23.7927  -28.7576   21.6446 C   0  0  0  0  0  0  0  0  0  0  0  0
  -17.7447  -23.6562   21.6917 C   0  0  0  0  0  0  0  0  0  0  0  0
  -21.8209  -29.4012   22.3746 C   0  0  0  0  0  0  0  0  0  0  0  0
  -22.6089  -30.6391   20.3510 C   0  0  0  0  0  0  0  0  0  0  0  0
  -22.9213  -14.1002   21.0016 C   0  0  0  0  0  0  0  0  0  0  0  0
  -25.7031  -15.7548   20.7863 C   0  0  0  0  0  0  0  0  0  0  0  0
  -27.2601  -18.7606   20.3525 C   0  0  0  0  0  0  0  0  0  0  0  0
  -20.6551  -24.5631   25.7039 C   0  0  0  0  0  0  0  0  0  0  0  0
  -24.8015   -9.8446   23.1022 C   0  0  0  0  0  0  0  0  0  0  0  0
  -22.5841  -15.3740   18.8523 C   0  0  0  0  0  0  0  0  0  0  0  0
  -23.5933  -17.1192   21.0158 C   0  0  0  0  0  0  0  0  0  0  0  0
  -24.9706  -11.3438   23.3349 C   0  0  0  0  0  0  0  0  0  0  0  0
  -21.5018  -27.8161   26.8776 C   0  0  0  0  0  0  0  0  0  0  0  0
  -23.6100  -12.0287   23.4134 C   0  0  0  0  0  0  0  0  0  0  0  0
  -22.0901  -28.5075   25.6464 C   0  0  0  0  0  0  0  0  0  0  0  0
  -21.8773  -26.3367   26.9274 C   0  0  0  0  0  0  0  0  0  0  0  0
  -22.1376  -26.2646   24.4777 C   0  0  0  0  0  0  0  0  0  0  0  0
  -22.8353  -11.8691   22.0997 C   0  0  1  0  0  0  0  0  0  0  0  0
  -23.5802  -14.8699   19.8920 C   0  0  1  0  0  0  0  0  0  0  0  0
  -21.7396  -27.7454   24.3543 C   0  0  2  0  0  0  0  0  0  0  0  0
  -16.5467  -21.4514   21.4257 C   0  0  0  0  0  0  0  0  0  0  0  0
  -29.5412  -19.8027   20.2632 C   0  0  0  0  0  0  0  0  0  0  0  0
  -25.9076  -15.5619   23.8246 C   0  0  0  0  0  0  0  0  0  0  0  0
  -27.6270  -17.3804   23.7546 C   0  0  0  0  0  0  0  0  0  0  0  0
  -28.0645  -15.2080   22.6092 C   0  0  0  0  0  0  0  0  0  0  0  0
  -26.8577  -19.6810   17.5687 C   0  0  0  0  0  0  0  0  0  0  0  0
  -18.0235  -23.2605   24.1532 C   0  0  0  0  0  0  0  0  0  0  0  0
  -19.4830  -22.8537   24.3389 C   0  0  0  0  0  0  0  0  0  0  0  0
  -18.7247  -20.4740   19.5918 C   0  0  0  0  0  0  0  0  0  1  0  0
  -17.8903  -22.1876   21.3195 C   0  0  1  0  0  0  0  0  0  0  0  0
  -26.3833  -16.8153   21.6180 C   0  0  1  0  0  0  0  0  0  0  0  0
  -28.4129  -19.1779   19.4573 C   0  0  2  0  0  0  0  0  0  0  0  0
  -18.5529  -21.9530   19.9403 C   0  0  1  0  0  0  0  0  0  0  0  0
  -26.9697  -16.2455   22.9405 C   0  0  0  0  0  0  0  0  0  0  0  0
  -23.5625  -27.9863   22.7106 N   0  0  0  0  0  0  0  0  0  0  0  0
  -17.8123  -24.0925   22.9891 N   0  0  0  0  0  0  0  0  0  0  0  0
  -22.3560  -28.4016   23.1327 N   0  0  0  0  0  0  0  0  0  0  0  0
  -24.3414  -15.9533   20.5174 N   0  0  0  0  0  0  0  0  0  0  0  0
  -21.5171  -25.6717   25.6728 N   0  0  0  0  0  0  0  0  0  0  0  0
  -20.6141  -29.9352   22.6590 N   0  0  0  0  0  0  0  0  0  0  0  0
  -23.6480  -30.7715   19.4198 N   0  0  0  0  0  0  0  0  0  0  0  0
  -23.3397  -12.7869   21.1008 N   0  0  0  0  0  0  0  0  0  0  0  0
  -27.3715  -17.4445   20.7485 N   0  0  0  0  0  0  0  0  0  0  0  0
  -20.3599  -23.9958   24.4703 N   0  0  0  0  0  0  0  0  0  0  0  0
  -27.9508  -20.1713   18.4471 N   0  3  0  0  0  0  0  0  0  0  0  0
  -21.6062  -31.3876   20.2625 O   0  0  0  0  0  0  0  0  0  0  0  0
  -22.0957  -14.6569   21.7157 O   0  0  0  0  0  0  0  0  0  0  0  0
  -26.3575  -14.7897   20.3839 O   0  0  0  0  0  0  0  0  0  0  0  0
  -26.3536  -19.5266   20.6718 O   0  0  0  0  0  0  0  0  0  0  0  0
  -20.1793  -24.1154   26.7528 O   0  0  0  0  0  0  0  0  0  0  0  0
  -19.8257  -22.5967   19.8826 O   0  0  0  0  0  0  0  0  0  0  0  0
  -28.5391  -28.1918   18.7433 O   0  0  0  0  0  0  0  0  0  0  0  0
  -19.5535  -19.8425   20.5668 O   0  0  0  0  0  0  0  0  0  1  0  0
  -30.2131  -23.0777   17.5403 F   0  0  0  0  0  0  0  0  0  0  0  0
  -28.8525  -27.3826   16.1185 F   0  0  0  0  0  0  0  0  0  0  0  0
  1  2  1  0  0  0  0
  1  6  2  0  0  0  0
  2  7  2  0  0  0  0
  3 14  1  0  0  0  0
  3 17  2  0  0  0  0
  4  9  2  0  0  0  0
  4 18  1  0  0  0  0
  5 10  1  0  0  0  0
  5 18  2  0  0  0  0
  6 20  1  0  0  0  0
  7 22  1  0  0  0  0
  8 11  2  0  0  0  0
  8 21  1  0  0  0  0
  9 24  1  0  0  0  0
 10 24  2  0  0  0  0
 11 25  1  0  0  0  0
 12 13  2  0  0  0  0
 12 26  1  0  0  0  0
 13 27  1  0  0  0  0
 14 30  2  0  0  0  0
 15 23  1  0  0  0  0
 15 25  2  0  0  0  0
 16 27  2  0  0  0  0
 16 28  1  0  0  0  0
 17 64  1  0  0  0  0
 18 29  1  0  0  0  0
 19 29  1  0  0  0  0
 19 31  2  0  0  0  0
 19 32  1  0  0  0  0
 20 22  2  0  0  0  0
 20 37  1  0  0  0  0
 21 23  2  0  0  0  0
 21 38  1  0  0  0  0
 22 46  1  0  0  0  0
 23 39  1  0  0  0  0
 24 80  1  0  0  0  0
 25 81  1  0  0  0  0
 26 28  2  0  0  0  0
 26 80  1  0  0  0  0
 27 82  1  0  0  0  0
 28 83  1  0  0  0  0
 29 63  2  0  0  0  0
 30 58  1  0  0  0  0
 30 64  1  0  0  0  0
 31 65  1  0  0  0  0
 31 68  1  0  0  0  0
 32 69  1  0  0  0  0
 32 74  2  0  0  0  0
 33 47  1  0  0  0  0
 33 70  1  0  0  0  0
 33 75  2  0  0  0  0
 34 59  1  0  0  0  0
 34 66  1  0  0  0  0
 34 76  2  0  0  0  0
 35 60  1  0  0  0  0
 35 71  1  0  0  0  0
 35 77  2  0  0  0  0
 36 67  1  0  0  0  0
 36 72  1  0  0  0  0
 36 78  2  0  0  0  0
 37 40  1  0  0  0  0
 38 47  1  0  0  0  0
 39 66  1  0  0  0  0
 40 42  1  0  0  0  0
 41 43  1  0  0  0  0
 41 44  1  0  0  0  0
 42 46  1  0  0  0  0
 43 48  1  0  0  0  0
 44 67  1  0  0  0  0
 45 48  1  0  0  0  0
 45 67  1  0  0  0  0
 46 70  1  0  0  0  0
 47 66  1  0  0  0  0
 48 65  1  0  0  0  0
 49 58  1  0  0  0  0
 50 60  1  0  0  0  0
 51 62  1  0  0  0  0
 52 62  1  0  0  0  0
 53 62  1  0  0  0  0
 54 73  1  0  0  0  0
 55 56  1  0  0  0  0
 55 64  1  0  0  0  0
 56 72  1  0  0  0  0
 57 61  1  0  0  0  0
 57 81  1  0  0  0  0
 58 61  1  0  0  0  0
 59 62  1  0  0  0  0
 59 71  1  0  0  0  0
 60 73  1  0  0  0  0
 61 79  1  0  0  0  0
 63 65  1  0  0  0  0
M  CHG  1  73   1
M  ISO  4  36 100  57 101  72 100  81 101
M  END
> <Batch ID>
0119

> <Smiles>
CNC(C)C(=O)NC(C(=O)N1Cc2cc([101O:1][101CH2:1]C(O)C(C)c3cccn3CC[100NH:0][100C:0](=O)N3CCCC(n4nc(-c5ccc(Oc6ccc(F)cc6F)cc5)c(C(N)=O)c4N)C3)ccc2CC1C(=O)NC1CCCc2ccccc21)C(C)(C)C

> <Shape>
0.212

> <Color>
0.061

> <Negative vol penalty>
0.000

$$$$

  -OEChem-04052320203D

 80 88  0     1  0  0  0  0  0999 V2000
  -20.8634  -20.2866   21.4228 C   0  0  0  0  0  0  0  0  0  0  0  0
  -22.2015  -20.4725   21.0907 C   0  0  0  0  0  0  0  0  0  0  0  0
  -27.7383  -15.1300   19.4018 C   0  0  0  0  0  0  0  0  0  0  0  0
  -25.7141  -15.9891   20.4026 C   0  0  0  0  0  0  0  0  0  0  0  0
  -19.9784  -21.3629   21.3747 C   0  0  0  0  0  0  0  0  0  0  0  0
  -22.6552  -21.7347   20.7093 C   0  0  0  0  0  0  0  0  0  0  0  0
  -28.1485  -24.1789   21.8735 C   0  0  0  0  0  0  0  0  0  0  0  0
  -27.3682  -13.8351   19.7649 C   0  0  0  0  0  0  0  0  0  0  0  0
  -25.3440  -14.6942   20.7657 C   0  0  0  0  0  0  0  0  0  0  0  0
  -29.3075  -24.2895   21.1065 C   0  0  0  0  0  0  0  0  0  0  0  0
  -23.9873  -11.9824   19.2737 C   0  0  0  0  0  0  0  0  0  0  0  0
  -22.6669  -11.5980   19.0409 C   0  0  0  0  0  0  0  0  0  0  0  0
  -28.6559  -26.5187   20.4542 C   0  0  0  0  0  0  0  0  0  0  0  0
  -22.3687  -11.1914   21.4037 C   0  0  0  0  0  0  0  0  0  0  0  0
  -26.9112  -16.2070   19.7208 C   0  0  0  0  0  0  0  0  0  0  0  0
  -28.4522  -18.2399   19.7410 C   0  0  0  0  0  0  0  0  0  0  0  0
  -20.4235  -22.6410   21.0019 C   0  0  0  0  0  0  0  0  0  0  0  0
  -27.2276  -25.2350   21.9279 C   0  0  0  0  0  0  0  0  0  0  0  0
  -21.7751  -22.8288   20.6550 C   0  0  0  0  0  0  0  0  0  0  0  0
  -27.4872  -26.4199   21.2246 C   0  0  0  0  0  0  0  0  0  0  0  0
  -26.1711  -13.6171   20.4468 C   0  0  0  0  0  0  0  0  0  0  0  0
  -29.5600  -25.4584   20.3944 C   0  0  0  0  0  0  0  0  0  0  0  0
  -24.4986  -11.9711   20.5714 C   0  0  0  0  0  0  0  0  0  0  0  0
  -21.8575  -11.2026   20.1059 C   0  0  0  0  0  0  0  0  0  0  0  0
  -23.6893  -11.5756   21.6364 C   0  0  0  0  0  0  0  0  0  0  0  0
  -27.2932  -17.5450   19.3465 C   0  0  0  0  0  0  0  0  0  0  0  0
  -28.3478  -19.4613   19.1214 C   0  0  0  0  0  0  0  0  0  0  0  0
  -29.5270  -17.8191   20.5915 C   0  0  0  0  0  0  0  0  0  0  0  0
  -24.1799  -25.5984   21.1012 C   0  0  0  0  0  0  0  0  0  0  0  0
  -24.5453  -28.4928   22.5194 C   0  0  0  0  0  0  0  0  0  0  0  0
  -26.6497  -30.9962   23.4948 C   0  0  0  0  0  0  0  0  0  0  0  0
  -27.2018  -22.5516   14.6179 C   0  0  0  0  0  0  0  0  0  0  0  0
  -19.4198  -23.7637   20.9191 C   0  0  0  0  0  0  0  0  0  0  0  0
  -25.9952  -25.1101   22.7812 C   0  0  0  0  0  0  0  0  0  0  0  0
  -26.5403  -27.5904   21.2660 C   0  0  0  0  0  0  0  0  0  0  0  0
  -20.0587  -25.1492   20.8665 C   0  0  0  0  0  0  0  0  0  0  0  0
  -24.4636  -21.5944   16.6824 C   0  0  0  0  0  0  0  0  0  0  0  0
  -21.2039  -25.1711   19.8592 C   0  0  0  0  0  0  0  0  0  0  0  0
  -25.0495  -20.5091   17.5872 C   0  0  0  0  0  0  0  0  0  0  0  0
  -32.6045  -23.4898   17.1552 C   0  0  0  0  0  0  0  0  0  0  0  0
  -25.0434  -21.5265   15.2713 C   0  0  0  0  0  0  0  0  0  0  0  0
  -27.1027  -20.4637   16.1103 C   0  0  0  0  0  0  0  0  0  0  0  0
  -31.9333  -24.0530   15.9108 C   0  0  0  0  0  0  0  0  0  0  0  0
  -30.2023  -25.1678   17.3329 C   0  0  0  0  0  0  0  0  0  0  0  0
  -22.3104  -24.1882   20.2604 C   0  0  1  0  0  0  0  0  0  0  0  0
  -24.8745  -26.0528   22.3537 C   0  0  1  0  0  0  0  0  0  0  0  0
  -32.3680  -24.3755   18.3838 C   0  0  1  0  0  0  0  0  0  0  0  0
  -26.5897  -20.5269   17.5591 C   0  0  2  0  0  0  0  0  0  0  0  0
  -30.8660  -24.6223   18.5924 C   0  0  1  0  0  0  0  0  0  1  0  0
  -33.0104  -23.7504   19.6246 C   0  0  0  0  0  0  0  0  0  0  0  0
  -26.6513  -33.2515   24.5953 C   0  0  0  0  0  0  0  0  0  0  0  0
  -23.4958  -29.7476   19.9438 C   0  0  0  0  0  0  0  0  0  0  0  0
  -24.4006  -31.9462   20.7285 C   0  0  0  0  0  0  0  0  0  0  0  0
  -22.6235  -30.7902   22.0430 C   0  0  0  0  0  0  0  0  0  0  0  0
  -28.3491  -30.0378   25.7202 C   0  0  0  0  0  0  0  0  0  0  0  0
  -29.4388  -23.4709   14.0609 C   0  0  0  0  0  0  0  0  0  0  0  0
  -29.7242  -24.6748   14.9392 C   0  0  0  0  0  0  0  0  0  0  0  0
  -24.9758  -29.8636   22.0562 C   0  0  1  0  0  0  0  0  0  0  0  0
  -26.7780  -31.7507   24.8058 C   0  0  2  0  0  0  0  0  0  0  0  0
  -23.8910  -30.5643   21.1903 C   0  0  0  0  0  0  0  0  0  0  0  0
  -26.5101  -18.2650   18.5389 N   0  0  0  0  0  0  0  0  0  0  0  0
  -27.1781  -19.4252   18.4210 N   0  0  0  0  0  0  0  0  0  0  0  0
  -25.3460  -27.4174   22.1094 N   0  0  0  0  0  0  0  0  0  0  0  0
  -26.5075  -21.5490   15.3148 N   0  0  0  0  0  0  0  0  0  0  0  0
  -29.1434  -20.5519   19.1129 N   0  0  0  0  0  0  0  0  0  0  0  0
  -29.4275  -18.0684   21.9671 N   0  0  0  0  0  0  0  0  0  0  0  0
  -23.1178  -24.7434   21.3254 N   0  0  0  0  0  0  0  0  0  0  0  0
  -25.3499  -30.6017   23.2577 N   0  0  0  0  0  0  0  0  0  0  0  0
  -28.5870  -22.5039   14.7168 N   0  0  0  0  0  0  0  0  0  0  0  0
  -30.4602  -24.2390   16.1763 N   0  3  1  0  0  0  0  0  0  0  0  0
  -28.1003  -31.4744   25.4352 N   0  3  0  0  0  0  0  0  0  0  0  0
  -30.5530  -17.2538   20.1427 O   0  0  0  0  0  0  0  0  0  0  0  0
  -24.5772  -25.9954   20.0121 O   0  0  0  0  0  0  0  0  0  0  0  0
  -23.5398  -28.3811   23.2252 O   0  0  0  0  0  0  0  0  0  0  0  0
  -27.6061  -30.7817   22.7534 O   0  0  0  0  0  0  0  0  0  0  0  0
  -26.6295  -23.4278   13.9608 O   0  0  0  0  0  0  0  0  0  0  0  0
  -25.8095  -12.3537   20.8010 O   0  0  0  0  0  0  0  0  0  0  0  0
  -30.6902  -25.5688   19.6445 O   0  0  0  0  0  0  0  0  0  1  0  0
  -20.5890  -10.8350   19.8824 F   0  0  0  0  0  0  0  0  0  0  0  0
  -24.1744  -11.5639   22.8856 F   0  0  0  0  0  0  0  0  0  0  0  0
  1  2  1  0  0  0  0
  1  5  2  0  0  0  0
  2  6  2  0  0  0  0
  3  8  2  0  0  0  0
  3 15  1  0  0  0  0
  4  9  1  0  0  0  0
  4 15  2  0  0  0  0
  5 17  1  0  0  0  0
  6 19  1  0  0  0  0
  7 10  2  0  0  0  0
  7 18  1  0  0  0  0
  8 21  1  0  0  0  0
  9 21  2  0  0  0  0
 10 22  1  0  0  0  0
 11 12  2  0  0  0  0
 11 23  1  0  0  0  0
 12 24  1  0  0  0  0
 13 20  1  0  0  0  0
 13 22  2  0  0  0  0
 14 24  2  0  0  0  0
 14 25  1  0  0  0  0
 15 26  1  0  0  0  0
 16 26  1  0  0  0  0
 16 27  2  0  0  0  0
 16 28  1  0  0  0  0
 17 19  2  0  0  0  0
 17 33  1  0  0  0  0
 18 20  2  0  0  0  0
 18 34  1  0  0  0  0
 19 45  1  0  0  0  0
 20 35  1  0  0  0  0
 21 77  1  0  0  0  0
 22 78  1  0  0  0  0
 23 25  2  0  0  0  0
 23 77  1  0  0  0  0
 24 79  1  0  0  0  0
 25 80  1  0  0  0  0
 26 61  2  0  0  0  0
 27 62  1  0  0  0  0
 27 65  1  0  0  0  0
 28 66  1  0  0  0  0
 28 72  2  0  0  0  0
 29 46  1  0  0  0  0
 29 67  1  0  0  0  0
 29 73  2  0  0  0  0
 30 58  1  0  0  0  0
 30 63  1  0  0  0  0
 30 74  2  0  0  0  0
 31 59  1  0  0  0  0
 31 68  1  0  0  0  0
 31 75  2  0  0  0  0
 32 64  1  0  0  0  0
 32 69  1  0  0  0  0
 32 76  2  0  0  0  0
 33 36  1  0  0  0  0
 34 46  1  0  0  0  0
 35 63  1  0  0  0  0
 36 38  1  0  0  0  0
 37 39  1  0  0  0  0
 37 41  1  0  0  0  0
 38 45  1  0  0  0  0
 39 48  1  0  0  0  0
 40 43  1  0  0  0  0
 40 47  1  0  0  0  0
 41 64  1  0  0  0  0
 42 48  1  0  0  0  0
 42 64  1  0  0  0  0
 43 70  1  0  0  0  0
 44 49  1  0  0  0  0
 44 70  1  0  0  0  0
 45 67  1  0  0  0  0
 46 63  1  0  0  0  0
 47 49  1  0  0  0  0
 47 50  1  0  0  0  0
 48 62  1  0  0  0  0
 49 78  1  0  0  0  0
 51 59  1  0  0  0  0
 52 60  1  0  0  0  0
 53 60  1  0  0  0  0
 54 60  1  0  0  0  0
 55 71  1  0  0  0  0
 56 57  1  0  0  0  0
 56 69  1  0  0  0  0
 57 70  1  0  0  0  0
 58 60  1  0  0  0  0
 58 68  1  0  0  0  0
 59 71  1  0  0  0  0
 61 62  1  0  0  0  0
M  CHG  2  70   1  71   1
M  ISO  4  32 100  49 101  69 100  78 101
M  END
> <Batch ID>
0119

> <Smiles>
CNC(C)C(=O)NC(C(=O)N1Cc2cc([101O:1][101CH:1]3CN(CC[100NH:0][100C:0](=O)N4CCCC(n5nc(-c6ccc(Oc7ccc(F)cc7F)cc6)c(C(N)=O)c5N)C4)CCC3C)ccc2CC1C(=O)NC1CCCc2ccccc21)C(C)(C)C

> <Shape>
0.222

> <Color>
0.068

> <Negative vol penalty>
0.000

$$$$

  -OEChem-04052320203D

 85 93  0     1  0  0  0  0  0999 V2000
  -26.1520  -36.5816   20.8972 C   0  0  0  0  0  0  0  0  0  0  0  0
  -27.2049  -35.6875   20.7318 C   0  0  0  0  0  0  0  0  0  0  0  0
  -23.7695   -9.5784   20.5801 C   0  0  0  0  0  0  0  0  0  0  0  0
  -24.3492  -10.1860   22.8454 C   0  0  0  0  0  0  0  0  0  0  0  0
  -24.9848  -36.1711   21.5399 C   0  0  0  0  0  0  0  0  0  0  0  0
  -27.0916  -34.3825   21.2101 C   0  0  0  0  0  0  0  0  0  0  0  0
  -29.1684  -27.6905   19.7202 C   0  0  0  0  0  0  0  0  0  0  0  0
  -23.2753   -8.3558   21.0344 C   0  0  0  0  0  0  0  0  0  0  0  0
  -23.8549   -8.9633   23.2998 C   0  0  0  0  0  0  0  0  0  0  0  0
  -29.7903  -26.5968   20.3209 C   0  0  0  0  0  0  0  0  0  0  0  0
  -20.4737   -7.2051   22.5377 C   0  0  0  0  0  0  0  0  0  0  0  0
  -19.2442   -6.7767   22.0374 C   0  0  0  0  0  0  0  0  0  0  0  0
  -27.6962  -25.9761   21.3449 C   0  0  0  0  0  0  0  0  0  0  0  0
  -20.2987   -4.7959   21.1420 C   0  0  0  0  0  0  0  0  0  0  0  0
  -24.3065  -10.4936   21.4856 C   0  0  0  0  0  0  0  0  0  0  0  0
  -24.1052  -12.9624   20.8759 C   0  0  0  0  0  0  0  0  0  0  0  0
  -24.8534  -34.8576   22.0178 C   0  0  0  0  0  0  0  0  0  0  0  0
  -27.8059  -27.9418   19.9364 C   0  0  0  0  0  0  0  0  0  0  0  0
  -25.9221  -33.9545   21.8610 C   0  0  0  0  0  0  0  0  0  0  0  0
  -27.0588  -27.0722   20.7437 C   0  0  0  0  0  0  0  0  0  0  0  0
  -23.3180   -8.0482   22.3943 C   0  0  0  0  0  0  0  0  0  0  0  0
  -29.0549  -25.7410   21.1357 C   0  0  0  0  0  0  0  0  0  0  0  0
  -21.6158   -6.4290   22.3401 C   0  0  0  0  0  0  0  0  0  0  0  0
  -19.1567   -5.5721   21.3396 C   0  0  0  0  0  0  0  0  0  0  0  0
  -21.5283   -5.2244   21.6422 C   0  0  0  0  0  0  0  0  0  0  0  0
  -24.8177  -11.7565   21.0168 C   0  0  0  0  0  0  0  0  0  0  0  0
  -25.0333  -13.8559   20.3996 C   0  0  0  0  0  0  0  0  0  0  0  0
  -22.7276  -13.2493   21.1509 C   0  0  0  0  0  0  0  0  0  0  0  0
  -26.1416  -30.3201   21.2317 C   0  0  0  0  0  0  0  0  0  0  0  0
  -23.6029  -28.6054   20.1653 C   0  0  0  0  0  0  0  0  0  0  0  0
  -22.3391  -25.5755   19.2331 C   0  0  0  0  0  0  0  0  0  0  0  0
  -31.0032  -14.1221   20.7738 C   0  0  0  0  0  0  0  0  0  0  0  0
  -23.5909  -34.4737   22.7480 C   0  0  0  0  0  0  0  0  0  0  0  0
  -27.1438  -29.1106   19.2597 C   0  0  0  0  0  0  0  0  0  0  0  0
  -25.5887  -27.2864   20.9914 C   0  0  0  0  0  0  0  0  0  0  0  0
  -23.4059  -32.9654   22.8931 C   0  0  0  0  0  0  0  0  0  0  0  0
  -29.0452  -14.0595   17.8008 C   0  0  0  0  0  0  0  0  0  0  0  0
  -24.7014  -32.3114   23.3630 C   0  0  0  0  0  0  0  0  0  0  0  0
  -27.6754  -13.5710   18.2752 C   0  0  0  0  0  0  0  0  0  0  0  0
  -30.1815  -13.3768   18.5589 C   0  0  0  0  0  0  0  0  0  0  0  0
  -28.7189  -12.9799   20.5024 C   0  0  0  0  0  0  0  0  0  0  0  0
  -30.8554  -19.8524   23.3025 C   0  0  0  0  0  0  0  0  0  0  0  0
  -25.8276  -32.5234   22.3441 C   0  0  1  0  0  0  0  0  0  0  0  0
  -25.8678  -29.5637   19.9626 C   0  0  1  0  0  0  0  0  0  0  0  0
  -29.7656  -19.7688   22.2420 C   0  0  1  0  0  0  0  0  0  0  0  0
  -29.0208  -18.4882   22.6333 C   0  0  2  0  0  0  0  0  0  0  0  0
  -27.5401  -13.6810   19.8058 C   0  0  2  0  0  0  0  0  0  0  0  0
  -30.1737  -17.5301   22.9460 C   0  0  2  0  0  0  0  0  0  0  0  0
  -28.0992  -17.9610   21.5417 C   0  0  0  0  0  0  0  0  0  0  0  0
  -20.2216  -24.4817   18.4472 C   0  0  0  0  0  0  0  0  0  0  0  0
  -30.6146  -14.4477   25.3155 C   0  0  0  0  0  0  0  0  0  0  0  0
  -22.4949  -28.7148   23.0061 C   0  0  0  0  0  0  0  0  0  0  0  0
  -20.9313  -26.8581   22.3932 C   0  0  0  0  0  0  0  0  0  0  0  0
  -20.7894  -29.0483   21.2076 C   0  0  0  0  0  0  0  0  0  0  0  0
  -23.5821  -24.7372   16.6813 C   0  0  0  0  0  0  0  0  0  0  0  0
  -28.8925  -21.0130   22.2154 C   0  0  0  0  0  0  0  0  0  0  0  0
  -29.7171  -22.2698   21.9526 C   0  0  0  0  0  0  0  0  0  0  0  0
  -31.6819  -14.8252   23.0551 C   0  0  0  0  0  0  0  0  0  0  0  0
  -28.8515  -23.5228   21.9688 C   0  0  0  0  0  0  0  0  0  1  0  0
  -22.7381  -27.5079   20.7367 C   0  0  1  0  0  0  0  0  0  0  0  0
  -21.5194  -25.1539   18.0269 C   0  0  2  0  0  0  0  0  0  0  0  0
  -29.8178  -16.4040   23.8987 C   0  0  1  0  0  0  0  0  0  0  0  0
  -31.0177  -15.4971   24.2678 C   0  0  1  0  0  0  0  0  0  0  0  0
  -21.7666  -28.0290   21.8330 C   0  0  0  0  0  0  0  0  0  0  0  0
  -26.0995  -11.8700   20.6589 N   0  0  0  0  0  0  0  0  0  0  0  0
  -26.1997  -13.1580   20.2883 N   0  0  0  0  0  0  0  0  0  0  0  0
  -24.9881  -28.4466   20.3125 N   0  0  0  0  0  0  0  0  0  0  0  0
  -29.9942  -13.5192   20.0048 N   0  0  0  0  0  0  0  0  0  0  0  0
  -24.9572  -15.1627   20.0694 N   0  0  0  0  0  0  0  0  0  0  0  0
  -21.9138  -12.2163   21.6355 N   0  0  0  0  0  0  0  0  0  0  0  0
  -25.6727  -31.6199   21.2242 N   0  0  0  0  0  0  0  0  0  0  0  0
  -22.0744  -26.8778   19.6006 N   0  0  0  0  0  0  0  0  0  0  0  0
  -30.7428  -14.2234   22.1349 N   0  0  0  0  0  0  0  0  0  0  0  0
  -31.2161  -18.4200   23.5776 N   0  3  0  0  0  0  0  0  0  0  0  0
  -22.2921  -24.1983   17.1838 N   0  3  0  0  0  0  0  0  0  0  0  0
  -22.2291  -14.3839   20.9568 O   0  0  0  0  0  0  0  0  0  0  0  0
  -26.7330  -29.7650   22.1503 O   0  0  0  0  0  0  0  0  0  0  0  0
  -23.0692  -29.5646   19.6025 O   0  0  0  0  0  0  0  0  0  0  0  0
  -23.1319  -24.8234   19.7954 O   0  0  0  0  0  0  0  0  0  0  0  0
  -32.0558  -14.5440   20.2829 O   0  0  0  0  0  0  0  0  0  0  0  0
  -29.3075  -16.9846   25.1040 O   0  0  0  0  0  0  0  0  0  0  0  0
  -22.8356   -6.8553   22.8380 O   0  0  0  0  0  0  0  0  0  0  0  0
  -29.6596  -24.6732   21.7238 O   0  0  0  0  0  0  0  0  0  1  0  0
  -17.9756   -5.1600   20.8606 F   0  0  0  0  0  0  0  0  0  0  0  0
  -22.6218   -4.4739   21.4503 F   0  0  0  0  0  0  0  0  0  0  0  0
  1  2  1  0  0  0  0
  1  5  2  0  0  0  0
  2  6  2  0  0  0  0
  3  8  2  0  0  0  0
  3 15  1  0  0  0  0
  4  9  1  0  0  0  0
  4 15  2  0  0  0  0
  5 17  1  0  0  0  0
  6 19  1  0  0  0  0
  7 10  2  0  0  0  0
  7 18  1  0  0  0  0
  8 21  1  0  0  0  0
  9 21  2  0  0  0  0
 10 22  1  0  0  0  0
 11 12  2  0  0  0  0
 11 23  1  0  0  0  0
 12 24  1  0  0  0  0
 13 20  1  0  0  0  0
 13 22  2  0  0  0  0
 14 24  2  0  0  0  0
 14 25  1  0  0  0  0
 15 26  1  0  0  0  0
 16 26  1  0  0  0  0
 16 27  2  0  0  0  0
 16 28  1  0  0  0  0
 17 19  2  0  0  0  0
 17 33  1  0  0  0  0
 18 20  2  0  0  0  0
 18 34  1  0  0  0  0
 19 43  1  0  0  0  0
 20 35  1  0  0  0  0
 21 82  1  0  0  0  0
 22 83  1  0  0  0  0
 23 25  2  0  0  0  0
 23 82  1  0  0  0  0
 24 84  1  0  0  0  0
 25 85  1  0  0  0  0
 26 65  2  0  0  0  0
 27 66  1  0  0  0  0
 27 69  1  0  0  0  0
 28 70  1  0  0  0  0
 28 76  2  0  0  0  0
 29 44  1  0  0  0  0
 29 71  1  0  0  0  0
 29 77  2  0  0  0  0
 30 60  1  0  0  0  0
 30 67  1  0  0  0  0
 30 78  2  0  0  0  0
 31 61  1  0  0  0  0
 31 72  1  0  0  0  0
 31 79  2  0  0  0  0
 32 68  1  0  0  0  0
 32 73  1  0  0  0  0
 32 80  2  0  0  0  0
 33 36  1  0  0  0  0
 34 44  1  0  0  0  0
 35 67  1  0  0  0  0
 36 38  1  0  0  0  0
 37 39  1  0  0  0  0
 37 40  1  0  0  0  0
 38 43  1  0  0  0  0
 39 47  1  0  0  0  0
 40 68  1  0  0  0  0
 41 47  1  0  0  0  0
 41 68  1  0  0  0  0
 42 45  1  0  0  0  0
 42 74  1  0  0  0  0
 43 71  1  0  0  0  0
 44 67  1  0  0  0  0
 45 46  1  0  0  0  0
 45 56  1  0  0  0  0
 46 48  1  0  0  0  0
 46 49  1  0  0  0  0
 47 66  1  0  0  0  0
 48 62  1  0  0  0  0
 48 74  1  0  0  0  0
 50 61  1  0  0  0  0
 51 63  1  0  0  0  0
 52 64  1  0  0  0  0
 53 64  1  0  0  0  0
 54 64  1  0  0  0  0
 55 75  1  0  0  0  0
 56 57  1  0  0  0  0
 57 59  1  0  0  0  0
 58 63  1  0  0  0  0
 58 73  1  0  0  0  0
 59 83  1  0  0  0  0
 60 64  1  0  0  0  0
 60 72  1  0  0  0  0
 61 75  1  0  0  0  0
 62 63  1  0  0  0  0
 62 81  1  0  0  0  0
 65 66  1  0  0  0  0
M  CHG  2  74   1  75   1
M  ISO  4  32 100  59 101  73 100  83 101
M  END
> <Batch ID>
0119

> <Smiles>
CNC(C)C(=O)NC(C(=O)N1Cc2cc([101O:1][101CH2:1]CCC3CNC(C(O)C(C)C[100NH:0][100C:0](=O)N4CCCC(n5nc(-c6ccc(Oc7ccc(F)cc7F)cc6)c(C(N)=O)c5N)C4)C3C)ccc2CC1C(=O)NC1CCCc2ccccc21)C(C)(C)C

> <Shape>
0.306

> <Color>
0.145

> <Negative vol penalty>
0.000

$$$$

  -OEChem-04052320203D

 80 88  0     1  0  0  0  0  0999 V2000
  -26.0928  -23.3949   16.9178 C   0  0  0  0  0  0  0  0  0  0  0  0
  -25.4212  -24.1314   17.8884 C   0  0  0  0  0  0  0  0  0  0  0  0
  -27.6191  -19.1510   22.1252 C   0  0  0  0  0  0  0  0  0  0  0  0
  -27.9341  -20.6349   20.2448 C   0  0  0  0  0  0  0  0  0  0  0  0
  -27.4849  -23.3218   16.9389 C   0  0  0  0  0  0  0  0  0  0  0  0
  -26.1415  -24.7944   18.8814 C   0  0  0  0  0  0  0  0  0  0  0  0
  -24.4764  -29.5118   19.6675 C   0  0  0  0  0  0  0  0  0  0  0  0
  -28.6204  -18.3142   21.6326 C   0  0  0  0  0  0  0  0  0  0  0  0
  -28.9354  -19.7981   19.7522 C   0  0  0  0  0  0  0  0  0  0  0  0
  -23.3138  -29.6591   20.4227 C   0  0  0  0  0  0  0  0  0  0  0  0
  -28.9336  -15.9454   19.2419 C   0  0  0  0  0  0  0  0  0  0  0  0
  -28.6865  -14.5726   19.2388 C   0  0  0  0  0  0  0  0  0  0  0  0
  -19.0490  -28.8870   22.8831 C   0  0  0  0  0  0  0  0  0  0  0  0
  -24.6470  -30.2027   22.3582 C   0  0  0  0  0  0  0  0  0  0  0  0
  -20.8179  -27.2698   23.0837 C   0  0  0  0  0  0  0  0  0  0  0  0
  -30.5967  -14.2255   20.6768 C   0  0  0  0  0  0  0  0  0  0  0  0
  -18.4344  -28.0241   21.9901 C   0  0  0  0  0  0  0  0  0  0  0  0
  -27.2759  -20.3114   21.4313 C   0  0  0  0  0  0  0  0  0  0  0  0
  -26.3979  -22.2614   22.8220 C   0  0  0  0  0  0  0  0  0  0  0  0
  -28.2231  -23.9922   17.9270 C   0  0  0  0  0  0  0  0  0  0  0  0
  -25.7356  -29.6985   20.2557 C   0  0  0  0  0  0  0  0  0  0  0  0
  -27.5448  -24.7291   18.9165 C   0  0  0  0  0  0  0  0  0  0  0  0
  -25.8240  -30.0597   21.6077 C   0  0  0  0  0  0  0  0  0  0  0  0
  -20.2632  -28.4953   23.4358 C   0  0  0  0  0  0  0  0  0  0  0  0
  -29.2786  -18.6377   20.4461 C   0  0  0  0  0  0  0  0  0  0  0  0
  -23.3990  -30.0017   21.7689 C   0  0  0  0  0  0  0  0  0  0  0  0
  -30.0123  -16.4582   19.9625 C   0  0  0  0  0  0  0  0  0  0  0  0
  -29.5180  -13.7127   19.9562 C   0  0  0  0  0  0  0  0  0  0  0  0
  -30.8438  -15.5983   20.6799 C   0  0  0  0  0  0  0  0  0  0  0  0
  -26.2413  -21.1759   21.9394 C   0  0  0  0  0  0  0  0  0  0  0  0
  -20.1240  -26.4792   22.1819 C   0  0  0  0  0  0  0  0  0  0  0  0
  -25.1260  -22.7505   22.9939 C   0  0  0  0  0  0  0  0  0  0  0  0
  -27.5868  -22.7812   23.4319 C   0  0  0  0  0  0  0  0  0  0  0  0
  -28.2783  -27.8549   20.7453 C   0  0  0  0  0  0  0  0  0  0  0  0
  -29.6021  -30.6269   21.7873 C   0  0  0  0  0  0  0  0  0  0  0  0
  -29.1407  -33.7544   23.0727 C   0  0  0  0  0  0  0  0  0  0  0  0
  -20.1791  -24.2831   20.9487 C   0  0  0  0  0  0  0  0  0  0  0  0
  -29.7241  -23.8451   17.9367 C   0  0  0  0  0  0  0  0  0  0  0  0
  -26.9793  -29.5621   19.4208 C   0  0  0  0  0  0  0  0  0  0  0  0
  -27.1509  -30.2912   22.2816 C   0  0  0  0  0  0  0  0  0  0  0  0
  -30.4324  -24.8839   18.8025 C   0  0  0  0  0  0  0  0  0  0  0  0
  -20.6450  -20.8223   21.6433 C   0  0  0  0  0  0  0  0  0  0  0  0
  -29.7422  -25.0101   20.1569 C   0  0  0  0  0  0  0  0  0  0  0  0
  -22.1554  -20.6950   21.8549 C   0  0  0  0  0  0  0  0  0  0  0  0
  -20.3088  -21.8339   20.5492 C   0  0  0  0  0  0  0  0  0  0  0  0
  -22.4266  -23.0325   20.9331 C   0  0  0  0  0  0  0  0  0  0  0  0
  -28.2923  -25.4825   19.9953 C   0  0  1  0  0  0  0  0  0  0  0  0
  -28.2268  -29.2725   20.2500 C   0  0  1  0  0  0  0  0  0  0  0  0
  -22.8122  -22.0726   22.0704 C   0  0  2  0  0  0  0  0  0  0  0  0
  -21.1109  -28.7351   25.7928 C   0  0  0  0  0  0  0  0  0  0  0  0
  -30.4141  -35.7701   23.8555 C   0  0  0  0  0  0  0  0  0  0  0  0
  -30.3215  -29.1672   24.3684 C   0  0  0  0  0  0  0  0  0  0  0  0
  -30.7064  -31.3969   25.4401 C   0  0  0  0  0  0  0  0  0  0  0  0
  -32.1049  -30.6898   23.4992 C   0  0  0  0  0  0  0  0  0  0  0  0
  -27.8921  -35.4838   21.0211 C   0  0  0  0  0  0  0  0  0  0  0  0
  -22.3559  -29.8442   23.9004 C   0  0  0  0  0  0  0  0  0  1  0  0
  -20.9811  -29.4038   24.4214 C   0  0  1  0  0  0  0  0  0  0  0  0
  -29.6906  -31.3358   23.1173 C   0  0  1  0  0  0  0  0  0  0  0  0
  -29.7206  -35.1010   22.6790 C   0  0  2  0  0  0  0  0  0  0  0  0
  -30.6808  -30.6412   24.0943 C   0  0  0  0  0  0  0  0  0  0  0  0
  -18.9425  -26.8260   21.6239 N   0  0  0  0  0  0  0  0  0  0  0  0
  -24.9701  -20.9861   21.5760 N   0  0  0  0  0  0  0  0  0  0  0  0
  -24.3164  -21.9589   22.2336 N   0  0  0  0  0  0  0  0  0  0  0  0
  -28.3385  -30.1396   21.4247 N   0  0  0  0  0  0  0  0  0  0  0  0
  -20.9619  -23.1160   20.8223 N   0  0  0  0  0  0  0  0  0  0  0  0
  -24.6324  -23.7762   23.7197 N   0  0  0  0  0  0  0  0  0  0  0  0
  -28.8103  -22.1596   23.1473 N   0  0  0  0  0  0  0  0  0  0  0  0
  -20.6972  -25.2322   21.8293 N   0  0  0  0  0  0  0  0  0  0  0  0
  -28.2501  -26.9065   19.7407 N   0  0  0  0  0  0  0  0  0  0  0  0
  -30.0217  -32.7248   22.8182 N   0  0  0  0  0  0  0  0  0  0  0  0
  -28.6423  -36.0069   22.1918 N   0  3  0  0  0  0  0  0  0  0  0  0
  -27.5627  -23.7575   24.2193 O   0  0  0  0  0  0  0  0  0  0  0  0
  -28.3406  -27.6376   21.9497 O   0  0  0  0  0  0  0  0  0  0  0  0
  -30.6154  -30.5161   21.0926 O   0  0  0  0  0  0  0  0  0  0  0  0
  -28.0198  -33.6290   23.5610 O   0  0  0  0  0  0  0  0  0  0  0  0
  -19.1130  -24.4183   20.3428 O   0  0  0  0  0  0  0  0  0  0  0  0
  -30.2558  -17.8214   19.9652 O   0  0  0  0  0  0  0  0  0  0  0  0
  -22.2657  -30.1455   22.5085 O   0  0  0  0  0  0  0  0  0  1  0  0
  -29.2797  -12.3946   19.9544 F   0  0  0  0  0  0  0  0  0  0  0  0
  -31.8809  -16.0852   21.3749 F   0  0  0  0  0  0  0  0  0  0  0  0
  1  2  1  0  0  0  0
  1  5  2  0  0  0  0
  2  6  2  0  0  0  0
  3  8  2  0  0  0  0
  3 18  1  0  0  0  0
  4  9  1  0  0  0  0
  4 18  2  0  0  0  0
  5 20  1  0  0  0  0
  6 22  1  0  0  0  0
  7 10  2  0  0  0  0
  7 21  1  0  0  0  0
  8 25  1  0  0  0  0
  9 25  2  0  0  0  0
 10 26  1  0  0  0  0
 11 12  2  0  0  0  0
 11 27  1  0  0  0  0
 12 28  1  0  0  0  0
 13 17  2  0  0  0  0
 13 24  1  0  0  0  0
 14 23  1  0  0  0  0
 14 26  2  0  0  0  0
 15 24  2  0  0  0  0
 15 31  1  0  0  0  0
 16 28  2  0  0  0  0
 16 29  1  0  0  0  0
 17 61  1  0  0  0  0
 18 30  1  0  0  0  0
 19 30  1  0  0  0  0
 19 32  2  0  0  0  0
 19 33  1  0  0  0  0
 20 22  2  0  0  0  0
 20 38  1  0  0  0  0
 21 23  2  0  0  0  0
 21 39  1  0  0  0  0
 22 47  1  0  0  0  0
 23 40  1  0  0  0  0
 24 57  1  0  0  0  0
 25 77  1  0  0  0  0
 26 78  1  0  0  0  0
 27 29  2  0  0  0  0
 27 77  1  0  0  0  0
 28 79  1  0  0  0  0
 29 80  1  0  0  0  0
 30 62  2  0  0  0  0
 31 61  2  0  0  0  0
 31 68  1  0  0  0  0
 32 63  1  0  0  0  0
 32 66  1  0  0  0  0
 33 67  1  0  0  0  0
 33 72  2  0  0  0  0
 34 48  1  0  0  0  0
 34 69  1  0  0  0  0
 34 73  2  0  0  0  0
 35 58  1  0  0  0  0
 35 64  1  0  0  0  0
 35 74  2  0  0  0  0
 36 59  1  0  0  0  0
 36 70  1  0  0  0  0
 36 75  2  0  0  0  0
 37 65  1  0  0  0  0
 37 68  1  0  0  0  0
 37 76  2  0  0  0  0
 38 41  1  0  0  0  0
 39 48  1  0  0  0  0
 40 64  1  0  0  0  0
 41 43  1  0  0  0  0
 42 44  1  0  0  0  0
 42 45  1  0  0  0  0
 43 47  1  0  0  0  0
 44 49  1  0  0  0  0
 45 65  1  0  0  0  0
 46 49  1  0  0  0  0
 46 65  1  0  0  0  0
 47 69  1  0  0  0  0
 48 64  1  0  0  0  0
 49 63  1  0  0  0  0
 50 57  1  0  0  0  0
 51 59  1  0  0  0  0
 52 60  1  0  0  0  0
 53 60  1  0  0  0  0
 54 60  1  0  0  0  0
 55 71  1  0  0  0  0
 56 57  1  0  0  0  0
 56 78  1  0  0  0  0
 58 60  1  0  0  0  0
 58 70  1  0  0  0  0
 59 71  1  0  0  0  0
 62 63  1  0  0  0  0
M  CHG  1  71   1
M  ISO  4  37 100  56 101  68 100  78 101
M  END
> <Batch ID>
0119

> <Smiles>
CNC(C)C(=O)NC(C(=O)N1Cc2cc([101O:1][101CH2:1]C(C)c3ccnc([100NH:0][100C:0](=O)N4CCCC(n5nc(-c6ccc(Oc7ccc(F)cc7F)cc6)c(C(N)=O)c5N)C4)c3)ccc2CC1C(=O)NC1CCCc2ccccc21)C(C)(C)C

> <Shape>
0.225

> <Color>
0.054

> <Negative vol penalty>
0.000

$$$$

  -OEChem-04052320203D

 93102  0     1  0  0  0  0  0999 V2000
  -18.0196  -26.7425   22.5918 C   0  0  0  0  0  0  0  0  0  0  0  0
  -19.0185  -26.7522   21.6235 C   0  0  0  0  0  0  0  0  0  0  0  0
  -25.9693  -13.1049   17.4011 C   0  0  0  0  0  0  0  0  0  0  0  0
  -24.1163  -12.7616   18.9129 C   0  0  0  0  0  0  0  0  0  0  0  0
  -17.8261  -27.8595   23.4034 C   0  0  0  0  0  0  0  0  0  0  0  0
  -19.8239  -27.8796   21.4656 C   0  0  0  0  0  0  0  0  0  0  0  0
  -29.0613  -23.0199   21.1524 C   0  0  0  0  0  0  0  0  0  0  0  0
  -24.8119  -26.6973   21.0039 C   0  0  0  0  0  0  0  0  0  0  0  0
  -28.0480  -22.1052   21.4395 C   0  0  0  0  0  0  0  0  0  0  0  0
  -25.2599  -12.4632   16.3859 C   0  0  0  0  0  0  0  0  0  0  0  0
  -23.4068  -12.1200   17.8977 C   0  0  0  0  0  0  0  0  0  0  0  0
  -25.2696  -26.2242   19.7748 C   0  0  0  0  0  0  0  0  0  0  0  0
  -23.3597   -9.0729   16.4334 C   0  0  0  0  0  0  0  0  0  0  0  0
  -22.7033   -7.8844   16.7528 C   0  0  0  0  0  0  0  0  0  0  0  0
  -28.2244  -21.2246   19.2070 C   0  0  0  0  0  0  0  0  0  0  0  0
  -26.0558  -28.4368   19.2228 C   0  0  0  0  0  0  0  0  0  0  0  0
  -20.5934   -8.8814   16.1274 C   0  0  0  0  0  0  0  0  0  0  0  0
  -25.3975  -13.2540   18.6647 C   0  0  0  0  0  0  0  0  0  0  0  0
  -27.3726  -13.5346   20.2546 C   0  0  0  0  0  0  0  0  0  0  0  0
  -18.6358  -28.9975   23.2618 C   0  0  0  0  0  0  0  0  0  0  0  0
  -24.9635  -28.0483   21.3483 C   0  0  0  0  0  0  0  0  0  0  0  0
  -29.6719  -23.0598   19.8858 C   0  0  0  0  0  0  0  0  0  0  0  0
  -19.6402  -29.0134   22.2752 C   0  0  0  0  0  0  0  0  0  0  0  0
  -29.2547  -22.1338   18.9051 C   0  0  0  0  0  0  0  0  0  0  0  0
  -25.6035  -28.9233   20.4587 C   0  0  0  0  0  0  0  0  0  0  0  0
  -27.6257  -21.2105   20.4647 C   0  0  0  0  0  0  0  0  0  0  0  0
  -23.9787  -11.9708   16.6341 C   0  0  0  0  0  0  0  0  0  0  0  0
  -25.8896  -27.0945   18.8832 C   0  0  0  0  0  0  0  0  0  0  0  0
  -22.6329  -10.1658   15.9610 C   0  0  0  0  0  0  0  0  0  0  0  0
  -21.3202   -7.7886   16.5998 C   0  0  0  0  0  0  0  0  0  0  0  0
  -21.2498  -10.0701   15.8080 C   0  0  0  0  0  0  0  0  0  0  0  0
  -26.1300  -13.9162   19.7140 C   0  0  0  0  0  0  0  0  0  0  0  0
  -27.6346  -14.4815   21.2145 C   0  0  0  0  0  0  0  0  0  0  0  0
  -28.2146  -12.4237   19.9192 C   0  0  0  0  0  0  0  0  0  0  0  0
  -23.0228  -30.4870   22.0776 C   0  0  0  0  0  0  0  0  0  0  0  0
  -25.9464  -31.9600   22.6574 C   0  0  0  0  0  0  0  0  0  0  0  0
  -29.8448  -26.4654   19.3499 C   0  0  0  0  0  0  0  0  0  0  0  0
  -24.2982  -34.4980   24.2328 C   0  0  0  0  0  0  0  0  0  0  0  0
  -25.8849  -20.1482   21.9437 C   0  0  0  0  0  0  0  0  0  0  0  0
  -18.3580  -30.1987   24.1304 C   0  0  0  0  0  0  0  0  0  0  0  0
  -24.4898  -28.5321   22.6921 C   0  0  0  0  0  0  0  0  0  0  0  0
  -29.8597  -22.0913   17.5230 C   0  0  0  0  0  0  0  0  0  0  0  0
  -30.7464  -24.0973   19.6294 C   0  0  0  0  0  0  0  0  0  0  0  0
  -25.7937  -30.3805   20.7829 C   0  0  0  0  0  0  0  0  0  0  0  0
  -19.4991  -31.2125   24.1511 C   0  0  0  0  0  0  0  0  0  0  0  0
  -25.4189  -17.4639   24.2360 C   0  0  0  0  0  0  0  0  0  0  0  0
  -19.9971  -31.4846   22.7352 C   0  0  0  0  0  0  0  0  0  0  0  0
  -25.6674  -16.2150   23.3872 C   0  0  0  0  0  0  0  0  0  0  0  0
  -24.7040  -18.5561   23.4423 C   0  0  0  0  0  0  0  0  0  0  0  0
  -25.5915  -17.6697   21.3220 C   0  0  0  0  0  0  0  0  0  0  0  0
  -29.1374  -22.9616   16.4968 C   0  0  0  0  0  0  0  0  0  0  0  0
  -30.2557  -25.0745   17.3690 C   0  0  0  0  0  0  0  0  0  0  0  0
  -20.5504  -30.2081   22.0901 C   0  0  1  0  0  0  0  0  0  0  0  0
  -24.2864  -30.0443   22.7593 C   0  0  1  0  0  0  0  0  0  0  0  0
  -26.3672  -16.5660   22.0595 C   0  0  2  0  0  0  0  0  0  0  0  0
  -24.7045  -36.5419   25.6310 C   0  0  0  0  0  0  0  0  0  0  0  0
  -31.2196  -27.2622   22.8733 C   0  0  0  0  0  0  0  0  0  0  0  0
  -31.5351  -28.5549   20.7511 C   0  0  0  0  0  0  0  0  0  0  0  0
  -26.4969  -30.1894   25.0797 C   0  0  0  0  0  0  0  0  0  0  0  0
  -25.9511  -32.1449   26.5446 C   0  0  0  0  0  0  0  0  0  0  0  0
  -27.8823  -32.2686   24.9705 C   0  0  0  0  0  0  0  0  0  0  0  0
  -23.0609  -36.2694   22.2104 C   0  0  0  0  0  0  0  0  0  0  0  0
  -26.7208  -24.9346   16.0289 C   0  0  0  0  0  0  0  0  0  0  0  0
  -28.2151  -25.1982   15.9205 C   0  0  0  0  0  0  0  0  0  0  0  0
  -26.1404  -25.2509   17.4018 C   0  0  0  0  0  0  0  0  0  1  0  0
  -25.5280  -32.3510   24.0527 C   0  0  1  0  0  0  0  0  0  0  0  0
  -29.8485  -26.6109   20.8502 C   0  0  1  0  0  0  0  0  0  0  0  0
  -24.5162  -36.0003   24.2225 C   0  0  2  0  0  0  0  0  0  0  0  0
  -31.1849  -27.1852   21.3434 C   0  0  0  0  0  0  0  0  0  0  0  0
  -26.4457  -31.7290   25.1428 C   0  0  0  0  0  0  0  0  0  0  0  0
  -25.6369  -15.0193   20.2832 N   0  0  0  0  0  0  0  0  0  0  0  0
  -26.5743  -15.3390   21.1915 N   0  0  0  0  0  0  0  0  0  0  0  0
  -30.2871  -25.2452   18.8233 N   0  0  0  0  0  0  0  0  0  0  0  0
  -25.3917  -30.7839   22.1367 N   0  0  0  0  0  0  0  0  0  0  0  0
  -25.4261  -18.8387   22.1999 N   0  0  0  0  0  0  0  0  0  0  0  0
  -28.6663  -14.6558   22.0675 N   0  0  0  0  0  0  0  0  0  0  0  0
  -28.0291  -11.2144   20.6028 N   0  0  0  0  0  0  0  0  0  0  0  0
  -26.5865  -20.2895   20.7469 N   0  0  0  0  0  0  0  0  0  0  0  0
  -21.8749  -29.9191   22.5965 N   0  0  0  0  0  0  0  0  0  0  0  0
  -25.4817  -33.8091   24.0715 N   0  0  0  0  0  0  0  0  0  0  0  0
  -28.9716  -24.3959   16.9482 N   0  3  1  0  0  0  0  0  0  0  0  0
  -28.6925  -27.4421   21.2587 N   0  3  0  0  0  0  0  0  0  0  0  0
  -23.3470  -36.6891   23.6065 N   0  3  0  0  0  0  0  0  0  0  0  0
  -29.1160  -12.5060   19.0508 O   0  0  0  0  0  0  0  0  0  0  0  0
  -23.0845  -31.2859   21.1504 O   0  0  0  0  0  0  0  0  0  0  0  0
  -26.7486  -32.6719   22.0468 O   0  0  0  0  0  0  0  0  0  0  0  0
  -29.4638  -27.4156   18.6598 O   0  0  0  0  0  0  0  0  0  0  0  0
  -23.1895  -33.9868   24.3739 O   0  0  0  0  0  0  0  0  0  0  0  0
  -25.6947  -21.0701   22.7411 O   0  0  0  0  0  0  0  0  0  0  0  0
  -23.2861  -11.3449   15.6436 O   0  0  0  0  0  0  0  0  0  0  0  0
  -26.3409  -26.6320   17.6747 O   0  0  0  0  0  0  0  0  0  1  0  0
  -20.6902   -6.6466   16.9051 F   0  0  0  0  0  0  0  0  0  0  0  0
  -20.5463  -11.1162   15.3535 F   0  0  0  0  0  0  0  0  0  0  0  0
  1  2  1  0  0  0  0
  1  5  2  0  0  0  0
  2  6  2  0  0  0  0
  3 10  2  0  0  0  0
  3 18  1  0  0  0  0
  4 11  1  0  0  0  0
  4 18  2  0  0  0  0
  5 20  1  0  0  0  0
  6 23  1  0  0  0  0
  7  9  2  0  0  0  0
  7 22  1  0  0  0  0
  8 12  2  0  0  0  0
  8 21  1  0  0  0  0
  9 26  1  0  0  0  0
 10 27  1  0  0  0  0
 11 27  2  0  0  0  0
 12 28  1  0  0  0  0
 13 14  2  0  0  0  0
 13 29  1  0  0  0  0
 14 30  1  0  0  0  0
 15 24  1  0  0  0  0
 15 26  2  0  0  0  0
 16 25  1  0  0  0  0
 16 28  2  0  0  0  0
 17 30  2  0  0  0  0
 17 31  1  0  0  0  0
 18 32  1  0  0  0  0
 19 32  1  0  0  0  0
 19 33  2  0  0  0  0
 19 34  1  0  0  0  0
 20 23  2  0  0  0  0
 20 40  1  0  0  0  0
 21 25  2  0  0  0  0
 21 41  1  0  0  0  0
 22 24  2  0  0  0  0
 22 43  1  0  0  0  0
 23 53  1  0  0  0  0
 24 42  1  0  0  0  0
 25 44  1  0  0  0  0
 26 78  1  0  0  0  0
 27 90  1  0  0  0  0
 28 91  1  0  0  0  0
 29 31  2  0  0  0  0
 29 90  1  0  0  0  0
 30 92  1  0  0  0  0
 31 93  1  0  0  0  0
 32 71  2  0  0  0  0
 33 72  1  0  0  0  0
 33 76  1  0  0  0  0
 34 77  1  0  0  0  0
 34 84  2  0  0  0  0
 35 54  1  0  0  0  0
 35 79  1  0  0  0  0
 35 85  2  0  0  0  0
 36 66  1  0  0  0  0
 36 74  1  0  0  0  0
 36 86  2  0  0  0  0
 37 67  1  0  0  0  0
 37 73  1  0  0  0  0
 37 87  2  0  0  0  0
 38 68  1  0  0  0  0
 38 80  1  0  0  0  0
 38 88  2  0  0  0  0
 39 75  1  0  0  0  0
 39 78  1  0  0  0  0
 39 89  2  0  0  0  0
 40 45  1  0  0  0  0
 41 54  1  0  0  0  0
 42 51  1  0  0  0  0
 43 73  1  0  0  0  0
 44 74  1  0  0  0  0
 45 47  1  0  0  0  0
 46 48  1  0  0  0  0
 46 49  1  0  0  0  0
 47 53  1  0  0  0  0
 48 55  1  0  0  0  0
 49 75  1  0  0  0  0
 50 55  1  0  0  0  0
 50 75  1  0  0  0  0
 51 81  1  0  0  0  0
 52 73  1  0  0  0  0
 52 81  1  0  0  0  0
 53 79  1  0  0  0  0
 54 74  1  0  0  0  0
 55 72  1  0  0  0  0
 56 68  1  0  0  0  0
 57 69  1  0  0  0  0
 58 69  1  0  0  0  0
 59 70  1  0  0  0  0
 60 70  1  0  0  0  0
 61 70  1  0  0  0  0
 62 83  1  0  0  0  0
 63 64  1  0  0  0  0
 63 65  1  0  0  0  0
 64 81  1  0  0  0  0
 65 91  1  0  0  0  0
 66 70  1  0  0  0  0
 66 80  1  0  0  0  0
 67 69  1  0  0  0  0
 67 82  1  0  0  0  0
 68 83  1  0  0  0  0
 71 72  1  0  0  0  0
M  CHG  3  81   1  82   1  83   1
M  ISO  4  39 100  65 101  78 100  91 101
M  END
> <Batch ID>
0119

> <Smiles>
CNC(C)C(=O)NC(C(=O)N1Cc2cc([101O:1][101CH2:1]CCN3CCc4cc([100NH:0][100C:0](=O)N5CCCC(n6nc(-c7ccc(Oc8ccc(F)cc8F)cc7)c(C(N)=O)c6N)C5)ccc4CN(C(=O)C(N)C(C)C)C3)ccc2CC1C(=O)NC1CCCc2ccccc21)C(C)(C)C

> <Shape>
0.336

> <Color>
0.091

> <Negative vol penalty>
0.000

$$$$

  -OEChem-04052320203D

 85 93  0     1  0  0  0  0  0999 V2000
  -28.7887  -33.8779   22.4512 C   0  0  0  0  0  0  0  0  0  0  0  0
  -29.0470  -32.5448   22.7540 C   0  0  0  0  0  0  0  0  0  0  0  0
  -23.3944   -9.7423   19.9203 C   0  0  0  0  0  0  0  0  0  0  0  0
  -23.7281   -9.9761   22.3017 C   0  0  0  0  0  0  0  0  0  0  0  0
  -27.4726  -34.3209   22.3268 C   0  0  0  0  0  0  0  0  0  0  0  0
  -27.9893  -31.6542   22.9337 C   0  0  0  0  0  0  0  0  0  0  0  0
  -28.7393  -27.2433   20.5617 C   0  0  0  0  0  0  0  0  0  0  0  0
  -22.7036   -8.5496   20.1341 C   0  0  0  0  0  0  0  0  0  0  0  0
  -23.0373   -8.7834   22.5156 C   0  0  0  0  0  0  0  0  0  0  0  0
  -29.6008  -26.3315   21.1703 C   0  0  0  0  0  0  0  0  0  0  0  0
  -19.8201   -7.7536   22.6153 C   0  0  0  0  0  0  0  0  0  0  0  0
  -18.8704   -7.7307   23.6366 C   0  0  0  0  0  0  0  0  0  0  0  0
  -27.7008  -25.1214   22.0333 C   0  0  0  0  0  0  0  0  0  0  0  0
  -30.7249  -17.5020   21.6952 C   0  0  0  0  0  0  0  0  0  0  0  0
  -20.0971   -5.9644   24.7378 C   0  0  0  0  0  0  0  0  0  0  0  0
  -23.9067  -10.4556   21.0040 C   0  0  0  0  0  0  0  0  0  0  0  0
  -24.0800  -12.9861   20.7322 C   0  0  0  0  0  0  0  0  0  0  0  0
  -26.3983  -33.4331   22.4956 C   0  0  0  0  0  0  0  0  0  0  0  0
  -27.3499  -27.1069   20.6937 C   0  0  0  0  0  0  0  0  0  0  0  0
  -26.6575  -32.0860   22.8128 C   0  0  0  0  0  0  0  0  0  0  0  0
  -26.8238  -26.0312   21.4234 C   0  0  0  0  0  0  0  0  0  0  0  0
  -30.3361  -16.1707   21.7944 C   0  0  0  0  0  0  0  0  0  0  0  0
  -30.1758  -15.5906   23.0478 C   0  0  0  0  0  0  0  0  0  0  0  0
  -22.5250   -8.0701   21.4318 C   0  0  0  0  0  0  0  0  0  0  0  0
  -29.0817  -25.2721   21.9086 C   0  0  0  0  0  0  0  0  0  0  0  0
  -20.9083   -6.8819   22.6552 C   0  0  0  0  0  0  0  0  0  0  0  0
  -19.0089   -6.8362   24.6979 C   0  0  0  0  0  0  0  0  0  0  0  0
  -21.0469   -5.9873   23.7164 C   0  0  0  0  0  0  0  0  0  0  0  0
  -24.6209  -11.6875   20.7837 C   0  0  0  0  0  0  0  0  0  0  0  0
  -30.9392  -18.2043   22.8702 C   0  0  0  0  0  0  0  0  0  0  0  0
  -30.4149  -16.3785   24.1623 C   0  0  0  0  0  0  0  0  0  0  0  0
  -25.1621  -13.7999   20.5016 C   0  0  0  0  0  0  0  0  0  0  0  0
  -22.7209  -13.4183   20.8798 C   0  0  0  0  0  0  0  0  0  0  0  0
  -25.0303  -28.8844   21.9442 C   0  0  0  0  0  0  0  0  0  0  0  0
  -23.1192  -26.5991   20.6606 C   0  0  0  0  0  0  0  0  0  0  0  0
  -22.7834  -23.3871   19.5573 C   0  0  0  0  0  0  0  0  0  0  0  0
  -31.0793  -12.6756   21.6245 C   0  0  0  0  0  0  0  0  0  0  0  0
  -24.9918  -33.9687   22.3979 C   0  0  0  0  0  0  0  0  0  0  0  0
  -26.4336  -28.0835   20.0089 C   0  0  0  0  0  0  0  0  0  0  0  0
  -25.3394  -25.8287   21.5784 C   0  0  0  0  0  0  0  0  0  0  0  0
  -23.9352  -32.8792   22.2341 C   0  0  0  0  0  0  0  0  0  0  0  0
  -29.4915  -13.8092   18.4788 C   0  0  0  0  0  0  0  0  0  0  0  0
  -24.1759  -31.7482   23.2290 C   0  0  0  0  0  0  0  0  0  0  0  0
  -28.0260  -13.4333   18.6911 C   0  0  0  0  0  0  0  0  0  0  0  0
  -30.4309  -12.8893   19.2527 C   0  0  0  0  0  0  0  0  0  0  0  0
  -28.6635  -12.4300   20.9199 C   0  0  0  0  0  0  0  0  0  0  0  0
  -25.5374  -31.0841   22.9905 C   0  0  1  0  0  0  0  0  0  0  0  0
  -25.0450  -28.1420   20.6380 C   0  0  1  0  0  0  0  0  0  0  0  0
  -27.6885  -13.3665   20.1907 C   0  0  2  0  0  0  0  0  0  0  0  0
  -30.1006  -15.3883   20.5448 C   0  0  0  0  0  0  0  0  0  0  0  0
  -30.2578  -15.8117   25.5355 C   0  0  0  0  0  0  0  0  0  0  0  0
  -21.0920  -21.7998   18.5999 C   0  0  0  0  0  0  0  0  0  0  0  0
  -21.8651  -26.2731   23.4230 C   0  0  0  0  0  0  0  0  0  0  0  0
  -20.9037  -24.0936   22.6526 C   0  0  0  0  0  0  0  0  0  0  0  0
  -20.2374  -26.2167   21.5251 C   0  0  0  0  0  0  0  0  0  0  0  0
  -31.8758  -13.1324   23.9129 C   0  0  0  0  0  0  0  0  0  0  0  0
  -24.3495  -23.0353   17.0708 C   0  0  0  0  0  0  0  0  0  0  0  0
  -29.7572  -14.1654   23.1850 C   0  0  0  0  0  0  0  0  0  0  0  0
  -31.3605  -19.6506   22.8013 C   0  0  0  0  0  0  0  0  0  0  0  0
  -30.1874  -20.6369   22.7827 C   0  0  0  0  0  0  0  0  0  0  0  0
  -30.6317  -22.0928   22.6351 C   0  0  0  0  0  0  0  0  0  0  0  0
  -29.4439  -23.0451   22.6606 C   0  0  0  0  0  0  0  0  0  1  0  0
  -22.5555  -25.2835   21.1404 C   0  0  1  0  0  0  0  0  0  0  0  0
  -22.1790  -22.8164   18.2871 C   0  0  2  0  0  0  0  0  0  0  0  0
  -21.4185  -25.4713   22.1842 C   0  0  0  0  0  0  0  0  0  0  0  0
  -25.9438  -11.6723   20.6003 N   0  0  0  0  0  0  0  0  0  0  0  0
  -30.7937  -17.6750   24.1056 N   0  0  0  0  0  0  0  0  0  0  0  0
  -26.2433  -12.9714   20.4313 N   0  0  0  0  0  0  0  0  0  0  0  0
  -24.4847  -26.8138   20.8954 N   0  0  0  0  0  0  0  0  0  0  0  0
  -30.0612  -12.8104   20.6663 N   0  0  0  0  0  0  0  0  0  0  0  0
  -25.2848  -15.1362   20.3539 N   0  0  0  0  0  0  0  0  0  0  0  0
  -21.7337  -12.4509   21.1124 N   0  0  0  0  0  0  0  0  0  0  0  0
  -25.4718  -30.1907   21.8539 N   0  0  0  0  0  0  0  0  0  0  0  0
  -22.1536  -24.5511   19.9444 N   0  0  0  0  0  0  0  0  0  0  0  0
  -30.8455  -13.2361   22.8894 N   0  0  0  0  0  0  0  0  0  0  0  0
  -23.2290  -22.1452   17.4699 N   0  3  0  0  0  0  0  0  0  0  0  0
  -22.3893  -14.6248   20.7913 O   0  0  0  0  0  0  0  0  0  0  0  0
  -24.6454  -28.3147   22.9586 O   0  0  0  0  0  0  0  0  0  0  0  0
  -22.3769  -27.4036   20.0918 O   0  0  0  0  0  0  0  0  0  0  0  0
  -23.7182  -22.8519   20.1491 O   0  0  0  0  0  0  0  0  0  0  0  0
  -32.1409  -12.0962   21.3613 O   0  0  0  0  0  0  0  0  0  0  0  0
  -21.8508   -6.9064   21.6409 O   0  0  0  0  0  0  0  0  0  0  0  0
  -29.9204  -24.3811   22.5041 O   0  0  0  0  0  0  0  0  0  1  0  0
  -18.0976   -6.8153   25.6793 F   0  0  0  0  0  0  0  0  0  0  0  0
  -22.0908   -5.1483   23.7608 F   0  0  0  0  0  0  0  0  0  0  0  0
  1  2  1  0  0  0  0
  1  5  2  0  0  0  0
  2  6  2  0  0  0  0
  3  8  2  0  0  0  0
  3 16  1  0  0  0  0
  4  9  1  0  0  0  0
  4 16  2  0  0  0  0
  5 18  1  0  0  0  0
  6 20  1  0  0  0  0
  7 10  2  0  0  0  0
  7 19  1  0  0  0  0
  8 24  1  0  0  0  0
  9 24  2  0  0  0  0
 10 25  1  0  0  0  0
 11 12  2  0  0  0  0
 11 26  1  0  0  0  0
 12 27  1  0  0  0  0
 13 21  1  0  0  0  0
 13 25  2  0  0  0  0
 14 22  2  0  0  0  0
 14 30  1  0  0  0  0
 15 27  2  0  0  0  0
 15 28  1  0  0  0  0
 16 29  1  0  0  0  0
 17 29  1  0  0  0  0
 17 32  2  0  0  0  0
 17 33  1  0  0  0  0
 18 20  2  0  0  0  0
 18 38  1  0  0  0  0
 19 21  2  0  0  0  0
 19 39  1  0  0  0  0
 20 47  1  0  0  0  0
 21 40  1  0  0  0  0
 22 23  1  0  0  0  0
 22 50  1  0  0  0  0
 23 31  2  0  0  0  0
 23 58  1  0  0  0  0
 24 82  1  0  0  0  0
 25 83  1  0  0  0  0
 26 28  2  0  0  0  0
 26 82  1  0  0  0  0
 27 84  1  0  0  0  0
 28 85  1  0  0  0  0
 29 66  2  0  0  0  0
 30 59  1  0  0  0  0
 30 67  2  0  0  0  0
 31 51  1  0  0  0  0
 31 67  1  0  0  0  0
 32 68  1  0  0  0  0
 32 71  1  0  0  0  0
 33 72  1  0  0  0  0
 33 77  2  0  0  0  0
 34 48  1  0  0  0  0
 34 73  1  0  0  0  0
 34 78  2  0  0  0  0
 35 63  1  0  0  0  0
 35 69  1  0  0  0  0
 35 79  2  0  0  0  0
 36 64  1  0  0  0  0
 36 74  1  0  0  0  0
 36 80  2  0  0  0  0
 37 70  1  0  0  0  0
 37 75  1  0  0  0  0
 37 81  2  0  0  0  0
 38 41  1  0  0  0  0
 39 48  1  0  0  0  0
 40 69  1  0  0  0  0
 41 43  1  0  0  0  0
 42 44  1  0  0  0  0
 42 45  1  0  0  0  0
 43 47  1  0  0  0  0
 44 49  1  0  0  0  0
 45 70  1  0  0  0  0
 46 49  1  0  0  0  0
 46 70  1  0  0  0  0
 47 73  1  0  0  0  0
 48 69  1  0  0  0  0
 49 68  1  0  0  0  0
 52 64  1  0  0  0  0
 53 65  1  0  0  0  0
 54 65  1  0  0  0  0
 55 65  1  0  0  0  0
 56 75  1  0  0  0  0
 57 76  1  0  0  0  0
 58 75  1  0  0  0  0
 59 60  1  0  0  0  0
 60 61  1  0  0  0  0
 61 62  1  0  0  0  0
 62 83  1  0  0  0  0
 63 65  1  0  0  0  0
 63 74  1  0  0  0  0
 64 76  1  0  0  0  0
 66 68  1  0  0  0  0
M  CHG  1  76   1
M  ISO  4  37 100  62 101  75 100  83 101
M  END
> <Batch ID>
0119

> <Smiles>
CNC(C)C(=O)NC(C(=O)N1Cc2cc([101O:1][101CH2:1]CCCc3cc(C)c(C[100N:0](C)[100C:0](=O)N4CCCC(n5nc(-c6ccc(Oc7ccc(F)cc7F)cc6)c(C(N)=O)c5N)C4)c(C)n3)ccc2CC1C(=O)NC1CCCc2ccccc21)C(C)(C)C

> <Shape>
0.272

> <Color>
0.183

> <Negative vol penalty>
0.000

$$$$

  -OEChem-04052320203D

 85 93  0     1  0  0  0  0  0999 V2000
  -16.8777  -25.1780   24.5647 C   0  0  0  0  0  0  0  0  0  0  0  0
  -17.6424  -24.2914   23.8133 C   0  0  0  0  0  0  0  0  0  0  0  0
  -28.1210  -22.7865   12.5919 C   0  0  0  0  0  0  0  0  0  0  0  0
  -25.0903  -16.3799   19.5686 C   0  0  0  0  0  0  0  0  0  0  0  0
  -25.0271  -17.4135   21.7514 C   0  0  0  0  0  0  0  0  0  0  0  0
  -17.0612  -26.5523   24.4182 C   0  0  0  0  0  0  0  0  0  0  0  0
  -18.5903  -24.7786   22.9142 C   0  0  0  0  0  0  0  0  0  0  0  0
  -23.9905  -22.2460   21.5252 C   0  0  0  0  0  0  0  0  0  0  0  0
  -23.7726  -15.9529   19.7326 C   0  0  0  0  0  0  0  0  0  0  0  0
  -23.7093  -16.9866   21.9154 C   0  0  0  0  0  0  0  0  0  0  0  0
  -24.4050  -21.4445   20.4624 C   0  0  0  0  0  0  0  0  0  0  0  0
  -20.6748  -17.2890   19.5061 C   0  0  0  0  0  0  0  0  0  0  0  0
  -19.7992  -17.4616   18.4341 C   0  0  0  0  0  0  0  0  0  0  0  0
  -27.7987  -21.4445   12.7604 C   0  0  0  0  0  0  0  0  0  0  0  0
  -28.6160  -23.5171   13.6665 C   0  0  0  0  0  0  0  0  0  0  0  0
  -25.2334  -23.4002   19.3185 C   0  0  0  0  0  0  0  0  0  0  0  0
  -19.4286  -15.0755   18.3526 C   0  0  0  0  0  0  0  0  0  0  0  0
  -25.7176  -17.1102   20.5781 C   0  0  0  0  0  0  0  0  0  0  0  0
  -28.2144  -16.7446   20.2039 C   0  0  0  0  0  0  0  0  0  0  0  0
  -18.0185  -27.0566   23.5238 C   0  0  0  0  0  0  0  0  0  0  0  0
  -24.1849  -23.6343   21.4877 C   0  0  0  0  0  0  0  0  0  0  0  0
  -18.7858  -26.1610   22.7546 C   0  0  0  0  0  0  0  0  0  0  0  0
  -24.8227  -24.2168   20.3832 C   0  0  0  0  0  0  0  0  0  0  0  0
  -23.0821  -16.2563   20.9060 C   0  0  0  0  0  0  0  0  0  0  0  0
  -25.0239  -22.0219   19.3575 C   0  0  0  0  0  0  0  0  0  0  0  0
  -20.9273  -16.0096   20.0014 C   0  0  0  0  0  0  0  0  0  0  0  0
  -19.1762  -16.3549   17.8573 C   0  0  0  0  0  0  0  0  0  0  0  0
  -20.3042  -14.9029   19.4246 C   0  0  0  0  0  0  0  0  0  0  0  0
  -27.0790  -17.5510   20.4095 C   0  0  0  0  0  0  0  0  0  0  0  0
  -27.9881  -20.8844   14.0135 C   0  0  0  0  0  0  0  0  0  0  0  0
  -28.7687  -22.8642   14.8790 C   0  0  0  0  0  0  0  0  0  0  0  0
  -29.2551  -17.6355   20.1055 C   0  0  0  0  0  0  0  0  0  0  0  0
  -28.3190  -15.3177   20.1101 C   0  0  0  0  0  0  0  0  0  0  0  0
  -22.2674  -26.1693   21.5173 C   0  0  0  0  0  0  0  0  0  0  0  0
  -25.0667  -27.7976   21.7048 C   0  0  0  0  0  0  0  0  0  0  0  0
  -28.4282  -27.8578   21.1187 C   0  0  0  0  0  0  0  0  0  0  0  0
  -29.5510  -23.4000   18.5134 C   0  0  0  0  0  0  0  0  0  0  0  0
  -18.1478  -28.5508   23.3653 C   0  0  0  0  0  0  0  0  0  0  0  0
  -23.7561  -24.4818   22.6541 C   0  0  0  0  0  0  0  0  0  0  0  0
  -25.0731  -25.6998   20.3031 C   0  0  0  0  0  0  0  0  0  0  0  0
  -19.4344  -28.9799   22.6647 C   0  0  0  0  0  0  0  0  0  0  0  0
  -30.6253  -21.9716   21.5927 C   0  0  0  0  0  0  0  0  0  0  0  0
  -19.6737  -28.1303   21.4206 C   0  0  0  0  0  0  0  0  0  0  0  0
  -29.9407  -20.6040   21.6201 C   0  0  0  0  0  0  0  0  0  0  0  0
  -29.7341  -23.0362   20.9568 C   0  0  0  0  0  0  0  0  0  0  0  0
  -28.5380  -21.3280   19.6435 C   0  0  0  0  0  0  0  0  0  0  0  0
  -19.8412  -26.6506   21.7869 C   0  0  1  0  0  0  0  0  0  0  0  0
  -23.5414  -25.9456   22.2820 C   0  0  1  0  0  0  0  0  0  0  0  0
  -29.4198  -20.2096   20.2250 C   0  0  2  0  0  0  0  0  0  0  0  0
  -26.7159  -16.7416   15.2019 C   0  0  0  0  0  0  0  0  0  0  0  0
  -30.7856  -28.7167   21.1692 C   0  0  0  0  0  0  0  0  0  0  0  0
  -24.1459  -29.4109   19.2842 C   0  0  0  0  0  0  0  0  0  0  0  0
  -26.5109  -30.1748   18.9812 C   0  0  0  0  0  0  0  0  0  0  0  0
  -25.2720  -30.7555   21.0670 C   0  0  0  0  0  0  0  0  0  0  0  0
  -28.9647  -26.5696   23.7286 C   0  0  0  0  0  0  0  0  0  0  0  0
  -27.6510  -19.4361   14.2322 C   0  0  0  0  0  0  0  0  0  0  0  0
  -29.2976  -23.6171   16.0541 C   0  0  0  0  0  0  0  0  0  0  0  0
  -25.8001  -17.7268   14.4876 C   0  0  0  0  0  0  0  0  0  0  0  0
  -24.6786  -19.7582   16.5812 C   0  0  0  0  0  0  0  0  0  0  0  0
  -24.6799  -20.0534   18.0681 C   0  0  0  0  0  0  0  0  0  1  0  0
  -26.0376  -28.3737   20.7025 C   0  0  1  0  0  0  0  0  0  0  0  0
  -29.5974  -28.2582   22.0003 C   0  0  2  0  0  0  0  0  0  0  0  0
  -26.2004  -19.1957   14.6821 C   0  0  1  0  0  0  0  0  0  0  0  0
  -25.4853  -29.6510   20.0091 C   0  0  0  0  0  0  0  0  0  0  0  0
  -27.3707  -18.8541   20.4403 N   0  0  0  0  0  0  0  0  0  0  0  0
  -28.4666  -21.5620   15.0809 N   0  0  0  0  0  0  0  0  0  0  0  0
  -28.7014  -18.8732   20.2528 N   0  0  0  0  0  0  0  0  0  0  0  0
  -24.6299  -26.4869   21.4657 N   0  0  0  0  0  0  0  0  0  0  0  0
  -29.2752  -22.6013   19.6354 N   0  0  0  0  0  0  0  0  0  0  0  0
  -30.5807  -17.4732   19.9084 N   0  0  0  0  0  0  0  0  0  0  0  0
  -28.1951  -14.7202   18.8484 N   0  0  0  0  0  0  0  0  0  0  0  0
  -21.1659  -26.4080   22.3168 N   0  0  0  0  0  0  0  0  0  0  0  0
  -27.2915  -28.5779   21.4198 N   0  0  0  0  0  0  0  0  0  0  0  0
  -29.0862  -22.9115   17.2984 N   0  0  0  0  0  0  0  0  0  0  0  0
  -30.0291  -27.1070   22.8425 N   0  3  0  0  0  0  0  0  0  0  0  0
  -26.0750  -19.5507   16.1216 N   0  3  0  0  0  0  0  0  0  0  0  0
  -28.5002  -14.5927   21.1176 O   0  0  0  0  0  0  0  0  0  0  0  0
  -22.2830  -26.1298   20.2926 O   0  0  0  0  0  0  0  0  0  0  0  0
  -24.7145  -28.4826   22.6683 O   0  0  0  0  0  0  0  0  0  0  0  0
  -28.5156  -26.9954   20.2475 O   0  0  0  0  0  0  0  0  0  0  0  0
  -30.1705  -24.4665   18.5880 O   0  0  0  0  0  0  0  0  0  0  0  0
  -21.7962  -15.8400   21.0662 O   0  0  0  0  0  0  0  0  0  0  0  0
  -25.4289  -21.2419   18.3185 O   0  0  0  0  0  0  0  0  0  1  0  0
  -18.3342  -16.5209   16.8289 F   0  0  0  0  0  0  0  0  0  0  0  0
  -20.5420  -13.6715   19.8968 F   0  0  0  0  0  0  0  0  0  0  0  0
  1  2  1  0  0  0  0
  1  6  2  0  0  0  0
  2  7  2  0  0  0  0
  3 14  2  0  0  0  0
  3 15  1  0  0  0  0
  4  9  2  0  0  0  0
  4 18  1  0  0  0  0
  5 10  1  0  0  0  0
  5 18  2  0  0  0  0
  6 20  1  0  0  0  0
  7 22  1  0  0  0  0
  8 11  2  0  0  0  0
  8 21  1  0  0  0  0
  9 24  1  0  0  0  0
 10 24  2  0  0  0  0
 11 25  1  0  0  0  0
 12 13  2  0  0  0  0
 12 26  1  0  0  0  0
 13 27  1  0  0  0  0
 14 30  1  0  0  0  0
 15 31  2  0  0  0  0
 16 23  1  0  0  0  0
 16 25  2  0  0  0  0
 17 27  2  0  0  0  0
 17 28  1  0  0  0  0
 18 29  1  0  0  0  0
 19 29  1  0  0  0  0
 19 32  2  0  0  0  0
 19 33  1  0  0  0  0
 20 22  2  0  0  0  0
 20 38  1  0  0  0  0
 21 23  2  0  0  0  0
 21 39  1  0  0  0  0
 22 47  1  0  0  0  0
 23 40  1  0  0  0  0
 24 82  1  0  0  0  0
 25 83  1  0  0  0  0
 26 28  2  0  0  0  0
 26 82  1  0  0  0  0
 27 84  1  0  0  0  0
 28 85  1  0  0  0  0
 29 65  2  0  0  0  0
 30 56  1  0  0  0  0
 30 66  2  0  0  0  0
 31 57  1  0  0  0  0
 31 66  1  0  0  0  0
 32 67  1  0  0  0  0
 32 70  1  0  0  0  0
 33 71  1  0  0  0  0
 33 77  2  0  0  0  0
 34 48  1  0  0  0  0
 34 72  1  0  0  0  0
 34 78  2  0  0  0  0
 35 61  1  0  0  0  0
 35 68  1  0  0  0  0
 35 79  2  0  0  0  0
 36 62  1  0  0  0  0
 36 73  1  0  0  0  0
 36 80  2  0  0  0  0
 37 69  1  0  0  0  0
 37 74  1  0  0  0  0
 37 81  2  0  0  0  0
 38 41  1  0  0  0  0
 39 48  1  0  0  0  0
 40 68  1  0  0  0  0
 41 43  1  0  0  0  0
 42 44  1  0  0  0  0
 42 45  1  0  0  0  0
 43 47  1  0  0  0  0
 44 49  1  0  0  0  0
 45 69  1  0  0  0  0
 46 49  1  0  0  0  0
 46 69  1  0  0  0  0
 47 72  1  0  0  0  0
 48 68  1  0  0  0  0
 49 67  1  0  0  0  0
 50 58  1  0  0  0  0
 51 62  1  0  0  0  0
 52 64  1  0  0  0  0
 53 64  1  0  0  0  0
 54 64  1  0  0  0  0
 55 75  1  0  0  0  0
 56 63  1  0  0  0  0
 57 74  1  0  0  0  0
 58 63  1  0  0  0  0
 59 60  1  0  0  0  0
 59 76  1  0  0  0  0
 60 83  1  0  0  0  0
 61 64  1  0  0  0  0
 61 73  1  0  0  0  0
 62 75  1  0  0  0  0
 63 76  1  0  0  0  0
 65 67  1  0  0  0  0
M  CHG  2  75   1  76   1
M  ISO  4  37 100  60 101  74 100  83 101
M  END
> <Batch ID>
0119

> <Smiles>
CCC(Cc1cccc(C[100NH:0][100C:0](=O)N2CCCC(n3nc(-c4ccc(Oc5ccc(F)cc5F)cc4)c(C(N)=O)c3N)C2)n1)NC[101CH2:1][101O:1]c1ccc2c(c1)CN(C(=O)C(NC(=O)C(C)NC)C(C)(C)C)C(C(=O)NC1CCCc3ccccc31)C2

> <Shape>
0.185

> <Color>
0.056

> <Negative vol penalty>
0.000

$$$$

  -OEChem-04052320203D

 84 92  0     1  0  0  0  0  0999 V2000
  -19.8017   -8.1510   21.2859 C   0  0  0  0  0  0  0  0  0  0  0  0
  -19.8079   -9.3271   22.0289 C   0  0  0  0  0  0  0  0  0  0  0  0
  -25.2914  -29.7544   19.8150 C   0  0  0  0  0  0  0  0  0  0  0  0
  -24.7516  -28.0238   21.4121 C   0  0  0  0  0  0  0  0  0  0  0  0
  -20.9919   -7.6592   20.7515 C   0  0  0  0  0  0  0  0  0  0  0  0
  -21.0044  -10.0116   22.2389 C   0  0  0  0  0  0  0  0  0  0  0  0
  -23.5723  -16.6515   23.0348 C   0  0  0  0  0  0  0  0  0  0  0  0
  -30.1066  -21.1323   23.3192 C   0  0  0  0  0  0  0  0  0  0  0  0
  -23.9324  -30.0129   19.6358 C   0  0  0  0  0  0  0  0  0  0  0  0
  -23.3927  -28.2823   21.2329 C   0  0  0  0  0  0  0  0  0  0  0  0
  -24.3641  -17.4034   23.9017 C   0  0  0  0  0  0  0  0  0  0  0  0
  -21.1355  -30.5710   22.2759 C   0  0  0  0  0  0  0  0  0  0  0  0
  -20.3372  -30.6536   23.4166 C   0  0  0  0  0  0  0  0  0  0  0  0
  -29.3379  -20.8550   24.4441 C   0  0  0  0  0  0  0  0  0  0  0  0
  -26.3462  -16.5021   22.8636 C   0  0  0  0  0  0  0  0  0  0  0  0
  -18.9938  -28.8147   22.6098 C   0  0  0  0  0  0  0  0  0  0  0  0
  -25.7010  -28.7599   20.7031 C   0  0  0  0  0  0  0  0  0  0  0  0
  -27.9673  -29.0889   21.8269 C   0  0  0  0  0  0  0  0  0  0  0  0
  -22.2021   -8.3431   20.9469 C   0  0  0  0  0  0  0  0  0  0  0  0
  -24.1626  -15.8095   22.0814 C   0  0  0  0  0  0  0  0  0  0  0  0
  -22.2121   -9.5278   21.7078 C   0  0  0  0  0  0  0  0  0  0  0  0
  -25.5598  -15.7425   21.9841 C   0  0  0  0  0  0  0  0  0  0  0  0
  -29.5187  -21.1092   22.0593 C   0  0  0  0  0  0  0  0  0  0  0  0
  -22.9831  -29.2769   20.3447 C   0  0  0  0  0  0  0  0  0  0  0  0
  -25.7512  -17.3266   23.8182 C   0  0  0  0  0  0  0  0  0  0  0  0
  -20.8630  -29.6102   21.3019 C   0  0  0  0  0  0  0  0  0  0  0  0
  -19.2664  -29.7755   23.5836 C   0  0  0  0  0  0  0  0  0  0  0  0
  -19.7922  -28.7321   21.4689 C   0  0  0  0  0  0  0  0  0  0  0  0
  -27.1046  -28.4920   20.8882 C   0  0  0  0  0  0  0  0  0  0  0  0
  -27.9966  -20.5626   24.2571 C   0  0  0  0  0  0  0  0  0  0  0  0
  -28.1692  -20.8052   21.9790 C   0  0  0  0  0  0  0  0  0  0  0  0
  -29.1855  -28.4971   21.5985 C   0  0  0  0  0  0  0  0  0  0  0  0
  -27.6922  -30.0889   22.8168 C   0  0  0  0  0  0  0  0  0  0  0  0
  -24.1319  -12.6797   21.5272 C   0  0  0  0  0  0  0  0  0  0  0  0
  -25.7964  -13.5272   18.8752 C   0  0  0  0  0  0  0  0  0  0  0  0
  -27.8206  -15.7975   17.3275 C   0  0  0  0  0  0  0  0  0  0  0  0
  -30.7818  -23.2333   19.2330 C   0  0  0  0  0  0  0  0  0  0  0  0
  -23.4707   -7.7475   20.3896 C   0  0  0  0  0  0  0  0  0  0  0  0
  -23.2947  -15.0253   21.1358 C   0  0  0  0  0  0  0  0  0  0  0  0
  -26.2428  -14.8692   20.9645 C   0  0  0  0  0  0  0  0  0  0  0  0
  -24.6362   -8.7323   20.3418 C   0  0  0  0  0  0  0  0  0  0  0  0
  -31.7694  -26.4680   18.1203 C   0  0  0  0  0  0  0  0  0  0  0  0
  -24.7503   -9.4888   21.6615 C   0  0  0  0  0  0  0  0  0  0  0  0
  -30.7637  -27.4074   18.7882 C   0  0  0  0  0  0  0  0  0  0  0  0
  -31.1196  -25.1510   17.7017 C   0  0  0  0  0  0  0  0  0  0  0  0
  -29.3951  -25.3845   19.4468 C   0  0  0  0  0  0  0  0  0  0  0  0
  -23.4860  -10.3120   21.9365 C   0  0  1  0  0  0  0  0  0  0  0  0
  -24.0016  -13.8093   20.5450 C   0  0  1  0  0  0  0  0  0  0  0  0
  -30.0164  -26.7037   19.9369 C   0  0  2  0  0  0  0  0  0  0  0  0
  -25.3055  -20.4248   19.3619 C   0  0  0  0  0  0  0  0  0  0  0  0
  -29.1369  -16.8608   15.4743 C   0  0  0  0  0  0  0  0  0  0  0  0
  -27.9241  -11.5092   19.7181 C   0  0  0  0  0  0  0  0  0  0  0  0
  -29.5031  -12.6101   18.1172 C   0  0  0  0  0  0  0  0  0  0  0  0
  -27.4199  -11.5318   17.2687 C   0  0  0  0  0  0  0  0  0  0  0  0
  -25.4735  -17.3347   16.3858 C   0  0  0  0  0  0  0  0  0  0  0  0
  -30.3373  -21.4042   20.8504 C   0  0  0  0  0  0  0  0  0  0  0  0
  -27.1319  -20.2583   25.4563 C   0  0  0  0  0  0  0  0  0  0  0  0
  -25.9839  -20.4327   20.7260 C   0  0  0  0  0  0  0  0  0  0  0  0
  -25.9933  -19.3007   25.1221 C   0  0  0  0  0  0  0  0  0  1  0  0
  -27.4838  -20.7688   20.6525 C   0  0  1  0  0  0  0  0  0  0  0  0
  -27.2578  -13.7094   18.5429 C   0  0  1  0  0  0  0  0  0  0  0  0
  -27.7584  -16.4262   15.9471 C   0  0  2  0  0  0  0  0  0  0  0  0
  -28.0136  -12.3552   18.4323 C   0  0  0  0  0  0  0  0  0  0  0  0
  -27.7223  -27.5902   20.1206 N   0  0  0  0  0  0  0  0  0  0  0  0
  -27.3902  -20.5304   23.0492 N   0  0  0  0  0  0  0  0  0  0  0  0
  -28.9862  -27.6162   20.5765 N   0  0  0  0  0  0  0  0  0  0  0  0
  -25.3509  -14.1170   20.0666 N   0  0  0  0  0  0  0  0  0  0  0  0
  -30.4291  -24.5340   18.8368 N   0  0  0  0  0  0  0  0  0  0  0  0
  -30.3971  -28.6494   22.1742 N   0  0  0  0  0  0  0  0  0  0  0  0
  -26.3867  -30.5890   22.9165 N   0  0  0  0  0  0  0  0  0  0  0  0
  -23.4867  -11.5206   21.1404 N   0  0  0  0  0  0  0  0  0  0  0  0
  -27.3028  -14.5196   17.3305 N   0  0  0  0  0  0  0  0  0  0  0  0
  -30.0831  -22.7257   20.3215 N   0  0  0  0  0  0  0  0  0  0  0  0
  -26.8682  -17.6213   15.9619 N   0  3  0  0  0  0  0  0  0  0  0  0
  -28.5814  -30.5379   23.5792 O   0  0  0  0  0  0  0  0  0  0  0  0
  -24.7718  -12.8469   22.5589 O   0  0  0  0  0  0  0  0  0  0  0  0
  -25.0753  -12.8914   18.1024 O   0  0  0  0  0  0  0  0  0  0  0  0
  -28.2857  -16.3803   18.3045 O   0  0  0  0  0  0  0  0  0  0  0  0
  -31.6585  -22.5753   18.6624 O   0  0  0  0  0  0  0  0  0  0  0  0
  -21.6570  -29.5290   20.1703 O   0  0  0  0  0  0  0  0  0  0  0  0
  -26.5263  -18.0589   24.6636 O   0  0  0  0  0  0  0  0  0  1  0  0
  -18.5007  -29.8539   24.6799 F   0  0  0  0  0  0  0  0  0  0  0  0
  -19.5262  -27.8063   20.5373 F   0  0  0  0  0  0  0  0  0  0  0  0
  -27.6006  -21.9383   19.9420 F   0  0  0  0  0  0  0  0  0  0  0  0
  1  2  1  0  0  0  0
  1  5  2  0  0  0  0
  2  6  2  0  0  0  0
  3  9  2  0  0  0  0
  3 17  1  0  0  0  0
  4 10  1  0  0  0  0
  4 17  2  0  0  0  0
  5 19  1  0  0  0  0
  6 21  1  0  0  0  0
  7 11  2  0  0  0  0
  7 20  1  0  0  0  0
  8 14  2  0  0  0  0
  8 23  1  0  0  0  0
  9 24  1  0  0  0  0
 10 24  2  0  0  0  0
 11 25  1  0  0  0  0
 12 13  2  0  0  0  0
 12 26  1  0  0  0  0
 13 27  1  0  0  0  0
 14 30  1  0  0  0  0
 15 22  1  0  0  0  0
 15 25  2  0  0  0  0
 16 27  2  0  0  0  0
 16 28  1  0  0  0  0
 17 29  1  0  0  0  0
 18 29  1  0  0  0  0
 18 32  2  0  0  0  0
 18 33  1  0  0  0  0
 19 21  2  0  0  0  0
 19 38  1  0  0  0  0
 20 22  2  0  0  0  0
 20 39  1  0  0  0  0
 21 47  1  0  0  0  0
 22 40  1  0  0  0  0
 23 31  2  0  0  0  0
 23 56  1  0  0  0  0
 24 80  1  0  0  0  0
 25 81  1  0  0  0  0
 26 28  2  0  0  0  0
 26 80  1  0  0  0  0
 27 82  1  0  0  0  0
 28 83  1  0  0  0  0
 29 64  2  0  0  0  0
 30 57  1  0  0  0  0
 30 65  2  0  0  0  0
 31 60  1  0  0  0  0
 31 65  1  0  0  0  0
 32 66  1  0  0  0  0
 32 69  1  0  0  0  0
 33 70  1  0  0  0  0
 33 75  2  0  0  0  0
 34 48  1  0  0  0  0
 34 71  1  0  0  0  0
 34 76  2  0  0  0  0
 35 61  1  0  0  0  0
 35 67  1  0  0  0  0
 35 77  2  0  0  0  0
 36 62  1  0  0  0  0
 36 72  1  0  0  0  0
 36 78  2  0  0  0  0
 37 68  1  0  0  0  0
 37 73  1  0  0  0  0
 37 79  2  0  0  0  0
 38 41  1  0  0  0  0
 39 48  1  0  0  0  0
 40 67  1  0  0  0  0
 41 43  1  0  0  0  0
 42 44  1  0  0  0  0
 42 45  1  0  0  0  0
 43 47  1  0  0  0  0
 44 49  1  0  0  0  0
 45 68  1  0  0  0  0
 46 49  1  0  0  0  0
 46 68  1  0  0  0  0
 47 71  1  0  0  0  0
 48 67  1  0  0  0  0
 49 66  1  0  0  0  0
 50 58  1  0  0  0  0
 51 62  1  0  0  0  0
 52 63  1  0  0  0  0
 53 63  1  0  0  0  0
 54 63  1  0  0  0  0
 55 74  1  0  0  0  0
 56 73  1  0  0  0  0
 57 59  1  0  0  0  0
 58 60  1  0  0  0  0
 59 81  1  0  0  0  0
 60 84  1  0  0  0  0
 61 63  1  0  0  0  0
 61 72  1  0  0  0  0
 62 74  1  0  0  0  0
 64 66  1  0  0  0  0
M  CHG  1  74   1
M  ISO  4  37 100  59 101  73 100  81 101
M  END
> <Batch ID>
0119

> <Smiles>
CCC(F)c1nc(C[101CH2:1][101O:1]c2ccc3c(c2)CN(C(=O)C(NC(=O)C(C)NC)C(C)(C)C)C(C(=O)NC2CCCc4ccccc42)C3)ccc1C[100NH:0][100C:0](=O)N1CCCC(n2nc(-c3ccc(Oc4ccc(F)cc4F)cc3)c(C(N)=O)c2N)C1

> <Shape>
0.274

> <Color>
0.027

> <Negative vol penalty>
0.000

$$$$

  -OEChem-04052320203D

 90 99  0     1  0  0  0  0  0999 V2000
  -17.5748  -25.7889   22.5571 C   0  0  0  0  0  0  0  0  0  0  0  0
  -18.8346  -25.4719   22.0592 C   0  0  0  0  0  0  0  0  0  0  0  0
  -23.2970   -9.8045   19.9174 C   0  0  0  0  0  0  0  0  0  0  0  0
  -23.5695  -10.0438   22.3060 C   0  0  0  0  0  0  0  0  0  0  0  0
  -17.2075  -27.1237   22.7223 C   0  0  0  0  0  0  0  0  0  0  0  0
  -19.7275  -26.4896   21.7253 C   0  0  0  0  0  0  0  0  0  0  0  0
  -24.4176  -25.5893   23.4096 C   0  0  0  0  0  0  0  0  0  0  0  0
  -29.5428  -20.7000   20.2887 C   0  0  0  0  0  0  0  0  0  0  0  0
  -22.5658   -8.6338   20.1181 C   0  0  0  0  0  0  0  0  0  0  0  0
  -22.8383   -8.8730   22.5067 C   0  0  0  0  0  0  0  0  0  0  0  0
  -25.1911  -24.6830   22.6856 C   0  0  0  0  0  0  0  0  0  0  0  0
  -23.3740   -5.5396   22.3272 C   0  0  0  0  0  0  0  0  0  0  0  0
  -23.8709   -4.6145   23.2453 C   0  0  0  0  0  0  0  0  0  0  0  0
  -28.6852  -21.4482   21.0874 C   0  0  0  0  0  0  0  0  0  0  0  0
  -26.3273  -26.5200   21.6115 C   0  0  0  0  0  0  0  0  0  0  0  0
  -21.8500   -4.8263   24.5524 C   0  0  0  0  0  0  0  0  0  0  0  0
  -23.7989  -10.5095   21.0113 C   0  0  0  0  0  0  0  0  0  0  0  0
  -24.0537  -13.0322   20.7304 C   0  0  0  0  0  0  0  0  0  0  0  0
  -18.0999  -28.1581   22.3993 C   0  0  0  0  0  0  0  0  0  0  0  0
  -24.5859  -26.9700   23.2316 C   0  0  0  0  0  0  0  0  0  0  0  0
  -19.3713  -27.8395   21.8851 C   0  0  0  0  0  0  0  0  0  0  0  0
  -25.5565  -27.4417   22.3363 C   0  0  0  0  0  0  0  0  0  0  0  0
  -29.2973  -20.5935   18.9243 C   0  0  0  0  0  0  0  0  0  0  0  0
  -22.3365   -8.1680   21.4127 C   0  0  0  0  0  0  0  0  0  0  0  0
  -26.1441  -25.1483   21.7843 C   0  0  0  0  0  0  0  0  0  0  0  0
  -22.1151   -6.1081   22.5217 C   0  0  0  0  0  0  0  0  0  0  0  0
  -23.1089   -4.2579   24.3579 C   0  0  0  0  0  0  0  0  0  0  0  0
  -21.3531   -5.7514   23.6343 C   0  0  0  0  0  0  0  0  0  0  0  0
  -24.5547  -11.7187   20.8046 C   0  0  0  0  0  0  0  0  0  0  0  0
  -27.6047  -22.0655   20.4780 C   0  0  0  0  0  0  0  0  0  0  0  0
  -28.1894  -21.2489   18.4117 C   0  0  0  0  0  0  0  0  0  0  0  0
  -25.1653  -13.8127   20.5263 C   0  0  0  0  0  0  0  0  0  0  0  0
  -22.7042  -13.5046   20.8367 C   0  0  0  0  0  0  0  0  0  0  0  0
  -22.7289  -29.3445   22.2230 C   0  0  0  0  0  0  0  0  0  0  0  0
  -25.2564  -31.1763   23.1055 C   0  0  0  0  0  0  0  0  0  0  0  0
  -28.6101  -31.3936   23.6985 C   0  0  0  0  0  0  0  0  0  0  0  0
  -29.9607  -14.4185   17.5273 C   0  0  0  0  0  0  0  0  0  0  0  0
  -17.6405  -29.5867   22.5506 C   0  0  0  0  0  0  0  0  0  0  0  0
  -23.7621  -27.9347   24.0398 C   0  0  0  0  0  0  0  0  0  0  0  0
  -25.7902  -28.9144   22.1236 C   0  0  0  0  0  0  0  0  0  0  0  0
  -18.7824  -30.5995   22.5257 C   0  0  0  0  0  0  0  0  0  0  0  0
  -30.0831  -12.7117   20.8139 C   0  0  0  0  0  0  0  0  0  0  0  0
  -19.7372  -30.2994   21.3746 C   0  0  0  0  0  0  0  0  0  0  0  0
  -28.6188  -12.3467   21.0515 C   0  0  0  0  0  0  0  0  0  0  0  0
  -30.4126  -12.7914   19.3267 C   0  0  0  0  0  0  0  0  0  0  0  0
  -29.7985  -16.4854   16.1751 C   0  0  0  0  0  0  0  0  0  0  0  0
  -28.0603  -13.3508   18.8011 C   0  0  0  0  0  0  0  0  0  0  0  0
  -28.4837  -16.3471   18.2558 C   0  0  0  0  0  0  0  0  0  0  0  0
  -30.5194  -17.7308   16.6649 C   0  0  0  0  0  0  0  0  0  0  0  0
  -20.3767  -28.9149   21.5349 C   0  0  1  0  0  0  0  0  0  0  0  0
  -23.6618  -29.3162   23.4005 C   0  0  1  0  0  0  0  0  0  0  0  0
  -27.6856  -13.3040   20.2903 C   0  0  1  0  0  0  0  0  0  0  0  0
  -29.1673  -17.6029   18.8174 C   0  0  1  0  0  0  0  0  0  0  0  0
  -27.8780  -21.1723   16.9529 C   0  0  0  0  0  0  0  0  0  0  0  0
  -30.3899  -33.0305   24.3696 C   0  0  0  0  0  0  0  0  0  0  0  0
  -30.2864  -16.2169   23.5230 C   0  0  0  0  0  0  0  0  0  0  0  0
  -31.9826  -17.5878   22.2968 C   0  0  0  0  0  0  0  0  0  0  0  0
  -25.2031  -32.3796   20.3021 C   0  0  0  0  0  0  0  0  0  0  0  0
  -27.5107  -33.2603   20.7118 C   0  0  0  0  0  0  0  0  0  0  0  0
  -25.6131  -34.0282   22.1374 C   0  0  0  0  0  0  0  0  0  0  0  0
  -29.2783  -29.8469   26.1317 C   0  0  0  0  0  0  0  0  0  0  0  0
  -30.2185  -19.7865   18.0575 C   0  0  0  0  0  0  0  0  0  0  0  0
  -26.6648  -22.8778   21.3050 C   0  0  0  0  0  0  0  0  0  1  0  0
  -30.3127  -17.2621   19.7705 C   0  0  0  0  0  0  0  0  0  0  0  0
  -29.7877  -16.9394   21.1688 C   0  0  0  0  0  0  0  0  0  0  0  0
  -26.5037  -31.6789   22.4196 C   0  0  1  0  0  0  0  0  0  0  0  0
  -29.3920  -31.9906   24.8547 C   0  0  2  0  0  0  0  0  0  0  0  0
  -30.8964  -16.5210   22.1523 C   0  0  0  0  0  0  0  0  0  0  0  0
  -26.2022  -32.8089   21.3951 C   0  0  0  0  0  0  0  0  0  0  0  0
  -25.8813  -11.6639   20.6593 N   0  0  0  0  0  0  0  0  0  0  0  0
  -27.3338  -21.9848   19.1560 N   0  0  0  0  0  0  0  0  0  0  0  0
  -26.2233  -12.9527   20.4916 N   0  0  0  0  0  0  0  0  0  0  0  0
  -24.9554  -29.8178   22.9326 N   0  0  0  0  0  0  0  0  0  0  0  0
  -29.4841  -13.6711   18.6167 N   0  0  0  0  0  0  0  0  0  0  0  0
  -29.3440  -15.6556   17.2876 N   0  0  0  0  0  0  0  0  0  0  0  0
  -25.3312  -15.1438   20.3747 N   0  0  0  0  0  0  0  0  0  0  0  0
  -21.6830  -12.5679   21.0463 N   0  0  0  0  0  0  0  0  0  0  0  0
  -21.4358  -28.9585   22.5202 N   0  0  0  0  0  0  0  0  0  0  0  0
  -27.4259  -32.0658   23.4817 N   0  0  0  0  0  0  0  0  0  0  0  0
  -29.6340  -18.4616   17.6495 N   0  3  1  0  0  0  0  0  0  0  0  0
  -30.1394  -30.9245   25.5799 N   0  3  0  0  0  0  0  0  0  0  0  0
  -22.4107  -14.7197   20.7319 O   0  0  0  0  0  0  0  0  0  0  0  0
  -23.1507  -29.6922   21.1262 O   0  0  0  0  0  0  0  0  0  0  0  0
  -24.5780  -31.9584   23.7761 O   0  0  0  0  0  0  0  0  0  0  0  0
  -29.0117  -30.4299   23.0500 O   0  0  0  0  0  0  0  0  0  0  0  0
  -30.8865  -14.0071   16.8167 O   0  0  0  0  0  0  0  0  0  0  0  0
  -21.6228   -7.0257   21.6089 O   0  0  0  0  0  0  0  0  0  0  0  0
  -26.9053  -24.2597   21.0710 O   0  0  0  0  0  0  0  0  0  1  0  0
  -23.5856   -3.3683   25.2387 F   0  0  0  0  0  0  0  0  0  0  0  0
  -20.1426   -6.2933   23.8259 F   0  0  0  0  0  0  0  0  0  0  0  0
  1  2  1  0  0  0  0
  1  5  2  0  0  0  0
  2  6  2  0  0  0  0
  3  9  2  0  0  0  0
  3 17  1  0  0  0  0
  4 10  1  0  0  0  0
  4 17  2  0  0  0  0
  5 19  1  0  0  0  0
  6 21  1  0  0  0  0
  7 11  2  0  0  0  0
  7 20  1  0  0  0  0
  8 14  2  0  0  0  0
  8 23  1  0  0  0  0
  9 24  1  0  0  0  0
 10 24  2  0  0  0  0
 11 25  1  0  0  0  0
 12 13  2  0  0  0  0
 12 26  1  0  0  0  0
 13 27  1  0  0  0  0
 14 30  1  0  0  0  0
 15 22  1  0  0  0  0
 15 25  2  0  0  0  0
 16 27  2  0  0  0  0
 16 28  1  0  0  0  0
 17 29  1  0  0  0  0
 18 29  1  0  0  0  0
 18 32  2  0  0  0  0
 18 33  1  0  0  0  0
 19 21  2  0  0  0  0
 19 38  1  0  0  0  0
 20 22  2  0  0  0  0
 20 39  1  0  0  0  0
 21 50  1  0  0  0  0
 22 40  1  0  0  0  0
 23 31  2  0  0  0  0
 23 62  1  0  0  0  0
 24 87  1  0  0  0  0
 25 88  1  0  0  0  0
 26 28  2  0  0  0  0
 26 87  1  0  0  0  0
 27 89  1  0  0  0  0
 28 90  1  0  0  0  0
 29 70  2  0  0  0  0
 30 63  1  0  0  0  0
 30 71  2  0  0  0  0
 31 54  1  0  0  0  0
 31 71  1  0  0  0  0
 32 72  1  0  0  0  0
 32 76  1  0  0  0  0
 33 77  1  0  0  0  0
 33 82  2  0  0  0  0
 34 51  1  0  0  0  0
 34 78  1  0  0  0  0
 34 83  2  0  0  0  0
 35 66  1  0  0  0  0
 35 73  1  0  0  0  0
 35 84  2  0  0  0  0
 36 67  1  0  0  0  0
 36 79  1  0  0  0  0
 36 85  2  0  0  0  0
 37 74  1  0  0  0  0
 37 75  1  0  0  0  0
 37 86  2  0  0  0  0
 38 41  1  0  0  0  0
 39 51  1  0  0  0  0
 40 73  1  0  0  0  0
 41 43  1  0  0  0  0
 42 44  1  0  0  0  0
 42 45  1  0  0  0  0
 43 50  1  0  0  0  0
 44 52  1  0  0  0  0
 45 74  1  0  0  0  0
 46 49  1  0  0  0  0
 46 75  1  0  0  0  0
 47 52  1  0  0  0  0
 47 74  1  0  0  0  0
 48 53  1  0  0  0  0
 48 75  1  0  0  0  0
 49 80  1  0  0  0  0
 50 78  1  0  0  0  0
 51 73  1  0  0  0  0
 52 72  1  0  0  0  0
 53 64  1  0  0  0  0
 53 80  1  0  0  0  0
 55 67  1  0  0  0  0
 56 68  1  0  0  0  0
 57 68  1  0  0  0  0
 58 69  1  0  0  0  0
 59 69  1  0  0  0  0
 60 69  1  0  0  0  0
 61 81  1  0  0  0  0
 62 80  1  0  0  0  0
 63 88  1  0  0  0  0
 64 65  1  0  0  0  0
 65 68  1  0  0  0  0
 66 69  1  0  0  0  0
 66 79  1  0  0  0  0
 67 81  1  0  0  0  0
 70 72  1  0  0  0  0
M  CHG  2  80   1  81   1
M  ISO  4  37 100  63 101  75 100  88 101
M  END
> <Batch ID>
0119

> <Smiles>
CNC(C)C(=O)NC(C(=O)N1Cc2cc([101O:1][101CH2:1]c3ccc(CN4CC[100N:0]([100C:0](=O)N5CCCC(n6nc(-c7ccc(Oc8ccc(F)cc8F)cc7)c(C(N)=O)c6N)C5)CC4CCC(C)C)c(C)n3)ccc2CC1C(=O)NC1CCCc2ccccc21)C(C)(C)C

> <Shape>
0.355

> <Color>
0.207

> <Negative vol penalty>
0.000

$$$$

  -OEChem-04052320203D

 89 98  0     1  0  0  0  0  0999 V2000
  -27.6841  -36.0890   23.2991 C   0  0  0  0  0  0  0  0  0  0  0  0
  -28.4631  -35.2282   22.5327 C   0  0  0  0  0  0  0  0  0  0  0  0
  -31.6246  -17.7456   23.3791 C   0  0  0  0  0  0  0  0  0  0  0  0
  -24.0537   -9.0770   21.8865 C   0  0  0  0  0  0  0  0  0  0  0  0
  -23.6436  -11.1388   23.0772 C   0  0  0  0  0  0  0  0  0  0  0  0
  -26.6993  -35.5732   24.1407 C   0  0  0  0  0  0  0  0  0  0  0  0
  -28.2586  -33.8509   22.6082 C   0  0  0  0  0  0  0  0  0  0  0  0
  -28.5628  -27.9327   18.5833 C   0  0  0  0  0  0  0  0  0  0  0  0
  -30.6555  -18.5144   24.0234 C   0  0  0  0  0  0  0  0  0  0  0  0
  -31.2421  -16.7662   22.4623 C   0  0  0  0  0  0  0  0  0  0  0  0
  -23.4827   -8.3573   22.9361 C   0  0  0  0  0  0  0  0  0  0  0  0
  -23.0726  -10.4191   24.1268 C   0  0  0  0  0  0  0  0  0  0  0  0
  -29.1229  -26.6560   18.5860 C   0  0  0  0  0  0  0  0  0  0  0  0
  -20.1196   -8.9204   24.8007 C   0  0  0  0  0  0  0  0  0  0  0  0
  -18.9227   -9.3968   25.3354 C   0  0  0  0  0  0  0  0  0  0  0  0
  -27.3397  -25.8833   20.0150 C   0  0  0  0  0  0  0  0  0  0  0  0
  -28.9212  -17.3245   22.8346 C   0  0  0  0  0  0  0  0  0  0  0  0
  -19.9804   -9.6302   27.4950 C   0  0  0  0  0  0  0  0  0  0  0  0
  -24.1341  -10.4677   21.9570 C   0  0  0  0  0  0  0  0  0  0  0  0
  -24.0668  -11.7337   19.7434 C   0  0  0  0  0  0  0  0  0  0  0  0
  -26.4761  -34.1895   24.2193 C   0  0  0  0  0  0  0  0  0  0  0  0
  -27.3910  -28.1974   19.3065 C   0  0  0  0  0  0  0  0  0  0  0  0
  -27.2708  -33.3160   23.4526 C   0  0  0  0  0  0  0  0  0  0  0  0
  -26.7653  -27.1636   20.0178 C   0  0  0  0  0  0  0  0  0  0  0  0
  -29.3037  -18.3038   23.7512 C   0  0  0  0  0  0  0  0  0  0  0  0
  -29.8904  -16.5557   22.1901 C   0  0  0  0  0  0  0  0  0  0  0  0
  -22.9921   -9.0283   24.0562 C   0  0  0  0  0  0  0  0  0  0  0  0
  -28.5130  -25.6317   19.3042 C   0  0  0  0  0  0  0  0  0  0  0  0
  -21.2469   -8.7988   25.6131 C   0  0  0  0  0  0  0  0  0  0  0  0
  -18.8531   -9.7517   26.6826 C   0  0  0  0  0  0  0  0  0  0  0  0
  -21.1774   -9.1537   26.9602 C   0  0  0  0  0  0  0  0  0  0  0  0
  -24.7243  -11.2117   20.8734 C   0  0  0  0  0  0  0  0  0  0  0  0
  -25.0604  -12.3490   19.0218 C   0  0  0  0  0  0  0  0  0  0  0  0
  -22.6818  -11.6683   19.3786 C   0  0  0  0  0  0  0  0  0  0  0  0
  -26.6347  -30.1093   21.7307 C   0  0  0  0  0  0  0  0  0  0  0  0
  -23.6286  -29.0588   21.1123 C   0  0  0  0  0  0  0  0  0  0  0  0
  -21.6206  -26.6338   19.7954 C   0  0  0  0  0  0  0  0  0  0  0  0
  -30.3366  -14.7125   20.5319 C   0  0  0  0  0  0  0  0  0  0  0  0
  -25.4320  -33.6760   25.1788 C   0  0  0  0  0  0  0  0  0  0  0  0
  -26.7847  -29.5735   19.2718 C   0  0  0  0  0  0  0  0  0  0  0  0
  -25.4947  -27.3909   20.7940 C   0  0  0  0  0  0  0  0  0  0  0  0
  -25.0264  -32.2273   24.9196 C   0  0  0  0  0  0  0  0  0  0  0  0
  -29.7670  -12.1095   18.1703 C   0  0  0  0  0  0  0  0  0  0  0  0
  -27.5421  -22.9670   24.5200 C   0  0  0  0  0  0  0  0  0  0  0  0
  -26.2613  -31.3563   24.7119 C   0  0  0  0  0  0  0  0  0  0  0  0
  -27.3972  -21.4920   24.8813 C   0  0  0  0  0  0  0  0  0  0  0  0
  -28.3471  -11.6355   18.4886 C   0  0  0  0  0  0  0  0  0  0  0  0
  -30.5343  -12.4916   19.4348 C   0  0  0  0  0  0  0  0  0  0  0  0
  -28.4338  -12.9844   20.6240 C   0  0  0  0  0  0  0  0  0  0  0  0
  -27.4833  -23.1864   23.0159 C   0  0  0  0  0  0  0  0  0  0  0  0
  -28.3647  -20.8688   22.6350 C   0  0  0  0  0  0  0  0  0  0  0  0
  -27.0624  -31.8176   23.4884 C   0  0  1  0  0  0  0  0  0  0  0  0
  -25.8720  -29.8546   20.4614 C   0  0  1  0  0  0  0  0  0  0  0  0
  -28.4336  -20.6347   24.1454 C   0  0  2  0  0  0  0  0  0  0  0  0
  -27.6000  -12.6501   19.3763 C   0  0  2  0  0  0  0  0  0  0  0  0
  -19.2045  -26.0374   19.4728 C   0  0  0  0  0  0  0  0  0  0  0  0
  -30.9494  -23.6008   20.5815 C   0  0  0  0  0  0  0  0  0  0  0  0
  -28.3404  -18.9285   25.9937 C   0  0  0  0  0  0  0  0  0  0  0  0
  -26.7828  -18.7774   24.0617 C   0  0  0  0  0  0  0  0  0  0  0  0
  -23.4317  -28.2753   24.0547 C   0  0  0  0  0  0  0  0  0  0  0  0
  -21.4475  -26.8632   23.4739 C   0  0  0  0  0  0  0  0  0  0  0  0
  -21.3679  -29.3306   23.1157 C   0  0  0  0  0  0  0  0  0  0  0  0
  -21.8961  -26.6255   16.8487 C   0  0  0  0  0  0  0  0  0  0  0  0
  -28.6076  -22.6115   20.8668 C   0  0  0  0  0  0  0  0  0  0  0  0
  -22.7827  -27.9008   21.5839 C   0  0  1  0  0  0  0  0  0  0  0  0
  -20.4240  -26.7126   18.8646 C   0  0  2  0  0  0  0  0  0  0  0  0
  -29.4470  -23.8509   20.5740 C   0  0  2  0  0  0  0  0  0  1  0  0
  -28.2318  -19.1547   24.4645 C   0  0  0  0  0  0  0  0  0  0  0  0
  -22.2824  -28.0883   23.0441 C   0  0  0  0  0  0  0  0  0  0  0  0
  -26.0343  -11.4725   20.8740 N   0  0  0  0  0  0  0  0  0  0  0  0
  -26.2080  -12.1650   19.7355 N   0  0  0  0  0  0  0  0  0  0  0  0
  -24.9442  -28.7550   20.7342 N   0  0  0  0  0  0  0  0  0  0  0  0
  -29.7677  -13.4587   20.2235 N   0  0  0  0  0  0  0  0  0  0  0  0
  -25.0557  -13.0240   17.8527 N   0  0  0  0  0  0  0  0  0  0  0  0
  -21.7966  -10.9977   20.2336 N   0  0  0  0  0  0  0  0  0  0  0  0
  -29.5021  -15.5613   21.2584 N   0  0  0  0  0  0  0  0  0  0  0  0
  -26.4280  -31.3651   22.2689 N   0  0  0  0  0  0  0  0  0  0  0  0
  -21.7150  -27.7485   20.6014 N   0  0  0  0  0  0  0  0  0  0  0  0
  -28.5403  -22.3453   22.3252 N   0  3  1  0  0  0  0  0  0  0  0  0
  -20.7320  -26.0466   17.5675 N   0  3  0  0  0  0  0  0  0  0  0  0
  -22.2450  -12.1751   18.3175 O   0  0  0  0  0  0  0  0  0  0  0  0
  -27.3561  -29.2309   22.1887 O   0  0  0  0  0  0  0  0  0  0  0  0
  -23.1381  -30.1899   21.0739 O   0  0  0  0  0  0  0  0  0  0  0  0
  -22.3922  -25.6773   19.8088 O   0  0  0  0  0  0  0  0  0  0  0  0
  -31.4697  -15.0215   20.1543 O   0  0  0  0  0  0  0  0  0  0  0  0
  -22.4347   -8.3264   25.0805 O   0  0  0  0  0  0  0  0  0  0  0  0
  -29.0579  -24.3848   19.3091 O   0  0  0  0  0  0  0  0  0  1  0  0
  -17.7040  -10.2107   27.1956 F   0  0  0  0  0  0  0  0  0  0  0  0
  -22.2574   -9.0402   27.7454 F   0  0  0  0  0  0  0  0  0  0  0  0
  1  2  1  0  0  0  0
  1  6  2  0  0  0  0
  2  7  2  0  0  0  0
  3  9  2  0  0  0  0
  3 10  1  0  0  0  0
  4 11  2  0  0  0  0
  4 19  1  0  0  0  0
  5 12  1  0  0  0  0
  5 19  2  0  0  0  0
  6 21  1  0  0  0  0
  7 23  1  0  0  0  0
  8 13  2  0  0  0  0
  8 22  1  0  0  0  0
  9 25  1  0  0  0  0
 10 26  2  0  0  0  0
 11 27  1  0  0  0  0
 12 27  2  0  0  0  0
 13 28  1  0  0  0  0
 14 15  2  0  0  0  0
 14 29  1  0  0  0  0
 15 30  1  0  0  0  0
 16 24  1  0  0  0  0
 16 28  2  0  0  0  0
 17 25  2  0  0  0  0
 17 26  1  0  0  0  0
 18 30  2  0  0  0  0
 18 31  1  0  0  0  0
 19 32  1  0  0  0  0
 20 32  1  0  0  0  0
 20 33  2  0  0  0  0
 20 34  1  0  0  0  0
 21 23  2  0  0  0  0
 21 39  1  0  0  0  0
 22 24  2  0  0  0  0
 22 40  1  0  0  0  0
 23 52  1  0  0  0  0
 24 41  1  0  0  0  0
 25 68  1  0  0  0  0
 26 76  1  0  0  0  0
 27 86  1  0  0  0  0
 28 87  1  0  0  0  0
 29 31  2  0  0  0  0
 29 86  1  0  0  0  0
 30 88  1  0  0  0  0
 31 89  1  0  0  0  0
 32 70  2  0  0  0  0
 33 71  1  0  0  0  0
 33 74  1  0  0  0  0
 34 75  1  0  0  0  0
 34 81  2  0  0  0  0
 35 53  1  0  0  0  0
 35 77  1  0  0  0  0
 35 82  2  0  0  0  0
 36 65  1  0  0  0  0
 36 72  1  0  0  0  0
 36 83  2  0  0  0  0
 37 66  1  0  0  0  0
 37 78  1  0  0  0  0
 37 84  2  0  0  0  0
 38 73  1  0  0  0  0
 38 76  1  0  0  0  0
 38 85  2  0  0  0  0
 39 42  1  0  0  0  0
 40 53  1  0  0  0  0
 41 72  1  0  0  0  0
 42 45  1  0  0  0  0
 43 47  1  0  0  0  0
 43 48  1  0  0  0  0
 44 46  1  0  0  0  0
 44 50  1  0  0  0  0
 45 52  1  0  0  0  0
 46 54  1  0  0  0  0
 47 55  1  0  0  0  0
 48 73  1  0  0  0  0
 49 55  1  0  0  0  0
 49 73  1  0  0  0  0
 50 79  1  0  0  0  0
 51 54  1  0  0  0  0
 51 79  1  0  0  0  0
 52 77  1  0  0  0  0
 53 72  1  0  0  0  0
 54 68  1  0  0  0  0
 55 71  1  0  0  0  0
 56 66  1  0  0  0  0
 57 67  1  0  0  0  0
 58 68  1  0  0  0  0
 59 68  1  0  0  0  0
 60 69  1  0  0  0  0
 61 69  1  0  0  0  0
 62 69  1  0  0  0  0
 63 80  1  0  0  0  0
 64 67  1  0  0  0  0
 64 79  1  0  0  0  0
 65 69  1  0  0  0  0
 65 78  1  0  0  0  0
 66 80  1  0  0  0  0
 67 87  1  0  0  0  0
 70 71  1  0  0  0  0
M  CHG  2  79   1  80   1
M  ISO  4  38 100  67 101  76 100  87 101
M  END
> <Batch ID>
0119

> <Smiles>
CNC(C)C(=O)NC(C(=O)N1Cc2cc([101O:1][101CH:1](C)CN3CCCC(C(C)(C)c4cccc([100NH:0][100C:0](=O)N5CCCC(n6nc(-c7ccc(Oc8ccc(F)cc8F)cc7)c(C(N)=O)c6N)C5)c4)C3)ccc2CC1C(=O)NC1CCCc2ccccc21)C(C)(C)C

> <Shape>
0.286

> <Color>
0.074

> <Negative vol penalty>
0.000

$$$$
