
  -OEChem-04052320233D

 84 92  0     1  0  0  0  0  0999 V2000
  -23.0898   -7.6686   21.5517 C   0  0  0  0  0  0  0  0  0  0  0  0
  -22.8648   -8.3907   20.3841 C   0  0  0  0  0  0  0  0  0  0  0  0
  -25.8508  -31.3265   22.5935 C   0  0  0  0  0  0  0  0  0  0  0  0
  -26.5002  -31.9234   20.3443 C   0  0  0  0  0  0  0  0  0  0  0  0
  -23.0835   -8.3195   22.7847 C   0  0  0  0  0  0  0  0  0  0  0  0
  -22.6323   -9.7641   20.4489 C   0  0  0  0  0  0  0  0  0  0  0  0
  -24.3750  -13.9893   16.3726 C   0  0  0  0  0  0  0  0  0  0  0  0
  -25.9944  -32.6566   22.9880 C   0  0  0  0  0  0  0  0  0  0  0  0
  -26.6437  -33.2536   20.7387 C   0  0  0  0  0  0  0  0  0  0  0  0
  -23.6993  -14.6216   15.3299 C   0  0  0  0  0  0  0  0  0  0  0  0
  -24.2238  -35.5281   22.7577 C   0  0  0  0  0  0  0  0  0  0  0  0
  -23.2184  -36.0811   23.5506 C   0  0  0  0  0  0  0  0  0  0  0  0
  -23.2143  -16.4855   16.7824 C   0  0  0  0  0  0  0  0  0  0  0  0
  -24.8323  -36.5123   25.2961 C   0  0  0  0  0  0  0  0  0  0  0  0
  -26.1038  -30.9598   21.2717 C   0  0  0  0  0  0  0  0  0  0  0  0
  -24.7944  -28.9675   20.3640 C   0  0  0  0  0  0  0  0  0  0  0  0
  -22.8603   -9.7032   22.8638 C   0  0  0  0  0  0  0  0  0  0  0  0
  -24.4663  -14.5966   17.6333 C   0  0  0  0  0  0  0  0  0  0  0  0
  -22.6216  -10.4339   21.6841 C   0  0  0  0  0  0  0  0  0  0  0  0
  -23.8940  -15.8600   17.8387 C   0  0  0  0  0  0  0  0  0  0  0  0
  -26.3908  -33.6202   22.0606 C   0  0  0  0  0  0  0  0  0  0  0  0
  -23.1163  -15.8686   15.5355 C   0  0  0  0  0  0  0  0  0  0  0  0
  -25.5335  -35.4670   23.2339 C   0  0  0  0  0  0  0  0  0  0  0  0
  -23.5227  -36.5733   24.8198 C   0  0  0  0  0  0  0  0  0  0  0  0
  -25.8377  -35.9592   24.5031 C   0  0  0  0  0  0  0  0  0  0  0  0
  -25.9562  -29.5858   20.8637 C   0  0  0  0  0  0  0  0  0  0  0  0
  -25.1717  -27.6682   20.1272 C   0  0  0  0  0  0  0  0  0  0  0  0
  -23.4908  -29.5183   20.1343 C   0  0  0  0  0  0  0  0  0  0  0  0
  -23.4786  -13.8480   20.5604 C   0  0  0  0  0  0  0  0  0  0  0  0
  -25.1790  -16.4839   21.3867 C   0  0  0  0  0  0  0  0  0  0  0  0
  -26.5175  -19.4798   20.4488 C   0  0  0  0  0  0  0  0  0  0  0  0
  -28.8283  -23.9461   18.1471 C   0  0  0  0  0  0  0  0  0  0  0  0
  -22.8159  -10.3548   24.2232 C   0  0  0  0  0  0  0  0  0  0  0  0
  -25.2217  -13.9134   18.7402 C   0  0  0  0  0  0  0  0  0  0  0  0
  -23.9811  -16.5635   19.1677 C   0  0  0  0  0  0  0  0  0  0  0  0
  -22.9336  -11.8760   24.1737 C   0  0  0  0  0  0  0  0  0  0  0  0
  -29.3628  -25.1638   21.4499 C   0  0  0  0  0  0  0  0  0  0  0  0
  -22.0098  -12.4483   23.1032 C   0  0  0  0  0  0  0  0  0  0  0  0
  -28.4334  -26.3748   21.5481 C   0  0  0  0  0  0  0  0  0  0  0  0
  -25.8865  -21.2683   15.3790 C   0  0  0  0  0  0  0  0  0  0  0  0
  -29.9733  -25.0325   20.0564 C   0  0  0  0  0  0  0  0  0  0  0  0
  -28.0673  -26.2271   19.0496 C   0  0  0  0  0  0  0  0  0  0  0  0
  -24.0954  -22.8180   15.1911 C   0  0  0  0  0  0  0  0  0  0  0  0
  -22.3902  -11.9292   21.7113 C   0  0  1  0  0  0  0  0  0  0  0  0
  -24.8106  -14.3931   20.1288 C   0  0  1  0  0  0  0  0  0  0  0  0
  -24.3681  -21.3238   15.2619 C   0  0  1  0  0  0  0  0  0  0  0  0
  -27.3839  -26.3692   20.4204 C   0  0  2  0  0  0  0  0  0  0  0  0
  -26.1879  -22.3783   16.3777 C   0  0  1  0  0  0  0  0  0  0  0  0
  -22.6586  -15.3737    9.7404 C   0  0  0  0  0  0  0  0  0  0  0  0
  -27.8193  -21.4253   21.3531 C   0  0  0  0  0  0  0  0  0  0  0  0
  -22.6670  -17.5146   22.7786 C   0  0  0  0  0  0  0  0  0  0  0  0
  -23.7091  -19.7907   22.8216 C   0  0  0  0  0  0  0  0  0  0  0  0
  -24.7918  -17.9020   24.0395 C   0  0  0  0  0  0  0  0  0  0  0  0
  -28.7514  -19.0096   18.5654 C   0  0  0  0  0  0  0  0  0  0  0  0
  -23.8295  -20.5638   14.0603 C   0  0  0  0  0  0  0  0  0  0  0  0
  -27.5719  -22.9792   16.2378 C   0  0  0  0  0  0  0  0  0  0  0  0
  -23.3425  -16.1406   10.8621 C   0  0  0  0  0  0  0  0  0  0  0  0
  -23.7947  -19.0573   14.3196 C   0  0  0  0  0  0  0  0  0  0  0  0
  -22.5796  -15.9993   12.1786 C   0  0  0  0  0  0  0  0  0  0  0  0
  -23.2236  -18.2992   13.1152 C   0  0  0  0  0  0  0  0  0  0  0  0
  -24.8736  -17.9569   21.5132 C   0  0  1  0  0  0  0  0  0  0  0  0
  -27.8981  -20.0756   20.6569 C   0  0  2  0  0  0  0  0  0  0  0  0
  -23.2049  -16.7814   13.3412 C   0  0  1  0  0  0  0  0  0  1  0  0
  -24.0069  -18.2772   22.7636 C   0  0  0  0  0  0  0  0  0  0  0  0
  -26.9938  -28.7482   20.9404 N   0  0  0  0  0  0  0  0  0  0  0  0
  -26.4853  -27.5903   20.4858 N   0  0  0  0  0  0  0  0  0  0  0  0
  -24.7248  -15.8520   20.2204 N   0  0  0  0  0  0  0  0  0  0  0  0
  -28.9251  -25.0319   19.0330 N   0  0  0  0  0  0  0  0  0  0  0  0
  -24.5047  -26.5963   19.6494 N   0  0  0  0  0  0  0  0  0  0  0  0
  -23.2750  -30.8708   20.4318 N   0  0  0  0  0  0  0  0  0  0  0  0
  -23.5527  -12.6309   21.2105 N   0  0  0  0  0  0  0  0  0  0  0  0
  -26.1602  -18.6443   21.4858 N   0  0  0  0  0  0  0  0  0  0  0  0
  -27.8031  -24.0221   17.2123 N   0  0  0  0  0  0  0  0  0  0  0  0
  -25.1374  -23.4213   16.0911 N   0  3  0  0  0  0  0  0  0  0  0  0
  -28.5847  -20.2617   19.3473 N   0  3  0  0  0  0  0  0  0  0  0  0
  -22.5408  -28.8274   19.6942 O   0  0  0  0  0  0  0  0  0  0  0  0
  -22.4592  -14.4851   20.3226 O   0  0  0  0  0  0  0  0  0  0  0  0
  -25.8039  -15.9164   22.2862 O   0  0  0  0  0  0  0  0  0  0  0  0
  -25.8237  -19.7334   19.4665 O   0  0  0  0  0  0  0  0  0  0  0  0
  -29.5952  -22.9781   18.1898 O   0  0  0  0  0  0  0  0  0  0  0  0
  -26.5307  -34.9183   22.4451 O   0  0  0  0  0  0  0  0  0  0  0  0
  -22.4556  -16.4877   14.5196 O   0  0  0  0  0  0  0  0  0  1  0  0
  -22.5573  -37.1058   25.5806 F   0  0  0  0  0  0  0  0  0  0  0  0
  -27.0943  -35.9044   24.9656 F   0  0  0  0  0  0  0  0  0  0  0  0
  1  2  1  0  0  0  0
  1  5  2  0  0  0  0
  2  6  2  0  0  0  0
  3  8  2  0  0  0  0
  3 15  1  0  0  0  0
  4  9  1  0  0  0  0
  4 15  2  0  0  0  0
  5 17  1  0  0  0  0
  6 19  1  0  0  0  0
  7 10  2  0  0  0  0
  7 18  1  0  0  0  0
  8 21  1  0  0  0  0
  9 21  2  0  0  0  0
 10 22  1  0  0  0  0
 11 12  2  0  0  0  0
 11 23  1  0  0  0  0
 12 24  1  0  0  0  0
 13 20  1  0  0  0  0
 13 22  2  0  0  0  0
 14 24  2  0  0  0  0
 14 25  1  0  0  0  0
 15 26  1  0  0  0  0
 16 26  1  0  0  0  0
 16 27  2  0  0  0  0
 16 28  1  0  0  0  0
 17 19  2  0  0  0  0
 17 33  1  0  0  0  0
 18 20  2  0  0  0  0
 18 34  1  0  0  0  0
 19 44  1  0  0  0  0
 20 35  1  0  0  0  0
 21 81  1  0  0  0  0
 22 82  1  0  0  0  0
 23 25  2  0  0  0  0
 23 81  1  0  0  0  0
 24 83  1  0  0  0  0
 25 84  1  0  0  0  0
 26 65  2  0  0  0  0
 27 66  1  0  0  0  0
 27 69  1  0  0  0  0
 28 70  1  0  0  0  0
 28 76  2  0  0  0  0
 29 45  1  0  0  0  0
 29 71  1  0  0  0  0
 29 77  2  0  0  0  0
 30 61  1  0  0  0  0
 30 67  1  0  0  0  0
 30 78  2  0  0  0  0
 31 62  1  0  0  0  0
 31 72  1  0  0  0  0
 31 79  2  0  0  0  0
 32 68  1  0  0  0  0
 32 73  1  0  0  0  0
 32 80  2  0  0  0  0
 33 36  1  0  0  0  0
 34 45  1  0  0  0  0
 35 67  1  0  0  0  0
 36 38  1  0  0  0  0
 37 39  1  0  0  0  0
 37 41  1  0  0  0  0
 38 44  1  0  0  0  0
 39 47  1  0  0  0  0
 40 46  1  0  0  0  0
 40 48  1  0  0  0  0
 41 68  1  0  0  0  0
 42 47  1  0  0  0  0
 42 68  1  0  0  0  0
 43 46  1  0  0  0  0
 43 74  1  0  0  0  0
 44 71  1  0  0  0  0
 45 67  1  0  0  0  0
 46 55  1  0  0  0  0
 47 66  1  0  0  0  0
 48 56  1  0  0  0  0
 48 74  1  0  0  0  0
 49 57  1  0  0  0  0
 50 62  1  0  0  0  0
 51 64  1  0  0  0  0
 52 64  1  0  0  0  0
 53 64  1  0  0  0  0
 54 75  1  0  0  0  0
 55 58  1  0  0  0  0
 56 73  1  0  0  0  0
 57 59  1  0  0  0  0
 58 60  1  0  0  0  0
 59 63  1  0  0  0  0
 60 63  1  0  0  0  0
 61 64  1  0  0  0  0
 61 72  1  0  0  0  0
 62 75  1  0  0  0  0
 63 82  1  0  0  0  0
 65 66  1  0  0  0  0
M  CHG  2  74   1  75   1
M  ISO  4  32 100  63 101  73 100  82 101
M  END
> <Batch ID>
0120

> <Smiles>
CCC[101CH:1](CCCC1CNC(C[100NH:0][100C:0](=O)N2CCCC(n3nc(-c4ccc(Oc5ccc(F)cc5F)cc4)c(C(N)=O)c3N)C2)C1)[101O:1]c1ccc2c(c1)CN(C(=O)C(NC(=O)C(C)NC)C(C)(C)C)C(C(=O)NC1CCCc3ccccc31)C2

> <Shape>
0.237

> <Color>
0.073

> <Negative vol penalty>
0.000

$$$$

  -OEChem-04052320233D

 87 96  0     1  0  0  0  0  0999 V2000
  -28.1794  -24.4652   16.7347 C   0  0  0  0  0  0  0  0  0  0  0  0
  -27.0216  -24.6052   17.4933 C   0  0  0  0  0  0  0  0  0  0  0  0
  -28.2373  -14.7247   18.9841 C   0  0  0  0  0  0  0  0  0  0  0  0
  -28.4848  -15.9165   21.0710 C   0  0  0  0  0  0  0  0  0  0  0  0
  -29.3662  -25.0608   17.1598 C   0  0  0  0  0  0  0  0  0  0  0  0
  -27.0503  -25.3400   18.6780 C   0  0  0  0  0  0  0  0  0  0  0  0
  -23.0923  -28.4679   19.1203 C   0  0  0  0  0  0  0  0  0  0  0  0
  -18.2327  -19.4044   23.6583 C   0  0  0  0  0  0  0  0  0  0  0  0
  -29.5990  -14.4228   18.9950 C   0  0  0  0  0  0  0  0  0  0  0  0
  -29.8466  -15.6146   21.0820 C   0  0  0  0  0  0  0  0  0  0  0  0
  -21.8765  -27.9057   19.5069 C   0  0  0  0  0  0  0  0  0  0  0  0
  -31.8031  -12.9671   21.8458 C   0  0  0  0  0  0  0  0  0  0  0  0
  -32.3568  -12.5211   23.0458 C   0  0  0  0  0  0  0  0  0  0  0  0
  -19.4266  -19.2347   22.9663 C   0  0  0  0  0  0  0  0  0  0  0  0
  -22.2535  -28.6595   21.7671 C   0  0  0  0  0  0  0  0  0  0  0  0
  -33.8719  -14.4031   23.0462 C   0  0  0  0  0  0  0  0  0  0  0  0
  -27.6802  -15.4717   20.0221 C   0  0  0  0  0  0  0  0  0  0  0  0
  -25.2293  -15.0235   20.5697 C   0  0  0  0  0  0  0  0  0  0  0  0
  -29.4071  -25.8114   18.3454 C   0  0  0  0  0  0  0  0  0  0  0  0
  -23.9043  -29.1218   20.0581 C   0  0  0  0  0  0  0  0  0  0  0  0
  -28.2391  -25.9451   19.1201 C   0  0  0  0  0  0  0  0  0  0  0  0
  -17.3249  -20.3712   23.2406 C   0  0  0  0  0  0  0  0  0  0  0  0
  -23.4779  -29.2315   21.3894 C   0  0  0  0  0  0  0  0  0  0  0  0
  -30.4037  -14.8677   20.0439 C   0  0  0  0  0  0  0  0  0  0  0  0
  -21.4583  -27.9989   20.8311 C   0  0  0  0  0  0  0  0  0  0  0  0
  -32.2838  -14.1311   21.2460 C   0  0  0  0  0  0  0  0  0  0  0  0
  -33.3912  -13.2391   23.6461 C   0  0  0  0  0  0  0  0  0  0  0  0
  -33.3181  -14.8491   21.8462 C   0  0  0  0  0  0  0  0  0  0  0  0
  -26.2737  -15.7844   20.0111 C   0  0  0  0  0  0  0  0  0  0  0  0
  -17.6556  -21.1363   22.1339 C   0  0  0  0  0  0  0  0  0  0  0  0
  -19.6632  -20.0505   21.8717 C   0  0  0  0  0  0  0  0  0  0  0  0
  -24.0934  -15.7446   20.2936 C   0  0  0  0  0  0  0  0  0  0  0  0
  -25.2812  -13.7764   21.2752 C   0  0  0  0  0  0  0  0  0  0  0  0
  -26.8337  -28.6560   21.2006 C   0  0  0  0  0  0  0  0  0  0  0  0
  -18.2242  -26.2293   20.7798 C   0  0  0  0  0  0  0  0  0  0  0  0
  -26.2818  -31.4849   22.6889 C   0  0  0  0  0  0  0  0  0  0  0  0
  -24.0117  -33.7267   23.9004 C   0  0  0  0  0  0  0  0  0  0  0  0
  -21.3259  -20.5702   20.0519 C   0  0  0  0  0  0  0  0  0  0  0  0
  -30.7244  -26.3970   18.7887 C   0  0  0  0  0  0  0  0  0  0  0  0
  -25.2005  -29.7463   19.6195 C   0  0  0  0  0  0  0  0  0  0  0  0
  -24.3033  -29.9408   22.4306 C   0  0  0  0  0  0  0  0  0  0  0  0
  -30.5822  -27.4725   19.8626 C   0  0  0  0  0  0  0  0  0  0  0  0
  -23.3820  -19.7387   17.2665 C   0  0  0  0  0  0  0  0  0  0  0  0
  -15.1275  -19.3782   24.1679 C   0  0  0  0  0  0  0  0  0  0  0  0
  -14.7426  -20.4717   23.2211 C   0  0  0  0  0  0  0  0  0  0  0  0
  -29.6286  -27.0091   20.9593 C   0  0  0  0  0  0  0  0  0  0  0  0
  -24.2317  -18.5732   17.7782 C   0  0  0  0  0  0  0  0  0  0  0  0
  -23.1309  -20.7789   18.3567 C   0  0  0  0  0  0  0  0  0  0  0  0
  -23.4220  -19.0810   20.1177 C   0  0  0  0  0  0  0  0  0  0  0  0
  -16.0438  -20.5594   23.9767 C   0  0  0  0  0  0  0  0  0  0  0  0
  -28.2243  -26.7551   20.3982 C   0  0  1  0  0  0  0  0  0  0  0  0
  -26.1879  -29.9412   20.7660 C   0  0  1  0  0  0  0  0  0  0  0  0
  -23.6473  -17.9757   19.0731 C   0  0  2  0  0  0  0  0  0  0  0  0
  -23.8622  -35.9272   25.0976 C   0  0  0  0  0  0  0  0  0  0  0  0
  -27.0146  -30.1058   25.3102 C   0  0  0  0  0  0  0  0  0  0  0  0
  -25.9520  -32.0158   26.5313 C   0  0  0  0  0  0  0  0  0  0  0  0
  -27.9249  -32.4216   25.0598 C   0  0  0  0  0  0  0  0  0  0  0  0
  -22.5792  -34.9910   21.6402 C   0  0  0  0  0  0  0  0  0  0  0  0
  -16.7169  -22.1965   21.6380 C   0  0  0  0  0  0  0  0  0  0  0  0
  -17.3298  -25.4874   19.7973 C   0  0  0  0  0  0  0  0  0  0  0  0
  -19.5069  -26.7941   20.2014 C   0  0  0  0  0  0  0  0  0  1  0  0
  -16.5116  -24.3730   20.4300 C   0  0  0  0  0  0  0  0  0  0  0  0
  -25.6842  -31.8979   24.0123 C   0  0  1  0  0  0  0  0  0  0  0  0
  -23.9019  -35.2328   23.7452 C   0  0  2  0  0  0  0  0  0  0  0  0
  -26.6290  -31.5952   25.2095 C   0  0  0  0  0  0  0  0  0  0  0  0
  -25.8399  -16.9031   19.4243 N   0  0  0  0  0  0  0  0  0  0  0  0
  -18.8055  -21.0004   21.4361 N   0  0  0  0  0  0  0  0  0  0  0  0
  -24.5103  -16.8504   19.6126 N   0  0  0  0  0  0  0  0  0  0  0  0
  -25.5658  -30.5295   21.9539 N   0  0  0  0  0  0  0  0  0  0  0  0
  -22.5733  -20.1409   19.5512 N   0  0  0  0  0  0  0  0  0  0  0  0
  -22.7887  -15.5344   20.5692 N   0  0  0  0  0  0  0  0  0  0  0  0
  -26.5301  -13.1714   21.4717 N   0  0  0  0  0  0  0  0  0  0  0  0
  -20.8819  -19.8683   21.1720 N   0  0  0  0  0  0  0  0  0  0  0  0
  -27.5266  -28.0069   20.1966 N   0  0  0  0  0  0  0  0  0  0  0  0
  -25.3243  -33.3052   23.8762 N   0  0  0  0  0  0  0  0  0  0  0  0
  -22.6620  -35.5875   22.9982 N   0  3  0  0  0  0  0  0  0  0  0  0
  -17.4168  -23.3358   20.9849 N   0  3  0  0  0  0  0  0  0  0  0  0
  -24.2490  -13.2070   21.7039 O   0  0  0  0  0  0  0  0  0  0  0  0
  -26.7137  -28.2818   22.3613 O   0  0  0  0  0  0  0  0  0  0  0  0
  -17.9286  -26.3768   21.9645 O   0  0  0  0  0  0  0  0  0  0  0  0
  -27.3410  -31.9966   22.3177 O   0  0  0  0  0  0  0  0  0  0  0  0
  -23.0314  -32.9976   24.0339 O   0  0  0  0  0  0  0  0  0  0  0  0
  -20.6852  -21.4741   19.5094 O   0  0  0  0  0  0  0  0  0  0  0  0
  -31.7324  -14.5730   20.0550 O   0  0  0  0  0  0  0  0  0  0  0  0
  -20.2723  -27.4504   21.2112 O   0  0  0  0  0  0  0  0  0  1  0  0
  -33.9218  -12.8115   24.7992 F   0  0  0  0  0  0  0  0  0  0  0  0
  -33.7833  -15.9687   21.2752 F   0  0  0  0  0  0  0  0  0  0  0  0
  1  2  1  0  0  0  0
  1  5  2  0  0  0  0
  2  6  2  0  0  0  0
  3  9  2  0  0  0  0
  3 17  1  0  0  0  0
  4 10  1  0  0  0  0
  4 17  2  0  0  0  0
  5 19  1  0  0  0  0
  6 21  1  0  0  0  0
  7 11  2  0  0  0  0
  7 20  1  0  0  0  0
  8 14  2  0  0  0  0
  8 22  1  0  0  0  0
  9 24  1  0  0  0  0
 10 24  2  0  0  0  0
 11 25  1  0  0  0  0
 12 13  2  0  0  0  0
 12 26  1  0  0  0  0
 13 27  1  0  0  0  0
 14 31  1  0  0  0  0
 15 23  1  0  0  0  0
 15 25  2  0  0  0  0
 16 27  2  0  0  0  0
 16 28  1  0  0  0  0
 17 29  1  0  0  0  0
 18 29  1  0  0  0  0
 18 32  2  0  0  0  0
 18 33  1  0  0  0  0
 19 21  2  0  0  0  0
 19 39  1  0  0  0  0
 20 23  2  0  0  0  0
 20 40  1  0  0  0  0
 21 51  1  0  0  0  0
 22 30  2  0  0  0  0
 22 50  1  0  0  0  0
 23 41  1  0  0  0  0
 24 84  1  0  0  0  0
 25 85  1  0  0  0  0
 26 28  2  0  0  0  0
 26 84  1  0  0  0  0
 27 86  1  0  0  0  0
 28 87  1  0  0  0  0
 29 66  2  0  0  0  0
 30 59  1  0  0  0  0
 30 67  1  0  0  0  0
 31 67  2  0  0  0  0
 31 73  1  0  0  0  0
 32 68  1  0  0  0  0
 32 71  1  0  0  0  0
 33 72  1  0  0  0  0
 33 78  2  0  0  0  0
 34 52  1  0  0  0  0
 34 74  1  0  0  0  0
 34 79  2  0  0  0  0
 35 60  1  0  0  0  0
 35 61  1  0  0  0  0
 35 80  2  0  0  0  0
 36 63  1  0  0  0  0
 36 69  1  0  0  0  0
 36 81  2  0  0  0  0
 37 64  1  0  0  0  0
 37 75  1  0  0  0  0
 37 82  2  0  0  0  0
 38 70  1  0  0  0  0
 38 73  1  0  0  0  0
 38 83  2  0  0  0  0
 39 42  1  0  0  0  0
 40 52  1  0  0  0  0
 41 69  1  0  0  0  0
 42 46  1  0  0  0  0
 43 47  1  0  0  0  0
 43 48  1  0  0  0  0
 44 45  1  0  0  0  0
 44 50  1  0  0  0  0
 45 50  1  0  0  0  0
 46 51  1  0  0  0  0
 47 53  1  0  0  0  0
 48 70  1  0  0  0  0
 49 53  1  0  0  0  0
 49 70  1  0  0  0  0
 51 74  1  0  0  0  0
 52 69  1  0  0  0  0
 53 68  1  0  0  0  0
 54 64  1  0  0  0  0
 55 65  1  0  0  0  0
 56 65  1  0  0  0  0
 57 65  1  0  0  0  0
 58 76  1  0  0  0  0
 59 77  1  0  0  0  0
 60 62  1  0  0  0  0
 61 85  1  0  0  0  0
 62 77  1  0  0  0  0
 63 65  1  0  0  0  0
 63 75  1  0  0  0  0
 64 76  1  0  0  0  0
 66 68  1  0  0  0  0
M  CHG  2  76   1  77   1
M  ISO  4  38 100  61 101  73 100  85 101
M  END
> <Batch ID>
0120

> <Smiles>
CNC(C)C(=O)NC(C(=O)N1Cc2cc([101O:1][101CH2:1]C(=O)CCNCc3nc([100NH:0][100C:0](=O)N4CCCC(n5nc(-c6ccc(Oc7ccc(F)cc7F)cc6)c(C(N)=O)c5N)C4)ccc3C3CC3)ccc2CC1C(=O)NC1CCCc2ccccc21)C(C)(C)C

> <Shape>
0.244

> <Color>
0.075

> <Negative vol penalty>
0.000

$$$$

  -OEChem-04052320233D

 82 90  0     1  0  0  0  0  0999 V2000
  -18.2963  -30.9375   23.4718 C   0  0  0  0  0  0  0  0  0  0  0  0
  -19.6848  -30.9806   23.3966 C   0  0  0  0  0  0  0  0  0  0  0  0
  -27.7082  -17.6493   19.7729 C   0  0  0  0  0  0  0  0  0  0  0  0
  -29.5601  -17.5788   21.3230 C   0  0  0  0  0  0  0  0  0  0  0  0
  -17.6252  -29.7330   23.2647 C   0  0  0  0  0  0  0  0  0  0  0  0
  -20.4031  -29.8190   23.1153 C   0  0  0  0  0  0  0  0  0  0  0  0
  -25.5841  -29.3874   19.8785 C   0  0  0  0  0  0  0  0  0  0  0  0
  -27.7992  -16.2681   19.6014 C   0  0  0  0  0  0  0  0  0  0  0  0
  -29.6511  -16.1975   21.1515 C   0  0  0  0  0  0  0  0  0  0  0  0
  -26.9227  -29.2985   20.2582 C   0  0  0  0  0  0  0  0  0  0  0  0
  -29.7359  -14.0940   17.8847 C   0  0  0  0  0  0  0  0  0  0  0  0
  -29.6677  -13.5975   16.5830 C   0  0  0  0  0  0  0  0  0  0  0  0
  -26.8130  -26.8969   20.0603 C   0  0  0  0  0  0  0  0  0  0  0  0
  -27.7093  -12.3128   17.1757 C   0  0  0  0  0  0  0  0  0  0  0  0
  -28.5887  -18.3047   20.6337 C   0  0  0  0  0  0  0  0  0  0  0  0
  -27.7236  -20.4211   21.7650 C   0  0  0  0  0  0  0  0  0  0  0  0
  -18.3351  -28.5581   22.9712 C   0  0  0  0  0  0  0  0  0  0  0  0
  -24.8457  -28.2290   19.5969 C   0  0  0  0  0  0  0  0  0  0  0  0
  -19.7410  -28.5975   22.9054 C   0  0  0  0  0  0  0  0  0  0  0  0
  -25.4660  -26.9739   19.6747 C   0  0  0  0  0  0  0  0  0  0  0  0
  -28.7706  -15.5421   20.2906 C   0  0  0  0  0  0  0  0  0  0  0  0
  -27.5365  -28.0529   20.3519 C   0  0  0  0  0  0  0  0  0  0  0  0
  -28.7909  -13.6998   18.8319 C   0  0  0  0  0  0  0  0  0  0  0  0
  -28.6544  -12.7069   16.2285 C   0  0  0  0  0  0  0  0  0  0  0  0
  -27.7775  -12.8093   18.4774 C   0  0  0  0  0  0  0  0  0  0  0  0
  -28.4956  -19.7316   20.8109 C   0  0  0  0  0  0  0  0  0  0  0  0
  -27.9801  -21.7481   21.5202 C   0  0  0  0  0  0  0  0  0  0  0  0
  -26.8525  -19.9081   22.7817 C   0  0  0  0  0  0  0  0  0  0  0  0
  -22.2653  -26.8552   20.8449 C   0  0  0  0  0  0  0  0  0  0  0  0
  -22.5913  -24.8464   18.3189 C   0  0  0  0  0  0  0  0  0  0  0  0
  -24.6369  -23.4594   15.9655 C   0  0  0  0  0  0  0  0  0  0  0  0
  -32.6296  -24.4764   19.1132 C   0  0  0  0  0  0  0  0  0  0  0  0
  -17.5688  -27.2701   22.8017 C   0  0  0  0  0  0  0  0  0  0  0  0
  -23.4102  -28.3437   19.1628 C   0  0  0  0  0  0  0  0  0  0  0  0
  -24.7229  -25.7014   19.3633 C   0  0  0  0  0  0  0  0  0  0  0  0
  -18.3811  -26.1609   22.1383 C   0  0  0  0  0  0  0  0  0  0  0  0
  -34.4531  -31.2473   18.3247 C   0  0  0  0  0  0  0  0  0  0  0  0
  -29.2003  -24.7364   17.9863 C   0  0  0  0  0  0  0  0  0  0  0  0
  -34.4728  -30.5168   16.9880 C   0  0  0  0  0  0  0  0  0  0  0  0
  -19.7659  -26.0623   22.7702 C   0  0  0  0  0  0  0  0  0  0  0  0
  -28.5592  -23.5352   18.6836 C   0  0  0  0  0  0  0  0  0  0  0  0
  -34.5236  -30.2702   19.4937 C   0  0  0  0  0  0  0  0  0  0  0  0
  -30.6169  -24.4136   17.5202 C   0  0  0  0  0  0  0  0  0  0  0  0
  -30.8851  -22.7255   19.2956 C   0  0  0  0  0  0  0  0  0  0  0  0
  -33.3838  -29.4589   16.9035 C   0  0  0  0  0  0  0  0  0  0  0  0
  -20.5539  -27.3637   22.5780 C   0  0  1  0  0  0  0  0  0  0  0  0
  -22.6110  -27.0656   19.3979 C   0  0  1  0  0  0  0  0  0  0  0  0
  -29.4595  -22.9952   19.8105 C   0  0  2  0  0  0  0  0  0  0  0  0
  -33.4547  -29.1754   19.4349 C   0  0  1  0  0  0  0  0  0  0  0  0
  -24.6251  -21.8228   14.0632 C   0  0  0  0  0  0  0  0  0  0  0  0
  -22.5436  -22.5354   20.3106 C   0  0  0  0  0  0  0  0  0  0  0  0
  -23.4708  -21.0592   18.5136 C   0  0  0  0  0  0  0  0  0  0  0  0
  -21.2394  -22.1335   18.2149 C   0  0  0  0  0  0  0  0  0  0  0  0
  -25.4442  -25.5381   14.0196 C   0  0  0  0  0  0  0  0  0  0  0  0
  -32.0486  -29.6906   19.7400 C   0  0  0  0  0  0  0  0  0  0  0  0
  -31.1049  -28.5520   20.1167 C   0  0  0  0  0  0  0  0  0  0  0  0
  -34.2964  -26.2891   18.8081 C   0  0  0  0  0  0  0  0  0  0  0  0
  -34.5734  -27.4899   17.9230 C   0  0  0  0  0  0  0  0  0  0  0  0
  -29.6922  -29.0570   20.3788 C   0  0  0  0  0  0  0  0  0  1  0  0
  -23.3273  -23.5520   18.0704 C   0  0  1  0  0  0  0  0  0  0  0  0
  -24.4724  -23.2810   14.4669 C   0  0  2  0  0  0  0  0  0  0  0  0
  -22.6590  -22.3437   18.7852 C   0  0  0  0  0  0  0  0  0  0  0  0
  -29.1904  -20.5526   20.0190 N   0  0  0  0  0  0  0  0  0  0  0  0
  -28.8559  -21.7717   20.4749 N   0  0  0  0  0  0  0  0  0  0  0  0
  -23.3196  -25.8653   18.9493 N   0  0  0  0  0  0  0  0  0  0  0  0
  -31.4270  -23.9225   18.6438 N   0  0  0  0  0  0  0  0  0  0  0  0
  -27.5397  -22.8852   22.0992 N   0  0  0  0  0  0  0  0  0  0  0  0
  -26.7035  -18.5191   22.8953 N   0  0  0  0  0  0  0  0  0  0  0  0
  -21.0762  -27.4440   21.2307 N   0  0  0  0  0  0  0  0  0  0  0  0
  -23.4253  -23.4097   16.6218 N   0  0  0  0  0  0  0  0  0  0  0  0
  -33.0780  -25.6045   18.4371 N   0  0  0  0  0  0  0  0  0  0  0  0
  -33.4621  -28.5000   18.0704 N   0  3  2  0  0  0  0  0  0  0  0  0
  -25.4947  -24.0809   13.7348 N   0  3  0  0  0  0  0  0  0  0  0  0
  -26.2121  -20.6596   23.5555 O   0  0  0  0  0  0  0  0  0  0  0  0
  -23.0206  -26.2054   21.5583 O   0  0  0  0  0  0  0  0  0  0  0  0
  -21.4158  -24.9522   17.9603 O   0  0  0  0  0  0  0  0  0  0  0  0
  -25.7312  -23.6225   16.5007 O   0  0  0  0  0  0  0  0  0  0  0  0
  -33.2553  -24.0037   20.0683 O   0  0  0  0  0  0  0  0  0  0  0  0
  -28.8595  -14.1943   20.1236 O   0  0  0  0  0  0  0  0  0  0  0  0
  -28.8428  -27.9633   20.7230 O   0  0  0  0  0  0  0  0  0  1  0  0
  -28.5881  -12.2314   14.9780 F   0  0  0  0  0  0  0  0  0  0  0  0
  -26.8661  -12.4279   19.3827 F   0  0  0  0  0  0  0  0  0  0  0  0
  1  2  1  0  0  0  0
  1  5  2  0  0  0  0
  2  6  2  0  0  0  0
  3  8  2  0  0  0  0
  3 15  1  0  0  0  0
  4  9  1  0  0  0  0
  4 15  2  0  0  0  0
  5 17  1  0  0  0  0
  6 19  1  0  0  0  0
  7 10  2  0  0  0  0
  7 18  1  0  0  0  0
  8 21  1  0  0  0  0
  9 21  2  0  0  0  0
 10 22  1  0  0  0  0
 11 12  2  0  0  0  0
 11 23  1  0  0  0  0
 12 24  1  0  0  0  0
 13 20  1  0  0  0  0
 13 22  2  0  0  0  0
 14 24  2  0  0  0  0
 14 25  1  0  0  0  0
 15 26  1  0  0  0  0
 16 26  1  0  0  0  0
 16 27  2  0  0  0  0
 16 28  1  0  0  0  0
 17 19  2  0  0  0  0
 17 33  1  0  0  0  0
 18 20  2  0  0  0  0
 18 34  1  0  0  0  0
 19 46  1  0  0  0  0
 20 35  1  0  0  0  0
 21 79  1  0  0  0  0
 22 80  1  0  0  0  0
 23 25  2  0  0  0  0
 23 79  1  0  0  0  0
 24 81  1  0  0  0  0
 25 82  1  0  0  0  0
 26 63  2  0  0  0  0
 27 64  1  0  0  0  0
 27 67  1  0  0  0  0
 28 68  1  0  0  0  0
 28 74  2  0  0  0  0
 29 47  1  0  0  0  0
 29 69  1  0  0  0  0
 29 75  2  0  0  0  0
 30 60  1  0  0  0  0
 30 65  1  0  0  0  0
 30 76  2  0  0  0  0
 31 61  1  0  0  0  0
 31 70  1  0  0  0  0
 31 77  2  0  0  0  0
 32 66  1  0  0  0  0
 32 71  1  0  0  0  0
 32 78  2  0  0  0  0
 33 36  1  0  0  0  0
 34 47  1  0  0  0  0
 35 65  1  0  0  0  0
 36 40  1  0  0  0  0
 37 39  1  0  0  0  0
 37 42  1  0  0  0  0
 38 41  1  0  0  0  0
 38 43  1  0  0  0  0
 39 45  1  0  0  0  0
 40 46  1  0  0  0  0
 41 48  1  0  0  0  0
 42 49  1  0  0  0  0
 43 66  1  0  0  0  0
 44 48  1  0  0  0  0
 44 66  1  0  0  0  0
 45 72  1  0  0  0  0
 46 69  1  0  0  0  0
 47 65  1  0  0  0  0
 48 64  1  0  0  0  0
 49 55  1  0  0  0  0
 49 72  1  0  0  0  0
 50 61  1  0  0  0  0
 51 62  1  0  0  0  0
 52 62  1  0  0  0  0
 53 62  1  0  0  0  0
 54 73  1  0  0  0  0
 55 56  1  0  0  0  0
 56 59  1  0  0  0  0
 57 58  1  0  0  0  0
 57 71  1  0  0  0  0
 58 72  1  0  0  0  0
 59 80  1  0  0  0  0
 60 62  1  0  0  0  0
 60 70  1  0  0  0  0
 61 73  1  0  0  0  0
 63 64  1  0  0  0  0
M  CHG  2  72   1  73   1
M  ISO  4  32 100  59 101  71 100  80 101
M  END
> <Batch ID>
0120

> <Smiles>
CNC(C)C(=O)NC(C(=O)N1Cc2cc([101O:1][101CH2:1]CCC3CCCCN3CC[100NH:0][100C:0](=O)N3CCCC(n4nc(-c5ccc(Oc6ccc(F)cc6F)cc5)c(C(N)=O)c4N)C3)ccc2CC1C(=O)NC1CCCc2ccccc21)C(C)(C)C

> <Shape>
0.236

> <Color>
0.058

> <Negative vol penalty>
0.000

$$$$

  -OEChem-04052320233D

 87 96  0     1  0  0  0  0  0999 V2000
  -32.2828  -13.7385   21.7265 C   0  0  0  0  0  0  0  0  0  0  0  0
  -31.5903  -14.9399   21.6147 C   0  0  0  0  0  0  0  0  0  0  0  0
  -30.3218  -28.9176   20.1772 C   0  0  0  0  0  0  0  0  0  0  0  0
  -28.2282  -28.0605   19.3291 C   0  0  0  0  0  0  0  0  0  0  0  0
  -31.7018  -12.5554   21.2719 C   0  0  0  0  0  0  0  0  0  0  0  0
  -30.3166  -14.9590   21.0473 C   0  0  0  0  0  0  0  0  0  0  0  0
  -25.6385  -18.5838   22.6226 C   0  0  0  0  0  0  0  0  0  0  0  0
  -30.9195  -27.6770   19.9557 C   0  0  0  0  0  0  0  0  0  0  0  0
  -28.8259  -26.8198   19.1076 C   0  0  0  0  0  0  0  0  0  0  0  0
  -25.1463  -19.7695   22.0790 C   0  0  0  0  0  0  0  0  0  0  0  0
  -29.7073  -24.1169   20.9375 C   0  0  0  0  0  0  0  0  0  0  0  0
  -29.0054  -22.9791   21.3356 C   0  0  0  0  0  0  0  0  0  0  0  0
  -23.5125  -18.5107   20.8279 C   0  0  0  0  0  0  0  0  0  0  0  0
  -29.0031  -22.1826   19.0546 C   0  0  0  0  0  0  0  0  0  0  0  0
  -22.8695  -24.7545   18.8452 C   0  0  0  0  0  0  0  0  0  0  0  0
  -22.6717  -24.1361   20.9883 C   0  0  0  0  0  0  0  0  0  0  0  0
  -28.9761  -29.1094   19.8639 C   0  0  0  0  0  0  0  0  0  0  0  0
  -28.2805  -31.4702   19.1927 C   0  0  0  0  0  0  0  0  0  0  0  0
  -30.4165  -12.5585   20.7075 C   0  0  0  0  0  0  0  0  0  0  0  0
  -25.0776  -17.3496   22.2640 C   0  0  0  0  0  0  0  0  0  0  0  0
  -29.7184  -13.7750   20.5836 C   0  0  0  0  0  0  0  0  0  0  0  0
  -23.9977  -17.3109   21.3703 C   0  0  0  0  0  0  0  0  0  0  0  0
  -23.6703  -23.6491   19.0299 C   0  0  0  0  0  0  0  0  0  0  0  0
  -23.5453  -23.2580   20.3858 C   0  0  0  0  0  0  0  0  0  0  0  0
  -30.1716  -26.6280   19.4209 C   0  0  0  0  0  0  0  0  0  0  0  0
  -24.0851  -19.7329   21.1793 C   0  0  0  0  0  0  0  0  0  0  0  0
  -30.0570  -24.2876   19.5980 C   0  0  0  0  0  0  0  0  0  0  0  0
  -28.6533  -22.0120   20.3941 C   0  0  0  0  0  0  0  0  0  0  0  0
  -29.7049  -23.3204   18.6566 C   0  0  0  0  0  0  0  0  0  0  0  0
  -28.3580  -30.3906   20.0930 C   0  0  0  0  0  0  0  0  0  0  0  0
  -27.6012  -32.4444   19.8826 C   0  0  0  0  0  0  0  0  0  0  0  0
  -28.7779  -31.5823   17.8527 C   0  0  0  0  0  0  0  0  0  0  0  0
  -26.1568  -14.7282   20.8263 C   0  0  0  0  0  0  0  0  0  0  0  0
  -23.2244  -13.5718   21.5919 C   0  0  0  0  0  0  0  0  0  0  0  0
  -19.9599  -14.2217   22.3454 C   0  0  0  0  0  0  0  0  0  0  0  0
  -23.7027  -32.2592   24.4234 C   0  0  0  0  0  0  0  0  0  0  0  0
  -29.8490  -11.2617   20.1871 C   0  0  0  0  0  0  0  0  0  0  0  0
  -25.6025  -16.0817   22.8797 C   0  0  0  0  0  0  0  0  0  0  0  0
  -23.3471  -16.0134   20.9684 C   0  0  0  0  0  0  0  0  0  0  0  0
  -28.3434  -11.3112   19.9403 C   0  0  0  0  0  0  0  0  0  0  0  0
  -18.9316  -26.8344   20.9267 C   0  0  0  0  0  0  0  0  0  0  0  0
  -26.7989  -34.0145   24.3303 C   0  0  0  0  0  0  0  0  0  0  0  0
  -27.9678  -12.5818   19.1845 C   0  0  0  0  0  0  0  0  0  0  0  0
  -19.9047  -25.6783   20.6967 C   0  0  0  0  0  0  0  0  0  0  0  0
  -27.5426  -33.3822   23.1526 C   0  0  0  0  0  0  0  0  0  0  0  0
  -19.4779  -27.8378   21.9408 C   0  0  0  0  0  0  0  0  0  0  0  0
  -21.8461  -27.1935   21.3107 C   0  0  0  0  0  0  0  0  0  0  0  0
  -25.9742  -32.9826   25.0965 C   0  0  0  0  0  0  0  0  0  0  0  0
  -25.7849  -31.5641   23.0901 C   0  0  0  0  0  0  0  0  0  0  0  0
  -28.3248  -13.8327   19.9965 C   0  0  1  0  0  0  0  0  0  0  0  0
  -25.2910  -14.8405   22.0491 C   0  0  1  0  0  0  0  0  0  0  0  0
  -21.2984  -26.1850   20.2829 C   0  0  1  0  0  0  0  0  0  0  0  0
  -26.5863  -32.5760   22.2533 C   0  0  2  0  0  0  0  0  0  0  0  0
  -20.8573  -28.3400   21.5218 C   0  0  2  0  0  0  0  0  0  0  0  0
  -24.5008  -22.9993   17.9965 C   0  0  0  0  0  0  0  0  0  0  0  0
  -17.7961  -13.0711   22.8851 C   0  0  0  0  0  0  0  0  0  0  0  0
  -22.8832  -12.8386   18.6498 C   0  0  0  0  0  0  0  0  0  0  0  0
  -20.4270  -12.5927   19.0679 C   0  0  0  0  0  0  0  0  0  0  0  0
  -22.0470  -11.1156   20.2581 C   0  0  0  0  0  0  0  0  0  0  0  0
  -19.8048  -15.5093   25.0057 C   0  0  0  0  0  0  0  0  0  0  0  0
  -24.2321  -22.1033   21.0539 C   0  0  0  0  0  0  0  0  0  1  0  0
  -21.4937  -31.4669   23.6159 C   0  0  0  0  0  0  0  0  0  0  0  0
  -20.8817  -30.6372   22.5027 C   0  0  0  0  0  0  0  0  0  0  0  0
  -21.8741  -13.5503   20.9173 C   0  0  1  0  0  0  0  0  0  0  0  0
  -19.0587  -13.7023   23.4510 C   0  0  2  0  0  0  0  0  0  0  0  0
  -21.8211  -12.5487   19.7292 C   0  0  0  0  0  0  0  0  0  0  0  0
  -27.7747  -30.6540   21.2653 N   0  0  0  0  0  0  0  0  0  0  0  0
  -22.2671  -25.0413   20.0423 N   0  0  0  0  0  0  0  0  0  0  0  0
  -27.3243  -31.9101   21.1066 N   0  0  0  0  0  0  0  0  0  0  0  0
  -23.9002  -14.8003   21.5928 N   0  0  0  0  0  0  0  0  0  0  0  0
  -25.0872  -32.2540   24.1865 N   0  0  0  0  0  0  0  0  0  0  0  0
  -27.2198  -33.6974   19.5557 N   0  0  0  0  0  0  0  0  0  0  0  0
  -29.4525  -30.4868   17.2966 N   0  0  0  0  0  0  0  0  0  0  0  0
  -27.3452  -14.0557   21.0381 N   0  0  0  0  0  0  0  0  0  0  0  0
  -20.8972  -13.2837   21.9675 N   0  0  0  0  0  0  0  0  0  0  0  0
  -22.9334  -31.5493   23.5096 N   0  0  0  0  0  0  0  0  0  0  0  0
  -21.3836  -29.2398   22.5827 N   0  3  0  0  0  0  0  0  0  0  0  0
  -18.6614  -14.8140   24.3606 N   0  3  0  0  0  0  0  0  0  0  0  0
  -28.6429  -32.6289   17.1745 O   0  0  0  0  0  0  0  0  0  0  0  0
  -25.7742  -15.2143   19.7684 O   0  0  0  0  0  0  0  0  0  0  0  0
  -23.6603  -12.5385   22.1057 O   0  0  0  0  0  0  0  0  0  0  0  0
  -19.8417  -15.3457   21.8625 O   0  0  0  0  0  0  0  0  0  0  0  0
  -23.1896  -32.8569   25.3754 O   0  0  0  0  0  0  0  0  0  0  0  0
  -30.7545  -25.4173   19.2045 O   0  0  0  0  0  0  0  0  0  0  0  0
  -23.6031  -20.8888   20.6468 O   0  0  0  0  0  0  0  0  0  1  0  0
  -27.9807  -20.9187   20.7768 F   0  0  0  0  0  0  0  0  0  0  0  0
  -30.0392  -23.4782   17.3685 F   0  0  0  0  0  0  0  0  0  0  0  0
  1  2  1  0  0  0  0
  1  5  2  0  0  0  0
  2  6  2  0  0  0  0
  3  8  2  0  0  0  0
  3 17  1  0  0  0  0
  4  9  1  0  0  0  0
  4 17  2  0  0  0  0
  5 19  1  0  0  0  0
  6 21  1  0  0  0  0
  7 10  2  0  0  0  0
  7 20  1  0  0  0  0
  8 25  1  0  0  0  0
  9 25  2  0  0  0  0
 10 26  1  0  0  0  0
 11 12  2  0  0  0  0
 11 27  1  0  0  0  0
 12 28  1  0  0  0  0
 13 22  1  0  0  0  0
 13 26  2  0  0  0  0
 14 28  2  0  0  0  0
 14 29  1  0  0  0  0
 15 23  2  0  0  0  0
 15 68  1  0  0  0  0
 16 24  2  0  0  0  0
 16 68  1  0  0  0  0
 17 30  1  0  0  0  0
 18 30  1  0  0  0  0
 18 31  2  0  0  0  0
 18 32  1  0  0  0  0
 19 21  2  0  0  0  0
 19 37  1  0  0  0  0
 20 22  2  0  0  0  0
 20 38  1  0  0  0  0
 21 50  1  0  0  0  0
 22 39  1  0  0  0  0
 23 24  1  0  0  0  0
 23 55  1  0  0  0  0
 24 61  1  0  0  0  0
 25 84  1  0  0  0  0
 26 85  1  0  0  0  0
 27 29  2  0  0  0  0
 27 84  1  0  0  0  0
 28 86  1  0  0  0  0
 29 87  1  0  0  0  0
 30 67  2  0  0  0  0
 31 69  1  0  0  0  0
 31 72  1  0  0  0  0
 32 73  1  0  0  0  0
 32 79  2  0  0  0  0
 33 51  1  0  0  0  0
 33 74  1  0  0  0  0
 33 80  2  0  0  0  0
 34 64  1  0  0  0  0
 34 70  1  0  0  0  0
 34 81  2  0  0  0  0
 35 65  1  0  0  0  0
 35 75  1  0  0  0  0
 35 82  2  0  0  0  0
 36 71  1  0  0  0  0
 36 76  1  0  0  0  0
 36 83  2  0  0  0  0
 37 40  1  0  0  0  0
 38 51  1  0  0  0  0
 39 70  1  0  0  0  0
 40 43  1  0  0  0  0
 41 44  1  0  0  0  0
 41 46  1  0  0  0  0
 42 45  1  0  0  0  0
 42 48  1  0  0  0  0
 43 50  1  0  0  0  0
 44 52  1  0  0  0  0
 45 53  1  0  0  0  0
 46 54  1  0  0  0  0
 47 52  1  0  0  0  0
 47 54  1  0  0  0  0
 48 71  1  0  0  0  0
 49 53  1  0  0  0  0
 49 71  1  0  0  0  0
 50 74  1  0  0  0  0
 51 70  1  0  0  0  0
 52 68  1  0  0  0  0
 53 69  1  0  0  0  0
 54 77  1  0  0  0  0
 56 65  1  0  0  0  0
 57 66  1  0  0  0  0
 58 66  1  0  0  0  0
 59 66  1  0  0  0  0
 60 78  1  0  0  0  0
 61 85  1  0  0  0  0
 62 63  1  0  0  0  0
 62 76  1  0  0  0  0
 63 77  1  0  0  0  0
 64 66  1  0  0  0  0
 64 75  1  0  0  0  0
 65 78  1  0  0  0  0
 67 69  1  0  0  0  0
M  CHG  2  77   1  78   1
M  ISO  4  36 100  61 101  76 100  85 101
M  END
> <Batch ID>
0120

> <Smiles>
CNC(C)C(=O)NC(C(=O)N1Cc2cc([101O:1][101CH2:1]c3cn(C4CCCC(NCC[100NH:0][100C:0](=O)N5CCCC(n6nc(-c7ccc(Oc8ccc(F)cc8F)cc7)c(C(N)=O)c6N)C5)C4)cc3C)ccc2CC1C(=O)NC1CCCc2ccccc21)C(C)(C)C

> <Shape>
0.255

> <Color>
0.065

> <Negative vol penalty>
0.000

$$$$

  -OEChem-04052320233D

 86 95  0     1  0  0  0  0  0999 V2000
  -28.7449  -34.4682   24.7068 C   0  0  0  0  0  0  0  0  0  0  0  0
  -28.7731  -33.1399   24.2941 C   0  0  0  0  0  0  0  0  0  0  0  0
  -25.8791   -9.3250   22.8917 C   0  0  0  0  0  0  0  0  0  0  0  0
  -23.9652   -9.3707   21.4180 C   0  0  0  0  0  0  0  0  0  0  0  0
  -27.5394  -35.0506   25.0962 C   0  0  0  0  0  0  0  0  0  0  0  0
  -27.5959  -32.3929   24.2716 C   0  0  0  0  0  0  0  0  0  0  0  0
  -27.1050  -29.6678   20.0316 C   0  0  0  0  0  0  0  0  0  0  0  0
  -25.1596   -8.5512   23.8022 C   0  0  0  0  0  0  0  0  0  0  0  0
  -23.2456   -8.5968   22.3284 C   0  0  0  0  0  0  0  0  0  0  0  0
  -27.8456  -28.4900   19.9424 C   0  0  0  0  0  0  0  0  0  0  0  0
  -23.0457   -5.3426   23.2179 C   0  0  0  0  0  0  0  0  0  0  0  0
  -22.3056   -4.2730   22.7143 C   0  0  0  0  0  0  0  0  0  0  0  0
  -25.8861  -27.2192   20.5460 C   0  0  0  0  0  0  0  0  0  0  0  0
  -30.8281  -22.9163   20.6974 C   0  0  0  0  0  0  0  0  0  0  0  0
  -20.2828   -5.2580   23.5948 C   0  0  0  0  0  0  0  0  0  0  0  0
  -25.2819   -9.7348   21.6996 C   0  0  0  0  0  0  0  0  0  0  0  0
  -26.8289  -10.0736   19.6997 C   0  0  0  0  0  0  0  0  0  0  0  0
  -26.3452  -34.3131   25.0693 C   0  0  0  0  0  0  0  0  0  0  0  0
  -25.7498  -29.6310   20.3899 C   0  0  0  0  0  0  0  0  0  0  0  0
  -26.3735  -32.9655   24.6623 C   0  0  0  0  0  0  0  0  0  0  0  0
  -25.1298  -28.3977   20.6365 C   0  0  0  0  0  0  0  0  0  0  0  0
  -30.2565  -24.1767   20.8308 C   0  0  0  0  0  0  0  0  0  0  0  0
  -31.0709  -22.3997   19.4295 C   0  0  0  0  0  0  0  0  0  0  0  0
  -23.8429   -8.1870   23.5206 C   0  0  0  0  0  0  0  0  0  0  0  0
  -27.2369  -27.2657   20.2024 C   0  0  0  0  0  0  0  0  0  0  0  0
  -22.4044   -6.3700   23.9100 C   0  0  0  0  0  0  0  0  0  0  0  0
  -20.9242   -4.2307   22.9027 C   0  0  0  0  0  0  0  0  0  0  0  0
  -21.0230   -6.3277   24.0984 C   0  0  0  0  0  0  0  0  0  0  0  0
  -26.0245  -10.5347   20.7589 C   0  0  0  0  0  0  0  0  0  0  0  0
  -29.9487  -24.8749   19.6742 C   0  0  0  0  0  0  0  0  0  0  0  0
  -30.7265  -23.1774   18.3357 C   0  0  0  0  0  0  0  0  0  0  0  0
  -27.3091  -11.2174   19.1101 C   0  0  0  0  0  0  0  0  0  0  0  0
  -27.1162   -8.7313   19.2856 C   0  0  0  0  0  0  0  0  0  0  0  0
  -24.0339  -30.7962   22.7986 C   0  0  0  0  0  0  0  0  0  0  0  0
  -21.5424  -29.6529   21.0645 C   0  0  0  0  0  0  0  0  0  0  0  0
  -20.4192  -27.4544   18.7083 C   0  0  0  0  0  0  0  0  0  0  0  0
  -29.4930  -16.1191   19.2654 C   0  0  0  0  0  0  0  0  0  0  0  0
  -25.0744  -34.9718   25.5444 C   0  0  0  0  0  0  0  0  0  0  0  0
  -24.9580  -30.9082   20.4557 C   0  0  0  0  0  0  0  0  0  0  0  0
  -23.6726  -28.3023   21.0051 C   0  0  0  0  0  0  0  0  0  0  0  0
  -23.8096  -34.2216   25.1348 C   0  0  0  0  0  0  0  0  0  0  0  0
  -26.0136  -16.0579   19.7486 C   0  0  0  0  0  0  0  0  0  0  0  0
  -23.9599  -32.7295   25.4137 C   0  0  0  0  0  0  0  0  0  0  0  0
  -25.7649  -14.5666   19.9727 C   0  0  0  0  0  0  0  0  0  0  0  0
  -27.2886  -16.5375   20.4446 C   0  0  0  0  0  0  0  0  0  0  0  0
  -28.7896  -18.5425   19.5036 C   0  0  0  0  0  0  0  0  0  0  0  0
  -30.3177  -17.8468   17.6956 C   0  0  0  0  0  0  0  0  0  0  0  0
  -28.2447  -14.2593   20.3226 C   0  0  0  0  0  0  0  0  0  0  0  0
  -29.8216  -19.5494   20.0012 C   0  0  0  0  0  0  0  0  0  0  0  0
  -31.3792  -18.8215   18.1789 C   0  0  0  0  0  0  0  0  0  0  0  0
  -25.1134  -32.1297   24.6006 C   0  0  1  0  0  0  0  0  0  0  0  0
  -23.7134  -30.7953   21.3307 C   0  0  1  0  0  0  0  0  0  0  0  0
  -27.0017  -13.7362   19.5863 C   0  0  1  0  0  0  0  0  0  0  0  0
  -29.9939  -24.7358   22.1863 C   0  0  0  0  0  0  0  0  0  0  0  0
  -30.9660  -22.6734   16.9501 C   0  0  0  0  0  0  0  0  0  0  0  0
  -18.3262  -26.7308   17.5279 C   0  0  0  0  0  0  0  0  0  0  0  0
  -20.6568  -28.1444   23.5645 C   0  0  0  0  0  0  0  0  0  0  0  0
  -19.1803  -26.7403   22.1096 C   0  0  0  0  0  0  0  0  0  0  0  0
  -18.7961  -29.1999   22.2691 C   0  0  0  0  0  0  0  0  0  0  0  0
  -21.5117  -28.2084   16.0631 C   0  0  0  0  0  0  0  0  0  0  0  0
  -31.6872  -21.0402   19.2787 C   0  0  0  0  0  0  0  0  0  0  0  0
  -29.3321  -26.2329   19.7556 C   0  0  0  0  0  0  0  0  0  1  0  0
  -20.8024  -28.3389   20.9941 C   0  0  1  0  0  0  0  0  0  0  0  0
  -19.5378  -27.6491   17.4877 C   0  0  2  0  0  0  0  0  0  0  0  0
  -19.8868  -28.1075   22.2293 C   0  0  0  0  0  0  0  0  0  0  0  0
  -25.9931  -11.8676   20.8401 N   0  0  0  0  0  0  0  0  0  0  0  0
  -30.1698  -24.4061   18.4257 N   0  0  0  0  0  0  0  0  0  0  0  0
  -26.7839  -12.2537   19.8244 N   0  0  0  0  0  0  0  0  0  0  0  0
  -22.9425  -29.5795   21.0627 N   0  0  0  0  0  0  0  0  0  0  0  0
  -28.4323  -15.6909   20.0775 N   0  0  0  0  0  0  0  0  0  0  0  0
  -29.4378  -17.4369   18.7879 N   0  0  0  0  0  0  0  0  0  0  0  0
  -28.1252  -11.4277   18.0555 N   0  0  0  0  0  0  0  0  0  0  0  0
  -26.5403   -7.6733   20.0020 N   0  0  0  0  0  0  0  0  0  0  0  0
  -24.7093  -31.9233   23.2264 N   0  0  0  0  0  0  0  0  0  0  0  0
  -20.0958  -28.3362   19.7177 N   0  0  0  0  0  0  0  0  0  0  0  0
  -30.6994  -19.9896   18.8544 N   0  3  0  0  0  0  0  0  0  0  0  0
  -20.3052  -27.3605   16.2433 N   0  3  0  0  0  0  0  0  0  0  0  0
  -27.8748   -8.4773   18.3194 O   0  0  0  0  0  0  0  0  0  0  0  0
  -23.6924  -29.8453   23.4922 O   0  0  0  0  0  0  0  0  0  0  0  0
  -20.9017  -30.7059   21.1119 O   0  0  0  0  0  0  0  0  0  0  0  0
  -21.3035  -26.6025   18.7622 O   0  0  0  0  0  0  0  0  0  0  0  0
  -30.4352  -15.3677   18.9839 O   0  0  0  0  0  0  0  0  0  0  0  0
  -23.1405   -7.4317   24.4087 O   0  0  0  0  0  0  0  0  0  0  0  0
  -27.9628  -26.1063   20.1161 O   0  0  0  0  0  0  0  0  0  1  0  0
  -20.2134   -3.2042   22.4177 F   0  0  0  0  0  0  0  0  0  0  0  0
  -20.4012   -7.3123   24.7614 F   0  0  0  0  0  0  0  0  0  0  0  0
  1  2  1  0  0  0  0
  1  5  2  0  0  0  0
  2  6  2  0  0  0  0
  3  8  2  0  0  0  0
  3 16  1  0  0  0  0
  4  9  1  0  0  0  0
  4 16  2  0  0  0  0
  5 18  1  0  0  0  0
  6 20  1  0  0  0  0
  7 10  2  0  0  0  0
  7 19  1  0  0  0  0
  8 24  1  0  0  0  0
  9 24  2  0  0  0  0
 10 25  1  0  0  0  0
 11 12  2  0  0  0  0
 11 26  1  0  0  0  0
 12 27  1  0  0  0  0
 13 21  1  0  0  0  0
 13 25  2  0  0  0  0
 14 22  1  0  0  0  0
 14 23  2  0  0  0  0
 15 27  2  0  0  0  0
 15 28  1  0  0  0  0
 16 29  1  0  0  0  0
 17 29  1  0  0  0  0
 17 32  2  0  0  0  0
 17 33  1  0  0  0  0
 18 20  2  0  0  0  0
 18 38  1  0  0  0  0
 19 21  2  0  0  0  0
 19 39  1  0  0  0  0
 20 51  1  0  0  0  0
 21 40  1  0  0  0  0
 22 30  2  0  0  0  0
 22 54  1  0  0  0  0
 23 31  1  0  0  0  0
 23 61  1  0  0  0  0
 24 83  1  0  0  0  0
 25 84  1  0  0  0  0
 26 28  2  0  0  0  0
 26 83  1  0  0  0  0
 27 85  1  0  0  0  0
 28 86  1  0  0  0  0
 29 66  2  0  0  0  0
 30 62  1  0  0  0  0
 30 67  1  0  0  0  0
 31 55  1  0  0  0  0
 31 67  2  0  0  0  0
 32 68  1  0  0  0  0
 32 72  1  0  0  0  0
 33 73  1  0  0  0  0
 33 78  2  0  0  0  0
 34 52  1  0  0  0  0
 34 74  1  0  0  0  0
 34 79  2  0  0  0  0
 35 63  1  0  0  0  0
 35 69  1  0  0  0  0
 35 80  2  0  0  0  0
 36 64  1  0  0  0  0
 36 75  1  0  0  0  0
 36 81  2  0  0  0  0
 37 70  1  0  0  0  0
 37 71  1  0  0  0  0
 37 82  2  0  0  0  0
 38 41  1  0  0  0  0
 39 52  1  0  0  0  0
 40 69  1  0  0  0  0
 41 43  1  0  0  0  0
 42 44  1  0  0  0  0
 42 45  1  0  0  0  0
 43 51  1  0  0  0  0
 44 53  1  0  0  0  0
 45 70  1  0  0  0  0
 46 49  1  0  0  0  0
 46 71  1  0  0  0  0
 47 50  1  0  0  0  0
 47 71  1  0  0  0  0
 48 53  1  0  0  0  0
 48 70  1  0  0  0  0
 49 76  1  0  0  0  0
 50 76  1  0  0  0  0
 51 74  1  0  0  0  0
 52 69  1  0  0  0  0
 53 68  1  0  0  0  0
 56 64  1  0  0  0  0
 57 65  1  0  0  0  0
 58 65  1  0  0  0  0
 59 65  1  0  0  0  0
 60 77  1  0  0  0  0
 61 76  1  0  0  0  0
 62 84  1  0  0  0  0
 63 65  1  0  0  0  0
 63 75  1  0  0  0  0
 64 77  1  0  0  0  0
 66 68  1  0  0  0  0
M  CHG  2  76   1  77   1
M  ISO  4  37 100  62 101  71 100  84 101
M  END
> <Batch ID>
0120

> <Smiles>
CNC(C)C(=O)NC(C(=O)N1Cc2cc([101O:1][101CH2:1]c3nc(C)c(CN4CC[100N:0]([100C:0](=O)N5CCCC(n6nc(-c7ccc(Oc8ccc(F)cc8F)cc7)c(C(N)=O)c6N)C5)CC4)cc3C)ccc2CC1C(=O)NC1CCCc2ccccc21)C(C)(C)C

> <Shape>
0.331

> <Color>
0.082

> <Negative vol penalty>
0.000

$$$$

  -OEChem-04052320233D

 94104  0     1  0  0  0  0  0999 V2000
  -27.4641  -37.9257   24.7092 C   0  0  0  0  0  0  0  0  0  0  0  0
  -26.5585  -37.2459   25.5174 C   0  0  0  0  0  0  0  0  0  0  0  0
  -22.5279  -10.2726   20.6490 C   0  0  0  0  0  0  0  0  0  0  0  0
  -24.4462   -9.1799   21.6304 C   0  0  0  0  0  0  0  0  0  0  0  0
  -27.6599  -37.5203   23.3896 C   0  0  0  0  0  0  0  0  0  0  0  0
  -25.8473  -36.1609   25.0060 C   0  0  0  0  0  0  0  0  0  0  0  0
  -26.3267  -29.6480   28.0464 C   0  0  0  0  0  0  0  0  0  0  0  0
  -31.0714  -16.8540   25.1678 C   0  0  0  0  0  0  0  0  0  0  0  0
  -30.4987  -17.2681   26.3704 C   0  0  0  0  0  0  0  0  0  0  0  0
  -21.8372   -9.0607   20.6498 C   0  0  0  0  0  0  0  0  0  0  0  0
  -23.7555   -7.9681   21.6312 C   0  0  0  0  0  0  0  0  0  0  0  0
  -26.2013  -28.4206   28.6975 C   0  0  0  0  0  0  0  0  0  0  0  0
  -21.3785   -6.4589   23.5001 C   0  0  0  0  0  0  0  0  0  0  0  0
  -21.4433   -5.6785   24.6544 C   0  0  0  0  0  0  0  0  0  0  0  0
  -29.0415  -17.4440   23.9979 C   0  0  0  0  0  0  0  0  0  0  0  0
  -24.7617  -27.6170   26.9284 C   0  0  0  0  0  0  0  0  0  0  0  0
  -22.4344   -3.8794   23.3824 C   0  0  0  0  0  0  0  0  0  0  0  0
  -23.8324  -10.3322   21.1393 C   0  0  0  0  0  0  0  0  0  0  0  0
  -24.1799  -12.7722   21.7976 C   0  0  0  0  0  0  0  0  0  0  0  0
  -26.9579  -36.4238   22.8648 C   0  0  0  0  0  0  0  0  0  0  0  0
  -25.6816  -29.8594   26.8246 C   0  0  0  0  0  0  0  0  0  0  0  0
  -26.0329  -35.7413   23.6778 C   0  0  0  0  0  0  0  0  0  0  0  0
  -28.4688  -17.8580   25.2005 C   0  0  0  0  0  0  0  0  0  0  0  0
  -24.8937  -28.8400   26.2654 C   0  0  0  0  0  0  0  0  0  0  0  0
  -30.3428  -16.9421   23.9815 C   0  0  0  0  0  0  0  0  0  0  0  0
  -29.1974  -17.7700   26.3867 C   0  0  0  0  0  0  0  0  0  0  0  0
  -22.4510   -7.9085   21.1409 C   0  0  0  0  0  0  0  0  0  0  0  0
  -25.4206  -27.4077   28.1400 C   0  0  0  0  0  0  0  0  0  0  0  0
  -21.8416   -5.9495   22.2869 C   0  0  0  0  0  0  0  0  0  0  0  0
  -21.9713   -4.3888   24.5956 C   0  0  0  0  0  0  0  0  0  0  0  0
  -22.3696   -4.6598   22.2281 C   0  0  0  0  0  0  0  0  0  0  0  0
  -24.5466  -11.5836   21.1383 C   0  0  0  0  0  0  0  0  0  0  0  0
  -25.1800  -13.6605   21.4855 C   0  0  0  0  0  0  0  0  0  0  0  0
  -23.0376  -13.0485   22.6188 C   0  0  0  0  0  0  0  0  0  0  0  0
  -24.9969  -32.2074   23.9797 C   0  0  0  0  0  0  0  0  0  0  0  0
  -25.4117  -29.4243   22.7579 C   0  0  0  0  0  0  0  0  0  0  0  0
  -26.1565  -26.7745   20.7428 C   0  0  0  0  0  0  0  0  0  0  0  0
  -30.5910  -14.8730   20.8568 C   0  0  0  0  0  0  0  0  0  0  0  0
  -27.1682  -36.0522   21.4183 C   0  0  0  0  0  0  0  0  0  0  0  0
  -25.7387  -31.1868   26.1185 C   0  0  0  0  0  0  0  0  0  0  0  0
  -24.1900  -29.1243   24.9666 C   0  0  0  0  0  0  0  0  0  0  0  0
  -26.6514  -34.6597   21.0658 C   0  0  0  0  0  0  0  0  0  0  0  0
  -28.9293  -13.3424   18.1050 C   0  0  0  0  0  0  0  0  0  0  0  0
  -25.2525  -34.4493   21.6364 C   0  0  0  0  0  0  0  0  0  0  0  0
  -26.7089  -22.1828   28.1636 C   0  0  0  0  0  0  0  0  0  0  0  0
  -27.7018  -22.2420   30.4847 C   0  0  0  0  0  0  0  0  0  0  0  0
  -26.6099  -23.7073   28.1671 C   0  0  0  0  0  0  0  0  0  0  0  0
  -27.6027  -23.7664   30.4882 C   0  0  0  0  0  0  0  0  0  0  0  0
  -27.6142  -12.8412   18.7046 C   0  0  0  0  0  0  0  0  0  0  0  0
  -26.9236  -19.6880   24.3605 C   0  0  0  0  0  0  0  0  0  0  0  0
  -26.0258  -17.3471   24.7389 C   0  0  0  0  0  0  0  0  0  0  0  0
  -30.0867  -13.2091   19.0922 C   0  0  0  0  0  0  0  0  0  0  0  0
  -28.5395  -13.3350   21.0065 C   0  0  0  0  0  0  0  0  0  0  0  0
  -25.4975  -20.2195   24.3732 C   0  0  0  0  0  0  0  0  0  0  0  0
  -24.6111  -17.9086   24.7470 C   0  0  0  0  0  0  0  0  0  0  0  0
  -27.0555  -18.3988   25.1937 C   0  0  0  0  0  0  0  0  0  0  0  0
  -25.2609  -34.5442   23.1669 C   0  0  1  0  0  0  0  0  0  0  0  0
  -25.7429  -31.0549   24.5850 C   0  0  1  0  0  0  0  0  0  0  0  0
  -27.8487  -21.6868   29.0623 C   0  0  0  0  0  0  0  0  0  0  0  0
  -26.4628  -24.2624   29.5895 C   0  0  0  0  0  0  0  0  0  0  0  0
  -27.3322  -13.5009   20.0678 C   0  0  2  0  0  0  0  0  0  0  0  0
  -25.6901  -25.8440   18.4594 C   0  0  0  0  0  0  0  0  0  0  0  0
  -22.6452  -28.5382   23.6881 C   0  0  0  0  0  0  0  0  0  0  0  0
  -22.6291  -26.8710   21.8205 C   0  0  0  0  0  0  0  0  0  0  0  0
  -22.7495  -29.3101   21.3116 C   0  0  0  0  0  0  0  0  0  0  0  0
  -29.0150  -26.8905   19.9846 C   0  0  0  0  0  0  0  0  0  0  0  0
  -30.9552  -16.4989   22.6960 C   0  0  0  0  0  0  0  0  0  0  0  0
  -28.6022  -18.2080   27.6924 C   0  0  0  0  0  0  0  0  0  0  0  0
  -27.8954  -20.1601   29.0812 C   0  0  0  0  0  0  0  0  0  0  0  0
  -26.4160  -25.7891   29.5706 C   0  0  0  0  0  0  0  0  0  1  0  0
  -24.7733  -28.1446   22.2802 C   0  0  1  0  0  0  0  0  0  0  0  0
  -26.6203  -26.7058   19.2989 C   0  0  2  0  0  0  0  0  0  0  0  0
  -23.2201  -28.2159   22.2944 C   0  0  0  0  0  0  0  0  0  0  0  0
  -25.6901  -11.7027   20.4585 N   0  0  0  0  0  0  0  0  0  0  0  0
  -26.0507  -12.9767   20.6889 N   0  0  0  0  0  0  0  0  0  0  0  0
  -25.0913  -29.8454   24.0543 N   0  0  0  0  0  0  0  0  0  0  0  0
  -29.7558  -13.8569   20.3638 N   0  0  0  0  0  0  0  0  0  0  0  0
  -25.3906  -14.9519   21.8174 N   0  0  0  0  0  0  0  0  0  0  0  0
  -23.1349  -12.8188   23.9980 N   0  0  0  0  0  0  0  0  0  0  0  0
  -25.7782  -33.3230   23.7462 N   0  0  0  0  0  0  0  0  0  0  0  0
  -25.3467  -27.8676   20.9677 N   0  0  0  0  0  0  0  0  0  0  0  0
  -30.2018  -15.4384   22.0649 N   0  0  0  0  0  0  0  0  0  0  0  0
  -24.5680  -19.1460   23.9127 N   0  3  0  0  0  0  0  0  0  0  0  0
  -27.9922  -26.1288   19.2224 N   0  3  0  0  0  0  0  0  0  0  0  0
  -28.5390  -19.6907   27.8376 N   0  3  0  0  0  0  0  0  0  0  0  0
  -21.9571  -13.4707   22.1415 O   0  0  0  0  0  0  0  0  0  0  0  0
  -23.8005  -32.0937   23.7401 O   0  0  0  0  0  0  0  0  0  0  0  0
  -26.1697  -30.0389   22.0023 O   0  0  0  0  0  0  0  0  0  0  0  0
  -26.4773  -25.9397   21.5859 O   0  0  0  0  0  0  0  0  0  0  0  0
  -31.6054  -15.2521   20.2615 O   0  0  0  0  0  0  0  0  0  0  0  0
  -21.7773   -6.7258   21.1420 O   0  0  0  0  0  0  0  0  0  0  0  0
  -25.3062  -26.2103   28.7787 O   0  0  0  0  0  0  0  0  0  1  0  0
  -22.0349   -3.6401   25.7044 F   0  0  0  0  0  0  0  0  0  0  0  0
  -22.8171   -4.1655   21.0657 F   0  0  0  0  0  0  0  0  0  0  0  0
  1  2  1  0  0  0  0
  1  5  2  0  0  0  0
  2  6  2  0  0  0  0
  3 10  2  0  0  0  0
  3 18  1  0  0  0  0
  4 11  1  0  0  0  0
  4 18  2  0  0  0  0
  5 20  1  0  0  0  0
  6 22  1  0  0  0  0
  7 12  2  0  0  0  0
  7 21  1  0  0  0  0
  8  9  2  0  0  0  0
  8 25  1  0  0  0  0
  9 26  1  0  0  0  0
 10 27  1  0  0  0  0
 11 27  2  0  0  0  0
 12 28  1  0  0  0  0
 13 14  2  0  0  0  0
 13 29  1  0  0  0  0
 14 30  1  0  0  0  0
 15 23  1  0  0  0  0
 15 25  2  0  0  0  0
 16 24  1  0  0  0  0
 16 28  2  0  0  0  0
 17 30  2  0  0  0  0
 17 31  1  0  0  0  0
 18 32  1  0  0  0  0
 19 32  1  0  0  0  0
 19 33  2  0  0  0  0
 19 34  1  0  0  0  0
 20 22  2  0  0  0  0
 20 39  1  0  0  0  0
 21 24  2  0  0  0  0
 21 40  1  0  0  0  0
 22 57  1  0  0  0  0
 23 26  2  0  0  0  0
 23 56  1  0  0  0  0
 24 41  1  0  0  0  0
 25 67  1  0  0  0  0
 26 68  1  0  0  0  0
 27 91  1  0  0  0  0
 28 92  1  0  0  0  0
 29 31  2  0  0  0  0
 29 91  1  0  0  0  0
 30 93  1  0  0  0  0
 31 94  1  0  0  0  0
 32 74  2  0  0  0  0
 33 75  1  0  0  0  0
 33 78  1  0  0  0  0
 34 79  1  0  0  0  0
 34 86  2  0  0  0  0
 35 58  1  0  0  0  0
 35 80  1  0  0  0  0
 35 87  2  0  0  0  0
 36 71  1  0  0  0  0
 36 76  1  0  0  0  0
 36 88  2  0  0  0  0
 37 72  1  0  0  0  0
 37 81  1  0  0  0  0
 37 89  2  0  0  0  0
 38 77  1  0  0  0  0
 38 82  1  0  0  0  0
 38 90  2  0  0  0  0
 39 42  1  0  0  0  0
 40 58  1  0  0  0  0
 41 76  1  0  0  0  0
 42 44  1  0  0  0  0
 43 49  1  0  0  0  0
 43 52  1  0  0  0  0
 44 57  1  0  0  0  0
 45 47  1  0  0  0  0
 45 59  1  0  0  0  0
 46 48  1  0  0  0  0
 46 59  1  0  0  0  0
 47 60  1  0  0  0  0
 48 60  1  0  0  0  0
 49 61  1  0  0  0  0
 50 54  1  0  0  0  0
 50 56  1  0  0  0  0
 51 55  1  0  0  0  0
 51 56  1  0  0  0  0
 52 77  1  0  0  0  0
 53 61  1  0  0  0  0
 53 77  1  0  0  0  0
 54 83  1  0  0  0  0
 55 83  1  0  0  0  0
 57 80  1  0  0  0  0
 58 76  1  0  0  0  0
 59 69  1  0  0  0  0
 60 70  1  0  0  0  0
 61 75  1  0  0  0  0
 62 72  1  0  0  0  0
 63 73  1  0  0  0  0
 64 73  1  0  0  0  0
 65 73  1  0  0  0  0
 66 84  1  0  0  0  0
 67 82  1  0  0  0  0
 68 85  1  0  0  0  0
 69 85  1  0  0  0  0
 70 92  1  0  0  0  0
 71 73  1  0  0  0  0
 71 81  1  0  0  0  0
 72 84  1  0  0  0  0
 74 75  1  0  0  0  0
M  CHG  3  83   1  84   1  85   1
M  ISO  4  38 100  70 101  82 100  92 101
M  END
> <Batch ID>
0120

> <Smiles>
CNC(C)C(=O)NC(C(=O)N1Cc2cc([101O:1][101CH2:1]C3CCC(CNCc4ccc(C[100NH:0][100C:0](=O)N5CCCC(n6nc(-c7ccc(Oc8ccc(F)cc8F)cc7)c(C(N)=O)c6N)C5)cc4C4CCNCC4)CC3)ccc2CC1C(=O)NC1CCCc2ccccc21)C(C)(C)C

> <Shape>
0.314

> <Color>
0.144

> <Negative vol penalty>
0.000

$$$$

  -OEChem-04052320233D

 84 93  0     1  0  0  0  0  0999 V2000
  -22.8633  -35.3037   21.3644 C   0  0  0  0  0  0  0  0  0  0  0  0
  -23.8935  -34.3691   21.3390 C   0  0  0  0  0  0  0  0  0  0  0  0
  -29.1040  -17.3535   21.1637 C   0  0  0  0  0  0  0  0  0  0  0  0
  -31.4223  -17.8468   20.6955 C   0  0  0  0  0  0  0  0  0  0  0  0
  -21.6778  -35.0144   22.0388 C   0  0  0  0  0  0  0  0  0  0  0  0
  -23.7393  -33.1451   21.9890 C   0  0  0  0  0  0  0  0  0  0  0  0
  -25.3268  -29.2409   19.1815 C   0  0  0  0  0  0  0  0  0  0  0  0
  -29.3900  -15.9885   21.1417 C   0  0  0  0  0  0  0  0  0  0  0  0
  -31.7083  -16.4818   20.6736 C   0  0  0  0  0  0  0  0  0  0  0  0
  -26.7022  -29.0233   19.1135 C   0  0  0  0  0  0  0  0  0  0  0  0
  -29.8970  -13.5873   18.8177 C   0  0  0  0  0  0  0  0  0  0  0  0
  -29.0235  -12.7540   18.1190 C   0  0  0  0  0  0  0  0  0  0  0  0
  -26.5013  -27.2762   20.7648 C   0  0  0  0  0  0  0  0  0  0  0  0
  -28.5652  -11.5304   20.1512 C   0  0  0  0  0  0  0  0  0  0  0  0
  -34.3583  -25.4326   17.9035 C   0  0  0  0  0  0  0  0  0  0  0  0
  -30.1201  -18.2827   20.9405 C   0  0  0  0  0  0  0  0  0  0  0  0
  -29.8673  -20.5530   22.0761 C   0  0  0  0  0  0  0  0  0  0  0  0
  -21.5052  -33.7824   22.6893 C   0  0  0  0  0  0  0  0  0  0  0  0
  -24.5285  -28.4840   20.0512 C   0  0  0  0  0  0  0  0  0  0  0  0
  -22.5508  -32.8397   22.6739 C   0  0  0  0  0  0  0  0  0  0  0  0
  -25.1156  -27.4845   20.8401 C   0  0  0  0  0  0  0  0  0  0  0  0
  -33.2599  -25.6118   19.8602 C   0  0  0  0  0  0  0  0  0  0  0  0
  -34.5029  -25.2823   19.2674 C   0  0  0  0  0  0  0  0  0  0  0  0
  -30.6921  -15.5526   20.8967 C   0  0  0  0  0  0  0  0  0  0  0  0
  -27.2901  -28.0428   19.9073 C   0  0  0  0  0  0  0  0  0  0  0  0
  -30.1047  -13.3921   20.1831 C   0  0  0  0  0  0  0  0  0  0  0  0
  -28.3576  -11.7256   18.7857 C   0  0  0  0  0  0  0  0  0  0  0  0
  -29.4388  -12.3637   20.8499 C   0  0  0  0  0  0  0  0  0  0  0  0
  -29.8252  -19.6929   20.9624 C   0  0  0  0  0  0  0  0  0  0  0  0
  -32.4009  -25.9576   18.8368 C   0  0  0  0  0  0  0  0  0  0  0  0
  -29.5061  -21.7802   21.5760 C   0  0  0  0  0  0  0  0  0  0  0  0
  -30.2030  -20.2681   23.4406 C   0  0  0  0  0  0  0  0  0  0  0  0
  -22.6794  -29.1490   22.5496 C   0  0  0  0  0  0  0  0  0  0  0  0
  -21.9205  -26.0028   22.3314 C   0  0  0  0  0  0  0  0  0  0  0  0
  -22.8048  -22.8745   21.2929 C   0  0  0  0  0  0  0  0  0  0  0  0
  -29.8140  -24.2076   16.1113 C   0  0  0  0  0  0  0  0  0  0  0  0
  -20.2240  -33.5339   23.4452 C   0  0  0  0  0  0  0  0  0  0  0  0
  -23.0425  -28.7129   20.0932 C   0  0  0  0  0  0  0  0  0  0  0  0
  -32.8519  -25.6406   21.2906 C   0  0  0  0  0  0  0  0  0  0  0  0
  -24.2999  -26.6310   21.7752 C   0  0  0  0  0  0  0  0  0  0  0  0
  -30.9752  -26.3554   18.9779 C   0  0  0  0  0  0  0  0  0  0  0  0
  -19.9965  -32.0647   23.7918 C   0  0  0  0  0  0  0  0  0  0  0  0
  -31.3170  -25.6944   21.4298 C   0  0  0  0  0  0  0  0  0  0  0  0
  -26.8949  -23.7886   18.1063 C   0  0  0  0  0  0  0  0  0  0  0  0
  -21.2681  -31.4487   24.3667 C   0  0  0  0  0  0  0  0  0  0  0  0
  -27.3187  -22.7690   19.1650 C   0  0  0  0  0  0  0  0  0  0  0  0
  -27.5304  -23.4910   16.7499 C   0  0  0  0  0  0  0  0  0  0  0  0
  -29.4229  -22.3384   17.8286 C   0  0  0  0  0  0  0  0  0  0  0  0
  -22.4118  -31.4910   23.3461 C   0  0  1  0  0  0  0  0  0  0  0  0
  -22.4006  -28.2334   21.3914 C   0  0  1  0  0  0  0  0  0  0  0  0
  -30.6750  -26.7144   20.4550 C   0  0  2  0  0  0  0  0  0  0  0  0
  -28.8517  -22.6293   19.2270 C   0  0  2  0  0  0  0  0  0  0  0  0
  -35.7311  -24.8582   19.9675 C   0  0  0  0  0  0  0  0  0  0  0  0
  -21.9977  -20.4983   21.2900 C   0  0  0  0  0  0  0  0  0  0  0  0
  -22.6780  -25.7444   25.2758 C   0  0  0  0  0  0  0  0  0  0  0  0
  -22.7714  -23.2622   24.9620 C   0  0  0  0  0  0  0  0  0  0  0  0
  -20.6236  -24.4819   24.6125 C   0  0  0  0  0  0  0  0  0  0  0  0
  -22.7565  -22.7725   18.3355 C   0  0  0  0  0  0  0  0  0  0  0  0
  -29.1682  -26.8081   20.6845 C   0  0  0  0  0  0  0  0  0  1  0  0
  -32.5338  -26.0997   16.3351 C   0  0  0  0  0  0  0  0  0  0  0  0
  -32.1599  -24.8237   15.5853 C   0  0  0  0  0  0  0  0  0  0  0  0
  -22.4784  -24.7257   22.9118 C   0  0  1  0  0  0  0  0  0  0  0  0
  -22.0366  -21.8129   20.5264 C   0  0  2  0  0  0  0  0  0  0  0  0
  -22.1538  -24.5708   24.4244 C   0  0  0  0  0  0  0  0  0  0  0  0
  -29.4654  -20.3205   19.8396 N   0  0  0  0  0  0  0  0  0  0  0  0
  -33.0728  -25.8438   17.6520 N   0  0  0  0  0  0  0  0  0  0  0  0
  -29.2781  -21.5879   20.2452 N   0  0  0  0  0  0  0  0  0  0  0  0
  -22.8519  -26.8972   21.7852 N   0  0  0  0  0  0  0  0  0  0  0  0
  -28.9848  -23.3722   16.8778 N   0  0  0  0  0  0  0  0  0  0  0  0
  -29.3643  -22.9941   22.1494 N   0  0  0  0  0  0  0  0  0  0  0  0
  -30.5509  -18.9543   23.7827 N   0  0  0  0  0  0  0  0  0  0  0  0
  -22.2460  -30.4470   22.3576 N   0  0  0  0  0  0  0  0  0  0  0  0
  -21.9703  -23.6421   22.0776 N   0  0  0  0  0  0  0  0  0  0  0  0
  -31.1800  -24.0342   16.2977 N   0  0  0  0  0  0  0  0  0  0  0  0
  -22.6734  -21.5682   19.2014 N   0  3  0  0  0  0  0  0  0  0  0  0
  -30.1788  -21.1491   24.3332 O   0  0  0  0  0  0  0  0  0  0  0  0
  -23.2445  -28.7101   23.5444 O   0  0  0  0  0  0  0  0  0  0  0  0
  -20.7025  -26.1964   22.3552 O   0  0  0  0  0  0  0  0  0  0  0  0
  -24.0236  -23.0069   21.2073 O   0  0  0  0  0  0  0  0  0  0  0  0
  -29.3698  -25.0496   15.3234 O   0  0  0  0  0  0  0  0  0  0  0  0
  -30.9716  -14.2207   20.8755 O   0  0  0  0  0  0  0  0  0  0  0  0
  -28.6325  -27.8287   19.8433 O   0  0  0  0  0  0  0  0  0  1  0  0
  -27.5176  -10.9264   18.1150 F   0  0  0  0  0  0  0  0  0  0  0  0
  -29.6334  -12.1720   22.1618 F   0  0  0  0  0  0  0  0  0  0  0  0
  1  2  1  0  0  0  0
  1  5  2  0  0  0  0
  2  6  2  0  0  0  0
  3  8  2  0  0  0  0
  3 16  1  0  0  0  0
  4  9  1  0  0  0  0
  4 16  2  0  0  0  0
  5 18  1  0  0  0  0
  6 20  1  0  0  0  0
  7 10  2  0  0  0  0
  7 19  1  0  0  0  0
  8 24  1  0  0  0  0
  9 24  2  0  0  0  0
 10 25  1  0  0  0  0
 11 12  2  0  0  0  0
 11 26  1  0  0  0  0
 12 27  1  0  0  0  0
 13 21  1  0  0  0  0
 13 25  2  0  0  0  0
 14 27  2  0  0  0  0
 14 28  1  0  0  0  0
 15 23  2  0  0  0  0
 15 66  1  0  0  0  0
 16 29  1  0  0  0  0
 17 29  1  0  0  0  0
 17 31  2  0  0  0  0
 17 32  1  0  0  0  0
 18 20  2  0  0  0  0
 18 37  1  0  0  0  0
 19 21  2  0  0  0  0
 19 38  1  0  0  0  0
 20 49  1  0  0  0  0
 21 40  1  0  0  0  0
 22 23  1  0  0  0  0
 22 30  2  0  0  0  0
 22 39  1  0  0  0  0
 23 53  1  0  0  0  0
 24 81  1  0  0  0  0
 25 82  1  0  0  0  0
 26 28  2  0  0  0  0
 26 81  1  0  0  0  0
 27 83  1  0  0  0  0
 28 84  1  0  0  0  0
 29 65  2  0  0  0  0
 30 41  1  0  0  0  0
 30 66  1  0  0  0  0
 31 67  1  0  0  0  0
 31 70  1  0  0  0  0
 32 71  1  0  0  0  0
 32 76  2  0  0  0  0
 33 50  1  0  0  0  0
 33 72  1  0  0  0  0
 33 77  2  0  0  0  0
 34 62  1  0  0  0  0
 34 68  1  0  0  0  0
 34 78  2  0  0  0  0
 35 63  1  0  0  0  0
 35 73  1  0  0  0  0
 35 79  2  0  0  0  0
 36 69  1  0  0  0  0
 36 74  1  0  0  0  0
 36 80  2  0  0  0  0
 37 42  1  0  0  0  0
 38 50  1  0  0  0  0
 39 43  1  0  0  0  0
 40 68  1  0  0  0  0
 41 51  1  0  0  0  0
 42 45  1  0  0  0  0
 43 51  1  0  0  0  0
 44 46  1  0  0  0  0
 44 47  1  0  0  0  0
 45 49  1  0  0  0  0
 46 52  1  0  0  0  0
 47 69  1  0  0  0  0
 48 52  1  0  0  0  0
 48 69  1  0  0  0  0
 49 72  1  0  0  0  0
 50 68  1  0  0  0  0
 51 59  1  0  0  0  0
 52 67  1  0  0  0  0
 54 63  1  0  0  0  0
 55 64  1  0  0  0  0
 56 64  1  0  0  0  0
 57 64  1  0  0  0  0
 58 75  1  0  0  0  0
 59 82  1  0  0  0  0
 60 61  1  0  0  0  0
 60 66  1  0  0  0  0
 61 74  1  0  0  0  0
 62 64  1  0  0  0  0
 62 73  1  0  0  0  0
 63 75  1  0  0  0  0
 65 67  1  0  0  0  0
M  CHG  1  75   1
M  ISO  4  36 100  59 101  74 100  82 101
M  END
> <Batch ID>
0120

> <Smiles>
CNC(C)C(=O)NC(C(=O)N1Cc2cc([101O:1][101CH2:1]C3CCc4c(C)cn(CC[100NH:0][100C:0](=O)N5CCCC(n6nc(-c7ccc(Oc8ccc(F)cc8F)cc7)c(C(N)=O)c6N)C5)c4C3)ccc2CC1C(=O)NC1CCCc2ccccc21)C(C)(C)C

> <Shape>
0.219

> <Color>
0.087

> <Negative vol penalty>
0.000

$$$$

  -OEChem-04052320233D

 82 90  0     1  0  0  0  0  0999 V2000
  -30.1402  -12.5737   35.5864 C   0  0  0  0  0  0  0  0  0  0  0  0
  -30.1161  -12.9085   34.2363 C   0  0  0  0  0  0  0  0  0  0  0  0
  -23.1898   -9.8187   19.9310 C   0  0  0  0  0  0  0  0  0  0  0  0
  -23.5621  -10.0004   22.3113 C   0  0  0  0  0  0  0  0  0  0  0  0
  -29.5962  -11.3629   36.0130 C   0  0  0  0  0  0  0  0  0  0  0  0
  -29.5488  -12.0321   33.3119 C   0  0  0  0  0  0  0  0  0  0  0  0
  -26.5493  -14.3930   29.9841 C   0  0  0  0  0  0  0  0  0  0  0  0
  -22.4218   -8.6730   20.1386 C   0  0  0  0  0  0  0  0  0  0  0  0
  -22.7940   -8.8547   22.5188 C   0  0  0  0  0  0  0  0  0  0  0  0
  -27.1708  -15.0790   28.9416 C   0  0  0  0  0  0  0  0  0  0  0  0
  -23.1922   -5.5074   22.2582 C   0  0  0  0  0  0  0  0  0  0  0  0
  -23.6873   -4.5462   23.1394 C   0  0  0  0  0  0  0  0  0  0  0  0
  -30.0348  -18.1196   23.4314 C   0  0  0  0  0  0  0  0  0  0  0  0
  -26.7273  -13.2240   27.4646 C   0  0  0  0  0  0  0  0  0  0  0  0
  -30.2125  -16.5659   25.2586 C   0  0  0  0  0  0  0  0  0  0  0  0
  -21.7274   -4.8093   24.5275 C   0  0  0  0  0  0  0  0  0  0  0  0
  -28.8184  -18.5197   23.9606 C   0  0  0  0  0  0  0  0  0  0  0  0
  -23.7601  -10.4824   21.0174 C   0  0  0  0  0  0  0  0  0  0  0  0
  -24.1021  -12.9985   20.7727 C   0  0  0  0  0  0  0  0  0  0  0  0
  -29.0133  -10.4756   35.0946 C   0  0  0  0  0  0  0  0  0  0  0  0
  -26.0208  -13.1107   29.7772 C   0  0  0  0  0  0  0  0  0  0  0  0
  -28.9977  -10.8078   33.7264 C   0  0  0  0  0  0  0  0  0  0  0  0
  -26.0973  -12.5249   28.5055 C   0  0  0  0  0  0  0  0  0  0  0  0
  -30.7389  -17.1236   24.0988 C   0  0  0  0  0  0  0  0  0  0  0  0
  -22.2239   -8.1910   21.4325 C   0  0  0  0  0  0  0  0  0  0  0  0
  -27.2625  -14.4933   27.6823 C   0  0  0  0  0  0  0  0  0  0  0  0
  -21.9648   -6.1197   22.5116 C   0  0  0  0  0  0  0  0  0  0  0  0
  -22.9549   -4.1971   24.2740 C   0  0  0  0  0  0  0  0  0  0  0  0
  -21.2324   -5.7706   23.6462 C   0  0  0  0  0  0  0  0  0  0  0  0
  -24.5540  -11.6656   20.8036 C   0  0  0  0  0  0  0  0  0  0  0  0
  -28.9882  -17.0357   25.7062 C   0  0  0  0  0  0  0  0  0  0  0  0
  -25.2347  -13.7398   20.5398 C   0  0  0  0  0  0  0  0  0  0  0  0
  -22.7770  -13.5199   20.9397 C   0  0  0  0  0  0  0  0  0  0  0  0
  -26.6085  -10.2232   30.9690 C   0  0  0  0  0  0  0  0  0  0  0  0
  -24.0137   -9.3952   29.2073 C   0  0  0  0  0  0  0  0  0  0  0  0
  -21.9798  -10.0702   26.5513 C   0  0  0  0  0  0  0  0  0  0  0  0
  -30.9282  -12.6926   21.6983 C   0  0  0  0  0  0  0  0  0  0  0  0
  -28.4803   -9.1572   35.5970 C   0  0  0  0  0  0  0  0  0  0  0  0
  -25.3298  -12.3949   30.9052 C   0  0  0  0  0  0  0  0  0  0  0  0
  -25.5279  -11.1588   28.2262 C   0  0  0  0  0  0  0  0  0  0  0  0
  -27.5622   -8.4524   34.6018 C   0  0  0  0  0  0  0  0  0  0  0  0
  -29.5307  -13.4577   18.4488 C   0  0  0  0  0  0  0  0  0  0  0  0
  -28.1797   -8.4611   33.2070 C   0  0  0  0  0  0  0  0  0  0  0  0
  -28.0412  -13.2074   18.6918 C   0  0  0  0  0  0  0  0  0  0  0  0
  -30.3910  -12.4456   19.1996 C   0  0  0  0  0  0  0  0  0  0  0  0
  -28.6451  -12.1354   20.9112 C   0  0  0  0  0  0  0  0  0  0  0  0
  -28.3690   -9.8946   32.6964 C   0  0  1  0  0  0  0  0  0  0  0  0
  -25.2827  -10.8822   30.7133 C   0  0  1  0  0  0  0  0  0  0  0  0
  -27.7226  -13.1399   20.1971 C   0  0  2  0  0  0  0  0  0  0  0  0
  -20.0159   -9.8434   25.0057 C   0  0  0  0  0  0  0  0  0  0  0  0
  -25.7288   -7.2160   27.9347 C   0  0  0  0  0  0  0  0  0  0  0  0
  -24.0131   -7.0214   26.1219 C   0  0  0  0  0  0  0  0  0  0  0  0
  -23.3916   -6.5162   28.4843 C   0  0  0  0  0  0  0  0  0  0  0  0
  -20.3202  -11.8765   28.2072 C   0  0  0  0  0  0  0  0  0  0  0  0
  -32.0528  -16.6556   23.5719 C   0  0  0  0  0  0  0  0  0  0  0  0
  -28.3898  -16.4568   26.9544 C   0  0  0  0  0  0  0  0  0  1  0  0
  -33.2603  -13.2519   22.3352 C   0  0  0  0  0  0  0  0  0  0  0  0
  -33.3561  -14.7319   22.6556 C   0  0  0  0  0  0  0  0  0  0  0  0
  -23.7902   -8.9154   27.7935 C   0  0  1  0  0  0  0  0  0  0  0  0
  -20.4678  -10.1281   26.4296 C   0  0  2  0  0  0  0  0  0  0  0  0
  -24.2435   -7.4422   27.5890 C   0  0  0  0  0  0  0  0  0  0  0  0
  -28.2750  -18.0015   25.0848 N   0  0  0  0  0  0  0  0  0  0  0  0
  -25.8710  -11.5630   20.6059 N   0  0  0  0  0  0  0  0  0  0  0  0
  -26.2563  -12.8408   20.4485 N   0  0  0  0  0  0  0  0  0  0  0  0
  -24.8675  -10.4964   29.3631 N   0  0  0  0  0  0  0  0  0  0  0  0
  -30.0510  -12.4444   20.6295 N   0  0  0  0  0  0  0  0  0  0  0  0
  -25.4464  -15.0663   20.4062 N   0  0  0  0  0  0  0  0  0  0  0  0
  -21.7288  -12.6190   21.1717 N   0  0  0  0  0  0  0  0  0  0  0  0
  -27.1083  -10.4388   32.2391 N   0  0  0  0  0  0  0  0  0  0  0  0
  -22.3812   -9.1533   27.4996 N   0  0  0  0  0  0  0  0  0  0  0  0
  -32.2435  -12.9703   21.3464 N   0  0  0  0  0  0  0  0  0  0  0  0
  -19.9678  -11.4764   26.8206 N   0  3  0  0  0  0  0  0  0  0  0  0
  -32.0723  -15.2050   23.2356 N   0  3  0  0  0  0  0  0  0  0  0  0
  -22.5273  -14.7472   20.8685 O   0  0  0  0  0  0  0  0  0  0  0  0
  -27.1382   -9.5663   30.0803 O   0  0  0  0  0  0  0  0  0  0  0  0
  -23.4459   -8.8188   30.1384 O   0  0  0  0  0  0  0  0  0  0  0  0
  -22.7300  -10.7660   25.8703 O   0  0  0  0  0  0  0  0  0  0  0  0
  -30.5651  -12.6734   22.8793 O   0  0  0  0  0  0  0  0  0  0  0  0
  -21.4743   -7.0732   21.6354 O   0  0  0  0  0  0  0  0  0  0  0  0
  -27.8692  -15.1604   26.6632 O   0  0  0  0  0  0  0  0  0  1  0  0
  -23.4297   -3.2729   25.1193 F   0  0  0  0  0  0  0  0  0  0  0  0
  -20.0520   -6.3544   23.8944 F   0  0  0  0  0  0  0  0  0  0  0  0
  1  2  1  0  0  0  0
  1  5  2  0  0  0  0
  2  6  2  0  0  0  0
  3  8  2  0  0  0  0
  3 18  1  0  0  0  0
  4  9  1  0  0  0  0
  4 18  2  0  0  0  0
  5 20  1  0  0  0  0
  6 22  1  0  0  0  0
  7 10  2  0  0  0  0
  7 21  1  0  0  0  0
  8 25  1  0  0  0  0
  9 25  2  0  0  0  0
 10 26  1  0  0  0  0
 11 12  2  0  0  0  0
 11 27  1  0  0  0  0
 12 28  1  0  0  0  0
 13 17  2  0  0  0  0
 13 24  1  0  0  0  0
 14 23  1  0  0  0  0
 14 26  2  0  0  0  0
 15 24  2  0  0  0  0
 15 31  1  0  0  0  0
 16 28  2  0  0  0  0
 16 29  1  0  0  0  0
 17 62  1  0  0  0  0
 18 30  1  0  0  0  0
 19 30  1  0  0  0  0
 19 32  2  0  0  0  0
 19 33  1  0  0  0  0
 20 22  2  0  0  0  0
 20 38  1  0  0  0  0
 21 23  2  0  0  0  0
 21 39  1  0  0  0  0
 22 47  1  0  0  0  0
 23 40  1  0  0  0  0
 24 55  1  0  0  0  0
 25 79  1  0  0  0  0
 26 80  1  0  0  0  0
 27 29  2  0  0  0  0
 27 79  1  0  0  0  0
 28 81  1  0  0  0  0
 29 82  1  0  0  0  0
 30 63  2  0  0  0  0
 31 56  1  0  0  0  0
 31 62  2  0  0  0  0
 32 64  1  0  0  0  0
 32 67  1  0  0  0  0
 33 68  1  0  0  0  0
 33 74  2  0  0  0  0
 34 48  1  0  0  0  0
 34 69  1  0  0  0  0
 34 75  2  0  0  0  0
 35 59  1  0  0  0  0
 35 65  1  0  0  0  0
 35 76  2  0  0  0  0
 36 60  1  0  0  0  0
 36 70  1  0  0  0  0
 36 77  2  0  0  0  0
 37 66  1  0  0  0  0
 37 71  1  0  0  0  0
 37 78  2  0  0  0  0
 38 41  1  0  0  0  0
 39 48  1  0  0  0  0
 40 65  1  0  0  0  0
 41 43  1  0  0  0  0
 42 44  1  0  0  0  0
 42 45  1  0  0  0  0
 43 47  1  0  0  0  0
 44 49  1  0  0  0  0
 45 66  1  0  0  0  0
 46 49  1  0  0  0  0
 46 66  1  0  0  0  0
 47 69  1  0  0  0  0
 48 65  1  0  0  0  0
 49 64  1  0  0  0  0
 50 60  1  0  0  0  0
 51 61  1  0  0  0  0
 52 61  1  0  0  0  0
 53 61  1  0  0  0  0
 54 72  1  0  0  0  0
 55 73  1  0  0  0  0
 56 80  1  0  0  0  0
 57 58  1  0  0  0  0
 57 71  1  0  0  0  0
 58 73  1  0  0  0  0
 59 61  1  0  0  0  0
 59 70  1  0  0  0  0
 60 72  1  0  0  0  0
 63 64  1  0  0  0  0
M  CHG  2  72   1  73   1
M  ISO  4  37 100  56 101  71 100  80 101
M  END
> <Batch ID>
0120

> <Smiles>
CNC(C)C(=O)NC(C(=O)N1Cc2cc([101O:1][101CH2:1]c3cc(CNCC[100NH:0][100C:0](=O)N4CCCC(n5nc(-c6ccc(Oc7ccc(F)cc7F)cc6)c(C(N)=O)c5N)C4)ccn3)ccc2CC1C(=O)NC1CCCc2ccccc21)C(C)(C)C

> <Shape>
0.149

> <Color>
0.178

> <Negative vol penalty>
0.000

$$$$

  -OEChem-04052320233D

 86 95  0     1  0  0  0  0  0999 V2000
  -31.9915  -23.6726   17.6374 C   0  0  0  0  0  0  0  0  0  0  0  0
  -30.6402  -23.9666   17.7892 C   0  0  0  0  0  0  0  0  0  0  0  0
  -25.1360  -11.1525   20.4848 C   0  0  0  0  0  0  0  0  0  0  0  0
  -25.5721  -12.0116   22.7004 C   0  0  0  0  0  0  0  0  0  0  0  0
  -32.8483  -23.7512   18.7344 C   0  0  0  0  0  0  0  0  0  0  0  0
  -30.1447  -24.3381   19.0386 C   0  0  0  0  0  0  0  0  0  0  0  0
  -27.0175  -28.3132   18.7845 C   0  0  0  0  0  0  0  0  0  0  0  0
  -25.2630   -9.8492   20.9651 C   0  0  0  0  0  0  0  0  0  0  0  0
  -25.6991  -10.7083   23.1808 C   0  0  0  0  0  0  0  0  0  0  0  0
  -25.7156  -28.0721   18.3479 C   0  0  0  0  0  0  0  0  0  0  0  0
  -25.1156   -6.2882   21.6812 C   0  0  0  0  0  0  0  0  0  0  0  0
  -24.1628   -5.3527   21.2781 C   0  0  0  0  0  0  0  0  0  0  0  0
  -24.9519  -28.0870   20.6361 C   0  0  0  0  0  0  0  0  0  0  0  0
  -22.8991  -24.9112   20.3732 C   0  0  0  0  0  0  0  0  0  0  0  0
  -22.4213   -6.6951   22.2792 C   0  0  0  0  0  0  0  0  0  0  0  0
  -25.2905  -12.2338   21.3524 C   0  0  0  0  0  0  0  0  0  0  0  0
  -23.9839  -14.3512   20.7895 C   0  0  0  0  0  0  0  0  0  0  0  0
  -32.3649  -24.1332   19.9958 C   0  0  0  0  0  0  0  0  0  0  0  0
  -27.2987  -28.4322   20.1531 C   0  0  0  0  0  0  0  0  0  0  0  0
  -30.9957  -24.4205   20.1538 C   0  0  0  0  0  0  0  0  0  0  0  0
  -26.2578  -28.3321   21.0873 C   0  0  0  0  0  0  0  0  0  0  0  0
  -23.1193  -24.8371   18.9757 C   0  0  0  0  0  0  0  0  0  0  0  0
  -25.5446   -9.6270   22.3131 C   0  0  0  0  0  0  0  0  0  0  0  0
  -24.6830  -27.9561   19.2739 C   0  0  0  0  0  0  0  0  0  0  0  0
  -24.7213   -7.4271   22.3834 C   0  0  0  0  0  0  0  0  0  0  0  0
  -22.8156   -5.5561   21.5771 C   0  0  0  0  0  0  0  0  0  0  0  0
  -23.3742   -7.6306   22.6824 C   0  0  0  0  0  0  0  0  0  0  0  0
  -25.1599  -13.5804   20.8567 C   0  0  0  0  0  0  0  0  0  0  0  0
  -23.6928  -23.9541   20.9660 C   0  0  0  0  0  0  0  0  0  0  0  0
  -24.0407  -23.8369   18.7569 C   0  0  0  0  0  0  0  0  0  0  0  0
  -24.3875  -15.5469   20.2473 C   0  0  0  0  0  0  0  0  0  0  0  0
  -22.6462  -14.0164   21.1822 C   0  0  0  0  0  0  0  0  0  0  0  0
  -29.0980  -26.8238   22.2217 C   0  0  0  0  0  0  0  0  0  0  0  0
  -28.2441  -29.2217   24.2325 C   0  0  0  0  0  0  0  0  0  0  0  0
  -26.0103  -31.6747   25.0324 C   0  0  0  0  0  0  0  0  0  0  0  0
  -28.2139  -19.7232   20.3848 C   0  0  0  0  0  0  0  0  0  0  0  0
  -33.3205  -24.1581   21.1624 C   0  0  0  0  0  0  0  0  0  0  0  0
  -28.7040  -28.7188   20.6063 C   0  0  0  0  0  0  0  0  0  0  0  0
  -26.5038  -28.4722   22.5666 C   0  0  0  0  0  0  0  0  0  0  0  0
  -32.7865  -24.9226   22.3709 C   0  0  0  0  0  0  0  0  0  0  0  0
  -28.7502  -16.8930   18.0823 C   0  0  0  0  0  0  0  0  0  0  0  0
  -31.3465  -24.5154   22.6665 C   0  0  0  0  0  0  0  0  0  0  0  0
  -27.8068  -15.8258   18.6370 C   0  0  0  0  0  0  0  0  0  0  0  0
  -24.7262  -20.9297   20.8188 C   0  0  0  0  0  0  0  0  0  0  0  0
  -26.5993  -22.6389   21.0070 C   0  0  0  0  0  0  0  0  0  0  0  0
  -29.2487  -17.8354   19.1746 C   0  0  0  0  0  0  0  0  0  0  0  0
  -25.7266  -19.7669   20.8962 C   0  0  0  0  0  0  0  0  0  0  0  0
  -27.2400  -21.4980   21.8001 C   0  0  0  0  0  0  0  0  0  0  0  0
  -27.2283  -17.3982   20.5247 C   0  0  0  0  0  0  0  0  0  0  0  0
  -30.4251  -24.8513   21.4876 C   0  0  1  0  0  0  0  0  0  0  0  0
  -28.9600  -28.3105   22.0538 C   0  0  1  0  0  0  0  0  0  0  0  0
  -26.6626  -16.4657   19.4439 C   0  0  2  0  0  0  0  0  0  0  0  0
  -25.3708  -22.1779   20.1903 C   0  0  0  0  0  0  0  0  0  0  0  0
  -23.8494  -23.6058   22.3932 C   0  0  0  0  0  0  0  0  0  0  0  0
  -24.6255  -23.3401   17.4931 C   0  0  0  0  0  0  0  0  0  0  0  0
  -25.5606  -33.4445   26.7537 C   0  0  0  0  0  0  0  0  0  0  0  0
  -22.5461  -27.8503   16.6167 C   0  0  0  0  0  0  0  0  0  0  0  0
  -27.2963  -27.0777   26.1857 C   0  0  0  0  0  0  0  0  0  0  0  0
  -26.0266  -28.8540   27.4109 C   0  0  0  0  0  0  0  0  0  0  0  0
  -28.5119  -28.9897   27.2446 C   0  0  0  0  0  0  0  0  0  0  0  0
  -26.1649  -33.8372   23.0179 C   0  0  0  0  0  0  0  0  0  0  0  0
  -22.4759  -25.6810   17.9491 C   0  0  0  0  0  0  0  0  0  0  0  0
  -27.1053  -29.4546   25.1958 C   0  0  1  0  0  0  0  0  0  0  0  0
  -26.2069  -33.1309   25.4133 C   0  0  2  0  0  0  0  0  0  0  0  0
  -23.2610  -26.9758   17.6390 C   0  0  2  0  0  0  0  0  0  1  0  0
  -27.2304  -28.5894   26.4815 C   0  0  0  0  0  0  0  0  0  0  0  0
  -26.2304  -14.2316   20.3940 N   0  0  0  0  0  0  0  0  0  0  0  0
  -24.3821  -23.3070   19.9739 N   0  0  0  0  0  0  0  0  0  0  0  0
  -25.7285  -15.4242   20.0308 N   0  0  0  0  0  0  0  0  0  0  0  0
  -27.8957  -28.7457   22.9605 N   0  0  0  0  0  0  0  0  0  0  0  0
  -28.1350  -18.3950   19.9406 N   0  0  0  0  0  0  0  0  0  0  0  0
  -27.1095  -20.2300   21.0896 N   0  0  0  0  0  0  0  0  0  0  0  0
  -23.7226  -16.6806   19.9394 N   0  0  0  0  0  0  0  0  0  0  0  0
  -22.4066  -12.7451   21.7215 N   0  0  0  0  0  0  0  0  0  0  0  0
  -30.1170  -26.2653   21.4739 N   0  0  0  0  0  0  0  0  0  0  0  0
  -27.0681  -30.8918   25.4440 N   0  0  0  0  0  0  0  0  0  0  0  0
  -25.6051  -34.0220   24.3815 N   0  3  0  0  0  0  0  0  0  0  0  0
  -21.6887  -14.8148   21.0432 O   0  0  0  0  0  0  0  0  0  0  0  0
  -28.3373  -26.2277   22.9752 O   0  0  0  0  0  0  0  0  0  0  0  0
  -29.3994  -29.4603   24.5928 O   0  0  0  0  0  0  0  0  0  0  0  0
  -25.0159  -31.2713   24.4333 O   0  0  0  0  0  0  0  0  0  0  0  0
  -29.2035  -20.4255   20.1414 O   0  0  0  0  0  0  0  0  0  0  0  0
  -25.6684   -8.3554   22.7822 O   0  0  0  0  0  0  0  0  0  0  0  0
  -23.4044  -27.7190   18.8481 O   0  0  0  0  0  0  0  0  0  1  0  0
  -21.9005   -4.6585   21.1886 F   0  0  0  0  0  0  0  0  0  0  0  0
  -22.9892   -8.7234   23.3557 F   0  0  0  0  0  0  0  0  0  0  0  0
  1  2  1  0  0  0  0
  1  5  2  0  0  0  0
  2  6  2  0  0  0  0
  3  8  2  0  0  0  0
  3 16  1  0  0  0  0
  4  9  1  0  0  0  0
  4 16  2  0  0  0  0
  5 18  1  0  0  0  0
  6 20  1  0  0  0  0
  7 10  2  0  0  0  0
  7 19  1  0  0  0  0
  8 23  1  0  0  0  0
  9 23  2  0  0  0  0
 10 24  1  0  0  0  0
 11 12  2  0  0  0  0
 11 25  1  0  0  0  0
 12 26  1  0  0  0  0
 13 21  1  0  0  0  0
 13 24  2  0  0  0  0
 14 22  1  0  0  0  0
 14 29  2  0  0  0  0
 15 26  2  0  0  0  0
 15 27  1  0  0  0  0
 16 28  1  0  0  0  0
 17 28  1  0  0  0  0
 17 31  2  0  0  0  0
 17 32  1  0  0  0  0
 18 20  2  0  0  0  0
 18 37  1  0  0  0  0
 19 21  2  0  0  0  0
 19 38  1  0  0  0  0
 20 50  1  0  0  0  0
 21 39  1  0  0  0  0
 22 30  2  0  0  0  0
 22 62  1  0  0  0  0
 23 83  1  0  0  0  0
 24 84  1  0  0  0  0
 25 27  2  0  0  0  0
 25 83  1  0  0  0  0
 26 85  1  0  0  0  0
 27 86  1  0  0  0  0
 28 67  2  0  0  0  0
 29 54  1  0  0  0  0
 29 68  1  0  0  0  0
 30 55  1  0  0  0  0
 30 68  1  0  0  0  0
 31 69  1  0  0  0  0
 31 73  1  0  0  0  0
 32 74  1  0  0  0  0
 32 78  2  0  0  0  0
 33 51  1  0  0  0  0
 33 75  1  0  0  0  0
 33 79  2  0  0  0  0
 34 63  1  0  0  0  0
 34 70  1  0  0  0  0
 34 80  2  0  0  0  0
 35 64  1  0  0  0  0
 35 76  1  0  0  0  0
 35 81  2  0  0  0  0
 36 71  1  0  0  0  0
 36 72  1  0  0  0  0
 36 82  2  0  0  0  0
 37 40  1  0  0  0  0
 38 51  1  0  0  0  0
 39 70  1  0  0  0  0
 40 42  1  0  0  0  0
 41 43  1  0  0  0  0
 41 46  1  0  0  0  0
 42 50  1  0  0  0  0
 43 52  1  0  0  0  0
 44 47  1  0  0  0  0
 44 53  1  0  0  0  0
 45 48  1  0  0  0  0
 45 53  1  0  0  0  0
 46 71  1  0  0  0  0
 47 72  1  0  0  0  0
 48 72  1  0  0  0  0
 49 52  1  0  0  0  0
 49 71  1  0  0  0  0
 50 75  1  0  0  0  0
 51 70  1  0  0  0  0
 52 69  1  0  0  0  0
 53 68  1  0  0  0  0
 56 64  1  0  0  0  0
 57 65  1  0  0  0  0
 58 66  1  0  0  0  0
 59 66  1  0  0  0  0
 60 66  1  0  0  0  0
 61 77  1  0  0  0  0
 62 65  1  0  0  0  0
 63 66  1  0  0  0  0
 63 76  1  0  0  0  0
 64 77  1  0  0  0  0
 65 84  1  0  0  0  0
 67 69  1  0  0  0  0
M  CHG  1  77   1
M  ISO  4  36 100  65 101  72 100  84 101
M  END
> <Batch ID>
0120

> <Smiles>
CNC(C)C(=O)NC(C(=O)N1Cc2cc([101O:1][101CH:1](C)Cc3cc(C)n(C4CC[100N:0]([100C:0](=O)N5CCCC(n6nc(-c7ccc(Oc8ccc(F)cc8F)cc7)c(C(N)=O)c6N)C5)CC4)c3C)ccc2CC1C(=O)NC1CCCc2ccccc21)C(C)(C)C

> <Shape>
0.245

> <Color>
0.088

> <Negative vol penalty>
0.000

$$$$

  -OEChem-04052320233D

 89 97  0     1  0  0  0  0  0999 V2000
  -25.6021  -29.3207   20.7304 C   0  0  0  0  0  0  0  0  0  0  0  0
  -25.1949  -28.0006   20.8943 C   0  0  0  0  0  0  0  0  0  0  0  0
  -26.9245  -17.8373   22.3089 C   0  0  0  0  0  0  0  0  0  0  0  0
  -26.6763  -16.0636   23.9305 C   0  0  0  0  0  0  0  0  0  0  0  0
  -26.7106  -29.6138   19.9372 C   0  0  0  0  0  0  0  0  0  0  0  0
  -25.8956  -26.9727   20.2642 C   0  0  0  0  0  0  0  0  0  0  0  0
  -26.7451  -23.0350   23.3330 C   0  0  0  0  0  0  0  0  0  0  0  0
  -27.0321  -16.8907   21.2900 C   0  0  0  0  0  0  0  0  0  0  0  0
  -26.7839  -15.1170   22.9116 C   0  0  0  0  0  0  0  0  0  0  0  0
  -25.6815  -22.1622   23.5581 C   0  0  0  0  0  0  0  0  0  0  0  0
  -24.7983  -13.8072   20.5111 C   0  0  0  0  0  0  0  0  0  0  0  0
  -23.8911  -12.7477   20.5145 C   0  0  0  0  0  0  0  0  0  0  0  0
  -26.6060  -20.6283   21.9420 C   0  0  0  0  0  0  0  0  0  0  0  0
  -25.7215  -11.1811   20.6960 C   0  0  0  0  0  0  0  0  0  0  0  0
  -26.7466  -17.4237   23.6292 C   0  0  0  0  0  0  0  0  0  0  0  0
  -27.5922  -19.3666   25.0496 C   0  0  0  0  0  0  0  0  0  0  0  0
  -27.4310  -28.5882   19.3049 C   0  0  0  0  0  0  0  0  0  0  0  0
  -27.7431  -22.7154   22.4011 C   0  0  0  0  0  0  0  0  0  0  0  0
  -27.0141  -27.2525   19.4607 C   0  0  0  0  0  0  0  0  0  0  0  0
  -27.6825  -21.4976   21.7087 C   0  0  0  0  0  0  0  0  0  0  0  0
  -26.9617  -15.5306   21.5914 C   0  0  0  0  0  0  0  0  0  0  0  0
  -25.6103  -20.9600   22.8605 C   0  0  0  0  0  0  0  0  0  0  0  0
  -26.1671  -13.5537   20.6001 C   0  0  0  0  0  0  0  0  0  0  0  0
  -24.3527  -11.4347   20.6069 C   0  0  0  0  0  0  0  0  0  0  0  0
  -26.6287  -12.2407   20.6926 C   0  0  0  0  0  0  0  0  0  0  0  0
  -26.6360  -18.4010   24.6821 C   0  0  0  0  0  0  0  0  0  0  0  0
  -27.0129  -20.0427   26.0955 C   0  0  0  0  0  0  0  0  0  0  0  0
  -20.0638  -26.4427   20.3121 C   0  0  0  0  0  0  0  0  0  0  0  0
  -20.9651  -25.8595   21.1150 C   0  0  0  0  0  0  0  0  0  0  0  0
  -28.8881  -19.6290   24.4951 C   0  0  0  0  0  0  0  0  0  0  0  0
  -28.7876  -24.0195   19.6970 C   0  0  0  0  0  0  0  0  0  0  0  0
  -31.0535  -21.7085   19.9141 C   0  0  0  0  0  0  0  0  0  0  0  0
  -31.1736  -18.2135   20.8015 C   0  0  0  0  0  0  0  0  0  0  0  0
  -21.3194  -20.9352   27.7198 C   0  0  0  0  0  0  0  0  0  0  0  0
  -28.5944  -28.9579   18.4191 C   0  0  0  0  0  0  0  0  0  0  0  0
  -28.8980  -23.6555   22.1892 C   0  0  0  0  0  0  0  0  0  0  0  0
  -28.7392  -21.0984   20.7125 C   0  0  0  0  0  0  0  0  0  0  0  0
  -18.6157  -26.0505   20.2785 C   0  0  0  0  0  0  0  0  0  0  0  0
  -20.6272  -24.7302   22.0448 C   0  0  0  0  0  0  0  0  0  0  0  0
  -29.5071  -27.7796   18.0889 C   0  0  0  0  0  0  0  0  0  0  0  0
  -18.2038  -25.1532   21.4509 C   0  0  0  0  0  0  0  0  0  0  0  0
  -23.8943  -19.4424   29.6738 C   0  0  0  0  0  0  0  0  0  0  0  0
  -28.6823  -26.5652   17.6745 C   0  0  0  0  0  0  0  0  0  0  0  0
  -24.9752  -19.0933   28.6492 C   0  0  0  0  0  0  0  0  0  0  0  0
  -22.4914  -19.2471   29.1029 C   0  0  0  0  0  0  0  0  0  0  0  0
  -23.3170  -19.6029   26.8082 C   0  0  0  0  0  0  0  0  0  0  0  0
  -27.7631  -26.1078   18.8136 C   0  0  1  0  0  0  0  0  0  0  0  0
  -29.5861  -23.4625   20.8414 C   0  0  1  0  0  0  0  0  0  0  0  0
  -24.7487  -19.8375   27.3195 C   0  0  2  0  0  0  0  0  0  0  0  0
  -19.2719  -24.0961   21.7190 C   0  0  2  0  0  0  0  0  0  0  0  0
  -33.0459  -16.8323   21.7418 C   0  0  0  0  0  0  0  0  0  0  0  0
  -20.5802  -17.1723   24.8431 C   0  0  0  0  0  0  0  0  0  0  0  0
  -31.6197  -21.0147   16.9973 C   0  0  0  0  0  0  0  0  0  0  0  0
  -32.1583  -18.6818   17.7294 C   0  0  0  0  0  0  0  0  0  0  0  0
  -33.5276  -20.5949   18.5588 C   0  0  0  0  0  0  0  0  0  0  0  0
  -31.3100  -16.0811   23.9716 C   0  0  0  0  0  0  0  0  0  0  0  0
  -22.6756  -18.9814   22.0880 C   0  0  0  0  0  0  0  0  0  0  0  0
  -22.3313  -18.2240   23.3761 C   0  0  0  0  0  0  0  0  0  0  0  0
  -18.9896  -21.9897   25.6267 C   0  0  0  0  0  0  0  0  0  0  0  0
  -20.2579  -22.6020   26.2184 C   0  0  0  0  0  0  0  0  0  0  0  0
  -19.9123  -19.1468   23.3912 C   0  0  0  0  0  0  0  0  0  0  0  0
  -19.7501  -22.1105   23.1537 C   0  0  0  0  0  0  0  0  0  0  0  0
  -24.1659  -19.2867   21.9831 C   0  0  0  0  0  0  0  0  0  1  0  0
  -31.1760  -20.2828   19.4332 C   0  0  1  0  0  0  0  0  0  0  0  0
  -31.7809  -17.6151   22.0575 C   0  0  2  0  0  0  0  0  0  0  0  0
  -20.8265  -17.9125   23.5225 C   0  0  2  0  0  0  0  0  0  0  0  0
  -19.1872  -21.2514   24.2887 C   0  0  1  0  0  0  0  0  0  0  0  0
  -32.0951  -20.1551   18.1856 C   0  0  0  0  0  0  0  0  0  0  0  0
  -25.5331  -18.4554   25.4336 N   0  0  0  0  0  0  0  0  0  0  0  0
  -25.7927  -19.4633   26.2837 N   0  0  0  0  0  0  0  0  0  0  0  0
  -29.8451  -22.0541   20.5357 N   0  0  0  0  0  0  0  0  0  0  0  0
  -22.3416  -19.9798   27.8433 N   0  0  0  0  0  0  0  0  0  0  0  0
  -27.4334  -21.0704   26.8633 N   0  0  0  0  0  0  0  0  0  0  0  0
  -29.9931  -18.9531   25.0303 N   0  0  0  0  0  0  0  0  0  0  0  0
  -28.5160  -25.3701   19.8052 N   0  0  0  0  0  0  0  0  0  0  0  0
  -31.6171  -19.5006   20.5830 N   0  0  0  0  0  0  0  0  0  0  0  0
  -21.2514  -21.5886   26.4953 N   0  0  0  0  0  0  0  0  0  0  0  0
  -20.0685  -20.1082   24.4773 N   0  0  0  0  0  0  0  0  0  0  0  0
  -18.8466  -23.2510   22.8653 N   0  3  0  0  0  0  0  0  0  0  0  0
  -30.8102  -16.6945   22.7143 N   0  3  0  0  0  0  0  0  0  0  0  0
  -29.0632  -20.4511   23.5640 O   0  0  0  0  0  0  0  0  0  0  0  0
  -28.4446  -23.2792   18.7827 O   0  0  0  0  0  0  0  0  0  0  0  0
  -31.9980  -22.4850   19.7509 O   0  0  0  0  0  0  0  0  0  0  0  0
  -30.3875  -17.5990   20.0837 O   0  0  0  0  0  0  0  0  0  0  0  0
  -20.5294  -21.1911   28.6349 O   0  0  0  0  0  0  0  0  0  0  0  0
  -27.0665  -14.6067   20.5974 O   0  0  0  0  0  0  0  0  0  0  0  0
  -24.5729  -20.1065   23.0779 O   0  0  0  0  0  0  0  0  0  1  0  0
  -23.4813  -10.4174   20.6117 F   0  0  0  0  0  0  0  0  0  0  0  0
  -27.9424  -11.9910   20.7795 F   0  0  0  0  0  0  0  0  0  0  0  0
  1  2  1  0  0  0  0
  1  5  2  0  0  0  0
  2  6  2  0  0  0  0
  3  8  2  0  0  0  0
  3 15  1  0  0  0  0
  4  9  1  0  0  0  0
  4 15  2  0  0  0  0
  5 17  1  0  0  0  0
  6 19  1  0  0  0  0
  7 10  2  0  0  0  0
  7 18  1  0  0  0  0
  8 21  1  0  0  0  0
  9 21  2  0  0  0  0
 10 22  1  0  0  0  0
 11 12  2  0  0  0  0
 11 23  1  0  0  0  0
 12 24  1  0  0  0  0
 13 20  1  0  0  0  0
 13 22  2  0  0  0  0
 14 24  2  0  0  0  0
 14 25  1  0  0  0  0
 15 26  1  0  0  0  0
 16 26  1  0  0  0  0
 16 27  2  0  0  0  0
 16 30  1  0  0  0  0
 17 19  2  0  0  0  0
 17 35  1  0  0  0  0
 18 20  2  0  0  0  0
 18 36  1  0  0  0  0
 19 47  1  0  0  0  0
 20 37  1  0  0  0  0
 21 86  1  0  0  0  0
 22 87  1  0  0  0  0
 23 25  2  0  0  0  0
 23 86  1  0  0  0  0
 24 88  1  0  0  0  0
 25 89  1  0  0  0  0
 26 69  2  0  0  0  0
 27 70  1  0  0  0  0
 27 73  1  0  0  0  0
 28 29  2  0  0  0  0
 28 38  1  0  0  0  0
 29 39  1  0  0  0  0
 30 74  1  0  0  0  0
 30 81  2  0  0  0  0
 31 48  1  0  0  0  0
 31 75  1  0  0  0  0
 31 82  2  0  0  0  0
 32 64  1  0  0  0  0
 32 71  1  0  0  0  0
 32 83  2  0  0  0  0
 33 65  1  0  0  0  0
 33 76  1  0  0  0  0
 33 84  2  0  0  0  0
 34 72  1  0  0  0  0
 34 77  1  0  0  0  0
 34 85  2  0  0  0  0
 35 40  1  0  0  0  0
 36 48  1  0  0  0  0
 37 71  1  0  0  0  0
 38 41  1  0  0  0  0
 39 50  1  0  0  0  0
 40 43  1  0  0  0  0
 41 50  1  0  0  0  0
 42 44  1  0  0  0  0
 42 45  1  0  0  0  0
 43 47  1  0  0  0  0
 44 49  1  0  0  0  0
 45 72  1  0  0  0  0
 46 49  1  0  0  0  0
 46 72  1  0  0  0  0
 47 75  1  0  0  0  0
 48 71  1  0  0  0  0
 49 70  1  0  0  0  0
 50 79  1  0  0  0  0
 51 65  1  0  0  0  0
 52 66  1  0  0  0  0
 53 68  1  0  0  0  0
 54 68  1  0  0  0  0
 55 68  1  0  0  0  0
 56 80  1  0  0  0  0
 57 58  1  0  0  0  0
 57 63  1  0  0  0  0
 58 66  1  0  0  0  0
 59 60  1  0  0  0  0
 59 67  1  0  0  0  0
 60 77  1  0  0  0  0
 61 66  1  0  0  0  0
 61 78  1  0  0  0  0
 62 67  1  0  0  0  0
 62 79  1  0  0  0  0
 63 87  1  0  0  0  0
 64 68  1  0  0  0  0
 64 76  1  0  0  0  0
 65 80  1  0  0  0  0
 67 78  1  0  0  0  0
 69 70  1  0  0  0  0
M  CHG  2  79   1  80   1
M  ISO  4  34 100  63 101  77 100  87 101
M  END
> <Batch ID>
0120

> <Smiles>
CNC(C)C(=O)NC(C(=O)N1Cc2cc([101O:1][101CH2:1]CCC(C)CNC(CC[100NH:0][100C:0](=O)N3CCCC(n4nc(-c5ccc(Oc6ccc(F)cc6F)cc5)c(C(N)=O)c4N)C3)CNC3CC=CCC3)ccc2CC1C(=O)NC1CCCc2ccccc21)C(C)(C)C

> <Shape>
0.155

> <Color>
0.065

> <Negative vol penalty>
0.000

$$$$

  -OEChem-04052320233D

 83 91  0     1  0  0  0  0  0999 V2000
  -35.9401  -24.1094   15.9423 C   0  0  0  0  0  0  0  0  0  0  0  0
  -35.4371  -23.5101   17.0926 C   0  0  0  0  0  0  0  0  0  0  0  0
  -23.1233  -10.2601   22.1385 C   0  0  0  0  0  0  0  0  0  0  0  0
  -23.7692   -9.4627   19.9512 C   0  0  0  0  0  0  0  0  0  0  0  0
  -35.6790  -25.4551   15.6875 C   0  0  0  0  0  0  0  0  0  0  0  0
  -34.6734  -24.2565   17.9893 C   0  0  0  0  0  0  0  0  0  0  0  0
  -30.5387  -21.7827   19.5480 C   0  0  0  0  0  0  0  0  0  0  0  0
  -22.3586   -9.1098   22.3321 C   0  0  0  0  0  0  0  0  0  0  0  0
  -23.0045   -8.3123   20.1448 C   0  0  0  0  0  0  0  0  0  0  0  0
  -30.7132  -20.8023   20.5238 C   0  0  0  0  0  0  0  0  0  0  0  0
  -19.3366   -7.9378   21.3737 C   0  0  0  0  0  0  0  0  0  0  0  0
  -18.0555   -8.0936   21.9029 C   0  0  0  0  0  0  0  0  0  0  0  0
  -29.9677  -22.3572   22.2108 C   0  0  0  0  0  0  0  0  0  0  0  0
  -18.6641   -6.7064   23.7850 C   0  0  0  0  0  0  0  0  0  0  0  0
  -23.8286  -10.4366   20.9480 C   0  0  0  0  0  0  0  0  0  0  0  0
  -24.1640  -12.9574   20.7464 C   0  0  0  0  0  0  0  0  0  0  0  0
  -34.9037  -26.2158   16.5768 C   0  0  0  0  0  0  0  0  0  0  0  0
  -30.0869  -23.0632   19.8984 C   0  0  0  0  0  0  0  0  0  0  0  0
  -34.4028  -25.6139   17.7469 C   0  0  0  0  0  0  0  0  0  0  0  0
  -29.7858  -23.3512   21.2372 C   0  0  0  0  0  0  0  0  0  0  0  0
  -22.2992   -8.1359   21.3353 C   0  0  0  0  0  0  0  0  0  0  0  0
  -30.4305  -21.0903   21.8558 C   0  0  0  0  0  0  0  0  0  0  0  0
  -20.2815   -7.1662   22.0502 C   0  0  0  0  0  0  0  0  0  0  0  0
  -17.7192   -7.4779   23.1085 C   0  0  0  0  0  0  0  0  0  0  0  0
  -19.9453   -6.5505   23.2558 C   0  0  0  0  0  0  0  0  0  0  0  0
  -24.6183  -11.6250   20.7472 C   0  0  0  0  0  0  0  0  0  0  0  0
  -25.2927  -13.7049   20.5144 C   0  0  0  0  0  0  0  0  0  0  0  0
  -30.1680  -17.1585   23.9428 C   0  0  0  0  0  0  0  0  0  0  0  0
  -22.8401  -13.4734   20.9383 C   0  0  0  0  0  0  0  0  0  0  0  0
  -31.1882  -17.9384   23.5574 C   0  0  0  0  0  0  0  0  0  0  0  0
  -31.2916  -25.9982   19.7028 C   0  0  0  0  0  0  0  0  0  0  0  0
  -28.3413  -26.8578   20.7416 C   0  0  0  0  0  0  0  0  0  0  0  0
  -25.4860  -25.9901   22.3973 C   0  0  0  0  0  0  0  0  0  0  0  0
  -31.1169  -12.7001   21.4740 C   0  0  0  0  0  0  0  0  0  0  0  0
  -34.6877  -27.6792   16.2826 C   0  0  0  0  0  0  0  0  0  0  0  0
  -29.8783  -24.1015   18.8303 C   0  0  0  0  0  0  0  0  0  0  0  0
  -29.2789  -24.7042   21.6626 C   0  0  0  0  0  0  0  0  0  0  0  0
  -28.8336  -17.1670   23.2427 C   0  0  0  0  0  0  0  0  0  0  0  0
  -33.5560  -28.3033   17.0950 C   0  0  0  0  0  0  0  0  0  0  0  0
  -29.5613  -13.4727   18.3659 C   0  0  0  0  0  0  0  0  0  0  0  0
  -33.6690  -27.9034   18.5627 C   0  0  0  0  0  0  0  0  0  0  0  0
  -28.0771  -13.2070   18.6237 C   0  0  0  0  0  0  0  0  0  0  0  0
  -27.6952  -17.3393   24.2510 C   0  0  0  0  0  0  0  0  0  0  0  0
  -30.4498  -12.4704   19.0994 C   0  0  0  0  0  0  0  0  0  0  0  0
  -29.0340  -16.4419   26.0552 C   0  0  0  0  0  0  0  0  0  0  0  0
  -28.7116  -12.0962   20.8060 C   0  0  0  0  0  0  0  0  0  0  0  0
  -33.5495  -26.3840   18.7313 C   0  0  1  0  0  0  0  0  0  0  0  0
  -30.2528  -16.2463   25.1414 C   0  0  1  0  0  0  0  0  0  0  0  0
  -29.9037  -25.5280   19.3706 C   0  0  1  0  0  0  0  0  0  0  0  0
  -27.7775  -13.1158   20.1321 C   0  0  2  0  0  0  0  0  0  0  0  0
  -32.5095  -17.9134   24.2701 C   0  0  0  0  0  0  0  0  0  0  0  0
  -23.2676  -26.9162   23.1173 C   0  0  0  0  0  0  0  0  0  0  0  0
  -29.7184  -28.4122   22.9771 C   0  0  0  0  0  0  0  0  0  0  0  0
  -27.5200  -28.5057   24.1716 C   0  0  0  0  0  0  0  0  0  0  0  0
  -27.7704  -29.5861   21.9371 C   0  0  0  0  0  0  0  0  0  0  0  0
  -24.0015  -23.9833   20.8074 C   0  0  0  0  0  0  0  0  0  0  0  0
  -31.0719  -18.8602   22.3765 C   0  0  0  0  0  0  0  0  0  1  0  0
  -31.6284  -12.9082   23.8935 C   0  0  0  0  0  0  0  0  0  0  0  0
  -31.6649  -14.3753   24.2787 C   0  0  0  0  0  0  0  0  0  0  0  0
  -27.7018  -27.0636   22.0936 C   0  0  1  0  0  0  0  0  0  0  0  0
  -24.0213  -26.1581   22.0356 C   0  0  2  0  0  0  0  0  0  0  0  0
  -28.1890  -28.3669   22.7874 C   0  0  0  0  0  0  0  0  0  0  0  0
  -25.9330  -11.5283   20.5326 N   0  0  0  0  0  0  0  0  0  0  0  0
  -26.3146  -12.8095   20.3947 N   0  0  0  0  0  0  0  0  0  0  0  0
  -27.7644  -16.3450   25.3260 N   0  0  0  0  0  0  0  0  0  0  0  0
  -29.0972  -25.6878   20.5823 N   0  0  0  0  0  0  0  0  0  0  0  0
  -30.1159  -12.4335   20.5253 N   0  0  0  0  0  0  0  0  0  0  0  0
  -25.5009  -15.0340   20.4031 N   0  0  0  0  0  0  0  0  0  0  0  0
  -22.0201  -13.6439   19.8146 N   0  0  0  0  0  0  0  0  0  0  0  0
  -32.1657  -25.9719   18.6329 N   0  0  0  0  0  0  0  0  0  0  0  0
  -26.2603  -27.0052   21.8765 N   0  0  0  0  0  0  0  0  0  0  0  0
  -30.7145  -12.6507   22.8030 N   0  0  0  0  0  0  0  0  0  0  0  0
  -30.3260  -14.8032   24.7520 N   0  3  0  0  0  0  0  0  0  0  0  0
  -23.3756  -24.8268   21.8581 N   0  3  0  0  0  0  0  0  0  0  0  0
  -22.4032  -13.7898   22.0708 O   0  0  0  0  0  0  0  0  0  0  0  0
  -31.5498  -26.3597   20.8449 O   0  0  0  0  0  0  0  0  0  0  0  0
  -28.1703  -27.7006   19.8572 O   0  0  0  0  0  0  0  0  0  0  0  0
  -25.9011  -25.0543   23.0773 O   0  0  0  0  0  0  0  0  0  0  0  0
  -32.2815  -12.9679   21.1597 O   0  0  0  0  0  0  0  0  0  0  0  0
  -21.5532   -7.0131   21.5239 O   0  0  0  0  0  0  0  0  0  0  0  0
  -30.6006  -20.1354   22.8103 O   0  0  0  0  0  0  0  0  0  1  0  0
  -16.4894   -7.6289   23.6173 F   0  0  0  0  0  0  0  0  0  0  0  0
  -20.8492   -5.8091   23.9108 F   0  0  0  0  0  0  0  0  0  0  0  0
  1  2  1  0  0  0  0
  1  5  2  0  0  0  0
  2  6  2  0  0  0  0
  3  8  2  0  0  0  0
  3 15  1  0  0  0  0
  4  9  1  0  0  0  0
  4 15  2  0  0  0  0
  5 17  1  0  0  0  0
  6 19  1  0  0  0  0
  7 10  2  0  0  0  0
  7 18  1  0  0  0  0
  8 21  1  0  0  0  0
  9 21  2  0  0  0  0
 10 22  1  0  0  0  0
 11 12  2  0  0  0  0
 11 23  1  0  0  0  0
 12 24  1  0  0  0  0
 13 20  1  0  0  0  0
 13 22  2  0  0  0  0
 14 24  2  0  0  0  0
 14 25  1  0  0  0  0
 15 26  1  0  0  0  0
 16 26  1  0  0  0  0
 16 27  2  0  0  0  0
 16 29  1  0  0  0  0
 17 19  2  0  0  0  0
 17 35  1  0  0  0  0
 18 20  2  0  0  0  0
 18 36  1  0  0  0  0
 19 47  1  0  0  0  0
 20 37  1  0  0  0  0
 21 80  1  0  0  0  0
 22 81  1  0  0  0  0
 23 25  2  0  0  0  0
 23 80  1  0  0  0  0
 24 82  1  0  0  0  0
 25 83  1  0  0  0  0
 26 63  2  0  0  0  0
 27 64  1  0  0  0  0
 27 68  1  0  0  0  0
 28 30  2  0  0  0  0
 28 38  1  0  0  0  0
 28 48  1  0  0  0  0
 29 69  1  0  0  0  0
 29 75  2  0  0  0  0
 30 51  1  0  0  0  0
 30 57  1  0  0  0  0
 31 49  1  0  0  0  0
 31 70  1  0  0  0  0
 31 76  2  0  0  0  0
 32 60  1  0  0  0  0
 32 66  1  0  0  0  0
 32 77  2  0  0  0  0
 33 61  1  0  0  0  0
 33 71  1  0  0  0  0
 33 78  2  0  0  0  0
 34 67  1  0  0  0  0
 34 72  1  0  0  0  0
 34 79  2  0  0  0  0
 35 39  1  0  0  0  0
 36 49  1  0  0  0  0
 37 66  1  0  0  0  0
 38 43  1  0  0  0  0
 39 41  1  0  0  0  0
 40 42  1  0  0  0  0
 40 44  1  0  0  0  0
 41 47  1  0  0  0  0
 42 50  1  0  0  0  0
 43 65  1  0  0  0  0
 44 67  1  0  0  0  0
 45 48  1  0  0  0  0
 45 65  1  0  0  0  0
 46 50  1  0  0  0  0
 46 67  1  0  0  0  0
 47 70  1  0  0  0  0
 48 73  1  0  0  0  0
 49 66  1  0  0  0  0
 50 64  1  0  0  0  0
 52 61  1  0  0  0  0
 53 62  1  0  0  0  0
 54 62  1  0  0  0  0
 55 62  1  0  0  0  0
 56 74  1  0  0  0  0
 57 81  1  0  0  0  0
 58 59  1  0  0  0  0
 58 72  1  0  0  0  0
 59 73  1  0  0  0  0
 60 62  1  0  0  0  0
 60 71  1  0  0  0  0
 61 74  1  0  0  0  0
 63 64  1  0  0  0  0
M  CHG  2  73   1  74   1
M  ISO  4  34 100  57 101  72 100  81 101
M  END
> <Batch ID>
0120

> <Smiles>
CNC(C)C(=O)NC(C(=O)N1Cc2cc([101O:1][101CH2:1]C(C)=C3CCNCC3NCC[100NH:0][100C:0](=O)N3CCCC(n4nc(-c5ccc(Oc6ccc(F)cc6F)cc5)c(C(N)=O)c4N)C3)ccc2CC1C(=O)NC1CCCc2ccccc21)C(C)(C)C

> <Shape>
0.208

> <Color>
0.142

> <Negative vol penalty>
0.000

$$$$

  -OEChem-04052320233D

 88 96  0     1  0  0  0  0  0999 V2000
  -33.5038  -23.9867   16.5763 C   0  0  0  0  0  0  0  0  0  0  0  0
  -32.5712  -23.1795   17.2200 C   0  0  0  0  0  0  0  0  0  0  0  0
  -23.7477   -9.6510   20.4514 C   0  0  0  0  0  0  0  0  0  0  0  0
  -24.2882  -10.2088   22.7391 C   0  0  0  0  0  0  0  0  0  0  0  0
  -33.8368  -25.2296   17.1132 C   0  0  0  0  0  0  0  0  0  0  0  0
  -31.9719  -23.6144   18.4015 C   0  0  0  0  0  0  0  0  0  0  0  0
  -26.2334  -22.5185   20.2387 C   0  0  0  0  0  0  0  0  0  0  0  0
  -23.2506   -8.4167   20.8697 C   0  0  0  0  0  0  0  0  0  0  0  0
  -23.7911   -8.9745   23.1575 C   0  0  0  0  0  0  0  0  0  0  0  0
  -25.6932  -21.5828   21.1198 C   0  0  0  0  0  0  0  0  0  0  0  0
  -20.4292   -7.2229   22.3005 C   0  0  0  0  0  0  0  0  0  0  0  0
  -19.2096   -6.8019   21.7706 C   0  0  0  0  0  0  0  0  0  0  0  0
  -25.7529  -23.2225   22.8882 C   0  0  0  0  0  0  0  0  0  0  0  0
  -28.5653  -20.3969   24.6140 C   0  0  0  0  0  0  0  0  0  0  0  0
  -28.2588  -18.0116   24.5869 C   0  0  0  0  0  0  0  0  0  0  0  0
  -20.2858   -4.8455   20.8479 C   0  0  0  0  0  0  0  0  0  0  0  0
  -24.2665  -10.5470   21.3861 C   0  0  0  0  0  0  0  0  0  0  0  0
  -24.0661  -13.0285   20.8293 C   0  0  0  0  0  0  0  0  0  0  0  0
  -33.2341  -25.6841   18.2968 C   0  0  0  0  0  0  0  0  0  0  0  0
  -26.5481  -23.8121   20.6792 C   0  0  0  0  0  0  0  0  0  0  0  0
  -32.2981  -24.8640   18.9554 C   0  0  0  0  0  0  0  0  0  0  0  0
  -26.2946  -24.1736   22.0100 C   0  0  0  0  0  0  0  0  0  0  0  0
  -27.7620  -19.2850   24.8415 C   0  0  0  0  0  0  0  0  0  0  0  0
  -23.2723   -8.0784   22.2228 C   0  0  0  0  0  0  0  0  0  0  0  0
  -25.4555  -21.9339   22.4455 C   0  0  0  0  0  0  0  0  0  0  0  0
  -21.5772   -6.4552   22.1040 C   0  0  0  0  0  0  0  0  0  0  0  0
  -19.1378   -5.6132   21.0444 C   0  0  0  0  0  0  0  0  0  0  0  0
  -21.5055   -5.2665   21.3778 C   0  0  0  0  0  0  0  0  0  0  0  0
  -24.7806  -11.8220   20.9545 C   0  0  0  0  0  0  0  0  0  0  0  0
  -29.8478  -20.1833   24.1353 C   0  0  0  0  0  0  0  0  0  0  0  0
  -29.5550  -17.9048   24.1092 C   0  0  0  0  0  0  0  0  0  0  0  0
  -24.9985  -13.9356   20.3887 C   0  0  0  0  0  0  0  0  0  0  0  0
  -22.6832  -13.3045   21.0882 C   0  0  0  0  0  0  0  0  0  0  0  0
  -29.2192  -25.5223   20.8894 C   0  0  0  0  0  0  0  0  0  0  0  0
  -27.1750  -27.8869   21.7565 C   0  0  0  0  0  0  0  0  0  0  0  0
  -24.1479  -28.7643   23.0656 C   0  0  0  0  0  0  0  0  0  0  0  0
  -30.9605  -14.2129   20.8664 C   0  0  0  0  0  0  0  0  0  0  0  0
  -33.6611  -27.0145   18.8643 C   0  0  0  0  0  0  0  0  0  0  0  0
  -27.1055  -24.8180   19.7096 C   0  0  0  0  0  0  0  0  0  0  0  0
  -26.5960  -25.5555   22.5276 C   0  0  0  0  0  0  0  0  0  0  0  0
  -32.7031  -27.5626   19.9189 C   0  0  0  0  0  0  0  0  0  0  0  0
  -29.0514  -14.2115   17.8611 C   0  0  0  0  0  0  0  0  0  0  0  0
  -32.3301  -26.4730   20.9191 C   0  0  0  0  0  0  0  0  0  0  0  0
  -27.6759  -13.7078   18.3018 C   0  0  0  0  0  0  0  0  0  0  0  0
  -30.1777  -13.5155   18.6221 C   0  0  0  0  0  0  0  0  0  0  0  0
  -28.6851  -13.0697   20.5319 C   0  0  0  0  0  0  0  0  0  0  0  0
  -31.6079  -25.3114   20.2257 C   0  0  1  0  0  0  0  0  0  0  0  0
  -27.8665  -25.9493   20.3939 C   0  0  1  0  0  0  0  0  0  0  0  0
  -27.5153  -13.7825   19.8321 C   0  0  2  0  0  0  0  0  0  0  0  0
  -26.2029  -18.8135   26.7486 C   0  0  0  0  0  0  0  0  0  0  0  0
  -22.7774  -30.7730   23.6857 C   0  0  0  0  0  0  0  0  0  0  0  0
  -32.0238  -21.3011   24.7252 C   0  0  0  0  0  0  0  0  0  0  0  0
  -31.1052  -21.4898   22.3904 C   0  0  0  0  0  0  0  0  0  0  0  0
  -28.8897  -28.2843   24.2489 C   0  0  0  0  0  0  0  0  0  0  0  0
  -27.0018  -29.5847   25.2554 C   0  0  0  0  0  0  0  0  0  0  0  0
  -28.1061  -30.4017   23.1732 C   0  0  0  0  0  0  0  0  0  0  0  0
  -22.0059  -28.0364   21.1574 C   0  0  0  0  0  0  0  0  0  0  0  0
  -25.2740  -18.9153   24.4046 C   0  0  0  0  0  0  0  0  0  0  0  0
  -31.3636  -16.3572   23.3612 C   0  0  0  0  0  0  0  0  0  0  0  0
  -31.5993  -14.8662   23.1739 C   0  0  0  0  0  0  0  0  0  0  0  0
  -25.2339  -19.6491   23.0674 C   0  0  0  0  0  0  0  0  0  1  0  0
  -26.3474  -19.4610   25.3661 C   0  0  2  0  0  0  0  0  0  0  0  0
  -26.5980  -28.3755   23.0632 C   0  0  1  0  0  0  0  0  0  0  0  0
  -23.0989  -29.7579   22.5999 C   0  0  2  0  0  0  0  0  0  0  0  0
  -30.7379  -21.3536   23.8797 C   0  0  0  0  0  0  0  0  0  0  0  0
  -27.6449  -29.1349   23.9262 C   0  0  0  0  0  0  0  0  0  0  0  0
  -26.0676  -11.9479   20.6202 N   0  0  0  0  0  0  0  0  0  0  0  0
  -30.3653  -18.9616   23.8761 N   0  0  0  0  0  0  0  0  0  0  0  0
  -26.1692  -13.2442   20.2806 N   0  0  0  0  0  0  0  0  0  0  0  0
  -27.1458  -26.5016   21.5426 N   0  0  0  0  0  0  0  0  0  0  0  0
  -29.9664  -13.6243   20.0676 N   0  0  0  0  0  0  0  0  0  0  0  0
  -24.9230  -15.2493   20.0870 N   0  0  0  0  0  0  0  0  0  0  0  0
  -21.8654  -12.2580   21.5358 N   0  0  0  0  0  0  0  0  0  0  0  0
  -30.0472  -16.6007   23.8542 N   0  0  0  0  0  0  0  0  0  0  0  0
  -30.2296  -25.6615   19.9571 N   0  0  0  0  0  0  0  0  0  0  0  0
  -25.4208  -29.1657   22.7195 N   0  0  0  0  0  0  0  0  0  0  0  0
  -30.6776  -14.2824   22.2251 N   0  0  0  0  0  0  0  0  0  0  0  0
  -21.8408  -29.0487   22.2322 N   0  3  0  0  0  0  0  0  0  0  0  0
  -22.1836  -14.4415   20.9117 O   0  0  0  0  0  0  0  0  0  0  0  0
  -29.3378  -25.0994   22.0334 O   0  0  0  0  0  0  0  0  0  0  0  0
  -27.6282  -28.7049   20.9521 O   0  0  0  0  0  0  0  0  0  0  0  0
  -23.8665  -27.7369   23.6785 O   0  0  0  0  0  0  0  0  0  0  0  0
  -32.0194  -14.6494   20.4025 O   0  0  0  0  0  0  0  0  0  0  0  0
  -22.7872   -6.8742   22.6314 O   0  0  0  0  0  0  0  0  0  0  0  0
  -24.9289  -21.0223   23.3078 O   0  0  0  0  0  0  0  0  0  1  0  0
  -17.9662   -5.2082   20.5369 F   0  0  0  0  0  0  0  0  0  0  0  0
  -22.6047   -4.5242   21.1867 F   0  0  0  0  0  0  0  0  0  0  0  0
  -30.1460  -22.5600   24.2100 F   0  0  0  0  0  0  0  0  0  0  0  0
  1  2  1  0  0  0  0
  1  5  2  0  0  0  0
  2  6  2  0  0  0  0
  3  8  2  0  0  0  0
  3 17  1  0  0  0  0
  4  9  1  0  0  0  0
  4 17  2  0  0  0  0
  5 19  1  0  0  0  0
  6 21  1  0  0  0  0
  7 10  2  0  0  0  0
  7 20  1  0  0  0  0
  8 24  1  0  0  0  0
  9 24  2  0  0  0  0
 10 25  1  0  0  0  0
 11 12  2  0  0  0  0
 11 26  1  0  0  0  0
 12 27  1  0  0  0  0
 13 22  1  0  0  0  0
 13 25  2  0  0  0  0
 14 23  2  0  0  0  0
 14 30  1  0  0  0  0
 15 23  1  0  0  0  0
 15 31  2  0  0  0  0
 16 27  2  0  0  0  0
 16 28  1  0  0  0  0
 17 29  1  0  0  0  0
 18 29  1  0  0  0  0
 18 32  2  0  0  0  0
 18 33  1  0  0  0  0
 19 21  2  0  0  0  0
 19 38  1  0  0  0  0
 20 22  2  0  0  0  0
 20 39  1  0  0  0  0
 21 47  1  0  0  0  0
 22 40  1  0  0  0  0
 23 62  1  0  0  0  0
 24 84  1  0  0  0  0
 25 85  1  0  0  0  0
 26 28  2  0  0  0  0
 26 84  1  0  0  0  0
 27 86  1  0  0  0  0
 28 87  1  0  0  0  0
 29 67  2  0  0  0  0
 30 65  1  0  0  0  0
 30 68  2  0  0  0  0
 31 68  1  0  0  0  0
 31 74  1  0  0  0  0
 32 69  1  0  0  0  0
 32 72  1  0  0  0  0
 33 73  1  0  0  0  0
 33 79  2  0  0  0  0
 34 48  1  0  0  0  0
 34 75  1  0  0  0  0
 34 80  2  0  0  0  0
 35 63  1  0  0  0  0
 35 70  1  0  0  0  0
 35 81  2  0  0  0  0
 36 64  1  0  0  0  0
 36 76  1  0  0  0  0
 36 82  2  0  0  0  0
 37 71  1  0  0  0  0
 37 77  1  0  0  0  0
 37 83  2  0  0  0  0
 38 41  1  0  0  0  0
 39 48  1  0  0  0  0
 40 70  1  0  0  0  0
 41 43  1  0  0  0  0
 42 44  1  0  0  0  0
 42 45  1  0  0  0  0
 43 47  1  0  0  0  0
 44 49  1  0  0  0  0
 45 71  1  0  0  0  0
 46 49  1  0  0  0  0
 46 71  1  0  0  0  0
 47 75  1  0  0  0  0
 48 70  1  0  0  0  0
 49 69  1  0  0  0  0
 50 62  1  0  0  0  0
 51 64  1  0  0  0  0
 52 65  1  0  0  0  0
 53 65  1  0  0  0  0
 54 66  1  0  0  0  0
 55 66  1  0  0  0  0
 56 66  1  0  0  0  0
 57 78  1  0  0  0  0
 58 61  1  0  0  0  0
 58 62  1  0  0  0  0
 59 60  1  0  0  0  0
 59 74  1  0  0  0  0
 60 77  1  0  0  0  0
 61 85  1  0  0  0  0
 63 66  1  0  0  0  0
 63 76  1  0  0  0  0
 64 78  1  0  0  0  0
 65 88  1  0  0  0  0
 67 69  1  0  0  0  0
M  CHG  1  78   1
M  ISO  4  37 100  61 101  77 100  85 101
M  END
> <Batch ID>
0120

> <Smiles>
CNC(C)C(=O)NC(C(=O)N1Cc2cc([101O:1][101CH2:1]CC(C)c3cc(NCC[100NH:0][100C:0](=O)N4CCCC(n5nc(-c6ccc(Oc7ccc(F)cc7F)cc6)c(C(N)=O)c5N)C4)nc(C(C)(C)F)c3)ccc2CC1C(=O)NC1CCCc2ccccc21)C(C)(C)C

> <Shape>
0.226

> <Color>
0.148

> <Negative vol penalty>
0.000

$$$$

  -OEChem-04052320233D

 84 92  0     1  0  0  0  0  0999 V2000
  -22.4633  -30.6484   24.5678 C   0  0  0  0  0  0  0  0  0  0  0  0
  -23.6713  -30.1891   25.0827 C   0  0  0  0  0  0  0  0  0  0  0  0
  -22.9995   -9.8916   19.9835 C   0  0  0  0  0  0  0  0  0  0  0  0
  -23.7232   -9.9486   22.2879 C   0  0  0  0  0  0  0  0  0  0  0  0
  -21.8815  -30.0036   23.4771 C   0  0  0  0  0  0  0  0  0  0  0  0
  -24.2977  -29.0838   24.5078 C   0  0  0  0  0  0  0  0  0  0  0  0
  -30.8157  -26.4216   23.1868 C   0  0  0  0  0  0  0  0  0  0  0  0
  -22.2332   -8.7576   20.2521 C   0  0  0  0  0  0  0  0  0  0  0  0
  -22.9567   -8.8145   22.5566 C   0  0  0  0  0  0  0  0  0  0  0  0
  -31.5630  -25.2598   23.3749 C   0  0  0  0  0  0  0  0  0  0  0  0
  -23.2024   -5.4745   22.0931 C   0  0  0  0  0  0  0  0  0  0  0  0
  -23.7897   -4.4594   22.8482 C   0  0  0  0  0  0  0  0  0  0  0  0
  -30.5049  -24.2738   21.4443 C   0  0  0  0  0  0  0  0  0  0  0  0
  -29.7587  -17.7007   22.6607 C   0  0  0  0  0  0  0  0  0  0  0  0
  -22.0647   -4.7059   24.5216 C   0  0  0  0  0  0  0  0  0  0  0  0
  -32.2644  -18.4655   21.8975 C   0  0  0  0  0  0  0  0  0  0  0  0
  -23.7446  -10.4871   21.0013 C   0  0  0  0  0  0  0  0  0  0  0  0
  -24.1293  -13.0024   20.8193 C   0  0  0  0  0  0  0  0  0  0  0  0
  -22.5059  -28.8958   22.8825 C   0  0  0  0  0  0  0  0  0  0  0  0
  -29.8979  -26.5143   22.1306 C   0  0  0  0  0  0  0  0  0  0  0  0
  -23.7231  -28.4228   23.4090 C   0  0  0  0  0  0  0  0  0  0  0  0
  -29.7491  -25.4388   21.2434 C   0  0  0  0  0  0  0  0  0  0  0  0
  -31.5226  -19.3355   22.6803 C   0  0  0  0  0  0  0  0  0  0  0  0
  -22.2117   -8.2190   21.5387 C   0  0  0  0  0  0  0  0  0  0  0  0
  -31.4056  -24.1845   22.5053 C   0  0  0  0  0  0  0  0  0  0  0  0
  -22.0462   -6.1054   22.5524 C   0  0  0  0  0  0  0  0  0  0  0  0
  -30.2469  -18.9383   23.0649 C   0  0  0  0  0  0  0  0  0  0  0  0
  -23.2209   -4.0751   24.0624 C   0  0  0  0  0  0  0  0  0  0  0  0
  -21.4773   -5.7211   23.7666 C   0  0  0  0  0  0  0  0  0  0  0  0
  -24.5369  -11.6583   20.7243 C   0  0  0  0  0  0  0  0  0  0  0  0
  -30.5793  -16.9039   21.8786 C   0  0  0  0  0  0  0  0  0  0  0  0
  -25.2391  -13.7244   20.4538 C   0  0  0  0  0  0  0  0  0  0  0  0
  -22.8609  -13.5494   21.2036 C   0  0  0  0  0  0  0  0  0  0  0  0
  -26.7517  -26.9168   21.9217 C   0  0  0  0  0  0  0  0  0  0  0  0
  -27.3787  -27.1017   18.7444 C   0  0  0  0  0  0  0  0  0  0  0  0
  -29.4572  -26.3250   16.1515 C   0  0  0  0  0  0  0  0  0  0  0  0
  -30.7181  -14.6876   20.6890 C   0  0  0  0  0  0  0  0  0  0  0  0
  -21.8152  -28.2025   21.7349 C   0  0  0  0  0  0  0  0  0  0  0  0
  -29.1188  -27.7845   21.9255 C   0  0  0  0  0  0  0  0  0  0  0  0
  -28.7918  -25.4956   20.0819 C   0  0  0  0  0  0  0  0  0  0  0  0
  -22.7305  -27.2680   20.9480 C   0  0  0  0  0  0  0  0  0  0  0  0
  -29.6021  -12.2286   18.3685 C   0  0  0  0  0  0  0  0  0  0  0  0
  -23.5415  -26.3914   21.8969 C   0  0  0  0  0  0  0  0  0  0  0  0
  -28.1513  -11.9716   18.7823 C   0  0  0  0  0  0  0  0  0  0  0  0
  -30.5017  -12.4753   19.5783 C   0  0  0  0  0  0  0  0  0  0  0  0
  -28.5853  -13.2670   20.9086 C   0  0  0  0  0  0  0  0  0  0  0  0
  -24.4456  -27.2422   22.7972 C   0  0  1  0  0  0  0  0  0  0  0  0
  -27.8388  -27.5772   21.1217 C   0  0  1  0  0  0  0  0  0  0  0  0
  -27.6285  -13.0773   19.7202 C   0  0  2  0  0  0  0  0  0  0  0  0
  -29.6851  -26.5791   13.6653 C   0  0  0  0  0  0  0  0  0  0  0  0
  -25.2883  -24.9176   18.3321 C   0  0  0  0  0  0  0  0  0  0  0  0
  -26.2228  -24.5532   16.0381 C   0  0  0  0  0  0  0  0  0  0  0  0
  -25.2222  -26.7577   16.6397 C   0  0  0  0  0  0  0  0  0  0  0  0
  -27.6695  -23.2128   25.4914 C   0  0  0  0  0  0  0  0  0  0  0  0
  -31.9766  -27.8542   16.4219 C   0  0  0  0  0  0  0  0  0  0  0  0
  -32.0971  -20.6688   23.0933 C   0  0  0  0  0  0  0  0  0  0  0  0
  -27.4868  -21.0363   24.2796 C   0  0  0  0  0  0  0  0  0  0  0  0
  -31.5382  -21.8220   22.2670 C   0  0  0  0  0  0  0  0  0  1  0  0
  -28.2159  -20.1561   23.2838 C   0  0  0  0  0  0  0  0  0  0  0  0
  -27.4637  -26.1072   17.6118 C   0  0  1  0  0  0  0  0  0  0  0  0
  -30.0220  -27.1714   15.0249 C   0  0  2  0  0  0  0  0  0  0  0  0
  -26.0660  -25.5818   17.1784 C   0  0  0  0  0  0  0  0  0  0  0  0
  -31.8240  -17.2556   21.4853 N   0  0  0  0  0  0  0  0  0  0  0  0
  -25.8065  -11.5311   20.3293 N   0  0  0  0  0  0  0  0  0  0  0  0
  -26.2062  -12.8047   20.1728 N   0  0  0  0  0  0  0  0  0  0  0  0
  -28.0482  -26.7568   19.9270 N   0  0  0  0  0  0  0  0  0  0  0  0
  -29.9458  -13.5382   20.4186 N   0  0  0  0  0  0  0  0  0  0  0  0
  -25.4722  -15.0499   20.3486 N   0  0  0  0  0  0  0  0  0  0  0  0
  -21.8292  -12.6658   21.5487 N   0  0  0  0  0  0  0  0  0  0  0  0
  -30.0730  -15.6446   21.4718 N   0  0  0  0  0  0  0  0  0  0  0  0
  -25.6130  -27.6861   22.0661 N   0  0  0  0  0  0  0  0  0  0  0  0
  -28.2115  -26.7653   16.5460 N   0  0  0  0  0  0  0  0  0  0  0  0
  -28.2977  -22.2512   24.5456 N   0  3  0  0  0  0  0  0  0  0  0  0
  -31.5046  -27.2667   15.1417 N   0  3  0  0  0  0  0  0  0  0  0  0
  -22.6438  -14.7847   21.2242 O   0  0  0  0  0  0  0  0  0  0  0  0
  -26.9322  -25.7919   22.3731 O   0  0  0  0  0  0  0  0  0  0  0  0
  -26.7477  -28.1493   18.5832 O   0  0  0  0  0  0  0  0  0  0  0  0
  -30.0592  -25.3667   16.6309 O   0  0  0  0  0  0  0  0  0  0  0  0
  -31.8570  -14.8258   20.2354 O   0  0  0  0  0  0  0  0  0  0  0  0
  -21.4638   -7.1126   21.8012 O   0  0  0  0  0  0  0  0  0  0  0  0
  -32.1333  -23.0491   22.6871 O   0  0  0  0  0  0  0  0  0  1  0  0
  -29.4664  -19.7466   23.8345 O   0  0  0  0  0  0  0  0  0  0  0  0
  -23.7841   -3.0991   24.7866 F   0  0  0  0  0  0  0  0  0  0  0  0
  -20.3660   -6.3228   24.2124 F   0  0  0  0  0  0  0  0  0  0  0  0
  1  2  1  0  0  0  0
  1  5  2  0  0  0  0
  2  6  2  0  0  0  0
  3  8  2  0  0  0  0
  3 17  1  0  0  0  0
  4  9  1  0  0  0  0
  4 17  2  0  0  0  0
  5 19  1  0  0  0  0
  6 21  1  0  0  0  0
  7 10  2  0  0  0  0
  7 20  1  0  0  0  0
  8 24  1  0  0  0  0
  9 24  2  0  0  0  0
 10 25  1  0  0  0  0
 11 12  2  0  0  0  0
 11 26  1  0  0  0  0
 12 28  1  0  0  0  0
 13 22  1  0  0  0  0
 13 25  2  0  0  0  0
 14 27  1  0  0  0  0
 14 31  2  0  0  0  0
 15 28  2  0  0  0  0
 15 29  1  0  0  0  0
 16 23  1  0  0  0  0
 16 63  2  0  0  0  0
 17 30  1  0  0  0  0
 18 30  1  0  0  0  0
 18 32  2  0  0  0  0
 18 33  1  0  0  0  0
 19 21  2  0  0  0  0
 19 38  1  0  0  0  0
 20 22  2  0  0  0  0
 20 39  1  0  0  0  0
 21 47  1  0  0  0  0
 22 40  1  0  0  0  0
 23 27  2  0  0  0  0
 23 56  1  0  0  0  0
 24 80  1  0  0  0  0
 25 81  1  0  0  0  0
 26 29  2  0  0  0  0
 26 80  1  0  0  0  0
 27 82  1  0  0  0  0
 28 83  1  0  0  0  0
 29 84  1  0  0  0  0
 30 64  2  0  0  0  0
 31 63  1  0  0  0  0
 31 70  1  0  0  0  0
 32 65  1  0  0  0  0
 32 68  1  0  0  0  0
 33 69  1  0  0  0  0
 33 75  2  0  0  0  0
 34 48  1  0  0  0  0
 34 71  1  0  0  0  0
 34 76  2  0  0  0  0
 35 60  1  0  0  0  0
 35 66  1  0  0  0  0
 35 77  2  0  0  0  0
 36 61  1  0  0  0  0
 36 72  1  0  0  0  0
 36 78  2  0  0  0  0
 37 67  1  0  0  0  0
 37 70  1  0  0  0  0
 37 79  2  0  0  0  0
 38 41  1  0  0  0  0
 39 48  1  0  0  0  0
 40 66  1  0  0  0  0
 41 43  1  0  0  0  0
 42 44  1  0  0  0  0
 42 45  1  0  0  0  0
 43 47  1  0  0  0  0
 44 49  1  0  0  0  0
 45 67  1  0  0  0  0
 46 49  1  0  0  0  0
 46 67  1  0  0  0  0
 47 71  1  0  0  0  0
 48 66  1  0  0  0  0
 49 65  1  0  0  0  0
 50 61  1  0  0  0  0
 51 62  1  0  0  0  0
 52 62  1  0  0  0  0
 53 62  1  0  0  0  0
 54 73  1  0  0  0  0
 55 74  1  0  0  0  0
 56 58  1  0  0  0  0
 57 59  1  0  0  0  0
 57 73  1  0  0  0  0
 58 81  1  0  0  0  0
 59 82  1  0  0  0  0
 60 62  1  0  0  0  0
 60 72  1  0  0  0  0
 61 74  1  0  0  0  0
 64 65  1  0  0  0  0
M  CHG  2  73   1  74   1
M  ISO  4  37 100  58 101  70 100  81 101
M  END
> <Batch ID>
0120

> <Smiles>
CNCCOc1cc([100NH:0][100C:0](=O)N2CCCC(n3nc(-c4ccc(Oc5ccc(F)cc5F)cc4)c(C(N)=O)c3N)C2)ncc1C[101CH2:1][101O:1]c1ccc2c(c1)CN(C(=O)C(NC(=O)C(C)NC)C(C)(C)C)C(C(=O)NC1CCCc3ccccc31)C2

> <Shape>
0.258

> <Color>
0.190

> <Negative vol penalty>
0.000

$$$$

  -OEChem-04052320233D

 86 94  0     1  0  0  0  0  0999 V2000
  -23.3328  -31.7923   25.7051 C   0  0  0  0  0  0  0  0  0  0  0  0
  -24.0114  -30.5961   25.4958 C   0  0  0  0  0  0  0  0  0  0  0  0
  -23.0492   -9.8795   19.9483 C   0  0  0  0  0  0  0  0  0  0  0  0
  -23.7937   -9.8981   22.2467 C   0  0  0  0  0  0  0  0  0  0  0  0
  -22.0673  -31.9808   25.1509 C   0  0  0  0  0  0  0  0  0  0  0  0
  -23.4244  -29.5870   24.7331 C   0  0  0  0  0  0  0  0  0  0  0  0
  -26.2800  -25.6581   21.0028 C   0  0  0  0  0  0  0  0  0  0  0  0
  -22.3124   -8.7214   20.1963 C   0  0  0  0  0  0  0  0  0  0  0  0
  -23.0568   -8.7400   22.4947 C   0  0  0  0  0  0  0  0  0  0  0  0
  -26.6968  -24.3385   21.1718 C   0  0  0  0  0  0  0  0  0  0  0  0
  -23.3766   -5.4189   21.9481 C   0  0  0  0  0  0  0  0  0  0  0  0
  -23.9950   -4.4002   22.6728 C   0  0  0  0  0  0  0  0  0  0  0  0
  -24.6628  -23.5686   20.1282 C   0  0  0  0  0  0  0  0  0  0  0  0
  -26.9539  -18.4868   20.0430 C   0  0  0  0  0  0  0  0  0  0  0  0
  -22.2809   -4.5653   24.3675 C   0  0  0  0  0  0  0  0  0  0  0  0
  -23.7899  -10.4679   20.9735 C   0  0  0  0  0  0  0  0  0  0  0  0
  -24.1134  -12.9952   20.8491 C   0  0  0  0  0  0  0  0  0  0  0  0
  -21.4686  -30.9772   24.3730 C   0  0  0  0  0  0  0  0  0  0  0  0
  -25.0444  -25.9431   20.4040 C   0  0  0  0  0  0  0  0  0  0  0  0
  -22.1492  -29.7617   24.1692 C   0  0  0  0  0  0  0  0  0  0  0  0
  -24.2337  -24.8928   19.9504 C   0  0  0  0  0  0  0  0  0  0  0  0
  -26.9847  -19.1823   21.2769 C   0  0  0  0  0  0  0  0  0  0  0  0
  -22.3162   -8.1517   21.4695 C   0  0  0  0  0  0  0  0  0  0  0  0
  -25.8869  -23.2934   20.7371 C   0  0  0  0  0  0  0  0  0  0  0  0
  -22.2104   -6.0110   22.4330 C   0  0  0  0  0  0  0  0  0  0  0  0
  -23.4472   -3.9733   23.8825 C   0  0  0  0  0  0  0  0  0  0  0  0
  -21.6625   -5.5841   23.6427 C   0  0  0  0  0  0  0  0  0  0  0  0
  -24.5517  -11.6639   20.7177 C   0  0  0  0  0  0  0  0  0  0  0  0
  -28.2267  -18.0181   19.8032 C   0  0  0  0  0  0  0  0  0  0  0  0
  -28.2754  -19.1177   21.7534 C   0  0  0  0  0  0  0  0  0  0  0  0
  -25.2023  -13.7520   20.4911 C   0  0  0  0  0  0  0  0  0  0  0  0
  -22.8363  -13.5025   21.2582 C   0  0  0  0  0  0  0  0  0  0  0  0
  -22.3741  -27.3863   21.3478 C   0  0  0  0  0  0  0  0  0  0  0  0
  -21.5199  -26.9797   18.2450 C   0  0  0  0  0  0  0  0  0  0  0  0
  -21.9146  -25.2405   15.3354 C   0  0  0  0  0  0  0  0  0  0  0  0
  -30.6768  -14.8130   20.7134 C   0  0  0  0  0  0  0  0  0  0  0  0
  -20.0792  -31.2085   23.8340 C   0  0  0  0  0  0  0  0  0  0  0  0
  -24.6212  -27.3727   20.2048 C   0  0  0  0  0  0  0  0  0  0  0  0
  -22.9074  -25.1460   19.2831 C   0  0  0  0  0  0  0  0  0  0  0  0
  -19.6856  -30.2346   22.7264 C   0  0  0  0  0  0  0  0  0  0  0  0
  -29.5732  -12.4138   18.3254 C   0  0  0  0  0  0  0  0  0  0  0  0
  -20.0444  -28.8052   23.1201 C   0  0  0  0  0  0  0  0  0  0  0  0
  -28.1352  -12.1104   18.7495 C   0  0  0  0  0  0  0  0  0  0  0  0
  -30.4806  -12.6447   19.5317 C   0  0  0  0  0  0  0  0  0  0  0  0
  -28.5642  -13.3649   20.9037 C   0  0  0  0  0  0  0  0  0  0  0  0
  -21.5562  -28.6530   23.3270 C   0  0  1  0  0  0  0  0  0  0  0  0
  -23.1123  -27.5327   20.0473 C   0  0  1  0  0  0  0  0  0  0  0  0
  -27.5992  -13.1799   19.7201 C   0  0  2  0  0  0  0  0  0  0  0  0
  -28.8623  -19.6712   22.9924 C   0  0  0  0  0  0  0  0  0  0  0  0
  -29.2690  -18.1122   17.5247 C   0  0  0  0  0  0  0  0  0  0  0  0
  -23.8943  -16.9395   23.6917 C   0  0  0  0  0  0  0  0  0  0  0  0
  -21.0510  -25.1153   12.9825 C   0  0  0  0  0  0  0  0  0  0  0  0
  -18.9781  -25.6255   19.2526 C   0  0  0  0  0  0  0  0  0  0  0  0
  -18.6412  -24.7012   16.9503 C   0  0  0  0  0  0  0  0  0  0  0  0
  -18.6396  -27.1691   17.3142 C   0  0  0  0  0  0  0  0  0  0  0  0
  -24.5859  -25.8200   14.2008 C   0  0  0  0  0  0  0  0  0  0  0  0
  -28.7474  -17.2327   18.6653 C   0  0  0  0  0  0  0  0  0  0  0  0
  -25.0720  -17.8230   23.3091 C   0  0  0  0  0  0  0  0  0  0  0  0
  -24.6603  -18.8913   22.2902 C   0  0  0  0  0  0  0  0  0  0  0  0
  -30.4336  -18.1142   20.9788 C   0  0  0  0  0  0  0  0  0  0  0  0
  -30.7181  -16.9672   21.9450 C   0  0  0  0  0  0  0  0  0  0  0  0
  -25.2715  -21.0211   21.0743 C   0  0  0  0  0  0  0  0  0  1  0  0
  -25.8034  -19.8711   21.9463 C   0  0  2  0  0  0  0  0  0  0  0  0
  -20.8188  -25.8958   17.4624 C   0  0  1  0  0  0  0  0  0  0  0  0
  -22.1086  -25.7043   13.9030 C   0  0  2  0  0  0  0  0  0  0  0  0
  -19.2935  -25.8427   17.7592 C   0  0  0  0  0  0  0  0  0  0  0  0
  -25.8200  -11.5765   20.3081 N   0  0  0  0  0  0  0  0  0  0  0  0
  -29.0217  -18.4079   20.8493 N   0  0  0  0  0  0  0  0  0  0  0  0
  -26.1880  -12.8626   20.1790 N   0  0  0  0  0  0  0  0  0  0  0  0
  -22.5348  -26.5606   19.1168 N   0  0  0  0  0  0  0  0  0  0  0  0
  -29.9164  -13.6713   20.4113 N   0  0  0  0  0  0  0  0  0  0  0  0
  -25.4031  -15.0848   20.4160 N   0  0  0  0  0  0  0  0  0  0  0  0
  -21.8290  -12.5865   21.5911 N   0  0  0  0  0  0  0  0  0  0  0  0
  -22.2348  -28.5673   22.0516 N   0  0  0  0  0  0  0  0  0  0  0  0
  -21.1469  -26.1276   16.0599 N   0  0  0  0  0  0  0  0  0  0  0  0
  -30.0650  -15.7395   21.5490 N   0  0  0  0  0  0  0  0  0  0  0  0
  -23.4501  -25.2915   13.4021 N   0  3  0  0  0  0  0  0  0  0  0  0
  -22.5904  -14.7314   21.3107 O   0  0  0  0  0  0  0  0  0  0  0  0
  -21.9604  -26.2838   21.6869 O   0  0  0  0  0  0  0  0  0  0  0  0
  -21.1844  -28.1557   18.0833 O   0  0  0  0  0  0  0  0  0  0  0  0
  -22.3928  -24.1939   15.7672 O   0  0  0  0  0  0  0  0  0  0  0  0
  -31.8144  -14.9959   20.2669 O   0  0  0  0  0  0  0  0  0  0  0  0
  -21.5972   -7.0217   21.7120 O   0  0  0  0  0  0  0  0  0  0  0  0
  -26.2911  -22.0044   20.9015 O   0  0  0  0  0  0  0  0  0  1  0  0
  -24.0403   -2.9939   24.5776 F   0  0  0  0  0  0  0  0  0  0  0  0
  -20.5417   -6.1482   24.1131 F   0  0  0  0  0  0  0  0  0  0  0  0
  1  2  1  0  0  0  0
  1  5  2  0  0  0  0
  2  6  2  0  0  0  0
  3  8  2  0  0  0  0
  3 16  1  0  0  0  0
  4  9  1  0  0  0  0
  4 16  2  0  0  0  0
  5 18  1  0  0  0  0
  6 20  1  0  0  0  0
  7 10  2  0  0  0  0
  7 19  1  0  0  0  0
  8 23  1  0  0  0  0
  9 23  2  0  0  0  0
 10 24  1  0  0  0  0
 11 12  2  0  0  0  0
 11 25  1  0  0  0  0
 12 26  1  0  0  0  0
 13 21  1  0  0  0  0
 13 24  2  0  0  0  0
 14 22  1  0  0  0  0
 14 29  2  0  0  0  0
 15 26  2  0  0  0  0
 15 27  1  0  0  0  0
 16 28  1  0  0  0  0
 17 28  1  0  0  0  0
 17 31  2  0  0  0  0
 17 32  1  0  0  0  0
 18 20  2  0  0  0  0
 18 37  1  0  0  0  0
 19 21  2  0  0  0  0
 19 38  1  0  0  0  0
 20 46  1  0  0  0  0
 21 39  1  0  0  0  0
 22 30  2  0  0  0  0
 22 63  1  0  0  0  0
 23 83  1  0  0  0  0
 24 84  1  0  0  0  0
 25 27  2  0  0  0  0
 25 83  1  0  0  0  0
 26 85  1  0  0  0  0
 27 86  1  0  0  0  0
 28 67  2  0  0  0  0
 29 57  1  0  0  0  0
 29 68  1  0  0  0  0
 30 49  1  0  0  0  0
 30 68  1  0  0  0  0
 31 69  1  0  0  0  0
 31 72  1  0  0  0  0
 32 73  1  0  0  0  0
 32 78  2  0  0  0  0
 33 47  1  0  0  0  0
 33 74  1  0  0  0  0
 33 79  2  0  0  0  0
 34 64  1  0  0  0  0
 34 70  1  0  0  0  0
 34 80  2  0  0  0  0
 35 65  1  0  0  0  0
 35 75  1  0  0  0  0
 35 81  2  0  0  0  0
 36 71  1  0  0  0  0
 36 76  1  0  0  0  0
 36 82  2  0  0  0  0
 37 40  1  0  0  0  0
 38 47  1  0  0  0  0
 39 70  1  0  0  0  0
 40 42  1  0  0  0  0
 41 43  1  0  0  0  0
 41 44  1  0  0  0  0
 42 46  1  0  0  0  0
 43 48  1  0  0  0  0
 44 71  1  0  0  0  0
 45 48  1  0  0  0  0
 45 71  1  0  0  0  0
 46 74  1  0  0  0  0
 47 70  1  0  0  0  0
 48 69  1  0  0  0  0
 50 57  1  0  0  0  0
 51 58  1  0  0  0  0
 52 65  1  0  0  0  0
 53 66  1  0  0  0  0
 54 66  1  0  0  0  0
 55 66  1  0  0  0  0
 56 77  1  0  0  0  0
 58 59  1  0  0  0  0
 59 63  1  0  0  0  0
 60 61  1  0  0  0  0
 60 68  1  0  0  0  0
 61 76  1  0  0  0  0
 62 63  1  0  0  0  0
 62 84  1  0  0  0  0
 64 66  1  0  0  0  0
 64 75  1  0  0  0  0
 65 77  1  0  0  0  0
 67 69  1  0  0  0  0
M  CHG  1  77   1
M  ISO  4  36 100  62 101  76 100  84 101
M  END
> <Batch ID>
0120

> <Smiles>
CCCC(c1cc(CC)n(CC[100NH:0][100C:0](=O)N2CCCC(n3nc(-c4ccc(Oc5ccc(F)cc5F)cc4)c(C(N)=O)c3N)C2)c1C)[101CH2:1][101O:1]c1ccc2c(c1)CN(C(=O)C(NC(=O)C(C)NC)C(C)(C)C)C(C(=O)NC1CCCc3ccccc31)C2

> <Shape>
0.267

> <Color>
0.202

> <Negative vol penalty>
0.000

$$$$

  -OEChem-04052320233D

 84 92  0     1  0  0  0  0  0999 V2000
  -25.6001  -22.5441   14.3840 C   0  0  0  0  0  0  0  0  0  0  0  0
  -25.7023  -22.5062   15.7709 C   0  0  0  0  0  0  0  0  0  0  0  0
  -23.0124  -10.0854   19.8662 C   0  0  0  0  0  0  0  0  0  0  0  0
  -23.9806   -9.7146   22.0484 C   0  0  0  0  0  0  0  0  0  0  0  0
  -26.3207  -23.4919   13.6586 C   0  0  0  0  0  0  0  0  0  0  0  0
  -26.5263  -23.4155   16.4332 C   0  0  0  0  0  0  0  0  0  0  0  0
  -24.3072  -25.4335   20.5134 C   0  0  0  0  0  0  0  0  0  0  0  0
  -22.2922   -8.8966   19.9837 C   0  0  0  0  0  0  0  0  0  0  0  0
  -23.2604   -8.5258   22.1659 C   0  0  0  0  0  0  0  0  0  0  0  0
  -24.2589  -24.6493   21.6652 C   0  0  0  0  0  0  0  0  0  0  0  0
  -20.0999   -7.5941   22.9165 C   0  0  0  0  0  0  0  0  0  0  0  0
  -19.4541   -7.3465   24.1278 C   0  0  0  0  0  0  0  0  0  0  0  0
  -26.1505  -25.8524   22.5563 C   0  0  0  0  0  0  0  0  0  0  0  0
  -20.7539   -5.3293   24.4084 C   0  0  0  0  0  0  0  0  0  0  0  0
  -23.8567  -10.4943   20.8985 C   0  0  0  0  0  0  0  0  0  0  0  0
  -24.1915  -13.0078   21.1780 C   0  0  0  0  0  0  0  0  0  0  0  0
  -27.1465  -24.4195   14.3131 C   0  0  0  0  0  0  0  0  0  0  0  0
  -25.2860  -26.4273   20.3695 C   0  0  0  0  0  0  0  0  0  0  0  0
  -27.2597  -24.3758   15.7158 C   0  0  0  0  0  0  0  0  0  0  0  0
  -26.2075  -26.6494   21.4028 C   0  0  0  0  0  0  0  0  0  0  0  0
  -22.4162   -8.1169   21.1336 C   0  0  0  0  0  0  0  0  0  0  0  0
  -25.1824  -24.8568   22.6856 C   0  0  0  0  0  0  0  0  0  0  0  0
  -21.0726   -6.7093   22.4511 C   0  0  0  0  0  0  0  0  0  0  0  0
  -19.7811   -6.2141   24.8738 C   0  0  0  0  0  0  0  0  0  0  0  0
  -21.3996   -5.5770   23.1971 C   0  0  0  0  0  0  0  0  0  0  0  0
  -24.6013  -11.7219   20.7774 C   0  0  0  0  0  0  0  0  0  0  0  0
  -25.2472  -13.8225   20.8490 C   0  0  0  0  0  0  0  0  0  0  0  0
  -22.9663  -13.4281   21.7926 C   0  0  0  0  0  0  0  0  0  0  0  0
  -27.6771  -26.9435   18.3398 C   0  0  0  0  0  0  0  0  0  0  0  0
  -27.9300  -29.7436   19.9579 C   0  0  0  0  0  0  0  0  0  0  0  0
  -27.3535  -31.4911   22.8320 C   0  0  0  0  0  0  0  0  0  0  0  0
  -30.7272  -14.8689   20.7060 C   0  0  0  0  0  0  0  0  0  0  0  0
  -27.9427  -25.3950   13.4829 C   0  0  0  0  0  0  0  0  0  0  0  0
  -25.3079  -27.2825   19.1324 C   0  0  0  0  0  0  0  0  0  0  0  0
  -27.2653  -27.7172   21.3060 C   0  0  0  0  0  0  0  0  0  0  0  0
  -28.5032  -26.5645   14.2882 C   0  0  0  0  0  0  0  0  0  0  0  0
  -29.3689  -12.9074   18.0633 C   0  0  0  0  0  0  0  0  0  0  0  0
  -29.1503  -26.0646   15.5759 C   0  0  0  0  0  0  0  0  0  0  0  0
  -27.9769  -12.5253   18.5695 C   0  0  0  0  0  0  0  0  0  0  0  0
  -27.9431  -20.4283   22.1365 C   0  0  0  0  0  0  0  0  0  0  0  0
  -30.3934  -12.9342   19.1954 C   0  0  0  0  0  0  0  0  0  0  0  0
  -28.6293  -13.3945   20.8537 C   0  0  0  0  0  0  0  0  0  0  0  0
  -28.6042  -19.6063   21.0430 C   0  0  0  0  0  0  0  0  0  0  0  0
  -28.6582  -18.4340   23.1887 C   0  0  0  0  0  0  0  0  0  0  0  0
  -28.1238  -25.3614   16.4722 C   0  0  1  0  0  0  0  0  0  0  0  0
  -26.6684  -27.9218   18.8720 C   0  0  1  0  0  0  0  0  0  0  0  0
  -27.4757  -19.3872   23.1430 C   0  0  1  0  0  0  0  0  0  0  0  0
  -27.5503  -13.4085   19.7574 C   0  0  2  0  0  0  0  0  0  0  0  0
  -27.7067  -33.7487   23.8692 C   0  0  0  0  0  0  0  0  0  0  0  0
  -27.0529  -18.9132   25.5849 C   0  0  0  0  0  0  0  0  0  0  0  0
  -30.8732  -29.0747   20.4054 C   0  0  0  0  0  0  0  0  0  0  0  0
  -30.9261  -30.8228   22.1969 C   0  0  0  0  0  0  0  0  0  0  0  0
  -30.4216  -31.4688   19.8409 C   0  0  0  0  0  0  0  0  0  0  0  0
  -24.4436  -31.9309   23.1457 C   0  0  0  0  0  0  0  0  0  0  0  0
  -24.2336  -22.3700   25.2137 C   0  0  0  0  0  0  0  0  0  0  0  0
  -30.9116  -16.7799   22.2786 C   0  0  0  0  0  0  0  0  0  0  0  0
  -30.5449  -18.0645   21.5592 C   0  0  0  0  0  0  0  0  0  0  0  0
  -25.5799  -21.6955   25.4297 C   0  0  0  0  0  0  0  0  0  0  0  0
  -24.1187  -23.0960   23.8789 C   0  0  0  0  0  0  0  0  0  1  0  0
  -28.6862  -30.2081   21.1791 C   0  0  1  0  0  0  0  0  0  0  0  0
  -26.7582  -32.8668   23.0722 C   0  0  2  0  0  0  0  0  0  0  0  0
  -27.1346  -19.9755   24.5005 C   0  0  2  0  0  0  0  0  0  0  0  0
  -30.2082  -30.3721   20.9069 C   0  0  0  0  0  0  0  0  0  0  0  0
  -25.8220  -11.7153   20.2353 N   0  0  0  0  0  0  0  0  0  0  0  0
  -26.1883  -13.0070   20.2927 N   0  0  0  0  0  0  0  0  0  0  0  0
  -27.2497  -28.5231   20.0740 N   0  0  0  0  0  0  0  0  0  0  0  0
  -29.9292  -13.7905   20.2895 N   0  0  0  0  0  0  0  0  0  0  0  0
  -25.4529  -15.1499   20.9840 N   0  0  0  0  0  0  0  0  0  0  0  0
  -21.9878  -12.4614   22.0616 N   0  0  0  0  0  0  0  0  0  0  0  0
  -27.3008  -26.3345   17.1579 N   0  0  0  0  0  0  0  0  0  0  0  0
  -28.0248  -31.4280   21.6293 N   0  0  0  0  0  0  0  0  0  0  0  0
  -30.2103  -15.6337   21.7446 N   0  0  0  0  0  0  0  0  0  0  0  0
  -29.0880  -18.3468   21.7391 N   0  3  2  0  0  0  0  0  0  0  0  0
  -25.4776  -32.7527   23.8258 N   0  3  0  0  0  0  0  0  0  0  0  0
  -25.8121  -20.6531   24.4026 N   0  3  0  0  0  0  0  0  0  0  0  0
  -22.7390  -14.6280   22.0792 O   0  0  0  0  0  0  0  0  0  0  0  0
  -28.7202  -26.7563   18.9551 O   0  0  0  0  0  0  0  0  0  0  0  0
  -27.9366  -30.4415   18.9408 O   0  0  0  0  0  0  0  0  0  0  0  0
  -27.2379  -30.5662   23.6330 O   0  0  0  0  0  0  0  0  0  0  0  0
  -31.8168  -15.1339   20.1870 O   0  0  0  0  0  0  0  0  0  0  0  0
  -21.7134   -6.9570   21.2487 O   0  0  0  0  0  0  0  0  0  0  0  0
  -25.1380  -24.0924   23.8106 O   0  0  0  0  0  0  0  0  0  1  0  0
  -19.1620   -5.9773   26.0377 F   0  0  0  0  0  0  0  0  0  0  0  0
  -22.3341   -4.7239   22.7556 F   0  0  0  0  0  0  0  0  0  0  0  0
  1  2  1  0  0  0  0
  1  5  2  0  0  0  0
  2  6  2  0  0  0  0
  3  8  2  0  0  0  0
  3 15  1  0  0  0  0
  4  9  1  0  0  0  0
  4 15  2  0  0  0  0
  5 17  1  0  0  0  0
  6 19  1  0  0  0  0
  7 10  2  0  0  0  0
  7 18  1  0  0  0  0
  8 21  1  0  0  0  0
  9 21  2  0  0  0  0
 10 22  1  0  0  0  0
 11 12  2  0  0  0  0
 11 23  1  0  0  0  0
 12 24  1  0  0  0  0
 13 20  1  0  0  0  0
 13 22  2  0  0  0  0
 14 24  2  0  0  0  0
 14 25  1  0  0  0  0
 15 26  1  0  0  0  0
 16 26  1  0  0  0  0
 16 27  2  0  0  0  0
 16 28  1  0  0  0  0
 17 19  2  0  0  0  0
 17 33  1  0  0  0  0
 18 20  2  0  0  0  0
 18 34  1  0  0  0  0
 19 45  1  0  0  0  0
 20 35  1  0  0  0  0
 21 81  1  0  0  0  0
 22 82  1  0  0  0  0
 23 25  2  0  0  0  0
 23 81  1  0  0  0  0
 24 83  1  0  0  0  0
 25 84  1  0  0  0  0
 26 64  2  0  0  0  0
 27 65  1  0  0  0  0
 27 68  1  0  0  0  0
 28 69  1  0  0  0  0
 28 76  2  0  0  0  0
 29 46  1  0  0  0  0
 29 70  1  0  0  0  0
 29 77  2  0  0  0  0
 30 60  1  0  0  0  0
 30 66  1  0  0  0  0
 30 78  2  0  0  0  0
 31 61  1  0  0  0  0
 31 71  1  0  0  0  0
 31 79  2  0  0  0  0
 32 67  1  0  0  0  0
 32 72  1  0  0  0  0
 32 80  2  0  0  0  0
 33 36  1  0  0  0  0
 34 46  1  0  0  0  0
 35 66  1  0  0  0  0
 36 38  1  0  0  0  0
 37 39  1  0  0  0  0
 37 41  1  0  0  0  0
 38 45  1  0  0  0  0
 39 48  1  0  0  0  0
 40 43  1  0  0  0  0
 40 47  1  0  0  0  0
 41 67  1  0  0  0  0
 42 48  1  0  0  0  0
 42 67  1  0  0  0  0
 43 73  1  0  0  0  0
 44 47  1  0  0  0  0
 44 73  1  0  0  0  0
 45 70  1  0  0  0  0
 46 66  1  0  0  0  0
 47 62  1  0  0  0  0
 48 65  1  0  0  0  0
 49 61  1  0  0  0  0
 50 62  1  0  0  0  0
 51 63  1  0  0  0  0
 52 63  1  0  0  0  0
 53 63  1  0  0  0  0
 54 74  1  0  0  0  0
 55 58  1  0  0  0  0
 55 59  1  0  0  0  0
 56 57  1  0  0  0  0
 56 72  1  0  0  0  0
 57 73  1  0  0  0  0
 58 75  1  0  0  0  0
 59 82  1  0  0  0  0
 60 63  1  0  0  0  0
 60 71  1  0  0  0  0
 61 74  1  0  0  0  0
 62 75  1  0  0  0  0
 64 65  1  0  0  0  0
M  CHG  3  73   1  74   1  75   1
M  ISO  4  32 100  59 101  72 100  82 101
M  END
> <Batch ID>
0120

> <Smiles>
CNC(C)C(=O)NC(C(=O)N1Cc2cc([101O:1][101CH2:1]CCNC(C)C3CCN(CC[100NH:0][100C:0](=O)N4CCCC(n5nc(-c6ccc(Oc7ccc(F)cc7F)cc6)c(C(N)=O)c5N)C4)C3)ccc2CC1C(=O)NC1CCCc2ccccc21)C(C)(C)C

> <Shape>
0.268

> <Color>
0.181

> <Negative vol penalty>
0.000

$$$$

  -OEChem-04052320233D

 89 97  0     1  0  0  0  0  0999 V2000
  -27.6405  -30.3807   12.2908 C   0  0  0  0  0  0  0  0  0  0  0  0
  -26.4987  -29.8807   12.9088 C   0  0  0  0  0  0  0  0  0  0  0  0
  -26.5089  -12.7517   21.6806 C   0  0  0  0  0  0  0  0  0  0  0  0
  -25.9482  -13.8985   19.6294 C   0  0  0  0  0  0  0  0  0  0  0  0
  -28.9019  -30.0099   12.7547 C   0  0  0  0  0  0  0  0  0  0  0  0
  -26.6179  -29.0087   13.9904 C   0  0  0  0  0  0  0  0  0  0  0  0
  -23.3401  -27.2141   20.1020 C   0  0  0  0  0  0  0  0  0  0  0  0
  -25.2575  -12.1356   21.6784 C   0  0  0  0  0  0  0  0  0  0  0  0
  -24.6967  -13.2824   19.6271 C   0  0  0  0  0  0  0  0  0  0  0  0
  -22.8508  -26.0943   20.7732 C   0  0  0  0  0  0  0  0  0  0  0  0
  -23.7611   -9.5411   20.1092 C   0  0  0  0  0  0  0  0  0  0  0  0
  -23.7106   -8.1750   20.3861 C   0  0  0  0  0  0  0  0  0  0  0  0
  -22.5411  -20.7399   19.0210 C   0  0  0  0  0  0  0  0  0  0  0  0
  -25.0812  -25.5858   21.5385 C   0  0  0  0  0  0  0  0  0  0  0  0
  -22.2973   -8.6143   22.2957 C   0  0  0  0  0  0  0  0  0  0  0  0
  -22.9667  -20.9760   17.7324 C   0  0  0  0  0  0  0  0  0  0  0  0
  -26.8543  -13.6331   20.6562 C   0  0  0  0  0  0  0  0  0  0  0  0
  -29.3312  -13.7919   20.0668 C   0  0  0  0  0  0  0  0  0  0  0  0
  -29.0366  -29.1405   13.8486 C   0  0  0  0  0  0  0  0  0  0  0  0
  -24.7077  -27.5225   20.1351 C   0  0  0  0  0  0  0  0  0  0  0  0
  -27.8823  -28.6249   14.4685 C   0  0  0  0  0  0  0  0  0  0  0  0
  -25.5850  -26.7114   20.8690 C   0  0  0  0  0  0  0  0  0  0  0  0
  -23.4766  -21.3485   19.8937 C   0  0  0  0  0  0  0  0  0  0  0  0
  -24.3514  -12.4010   20.6516 C   0  0  0  0  0  0  0  0  0  0  0  0
  -23.7218  -25.2784   21.4892 C   0  0  0  0  0  0  0  0  0  0  0  0
  -23.0798  -10.4439   20.9256 C   0  0  0  0  0  0  0  0  0  0  0  0
  -22.9787   -7.7115   21.4793 C   0  0  0  0  0  0  0  0  0  0  0  0
  -22.3478   -9.9804   22.0188 C   0  0  0  0  0  0  0  0  0  0  0  0
  -28.1466  -14.2703   20.6583 C   0  0  0  0  0  0  0  0  0  0  0  0
  -24.4452  -21.9382   19.1118 C   0  0  0  0  0  0  0  0  0  0  0  0
  -30.2687  -14.7554   20.3481 C   0  0  0  0  0  0  0  0  0  0  0  0
  -29.5632  -12.5847   19.3289 C   0  0  0  0  0  0  0  0  0  0  0  0
  -27.0065  -27.7622   17.9530 C   0  0  0  0  0  0  0  0  0  0  0  0
  -28.7531  -28.8176   20.4744 C   0  0  0  0  0  0  0  0  0  0  0  0
  -29.2106  -28.8871   23.8557 C   0  0  0  0  0  0  0  0  0  0  0  0
  -29.8677  -20.6073   21.5502 C   0  0  0  0  0  0  0  0  0  0  0  0
  -30.4212  -28.7311   14.2843 C   0  0  0  0  0  0  0  0  0  0  0  0
  -25.2157  -28.7489   19.4279 C   0  0  0  0  0  0  0  0  0  0  0  0
  -27.0588  -27.0104   20.9527 C   0  0  0  0  0  0  0  0  0  0  0  0
  -30.4604  -28.0978   15.6728 C   0  0  0  0  0  0  0  0  0  0  0  0
  -31.3445  -18.0973   23.5985 C   0  0  0  0  0  0  0  0  0  0  0  0
  -29.3553  -27.0563   15.8159 C   0  0  0  0  0  0  0  0  0  0  0  0
  -30.7993  -16.7887   23.0239 C   0  0  0  0  0  0  0  0  0  0  0  0
  -30.3022  -19.2123   23.5507 C   0  0  0  0  0  0  0  0  0  0  0  0
  -29.1628  -18.1395   21.6468 C   0  0  0  0  0  0  0  0  0  0  0  0
  -27.9705  -27.6962   15.6601 C   0  0  1  0  0  0  0  0  0  0  0  0
  -26.7050  -28.6786   19.1049 C   0  0  1  0  0  0  0  0  0  0  0  0
  -30.1961  -17.0001   21.6222 C   0  0  2  0  0  0  0  0  0  0  0  0
  -24.8100  -17.7741   22.1983 C   0  0  0  0  0  0  0  0  0  0  0  0
  -30.7462  -29.8013   25.6174 C   0  0  0  0  0  0  0  0  0  0  0  0
  -24.0783  -23.1228   15.7804 C   0  0  0  0  0  0  0  0  0  0  0  0
  -25.4249  -20.9803   15.8320 C   0  0  0  0  0  0  0  0  0  0  0  0
  -30.8232  -26.6894   19.7709 C   0  0  0  0  0  0  0  0  0  0  0  0
  -31.8172  -27.0032   22.0473 C   0  0  0  0  0  0  0  0  0  0  0  0
  -31.7844  -28.9021   20.4299 C   0  0  0  0  0  0  0  0  0  0  0  0
  -27.0318  -30.4500   25.1084 C   0  0  0  0  0  0  0  0  0  0  0  0
  -25.6489  -22.7037   19.5004 C   0  0  0  0  0  0  0  0  0  0  0  0
  -24.7819  -19.1789   21.6154 C   0  0  0  0  0  0  0  0  0  0  0  0
  -23.4936  -19.9161   21.9977 C   0  0  0  0  0  0  0  0  0  0  0  0
  -22.1507  -22.0586   21.9416 C   0  0  0  0  0  0  0  0  0  0  0  0
  -29.3761  -21.8708   19.4715 C   0  0  0  0  0  0  0  0  0  0  0  0
  -28.1401  -22.7260   19.6794 C   0  0  0  0  0  0  0  0  0  0  0  0
  -22.0988  -23.5430   21.5908 C   0  0  0  0  0  0  0  0  0  1  0  0
  -23.4152  -21.3464   21.4131 C   0  0  2  0  0  0  0  0  0  0  0  0
  -29.6254  -28.1643   21.5190 C   0  0  1  0  0  0  0  0  0  0  0  0
  -29.4770  -30.0349   24.8127 C   0  0  2  0  0  0  0  0  0  0  0  0
  -24.8802  -22.1526   16.6502 C   0  0  0  0  0  0  0  0  0  0  0  0
  -30.9851  -27.6828   20.9388 C   0  0  0  0  0  0  0  0  0  0  0  0
  -28.3138  -15.4461   21.2694 N   0  0  0  0  0  0  0  0  0  0  0  0
  -24.1248  -21.7056   17.7998 N   0  0  0  0  0  0  0  0  0  0  0  0
  -29.6144  -15.7147   21.0634 N   0  0  0  0  0  0  0  0  0  0  0  0
  -27.5081  -28.2172   20.2391 N   0  0  0  0  0  0  0  0  0  0  0  0
  -29.7709  -19.3625   22.1938 N   0  0  0  0  0  0  0  0  0  0  0  0
  -31.5809  -14.8671   20.0510 N   0  0  0  0  0  0  0  0  0  0  0  0
  -28.4898  -11.7054   19.1317 N   0  0  0  0  0  0  0  0  0  0  0  0
  -27.5956  -28.3913   16.8728 N   0  0  0  0  0  0  0  0  0  0  0  0
  -29.7479  -29.1267   22.6086 N   0  0  0  0  0  0  0  0  0  0  0  0
  -29.3451  -20.6617   20.2639 N   0  0  0  0  0  0  0  0  0  0  0  0
  -28.3400  -30.1913   25.7633 N   0  3  0  0  0  0  0  0  0  0  0  0
  -26.9252  -21.9424   19.3445 N   0  3  0  0  0  0  0  0  0  0  0  0
  -30.6929  -12.2864   18.8726 O   0  0  0  0  0  0  0  0  0  0  0  0
  -26.7268  -26.5722   18.0383 O   0  0  0  0  0  0  0  0  0  0  0  0
  -29.1583  -29.8278   19.8939 O   0  0  0  0  0  0  0  0  0  0  0  0
  -28.5912  -27.8772   24.1828 O   0  0  0  0  0  0  0  0  0  0  0  0
  -30.3864  -21.5956   22.0806 O   0  0  0  0  0  0  0  0  0  0  0  0
  -23.1303  -11.7998   20.6490 O   0  0  0  0  0  0  0  0  0  0  0  0
  -23.2469  -24.1845   22.1447 O   0  0  0  0  0  0  0  0  0  1  0  0
  -22.9290   -6.3995   21.7442 F   0  0  0  0  0  0  0  0  0  0  0  0
  -21.6902  -10.8428   22.8061 F   0  0  0  0  0  0  0  0  0  0  0  0
  1  2  1  0  0  0  0
  1  5  2  0  0  0  0
  2  6  2  0  0  0  0
  3  8  2  0  0  0  0
  3 17  1  0  0  0  0
  4  9  1  0  0  0  0
  4 17  2  0  0  0  0
  5 19  1  0  0  0  0
  6 21  1  0  0  0  0
  7 10  2  0  0  0  0
  7 20  1  0  0  0  0
  8 24  1  0  0  0  0
  9 24  2  0  0  0  0
 10 25  1  0  0  0  0
 11 12  2  0  0  0  0
 11 26  1  0  0  0  0
 12 27  1  0  0  0  0
 13 16  2  0  0  0  0
 13 23  1  0  0  0  0
 14 22  1  0  0  0  0
 14 25  2  0  0  0  0
 15 27  2  0  0  0  0
 15 28  1  0  0  0  0
 16 70  1  0  0  0  0
 17 29  1  0  0  0  0
 18 29  1  0  0  0  0
 18 31  2  0  0  0  0
 18 32  1  0  0  0  0
 19 21  2  0  0  0  0
 19 37  1  0  0  0  0
 20 22  2  0  0  0  0
 20 38  1  0  0  0  0
 21 46  1  0  0  0  0
 22 39  1  0  0  0  0
 23 30  2  0  0  0  0
 23 64  1  0  0  0  0
 24 86  1  0  0  0  0
 25 87  1  0  0  0  0
 26 28  2  0  0  0  0
 26 86  1  0  0  0  0
 27 88  1  0  0  0  0
 28 89  1  0  0  0  0
 29 69  2  0  0  0  0
 30 57  1  0  0  0  0
 30 70  1  0  0  0  0
 31 71  1  0  0  0  0
 31 74  1  0  0  0  0
 32 75  1  0  0  0  0
 32 81  2  0  0  0  0
 33 47  1  0  0  0  0
 33 76  1  0  0  0  0
 33 82  2  0  0  0  0
 34 65  1  0  0  0  0
 34 72  1  0  0  0  0
 34 83  2  0  0  0  0
 35 66  1  0  0  0  0
 35 77  1  0  0  0  0
 35 84  2  0  0  0  0
 36 73  1  0  0  0  0
 36 78  1  0  0  0  0
 36 85  2  0  0  0  0
 37 40  1  0  0  0  0
 38 47  1  0  0  0  0
 39 72  1  0  0  0  0
 40 42  1  0  0  0  0
 41 43  1  0  0  0  0
 41 44  1  0  0  0  0
 42 46  1  0  0  0  0
 43 48  1  0  0  0  0
 44 73  1  0  0  0  0
 45 48  1  0  0  0  0
 45 73  1  0  0  0  0
 46 76  1  0  0  0  0
 47 72  1  0  0  0  0
 48 71  1  0  0  0  0
 49 58  1  0  0  0  0
 50 66  1  0  0  0  0
 51 67  1  0  0  0  0
 52 67  1  0  0  0  0
 53 68  1  0  0  0  0
 54 68  1  0  0  0  0
 55 68  1  0  0  0  0
 56 79  1  0  0  0  0
 57 80  1  0  0  0  0
 58 59  1  0  0  0  0
 59 64  1  0  0  0  0
 60 63  1  0  0  0  0
 60 64  1  0  0  0  0
 61 62  1  0  0  0  0
 61 78  1  0  0  0  0
 62 80  1  0  0  0  0
 63 87  1  0  0  0  0
 65 68  1  0  0  0  0
 65 77  1  0  0  0  0
 66 79  1  0  0  0  0
 67 70  1  0  0  0  0
 69 71  1  0  0  0  0
M  CHG  2  79   1  80   1
M  ISO  4  36 100  63 101  78 100  87 101
M  END
> <Batch ID>
0120

> <Smiles>
CCCC(C[101CH2:1][101O:1]c1ccc2c(c1)CN(C(=O)C(NC(=O)C(C)NC)C(C)(C)C)C(C(=O)NC1CCCc3ccccc31)C2)c1ccn(C(C)C)c1CNCC[100NH:0][100C:0](=O)N1CCCC(n2nc(-c3ccc(Oc4ccc(F)cc4F)cc3)c(C(N)=O)c2N)C1

> <Shape>
0.216

> <Color>
0.063

> <Negative vol penalty>
0.000

$$$$

  -OEChem-04052320233D

 83 91  0     1  0  0  0  0  0999 V2000
  -29.4427  -23.7499   17.9978 C   0  0  0  0  0  0  0  0  0  0  0  0
  -28.2346  -23.8810   18.6751 C   0  0  0  0  0  0  0  0  0  0  0  0
  -26.1501  -13.4451   19.7458 C   0  0  0  0  0  0  0  0  0  0  0  0
  -24.0611  -13.5805   20.9520 C   0  0  0  0  0  0  0  0  0  0  0  0
  -30.5450  -24.5096   18.3873 C   0  0  0  0  0  0  0  0  0  0  0  0
  -28.1284  -24.7712   19.7431 C   0  0  0  0  0  0  0  0  0  0  0  0
  -23.8893  -27.5351   19.5541 C   0  0  0  0  0  0  0  0  0  0  0  0
  -26.2945  -12.1165   20.1450 C   0  0  0  0  0  0  0  0  0  0  0  0
  -24.2055  -12.2517   21.3511 C   0  0  0  0  0  0  0  0  0  0  0  0
  -22.7077  -26.9172   19.9610 C   0  0  0  0  0  0  0  0  0  0  0  0
  -23.7464   -9.1851   20.0074 C   0  0  0  0  0  0  0  0  0  0  0  0
  -22.6283   -8.3566   19.9130 C   0  0  0  0  0  0  0  0  0  0  0  0
  -22.8830  -28.0078   22.1056 C   0  0  0  0  0  0  0  0  0  0  0  0
  -22.7236   -7.9571   22.2939 C   0  0  0  0  0  0  0  0  0  0  0  0
  -25.0334  -14.1772   20.1494 C   0  0  0  0  0  0  0  0  0  0  0  0
  -24.2443  -16.0246   18.5772 C   0  0  0  0  0  0  0  0  0  0  0  0
  -30.4495  -25.4167   19.4544 C   0  0  0  0  0  0  0  0  0  0  0  0
  -24.5837  -28.3869   20.4251 C   0  0  0  0  0  0  0  0  0  0  0  0
  -29.2308  -25.5429   20.1481 C   0  0  0  0  0  0  0  0  0  0  0  0
  -24.0719  -28.6374   21.7063 C   0  0  0  0  0  0  0  0  0  0  0  0
  -25.3222  -11.5197   20.9476 C   0  0  0  0  0  0  0  0  0  0  0  0
  -22.2059  -27.1512   21.2379 C   0  0  0  0  0  0  0  0  0  0  0  0
  -24.3532   -9.3996   21.2449 C   0  0  0  0  0  0  0  0  0  0  0  0
  -22.1169   -7.7425   21.0563 C   0  0  0  0  0  0  0  0  0  0  0  0
  -23.8417   -8.7856   22.3882 C   0  0  0  0  0  0  0  0  0  0  0  0
  -24.8840  -15.5499   19.7379 C   0  0  0  0  0  0  0  0  0  0  0  0
  -24.3729  -17.3902   18.6484 C   0  0  0  0  0  0  0  0  0  0  0  0
  -23.5921  -15.2963   17.5285 C   0  0  0  0  0  0  0  0  0  0  0  0
  -27.4708  -28.3667   21.7547 C   0  0  0  0  0  0  0  0  0  0  0  0
  -26.5836  -31.3073   22.7979 C   0  0  0  0  0  0  0  0  0  0  0  0
  -24.0563  -33.4659   23.5727 C   0  0  0  0  0  0  0  0  0  0  0  0
  -25.1192  -21.1825   23.2214 C   0  0  0  0  0  0  0  0  0  0  0  0
  -31.6813  -26.1817   19.8692 C   0  0  0  0  0  0  0  0  0  0  0  0
  -25.8428  -29.0668   19.9615 C   0  0  0  0  0  0  0  0  0  0  0  0
  -24.7686  -29.5593   22.6723 C   0  0  0  0  0  0  0  0  0  0  0  0
  -31.3815  -27.3762   20.7713 C   0  0  0  0  0  0  0  0  0  0  0  0
  -27.2464  -20.7948   20.3928 C   0  0  0  0  0  0  0  0  0  0  0  0
  -18.8612  -21.9016   23.6705 C   0  0  0  0  0  0  0  0  0  0  0  0
  -30.4102  -26.9786   21.8782 C   0  0  0  0  0  0  0  0  0  0  0  0
  -18.4293  -22.4553   22.3184 C   0  0  0  0  0  0  0  0  0  0  0  0
  -26.8244  -19.4494   19.7994 C   0  0  0  0  0  0  0  0  0  0  0  0
  -27.1877  -20.7819   21.9187 C   0  0  0  0  0  0  0  0  0  0  0  0
  -25.4714  -19.0135   21.8918 C   0  0  0  0  0  0  0  0  0  0  0  0
  -19.9937  -20.9003   23.5273 C   0  0  0  0  0  0  0  0  0  0  0  0
  -29.0693  -26.5160   21.2957 C   0  0  1  0  0  0  0  0  0  0  0  0
  -26.7400  -29.5117   21.1123 C   0  0  1  0  0  0  0  0  0  0  0  0
  -19.5932  -23.0756   21.5350 C   0  0  2  0  0  0  0  0  0  0  0  0
  -25.4607  -18.9952   20.3537 C   0  0  2  0  0  0  0  0  0  0  0  0
  -20.8213  -22.1430   21.4523 C   0  0  2  0  0  0  0  0  0  0  0  0
  -20.4147  -21.5685   19.0518 C   0  0  0  0  0  0  0  0  0  0  0  0
  -23.6421  -35.7855   24.4359 C   0  0  0  0  0  0  0  0  0  0  0  0
  -27.2809  -30.3791   25.6196 C   0  0  0  0  0  0  0  0  0  0  0  0
  -25.9832  -32.3280   26.5063 C   0  0  0  0  0  0  0  0  0  0  0  0
  -27.9952  -32.7151   25.0834 C   0  0  0  0  0  0  0  0  0  0  0  0
  -22.6523  -34.2632   21.0924 C   0  0  0  0  0  0  0  0  0  0  0  0
  -19.9377  -24.4698   22.0704 C   0  0  0  0  0  0  0  0  0  0  0  0
  -20.6156  -21.0223   20.4255 C   0  0  0  0  0  0  0  0  0  0  0  0
  -22.9880  -21.4440   24.4659 C   0  0  0  0  0  0  0  0  0  0  0  0
  -22.0498  -22.3410   23.6800 C   0  0  0  0  0  0  0  0  0  0  0  0
  -20.7563  -25.2732   21.0713 C   0  0  0  0  0  0  0  0  0  1  0  0
  -25.8752  -31.8392   24.0202 C   0  0  1  0  0  0  0  0  0  0  0  0
  -23.8225  -34.9186   23.1995 C   0  0  2  0  0  0  0  0  0  0  0  0
  -26.7713  -31.7964   25.2901 C   0  0  0  0  0  0  0  0  0  0  0  0
  -25.3821  -16.5340   20.4912 N   0  0  0  0  0  0  0  0  0  0  0  0
  -25.0555  -17.6407   19.8023 N   0  0  0  0  0  0  0  0  0  0  0  0
  -25.9995  -30.1954   22.1746 N   0  0  0  0  0  0  0  0  0  0  0  0
  -25.8680  -20.3438   22.3794 N   0  0  0  0  0  0  0  0  0  0  0  0
  -23.9676  -18.3892   17.8358 N   0  0  0  0  0  0  0  0  0  0  0  0
  -23.5506  -13.8978   17.6120 N   0  0  0  0  0  0  0  0  0  0  0  0
  -28.2762  -27.6552   20.8860 N   0  0  0  0  0  0  0  0  0  0  0  0
  -25.4003  -33.1731   23.6687 N   0  0  0  0  0  0  0  0  0  0  0  0
  -23.8767  -20.6940   23.6065 N   0  0  0  0  0  0  0  0  0  0  0  0
  -21.1671  -21.5026   22.7928 N   0  3  1  0  0  0  0  0  0  0  0  0
  -22.6020  -35.0462   22.3539 N   0  3  0  0  0  0  0  0  0  0  0  0
  -23.0761  -15.8677   16.5381 O   0  0  0  0  0  0  0  0  0  0  0  0
  -27.3166  -28.1461   22.9502 O   0  0  0  0  0  0  0  0  0  0  0  0
  -27.6131  -31.8624   22.4061 O   0  0  0  0  0  0  0  0  0  0  0  0
  -23.1384  -32.6712   23.7639 O   0  0  0  0  0  0  0  0  0  0  0  0
  -25.5254  -22.2873   23.5975 O   0  0  0  0  0  0  0  0  0  0  0  0
  -25.4627  -10.2231   21.3370 O   0  0  0  0  0  0  0  0  0  0  0  0
  -21.0530  -26.5489   21.6379 O   0  0  0  0  0  0  0  0  0  1  0  0
  -21.0422   -6.9481   20.9658 F   0  0  0  0  0  0  0  0  0  0  0  0
  -24.4196   -8.9889   23.5801 F   0  0  0  0  0  0  0  0  0  0  0  0
  1  2  1  0  0  0  0
  1  5  2  0  0  0  0
  2  6  2  0  0  0  0
  3  8  2  0  0  0  0
  3 15  1  0  0  0  0
  4  9  1  0  0  0  0
  4 15  2  0  0  0  0
  5 17  1  0  0  0  0
  6 19  1  0  0  0  0
  7 10  2  0  0  0  0
  7 18  1  0  0  0  0
  8 21  1  0  0  0  0
  9 21  2  0  0  0  0
 10 22  1  0  0  0  0
 11 12  2  0  0  0  0
 11 23  1  0  0  0  0
 12 24  1  0  0  0  0
 13 20  1  0  0  0  0
 13 22  2  0  0  0  0
 14 24  2  0  0  0  0
 14 25  1  0  0  0  0
 15 26  1  0  0  0  0
 16 26  1  0  0  0  0
 16 27  2  0  0  0  0
 16 28  1  0  0  0  0
 17 19  2  0  0  0  0
 17 33  1  0  0  0  0
 18 20  2  0  0  0  0
 18 34  1  0  0  0  0
 19 45  1  0  0  0  0
 20 35  1  0  0  0  0
 21 80  1  0  0  0  0
 22 81  1  0  0  0  0
 23 25  2  0  0  0  0
 23 80  1  0  0  0  0
 24 82  1  0  0  0  0
 25 83  1  0  0  0  0
 26 64  2  0  0  0  0
 27 65  1  0  0  0  0
 27 68  1  0  0  0  0
 28 69  1  0  0  0  0
 28 75  2  0  0  0  0
 29 46  1  0  0  0  0
 29 70  1  0  0  0  0
 29 76  2  0  0  0  0
 30 61  1  0  0  0  0
 30 66  1  0  0  0  0
 30 77  2  0  0  0  0
 31 62  1  0  0  0  0
 31 71  1  0  0  0  0
 31 78  2  0  0  0  0
 32 67  1  0  0  0  0
 32 72  1  0  0  0  0
 32 79  2  0  0  0  0
 33 36  1  0  0  0  0
 34 46  1  0  0  0  0
 35 66  1  0  0  0  0
 36 39  1  0  0  0  0
 37 41  1  0  0  0  0
 37 42  1  0  0  0  0
 38 40  1  0  0  0  0
 38 44  1  0  0  0  0
 39 45  1  0  0  0  0
 40 47  1  0  0  0  0
 41 48  1  0  0  0  0
 42 67  1  0  0  0  0
 43 48  1  0  0  0  0
 43 67  1  0  0  0  0
 44 73  1  0  0  0  0
 45 70  1  0  0  0  0
 46 66  1  0  0  0  0
 47 49  1  0  0  0  0
 47 56  1  0  0  0  0
 48 65  1  0  0  0  0
 49 57  1  0  0  0  0
 49 73  1  0  0  0  0
 50 57  1  0  0  0  0
 51 62  1  0  0  0  0
 52 63  1  0  0  0  0
 53 63  1  0  0  0  0
 54 63  1  0  0  0  0
 55 74  1  0  0  0  0
 56 60  1  0  0  0  0
 58 59  1  0  0  0  0
 58 72  1  0  0  0  0
 59 73  1  0  0  0  0
 60 81  1  0  0  0  0
 61 63  1  0  0  0  0
 61 71  1  0  0  0  0
 62 74  1  0  0  0  0
 64 65  1  0  0  0  0
M  CHG  2  73   1  74   1
M  ISO  4  32 100  60 101  72 100  81 101
M  END
> <Batch ID>
0120

> <Smiles>
CCC1C(C[101CH2:1][101O:1]c2ccc3c(c2)CN(C(=O)C(NC(=O)C(C)NC)C(C)(C)C)C(C(=O)NC2CCCc4ccccc42)C3)CCCN1CC[100NH:0][100C:0](=O)N1CCCC(n2nc(-c3ccc(Oc4ccc(F)cc4F)cc3)c(C(N)=O)c2N)C1

> <Shape>
0.263

> <Color>
0.074

> <Negative vol penalty>
0.000

$$$$

  -OEChem-04052320233D

 86 94  0     1  0  0  0  0  0999 V2000
  -34.7787  -26.4716   29.7310 C   0  0  0  0  0  0  0  0  0  0  0  0
  -34.3940  -25.7841   28.5844 C   0  0  0  0  0  0  0  0  0  0  0  0
  -23.0072   -9.8834   19.9849 C   0  0  0  0  0  0  0  0  0  0  0  0
  -23.7328   -9.9470   22.2885 C   0  0  0  0  0  0  0  0  0  0  0  0
  -33.8236  -27.1425   30.4936 C   0  0  0  0  0  0  0  0  0  0  0  0
  -33.0537  -25.7663   28.2003 C   0  0  0  0  0  0  0  0  0  0  0  0
  -30.8631  -25.7398   22.4813 C   0  0  0  0  0  0  0  0  0  0  0  0
  -22.2447   -8.7474   20.2564 C   0  0  0  0  0  0  0  0  0  0  0  0
  -22.9703   -8.8110   22.5601 C   0  0  0  0  0  0  0  0  0  0  0  0
  -30.3974  -24.7139   21.6600 C   0  0  0  0  0  0  0  0  0  0  0  0
  -23.2261   -5.4709   22.1027 C   0  0  0  0  0  0  0  0  0  0  0  0
  -23.8174   -4.4591   22.8591 C   0  0  0  0  0  0  0  0  0  0  0  0
  -28.1345  -25.2125   22.3305 C   0  0  0  0  0  0  0  0  0  0  0  0
  -27.9576  -19.0974   22.9800 C   0  0  0  0  0  0  0  0  0  0  0  0
  -22.0931   -4.7033   24.5337 C   0  0  0  0  0  0  0  0  0  0  0  0
  -30.3258  -18.1468   23.9463 C   0  0  0  0  0  0  0  0  0  0  0  0
  -23.7513  -10.4832   21.0010 C   0  0  0  0  0  0  0  0  0  0  0  0
  -24.1278  -12.9993   20.8138 C   0  0  0  0  0  0  0  0  0  0  0  0
  -32.4723  -27.1410   30.1133 C   0  0  0  0  0  0  0  0  0  0  0  0
  -29.9674  -26.5039   23.2430 C   0  0  0  0  0  0  0  0  0  0  0  0
  -32.0794  -26.4367   28.9592 C   0  0  0  0  0  0  0  0  0  0  0  0
  -28.5911  -26.2492   23.1587 C   0  0  0  0  0  0  0  0  0  0  0  0
  -29.9378  -17.7677   22.6713 C   0  0  0  0  0  0  0  0  0  0  0  0
  -28.7298  -18.2564   22.1864 C   0  0  0  0  0  0  0  0  0  0  0  0
  -22.2262   -8.2112   21.5440 C   0  0  0  0  0  0  0  0  0  0  0  0
  -29.0332  -24.4483   21.5867 C   0  0  0  0  0  0  0  0  0  0  0  0
  -22.0683   -6.0990   22.5618 C   0  0  0  0  0  0  0  0  0  0  0  0
  -23.2509   -4.0752   24.0746 C   0  0  0  0  0  0  0  0  0  0  0  0
  -21.5019   -5.7152   23.7773 C   0  0  0  0  0  0  0  0  0  0  0  0
  -24.5396  -11.6563   20.7210 C   0  0  0  0  0  0  0  0  0  0  0  0
  -28.4342  -19.4167   24.2413 C   0  0  0  0  0  0  0  0  0  0  0  0
  -25.2350  -13.7241   20.4459 C   0  0  0  0  0  0  0  0  0  0  0  0
  -22.8581  -13.5430   21.1983 C   0  0  0  0  0  0  0  0  0  0  0  0
  -29.5243  -27.0029   26.3508 C   0  0  0  0  0  0  0  0  0  0  0  0
  -28.5930  -18.6376   19.8732 C   0  0  0  0  0  0  0  0  0  0  0  0
  -27.3520  -29.1688   25.2961 C   0  0  0  0  0  0  0  0  0  0  0  0
  -25.2607  -30.1963   22.8026 C   0  0  0  0  0  0  0  0  0  0  0  0
  -30.7281  -14.6789   20.6888 C   0  0  0  0  0  0  0  0  0  0  0  0
  -31.4691  -27.8411   30.9954 C   0  0  0  0  0  0  0  0  0  0  0  0
  -30.4834  -27.6244   24.1036 C   0  0  0  0  0  0  0  0  0  0  0  0
  -27.5864  -27.0538   23.9407 C   0  0  0  0  0  0  0  0  0  0  0  0
  -30.1253  -28.0863   30.3139 C   0  0  0  0  0  0  0  0  0  0  0  0
  -29.5952  -12.2411   18.3543 C   0  0  0  0  0  0  0  0  0  0  0  0
  -29.6528  -26.8259   29.5964 C   0  0  0  0  0  0  0  0  0  0  0  0
  -28.1478  -11.9781   18.7734 C   0  0  0  0  0  0  0  0  0  0  0  0
  -30.4972  -12.4849   19.5622 C   0  0  0  0  0  0  0  0  0  0  0  0
  -28.5846  -13.2796   20.8981 C   0  0  0  0  0  0  0  0  0  0  0  0
  -30.6388  -26.4149   28.4962 C   0  0  1  0  0  0  0  0  0  0  0  0
  -29.5258  -28.0028   25.2293 C   0  0  1  0  0  0  0  0  0  0  0  0
  -27.6260  -13.0834   19.7112 C   0  0  2  0  0  0  0  0  0  0  0  0
  -27.6317  -20.3170   25.1203 C   0  0  0  0  0  0  0  0  0  0  0  0
  -29.1813  -17.4939   17.7252 C   0  0  0  0  0  0  0  0  0  0  0  0
  -23.5851  -31.9797   22.2467 C   0  0  0  0  0  0  0  0  0  0  0  0
  -25.2982  -27.7935   27.0852 C   0  0  0  0  0  0  0  0  0  0  0  0
  -23.4973  -28.9664   25.8011 C   0  0  0  0  0  0  0  0  0  0  0  0
  -25.1757  -30.2914   27.0856 C   0  0  0  0  0  0  0  0  0  0  0  0
  -26.8662  -31.1520   20.5074 C   0  0  0  0  0  0  0  0  0  0  0  0
  -30.8036  -16.8633   21.8644 C   0  0  0  0  0  0  0  0  0  0  0  0
  -28.1696  -18.3755   18.4357 C   0  0  0  0  0  0  0  0  0  0  0  0
  -29.4673  -19.8548   20.1277 C   0  0  0  0  0  0  0  0  0  0  0  0
  -28.6008  -21.0845   20.3712 C   0  0  0  0  0  0  0  0  0  0  0  0
  -29.4440  -22.3336   20.5791 C   0  0  0  0  0  0  0  0  0  1  0  0
  -25.8821  -29.1293   24.9543 C   0  0  1  0  0  0  0  0  0  0  0  0
  -25.0439  -31.5576   22.1667 C   0  0  2  0  0  0  0  0  0  0  0  0
  -24.9822  -29.0285   26.2182 C   0  0  0  0  0  0  0  0  0  0  0  0
  -29.6026  -18.9616   24.7467 N   0  0  0  0  0  0  0  0  0  0  0  0
  -25.8092  -11.5325   20.3250 N   0  0  0  0  0  0  0  0  0  0  0  0
  -28.2772  -17.9120   20.9048 N   0  0  0  0  0  0  0  0  0  0  0  0
  -26.2047  -12.8070   20.1657 N   0  0  0  0  0  0  0  0  0  0  0  0
  -28.1407  -28.1345   24.7727 N   0  0  0  0  0  0  0  0  0  0  0  0
  -29.9469  -13.5454   20.4098 N   0  0  0  0  0  0  0  0  0  0  0  0
  -25.4638  -15.0502   20.3380 N   0  0  0  0  0  0  0  0  0  0  0  0
  -21.8295  -12.6567   21.5460 N   0  0  0  0  0  0  0  0  0  0  0  0
  -30.4695  -27.2516   27.3276 N   0  0  0  0  0  0  0  0  0  0  0  0
  -25.6233  -30.3038   24.1286 N   0  0  0  0  0  0  0  0  0  0  0  0
  -30.1287  -15.6391   21.4946 N   0  0  0  0  0  0  0  0  0  0  0  0
  -25.4471  -31.5294   20.7323 N   0  3  0  0  0  0  0  0  0  0  0  0
  -22.6371  -14.7776   21.2167 O   0  0  0  0  0  0  0  0  0  0  0  0
  -28.7237  -26.0753   26.3321 O   0  0  0  0  0  0  0  0  0  0  0  0
  -27.7856  -30.0876   25.9957 O   0  0  0  0  0  0  0  0  0  0  0  0
  -25.1188  -29.1428   22.1858 O   0  0  0  0  0  0  0  0  0  0  0  0
  -31.8729  -14.8269   20.2478 O   0  0  0  0  0  0  0  0  0  0  0  0
  -21.4821   -7.1029   21.8094 O   0  0  0  0  0  0  0  0  0  0  0  0
  -28.5760  -23.4471   20.7863 O   0  0  0  0  0  0  0  0  0  1  0  0
  -23.8179   -3.1025   24.8001 F   0  0  0  0  0  0  0  0  0  0  0  0
  -20.3890   -6.3142   24.2230 F   0  0  0  0  0  0  0  0  0  0  0  0
  1  2  1  0  0  0  0
  1  5  2  0  0  0  0
  2  6  2  0  0  0  0
  3  8  2  0  0  0  0
  3 17  1  0  0  0  0
  4  9  1  0  0  0  0
  4 17  2  0  0  0  0
  5 19  1  0  0  0  0
  6 21  1  0  0  0  0
  7 10  2  0  0  0  0
  7 20  1  0  0  0  0
  8 25  1  0  0  0  0
  9 25  2  0  0  0  0
 10 26  1  0  0  0  0
 11 12  2  0  0  0  0
 11 27  1  0  0  0  0
 12 28  1  0  0  0  0
 13 22  1  0  0  0  0
 13 26  2  0  0  0  0
 14 24  1  0  0  0  0
 14 31  2  0  0  0  0
 15 28  2  0  0  0  0
 15 29  1  0  0  0  0
 16 23  1  0  0  0  0
 16 66  2  0  0  0  0
 17 30  1  0  0  0  0
 18 30  1  0  0  0  0
 18 32  2  0  0  0  0
 18 33  1  0  0  0  0
 19 21  2  0  0  0  0
 19 39  1  0  0  0  0
 20 22  2  0  0  0  0
 20 40  1  0  0  0  0
 21 48  1  0  0  0  0
 22 41  1  0  0  0  0
 23 24  2  0  0  0  0
 23 58  1  0  0  0  0
 24 68  1  0  0  0  0
 25 83  1  0  0  0  0
 26 84  1  0  0  0  0
 27 29  2  0  0  0  0
 27 83  1  0  0  0  0
 28 85  1  0  0  0  0
 29 86  1  0  0  0  0
 30 67  2  0  0  0  0
 31 51  1  0  0  0  0
 31 66  1  0  0  0  0
 32 69  1  0  0  0  0
 32 72  1  0  0  0  0
 33 73  1  0  0  0  0
 33 78  2  0  0  0  0
 34 49  1  0  0  0  0
 34 74  1  0  0  0  0
 34 79  2  0  0  0  0
 35 59  1  0  0  0  0
 35 60  1  0  0  0  0
 35 68  2  0  0  0  0
 36 63  1  0  0  0  0
 36 70  1  0  0  0  0
 36 80  2  0  0  0  0
 37 64  1  0  0  0  0
 37 75  1  0  0  0  0
 37 81  2  0  0  0  0
 38 71  1  0  0  0  0
 38 76  1  0  0  0  0
 38 82  2  0  0  0  0
 39 42  1  0  0  0  0
 40 49  1  0  0  0  0
 41 70  1  0  0  0  0
 42 44  1  0  0  0  0
 43 45  1  0  0  0  0
 43 46  1  0  0  0  0
 44 48  1  0  0  0  0
 45 50  1  0  0  0  0
 46 71  1  0  0  0  0
 47 50  1  0  0  0  0
 47 71  1  0  0  0  0
 48 74  1  0  0  0  0
 49 70  1  0  0  0  0
 50 69  1  0  0  0  0
 52 59  1  0  0  0  0
 53 64  1  0  0  0  0
 54 65  1  0  0  0  0
 55 65  1  0  0  0  0
 56 65  1  0  0  0  0
 57 77  1  0  0  0  0
 58 76  1  0  0  0  0
 60 61  1  0  0  0  0
 61 62  1  0  0  0  0
 62 84  1  0  0  0  0
 63 65  1  0  0  0  0
 63 75  1  0  0  0  0
 64 77  1  0  0  0  0
 67 69  1  0  0  0  0
M  CHG  1  77   1
M  ISO  4  38 100  62 101  76 100  84 101
M  END
> <Batch ID>
0120

> <Smiles>
CCC(=CC[101CH2:1][101O:1]c1ccc2c(c1)CN(C(=O)C(NC(=O)C(C)NC)C(C)(C)C)C(C(=O)NC1CCCc3ccccc31)C2)Nc1cc(C)ncc1C[100NH:0][100C:0](=O)N1CCCC(n2nc(-c3ccc(Oc4ccc(F)cc4F)cc3)c(C(N)=O)c2N)C1

> <Shape>
0.292

> <Color>
0.194

> <Negative vol penalty>
0.000

$$$$

  -OEChem-04052320233D

 81 89  0     1  0  0  0  0  0999 V2000
  -25.9161  -17.8017   18.8180 C   0  0  0  0  0  0  0  0  0  0  0  0
  -25.1000  -18.9213   18.9442 C   0  0  0  0  0  0  0  0  0  0  0  0
  -23.1742  -13.9658   21.1623 C   0  0  0  0  0  0  0  0  0  0  0  0
  -24.9965  -14.9336   22.4192 C   0  0  0  0  0  0  0  0  0  0  0  0
  -27.1818  -17.7936   19.4026 C   0  0  0  0  0  0  0  0  0  0  0  0
  -25.5488  -20.0331   19.6562 C   0  0  0  0  0  0  0  0  0  0  0  0
  -24.3386  -25.9134   18.4469 C   0  0  0  0  0  0  0  0  0  0  0  0
  -24.0402  -12.9993   20.6509 C   0  0  0  0  0  0  0  0  0  0  0  0
  -25.8625  -13.9670   21.9078 C   0  0  0  0  0  0  0  0  0  0  0  0
  -23.4115  -26.8089   18.9785 C   0  0  0  0  0  0  0  0  0  0  0  0
  -28.6311  -11.9737   20.6543 C   0  0  0  0  0  0  0  0  0  0  0  0
  -29.8796  -12.3975   20.1992 C   0  0  0  0  0  0  0  0  0  0  0  0
  -19.5393  -28.2965   21.7092 C   0  0  0  0  0  0  0  0  0  0  0  0
  -25.0986  -27.6538   20.4815 C   0  0  0  0  0  0  0  0  0  0  0  0
  -28.8027  -13.8298   18.5787 C   0  0  0  0  0  0  0  0  0  0  0  0
  -18.6950  -27.2051   21.7234 C   0  0  0  0  0  0  0  0  0  0  0  0
  -23.6524  -14.9330   22.0464 C   0  0  0  0  0  0  0  0  0  0  0  0
  -21.9908  -15.8489   23.7517 C   0  0  0  0  0  0  0  0  0  0  0  0
  -27.6501  -18.9095   20.1140 C   0  0  0  0  0  0  0  0  0  0  0  0
  -25.6518  -25.8739   18.9370 C   0  0  0  0  0  0  0  0  0  0  0  0
  -26.8214  -20.0394   20.2521 C   0  0  0  0  0  0  0  0  0  0  0  0
  -26.0411  -26.7587   19.9527 C   0  0  0  0  0  0  0  0  0  0  0  0
  -25.3843  -12.9998   21.0237 C   0  0  0  0  0  0  0  0  0  0  0  0
  -23.7907  -27.6772   19.9979 C   0  0  0  0  0  0  0  0  0  0  0  0
  -27.4684  -12.4779   20.0716 C   0  0  0  0  0  0  0  0  0  0  0  0
  -29.9655  -13.3255   19.1614 C   0  0  0  0  0  0  0  0  0  0  0  0
  -27.5542  -13.4059   19.0338 C   0  0  0  0  0  0  0  0  0  0  0  0
  -22.7584  -15.9320   22.5745 C   0  0  0  0  0  0  0  0  0  0  0  0
  -20.7025  -28.1610   22.4391 C   0  0  0  0  0  0  0  0  0  0  0  0
  -21.3180  -17.0450   23.8079 C   0  0  0  0  0  0  0  0  0  0  0  0
  -20.1220  -26.0551   23.0681 C   0  0  0  0  0  0  0  0  0  0  0  0
  -21.8947  -14.7857   24.7088 C   0  0  0  0  0  0  0  0  0  0  0  0
  -27.4426  -23.6795   20.3797 C   0  0  0  0  0  0  0  0  0  0  0  0
  -29.7700  -25.9119   20.0309 C   0  0  0  0  0  0  0  0  0  0  0  0
  -30.5950  -29.1996   19.6337 C   0  0  0  0  0  0  0  0  0  0  0  0
  -21.2855  -22.5058   23.4532 C   0  0  0  0  0  0  0  0  0  0  0  0
  -29.0068  -18.8360   20.7686 C   0  0  0  0  0  0  0  0  0  0  0  0
  -26.6471  -24.9206   18.3345 C   0  0  0  0  0  0  0  0  0  0  0  0
  -27.4443  -26.7701   20.4998 C   0  0  0  0  0  0  0  0  0  0  0  0
  -29.5551  -20.1974   21.1884 C   0  0  0  0  0  0  0  0  0  0  0  0
  -20.8069  -20.7034   20.3516 C   0  0  0  0  0  0  0  0  0  0  0  0
  -28.4822  -21.0049   21.9120 C   0  0  0  0  0  0  0  0  0  0  0  0
  -21.2123  -19.2855   20.7581 C   0  0  0  0  0  0  0  0  0  0  0  0
  -21.6869  -21.7469   21.0334 C   0  0  0  0  0  0  0  0  0  0  0  0
  -22.1239  -20.2333   22.9285 C   0  0  0  0  0  0  0  0  0  0  0  0
  -27.2825  -21.2741   20.9956 C   0  0  1  0  0  0  0  0  0  0  0  0
  -27.8175  -24.6127   19.2633 C   0  0  1  0  0  0  0  0  0  0  0  0
  -21.2569  -19.1329   22.2901 C   0  0  2  0  0  0  0  0  0  0  0  0
  -21.8646  -29.8368   23.9132 C   0  0  0  0  0  0  0  0  0  0  0  0
  -32.5794  -30.7204   19.4179 C   0  0  0  0  0  0  0  0  0  0  0  0
  -30.2822  -25.6652   23.0287 C   0  0  0  0  0  0  0  0  0  0  0  0
  -31.5544  -27.8187   22.9180 C   0  0  0  0  0  0  0  0  0  0  0  0
  -32.3471  -25.8361   21.6282 C   0  0  0  0  0  0  0  0  0  0  0  0
  -29.7559  -30.1034   16.9434 C   0  0  0  0  0  0  0  0  0  0  0  0
  -20.4452  -24.8109   23.8235 C   0  0  0  0  0  0  0  0  0  0  0  0
  -23.0551  -28.9200   21.8875 C   0  0  0  0  0  0  0  0  0  1  0  0
  -21.6965  -29.3108   22.4850 C   0  0  1  0  0  0  0  0  0  0  0  0
  -30.2765  -27.0670   20.8606 C   0  0  1  0  0  0  0  0  0  0  0  0
  -31.5455  -29.8906   18.6727 C   0  0  2  0  0  0  0  0  0  0  0  0
  -31.0880  -26.5954   22.1001 C   0  0  0  0  0  0  0  0  0  0  0  0
  -18.9559  -26.0642   22.3946 N   0  0  0  0  0  0  0  0  0  0  0  0
  -22.5895  -17.0893   21.9294 N   0  0  0  0  0  0  0  0  0  0  0  0
  -21.0269  -27.0504   23.1331 N   0  0  0  0  0  0  0  0  0  0  0  0
  -21.7079  -17.7444   22.7039 N   0  0  0  0  0  0  0  0  0  0  0  0
  -28.3792  -25.8150   19.8824 N   0  0  0  0  0  0  0  0  0  0  0  0
  -21.6710  -21.5578   22.4908 N   0  0  0  0  0  0  0  0  0  0  0  0
  -20.4366  -17.5561   24.6936 N   0  0  0  0  0  0  0  0  0  0  0  0
  -22.6543  -13.6268   24.4985 N   0  0  0  0  0  0  0  0  0  0  0  0
  -27.5858  -22.3413   20.0663 N   0  0  0  0  0  0  0  0  0  0  0  0
  -31.0233  -27.9275   19.9495 N   0  0  0  0  0  0  0  0  0  0  0  0
  -20.8765  -23.7372   22.9563 N   0  0  0  0  0  0  0  0  0  0  0  0
  -30.7912  -30.7919   17.7565 N   0  3  0  0  0  0  0  0  0  0  0  0
  -21.1447  -14.8545   25.7118 O   0  0  0  0  0  0  0  0  0  0  0  0
  -27.0537  -24.1395   21.4468 O   0  0  0  0  0  0  0  0  0  0  0  0
  -30.5790  -25.1288   19.5271 O   0  0  0  0  0  0  0  0  0  0  0  0
  -29.5766  -29.7361   20.0644 O   0  0  0  0  0  0  0  0  0  0  0  0
  -21.2996  -22.2703   24.6663 O   0  0  0  0  0  0  0  0  0  0  0  0
  -26.2296  -12.0567   20.5251 O   0  0  0  0  0  0  0  0  0  0  0  0
  -22.8876  -28.5518   20.5191 O   0  0  0  0  0  0  0  0  0  1  0  0
  -31.1645  -13.7336   18.7254 F   0  0  0  0  0  0  0  0  0  0  0  0
  -26.4406  -13.8947   18.4708 F   0  0  0  0  0  0  0  0  0  0  0  0
  1  2  1  0  0  0  0
  1  5  2  0  0  0  0
  2  6  2  0  0  0  0
  3  8  2  0  0  0  0
  3 17  1  0  0  0  0
  4  9  1  0  0  0  0
  4 17  2  0  0  0  0
  5 19  1  0  0  0  0
  6 21  1  0  0  0  0
  7 10  2  0  0  0  0
  7 20  1  0  0  0  0
  8 23  1  0  0  0  0
  9 23  2  0  0  0  0
 10 24  1  0  0  0  0
 11 12  2  0  0  0  0
 11 25  1  0  0  0  0
 12 26  1  0  0  0  0
 13 16  2  0  0  0  0
 13 29  1  0  0  0  0
 14 22  1  0  0  0  0
 14 24  2  0  0  0  0
 15 26  2  0  0  0  0
 15 27  1  0  0  0  0
 16 61  1  0  0  0  0
 17 28  1  0  0  0  0
 18 28  1  0  0  0  0
 18 30  2  0  0  0  0
 18 32  1  0  0  0  0
 19 21  2  0  0  0  0
 19 37  1  0  0  0  0
 20 22  2  0  0  0  0
 20 38  1  0  0  0  0
 21 46  1  0  0  0  0
 22 39  1  0  0  0  0
 23 78  1  0  0  0  0
 24 79  1  0  0  0  0
 25 27  2  0  0  0  0
 25 78  1  0  0  0  0
 26 80  1  0  0  0  0
 27 81  1  0  0  0  0
 28 62  2  0  0  0  0
 29 57  1  0  0  0  0
 29 63  2  0  0  0  0
 30 64  1  0  0  0  0
 30 67  1  0  0  0  0
 31 55  1  0  0  0  0
 31 61  2  0  0  0  0
 31 63  1  0  0  0  0
 32 68  1  0  0  0  0
 32 73  2  0  0  0  0
 33 47  1  0  0  0  0
 33 69  1  0  0  0  0
 33 74  2  0  0  0  0
 34 58  1  0  0  0  0
 34 65  1  0  0  0  0
 34 75  2  0  0  0  0
 35 59  1  0  0  0  0
 35 70  1  0  0  0  0
 35 76  2  0  0  0  0
 36 66  1  0  0  0  0
 36 71  1  0  0  0  0
 36 77  2  0  0  0  0
 37 40  1  0  0  0  0
 38 47  1  0  0  0  0
 39 65  1  0  0  0  0
 40 42  1  0  0  0  0
 41 43  1  0  0  0  0
 41 44  1  0  0  0  0
 42 46  1  0  0  0  0
 43 48  1  0  0  0  0
 44 66  1  0  0  0  0
 45 48  1  0  0  0  0
 45 66  1  0  0  0  0
 46 69  1  0  0  0  0
 47 65  1  0  0  0  0
 48 64  1  0  0  0  0
 49 57  1  0  0  0  0
 50 59  1  0  0  0  0
 51 60  1  0  0  0  0
 52 60  1  0  0  0  0
 53 60  1  0  0  0  0
 54 72  1  0  0  0  0
 55 71  1  0  0  0  0
 56 57  1  0  0  0  0
 56 79  1  0  0  0  0
 58 60  1  0  0  0  0
 58 70  1  0  0  0  0
 59 72  1  0  0  0  0
 62 64  1  0  0  0  0
M  CHG  1  72   1
M  ISO  4  36 100  56 101  71 100  79 101
M  END
> <Batch ID>
0120

> <Smiles>
CNC(C)C(=O)NC(C(=O)N1Cc2cc([101O:1][101CH2:1]C(C)c3ccnc(C[100NH:0][100C:0](=O)N4CCCC(n5nc(-c6ccc(Oc7ccc(F)cc7F)cc6)c(C(N)=O)c5N)C4)n3)ccc2CC1C(=O)NC1CCCc2ccccc21)C(C)(C)C

> <Shape>
0.221

> <Color>
0.060

> <Negative vol penalty>
0.000

$$$$

  -OEChem-04052320233D

 80 89  0     1  0  0  0  0  0999 V2000
  -30.3233  -32.2582   25.5026 C   0  0  0  0  0  0  0  0  0  0  0  0
  -29.7919  -31.1019   24.9407 C   0  0  0  0  0  0  0  0  0  0  0  0
  -22.9256  -10.4568   21.6018 C   0  0  0  0  0  0  0  0  0  0  0  0
  -24.6864   -8.8029   21.5650 C   0  0  0  0  0  0  0  0  0  0  0  0
  -29.4780  -33.3014   25.8784 C   0  0  0  0  0  0  0  0  0  0  0  0
  -28.4146  -30.9876   24.7552 C   0  0  0  0  0  0  0  0  0  0  0  0
  -27.2159  -29.1188   20.2038 C   0  0  0  0  0  0  0  0  0  0  0  0
  -21.9705   -9.4407   21.5701 C   0  0  0  0  0  0  0  0  0  0  0  0
  -23.7313   -7.7868   21.5333 C   0  0  0  0  0  0  0  0  0  0  0  0
  -27.3468  -27.7422   20.0261 C   0  0  0  0  0  0  0  0  0  0  0  0
  -21.6922   -6.2181   23.7245 C   0  0  0  0  0  0  0  0  0  0  0  0
  -21.8820   -5.1257   24.5708 C   0  0  0  0  0  0  0  0  0  0  0  0
  -27.4007  -21.3046   19.8728 C   0  0  0  0  0  0  0  0  0  0  0  0
  -27.4165  -22.6111   20.4411 C   0  0  0  0  0  0  0  0  0  0  0  0
  -24.9706  -27.4806   20.3493 C   0  0  0  0  0  0  0  0  0  0  0  0
  -21.9466   -3.6536   22.6561 C   0  0  0  0  0  0  0  0  0  0  0  0
  -24.2836  -10.1379   21.5993 C   0  0  0  0  0  0  0  0  0  0  0  0
  -25.8481  -11.7763   22.7722 C   0  0  0  0  0  0  0  0  0  0  0  0
  -28.0906  -33.2038   25.6885 C   0  0  0  0  0  0  0  0  0  0  0  0
  -25.9608  -29.6864   20.4668 C   0  0  0  0  0  0  0  0  0  0  0  0
  -27.5498  -32.0299   25.1300 C   0  0  0  0  0  0  0  0  0  0  0  0
  -24.8260  -28.8650   20.5274 C   0  0  0  0  0  0  0  0  0  0  0  0
  -22.3734   -8.1057   21.5359 C   0  0  0  0  0  0  0  0  0  0  0  0
  -26.2245  -26.9225   20.1017 C   0  0  0  0  0  0  0  0  0  0  0  0
  -21.6295   -6.0283   22.3440 C   0  0  0  0  0  0  0  0  0  0  0  0
  -22.0093   -3.8435   24.0366 C   0  0  0  0  0  0  0  0  0  0  0  0
  -21.7567   -4.7461   21.8098 C   0  0  0  0  0  0  0  0  0  0  0  0
  -25.2706  -11.1871   21.6315 C   0  0  0  0  0  0  0  0  0  0  0  0
  -27.5587  -21.3334   18.5047 C   0  0  0  0  0  0  0  0  0  0  0  0
  -27.5862  -23.5889   19.4855 C   0  0  0  0  0  0  0  0  0  0  0  0
  -26.7187  -12.7131   22.2713 C   0  0  0  0  0  0  0  0  0  0  0  0
  -25.6181  -11.5012   24.1604 C   0  0  0  0  0  0  0  0  0  0  0  0
  -24.7042  -31.3317   22.8788 C   0  0  0  0  0  0  0  0  0  0  0  0
  -22.1749  -31.6010   20.8656 C   0  0  0  0  0  0  0  0  0  0  0  0
  -20.4466  -30.3510   18.2016 C   0  0  0  0  0  0  0  0  0  0  0  0
  -27.6475  -16.9036   18.8174 C   0  0  0  0  0  0  0  0  0  0  0  0
  -27.2125  -34.3383   26.1538 C   0  0  0  0  0  0  0  0  0  0  0  0
  -25.8324  -31.1761   20.6296 C   0  0  0  0  0  0  0  0  0  0  0  0
  -23.4531  -29.4272   20.7873 C   0  0  0  0  0  0  0  0  0  0  0  0
  -25.7994  -34.2903   25.5786 C   0  0  0  0  0  0  0  0  0  0  0  0
  -28.3806  -13.5063   17.5791 C   0  0  0  0  0  0  0  0  0  0  0  0
  -25.2248  -32.8817   25.6910 C   0  0  0  0  0  0  0  0  0  0  0  0
  -27.6312  -12.6542   18.5991 C   0  0  0  0  0  0  0  0  0  0  0  0
  -28.7716  -19.8696   16.7003 C   0  0  0  0  0  0  0  0  0  0  0  0
  -27.6692  -14.8307   17.3050 C   0  0  0  0  0  0  0  0  0  0  0  0
  -26.6398  -14.7687   19.5590 C   0  0  0  0  0  0  0  0  0  0  0  0
  -26.0633  -31.8784   24.8899 C   0  0  1  0  0  0  0  0  0  0  0  0
  -27.5858  -20.0873   17.6143 C   0  0  1  0  0  0  0  0  0  0  0  0
  -24.5834  -31.5872   21.4030 C   0  0  1  0  0  0  0  0  0  0  0  0
  -27.3657  -13.4541   19.8837 C   0  0  1  0  0  0  0  0  0  0  0  0
  -28.6043  -19.0001   17.9112 C   0  0  1  0  0  0  0  0  0  0  0  0
  -18.3986  -30.7661   16.8119 C   0  0  0  0  0  0  0  0  0  0  0  0
  -20.4302  -30.4931   23.1103 C   0  0  0  0  0  0  0  0  0  0  0  0
  -18.6495  -30.0421   21.4092 C   0  0  0  0  0  0  0  0  0  0  0  0
  -19.4070  -32.3814   21.8289 C   0  0  0  0  0  0  0  0  0  0  0  0
  -22.0484  -30.7072   15.7386 C   0  0  0  0  0  0  0  0  0  0  0  0
  -27.6604  -25.0756   19.6741 C   0  0  0  0  0  0  0  0  0  1  0  0
  -20.9326  -30.7871   20.5949 C   0  0  1  0  0  0  0  0  0  0  0  0
  -19.8909  -31.0205   16.9576 C   0  0  2  0  0  0  0  0  0  0  0  0
  -19.8808  -30.9148   21.7328 C   0  0  0  0  0  0  0  0  0  0  0  0
  -25.7351  -11.7062   20.4918 N   0  0  0  0  0  0  0  0  0  0  0  0
  -26.6136  -12.6315   20.9139 N   0  0  0  0  0  0  0  0  0  0  0  0
  -23.3801  -30.8890   20.9459 N   0  0  0  0  0  0  0  0  0  0  0  0
  -27.3672  -15.5510   18.5520 N   0  0  0  0  0  0  0  0  0  0  0  0
  -27.5561  -13.5905   22.8640 N   0  0  0  0  0  0  0  0  0  0  0  0
  -24.6904  -10.5070   24.4998 N   0  0  0  0  0  0  0  0  0  0  0  0
  -25.7649  -31.9840   23.4777 N   0  0  0  0  0  0  0  0  0  0  0  0
  -20.4483  -31.2054   19.2838 N   0  0  0  0  0  0  0  0  0  0  0  0
  -28.2624  -17.6081   17.7886 N   0  0  0  0  0  0  0  0  0  0  0  0
  -20.5770  -30.5024   15.7403 N   0  3  0  0  0  0  0  0  0  0  0  0
  -26.2055  -12.1302   25.0731 O   0  0  0  0  0  0  0  0  0  0  0  0
  -23.8941  -30.5982   23.4333 O   0  0  0  0  0  0  0  0  0  0  0  0
  -22.0805  -32.8242   20.9938 O   0  0  0  0  0  0  0  0  0  0  0  0
  -20.8364  -29.1855   18.2131 O   0  0  0  0  0  0  0  0  0  0  0  0
  -27.3657  -17.4479   19.8908 O   0  0  0  0  0  0  0  0  0  0  0  0
  -21.4417   -7.1139   21.5051 O   0  0  0  0  0  0  0  0  0  0  0  0
  -26.3495  -25.5785   19.9293 O   0  0  0  0  0  0  0  0  0  1  0  0
  -22.1931   -2.7947   24.8493 F   0  0  0  0  0  0  0  0  0  0  0  0
  -21.6986   -4.5576   20.4844 F   0  0  0  0  0  0  0  0  0  0  0  0
  -27.7252  -22.9309   17.9107 S   0  0  0  0  0  0  0  0  0  0  0  0
  1  2  1  0  0  0  0
  1  5  2  0  0  0  0
  2  6  2  0  0  0  0
  3  8  2  0  0  0  0
  3 17  1  0  0  0  0
  4  9  1  0  0  0  0
  4 17  2  0  0  0  0
  5 19  1  0  0  0  0
  6 21  1  0  0  0  0
  7 10  2  0  0  0  0
  7 20  1  0  0  0  0
  8 23  1  0  0  0  0
  9 23  2  0  0  0  0
 10 24  1  0  0  0  0
 11 12  2  0  0  0  0
 11 25  1  0  0  0  0
 12 26  1  0  0  0  0
 13 14  1  0  0  0  0
 13 29  2  0  0  0  0
 14 30  2  0  0  0  0
 15 22  1  0  0  0  0
 15 24  2  0  0  0  0
 16 26  2  0  0  0  0
 16 27  1  0  0  0  0
 17 28  1  0  0  0  0
 18 28  1  0  0  0  0
 18 31  2  0  0  0  0
 18 32  1  0  0  0  0
 19 21  2  0  0  0  0
 19 37  1  0  0  0  0
 20 22  2  0  0  0  0
 20 38  1  0  0  0  0
 21 47  1  0  0  0  0
 22 39  1  0  0  0  0
 23 76  1  0  0  0  0
 24 77  1  0  0  0  0
 25 27  2  0  0  0  0
 25 76  1  0  0  0  0
 26 78  1  0  0  0  0
 27 79  1  0  0  0  0
 28 61  2  0  0  0  0
 29 48  1  0  0  0  0
 29 80  1  0  0  0  0
 30 57  1  0  0  0  0
 30 80  1  0  0  0  0
 31 62  1  0  0  0  0
 31 65  1  0  0  0  0
 32 66  1  0  0  0  0
 32 71  2  0  0  0  0
 33 49  1  0  0  0  0
 33 67  1  0  0  0  0
 33 72  2  0  0  0  0
 34 58  1  0  0  0  0
 34 63  1  0  0  0  0
 34 73  2  0  0  0  0
 35 59  1  0  0  0  0
 35 68  1  0  0  0  0
 35 74  2  0  0  0  0
 36 64  1  0  0  0  0
 36 69  1  0  0  0  0
 36 75  2  0  0  0  0
 37 40  1  0  0  0  0
 38 49  1  0  0  0  0
 39 63  1  0  0  0  0
 40 42  1  0  0  0  0
 41 43  1  0  0  0  0
 41 45  1  0  0  0  0
 42 47  1  0  0  0  0
 43 50  1  0  0  0  0
 44 48  1  0  0  0  0
 44 51  1  0  0  0  0
 45 64  1  0  0  0  0
 46 50  1  0  0  0  0
 46 64  1  0  0  0  0
 47 67  1  0  0  0  0
 48 51  1  0  0  0  0
 49 63  1  0  0  0  0
 50 62  1  0  0  0  0
 51 69  1  0  0  0  0
 52 59  1  0  0  0  0
 53 60  1  0  0  0  0
 54 60  1  0  0  0  0
 55 60  1  0  0  0  0
 56 70  1  0  0  0  0
 57 77  1  0  0  0  0
 58 60  1  0  0  0  0
 58 68  1  0  0  0  0
 59 70  1  0  0  0  0
 61 62  1  0  0  0  0
M  CHG  1  70   1
M  ISO  4  36 100  57 101  69 100  77 101
M  END
> <Batch ID>
0120

> <Smiles>
CNC(C)C(=O)NC(C(=O)N1Cc2cc([101O:1][101CH2:1]c3ccc(C4CC4[100NH:0][100C:0](=O)N4CCCC(n5nc(-c6ccc(Oc7ccc(F)cc7F)cc6)c(C(N)=O)c5N)C4)s3)ccc2CC1C(=O)NC1CCCc2ccccc21)C(C)(C)C

> <Shape>
0.281

> <Color>
0.117

> <Negative vol penalty>
0.000

$$$$

  -OEChem-04052320233D

 88 97  0     1  0  0  0  0  0999 V2000
  -23.7662   -7.9797   21.6025 C   0  0  0  0  0  0  0  0  0  0  0  0
  -24.2651   -8.9857   20.7812 C   0  0  0  0  0  0  0  0  0  0  0  0
  -24.1786  -29.2397   22.4796 C   0  0  0  0  0  0  0  0  0  0  0  0
  -25.2562  -27.2677   23.3666 C   0  0  0  0  0  0  0  0  0  0  0  0
  -22.5595   -8.1653   22.2758 C   0  0  0  0  0  0  0  0  0  0  0  0
  -23.5569  -10.1776   20.6318 C   0  0  0  0  0  0  0  0  0  0  0  0
  -26.5402  -14.2593   20.9227 C   0  0  0  0  0  0  0  0  0  0  0  0
  -22.9598  -28.8097   23.0043 C   0  0  0  0  0  0  0  0  0  0  0  0
  -24.0375  -26.8377   23.8913 C   0  0  0  0  0  0  0  0  0  0  0  0
  -27.2972  -14.5763   19.7956 C   0  0  0  0  0  0  0  0  0  0  0  0
  -19.4937  -28.0525   23.8020 C   0  0  0  0  0  0  0  0  0  0  0  0
  -18.3671  -28.1391   22.9842 C   0  0  0  0  0  0  0  0  0  0  0  0
  -25.6789  -16.2594   19.1895 C   0  0  0  0  0  0  0  0  0  0  0  0
  -19.4185  -26.6695   21.3804 C   0  0  0  0  0  0  0  0  0  0  0  0
  -30.2096  -22.1435   20.9290 C   0  0  0  0  0  0  0  0  0  0  0  0
  -25.3268  -28.4686   22.6607 C   0  0  0  0  0  0  0  0  0  0  0  0
  -27.2675  -30.1066   22.4188 C   0  0  0  0  0  0  0  0  0  0  0  0
  -21.8410   -9.3639   22.1422 C   0  0  0  0  0  0  0  0  0  0  0  0
  -25.3393  -14.9336   21.1862 C   0  0  0  0  0  0  0  0  0  0  0  0
  -22.3388  -10.3789   21.3030 C   0  0  0  0  0  0  0  0  0  0  0  0
  -24.9098  -15.9508   20.3219 C   0  0  0  0  0  0  0  0  0  0  0  0
  -22.8892  -27.6087   23.7102 C   0  0  0  0  0  0  0  0  0  0  0  0
  -26.8651  -15.5744   18.9273 C   0  0  0  0  0  0  0  0  0  0  0  0
  -20.5828  -27.2745   23.4091 C   0  0  0  0  0  0  0  0  0  0  0  0
  -18.3295  -27.4476   21.7734 C   0  0  0  0  0  0  0  0  0  0  0  0
  -20.5451  -26.5830   22.1983 C   0  0  0  0  0  0  0  0  0  0  0  0
  -26.5860  -28.9120   22.1184 C   0  0  0  0  0  0  0  0  0  0  0  0
  -30.8676  -20.8661   19.3588 C   0  0  0  0  0  0  0  0  0  0  0  0
  -32.0088  -21.4378   19.8701 C   0  0  0  0  0  0  0  0  0  0  0  0
  -28.4040  -30.0563   21.6493 C   0  0  0  0  0  0  0  0  0  0  0  0
  -26.9055  -31.1669   23.3135 C   0  0  0  0  0  0  0  0  0  0  0  0
  -22.2897  -14.0713   21.4313 C   0  0  0  0  0  0  0  0  0  0  0  0
  -21.8940  -17.1602   22.3395 C   0  0  0  0  0  0  0  0  0  0  0  0
  -23.1393  -20.3870   21.3129 C   0  0  0  0  0  0  0  0  0  0  0  0
  -31.5319  -25.5299   19.2872 C   0  0  0  0  0  0  0  0  0  0  0  0
  -20.5177   -9.5000   22.8528 C   0  0  0  0  0  0  0  0  0  0  0  0
  -24.5479  -14.5982   22.4205 C   0  0  0  0  0  0  0  0  0  0  0  0
  -23.6381  -16.7185   20.5708 C   0  0  0  0  0  0  0  0  0  0  0  0
  -20.0159  -10.9394   22.9354 C   0  0  0  0  0  0  0  0  0  0  0  0
  -30.0654  -28.2618   17.5371 C   0  0  0  0  0  0  0  0  0  0  0  0
  -20.1465  -11.6287   21.5809 C   0  0  0  0  0  0  0  0  0  0  0  0
  -29.0689  -28.8460   18.5398 C   0  0  0  0  0  0  0  0  0  0  0  0
  -29.8865  -20.3606   17.0569 C   0  0  0  0  0  0  0  0  0  0  0  0
  -30.1379  -26.7396   17.6350 C   0  0  0  0  0  0  0  0  0  0  0  0
  -29.4146  -26.8025   19.9901 C   0  0  0  0  0  0  0  0  0  0  0  0
  -29.6362  -19.0829   16.2836 C   0  0  0  0  0  0  0  0  0  0  0  0
  -30.0959  -18.5457   18.6263 C   0  0  0  0  0  0  0  0  0  0  0  0
  -21.6121  -11.6956   21.1349 C   0  0  1  0  0  0  0  0  0  0  0  0
  -30.7395  -19.8758   18.2273 C   0  0  2  0  0  0  0  0  0  0  0  0
  -23.0788  -14.9957   22.3147 C   0  0  1  0  0  0  0  0  0  0  0  0
  -29.3478  -28.3391   19.9676 C   0  0  2  0  0  0  0  0  0  0  0  0
  -33.7406  -21.7480   18.0650 C   0  0  0  0  0  0  0  0  0  0  0  0
  -33.9576  -19.8472   19.7067 C   0  0  0  0  0  0  0  0  0  0  0  0
  -23.4254  -22.5144   22.6129 C   0  0  0  0  0  0  0  0  0  0  0  0
  -19.1272  -17.8538   21.2560 C   0  0  0  0  0  0  0  0  0  0  0  0
  -19.8992  -20.2212   20.9957 C   0  0  0  0  0  0  0  0  0  0  0  0
  -19.8247  -19.1773   23.2601 C   0  0  0  0  0  0  0  0  0  0  0  0
  -26.0059  -20.5730   20.6008 C   0  0  0  0  0  0  0  0  0  0  0  0
  -32.3825  -23.0843   21.7333 C   0  0  0  0  0  0  0  0  0  0  0  0
  -32.8321  -24.3783   21.0599 C   0  0  0  0  0  0  0  0  0  0  0  0
  -29.7127  -16.6620   16.9756 C   0  0  0  0  0  0  0  0  0  0  0  0
  -29.0138  -15.6997   17.9156 C   0  0  0  0  0  0  0  0  0  1  0  0
  -33.4299  -21.2883   19.5094 C   0  0  0  0  0  0  0  0  0  0  0  0
  -21.6107  -18.4577   21.6217 C   0  0  1  0  0  0  0  0  0  0  0  0
  -24.1126  -21.2695   22.0735 C   0  0  2  0  0  0  0  0  0  0  0  0
  -20.1295  -18.9062   21.7707 C   0  0  0  0  0  0  0  0  0  0  0  0
  -29.7510  -21.3097   20.0221 N   0  0  0  0  0  0  0  0  0  0  0  0
  -27.2353  -28.1580   21.2274 N   0  0  0  0  0  0  0  0  0  0  0  0
  -31.5713  -22.2539   20.8749 N   0  0  0  0  0  0  0  0  0  0  0  0
  -28.3367  -28.8806   20.9613 N   0  0  0  0  0  0  0  0  0  0  0  0
  -22.8961  -16.3496   21.7877 N   0  0  0  0  0  0  0  0  0  0  0  0
  -30.4063  -26.3246   19.0140 N   0  0  0  0  0  0  0  0  0  0  0  0
  -29.4445  -30.9036   21.5007 N   0  0  0  0  0  0  0  0  0  0  0  0
  -27.3320  -31.0912   24.6464 N   0  0  0  0  0  0  0  0  0  0  0  0
  -22.3071  -12.7514   21.8398 N   0  0  0  0  0  0  0  0  0  0  0  0
  -22.5811  -19.4234   22.1259 N   0  0  0  0  0  0  0  0  0  0  0  0
  -31.7163  -25.1864   20.6209 N   0  0  0  0  0  0  0  0  0  0  0  0
  -29.3842  -18.0651   17.3720 N   0  3  2  0  0  0  0  0  0  0  0  0
  -25.2286  -21.6971   21.1832 N   0  3  0  0  0  0  0  0  0  0  0  0
  -26.2103  -32.1442   22.9459 O   0  0  0  0  0  0  0  0  0  0  0  0
  -21.7068  -14.5225   20.4523 O   0  0  0  0  0  0  0  0  0  0  0  0
  -21.2548  -16.8796   23.3566 O   0  0  0  0  0  0  0  0  0  0  0  0
  -22.8957  -20.5398   20.1180 O   0  0  0  0  0  0  0  0  0  0  0  0
  -32.3174  -25.1588   18.4085 O   0  0  0  0  0  0  0  0  0  0  0  0
  -21.7002  -27.1890   24.2225 O   0  0  0  0  0  0  0  0  0  0  0  0
  -27.6017  -15.8854   17.8261 O   0  0  0  0  0  0  0  0  0  1  0  0
  -17.2469  -27.5295   20.9889 F   0  0  0  0  0  0  0  0  0  0  0  0
  -21.5878  -25.8330   21.8160 F   0  0  0  0  0  0  0  0  0  0  0  0
  1  2  1  0  0  0  0
  1  5  2  0  0  0  0
  2  6  2  0  0  0  0
  3  8  2  0  0  0  0
  3 16  1  0  0  0  0
  4  9  1  0  0  0  0
  4 16  2  0  0  0  0
  5 18  1  0  0  0  0
  6 20  1  0  0  0  0
  7 10  2  0  0  0  0
  7 19  1  0  0  0  0
  8 22  1  0  0  0  0
  9 22  2  0  0  0  0
 10 23  1  0  0  0  0
 11 12  2  0  0  0  0
 11 24  1  0  0  0  0
 12 25  1  0  0  0  0
 13 21  1  0  0  0  0
 13 23  2  0  0  0  0
 14 25  2  0  0  0  0
 14 26  1  0  0  0  0
 15 67  2  0  0  0  0
 15 69  1  0  0  0  0
 16 27  1  0  0  0  0
 17 27  1  0  0  0  0
 17 30  2  0  0  0  0
 17 31  1  0  0  0  0
 18 20  2  0  0  0  0
 18 36  1  0  0  0  0
 19 21  2  0  0  0  0
 19 37  1  0  0  0  0
 20 48  1  0  0  0  0
 21 38  1  0  0  0  0
 22 85  1  0  0  0  0
 23 86  1  0  0  0  0
 24 26  2  0  0  0  0
 24 85  1  0  0  0  0
 25 87  1  0  0  0  0
 26 88  1  0  0  0  0
 27 68  2  0  0  0  0
 28 29  2  0  0  0  0
 28 49  1  0  0  0  0
 28 67  1  0  0  0  0
 29 63  1  0  0  0  0
 29 69  1  0  0  0  0
 30 70  1  0  0  0  0
 30 73  1  0  0  0  0
 31 74  1  0  0  0  0
 31 80  2  0  0  0  0
 32 50  1  0  0  0  0
 32 75  1  0  0  0  0
 32 81  2  0  0  0  0
 33 64  1  0  0  0  0
 33 71  1  0  0  0  0
 33 82  2  0  0  0  0
 34 65  1  0  0  0  0
 34 76  1  0  0  0  0
 34 83  2  0  0  0  0
 35 72  1  0  0  0  0
 35 77  1  0  0  0  0
 35 84  2  0  0  0  0
 36 39  1  0  0  0  0
 37 50  1  0  0  0  0
 38 71  1  0  0  0  0
 39 41  1  0  0  0  0
 40 42  1  0  0  0  0
 40 44  1  0  0  0  0
 41 48  1  0  0  0  0
 42 51  1  0  0  0  0
 43 46  1  0  0  0  0
 43 49  1  0  0  0  0
 44 72  1  0  0  0  0
 45 51  1  0  0  0  0
 45 72  1  0  0  0  0
 46 78  1  0  0  0  0
 47 49  1  0  0  0  0
 47 78  1  0  0  0  0
 48 75  1  0  0  0  0
 50 71  1  0  0  0  0
 51 70  1  0  0  0  0
 52 63  1  0  0  0  0
 53 63  1  0  0  0  0
 54 65  1  0  0  0  0
 55 66  1  0  0  0  0
 56 66  1  0  0  0  0
 57 66  1  0  0  0  0
 58 79  1  0  0  0  0
 59 60  1  0  0  0  0
 59 69  1  0  0  0  0
 60 77  1  0  0  0  0
 61 62  1  0  0  0  0
 61 78  1  0  0  0  0
 62 86  1  0  0  0  0
 64 66  1  0  0  0  0
 64 76  1  0  0  0  0
 65 79  1  0  0  0  0
 68 70  1  0  0  0  0
M  CHG  2  78   1  79   1
M  ISO  4  35 100  62 101  77 100  86 101
M  END
> <Batch ID>
0120

> <Smiles>
CNC(C)C(=O)NC(C(=O)N1Cc2cc([101O:1][101CH2:1]CN3CCC(c4ncn(CC[100NH:0][100C:0](=O)N5CCCC(n6nc(-c7ccc(Oc8ccc(F)cc8F)cc7)c(C(N)=O)c6N)C5)c4C(C)C)C3)ccc2CC1C(=O)NC1CCCc2ccccc21)C(C)(C)C

> <Shape>
0.223

> <Color>
0.068

> <Negative vol penalty>
0.000

$$$$

  -OEChem-04052320233D

 83 91  0     1  0  0  0  0  0999 V2000
  -23.9046  -31.2511   20.3773 C   0  0  0  0  0  0  0  0  0  0  0  0
  -24.0584  -29.9063   20.0561 C   0  0  0  0  0  0  0  0  0  0  0  0
  -23.1654  -11.0546   23.1584 C   0  0  0  0  0  0  0  0  0  0  0  0
  -23.3709   -9.6855   21.1783 C   0  0  0  0  0  0  0  0  0  0  0  0
  -24.6206  -31.7988   21.4410 C   0  0  0  0  0  0  0  0  0  0  0  0
  -24.9291  -29.1086   20.7977 C   0  0  0  0  0  0  0  0  0  0  0  0
  -24.2238  -23.1828   22.1740 C   0  0  0  0  0  0  0  0  0  0  0  0
  -22.4037  -10.0580   23.7684 C   0  0  0  0  0  0  0  0  0  0  0  0
  -22.6092   -8.6889   21.7884 C   0  0  0  0  0  0  0  0  0  0  0  0
  -24.7422  -22.0198   21.6061 C   0  0  0  0  0  0  0  0  0  0  0  0
  -23.0804   -6.2430   24.0723 C   0  0  0  0  0  0  0  0  0  0  0  0
  -23.5305   -4.9273   23.9632 C   0  0  0  0  0  0  0  0  0  0  0  0
  -26.5023  -22.0063   23.2556 C   0  0  0  0  0  0  0  0  0  0  0  0
  -21.4753   -4.3166   22.8495 C   0  0  0  0  0  0  0  0  0  0  0  0
  -23.6490  -10.8684   21.8633 C   0  0  0  0  0  0  0  0  0  0  0  0
  -24.0416  -13.2216   20.9600 C   0  0  0  0  0  0  0  0  0  0  0  0
  -25.4932  -31.0051   22.2021 C   0  0  0  0  0  0  0  0  0  0  0  0
  -24.8481  -23.7733   23.2821 C   0  0  0  0  0  0  0  0  0  0  0  0
  -25.6584  -29.6465   21.8717 C   0  0  0  0  0  0  0  0  0  0  0  0
  -25.9884  -23.1753   23.8373 C   0  0  0  0  0  0  0  0  0  0  0  0
  -22.1256   -8.8751   23.0835 C   0  0  0  0  0  0  0  0  0  0  0  0
  -25.8833  -21.4330   22.1451 C   0  0  0  0  0  0  0  0  0  0  0  0
  -21.8277   -6.5955   23.5701 C   0  0  0  0  0  0  0  0  0  0  0  0
  -22.7280   -3.9641   23.3518 C   0  0  0  0  0  0  0  0  0  0  0  0
  -21.0252   -5.6323   22.9587 C   0  0  0  0  0  0  0  0  0  0  0  0
  -24.4354  -11.8978   21.2324 C   0  0  0  0  0  0  0  0  0  0  0  0
  -25.1380  -13.7890   20.3581 C   0  0  0  0  0  0  0  0  0  0  0  0
  -22.7961  -13.8796   21.2274 C   0  0  0  0  0  0  0  0  0  0  0  0
  -26.2382  -26.5761   23.8439 C   0  0  0  0  0  0  0  0  0  0  0  0
  -30.8368  -14.4071   20.7478 C   0  0  0  0  0  0  0  0  0  0  0  0
  -26.3856  -25.4534   26.8837 C   0  0  0  0  0  0  0  0  0  0  0  0
  -26.4318  -22.7594   28.9781 C   0  0  0  0  0  0  0  0  0  0  0  0
  -26.2814  -31.6529   23.3128 C   0  0  0  0  0  0  0  0  0  0  0  0
  -24.2610  -25.0129   23.8995 C   0  0  0  0  0  0  0  0  0  0  0  0
  -26.6844  -23.7585   25.0389 C   0  0  0  0  0  0  0  0  0  0  0  0
  -26.9007  -30.6515   24.2844 C   0  0  0  0  0  0  0  0  0  0  0  0
  -29.4604  -11.4718   18.9749 C   0  0  0  0  0  0  0  0  0  0  0  0
  -27.8227  -17.6223   24.5943 C   0  0  0  0  0  0  0  0  0  0  0  0
  -27.5835  -29.5204   23.5221 C   0  0  0  0  0  0  0  0  0  0  0  0
  -27.9407  -11.5882   19.1009 C   0  0  0  0  0  0  0  0  0  0  0  0
  -27.6518  -18.7906   23.6403 C   0  0  0  0  0  0  0  0  0  0  0  0
  -30.1548  -12.8263   18.9785 C   0  0  0  0  0  0  0  0  0  0  0  0
  -28.5056  -13.4289   20.7651 C   0  0  0  0  0  0  0  0  0  0  0  0
  -28.3392  -16.5265   23.6910 C   0  0  0  0  0  0  0  0  0  0  0  0
  -26.5746  -28.7430   22.6681 C   0  0  1  0  0  0  0  0  0  0  0  0
  -25.2749  -25.8146   24.7098 C   0  0  1  0  0  0  0  0  0  0  0  0
  -27.4871  -12.9145   19.7363 C   0  0  2  0  0  0  0  0  0  0  0  0
  -28.8401  -18.6981   22.6606 C   0  0  2  0  0  0  0  0  0  0  0  0
  -31.1264  -19.5549   22.1113 C   0  0  0  0  0  0  0  0  0  0  0  0
  -31.6638  -15.3253   22.9022 C   0  0  0  0  0  0  0  0  0  0  0  0
  -26.5974  -22.1561   31.4083 C   0  0  0  0  0  0  0  0  0  0  0  0
  -27.6880  -20.8110   19.6390 C   0  0  0  0  0  0  0  0  0  0  0  0
  -29.3784  -26.0447   26.8240 C   0  0  0  0  0  0  0  0  0  0  0  0
  -29.6367  -24.5823   28.8396 C   0  0  0  0  0  0  0  0  0  0  0  0
  -28.2391  -26.6445   28.9679 C   0  0  0  0  0  0  0  0  0  0  0  0
  -23.7765  -21.4525   28.9541 C   0  0  0  0  0  0  0  0  0  0  0  0
  -29.9768  -19.6448   23.0596 C   0  0  0  0  0  0  0  0  0  0  0  0
  -28.3789  -18.9829   21.2292 C   0  0  0  0  0  0  0  0  0  0  0  0
  -29.7724  -16.4845   21.6248 C   0  0  0  0  0  0  0  0  0  0  0  0
  -30.4507  -15.1662   21.9938 C   0  0  1  0  0  0  0  0  0  0  0  0
  -27.3835  -24.6456   27.6778 C   0  0  1  0  0  0  0  0  0  0  0  0
  -25.6596  -22.4590   30.2501 C   0  0  2  0  0  0  0  0  0  0  0  0
  -27.7271  -20.3608   21.0932 C   0  0  2  0  0  0  0  0  0  1  0  0
  -28.6476  -25.4691   28.0535 C   0  0  0  0  0  0  0  0  0  0  0  0
  -25.6844  -11.6394   20.8358 N   0  0  0  0  0  0  0  0  0  0  0  0
  -26.0849  -12.8086   20.3081 N   0  0  0  0  0  0  0  0  0  0  0  0
  -26.0757  -24.9746   25.6028 N   0  0  0  0  0  0  0  0  0  0  0  0
  -29.8510  -13.5879   20.1925 N   0  0  0  0  0  0  0  0  0  0  0  0
  -25.3749  -15.0259   19.8719 N   0  0  0  0  0  0  0  0  0  0  0  0
  -21.7929  -13.8337   20.2497 N   0  0  0  0  0  0  0  0  0  0  0  0
  -25.8025  -27.8401   23.4947 N   0  0  0  0  0  0  0  0  0  0  0  0
  -26.6561  -24.1111   28.8240 N   0  0  0  0  0  0  0  0  0  0  0  0
  -29.3522  -17.2534   22.8378 N   0  3  2  0  0  0  0  0  0  0  0  0
  -24.7667  -21.2830   30.0485 N   0  3  0  0  0  0  0  0  0  0  0  0
  -22.5852  -14.5041   22.2946 O   0  0  0  0  0  0  0  0  0  0  0  0
  -27.2989  -26.0561   23.5181 O   0  0  0  0  0  0  0  0  0  0  0  0
  -31.9707  -14.5401   20.2811 O   0  0  0  0  0  0  0  0  0  0  0  0
  -25.8936  -26.4678   27.3842 O   0  0  0  0  0  0  0  0  0  0  0  0
  -26.8024  -21.8823   28.2010 O   0  0  0  0  0  0  0  0  0  0  0  0
  -21.3826   -7.9023   23.6785 O   0  0  0  0  0  0  0  0  0  0  0  0
  -26.3917  -20.2981   21.5924 O   0  0  0  0  0  0  0  0  0  1  0  0
  -23.1610   -2.7010   23.2457 F   0  0  0  0  0  0  0  0  0  0  0  0
  -19.8213   -5.9652   22.4733 F   0  0  0  0  0  0  0  0  0  0  0  0
  1  2  1  0  0  0  0
  1  5  2  0  0  0  0
  2  6  2  0  0  0  0
  3  8  2  0  0  0  0
  3 15  1  0  0  0  0
  4  9  1  0  0  0  0
  4 15  2  0  0  0  0
  5 17  1  0  0  0  0
  6 19  1  0  0  0  0
  7 10  2  0  0  0  0
  7 18  1  0  0  0  0
  8 21  1  0  0  0  0
  9 21  2  0  0  0  0
 10 22  1  0  0  0  0
 11 12  2  0  0  0  0
 11 23  1  0  0  0  0
 12 24  1  0  0  0  0
 13 20  1  0  0  0  0
 13 22  2  0  0  0  0
 14 24  2  0  0  0  0
 14 25  1  0  0  0  0
 15 26  1  0  0  0  0
 16 26  1  0  0  0  0
 16 27  2  0  0  0  0
 16 28  1  0  0  0  0
 17 19  2  0  0  0  0
 17 33  1  0  0  0  0
 18 20  2  0  0  0  0
 18 34  1  0  0  0  0
 19 45  1  0  0  0  0
 20 35  1  0  0  0  0
 21 80  1  0  0  0  0
 22 81  1  0  0  0  0
 23 25  2  0  0  0  0
 23 80  1  0  0  0  0
 24 82  1  0  0  0  0
 25 83  1  0  0  0  0
 26 65  2  0  0  0  0
 27 66  1  0  0  0  0
 27 69  1  0  0  0  0
 28 70  1  0  0  0  0
 28 75  2  0  0  0  0
 29 46  1  0  0  0  0
 29 71  1  0  0  0  0
 29 76  2  0  0  0  0
 30 60  1  0  0  0  0
 30 68  1  0  0  0  0
 30 77  2  0  0  0  0
 31 61  1  0  0  0  0
 31 67  1  0  0  0  0
 31 78  2  0  0  0  0
 32 62  1  0  0  0  0
 32 72  1  0  0  0  0
 32 79  2  0  0  0  0
 33 36  1  0  0  0  0
 34 46  1  0  0  0  0
 35 67  1  0  0  0  0
 36 39  1  0  0  0  0
 37 40  1  0  0  0  0
 37 42  1  0  0  0  0
 38 41  1  0  0  0  0
 38 44  1  0  0  0  0
 39 45  1  0  0  0  0
 40 47  1  0  0  0  0
 41 48  1  0  0  0  0
 42 68  1  0  0  0  0
 43 47  1  0  0  0  0
 43 68  1  0  0  0  0
 44 73  1  0  0  0  0
 45 71  1  0  0  0  0
 46 67  1  0  0  0  0
 47 66  1  0  0  0  0
 48 57  1  0  0  0  0
 48 58  1  0  0  0  0
 48 73  1  0  0  0  0
 49 57  1  0  0  0  0
 50 60  1  0  0  0  0
 51 62  1  0  0  0  0
 52 63  1  0  0  0  0
 53 64  1  0  0  0  0
 54 64  1  0  0  0  0
 55 64  1  0  0  0  0
 56 74  1  0  0  0  0
 58 63  1  0  0  0  0
 59 60  1  0  0  0  0
 59 73  1  0  0  0  0
 61 64  1  0  0  0  0
 61 72  1  0  0  0  0
 62 74  1  0  0  0  0
 63 81  1  0  0  0  0
 65 66  1  0  0  0  0
M  CHG  2  73   1  74   1
M  ISO  4  30 100  60 100  63 101  81 101
M  END
> <Batch ID>
0120

> <Smiles>
CCC1(C[101CH:1](C)[101O:1]c2ccc3c(c2)CN(C(=O)C(NC(=O)C(C)NC)C(C)(C)C)C(C(=O)NC2CCCc4ccccc42)C3)CCCN1C[100CH:0](C)[100C:0](=O)N1CCCC(n2nc(-c3ccc(Oc4ccc(F)cc4F)cc3)c(C(N)=O)c2N)C1

> <Shape>
0.233

> <Color>
0.138

> <Negative vol penalty>
0.000

$$$$

  -OEChem-04052320233D

 82 90  0     1  0  0  0  0  0999 V2000
  -33.4636  -32.8851   18.7464 C   0  0  0  0  0  0  0  0  0  0  0  0
  -34.1913  -31.7146   18.9353 C   0  0  0  0  0  0  0  0  0  0  0  0
  -23.0105   -9.8333   19.9908 C   0  0  0  0  0  0  0  0  0  0  0  0
  -23.7282   -9.9189   22.2961 C   0  0  0  0  0  0  0  0  0  0  0  0
  -32.0732  -32.8643   18.8480 C   0  0  0  0  0  0  0  0  0  0  0  0
  -33.5291  -30.5226   19.2271 C   0  0  0  0  0  0  0  0  0  0  0  0
  -34.0122  -23.4579   18.1441 C   0  0  0  0  0  0  0  0  0  0  0  0
  -22.2566   -8.6930   20.2677 C   0  0  0  0  0  0  0  0  0  0  0  0
  -22.9742   -8.7785   22.5731 C   0  0  0  0  0  0  0  0  0  0  0  0
  -34.0034  -22.2567   18.8518 C   0  0  0  0  0  0  0  0  0  0  0  0
  -23.2592   -5.4375   22.1397 C   0  0  0  0  0  0  0  0  0  0  0  0
  -23.8565   -4.4359   22.9050 C   0  0  0  0  0  0  0  0  0  0  0  0
  -31.0947  -17.1146   17.2823 C   0  0  0  0  0  0  0  0  0  0  0  0
  -31.5931  -22.3243   18.9248 C   0  0  0  0  0  0  0  0  0  0  0  0
  -22.1248   -4.6773   24.5724 C   0  0  0  0  0  0  0  0  0  0  0  0
  -32.3518  -17.4224   17.7538 C   0  0  0  0  0  0  0  0  0  0  0  0
  -23.7464  -10.4463   21.0050 C   0  0  0  0  0  0  0  0  0  0  0  0
  -24.1026  -12.9641   20.8016 C   0  0  0  0  0  0  0  0  0  0  0  0
  -31.3930  -31.6695   19.1317 C   0  0  0  0  0  0  0  0  0  0  0  0
  -32.8099  -24.1080   17.8304 C   0  0  0  0  0  0  0  0  0  0  0  0
  -32.1284  -30.4860   19.3340 C   0  0  0  0  0  0  0  0  0  0  0  0
  -31.5893  -23.5323   18.2108 C   0  0  0  0  0  0  0  0  0  0  0  0
  -30.1866  -17.2847   18.3563 C   0  0  0  0  0  0  0  0  0  0  0  0
  -22.2384   -8.1655   21.5589 C   0  0  0  0  0  0  0  0  0  0  0  0
  -32.7939  -21.6912   19.2447 C   0  0  0  0  0  0  0  0  0  0  0  0
  -22.0948   -6.0592   22.5909 C   0  0  0  0  0  0  0  0  0  0  0  0
  -23.2893   -4.0558   24.1213 C   0  0  0  0  0  0  0  0  0  0  0  0
  -21.5276   -5.6790   23.8072 C   0  0  0  0  0  0  0  0  0  0  0  0
  -24.5258  -11.6240   20.7193 C   0  0  0  0  0  0  0  0  0  0  0  0
  -30.9164  -17.6915   19.4514 C   0  0  0  0  0  0  0  0  0  0  0  0
  -25.2048  -13.6956   20.4322 C   0  0  0  0  0  0  0  0  0  0  0  0
  -22.8271  -13.4998   21.1783 C   0  0  0  0  0  0  0  0  0  0  0  0
  -31.5270  -26.9243   18.5562 C   0  0  0  0  0  0  0  0  0  0  0  0
  -29.2428  -25.9878   16.4520 C   0  0  0  0  0  0  0  0  0  0  0  0
  -27.6406  -23.4263   14.8649 C   0  0  0  0  0  0  0  0  0  0  0  0
  -30.6890  -14.6977   20.6858 C   0  0  0  0  0  0  0  0  0  0  0  0
  -29.8924  -31.7059   19.2785 C   0  0  0  0  0  0  0  0  0  0  0  0
  -32.8353  -25.3895   17.0433 C   0  0  0  0  0  0  0  0  0  0  0  0
  -30.2701  -24.1801   17.8811 C   0  0  0  0  0  0  0  0  0  0  0  0
  -29.2411  -30.3264   19.2206 C   0  0  0  0  0  0  0  0  0  0  0  0
  -29.5840  -12.2344   18.3647 C   0  0  0  0  0  0  0  0  0  0  0  0
  -29.9978  -29.3413   20.1058 C   0  0  0  0  0  0  0  0  0  0  0  0
  -28.1374  -11.9624   18.7810 C   0  0  0  0  0  0  0  0  0  0  0  0
  -30.4799  -12.4941   19.5737 C   0  0  0  0  0  0  0  0  0  0  0  0
  -28.5566  -13.2821   20.8980 C   0  0  0  0  0  0  0  0  0  0  0  0
  -31.4445  -29.1684   19.6275 C   0  0  1  0  0  0  0  0  0  0  0  0
  -31.5738  -26.2278   17.2256 C   0  0  1  0  0  0  0  0  0  0  0  0
  -27.6034  -13.0697   19.7094 C   0  0  2  0  0  0  0  0  0  0  0  0
  -27.9775  -18.2071   17.6110 C   0  0  0  0  0  0  0  0  0  0  0  0
  -25.7908  -22.9709   13.2315 C   0  0  0  0  0  0  0  0  0  0  0  0
  -27.1830  -26.5409   18.6340 C   0  0  0  0  0  0  0  0  0  0  0  0
  -25.5292  -25.2016   17.3152 C   0  0  0  0  0  0  0  0  0  0  0  0
  -26.5026  -27.2832   16.3448 C   0  0  0  0  0  0  0  0  0  0  0  0
  -29.4948  -22.1501   12.9435 C   0  0  0  0  0  0  0  0  0  0  0  0
  -28.7278  -17.0644   18.3032 C   0  0  0  0  0  0  0  0  0  0  0  0
  -30.4756  -18.0108   20.8260 C   0  0  0  0  0  0  0  0  0  0  0  0
  -33.3833  -18.1803   19.9590 C   0  0  0  0  0  0  0  0  0  0  0  0
  -30.7426  -16.8907   21.8465 C   0  0  0  0  0  0  0  0  0  0  0  0
  -33.8495  -19.6058   19.6838 C   0  0  0  0  0  0  0  0  0  1  0  0
  -27.9475  -25.2189   16.5522 C   0  0  1  0  0  0  0  0  0  0  0  0
  -27.2821  -23.2128   13.4054 C   0  0  2  0  0  0  0  0  0  0  0  0
  -26.8153  -26.0497   17.2196 C   0  0  0  0  0  0  0  0  0  0  0  0
  -25.7976  -11.5080   20.3282 N   0  0  0  0  0  0  0  0  0  0  0  0
  -32.2313  -17.7720   19.0734 N   0  0  0  0  0  0  0  0  0  0  0  0
  -26.1831  -12.7846   20.1614 N   0  0  0  0  0  0  0  0  0  0  0  0
  -30.3475  -25.4351   17.1153 N   0  0  0  0  0  0  0  0  0  0  0  0
  -29.9182  -13.5558   20.4122 N   0  0  0  0  0  0  0  0  0  0  0  0
  -25.4230  -15.0227   20.3158 N   0  0  0  0  0  0  0  0  0  0  0  0
  -21.8048  -12.6075   21.5288 N   0  0  0  0  0  0  0  0  0  0  0  0
  -31.4936  -28.3029   18.4687 N   0  0  0  0  0  0  0  0  0  0  0  0
  -27.6376  -24.7635   15.2013 N   0  0  0  0  0  0  0  0  0  0  0  0
  -30.0790  -15.6585   21.4830 N   0  0  0  0  0  0  0  0  0  0  0  0
  -28.0160  -22.0367   12.8584 N   0  3  0  0  0  0  0  0  0  0  0  0
  -22.5958  -14.7327   21.1874 O   0  0  0  0  0  0  0  0  0  0  0  0
  -31.5203  -26.2600   19.5859 O   0  0  0  0  0  0  0  0  0  0  0  0
  -29.2751  -27.0363   15.8029 O   0  0  0  0  0  0  0  0  0  0  0  0
  -27.8941  -22.4993   15.6311 O   0  0  0  0  0  0  0  0  0  0  0  0
  -31.8340  -14.8522   20.2474 O   0  0  0  0  0  0  0  0  0  0  0  0
  -21.5027   -7.0529   21.8296 O   0  0  0  0  0  0  0  0  0  0  0  0
  -32.7825  -20.5191   19.9361 O   0  0  0  0  0  0  0  0  0  1  0  0
  -23.8620   -3.0928   24.8553 F   0  0  0  0  0  0  0  0  0  0  0  0
  -20.4084   -6.2718   24.2452 F   0  0  0  0  0  0  0  0  0  0  0  0
  1  2  1  0  0  0  0
  1  5  2  0  0  0  0
  2  6  2  0  0  0  0
  3  8  2  0  0  0  0
  3 17  1  0  0  0  0
  4  9  1  0  0  0  0
  4 17  2  0  0  0  0
  5 19  1  0  0  0  0
  6 21  1  0  0  0  0
  7 10  2  0  0  0  0
  7 20  1  0  0  0  0
  8 24  1  0  0  0  0
  9 24  2  0  0  0  0
 10 25  1  0  0  0  0
 11 12  2  0  0  0  0
 11 26  1  0  0  0  0
 12 27  1  0  0  0  0
 13 16  2  0  0  0  0
 13 23  1  0  0  0  0
 14 22  1  0  0  0  0
 14 25  2  0  0  0  0
 15 27  2  0  0  0  0
 15 28  1  0  0  0  0
 16 64  1  0  0  0  0
 17 29  1  0  0  0  0
 18 29  1  0  0  0  0
 18 31  2  0  0  0  0
 18 32  1  0  0  0  0
 19 21  2  0  0  0  0
 19 37  1  0  0  0  0
 20 22  2  0  0  0  0
 20 38  1  0  0  0  0
 21 46  1  0  0  0  0
 22 39  1  0  0  0  0
 23 30  2  0  0  0  0
 23 55  1  0  0  0  0
 24 79  1  0  0  0  0
 25 80  1  0  0  0  0
 26 28  2  0  0  0  0
 26 79  1  0  0  0  0
 27 81  1  0  0  0  0
 28 82  1  0  0  0  0
 29 63  2  0  0  0  0
 30 56  1  0  0  0  0
 30 64  1  0  0  0  0
 31 65  1  0  0  0  0
 31 68  1  0  0  0  0
 32 69  1  0  0  0  0
 32 74  2  0  0  0  0
 33 47  1  0  0  0  0
 33 70  1  0  0  0  0
 33 75  2  0  0  0  0
 34 60  1  0  0  0  0
 34 66  1  0  0  0  0
 34 76  2  0  0  0  0
 35 61  1  0  0  0  0
 35 71  1  0  0  0  0
 35 77  2  0  0  0  0
 36 67  1  0  0  0  0
 36 72  1  0  0  0  0
 36 78  2  0  0  0  0
 37 40  1  0  0  0  0
 38 47  1  0  0  0  0
 39 66  1  0  0  0  0
 40 42  1  0  0  0  0
 41 43  1  0  0  0  0
 41 44  1  0  0  0  0
 42 46  1  0  0  0  0
 43 48  1  0  0  0  0
 44 67  1  0  0  0  0
 45 48  1  0  0  0  0
 45 67  1  0  0  0  0
 46 70  1  0  0  0  0
 47 66  1  0  0  0  0
 48 65  1  0  0  0  0
 49 55  1  0  0  0  0
 50 61  1  0  0  0  0
 51 62  1  0  0  0  0
 52 62  1  0  0  0  0
 53 62  1  0  0  0  0
 54 73  1  0  0  0  0
 56 58  1  0  0  0  0
 57 59  1  0  0  0  0
 57 64  1  0  0  0  0
 58 72  1  0  0  0  0
 59 80  1  0  0  0  0
 60 62  1  0  0  0  0
 60 71  1  0  0  0  0
 61 73  1  0  0  0  0
 63 65  1  0  0  0  0
M  CHG  1  73   1
M  ISO  4  36 100  59 101  72 100  80 101
M  END
> <Batch ID>
0120

> <Smiles>
CCc1ccn(C[101CH2:1][101O:1]c2ccc3c(c2)CN(C(=O)C(NC(=O)C(C)NC)C(C)(C)C)C(C(=O)NC2CCCc4ccccc42)C3)c1CC[100NH:0][100C:0](=O)N1CCCC(n2nc(-c3ccc(Oc4ccc(F)cc4F)cc3)c(C(N)=O)c2N)C1

> <Shape>
0.235

> <Color>
0.207

> <Negative vol penalty>
0.000

$$$$

  -OEChem-04052320233D

 89 98  0     1  0  0  0  0  0999 V2000
  -17.0373  -29.0393   24.3480 C   0  0  0  0  0  0  0  0  0  0  0  0
  -17.5344  -27.8864   23.7486 C   0  0  0  0  0  0  0  0  0  0  0  0
  -30.4619  -21.1631   19.5069 C   0  0  0  0  0  0  0  0  0  0  0  0
  -28.2079  -20.4600   20.0190 C   0  0  0  0  0  0  0  0  0  0  0  0
  -17.5826  -30.2815   24.0262 C   0  0  0  0  0  0  0  0  0  0  0  0
  -18.5764  -27.9752   22.8263 C   0  0  0  0  0  0  0  0  0  0  0  0
  -23.0959  -23.9305   21.9771 C   0  0  0  0  0  0  0  0  0  0  0  0
  -29.9630  -22.3020   18.8746 C   0  0  0  0  0  0  0  0  0  0  0  0
  -27.7090  -21.5989   19.3868 C   0  0  0  0  0  0  0  0  0  0  0  0
  -23.2778  -22.9092   21.0457 C   0  0  0  0  0  0  0  0  0  0  0  0
  -28.5634  -23.0877   15.9001 C   0  0  0  0  0  0  0  0  0  0  0  0
  -29.1103  -23.4343   14.6646 C   0  0  0  0  0  0  0  0  0  0  0  0
  -24.5984  -24.3969   19.6812 C   0  0  0  0  0  0  0  0  0  0  0  0
  -25.2839  -13.0202   19.2780 C   0  0  0  0  0  0  0  0  0  0  0  0
  -29.8149  -25.5594   15.5726 C   0  0  0  0  0  0  0  0  0  0  0  0
  -25.7353  -12.0461   21.4003 C   0  0  0  0  0  0  0  0  0  0  0  0
  -29.5844  -20.2421   20.0790 C   0  0  0  0  0  0  0  0  0  0  0  0
  -30.4493  -18.9300   22.0885 C   0  0  0  0  0  0  0  0  0  0  0  0
  -18.6383  -30.3846   23.1067 C   0  0  0  0  0  0  0  0  0  0  0  0
  -23.6556  -25.1981   21.7618 C   0  0  0  0  0  0  0  0  0  0  0  0
  -19.1355  -29.2201   22.4910 C   0  0  0  0  0  0  0  0  0  0  0  0
  -24.4242  -25.4319   20.6126 C   0  0  0  0  0  0  0  0  0  0  0  0
  -26.1436  -12.3013   20.1011 C   0  0  0  0  0  0  0  0  0  0  0  0
  -24.0595  -13.4558   19.7723 C   0  0  0  0  0  0  0  0  0  0  0  0
  -28.5866  -22.5199   18.8146 C   0  0  0  0  0  0  0  0  0  0  0  0
  -24.0267  -23.1431   19.8961 C   0  0  0  0  0  0  0  0  0  0  0  0
  -28.6422  -23.9771   16.9718 C   0  0  0  0  0  0  0  0  0  0  0  0
  -29.7360  -24.6701   14.5009 C   0  0  0  0  0  0  0  0  0  0  0  0
  -29.2680  -25.2129   16.8081 C   0  0  0  0  0  0  0  0  0  0  0  0
  -30.0991  -19.0652   20.7317 C   0  0  0  0  0  0  0  0  0  0  0  0
  -23.7444  -13.1487   21.0862 C   0  0  0  0  0  0  0  0  0  0  0  0
  -30.8799  -17.6309   22.2042 C   0  0  0  0  0  0  0  0  0  0  0  0
  -30.3905  -19.8927   23.1494 C   0  0  0  0  0  0  0  0  0  0  0  0
  -22.4891  -28.1310   21.3863 C   0  0  0  0  0  0  0  0  0  0  0  0
  -25.6231  -28.9653   21.4531 C   0  0  0  0  0  0  0  0  0  0  0  0
  -28.8762  -28.0474   20.9824 C   0  0  0  0  0  0  0  0  0  0  0  0
  -29.7345  -12.6609   19.0677 C   0  0  0  0  0  0  0  0  0  0  0  0
  -19.1637  -31.7539   22.7552 C   0  0  0  0  0  0  0  0  0  0  0  0
  -23.4725  -26.2814   22.7891 C   0  0  0  0  0  0  0  0  0  0  0  0
  -25.0633  -26.7691   20.3445 C   0  0  0  0  0  0  0  0  0  0  0  0
  -20.5168  -31.7244   22.0491 C   0  0  0  0  0  0  0  0  0  0  0  0
  -32.9238  -14.1240   19.6715 C   0  0  0  0  0  0  0  0  0  0  0  0
  -20.5167  -30.6788   20.9385 C   0  0  0  0  0  0  0  0  0  0  0  0
  -32.5931  -15.5441   20.1341 C   0  0  0  0  0  0  0  0  0  0  0  0
  -23.8337  -17.9082   19.6663 C   0  0  0  0  0  0  0  0  0  0  0  0
  -23.5451  -17.6238   17.1802 C   0  0  0  0  0  0  0  0  0  0  0  0
  -31.9580  -13.6433   18.5907 C   0  0  0  0  0  0  0  0  0  0  0  0
  -30.1996  -15.1636   19.4094 C   0  0  0  0  0  0  0  0  0  0  0  0
  -23.2628  -16.5138   19.8856 C   0  0  0  0  0  0  0  0  0  0  0  0
  -22.9755  -16.2310   17.4122 C   0  0  0  0  0  0  0  0  0  0  0  0
  -20.2817  -29.2730   21.5043 C   0  0  1  0  0  0  0  0  0  0  0  0
  -23.6578  -27.6839   22.2181 C   0  0  1  0  0  0  0  0  0  0  0  0
  -23.2972  -18.5461   18.3796 C   0  0  0  0  0  0  0  0  0  0  0  0
  -31.1122  -15.6713   20.5389 C   0  0  2  0  0  0  0  0  0  0  0  0
  -31.2131  -28.9568   21.0781 C   0  0  0  0  0  0  0  0  0  0  0  0
  -25.1642  -30.4162   18.8085 C   0  0  0  0  0  0  0  0  0  0  0  0
  -27.6467  -30.4738   18.4894 C   0  0  0  0  0  0  0  0  0  0  0  0
  -26.6135  -31.6448   20.4346 C   0  0  0  0  0  0  0  0  0  0  0  0
  -29.6650  -26.1182   23.0835 C   0  0  0  0  0  0  0  0  0  0  0  0
  -22.2883  -13.2121   22.9654 C   0  0  0  0  0  0  0  0  0  0  0  0
  -27.4607  -11.8227   19.6027 C   0  0  0  0  0  0  0  0  0  0  0  0
  -23.1229  -14.2312   18.8934 C   0  0  0  0  0  0  0  0  0  0  0  0
  -23.9302  -19.9167   18.1495 C   0  0  0  0  0  0  0  0  0  0  0  0
  -23.5972  -20.8892   19.2706 C   0  0  0  0  0  0  0  0  0  1  0  0
  -26.7109  -29.1185   20.4177 C   0  0  1  0  0  0  0  0  0  0  0  0
  -30.1117  -28.2397   21.8432 C   0  0  2  0  0  0  0  0  0  0  0  0
  -26.5203  -30.3886   19.5414 C   0  0  0  0  0  0  0  0  0  0  0  0
  -24.5536  -12.4528   21.9159 N   0  0  0  0  0  0  0  0  0  0  0  0
  -30.2908  -17.9416   20.0353 N   0  0  0  0  0  0  0  0  0  0  0  0
  -30.7662  -17.0882   20.9582 N   0  0  0  0  0  0  0  0  0  0  0  0
  -24.8500  -27.7981   21.3757 N   0  0  0  0  0  0  0  0  0  0  0  0
  -30.5707  -13.7891   19.0380 N   0  0  0  0  0  0  0  0  0  0  0  0
  -31.3411  -16.9114   23.2492 N   0  0  0  0  0  0  0  0  0  0  0  0
  -29.9230  -21.1813   22.8572 N   0  0  0  0  0  0  0  0  0  0  0  0
  -21.4937  -28.7620   22.1078 N   0  0  0  0  0  0  0  0  0  0  0  0
  -27.9751  -29.0784   21.1448 N   0  0  0  0  0  0  0  0  0  0  0  0
  -28.4367  -12.8855   19.5105 N   0  0  0  0  0  0  0  0  0  0  0  0
  -23.5580  -15.6549   18.6800 N   0  3  0  0  0  0  0  0  0  0  0  0
  -30.6368  -26.9210   22.2975 N   0  3  0  0  0  0  0  0  0  0  0  0
  -30.7576  -19.6232   24.3182 O   0  0  0  0  0  0  0  0  0  0  0  0
  -22.4910  -27.9205   20.1791 O   0  0  0  0  0  0  0  0  0  0  0  0
  -25.4696  -29.8453   22.3039 O   0  0  0  0  0  0  0  0  0  0  0  0
  -28.7271  -27.0814   20.2374 O   0  0  0  0  0  0  0  0  0  0  0  0
  -30.1177  -11.5357   18.7299 O   0  0  0  0  0  0  0  0  0  0  0  0
  -28.0995  -23.6312   18.1980 O   0  0  0  0  0  0  0  0  0  0  0  0
  -24.2054  -22.1481   18.9851 O   0  0  0  0  0  0  0  0  0  1  0  0
  -22.5473  -13.5614   21.6111 O   0  0  0  0  0  0  0  0  0  0  0  0
  -30.2625  -25.0021   13.3148 F   0  0  0  0  0  0  0  0  0  0  0  0
  -29.3478  -26.0709   17.8344 F   0  0  0  0  0  0  0  0  0  0  0  0
  1  2  1  0  0  0  0
  1  5  2  0  0  0  0
  2  6  2  0  0  0  0
  3  8  2  0  0  0  0
  3 17  1  0  0  0  0
  4  9  1  0  0  0  0
  4 17  2  0  0  0  0
  5 19  1  0  0  0  0
  6 21  1  0  0  0  0
  7 10  2  0  0  0  0
  7 20  1  0  0  0  0
  8 25  1  0  0  0  0
  9 25  2  0  0  0  0
 10 26  1  0  0  0  0
 11 12  2  0  0  0  0
 11 27  1  0  0  0  0
 12 28  1  0  0  0  0
 13 22  1  0  0  0  0
 13 26  2  0  0  0  0
 14 23  2  0  0  0  0
 14 24  1  0  0  0  0
 15 28  2  0  0  0  0
 15 29  1  0  0  0  0
 16 23  1  0  0  0  0
 16 68  2  0  0  0  0
 17 30  1  0  0  0  0
 18 30  1  0  0  0  0
 18 32  2  0  0  0  0
 18 33  1  0  0  0  0
 19 21  2  0  0  0  0
 19 38  1  0  0  0  0
 20 22  2  0  0  0  0
 20 39  1  0  0  0  0
 21 51  1  0  0  0  0
 22 40  1  0  0  0  0
 23 61  1  0  0  0  0
 24 31  2  0  0  0  0
 24 62  1  0  0  0  0
 25 85  1  0  0  0  0
 26 86  1  0  0  0  0
 27 29  2  0  0  0  0
 27 85  1  0  0  0  0
 28 88  1  0  0  0  0
 29 89  1  0  0  0  0
 30 69  2  0  0  0  0
 31 68  1  0  0  0  0
 31 87  1  0  0  0  0
 32 70  1  0  0  0  0
 32 73  1  0  0  0  0
 33 74  1  0  0  0  0
 33 80  2  0  0  0  0
 34 52  1  0  0  0  0
 34 75  1  0  0  0  0
 34 81  2  0  0  0  0
 35 65  1  0  0  0  0
 35 71  1  0  0  0  0
 35 82  2  0  0  0  0
 36 66  1  0  0  0  0
 36 76  1  0  0  0  0
 36 83  2  0  0  0  0
 37 72  1  0  0  0  0
 37 77  1  0  0  0  0
 37 84  2  0  0  0  0
 38 41  1  0  0  0  0
 39 52  1  0  0  0  0
 40 71  1  0  0  0  0
 41 43  1  0  0  0  0
 42 44  1  0  0  0  0
 42 47  1  0  0  0  0
 43 51  1  0  0  0  0
 44 54  1  0  0  0  0
 45 49  1  0  0  0  0
 45 53  1  0  0  0  0
 46 50  1  0  0  0  0
 46 53  1  0  0  0  0
 47 72  1  0  0  0  0
 48 54  1  0  0  0  0
 48 72  1  0  0  0  0
 49 78  1  0  0  0  0
 50 78  1  0  0  0  0
 51 75  1  0  0  0  0
 52 71  1  0  0  0  0
 53 63  1  0  0  0  0
 54 70  1  0  0  0  0
 55 66  1  0  0  0  0
 56 67  1  0  0  0  0
 57 67  1  0  0  0  0
 58 67  1  0  0  0  0
 59 79  1  0  0  0  0
 60 87  1  0  0  0  0
 61 77  1  0  0  0  0
 62 78  1  0  0  0  0
 63 64  1  0  0  0  0
 64 86  1  0  0  0  0
 65 67  1  0  0  0  0
 65 76  1  0  0  0  0
 66 79  1  0  0  0  0
 69 70  1  0  0  0  0
M  CHG  2  78   1  79   1
M  ISO  4  37 100  64 101  77 100  86 101
M  END
> <Batch ID>
0120

> <Smiles>
CNC(C)C(=O)NC(C(=O)N1Cc2cc([101O:1][101CH2:1]CC3CCN(Cc4cc(C[100NH:0][100C:0](=O)N5CCCC(n6nc(-c7ccc(Oc8ccc(F)cc8F)cc7)c(C(N)=O)c6N)C5)cnc4OC)CC3)ccc2CC1C(=O)NC1CCCc2ccccc21)C(C)(C)C

> <Shape>
0.259

> <Color>
0.082

> <Negative vol penalty>
0.000

$$$$

  -OEChem-04052320233D

 85 94  0     1  0  0  0  0  0999 V2000
  -26.0805  -18.5604   28.2985 C   0  0  0  0  0  0  0  0  0  0  0  0
  -27.0632  -19.3314   27.6879 C   0  0  0  0  0  0  0  0  0  0  0  0
  -23.1017   -9.8373   19.9480 C   0  0  0  0  0  0  0  0  0  0  0  0
  -23.8527   -9.8804   22.2439 C   0  0  0  0  0  0  0  0  0  0  0  0
  -24.7555  -18.6688   27.8813 C   0  0  0  0  0  0  0  0  0  0  0  0
  -26.7195  -20.2198   26.6683 C   0  0  0  0  0  0  0  0  0  0  0  0
  -30.2175  -23.7622   23.1552 C   0  0  0  0  0  0  0  0  0  0  0  0
  -22.3806   -8.6715   20.2057 C   0  0  0  0  0  0  0  0  0  0  0  0
  -23.1314   -8.7146   22.5016 C   0  0  0  0  0  0  0  0  0  0  0  0
  -30.8584  -23.6746   21.9201 C   0  0  0  0  0  0  0  0  0  0  0  0
  -19.4437   -7.8280   21.6535 C   0  0  0  0  0  0  0  0  0  0  0  0
  -18.1399   -7.7508   21.1640 C   0  0  0  0  0  0  0  0  0  0  0  0
  -28.9924  -24.7943   20.8791 C   0  0  0  0  0  0  0  0  0  0  0  0
  -29.0440  -19.7769   19.8958 C   0  0  0  0  0  0  0  0  0  0  0  0
  -18.7440   -5.8077   19.8614 C   0  0  0  0  0  0  0  0  0  0  0  0
  -31.2843  -19.4187   19.1820 C   0  0  0  0  0  0  0  0  0  0  0  0
  -23.8378  -10.4417   20.9670 C   0  0  0  0  0  0  0  0  0  0  0  0
  -24.1286  -12.9722   20.8254 C   0  0  0  0  0  0  0  0  0  0  0  0
  -24.3983  -19.5501   26.8475 C   0  0  0  0  0  0  0  0  0  0  0  0
  -28.9523  -24.3578   23.2598 C   0  0  0  0  0  0  0  0  0  0  0  0
  -25.3842  -20.3611   26.2495 C   0  0  0  0  0  0  0  0  0  0  0  0
  -28.3387  -24.8905   22.1171 C   0  0  0  0  0  0  0  0  0  0  0  0
  -29.2137  -18.7656   20.8348 C   0  0  0  0  0  0  0  0  0  0  0  0
  -22.3954   -8.1102   21.4825 C   0  0  0  0  0  0  0  0  0  0  0  0
  -30.2447  -24.1881   20.7814 C   0  0  0  0  0  0  0  0  0  0  0  0
  -20.3978   -6.8952   21.2469 C   0  0  0  0  0  0  0  0  0  0  0  0
  -30.0942  -20.1157   19.0498 C   0  0  0  0  0  0  0  0  0  0  0  0
  -17.7900   -6.7406   20.2680 C   0  0  0  0  0  0  0  0  0  0  0  0
  -20.0479   -5.8850   20.3509 C   0  0  0  0  0  0  0  0  0  0  0  0
  -24.5835  -11.6457   20.7013 C   0  0  0  0  0  0  0  0  0  0  0  0
  -30.4432  -18.1288   20.8870 C   0  0  0  0  0  0  0  0  0  0  0  0
  -25.2066  -13.7405   20.4593 C   0  0  0  0  0  0  0  0  0  0  0  0
  -22.8463  -13.4657   21.2351 C   0  0  0  0  0  0  0  0  0  0  0  0
  -26.0690  -23.3578   24.1487 C   0  0  0  0  0  0  0  0  0  0  0  0
  -25.3051  -26.4920   23.8085 C   0  0  0  0  0  0  0  0  0  0  0  0
  -26.0036  -29.5040   22.3639 C   0  0  0  0  0  0  0  0  0  0  0  0
  -30.6677  -14.8729   20.6580 C   0  0  0  0  0  0  0  0  0  0  0  0
  -22.9481  -19.6332   26.4409 C   0  0  0  0  0  0  0  0  0  0  0  0
  -28.2861  -24.4684   24.6038 C   0  0  0  0  0  0  0  0  0  0  0  0
  -26.9899  -25.5578   22.1793 C   0  0  0  0  0  0  0  0  0  0  0  0
  -22.7513  -20.2654   25.0669 C   0  0  0  0  0  0  0  0  0  0  0  0
  -29.5879  -12.4443   18.2889 C   0  0  0  0  0  0  0  0  0  0  0  0
  -27.0371  -19.4248   22.0604 C   0  0  0  0  0  0  0  0  0  0  0  0
  -28.0223  -19.0239   23.1135 C   0  0  0  0  0  0  0  0  0  0  0  0
  -23.5327  -21.5677   24.9772 C   0  0  0  0  0  0  0  0  0  0  0  0
  -28.1551  -12.1252   18.7193 C   0  0  0  0  0  0  0  0  0  0  0  0
  -30.4958  -12.6946   19.4910 C   0  0  0  0  0  0  0  0  0  0  0  0
  -28.5744  -13.3991   20.8641 C   0  0  0  0  0  0  0  0  0  0  0  0
  -28.0932  -18.3971   21.7448 C   0  0  0  0  0  0  0  0  0  0  0  0
  -25.0386  -21.3118   25.1176 C   0  0  1  0  0  0  0  0  0  0  0  0
  -26.7727  -24.6357   24.5085 C   0  0  1  0  0  0  0  0  0  0  0  0
  -27.6084  -13.1941   19.6846 C   0  0  2  0  0  0  0  0  0  0  0  0
  -25.1799  -31.8716   22.2483 C   0  0  0  0  0  0  0  0  0  0  0  0
  -23.0374  -25.6104   21.9673 C   0  0  0  0  0  0  0  0  0  0  0  0
  -22.8719  -27.9729   21.1550 C   0  0  0  0  0  0  0  0  0  0  0  0
  -22.4380  -27.4476   23.5547 C   0  0  0  0  0  0  0  0  0  0  0  0
  -28.5346  -30.5614   23.4752 C   0  0  0  0  0  0  0  0  0  0  0  0
  -30.6851  -17.0353   21.8756 C   0  0  0  0  0  0  0  0  0  0  0  0
  -30.7566  -23.2378   17.3250 C   0  0  0  0  0  0  0  0  0  0  0  0
  -30.0355  -24.0094   18.4191 C   0  0  0  0  0  0  0  0  0  1  0  0
  -31.1297  -21.8328   17.7712 C   0  0  0  0  0  0  0  0  0  0  0  0
  -24.8060  -27.3537   22.6739 C   0  0  1  0  0  0  0  0  0  0  0  0
  -26.1164  -30.9000   22.9495 C   0  0  2  0  0  0  0  0  0  0  0  0
  -23.3129  -27.0819   22.3359 C   0  0  0  0  0  0  0  0  0  0  0  0
  -31.4866  -18.4304   20.0821 N   0  0  0  0  0  0  0  0  0  0  0  0
  -25.8516  -11.5719   20.2884 N   0  0  0  0  0  0  0  0  0  0  0  0
  -26.2027  -12.8617   20.1498 N   0  0  0  0  0  0  0  0  0  0  0  0
  -26.3760  -25.6358   23.5152 N   0  0  0  0  0  0  0  0  0  0  0  0
  -29.9211  -13.7195   20.3657 N   0  0  0  0  0  0  0  0  0  0  0  0
  -25.3901  -15.0752   20.3749 N   0  0  0  0  0  0  0  0  0  0  0  0
  -21.8518  -12.5391   21.5769 N   0  0  0  0  0  0  0  0  0  0  0  0
  -25.7238  -22.5798   25.2373 N   0  0  0  0  0  0  0  0  0  0  0  0
  -25.0913  -28.7333   23.0530 N   0  0  0  0  0  0  0  0  0  0  0  0
  -30.0466  -15.7968   21.4895 N   0  0  0  0  0  0  0  0  0  0  0  0
  -27.5104  -31.4085   22.8115 N   0  3  0  0  0  0  0  0  0  0  0  0
  -22.5848  -14.6917   21.2804 O   0  0  0  0  0  0  0  0  0  0  0  0
  -25.8537  -23.0976   22.9707 O   0  0  0  0  0  0  0  0  0  0  0  0
  -24.7694  -26.5806   24.9161 O   0  0  0  0  0  0  0  0  0  0  0  0
  -26.6567  -29.1354   21.3902 O   0  0  0  0  0  0  0  0  0  0  0  0
  -31.8016  -15.0674   20.2069 O   0  0  0  0  0  0  0  0  0  0  0  0
  -21.6916   -6.9727   21.7344 O   0  0  0  0  0  0  0  0  0  0  0  0
  -30.8677  -24.1033   19.5745 O   0  0  0  0  0  0  0  0  0  1  0  0
  -29.9564  -21.1082   18.1145 O   0  0  0  0  0  0  0  0  0  0  0  0
  -16.5375   -6.6656   19.7992 F   0  0  0  0  0  0  0  0  0  0  0  0
  -20.9598   -4.9852   19.9576 F   0  0  0  0  0  0  0  0  0  0  0  0
  1  2  1  0  0  0  0
  1  5  2  0  0  0  0
  2  6  2  0  0  0  0
  3  8  2  0  0  0  0
  3 17  1  0  0  0  0
  4  9  1  0  0  0  0
  4 17  2  0  0  0  0
  5 19  1  0  0  0  0
  6 21  1  0  0  0  0
  7 10  2  0  0  0  0
  7 20  1  0  0  0  0
  8 24  1  0  0  0  0
  9 24  2  0  0  0  0
 10 25  1  0  0  0  0
 11 12  2  0  0  0  0
 11 26  1  0  0  0  0
 12 28  1  0  0  0  0
 13 22  1  0  0  0  0
 13 25  2  0  0  0  0
 14 23  1  0  0  0  0
 14 27  2  0  0  0  0
 15 28  2  0  0  0  0
 15 29  1  0  0  0  0
 16 27  1  0  0  0  0
 16 65  2  0  0  0  0
 17 30  1  0  0  0  0
 18 30  1  0  0  0  0
 18 32  2  0  0  0  0
 18 33  1  0  0  0  0
 19 21  2  0  0  0  0
 19 38  1  0  0  0  0
 20 22  2  0  0  0  0
 20 39  1  0  0  0  0
 21 50  1  0  0  0  0
 22 40  1  0  0  0  0
 23 31  2  0  0  0  0
 23 49  1  0  0  0  0
 24 81  1  0  0  0  0
 25 82  1  0  0  0  0
 26 29  2  0  0  0  0
 26 81  1  0  0  0  0
 27 83  1  0  0  0  0
 28 84  1  0  0  0  0
 29 85  1  0  0  0  0
 30 66  2  0  0  0  0
 31 58  1  0  0  0  0
 31 65  1  0  0  0  0
 32 67  1  0  0  0  0
 32 70  1  0  0  0  0
 33 71  1  0  0  0  0
 33 76  2  0  0  0  0
 34 51  1  0  0  0  0
 34 72  1  0  0  0  0
 34 77  2  0  0  0  0
 35 62  1  0  0  0  0
 35 68  1  0  0  0  0
 35 78  2  0  0  0  0
 36 63  1  0  0  0  0
 36 73  1  0  0  0  0
 36 79  2  0  0  0  0
 37 69  1  0  0  0  0
 37 74  1  0  0  0  0
 37 80  2  0  0  0  0
 38 41  1  0  0  0  0
 39 51  1  0  0  0  0
 40 68  1  0  0  0  0
 41 45  1  0  0  0  0
 42 46  1  0  0  0  0
 42 47  1  0  0  0  0
 43 44  1  0  0  0  0
 43 49  1  0  0  0  0
 44 49  1  0  0  0  0
 45 50  1  0  0  0  0
 46 52  1  0  0  0  0
 47 69  1  0  0  0  0
 48 52  1  0  0  0  0
 48 69  1  0  0  0  0
 50 72  1  0  0  0  0
 51 68  1  0  0  0  0
 52 67  1  0  0  0  0
 53 63  1  0  0  0  0
 54 64  1  0  0  0  0
 55 64  1  0  0  0  0
 56 64  1  0  0  0  0
 57 75  1  0  0  0  0
 58 74  1  0  0  0  0
 59 60  1  0  0  0  0
 59 61  1  0  0  0  0
 60 82  1  0  0  0  0
 61 83  1  0  0  0  0
 62 64  1  0  0  0  0
 62 73  1  0  0  0  0
 63 75  1  0  0  0  0
 66 67  1  0  0  0  0
M  CHG  1  75   1
M  ISO  4  37 100  60 101  74 100  82 101
M  END
> <Batch ID>
0120

> <Smiles>
CNC(C)C(=O)NC(C(=O)N1Cc2cc([101O:1][101CH2:1]CCOc3cnc(C[100NH:0][100C:0](=O)N4CCCC(n5nc(-c6ccc(Oc7ccc(F)cc7F)cc6)c(C(N)=O)c5N)C4)c(C4CC4)c3)ccc2CC1C(=O)NC1CCCc2ccccc21)C(C)(C)C

> <Shape>
0.247

> <Color>
0.200

> <Negative vol penalty>
0.000

$$$$

  -OEChem-04052320233D

 85 94  0     1  0  0  0  0  0999 V2000
  -19.3985  -27.8111   16.1284 C   0  0  0  0  0  0  0  0  0  0  0  0
  -20.7585  -27.6438   16.3691 C   0  0  0  0  0  0  0  0  0  0  0  0
  -24.2053   -9.1014   21.7248 C   0  0  0  0  0  0  0  0  0  0  0  0
  -23.1568  -10.1748   19.8313 C   0  0  0  0  0  0  0  0  0  0  0  0
  -18.7973  -29.0472   16.3618 C   0  0  0  0  0  0  0  0  0  0  0  0
  -21.5183  -28.7130   16.8424 C   0  0  0  0  0  0  0  0  0  0  0  0
  -27.7741  -21.1741   18.6600 C   0  0  0  0  0  0  0  0  0  0  0  0
  -30.1830  -21.0114   18.7500 C   0  0  0  0  0  0  0  0  0  0  0  0
  -24.6244  -27.3716   20.6104 C   0  0  0  0  0  0  0  0  0  0  0  0
  -27.8812  -22.4293   18.0613 C   0  0  0  0  0  0  0  0  0  0  0  0
  -30.2901  -22.2666   18.1512 C   0  0  0  0  0  0  0  0  0  0  0  0
  -22.9540   -8.9158   22.3125 C   0  0  0  0  0  0  0  0  0  0  0  0
  -21.9055   -9.9892   20.4189 C   0  0  0  0  0  0  0  0  0  0  0  0
  -25.7966  -26.7024   20.2616 C   0  0  0  0  0  0  0  0  0  0  0  0
  -20.3390   -6.7969   21.9875 C   0  0  0  0  0  0  0  0  0  0  0  0
  -20.0633   -5.5483   22.5447 C   0  0  0  0  0  0  0  0  0  0  0  0
  -27.0300  -28.7646   20.4741 C   0  0  0  0  0  0  0  0  0  0  0  0
  -19.7287   -6.5845   24.7014 C   0  0  0  0  0  0  0  0  0  0  0  0
  -24.3067   -9.7310   20.4842 C   0  0  0  0  0  0  0  0  0  0  0  0
  -26.2691   -9.0430   19.0066 C   0  0  0  0  0  0  0  0  0  0  0  0
  -28.9250  -20.4651   19.0045 C   0  0  0  0  0  0  0  0  0  0  0  0
  -19.5481  -30.1294   16.8473 C   0  0  0  0  0  0  0  0  0  0  0  0
  -24.6443  -28.7469   20.8836 C   0  0  0  0  0  0  0  0  0  0  0  0
  -20.9268  -29.9652   17.0812 C   0  0  0  0  0  0  0  0  0  0  0  0
  -25.8571  -29.4484   20.8287 C   0  0  0  0  0  0  0  0  0  0  0  0
  -29.1392  -22.9756   17.8069 C   0  0  0  0  0  0  0  0  0  0  0  0
  -21.8040   -9.3596   21.6595 C   0  0  0  0  0  0  0  0  0  0  0  0
  -26.9992  -27.3994   20.1905 C   0  0  0  0  0  0  0  0  0  0  0  0
  -20.3096   -7.9394   22.7873 C   0  0  0  0  0  0  0  0  0  0  0  0
  -19.7581   -5.4420   23.9016 C   0  0  0  0  0  0  0  0  0  0  0  0
  -20.0044   -7.8332   24.1442 C   0  0  0  0  0  0  0  0  0  0  0  0
  -25.5991   -9.9235   19.8770 C   0  0  0  0  0  0  0  0  0  0  0  0
  -27.4494   -9.6814   18.7139 C   0  0  0  0  0  0  0  0  0  0  0  0
  -25.8609   -7.7624   18.5072 C   0  0  0  0  0  0  0  0  0  0  0  0
  -23.2845  -31.3112   19.5877 C   0  0  0  0  0  0  0  0  0  0  0  0
  -24.6104  -32.8202   22.1347 C   0  0  0  0  0  0  0  0  0  0  0  0
  -27.0278  -32.8585   24.5433 C   0  0  0  0  0  0  0  0  0  0  0  0
  -28.6444  -15.6305   19.0595 C   0  0  0  0  0  0  0  0  0  0  0  0
  -18.8638  -31.4596   17.0395 C   0  0  0  0  0  0  0  0  0  0  0  0
  -23.3758  -29.4488   21.2845 C   0  0  0  0  0  0  0  0  0  0  0  0
  -25.9356  -30.9216   21.1324 C   0  0  0  0  0  0  0  0  0  0  0  0
  -19.6631  -32.4375   17.8970 C   0  0  0  0  0  0  0  0  0  0  0  0
  -30.5895  -12.7884   20.5247 C   0  0  0  0  0  0  0  0  0  0  0  0
  -21.1216  -32.4693   17.4516 C   0  0  0  0  0  0  0  0  0  0  0  0
  -29.5393  -11.6788   20.5075 C   0  0  0  0  0  0  0  0  0  0  0  0
  -29.9408  -14.1619   20.6505 C   0  0  0  0  0  0  0  0  0  0  0  0
  -29.9325  -16.7005   20.8847 C   0  0  0  0  0  0  0  0  0  0  0  0
  -29.5031  -18.0048   18.8293 C   0  0  0  0  0  0  0  0  0  0  0  0
  -27.8696  -13.3424   19.5721 C   0  0  0  0  0  0  0  0  0  0  0  0
  -29.2363  -17.7499   21.7329 C   0  0  0  0  0  0  0  0  0  0  0  0
  -21.7795  -31.0942   17.6182 C   0  0  1  0  0  0  0  0  0  0  0  0
  -28.8097  -19.1034   19.6540 C   0  0  1  0  0  0  0  0  0  0  0  0
  -23.4230  -30.9540   21.0406 C   0  0  1  0  0  0  0  0  0  0  0  0
  -28.4816  -11.9399   19.4219 C   0  0  2  0  0  0  0  0  0  0  0  0
  -27.8805  -34.2405   26.4565 C   0  0  0  0  0  0  0  0  0  0  0  0
  -25.8949  -34.7584   20.1589 C   0  0  0  0  0  0  0  0  0  0  0  0
  -27.4431  -35.4864   21.9868 C   0  0  0  0  0  0  0  0  0  0  0  0
  -24.9839  -35.8285   22.2276 C   0  0  0  0  0  0  0  0  0  0  0  0
  -26.5054  -30.6931   26.4920 C   0  0  0  0  0  0  0  0  0  0  0  0
  -29.2529  -24.3170   17.1650 C   0  0  0  0  0  0  0  0  0  0  0  0
  -29.2957  -25.4907   18.1563 C   0  0  0  0  0  0  0  0  0  0  0  0
  -28.0204  -25.6251   18.9803 C   0  0  0  0  0  0  0  0  0  1  0  0
  -25.9339  -33.4926   22.4089 C   0  0  1  0  0  0  0  0  0  0  0  0
  -26.9556  -33.1079   26.0390 C   0  0  2  0  0  0  0  0  0  0  0  0
  -26.0625  -34.8641   21.6879 C   0  0  0  0  0  0  0  0  0  0  0  0
  -26.2959  -11.0365   20.1214 N   0  0  0  0  0  0  0  0  0  0  0  0
  -27.4161  -10.8595   19.4003 N   0  0  0  0  0  0  0  0  0  0  0  0
  -24.6672  -31.5645   21.5136 N   0  0  0  0  0  0  0  0  0  0  0  0
  -28.9094  -14.3721   19.6252 N   0  0  0  0  0  0  0  0  0  0  0  0
  -29.4221  -16.7060   19.5141 N   0  0  0  0  0  0  0  0  0  0  0  0
  -28.5022   -9.3443   17.9390 N   0  0  0  0  0  0  0  0  0  0  0  0
  -24.6179   -7.2541   18.9083 N   0  0  0  0  0  0  0  0  0  0  0  0
  -22.1152  -30.8594   19.0063 N   0  0  0  0  0  0  0  0  0  0  0  0
  -26.0614  -33.5662   23.8603 N   0  0  0  0  0  0  0  0  0  0  0  0
  -29.3645  -19.0776   21.0571 N   0  3  0  0  0  0  0  0  0  0  0  0
  -27.3474  -31.8807   26.7882 N   0  3  0  0  0  0  0  0  0  0  0  0
  -26.5845   -7.0816   17.7415 O   0  0  0  0  0  0  0  0  0  0  0  0
  -24.1720  -31.9507   19.0354 O   0  0  0  0  0  0  0  0  0  0  0  0
  -23.5650  -33.3850   22.4660 O   0  0  0  0  0  0  0  0  0  0  0  0
  -27.8607  -32.1136   24.0317 O   0  0  0  0  0  0  0  0  0  0  0  0
  -27.7699  -15.7807   18.1972 O   0  0  0  0  0  0  0  0  0  0  0  0
  -20.5828   -9.1784   22.2325 O   0  0  0  0  0  0  0  0  0  0  0  0
  -28.1528  -26.7442   19.8472 O   0  0  0  0  0  0  0  0  0  1  0  0
  -19.4918   -4.2431   24.4362 F   0  0  0  0  0  0  0  0  0  0  0  0
  -19.9735   -8.9273   24.9173 F   0  0  0  0  0  0  0  0  0  0  0  0
  1  2  1  0  0  0  0
  1  5  2  0  0  0  0
  2  6  2  0  0  0  0
  3 12  2  0  0  0  0
  3 19  1  0  0  0  0
  4 13  1  0  0  0  0
  4 19  2  0  0  0  0
  5 22  1  0  0  0  0
  6 24  1  0  0  0  0
  7 10  2  0  0  0  0
  7 21  1  0  0  0  0
  8 11  1  0  0  0  0
  8 21  2  0  0  0  0
  9 14  2  0  0  0  0
  9 23  1  0  0  0  0
 10 26  1  0  0  0  0
 11 26  2  0  0  0  0
 12 27  1  0  0  0  0
 13 27  2  0  0  0  0
 14 28  1  0  0  0  0
 15 16  2  0  0  0  0
 15 29  1  0  0  0  0
 16 30  1  0  0  0  0
 17 25  1  0  0  0  0
 17 28  2  0  0  0  0
 18 30  2  0  0  0  0
 18 31  1  0  0  0  0
 19 32  1  0  0  0  0
 20 32  1  0  0  0  0
 20 33  2  0  0  0  0
 20 34  1  0  0  0  0
 21 52  1  0  0  0  0
 22 24  2  0  0  0  0
 22 39  1  0  0  0  0
 23 25  2  0  0  0  0
 23 40  1  0  0  0  0
 24 51  1  0  0  0  0
 25 41  1  0  0  0  0
 26 60  1  0  0  0  0
 27 82  1  0  0  0  0
 28 83  1  0  0  0  0
 29 31  2  0  0  0  0
 29 82  1  0  0  0  0
 30 84  1  0  0  0  0
 31 85  1  0  0  0  0
 32 66  2  0  0  0  0
 33 67  1  0  0  0  0
 33 71  1  0  0  0  0
 34 72  1  0  0  0  0
 34 77  2  0  0  0  0
 35 53  1  0  0  0  0
 35 73  1  0  0  0  0
 35 78  2  0  0  0  0
 36 63  1  0  0  0  0
 36 68  1  0  0  0  0
 36 79  2  0  0  0  0
 37 64  1  0  0  0  0
 37 74  1  0  0  0  0
 37 80  2  0  0  0  0
 38 69  1  0  0  0  0
 38 70  1  0  0  0  0
 38 81  2  0  0  0  0
 39 42  1  0  0  0  0
 40 53  1  0  0  0  0
 41 68  1  0  0  0  0
 42 44  1  0  0  0  0
 43 45  1  0  0  0  0
 43 46  1  0  0  0  0
 44 51  1  0  0  0  0
 45 54  1  0  0  0  0
 46 69  1  0  0  0  0
 47 50  1  0  0  0  0
 47 70  1  0  0  0  0
 48 52  1  0  0  0  0
 48 70  1  0  0  0  0
 49 54  1  0  0  0  0
 49 69  1  0  0  0  0
 50 75  1  0  0  0  0
 51 73  1  0  0  0  0
 52 75  1  0  0  0  0
 53 68  1  0  0  0  0
 54 67  1  0  0  0  0
 55 64  1  0  0  0  0
 56 65  1  0  0  0  0
 57 65  1  0  0  0  0
 58 65  1  0  0  0  0
 59 76  1  0  0  0  0
 60 61  1  0  0  0  0
 61 62  1  0  0  0  0
 62 83  1  0  0  0  0
 63 65  1  0  0  0  0
 63 74  1  0  0  0  0
 64 76  1  0  0  0  0
 66 67  1  0  0  0  0
M  CHG  2  75   1  76   1
M  ISO  4  38 100  62 101  70 100  83 101
M  END
> <Batch ID>
0120

> <Smiles>
CNC(C)C(=O)NC(C(=O)N1Cc2cc([101O:1][101CH2:1]CCc3ccc(C4C[100N:0]([100C:0](=O)N5CCCC(n6nc(-c7ccc(Oc8ccc(F)cc8F)cc7)c(C(N)=O)c6N)C5)CCN4)cc3)ccc2CC1C(=O)NC1CCCc2ccccc21)C(C)(C)C

> <Shape>
0.280

> <Color>
0.107

> <Negative vol penalty>
0.000

$$$$

  -OEChem-04052320233D

 85 94  0     1  0  0  0  0  0999 V2000
  -16.4932  -29.0541   23.3605 C   0  0  0  0  0  0  0  0  0  0  0  0
  -17.3970  -28.5543   22.4285 C   0  0  0  0  0  0  0  0  0  0  0  0
  -24.4854  -14.4410   21.4401 C   0  0  0  0  0  0  0  0  0  0  0  0
  -26.2664  -12.8278   21.1902 C   0  0  0  0  0  0  0  0  0  0  0  0
  -16.9494  -29.8290   24.4261 C   0  0  0  0  0  0  0  0  0  0  0  0
  -18.7575  -28.8299   22.5610 C   0  0  0  0  0  0  0  0  0  0  0  0
  -23.4209  -25.1372   21.1041 C   0  0  0  0  0  0  0  0  0  0  0  0
  -23.6216  -13.4243   21.8472 C   0  0  0  0  0  0  0  0  0  0  0  0
  -25.4026  -11.8110   21.5973 C   0  0  0  0  0  0  0  0  0  0  0  0
  -24.2481  -25.0681   19.9839 C   0  0  0  0  0  0  0  0  0  0  0  0
  -22.9243   -9.9551   20.2392 C   0  0  0  0  0  0  0  0  0  0  0  0
  -22.9295   -8.7682   19.5065 C   0  0  0  0  0  0  0  0  0  0  0  0
  -25.9000  -26.4021   21.1290 C   0  0  0  0  0  0  0  0  0  0  0  0
  -23.5738   -7.5470   21.4892 C   0  0  0  0  0  0  0  0  0  0  0  0
  -25.8079  -14.1427   21.1116 C   0  0  0  0  0  0  0  0  0  0  0  0
  -26.5510  -16.0394   19.5760 C   0  0  0  0  0  0  0  0  0  0  0  0
  -18.3172  -30.1063   24.5771 C   0  0  0  0  0  0  0  0  0  0  0  0
  -23.8231  -25.8496   22.2430 C   0  0  0  0  0  0  0  0  0  0  0  0
  -19.2322  -29.6104   23.6288 C   0  0  0  0  0  0  0  0  0  0  0  0
  -25.0771  -26.4765   22.2632 C   0  0  0  0  0  0  0  0  0  0  0  0
  -24.0801  -12.1094   21.9258 C   0  0  0  0  0  0  0  0  0  0  0  0
  -25.4866  -25.7030   19.9952 C   0  0  0  0  0  0  0  0  0  0  0  0
  -23.2439   -9.9380   21.5969 C   0  0  0  0  0  0  0  0  0  0  0  0
  -23.2542   -7.5642   20.1315 C   0  0  0  0  0  0  0  0  0  0  0  0
  -23.5686   -8.7340   22.2219 C   0  0  0  0  0  0  0  0  0  0  0  0
  -26.7005  -15.1925   20.6905 C   0  0  0  0  0  0  0  0  0  0  0  0
  -27.6551  -16.8554   19.6143 C   0  0  0  0  0  0  0  0  0  0  0  0
  -29.3450  -25.6508   17.2914 C   0  0  0  0  0  0  0  0  0  0  0  0
  -25.5073  -16.0845   18.5940 C   0  0  0  0  0  0  0  0  0  0  0  0
  -28.4501  -24.9705   18.0344 C   0  0  0  0  0  0  0  0  0  0  0  0
  -22.7102  -28.3771   23.8169 C   0  0  0  0  0  0  0  0  0  0  0  0
  -25.0688  -27.6225   25.9122 C   0  0  0  0  0  0  0  0  0  0  0  0
  -28.0735  -26.1029   26.4680 C   0  0  0  0  0  0  0  0  0  0  0  0
  -31.2891  -19.9915   22.2468 C   0  0  0  0  0  0  0  0  0  0  0  0
  -18.7575  -30.9879   25.7187 C   0  0  0  0  0  0  0  0  0  0  0  0
  -22.9306  -25.8921   23.4530 C   0  0  0  0  0  0  0  0  0  0  0  0
  -25.5642  -27.2370   23.4686 C   0  0  0  0  0  0  0  0  0  0  0  0
  -20.2571  -30.9214   25.9964 C   0  0  0  0  0  0  0  0  0  0  0  0
  -31.8696  -16.5860   22.3863 C   0  0  0  0  0  0  0  0  0  0  0  0
  -21.0462  -31.0306   24.6956 C   0  0  0  0  0  0  0  0  0  0  0  0
  -30.5690  -15.9746   21.8657 C   0  0  0  0  0  0  0  0  0  0  0  0
  -29.9854  -22.1164   19.5061 C   0  0  0  0  0  0  0  0  0  0  0  0
  -28.0991  -21.5697   21.0846 C   0  0  0  0  0  0  0  0  0  0  0  0
  -31.5874  -17.7712   23.3026 C   0  0  0  0  0  0  0  0  0  0  0  0
  -30.9815  -21.8257   20.6252 C   0  0  0  0  0  0  0  0  0  0  0  0
  -29.1297  -21.2950   22.1748 C   0  0  0  0  0  0  0  0  0  0  0  0
  -28.1667  -22.9645   16.5950 C   0  0  0  0  0  0  0  0  0  0  0  0
  -29.4554  -18.2444   22.1422 C   0  0  0  0  0  0  0  0  0  0  0  0
  -27.2603  -21.7629   16.7879 C   0  0  0  0  0  0  0  0  0  0  0  0
  -20.7185  -29.8670   23.7522 C   0  0  1  0  0  0  0  0  0  0  0  0
  -23.2220  -27.0768   24.3691 C   0  0  1  0  0  0  0  0  0  0  0  0
  -28.6307  -22.5790   20.0580 C   0  0  0  0  0  0  0  0  0  0  0  0
  -29.6827  -17.0436   21.2020 C   0  0  2  0  0  0  0  0  0  0  0  0
  -27.6248  -22.7856   18.9281 C   0  0  1  0  0  0  0  0  0  0  0  0
  -30.1663  -25.1167   16.1616 C   0  0  0  0  0  0  0  0  0  0  0  0
  -29.7666  -25.6867   28.2729 C   0  0  0  0  0  0  0  0  0  0  0  0
  -26.0466  -30.5014   25.6553 C   0  0  0  0  0  0  0  0  0  0  0  0
  -28.2135  -29.7836   26.6836 C   0  0  0  0  0  0  0  0  0  0  0  0
  -26.0931  -29.5877   27.9828 C   0  0  0  0  0  0  0  0  0  0  0  0
  -27.7416  -23.1691   26.2636 C   0  0  0  0  0  0  0  0  0  0  0  0
  -27.7031  -25.6893   19.1335 C   0  0  0  0  0  0  0  0  0  1  0  0
  -26.5232  -27.9972   26.0651 C   0  0  1  0  0  0  0  0  0  0  0  0
  -28.5353  -25.1524   27.5579 C   0  0  2  0  0  0  0  0  0  0  0  0
  -26.7094  -29.4548   26.5731 C   0  0  0  0  0  0  0  0  0  0  0  0
  -27.8121  -15.4468   21.3859 N   0  0  0  0  0  0  0  0  0  0  0  0
  -28.3712  -16.4627   20.7066 N   0  0  0  0  0  0  0  0  0  0  0  0
  -28.1242  -23.6599   17.8743 N   0  0  3  0  0  0  0  0  0  0  0  0
  -24.6528  -27.2551   24.6246 N   0  0  0  0  0  0  0  0  0  0  0  0
  -30.7399  -18.7610   22.6378 N   0  0  0  0  0  0  0  0  0  0  0  0
  -30.4256  -20.8974   21.6087 N   0  0  0  0  0  0  0  0  0  0  0  0
  -28.0737  -17.8633   18.8197 N   0  0  0  0  0  0  0  0  0  0  0  0
  -25.6407  -15.2994   17.4406 N   0  0  0  0  0  0  0  0  0  0  0  0
  -21.4067  -28.6656   24.1734 N   0  0  0  0  0  0  0  0  0  0  0  0
  -27.1173  -26.9828   26.9291 N   0  0  0  0  0  0  0  0  0  0  0  0
  -27.3864  -21.4674   18.2474 N   0  3  0  0  0  0  0  0  0  0  0  0
  -28.8697  -23.8214   26.9770 N   0  3  0  0  0  0  0  0  0  0  0  0
  -24.4944  -16.8123   18.7274 O   0  0  0  0  0  0  0  0  0  0  0  0
  -23.4442  -29.0683   23.1202 O   0  0  0  0  0  0  0  0  0  0  0  0
  -24.3306  -27.6479   26.9002 O   0  0  0  0  0  0  0  0  0  0  0  0
  -28.5193  -26.0705   25.3231 O   0  0  0  0  0  0  0  0  0  0  0  0
  -32.4786  -20.2650   22.4500 O   0  0  0  0  0  0  0  0  0  0  0  0
  -23.2376  -11.1170   22.3232 O   0  0  0  0  0  0  0  0  0  0  0  0
  -26.3010  -25.6373   18.8957 O   0  0  0  0  0  0  0  0  0  1  0  0
  -23.2577   -6.4243   19.4281 F   0  0  0  0  0  0  0  0  0  0  0  0
  -23.8754   -8.7111   23.5262 F   0  0  0  0  0  0  0  0  0  0  0  0
  1  2  1  0  0  0  0
  1  5  2  0  0  0  0
  2  6  2  0  0  0  0
  3  8  2  0  0  0  0
  3 15  1  0  0  0  0
  4  9  1  0  0  0  0
  4 15  2  0  0  0  0
  5 17  1  0  0  0  0
  6 19  1  0  0  0  0
  7 10  2  0  0  0  0
  7 18  1  0  0  0  0
  8 21  1  0  0  0  0
  9 21  2  0  0  0  0
 10 22  1  0  0  0  0
 11 12  2  0  0  0  0
 11 23  1  0  0  0  0
 12 24  1  0  0  0  0
 13 20  1  0  0  0  0
 13 22  2  0  0  0  0
 14 24  2  0  0  0  0
 14 25  1  0  0  0  0
 15 26  1  0  0  0  0
 16 26  1  0  0  0  0
 16 27  2  0  0  0  0
 16 29  1  0  0  0  0
 17 19  2  0  0  0  0
 17 35  1  0  0  0  0
 18 20  2  0  0  0  0
 18 36  1  0  0  0  0
 19 50  1  0  0  0  0
 20 37  1  0  0  0  0
 21 82  1  0  0  0  0
 22 83  1  0  0  0  0
 23 25  2  0  0  0  0
 23 82  1  0  0  0  0
 24 84  1  0  0  0  0
 25 85  1  0  0  0  0
 26 65  2  0  0  0  0
 27 66  1  0  0  0  0
 27 71  1  0  0  0  0
 28 30  2  0  0  0  0
 28 55  1  0  0  0  0
 29 72  1  0  0  0  0
 29 77  2  0  0  0  0
 30 61  1  0  0  0  0
 30 67  1  0  0  0  0
 31 51  1  0  0  0  0
 31 73  1  0  0  0  0
 31 78  2  0  0  0  0
 32 62  1  0  0  0  0
 32 68  1  0  0  0  0
 32 79  2  0  0  0  0
 33 63  1  0  0  0  0
 33 74  1  0  0  0  0
 33 80  2  0  0  0  0
 34 69  1  0  0  0  0
 34 70  1  0  0  0  0
 34 81  2  0  0  0  0
 35 38  1  0  0  0  0
 36 51  1  0  0  0  0
 37 68  1  0  0  0  0
 38 40  1  0  0  0  0
 39 41  1  0  0  0  0
 39 44  1  0  0  0  0
 40 50  1  0  0  0  0
 41 53  1  0  0  0  0
 42 45  1  0  0  0  0
 42 52  1  0  0  0  0
 43 46  1  0  0  0  0
 43 52  1  0  0  0  0
 44 69  1  0  0  0  0
 45 70  1  0  0  0  0
 46 70  1  0  0  0  0
 47 49  1  0  0  0  0
 47 67  1  0  0  0  0
 48 53  1  0  0  0  0
 48 69  1  0  0  0  0
 49 75  1  0  0  0  0
 50 73  1  0  0  0  0
 51 68  1  0  0  0  0
 52 54  1  0  0  0  0
 53 66  1  0  0  0  0
 54 67  1  0  0  0  0
 54 75  1  0  0  0  0
 56 63  1  0  0  0  0
 57 64  1  0  0  0  0
 58 64  1  0  0  0  0
 59 64  1  0  0  0  0
 60 76  1  0  0  0  0
 61 83  1  0  0  0  0
 62 64  1  0  0  0  0
 62 74  1  0  0  0  0
 63 76  1  0  0  0  0
 65 66  1  0  0  0  0
M  CHG  2  75   1  76   1
M  ISO  4  34 100  61 101  70 100  83 101
M  END
> <Batch ID>
0120

> <Smiles>
CC=C(N1CCNC1C1CC[100N:0]([100C:0](=O)N2CCCC(n3nc(-c4ccc(Oc5ccc(F)cc5F)cc4)c(C(N)=O)c3N)C2)CC1)[101CH2:1][101O:1]c1ccc2c(c1)CN(C(=O)C(NC(=O)C(C)NC)C(C)(C)C)C(C(=O)NC1CCCc3ccccc31)C2

> <Shape>
0.220

> <Color>
0.055

> <Negative vol penalty>
0.000

$$$$

  -OEChem-04052320233D

 85 93  0     1  0  0  0  0  0999 V2000
  -28.3035  -37.7183   25.5000 C   0  0  0  0  0  0  0  0  0  0  0  0
  -28.9386  -36.4817   25.5529 C   0  0  0  0  0  0  0  0  0  0  0  0
  -22.5418  -12.2013   21.9359 C   0  0  0  0  0  0  0  0  0  0  0  0
  -24.0036  -10.3552   22.4761 C   0  0  0  0  0  0  0  0  0  0  0  0
  -26.9148  -37.7923   25.5999 C   0  0  0  0  0  0  0  0  0  0  0  0
  -28.1854  -35.3183   25.7069 C   0  0  0  0  0  0  0  0  0  0  0  0
  -28.4724  -30.0400   20.8132 C   0  0  0  0  0  0  0  0  0  0  0  0
  -21.7031  -11.8464   22.9924 C   0  0  0  0  0  0  0  0  0  0  0  0
  -23.1650  -10.0003   23.5327 C   0  0  0  0  0  0  0  0  0  0  0  0
  -28.6332  -28.8970   20.0297 C   0  0  0  0  0  0  0  0  0  0  0  0
  -20.2266   -8.3794   23.9448 C   0  0  0  0  0  0  0  0  0  0  0  0
  -19.9082   -7.0297   24.0943 C   0  0  0  0  0  0  0  0  0  0  0  0
  -26.9536  -27.7506   21.3383 C   0  0  0  0  0  0  0  0  0  0  0  0
  -20.9002   -7.0396   26.2972 C   0  0  0  0  0  0  0  0  0  0  0  0
  -23.6921  -11.4556   21.6776 C   0  0  0  0  0  0  0  0  0  0  0  0
  -24.2230  -11.8897   19.2205 C   0  0  0  0  0  0  0  0  0  0  0  0
  -26.1434  -36.6285   25.7454 C   0  0  0  0  0  0  0  0  0  0  0  0
  -27.5394  -30.0477   21.8538 C   0  0  0  0  0  0  0  0  0  0  0  0
  -26.7851  -35.3770   25.8101 C   0  0  0  0  0  0  0  0  0  0  0  0
  -26.7792  -28.8967   22.1186 C   0  0  0  0  0  0  0  0  0  0  0  0
  -22.0147  -10.7459   23.7908 C   0  0  0  0  0  0  0  0  0  0  0  0
  -27.8759  -27.7551   20.2918 C   0  0  0  0  0  0  0  0  0  0  0  0
  -20.8819   -9.0593   24.9716 C   0  0  0  0  0  0  0  0  0  0  0  0
  -20.2450   -6.3597   25.2705 C   0  0  0  0  0  0  0  0  0  0  0  0
  -21.2187   -8.3893   26.1478 C   0  0  0  0  0  0  0  0  0  0  0  0
  -24.5585  -11.8214   20.5861 C   0  0  0  0  0  0  0  0  0  0  0  0
  -25.3845  -12.2811   18.6008 C   0  0  0  0  0  0  0  0  0  0  0  0
  -28.4769  -20.5884   18.9905 C   0  0  0  0  0  0  0  0  0  0  0  0
  -29.5021  -19.8627   19.4609 C   0  0  0  0  0  0  0  0  0  0  0  0
  -22.9732  -11.6231   18.5705 C   0  0  0  0  0  0  0  0  0  0  0  0
  -25.9208  -31.9839   24.6300 C   0  0  0  0  0  0  0  0  0  0  0  0
  -23.7044  -30.3594   23.2666 C   0  0  0  0  0  0  0  0  0  0  0  0
  -21.4971  -28.7401   21.2312 C   0  0  0  0  0  0  0  0  0  0  0  0
  -30.1938  -15.3071   20.4890 C   0  0  0  0  0  0  0  0  0  0  0  0
  -24.6488  -36.7625   25.8968 C   0  0  0  0  0  0  0  0  0  0  0  0
  -27.3765  -31.2359   22.7624 C   0  0  0  0  0  0  0  0  0  0  0  0
  -25.8123  -28.9392   23.2702 C   0  0  0  0  0  0  0  0  0  0  0  0
  -23.8950  -35.4525   25.6819 C   0  0  0  0  0  0  0  0  0  0  0  0
  -30.1404  -12.0439   19.0658 C   0  0  0  0  0  0  0  0  0  0  0  0
  -24.5677  -34.3177   26.4478 C   0  0  0  0  0  0  0  0  0  0  0  0
  -28.3577  -22.7436   17.7488 C   0  0  0  0  0  0  0  0  0  0  0  0
  -27.1385  -22.4703   19.9452 C   0  0  0  0  0  0  0  0  0  0  0  0
  -28.2154  -24.2611   17.8597 C   0  0  0  0  0  0  0  0  0  0  0  0
  -26.9985  -23.9880   20.0560 C   0  0  0  0  0  0  0  0  0  0  0  0
  -28.6735  -11.6230   19.1709 C   0  0  0  0  0  0  0  0  0  0  0  0
  -30.5785  -12.8695   20.2735 C   0  0  0  0  0  0  0  0  0  0  0  0
  -28.2647  -13.6210   20.6675 C   0  0  0  0  0  0  0  0  0  0  0  0
  -26.0007  -34.0906   25.9515 C   0  0  1  0  0  0  0  0  0  0  0  0
  -28.3760  -22.0762   19.1289 C   0  0  0  0  0  0  0  0  0  0  0  0
  -25.9249  -31.4432   23.2303 C   0  0  1  0  0  0  0  0  0  0  0  0
  -26.9782  -24.6571   18.6758 C   0  0  0  0  0  0  0  0  0  0  0  0
  -27.7611  -12.8335   19.4457 C   0  0  2  0  0  0  0  0  0  0  0  0
  -25.6028  -26.4348   16.6429 C   0  0  0  0  0  0  0  0  0  0  0  0
  -30.8372  -18.0066   18.4909 C   0  0  0  0  0  0  0  0  0  0  0  0
  -19.0468  -28.2703   20.9607 C   0  0  0  0  0  0  0  0  0  0  0  0
  -23.8531  -28.3070   25.5181 C   0  0  0  0  0  0  0  0  0  0  0  0
  -21.7815  -27.2478   24.5936 C   0  0  0  0  0  0  0  0  0  0  0  0
  -21.7140  -29.5992   25.4235 C   0  0  0  0  0  0  0  0  0  0  0  0
  -21.4089  -30.0962   18.6021 C   0  0  0  0  0  0  0  0  0  0  0  0
  -26.8290  -26.8541   17.4434 C   0  0  0  0  0  0  0  0  0  0  0  0
  -29.6482  -17.7178   20.7122 C   0  0  0  0  0  0  0  0  0  0  0  0
  -29.6012  -18.3629   19.3215 C   0  0  1  0  0  0  0  0  0  0  0  0
  -22.8978  -29.0857   23.2494 C   0  0  1  0  0  0  0  0  0  0  0  0
  -20.1974  -29.1936   20.5912 C   0  0  2  0  0  0  0  0  0  0  0  0
  -26.8867  -26.1756   18.8139 C   0  0  2  0  0  0  0  0  0  1  0  0
  -22.5847  -28.5631   24.6799 C   0  0  0  0  0  0  0  0  0  0  0  0
  -25.8334  -12.1435   20.8205 N   0  0  0  0  0  0  0  0  0  0  0  0
  -26.3092  -12.4179   19.5940 N   0  0  0  0  0  0  0  0  0  0  0  0
  -25.0981  -30.2254   23.2792 N   0  0  0  0  0  0  0  0  0  0  0  0
  -29.6730  -14.0026   20.4784 N   0  0  0  0  0  0  0  0  0  0  0  0
  -25.6949  -12.5182   17.3085 N   0  0  0  0  0  0  0  0  0  0  0  0
  -21.8813  -11.2313   19.3569 N   0  0  0  0  0  0  0  0  0  0  0  0
  -25.9930  -33.3620   24.7011 N   0  0  0  0  0  0  0  0  0  0  0  0
  -21.7145  -29.3626   22.4421 N   0  0  0  0  0  0  0  0  0  0  0  0
  -29.2664  -16.3235   20.6828 N   0  0  0  0  0  0  0  0  0  0  0  0
  -20.3290  -29.2096   19.1068 N   0  3  0  0  0  0  0  0  0  0  0  0
  -22.8333  -11.7134   17.3272 O   0  0  0  0  0  0  0  0  0  0  0  0
  -25.8554  -31.2087   25.5769 O   0  0  0  0  0  0  0  0  0  0  0  0
  -23.1173  -31.4450   23.2743 O   0  0  0  0  0  0  0  0  0  0  0  0
  -22.2428  -27.9132   20.7109 O   0  0  0  0  0  0  0  0  0  0  0  0
  -31.3955  -15.5485   20.3318 O   0  0  0  0  0  0  0  0  0  0  0  0
  -21.1967  -10.3995   24.8220 O   0  0  0  0  0  0  0  0  0  0  0  0
  -28.0347  -26.6442   19.5201 O   0  0  0  0  0  0  0  0  0  1  0  0
  -19.9377   -5.0640   25.4145 F   0  0  0  0  0  0  0  0  0  0  0  0
  -21.8472   -9.0374   27.1381 F   0  0  0  0  0  0  0  0  0  0  0  0
  1  2  1  0  0  0  0
  1  5  2  0  0  0  0
  2  6  2  0  0  0  0
  3  8  2  0  0  0  0
  3 15  1  0  0  0  0
  4  9  1  0  0  0  0
  4 15  2  0  0  0  0
  5 17  1  0  0  0  0
  6 19  1  0  0  0  0
  7 10  2  0  0  0  0
  7 18  1  0  0  0  0
  8 21  1  0  0  0  0
  9 21  2  0  0  0  0
 10 22  1  0  0  0  0
 11 12  2  0  0  0  0
 11 23  1  0  0  0  0
 12 24  1  0  0  0  0
 13 20  1  0  0  0  0
 13 22  2  0  0  0  0
 14 24  2  0  0  0  0
 14 25  1  0  0  0  0
 15 26  1  0  0  0  0
 16 26  1  0  0  0  0
 16 27  2  0  0  0  0
 16 30  1  0  0  0  0
 17 19  2  0  0  0  0
 17 35  1  0  0  0  0
 18 20  2  0  0  0  0
 18 36  1  0  0  0  0
 19 48  1  0  0  0  0
 20 37  1  0  0  0  0
 21 82  1  0  0  0  0
 22 83  1  0  0  0  0
 23 25  2  0  0  0  0
 23 82  1  0  0  0  0
 24 84  1  0  0  0  0
 25 85  1  0  0  0  0
 26 67  2  0  0  0  0
 27 68  1  0  0  0  0
 27 71  1  0  0  0  0
 28 29  2  0  0  0  0
 28 49  1  0  0  0  0
 29 62  1  0  0  0  0
 30 72  1  0  0  0  0
 30 77  2  0  0  0  0
 31 50  1  0  0  0  0
 31 73  1  0  0  0  0
 31 78  2  0  0  0  0
 32 63  1  0  0  0  0
 32 69  1  0  0  0  0
 32 79  2  0  0  0  0
 33 64  1  0  0  0  0
 33 74  1  0  0  0  0
 33 80  2  0  0  0  0
 34 70  1  0  0  0  0
 34 75  1  0  0  0  0
 34 81  2  0  0  0  0
 35 38  1  0  0  0  0
 36 50  1  0  0  0  0
 37 69  1  0  0  0  0
 38 40  1  0  0  0  0
 39 45  1  0  0  0  0
 39 46  1  0  0  0  0
 40 48  1  0  0  0  0
 41 43  1  0  0  0  0
 41 49  1  0  0  0  0
 42 44  1  0  0  0  0
 42 49  1  0  0  0  0
 43 51  1  0  0  0  0
 44 51  1  0  0  0  0
 45 52  1  0  0  0  0
 46 70  1  0  0  0  0
 47 52  1  0  0  0  0
 47 70  1  0  0  0  0
 48 73  1  0  0  0  0
 50 69  1  0  0  0  0
 51 65  1  0  0  0  0
 52 68  1  0  0  0  0
 53 60  1  0  0  0  0
 54 62  1  0  0  0  0
 55 64  1  0  0  0  0
 56 66  1  0  0  0  0
 57 66  1  0  0  0  0
 58 66  1  0  0  0  0
 59 76  1  0  0  0  0
 60 65  1  0  0  0  0
 61 62  1  0  0  0  0
 61 75  1  0  0  0  0
 63 66  1  0  0  0  0
 63 74  1  0  0  0  0
 64 76  1  0  0  0  0
 65 83  1  0  0  0  0
 67 68  1  0  0  0  0
M  CHG  1  76   1
M  ISO  4  34 100  65 101  75 100  83 101
M  END
> <Batch ID>
0120

> <Smiles>
CC[101CH:1](C1CCC(C=CC(C)C[100NH:0][100C:0](=O)N2CCCC(n3nc(-c4ccc(Oc5ccc(F)cc5F)cc4)c(C(N)=O)c3N)C2)CC1)[101O:1]c1ccc2c(c1)CN(C(=O)C(NC(=O)C(C)NC)C(C)(C)C)C(C(=O)NC1CCCc3ccccc31)C2

> <Shape>
0.297

> <Color>
0.096

> <Negative vol penalty>
0.000

$$$$

  -OEChem-04052320233D

 83 91  0     1  0  0  0  0  0999 V2000
  -34.0929  -30.5660   17.2899 C   0  0  0  0  0  0  0  0  0  0  0  0
  -33.4331  -29.3592   17.4990 C   0  0  0  0  0  0  0  0  0  0  0  0
  -23.9752  -10.0927   22.7202 C   0  0  0  0  0  0  0  0  0  0  0  0
  -24.3780  -11.9068   24.2643 C   0  0  0  0  0  0  0  0  0  0  0  0
  -33.9810  -31.5918   18.2275 C   0  0  0  0  0  0  0  0  0  0  0  0
  -32.6619  -29.1771   18.6464 C   0  0  0  0  0  0  0  0  0  0  0  0
  -27.4825  -25.9446   19.1264 C   0  0  0  0  0  0  0  0  0  0  0  0
  -23.4965   -9.3068   23.7684 C   0  0  0  0  0  0  0  0  0  0  0  0
  -23.8992  -11.1208   25.3125 C   0  0  0  0  0  0  0  0  0  0  0  0
  -27.2218  -24.6527   19.5811 C   0  0  0  0  0  0  0  0  0  0  0  0
  -20.6438   -9.0123   25.5595 C   0  0  0  0  0  0  0  0  0  0  0  0
  -19.4673   -8.2940   25.3462 C   0  0  0  0  0  0  0  0  0  0  0  0
  -26.6566  -25.5376   21.7529 C   0  0  0  0  0  0  0  0  0  0  0  0
  -20.6517   -6.2301   25.7648 C   0  0  0  0  0  0  0  0  0  0  0  0
  -24.4160  -11.3927   22.9682 C   0  0  0  0  0  0  0  0  0  0  0  0
  -24.1661  -13.0708   21.0631 C   0  0  0  0  0  0  0  0  0  0  0  0
  -33.2002  -31.4257   19.3823 C   0  0  0  0  0  0  0  0  0  0  0  0
  -27.3424  -27.0436   19.9861 C   0  0  0  0  0  0  0  0  0  0  0  0
  -32.5406  -30.2012   19.6010 C   0  0  0  0  0  0  0  0  0  0  0  0
  -26.9136  -26.8427   21.3059 C   0  0  0  0  0  0  0  0  0  0  0  0
  -23.4585   -9.8208   25.0646 C   0  0  0  0  0  0  0  0  0  0  0  0
  -26.8116  -24.4488   20.8953 C   0  0  0  0  0  0  0  0  0  0  0  0
  -21.8242   -8.3396   25.8754 C   0  0  0  0  0  0  0  0  0  0  0  0
  -19.4713   -6.9029   25.4489 C   0  0  0  0  0  0  0  0  0  0  0  0
  -21.8282   -6.9485   25.9780 C   0  0  0  0  0  0  0  0  0  0  0  0
  -24.9111  -12.2049   21.8859 C   0  0  0  0  0  0  0  0  0  0  0  0
  -25.0910  -13.6028   20.1981 C   0  0  0  0  0  0  0  0  0  0  0  0
  -22.7636  -13.3678   21.0793 C   0  0  0  0  0  0  0  0  0  0  0  0
  -27.4239  -17.8230   22.4586 C   0  0  0  0  0  0  0  0  0  0  0  0
  -29.3110  -29.2615   21.1305 C   0  0  0  0  0  0  0  0  0  0  0  0
  -26.5736  -30.5077   22.3454 C   0  0  0  0  0  0  0  0  0  0  0  0
  -23.3574  -29.9918   23.3637 C   0  0  0  0  0  0  0  0  0  0  0  0
  -31.0083  -14.4405   20.5656 C   0  0  0  0  0  0  0  0  0  0  0  0
  -33.1476  -32.5463   20.3904 C   0  0  0  0  0  0  0  0  0  0  0  0
  -27.6017  -28.4334   19.4726 C   0  0  0  0  0  0  0  0  0  0  0  0
  -26.7284  -27.9908   22.2630 C   0  0  0  0  0  0  0  0  0  0  0  0
  -32.0080  -32.4074   21.3965 C   0  0  0  0  0  0  0  0  0  0  0  0
  -29.2591  -12.5834   18.0819 C   0  0  0  0  0  0  0  0  0  0  0  0
  -31.9482  -30.9842   21.9423 C   0  0  0  0  0  0  0  0  0  0  0  0
  -27.8792  -12.3540   18.7009 C   0  0  0  0  0  0  0  0  0  0  0  0
  -29.6400  -20.2485   20.7262 C   0  0  0  0  0  0  0  0  0  0  0  0
  -30.3658  -12.5247   19.1325 C   0  0  0  0  0  0  0  0  0  0  0  0
  -28.7908  -13.1905   20.9073 C   0  0  0  0  0  0  0  0  0  0  0  0
  -30.3805  -18.9314   20.5951 C   0  0  0  0  0  0  0  0  0  0  0  0
  -31.6746  -29.9745   20.8211 C   0  0  1  0  0  0  0  0  0  0  0  0
  -28.5598  -18.7648   22.2340 C   0  0  2  0  0  0  0  0  0  0  0  0
  -27.9223  -29.4302   20.5821 C   0  0  1  0  0  0  0  0  0  0  0  0
  -28.2510  -19.8368   21.1940 C   0  0  1  0  0  0  0  0  0  0  0  0
  -27.6369  -13.2960   19.8956 C   0  0  2  0  0  0  0  0  0  0  0  0
  -26.5182  -18.1204   23.6229 C   0  0  0  0  0  0  0  0  0  0  0  0
  -21.3849  -31.1937   24.3444 C   0  0  0  0  0  0  0  0  0  0  0  0
  -27.9310  -30.5007   25.0781 C   0  0  0  0  0  0  0  0  0  0  0  0
  -25.6740  -30.7895   26.1225 C   0  0  0  0  0  0  0  0  0  0  0  0
  -26.5725  -32.5437   24.5933 C   0  0  0  0  0  0  0  0  0  0  0  0
  -21.6692  -29.3827   21.0104 C   0  0  0  0  0  0  0  0  0  0  0  0
  -27.4544  -21.0037   21.7587 C   0  0  0  0  0  0  0  0  0  0  0  0
  -31.5051  -16.3489   22.0722 C   0  0  0  0  0  0  0  0  0  0  0  0
  -30.7117  -17.5042   22.6538 C   0  0  0  0  0  0  0  0  0  0  0  0
  -27.2978  -22.1257   20.7437 C   0  0  0  0  0  0  0  0  0  1  0  0
  -25.7995  -30.3376   23.6303 C   0  0  1  0  0  0  0  0  0  0  0  0
  -22.0733  -30.7444   23.0650 C   0  0  2  0  0  0  0  0  0  0  0  0
  -26.4995  -31.0208   24.8388 C   0  0  0  0  0  0  0  0  0  0  0  0
  -26.2092  -12.1848   21.5717 N   0  0  0  0  0  0  0  0  0  0  0  0
  -26.2870  -13.0447   20.5418 N   0  0  0  0  0  0  0  0  0  0  0  0
  -27.0005  -29.3301   21.7154 N   0  0  0  0  0  0  0  0  0  0  0  0
  -30.0762  -13.4423   20.2371 N   0  0  0  0  0  0  0  0  0  0  0  0
  -24.9896  -14.4888   19.1847 N   0  0  0  0  0  0  0  0  0  0  0  0
  -21.9572  -12.7332   22.0340 N   0  0  0  0  0  0  0  0  0  0  0  0
  -30.2738  -29.9897   20.4580 N   0  0  0  0  0  0  0  0  0  0  0  0
  -24.4524  -30.8299   23.3635 N   0  0  0  0  0  0  0  0  0  0  0  0
  -30.6529  -15.2714   21.6210 N   0  0  0  0  0  0  0  0  0  0  0  0
  -29.7465  -18.0213   21.6319 N   0  3  2  0  0  0  0  0  0  0  0  0
  -21.1302  -29.8776   22.3033 N   0  3  0  0  0  0  0  0  0  0  0  0
  -22.2381  -14.1596   20.2605 O   0  0  0  0  0  0  0  0  0  0  0  0
  -27.2360  -16.8525   21.7265 O   0  0  0  0  0  0  0  0  0  0  0  0
  -29.4951  -28.5262   22.0934 O   0  0  0  0  0  0  0  0  0  0  0  0
  -26.7853  -31.6434   21.9129 O   0  0  0  0  0  0  0  0  0  0  0  0
  -23.3858  -28.7822   23.5796 O   0  0  0  0  0  0  0  0  0  0  0  0
  -32.0755  -14.5841   19.9594 O   0  0  0  0  0  0  0  0  0  0  0  0
  -22.9912   -9.0543   26.0876 O   0  0  0  0  0  0  0  0  0  0  0  0
  -26.5571  -23.1887   21.3419 O   0  0  0  0  0  0  0  0  0  1  0  0
  -18.3411   -6.2133   25.2456 F   0  0  0  0  0  0  0  0  0  0  0  0
  -22.9588   -6.2968   26.2823 F   0  0  0  0  0  0  0  0  0  0  0  0
  1  2  1  0  0  0  0
  1  5  2  0  0  0  0
  2  6  2  0  0  0  0
  3  8  2  0  0  0  0
  3 15  1  0  0  0  0
  4  9  1  0  0  0  0
  4 15  2  0  0  0  0
  5 17  1  0  0  0  0
  6 19  1  0  0  0  0
  7 10  2  0  0  0  0
  7 18  1  0  0  0  0
  8 21  1  0  0  0  0
  9 21  2  0  0  0  0
 10 22  1  0  0  0  0
 11 12  2  0  0  0  0
 11 23  1  0  0  0  0
 12 24  1  0  0  0  0
 13 20  1  0  0  0  0
 13 22  2  0  0  0  0
 14 24  2  0  0  0  0
 14 25  1  0  0  0  0
 15 26  1  0  0  0  0
 16 26  1  0  0  0  0
 16 27  2  0  0  0  0
 16 28  1  0  0  0  0
 17 19  2  0  0  0  0
 17 34  1  0  0  0  0
 18 20  2  0  0  0  0
 18 35  1  0  0  0  0
 19 45  1  0  0  0  0
 20 36  1  0  0  0  0
 21 80  1  0  0  0  0
 22 81  1  0  0  0  0
 23 25  2  0  0  0  0
 23 80  1  0  0  0  0
 24 82  1  0  0  0  0
 25 83  1  0  0  0  0
 26 63  2  0  0  0  0
 27 64  1  0  0  0  0
 27 67  1  0  0  0  0
 28 68  1  0  0  0  0
 28 74  2  0  0  0  0
 29 46  1  0  0  0  0
 29 50  1  0  0  0  0
 29 75  2  0  0  0  0
 30 47  1  0  0  0  0
 30 69  1  0  0  0  0
 30 76  2  0  0  0  0
 31 60  1  0  0  0  0
 31 65  1  0  0  0  0
 31 77  2  0  0  0  0
 32 61  1  0  0  0  0
 32 70  1  0  0  0  0
 32 78  2  0  0  0  0
 33 66  1  0  0  0  0
 33 71  1  0  0  0  0
 33 79  2  0  0  0  0
 34 37  1  0  0  0  0
 35 47  1  0  0  0  0
 36 65  1  0  0  0  0
 37 39  1  0  0  0  0
 38 40  1  0  0  0  0
 38 42  1  0  0  0  0
 39 45  1  0  0  0  0
 40 49  1  0  0  0  0
 41 44  1  0  0  0  0
 41 48  1  0  0  0  0
 42 66  1  0  0  0  0
 43 49  1  0  0  0  0
 43 66  1  0  0  0  0
 44 72  1  0  0  0  0
 45 69  1  0  0  0  0
 46 48  1  0  0  0  0
 46 72  1  0  0  0  0
 47 65  1  0  0  0  0
 48 56  1  0  0  0  0
 49 64  1  0  0  0  0
 51 61  1  0  0  0  0
 52 62  1  0  0  0  0
 53 62  1  0  0  0  0
 54 62  1  0  0  0  0
 55 73  1  0  0  0  0
 56 59  1  0  0  0  0
 57 58  1  0  0  0  0
 57 71  1  0  0  0  0
 58 72  1  0  0  0  0
 59 81  1  0  0  0  0
 60 62  1  0  0  0  0
 60 70  1  0  0  0  0
 61 73  1  0  0  0  0
 63 64  1  0  0  0  0
M  CHG  2  72   1  73   1
M  ISO  4  33 100  59 101  71 100  81 101
M  END
> <Batch ID>
0120

> <Smiles>
CNC(C)C(=O)NC(C(=O)N1Cc2cc([101O:1][101CH2:1]CC3CCN(CC[100NH:0][100C:0](=O)N4CCCC(n5nc(-c6ccc(Oc7ccc(F)cc7F)cc6)c(C(N)=O)c5N)C4)C3C(C)=O)ccc2CC1C(=O)NC1CCCc2ccccc21)C(C)(C)C

> <Shape>
0.266

> <Color>
0.152

> <Negative vol penalty>
0.000

$$$$

  -OEChem-04052320233D

 85 93  0     1  0  0  0  0  0999 V2000
  -39.5528  -26.6252   24.1027 C   0  0  0  0  0  0  0  0  0  0  0  0
  -38.5369  -25.9235   24.7438 C   0  0  0  0  0  0  0  0  0  0  0  0
  -23.0751   -9.8284   19.9904 C   0  0  0  0  0  0  0  0  0  0  0  0
  -23.8213   -9.9053   22.2870 C   0  0  0  0  0  0  0  0  0  0  0  0
  -39.2388  -27.6975   23.2687 C   0  0  0  0  0  0  0  0  0  0  0  0
  -37.2065  -26.2944   24.5522 C   0  0  0  0  0  0  0  0  0  0  0  0
  -34.1767  -22.3165   23.7512 C   0  0  0  0  0  0  0  0  0  0  0  0
  -22.3311   -8.6822   20.2706 C   0  0  0  0  0  0  0  0  0  0  0  0
  -23.0773   -8.7592   22.5672 C   0  0  0  0  0  0  0  0  0  0  0  0
  -33.8001  -21.5684   24.8657 C   0  0  0  0  0  0  0  0  0  0  0  0
  -19.8466   -7.9753   23.1743 C   0  0  0  0  0  0  0  0  0  0  0  0
  -19.0827   -7.9696   24.3414 C   0  0  0  0  0  0  0  0  0  0  0  0
  -29.2430  -18.2377   24.8856 C   0  0  0  0  0  0  0  0  0  0  0  0
  -29.1222  -17.8607   23.5253 C   0  0  0  0  0  0  0  0  0  0  0  0
  -31.6752  -22.7097   24.9062 C   0  0  0  0  0  0  0  0  0  0  0  0
  -20.3221   -6.0569   25.1431 C   0  0  0  0  0  0  0  0  0  0  0  0
  -23.8202  -10.4399   20.9987 C   0  0  0  0  0  0  0  0  0  0  0  0
  -24.1597  -12.9608   20.8048 C   0  0  0  0  0  0  0  0  0  0  0  0
  -37.9033  -28.0757   23.0591 C   0  0  0  0  0  0  0  0  0  0  0  0
  -33.3082  -23.2761   23.2115 C   0  0  0  0  0  0  0  0  0  0  0  0
  -36.8744  -27.3736   23.7156 C   0  0  0  0  0  0  0  0  0  0  0  0
  -32.0422  -23.4668   23.7832 C   0  0  0  0  0  0  0  0  0  0  0  0
  -22.3322   -8.1476   21.5589 C   0  0  0  0  0  0  0  0  0  0  0  0
  -32.5503  -21.7669   25.4452 C   0  0  0  0  0  0  0  0  0  0  0  0
  -20.8482   -7.0218   22.9915 C   0  0  0  0  0  0  0  0  0  0  0  0
  -19.3205   -7.0104   25.3258 C   0  0  0  0  0  0  0  0  0  0  0  0
  -21.0859   -6.0626   23.9759 C   0  0  0  0  0  0  0  0  0  0  0  0
  -24.5894  -11.6236   20.7098 C   0  0  0  0  0  0  0  0  0  0  0  0
  -30.5509  -18.0193   25.2584 C   0  0  0  0  0  0  0  0  0  0  0  0
  -30.3600  -17.4233   23.1082 C   0  0  0  0  0  0  0  0  0  0  0  0
  -25.2530  -13.7005   20.4256 C   0  0  0  0  0  0  0  0  0  0  0  0
  -22.8861  -13.4872   21.2005 C   0  0  0  0  0  0  0  0  0  0  0  0
  -33.4224  -26.4259   22.8000 C   0  0  0  0  0  0  0  0  0  0  0  0
  -30.6360  -25.9282   21.2155 C   0  0  0  0  0  0  0  0  0  0  0  0
  -27.8892  -23.9614   20.7326 C   0  0  0  0  0  0  0  0  0  0  0  0
  -30.7343  -14.7324   20.6157 C   0  0  0  0  0  0  0  0  0  0  0  0
  -37.6158  -29.2713   22.1858 C   0  0  0  0  0  0  0  0  0  0  0  0
  -33.7190  -24.0561   21.9927 C   0  0  0  0  0  0  0  0  0  0  0  0
  -31.0650  -24.4703   23.2295 C   0  0  0  0  0  0  0  0  0  0  0  0
  -36.1586  -29.3642   21.7408 C   0  0  0  0  0  0  0  0  0  0  0  0
  -29.6139  -12.2757   18.2950 C   0  0  0  0  0  0  0  0  0  0  0  0
  -35.2234  -29.1321   22.9234 C   0  0  0  0  0  0  0  0  0  0  0  0
  -28.1742  -11.9931   18.7280 C   0  0  0  0  0  0  0  0  0  0  0  0
  -30.5236  -12.5338   19.4941 C   0  0  0  0  0  0  0  0  0  0  0  0
  -28.6127  -13.3035   20.8468 C   0  0  0  0  0  0  0  0  0  0  0  0
  -35.4177  -27.7301   23.5134 C   0  0  1  0  0  0  0  0  0  0  0  0
  -32.9573  -25.3689   21.8387 C   0  0  1  0  0  0  0  0  0  0  0  0
  -27.6458  -13.0923   19.6692 C   0  0  2  0  0  0  0  0  0  0  0  0
  -31.2085  -16.9668   27.4378 C   0  0  0  0  0  0  0  0  0  0  0  0
  -30.6104  -17.9473   20.6538 C   0  0  0  0  0  0  0  0  0  0  0  0
  -25.7677  -23.8338   19.3983 C   0  0  0  0  0  0  0  0  0  0  0  0
  -33.4194  -18.0272   23.1671 C   0  0  0  0  0  0  0  0  0  0  0  0
  -32.8241  -15.6707   23.8734 C   0  0  0  0  0  0  0  0  0  0  0  0
  -29.3784  -28.0454   23.0171 C   0  0  0  0  0  0  0  0  0  0  0  0
  -27.1268  -27.2072   22.3128 C   0  0  0  0  0  0  0  0  0  0  0  0
  -28.6833  -28.1705   20.6181 C   0  0  0  0  0  0  0  0  0  0  0  0
  -28.7123  -21.4248   19.4491 C   0  0  0  0  0  0  0  0  0  0  0  0
  -30.6268  -19.4219   27.3902 C   0  0  0  0  0  0  0  0  0  0  0  0
  -30.7881  -20.7689   26.6919 C   0  0  0  0  0  0  0  0  0  1  0  0
  -31.2327  -18.2485   26.5962 C   0  0  2  0  0  0  0  0  0  0  0  0
  -30.7902  -16.9193   21.7877 C   0  0  2  0  0  0  0  0  0  0  0  0
  -29.1773  -25.8948   21.6026 C   0  0  1  0  0  0  0  0  0  0  0  0
  -27.2346  -23.4385   19.4667 C   0  0  2  0  0  0  0  0  0  0  0  0
  -32.6223  -17.1626   24.1458 C   0  0  0  0  0  0  0  0  0  0  0  0
  -28.6104  -27.3119   21.8995 C   0  0  0  0  0  0  0  0  0  0  0  0
  -25.8568  -11.5170   20.3021 N   0  0  0  0  0  0  0  0  0  0  0  0
  -31.2206  -17.5240   24.1701 N   0  0  0  0  0  0  0  0  0  0  0  0
  -26.2329  -12.7966   20.1374 N   0  0  0  0  0  0  0  0  0  0  0  0
  -31.5154  -25.2128   22.0406 N   0  0  0  0  0  0  0  0  0  0  0  0
  -29.9665  -13.5877   20.3455 N   0  0  0  0  0  0  0  0  0  0  0  0
  -25.4623  -15.0295   20.3138 N   0  0  0  0  0  0  0  0  0  0  0  0
  -21.8733  -12.5872   21.5590 N   0  0  0  0  0  0  0  0  0  0  0  0
  -34.7636  -26.7387   22.6865 N   0  0  0  0  0  0  0  0  0  0  0  0
  -28.4863  -25.1876   20.5299 N   0  0  0  0  0  0  0  0  0  0  0  0
  -30.1291  -15.6853   21.4258 N   0  0  0  0  0  0  0  0  0  0  0  0
  -27.3237  -21.9519   19.4134 N   0  3  0  0  0  0  0  0  0  0  0  0
  -22.6480  -14.7187   21.2194 O   0  0  0  0  0  0  0  0  0  0  0  0
  -32.6233  -26.9222   23.5854 O   0  0  0  0  0  0  0  0  0  0  0  0
  -30.9816  -26.5596   20.2137 O   0  0  0  0  0  0  0  0  0  0  0  0
  -27.8693  -23.3455   21.7960 O   0  0  0  0  0  0  0  0  0  0  0  0
  -31.8728  -14.8958   20.1637 O   0  0  0  0  0  0  0  0  0  0  0  0
  -21.6062   -7.0294   21.8327 O   0  0  0  0  0  0  0  0  0  0  0  0
  -32.1804  -21.0385   26.5335 O   0  0  0  0  0  0  0  0  0  1  0  0
  -18.5879   -7.0059   26.4471 F   0  0  0  0  0  0  0  0  0  0  0  0
  -22.0476   -5.1448   23.8066 F   0  0  0  0  0  0  0  0  0  0  0  0
  1  2  1  0  0  0  0
  1  5  2  0  0  0  0
  2  6  2  0  0  0  0
  3  8  2  0  0  0  0
  3 17  1  0  0  0  0
  4  9  1  0  0  0  0
  4 17  2  0  0  0  0
  5 19  1  0  0  0  0
  6 21  1  0  0  0  0
  7 10  2  0  0  0  0
  7 20  1  0  0  0  0
  8 23  1  0  0  0  0
  9 23  2  0  0  0  0
 10 24  1  0  0  0  0
 11 12  2  0  0  0  0
 11 25  1  0  0  0  0
 12 26  1  0  0  0  0
 13 14  1  0  0  0  0
 13 29  2  0  0  0  0
 14 30  2  0  0  0  0
 15 22  1  0  0  0  0
 15 24  2  0  0  0  0
 16 26  2  0  0  0  0
 16 27  1  0  0  0  0
 17 28  1  0  0  0  0
 18 28  1  0  0  0  0
 18 31  2  0  0  0  0
 18 32  1  0  0  0  0
 19 21  2  0  0  0  0
 19 37  1  0  0  0  0
 20 22  2  0  0  0  0
 20 38  1  0  0  0  0
 21 46  1  0  0  0  0
 22 39  1  0  0  0  0
 23 82  1  0  0  0  0
 24 83  1  0  0  0  0
 25 27  2  0  0  0  0
 25 82  1  0  0  0  0
 26 84  1  0  0  0  0
 27 85  1  0  0  0  0
 28 66  2  0  0  0  0
 29 60  1  0  0  0  0
 29 67  1  0  0  0  0
 30 61  1  0  0  0  0
 30 67  1  0  0  0  0
 31 68  1  0  0  0  0
 31 71  1  0  0  0  0
 32 72  1  0  0  0  0
 32 77  2  0  0  0  0
 33 47  1  0  0  0  0
 33 73  1  0  0  0  0
 33 78  2  0  0  0  0
 34 62  1  0  0  0  0
 34 69  1  0  0  0  0
 34 79  2  0  0  0  0
 35 63  1  0  0  0  0
 35 74  1  0  0  0  0
 35 80  2  0  0  0  0
 36 70  1  0  0  0  0
 36 75  1  0  0  0  0
 36 81  2  0  0  0  0
 37 40  1  0  0  0  0
 38 47  1  0  0  0  0
 39 69  1  0  0  0  0
 40 42  1  0  0  0  0
 41 43  1  0  0  0  0
 41 44  1  0  0  0  0
 42 46  1  0  0  0  0
 43 48  1  0  0  0  0
 44 70  1  0  0  0  0
 45 48  1  0  0  0  0
 45 70  1  0  0  0  0
 46 73  1  0  0  0  0
 47 69  1  0  0  0  0
 48 68  1  0  0  0  0
 49 60  1  0  0  0  0
 50 61  1  0  0  0  0
 51 63  1  0  0  0  0
 52 64  1  0  0  0  0
 53 64  1  0  0  0  0
 54 65  1  0  0  0  0
 55 65  1  0  0  0  0
 56 65  1  0  0  0  0
 57 76  1  0  0  0  0
 58 59  1  0  0  0  0
 58 60  1  0  0  0  0
 59 83  1  0  0  0  0
 61 75  1  0  0  0  0
 62 65  1  0  0  0  0
 62 74  1  0  0  0  0
 63 76  1  0  0  0  0
 64 67  1  0  0  0  0
 66 68  1  0  0  0  0
M  CHG  1  76   1
M  ISO  4  36 100  59 101  75 100  83 101
M  END
> <Batch ID>
0120

> <Smiles>
CNC(C)C(=O)NC(C(=O)N1Cc2cc([101O:1][101CH2:1]CC(C)c3ccc(C(C)[100NH:0][100C:0](=O)N4CCCC(n5nc(-c6ccc(Oc7ccc(F)cc7F)cc6)c(C(N)=O)c5N)C4)n3C(C)C)ccc2CC1C(=O)NC1CCCc2ccccc21)C(C)(C)C

> <Shape>
0.217

> <Color>
0.193

> <Negative vol penalty>
0.000

$$$$

  -OEChem-04052320233D

 88 96  0     1  0  0  0  0  0999 V2000
  -23.9851   -8.0527   21.6989 C   0  0  0  0  0  0  0  0  0  0  0  0
  -24.6192   -9.1243   21.0785 C   0  0  0  0  0  0  0  0  0  0  0  0
  -22.0181  -28.1202   20.3024 C   0  0  0  0  0  0  0  0  0  0  0  0
  -21.5853  -29.4197   22.2926 C   0  0  0  0  0  0  0  0  0  0  0  0
  -22.6460   -8.1580   22.0727 C   0  0  0  0  0  0  0  0  0  0  0  0
  -23.9142  -10.3015   20.8304 C   0  0  0  0  0  0  0  0  0  0  0  0
  -26.5578  -14.4437   22.0548 C   0  0  0  0  0  0  0  0  0  0  0  0
  -20.7522  -27.5432   20.4038 C   0  0  0  0  0  0  0  0  0  0  0  0
  -20.3194  -28.8428   22.3940 C   0  0  0  0  0  0  0  0  0  0  0  0
  -27.5458  -14.8556   21.1615 C   0  0  0  0  0  0  0  0  0  0  0  0
  -18.9899  -25.9253   23.4671 C   0  0  0  0  0  0  0  0  0  0  0  0
  -18.5777  -25.4839   24.7244 C   0  0  0  0  0  0  0  0  0  0  0  0
  -26.0441  -16.5250   20.2799 C   0  0  0  0  0  0  0  0  0  0  0  0
  -16.7004  -27.0024   24.6420 C   0  0  0  0  0  0  0  0  0  0  0  0
  -22.4347  -29.0584   21.2469 C   0  0  0  0  0  0  0  0  0  0  0  0
  -24.0882  -30.8303   20.4506 C   0  0  0  0  0  0  0  0  0  0  0  0
  -21.9270   -9.3405   21.8378 C   0  0  0  0  0  0  0  0  0  0  0  0
  -25.2998  -15.0631   22.0599 C   0  0  0  0  0  0  0  0  0  0  0  0
  -22.5639  -10.4223   21.2002 C   0  0  0  0  0  0  0  0  0  0  0  0
  -25.0428  -16.1208   21.1760 C   0  0  0  0  0  0  0  0  0  0  0  0
  -19.9029  -27.9045   21.4496 C   0  0  0  0  0  0  0  0  0  0  0  0
  -27.2881  -15.8945   20.2719 C   0  0  0  0  0  0  0  0  0  0  0  0
  -18.2574  -26.9053   22.7973 C   0  0  0  0  0  0  0  0  0  0  0  0
  -17.4329  -26.0224   25.3119 C   0  0  0  0  0  0  0  0  0  0  0  0
  -17.1126  -27.4438   23.3847 C   0  0  0  0  0  0  0  0  0  0  0  0
  -23.7424  -29.6544   21.1430 C   0  0  0  0  0  0  0  0  0  0  0  0
  -25.4393  -30.9656   20.6571 C   0  0  0  0  0  0  0  0  0  0  0  0
  -23.2619  -31.7207   19.6889 C   0  0  0  0  0  0  0  0  0  0  0  0
  -22.3208  -14.0955   21.5185 C   0  0  0  0  0  0  0  0  0  0  0  0
  -21.5833  -17.1057   22.4761 C   0  0  0  0  0  0  0  0  0  0  0  0
  -22.5776  -20.3468   22.8675 C   0  0  0  0  0  0  0  0  0  0  0  0
  -29.4380  -26.6290   22.1123 C   0  0  0  0  0  0  0  0  0  0  0  0
  -20.4680   -9.3905   22.2169 C   0  0  0  0  0  0  0  0  0  0  0  0
  -24.2538  -14.6249   23.0480 C   0  0  0  0  0  0  0  0  0  0  0  0
  -23.7154  -16.8322   21.1552 C   0  0  0  0  0  0  0  0  0  0  0  0
  -19.8972  -10.8057   22.2569 C   0  0  0  0  0  0  0  0  0  0  0  0
  -28.8825  -29.9205   23.7960 C   0  0  0  0  0  0  0  0  0  0  0  0
  -20.3146  -11.5850   21.0138 C   0  0  0  0  0  0  0  0  0  0  0  0
  -27.4879  -30.2785   23.2842 C   0  0  0  0  0  0  0  0  0  0  0  0
  -29.0749  -28.4103   23.8611 C   0  0  0  0  0  0  0  0  0  0  0  0
  -29.5927  -27.6818   19.8819 C   0  0  0  0  0  0  0  0  0  0  0  0
  -27.4286  -28.0634   22.0496 C   0  0  0  0  0  0  0  0  0  0  0  0
  -31.0007  -27.9251   19.3656 C   0  0  0  0  0  0  0  0  0  0  0  0
  -31.4521  -25.4665   19.5203 C   0  0  0  0  0  0  0  0  0  0  0  0
  -21.8398  -11.7247   20.9365 C   0  0  1  0  0  0  0  0  0  0  0  0
  -22.8356  -14.9839   22.6155 C   0  0  1  0  0  0  0  0  0  0  0  0
  -27.1968  -29.5800   21.9448 C   0  0  1  0  0  0  0  0  0  0  0  0
  -30.0434  -25.2364   20.0813 C   0  0  1  0  0  0  0  0  0  0  0  0
  -26.6816  -22.7715   22.0549 C   0  0  0  0  0  0  0  0  0  0  0  0
  -22.4538  -22.7510   23.5762 C   0  0  0  0  0  0  0  0  0  0  0  0
  -26.8053  -24.1887   18.6508 C   0  0  0  0  0  0  0  0  0  0  0  0
  -31.2104  -19.9446   17.9087 C   0  0  0  0  0  0  0  0  0  0  0  0
  -20.0140  -17.4136   19.8775 C   0  0  0  0  0  0  0  0  0  0  0  0
  -20.0173  -19.8893   20.2503 C   0  0  0  0  0  0  0  0  0  0  0  0
  -18.8955  -18.3839   21.8929 C   0  0  0  0  0  0  0  0  0  0  0  0
  -23.7057  -19.7392   25.5353 C   0  0  0  0  0  0  0  0  0  0  0  0
  -27.1489  -22.0007   20.8272 C   0  0  0  0  0  0  0  0  0  0  0  0
  -29.6661  -18.1148   18.7130 C   0  0  0  0  0  0  0  0  0  0  0  0
  -28.8407  -21.7994   18.8984 C   0  0  0  0  0  0  0  0  0  0  0  0
  -28.2374  -17.6692   19.0049 C   0  0  0  0  0  0  0  0  0  1  0  0
  -21.4208  -18.4379   21.7848 C   0  0  1  0  0  0  0  0  0  0  0  0
  -22.4569  -21.3028   24.0405 C   0  0  2  0  0  0  0  0  0  0  0  0
  -28.3328  -22.6618   20.0706 C   0  0  1  0  0  0  0  0  0  0  0  0
  -27.9652  -24.1189   19.6477 C   0  0  1  0  0  0  0  0  0  0  0  0
  -29.7766  -19.5727   18.2623 C   0  0  1  0  0  0  0  0  0  0  0  0
  -20.1114  -18.5167   20.9502 C   0  0  0  0  0  0  0  0  0  0  0  0
  -24.7894  -29.0832   21.7442 N   0  0  0  0  0  0  0  0  0  0  0  0
  -25.8064  -29.9037   21.4302 N   0  0  0  0  0  0  0  0  0  0  0  0
  -22.7229  -16.3630   22.1363 N   0  0  0  0  0  0  0  0  0  0  0  0
  -28.7613  -27.7676   22.5794 N   0  0  0  0  0  0  0  0  0  0  0  0
  -29.5363  -26.4741   20.7149 N   0  0  0  0  0  0  0  0  0  0  0  0
  -26.3372  -31.8882   20.2509 N   0  0  0  0  0  0  0  0  0  0  0  0
  -21.8946  -31.4332   19.5784 N   0  0  0  0  0  0  0  0  0  0  0  0
  -22.2998  -12.7530   21.8451 N   0  0  0  0  0  0  0  0  0  0  0  0
  -21.5277  -19.4539   22.8263 N   0  0  0  0  0  0  0  0  0  0  0  0
  -29.1151  -24.7761   19.0481 N   0  0  0  0  0  0  0  0  0  0  0  0
  -31.4799  -26.6943   18.6672 N   0  3  0  0  0  0  0  0  0  0  0  0
  -23.5963  -21.1137   24.9822 N   0  3  0  0  0  0  0  0  0  0  0  0
  -29.3247  -20.4759   19.3566 N   0  3  0  0  0  0  0  0  0  0  0  0
  -23.7254  -32.7321   19.1095 O   0  0  0  0  0  0  0  0  0  0  0  0
  -21.9674  -14.5914   20.4551 O   0  0  0  0  0  0  0  0  0  0  0  0
  -20.7341  -16.7408   23.2931 O   0  0  0  0  0  0  0  0  0  0  0  0
  -23.5080  -20.3904   22.0657 O   0  0  0  0  0  0  0  0  0  0  0  0
  -29.9121  -25.7955   22.8945 O   0  0  0  0  0  0  0  0  0  0  0  0
  -18.6675  -27.3419   21.5487 O   0  0  0  0  0  0  0  0  0  0  0  0
  -28.2570  -16.3009   19.3924 O   0  0  0  0  0  0  0  0  0  1  0  0
  -17.0363  -25.5973   26.5186 F   0  0  0  0  0  0  0  0  0  0  0  0
  -16.4041  -28.3847   22.7455 F   0  0  0  0  0  0  0  0  0  0  0  0
  1  2  1  0  0  0  0
  1  5  2  0  0  0  0
  2  6  2  0  0  0  0
  3  8  2  0  0  0  0
  3 15  1  0  0  0  0
  4  9  1  0  0  0  0
  4 15  2  0  0  0  0
  5 17  1  0  0  0  0
  6 19  1  0  0  0  0
  7 10  2  0  0  0  0
  7 18  1  0  0  0  0
  8 21  1  0  0  0  0
  9 21  2  0  0  0  0
 10 22  1  0  0  0  0
 11 12  2  0  0  0  0
 11 23  1  0  0  0  0
 12 24  1  0  0  0  0
 13 20  1  0  0  0  0
 13 22  2  0  0  0  0
 14 24  2  0  0  0  0
 14 25  1  0  0  0  0
 15 26  1  0  0  0  0
 16 26  1  0  0  0  0
 16 27  2  0  0  0  0
 16 28  1  0  0  0  0
 17 19  2  0  0  0  0
 17 33  1  0  0  0  0
 18 20  2  0  0  0  0
 18 34  1  0  0  0  0
 19 45  1  0  0  0  0
 20 35  1  0  0  0  0
 21 85  1  0  0  0  0
 22 86  1  0  0  0  0
 23 25  2  0  0  0  0
 23 85  1  0  0  0  0
 24 87  1  0  0  0  0
 25 88  1  0  0  0  0
 26 67  2  0  0  0  0
 27 68  1  0  0  0  0
 27 72  1  0  0  0  0
 28 73  1  0  0  0  0
 28 80  2  0  0  0  0
 29 46  1  0  0  0  0
 29 74  1  0  0  0  0
 29 81  2  0  0  0  0
 30 61  1  0  0  0  0
 30 69  1  0  0  0  0
 30 82  2  0  0  0  0
 31 62  1  0  0  0  0
 31 75  1  0  0  0  0
 31 83  2  0  0  0  0
 32 70  1  0  0  0  0
 32 71  1  0  0  0  0
 32 84  2  0  0  0  0
 33 36  1  0  0  0  0
 34 46  1  0  0  0  0
 35 69  1  0  0  0  0
 36 38  1  0  0  0  0
 37 39  1  0  0  0  0
 37 40  1  0  0  0  0
 38 45  1  0  0  0  0
 39 47  1  0  0  0  0
 40 70  1  0  0  0  0
 41 43  1  0  0  0  0
 41 71  1  0  0  0  0
 42 47  1  0  0  0  0
 42 70  1  0  0  0  0
 43 77  1  0  0  0  0
 44 48  1  0  0  0  0
 44 77  1  0  0  0  0
 45 74  1  0  0  0  0
 46 69  1  0  0  0  0
 47 68  1  0  0  0  0
 48 71  1  0  0  0  0
 48 76  1  0  0  0  0
 49 57  1  0  0  0  0
 50 62  1  0  0  0  0
 51 64  1  0  0  0  0
 52 65  1  0  0  0  0
 53 66  1  0  0  0  0
 54 66  1  0  0  0  0
 55 66  1  0  0  0  0
 56 78  1  0  0  0  0
 57 63  1  0  0  0  0
 58 60  1  0  0  0  0
 58 65  1  0  0  0  0
 59 63  1  0  0  0  0
 59 79  1  0  0  0  0
 60 86  1  0  0  0  0
 61 66  1  0  0  0  0
 61 75  1  0  0  0  0
 62 78  1  0  0  0  0
 63 64  1  0  0  0  0
 64 76  1  0  0  0  0
 65 79  1  0  0  0  0
 67 68  1  0  0  0  0
M  CHG  3  77   1  78   1  79   1
M  ISO  4  32 100  60 101  71 100  86 101
M  END
> <Batch ID>
0120

> <Smiles>
CCC(CNC(C)C[101CH2:1][101O:1]c1ccc2c(c1)CN(C(=O)C(NC(=O)C(C)NC)C(C)(C)C)C(C(=O)NC1CCCc3ccccc31)C2)C(C)NC1CNCC[100N:0]1[100C:0](=O)N1CCCC(n2nc(-c3ccc(Oc4ccc(F)cc4F)cc3)c(C(N)=O)c2N)C1

> <Shape>
0.251

> <Color>
0.065

> <Negative vol penalty>
0.000

$$$$

  -OEChem-04052320233D

 86 94  0     1  0  0  0  0  0999 V2000
  -27.6952  -24.0738   17.4061 C   0  0  0  0  0  0  0  0  0  0  0  0
  -26.6418  -24.9563   17.6168 C   0  0  0  0  0  0  0  0  0  0  0  0
  -26.1679  -12.0857   21.3343 C   0  0  0  0  0  0  0  0  0  0  0  0
  -25.7199  -12.1628   18.9615 C   0  0  0  0  0  0  0  0  0  0  0  0
  -28.7363  -24.0041   18.3294 C   0  0  0  0  0  0  0  0  0  0  0  0
  -26.6351  -25.7780   18.7445 C   0  0  0  0  0  0  0  0  0  0  0  0
  -23.0899  -29.1785   19.0111 C   0  0  0  0  0  0  0  0  0  0  0  0
  -25.9183  -10.7134   21.3369 C   0  0  0  0  0  0  0  0  0  0  0  0
  -25.4703  -10.7904   18.9640 C   0  0  0  0  0  0  0  0  0  0  0  0
  -21.7561  -28.8588   19.2612 C   0  0  0  0  0  0  0  0  0  0  0  0
  -23.2243   -8.6723   21.3246 C   0  0  0  0  0  0  0  0  0  0  0  0
  -22.4254   -8.1615   22.3476 C   0  0  0  0  0  0  0  0  0  0  0  0
  -22.0077  -29.6167   21.5375 C   0  0  0  0  0  0  0  0  0  0  0  0
  -24.2461   -6.7425   23.0609 C   0  0  0  0  0  0  0  0  0  0  0  0
  -26.0687  -12.8105   20.1466 C   0  0  0  0  0  0  0  0  0  0  0  0
  -27.5620  -14.8674   19.9305 C   0  0  0  0  0  0  0  0  0  0  0  0
  -28.7354  -24.8167   19.4751 C   0  0  0  0  0  0  0  0  0  0  0  0
  -23.8969  -29.7104   20.0270 C   0  0  0  0  0  0  0  0  0  0  0  0
  -27.6887  -25.7395   19.6757 C   0  0  0  0  0  0  0  0  0  0  0  0
  -23.3507  -29.9447   21.2970 C   0  0  0  0  0  0  0  0  0  0  0  0
  -25.5695  -10.0658   20.1518 C   0  0  0  0  0  0  0  0  0  0  0  0
  -21.2156  -29.0751   20.5254 C   0  0  0  0  0  0  0  0  0  0  0  0
  -24.5340   -8.2181   21.1696 C   0  0  0  0  0  0  0  0  0  0  0  0
  -22.9363   -7.1967   23.2158 C   0  0  0  0  0  0  0  0  0  0  0  0
  -25.0449   -7.2532   22.0378 C   0  0  0  0  0  0  0  0  0  0  0  0
  -26.3259  -14.2282   20.1433 C   0  0  0  0  0  0  0  0  0  0  0  0
  -27.2766  -16.2075   20.0270 C   0  0  0  0  0  0  0  0  0  0  0  0
  -28.8527  -14.3006   19.6689 C   0  0  0  0  0  0  0  0  0  0  0  0
  -26.5442  -28.7688   21.5132 C   0  0  0  0  0  0  0  0  0  0  0  0
  -26.3549  -31.7044   22.8801 C   0  0  0  0  0  0  0  0  0  0  0  0
  -24.4113  -34.3615   23.7798 C   0  0  0  0  0  0  0  0  0  0  0  0
  -21.8957  -18.9290   19.2480 C   0  0  0  0  0  0  0  0  0  0  0  0
  -29.8914  -24.7060   20.4377 C   0  0  0  0  0  0  0  0  0  0  0  0
  -25.3264  -30.0749   19.7336 C   0  0  0  0  0  0  0  0  0  0  0  0
  -24.1693  -30.5325   22.4163 C   0  0  0  0  0  0  0  0  0  0  0  0
  -29.5780  -25.2875   21.8124 C   0  0  0  0  0  0  0  0  0  0  0  0
  -24.2695  -19.2664   22.1219 C   0  0  0  0  0  0  0  0  0  0  0  0
  -28.9795  -26.6783   21.6644 C   0  0  0  0  0  0  0  0  0  0  0  0
  -25.1216  -18.0108   21.9439 C   0  0  0  0  0  0  0  0  0  0  0  0
  -19.1452  -21.3227   19.8670 C   0  0  0  0  0  0  0  0  0  0  0  0
  -22.8622  -19.0614   21.5743 C   0  0  0  0  0  0  0  0  0  0  0  0
  -19.8971  -20.3496   18.9693 C   0  0  0  0  0  0  0  0  0  0  0  0
  -22.0414  -21.4297   19.5564 C   0  0  0  0  0  0  0  0  0  0  0  0
  -23.6774  -17.3734   19.9591 C   0  0  0  0  0  0  0  0  0  0  0  0
  -27.6448  -26.6211   20.9107 C   0  0  1  0  0  0  0  0  0  0  0  0
  -26.1974  -30.1319   20.9849 C   0  0  1  0  0  0  0  0  0  0  0  0
  -21.3338  -22.4263   20.4827 C   0  0  2  0  0  0  0  0  0  0  0  0
  -25.1146  -17.5451   20.4780 C   0  0  2  0  0  0  0  0  0  0  0  0
  -19.8842  -22.6530   20.0165 C   0  0  2  0  0  0  0  0  0  0  0  0
  -24.5329  -36.5962   24.9151 C   0  0  0  0  0  0  0  0  0  0  0  0
  -23.2527  -23.6280   21.5706 C   0  0  0  0  0  0  0  0  0  0  0  0
  -26.5233  -30.3151   25.5915 C   0  0  0  0  0  0  0  0  0  0  0  0
  -25.6973  -32.4293   26.6480 C   0  0  0  0  0  0  0  0  0  0  0  0
  -27.8641  -32.4186   25.4120 C   0  0  0  0  0  0  0  0  0  0  0  0
  -23.4979  -35.7772   21.3466 C   0  0  0  0  0  0  0  0  0  0  0  0
  -18.3746  -27.4531   22.0814 C   0  0  0  0  0  0  0  0  0  0  0  0
  -17.6001  -25.2399   21.2207 C   0  0  0  0  0  0  0  0  0  0  0  0
  -22.6254  -24.1822   19.1661 C   0  0  0  0  0  0  0  0  0  0  0  0
  -19.5799  -28.3723   22.1023 C   0  0  0  0  0  0  0  0  0  1  0  0
  -18.0403  -24.0673   20.3667 C   0  0  0  0  0  0  0  0  0  0  0  0
  -25.6978  -32.2674   24.1172 C   0  0  1  0  0  0  0  0  0  0  0  0
  -24.5969  -35.8559   23.5882 C   0  0  2  0  0  0  0  0  0  0  0  0
  -22.1245  -23.7355   20.5439 C   0  0  1  0  0  0  0  0  0  0  0  0
  -26.4305  -31.8447   25.4218 C   0  0  0  0  0  0  0  0  0  0  0  0
  -25.3295  -15.0911   20.3590 N   0  0  0  0  0  0  0  0  0  0  0  0
  -25.9391  -16.2863   20.2822 N   0  0  0  0  0  0  0  0  0  0  0  0
  -25.5636  -30.8665   22.0817 N   0  0  0  0  0  0  0  0  0  0  0  0
  -22.8826  -18.5822   20.1860 N   0  0  0  0  0  0  0  0  0  0  0  0
  -21.2803  -20.1815   19.4114 N   0  0  0  0  0  0  0  0  0  0  0  0
  -28.0418  -17.3142   19.9178 N   0  0  0  0  0  0  0  0  0  0  0  0
  -28.9687  -12.9054   19.6025 N   0  0  0  0  0  0  0  0  0  0  0  0
  -27.2152  -27.9686   20.6083 N   0  0  0  0  0  0  0  0  0  0  0  0
  -25.6190  -33.7103   23.9169 N   0  0  0  0  0  0  0  0  0  0  0  0
  -22.9750  -25.6222   19.1373 N   0  3  0  0  0  0  0  0  0  0  0  0
  -23.5349  -36.3995   22.6950 N   0  3  0  0  0  0  0  0  0  0  0  0
  -18.6992  -26.2356   21.2900 N   0  3  0  0  0  0  0  0  0  0  0  0
  -29.8760  -15.0097   19.5153 O   0  0  0  0  0  0  0  0  0  0  0  0
  -26.2278  -28.4659   22.6577 O   0  0  0  0  0  0  0  0  0  0  0  0
  -27.5248  -32.0031   22.6276 O   0  0  0  0  0  0  0  0  0  0  0  0
  -23.3055  -33.8260   23.8090 O   0  0  0  0  0  0  0  0  0  0  0  0
  -21.5847  -18.1689   18.3226 O   0  0  0  0  0  0  0  0  0  0  0  0
  -25.3261   -8.7266   20.1539 O   0  0  0  0  0  0  0  0  0  0  0  0
  -19.9048  -28.7611   20.7742 O   0  0  0  0  0  0  0  0  0  1  0  0
  -19.1688  -23.4432   20.9612 O   0  0  0  0  0  0  0  0  0  0  0  0
  -22.1696   -6.7075   24.1992 F   0  0  0  0  0  0  0  0  0  0  0  0
  -26.3028   -6.8139   21.8946 F   0  0  0  0  0  0  0  0  0  0  0  0
  1  2  1  0  0  0  0
  1  5  2  0  0  0  0
  2  6  2  0  0  0  0
  3  8  2  0  0  0  0
  3 15  1  0  0  0  0
  4  9  1  0  0  0  0
  4 15  2  0  0  0  0
  5 17  1  0  0  0  0
  6 19  1  0  0  0  0
  7 10  2  0  0  0  0
  7 18  1  0  0  0  0
  8 21  1  0  0  0  0
  9 21  2  0  0  0  0
 10 22  1  0  0  0  0
 11 12  2  0  0  0  0
 11 23  1  0  0  0  0
 12 24  1  0  0  0  0
 13 20  1  0  0  0  0
 13 22  2  0  0  0  0
 14 24  2  0  0  0  0
 14 25  1  0  0  0  0
 15 26  1  0  0  0  0
 16 26  1  0  0  0  0
 16 27  2  0  0  0  0
 16 28  1  0  0  0  0
 17 19  2  0  0  0  0
 17 33  1  0  0  0  0
 18 20  2  0  0  0  0
 18 34  1  0  0  0  0
 19 45  1  0  0  0  0
 20 35  1  0  0  0  0
 21 82  1  0  0  0  0
 22 83  1  0  0  0  0
 23 25  2  0  0  0  0
 23 82  1  0  0  0  0
 24 85  1  0  0  0  0
 25 86  1  0  0  0  0
 26 65  2  0  0  0  0
 27 66  1  0  0  0  0
 27 70  1  0  0  0  0
 28 71  1  0  0  0  0
 28 77  2  0  0  0  0
 29 46  1  0  0  0  0
 29 72  1  0  0  0  0
 29 78  2  0  0  0  0
 30 61  1  0  0  0  0
 30 67  1  0  0  0  0
 30 79  2  0  0  0  0
 31 62  1  0  0  0  0
 31 73  1  0  0  0  0
 31 80  2  0  0  0  0
 32 68  1  0  0  0  0
 32 69  1  0  0  0  0
 32 81  2  0  0  0  0
 33 36  1  0  0  0  0
 34 46  1  0  0  0  0
 35 67  1  0  0  0  0
 36 38  1  0  0  0  0
 37 39  1  0  0  0  0
 37 41  1  0  0  0  0
 38 45  1  0  0  0  0
 39 48  1  0  0  0  0
 40 42  1  0  0  0  0
 40 49  1  0  0  0  0
 41 68  1  0  0  0  0
 42 69  1  0  0  0  0
 43 47  1  0  0  0  0
 43 69  1  0  0  0  0
 44 48  1  0  0  0  0
 44 68  1  0  0  0  0
 45 72  1  0  0  0  0
 46 67  1  0  0  0  0
 47 49  1  0  0  0  0
 47 63  1  0  0  0  0
 48 66  1  0  0  0  0
 49 84  1  0  0  0  0
 50 62  1  0  0  0  0
 51 63  1  0  0  0  0
 52 64  1  0  0  0  0
 53 64  1  0  0  0  0
 54 64  1  0  0  0  0
 55 75  1  0  0  0  0
 56 59  1  0  0  0  0
 56 76  1  0  0  0  0
 57 60  1  0  0  0  0
 57 76  1  0  0  0  0
 58 63  1  0  0  0  0
 58 74  1  0  0  0  0
 59 83  1  0  0  0  0
 60 84  1  0  0  0  0
 61 64  1  0  0  0  0
 61 73  1  0  0  0  0
 62 75  1  0  0  0  0
 65 66  1  0  0  0  0
M  CHG  3  74   1  75   1  76   1
M  ISO  4  32 100  59 101  69 100  83 101
M  END
> <Batch ID>
0120

> <Smiles>
CNC(C)C(=O)NC(C(=O)N1Cc2cc([101O:1][101CH2:1]CNCCOC3CC[100N:0]([100C:0](=O)N4CCCC(n5nc(-c6ccc(Oc7ccc(F)cc7F)cc6)c(C(N)=O)c5N)C4)CC3C(C)CN)ccc2CC1C(=O)NC1CCCc2ccccc21)C(C)(C)C

> <Shape>
0.285

> <Color>
0.070

> <Negative vol penalty>
0.000

$$$$

  -OEChem-04052320233D

 88 97  0     1  0  0  0  0  0999 V2000
  -18.3407  -33.3021   21.2912 C   0  0  0  0  0  0  0  0  0  0  0  0
  -19.6828  -33.2289   20.9322 C   0  0  0  0  0  0  0  0  0  0  0  0
  -24.4346  -11.4024   19.8072 C   0  0  0  0  0  0  0  0  0  0  0  0
  -25.3025  -11.6307   22.0503 C   0  0  0  0  0  0  0  0  0  0  0  0
  -17.8491  -32.4934   22.3151 C   0  0  0  0  0  0  0  0  0  0  0  0
  -20.5343  -32.3477   21.5976 C   0  0  0  0  0  0  0  0  0  0  0  0
  -25.2518  -29.2677   19.1967 C   0  0  0  0  0  0  0  0  0  0  0  0
  -24.6103  -10.0206   19.8798 C   0  0  0  0  0  0  0  0  0  0  0  0
  -25.4782  -10.2489   22.1230 C   0  0  0  0  0  0  0  0  0  0  0  0
  -26.6253  -29.5070   19.1957 C   0  0  0  0  0  0  0  0  0  0  0  0
  -25.8187   -6.7456   23.0335 C   0  0  0  0  0  0  0  0  0  0  0  0
  -25.4079   -6.0993   24.1994 C   0  0  0  0  0  0  0  0  0  0  0  0
  -26.8752  -28.0461   21.0989 C   0  0  0  0  0  0  0  0  0  0  0  0
  -23.1484   -6.8716   23.8314 C   0  0  0  0  0  0  0  0  0  0  0  0
  -30.9395  -22.7350   20.1963 C   0  0  0  0  0  0  0  0  0  0  0  0
  -24.7807  -12.2075   20.8924 C   0  0  0  0  0  0  0  0  0  0  0  0
  -23.4555  -14.3674   21.1862 C   0  0  0  0  0  0  0  0  0  0  0  0
  -18.6929  -31.5949   22.9869 C   0  0  0  0  0  0  0  0  0  0  0  0
  -24.6772  -28.4228   20.1572 C   0  0  0  0  0  0  0  0  0  0  0  0
  -20.0539  -31.5272   22.6323 C   0  0  0  0  0  0  0  0  0  0  0  0
  -25.4945  -27.7956   21.1084 C   0  0  0  0  0  0  0  0  0  0  0  0
  -31.8223  -23.3278   19.3269 C   0  0  0  0  0  0  0  0  0  0  0  0
  -25.1321   -9.4438   21.0377 C   0  0  0  0  0  0  0  0  0  0  0  0
  -27.4368  -28.8985   20.1486 C   0  0  0  0  0  0  0  0  0  0  0  0
  -24.8943   -7.4550   22.2667 C   0  0  0  0  0  0  0  0  0  0  0  0
  -24.0728   -6.1622   24.5983 C   0  0  0  0  0  0  0  0  0  0  0  0
  -23.5592   -7.5179   22.6656 C   0  0  0  0  0  0  0  0  0  0  0  0
  -24.5999  -13.6350   20.8178 C   0  0  0  0  0  0  0  0  0  0  0  0
  -32.6341  -22.2705   18.8743 C   0  0  0  0  0  0  0  0  0  0  0  0
  -23.7861  -15.6749   20.9261 C   0  0  0  0  0  0  0  0  0  0  0  0
  -22.2054  -13.9070   21.7163 C   0  0  0  0  0  0  0  0  0  0  0  0
  -22.5336  -28.7925   22.4749 C   0  0  0  0  0  0  0  0  0  0  0  0
  -22.8442  -25.5747   22.7429 C   0  0  0  0  0  0  0  0  0  0  0  0
  -24.7607  -22.7968   22.2360 C   0  0  0  0  0  0  0  0  0  0  0  0
  -28.9921  -18.4500   20.7168 C   0  0  0  0  0  0  0  0  0  0  0  0
  -18.1264  -30.7751   24.1190 C   0  0  0  0  0  0  0  0  0  0  0  0
  -23.1976  -28.1538   20.1282 C   0  0  0  0  0  0  0  0  0  0  0  0
  -24.9297  -26.8641   22.1484 C   0  0  0  0  0  0  0  0  0  0  0  0
  -19.0117  -29.5985   24.5215 C   0  0  0  0  0  0  0  0  0  0  0  0
  -26.5407  -18.3429   18.0605 C   0  0  0  0  0  0  0  0  0  0  0  0
  -20.4649  -30.0438   24.6513 C   0  0  0  0  0  0  0  0  0  0  0  0
  -25.6521  -17.1823   18.5126 C   0  0  0  0  0  0  0  0  0  0  0  0
  -30.5935  -25.2215   18.2774 C   0  0  0  0  0  0  0  0  0  0  0  0
  -32.1976  -25.6342   20.1861 C   0  0  0  0  0  0  0  0  0  0  0  0
  -28.0079  -18.0703   18.3776 C   0  0  0  0  0  0  0  0  0  0  0  0
  -27.3960  -16.6081   20.2651 C   0  0  0  0  0  0  0  0  0  0  0  0
  -30.6354  -26.7051   17.9341 C   0  0  0  0  0  0  0  0  0  0  0  0
  -32.2275  -27.1146   19.8280 C   0  0  0  0  0  0  0  0  0  0  0  0
  -31.8940  -24.7628   18.9567 C   0  0  0  0  0  0  0  0  0  0  0  0
  -21.0035  -30.5661   23.3139 C   0  0  1  0  0  0  0  0  0  0  0  0
  -22.6500  -27.6805   21.4711 C   0  0  1  0  0  0  0  0  0  0  0  0
  -25.8973  -16.8312   19.9922 C   0  0  2  0  0  0  0  0  0  0  0  0
  -33.5089  -21.5062   16.6373 C   0  0  0  0  0  0  0  0  0  0  0  0
  -35.1079  -21.9186   18.5421 C   0  0  0  0  0  0  0  0  0  0  0  0
  -24.7624  -20.3129   22.5928 C   0  0  0  0  0  0  0  0  0  0  0  0
  -23.4253  -26.0033   25.7074 C   0  0  0  0  0  0  0  0  0  0  0  0
  -24.3341  -23.6721   25.7949 C   0  0  0  0  0  0  0  0  0  0  0  0
  -21.9403  -24.0544   25.2066 C   0  0  0  0  0  0  0  0  0  0  0  0
  -24.9659  -22.2631   19.3322 C   0  0  0  0  0  0  0  0  0  0  0  0
  -30.8432  -28.9827   18.9280 C   0  0  0  0  0  0  0  0  0  0  0  0
  -29.3897  -29.4118   18.8922 C   0  0  0  0  0  0  0  0  0  1  0  0
  -30.5863  -20.3360   21.0130 C   0  0  0  0  0  0  0  0  0  0  0  0
  -33.7544  -22.3368   17.9196 C   0  0  0  0  0  0  0  0  0  0  0  0
  -23.7384  -24.6490   23.5317 C   0  0  1  0  0  0  0  0  0  0  0  0
  -24.4331  -21.4437   21.6308 C   0  0  2  0  0  0  0  0  0  0  0  0
  -23.3702  -24.6137   25.0419 C   0  0  0  0  0  0  0  0  0  0  0  0
  -25.5839  -14.4126   20.3584 N   0  0  0  0  0  0  0  0  0  0  0  0
  -32.2970  -21.0951   19.4118 N   0  0  0  0  0  0  0  0  0  0  0  0
  -31.2638  -21.4103   20.2112 N   0  0  0  0  0  0  0  0  0  0  0  0
  -25.0588  -15.6472   20.4364 N   0  0  0  0  0  0  0  0  0  0  0  0
  -23.4764  -26.6379   22.0828 N   0  0  0  0  0  0  0  0  0  0  0  0
  -28.1741  -17.7627   19.8050 N   0  0  0  0  0  0  0  0  0  0  0  0
  -23.1094  -16.8340   21.0707 N   0  0  0  0  0  0  0  0  0  0  0  0
  -22.0330  -12.5314   21.9222 N   0  0  0  0  0  0  0  0  0  0  0  0
  -21.3263  -29.4635   22.4338 N   0  0  0  0  0  0  0  0  0  0  0  0
  -23.6684  -23.3511   22.8692 N   0  0  0  0  0  0  0  0  0  0  0  0
  -29.7012  -19.5251   20.1936 N   0  0  0  0  0  0  0  0  0  0  0  0
  -30.9167  -27.5216   19.1815 N   0  3  0  0  0  0  0  0  0  0  0  0
  -25.2106  -21.2353   20.3766 N   0  3  0  0  0  0  0  0  0  0  0  0
  -21.2630  -14.6906   21.9835 O   0  0  0  0  0  0  0  0  0  0  0  0
  -23.4693  -29.0236   23.2317 O   0  0  0  0  0  0  0  0  0  0  0  0
  -21.6303  -25.3583   22.7077 O   0  0  0  0  0  0  0  0  0  0  0  0
  -25.8752  -23.3090   22.1583 O   0  0  0  0  0  0  0  0  0  0  0  0
  -29.0814  -18.1323   21.9074 O   0  0  0  0  0  0  0  0  0  0  0  0
  -25.3035   -8.0954   21.1091 O   0  0  0  0  0  0  0  0  0  0  0  0
  -28.7776  -29.1310   20.1503 O   0  0  0  0  0  0  0  0  0  1  0  0
  -23.6782   -5.5402   25.7170 F   0  0  0  0  0  0  0  0  0  0  0  0
  -22.6664   -8.1969   21.9323 F   0  0  0  0  0  0  0  0  0  0  0  0
  1  2  1  0  0  0  0
  1  5  2  0  0  0  0
  2  6  2  0  0  0  0
  3  8  2  0  0  0  0
  3 16  1  0  0  0  0
  4  9  1  0  0  0  0
  4 16  2  0  0  0  0
  5 18  1  0  0  0  0
  6 20  1  0  0  0  0
  7 10  2  0  0  0  0
  7 19  1  0  0  0  0
  8 23  1  0  0  0  0
  9 23  2  0  0  0  0
 10 24  1  0  0  0  0
 11 12  2  0  0  0  0
 11 25  1  0  0  0  0
 12 26  1  0  0  0  0
 13 21  1  0  0  0  0
 13 24  2  0  0  0  0
 14 26  2  0  0  0  0
 14 27  1  0  0  0  0
 15 22  2  0  0  0  0
 15 69  1  0  0  0  0
 16 28  1  0  0  0  0
 17 28  1  0  0  0  0
 17 30  2  0  0  0  0
 17 31  1  0  0  0  0
 18 20  2  0  0  0  0
 18 36  1  0  0  0  0
 19 21  2  0  0  0  0
 19 37  1  0  0  0  0
 20 50  1  0  0  0  0
 21 38  1  0  0  0  0
 22 29  1  0  0  0  0
 22 49  1  0  0  0  0
 23 85  1  0  0  0  0
 24 86  1  0  0  0  0
 25 27  2  0  0  0  0
 25 85  1  0  0  0  0
 26 87  1  0  0  0  0
 27 88  1  0  0  0  0
 28 67  2  0  0  0  0
 29 63  1  0  0  0  0
 29 68  2  0  0  0  0
 30 70  1  0  0  0  0
 30 73  1  0  0  0  0
 31 74  1  0  0  0  0
 31 80  2  0  0  0  0
 32 51  1  0  0  0  0
 32 75  1  0  0  0  0
 32 81  2  0  0  0  0
 33 64  1  0  0  0  0
 33 71  1  0  0  0  0
 33 82  2  0  0  0  0
 34 65  1  0  0  0  0
 34 76  1  0  0  0  0
 34 83  2  0  0  0  0
 35 72  1  0  0  0  0
 35 77  1  0  0  0  0
 35 84  2  0  0  0  0
 36 39  1  0  0  0  0
 37 51  1  0  0  0  0
 38 71  1  0  0  0  0
 39 41  1  0  0  0  0
 40 42  1  0  0  0  0
 40 45  1  0  0  0  0
 41 50  1  0  0  0  0
 42 52  1  0  0  0  0
 43 47  1  0  0  0  0
 43 49  1  0  0  0  0
 44 48  1  0  0  0  0
 44 49  1  0  0  0  0
 45 72  1  0  0  0  0
 46 52  1  0  0  0  0
 46 72  1  0  0  0  0
 47 78  1  0  0  0  0
 48 78  1  0  0  0  0
 50 75  1  0  0  0  0
 51 71  1  0  0  0  0
 52 70  1  0  0  0  0
 53 63  1  0  0  0  0
 54 63  1  0  0  0  0
 55 65  1  0  0  0  0
 56 66  1  0  0  0  0
 57 66  1  0  0  0  0
 58 66  1  0  0  0  0
 59 79  1  0  0  0  0
 60 61  1  0  0  0  0
 60 78  1  0  0  0  0
 61 86  1  0  0  0  0
 62 69  1  0  0  0  0
 62 77  1  0  0  0  0
 64 66  1  0  0  0  0
 64 76  1  0  0  0  0
 65 79  1  0  0  0  0
 67 70  1  0  0  0  0
 68 69  1  0  0  0  0
M  CHG  2  78   1  79   1
M  ISO  4  35 100  61 101  77 100  86 101
M  END
> <Batch ID>
0120

> <Smiles>
CNC(C)C(=O)NC(C(=O)N1Cc2cc([101O:1][101CH2:1]CN3CCC(c4cn(C[100NH:0][100C:0](=O)N5CCCC(n6nc(-c7ccc(Oc8ccc(F)cc8F)cc7)c(C(N)=O)c6N)C5)nc4C(C)C)CC3)ccc2CC1C(=O)NC1CCCc2ccccc21)C(C)(C)C

> <Shape>
0.213

> <Color>
0.080

> <Negative vol penalty>
0.000

$$$$

  -OEChem-04052320233D

 82 90  0     1  0  0  0  0  0999 V2000
  -17.6477  -29.4389   25.1907 C   0  0  0  0  0  0  0  0  0  0  0  0
  -18.4603  -28.5457   25.8816 C   0  0  0  0  0  0  0  0  0  0  0  0
  -24.1485  -13.8737   21.2923 C   0  0  0  0  0  0  0  0  0  0  0  0
  -26.5591  -13.7149   21.3224 C   0  0  0  0  0  0  0  0  0  0  0  0
  -17.7044  -29.4979   23.7988 C   0  0  0  0  0  0  0  0  0  0  0  0
  -19.3293  -27.7102   25.1809 C   0  0  0  0  0  0  0  0  0  0  0  0
  -25.7437  -24.5749   25.7653 C   0  0  0  0  0  0  0  0  0  0  0  0
  -24.0710  -12.5933   20.7446 C   0  0  0  0  0  0  0  0  0  0  0  0
  -26.4816  -12.4344   20.7747 C   0  0  0  0  0  0  0  0  0  0  0  0
  -26.3434  -23.3208   25.6581 C   0  0  0  0  0  0  0  0  0  0  0  0
  -23.2247   -9.2240   19.6738 C   0  0  0  0  0  0  0  0  0  0  0  0
  -22.2838   -8.3451   20.2102 C   0  0  0  0  0  0  0  0  0  0  0  0
  -26.4135  -23.5660   23.2593 C   0  0  0  0  0  0  0  0  0  0  0  0
  -23.3519   -8.5201   22.3703 C   0  0  0  0  0  0  0  0  0  0  0  0
  -30.9133  -21.9163   23.9984 C   0  0  0  0  0  0  0  0  0  0  0  0
  -25.3926  -14.4346   21.5812 C   0  0  0  0  0  0  0  0  0  0  0  0
  -25.4791  -16.0996   23.5120 C   0  0  0  0  0  0  0  0  0  0  0  0
  -18.5816  -28.6694   23.0813 C   0  0  0  0  0  0  0  0  0  0  0  0
  -25.4641  -25.3305   24.6176 C   0  0  0  0  0  0  0  0  0  0  0  0
  -19.3969  -27.7572   23.7780 C   0  0  0  0  0  0  0  0  0  0  0  0
  -25.8126  -24.8305   23.3548 C   0  0  0  0  0  0  0  0  0  0  0  0
  -25.2375  -11.8736   20.4858 C   0  0  0  0  0  0  0  0  0  0  0  0
  -26.6757  -22.8149   24.4048 C   0  0  0  0  0  0  0  0  0  0  0  0
  -24.2293   -9.7509   20.4855 C   0  0  0  0  0  0  0  0  0  0  0  0
  -22.3474   -7.9932   21.5585 C   0  0  0  0  0  0  0  0  0  0  0  0
  -24.2928   -9.3990   21.8337 C   0  0  0  0  0  0  0  0  0  0  0  0
  -25.4734  -15.7575   22.1464 C   0  0  0  0  0  0  0  0  0  0  0  0
  -30.0523  -20.8154   23.8299 C   0  0  0  0  0  0  0  0  0  0  0  0
  -31.5029  -22.0824   22.7691 C   0  0  0  0  0  0  0  0  0  0  0  0
  -25.5701  -17.4700   23.5223 C   0  0  0  0  0  0  0  0  0  0  0  0
  -25.4086  -15.2541   24.6678 C   0  0  0  0  0  0  0  0  0  0  0  0
  -22.8185  -26.4601   23.2653 C   0  0  0  0  0  0  0  0  0  0  0  0
  -24.9245  -27.9119   21.2705 C   0  0  0  0  0  0  0  0  0  0  0  0
  -28.0392  -27.9512   19.8761 C   0  0  0  0  0  0  0  0  0  0  0  0
  -27.7351  -21.4422   19.5998 C   0  0  0  0  0  0  0  0  0  0  0  0
  -18.5735  -28.7358   21.5746 C   0  0  0  0  0  0  0  0  0  0  0  0
  -24.8412  -26.6930   24.7520 C   0  0  0  0  0  0  0  0  0  0  0  0
  -25.5519  -25.6109   22.0933 C   0  0  0  0  0  0  0  0  0  0  0  0
  -19.7919  -28.0803   20.9295 C   0  0  0  0  0  0  0  0  0  0  0  0
  -24.4299  -21.3181   20.9178 C   0  0  0  0  0  0  0  0  0  0  0  0
  -20.0608  -26.7172   21.5591 C   0  0  0  0  0  0  0  0  0  0  0  0
  -24.3231  -19.9098   21.5054 C   0  0  0  0  0  0  0  0  0  0  0  0
  -25.2605  -21.3335   19.6365 C   0  0  0  0  0  0  0  0  0  0  0  0
  -26.4938  -19.3217   20.3474 C   0  0  0  0  0  0  0  0  0  0  0  0
  -20.3704  -26.8519   23.0549 C   0  0  1  0  0  0  0  0  0  0  0  0
  -24.1334  -27.1543   23.4817 C   0  0  1  0  0  0  0  0  0  0  0  0
  -25.7121  -19.2644   21.6710 C   0  0  2  0  0  0  0  0  0  0  0  0
  -32.4978  -23.0626   22.2967 C   0  0  0  0  0  0  0  0  0  0  0  0
  -29.9560  -19.6081   26.0355 C   0  0  0  0  0  0  0  0  0  0  0  0
  -29.4548  -29.2393   18.2531 C   0  0  0  0  0  0  0  0  0  0  0  0
  -23.3927  -26.6622   18.9464 C   0  0  0  0  0  0  0  0  0  0  0  0
  -25.3504  -27.1740   17.4720 C   0  0  0  0  0  0  0  0  0  0  0  0
  -24.1023  -29.0313   18.5744 C   0  0  0  0  0  0  0  0  0  0  0  0
  -30.0381  -28.6038   21.9588 C   0  0  0  0  0  0  0  0  0  0  0  0
  -31.2870  -20.8692   20.5792 C   0  0  0  0  0  0  0  0  0  0  0  0
  -30.2163  -21.4024   19.6309 C   0  0  0  0  0  0  0  0  0  0  0  0
  -28.0829  -21.1663   25.3835 C   0  0  0  0  0  0  0  0  0  1  0  0
  -29.1433  -20.1819   24.8715 C   0  0  1  0  0  0  0  0  0  0  0  0
  -25.5943  -27.5413   19.9693 C   0  0  1  0  0  0  0  0  0  0  0  0
  -29.0545  -29.0674   19.7101 C   0  0  2  0  0  0  0  0  0  0  0  0
  -24.6132  -27.5864   18.7639 C   0  0  0  0  0  0  0  0  0  0  0  0
  -25.5542  -16.8246   21.3472 N   0  0  0  0  0  0  0  0  0  0  0  0
  -30.0885  -20.3173   22.5911 N   0  0  0  0  0  0  0  0  0  0  0  0
  -30.9794  -21.1090   21.9700 N   0  0  0  0  0  0  0  0  0  0  0  0
  -25.6114  -17.8507   22.2133 N   0  0  0  0  0  0  0  0  0  0  0  0
  -24.9354  -26.9352   22.2764 N   0  0  0  0  0  0  0  0  0  0  0  0
  -26.5662  -20.7087   19.8618 N   0  0  0  0  0  0  0  0  0  0  0  0
  -25.6179  -18.3745   24.5233 N   0  0  0  0  0  0  0  0  0  0  0  0
  -25.3189  -13.8685   24.4776 N   0  0  0  0  0  0  0  0  0  0  0  0
  -21.7292  -27.3102   23.2505 N   0  0  0  0  0  0  0  0  0  0  0  0
  -26.7457  -28.4272   19.8360 N   0  0  0  0  0  0  0  0  0  0  0  0
  -28.9302  -20.7777   19.8462 N   0  0  0  0  0  0  0  0  0  0  0  0
  -30.2816  -28.7737   20.5031 N   0  3  0  0  0  0  0  0  0  0  0  0
  -25.4080  -15.7149   25.8345 O   0  0  0  0  0  0  0  0  0  0  0  0
  -22.7942  -25.2435   23.1208 O   0  0  0  0  0  0  0  0  0  0  0  0
  -24.4169  -29.0295   21.3925 O   0  0  0  0  0  0  0  0  0  0  0  0
  -28.3613  -26.7742   20.0227 O   0  0  0  0  0  0  0  0  0  0  0  0
  -27.7150  -22.6052   19.1827 O   0  0  0  0  0  0  0  0  0  0  0  0
  -25.1622  -10.6240   19.9516 O   0  0  0  0  0  0  0  0  0  0  0  0
  -27.2605  -21.5908   24.2973 O   0  0  0  0  0  0  0  0  0  1  0  0
  -21.4428   -7.1503   22.0738 F   0  0  0  0  0  0  0  0  0  0  0  0
  -25.2549   -9.9029   22.6188 F   0  0  0  0  0  0  0  0  0  0  0  0
  1  2  1  0  0  0  0
  1  5  2  0  0  0  0
  2  6  2  0  0  0  0
  3  8  2  0  0  0  0
  3 16  1  0  0  0  0
  4  9  1  0  0  0  0
  4 16  2  0  0  0  0
  5 18  1  0  0  0  0
  6 20  1  0  0  0  0
  7 10  2  0  0  0  0
  7 19  1  0  0  0  0
  8 22  1  0  0  0  0
  9 22  2  0  0  0  0
 10 23  1  0  0  0  0
 11 12  2  0  0  0  0
 11 24  1  0  0  0  0
 12 25  1  0  0  0  0
 13 21  1  0  0  0  0
 13 23  2  0  0  0  0
 14 25  2  0  0  0  0
 14 26  1  0  0  0  0
 15 28  1  0  0  0  0
 15 29  2  0  0  0  0
 16 27  1  0  0  0  0
 17 27  1  0  0  0  0
 17 30  2  0  0  0  0
 17 31  1  0  0  0  0
 18 20  2  0  0  0  0
 18 36  1  0  0  0  0
 19 21  2  0  0  0  0
 19 37  1  0  0  0  0
 20 45  1  0  0  0  0
 21 38  1  0  0  0  0
 22 79  1  0  0  0  0
 23 80  1  0  0  0  0
 24 26  2  0  0  0  0
 24 79  1  0  0  0  0
 25 81  1  0  0  0  0
 26 82  1  0  0  0  0
 27 62  2  0  0  0  0
 28 58  1  0  0  0  0
 28 63  2  0  0  0  0
 29 48  1  0  0  0  0
 29 64  1  0  0  0  0
 30 65  1  0  0  0  0
 30 68  1  0  0  0  0
 31 69  1  0  0  0  0
 31 74  2  0  0  0  0
 32 46  1  0  0  0  0
 32 70  1  0  0  0  0
 32 75  2  0  0  0  0
 33 59  1  0  0  0  0
 33 66  1  0  0  0  0
 33 76  2  0  0  0  0
 34 60  1  0  0  0  0
 34 71  1  0  0  0  0
 34 77  2  0  0  0  0
 35 67  1  0  0  0  0
 35 72  1  0  0  0  0
 35 78  2  0  0  0  0
 36 39  1  0  0  0  0
 37 46  1  0  0  0  0
 38 66  1  0  0  0  0
 39 41  1  0  0  0  0
 40 42  1  0  0  0  0
 40 43  1  0  0  0  0
 41 45  1  0  0  0  0
 42 47  1  0  0  0  0
 43 67  1  0  0  0  0
 44 47  1  0  0  0  0
 44 67  1  0  0  0  0
 45 70  1  0  0  0  0
 46 66  1  0  0  0  0
 47 65  1  0  0  0  0
 49 58  1  0  0  0  0
 50 60  1  0  0  0  0
 51 61  1  0  0  0  0
 52 61  1  0  0  0  0
 53 61  1  0  0  0  0
 54 73  1  0  0  0  0
 55 56  1  0  0  0  0
 55 64  1  0  0  0  0
 56 72  1  0  0  0  0
 57 58  1  0  0  0  0
 57 80  1  0  0  0  0
 59 61  1  0  0  0  0
 59 71  1  0  0  0  0
 60 73  1  0  0  0  0
 62 65  1  0  0  0  0
 63 64  1  0  0  0  0
M  CHG  1  73   1
M  ISO  4  35 100  57 101  72 100  80 101
M  END
> <Batch ID>
0120

> <Smiles>
CNC(C)C(=O)NC(C(=O)N1Cc2cc([101O:1][101CH2:1]C(C)c3cc(C)n(CC[100NH:0][100C:0](=O)N4CCCC(n5nc(-c6ccc(Oc7ccc(F)cc7F)cc6)c(C(N)=O)c5N)C4)n3)ccc2CC1C(=O)NC1CCCc2ccccc21)C(C)(C)C

> <Shape>
0.188

> <Color>
0.074

> <Negative vol penalty>
0.000

$$$$

  -OEChem-04052320233D

 83 91  0     1  0  0  0  0  0999 V2000
  -17.1691  -27.9108   22.2795 C   0  0  0  0  0  0  0  0  0  0  0  0
  -18.1481  -27.0833   21.7387 C   0  0  0  0  0  0  0  0  0  0  0  0
  -23.0900   -9.8858   19.9448 C   0  0  0  0  0  0  0  0  0  0  0  0
  -24.0393   -9.8151   22.1653 C   0  0  0  0  0  0  0  0  0  0  0  0
  -17.4663  -29.2411   22.5723 C   0  0  0  0  0  0  0  0  0  0  0  0
  -19.4246  -27.5861   21.4895 C   0  0  0  0  0  0  0  0  0  0  0  0
  -23.0851  -24.4414   23.0246 C   0  0  0  0  0  0  0  0  0  0  0  0
  -27.5469  -19.1279   20.1912 C   0  0  0  0  0  0  0  0  0  0  0  0
  -27.2112  -19.0317   22.5818 C   0  0  0  0  0  0  0  0  0  0  0  0
  -26.3806  -19.8811   20.0576 C   0  0  0  0  0  0  0  0  0  0  0  0
  -26.0448  -19.7849   22.4483 C   0  0  0  0  0  0  0  0  0  0  0  0
  -22.4211   -8.6872   20.1925 C   0  0  0  0  0  0  0  0  0  0  0  0
  -23.3703   -8.6164   22.4131 C   0  0  0  0  0  0  0  0  0  0  0  0
  -23.3657  -23.3451   22.2101 C   0  0  0  0  0  0  0  0  0  0  0  0
  -20.2425   -7.6351   23.2342 C   0  0  0  0  0  0  0  0  0  0  0  0
  -19.5894   -7.5004   24.4592 C   0  0  0  0  0  0  0  0  0  0  0  0
  -25.2657  -24.5177   21.2969 C   0  0  0  0  0  0  0  0  0  0  0  0
  -20.9721   -5.5907   24.9865 C   0  0  0  0  0  0  0  0  0  0  0  0
  -23.8991  -10.4498   20.9312 C   0  0  0  0  0  0  0  0  0  0  0  0
  -24.1186  -12.9913   20.9193 C   0  0  0  0  0  0  0  0  0  0  0  0
  -18.7499  -29.7579   22.3355 C   0  0  0  0  0  0  0  0  0  0  0  0
  -23.8876  -25.5902   22.9733 C   0  0  0  0  0  0  0  0  0  0  0  0
  -19.7388  -28.9250   21.7782 C   0  0  0  0  0  0  0  0  0  0  0  0
  -24.9947  -25.6262   22.1135 C   0  0  0  0  0  0  0  0  0  0  0  0
  -27.9622  -18.7031   21.4532 C   0  0  0  0  0  0  0  0  0  0  0  0
  -25.6295  -20.2097   21.1862 C   0  0  0  0  0  0  0  0  0  0  0  0
  -22.5612   -8.0525   21.4267 C   0  0  0  0  0  0  0  0  0  0  0  0
  -24.4544  -23.3843   21.3440 C   0  0  0  0  0  0  0  0  0  0  0  0
  -21.2604   -6.7475   22.8852 C   0  0  0  0  0  0  0  0  0  0  0  0
  -19.9542   -6.4783   25.3355 C   0  0  0  0  0  0  0  0  0  0  0  0
  -21.6252   -5.7253   23.7614 C   0  0  0  0  0  0  0  0  0  0  0  0
  -24.5908  -11.6876   20.6756 C   0  0  0  0  0  0  0  0  0  0  0  0
  -25.1424  -13.8096   20.5086 C   0  0  0  0  0  0  0  0  0  0  0  0
  -22.8666  -13.4238   21.4679 C   0  0  0  0  0  0  0  0  0  0  0  0
  -23.3969  -28.6371   22.2123 C   0  0  0  0  0  0  0  0  0  0  0  0
  -26.4582  -28.9790   23.2293 C   0  0  0  0  0  0  0  0  0  0  0  0
  -29.4999  -27.5400   23.7981 C   0  0  0  0  0  0  0  0  0  0  0  0
  -30.7439  -14.7598   20.7030 C   0  0  0  0  0  0  0  0  0  0  0  0
  -19.0104  -31.2151   22.6242 C   0  0  0  0  0  0  0  0  0  0  0  0
  -23.5873  -26.7539   23.8776 C   0  0  0  0  0  0  0  0  0  0  0  0
  -25.8993  -26.8279   22.0353 C   0  0  0  0  0  0  0  0  0  0  0  0
  -20.4942  -31.5693   22.6791 C   0  0  0  0  0  0  0  0  0  0  0  0
  -29.3420  -12.7992   17.8937 C   0  0  0  0  0  0  0  0  0  0  0  0
  -21.2334  -30.9575   21.4933 C   0  0  0  0  0  0  0  0  0  0  0  0
  -27.9706  -12.3876   18.4264 C   0  0  0  0  0  0  0  0  0  0  0  0
  -30.3518  -12.9976   19.0200 C   0  0  0  0  0  0  0  0  0  0  0  0
  -28.5314  -13.5399   20.6032 C   0  0  0  0  0  0  0  0  0  0  0  0
  -21.1423  -29.4269   21.5167 C   0  0  1  0  0  0  0  0  0  0  0  0
  -24.1683  -28.0702   23.3704 C   0  0  1  0  0  0  0  0  0  0  0  0
  -27.4783  -13.3771   19.4969 C   0  0  2  0  0  0  0  0  0  0  0  0
  -22.8027  -19.0616   20.5834 C   0  0  0  0  0  0  0  0  0  0  0  0
  -31.8169  -28.0811   24.5957 C   0  0  0  0  0  0  0  0  0  0  0  0
  -27.0678  -30.3064   20.5504 C   0  0  0  0  0  0  0  0  0  0  0  0
  -29.5039  -29.9581   21.0112 C   0  0  0  0  0  0  0  0  0  0  0  0
  -28.1436  -31.4002   22.5253 C   0  0  0  0  0  0  0  0  0  0  0  0
  -31.0516  -16.0328   22.7921 C   0  0  0  0  0  0  0  0  0  0  0  0
  -29.2838  -25.6544   26.0689 C   0  0  0  0  0  0  0  0  0  0  0  0
  -29.2091  -17.8978   21.5969 C   0  0  0  0  0  0  0  0  0  0  0  0
  -23.3297  -20.4033   20.0964 C   0  0  0  0  0  0  0  0  0  0  0  0
  -28.9774  -16.3848   21.5039 C   0  0  0  0  0  0  0  0  0  0  0  0
  -24.3670  -21.0271   21.0408 C   0  0  2  0  0  0  0  0  0  1  0  0
  -27.8171  -28.8937   22.5774 C   0  0  1  0  0  0  0  0  0  0  0  0
  -30.4323  -27.5950   24.9948 C   0  0  2  0  0  0  0  0  0  0  0  0
  -28.1151  -30.1175   21.6659 C   0  0  0  0  0  0  0  0  0  0  0  0
  -25.8190  -11.6738   20.1507 N   0  0  0  0  0  0  0  0  0  0  0  0
  -26.1271  -12.9788   20.0610 N   0  0  0  0  0  0  0  0  0  0  0  0
  -25.5605  -27.9430   22.9349 N   0  0  0  0  0  0  0  0  0  0  0  0
  -29.8410  -13.9086   20.0449 N   0  0  0  0  0  0  0  0  0  0  0  0
  -25.2874  -15.1517   20.4902 N   0  0  0  0  0  0  0  0  0  0  0  0
  -21.9275  -12.4513   21.8376 N   0  0  0  0  0  0  0  0  0  0  0  0
  -22.0651  -28.8805   22.4885 N   0  0  0  0  0  0  0  0  0  0  0  0
  -28.7778  -28.7064   23.6593 N   0  0  0  0  0  0  0  0  0  0  0  0
  -30.2155  -15.6269   21.6713 N   0  0  0  0  0  0  0  0  0  0  0  0
  -30.5674  -26.2437   25.6087 N   0  3  0  0  0  0  0  0  0  0  0  0
  -22.5823  -14.6372   21.6103 O   0  0  0  0  0  0  0  0  0  0  0  0
  -23.9682  -28.8401   21.1473 O   0  0  0  0  0  0  0  0  0  0  0  0
  -26.2050  -29.9262   23.9779 O   0  0  0  0  0  0  0  0  0  0  0  0
  -29.4229  -26.5617   23.0581 O   0  0  0  0  0  0  0  0  0  0  0  0
  -31.9518  -14.7521   20.4334 O   0  0  0  0  0  0  0  0  0  0  0  0
  -21.9084   -6.8830   21.6689 O   0  0  0  0  0  0  0  0  0  0  0  0
  -24.7302  -22.3159   20.5475 O   0  0  0  0  0  0  0  0  0  1  0  0
  -19.3279   -6.3500   26.5125 F   0  0  0  0  0  0  0  0  0  0  0  0
  -22.6032   -4.8703   23.4322 F   0  0  0  0  0  0  0  0  0  0  0  0
  1  2  1  0  0  0  0
  1  5  2  0  0  0  0
  2  6  2  0  0  0  0
  3 12  2  0  0  0  0
  3 19  1  0  0  0  0
  4 13  1  0  0  0  0
  4 19  2  0  0  0  0
  5 21  1  0  0  0  0
  6 23  1  0  0  0  0
  7 14  2  0  0  0  0
  7 22  1  0  0  0  0
  8 10  2  0  0  0  0
  8 25  1  0  0  0  0
  9 11  1  0  0  0  0
  9 25  2  0  0  0  0
 10 26  1  0  0  0  0
 11 26  2  0  0  0  0
 12 27  1  0  0  0  0
 13 27  2  0  0  0  0
 14 28  1  0  0  0  0
 15 16  2  0  0  0  0
 15 29  1  0  0  0  0
 16 30  1  0  0  0  0
 17 24  1  0  0  0  0
 17 28  2  0  0  0  0
 18 30  2  0  0  0  0
 18 31  1  0  0  0  0
 19 32  1  0  0  0  0
 20 32  1  0  0  0  0
 20 33  2  0  0  0  0
 20 34  1  0  0  0  0
 21 23  2  0  0  0  0
 21 39  1  0  0  0  0
 22 24  2  0  0  0  0
 22 40  1  0  0  0  0
 23 48  1  0  0  0  0
 24 41  1  0  0  0  0
 25 58  1  0  0  0  0
 26 61  1  0  0  0  0
 27 80  1  0  0  0  0
 28 81  1  0  0  0  0
 29 31  2  0  0  0  0
 29 80  1  0  0  0  0
 30 82  1  0  0  0  0
 31 83  1  0  0  0  0
 32 65  2  0  0  0  0
 33 66  1  0  0  0  0
 33 69  1  0  0  0  0
 34 70  1  0  0  0  0
 34 75  2  0  0  0  0
 35 49  1  0  0  0  0
 35 71  1  0  0  0  0
 35 76  2  0  0  0  0
 36 62  1  0  0  0  0
 36 67  1  0  0  0  0
 36 77  2  0  0  0  0
 37 63  1  0  0  0  0
 37 72  1  0  0  0  0
 37 78  2  0  0  0  0
 38 68  1  0  0  0  0
 38 73  1  0  0  0  0
 38 79  2  0  0  0  0
 39 42  1  0  0  0  0
 40 49  1  0  0  0  0
 41 67  1  0  0  0  0
 42 44  1  0  0  0  0
 43 45  1  0  0  0  0
 43 46  1  0  0  0  0
 44 48  1  0  0  0  0
 45 50  1  0  0  0  0
 46 68  1  0  0  0  0
 47 50  1  0  0  0  0
 47 68  1  0  0  0  0
 48 71  1  0  0  0  0
 49 67  1  0  0  0  0
 50 66  1  0  0  0  0
 51 59  1  0  0  0  0
 52 63  1  0  0  0  0
 53 64  1  0  0  0  0
 54 64  1  0  0  0  0
 55 64  1  0  0  0  0
 56 73  1  0  0  0  0
 57 74  1  0  0  0  0
 58 60  1  0  0  0  0
 59 61  1  0  0  0  0
 60 73  1  0  0  0  0
 61 81  1  0  0  0  0
 62 64  1  0  0  0  0
 62 72  1  0  0  0  0
 63 74  1  0  0  0  0
 65 66  1  0  0  0  0
M  CHG  1  74   1
M  ISO  4  38 100  61 101  73 100  81 101
M  END
> <Batch ID>
0120

> <Smiles>
CC[101CH:1](c1ccc(CC[100N:0](C)[100C:0](=O)N2CCCC(n3nc(-c4ccc(Oc5ccc(F)cc5F)cc4)c(C(N)=O)c3N)C2)cc1)[101O:1]c1ccc2c(c1)CN(C(=O)C(NC(=O)C(C)NC)C(C)(C)C)C(C(=O)NC1CCCc3ccccc31)C2

> <Shape>
0.288

> <Color>
0.205

> <Negative vol penalty>
0.000

$$$$

  -OEChem-04052320233D

 83 91  0     1  0  0  0  0  0999 V2000
  -31.9981  -13.6338   19.0014 C   0  0  0  0  0  0  0  0  0  0  0  0
  -31.6550  -14.6490   18.1143 C   0  0  0  0  0  0  0  0  0  0  0  0
  -26.4383  -13.9087   21.1469 C   0  0  0  0  0  0  0  0  0  0  0  0
  -24.2813  -13.8631   20.0596 C   0  0  0  0  0  0  0  0  0  0  0  0
  -31.7020  -13.7650   20.3575 C   0  0  0  0  0  0  0  0  0  0  0  0
  -31.0144  -15.7956   18.5826 C   0  0  0  0  0  0  0  0  0  0  0  0
  -30.5439  -22.8332   17.3310 C   0  0  0  0  0  0  0  0  0  0  0  0
  -26.4885  -12.5153   21.1057 C   0  0  0  0  0  0  0  0  0  0  0  0
  -24.3316  -12.4697   20.0183 C   0  0  0  0  0  0  0  0  0  0  0  0
  -29.5910  -23.8261   17.1074 C   0  0  0  0  0  0  0  0  0  0  0  0
  -23.8140   -9.8941   22.1465 C   0  0  0  0  0  0  0  0  0  0  0  0
  -22.6660   -9.1930   22.5154 C   0  0  0  0  0  0  0  0  0  0  0  0
  -29.2005  -23.9779   19.4830 C   0  0  0  0  0  0  0  0  0  0  0  0
  -22.5774   -8.1839   20.3220 C   0  0  0  0  0  0  0  0  0  0  0  0
  -25.3347  -14.5826   20.6239 C   0  0  0  0  0  0  0  0  0  0  0  0
  -25.7548  -16.9192   19.6906 C   0  0  0  0  0  0  0  0  0  0  0  0
  -31.0662  -14.9180   20.8442 C   0  0  0  0  0  0  0  0  0  0  0  0
  -30.8249  -22.3969   18.6337 C   0  0  0  0  0  0  0  0  0  0  0  0
  -30.7083  -15.9418   19.9463 C   0  0  0  0  0  0  0  0  0  0  0  0
  -30.1592  -22.9812   19.7207 C   0  0  0  0  0  0  0  0  0  0  0  0
  -25.4352  -11.7959   20.5414 C   0  0  0  0  0  0  0  0  0  0  0  0
  -28.9170  -24.3966   18.1832 C   0  0  0  0  0  0  0  0  0  0  0  0
  -24.3437   -9.7401   20.8653 C   0  0  0  0  0  0  0  0  0  0  0  0
  -22.0477   -8.3379   21.6031 C   0  0  0  0  0  0  0  0  0  0  0  0
  -23.7254   -8.8850   19.9531 C   0  0  0  0  0  0  0  0  0  0  0  0
  -25.2819  -16.0218   20.6667 C   0  0  0  0  0  0  0  0  0  0  0  0
  -25.4705  -18.1624   20.2005 C   0  0  0  0  0  0  0  0  0  0  0  0
  -26.3939  -16.6528   18.4350 C   0  0  0  0  0  0  0  0  0  0  0  0
  -30.5772  -19.6274   20.1740 C   0  0  0  0  0  0  0  0  0  0  0  0
  -32.0795  -21.2563   22.5430 C   0  0  0  0  0  0  0  0  0  0  0  0
  -22.6366  -24.0239   20.1886 C   0  0  0  0  0  0  0  0  0  0  0  0
  -32.8138  -24.2657   23.9753 C   0  0  0  0  0  0  0  0  0  0  0  0
  -21.9797  -21.6987   22.7410 C   0  0  0  0  0  0  0  0  0  0  0  0
  -30.7241  -14.9940   22.3111 C   0  0  0  0  0  0  0  0  0  0  0  0
  -31.8748  -21.3438   18.8601 C   0  0  0  0  0  0  0  0  0  0  0  0
  -30.4389  -22.5624   21.1401 C   0  0  0  0  0  0  0  0  0  0  0  0
  -30.3804  -16.4041   22.7842 C   0  0  0  0  0  0  0  0  0  0  0  0
  -26.3598  -29.6210   20.1433 C   0  0  0  0  0  0  0  0  0  0  0  0
  -23.9271  -19.5550   24.8120 C   0  0  0  0  0  0  0  0  0  0  0  0
  -29.4110  -17.0713   21.8136 C   0  0  0  0  0  0  0  0  0  0  0  0
  -24.4867  -18.5158   23.8389 C   0  0  0  0  0  0  0  0  0  0  0  0
  -26.6274  -28.2976   20.8858 C   0  0  0  0  0  0  0  0  0  0  0  0
  -25.0455  -29.0061   19.6250 C   0  0  0  0  0  0  0  0  0  0  0  0
  -22.5067  -19.9719   24.4371 C   0  0  0  0  0  0  0  0  0  0  0  0
  -22.9036  -19.3971   22.0737 C   0  0  0  0  0  0  0  0  0  0  0  0
  -30.0349  -17.2116   20.4199 C   0  0  1  0  0  0  0  0  0  0  0  0
  -31.7112  -20.6131   20.1893 C   0  0  1  0  0  0  0  0  0  0  0  0
  -24.3546  -18.9871   22.3782 C   0  0  2  0  0  0  0  0  0  0  0  0
  -25.6542  -27.5979   19.8918 C   0  0  0  0  0  0  0  0  0  0  0  0
  -34.0302  -25.2752   25.9242 C   0  0  0  0  0  0  0  0  0  0  0  0
  -29.8120  -20.4021   24.3975 C   0  0  0  0  0  0  0  0  0  0  0  0
  -30.5542  -22.1716   26.0057 C   0  0  0  0  0  0  0  0  0  0  0  0
  -32.0919  -20.2968   25.4201 C   0  0  0  0  0  0  0  0  0  0  0  0
  -34.6393  -25.7765   22.2022 C   0  0  0  0  0  0  0  0  0  0  0  0
  -21.5137  -23.3286   20.9285 C   0  0  0  0  0  0  0  0  0  0  0  0
  -24.6891  -26.6195   20.5528 C   0  0  0  0  0  0  0  0  0  0  0  0
  -26.3399  -26.9736   18.6807 C   0  0  0  0  0  0  0  0  0  0  0  0
  -23.4775  -26.3131   19.6825 C   0  0  0  0  0  0  0  0  0  0  0  0
  -27.3337  -25.9062   19.1159 C   0  0  0  0  0  0  0  0  0  1  0  0
  -31.6304  -22.1014   23.7106 C   0  0  1  0  0  0  0  0  0  0  0  0
  -34.1240  -24.8548   24.4657 C   0  0  2  0  0  0  0  0  0  0  0  0
  -31.0152  -21.2497   24.8567 C   0  0  0  0  0  0  0  0  0  0  0  0
  -24.7386  -16.6422   21.7174 N   0  0  0  0  0  0  0  0  0  0  0  0
  -24.8684  -17.9427   21.4044 N   0  0  0  0  0  0  0  0  0  0  0  0
  -31.4695  -21.5247   21.3095 N   0  0  0  0  0  0  0  0  0  0  0  0
  -22.4502  -20.4095   23.0403 N   0  0  0  0  0  0  0  0  0  0  0  0
  -25.6794  -19.4112   19.7322 N   0  0  0  0  0  0  0  0  0  0  0  0
  -26.6095  -15.3184   18.0649 N   0  0  0  0  0  0  0  0  0  0  0  0
  -30.9657  -18.3194   20.3920 N   0  0  0  0  0  0  0  0  0  0  0  0
  -22.5607  -25.4079   20.3184 N   0  0  0  0  0  0  0  0  0  0  0  0
  -32.7884  -22.8937   24.1103 N   0  0  0  0  0  0  0  0  0  0  0  0
  -21.9648  -22.0358   21.3931 N   0  0  0  0  0  0  0  0  0  0  0  0
  -34.4903  -26.0502   23.6547 N   0  3  0  0  0  0  0  0  0  0  0  0
  -26.7776  -17.5713   17.6717 O   0  0  0  0  0  0  0  0  0  0  0  0
  -29.4341  -20.0245   19.9804 O   0  0  0  0  0  0  0  0  0  0  0  0
  -32.9449  -20.3947   22.7175 O   0  0  0  0  0  0  0  0  0  0  0  0
  -23.4806  -23.4246   19.5274 O   0  0  0  0  0  0  0  0  0  0  0  0
  -31.9024  -24.9541   23.5215 O   0  0  0  0  0  0  0  0  0  0  0  0
  -21.6058  -22.4925   23.6111 O   0  0  0  0  0  0  0  0  0  0  0  0
  -25.4840  -10.4363   20.5008 O   0  0  0  0  0  0  0  0  0  0  0  0
  -27.9860  -25.3654   17.9677 O   0  0  0  0  0  0  0  0  0  1  0  0
  -20.9461   -7.6635   21.9580 F   0  0  0  0  0  0  0  0  0  0  0  0
  -24.2304   -8.7321   18.7212 F   0  0  0  0  0  0  0  0  0  0  0  0
  1  2  1  0  0  0  0
  1  5  2  0  0  0  0
  2  6  2  0  0  0  0
  3  8  2  0  0  0  0
  3 15  1  0  0  0  0
  4  9  1  0  0  0  0
  4 15  2  0  0  0  0
  5 17  1  0  0  0  0
  6 19  1  0  0  0  0
  7 10  2  0  0  0  0
  7 18  1  0  0  0  0
  8 21  1  0  0  0  0
  9 21  2  0  0  0  0
 10 22  1  0  0  0  0
 11 12  2  0  0  0  0
 11 23  1  0  0  0  0
 12 24  1  0  0  0  0
 13 20  1  0  0  0  0
 13 22  2  0  0  0  0
 14 24  2  0  0  0  0
 14 25  1  0  0  0  0
 15 26  1  0  0  0  0
 16 26  1  0  0  0  0
 16 27  2  0  0  0  0
 16 28  1  0  0  0  0
 17 19  2  0  0  0  0
 17 34  1  0  0  0  0
 18 20  2  0  0  0  0
 18 35  1  0  0  0  0
 19 46  1  0  0  0  0
 20 36  1  0  0  0  0
 21 80  1  0  0  0  0
 22 81  1  0  0  0  0
 23 25  2  0  0  0  0
 23 80  1  0  0  0  0
 24 82  1  0  0  0  0
 25 83  1  0  0  0  0
 26 63  2  0  0  0  0
 27 64  1  0  0  0  0
 27 67  1  0  0  0  0
 28 68  1  0  0  0  0
 28 74  2  0  0  0  0
 29 47  1  0  0  0  0
 29 69  1  0  0  0  0
 29 75  2  0  0  0  0
 30 60  1  0  0  0  0
 30 65  1  0  0  0  0
 30 76  2  0  0  0  0
 31 55  1  0  0  0  0
 31 70  1  0  0  0  0
 31 77  2  0  0  0  0
 32 61  1  0  0  0  0
 32 71  1  0  0  0  0
 32 78  2  0  0  0  0
 33 66  1  0  0  0  0
 33 72  1  0  0  0  0
 33 79  2  0  0  0  0
 34 37  1  0  0  0  0
 35 47  1  0  0  0  0
 36 65  1  0  0  0  0
 37 40  1  0  0  0  0
 38 42  1  0  0  0  0
 38 43  1  0  0  0  0
 39 41  1  0  0  0  0
 39 44  1  0  0  0  0
 40 46  1  0  0  0  0
 41 48  1  0  0  0  0
 42 49  1  0  0  0  0
 43 49  1  0  0  0  0
 44 66  1  0  0  0  0
 45 48  1  0  0  0  0
 45 66  1  0  0  0  0
 46 69  1  0  0  0  0
 47 65  1  0  0  0  0
 48 64  1  0  0  0  0
 49 56  1  0  0  0  0
 49 57  1  0  0  0  0
 50 61  1  0  0  0  0
 51 62  1  0  0  0  0
 52 62  1  0  0  0  0
 53 62  1  0  0  0  0
 54 73  1  0  0  0  0
 55 72  1  0  0  0  0
 56 58  1  0  0  0  0
 57 59  1  0  0  0  0
 58 70  1  0  0  0  0
 59 81  1  0  0  0  0
 60 62  1  0  0  0  0
 60 71  1  0  0  0  0
 61 73  1  0  0  0  0
 63 64  1  0  0  0  0
M  CHG  1  73   1
M  ISO  4  33 100  59 101  72 100  81 101
M  END
> <Batch ID>
0120

> <Smiles>
CNC(C)C(=O)NC(C(=O)N1Cc2cc([101O:1][101CH2:1]CC3(CCNC(=O)C[100NH:0][100C:0](=O)N4CCCC(n5nc(-c6ccc(Oc7ccc(F)cc7F)cc6)c(C(N)=O)c5N)C4)CCC3)ccc2CC1C(=O)NC1CCCc2ccccc21)C(C)(C)C

> <Shape>
0.188

> <Color>
0.068

> <Negative vol penalty>
0.000

$$$$

  -OEChem-04052320233D

 85 94  0     1  0  0  0  0  0999 V2000
  -17.9674  -32.4935   21.2473 C   0  0  0  0  0  0  0  0  0  0  0  0
  -19.2962  -32.4880   20.8353 C   0  0  0  0  0  0  0  0  0  0  0  0
  -25.9628  -15.9038   20.6293 C   0  0  0  0  0  0  0  0  0  0  0  0
  -27.8121  -15.0241   19.3473 C   0  0  0  0  0  0  0  0  0  0  0  0
  -17.5734  -31.7182   22.3371 C   0  0  0  0  0  0  0  0  0  0  0  0
  -20.2320  -31.7079   21.5136 C   0  0  0  0  0  0  0  0  0  0  0  0
  -25.0529  -28.8073   19.0946 C   0  0  0  0  0  0  0  0  0  0  0  0
  -25.5406  -14.6047   20.9116 C   0  0  0  0  0  0  0  0  0  0  0  0
  -27.3898  -13.7250   19.6296 C   0  0  0  0  0  0  0  0  0  0  0  0
  -26.4055  -29.1371   19.0200 C   0  0  0  0  0  0  0  0  0  0  0  0
  -26.4028  -12.1088   23.0234 C   0  0  0  0  0  0  0  0  0  0  0  0
  -26.0361  -11.8174   24.3373 C   0  0  0  0  0  0  0  0  0  0  0  0
  -26.8303  -27.8155   20.9928 C   0  0  0  0  0  0  0  0  0  0  0  0
  -23.8171  -11.2257   23.5868 C   0  0  0  0  0  0  0  0  0  0  0  0
  -30.9852  -26.5096   17.9145 C   0  0  0  0  0  0  0  0  0  0  0  0
  -27.0985  -16.1135   19.8471 C   0  0  0  0  0  0  0  0  0  0  0  0
  -28.4296  -18.2409   20.3058 C   0  0  0  0  0  0  0  0  0  0  0  0
  -18.5030  -30.9208   23.0231 C   0  0  0  0  0  0  0  0  0  0  0  0
  -24.5763  -27.9866   20.1269 C   0  0  0  0  0  0  0  0  0  0  0  0
  -19.8504  -30.9223   22.6144 C   0  0  0  0  0  0  0  0  0  0  0  0
  -25.4717  -27.4747   21.0768 C   0  0  0  0  0  0  0  0  0  0  0  0
  -26.2541  -13.5153   20.4118 C   0  0  0  0  0  0  0  0  0  0  0  0
  -27.2939  -28.6435   19.9709 C   0  0  0  0  0  0  0  0  0  0  0  0
  -25.4766  -11.9587   21.9912 C   0  0  0  0  0  0  0  0  0  0  0  0
  -24.7433  -11.3759   24.6190 C   0  0  0  0  0  0  0  0  0  0  0  0
  -24.1838  -11.5171   22.2729 C   0  0  0  0  0  0  0  0  0  0  0  0
  -27.5349  -17.4552   19.5547 C   0  0  0  0  0  0  0  0  0  0  0  0
  -30.9242  -27.4415   18.9305 C   0  0  0  0  0  0  0  0  0  0  0  0
  -31.2434  -25.2126   18.3088 C   0  0  0  0  0  0  0  0  0  0  0  0
  -28.5129  -19.4238   19.6127 C   0  0  0  0  0  0  0  0  0  0  0  0
  -31.3452  -25.8426   20.4905 C   0  0  0  0  0  0  0  0  0  0  0  0
  -29.1234  -17.9292   21.5212 C   0  0  0  0  0  0  0  0  0  0  0  0
  -22.5050  -28.3542   22.5098 C   0  0  0  0  0  0  0  0  0  0  0  0
  -23.0473  -25.1867   22.9519 C   0  0  0  0  0  0  0  0  0  0  0  0
  -25.1296  -22.5167   22.5257 C   0  0  0  0  0  0  0  0  0  0  0  0
  -29.0099  -22.2277   14.8131 C   0  0  0  0  0  0  0  0  0  0  0  0
  -18.0394  -30.1361   24.2247 C   0  0  0  0  0  0  0  0  0  0  0  0
  -23.1188  -27.6184   20.1779 C   0  0  0  0  0  0  0  0  0  0  0  0
  -25.0138  -26.5732   22.1931 C   0  0  0  0  0  0  0  0  0  0  0  0
  -19.0190  -29.0479   24.6565 C   0  0  0  0  0  0  0  0  0  0  0  0
  -25.7409  -21.1888   15.7673 C   0  0  0  0  0  0  0  0  0  0  0  0
  -20.4419  -29.5961   24.6970 C   0  0  0  0  0  0  0  0  0  0  0  0
  -30.6821  -24.3955   22.5252 C   0  0  0  0  0  0  0  0  0  0  0  0
  -30.4782  -25.8234   22.9249 C   0  0  0  0  0  0  0  0  0  0  0  0
  -25.9904  -20.1855   16.8948 C   0  0  0  0  0  0  0  0  0  0  0  0
  -26.8107  -21.0952   14.6816 C   0  0  0  0  0  0  0  0  0  0  0  0
  -28.4478  -20.2070   16.2954 C   0  0  0  0  0  0  0  0  0  0  0  0
  -20.8902  -30.0700   23.3092 C   0  0  1  0  0  0  0  0  0  0  0  0
  -31.5451  -25.4720   21.9219 C   0  0  0  0  0  0  0  0  0  0  0  0
  -22.6583  -27.1929   21.5687 C   0  0  1  0  0  0  0  0  0  0  0  0
  -27.4260  -20.3019   17.4413 C   0  0  2  0  0  0  0  0  0  0  0  0
  -25.8890  -20.1253   22.5721 C   0  0  0  0  0  0  0  0  0  0  0  0
  -23.7135  -25.8340   25.8583 C   0  0  0  0  0  0  0  0  0  0  0  0
  -24.7838  -23.5782   26.0425 C   0  0  0  0  0  0  0  0  0  0  0  0
  -22.3480  -23.7635   25.5372 C   0  0  0  0  0  0  0  0  0  0  0  0
  -23.9895  -21.9814   19.8476 C   0  0  0  0  0  0  0  0  0  0  0  0
  -30.6466  -28.8874   18.5982 C   0  0  0  0  0  0  0  0  0  0  0  0
  -31.1309  -24.5246   15.9130 C   0  0  0  0  0  0  0  0  0  0  0  0
  -31.2502  -23.2641   15.0702 C   0  0  0  0  0  0  0  0  0  0  0  0
  -29.1558  -29.2077   18.6030 C   0  0  0  0  0  0  0  0  0  1  0  0
  -24.0336  -24.3727   23.7540 C   0  0  1  0  0  0  0  0  0  0  0  0
  -24.8727  -21.1103   22.0155 C   0  0  2  0  0  0  0  0  0  0  0  0
  -23.7284  -24.4056   25.2782 C   0  0  0  0  0  0  0  0  0  0  0  0
  -27.0821  -18.0859   18.4679 N   0  0  0  0  0  0  0  0  0  0  0  0
  -31.0999  -27.1417   20.2342 N   0  0  0  0  0  0  0  0  0  0  0  0
  -31.4295  -24.8423   19.5928 N   0  0  0  0  0  0  0  0  0  0  0  0
  -27.6946  -19.2805   18.5310 N   0  0  0  0  0  0  0  0  0  0  0  0
  -23.5782  -26.2471   22.2039 N   0  0  0  0  0  0  0  0  0  0  0  0
  -28.1488  -21.2145   15.2657 N   0  0  0  0  0  0  0  0  0  0  0  0
  -29.2054  -20.5622   19.8293 N   0  0  0  0  0  0  0  0  0  0  0  0
  -28.9239  -16.6684   22.0999 N   0  0  0  0  0  0  0  0  0  0  0  0
  -31.3143  -24.2249   17.2960 N   0  0  0  0  0  0  0  0  0  0  0  0
  -21.2535  -28.9395   22.4820 N   0  0  0  0  0  0  0  0  0  0  0  0
  -24.0274  -23.0348   23.1722 N   0  0  0  0  0  0  0  0  0  0  0  0
  -30.2571  -22.2744   15.4239 N   0  0  0  0  0  0  0  0  0  0  0  0
  -24.9516  -21.0765   20.5277 N   0  3  0  0  0  0  0  0  0  0  0  0
  -29.8845  -18.7507   22.0863 O   0  0  0  0  0  0  0  0  0  0  0  0
  -23.4515  -28.6930   23.2105 O   0  0  0  0  0  0  0  0  0  0  0  0
  -21.8508  -24.8881   22.9820 O   0  0  0  0  0  0  0  0  0  0  0  0
  -26.2022  -23.0962   22.3700 O   0  0  0  0  0  0  0  0  0  0  0  0
  -28.6890  -23.0344   13.9339 O   0  0  0  0  0  0  0  0  0  0  0  0
  -25.8425  -12.2476   20.6872 O   0  0  0  0  0  0  0  0  0  0  0  0
  -28.6145  -28.9644   19.9008 O   0  0  0  0  0  0  0  0  0  1  0  0
  -24.3917  -11.0947   25.8805 F   0  0  0  0  0  0  0  0  0  0  0  0
  -23.2901  -11.3698   21.2853 F   0  0  0  0  0  0  0  0  0  0  0  0
  1  2  1  0  0  0  0
  1  5  2  0  0  0  0
  2  6  2  0  0  0  0
  3  8  2  0  0  0  0
  3 16  1  0  0  0  0
  4  9  1  0  0  0  0
  4 16  2  0  0  0  0
  5 18  1  0  0  0  0
  6 20  1  0  0  0  0
  7 10  2  0  0  0  0
  7 19  1  0  0  0  0
  8 22  1  0  0  0  0
  9 22  2  0  0  0  0
 10 23  1  0  0  0  0
 11 12  2  0  0  0  0
 11 24  1  0  0  0  0
 12 25  1  0  0  0  0
 13 21  1  0  0  0  0
 13 23  2  0  0  0  0
 14 25  2  0  0  0  0
 14 26  1  0  0  0  0
 15 28  1  0  0  0  0
 15 29  2  0  0  0  0
 16 27  1  0  0  0  0
 17 27  1  0  0  0  0
 17 30  2  0  0  0  0
 17 32  1  0  0  0  0
 18 20  2  0  0  0  0
 18 37  1  0  0  0  0
 19 21  2  0  0  0  0
 19 38  1  0  0  0  0
 20 48  1  0  0  0  0
 21 39  1  0  0  0  0
 22 82  1  0  0  0  0
 23 83  1  0  0  0  0
 24 26  2  0  0  0  0
 24 82  1  0  0  0  0
 25 84  1  0  0  0  0
 26 85  1  0  0  0  0
 27 64  2  0  0  0  0
 28 57  1  0  0  0  0
 28 65  2  0  0  0  0
 29 66  1  0  0  0  0
 29 72  1  0  0  0  0
 30 67  1  0  0  0  0
 30 70  1  0  0  0  0
 31 49  1  0  0  0  0
 31 65  1  0  0  0  0
 31 66  2  0  0  0  0
 32 71  1  0  0  0  0
 32 77  2  0  0  0  0
 33 50  1  0  0  0  0
 33 73  1  0  0  0  0
 33 78  2  0  0  0  0
 34 61  1  0  0  0  0
 34 68  1  0  0  0  0
 34 79  2  0  0  0  0
 35 62  1  0  0  0  0
 35 74  1  0  0  0  0
 35 80  2  0  0  0  0
 36 69  1  0  0  0  0
 36 75  1  0  0  0  0
 36 81  2  0  0  0  0
 37 40  1  0  0  0  0
 38 50  1  0  0  0  0
 39 68  1  0  0  0  0
 40 42  1  0  0  0  0
 41 45  1  0  0  0  0
 41 46  1  0  0  0  0
 42 48  1  0  0  0  0
 43 44  1  0  0  0  0
 43 49  1  0  0  0  0
 44 49  1  0  0  0  0
 45 51  1  0  0  0  0
 46 69  1  0  0  0  0
 47 51  1  0  0  0  0
 47 69  1  0  0  0  0
 48 73  1  0  0  0  0
 50 68  1  0  0  0  0
 51 67  1  0  0  0  0
 52 62  1  0  0  0  0
 53 63  1  0  0  0  0
 54 63  1  0  0  0  0
 55 63  1  0  0  0  0
 56 76  1  0  0  0  0
 57 60  1  0  0  0  0
 58 59  1  0  0  0  0
 58 72  1  0  0  0  0
 59 75  1  0  0  0  0
 60 83  1  0  0  0  0
 61 63  1  0  0  0  0
 61 74  1  0  0  0  0
 62 76  1  0  0  0  0
 64 67  1  0  0  0  0
M  CHG  1  76   1
M  ISO  4  36 100  60 101  75 100  83 101
M  END
> <Batch ID>
0120

> <Smiles>
CNC(C)C(=O)NC(C(=O)N1Cc2cc([101O:1][101CH2:1]Cc3cc(NCC[100NH:0][100C:0](=O)N4CCCC(n5nc(-c6ccc(Oc7ccc(F)cc7F)cc6)c(C(N)=O)c5N)C4)nc(C4CC4)n3)ccc2CC1C(=O)NC1CCCc2ccccc21)C(C)(C)C

> <Shape>
0.193

> <Color>
0.096

> <Negative vol penalty>
0.000

$$$$

  -OEChem-04052320233D

 89 98  0     1  0  0  0  0  0999 V2000
  -29.7253  -31.4290   26.8013 C   0  0  0  0  0  0  0  0  0  0  0  0
  -28.9846  -30.4782   26.1064 C   0  0  0  0  0  0  0  0  0  0  0  0
  -24.6604   -8.9083   21.3830 C   0  0  0  0  0  0  0  0  0  0  0  0
  -22.8946  -10.1898   20.3452 C   0  0  0  0  0  0  0  0  0  0  0  0
  -29.1712  -32.6787   27.0753 C   0  0  0  0  0  0  0  0  0  0  0  0
  -27.6889  -30.7763   25.6861 C   0  0  0  0  0  0  0  0  0  0  0  0
  -26.8084  -29.3140   20.9183 C   0  0  0  0  0  0  0  0  0  0  0  0
  -22.0209  -18.6422   16.6350 C   0  0  0  0  0  0  0  0  0  0  0  0
  -23.7667   -7.8622   21.6119 C   0  0  0  0  0  0  0  0  0  0  0  0
  -22.0009   -9.1436   20.5741 C   0  0  0  0  0  0  0  0  0  0  0  0
  -26.5586  -27.9593   20.7036 C   0  0  0  0  0  0  0  0  0  0  0  0
  -21.3177   -7.1169   23.8191 C   0  0  0  0  0  0  0  0  0  0  0  0
  -21.3354   -6.5140   25.0767 C   0  0  0  0  0  0  0  0  0  0  0  0
  -22.5660  -17.7654   17.5664 C   0  0  0  0  0  0  0  0  0  0  0  0
  -24.1920  -28.4168   20.6090 C   0  0  0  0  0  0  0  0  0  0  0  0
  -21.8813   -4.3947   24.0530 C   0  0  0  0  0  0  0  0  0  0  0  0
  -24.2244  -10.0721   20.7497 C   0  0  0  0  0  0  0  0  0  0  0  0
  -26.3304  -11.1101   19.7521 C   0  0  0  0  0  0  0  0  0  0  0  0
  -27.8715  -32.9957   26.6497 C   0  0  0  0  0  0  0  0  0  0  0  0
  -25.7493  -30.2303   20.9909 C   0  0  0  0  0  0  0  0  0  0  0  0
  -27.1164  -32.0310   25.9558 C   0  0  0  0  0  0  0  0  0  0  0  0
  -24.4311  -29.7830   20.8222 C   0  0  0  0  0  0  0  0  0  0  0  0
  -22.0830  -20.0130   16.8596 C   0  0  0  0  0  0  0  0  0  0  0  0
  -22.4369   -7.9798   21.2075 C   0  0  0  0  0  0  0  0  0  0  0  0
  -25.2501  -27.5101   20.5519 C   0  0  0  0  0  0  0  0  0  0  0  0
  -21.5818   -6.3588   22.6783 C   0  0  0  0  0  0  0  0  0  0  0  0
  -21.6172   -5.1529   25.1937 C   0  0  0  0  0  0  0  0  0  0  0  0
  -21.8636   -4.9977   22.7953 C   0  0  0  0  0  0  0  0  0  0  0  0
  -25.1470  -11.1534   20.5134 C   0  0  0  0  0  0  0  0  0  0  0  0
  -22.6960  -20.4526   18.0218 C   0  0  0  0  0  0  0  0  0  0  0  0
  -23.1575  -18.3056   18.6968 C   0  0  0  0  0  0  0  0  0  0  0  0
  -26.8403  -12.3825   19.8375 C   0  0  0  0  0  0  0  0  0  0  0  0
  -26.9162  -10.0174   19.0320 C   0  0  0  0  0  0  0  0  0  0  0  0
  -24.6298  -32.1920   23.2275 C   0  0  0  0  0  0  0  0  0  0  0  0
  -22.6828  -33.1847   20.8304 C   0  0  0  0  0  0  0  0  0  0  0  0
  -19.7793  -22.7525   15.9012 C   0  0  0  0  0  0  0  0  0  0  0  0
  -21.1566  -32.4843   17.8594 C   0  0  0  0  0  0  0  0  0  0  0  0
  -24.3483  -17.7204   20.8383 C   0  0  0  0  0  0  0  0  0  0  0  0
  -27.2978  -34.3430   27.0106 C   0  0  0  0  0  0  0  0  0  0  0  0
  -26.0372  -31.6922   21.1964 C   0  0  0  0  0  0  0  0  0  0  0  0
  -23.2602  -30.7291   20.8715 C   0  0  0  0  0  0  0  0  0  0  0  0
  -26.0558  -34.7121   26.2035 C   0  0  0  0  0  0  0  0  0  0  0  0
  -26.9397  -16.1899   22.7407 C   0  0  0  0  0  0  0  0  0  0  0  0
  -25.0830  -33.5383   26.1539 C   0  0  0  0  0  0  0  0  0  0  0  0
  -24.2520  -22.4147   18.3907 C   0  0  0  0  0  0  0  0  0  0  0  0
  -22.0283  -22.3147   19.6008 C   0  0  0  0  0  0  0  0  0  0  0  0
  -24.3375  -23.9134   18.6783 C   0  0  0  0  0  0  0  0  0  0  0  0
  -22.1194  -23.8136   19.8855 C   0  0  0  0  0  0  0  0  0  0  0  0
  -26.8858  -14.7218   22.3116 C   0  0  0  0  0  0  0  0  0  0  0  0
  -25.5457  -16.8102   22.8164 C   0  0  0  0  0  0  0  0  0  0  0  0
  -24.6786  -15.1918   21.1738 C   0  0  0  0  0  0  0  0  0  0  0  0
  -25.7166  -32.3255   25.4617 C   0  0  1  0  0  0  0  0  0  0  0  0
  -22.7916  -21.9379   18.3199 C   0  0  0  0  0  0  0  0  0  0  0  0
  -24.8488  -32.4610   21.7655 C   0  0  1  0  0  0  0  0  0  0  0  0
  -23.5761  -24.2900   19.9560 C   0  0  0  0  0  0  0  0  0  0  0  0
  -26.0635  -14.5420   21.0205 C   0  0  2  0  0  0  0  0  0  0  0  0
  -18.4570  -23.1285   16.4827 C   0  0  0  0  0  0  0  0  0  0  0  0
  -19.5960  -33.4781   16.1640 C   0  0  0  0  0  0  0  0  0  0  0  0
  -20.3261  -32.6608   22.6962 C   0  0  0  0  0  0  0  0  0  0  0  0
  -18.8169  -32.7459   20.7004 C   0  0  0  0  0  0  0  0  0  0  0  0
  -20.1420  -34.7582   21.3466 C   0  0  0  0  0  0  0  0  0  0  0  0
  -23.1966  -32.3312   15.7207 C   0  0  0  0  0  0  0  0  0  0  0  0
  -21.4999  -20.9578   15.8668 C   0  0  0  0  0  0  0  0  0  0  0  0
  -23.6389  -25.7974   20.1959 C   0  0  0  0  0  0  0  0  0  1  0  0
  -21.3236  -32.7741   20.3176 C   0  0  1  0  0  0  0  0  0  0  0  0
  -21.0478  -33.2794   16.5708 C   0  0  2  0  0  0  0  0  0  0  0  0
  -20.1739  -33.2164   21.2661 C   0  0  0  0  0  0  0  0  0  0  0  0
  -24.9187  -12.3579   21.0436 N   0  0  0  0  0  0  0  0  0  0  0  0
  -23.2367  -19.6314   18.9496 N   0  0  0  0  0  0  0  0  0  0  0  0
  -25.9657  -13.0832   20.6148 N   0  0  0  0  0  0  0  0  0  0  0  0
  -23.5928  -32.1479   21.0809 N   0  0  0  0  0  0  0  0  0  0  0  0
  -24.8273  -16.6046   21.5568 N   0  0  0  0  0  0  0  0  0  0  0  0
  -27.9472  -12.9592   19.3229 N   0  0  0  0  0  0  0  0  0  0  0  0
  -26.5541   -9.8304   17.6910 N   0  0  0  0  0  0  0  0  0  0  0  0
  -23.7099  -17.4036   19.6397 N   0  0  0  0  0  0  0  0  0  0  0  0
  -25.7136  -32.5046   24.0256 N   0  0  0  0  0  0  0  0  0  0  0  0
  -20.2460  -21.5152   16.3090 N   0  0  0  0  0  0  0  0  0  0  0  0
  -21.2199  -33.3076   18.9637 N   0  0  0  0  0  0  0  0  0  0  0  0
  -21.7532  -32.5722   15.4647 N   0  3  0  0  0  0  0  0  0  0  0  0
  -27.7239   -9.2204   19.5667 O   0  0  0  0  0  0  0  0  0  0  0  0
  -23.5564  -31.7359   23.6038 O   0  0  0  0  0  0  0  0  0  0  0  0
  -22.9305  -34.3818   20.9956 O   0  0  0  0  0  0  0  0  0  0  0  0
  -20.3434  -23.5239   15.1341 O   0  0  0  0  0  0  0  0  0  0  0  0
  -21.1790  -31.2557   17.8842 O   0  0  0  0  0  0  0  0  0  0  0  0
  -24.5177  -18.8738   21.2422 O   0  0  0  0  0  0  0  0  0  0  0  0
  -21.5646   -6.9591   21.4305 O   0  0  0  0  0  0  0  0  0  0  0  0
  -25.0035  -26.1882   20.3429 O   0  0  0  0  0  0  0  0  0  1  0  0
  -21.6357   -4.5743   26.4016 F   0  0  0  0  0  0  0  0  0  0  0  0
  -22.1192   -4.2645   21.7032 F   0  0  0  0  0  0  0  0  0  0  0  0
  1  2  1  0  0  0  0
  1  5  2  0  0  0  0
  2  6  2  0  0  0  0
  3  9  2  0  0  0  0
  3 17  1  0  0  0  0
  4 10  1  0  0  0  0
  4 17  2  0  0  0  0
  5 19  1  0  0  0  0
  6 21  1  0  0  0  0
  7 11  2  0  0  0  0
  7 20  1  0  0  0  0
  8 14  2  0  0  0  0
  8 23  1  0  0  0  0
  9 24  1  0  0  0  0
 10 24  2  0  0  0  0
 11 25  1  0  0  0  0
 12 13  2  0  0  0  0
 12 26  1  0  0  0  0
 13 27  1  0  0  0  0
 14 31  1  0  0  0  0
 15 22  1  0  0  0  0
 15 25  2  0  0  0  0
 16 27  2  0  0  0  0
 16 28  1  0  0  0  0
 17 29  1  0  0  0  0
 18 29  1  0  0  0  0
 18 32  2  0  0  0  0
 18 33  1  0  0  0  0
 19 21  2  0  0  0  0
 19 39  1  0  0  0  0
 20 22  2  0  0  0  0
 20 40  1  0  0  0  0
 21 52  1  0  0  0  0
 22 41  1  0  0  0  0
 23 30  2  0  0  0  0
 23 63  1  0  0  0  0
 24 86  1  0  0  0  0
 25 87  1  0  0  0  0
 26 28  2  0  0  0  0
 26 86  1  0  0  0  0
 27 88  1  0  0  0  0
 28 89  1  0  0  0  0
 29 68  2  0  0  0  0
 30 53  1  0  0  0  0
 30 69  1  0  0  0  0
 31 69  2  0  0  0  0
 31 75  1  0  0  0  0
 32 70  1  0  0  0  0
 32 73  1  0  0  0  0
 33 74  1  0  0  0  0
 33 80  2  0  0  0  0
 34 54  1  0  0  0  0
 34 76  1  0  0  0  0
 34 81  2  0  0  0  0
 35 65  1  0  0  0  0
 35 71  1  0  0  0  0
 35 82  2  0  0  0  0
 36 57  1  0  0  0  0
 36 77  1  0  0  0  0
 36 83  2  0  0  0  0
 37 66  1  0  0  0  0
 37 78  1  0  0  0  0
 37 84  2  0  0  0  0
 38 72  1  0  0  0  0
 38 75  1  0  0  0  0
 38 85  2  0  0  0  0
 39 42  1  0  0  0  0
 40 54  1  0  0  0  0
 41 71  1  0  0  0  0
 42 44  1  0  0  0  0
 43 49  1  0  0  0  0
 43 50  1  0  0  0  0
 44 52  1  0  0  0  0
 45 47  1  0  0  0  0
 45 53  1  0  0  0  0
 46 48  1  0  0  0  0
 46 53  1  0  0  0  0
 47 55  1  0  0  0  0
 48 55  1  0  0  0  0
 49 56  1  0  0  0  0
 50 72  1  0  0  0  0
 51 56  1  0  0  0  0
 51 72  1  0  0  0  0
 52 76  1  0  0  0  0
 54 71  1  0  0  0  0
 55 64  1  0  0  0  0
 56 70  1  0  0  0  0
 58 66  1  0  0  0  0
 59 67  1  0  0  0  0
 60 67  1  0  0  0  0
 61 67  1  0  0  0  0
 62 79  1  0  0  0  0
 63 77  1  0  0  0  0
 64 87  1  0  0  0  0
 65 67  1  0  0  0  0
 65 78  1  0  0  0  0
 66 79  1  0  0  0  0
 68 70  1  0  0  0  0
M  CHG  1  79   1
M  ISO  4  38 100  64 101  75 100  87 101
M  END
> <Batch ID>
0120

> <Smiles>
CNC(C)C(=O)NC(C(=O)N1Cc2cc([101O:1][101CH2:1]C3CCC(c4nc([100NH:0][100C:0](=O)N5CCCC(n6nc(-c7ccc(Oc8ccc(F)cc8F)cc7)c(C(N)=O)c6N)C5)ccc4CNC(C)=O)CC3)ccc2CC1C(=O)NC1CCCc2ccccc21)C(C)(C)C

> <Shape>
0.227

> <Color>
0.092

> <Negative vol penalty>
0.000

$$$$

  -OEChem-04052320233D

 86 94  0     1  0  0  0  0  0999 V2000
  -29.9054  -11.2475   22.5138 C   0  0  0  0  0  0  0  0  0  0  0  0
  -29.9789  -12.4853   21.8831 C   0  0  0  0  0  0  0  0  0  0  0  0
  -20.4981  -26.7287   23.3944 C   0  0  0  0  0  0  0  0  0  0  0  0
  -20.1936  -28.5180   21.7998 C   0  0  0  0  0  0  0  0  0  0  0  0
  -28.6731  -10.6111   22.6563 C   0  0  0  0  0  0  0  0  0  0  0  0
  -28.8201  -13.0869   21.3934 C   0  0  0  0  0  0  0  0  0  0  0  0
  -28.5559  -18.0128   22.5384 C   0  0  0  0  0  0  0  0  0  0  0  0
  -19.1153  -26.6326   23.5506 C   0  0  0  0  0  0  0  0  0  0  0  0
  -18.8109  -28.4219   21.9559 C   0  0  0  0  0  0  0  0  0  0  0  0
  -29.3251  -18.8868   21.7716 C   0  0  0  0  0  0  0  0  0  0  0  0
  -15.6522  -25.6726   24.0985 C   0  0  0  0  0  0  0  0  0  0  0  0
  -15.0868  -24.3974   24.1003 C   0  0  0  0  0  0  0  0  0  0  0  0
  -29.6442  -25.2894   18.3643 C   0  0  0  0  0  0  0  0  0  0  0  0
  -30.0424  -26.6489   18.3787 C   0  0  0  0  0  0  0  0  0  0  0  0
  -27.3717  -19.4615   20.4781 C   0  0  0  0  0  0  0  0  0  0  0  0
  -15.9392  -24.0163   21.8720 C   0  0  0  0  0  0  0  0  0  0  0  0
  -21.0372  -27.6714   22.5190 C   0  0  0  0  0  0  0  0  0  0  0  0
  -23.2666  -27.0804   21.4289 C   0  0  0  0  0  0  0  0  0  0  0  0
  -27.4974  -11.2096   22.1768 C   0  0  0  0  0  0  0  0  0  0  0  0
  -27.1888  -17.8480   22.2734 C   0  0  0  0  0  0  0  0  0  0  0  0
  -27.5711  -12.4573   21.5285 C   0  0  0  0  0  0  0  0  0  0  0  0
  -26.5868  -18.5866   21.2447 C   0  0  0  0  0  0  0  0  0  0  0  0
  -18.2717  -27.4791   22.8314 C   0  0  0  0  0  0  0  0  0  0  0  0
  -28.7337  -19.6092   20.7394 C   0  0  0  0  0  0  0  0  0  0  0  0
  -16.3610  -26.1196   22.9833 C   0  0  0  0  0  0  0  0  0  0  0  0
  -15.2303  -23.5693   22.9871 C   0  0  0  0  0  0  0  0  0  0  0  0
  -16.5045  -25.2915   21.8701 C   0  0  0  0  0  0  0  0  0  0  0  0
  -22.4655  -27.7715   22.3576 C   0  0  0  0  0  0  0  0  0  0  0  0
  -29.8697  -24.7814   19.6246 C   0  0  0  0  0  0  0  0  0  0  0  0
  -30.4993  -26.9303   19.6473 C   0  0  0  0  0  0  0  0  0  0  0  0
  -24.5426  -27.5225   21.6801 C   0  0  0  0  0  0  0  0  0  0  0  0
  -22.8910  -26.1244   20.4286 C   0  0  0  0  0  0  0  0  0  0  0  0
  -25.3546  -15.4100   21.3816 C   0  0  0  0  0  0  0  0  0  0  0  0
  -22.9587  -17.5439   21.8593 C   0  0  0  0  0  0  0  0  0  0  0  0
  -21.9773  -20.8080   22.0295 C   0  0  0  0  0  0  0  0  0  0  0  0
  -28.1412  -31.6542   22.7406 C   0  0  0  0  0  0  0  0  0  0  0  0
  -26.1947  -10.4616   22.3119 C   0  0  0  0  0  0  0  0  0  0  0  0
  -26.3673  -16.9212   23.1270 C   0  0  0  0  0  0  0  0  0  0  0  0
  -25.1187  -18.4611   20.9328 C   0  0  0  0  0  0  0  0  0  0  0  0
  -24.9637  -11.3388   22.0987 C   0  0  0  0  0  0  0  0  0  0  0  0
  -26.3809  -30.2700   25.5087 C   0  0  0  0  0  0  0  0  0  0  0  0
  -25.1356  -12.2071   20.8564 C   0  0  0  0  0  0  0  0  0  0  0  0
  -25.2684  -29.4452   24.8592 C   0  0  0  0  0  0  0  0  0  0  0  0
  -26.6641  -31.5506   24.7265 C   0  0  0  0  0  0  0  0  0  0  0  0
  -25.8359  -30.5260   22.6437 C   0  0  0  0  0  0  0  0  0  0  0  0
  -26.3331  -13.1533   21.0061 C   0  0  1  0  0  0  0  0  0  0  0  0
  -25.0921  -16.4465   22.4372 C   0  0  1  0  0  0  0  0  0  0  0  0
  -25.5530  -29.1974   23.3656 C   0  0  2  0  0  0  0  0  0  0  0  0
  -19.9487  -22.2385   22.3979 C   0  0  0  0  0  0  0  0  0  0  0  0
  -29.9260  -26.5679   22.6916 C   0  0  0  0  0  0  0  0  0  0  0  0
  -32.2642  -25.8899   21.9992 C   0  0  0  0  0  0  0  0  0  0  0  0
  -22.0089  -16.9221   19.0271 C   0  0  0  0  0  0  0  0  0  0  0  0
  -20.6219  -19.0047   19.1098 C   0  0  0  0  0  0  0  0  0  0  0  0
  -20.1778  -17.1480   20.7155 C   0  0  0  0  0  0  0  0  0  0  0  0
  -23.1561  -22.0625   24.4370 C   0  0  0  0  0  0  0  0  0  0  0  0
  -29.6272  -23.3947   20.1648 C   0  0  0  0  0  0  0  0  0  0  0  0
  -31.0296  -28.1919   20.2041 C   0  0  0  0  0  0  0  0  0  0  0  0
  -30.8222  -22.4528   20.0026 C   0  0  0  0  0  0  0  0  0  0  0  0
  -29.5120  -31.6654   20.6718 C   0  0  0  0  0  0  0  0  0  0  0  0
  -30.5718  -30.5833   20.7612 C   0  0  0  0  0  0  0  0  0  0  0  0
  -30.5987  -21.0806   20.6277 C   0  0  0  0  0  0  0  0  0  1  0  0
  -22.2510  -18.5662   21.0031 C   0  0  1  0  0  0  0  0  0  0  0  0
  -21.1405  -21.5563   23.0514 C   0  0  2  0  0  0  0  0  0  0  0  0
  -30.7661  -25.6627   21.7884 C   0  0  0  0  0  0  0  0  0  0  0  0
  -21.2930  -17.9114   19.9683 C   0  0  0  0  0  0  0  0  0  0  0  0
  -23.1732  -28.5903   23.1405 N   0  0  0  0  0  0  0  0  0  0  0  0
  -30.3899  -25.7876   20.3960 N   0  0  0  0  0  0  0  0  0  0  0  0
  -24.4325  -28.4164   22.7043 N   0  0  0  0  0  0  0  0  0  0  0  0
  -24.3591  -17.5374   21.7915 N   0  0  0  0  0  0  0  0  0  0  0  0
  -26.9275  -31.2460   23.3181 N   0  0  0  0  0  0  0  0  0  0  0  0
  -25.7367  -27.2298   21.1227 N   0  0  0  0  0  0  0  0  0  0  0  0
  -21.5372  -25.7833   20.3054 N   0  0  0  0  0  0  0  0  0  0  0  0
  -25.9878  -14.2755   21.8522 N   0  0  0  0  0  0  0  0  0  0  0  0
  -21.5953  -19.4873   21.9251 N   0  0  0  0  0  0  0  0  0  0  0  0
  -28.3134  -31.3198   21.4030 N   0  0  0  0  0  0  0  0  0  0  0  0
  -21.9623  -22.5965   23.7322 N   0  3  0  0  0  0  0  0  0  0  0  0
  -30.0625  -29.3302   20.1512 N   0  3  0  0  0  0  0  0  0  0  0  0
  -23.7331  -25.5764   19.6776 O   0  0  0  0  0  0  0  0  0  0  0  0
  -25.0071  -15.6230   20.2259 O   0  0  0  0  0  0  0  0  0  0  0  0
  -22.2937  -16.7840   22.5679 O   0  0  0  0  0  0  0  0  0  0  0  0
  -22.8773  -21.3427   21.3854 O   0  0  0  0  0  0  0  0  0  0  0  0
  -29.0094  -32.2662   23.3719 O   0  0  0  0  0  0  0  0  0  0  0  0
  -16.9224  -27.3855   22.9834 O   0  0  0  0  0  0  0  0  0  0  0  0
  -29.4823  -20.4626   19.9889 O   0  0  0  0  0  0  0  0  0  1  0  0
  -14.6887  -22.3442   22.9896 F   0  0  0  0  0  0  0  0  0  0  0  0
  -17.1854  -25.7150   20.7964 F   0  0  0  0  0  0  0  0  0  0  0  0
  1  2  1  0  0  0  0
  1  5  2  0  0  0  0
  2  6  2  0  0  0  0
  3  8  2  0  0  0  0
  3 17  1  0  0  0  0
  4  9  1  0  0  0  0
  4 17  2  0  0  0  0
  5 19  1  0  0  0  0
  6 21  1  0  0  0  0
  7 10  2  0  0  0  0
  7 20  1  0  0  0  0
  8 23  1  0  0  0  0
  9 23  2  0  0  0  0
 10 24  1  0  0  0  0
 11 12  2  0  0  0  0
 11 25  1  0  0  0  0
 12 26  1  0  0  0  0
 13 14  1  0  0  0  0
 13 29  2  0  0  0  0
 14 30  2  0  0  0  0
 15 22  1  0  0  0  0
 15 24  2  0  0  0  0
 16 26  2  0  0  0  0
 16 27  1  0  0  0  0
 17 28  1  0  0  0  0
 18 28  1  0  0  0  0
 18 31  2  0  0  0  0
 18 32  1  0  0  0  0
 19 21  2  0  0  0  0
 19 37  1  0  0  0  0
 20 22  2  0  0  0  0
 20 38  1  0  0  0  0
 21 46  1  0  0  0  0
 22 39  1  0  0  0  0
 23 83  1  0  0  0  0
 24 84  1  0  0  0  0
 25 27  2  0  0  0  0
 25 83  1  0  0  0  0
 26 85  1  0  0  0  0
 27 86  1  0  0  0  0
 28 66  2  0  0  0  0
 29 56  1  0  0  0  0
 29 67  1  0  0  0  0
 30 57  1  0  0  0  0
 30 67  1  0  0  0  0
 31 68  1  0  0  0  0
 31 71  1  0  0  0  0
 32 72  1  0  0  0  0
 32 78  2  0  0  0  0
 33 47  1  0  0  0  0
 33 73  1  0  0  0  0
 33 79  2  0  0  0  0
 34 62  1  0  0  0  0
 34 69  1  0  0  0  0
 34 80  2  0  0  0  0
 35 63  1  0  0  0  0
 35 74  1  0  0  0  0
 35 81  2  0  0  0  0
 36 70  1  0  0  0  0
 36 75  1  0  0  0  0
 36 82  2  0  0  0  0
 37 40  1  0  0  0  0
 38 47  1  0  0  0  0
 39 69  1  0  0  0  0
 40 42  1  0  0  0  0
 41 43  1  0  0  0  0
 41 44  1  0  0  0  0
 42 46  1  0  0  0  0
 43 48  1  0  0  0  0
 44 70  1  0  0  0  0
 45 48  1  0  0  0  0
 45 70  1  0  0  0  0
 46 73  1  0  0  0  0
 47 69  1  0  0  0  0
 48 68  1  0  0  0  0
 49 63  1  0  0  0  0
 50 64  1  0  0  0  0
 51 64  1  0  0  0  0
 52 65  1  0  0  0  0
 53 65  1  0  0  0  0
 54 65  1  0  0  0  0
 55 76  1  0  0  0  0
 56 58  1  0  0  0  0
 57 77  1  0  0  0  0
 58 61  1  0  0  0  0
 59 60  1  0  0  0  0
 59 75  1  0  0  0  0
 60 77  1  0  0  0  0
 61 84  1  0  0  0  0
 62 65  1  0  0  0  0
 62 74  1  0  0  0  0
 63 76  1  0  0  0  0
 64 67  1  0  0  0  0
 66 68  1  0  0  0  0
M  CHG  2  76   1  77   1
M  ISO  4  36 100  61 101  75 100  84 101
M  END
> <Batch ID>
0120

> <Smiles>
CNC(C)C(=O)NC(C(=O)N1Cc2cc([101O:1][101CH2:1]CCc3ccc(CNCC[100NH:0][100C:0](=O)N4CCCC(n5nc(-c6ccc(Oc7ccc(F)cc7F)cc6)c(C(N)=O)c5N)C4)n3C(C)C)ccc2CC1C(=O)NC1CCCc2ccccc21)C(C)(C)C

> <Shape>
0.213

> <Color>
0.066

> <Negative vol penalty>
0.000

$$$$

  -OEChem-04052320233D

 93102  0     1  0  0  0  0  0999 V2000
  -31.1656  -36.5471   16.7400 C   0  0  0  0  0  0  0  0  0  0  0  0
  -31.1506  -35.1560   16.7330 C   0  0  0  0  0  0  0  0  0  0  0  0
  -24.4890   -9.2468   21.7306 C   0  0  0  0  0  0  0  0  0  0  0  0
  -22.8839  -10.2162   20.2072 C   0  0  0  0  0  0  0  0  0  0  0  0
  -30.7928  -37.2414   17.8903 C   0  0  0  0  0  0  0  0  0  0  0  0
  -30.7638  -34.4583   17.8767 C   0  0  0  0  0  0  0  0  0  0  0  0
  -27.7049  -29.1573   18.0967 C   0  0  0  0  0  0  0  0  0  0  0  0
  -23.6765   -8.1218   21.8708 C   0  0  0  0  0  0  0  0  0  0  0  0
  -22.0713   -9.0912   20.3474 C   0  0  0  0  0  0  0  0  0  0  0  0
  -28.1238  -27.8392   18.2719 C   0  0  0  0  0  0  0  0  0  0  0  0
  -21.8534   -5.1516   22.9090 C   0  0  0  0  0  0  0  0  0  0  0  0
  -21.6468   -4.6553   24.1961 C   0  0  0  0  0  0  0  0  0  0  0  0
  -27.6422  -28.0057   20.6297 C   0  0  0  0  0  0  0  0  0  0  0  0
  -21.0487  -20.6906   19.8083 C   0  0  0  0  0  0  0  0  0  0  0  0
  -21.7027  -18.3776   19.8898 C   0  0  0  0  0  0  0  0  0  0  0  0
  -20.6725   -6.7661   24.8535 C   0  0  0  0  0  0  0  0  0  0  0  0
  -24.0927  -10.2941   20.8988 C   0  0  0  0  0  0  0  0  0  0  0  0
  -25.9519  -11.6559   19.8050 C   0  0  0  0  0  0  0  0  0  0  0  0
  -30.3920  -36.5519   19.0455 C   0  0  0  0  0  0  0  0  0  0  0  0
  -27.2609  -29.9144   19.1905 C   0  0  0  0  0  0  0  0  0  0  0  0
  -30.3866  -35.1439   19.0439 C   0  0  0  0  0  0  0  0  0  0  0  0
  -27.2157  -29.3324   20.4654 C   0  0  0  0  0  0  0  0  0  0  0  0
  -20.9746  -19.4012   19.2935 C   0  0  0  0  0  0  0  0  0  0  0  0
  -22.4677   -8.0439   21.1792 C   0  0  0  0  0  0  0  0  0  0  0  0
  -28.0953  -27.2641   19.5390 C   0  0  0  0  0  0  0  0  0  0  0  0
  -21.4696   -6.4552   22.5942 C   0  0  0  0  0  0  0  0  0  0  0  0
  -21.0563   -5.4625   25.1683 C   0  0  0  0  0  0  0  0  0  0  0  0
  -20.8791   -7.2624   23.5664 C   0  0  0  0  0  0  0  0  0  0  0  0
  -24.9313  -11.4568   20.7540 C   0  0  0  0  0  0  0  0  0  0  0  0
  -21.8588  -20.9027   20.9122 C   0  0  0  0  0  0  0  0  0  0  0  0
  -22.4837  -18.6933   20.9899 C   0  0  0  0  0  0  0  0  0  0  0  0
  -26.4414  -12.9083   20.0849 C   0  0  0  0  0  0  0  0  0  0  0  0
  -26.4159  -10.7866   18.7635 C   0  0  0  0  0  0  0  0  0  0  0  0
  -28.2373  -32.5823   20.6161 C   0  0  0  0  0  0  0  0  0  0  0  0
  -25.5085  -32.2035   22.3284 C   0  0  0  0  0  0  0  0  0  0  0  0
  -23.0912  -30.0977   23.4986 C   0  0  0  0  0  0  0  0  0  0  0  0
  -24.0666  -17.7297   22.6964 C   0  0  0  0  0  0  0  0  0  0  0  0
  -30.0431  -37.3451   20.2799 C   0  0  0  0  0  0  0  0  0  0  0  0
  -26.7871  -31.3264   18.9804 C   0  0  0  0  0  0  0  0  0  0  0  0
  -26.7286  -30.0960   21.6688 C   0  0  0  0  0  0  0  0  0  0  0  0
  -29.2870  -36.5358   21.3304 C   0  0  0  0  0  0  0  0  0  0  0  0
  -27.0006  -15.9862   23.7109 C   0  0  0  0  0  0  0  0  0  0  0  0
  -29.9570  -35.1824   21.5458 C   0  0  0  0  0  0  0  0  0  0  0  0
  -26.8988  -14.6473   22.9766 C   0  0  0  0  0  0  0  0  0  0  0  0
  -25.8287  -22.4213   21.8844 C   0  0  0  0  0  0  0  0  0  0  0  0
  -25.6324  -16.4858   24.1716 C   0  0  0  0  0  0  0  0  0  0  0  0
  -24.5081  -15.2149   22.3855 C   0  0  0  0  0  0  0  0  0  0  0  0
  -27.0003  -22.3771   20.9136 C   0  0  0  0  0  0  0  0  0  0  0  0
  -25.6767  -23.6857   19.2270 C   0  0  0  0  0  0  0  0  0  0  0  0
  -29.9494  -34.3517   20.2569 C   0  0  1  0  0  0  0  0  0  0  0  0
  -26.8396  -32.1695   20.2508 C   0  0  1  0  0  0  0  0  0  0  0  0
  -24.4882  -22.5279   21.1451 C   0  0  2  0  0  0  0  0  0  0  0  0
  -25.8535  -14.7030   21.8454 C   0  0  2  0  0  0  0  0  0  0  0  0
  -24.4858  -23.7251   20.1807 C   0  0  1  0  0  0  0  0  0  0  0  0
  -20.5728  -19.8892   16.8534 C   0  0  0  0  0  0  0  0  0  0  0  0
  -18.6265  -19.3925   18.3767 C   0  0  0  0  0  0  0  0  0  0  0  0
  -20.8421  -22.5394   22.5179 C   0  0  0  0  0  0  0  0  0  0  0  0
  -21.0115  -30.0729   24.9028 C   0  0  0  0  0  0  0  0  0  0  0  0
  -27.2128  -32.3993   24.8517 C   0  0  0  0  0  0  0  0  0  0  0  0
  -25.2933  -31.4367   26.1390 C   0  0  0  0  0  0  0  0  0  0  0  0
  -25.0348  -33.6232   24.9663 C   0  0  0  0  0  0  0  0  0  0  0  0
  -21.4350  -29.1516   21.2356 C   0  0  0  0  0  0  0  0  0  0  0  0
  -24.0110  -26.0253   20.0997 C   0  0  0  0  0  0  0  0  0  0  0  0
  -23.3343  -22.5833   22.1469 C   0  0  0  0  0  0  0  0  0  0  0  0
  -28.1705  -23.6684   19.1319 C   0  0  0  0  0  0  0  0  0  0  0  0
  -28.3241  -25.0849   18.6144 C   0  0  0  0  0  0  0  0  0  1  0  0
  -20.1181  -19.1171   18.1066 C   0  0  0  0  0  0  0  0  0  0  0  0
  -21.9650  -22.2988   21.5015 C   0  0  1  0  0  0  0  0  0  0  0  0
  -25.1394  -31.4932   23.6083 C   0  0  1  0  0  0  0  0  0  0  0  0
  -21.5768  -30.2028   23.4970 C   0  0  2  0  0  0  0  0  0  0  0  0
  -25.6811  -32.2241   24.8692 C   0  0  0  0  0  0  0  0  0  0  0  0
  -24.7805  -12.4991   21.5754 N   0  0  0  0  0  0  0  0  0  0  0  0
  -22.5808  -19.9338   21.5184 N   0  0  0  0  0  0  0  0  0  0  0  0
  -25.7128  -13.3653   21.1435 N   0  0  0  0  0  0  0  0  0  0  0  0
  -26.2818  -31.4753   21.4132 N   0  0  0  0  0  0  0  0  0  0  0  0
  -24.6955  -16.5161   23.0464 N   0  0  0  0  0  0  0  0  0  0  0  0
  -27.4197  -13.6522   19.5263 N   0  0  0  0  0  0  0  0  0  0  0  0
  -25.8024   -9.5352   18.6149 N   0  0  0  0  0  0  0  0  0  0  0  0
  -23.2221  -17.6434   21.5901 N   0  0  0  0  0  0  0  0  0  0  0  0
  -28.6423  -33.7703   20.0380 N   0  0  0  0  0  0  0  0  0  0  0  0
  -23.6890  -31.3372   23.5850 N   0  0  0  0  0  0  0  0  0  0  0  0
  -26.9763  -23.5945   20.0109 N   0  3  2  0  0  0  0  0  0  0  0  0
  -20.9839  -29.1287   22.6509 N   0  3  0  0  0  0  0  0  0  0  0  0
  -27.3580  -11.1032   17.9982 O   0  0  0  0  0  0  0  0  0  0  0  0
  -28.8989  -31.8762   21.3679 O   0  0  0  0  0  0  0  0  0  0  0  0
  -25.1187  -33.3593   22.1442 O   0  0  0  0  0  0  0  0  0  0  0  0
  -23.6844  -29.0233   23.4337 O   0  0  0  0  0  0  0  0  0  0  0  0
  -24.2837  -18.7749   23.3147 O   0  0  0  0  0  0  0  0  0  0  0  0
  -21.6747   -6.9461   21.3157 O   0  0  0  0  0  0  0  0  0  0  0  0
  -28.5043  -25.9779   19.7128 O   0  0  0  0  0  0  0  0  0  1  0  0
  -24.5296  -24.9642   20.8866 O   0  0  0  0  0  0  0  0  0  0  0  0
  -20.8566   -4.9853   26.4039 F   0  0  0  0  0  0  0  0  0  0  0  0
  -20.5072   -8.5152   23.2696 F   0  0  0  0  0  0  0  0  0  0  0  0
  1  2  1  0  0  0  0
  1  5  2  0  0  0  0
  2  6  2  0  0  0  0
  3  8  2  0  0  0  0
  3 17  1  0  0  0  0
  4  9  1  0  0  0  0
  4 17  2  0  0  0  0
  5 19  1  0  0  0  0
  6 21  1  0  0  0  0
  7 10  2  0  0  0  0
  7 20  1  0  0  0  0
  8 24  1  0  0  0  0
  9 24  2  0  0  0  0
 10 25  1  0  0  0  0
 11 12  2  0  0  0  0
 11 26  1  0  0  0  0
 12 27  1  0  0  0  0
 13 22  1  0  0  0  0
 13 25  2  0  0  0  0
 14 23  2  0  0  0  0
 14 30  1  0  0  0  0
 15 23  1  0  0  0  0
 15 31  2  0  0  0  0
 16 27  2  0  0  0  0
 16 28  1  0  0  0  0
 17 29  1  0  0  0  0
 18 29  1  0  0  0  0
 18 32  2  0  0  0  0
 18 33  1  0  0  0  0
 19 21  2  0  0  0  0
 19 38  1  0  0  0  0
 20 22  2  0  0  0  0
 20 39  1  0  0  0  0
 21 50  1  0  0  0  0
 22 40  1  0  0  0  0
 23 67  1  0  0  0  0
 24 89  1  0  0  0  0
 25 90  1  0  0  0  0
 26 28  2  0  0  0  0
 26 89  1  0  0  0  0
 27 92  1  0  0  0  0
 28 93  1  0  0  0  0
 29 72  2  0  0  0  0
 30 68  1  0  0  0  0
 30 73  2  0  0  0  0
 31 73  1  0  0  0  0
 31 79  1  0  0  0  0
 32 74  1  0  0  0  0
 32 77  1  0  0  0  0
 33 78  1  0  0  0  0
 33 84  2  0  0  0  0
 34 51  1  0  0  0  0
 34 80  1  0  0  0  0
 34 85  2  0  0  0  0
 35 69  1  0  0  0  0
 35 75  1  0  0  0  0
 35 86  2  0  0  0  0
 36 70  1  0  0  0  0
 36 81  1  0  0  0  0
 36 87  2  0  0  0  0
 37 76  1  0  0  0  0
 37 79  1  0  0  0  0
 37 88  2  0  0  0  0
 38 41  1  0  0  0  0
 39 51  1  0  0  0  0
 40 75  1  0  0  0  0
 41 43  1  0  0  0  0
 42 44  1  0  0  0  0
 42 46  1  0  0  0  0
 43 50  1  0  0  0  0
 44 53  1  0  0  0  0
 45 48  1  0  0  0  0
 45 52  1  0  0  0  0
 46 76  1  0  0  0  0
 47 53  1  0  0  0  0
 47 76  1  0  0  0  0
 48 82  1  0  0  0  0
 49 54  1  0  0  0  0
 49 82  1  0  0  0  0
 50 80  1  0  0  0  0
 51 75  1  0  0  0  0
 52 54  1  0  0  0  0
 52 64  1  0  0  0  0
 53 74  1  0  0  0  0
 54 91  1  0  0  0  0
 55 67  1  0  0  0  0
 56 67  1  0  0  0  0
 57 68  1  0  0  0  0
 58 70  1  0  0  0  0
 59 71  1  0  0  0  0
 60 71  1  0  0  0  0
 61 71  1  0  0  0  0
 62 83  1  0  0  0  0
 63 91  1  0  0  0  0
 64 68  1  0  0  0  0
 65 66  1  0  0  0  0
 65 82  1  0  0  0  0
 66 90  1  0  0  0  0
 69 71  1  0  0  0  0
 69 81  1  0  0  0  0
 70 83  1  0  0  0  0
 72 74  1  0  0  0  0
M  CHG  2  82   1  83   1
M  ISO  4  37 100  66 101  79 100  90 101
M  END
> <Batch ID>
0120

> <Smiles>
CNC(C)C(=O)NC(C(=O)N1Cc2cc([101O:1][101CH2:1]CN3CCC(CC(C)c4cc(C(C)C)cc([100NH:0][100C:0](=O)N5CCCC(n6nc(-c7ccc(Oc8ccc(F)cc8F)cc7)c(C(N)=O)c6N)C5)n4)C(OC)C3)ccc2CC1C(=O)NC1CCCc2ccccc21)C(C)(C)C

> <Shape>
0.224

> <Color>
0.102

> <Negative vol penalty>
0.000

$$$$

  -OEChem-04052320233D

 84 92  0     1  0  0  0  0  0999 V2000
  -24.1352  -11.8577   20.3025 C   0  0  0  0  0  0  0  0  0  0  0  0
  -23.6480  -13.1508   20.1413 C   0  0  0  0  0  0  0  0  0  0  0  0
  -29.8817  -27.2740   19.0267 C   0  0  0  0  0  0  0  0  0  0  0  0
  -29.3119  -26.0110   21.0059 C   0  0  0  0  0  0  0  0  0  0  0  0
  -25.3458  -11.6472   20.9613 C   0  0  0  0  0  0  0  0  0  0  0  0
  -24.3706  -14.2341   20.6398 C   0  0  0  0  0  0  0  0  0  0  0  0
  -24.7955  -19.8240   18.1743 C   0  0  0  0  0  0  0  0  0  0  0  0
  -31.2193  -26.9091   19.1789 C   0  0  0  0  0  0  0  0  0  0  0  0
  -30.6496  -25.6461   21.1581 C   0  0  0  0  0  0  0  0  0  0  0  0
  -24.1368  -21.0220   18.4472 C   0  0  0  0  0  0  0  0  0  0  0  0
  -33.8547  -27.8427   21.0783 C   0  0  0  0  0  0  0  0  0  0  0  0
  -34.8188  -28.8391   20.9261 C   0  0  0  0  0  0  0  0  0  0  0  0
  -25.9719  -21.7029   19.8571 C   0  0  0  0  0  0  0  0  0  0  0  0
  -35.8070  -27.6039   19.1000 C   0  0  0  0  0  0  0  0  0  0  0  0
  -28.9279  -26.8250   19.9403 C   0  0  0  0  0  0  0  0  0  0  0  0
  -26.5540  -26.5142   19.0597 C   0  0  0  0  0  0  0  0  0  0  0  0
  -26.0884  -12.7292   21.4597 C   0  0  0  0  0  0  0  0  0  0  0  0
  -26.0445  -19.5512   18.7504 C   0  0  0  0  0  0  0  0  0  0  0  0
  -25.5916  -14.0378   21.3071 C   0  0  0  0  0  0  0  0  0  0  0  0
  -26.6456  -20.5017   19.5879 C   0  0  0  0  0  0  0  0  0  0  0  0
  -31.6033  -26.0952   20.2446 C   0  0  0  0  0  0  0  0  0  0  0  0
  -24.7236  -21.9605   19.2910 C   0  0  0  0  0  0  0  0  0  0  0  0
  -33.8668  -26.7268   20.2414 C   0  0  0  0  0  0  0  0  0  0  0  0
  -35.7950  -28.7198   19.9369 C   0  0  0  0  0  0  0  0  0  0  0  0
  -34.8429  -26.6075   19.2522 C   0  0  0  0  0  0  0  0  0  0  0  0
  -27.5461  -27.2020   19.7839 C   0  0  0  0  0  0  0  0  0  0  0  0
  -25.4219  -27.2752   19.2204 C   0  0  0  0  0  0  0  0  0  0  0  0
  -26.6474  -25.2963   18.3089 C   0  0  0  0  0  0  0  0  0  0  0  0
  -27.1650  -17.3308   20.7299 C   0  0  0  0  0  0  0  0  0  0  0  0
  -30.0097  -18.7531   20.0915 C   0  0  0  0  0  0  0  0  0  0  0  0
  -19.5199  -26.0444   24.5967 C   0  0  0  0  0  0  0  0  0  0  0  0
  -31.6906  -21.5484   19.0878 C   0  0  0  0  0  0  0  0  0  0  0  0
  -21.9716  -30.2444   22.4491 C   0  0  0  0  0  0  0  0  0  0  0  0
  -27.3684  -12.4486   22.2064 C   0  0  0  0  0  0  0  0  0  0  0  0
  -26.7542  -18.2656   18.4248 C   0  0  0  0  0  0  0  0  0  0  0  0
  -27.9943  -20.2658   20.2154 C   0  0  0  0  0  0  0  0  0  0  0  0
  -28.2570  -13.6783   22.3755 C   0  0  0  0  0  0  0  0  0  0  0  0
  -24.8214  -31.9211   21.1286 C   0  0  0  0  0  0  0  0  0  0  0  0
  -27.4321  -14.8728   22.8438 C   0  0  0  0  0  0  0  0  0  0  0  0
  -25.7046  -30.7861   20.6074 C   0  0  0  0  0  0  0  0  0  0  0  0
  -21.7762  -23.7117   21.3731 C   0  0  0  0  0  0  0  0  0  0  0  0
  -22.9551  -24.8360   22.7531 C   0  0  0  0  0  0  0  0  0  0  0  0
  -24.0916  -31.5252   22.4103 C   0  0  0  0  0  0  0  0  0  0  0  0
  -24.1972  -29.1403   21.7980 C   0  0  0  0  0  0  0  0  0  0  0  0
  -26.3587  -15.2405   21.8122 C   0  0  1  0  0  0  0  0  0  0  0  0
  -27.7888  -17.8718   19.4745 C   0  0  1  0  0  0  0  0  0  0  0  0
  -21.4293  -24.6191   22.5817 C   0  0  0  0  0  0  0  0  0  0  0  0
  -23.0985  -24.5114   21.2436 C   0  0  0  0  0  0  0  0  0  0  0  0
  -24.9105  -29.4726   20.4762 C   0  0  2  0  0  0  0  0  0  0  0  0
  -34.0125  -22.4184   18.7013 C   0  0  0  0  0  0  0  0  0  0  0  0
  -30.4037  -19.0329   23.1042 C   0  0  0  0  0  0  0  0  0  0  0  0
  -32.2080  -20.7061   22.6425 C   0  0  0  0  0  0  0  0  0  0  0  0
  -32.4541  -18.3562   21.8423 C   0  0  0  0  0  0  0  0  0  0  0  0
  -31.1544  -22.0382   16.2187 C   0  0  0  0  0  0  0  0  0  0  0  0
  -20.7037  -23.9618   23.7371 C   0  0  0  0  0  0  0  0  0  0  0  0
  -24.3276  -23.7281   20.8320 C   0  0  0  0  0  0  0  0  0  1  0  0
  -19.5918  -28.4141   23.8485 C   0  0  0  0  0  0  0  0  0  0  0  0
  -19.9299  -28.8337   22.4273 C   0  0  0  0  0  0  0  0  0  0  0  0
  -30.7981  -19.8875   20.7001 C   0  0  1  0  0  0  0  0  0  0  0  0
  -20.4298  -24.8760   24.9414 C   0  0  2  0  0  0  0  0  0  0  0  0
  -32.8022  -21.7453   18.0728 C   0  0  2  0  0  0  0  0  0  0  0  0
  -31.4397  -19.4996   22.0622 C   0  0  0  0  0  0  0  0  0  0  0  0
  -27.0849  -28.3144   20.3616 N   0  0  0  0  0  0  0  0  0  0  0  0
  -25.7905  -28.3315   20.0005 N   0  0  0  0  0  0  0  0  0  0  0  0
  -28.6455  -18.9910   19.8715 N   0  0  0  0  0  0  0  0  0  0  0  0
  -23.3569  -30.2725   22.2183 N   0  0  0  0  0  0  0  0  0  0  0  0
  -24.1571  -27.1371   18.7691 N   0  0  0  0  0  0  0  0  0  0  0  0
  -27.8856  -24.6427   18.2473 N   0  0  0  0  0  0  0  0  0  0  0  0
  -26.9474  -15.9664   20.7072 N   0  0  0  0  0  0  0  0  0  0  0  0
  -20.2315  -27.1730   24.2183 N   0  0  0  0  0  0  0  0  0  0  0  0
  -31.7585  -20.3076   19.6853 N   0  0  0  0  0  0  0  0  0  0  0  0
  -21.3513  -29.0191   22.2377 N   0  0  0  0  0  0  0  0  0  0  0  0
  -19.8519  -24.0775   26.0591 N   0  3  0  0  0  0  0  0  0  0  0  0
  -32.3274  -22.5925   16.9425 N   0  3  0  0  0  0  0  0  0  0  0  0
  -25.6659  -24.8111   17.6968 O   0  0  0  0  0  0  0  0  0  0  0  0
  -26.9020  -18.0945   21.6514 O   0  0  0  0  0  0  0  0  0  0  0  0
  -30.5844  -17.6973   19.8148 O   0  0  0  0  0  0  0  0  0  0  0  0
  -18.2945  -25.9724   24.6594 O   0  0  0  0  0  0  0  0  0  0  0  0
  -30.8487  -22.4106   19.3292 O   0  0  0  0  0  0  0  0  0  0  0  0
  -21.3339  -31.2389   22.8113 O   0  0  0  0  0  0  0  0  0  0  0  0
  -32.9084  -25.7388   20.3933 O   0  0  0  0  0  0  0  0  0  0  0  0
  -24.0826  -23.1304   19.5596 O   0  0  0  0  0  0  0  0  0  1  0  0
  -36.7198  -29.6775   19.7898 F   0  0  0  0  0  0  0  0  0  0  0  0
  -34.8589  -25.5383   18.4444 F   0  0  0  0  0  0  0  0  0  0  0  0
  1  2  1  0  0  0  0
  1  5  2  0  0  0  0
  2  6  2  0  0  0  0
  3  8  2  0  0  0  0
  3 15  1  0  0  0  0
  4  9  1  0  0  0  0
  4 15  2  0  0  0  0
  5 17  1  0  0  0  0
  6 19  1  0  0  0  0
  7 10  2  0  0  0  0
  7 18  1  0  0  0  0
  8 21  1  0  0  0  0
  9 21  2  0  0  0  0
 10 22  1  0  0  0  0
 11 12  2  0  0  0  0
 11 23  1  0  0  0  0
 12 24  1  0  0  0  0
 13 20  1  0  0  0  0
 13 22  2  0  0  0  0
 14 24  2  0  0  0  0
 14 25  1  0  0  0  0
 15 26  1  0  0  0  0
 16 26  1  0  0  0  0
 16 27  2  0  0  0  0
 16 28  1  0  0  0  0
 17 19  2  0  0  0  0
 17 34  1  0  0  0  0
 18 20  2  0  0  0  0
 18 35  1  0  0  0  0
 19 45  1  0  0  0  0
 20 36  1  0  0  0  0
 21 81  1  0  0  0  0
 22 82  1  0  0  0  0
 23 25  2  0  0  0  0
 23 81  1  0  0  0  0
 24 83  1  0  0  0  0
 25 84  1  0  0  0  0
 26 63  2  0  0  0  0
 27 64  1  0  0  0  0
 27 67  1  0  0  0  0
 28 68  1  0  0  0  0
 28 75  2  0  0  0  0
 29 46  1  0  0  0  0
 29 69  1  0  0  0  0
 29 76  2  0  0  0  0
 30 59  1  0  0  0  0
 30 65  1  0  0  0  0
 30 77  2  0  0  0  0
 31 60  1  0  0  0  0
 31 70  1  0  0  0  0
 31 78  2  0  0  0  0
 32 61  1  0  0  0  0
 32 71  1  0  0  0  0
 32 79  2  0  0  0  0
 33 66  1  0  0  0  0
 33 72  1  0  0  0  0
 33 80  2  0  0  0  0
 34 37  1  0  0  0  0
 35 46  1  0  0  0  0
 36 65  1  0  0  0  0
 37 39  1  0  0  0  0
 38 40  1  0  0  0  0
 38 43  1  0  0  0  0
 39 45  1  0  0  0  0
 40 49  1  0  0  0  0
 41 47  1  0  0  0  0
 41 48  1  0  0  0  0
 42 47  1  0  0  0  0
 42 48  1  0  0  0  0
 43 66  1  0  0  0  0
 44 49  1  0  0  0  0
 44 66  1  0  0  0  0
 45 69  1  0  0  0  0
 46 65  1  0  0  0  0
 47 55  1  0  0  0  0
 48 56  1  0  0  0  0
 49 64  1  0  0  0  0
 50 61  1  0  0  0  0
 51 62  1  0  0  0  0
 52 62  1  0  0  0  0
 53 62  1  0  0  0  0
 54 74  1  0  0  0  0
 55 60  1  0  0  0  0
 56 82  1  0  0  0  0
 57 58  1  0  0  0  0
 57 70  1  0  0  0  0
 58 72  1  0  0  0  0
 59 62  1  0  0  0  0
 59 71  1  0  0  0  0
 60 73  1  0  0  0  0
 61 74  1  0  0  0  0
 63 64  1  0  0  0  0
M  CHG  2  73   1  74   1
M  ISO  4  33 100  56 101  72 100  82 101
M  END
> <Batch ID>
0120

> <Smiles>
CNC(C)C(=O)NC(C(=O)N1Cc2cc([101O:1][101CH2:1]C3CC(CC(N)C(=O)NCC[100NH:0][100C:0](=O)N4CCCC(n5nc(-c6ccc(Oc7ccc(F)cc7F)cc6)c(C(N)=O)c5N)C4)C3)ccc2CC1C(=O)NC1CCCc2ccccc21)C(C)(C)C

> <Shape>
0.216

> <Color>
0.069

> <Negative vol penalty>
0.000

$$$$

  -OEChem-04052320233D

 82 90  0     1  0  0  0  0  0999 V2000
  -20.9909  -11.3679   24.6059 C   0  0  0  0  0  0  0  0  0  0  0  0
  -22.3479  -11.6591   24.7015 C   0  0  0  0  0  0  0  0  0  0  0  0
  -21.4105  -28.2450   20.0207 C   0  0  0  0  0  0  0  0  0  0  0  0
  -21.8612  -26.9601   22.0164 C   0  0  0  0  0  0  0  0  0  0  0  0
  -20.2780  -11.7397   23.4669 C   0  0  0  0  0  0  0  0  0  0  0  0
  -22.9930  -12.3214   23.6577 C   0  0  0  0  0  0  0  0  0  0  0  0
  -28.2773  -17.0008   22.4345 C   0  0  0  0  0  0  0  0  0  0  0  0
  -20.1468  -27.6615   19.9304 C   0  0  0  0  0  0  0  0  0  0  0  0
  -20.5975  -26.3766   21.9262 C   0  0  0  0  0  0  0  0  0  0  0  0
  -29.4304  -17.1462   21.6643 C   0  0  0  0  0  0  0  0  0  0  0  0
  -17.4073  -27.2230   22.6521 C   0  0  0  0  0  0  0  0  0  0  0  0
  -16.6522  -27.1321   23.8213 C   0  0  0  0  0  0  0  0  0  0  0  0
  -28.3098  -21.4793   19.7949 C   0  0  0  0  0  0  0  0  0  0  0  0
  -28.0801  -17.8105   19.7790 C   0  0  0  0  0  0  0  0  0  0  0  0
  -16.5958  -24.7271   23.5978 C   0  0  0  0  0  0  0  0  0  0  0  0
  -28.1596  -22.2391   20.9340 C   0  0  0  0  0  0  0  0  0  0  0  0
  -30.3469  -21.8264   20.6890 C   0  0  0  0  0  0  0  0  0  0  0  0
  -22.2677  -27.8943   21.0637 C   0  0  0  0  0  0  0  0  0  0  0  0
  -23.9178  -29.6780   21.8404 C   0  0  0  0  0  0  0  0  0  0  0  0
  -20.9125  -12.4155   22.4126 C   0  0  0  0  0  0  0  0  0  0  0  0
  -27.0141  -17.2490   21.8786 C   0  0  0  0  0  0  0  0  0  0  0  0
  -22.2882  -12.7014   22.5029 C   0  0  0  0  0  0  0  0  0  0  0  0
  -26.9127  -17.6699   20.5449 C   0  0  0  0  0  0  0  0  0  0  0  0
  -29.6936  -21.2183   19.6398 C   0  0  0  0  0  0  0  0  0  0  0  0
  -19.7403  -26.7273   20.8831 C   0  0  0  0  0  0  0  0  0  0  0  0
  -29.3317  -17.5483   20.3356 C   0  0  0  0  0  0  0  0  0  0  0  0
  -17.7567  -26.0660   21.9557 C   0  0  0  0  0  0  0  0  0  0  0  0
  -16.2464  -25.8841   24.2942 C   0  0  0  0  0  0  0  0  0  0  0  0
  -17.3510  -24.8180   22.4286 C   0  0  0  0  0  0  0  0  0  0  0  0
  -23.5735  -28.4963   21.1572 C   0  0  0  0  0  0  0  0  0  0  0  0
  -25.2673  -29.8176   21.6265 C   0  0  0  0  0  0  0  0  0  0  0  0
  -23.0916  -30.5698   22.6006 C   0  0  0  0  0  0  0  0  0  0  0  0
  -24.4092  -15.5028   21.3599 C   0  0  0  0  0  0  0  0  0  0  0  0
  -23.1506  -18.3541   20.4608 C   0  0  0  0  0  0  0  0  0  0  0  0
  -23.6827  -21.5189   19.2998 C   0  0  0  0  0  0  0  0  0  0  0  0
  -29.6215  -25.9061   20.3644 C   0  0  0  0  0  0  0  0  0  0  0  0
  -20.1108  -12.7552   21.1812 C   0  0  0  0  0  0  0  0  0  0  0  0
  -25.7818  -17.1133   22.7303 C   0  0  0  0  0  0  0  0  0  0  0  0
  -25.5816  -17.9685   19.9066 C   0  0  0  0  0  0  0  0  0  0  0  0
  -20.7855  -13.7865   20.2804 C   0  0  0  0  0  0  0  0  0  0  0  0
  -28.6841  -28.7576   18.4496 C   0  0  0  0  0  0  0  0  0  0  0  0
  -22.2548  -13.4334   20.0721 C   0  0  0  0  0  0  0  0  0  0  0  0
  -27.2991  -29.1206   18.9880 C   0  0  0  0  0  0  0  0  0  0  0  0
  -28.8962  -27.2458   18.4111 C   0  0  0  0  0  0  0  0  0  0  0  0
  -27.2640  -26.9160   20.2279 C   0  0  0  0  0  0  0  0  0  0  0  0
  -23.0179  -13.4405   21.4022 C   0  0  1  0  0  0  0  0  0  0  0  0
  -24.5118  -16.8959   21.9135 C   0  0  1  0  0  0  0  0  0  0  0  0
  -27.0240  -28.4315   20.3381 C   0  0  2  0  0  0  0  0  0  0  0  0
  -23.1378  -23.8733   18.6236 C   0  0  0  0  0  0  0  0  0  0  0  0
  -32.7265  -17.9040   20.3276 C   0  0  0  0  0  0  0  0  0  0  0  0
  -22.3425  -17.0275   17.8346 C   0  0  0  0  0  0  0  0  0  0  0  0
  -22.0056  -19.3112   16.8653 C   0  0  0  0  0  0  0  0  0  0  0  0
  -20.6210  -18.5629   18.8007 C   0  0  0  0  0  0  0  0  0  0  0  0
  -24.0786  -22.5250   22.0548 C   0  0  0  0  0  0  0  0  0  0  0  0
  -30.3346  -20.4229   18.5308 C   0  0  0  0  0  0  0  0  0  0  0  0
  -31.6260  -19.7055   18.9499 C   0  0  0  0  0  0  0  0  0  0  0  0
  -29.6806  -23.1940   22.6730 C   0  0  0  0  0  0  0  0  0  0  0  0
  -30.2052  -24.5998   22.3923 C   0  0  0  0  0  0  0  0  0  0  0  0
  -23.0599  -19.1214   19.1639 C   0  0  1  0  0  0  0  0  0  0  0  0
  -23.1503  -22.8637   19.7608 C   0  0  2  0  0  0  0  0  0  0  0  0
  -31.4242  -18.6368   20.0313 C   0  0  1  0  0  0  0  0  0  1  0  0
  -22.0324  -18.4983   18.1773 C   0  0  0  0  0  0  0  0  0  0  0  0
  -24.6198  -27.9258   20.5541 N   0  0  0  0  0  0  0  0  0  0  0  0
  -29.4044  -22.4436   21.4694 N   0  0  0  0  0  0  0  0  0  0  0  0
  -25.6349  -28.7526   20.8577 N   0  0  0  0  0  0  0  0  0  0  0  0
  -24.4054  -17.8152   20.7787 N   0  0  0  0  0  0  0  0  0  0  0  0
  -28.6206  -26.6537   19.7224 N   0  0  0  0  0  0  0  0  0  0  0  0
  -26.1635  -30.7461   22.0227 N   0  0  0  0  0  0  0  0  0  0  0  0
  -21.7261  -30.2773   22.7199 N   0  0  0  0  0  0  0  0  0  0  0  0
  -23.3094  -14.7980   21.8105 N   0  0  0  0  0  0  0  0  0  0  0  0
  -22.7759  -20.5054   19.5274 N   0  0  0  0  0  0  0  0  0  0  0  0
  -29.2798  -25.3855   21.6066 N   0  0  0  0  0  0  0  0  0  0  0  0
  -23.9962  -23.4060   20.8614 N   0  3  0  0  0  0  0  0  0  0  0  0
  -23.5476  -31.6044   23.1440 O   0  0  0  0  0  0  0  0  0  0  0  0
  -25.2637  -15.0979   20.5805 O   0  0  0  0  0  0  0  0  0  0  0  0
  -22.1470  -18.2433   21.1693 O   0  0  0  0  0  0  0  0  0  0  0  0
  -24.7905  -21.3818   18.7856 O   0  0  0  0  0  0  0  0  0  0  0  0
  -30.7386  -25.7210   19.8699 O   0  0  0  0  0  0  0  0  0  0  0  0
  -18.5071  -26.1579   20.7955 O   0  0  0  0  0  0  0  0  0  0  0  0
  -30.4555  -17.6904   19.5814 O   0  0  0  0  0  0  0  0  0  1  0  0
  -15.5226  -25.7968   25.4178 F   0  0  0  0  0  0  0  0  0  0  0  0
  -17.6846  -23.7029   21.7645 F   0  0  0  0  0  0  0  0  0  0  0  0
  1  2  1  0  0  0  0
  1  5  2  0  0  0  0
  2  6  2  0  0  0  0
  3  8  2  0  0  0  0
  3 18  1  0  0  0  0
  4  9  1  0  0  0  0
  4 18  2  0  0  0  0
  5 20  1  0  0  0  0
  6 22  1  0  0  0  0
  7 10  2  0  0  0  0
  7 21  1  0  0  0  0
  8 25  1  0  0  0  0
  9 25  2  0  0  0  0
 10 26  1  0  0  0  0
 11 12  2  0  0  0  0
 11 27  1  0  0  0  0
 12 28  1  0  0  0  0
 13 16  2  0  0  0  0
 13 24  1  0  0  0  0
 14 23  1  0  0  0  0
 14 26  2  0  0  0  0
 15 28  2  0  0  0  0
 15 29  1  0  0  0  0
 16 64  1  0  0  0  0
 17 24  2  0  0  0  0
 17 64  1  0  0  0  0
 18 30  1  0  0  0  0
 19 30  1  0  0  0  0
 19 31  2  0  0  0  0
 19 32  1  0  0  0  0
 20 22  2  0  0  0  0
 20 37  1  0  0  0  0
 21 23  2  0  0  0  0
 21 38  1  0  0  0  0
 22 46  1  0  0  0  0
 23 39  1  0  0  0  0
 24 55  1  0  0  0  0
 25 79  1  0  0  0  0
 26 80  1  0  0  0  0
 27 29  2  0  0  0  0
 27 79  1  0  0  0  0
 28 81  1  0  0  0  0
 29 82  1  0  0  0  0
 30 63  2  0  0  0  0
 31 65  1  0  0  0  0
 31 68  1  0  0  0  0
 32 69  1  0  0  0  0
 32 74  2  0  0  0  0
 33 47  1  0  0  0  0
 33 70  1  0  0  0  0
 33 75  2  0  0  0  0
 34 59  1  0  0  0  0
 34 66  1  0  0  0  0
 34 76  2  0  0  0  0
 35 60  1  0  0  0  0
 35 71  1  0  0  0  0
 35 77  2  0  0  0  0
 36 67  1  0  0  0  0
 36 72  1  0  0  0  0
 36 78  2  0  0  0  0
 37 40  1  0  0  0  0
 38 47  1  0  0  0  0
 39 66  1  0  0  0  0
 40 42  1  0  0  0  0
 41 43  1  0  0  0  0
 41 44  1  0  0  0  0
 42 46  1  0  0  0  0
 43 48  1  0  0  0  0
 44 67  1  0  0  0  0
 45 48  1  0  0  0  0
 45 67  1  0  0  0  0
 46 70  1  0  0  0  0
 47 66  1  0  0  0  0
 48 65  1  0  0  0  0
 49 60  1  0  0  0  0
 50 61  1  0  0  0  0
 51 62  1  0  0  0  0
 52 62  1  0  0  0  0
 53 62  1  0  0  0  0
 54 73  1  0  0  0  0
 55 56  1  0  0  0  0
 56 61  1  0  0  0  0
 57 58  1  0  0  0  0
 57 64  1  0  0  0  0
 58 72  1  0  0  0  0
 59 62  1  0  0  0  0
 59 71  1  0  0  0  0
 60 73  1  0  0  0  0
 61 80  1  0  0  0  0
 63 65  1  0  0  0  0
M  CHG  1  73   1
M  ISO  4  36 100  61 101  72 100  80 101
M  END
> <Batch ID>
0120

> <Smiles>
CNC(C)C(=O)NC(C(=O)N1Cc2cc([101O:1][101CH:1](C)CCc3ccn(CC[100NH:0][100C:0](=O)N4CCCC(n5nc(-c6ccc(Oc7ccc(F)cc7F)cc6)c(C(N)=O)c5N)C4)c3)ccc2CC1C(=O)NC1CCCc2ccccc21)C(C)(C)C

> <Shape>
0.216

> <Color>
0.072

> <Negative vol penalty>
0.000

$$$$

  -OEChem-04052320233D

 83 91  0     1  0  0  0  0  0999 V2000
  -26.8562  -17.3976   17.4020 C   0  0  0  0  0  0  0  0  0  0  0  0
  -27.6044  -18.1939   18.2632 C   0  0  0  0  0  0  0  0  0  0  0  0
  -23.0740   -9.8666   19.9442 C   0  0  0  0  0  0  0  0  0  0  0  0
  -23.8319   -9.8790   22.2382 C   0  0  0  0  0  0  0  0  0  0  0  0
  -27.4939  -16.4600   16.5907 C   0  0  0  0  0  0  0  0  0  0  0  0
  -28.9906  -18.0522   18.3144 C   0  0  0  0  0  0  0  0  0  0  0  0
  -31.3999  -22.5064   18.3218 C   0  0  0  0  0  0  0  0  0  0  0  0
  -30.2190  -18.9535   23.1404 C   0  0  0  0  0  0  0  0  0  0  0  0
  -22.3303   -8.7138   20.1960 C   0  0  0  0  0  0  0  0  0  0  0  0
  -23.0882   -8.7261   22.4901 C   0  0  0  0  0  0  0  0  0  0  0  0
  -31.4346  -23.2096   19.5252 C   0  0  0  0  0  0  0  0  0  0  0  0
  -22.9035   -5.3962   20.4948 C   0  0  0  0  0  0  0  0  0  0  0  0
  -22.9716   -4.3645   19.5585 C   0  0  0  0  0  0  0  0  0  0  0  0
  -29.7456  -17.7180   22.7130 C   0  0  0  0  0  0  0  0  0  0  0  0
  -33.6779  -22.4144   19.9183 C   0  0  0  0  0  0  0  0  0  0  0  0
  -20.5873   -4.5287   19.2044 C   0  0  0  0  0  0  0  0  0  0  0  0
  -32.2260  -18.5444   21.9316 C   0  0  0  0  0  0  0  0  0  0  0  0
  -23.8249  -10.4492   20.9653 C   0  0  0  0  0  0  0  0  0  0  0  0
  -24.1660  -12.9742   20.8399 C   0  0  0  0  0  0  0  0  0  0  0  0
  -28.8896  -16.3134   16.6250 C   0  0  0  0  0  0  0  0  0  0  0  0
  -32.5018  -21.7419   17.9122 C   0  0  0  0  0  0  0  0  0  0  0  0
  -29.6474  -17.1107   17.5039 C   0  0  0  0  0  0  0  0  0  0  0  0
  -33.6556  -21.7045   18.7080 C   0  0  0  0  0  0  0  0  0  0  0  0
  -31.4818  -19.3820   22.7467 C   0  0  0  0  0  0  0  0  0  0  0  0
  -22.3374   -8.1435   21.4690 C   0  0  0  0  0  0  0  0  0  0  0  0
  -32.5726  -23.1613   20.3251 C   0  0  0  0  0  0  0  0  0  0  0  0
  -21.6774   -5.9941   20.7860 C   0  0  0  0  0  0  0  0  0  0  0  0
  -21.8135   -3.9308   18.9133 C   0  0  0  0  0  0  0  0  0  0  0  0
  -20.5193   -5.5604   20.1407 C   0  0  0  0  0  0  0  0  0  0  0  0
  -24.5938  -11.6398   20.7055 C   0  0  0  0  0  0  0  0  0  0  0  0
  -30.5675  -16.9549   21.8992 C   0  0  0  0  0  0  0  0  0  0  0  0
  -25.2582  -13.7233   20.4760 C   0  0  0  0  0  0  0  0  0  0  0  0
  -22.8949  -13.4905   21.2566 C   0  0  0  0  0  0  0  0  0  0  0  0
  -32.9983  -18.6577   17.3251 C   0  0  0  0  0  0  0  0  0  0  0  0
  -35.9027  -19.7131   16.3388 C   0  0  0  0  0  0  0  0  0  0  0  0
  -31.3664  -21.5752   23.9791 C   0  0  0  0  0  0  0  0  0  0  0  0
  -38.3194  -22.1174   16.4996 C   0  0  0  0  0  0  0  0  0  0  0  0
  -30.7238  -14.7711   20.6531 C   0  0  0  0  0  0  0  0  0  0  0  0
  -29.5296  -15.2535   15.7639 C   0  0  0  0  0  0  0  0  0  0  0  0
  -32.4586  -21.0107   16.5985 C   0  0  0  0  0  0  0  0  0  0  0  0
  -34.8727  -20.9149   18.3035 C   0  0  0  0  0  0  0  0  0  0  0  0
  -31.0381  -15.4260   15.6058 C   0  0  0  0  0  0  0  0  0  0  0  0
  -29.6123  -12.3517   18.2892 C   0  0  0  0  0  0  0  0  0  0  0  0
  -31.6883  -15.7028   16.9576 C   0  0  0  0  0  0  0  0  0  0  0  0
  -28.1724  -12.0605   18.7182 C   0  0  0  0  0  0  0  0  0  0  0  0
  -30.5263  -12.5834   19.4912 C   0  0  0  0  0  0  0  0  0  0  0  0
  -28.6179  -13.3103   20.8691 C   0  0  0  0  0  0  0  0  0  0  0  0
  -31.1555  -17.0038   17.5700 C   0  0  1  0  0  0  0  0  0  0  0  0
  -33.4461  -19.8500   16.5279 C   0  0  1  0  0  0  0  0  0  0  0  0
  -27.6462  -13.1341   19.6909 C   0  0  2  0  0  0  0  0  0  0  0  0
  -40.5966  -22.6841   15.6105 C   0  0  0  0  0  0  0  0  0  0  0  0
  -37.1487  -17.6767   18.2389 C   0  0  0  0  0  0  0  0  0  0  0  0
  -39.3167  -18.9110   18.0287 C   0  0  0  0  0  0  0  0  0  0  0  0
  -38.2819  -17.8599   16.0170 C   0  0  0  0  0  0  0  0  0  0  0  0
  -37.3286  -24.5916   15.2129 C   0  0  0  0  0  0  0  0  0  0  0  0
  -32.2668  -22.7857   24.1835 C   0  0  0  0  0  0  0  0  0  0  0  0
  -31.6351  -24.0792   23.6809 C   0  0  0  0  0  0  0  0  0  0  0  0
  -31.3694  -24.0303   22.1833 C   0  0  0  0  0  0  0  0  0  1  0  0
  -37.2391  -19.9415   17.0027 C   0  0  1  0  0  0  0  0  0  0  0  0
  -39.0966  -22.8386   15.4132 C   0  0  2  0  0  0  0  0  0  0  0  0
  -37.9731  -18.6107   17.3307 C   0  0  0  0  0  0  0  0  0  0  0  0
  -31.7998  -17.3376   21.4962 N   0  0  0  0  0  0  0  0  0  0  0  0
  -25.8590  -11.5435   20.2886 N   0  0  0  0  0  0  0  0  0  0  0  0
  -26.2356  -12.8269   20.1577 N   0  0  0  0  0  0  0  0  0  0  0  0
  -34.7793  -20.2119   17.0134 N   0  0  0  0  0  0  0  0  0  0  0  0
  -29.9662  -13.6160   20.3658 N   0  0  0  0  0  0  0  0  0  0  0  0
  -25.4682  -15.0546   20.4002 N   0  0  0  0  0  0  0  0  0  0  0  0
  -21.8830  -12.5818   21.5950 N   0  0  0  0  0  0  0  0  0  0  0  0
  -31.9914  -20.6338   23.1661 N   0  0  0  0  0  0  0  0  0  0  0  0
  -30.0754  -15.6978   21.4689 N   0  0  0  0  0  0  0  0  0  0  0  0
  -31.7728  -18.1500   16.9377 N   0  0  0  0  0  0  0  0  0  0  0  0
  -37.9851  -20.8340   16.1221 N   0  0  0  0  0  0  0  0  0  0  0  0
  -38.7690  -24.2924   15.4202 N   0  3  0  0  0  0  0  0  0  0  0  0
  -22.6582  -14.7212   21.3110 O   0  0  0  0  0  0  0  0  0  0  0  0
  -33.7124  -18.2291   18.2240 O   0  0  0  0  0  0  0  0  0  0  0  0
  -35.8578  -19.1204   15.2579 O   0  0  0  0  0  0  0  0  0  0  0  0
  -30.2528  -21.4988   24.4874 O   0  0  0  0  0  0  0  0  0  0  0  0
  -38.0402  -22.6390   17.5769 O   0  0  0  0  0  0  0  0  0  0  0  0
  -31.8533  -14.9392   20.1861 O   0  0  0  0  0  0  0  0  0  0  0  0
  -21.6116   -7.0187   21.7152 O   0  0  0  0  0  0  0  0  0  0  0  0
  -32.6088  -23.8462   21.5004 O   0  0  0  0  0  0  0  0  0  1  0  0
  -21.8792   -2.9412   18.0131 F   0  0  0  0  0  0  0  0  0  0  0  0
  -19.3386   -6.1317   20.4154 F   0  0  0  0  0  0  0  0  0  0  0  0
  1  2  1  0  0  0  0
  1  5  2  0  0  0  0
  2  6  2  0  0  0  0
  3  9  2  0  0  0  0
  3 18  1  0  0  0  0
  4 10  1  0  0  0  0
  4 18  2  0  0  0  0
  5 20  1  0  0  0  0
  6 22  1  0  0  0  0
  7 11  2  0  0  0  0
  7 21  1  0  0  0  0
  8 14  2  0  0  0  0
  8 24  1  0  0  0  0
  9 25  1  0  0  0  0
 10 25  2  0  0  0  0
 11 26  1  0  0  0  0
 12 13  2  0  0  0  0
 12 27  1  0  0  0  0
 13 28  1  0  0  0  0
 14 31  1  0  0  0  0
 15 23  1  0  0  0  0
 15 26  2  0  0  0  0
 16 28  2  0  0  0  0
 16 29  1  0  0  0  0
 17 24  2  0  0  0  0
 17 62  1  0  0  0  0
 18 30  1  0  0  0  0
 19 30  1  0  0  0  0
 19 32  2  0  0  0  0
 19 33  1  0  0  0  0
 20 22  2  0  0  0  0
 20 39  1  0  0  0  0
 21 23  2  0  0  0  0
 21 40  1  0  0  0  0
 22 48  1  0  0  0  0
 23 41  1  0  0  0  0
 24 69  1  0  0  0  0
 25 80  1  0  0  0  0
 26 81  1  0  0  0  0
 27 29  2  0  0  0  0
 27 80  1  0  0  0  0
 28 82  1  0  0  0  0
 29 83  1  0  0  0  0
 30 63  2  0  0  0  0
 31 62  2  0  0  0  0
 31 70  1  0  0  0  0
 32 64  1  0  0  0  0
 32 67  1  0  0  0  0
 33 68  1  0  0  0  0
 33 74  2  0  0  0  0
 34 49  1  0  0  0  0
 34 71  1  0  0  0  0
 34 75  2  0  0  0  0
 35 59  1  0  0  0  0
 35 65  1  0  0  0  0
 35 76  2  0  0  0  0
 36 56  1  0  0  0  0
 36 69  1  0  0  0  0
 36 77  2  0  0  0  0
 37 60  1  0  0  0  0
 37 72  1  0  0  0  0
 37 78  2  0  0  0  0
 38 66  1  0  0  0  0
 38 70  1  0  0  0  0
 38 79  2  0  0  0  0
 39 42  1  0  0  0  0
 40 49  1  0  0  0  0
 41 65  1  0  0  0  0
 42 44  1  0  0  0  0
 43 45  1  0  0  0  0
 43 46  1  0  0  0  0
 44 48  1  0  0  0  0
 45 50  1  0  0  0  0
 46 66  1  0  0  0  0
 47 50  1  0  0  0  0
 47 66  1  0  0  0  0
 48 71  1  0  0  0  0
 49 65  1  0  0  0  0
 50 64  1  0  0  0  0
 51 60  1  0  0  0  0
 52 61  1  0  0  0  0
 53 61  1  0  0  0  0
 54 61  1  0  0  0  0
 55 73  1  0  0  0  0
 56 57  1  0  0  0  0
 57 58  1  0  0  0  0
 58 81  1  0  0  0  0
 59 61  1  0  0  0  0
 59 72  1  0  0  0  0
 60 73  1  0  0  0  0
 63 64  1  0  0  0  0
M  CHG  1  73   1
M  ISO  4  38 100  58 101  70 100  81 101
M  END
> <Batch ID>
0120

> <Smiles>
CNC(C)C(=O)NC(C(=O)N1Cc2cc([101O:1][101CH2:1]CCC(=O)Nc3ccc([100NH:0][100C:0](=O)N4CCCC(n5nc(-c6ccc(Oc7ccc(F)cc7F)cc6)c(C(N)=O)c5N)C4)nc3)ccc2CC1C(=O)NC1CCCc2ccccc21)C(C)(C)C

> <Shape>
0.175

> <Color>
0.188

> <Negative vol penalty>
0.000

$$$$

  -OEChem-04052320233D

 85 94  0     1  0  0  0  0  0999 V2000
  -29.6804  -31.8233   26.5198 C   0  0  0  0  0  0  0  0  0  0  0  0
  -29.2599  -30.7713   25.7123 C   0  0  0  0  0  0  0  0  0  0  0  0
  -22.9673  -10.1460   21.7712 C   0  0  0  0  0  0  0  0  0  0  0  0
  -24.7425   -8.5647   21.3408 C   0  0  0  0  0  0  0  0  0  0  0  0
  -28.7632  -32.7830   26.9461 C   0  0  0  0  0  0  0  0  0  0  0  0
  -27.9218  -30.6778   25.3316 C   0  0  0  0  0  0  0  0  0  0  0  0
  -27.3718  -29.5770   20.4193 C   0  0  0  0  0  0  0  0  0  0  0  0
  -28.3165  -23.9331   17.5350 C   0  0  0  0  0  0  0  0  0  0  0  0
  -22.0317   -9.1135   21.7061 C   0  0  0  0  0  0  0  0  0  0  0  0
  -23.8069   -7.5322   21.2757 C   0  0  0  0  0  0  0  0  0  0  0  0
  -27.5654  -28.2498   20.0387 C   0  0  0  0  0  0  0  0  0  0  0  0
  -21.9232   -4.4235   21.3541 C   0  0  0  0  0  0  0  0  0  0  0  0
  -22.2181   -3.2369   22.0253 C   0  0  0  0  0  0  0  0  0  0  0  0
  -28.3242  -22.5989   17.1436 C   0  0  0  0  0  0  0  0  0  0  0  0
  -25.1762  -27.9187   20.0005 C   0  0  0  0  0  0  0  0  0  0  0  0
  -22.3316   -4.4464   24.1137 C   0  0  0  0  0  0  0  0  0  0  0  0
  -27.7372  -23.2312   19.7323 C   0  0  0  0  0  0  0  0  0  0  0  0
  -24.3227   -9.8717   21.5886 C   0  0  0  0  0  0  0  0  0  0  0  0
  -25.9738  -11.3949   22.7974 C   0  0  0  0  0  0  0  0  0  0  0  0
  -27.4150  -32.7065   26.5625 C   0  0  0  0  0  0  0  0  0  0  0  0
  -26.0771  -30.0828   20.6043 C   0  0  0  0  0  0  0  0  0  0  0  0
  -26.9854  -31.6366   25.7543 C   0  0  0  0  0  0  0  0  0  0  0  0
  -24.9689  -29.2533   20.3810 C   0  0  0  0  0  0  0  0  0  0  0  0
  -28.0184  -24.2637   18.8522 C   0  0  0  0  0  0  0  0  0  0  0  0
  -22.4515   -7.8066   21.4584 C   0  0  0  0  0  0  0  0  0  0  0  0
  -26.4676  -27.4196   19.8320 C   0  0  0  0  0  0  0  0  0  0  0  0
  -21.8326   -5.6217   22.0627 C   0  0  0  0  0  0  0  0  0  0  0  0
  -22.4223   -3.2483   23.4051 C   0  0  0  0  0  0  0  0  0  0  0  0
  -22.0367   -5.6331   23.4425 C   0  0  0  0  0  0  0  0  0  0  0  0
  -25.2895  -10.9379   21.6552 C   0  0  0  0  0  0  0  0  0  0  0  0
  -28.0295  -21.6409   18.1002 C   0  0  0  0  0  0  0  0  0  0  0  0
  -26.7706  -12.4138   22.3356 C   0  0  0  0  0  0  0  0  0  0  0  0
  -25.8961  -10.9390   24.1546 C   0  0  0  0  0  0  0  0  0  0  0  0
  -24.4735  -31.2964   23.0659 C   0  0  0  0  0  0  0  0  0  0  0  0
  -22.2159  -31.8737   20.8093 C   0  0  0  0  0  0  0  0  0  0  0  0
  -20.8809  -31.0669   17.7739 C   0  0  0  0  0  0  0  0  0  0  0  0
  -27.5162  -16.9262   19.4347 C   0  0  0  0  0  0  0  0  0  0  0  0
  -26.4512  -33.7412   27.0870 C   0  0  0  0  0  0  0  0  0  0  0  0
  -25.8846  -31.5241   20.9891 C   0  0  0  0  0  0  0  0  0  0  0  0
  -23.5578  -29.7534   20.5466 C   0  0  0  0  0  0  0  0  0  0  0  0
  -25.1254  -33.7772   26.3313 C   0  0  0  0  0  0  0  0  0  0  0  0
  -27.9127  -13.8494   17.6378 C   0  0  0  0  0  0  0  0  0  0  0  0
  -24.5834  -32.3647   26.1366 C   0  0  0  0  0  0  0  0  0  0  0  0
  -27.2880  -12.8521   18.6103 C   0  0  0  0  0  0  0  0  0  0  0  0
  -26.6726  -19.6669   17.2131 C   0  0  0  0  0  0  0  0  0  0  0  0
  -27.1671  -15.1853   17.6173 C   0  0  0  0  0  0  0  0  0  0  0  0
  -26.8397  -18.1575   17.3124 C   0  0  0  0  0  0  0  0  0  0  0  0
  -26.3690  -14.7909   19.9302 C   0  0  0  0  0  0  0  0  0  0  0  0
  -25.5471  -31.5145   25.2999 C   0  0  1  0  0  0  0  0  0  0  0  0
  -28.0289  -20.1817   17.7107 C   0  0  2  0  0  0  0  0  0  0  0  0
  -24.5351  -31.7913   21.6485 C   0  0  1  0  0  0  0  0  0  0  0  0
  -27.1495  -13.4710   20.0107 C   0  0  1  0  0  0  0  0  0  0  0  0
  -28.3671  -19.2045   18.8583 C   0  0  2  0  0  0  0  0  0  0  0  0
  -19.0162  -31.6889   16.2139 C   0  0  0  0  0  0  0  0  0  0  0  0
  -30.4540  -18.3863   17.7261 C   0  0  0  0  0  0  0  0  0  0  0  0
  -30.5701  -20.3125   19.3323 C   0  0  0  0  0  0  0  0  0  0  0  0
  -20.2320  -30.3957   22.5952 C   0  0  0  0  0  0  0  0  0  0  0  0
  -18.6979  -30.2172   20.6246 C   0  0  0  0  0  0  0  0  0  0  0  0
  -19.3255  -32.4612   21.5152 C   0  0  0  0  0  0  0  0  0  0  0  0
  -22.7735  -31.8385   15.6335 C   0  0  0  0  0  0  0  0  0  0  0  0
  -28.0017  -25.6814   19.3018 C   0  0  0  0  0  0  0  0  0  1  0  0
  -21.0433  -31.1055   20.2491 C   0  0  1  0  0  0  0  0  0  0  0  0
  -20.4693  -31.9281   16.5935 C   0  0  2  0  0  0  0  0  0  0  0  0
  -29.8724  -18.9948   19.0007 C   0  0  0  0  0  0  0  0  0  0  0  0
  -19.8512  -31.0346   21.2447 C   0  0  0  0  0  0  0  0  0  0  0  0
  -27.7350  -21.9236   19.3890 N   0  0  0  0  0  0  0  0  0  0  0  0
  -25.6224  -11.6114   20.5508 N   0  0  0  0  0  0  0  0  0  0  0  0
  -26.5245  -12.5021   20.9970 N   0  0  0  0  0  0  0  0  0  0  0  0
  -23.4216  -31.1683   20.9300 N   0  0  0  0  0  0  0  0  0  0  0  0
  -26.9833  -15.7156   18.9735 N   0  0  0  0  0  0  0  0  0  0  0  0
  -27.6641  -17.9609   18.5065 N   0  0  0  0  0  0  0  0  0  0  0  0
  -27.6507  -13.2341   22.9481 N   0  0  0  0  0  0  0  0  0  0  0  0
  -25.0264   -9.8819   24.4556 N   0  0  0  0  0  0  0  0  0  0  0  0
  -25.4289  -31.8496   23.8970 N   0  0  0  0  0  0  0  0  0  0  0  0
  -20.7186  -31.7306   18.9716 N   0  0  0  0  0  0  0  0  0  0  0  0
  -21.3207  -31.6240   15.4087 N   0  3  0  0  0  0  0  0  0  0  0  0
  -26.5655  -11.4646   25.0760 O   0  0  0  0  0  0  0  0  0  0  0  0
  -23.6213  -30.4747   23.3825 O   0  0  0  0  0  0  0  0  0  0  0  0
  -22.0695  -33.0581   21.1213 O   0  0  0  0  0  0  0  0  0  0  0  0
  -21.3005  -29.9187   17.6466 O   0  0  0  0  0  0  0  0  0  0  0  0
  -27.8176  -17.0855   20.6247 O   0  0  0  0  0  0  0  0  0  0  0  0
  -21.5389   -6.7988   21.3950 O   0  0  0  0  0  0  0  0  0  0  0  0
  -26.6549  -26.1152   19.4587 O   0  0  0  0  0  0  0  0  0  1  0  0
  -22.7040   -2.1085   24.0498 F   0  0  0  0  0  0  0  0  0  0  0  0
  -21.9498   -6.7808   24.1288 F   0  0  0  0  0  0  0  0  0  0  0  0
  1  2  1  0  0  0  0
  1  5  2  0  0  0  0
  2  6  2  0  0  0  0
  3  9  2  0  0  0  0
  3 18  1  0  0  0  0
  4 10  1  0  0  0  0
  4 18  2  0  0  0  0
  5 20  1  0  0  0  0
  6 22  1  0  0  0  0
  7 11  2  0  0  0  0
  7 21  1  0  0  0  0
  8 14  2  0  0  0  0
  8 24  1  0  0  0  0
  9 25  1  0  0  0  0
 10 25  2  0  0  0  0
 11 26  1  0  0  0  0
 12 13  2  0  0  0  0
 12 27  1  0  0  0  0
 13 28  1  0  0  0  0
 14 31  1  0  0  0  0
 15 23  1  0  0  0  0
 15 26  2  0  0  0  0
 16 28  2  0  0  0  0
 16 29  1  0  0  0  0
 17 24  2  0  0  0  0
 17 66  1  0  0  0  0
 18 30  1  0  0  0  0
 19 30  1  0  0  0  0
 19 32  2  0  0  0  0
 19 33  1  0  0  0  0
 20 22  2  0  0  0  0
 20 38  1  0  0  0  0
 21 23  2  0  0  0  0
 21 39  1  0  0  0  0
 22 49  1  0  0  0  0
 23 40  1  0  0  0  0
 24 61  1  0  0  0  0
 25 82  1  0  0  0  0
 26 83  1  0  0  0  0
 27 29  2  0  0  0  0
 27 82  1  0  0  0  0
 28 84  1  0  0  0  0
 29 85  1  0  0  0  0
 30 67  2  0  0  0  0
 31 50  1  0  0  0  0
 31 66  2  0  0  0  0
 32 68  1  0  0  0  0
 32 72  1  0  0  0  0
 33 73  1  0  0  0  0
 33 77  2  0  0  0  0
 34 51  1  0  0  0  0
 34 74  1  0  0  0  0
 34 78  2  0  0  0  0
 35 62  1  0  0  0  0
 35 69  1  0  0  0  0
 35 79  2  0  0  0  0
 36 63  1  0  0  0  0
 36 75  1  0  0  0  0
 36 80  2  0  0  0  0
 37 70  1  0  0  0  0
 37 71  1  0  0  0  0
 37 81  2  0  0  0  0
 38 41  1  0  0  0  0
 39 51  1  0  0  0  0
 40 69  1  0  0  0  0
 41 43  1  0  0  0  0
 42 44  1  0  0  0  0
 42 46  1  0  0  0  0
 43 49  1  0  0  0  0
 44 52  1  0  0  0  0
 45 47  1  0  0  0  0
 45 50  1  0  0  0  0
 46 70  1  0  0  0  0
 47 71  1  0  0  0  0
 48 52  1  0  0  0  0
 48 70  1  0  0  0  0
 49 74  1  0  0  0  0
 50 53  1  0  0  0  0
 51 69  1  0  0  0  0
 52 68  1  0  0  0  0
 53 64  1  0  0  0  0
 53 71  1  0  0  0  0
 54 63  1  0  0  0  0
 55 64  1  0  0  0  0
 56 64  1  0  0  0  0
 57 65  1  0  0  0  0
 58 65  1  0  0  0  0
 59 65  1  0  0  0  0
 60 76  1  0  0  0  0
 61 83  1  0  0  0  0
 62 65  1  0  0  0  0
 62 75  1  0  0  0  0
 63 76  1  0  0  0  0
 67 68  1  0  0  0  0
M  CHG  1  76   1
M  ISO  4  37 100  61 101  71 100  83 101
M  END
> <Batch ID>
0120

> <Smiles>
CNC(C)C(=O)NC(C(=O)N1Cc2cc([101O:1][101CH2:1]c3ccc(C4CC[100N:0]([100C:0](=O)N5CCCC(n6nc(-c7ccc(Oc8ccc(F)cc8F)cc7)c(C(N)=O)c6N)C5)C4C(C)C)nc3)ccc2CC1C(=O)NC1CCCc2ccccc21)C(C)(C)C

> <Shape>
0.289

> <Color>
0.090

> <Negative vol penalty>
0.000

$$$$

  -OEChem-04052320233D

 86 95  0     1  0  0  0  0  0999 V2000
  -18.8189  -33.7191   16.5825 C   0  0  0  0  0  0  0  0  0  0  0  0
  -20.1625  -33.4836   16.3091 C   0  0  0  0  0  0  0  0  0  0  0  0
  -24.4204  -15.6998   23.7930 C   0  0  0  0  0  0  0  0  0  0  0  0
  -25.6879  -13.7933   24.5647 C   0  0  0  0  0  0  0  0  0  0  0  0
  -18.4214  -34.0636   17.8738 C   0  0  0  0  0  0  0  0  0  0  0  0
  -21.1096  -33.5936   17.3267 C   0  0  0  0  0  0  0  0  0  0  0  0
  -25.2962  -28.0110   19.1149 C   0  0  0  0  0  0  0  0  0  0  0  0
  -24.2526  -16.1220   25.1117 C   0  0  0  0  0  0  0  0  0  0  0  0
  -25.5202  -14.2155   25.8834 C   0  0  0  0  0  0  0  0  0  0  0  0
  -26.2784  -27.0545   19.3733 C   0  0  0  0  0  0  0  0  0  0  0  0
  -22.2985  -15.3257   27.7522 C   0  0  0  0  0  0  0  0  0  0  0  0
  -21.0258  -15.7431   28.1412 C   0  0  0  0  0  0  0  0  0  0  0  0
  -27.1920  -28.4501   21.1242 C   0  0  0  0  0  0  0  0  0  0  0  0
  -21.9086  -17.9245   28.6885 C   0  0  0  0  0  0  0  0  0  0  0  0
  -25.1380  -14.5353   23.5194 C   0  0  0  0  0  0  0  0  0  0  0  0
  -24.3000  -13.7637   21.2369 C   0  0  0  0  0  0  0  0  0  0  0  0
  -19.3629  -34.1683   18.9098 C   0  0  0  0  0  0  0  0  0  0  0  0
  -25.2489  -29.1852   19.8715 C   0  0  0  0  0  0  0  0  0  0  0  0
  -20.7245  -33.9411   18.6327 C   0  0  0  0  0  0  0  0  0  0  0  0
  -26.2030  -29.4062   20.8783 C   0  0  0  0  0  0  0  0  0  0  0  0
  -24.8025  -15.3799   26.1570 C   0  0  0  0  0  0  0  0  0  0  0  0
  -27.2240  -27.2737   20.3753 C   0  0  0  0  0  0  0  0  0  0  0  0
  -23.3764  -16.2076   27.8313 C   0  0  0  0  0  0  0  0  0  0  0  0
  -20.8308  -17.0425   28.6094 C   0  0  0  0  0  0  0  0  0  0  0  0
  -23.1814  -17.5070   28.2994 C   0  0  0  0  0  0  0  0  0  0  0  0
  -25.3112  -14.0983   22.1574 C   0  0  0  0  0  0  0  0  0  0  0  0
  -24.9775  -13.4156   20.0940 C   0  0  0  0  0  0  0  0  0  0  0  0
  -22.8756  -13.7672   21.4003 C   0  0  0  0  0  0  0  0  0  0  0  0
  -23.5177  -32.4470   20.5349 C   0  0  0  0  0  0  0  0  0  0  0  0
  -24.2590  -31.2602   23.2648 C   0  0  0  0  0  0  0  0  0  0  0  0
  -24.8737  -29.4177   26.0692 C   0  0  0  0  0  0  0  0  0  0  0  0
  -30.3841  -14.8546   17.9610 C   0  0  0  0  0  0  0  0  0  0  0  0
  -18.8916  -34.5896   20.2791 C   0  0  0  0  0  0  0  0  0  0  0  0
  -24.2463  -30.2705   19.5869 C   0  0  0  0  0  0  0  0  0  0  0  0
  -26.1345  -30.6995   21.6436 C   0  0  0  0  0  0  0  0  0  0  0  0
  -19.9098  -34.3189   21.3837 C   0  0  0  0  0  0  0  0  0  0  0  0
  -29.1451  -11.5830   18.6229 C   0  0  0  0  0  0  0  0  0  0  0  0
  -21.2975  -34.7868   20.9569 C   0  0  0  0  0  0  0  0  0  0  0  0
  -31.6514  -21.7135   18.1888 C   0  0  0  0  0  0  0  0  0  0  0  0
  -29.3649  -21.8718   17.1287 C   0  0  0  0  0  0  0  0  0  0  0  0
  -29.7782  -19.2733   15.8026 C   0  0  0  0  0  0  0  0  0  0  0  0
  -32.0451  -19.0571   16.8992 C   0  0  0  0  0  0  0  0  0  0  0  0
  -31.1981  -22.6512   19.3064 C   0  0  0  0  0  0  0  0  0  0  0  0
  -28.9117  -22.8092   18.2465 C   0  0  0  0  0  0  0  0  0  0  0  0
  -27.9307  -11.8265   19.5207 C   0  0  0  0  0  0  0  0  0  0  0  0
  -29.2454  -18.1362   16.6750 C   0  0  0  0  0  0  0  0  0  0  0  0
  -31.5164  -17.9191   17.7729 C   0  0  0  0  0  0  0  0  0  0  0  0
  -30.2712  -12.5718   18.9163 C   0  0  0  0  0  0  0  0  0  0  0  0
  -28.6627  -14.2356   19.7638 C   0  0  0  0  0  0  0  0  0  0  0  0
  -21.7785  -34.0262   19.7153 C   0  0  1  0  0  0  0  0  0  0  0  0
  -23.7744  -31.0037   20.8553 C   0  0  1  0  0  0  0  0  0  0  0  0
  -30.4757  -20.9242   17.5990 C   0  0  0  0  0  0  0  0  0  0  0  0
  -30.9472  -20.0311   16.4481 C   0  0  0  0  0  0  0  0  0  0  0  0
  -30.0873  -23.5987   18.8357 C   0  0  0  0  0  0  0  0  0  0  0  0
  -27.4795  -13.2985   19.4667 C   0  0  2  0  0  0  0  0  0  0  0  0
  -30.3642  -17.1789   17.0913 C   0  0  0  0  0  0  0  0  0  0  0  0
  -24.6607  -29.5032   28.5681 C   0  0  0  0  0  0  0  0  0  0  0  0
  -26.6630  -33.1326   23.4020 C   0  0  0  0  0  0  0  0  0  0  0  0
  -26.9840  -32.4308   25.7837 C   0  0  0  0  0  0  0  0  0  0  0  0
  -24.8847  -33.5915   25.0994 C   0  0  0  0  0  0  0  0  0  0  0  0
  -23.0770  -27.0663   26.1126 C   0  0  0  0  0  0  0  0  0  0  0  0
  -28.5976  -25.5278   19.5253 C   0  0  0  0  0  0  0  0  0  1  0  0
  -25.2662  -31.1964   24.3850 C   0  0  1  0  0  0  0  0  0  0  0  0
  -24.0009  -29.0807   27.2647 C   0  0  2  0  0  0  0  0  0  0  0  0
  -29.6171  -24.4908   19.9830 C   0  0  2  0  0  0  0  0  0  0  0  0
  -25.9492  -32.5685   24.6467 C   0  0  0  0  0  0  0  0  0  0  0  0
  -26.5378  -13.9739   21.6437 N   0  0  0  0  0  0  0  0  0  0  0  0
  -26.3018  -13.5571   20.3880 N   0  0  0  0  0  0  0  0  0  0  0  0
  -24.7355  -31.0159   21.9711 N   0  0  0  0  0  0  0  0  0  0  0  0
  -29.7777  -13.9494   18.8475 N   0  0  0  0  0  0  0  0  0  0  0  0
  -24.5638  -13.0054   18.8762 N   0  0  0  0  0  0  0  0  0  0  0  0
  -22.2526  -12.5978   21.8574 N   0  0  0  0  0  0  0  0  0  0  0  0
  -22.2385  -32.7033   20.0796 N   0  0  0  0  0  0  0  0  0  0  0  0
  -24.5594  -30.6511   25.5389 N   0  0  0  0  0  0  0  0  0  0  0  0
  -29.8513  -16.1379   17.9539 N   0  0  0  0  0  0  0  0  0  0  0  0
  -30.8051  -25.2057   20.5332 N   0  3  0  0  0  0  0  0  0  0  0  0
  -23.7444  -27.6138   27.3217 N   0  3  0  0  0  0  0  0  0  0  0  0
  -22.1741  -14.7722   21.1329 O   0  0  0  0  0  0  0  0  0  0  0  0
  -24.4132  -33.2689   20.6904 O   0  0  0  0  0  0  0  0  0  0  0  0
  -23.0821  -31.5248   23.5262 O   0  0  0  0  0  0  0  0  0  0  0  0
  -25.7494  -28.6640   25.6502 O   0  0  0  0  0  0  0  0  0  0  0  0
  -31.3268  -14.5409   17.2263 O   0  0  0  0  0  0  0  0  0  0  0  0
  -24.6392  -15.7918   27.4439 O   0  0  0  0  0  0  0  0  0  0  0  0
  -28.1773  -26.3338   20.6253 O   0  0  0  0  0  0  0  0  0  1  0  0
  -19.6082  -17.4438   28.9815 F   0  0  0  0  0  0  0  0  0  0  0  0
  -24.2128  -18.3591   28.3766 F   0  0  0  0  0  0  0  0  0  0  0  0
  1  2  1  0  0  0  0
  1  5  2  0  0  0  0
  2  6  2  0  0  0  0
  3  8  2  0  0  0  0
  3 15  1  0  0  0  0
  4  9  1  0  0  0  0
  4 15  2  0  0  0  0
  5 17  1  0  0  0  0
  6 19  1  0  0  0  0
  7 10  2  0  0  0  0
  7 18  1  0  0  0  0
  8 21  1  0  0  0  0
  9 21  2  0  0  0  0
 10 22  1  0  0  0  0
 11 12  2  0  0  0  0
 11 23  1  0  0  0  0
 12 24  1  0  0  0  0
 13 20  1  0  0  0  0
 13 22  2  0  0  0  0
 14 24  2  0  0  0  0
 14 25  1  0  0  0  0
 15 26  1  0  0  0  0
 16 26  1  0  0  0  0
 16 27  2  0  0  0  0
 16 28  1  0  0  0  0
 17 19  2  0  0  0  0
 17 33  1  0  0  0  0
 18 20  2  0  0  0  0
 18 34  1  0  0  0  0
 19 50  1  0  0  0  0
 20 35  1  0  0  0  0
 21 83  1  0  0  0  0
 22 84  1  0  0  0  0
 23 25  2  0  0  0  0
 23 83  1  0  0  0  0
 24 85  1  0  0  0  0
 25 86  1  0  0  0  0
 26 67  2  0  0  0  0
 27 68  1  0  0  0  0
 27 71  1  0  0  0  0
 28 72  1  0  0  0  0
 28 78  2  0  0  0  0
 29 51  1  0  0  0  0
 29 73  1  0  0  0  0
 29 79  2  0  0  0  0
 30 63  1  0  0  0  0
 30 69  1  0  0  0  0
 30 80  2  0  0  0  0
 31 64  1  0  0  0  0
 31 74  1  0  0  0  0
 31 81  2  0  0  0  0
 32 70  1  0  0  0  0
 32 75  1  0  0  0  0
 32 82  2  0  0  0  0
 33 36  1  0  0  0  0
 34 51  1  0  0  0  0
 35 69  1  0  0  0  0
 36 38  1  0  0  0  0
 37 45  1  0  0  0  0
 37 48  1  0  0  0  0
 38 50  1  0  0  0  0
 39 43  1  0  0  0  0
 39 52  1  0  0  0  0
 40 44  1  0  0  0  0
 40 52  1  0  0  0  0
 41 46  1  0  0  0  0
 41 53  1  0  0  0  0
 42 47  1  0  0  0  0
 42 53  1  0  0  0  0
 43 54  1  0  0  0  0
 44 54  1  0  0  0  0
 45 55  1  0  0  0  0
 46 56  1  0  0  0  0
 47 56  1  0  0  0  0
 48 70  1  0  0  0  0
 49 55  1  0  0  0  0
 49 70  1  0  0  0  0
 50 73  1  0  0  0  0
 51 69  1  0  0  0  0
 52 53  1  0  0  0  0
 54 65  1  0  0  0  0
 55 68  1  0  0  0  0
 56 75  1  0  0  0  0
 57 64  1  0  0  0  0
 58 66  1  0  0  0  0
 59 66  1  0  0  0  0
 60 66  1  0  0  0  0
 61 77  1  0  0  0  0
 62 65  1  0  0  0  0
 62 84  1  0  0  0  0
 63 66  1  0  0  0  0
 63 74  1  0  0  0  0
 64 77  1  0  0  0  0
 65 76  1  0  0  0  0
 67 68  1  0  0  0  0
M  CHG  2  76   1  77   1
M  ISO  4  32 100  62 101  75 100  84 101
M  END
> <Batch ID>
0120

> <Smiles>
CNC(C)C(=O)NC(C(=O)N1Cc2cc([101O:1][101CH2:1]C(N)C3CCC(C4CCC([100NH:0][100C:0](=O)N5CCCC(n6nc(-c7ccc(Oc8ccc(F)cc8F)cc7)c(C(N)=O)c6N)C5)CC4)CC3)ccc2CC1C(=O)NC1CCCc2ccccc21)C(C)(C)C

> <Shape>
0.218

> <Color>
0.110

> <Negative vol penalty>
0.000

$$$$

  -OEChem-04052320233D

 87 96  0     1  0  0  0  0  0999 V2000
  -31.5070  -33.2388   25.8564 C   0  0  0  0  0  0  0  0  0  0  0  0
  -31.4302  -32.1728   24.9658 C   0  0  0  0  0  0  0  0  0  0  0  0
  -24.5060   -8.8427   21.4800 C   0  0  0  0  0  0  0  0  0  0  0  0
  -23.8231  -10.7004   22.8655 C   0  0  0  0  0  0  0  0  0  0  0  0
  -30.4523  -33.4909   26.7328 C   0  0  0  0  0  0  0  0  0  0  0  0
  -30.2990  -31.3575   24.9519 C   0  0  0  0  0  0  0  0  0  0  0  0
  -27.7675  -28.6565   20.0732 C   0  0  0  0  0  0  0  0  0  0  0  0
  -24.8418  -19.9268   18.6779 C   0  0  0  0  0  0  0  0  0  0  0  0
  -24.0585   -7.9511   22.4548 C   0  0  0  0  0  0  0  0  0  0  0  0
  -23.3755   -9.8087   23.8404 C   0  0  0  0  0  0  0  0  0  0  0  0
  -27.8601  -27.3617   19.5645 C   0  0  0  0  0  0  0  0  0  0  0  0
  -25.4740  -21.1084   18.2911 C   0  0  0  0  0  0  0  0  0  0  0  0
  -21.1058   -6.6729   23.4945 C   0  0  0  0  0  0  0  0  0  0  0  0
  -20.3535   -5.5763   23.0737 C   0  0  0  0  0  0  0  0  0  0  0  0
  -25.8273  -26.7688   20.7201 C   0  0  0  0  0  0  0  0  0  0  0  0
  -27.3955  -20.5194   19.6319 C   0  0  0  0  0  0  0  0  0  0  0  0
  -22.0110   -4.0831   24.0012 C   0  0  0  0  0  0  0  0  0  0  0  0
  -24.3883  -10.2174   21.6853 C   0  0  0  0  0  0  0  0  0  0  0  0
  -24.1096  -11.6676   19.6052 C   0  0  0  0  0  0  0  0  0  0  0  0
  -29.3035  -32.6841   26.7229 C   0  0  0  0  0  0  0  0  0  0  0  0
  -26.7082  -29.0147   20.9194 C   0  0  0  0  0  0  0  0  0  0  0  0
  -29.2286  -31.5982   25.8299 C   0  0  0  0  0  0  0  0  0  0  0  0
  -25.4865  -19.0414   19.5418 C   0  0  0  0  0  0  0  0  0  0  0  0
  -25.7222  -28.0695   21.2362 C   0  0  0  0  0  0  0  0  0  0  0  0
  -26.7633  -19.3377   20.0188 C   0  0  0  0  0  0  0  0  0  0  0  0
  -23.4933   -8.4341   23.6350 C   0  0  0  0  0  0  0  0  0  0  0  0
  -26.8915  -26.4168   19.8903 C   0  0  0  0  0  0  0  0  0  0  0  0
  -26.7508  -21.4048   18.7681 C   0  0  0  0  0  0  0  0  0  0  0  0
  -22.3109   -6.4746   24.1686 C   0  0  0  0  0  0  0  0  0  0  0  0
  -20.8060   -4.2815   23.3271 C   0  0  0  0  0  0  0  0  0  0  0  0
  -22.7634   -5.1797   24.4219 C   0  0  0  0  0  0  0  0  0  0  0  0
  -24.8509  -11.1389   20.6789 C   0  0  0  0  0  0  0  0  0  0  0  0
  -24.9949  -12.4854   18.9465 C   0  0  0  0  0  0  0  0  0  0  0  0
  -22.7430  -11.4398   19.2363 C   0  0  0  0  0  0  0  0  0  0  0  0
  -26.4811  -30.0252   23.9245 C   0  0  0  0  0  0  0  0  0  0  0  0
  -23.3466  -30.3662   23.1623 C   0  0  0  0  0  0  0  0  0  0  0  0
  -20.7304  -29.4394   21.1765 C   0  0  0  0  0  0  0  0  0  0  0  0
  -29.9243  -15.4024   20.6912 C   0  0  0  0  0  0  0  0  0  0  0  0
  -28.2092  -32.9670   27.7215 C   0  0  0  0  0  0  0  0  0  0  0  0
  -26.6082  -30.4230   21.4382 C   0  0  0  0  0  0  0  0  0  0  0  0
  -24.5541  -28.4093   22.1241 C   0  0  0  0  0  0  0  0  0  0  0  0
  -26.8865  -32.2829   27.3857 C   0  0  0  0  0  0  0  0  0  0  0  0
  -29.6692  -13.0074   18.0691 C   0  0  0  0  0  0  0  0  0  0  0  0
  -25.4691  -16.4633   19.7056 C   0  0  0  0  0  0  0  0  0  0  0  0
  -24.2908  -16.8516   18.8684 C   0  0  0  0  0  0  0  0  0  0  0  0
  -27.1203  -30.8224   27.0129 C   0  0  0  0  0  0  0  0  0  0  0  0
  -28.3385  -12.3046   18.3437 C   0  0  0  0  0  0  0  0  0  0  0  0
  -30.3962  -13.3650   19.3635 C   0  0  0  0  0  0  0  0  0  0  0  0
  -28.2669  -13.4424   20.6018 C   0  0  0  0  0  0  0  0  0  0  0  0
  -24.7865  -17.7838   19.9411 C   0  0  0  0  0  0  0  0  0  0  0  0
  -28.0076  -30.7062   25.7676 C   0  0  1  0  0  0  0  0  0  0  0  0
  -25.7658  -30.5344   22.7053 C   0  0  1  0  0  0  0  0  0  0  0  0
  -27.4707  -13.1119   19.3278 C   0  0  2  0  0  0  0  0  0  0  0  0
  -18.2832  -29.8632   20.8175 C   0  0  0  0  0  0  0  0  0  0  0  0
  -28.6989  -17.5333   23.4463 C   0  0  0  0  0  0  0  0  0  0  0  0
  -22.6954  -28.6647   25.6099 C   0  0  0  0  0  0  0  0  0  0  0  0
  -20.3946  -28.3324   24.6802 C   0  0  0  0  0  0  0  0  0  0  0  0
  -21.1807  -30.6253   25.2694 C   0  0  0  0  0  0  0  0  0  0  0  0
  -21.1873  -30.4315   18.4259 C   0  0  0  0  0  0  0  0  0  0  0  0
  -28.8480  -18.4765   21.0854 C   0  0  0  0  0  0  0  0  0  0  0  0
  -28.2888  -24.6456   19.1377 C   0  0  0  0  0  0  0  0  0  1  0  0
  -28.2814  -23.1399   19.3178 C   0  0  0  0  0  0  0  0  0  0  0  0
  -22.1281  -29.4773   23.2258 C   0  0  1  0  0  0  0  0  0  0  0  0
  -19.6978  -30.2586   20.4235 C   0  0  2  0  0  0  0  0  0  0  0  0
  -29.3038  -17.3815   22.0540 C   0  0  2  0  0  0  0  0  0  0  0  0
  -21.6226  -29.2677   24.6811 C   0  0  0  0  0  0  0  0  0  0  0  0
  -26.1102  -11.5834   20.7045 N   0  0  0  0  0  0  0  0  0  0  0  0
  -26.1671  -12.4000   19.6386 N   0  0  0  0  0  0  0  0  0  0  0  0
  -24.5039  -29.7975   22.6117 N   0  0  0  0  0  0  0  0  0  0  0  0
  -29.5190  -14.1312   20.2519 N   0  0  0  0  0  0  0  0  0  0  0  0
  -24.8773  -13.2620   17.8486 N   0  0  0  0  0  0  0  0  0  0  0  0
  -21.9748  -10.5701   20.0223 N   0  0  0  0  0  0  0  0  0  0  0  0
  -27.4319  -18.4542   20.8947 N   0  0  0  0  0  0  0  0  0  0  0  0
  -27.2396  -30.9816   24.5723 N   0  0  0  0  0  0  0  0  0  0  0  0
  -21.1418  -30.0722   22.3305 N   0  0  0  0  0  0  0  0  0  0  0  0
  -29.0311  -16.0635   21.5253 N   0  0  0  0  0  0  0  0  0  0  0  0
  -19.8496  -30.0594   18.9544 N   0  3  0  0  0  0  0  0  0  0  0  0
  -22.2233  -11.9783   18.2296 O   0  0  0  0  0  0  0  0  0  0  0  0
  -26.3532  -28.8519   24.2541 O   0  0  0  0  0  0  0  0  0  0  0  0
  -23.2724  -31.5248   23.5792 O   0  0  0  0  0  0  0  0  0  0  0  0
  -21.1293  -28.3457   20.7825 O   0  0  0  0  0  0  0  0  0  0  0  0
  -30.9999  -15.9126   20.3600 O   0  0  0  0  0  0  0  0  0  0  0  0
  -23.0563   -7.5643   24.5864 O   0  0  0  0  0  0  0  0  0  0  0  0
  -26.9799  -25.1521   19.3957 O   0  0  0  0  0  0  0  0  0  1  0  0
  -27.3720  -22.5651   18.3874 O   0  0  0  0  0  0  0  0  0  0  0  0
  -20.0826   -3.2285   22.9243 F   0  0  0  0  0  0  0  0  0  0  0  0
  -23.9197   -4.9830   25.0701 F   0  0  0  0  0  0  0  0  0  0  0  0
  1  2  1  0  0  0  0
  1  5  2  0  0  0  0
  2  6  2  0  0  0  0
  3  9  2  0  0  0  0
  3 18  1  0  0  0  0
  4 10  1  0  0  0  0
  4 18  2  0  0  0  0
  5 20  1  0  0  0  0
  6 22  1  0  0  0  0
  7 11  2  0  0  0  0
  7 21  1  0  0  0  0
  8 12  2  0  0  0  0
  8 23  1  0  0  0  0
  9 26  1  0  0  0  0
 10 26  2  0  0  0  0
 11 27  1  0  0  0  0
 12 28  1  0  0  0  0
 13 14  2  0  0  0  0
 13 29  1  0  0  0  0
 14 30  1  0  0  0  0
 15 24  1  0  0  0  0
 15 27  2  0  0  0  0
 16 25  1  0  0  0  0
 16 28  2  0  0  0  0
 17 30  2  0  0  0  0
 17 31  1  0  0  0  0
 18 32  1  0  0  0  0
 19 32  1  0  0  0  0
 19 33  2  0  0  0  0
 19 34  1  0  0  0  0
 20 22  2  0  0  0  0
 20 39  1  0  0  0  0
 21 24  2  0  0  0  0
 21 40  1  0  0  0  0
 22 51  1  0  0  0  0
 23 25  2  0  0  0  0
 23 50  1  0  0  0  0
 24 41  1  0  0  0  0
 25 73  1  0  0  0  0
 26 83  1  0  0  0  0
 27 84  1  0  0  0  0
 28 85  1  0  0  0  0
 29 31  2  0  0  0  0
 29 83  1  0  0  0  0
 30 86  1  0  0  0  0
 31 87  1  0  0  0  0
 32 67  2  0  0  0  0
 33 68  1  0  0  0  0
 33 71  1  0  0  0  0
 34 72  1  0  0  0  0
 34 78  2  0  0  0  0
 35 52  1  0  0  0  0
 35 74  1  0  0  0  0
 35 79  2  0  0  0  0
 36 63  1  0  0  0  0
 36 69  1  0  0  0  0
 36 80  2  0  0  0  0
 37 64  1  0  0  0  0
 37 75  1  0  0  0  0
 37 81  2  0  0  0  0
 38 70  1  0  0  0  0
 38 76  1  0  0  0  0
 38 82  2  0  0  0  0
 39 42  1  0  0  0  0
 40 52  1  0  0  0  0
 41 69  1  0  0  0  0
 42 46  1  0  0  0  0
 43 47  1  0  0  0  0
 43 48  1  0  0  0  0
 44 45  1  0  0  0  0
 44 50  1  0  0  0  0
 45 50  1  0  0  0  0
 46 51  1  0  0  0  0
 47 53  1  0  0  0  0
 48 70  1  0  0  0  0
 49 53  1  0  0  0  0
 49 70  1  0  0  0  0
 51 74  1  0  0  0  0
 52 69  1  0  0  0  0
 53 68  1  0  0  0  0
 54 64  1  0  0  0  0
 55 65  1  0  0  0  0
 56 66  1  0  0  0  0
 57 66  1  0  0  0  0
 58 66  1  0  0  0  0
 59 77  1  0  0  0  0
 60 65  1  0  0  0  0
 60 73  1  0  0  0  0
 61 62  1  0  0  0  0
 61 84  1  0  0  0  0
 62 85  1  0  0  0  0
 63 66  1  0  0  0  0
 63 75  1  0  0  0  0
 64 77  1  0  0  0  0
 65 76  1  0  0  0  0
 67 68  1  0  0  0  0
M  CHG  1  77   1
M  ISO  4  38 100  61 101  76 100  84 101
M  END
> <Batch ID>
0120

> <Smiles>
CNC(C)C(=O)NC(C(=O)N1Cc2cc([101O:1][101CH2:1]COc3ccc(C4CC4)c(NCC(C)[100NH:0][100C:0](=O)N4CCCC(n5nc(-c6ccc(Oc7ccc(F)cc7F)cc6)c(C(N)=O)c5N)C4)c3)ccc2CC1C(=O)NC1CCCc2ccccc21)C(C)(C)C

> <Shape>
0.287

> <Color>
0.096

> <Negative vol penalty>
0.000

$$$$

  -OEChem-04052320233D

 85 93  0     1  0  0  0  0  0999 V2000
  -29.0677  -24.7048   16.4418 C   0  0  0  0  0  0  0  0  0  0  0  0
  -28.0274  -24.6362   17.3629 C   0  0  0  0  0  0  0  0  0  0  0  0
  -27.1934  -11.6375   20.4907 C   0  0  0  0  0  0  0  0  0  0  0  0
  -26.1760  -13.7096   19.7779 C   0  0  0  0  0  0  0  0  0  0  0  0
  -30.1361  -25.5731   16.6619 C   0  0  0  0  0  0  0  0  0  0  0  0
  -28.0555  -25.4352   18.5054 C   0  0  0  0  0  0  0  0  0  0  0  0
  -23.5939  -27.6390   19.4449 C   0  0  0  0  0  0  0  0  0  0  0  0
  -26.0169  -10.9541   20.1833 C   0  0  0  0  0  0  0  0  0  0  0  0
  -24.9996  -13.0263   19.4704 C   0  0  0  0  0  0  0  0  0  0  0  0
  -22.6046  -26.8499   20.0299 C   0  0  0  0  0  0  0  0  0  0  0  0
  -22.9807  -10.4667   21.5862 C   0  0  0  0  0  0  0  0  0  0  0  0
  -22.5106   -9.5373   22.5140 C   0  0  0  0  0  0  0  0  0  0  0  0
  -23.1157  -27.8143   22.1811 C   0  0  0  0  0  0  0  0  0  0  0  0
  -22.6885   -7.7906   20.8543 C   0  0  0  0  0  0  0  0  0  0  0  0
  -27.2729  -13.0153   20.2881 C   0  0  0  0  0  0  0  0  0  0  0  0
  -29.5793  -13.9637   19.7506 C   0  0  0  0  0  0  0  0  0  0  0  0
  -30.1725  -26.3902   17.8028 C   0  0  0  0  0  0  0  0  0  0  0  0
  -24.3603  -28.5153   20.2267 C   0  0  0  0  0  0  0  0  0  0  0  0
  -29.1260  -26.3143   18.7417 C   0  0  0  0  0  0  0  0  0  0  0  0
  -24.1125  -28.6154   21.6032 C   0  0  0  0  0  0  0  0  0  0  0  0
  -24.9200  -11.6485   19.6731 C   0  0  0  0  0  0  0  0  0  0  0  0
  -22.3673  -26.9353   21.3986 C   0  0  0  0  0  0  0  0  0  0  0  0
  -23.3046  -10.0581   20.2924 C   0  0  0  0  0  0  0  0  0  0  0  0
  -22.3645   -8.1993   22.1480 C   0  0  0  0  0  0  0  0  0  0  0  0
  -23.1586   -8.7201   19.9265 C   0  0  0  0  0  0  0  0  0  0  0  0
  -28.4877  -13.7218   20.6060 C   0  0  0  0  0  0  0  0  0  0  0  0
  -30.4709  -14.6679   20.5223 C   0  0  0  0  0  0  0  0  0  0  0  0
  -29.7701  -13.5857   18.3808 C   0  0  0  0  0  0  0  0  0  0  0  0
  -27.4501  -28.7803   20.9242 C   0  0  0  0  0  0  0  0  0  0  0  0
  -26.4862  -31.5099   22.3880 C   0  0  0  0  0  0  0  0  0  0  0  0
  -23.9608  -33.2724   23.8587 C   0  0  0  0  0  0  0  0  0  0  0  0
  -29.8213  -18.1633   25.3400 C   0  0  0  0  0  0  0  0  0  0  0  0
  -31.3715  -27.2787   18.0214 C   0  0  0  0  0  0  0  0  0  0  0  0
  -25.4056  -29.3793   19.5762 C   0  0  0  0  0  0  0  0  0  0  0  0
  -24.8938  -29.5552   22.4834 C   0  0  0  0  0  0  0  0  0  0  0  0
  -31.1419  -28.3646   19.0695 C   0  0  0  0  0  0  0  0  0  0  0  0
  -31.8467  -15.2478   25.0678 C   0  0  0  0  0  0  0  0  0  0  0  0
  -30.4831  -27.7756   20.3129 C   0  0  0  0  0  0  0  0  0  0  0  0
  -31.3140  -14.5479   23.8163 C   0  0  0  0  0  0  0  0  0  0  0  0
  -30.7259  -15.9167   25.8605 C   0  0  0  0  0  0  0  0  0  0  0  0
  -29.3492  -16.1411   23.8288 C   0  0  0  0  0  0  0  0  0  0  0  0
  -26.2655  -22.3391   26.5382 C   0  0  0  0  0  0  0  0  0  0  0  0
  -26.3720  -20.0355   24.8028 C   0  0  0  0  0  0  0  0  0  0  0  0
  -29.1083  -27.1831   19.9806 C   0  0  1  0  0  0  0  0  0  0  0  0
  -26.4747  -29.8609   20.5521 C   0  0  1  0  0  0  0  0  0  0  0  0
  -30.4497  -15.4991   22.9668 C   0  0  2  0  0  0  0  0  0  0  0  0
  -27.6019  -20.6039   25.5115 C   0  0  1  0  0  0  0  0  0  0  0  0
  -24.9936  -21.8271   25.8604 C   0  0  2  0  0  0  0  0  0  0  0  0
  -23.4862  -35.4596   24.9936 C   0  0  0  0  0  0  0  0  0  0  0  0
  -20.4665  -26.3436   24.1702 C   0  0  0  0  0  0  0  0  0  0  0  0
  -27.8754  -30.4999   24.9098 C   0  0  0  0  0  0  0  0  0  0  0  0
  -26.5903  -32.2054   26.2168 C   0  0  0  0  0  0  0  0  0  0  0  0
  -28.1916  -32.9377   24.4498 C   0  0  0  0  0  0  0  0  0  0  0  0
  -21.9744  -34.0404   21.8036 C   0  0  0  0  0  0  0  0  0  0  0  0
  -28.8573  -20.3525   24.6787 C   0  0  0  0  0  0  0  0  0  0  0  0
  -23.7592  -22.0336   26.7255 C   0  0  0  0  0  0  0  0  0  0  0  0
  -22.4650  -21.5413   26.0732 C   0  0  0  0  0  0  0  0  0  0  0  0
  -22.1281  -22.1604   24.7132 C   0  0  0  0  0  0  0  0  0  0  0  0
  -21.9827  -23.6837   24.7564 C   0  0  0  0  0  0  0  0  0  0  0  0
  -21.6833  -24.2484   23.3663 C   0  0  0  0  0  0  0  0  0  0  0  0
  -26.0034  -31.8671   23.7730 C   0  0  1  0  0  0  0  0  0  0  0  0
  -23.4911  -34.7041   23.6738 C   0  0  2  0  0  0  0  0  0  0  0  0
  -21.6040  -25.7774   23.3306 C   0  0  1  0  0  0  0  0  0  1  0  0
  -27.1516  -31.8583   24.8214 C   0  0  0  0  0  0  0  0  0  0  0  0
  -28.6674  -14.2309   21.8277 N   0  0  0  0  0  0  0  0  0  0  0  0
  -29.8823  -14.7996   21.7456 N   0  0  0  0  0  0  0  0  0  0  0  0
  -27.4619  -22.0494   25.7417 N   0  0  0  0  0  0  0  0  0  0  0  0
  -25.9093  -30.3745   21.8015 N   0  0  0  0  0  0  0  0  0  0  0  0
  -29.9453  -16.8067   24.9976 N   0  0  0  0  0  0  0  0  0  0  0  0
  -31.6932  -15.1810   20.2671 N   0  0  0  0  0  0  0  0  0  0  0  0
  -28.7539  -12.8650   17.7387 N   0  0  0  0  0  0  0  0  0  0  0  0
  -28.1234  -28.2351   19.8476 N   0  0  0  0  0  0  0  0  0  0  0  0
  -25.3179  -33.1489   23.6484 N   0  0  0  0  0  0  0  0  0  0  0  0
  -29.0700  -18.9383   24.4650 N   0  0  0  0  0  0  0  0  0  0  0  0
  -25.1550  -20.3566   25.6088 N   0  3  0  0  0  0  0  0  0  0  0  0
  -22.1104  -34.7280   23.1135 N   0  3  0  0  0  0  0  0  0  0  0  0
  -30.8180  -13.8640   17.7499 O   0  0  0  0  0  0  0  0  0  0  0  0
  -27.5832  -28.4656   22.1010 O   0  0  0  0  0  0  0  0  0  0  0  0
  -27.3383  -32.2164   21.8436 O   0  0  0  0  0  0  0  0  0  0  0  0
  -23.2005  -32.3560   24.1631 O   0  0  0  0  0  0  0  0  0  0  0  0
  -30.3460  -18.6491   26.3478 O   0  0  0  0  0  0  0  0  0  0  0  0
  -23.7720  -10.9819   19.3727 O   0  0  0  0  0  0  0  0  0  0  0  0
  -21.4027  -26.1657   21.9723 O   0  0  0  0  0  0  0  0  0  1  0  0
  -21.9145   -7.3066   23.0395 F   0  0  0  0  0  0  0  0  0  0  0  0
  -23.4693   -8.3213   18.6854 F   0  0  0  0  0  0  0  0  0  0  0  0
  1  2  1  0  0  0  0
  1  5  2  0  0  0  0
  2  6  2  0  0  0  0
  3  8  2  0  0  0  0
  3 15  1  0  0  0  0
  4  9  1  0  0  0  0
  4 15  2  0  0  0  0
  5 17  1  0  0  0  0
  6 19  1  0  0  0  0
  7 10  2  0  0  0  0
  7 18  1  0  0  0  0
  8 21  1  0  0  0  0
  9 21  2  0  0  0  0
 10 22  1  0  0  0  0
 11 12  2  0  0  0  0
 11 23  1  0  0  0  0
 12 24  1  0  0  0  0
 13 20  1  0  0  0  0
 13 22  2  0  0  0  0
 14 24  2  0  0  0  0
 14 25  1  0  0  0  0
 15 26  1  0  0  0  0
 16 26  1  0  0  0  0
 16 27  2  0  0  0  0
 16 28  1  0  0  0  0
 17 19  2  0  0  0  0
 17 33  1  0  0  0  0
 18 20  2  0  0  0  0
 18 34  1  0  0  0  0
 19 44  1  0  0  0  0
 20 35  1  0  0  0  0
 21 82  1  0  0  0  0
 22 83  1  0  0  0  0
 23 25  2  0  0  0  0
 23 82  1  0  0  0  0
 24 84  1  0  0  0  0
 25 85  1  0  0  0  0
 26 65  2  0  0  0  0
 27 66  1  0  0  0  0
 27 70  1  0  0  0  0
 28 71  1  0  0  0  0
 28 77  2  0  0  0  0
 29 45  1  0  0  0  0
 29 72  1  0  0  0  0
 29 78  2  0  0  0  0
 30 61  1  0  0  0  0
 30 68  1  0  0  0  0
 30 79  2  0  0  0  0
 31 62  1  0  0  0  0
 31 73  1  0  0  0  0
 31 80  2  0  0  0  0
 32 69  1  0  0  0  0
 32 74  1  0  0  0  0
 32 81  2  0  0  0  0
 33 36  1  0  0  0  0
 34 45  1  0  0  0  0
 35 68  1  0  0  0  0
 36 38  1  0  0  0  0
 37 39  1  0  0  0  0
 37 40  1  0  0  0  0
 38 44  1  0  0  0  0
 39 46  1  0  0  0  0
 40 69  1  0  0  0  0
 41 46  1  0  0  0  0
 41 69  1  0  0  0  0
 42 48  1  0  0  0  0
 42 67  1  0  0  0  0
 43 47  1  0  0  0  0
 43 75  1  0  0  0  0
 44 72  1  0  0  0  0
 45 68  1  0  0  0  0
 46 66  1  0  0  0  0
 47 55  1  0  0  0  0
 47 67  1  0  0  0  0
 48 56  1  0  0  0  0
 48 75  1  0  0  0  0
 49 62  1  0  0  0  0
 50 63  1  0  0  0  0
 51 64  1  0  0  0  0
 52 64  1  0  0  0  0
 53 64  1  0  0  0  0
 54 76  1  0  0  0  0
 55 74  1  0  0  0  0
 56 57  1  0  0  0  0
 57 58  1  0  0  0  0
 58 59  1  0  0  0  0
 59 60  1  0  0  0  0
 60 63  1  0  0  0  0
 61 64  1  0  0  0  0
 61 73  1  0  0  0  0
 62 76  1  0  0  0  0
 63 83  1  0  0  0  0
 65 66  1  0  0  0  0
M  CHG  2  75   1  76   1
M  ISO  4  32 100  63 101  74 100  83 101
M  END
> <Batch ID>
0120

> <Smiles>
CNC(C)C(=O)NC(C(=O)N1Cc2cc([101O:1][101CH:1](C)CCCCCC3CNC(C[100NH:0][100C:0](=O)N4CCCC(n5nc(-c6ccc(Oc7ccc(F)cc7F)cc6)c(C(N)=O)c5N)C4)CN3)ccc2CC1C(=O)NC1CCCc2ccccc21)C(C)(C)C

> <Shape>
0.273

> <Color>
0.072

> <Negative vol penalty>
0.000

$$$$

  -OEChem-04052320233D

 89 98  0     1  0  0  0  0  0999 V2000
  -21.8980  -26.5497   28.0330 C   0  0  0  0  0  0  0  0  0  0  0  0
  -22.7158  -25.4256   28.0861 C   0  0  0  0  0  0  0  0  0  0  0  0
  -23.1757   -9.8688   19.9020 C   0  0  0  0  0  0  0  0  0  0  0  0
  -23.6421   -9.9398   22.2715 C   0  0  0  0  0  0  0  0  0  0  0  0
  -21.6072  -27.1414   26.8044 C   0  0  0  0  0  0  0  0  0  0  0  0
  -23.2426  -24.8918   26.9104 C   0  0  0  0  0  0  0  0  0  0  0  0
  -29.0489  -21.5118   24.4248 C   0  0  0  0  0  0  0  0  0  0  0  0
  -22.3781   -8.7405   20.0928 C   0  0  0  0  0  0  0  0  0  0  0  0
  -22.8445   -8.8115   22.4623 C   0  0  0  0  0  0  0  0  0  0  0  0
  -29.4062  -20.3737   23.7031 C   0  0  0  0  0  0  0  0  0  0  0  0
  -19.5475   -8.1015   22.6781 C   0  0  0  0  0  0  0  0  0  0  0  0
  -18.6491   -8.1177   23.7449 C   0  0  0  0  0  0  0  0  0  0  0  0
  -28.9003  -21.5268   21.6456 C   0  0  0  0  0  0  0  0  0  0  0  0
  -19.7402   -6.1820   24.6933 C   0  0  0  0  0  0  0  0  0  0  0  0
  -23.8077  -10.4685   20.9913 C   0  0  0  0  0  0  0  0  0  0  0  0
  -24.2242  -12.9804   20.8350 C   0  0  0  0  0  0  0  0  0  0  0  0
  -22.1385  -26.6204   25.6141 C   0  0  0  0  0  0  0  0  0  0  0  0
  -28.6034  -22.6643   23.7617 C   0  0  0  0  0  0  0  0  0  0  0  0
  -22.9576  -25.4764   25.6647 C   0  0  0  0  0  0  0  0  0  0  0  0
  -28.5403  -22.6791   22.3610 C   0  0  0  0  0  0  0  0  0  0  0  0
  -22.2125   -8.2119   21.3729 C   0  0  0  0  0  0  0  0  0  0  0  0
  -29.3292  -20.3801   22.3135 C   0  0  0  0  0  0  0  0  0  0  0  0
  -20.5423   -7.1254   22.6189 C   0  0  0  0  0  0  0  0  0  0  0  0
  -18.7454   -7.1580   24.7525 C   0  0  0  0  0  0  0  0  0  0  0  0
  -20.6386   -6.1657   23.6265 C   0  0  0  0  0  0  0  0  0  0  0  0
  -24.6322  -11.6336   20.7948 C   0  0  0  0  0  0  0  0  0  0  0  0
  -25.3714  -13.6942   20.5886 C   0  0  0  0  0  0  0  0  0  0  0  0
  -22.9244  -13.5364   21.0737 C   0  0  0  0  0  0  0  0  0  0  0  0
  -25.9016  -24.3387   23.7434 C   0  0  0  0  0  0  0  0  0  0  0  0
  -27.6247  -26.3617   21.8831 C   0  0  0  0  0  0  0  0  0  0  0  0
  -30.2520  -26.8092   19.7514 C   0  0  0  0  0  0  0  0  0  0  0  0
  -29.8691  -14.4556   17.4995 C   0  0  0  0  0  0  0  0  0  0  0  0
  -21.7577  -27.2662   24.3054 C   0  0  0  0  0  0  0  0  0  0  0  0
  -28.2471  -23.8927   24.5532 C   0  0  0  0  0  0  0  0  0  0  0  0
  -28.0878  -23.8977   21.6004 C   0  0  0  0  0  0  0  0  0  0  0  0
  -22.6594  -26.8622   23.1418 C   0  0  0  0  0  0  0  0  0  0  0  0
  -30.1972  -12.2460   20.4360 C   0  0  0  0  0  0  0  0  0  0  0  0
  -22.8717  -25.3517   23.1304 C   0  0  0  0  0  0  0  0  0  0  0  0
  -32.8908  -16.7691   24.0795 C   0  0  0  0  0  0  0  0  0  0  0  0
  -33.6921  -15.6185   23.5374 C   0  0  0  0  0  0  0  0  0  0  0  0
  -28.7322  -11.9625   20.7549 C   0  0  0  0  0  0  0  0  0  0  0  0
  -33.2725  -17.6007   16.1903 C   0  0  0  0  0  0  0  0  0  0  0  0
  -32.1011  -17.1094   18.3533 C   0  0  0  0  0  0  0  0  0  0  0  0
  -30.4369  -12.4059   18.9353 C   0  0  0  0  0  0  0  0  0  0  0  0
  -28.0925  -13.1458   18.6181 C   0  0  0  0  0  0  0  0  0  0  0  0
  -34.2426  -18.5092   16.9277 C   0  0  0  0  0  0  0  0  0  0  0  0
  -23.5680  -24.8828   24.4136 C   0  0  1  0  0  0  0  0  0  0  0  0
  -27.3171  -24.8394   23.8008 C   0  0  1  0  0  0  0  0  0  0  0  0
  -33.2261  -16.7105   22.6149 C   0  0  0  0  0  0  0  0  0  0  0  0
  -32.7383  -16.4962   17.1032 C   0  0  1  0  0  0  0  0  0  0  0  0
  -27.8238  -13.0303   20.1264 C   0  0  1  0  0  0  0  0  0  0  0  0
  -33.0670  -18.0345   19.1062 C   0  0  2  0  0  0  0  0  0  0  0  0
  -31.3854  -28.5660   18.3633 C   0  0  0  0  0  0  0  0  0  0  0  0
  -33.0162  -22.0918   18.1232 C   0  0  0  0  0  0  0  0  0  0  0  0
  -35.4400  -22.4772   18.6570 C   0  0  0  0  0  0  0  0  0  0  0  0
  -25.3828  -26.1759   19.8217 C   0  0  0  0  0  0  0  0  0  0  0  0
  -26.9553  -27.1376   18.1275 C   0  0  0  0  0  0  0  0  0  0  0  0
  -26.3218  -28.4721   20.1375 C   0  0  0  0  0  0  0  0  0  0  0  0
  -32.7892  -26.5195   21.2473 C   0  0  0  0  0  0  0  0  0  0  0  0
  -32.1524  -16.4377   21.6042 C   0  0  0  0  0  0  0  0  0  0  0  0
  -31.7364  -15.6154   16.3592 C   0  0  0  0  0  0  0  0  0  0  0  0
  -32.3543  -18.6661   20.2940 C   0  0  0  0  0  0  0  0  0  0  0  0
  -34.4842  -20.1211   18.7902 C   0  0  0  0  0  0  0  0  0  0  0  0
  -30.6750  -18.4241   22.1758 C   0  0  0  0  0  0  0  0  0  1  0  0
  -27.8782  -26.4972   20.4010 C   0  0  1  0  0  0  0  0  0  0  0  0
  -31.3475  -27.8593   19.7094 C   0  0  2  0  0  0  0  0  0  0  0  0
  -34.4202  -21.4856   18.0946 C   0  0  0  0  0  0  0  0  0  0  0  0
  -31.4353  -17.6892   21.0599 C   0  0  2  0  0  0  0  0  0  0  0  0
  -26.6412  -27.0469   19.6361 C   0  0  0  0  0  0  0  0  0  0  0  0
  -25.9368  -11.4974   20.5426 N   0  0  0  0  0  0  0  0  0  0  0  0
  -26.3584  -12.7678   20.4220 N   0  0  0  0  0  0  0  0  0  0  0  0
  -27.7442  -25.0718   22.4195 N   0  0  0  0  0  0  0  0  0  0  0  0
  -29.5141  -13.3860   18.3412 N   0  0  0  0  0  0  0  0  0  0  0  0
  -25.6222  -15.0178   20.5003 N   0  0  0  0  0  0  0  0  0  0  0  0
  -21.8560  -12.6604   21.3095 N   0  0  0  0  0  0  0  0  0  0  0  0
  -24.9848  -25.1725   24.3547 N   0  0  0  0  0  0  0  0  0  0  0  0
  -29.0775  -27.3168   20.2653 N   0  0  0  0  0  0  0  0  0  0  0  0
  -31.2238  -14.5752   17.2105 N   0  0  0  0  0  0  0  0  0  0  0  0
  -33.5681  -19.1091   18.1452 N   0  3  1  0  0  0  0  0  0  0  0  0
  -32.6774  -27.2303   19.9475 N   0  3  0  0  0  0  0  0  0  0  0  0
  -22.7133  -14.7728   21.0616 O   0  0  0  0  0  0  0  0  0  0  0  0
  -25.6590  -23.2755   23.1845 O   0  0  0  0  0  0  0  0  0  0  0  0
  -27.3386  -27.3646   22.5418 O   0  0  0  0  0  0  0  0  0  0  0  0
  -30.4203  -25.6552   19.3635 O   0  0  0  0  0  0  0  0  0  0  0  0
  -29.0400  -15.2449   17.0334 O   0  0  0  0  0  0  0  0  0  0  0  0
  -21.4340   -7.1111   21.5595 O   0  0  0  0  0  0  0  0  0  0  0  0
  -29.6768  -19.2703   21.6067 O   0  0  0  0  0  0  0  0  0  1  0  0
  -17.8835   -7.1747   25.7777 F   0  0  0  0  0  0  0  0  0  0  0  0
  -21.5929   -5.2262   23.5756 F   0  0  0  0  0  0  0  0  0  0  0  0
  1  2  1  0  0  0  0
  1  5  2  0  0  0  0
  2  6  2  0  0  0  0
  3  8  2  0  0  0  0
  3 15  1  0  0  0  0
  4  9  1  0  0  0  0
  4 15  2  0  0  0  0
  5 17  1  0  0  0  0
  6 19  1  0  0  0  0
  7 10  2  0  0  0  0
  7 18  1  0  0  0  0
  8 21  1  0  0  0  0
  9 21  2  0  0  0  0
 10 22  1  0  0  0  0
 11 12  2  0  0  0  0
 11 23  1  0  0  0  0
 12 24  1  0  0  0  0
 13 20  1  0  0  0  0
 13 22  2  0  0  0  0
 14 24  2  0  0  0  0
 14 25  1  0  0  0  0
 15 26  1  0  0  0  0
 16 26  1  0  0  0  0
 16 27  2  0  0  0  0
 16 28  1  0  0  0  0
 17 19  2  0  0  0  0
 17 33  1  0  0  0  0
 18 20  2  0  0  0  0
 18 34  1  0  0  0  0
 19 47  1  0  0  0  0
 20 35  1  0  0  0  0
 21 86  1  0  0  0  0
 22 87  1  0  0  0  0
 23 25  2  0  0  0  0
 23 86  1  0  0  0  0
 24 88  1  0  0  0  0
 25 89  1  0  0  0  0
 26 70  2  0  0  0  0
 27 71  1  0  0  0  0
 27 74  1  0  0  0  0
 28 75  1  0  0  0  0
 28 81  2  0  0  0  0
 29 48  1  0  0  0  0
 29 76  1  0  0  0  0
 29 82  2  0  0  0  0
 30 65  1  0  0  0  0
 30 72  1  0  0  0  0
 30 83  2  0  0  0  0
 31 66  1  0  0  0  0
 31 77  1  0  0  0  0
 31 84  2  0  0  0  0
 32 73  1  0  0  0  0
 32 78  1  0  0  0  0
 32 85  2  0  0  0  0
 33 36  1  0  0  0  0
 34 48  1  0  0  0  0
 35 72  1  0  0  0  0
 36 38  1  0  0  0  0
 37 41  1  0  0  0  0
 37 44  1  0  0  0  0
 38 47  1  0  0  0  0
 39 40  1  0  0  0  0
 39 49  1  0  0  0  0
 40 49  1  0  0  0  0
 41 51  1  0  0  0  0
 42 46  1  0  0  0  0
 42 50  1  0  0  0  0
 43 50  1  0  0  0  0
 43 52  1  0  0  0  0
 44 73  1  0  0  0  0
 45 51  1  0  0  0  0
 45 73  1  0  0  0  0
 46 79  1  0  0  0  0
 47 76  1  0  0  0  0
 48 72  1  0  0  0  0
 49 60  1  0  0  0  0
 50 61  1  0  0  0  0
 51 71  1  0  0  0  0
 52 62  1  0  0  0  0
 52 79  1  0  0  0  0
 53 66  1  0  0  0  0
 54 67  1  0  0  0  0
 55 67  1  0  0  0  0
 56 69  1  0  0  0  0
 57 69  1  0  0  0  0
 58 69  1  0  0  0  0
 59 80  1  0  0  0  0
 60 68  1  0  0  0  0
 61 78  1  0  0  0  0
 62 68  1  0  0  0  0
 63 67  1  0  0  0  0
 63 79  1  0  0  0  0
 64 68  1  0  0  0  0
 64 87  1  0  0  0  0
 65 69  1  0  0  0  0
 65 77  1  0  0  0  0
 66 80  1  0  0  0  0
 70 71  1  0  0  0  0
M  CHG  2  79   1  80   1
M  ISO  4  32 100  64 101  78 100  87 101
M  END
> <Batch ID>
0120

> <Smiles>
CNC(C)C(=O)NC(C(=O)N1Cc2cc([101O:1][101CH2:1]C(CC3CC3)CC3CC(C[100NH:0][100C:0](=O)N4CCCC(n5nc(-c6ccc(Oc7ccc(F)cc7F)cc6)c(C(N)=O)c5N)C4)CCN3CC(C)C)ccc2CC1C(=O)NC1CCCc2ccccc21)C(C)(C)C

> <Shape>
0.222

> <Color>
0.181

> <Negative vol penalty>
0.000

$$$$

  -OEChem-04052320233D

 85 94  0     1  0  0  0  0  0999 V2000
  -24.3640  -24.8908   19.7167 C   0  0  0  0  0  0  0  0  0  0  0  0
  -25.4121  -25.7650   19.4473 C   0  0  0  0  0  0  0  0  0  0  0  0
  -27.4880  -14.9358   21.2856 C   0  0  0  0  0  0  0  0  0  0  0  0
  -27.2628  -14.3199   18.9603 C   0  0  0  0  0  0  0  0  0  0  0  0
  -24.6241  -23.6510   20.2991 C   0  0  0  0  0  0  0  0  0  0  0  0
  -26.7209  -25.4003   19.7612 C   0  0  0  0  0  0  0  0  0  0  0  0
  -30.4902  -20.0096   18.2987 C   0  0  0  0  0  0  0  0  0  0  0  0
  -28.4991  -15.8359   20.9493 C   0  0  0  0  0  0  0  0  0  0  0  0
  -28.2740  -15.2201   18.6240 C   0  0  0  0  0  0  0  0  0  0  0  0
  -29.4871  -19.0416   18.2811 C   0  0  0  0  0  0  0  0  0  0  0  0
  -30.8907  -18.5581   20.6578 C   0  0  0  0  0  0  0  0  0  0  0  0
  -30.8470  -19.8275   21.2342 C   0  0  0  0  0  0  0  0  0  0  0  0
  -27.9965  -20.6142   17.2209 C   0  0  0  0  0  0  0  0  0  0  0  0
  -28.6900  -20.2152   20.2172 C   0  0  0  0  0  0  0  0  0  0  0  0
  -31.0551  -12.3019   19.9303 C   0  0  0  0  0  0  0  0  0  0  0  0
  -26.8699  -14.1778   20.2910 C   0  0  0  0  0  0  0  0  0  0  0  0
  -24.4435  -13.5063   20.7029 C   0  0  0  0  0  0  0  0  0  0  0  0
  -25.9377  -23.2670   20.6114 C   0  0  0  0  0  0  0  0  0  0  0  0
  -30.2502  -21.2928   17.7865 C   0  0  0  0  0  0  0  0  0  0  0  0
  -26.9986  -24.1548   20.3495 C   0  0  0  0  0  0  0  0  0  0  0  0
  -28.9990  -21.5959   17.2308 C   0  0  0  0  0  0  0  0  0  0  0  0
  -28.8921  -15.9780   19.6185 C   0  0  0  0  0  0  0  0  0  0  0  0
  -28.2391  -19.3446   17.7447 C   0  0  0  0  0  0  0  0  0  0  0  0
  -29.8341  -18.1172   19.8609 C   0  0  0  0  0  0  0  0  0  0  0  0
  -29.7467  -20.6560   21.0140 C   0  0  0  0  0  0  0  0  0  0  0  0
  -28.7337  -18.9458   19.6407 C   0  0  0  0  0  0  0  0  0  0  0  0
  -25.8257  -13.2474   20.6379 C   0  0  0  0  0  0  0  0  0  0  0  0
  -31.1130  -13.6345   19.5767 C   0  0  0  0  0  0  0  0  0  0  0  0
  -30.0820  -11.5575   19.2954 C   0  0  0  0  0  0  0  0  0  0  0  0
  -23.8866  -12.3068   21.0737 C   0  0  0  0  0  0  0  0  0  0  0  0
  -29.3834  -13.3763   18.1245 C   0  0  0  0  0  0  0  0  0  0  0  0
  -23.7271  -14.7224   20.4507 C   0  0  0  0  0  0  0  0  0  0  0  0
  -30.2443  -24.2290   19.0040 C   0  0  0  0  0  0  0  0  0  0  0  0
  -29.8091  -25.0918   15.9075 C   0  0  0  0  0  0  0  0  0  0  0  0
  -32.8279  -25.6230   14.4070 C   0  0  0  0  0  0  0  0  0  0  0  0
  -28.4559   -9.1718   21.3652 C   0  0  0  0  0  0  0  0  0  0  0  0
  -26.1646  -21.9360   21.2835 C   0  0  0  0  0  0  0  0  0  0  0  0
  -31.3512  -22.3176   17.7887 C   0  0  0  0  0  0  0  0  0  0  0  0
  -28.6969  -22.9523   16.6499 C   0  0  0  0  0  0  0  0  0  0  0  0
  -27.6184  -21.4724   21.2414 C   0  0  0  0  0  0  0  0  0  0  0  0
  -25.4360   -8.4323   23.5217 C   0  0  0  0  0  0  0  0  0  0  0  0
  -28.5537  -22.6120   21.6330 C   0  0  0  0  0  0  0  0  0  0  0  0
  -31.7955  -15.9474   20.5036 C   0  0  0  0  0  0  0  0  0  0  0  0
  -32.7638  -15.6159   19.4114 C   0  0  0  0  0  0  0  0  0  0  0  0
  -24.8638   -9.7910   23.1305 C   0  0  0  0  0  0  0  0  0  0  0  0
  -26.8793   -8.2944   23.0389 C   0  0  0  0  0  0  0  0  0  0  0  0
  -25.9365   -9.1205   20.8946 C   0  0  0  0  0  0  0  0  0  0  0  0
  -28.4345  -23.7852   20.6528 C   0  0  1  0  0  0  0  0  0  0  0  0
  -32.1375  -14.5087   20.2178 C   0  0  0  0  0  0  0  0  0  0  0  0
  -30.8339  -23.7505   17.7075 C   0  0  1  0  0  0  0  0  0  0  0  0
  -24.8581   -9.9716   21.5974 C   0  0  2  0  0  0  0  0  0  0  0  0
  -33.4821  -23.2485   13.9262 C   0  0  0  0  0  0  0  0  0  0  0  0
  -31.0870  -28.0336   17.6341 C   0  0  0  0  0  0  0  0  0  0  0  0
  -32.5698  -26.0616   18.0591 C   0  0  0  0  0  0  0  0  0  0  0  0
  -30.1084  -25.8691   18.4161 C   0  0  0  0  0  0  0  0  0  0  0  0
  -36.3351  -25.1644   14.7338 C   0  0  0  0  0  0  0  0  0  0  0  0
  -29.9423  -10.1064   19.6126 C   0  0  0  0  0  0  0  0  0  0  0  0
  -27.3937  -16.0479   17.2146 C   0  0  0  0  0  0  0  0  0  0  0  0
  -27.5761  -17.1229   18.2744 C   0  0  0  0  0  0  0  0  0  1  0  0
  -28.6908  -15.3092   16.9244 C   0  0  0  0  0  0  0  0  0  0  0  0
  -31.0132  -25.9897   16.0584 C   0  0  1  0  0  0  0  0  0  0  0  0
  -33.9724  -24.6793   14.0847 C   0  0  2  0  0  0  0  0  0  0  0  0
  -31.1930  -26.5001   17.5160 C   0  0  0  0  0  0  0  0  0  0  0  0
  -26.1283  -11.9827   20.9430 N   0  0  0  0  0  0  0  0  0  0  0  0
  -30.2896  -14.2070   18.6742 N   0  0  0  0  0  0  0  0  0  0  0  0
  -29.2259  -12.0643   18.3840 N   0  0  0  0  0  0  0  0  0  0  0  0
  -24.9285  -11.4363   21.2034 N   0  0  0  0  0  0  0  0  0  0  0  0
  -29.8040  -23.9223   16.6809 N   0  0  0  0  0  0  0  0  0  0  0  0
  -27.1229   -8.9261   21.7387 N   0  0  0  0  0  0  0  0  0  0  0  0
  -22.6121  -11.9224   21.2982 N   0  0  0  0  0  0  0  0  0  0  0  0
  -24.4543  -15.8615   20.0793 N   0  0  0  0  0  0  0  0  0  0  0  0
  -29.1524  -23.4969   19.4297 N   0  0  0  0  0  0  0  0  0  0  0  0
  -32.1516  -25.2357   15.5445 N   0  0  0  0  0  0  0  0  0  0  0  0
  -28.6319   -9.7809   20.1294 N   0  0  0  0  0  0  0  0  0  0  0  0
  -34.9906  -24.7094   15.1725 N   0  3  0  0  0  0  0  0  0  0  0  0
  -22.4806  -14.8009   20.5676 O   0  0  0  0  0  0  0  0  0  0  0  0
  -30.7440  -25.1904   19.5766 O   0  0  0  0  0  0  0  0  0  0  0  0
  -28.9029  -25.4196   15.1374 O   0  0  0  0  0  0  0  0  0  0  0  0
  -32.5628  -26.6074   13.7207 O   0  0  0  0  0  0  0  0  0  0  0  0
  -29.4122   -8.8753   22.0897 O   0  0  0  0  0  0  0  0  0  0  0  0
  -29.8785  -16.8564   19.2900 O   0  0  0  0  0  0  0  0  0  0  0  0
  -27.2580  -18.4018   17.7269 O   0  0  0  0  0  0  0  0  0  1  0  0
  -28.5301  -13.9248   17.2027 O   0  0  0  0  0  0  0  0  0  0  0  0
  -29.7042  -21.8744   21.5689 F   0  0  0  0  0  0  0  0  0  0  0  0
  -27.7151  -18.5273   18.8771 F   0  0  0  0  0  0  0  0  0  0  0  0
  1  2  1  0  0  0  0
  1  5  2  0  0  0  0
  2  6  2  0  0  0  0
  3  8  2  0  0  0  0
  3 16  1  0  0  0  0
  4  9  1  0  0  0  0
  4 16  2  0  0  0  0
  5 18  1  0  0  0  0
  6 20  1  0  0  0  0
  7 10  2  0  0  0  0
  7 19  1  0  0  0  0
  8 22  1  0  0  0  0
  9 22  2  0  0  0  0
 10 23  1  0  0  0  0
 11 12  2  0  0  0  0
 11 24  1  0  0  0  0
 12 25  1  0  0  0  0
 13 21  1  0  0  0  0
 13 23  2  0  0  0  0
 14 25  2  0  0  0  0
 14 26  1  0  0  0  0
 15 28  2  0  0  0  0
 15 29  1  0  0  0  0
 16 27  1  0  0  0  0
 17 27  1  0  0  0  0
 17 30  2  0  0  0  0
 17 32  1  0  0  0  0
 18 20  2  0  0  0  0
 18 37  1  0  0  0  0
 19 21  2  0  0  0  0
 19 38  1  0  0  0  0
 20 48  1  0  0  0  0
 21 39  1  0  0  0  0
 22 81  1  0  0  0  0
 23 82  1  0  0  0  0
 24 26  2  0  0  0  0
 24 81  1  0  0  0  0
 25 84  1  0  0  0  0
 26 85  1  0  0  0  0
 27 64  2  0  0  0  0
 28 49  1  0  0  0  0
 28 65  1  0  0  0  0
 29 57  1  0  0  0  0
 29 66  2  0  0  0  0
 30 67  1  0  0  0  0
 30 70  1  0  0  0  0
 31 65  2  0  0  0  0
 31 66  1  0  0  0  0
 31 83  1  0  0  0  0
 32 71  1  0  0  0  0
 32 76  2  0  0  0  0
 33 50  1  0  0  0  0
 33 72  1  0  0  0  0
 33 77  2  0  0  0  0
 34 61  1  0  0  0  0
 34 68  1  0  0  0  0
 34 78  2  0  0  0  0
 35 62  1  0  0  0  0
 35 73  1  0  0  0  0
 35 79  2  0  0  0  0
 36 69  1  0  0  0  0
 36 74  1  0  0  0  0
 36 80  2  0  0  0  0
 37 40  1  0  0  0  0
 38 50  1  0  0  0  0
 39 68  1  0  0  0  0
 40 42  1  0  0  0  0
 41 45  1  0  0  0  0
 41 46  1  0  0  0  0
 42 48  1  0  0  0  0
 43 44  1  0  0  0  0
 43 49  1  0  0  0  0
 44 49  1  0  0  0  0
 45 51  1  0  0  0  0
 46 69  1  0  0  0  0
 47 51  1  0  0  0  0
 47 69  1  0  0  0  0
 48 72  1  0  0  0  0
 50 68  1  0  0  0  0
 51 67  1  0  0  0  0
 52 62  1  0  0  0  0
 53 63  1  0  0  0  0
 54 63  1  0  0  0  0
 55 63  1  0  0  0  0
 56 75  1  0  0  0  0
 57 74  1  0  0  0  0
 58 59  1  0  0  0  0
 58 60  1  0  0  0  0
 59 82  1  0  0  0  0
 60 83  1  0  0  0  0
 61 63  1  0  0  0  0
 61 73  1  0  0  0  0
 62 75  1  0  0  0  0
 64 67  1  0  0  0  0
M  CHG  1  75   1
M  ISO  4  36 100  59 101  74 100  82 101
M  END
> <Batch ID>
0120

> <Smiles>
CNC(C)C(=O)NC(C(=O)N1Cc2cc([101O:1][101CH2:1]CCOc3nc(C[100NH:0][100C:0](=O)N4CCCC(n5nc(-c6ccc(Oc7ccc(F)cc7F)cc6)c(C(N)=O)c5N)C4)cc(C4CC4)n3)ccc2CC1C(=O)NC1CCCc2ccccc21)C(C)(C)C

> <Shape>
0.244

> <Color>
0.084

> <Negative vol penalty>
0.000

$$$$

  -OEChem-04052320233D

 85 94  0     1  0  0  0  0  0999 V2000
  -32.2862  -16.7591   21.6034 C   0  0  0  0  0  0  0  0  0  0  0  0
  -31.1235  -17.2660   22.1728 C   0  0  0  0  0  0  0  0  0  0  0  0
  -30.0432  -24.6196   21.8263 C   0  0  0  0  0  0  0  0  0  0  0  0
  -30.1583  -24.7387   19.4160 C   0  0  0  0  0  0  0  0  0  0  0  0
  -32.2032  -15.8262   20.5719 C   0  0  0  0  0  0  0  0  0  0  0  0
  -29.8777  -16.8312   21.7192 C   0  0  0  0  0  0  0  0  0  0  0  0
  -24.2584  -18.6159   23.2572 C   0  0  0  0  0  0  0  0  0  0  0  0
  -30.9279  -23.5414   21.8153 C   0  0  0  0  0  0  0  0  0  0  0  0
  -31.0431  -23.6605   19.4050 C   0  0  0  0  0  0  0  0  0  0  0  0
  -23.3198  -19.5500   22.8210 C   0  0  0  0  0  0  0  0  0  0  0  0
  -33.0510  -20.7103   18.7159 C   0  0  0  0  0  0  0  0  0  0  0  0
  -32.8312  -19.7008   17.7788 C   0  0  0  0  0  0  0  0  0  0  0  0
  -22.2252  -17.8355   21.5242 C   0  0  0  0  0  0  0  0  0  0  0  0
  -19.9561  -23.3227   22.2128 C   0  0  0  0  0  0  0  0  0  0  0  0
  -30.6534  -19.2843   18.7384 C   0  0  0  0  0  0  0  0  0  0  0  0
  -18.9211  -22.6691   19.7742 C   0  0  0  0  0  0  0  0  0  0  0  0
  -29.6583  -25.2183   20.6266 C   0  0  0  0  0  0  0  0  0  0  0  0
  -29.0700  -27.6988   20.7202 C   0  0  0  0  0  0  0  0  0  0  0  0
  -30.9552  -15.3897   20.0975 C   0  0  0  0  0  0  0  0  0  0  0  0
  -24.1938  -17.2848   22.8209 C   0  0  0  0  0  0  0  0  0  0  0  0
  -29.7733  -15.8724   20.6953 C   0  0  0  0  0  0  0  0  0  0  0  0
  -23.1627  -16.8859   21.9584 C   0  0  0  0  0  0  0  0  0  0  0  0
  -18.9233  -24.0880   21.6828 C   0  0  0  0  0  0  0  0  0  0  0  0
  -18.3903  -23.7616   20.4408 C   0  0  0  0  0  0  0  0  0  0  0  0
  -31.4279  -23.0618   20.6047 C   0  0  0  0  0  0  0  0  0  0  0  0
  -22.3047  -19.1605   21.9520 C   0  0  0  0  0  0  0  0  0  0  0  0
  -32.0720  -21.0068   19.6643 C   0  0  0  0  0  0  0  0  0  0  0  0
  -31.6324  -18.9878   17.7900 C   0  0  0  0  0  0  0  0  0  0  0  0
  -30.8732  -20.2937   19.6756 C   0  0  0  0  0  0  0  0  0  0  0  0
  -28.7439  -26.3318   20.6373 C   0  0  0  0  0  0  0  0  0  0  0  0
  -20.4166  -22.2497   21.4670 C   0  0  0  0  0  0  0  0  0  0  0  0
  -27.8574  -28.3432   20.6933 C   0  0  0  0  0  0  0  0  0  0  0  0
  -30.3541  -28.3296   20.8132 C   0  0  0  0  0  0  0  0  0  0  0  0
  -26.1121  -15.3747   21.1551 C   0  0  0  0  0  0  0  0  0  0  0  0
  -23.8945  -13.1321   21.9135 C   0  0  0  0  0  0  0  0  0  0  0  0
  -20.6781  -12.4248   22.8085 C   0  0  0  0  0  0  0  0  0  0  0  0
  -22.6120  -27.9383   22.5350 C   0  0  0  0  0  0  0  0  0  0  0  0
  -30.9235  -14.3726   18.9840 C   0  0  0  0  0  0  0  0  0  0  0  0
  -25.1981  -16.2834   23.3218 C   0  0  0  0  0  0  0  0  0  0  0  0
  -23.0372  -15.4644   21.4766 C   0  0  0  0  0  0  0  0  0  0  0  0
  -29.5742  -14.3084   18.2758 C   0  0  0  0  0  0  0  0  0  0  0  0
  -19.0949  -29.0651   22.2411 C   0  0  0  0  0  0  0  0  0  0  0  0
  -23.3076  -27.1677   19.1803 C   0  0  0  0  0  0  0  0  0  0  0  0
  -28.4547  -14.1942   19.2996 C   0  0  0  0  0  0  0  0  0  0  0  0
  -18.3165  -27.7766   22.4947 C   0  0  0  0  0  0  0  0  0  0  0  0
  -24.8268  -27.0043   19.2148 C   0  0  0  0  0  0  0  0  0  0  0  0
  -20.4493  -29.0544   22.9415 C   0  0  0  0  0  0  0  0  0  0  0  0
  -22.6375  -26.5560   20.4117 C   0  0  0  0  0  0  0  0  0  0  0  0
  -20.5055  -26.5827   22.8540 C   0  0  0  0  0  0  0  0  0  0  0  0
  -24.7033  -26.8804   21.7323 C   0  0  0  0  0  0  0  0  0  0  0  0
  -28.4069  -15.4371   20.1974 C   0  0  1  0  0  0  0  0  0  0  0  0
  -25.3396  -15.0705   22.4074 C   0  0  1  0  0  0  0  0  0  0  0  0
  -19.1548  -26.5439   22.1311 C   0  0  1  0  0  0  0  0  0  0  0  0
  -25.4098  -27.5369   20.5360 C   0  0  1  0  0  0  0  0  0  0  0  0
  -17.2843  -24.5475   19.8266 C   0  0  0  0  0  0  0  0  0  0  0  0
  -19.1541  -10.4978   23.3201 C   0  0  0  0  0  0  0  0  0  0  0  0
  -23.6953  -12.5019   18.9348 C   0  0  0  0  0  0  0  0  0  0  0  0
  -21.5484  -11.3021   19.4033 C   0  0  0  0  0  0  0  0  0  0  0  0
  -23.6748  -10.4966   20.4290 C   0  0  0  0  0  0  0  0  0  0  0  0
  -20.1914  -13.3906   25.5634 C   0  0  0  0  0  0  0  0  0  0  0  0
  -18.4003  -25.2595   22.4676 C   0  0  0  0  0  0  0  0  0  0  0  0
  -21.5243  -21.4064   22.0045 C   0  0  0  0  0  0  0  0  0  1  0  0
  -22.6198  -12.6314   21.2784 C   0  0  1  0  0  0  0  0  0  0  0  0
  -20.1082  -11.5324   23.8964 C   0  0  2  0  0  0  0  0  0  0  0  0
  -22.8878  -11.7603   20.0187 C   0  0  0  0  0  0  0  0  0  0  0  0
  -19.9240  -21.9019   20.2570 N   0  0  0  0  0  0  0  0  0  0  0  0
  -27.4273  -26.1193   20.5634 N   0  0  0  0  0  0  0  0  0  0  0  0
  -26.9154  -27.3614   20.5999 N   0  0  0  0  0  0  0  0  0  0  0  0
  -24.0470  -14.5238   21.9895 N   0  0  0  0  0  0  0  0  0  0  0  0
  -21.2121  -27.8499   22.6151 N   0  0  0  0  0  0  0  0  0  0  0  0
  -23.2530  -27.0631   21.6453 N   0  0  0  0  0  0  0  0  0  0  0  0
  -27.5156  -29.6484   20.7408 N   0  0  0  0  0  0  0  0  0  0  0  0
  -31.4973  -27.5188   20.8284 N   0  0  0  0  0  0  0  0  0  0  0  0
  -27.4774  -15.2018   21.2802 N   0  0  0  0  0  0  0  0  0  0  0  0
  -21.8803  -11.9458   22.3327 N   0  0  0  0  0  0  0  0  0  0  0  0
  -19.3672  -12.3477   24.8999 N   0  3  0  0  0  0  0  0  0  0  0  0
  -30.4833  -29.5745   20.8972 O   0  0  0  0  0  0  0  0  0  0  0  0
  -25.5137  -15.7379   20.1493 O   0  0  0  0  0  0  0  0  0  0  0  0
  -24.7211  -12.3184   22.3334 O   0  0  0  0  0  0  0  0  0  0  0  0
  -20.1114  -13.4427   22.4172 O   0  0  0  0  0  0  0  0  0  0  0  0
  -23.2489  -28.7525   23.2151 O   0  0  0  0  0  0  0  0  0  0  0  0
  -32.2915  -22.0098   20.5935 O   0  0  0  0  0  0  0  0  0  0  0  0
  -21.3812  -20.0767   21.5212 O   0  0  0  0  0  0  0  0  0  1  0  0
  -31.4208  -18.0195   16.8891 F   0  0  0  0  0  0  0  0  0  0  0  0
  -29.9286  -20.5748   20.5835 F   0  0  0  0  0  0  0  0  0  0  0  0
  1  2  1  0  0  0  0
  1  5  2  0  0  0  0
  2  6  2  0  0  0  0
  3  8  2  0  0  0  0
  3 17  1  0  0  0  0
  4  9  1  0  0  0  0
  4 17  2  0  0  0  0
  5 19  1  0  0  0  0
  6 21  1  0  0  0  0
  7 10  2  0  0  0  0
  7 20  1  0  0  0  0
  8 25  1  0  0  0  0
  9 25  2  0  0  0  0
 10 26  1  0  0  0  0
 11 12  2  0  0  0  0
 11 27  1  0  0  0  0
 12 28  1  0  0  0  0
 13 22  1  0  0  0  0
 13 26  2  0  0  0  0
 14 23  2  0  0  0  0
 14 31  1  0  0  0  0
 15 28  2  0  0  0  0
 15 29  1  0  0  0  0
 16 24  2  0  0  0  0
 16 66  1  0  0  0  0
 17 30  1  0  0  0  0
 18 30  1  0  0  0  0
 18 32  2  0  0  0  0
 18 33  1  0  0  0  0
 19 21  2  0  0  0  0
 19 38  1  0  0  0  0
 20 22  2  0  0  0  0
 20 39  1  0  0  0  0
 21 51  1  0  0  0  0
 22 40  1  0  0  0  0
 23 24  1  0  0  0  0
 23 61  1  0  0  0  0
 24 55  1  0  0  0  0
 25 82  1  0  0  0  0
 26 83  1  0  0  0  0
 27 29  2  0  0  0  0
 27 82  1  0  0  0  0
 28 84  1  0  0  0  0
 29 85  1  0  0  0  0
 30 67  2  0  0  0  0
 31 62  1  0  0  0  0
 31 66  2  0  0  0  0
 32 68  1  0  0  0  0
 32 72  1  0  0  0  0
 33 73  1  0  0  0  0
 33 77  2  0  0  0  0
 34 52  1  0  0  0  0
 34 74  1  0  0  0  0
 34 78  2  0  0  0  0
 35 63  1  0  0  0  0
 35 69  1  0  0  0  0
 35 79  2  0  0  0  0
 36 64  1  0  0  0  0
 36 75  1  0  0  0  0
 36 80  2  0  0  0  0
 37 70  1  0  0  0  0
 37 71  1  0  0  0  0
 37 81  2  0  0  0  0
 38 41  1  0  0  0  0
 39 52  1  0  0  0  0
 40 69  1  0  0  0  0
 41 44  1  0  0  0  0
 42 45  1  0  0  0  0
 42 47  1  0  0  0  0
 43 46  1  0  0  0  0
 43 48  1  0  0  0  0
 44 51  1  0  0  0  0
 45 53  1  0  0  0  0
 46 54  1  0  0  0  0
 47 70  1  0  0  0  0
 48 71  1  0  0  0  0
 49 53  1  0  0  0  0
 49 70  1  0  0  0  0
 50 54  1  0  0  0  0
 50 71  1  0  0  0  0
 51 74  1  0  0  0  0
 52 69  1  0  0  0  0
 53 61  1  0  0  0  0
 54 68  1  0  0  0  0
 56 64  1  0  0  0  0
 57 65  1  0  0  0  0
 58 65  1  0  0  0  0
 59 65  1  0  0  0  0
 60 76  1  0  0  0  0
 62 83  1  0  0  0  0
 63 65  1  0  0  0  0
 63 75  1  0  0  0  0
 64 76  1  0  0  0  0
 67 68  1  0  0  0  0
M  CHG  1  76   1
M  ISO  4  37 100  62 101  70 100  83 101
M  END
> <Batch ID>
0120

> <Smiles>
CNC(C)C(=O)NC(C(=O)N1Cc2cc([101O:1][101CH2:1]c3cc(CC4CCC[100N:0]([100C:0](=O)N5CCCC(n6nc(-c7ccc(Oc8ccc(F)cc8F)cc7)c(C(N)=O)c6N)C5)C4)c(C)cn3)ccc2CC1C(=O)NC1CCCc2ccccc21)C(C)(C)C

> <Shape>
0.221

> <Color>
0.059

> <Negative vol penalty>
0.000

$$$$

  -OEChem-04052320233D

 86 94  0     1  0  0  0  0  0999 V2000
  -21.2767  -14.9027   14.7008 C   0  0  0  0  0  0  0  0  0  0  0  0
  -22.1280  -15.9097   15.1442 C   0  0  0  0  0  0  0  0  0  0  0  0
  -22.9899  -26.2503   22.9262 C   0  0  0  0  0  0  0  0  0  0  0  0
  -22.5401  -28.0406   21.3675 C   0  0  0  0  0  0  0  0  0  0  0  0
  -21.0018  -13.8113   15.5237 C   0  0  0  0  0  0  0  0  0  0  0  0
  -22.7042  -15.8263   16.4113 C   0  0  0  0  0  0  0  0  0  0  0  0
  -28.2791  -17.7564   18.0547 C   0  0  0  0  0  0  0  0  0  0  0  0
  -21.6351  -26.1945   23.2532 C   0  0  0  0  0  0  0  0  0  0  0  0
  -21.1852  -27.9848   21.6944 C   0  0  0  0  0  0  0  0  0  0  0  0
  -28.7212  -18.9181   18.6862 C   0  0  0  0  0  0  0  0  0  0  0  0
  -19.1802  -29.0564   24.1969 C   0  0  0  0  0  0  0  0  0  0  0  0
  -18.5177  -30.2630   24.4221 C   0  0  0  0  0  0  0  0  0  0  0  0
  -28.6928  -17.7690   20.8070 C   0  0  0  0  0  0  0  0  0  0  0  0
  -16.9993  -29.7677   22.6093 C   0  0  0  0  0  0  0  0  0  0  0  0
  -23.4425  -27.1733   21.9834 C   0  0  0  0  0  0  0  0  0  0  0  0
  -25.5021  -26.5140   20.6304 C   0  0  0  0  0  0  0  0  0  0  0  0
  -21.5825  -13.7097   16.7978 C   0  0  0  0  0  0  0  0  0  0  0  0
  -28.0297  -16.5934   18.7975 C   0  0  0  0  0  0  0  0  0  0  0  0
  -22.4358  -14.7332   17.2526 C   0  0  0  0  0  0  0  0  0  0  0  0
  -28.2501  -16.5931   20.1822 C   0  0  0  0  0  0  0  0  0  0  0  0
  -20.7328  -27.0618   22.6373 C   0  0  0  0  0  0  0  0  0  0  0  0
  -28.9253  -18.9254   20.0629 C   0  0  0  0  0  0  0  0  0  0  0  0
  -18.7523  -28.2054   23.1778 C   0  0  0  0  0  0  0  0  0  0  0  0
  -17.4272  -30.6187   23.6283 C   0  0  0  0  0  0  0  0  0  0  0  0
  -17.6619  -28.5611   22.3840 C   0  0  0  0  0  0  0  0  0  0  0  0
  -24.8420  -27.2318   21.6456 C   0  0  0  0  0  0  0  0  0  0  0  0
  -26.8112  -26.9204   20.7182 C   0  0  0  0  0  0  0  0  0  0  0  0
  -24.9789  -25.5648   19.6919 C   0  0  0  0  0  0  0  0  0  0  0  0
  -25.4671  -14.8003   19.3643 C   0  0  0  0  0  0  0  0  0  0  0  0
  -27.6205  -12.8794   20.8459 C   0  0  0  0  0  0  0  0  0  0  0  0
  -30.6403  -12.5759   22.4065 C   0  0  0  0  0  0  0  0  0  0  0  0
  -30.6273  -30.9520   21.2922 C   0  0  0  0  0  0  0  0  0  0  0  0
  -21.2182  -12.5345   17.6700 C   0  0  0  0  0  0  0  0  0  0  0  0
  -27.5788  -15.3407   18.0976 C   0  0  0  0  0  0  0  0  0  0  0  0
  -28.0165  -15.3649   21.0221 C   0  0  0  0  0  0  0  0  0  0  0  0
  -22.1645  -12.3363   18.8513 C   0  0  0  0  0  0  0  0  0  0  0  0
  -29.1860  -29.6309   24.2678 C   0  0  0  0  0  0  0  0  0  0  0  0
  -22.4249  -13.6642   19.5554 C   0  0  0  0  0  0  0  0  0  0  0  0
  -27.9789  -28.8355   23.7677 C   0  0  0  0  0  0  0  0  0  0  0  0
  -32.9247  -25.3653   16.4744 C   0  0  0  0  0  0  0  0  0  0  0  0
  -31.1308  -25.5381   18.2511 C   0  0  0  0  0  0  0  0  0  0  0  0
  -29.4055  -30.8995   23.4465 C   0  0  0  0  0  0  0  0  0  0  0  0
  -28.2972  -29.8899   21.4904 C   0  0  0  0  0  0  0  0  0  0  0  0
  -33.0785  -23.8837   16.7858 C   0  0  0  0  0  0  0  0  0  0  0  0
  -23.0996  -14.6664   18.6109 C   0  0  1  0  0  0  0  0  0  0  0  0
  -26.8638  -14.3627   19.0247 C   0  0  1  0  0  0  0  0  0  0  0  0
  -28.0691  -28.5731   22.2523 C   0  0  2  0  0  0  0  0  0  0  0  0
  -32.4257  -26.1306   17.6975 C   0  0  2  0  0  0  0  0  0  0  0  0
  -31.2998  -24.0484   18.5585 C   0  0  1  0  0  0  0  0  0  0  0  0
  -32.1094  -10.8888   23.5435 C   0  0  0  0  0  0  0  0  0  0  0  0
  -28.1151  -22.0387   21.1159 C   0  0  0  0  0  0  0  0  0  0  0  0
  -25.8323  -12.9902   23.3157 C   0  0  0  0  0  0  0  0  0  0  0  0
  -27.7559  -12.1207   24.6618 C   0  0  0  0  0  0  0  0  0  0  0  0
  -26.7939  -10.7345   22.8245 C   0  0  0  0  0  0  0  0  0  0  0  0
  -32.8091  -12.9603   20.4297 C   0  0  0  0  0  0  0  0  0  0  0  0
  -31.8805  -29.8976   17.9436 C   0  0  0  0  0  0  0  0  0  0  0  0
  -30.2454  -22.0697   19.7067 C   0  0  0  0  0  0  0  0  0  0  0  0
  -31.7308  -30.9149   19.0696 C   0  0  0  0  0  0  0  0  0  0  0  0
  -32.0975  -28.4838   18.4679 C   0  0  0  0  0  0  0  0  0  0  0  0
  -28.1726  -12.7736   22.2470 C   0  0  1  0  0  0  0  0  0  0  0  0
  -31.7693  -11.5765   22.2304 C   0  0  2  0  0  0  0  0  0  0  0  0
  -29.9912  -23.3991   18.9914 C   0  0  2  0  0  0  0  0  0  0  0  0
  -28.9742  -21.3029   20.0976 C   0  0  1  0  0  0  0  0  0  1  0  0
  -27.1413  -12.1786   23.2470 C   0  0  0  0  0  0  0  0  0  0  0  0
  -25.6638  -28.0334   22.3283 N   0  0  0  0  0  0  0  0  0  0  0  0
  -26.8539  -27.8216   21.7410 N   0  0  0  0  0  0  0  0  0  0  0  0
  -27.5699  -14.1666   20.2925 N   0  0  0  0  0  0  0  0  0  0  0  0
  -29.4837  -30.5813   22.0187 N   0  0  0  0  0  0  0  0  0  0  0  0
  -27.9184  -26.5912   20.0194 N   0  0  0  0  0  0  0  0  0  0  0  0
  -23.6113  -25.2620   19.7399 N   0  0  0  0  0  0  0  0  0  0  0  0
  -24.5074  -14.3613   18.4722 N   0  0  0  0  0  0  0  0  0  0  0  0
  -29.4112  -12.0101   22.1411 N   0  0  0  0  0  0  0  0  0  0  0  0
  -30.6229  -30.6069   19.9462 N   0  0  0  0  0  0  0  0  0  0  0  0
  -31.7860  -23.3537   17.3183 N   0  3  0  0  0  0  0  0  0  0  0  0
  -32.1851  -27.5472   17.3162 N   0  3  0  0  0  0  0  0  0  0  0  0
  -32.9936  -12.2613   21.7275 N   0  3  0  0  0  0  0  0  0  0  0  0
  -25.7057  -24.9895   18.8467 O   0  0  0  0  0  0  0  0  0  0  0  0
  -25.2741  -15.4843   20.3626 O   0  0  0  0  0  0  0  0  0  0  0  0
  -27.2545  -11.8567   20.2614 O   0  0  0  0  0  0  0  0  0  0  0  0
  -30.8295  -13.7410   22.7491 O   0  0  0  0  0  0  0  0  0  0  0  0
  -31.5838  -31.5416   21.8063 O   0  0  0  0  0  0  0  0  0  0  0  0
  -29.1905  -23.1637   17.8373 O   0  0  0  0  0  0  0  0  0  0  0  0
  -19.4106  -27.0075   22.9560 O   0  0  0  0  0  0  0  0  0  0  0  0
  -29.3562  -20.0582   20.6818 O   0  0  0  0  0  0  0  0  0  1  0  0
  -16.7902  -31.7767   23.8457 F   0  0  0  0  0  0  0  0  0  0  0  0
  -17.2455  -27.7471   21.4043 F   0  0  0  0  0  0  0  0  0  0  0  0
  1  2  1  0  0  0  0
  1  5  2  0  0  0  0
  2  6  2  0  0  0  0
  3  8  2  0  0  0  0
  3 15  1  0  0  0  0
  4  9  1  0  0  0  0
  4 15  2  0  0  0  0
  5 17  1  0  0  0  0
  6 19  1  0  0  0  0
  7 10  2  0  0  0  0
  7 18  1  0  0  0  0
  8 21  1  0  0  0  0
  9 21  2  0  0  0  0
 10 22  1  0  0  0  0
 11 12  2  0  0  0  0
 11 23  1  0  0  0  0
 12 24  1  0  0  0  0
 13 20  1  0  0  0  0
 13 22  2  0  0  0  0
 14 24  2  0  0  0  0
 14 25  1  0  0  0  0
 15 26  1  0  0  0  0
 16 26  1  0  0  0  0
 16 27  2  0  0  0  0
 16 28  1  0  0  0  0
 17 19  2  0  0  0  0
 17 33  1  0  0  0  0
 18 20  2  0  0  0  0
 18 34  1  0  0  0  0
 19 45  1  0  0  0  0
 20 35  1  0  0  0  0
 21 83  1  0  0  0  0
 22 84  1  0  0  0  0
 23 25  2  0  0  0  0
 23 83  1  0  0  0  0
 24 85  1  0  0  0  0
 25 86  1  0  0  0  0
 26 65  2  0  0  0  0
 27 66  1  0  0  0  0
 27 69  1  0  0  0  0
 28 70  1  0  0  0  0
 28 77  2  0  0  0  0
 29 46  1  0  0  0  0
 29 71  1  0  0  0  0
 29 78  2  0  0  0  0
 30 60  1  0  0  0  0
 30 67  1  0  0  0  0
 30 79  2  0  0  0  0
 31 61  1  0  0  0  0
 31 72  1  0  0  0  0
 31 80  2  0  0  0  0
 32 68  1  0  0  0  0
 32 73  1  0  0  0  0
 32 81  2  0  0  0  0
 33 36  1  0  0  0  0
 34 46  1  0  0  0  0
 35 67  1  0  0  0  0
 36 38  1  0  0  0  0
 37 39  1  0  0  0  0
 37 42  1  0  0  0  0
 38 45  1  0  0  0  0
 39 47  1  0  0  0  0
 40 44  1  0  0  0  0
 40 48  1  0  0  0  0
 41 48  1  0  0  0  0
 41 49  1  0  0  0  0
 42 68  1  0  0  0  0
 43 47  1  0  0  0  0
 43 68  1  0  0  0  0
 44 74  1  0  0  0  0
 45 71  1  0  0  0  0
 46 67  1  0  0  0  0
 47 66  1  0  0  0  0
 48 75  1  0  0  0  0
 49 62  1  0  0  0  0
 49 74  1  0  0  0  0
 50 61  1  0  0  0  0
 51 63  1  0  0  0  0
 52 64  1  0  0  0  0
 53 64  1  0  0  0  0
 54 64  1  0  0  0  0
 55 76  1  0  0  0  0
 56 58  1  0  0  0  0
 56 59  1  0  0  0  0
 57 62  1  0  0  0  0
 57 63  1  0  0  0  0
 58 73  1  0  0  0  0
 59 75  1  0  0  0  0
 60 64  1  0  0  0  0
 60 72  1  0  0  0  0
 61 76  1  0  0  0  0
 62 82  1  0  0  0  0
 63 84  1  0  0  0  0
 65 66  1  0  0  0  0
M  CHG  3  74   1  75   1  76   1
M  ISO  4  32 100  63 101  73 100  84 101
M  END
> <Batch ID>
0120

> <Smiles>
CNC(C)C(=O)NC(C(=O)N1Cc2cc([101O:1][101CH:1](C)CC(O)C3CC(NCCC[100NH:0][100C:0](=O)N4CCCC(n5nc(-c6ccc(Oc7ccc(F)cc7F)cc6)c(C(N)=O)c5N)C4)CCN3)ccc2CC1C(=O)NC1CCCc2ccccc21)C(C)(C)C

> <Shape>
0.220

> <Color>
0.065

> <Negative vol penalty>
0.000

$$$$

  -OEChem-04052320233D

 83 91  0     1  0  0  0  0  0999 V2000
  -26.4304  -31.8224   12.2160 C   0  0  0  0  0  0  0  0  0  0  0  0
  -26.5417  -30.5581   12.7856 C   0  0  0  0  0  0  0  0  0  0  0  0
  -22.9632  -10.0324   19.8906 C   0  0  0  0  0  0  0  0  0  0  0  0
  -23.9525   -9.6210   22.0561 C   0  0  0  0  0  0  0  0  0  0  0  0
  -26.8420  -32.9465   12.9308 C   0  0  0  0  0  0  0  0  0  0  0  0
  -27.0657  -30.4170   14.0701 C   0  0  0  0  0  0  0  0  0  0  0  0
  -25.4024  -26.3058   18.2935 C   0  0  0  0  0  0  0  0  0  0  0  0
  -22.2114   -8.8638   20.0120 C   0  0  0  0  0  0  0  0  0  0  0  0
  -23.2007   -8.4524   22.1775 C   0  0  0  0  0  0  0  0  0  0  0  0
  -25.9517  -25.0844   18.6810 C   0  0  0  0  0  0  0  0  0  0  0  0
  -20.0264   -7.6057   22.9696 C   0  0  0  0  0  0  0  0  0  0  0  0
  -19.3918   -7.3689   24.1889 C   0  0  0  0  0  0  0  0  0  0  0  0
  -27.1219  -26.1879   20.4788 C   0  0  0  0  0  0  0  0  0  0  0  0
  -29.5826  -20.0901   20.3660 C   0  0  0  0  0  0  0  0  0  0  0  0
  -20.6379   -5.3142   24.4386 C   0  0  0  0  0  0  0  0  0  0  0  0
  -26.9203  -20.5703   20.7222 C   0  0  0  0  0  0  0  0  0  0  0  0
  -23.8338  -10.4110   20.9126 C   0  0  0  0  0  0  0  0  0  0  0  0
  -24.2437  -12.9123   21.2015 C   0  0  0  0  0  0  0  0  0  0  0  0
  -27.3623  -32.8200   14.2285 C   0  0  0  0  0  0  0  0  0  0  0  0
  -25.7178  -27.4812   18.9902 C   0  0  0  0  0  0  0  0  0  0  0  0
  -27.4859  -31.5403   14.8025 C   0  0  0  0  0  0  0  0  0  0  0  0
  -26.5733  -27.4226   20.0997 C   0  0  0  0  0  0  0  0  0  0  0  0
  -29.0125  -21.2248   19.7997 C   0  0  0  0  0  0  0  0  0  0  0  0
  -27.6565  -21.4768   19.9765 C   0  0  0  0  0  0  0  0  0  0  0  0
  -22.3301   -8.0738   21.1554 C   0  0  0  0  0  0  0  0  0  0  0  0
  -26.8139  -25.0258   19.7720 C   0  0  0  0  0  0  0  0  0  0  0  0
  -20.9668   -6.6966   22.4847 C   0  0  0  0  0  0  0  0  0  0  0  0
  -19.6975   -6.2232   24.9234 C   0  0  0  0  0  0  0  0  0  0  0  0
  -21.2725   -5.5509   23.2192 C   0  0  0  0  0  0  0  0  0  0  0  0
  -24.6110  -11.6178   20.7876 C   0  0  0  0  0  0  0  0  0  0  0  0
  -28.7602  -19.2458   21.0944 C   0  0  0  0  0  0  0  0  0  0  0  0
  -25.3171  -13.6989   20.8616 C   0  0  0  0  0  0  0  0  0  0  0  0
  -23.0400  -13.3632   21.8367 C   0  0  0  0  0  0  0  0  0  0  0  0
  -27.1406  -30.2220   18.2370 C   0  0  0  0  0  0  0  0  0  0  0  0
  -26.2533  -31.0584   21.2429 C   0  0  0  0  0  0  0  0  0  0  0  0
  -25.4019  -30.0643   24.3947 C   0  0  0  0  0  0  0  0  0  0  0  0
  -30.8218  -14.5910   20.6432 C   0  0  0  0  0  0  0  0  0  0  0  0
  -27.8379  -34.0596   14.9439 C   0  0  0  0  0  0  0  0  0  0  0  0
  -25.0959  -28.7866   18.5760 C   0  0  0  0  0  0  0  0  0  0  0  0
  -26.9277  -28.6524   20.8936 C   0  0  0  0  0  0  0  0  0  0  0  0
  -28.0342  -33.8593   16.4445 C   0  0  0  0  0  0  0  0  0  0  0  0
  -29.3699  -12.6849   18.0097 C   0  0  0  0  0  0  0  0  0  0  0  0
  -28.8013  -32.5688   16.7149 C   0  0  0  0  0  0  0  0  0  0  0  0
  -27.9752  -12.3392   18.5343 C   0  0  0  0  0  0  0  0  0  0  0  0
  -30.4112  -12.6759   19.1266 C   0  0  0  0  0  0  0  0  0  0  0  0
  -28.6855  -13.1755   20.8135 C   0  0  0  0  0  0  0  0  0  0  0  0
  -28.0262  -31.3487   16.2030 C   0  0  1  0  0  0  0  0  0  0  0  0
  -25.8913  -30.0020   19.0424 C   0  0  1  0  0  0  0  0  0  0  0  0
  -27.5913  -13.2268   19.7335 C   0  0  2  0  0  0  0  0  0  0  0  0
  -30.7373  -23.0418   19.8994 C   0  0  0  0  0  0  0  0  0  0  0  0
  -24.7667  -30.9775   26.6441 C   0  0  0  0  0  0  0  0  0  0  0  0
  -29.1674  -31.7987   21.7625 C   0  0  0  0  0  0  0  0  0  0  0  0
  -28.6613  -31.7840   24.2144 C   0  0  0  0  0  0  0  0  0  0  0  0
  -27.4987  -33.4011   22.7123 C   0  0  0  0  0  0  0  0  0  0  0  0
  -22.7632  -28.7260   24.3219 C   0  0  0  0  0  0  0  0  0  0  0  0
  -29.8712  -22.1554   19.0090 C   0  0  0  0  0  0  0  0  0  0  0  0
  -26.9900  -22.6854   19.3879 C   0  0  0  0  0  0  0  0  0  1  0  0
  -30.7408  -17.7876   21.5146 C   0  0  0  0  0  0  0  0  0  0  0  0
  -31.0834  -16.4864   22.2238 C   0  0  0  0  0  0  0  0  0  0  0  0
  -26.8811  -30.9515   22.6116 C   0  0  1  0  0  0  0  0  0  0  0  0
  -24.2564  -30.4708   25.3041 C   0  0  2  0  0  0  0  0  0  0  0  0
  -28.0472  -31.9608   22.8093 C   0  0  0  0  0  0  0  0  0  0  0  0
  -27.4390  -19.4574   21.2877 N   0  0  0  0  0  0  0  0  0  0  0  0
  -25.8229  -11.5801   20.2273 N   0  0  0  0  0  0  0  0  0  0  0  0
  -26.2264  -12.8606   20.2867 N   0  0  0  0  0  0  0  0  0  0  0  0
  -26.2992  -29.9061   20.4454 N   0  0  0  0  0  0  0  0  0  0  0  0
  -29.9876  -13.5382   20.2324 N   0  0  0  0  0  0  0  0  0  0  0  0
  -25.5623  -15.0191   21.0012 N   0  0  0  0  0  0  0  0  0  0  0  0
  -22.0386  -12.4229   22.1147 N   0  0  0  0  0  0  0  0  0  0  0  0
  -29.3556  -18.0935   21.6653 N   0  0  0  0  0  0  0  0  0  0  0  0
  -26.9563  -31.0098   17.1167 N   0  0  0  0  0  0  0  0  0  0  0  0
  -25.7933  -31.0996   23.5724 N   0  0  0  0  0  0  0  0  0  0  0  0
  -30.3421  -15.3637   21.6937 N   0  0  0  0  0  0  0  0  0  0  0  0
  -23.3555  -29.3100   25.5528 N   0  3  0  0  0  0  0  0  0  0  0  0
  -22.8511  -14.5672   22.1335 O   0  0  0  0  0  0  0  0  0  0  0  0
  -28.1940  -29.7158   18.6054 O   0  0  0  0  0  0  0  0  0  0  0  0
  -25.7348  -32.1228   20.8969 O   0  0  0  0  0  0  0  0  0  0  0  0
  -25.9021  -28.9418   24.4145 O   0  0  0  0  0  0  0  0  0  0  0  0
  -31.9107  -14.8283   20.1095 O   0  0  0  0  0  0  0  0  0  0  0  0
  -21.5966   -6.9335   21.2744 O   0  0  0  0  0  0  0  0  0  0  0  0
  -27.3520  -23.8350   20.1520 O   0  0  0  0  0  0  0  0  0  1  0  0
  -19.0891   -5.9968   26.0951 F   0  0  0  0  0  0  0  0  0  0  0  0
  -22.1759   -4.6746   22.7590 F   0  0  0  0  0  0  0  0  0  0  0  0
  1  2  1  0  0  0  0
  1  5  2  0  0  0  0
  2  6  2  0  0  0  0
  3  8  2  0  0  0  0
  3 17  1  0  0  0  0
  4  9  1  0  0  0  0
  4 17  2  0  0  0  0
  5 19  1  0  0  0  0
  6 21  1  0  0  0  0
  7 10  2  0  0  0  0
  7 20  1  0  0  0  0
  8 25  1  0  0  0  0
  9 25  2  0  0  0  0
 10 26  1  0  0  0  0
 11 12  2  0  0  0  0
 11 27  1  0  0  0  0
 12 28  1  0  0  0  0
 13 22  1  0  0  0  0
 13 26  2  0  0  0  0
 14 23  1  0  0  0  0
 14 31  2  0  0  0  0
 15 28  2  0  0  0  0
 15 29  1  0  0  0  0
 16 24  1  0  0  0  0
 16 63  2  0  0  0  0
 17 30  1  0  0  0  0
 18 30  1  0  0  0  0
 18 32  2  0  0  0  0
 18 33  1  0  0  0  0
 19 21  2  0  0  0  0
 19 38  1  0  0  0  0
 20 22  2  0  0  0  0
 20 39  1  0  0  0  0
 21 47  1  0  0  0  0
 22 40  1  0  0  0  0
 23 24  2  0  0  0  0
 23 56  1  0  0  0  0
 24 57  1  0  0  0  0
 25 80  1  0  0  0  0
 26 81  1  0  0  0  0
 27 29  2  0  0  0  0
 27 80  1  0  0  0  0
 28 82  1  0  0  0  0
 29 83  1  0  0  0  0
 30 64  2  0  0  0  0
 31 63  1  0  0  0  0
 31 70  1  0  0  0  0
 32 65  1  0  0  0  0
 32 68  1  0  0  0  0
 33 69  1  0  0  0  0
 33 75  2  0  0  0  0
 34 48  1  0  0  0  0
 34 71  1  0  0  0  0
 34 76  2  0  0  0  0
 35 60  1  0  0  0  0
 35 66  1  0  0  0  0
 35 77  2  0  0  0  0
 36 61  1  0  0  0  0
 36 72  1  0  0  0  0
 36 78  2  0  0  0  0
 37 67  1  0  0  0  0
 37 73  1  0  0  0  0
 37 79  2  0  0  0  0
 38 41  1  0  0  0  0
 39 48  1  0  0  0  0
 40 66  1  0  0  0  0
 41 43  1  0  0  0  0
 42 44  1  0  0  0  0
 42 45  1  0  0  0  0
 43 47  1  0  0  0  0
 44 49  1  0  0  0  0
 45 67  1  0  0  0  0
 46 49  1  0  0  0  0
 46 67  1  0  0  0  0
 47 71  1  0  0  0  0
 48 66  1  0  0  0  0
 49 65  1  0  0  0  0
 50 56  1  0  0  0  0
 51 61  1  0  0  0  0
 52 62  1  0  0  0  0
 53 62  1  0  0  0  0
 54 62  1  0  0  0  0
 55 74  1  0  0  0  0
 57 81  1  0  0  0  0
 58 59  1  0  0  0  0
 58 70  1  0  0  0  0
 59 73  1  0  0  0  0
 60 62  1  0  0  0  0
 60 72  1  0  0  0  0
 61 74  1  0  0  0  0
 64 65  1  0  0  0  0
M  CHG  1  74   1
M  ISO  4  37 100  57 101  73 100  81 101
M  END
> <Batch ID>
0120

> <Smiles>
CCc1cc(NCC[100NH:0][100C:0](=O)N2CCCC(n3nc(-c4ccc(Oc5ccc(F)cc5F)cc4)c(C(N)=O)c3N)C2)ncc1[101CH2:1][101O:1]c1ccc2c(c1)CN(C(=O)C(NC(=O)C(C)NC)C(C)(C)C)C(C(=O)NC1CCCc3ccccc31)C2

> <Shape>
0.330

> <Color>
0.180

> <Negative vol penalty>
0.000

$$$$

  -OEChem-04052320233D

 86 95  0     1  0  0  0  0  0999 V2000
  -22.3236  -29.5458   23.3471 C   0  0  0  0  0  0  0  0  0  0  0  0
  -22.7118  -28.2240   23.5411 C   0  0  0  0  0  0  0  0  0  0  0  0
  -29.8392  -23.5930   19.3003 C   0  0  0  0  0  0  0  0  0  0  0  0
  -28.3816  -23.6482   21.2263 C   0  0  0  0  0  0  0  0  0  0  0  0
  -21.0064  -29.8401   22.9975 C   0  0  0  0  0  0  0  0  0  0  0  0
  -21.7826  -27.1958   23.3866 C   0  0  0  0  0  0  0  0  0  0  0  0
  -23.6243  -23.2955   20.7332 C   0  0  0  0  0  0  0  0  0  0  0  0
  -29.6991  -24.9731   19.1547 C   0  0  0  0  0  0  0  0  0  0  0  0
  -28.2415  -25.0284   21.0807 C   0  0  0  0  0  0  0  0  0  0  0  0
  -24.4754  -22.4162   21.4012 C   0  0  0  0  0  0  0  0  0  0  0  0
  -26.4877  -27.1626   19.1313 C   0  0  0  0  0  0  0  0  0  0  0  0
  -25.2045  -27.6986   19.2388 C   0  0  0  0  0  0  0  0  0  0  0  0
  -22.6435  -20.8742   21.6931 C   0  0  0  0  0  0  0  0  0  0  0  0
  -27.2497  -16.9366   25.0179 C   0  0  0  0  0  0  0  0  0  0  0  0
  -25.0777  -16.9926   23.9865 C   0  0  0  0  0  0  0  0  0  0  0  0
  -25.9256  -29.0500   21.1072 C   0  0  0  0  0  0  0  0  0  0  0  0
  -29.1804  -22.9305   20.3361 C   0  0  0  0  0  0  0  0  0  0  0  0
  -30.2971  -20.8237   21.2427 C   0  0  0  0  0  0  0  0  0  0  0  0
  -20.0629  -28.8143   22.8292 C   0  0  0  0  0  0  0  0  0  0  0  0
  -22.2715  -22.9750   20.5494 C   0  0  0  0  0  0  0  0  0  0  0  0
  -20.4512  -27.4768   23.0357 C   0  0  0  0  0  0  0  0  0  0  0  0
  -21.7778  -21.7500   21.0202 C   0  0  0  0  0  0  0  0  0  0  0  0
  -26.0762  -16.2880   24.6497 C   0  0  0  0  0  0  0  0  0  0  0  0
  -28.9003  -25.6908   20.0449 C   0  0  0  0  0  0  0  0  0  0  0  0
  -23.9844  -21.2067   21.8838 C   0  0  0  0  0  0  0  0  0  0  0  0
  -27.4899  -27.5702   20.0118 C   0  0  0  0  0  0  0  0  0  0  0  0
  -24.9234  -28.6423   20.2267 C   0  0  0  0  0  0  0  0  0  0  0  0
  -27.2088  -28.5139   20.9997 C   0  0  0  0  0  0  0  0  0  0  0  0
  -29.3243  -21.5048   20.4867 C   0  0  0  0  0  0  0  0  0  0  0  0
  -27.3747  -18.2799   24.7024 C   0  0  0  0  0  0  0  0  0  0  0  0
  -25.2998  -18.3335   23.7173 C   0  0  0  0  0  0  0  0  0  0  0  0
  -30.0046  -19.4941   21.0605 C   0  0  0  0  0  0  0  0  0  0  0  0
  -31.3691  -21.3461   22.0385 C   0  0  0  0  0  0  0  0  0  0  0  0
  -19.5159  -24.2610   21.4747 C   0  0  0  0  0  0  0  0  0  0  0  0
  -18.2510  -21.9709   19.5569 C   0  0  0  0  0  0  0  0  0  0  0  0
  -18.6152  -18.9345   18.0421 C   0  0  0  0  0  0  0  0  0  0  0  0
  -26.3146  -15.3168   20.7790 C   0  0  0  0  0  0  0  0  0  0  0  0
  -18.6392  -29.1848   22.4970 C   0  0  0  0  0  0  0  0  0  0  0  0
  -21.3726  -23.9224   19.8032 C   0  0  0  0  0  0  0  0  0  0  0  0
  -20.3382  -21.3497   20.8309 C   0  0  0  0  0  0  0  0  0  0  0  0
  -17.8076  -28.0109   21.9865 C   0  0  0  0  0  0  0  0  0  0  0  0
  -26.8429  -17.2319   17.8244 C   0  0  0  0  0  0  0  0  0  0  0  0
  -18.0137  -26.7858   22.8716 C   0  0  0  0  0  0  0  0  0  0  0  0
  -27.6099  -18.4604   18.3170 C   0  0  0  0  0  0  0  0  0  0  0  0
  -24.7105  -14.6322   25.9521 C   0  0  0  0  0  0  0  0  0  0  0  0
  -25.8006  -16.7721   18.8414 C   0  0  0  0  0  0  0  0  0  0  0  0
  -27.0904  -17.7637   20.6926 C   0  0  0  0  0  0  0  0  0  0  0  0
  -24.4879  -13.1707   26.3043 C   0  0  0  0  0  0  0  0  0  0  0  0
  -25.4491  -12.4645   24.1100 C   0  0  0  0  0  0  0  0  0  0  0  0
  -25.8860  -14.8136   24.9701 C   0  0  1  0  0  0  0  0  0  0  0  0
  -19.4784  -26.3320   22.8532 C   0  0  1  0  0  0  0  0  0  0  0  0
  -19.8948  -23.7218   20.1244 C   0  0  1  0  0  0  0  0  0  0  0  0
  -25.7017  -13.9227   23.7108 C   0  0  1  0  0  0  0  0  0  0  0  0
  -28.1912  -18.2310   19.7251 C   0  0  2  0  0  0  0  0  0  0  0  0
  -28.6210  -19.0081   25.0807 C   0  0  0  0  0  0  0  0  0  0  0  0
  -17.3965  -17.3094   16.5687 C   0  0  0  0  0  0  0  0  0  0  0  0
  -16.5439  -21.1016   21.9318 C   0  0  0  0  0  0  0  0  0  0  0  0
  -16.0840  -18.9558   20.7266 C   0  0  0  0  0  0  0  0  0  0  0  0
  -15.3446  -21.1232   19.7373 C   0  0  0  0  0  0  0  0  0  0  0  0
  -20.6711  -19.1359   15.9228 C   0  0  0  0  0  0  0  0  0  0  0  0
  -24.2430  -19.1252   23.0048 C   0  0  0  0  0  0  0  0  0  1  0  0
  -26.9191  -13.9811   22.7814 C   0  0  0  0  0  0  0  0  0  0  0  0
  -17.8050  -20.5416   19.7496 C   0  0  1  0  0  0  0  0  0  0  0  0
  -18.3614  -18.4840   16.6149 C   0  0  2  0  0  0  0  0  0  0  0  0
  -16.4711  -20.4386   20.5418 C   0  0  0  0  0  0  0  0  0  0  0  0
  -28.4773  -20.6763   19.8700 N   0  0  0  0  0  0  0  0  0  0  0  0
  -26.4266  -18.9977   24.0593 N   0  0  0  0  0  0  0  0  0  0  0  0
  -28.9170  -19.4609   20.2382 N   0  0  0  0  0  0  0  0  0  0  0  0
  -19.4974  -22.3126   20.1006 N   0  0  0  0  0  0  0  0  0  0  0  0
  -26.4169  -16.5711   20.1551 N   0  0  0  0  0  0  0  0  0  0  0  0
  -30.5743  -18.3618   21.5250 N   0  0  0  0  0  0  0  0  0  0  0  0
  -31.5268  -22.7366   22.1171 N   0  0  0  0  0  0  0  0  0  0  0  0
  -19.7687  -25.6103   21.6329 N   0  0  0  0  0  0  0  0  0  0  0  0
  -17.7571  -19.9460   18.4187 N   0  0  0  0  0  0  0  0  0  0  0  0
  -26.9322  -15.2097   22.0191 N   0  0  0  0  0  0  0  0  0  0  0  0
  -24.2914  -12.3936   25.0478 N   0  3  0  0  0  0  0  0  0  0  0  0
  -19.6382  -18.0691   15.9679 N   0  3  0  0  0  0  0  0  0  0  0  0
  -32.1738  -20.6016   22.6483 O   0  0  0  0  0  0  0  0  0  0  0  0
  -19.0288  -23.5089   22.3107 O   0  0  0  0  0  0  0  0  0  0  0  0
  -17.5236  -22.7535   18.9404 O   0  0  0  0  0  0  0  0  0  0  0  0
  -19.4851  -18.4363   18.7532 O   0  0  0  0  0  0  0  0  0  0  0  0
  -25.7217  -14.3615   20.2664 O   0  0  0  0  0  0  0  0  0  0  0  0
  -28.7636  -27.0376   19.9033 O   0  0  0  0  0  0  0  0  0  0  0  0
  -24.8129  -20.3469   22.5368 O   0  0  0  0  0  0  0  0  0  1  0  0
  -23.6915  -29.1582   20.3289 F   0  0  0  0  0  0  0  0  0  0  0  0
  -28.1678  -28.9102   21.8478 F   0  0  0  0  0  0  0  0  0  0  0  0
  1  2  1  0  0  0  0
  1  5  2  0  0  0  0
  2  6  2  0  0  0  0
  3  8  2  0  0  0  0
  3 17  1  0  0  0  0
  4  9  1  0  0  0  0
  4 17  2  0  0  0  0
  5 19  1  0  0  0  0
  6 21  1  0  0  0  0
  7 10  2  0  0  0  0
  7 20  1  0  0  0  0
  8 24  1  0  0  0  0
  9 24  2  0  0  0  0
 10 25  1  0  0  0  0
 11 12  2  0  0  0  0
 11 26  1  0  0  0  0
 12 27  1  0  0  0  0
 13 22  1  0  0  0  0
 13 25  2  0  0  0  0
 14 23  1  0  0  0  0
 14 30  2  0  0  0  0
 15 23  2  0  0  0  0
 15 31  1  0  0  0  0
 16 27  2  0  0  0  0
 16 28  1  0  0  0  0
 17 29  1  0  0  0  0
 18 29  1  0  0  0  0
 18 32  2  0  0  0  0
 18 33  1  0  0  0  0
 19 21  2  0  0  0  0
 19 38  1  0  0  0  0
 20 22  2  0  0  0  0
 20 39  1  0  0  0  0
 21 51  1  0  0  0  0
 22 40  1  0  0  0  0
 23 50  1  0  0  0  0
 24 83  1  0  0  0  0
 25 84  1  0  0  0  0
 26 28  2  0  0  0  0
 26 83  1  0  0  0  0
 27 85  1  0  0  0  0
 28 86  1  0  0  0  0
 29 66  2  0  0  0  0
 30 55  1  0  0  0  0
 30 67  1  0  0  0  0
 31 61  1  0  0  0  0
 31 67  2  0  0  0  0
 32 68  1  0  0  0  0
 32 71  1  0  0  0  0
 33 72  1  0  0  0  0
 33 78  2  0  0  0  0
 34 52  1  0  0  0  0
 34 73  1  0  0  0  0
 34 79  2  0  0  0  0
 35 63  1  0  0  0  0
 35 69  1  0  0  0  0
 35 80  2  0  0  0  0
 36 64  1  0  0  0  0
 36 74  1  0  0  0  0
 36 81  2  0  0  0  0
 37 70  1  0  0  0  0
 37 75  1  0  0  0  0
 37 82  2  0  0  0  0
 38 41  1  0  0  0  0
 39 52  1  0  0  0  0
 40 69  1  0  0  0  0
 41 43  1  0  0  0  0
 42 44  1  0  0  0  0
 42 46  1  0  0  0  0
 43 51  1  0  0  0  0
 44 54  1  0  0  0  0
 45 48  1  0  0  0  0
 45 50  1  0  0  0  0
 46 70  1  0  0  0  0
 47 54  1  0  0  0  0
 47 70  1  0  0  0  0
 48 76  1  0  0  0  0
 49 53  1  0  0  0  0
 49 76  1  0  0  0  0
 50 53  1  0  0  0  0
 51 73  1  0  0  0  0
 52 69  1  0  0  0  0
 53 62  1  0  0  0  0
 54 68  1  0  0  0  0
 56 64  1  0  0  0  0
 57 65  1  0  0  0  0
 58 65  1  0  0  0  0
 59 65  1  0  0  0  0
 60 77  1  0  0  0  0
 61 84  1  0  0  0  0
 62 75  1  0  0  0  0
 63 65  1  0  0  0  0
 63 74  1  0  0  0  0
 64 77  1  0  0  0  0
 66 68  1  0  0  0  0
M  CHG  2  76   1  77   1
M  ISO  4  37 100  61 101  75 100  84 101
M  END
> <Batch ID>
0120

> <Smiles>
CNC(C)C(=O)NC(C(=O)N1Cc2cc([101O:1][101CH2:1]c3cc(C4CCNCC4C[100NH:0][100C:0](=O)N4CCCC(n5nc(-c6ccc(Oc7ccc(F)cc7F)cc6)c(C(N)=O)c5N)C4)cc(C)n3)ccc2CC1C(=O)NC1CCCc2ccccc21)C(C)(C)C

> <Shape>
0.186

> <Color>
0.066

> <Negative vol penalty>
0.000

$$$$

  -OEChem-04052320233D

 85 94  0     1  0  0  0  0  0999 V2000
  -16.4725  -29.0593   23.5826 C   0  0  0  0  0  0  0  0  0  0  0  0
  -17.3932  -28.7091   22.6002 C   0  0  0  0  0  0  0  0  0  0  0  0
  -28.9235  -10.3859   21.4604 C   0  0  0  0  0  0  0  0  0  0  0  0
  -27.5336  -11.4956   19.8253 C   0  0  0  0  0  0  0  0  0  0  0  0
  -16.7584  -30.1002   24.4650 C   0  0  0  0  0  0  0  0  0  0  0  0
  -18.5999  -29.4005   22.4989 C   0  0  0  0  0  0  0  0  0  0  0  0
  -22.5613  -26.3108   21.8611 C   0  0  0  0  0  0  0  0  0  0  0  0
  -27.8986  -19.4021   14.9342 C   0  0  0  0  0  0  0  0  0  0  0  0
  -27.9756   -9.3693   21.5762 C   0  0  0  0  0  0  0  0  0  0  0  0
  -26.5857  -10.4790   19.9410 C   0  0  0  0  0  0  0  0  0  0  0  0
  -22.7619  -25.7881   20.5843 C   0  0  0  0  0  0  0  0  0  0  0  0
  -24.1296   -9.5958   22.0901 C   0  0  0  0  0  0  0  0  0  0  0  0
  -22.7893   -9.9681   22.1934 C   0  0  0  0  0  0  0  0  0  0  0  0
  -27.9370  -20.7902   15.0057 C   0  0  0  0  0  0  0  0  0  0  0  0
  -24.4632  -27.4493   20.1780 C   0  0  0  0  0  0  0  0  0  0  0  0
  -22.2914   -8.7350   20.1762 C   0  0  0  0  0  0  0  0  0  0  0  0
  -28.7025  -11.4491   20.5850 C   0  0  0  0  0  0  0  0  0  0  0  0
  -31.0241  -12.3692   20.0637 C   0  0  0  0  0  0  0  0  0  0  0  0
  -17.9734  -30.7983   24.3807 C   0  0  0  0  0  0  0  0  0  0  0  0
  -23.3037  -27.4155   22.3027 C   0  0  0  0  0  0  0  0  0  0  0  0
  -18.9018  -30.4526   23.3802 C   0  0  0  0  0  0  0  0  0  0  0  0
  -24.2719  -27.9826   21.4618 C   0  0  0  0  0  0  0  0  0  0  0  0
  -28.1485  -18.6457   16.0738 C   0  0  0  0  0  0  0  0  0  0  0  0
  -26.8067   -9.4157   20.8165 C   0  0  0  0  0  0  0  0  0  0  0  0
  -23.7110  -26.3591   19.7415 C   0  0  0  0  0  0  0  0  0  0  0  0
  -24.5508   -8.7932   21.0298 C   0  0  0  0  0  0  0  0  0  0  0  0
  -21.8702   -9.5377   21.2365 C   0  0  0  0  0  0  0  0  0  0  0  0
  -23.6317   -8.3628   20.0729 C   0  0  0  0  0  0  0  0  0  0  0  0
  -29.6811  -12.4999   20.4653 C   0  0  0  0  0  0  0  0  0  0  0  0
  -28.2277  -21.3687   16.2307 C   0  0  0  0  0  0  0  0  0  0  0  0
  -28.4299  -19.3202   17.2509 C   0  0  0  0  0  0  0  0  0  0  0  0
  -31.5236  -13.6477   20.1145 C   0  0  0  0  0  0  0  0  0  0  0  0
  -31.7546  -11.1970   19.6791 C   0  0  0  0  0  0  0  0  0  0  0  0
  -22.5924  -30.3754   23.2174 C   0  0  0  0  0  0  0  0  0  0  0  0
  -25.7537  -30.4967   23.9341 C   0  0  0  0  0  0  0  0  0  0  0  0
  -28.8403  -29.3971   22.4237 C   0  0  0  0  0  0  0  0  0  0  0  0
  -28.9869  -19.0413   19.6919 C   0  0  0  0  0  0  0  0  0  0  0  0
  -18.2177  -31.9473   25.3266 C   0  0  0  0  0  0  0  0  0  0  0  0
  -23.0941  -27.9508   23.6926 C   0  0  0  0  0  0  0  0  0  0  0  0
  -25.1092  -29.1570   21.8957 C   0  0  0  0  0  0  0  0  0  0  0  0
  -19.6792  -32.3832   25.3909 C   0  0  0  0  0  0  0  0  0  0  0  0
  -30.9334  -17.8105   22.4073 C   0  0  0  0  0  0  0  0  0  0  0  0
  -20.2608  -32.5096   23.9864 C   0  0  0  0  0  0  0  0  0  0  0  0
  -26.6269  -23.2738   18.2037 C   0  0  0  0  0  0  0  0  0  0  0  0
  -26.8301  -24.9284   16.3018 C   0  0  0  0  0  0  0  0  0  0  0  0
  -30.9604  -16.2977   22.1775 C   0  0  0  0  0  0  0  0  0  0  0  0
  -25.2910  -23.8965   18.5978 C   0  0  0  0  0  0  0  0  0  0  0  0
  -25.4938  -25.5469   16.7016 C   0  0  0  0  0  0  0  0  0  0  0  0
  -29.5861  -18.4186   22.0218 C   0  0  0  0  0  0  0  0  0  0  0  0
  -29.1524  -16.5846   20.4352 C   0  0  0  0  0  0  0  0  0  0  0  0
  -20.2323  -31.1625   23.2542 C   0  0  1  0  0  0  0  0  0  0  0  0
  -23.5448  -29.3999   23.8491 C   0  0  1  0  0  0  0  0  0  0  0  0
  -26.9123  -23.4497   16.7057 C   0  0  0  0  0  0  0  0  0  0  0  0
  -30.5111  -15.9366   20.7481 C   0  0  2  0  0  0  0  0  0  0  0  0
  -25.2117  -25.3657   18.1916 C   0  0  0  0  0  0  0  0  0  1  0  0
  -28.1063  -17.1576   15.9931 C   0  0  0  0  0  0  0  0  0  0  0  0
  -31.0435  -28.7979   23.4650 C   0  0  0  0  0  0  0  0  0  0  0  0
  -26.4828  -33.4052   23.3695 C   0  0  0  0  0  0  0  0  0  0  0  0
  -28.7896  -32.6379   22.7710 C   0  0  0  0  0  0  0  0  0  0  0  0
  -27.9194  -32.2831   25.0817 C   0  0  0  0  0  0  0  0  0  0  0  0
  -28.8512  -26.7287   21.1437 C   0  0  0  0  0  0  0  0  0  0  0  0
  -28.2776  -22.8673   16.3449 C   0  0  0  0  0  0  0  0  0  0  0  0
  -27.0057  -30.8836   23.1846 C   0  0  1  0  0  0  0  0  0  0  0  0
  -29.7341  -28.2672   22.9021 C   0  0  2  0  0  0  0  0  0  0  0  0
  -27.5267  -32.2919   23.5883 C   0  0  0  0  0  0  0  0  0  0  0  0
  -29.3486  -13.7618   20.7503 N   0  0  0  0  0  0  0  0  0  0  0  0
  -28.4760  -20.6670   17.3592 N   0  0  0  0  0  0  0  0  0  0  0  0
  -30.4899  -14.4356   20.5276 N   0  0  0  0  0  0  0  0  0  0  0  0
  -24.8627  -29.6484   23.2614 N   0  0  0  0  0  0  0  0  0  0  0  0
  -29.2275  -18.0376   20.6539 N   0  0  0  0  0  0  0  0  0  0  0  0
  -32.7418  -14.1634   19.8457 N   0  0  0  0  0  0  0  0  0  0  0  0
  -31.7616  -10.8278   18.3271 N   0  0  0  0  0  0  0  0  0  0  0  0
  -28.6863  -18.5592   18.4184 N   0  0  0  0  0  0  0  0  0  0  0  0
  -21.3065  -30.3116   23.7194 N   0  0  0  0  0  0  0  0  0  0  0  0
  -27.9637  -29.8059   23.4065 N   0  0  0  0  0  0  0  0  0  0  0  0
  -30.0472  -27.3422   21.7764 N   0  3  0  0  0  0  0  0  0  0  0  0
  -32.3691  -10.4886   20.5122 O   0  0  0  0  0  0  0  0  0  0  0  0
  -22.9947  -31.1311   22.3407 O   0  0  0  0  0  0  0  0  0  0  0  0
  -25.5763  -30.9253   25.0771 O   0  0  0  0  0  0  0  0  0  0  0  0
  -28.9149  -29.8721   21.2927 O   0  0  0  0  0  0  0  0  0  0  0  0
  -29.0699  -20.2403   19.9704 O   0  0  0  0  0  0  0  0  0  0  0  0
  -25.8816   -8.4237   20.9291 O   0  0  0  0  0  0  0  0  0  0  0  0
  -23.9084  -25.8512   18.4945 O   0  0  0  0  0  0  0  0  0  1  0  0
  -20.5829   -9.8940   21.3366 F   0  0  0  0  0  0  0  0  0  0  0  0
  -24.0302   -7.5906   19.0528 F   0  0  0  0  0  0  0  0  0  0  0  0
  1  2  1  0  0  0  0
  1  5  2  0  0  0  0
  2  6  2  0  0  0  0
  3  9  2  0  0  0  0
  3 17  1  0  0  0  0
  4 10  1  0  0  0  0
  4 17  2  0  0  0  0
  5 19  1  0  0  0  0
  6 21  1  0  0  0  0
  7 11  2  0  0  0  0
  7 20  1  0  0  0  0
  8 14  2  0  0  0  0
  8 23  1  0  0  0  0
  9 24  1  0  0  0  0
 10 24  2  0  0  0  0
 11 25  1  0  0  0  0
 12 13  2  0  0  0  0
 12 26  1  0  0  0  0
 13 27  1  0  0  0  0
 14 30  1  0  0  0  0
 15 22  1  0  0  0  0
 15 25  2  0  0  0  0
 16 27  2  0  0  0  0
 16 28  1  0  0  0  0
 17 29  1  0  0  0  0
 18 29  1  0  0  0  0
 18 32  2  0  0  0  0
 18 33  1  0  0  0  0
 19 21  2  0  0  0  0
 19 38  1  0  0  0  0
 20 22  2  0  0  0  0
 20 39  1  0  0  0  0
 21 51  1  0  0  0  0
 22 40  1  0  0  0  0
 23 31  2  0  0  0  0
 23 56  1  0  0  0  0
 24 82  1  0  0  0  0
 25 83  1  0  0  0  0
 26 28  2  0  0  0  0
 26 82  1  0  0  0  0
 27 84  1  0  0  0  0
 28 85  1  0  0  0  0
 29 66  2  0  0  0  0
 30 62  1  0  0  0  0
 30 67  2  0  0  0  0
 31 67  1  0  0  0  0
 31 73  1  0  0  0  0
 32 68  1  0  0  0  0
 32 71  1  0  0  0  0
 33 72  1  0  0  0  0
 33 77  2  0  0  0  0
 34 52  1  0  0  0  0
 34 74  1  0  0  0  0
 34 78  2  0  0  0  0
 35 63  1  0  0  0  0
 35 69  1  0  0  0  0
 35 79  2  0  0  0  0
 36 64  1  0  0  0  0
 36 75  1  0  0  0  0
 36 80  2  0  0  0  0
 37 70  1  0  0  0  0
 37 73  1  0  0  0  0
 37 81  2  0  0  0  0
 38 41  1  0  0  0  0
 39 52  1  0  0  0  0
 40 69  1  0  0  0  0
 41 43  1  0  0  0  0
 42 46  1  0  0  0  0
 42 49  1  0  0  0  0
 43 51  1  0  0  0  0
 44 47  1  0  0  0  0
 44 53  1  0  0  0  0
 45 48  1  0  0  0  0
 45 53  1  0  0  0  0
 46 54  1  0  0  0  0
 47 55  1  0  0  0  0
 48 55  1  0  0  0  0
 49 70  1  0  0  0  0
 50 54  1  0  0  0  0
 50 70  1  0  0  0  0
 51 74  1  0  0  0  0
 52 69  1  0  0  0  0
 53 62  1  0  0  0  0
 54 68  1  0  0  0  0
 55 83  1  0  0  0  0
 57 64  1  0  0  0  0
 58 65  1  0  0  0  0
 59 65  1  0  0  0  0
 60 65  1  0  0  0  0
 61 76  1  0  0  0  0
 63 65  1  0  0  0  0
 63 75  1  0  0  0  0
 64 76  1  0  0  0  0
 66 68  1  0  0  0  0
M  CHG  1  76   1
M  ISO  4  37 100  55 101  73 100  83 101
M  END
> <Batch ID>
0120

> <Smiles>
CNC(C)C(=O)NC(C(=O)N1Cc2cc([101O:1][101CH:1]3CCC(Cc4ccc(C)c([100NH:0][100C:0](=O)N5CCCC(n6nc(-c7ccc(Oc8ccc(F)cc8F)cc7)c(C(N)=O)c6N)C5)n4)CC3)ccc2CC1C(=O)NC1CCCc2ccccc21)C(C)(C)C

> <Shape>
0.263

> <Color>
0.061

> <Negative vol penalty>
0.000

$$$$

  -OEChem-04052320233D

 82 90  0     1  0  0  0  0  0999 V2000
  -29.0081  -23.6822   19.2123 C   0  0  0  0  0  0  0  0  0  0  0  0
  -27.6759  -24.0620   19.0845 C   0  0  0  0  0  0  0  0  0  0  0  0
  -25.9920  -16.5572   19.3634 C   0  0  0  0  0  0  0  0  0  0  0  0
  -24.3356  -15.6738   20.8843 C   0  0  0  0  0  0  0  0  0  0  0  0
  -29.7573  -24.1272   20.3007 C   0  0  0  0  0  0  0  0  0  0  0  0
  -27.0918  -24.8863   20.0456 C   0  0  0  0  0  0  0  0  0  0  0  0
  -22.8416  -29.1949   19.1088 C   0  0  0  0  0  0  0  0  0  0  0  0
  -26.4639  -15.2660   19.1274 C   0  0  0  0  0  0  0  0  0  0  0  0
  -24.8075  -14.3826   20.6482 C   0  0  0  0  0  0  0  0  0  0  0  0
  -21.4560  -29.1949   19.2634 C   0  0  0  0  0  0  0  0  0  0  0  0
  -28.4449  -13.0147   20.6866 C   0  0  0  0  0  0  0  0  0  0  0  0
  -29.8260  -12.8194   20.6906 C   0  0  0  0  0  0  0  0  0  0  0  0
  -21.7064  -30.1755   21.4531 C   0  0  0  0  0  0  0  0  0  0  0  0
  -19.7113  -26.9420   21.6713 C   0  0  0  0  0  0  0  0  0  0  0  0
  -29.7227  -12.0418   18.4055 C   0  0  0  0  0  0  0  0  0  0  0  0
  -19.2854  -26.1436   19.6095 C   0  0  0  0  0  0  0  0  0  0  0  0
  -24.9279  -16.7611   20.2420 C   0  0  0  0  0  0  0  0  0  0  0  0
  -23.4294  -18.7733   19.7801 C   0  0  0  0  0  0  0  0  0  0  0  0
  -29.1848  -24.9652   21.2705 C   0  0  0  0  0  0  0  0  0  0  0  0
  -23.6719  -29.6759   20.1313 C   0  0  0  0  0  0  0  0  0  0  0  0
  -27.8337  -25.3418   21.1487 C   0  0  0  0  0  0  0  0  0  0  0  0
  -23.1021  -30.1829   21.3080 C   0  0  0  0  0  0  0  0  0  0  0  0
  -19.2516  -27.2872   20.3764 C   0  0  0  0  0  0  0  0  0  0  0  0
  -25.8716  -14.1787   19.7697 C   0  0  0  0  0  0  0  0  0  0  0  0
  -20.8883  -29.6826   20.4368 C   0  0  0  0  0  0  0  0  0  0  0  0
  -27.7026  -12.7235   19.5420 C   0  0  0  0  0  0  0  0  0  0  0  0
  -30.4649  -12.3330   19.5501 C   0  0  0  0  0  0  0  0  0  0  0  0
  -28.3415  -12.2371   18.4015 C   0  0  0  0  0  0  0  0  0  0  0  0
  -24.4403  -18.0948   20.4867 C   0  0  0  0  0  0  0  0  0  0  0  0
  -20.0122  -25.5979   21.6561 C   0  0  0  0  0  0  0  0  0  0  0  0
  -23.3417  -19.9974   20.3969 C   0  0  0  0  0  0  0  0  0  0  0  0
  -22.6400  -18.3362   18.6658 C   0  0  0  0  0  0  0  0  0  0  0  0
  -25.9389  -28.4077   21.9632 C   0  0  0  0  0  0  0  0  0  0  0  0
  -26.2991  -31.4718   22.9651 C   0  0  0  0  0  0  0  0  0  0  0  0
  -24.9239  -34.5692   23.3668 C   0  0  0  0  0  0  0  0  0  0  0  0
  -23.1466  -23.1132   25.0228 C   0  0  0  0  0  0  0  0  0  0  0  0
  -30.0210  -25.3823   22.4544 C   0  0  0  0  0  0  0  0  0  0  0  0
  -25.1635  -29.6937   19.9382 C   0  0  0  0  0  0  0  0  0  0  0  0
  -23.9486  -30.7292   22.4275 C   0  0  0  0  0  0  0  0  0  0  0  0
  -29.4336  -26.5579   23.2310 C   0  0  0  0  0  0  0  0  0  0  0  0
  -26.3639  -22.1877   23.8109 C   0  0  0  0  0  0  0  0  0  0  0  0
  -27.9440  -26.3429   23.4793 C   0  0  0  0  0  0  0  0  0  0  0  0
  -26.0672  -21.0926   22.7849 C   0  0  0  0  0  0  0  0  0  0  0  0
  -25.4138  -22.1154   25.0042 C   0  0  0  0  0  0  0  0  0  0  0  0
  -23.6840  -21.0233   23.6299 C   0  0  0  0  0  0  0  0  0  0  0  0
  -27.1715  -26.2550   22.1575 C   0  0  1  0  0  0  0  0  0  0  0  0
  -25.9358  -29.7319   21.2533 C   0  0  1  0  0  0  0  0  0  0  0  0
  -24.5804  -21.0900   22.3816 C   0  0  2  0  0  0  0  0  0  0  0  0
  -17.3188  -28.8871   20.1578 C   0  0  0  0  0  0  0  0  0  0  0  0
  -25.4501  -36.8589   24.2489 C   0  0  0  0  0  0  0  0  0  0  0  0
  -25.9696  -30.4453   25.8195 C   0  0  0  0  0  0  0  0  0  0  0  0
  -25.5527  -32.8048   26.5457 C   0  0  0  0  0  0  0  0  0  0  0  0
  -27.7462  -32.1821   25.5341 C   0  0  0  0  0  0  0  0  0  0  0  0
  -19.9261  -23.7598   19.9446 C   0  0  0  0  0  0  0  0  0  0  0  0
  -24.5144  -35.8125   20.7125 C   0  0  0  0  0  0  0  0  0  0  0  0
  -20.7900  -25.2041   23.9940 C   0  0  0  0  0  0  0  0  0  0  0  0
  -20.8321  -24.0039   24.9274 C   0  0  0  0  0  0  0  0  0  0  0  0
  -18.8058  -28.6573   19.9195 C   0  0  1  0  0  0  0  0  0  1  0  0
  -25.6956  -32.3161   24.0614 C   0  0  1  0  0  0  0  0  0  0  0  0
  -25.4440  -35.9542   23.0265 C   0  0  2  0  0  0  0  0  0  0  0  0
  -26.2249  -31.9251   25.4700 C   0  0  0  0  0  0  0  0  0  0  0  0
  -24.9580  -18.8270   21.4766 N   0  0  0  0  0  0  0  0  0  0  0  0
  -19.7497  -25.1230   20.3976 N   0  0  0  0  0  0  0  0  0  0  0  0
  -24.2696  -19.9785   21.3963 N   0  0  0  0  0  0  0  0  0  0  0  0
  -25.4022  -30.7193   22.1937 N   0  0  0  0  0  0  0  0  0  0  0  0
  -24.0200  -22.1182   24.5535 N   0  0  0  0  0  0  0  0  0  0  0  0
  -22.5622  -21.0773   20.1764 N   0  0  0  0  0  0  0  0  0  0  0  0
  -22.8591  -17.0493   18.1557 N   0  0  0  0  0  0  0  0  0  0  0  0
  -20.4827  -24.7841   22.6263 N   0  0  0  0  0  0  0  0  0  0  0  0
  -26.9787  -27.5749   21.5961 N   0  0  0  0  0  0  0  0  0  0  0  0
  -25.9477  -33.7049   23.6926 N   0  0  0  0  0  0  0  0  0  0  0  0
  -21.8449  -23.0468   24.5412 N   0  0  0  0  0  0  0  0  0  0  0  0
  -24.5916  -36.5847   21.9793 N   0  3  0  0  0  0  0  0  0  0  0  0
  -21.7777  -19.0713   18.1277 O   0  0  0  0  0  0  0  0  0  0  0  0
  -25.0637  -28.1604   22.7845 O   0  0  0  0  0  0  0  0  0  0  0  0
  -27.5208  -31.4851   22.7947 O   0  0  0  0  0  0  0  0  0  0  0  0
  -23.7286  -34.2837   23.3493 O   0  0  0  0  0  0  0  0  0  0  0  0
  -23.5019  -23.9984   25.8083 O   0  0  0  0  0  0  0  0  0  0  0  0
  -26.3317  -12.9186   19.5394 O   0  0  0  0  0  0  0  0  0  0  0  0
  -19.5362  -29.6832   20.5906 O   0  0  0  0  0  0  0  0  0  1  0  0
  -31.7914  -12.1470   19.5536 F   0  0  0  0  0  0  0  0  0  0  0  0
  -27.6339  -11.9567   17.2985 F   0  0  0  0  0  0  0  0  0  0  0  0
  1  2  1  0  0  0  0
  1  5  2  0  0  0  0
  2  6  2  0  0  0  0
  3  8  2  0  0  0  0
  3 17  1  0  0  0  0
  4  9  1  0  0  0  0
  4 17  2  0  0  0  0
  5 19  1  0  0  0  0
  6 21  1  0  0  0  0
  7 10  2  0  0  0  0
  7 20  1  0  0  0  0
  8 24  1  0  0  0  0
  9 24  2  0  0  0  0
 10 25  1  0  0  0  0
 11 12  2  0  0  0  0
 11 26  1  0  0  0  0
 12 27  1  0  0  0  0
 13 22  1  0  0  0  0
 13 25  2  0  0  0  0
 14 23  1  0  0  0  0
 14 30  2  0  0  0  0
 15 27  2  0  0  0  0
 15 28  1  0  0  0  0
 16 23  2  0  0  0  0
 16 63  1  0  0  0  0
 17 29  1  0  0  0  0
 18 29  1  0  0  0  0
 18 31  2  0  0  0  0
 18 32  1  0  0  0  0
 19 21  2  0  0  0  0
 19 37  1  0  0  0  0
 20 22  2  0  0  0  0
 20 38  1  0  0  0  0
 21 46  1  0  0  0  0
 22 39  1  0  0  0  0
 23 58  1  0  0  0  0
 24 79  1  0  0  0  0
 25 80  1  0  0  0  0
 26 28  2  0  0  0  0
 26 79  1  0  0  0  0
 27 81  1  0  0  0  0
 28 82  1  0  0  0  0
 29 62  2  0  0  0  0
 30 63  1  0  0  0  0
 30 69  1  0  0  0  0
 31 64  1  0  0  0  0
 31 67  1  0  0  0  0
 32 68  1  0  0  0  0
 32 74  2  0  0  0  0
 33 47  1  0  0  0  0
 33 70  1  0  0  0  0
 33 75  2  0  0  0  0
 34 59  1  0  0  0  0
 34 65  1  0  0  0  0
 34 76  2  0  0  0  0
 35 60  1  0  0  0  0
 35 71  1  0  0  0  0
 35 77  2  0  0  0  0
 36 66  1  0  0  0  0
 36 72  1  0  0  0  0
 36 78  2  0  0  0  0
 37 40  1  0  0  0  0
 38 47  1  0  0  0  0
 39 65  1  0  0  0  0
 40 42  1  0  0  0  0
 41 43  1  0  0  0  0
 41 44  1  0  0  0  0
 42 46  1  0  0  0  0
 43 48  1  0  0  0  0
 44 66  1  0  0  0  0
 45 48  1  0  0  0  0
 45 66  1  0  0  0  0
 46 70  1  0  0  0  0
 47 65  1  0  0  0  0
 48 64  1  0  0  0  0
 49 58  1  0  0  0  0
 50 60  1  0  0  0  0
 51 61  1  0  0  0  0
 52 61  1  0  0  0  0
 53 61  1  0  0  0  0
 54 63  1  0  0  0  0
 55 73  1  0  0  0  0
 56 57  1  0  0  0  0
 56 69  1  0  0  0  0
 57 72  1  0  0  0  0
 58 80  1  0  0  0  0
 59 61  1  0  0  0  0
 59 71  1  0  0  0  0
 60 73  1  0  0  0  0
 62 64  1  0  0  0  0
M  CHG  1  73   1
M  ISO  4  36 100  58 101  72 100  80 101
M  END
> <Batch ID>
0120

> <Smiles>
CNC(C)C(=O)NC(C(=O)N1Cc2cc([101O:1][101CH:1](C)c3cc(NCC[100NH:0][100C:0](=O)N4CCCC(n5nc(-c6ccc(Oc7ccc(F)cc7F)cc6)c(C(N)=O)c5N)C4)n(C)c3)ccc2CC1C(=O)NC1CCCc2ccccc21)C(C)(C)C

> <Shape>
0.257

> <Color>
0.063

> <Negative vol penalty>
0.000

$$$$

  -OEChem-04052320233D

 82 90  0     1  0  0  0  0  0999 V2000
  -17.9399  -30.6562   23.2723 C   0  0  0  0  0  0  0  0  0  0  0  0
  -19.2659  -30.2788   23.4587 C   0  0  0  0  0  0  0  0  0  0  0  0
  -30.2265  -25.7468   17.0298 C   0  0  0  0  0  0  0  0  0  0  0  0
  -25.6959  -14.8799   21.5587 C   0  0  0  0  0  0  0  0  0  0  0  0
  -24.6686  -16.4744   20.0623 C   0  0  0  0  0  0  0  0  0  0  0  0
  -16.9762  -29.6917   22.9809 C   0  0  0  0  0  0  0  0  0  0  0  0
  -19.6288  -28.9364   23.3548 C   0  0  0  0  0  0  0  0  0  0  0  0
  -23.8584  -28.2711   20.6506 C   0  0  0  0  0  0  0  0  0  0  0  0
  -24.4931  -14.1780   21.6365 C   0  0  0  0  0  0  0  0  0  0  0  0
  -23.4658  -15.7725   20.1401 C   0  0  0  0  0  0  0  0  0  0  0  0
  -25.0695  -28.5418   21.2859 C   0  0  0  0  0  0  0  0  0  0  0  0
  -22.7708  -11.9694   19.7421 C   0  0  0  0  0  0  0  0  0  0  0  0
  -22.8230  -10.5798   19.6332 C   0  0  0  0  0  0  0  0  0  0  0  0
  -30.8587  -24.6453   17.5958 C   0  0  0  0  0  0  0  0  0  0  0  0
  -29.7657  -26.7729   17.8471 C   0  0  0  0  0  0  0  0  0  0  0  0
  -25.3870  -26.1820   21.6731 C   0  0  0  0  0  0  0  0  0  0  0  0
  -21.8454  -10.3707   21.8327 C   0  0  0  0  0  0  0  0  0  0  0  0
  -25.7837  -16.0282   20.7716 C   0  0  0  0  0  0  0  0  0  0  0  0
  -28.0675  -16.5564   19.7652 C   0  0  0  0  0  0  0  0  0  0  0  0
  -17.3291  -28.3380   22.8638 C   0  0  0  0  0  0  0  0  0  0  0  0
  -23.3965  -26.9525   20.5312 C   0  0  0  0  0  0  0  0  0  0  0  0
  -18.6687  -27.9527   23.0628 C   0  0  0  0  0  0  0  0  0  0  0  0
  -24.1709  -25.8970   21.0335 C   0  0  0  0  0  0  0  0  0  0  0  0
  -23.3780  -14.6242   20.9272 C   0  0  0  0  0  0  0  0  0  0  0  0
  -25.8326  -27.4975   21.7999 C   0  0  0  0  0  0  0  0  0  0  0  0
  -22.2560  -12.5597   20.8964 C   0  0  0  0  0  0  0  0  0  0  0  0
  -22.3603   -9.7804   20.6784 C   0  0  0  0  0  0  0  0  0  0  0  0
  -21.7933  -11.7603   21.9416 C   0  0  0  0  0  0  0  0  0  0  0  0
  -27.0258  -16.7540   20.6913 C   0  0  0  0  0  0  0  0  0  0  0  0
  -31.0043  -24.6181   18.9734 C   0  0  0  0  0  0  0  0  0  0  0  0
  -29.9601  -26.6504   19.2135 C   0  0  0  0  0  0  0  0  0  0  0  0
  -29.0142  -17.4902   20.1090 C   0  0  0  0  0  0  0  0  0  0  0  0
  -28.1702  -15.6131   18.6904 C   0  0  0  0  0  0  0  0  0  0  0  0
  -20.8456  -25.3665   21.5711 C   0  0  0  0  0  0  0  0  0  0  0  0
  -22.0589  -22.9866   19.7309 C   0  0  0  0  0  0  0  0  0  0  0  0
  -24.7854  -21.5923   18.2247 C   0  0  0  0  0  0  0  0  0  0  0  0
  -30.4102  -22.6824   21.6051 C   0  0  0  0  0  0  0  0  0  0  0  0
  -16.2442  -27.3257   22.5940 C   0  0  0  0  0  0  0  0  0  0  0  0
  -22.1008  -26.6749   19.8194 C   0  0  0  0  0  0  0  0  0  0  0  0
  -23.7293  -24.4621   20.9132 C   0  0  0  0  0  0  0  0  0  0  0  0
  -16.7760  -25.9718   22.1310 C   0  0  0  0  0  0  0  0  0  0  0  0
  -29.3816  -20.4585   24.1883 C   0  0  0  0  0  0  0  0  0  0  0  0
  -17.9349  -25.5227   23.0153 C   0  0  0  0  0  0  0  0  0  0  0  0
  -28.7577  -19.2838   23.4328 C   0  0  0  0  0  0  0  0  0  0  0  0
  -29.0891  -21.7906   23.5014 C   0  0  0  0  0  0  0  0  0  0  0  0
  -28.8372  -20.6722   21.3198 C   0  0  0  0  0  0  0  0  0  0  0  0
  -19.1057  -26.5097   22.9337 C   0  0  1  0  0  0  0  0  0  0  0  0
  -21.4796  -25.3372   20.2092 C   0  0  1  0  0  0  0  0  0  0  0  0
  -29.1522  -19.3019   21.9437 C   0  0  2  0  0  0  0  0  0  0  0  0
  -25.4714  -19.6285   16.8211 C   0  0  0  0  0  0  0  0  0  0  0  0
  -21.9145  -21.1831   22.1878 C   0  0  0  0  0  0  0  0  0  0  0  0
  -23.4525  -19.5886   21.0215 C   0  0  0  0  0  0  0  0  0  0  0  0
  -21.2107  -20.0923   20.0502 C   0  0  0  0  0  0  0  0  0  0  0  0
  -25.6849  -23.3402   16.0123 C   0  0  0  0  0  0  0  0  0  0  0  0
  -31.6781  -23.4514   19.6151 C   0  0  0  0  0  0  0  0  0  0  0  0
  -29.2288  -28.6906   22.1924 C   0  0  0  0  0  0  0  0  0  0  0  0
  -27.7385  -28.9082   21.9829 C   0  0  0  0  0  0  0  0  0  1  0  0
  -29.7386  -27.4759   21.4328 C   0  0  0  0  0  0  0  0  0  0  0  0
  -23.0261  -21.8494   19.9548 C   0  0  1  0  0  0  0  0  0  0  0  0
  -25.0025  -21.0752   16.8141 C   0  0  2  0  0  0  0  0  0  0  0  0
  -22.4086  -20.7054   20.8077 C   0  0  0  0  0  0  0  0  0  0  0  0
  -27.2860  -17.7361   21.5583 N   0  0  0  0  0  0  0  0  0  0  0  0
  -30.5697  -25.5958   19.7998 N   0  0  0  0  0  0  0  0  0  0  0  0
  -28.5021  -18.1639   21.1786 N   0  0  0  0  0  0  0  0  0  0  0  0
  -22.4522  -24.2425   20.2144 N   0  0  0  0  0  0  0  0  0  0  0  0
  -29.4878  -21.7419   22.0926 N   0  0  0  0  0  0  0  0  0  0  0  0
  -30.2265  -17.7925   19.5977 N   0  0  0  0  0  0  0  0  0  0  0  0
  -27.1066  -14.7258   18.4762 N   0  0  0  0  0  0  0  0  0  0  0  0
  -19.8480  -26.3130   21.7071 N   0  0  0  0  0  0  0  0  0  0  0  0
  -23.4780  -21.4314   18.6321 N   0  0  0  0  0  0  0  0  0  0  0  0
  -30.7386  -22.5616   20.2604 N   0  0  0  0  0  0  0  0  0  0  0  0
  -26.0280  -21.8982   16.1128 N   0  3  0  0  0  0  0  0  0  0  0  0
  -29.1823  -15.5478   17.9523 O   0  0  0  0  0  0  0  0  0  0  0  0
  -21.2318  -24.5870   22.4343 O   0  0  0  0  0  0  0  0  0  0  0  0
  -20.9967  -22.7701   19.1421 O   0  0  0  0  0  0  0  0  0  0  0  0
  -25.6865  -22.0859   18.8993 O   0  0  0  0  0  0  0  0  0  0  0  0
  -30.9085  -23.5610   22.3169 O   0  0  0  0  0  0  0  0  0  0  0  0
  -22.2042  -13.9394   21.0027 O   0  0  0  0  0  0  0  0  0  0  0  0
  -27.0148  -27.7590   22.4210 O   0  0  0  0  0  0  0  0  0  1  0  0
  -29.5152  -27.6492   20.0400 O   0  0  0  0  0  0  0  0  0  0  0  0
  -22.4090   -8.4460   20.5730 F   0  0  0  0  0  0  0  0  0  0  0  0
  -21.2966  -12.3216   23.0525 F   0  0  0  0  0  0  0  0  0  0  0  0
  1  2  1  0  0  0  0
  1  6  2  0  0  0  0
  2  7  2  0  0  0  0
  3 14  1  0  0  0  0
  3 15  2  0  0  0  0
  4  9  2  0  0  0  0
  4 18  1  0  0  0  0
  5 10  1  0  0  0  0
  5 18  2  0  0  0  0
  6 20  1  0  0  0  0
  7 22  1  0  0  0  0
  8 11  2  0  0  0  0
  8 21  1  0  0  0  0
  9 24  1  0  0  0  0
 10 24  2  0  0  0  0
 11 25  1  0  0  0  0
 12 13  2  0  0  0  0
 12 26  1  0  0  0  0
 13 27  1  0  0  0  0
 14 30  2  0  0  0  0
 15 31  1  0  0  0  0
 16 23  1  0  0  0  0
 16 25  2  0  0  0  0
 17 27  2  0  0  0  0
 17 28  1  0  0  0  0
 18 29  1  0  0  0  0
 19 29  1  0  0  0  0
 19 32  2  0  0  0  0
 19 33  1  0  0  0  0
 20 22  2  0  0  0  0
 20 38  1  0  0  0  0
 21 23  2  0  0  0  0
 21 39  1  0  0  0  0
 22 47  1  0  0  0  0
 23 40  1  0  0  0  0
 24 78  1  0  0  0  0
 25 79  1  0  0  0  0
 26 28  2  0  0  0  0
 26 78  1  0  0  0  0
 27 81  1  0  0  0  0
 28 82  1  0  0  0  0
 29 62  2  0  0  0  0
 30 55  1  0  0  0  0
 30 63  1  0  0  0  0
 31 63  2  0  0  0  0
 31 80  1  0  0  0  0
 32 64  1  0  0  0  0
 32 67  1  0  0  0  0
 33 68  1  0  0  0  0
 33 73  2  0  0  0  0
 34 48  1  0  0  0  0
 34 69  1  0  0  0  0
 34 74  2  0  0  0  0
 35 59  1  0  0  0  0
 35 65  1  0  0  0  0
 35 75  2  0  0  0  0
 36 60  1  0  0  0  0
 36 70  1  0  0  0  0
 36 76  2  0  0  0  0
 37 66  1  0  0  0  0
 37 71  1  0  0  0  0
 37 77  2  0  0  0  0
 38 41  1  0  0  0  0
 39 48  1  0  0  0  0
 40 65  1  0  0  0  0
 41 43  1  0  0  0  0
 42 44  1  0  0  0  0
 42 45  1  0  0  0  0
 43 47  1  0  0  0  0
 44 49  1  0  0  0  0
 45 66  1  0  0  0  0
 46 49  1  0  0  0  0
 46 66  1  0  0  0  0
 47 69  1  0  0  0  0
 48 65  1  0  0  0  0
 49 64  1  0  0  0  0
 50 60  1  0  0  0  0
 51 61  1  0  0  0  0
 52 61  1  0  0  0  0
 53 61  1  0  0  0  0
 54 72  1  0  0  0  0
 55 71  1  0  0  0  0
 56 57  1  0  0  0  0
 56 58  1  0  0  0  0
 57 79  1  0  0  0  0
 58 80  1  0  0  0  0
 59 61  1  0  0  0  0
 59 70  1  0  0  0  0
 60 72  1  0  0  0  0
 62 64  1  0  0  0  0
M  CHG  1  72   1
M  ISO  4  37 100  57 101  71 100  79 101
M  END
> <Batch ID>
0120

> <Smiles>
CNC(C)C(=O)NC(C(=O)N1Cc2cc([101O:1][101CH2:1]CCOc3cccc(C[100NH:0][100C:0](=O)N4CCCC(n5nc(-c6ccc(Oc7ccc(F)cc7F)cc6)c(C(N)=O)c5N)C4)n3)ccc2CC1C(=O)NC1CCCc2ccccc21)C(C)(C)C

> <Shape>
0.231

> <Color>
0.060

> <Negative vol penalty>
0.000

$$$$

  -OEChem-04052320233D

 86 95  0     1  0  0  0  0  0999 V2000
  -31.2257  -28.8351   13.6838 C   0  0  0  0  0  0  0  0  0  0  0  0
  -30.7505  -27.5945   14.0967 C   0  0  0  0  0  0  0  0  0  0  0  0
  -23.0036   -9.9974   19.8860 C   0  0  0  0  0  0  0  0  0  0  0  0
  -23.8646   -9.7826   22.1331 C   0  0  0  0  0  0  0  0  0  0  0  0
  -31.3372  -29.8784   14.6019 C   0  0  0  0  0  0  0  0  0  0  0  0
  -30.3876  -27.3962   15.4284 C   0  0  0  0  0  0  0  0  0  0  0  0
  -25.8547  -23.8487   17.5198 C   0  0  0  0  0  0  0  0  0  0  0  0
  -22.2562   -8.8328   20.0610 C   0  0  0  0  0  0  0  0  0  0  0  0
  -23.1171   -8.6180   22.3082 C   0  0  0  0  0  0  0  0  0  0  0  0
  -25.8401  -22.5564   18.0428 C   0  0  0  0  0  0  0  0  0  0  0  0
  -23.3384   -5.3602   21.4311 C   0  0  0  0  0  0  0  0  0  0  0  0
  -23.9714   -4.2666   22.0217 C   0  0  0  0  0  0  0  0  0  0  0  0
  -25.9141  -23.4656   20.2759 C   0  0  0  0  0  0  0  0  0  0  0  0
  -22.3499   -4.2952   23.8126 C   0  0  0  0  0  0  0  0  0  0  0  0
  -23.8079  -10.4723   20.9220 C   0  0  0  0  0  0  0  0  0  0  0  0
  -24.1778  -12.9943   21.0224 C   0  0  0  0  0  0  0  0  0  0  0  0
  -30.9664  -29.6956   15.9434 C   0  0  0  0  0  0  0  0  0  0  0  0
  -25.9103  -24.9608   18.3722 C   0  0  0  0  0  0  0  0  0  0  0  0
  -30.4956  -28.4377   16.3657 C   0  0  0  0  0  0  0  0  0  0  0  0
  -25.9268  -24.7711   19.7614 C   0  0  0  0  0  0  0  0  0  0  0  0
  -27.1277  -18.5626   20.5783 C   0  0  0  0  0  0  0  0  0  0  0  0
  -22.3129   -8.1431   21.2721 C   0  0  0  0  0  0  0  0  0  0  0  0
  -25.8727  -22.3646   19.4209 C   0  0  0  0  0  0  0  0  0  0  0  0
  -22.2112   -5.9215   22.0313 C   0  0  0  0  0  0  0  0  0  0  0  0
  -23.4771   -3.7340   23.2124 C   0  0  0  0  0  0  0  0  0  0  0  0
  -21.7170   -5.3890   23.2220 C   0  0  0  0  0  0  0  0  0  0  0  0
  -24.5806  -11.6749   20.7417 C   0  0  0  0  0  0  0  0  0  0  0  0
  -27.2690  -18.7183   21.9703 C   0  0  0  0  0  0  0  0  0  0  0  0
  -28.3922  -18.2589   20.1367 C   0  0  0  0  0  0  0  0  0  0  0  0
  -25.2627  -13.7645   20.6812 C   0  0  0  0  0  0  0  0  0  0  0  0
  -22.9342  -13.4803   21.5448 C   0  0  0  0  0  0  0  0  0  0  0  0
  -27.9738  -27.3347   18.8308 C   0  0  0  0  0  0  0  0  0  0  0  0
  -25.6663  -28.4349   20.8276 C   0  0  0  0  0  0  0  0  0  0  0  0
  -22.9688  -27.7407   22.7995 C   0  0  0  0  0  0  0  0  0  0  0  0
  -30.7626  -14.7109   20.7142 C   0  0  0  0  0  0  0  0  0  0  0  0
  -31.1492  -30.8393   16.9095 C   0  0  0  0  0  0  0  0  0  0  0  0
  -25.8984  -26.3490   17.7931 C   0  0  0  0  0  0  0  0  0  0  0  0
  -25.9662  -25.9322   20.7199 C   0  0  0  0  0  0  0  0  0  0  0  0
  -30.3902  -30.6560   18.2212 C   0  0  0  0  0  0  0  0  0  0  0  0
  -29.4883  -12.5710   18.1699 C   0  0  0  0  0  0  0  0  0  0  0  0
  -30.6036  -29.2485   18.7691 C   0  0  0  0  0  0  0  0  0  0  0  0
  -26.2281  -18.6496   24.3752 C   0  0  0  0  0  0  0  0  0  0  0  0
  -25.2614  -17.9501   23.4716 C   0  0  0  0  0  0  0  0  0  0  0  0
  -28.0677  -12.2512   18.6385 C   0  0  0  0  0  0  0  0  0  0  0  0
  -30.4607  -12.6699   19.3432 C   0  0  0  0  0  0  0  0  0  0  0  0
  -28.6324  -13.2854   20.8769 C   0  0  0  0  0  0  0  0  0  0  0  0
  -30.0685  -28.1907   17.7963 C   0  0  1  0  0  0  0  0  0  0  0  0
  -26.1248  -19.0678   22.9226 C   0  0  0  0  0  0  0  0  0  0  0  0
  -26.4753  -27.3965   18.7403 C   0  0  1  0  0  0  0  0  0  0  0  0
  -27.6046  -13.2308   19.7336 C   0  0  2  0  0  0  0  0  0  0  0  0
  -28.9113  -17.9820   18.7836 C   0  0  0  0  0  0  0  0  0  0  0  0
  -21.3170  -28.8396   24.3361 C   0  0  0  0  0  0  0  0  0  0  0  0
  -27.8003  -28.5961   23.0024 C   0  0  0  0  0  0  0  0  0  0  0  0
  -25.9633  -28.7677   24.6948 C   0  0  0  0  0  0  0  0  0  0  0  0
  -26.2170  -30.5313   22.9490 C   0  0  0  0  0  0  0  0  0  0  0  0
  -20.6824  -26.9544   21.0927 C   0  0  0  0  0  0  0  0  0  0  0  0
  -25.8735  -18.6964   19.7492 C   0  0  0  0  0  0  0  0  0  0  0  0
  -30.9121  -16.7355   22.1418 C   0  0  0  0  0  0  0  0  0  0  0  0
  -31.4023  -19.1833   21.8426 C   0  0  0  0  0  0  0  0  0  0  0  0
  -25.8111  -20.0243   19.0024 C   0  0  0  0  0  0  0  0  0  1  0  0
  -25.3424  -28.2523   22.2907 C   0  0  1  0  0  0  0  0  0  0  0  0
  -21.6054  -28.3989   22.9094 C   0  0  2  0  0  0  0  0  0  0  0  0
  -30.6026  -17.9877   21.3007 C   0  0  2  0  0  0  0  0  0  0  0  0
  -26.3320  -29.0147   23.2164 C   0  0  0  0  0  0  0  0  0  0  0  0
  -25.8243  -11.6071   20.2592 N   0  0  0  0  0  0  0  0  0  0  0  0
  -28.5243  -18.5289   22.3855 N   0  0  0  0  0  0  0  0  0  0  0  0
  -29.1833  -18.2511   21.2477 N   0  0  0  0  0  0  0  0  0  0  0  0
  -26.2123  -12.8935   20.2340 N   0  0  0  0  0  0  0  0  0  0  0  0
  -25.9595  -27.2698   20.1049 N   0  0  0  0  0  0  0  0  0  0  0  0
  -29.9639  -13.6160   20.3452 N   0  0  0  0  0  0  0  0  0  0  0  0
  -25.4875  -15.0949   20.7231 N   0  0  0  0  0  0  0  0  0  0  0  0
  -21.9262  -12.5529   21.8416 N   0  0  0  0  0  0  0  0  0  0  0  0
  -28.6268  -28.1041   17.8868 N   0  0  0  0  0  0  0  0  0  0  0  0
  -23.9475  -28.6479   22.4524 N   0  0  0  0  0  0  0  0  0  0  0  0
  -30.2139  -15.5622   21.6655 N   0  0  0  0  0  0  0  0  0  0  0  0
  -31.1644  -20.3859   21.0031 N   0  3  0  0  0  0  0  0  0  0  0  0
  -20.5367  -27.4507   22.4853 N   0  3  0  0  0  0  0  0  0  0  0  0
  -22.7173  -14.7023   21.7272 O   0  0  0  0  0  0  0  0  0  0  0  0
  -28.4989  -26.6414   19.6942 O   0  0  0  0  0  0  0  0  0  0  0  0
  -25.6525  -29.5688   20.3421 O   0  0  0  0  0  0  0  0  0  0  0  0
  -23.1485  -26.5423   23.0049 O   0  0  0  0  0  0  0  0  0  0  0  0
  -31.8796  -14.9176   20.2278 O   0  0  0  0  0  0  0  0  0  0  0  0
  -21.5835   -7.0068   21.4433 O   0  0  0  0  0  0  0  0  0  0  0  0
  -25.8592  -21.1043   19.9339 O   0  0  0  0  0  0  0  0  0  1  0  0
  -24.0842   -2.6828   23.7786 F   0  0  0  0  0  0  0  0  0  0  0  0
  -20.6337   -5.9231   23.8026 F   0  0  0  0  0  0  0  0  0  0  0  0
  1  2  1  0  0  0  0
  1  5  2  0  0  0  0
  2  6  2  0  0  0  0
  3  8  2  0  0  0  0
  3 15  1  0  0  0  0
  4  9  1  0  0  0  0
  4 15  2  0  0  0  0
  5 17  1  0  0  0  0
  6 19  1  0  0  0  0
  7 10  2  0  0  0  0
  7 18  1  0  0  0  0
  8 22  1  0  0  0  0
  9 22  2  0  0  0  0
 10 23  1  0  0  0  0
 11 12  2  0  0  0  0
 11 24  1  0  0  0  0
 12 25  1  0  0  0  0
 13 20  1  0  0  0  0
 13 23  2  0  0  0  0
 14 25  2  0  0  0  0
 14 26  1  0  0  0  0
 15 27  1  0  0  0  0
 16 27  1  0  0  0  0
 16 30  2  0  0  0  0
 16 31  1  0  0  0  0
 17 19  2  0  0  0  0
 17 36  1  0  0  0  0
 18 20  2  0  0  0  0
 18 37  1  0  0  0  0
 19 47  1  0  0  0  0
 20 38  1  0  0  0  0
 21 28  1  0  0  0  0
 21 29  2  0  0  0  0
 21 57  1  0  0  0  0
 22 83  1  0  0  0  0
 23 84  1  0  0  0  0
 24 26  2  0  0  0  0
 24 83  1  0  0  0  0
 25 85  1  0  0  0  0
 26 86  1  0  0  0  0
 27 65  2  0  0  0  0
 28 48  1  0  0  0  0
 28 66  2  0  0  0  0
 29 51  1  0  0  0  0
 29 67  1  0  0  0  0
 30 68  1  0  0  0  0
 30 71  1  0  0  0  0
 31 72  1  0  0  0  0
 31 78  2  0  0  0  0
 32 49  1  0  0  0  0
 32 73  1  0  0  0  0
 32 79  2  0  0  0  0
 33 61  1  0  0  0  0
 33 69  1  0  0  0  0
 33 80  2  0  0  0  0
 34 62  1  0  0  0  0
 34 74  1  0  0  0  0
 34 81  2  0  0  0  0
 35 70  1  0  0  0  0
 35 75  1  0  0  0  0
 35 82  2  0  0  0  0
 36 39  1  0  0  0  0
 37 49  1  0  0  0  0
 38 69  1  0  0  0  0
 39 41  1  0  0  0  0
 40 44  1  0  0  0  0
 40 45  1  0  0  0  0
 41 47  1  0  0  0  0
 42 43  1  0  0  0  0
 42 48  1  0  0  0  0
 43 48  1  0  0  0  0
 44 50  1  0  0  0  0
 45 70  1  0  0  0  0
 46 50  1  0  0  0  0
 46 70  1  0  0  0  0
 47 73  1  0  0  0  0
 49 69  1  0  0  0  0
 50 68  1  0  0  0  0
 52 62  1  0  0  0  0
 53 64  1  0  0  0  0
 54 64  1  0  0  0  0
 55 64  1  0  0  0  0
 56 77  1  0  0  0  0
 57 60  1  0  0  0  0
 58 63  1  0  0  0  0
 58 75  1  0  0  0  0
 59 63  1  0  0  0  0
 59 76  1  0  0  0  0
 60 84  1  0  0  0  0
 61 64  1  0  0  0  0
 61 74  1  0  0  0  0
 62 77  1  0  0  0  0
 63 67  1  0  0  0  0
 65 68  1  0  0  0  0
 66 67  1  0  0  0  0
M  CHG  2  76   1  77   1
M  ISO  4  35 100  60 101  75 100  84 101
M  END
> <Batch ID>
0120

> <Smiles>
CNC(C)C(=O)NC(C(=O)N1Cc2cc([101O:1][101CH2:1]Cc3c(C4CC4)nn(C(CN)C[100NH:0][100C:0](=O)N4CCCC(n5nc(-c6ccc(Oc7ccc(F)cc7F)cc6)c(C(N)=O)c5N)C4)c3C)ccc2CC1C(=O)NC1CCCc2ccccc21)C(C)(C)C

> <Shape>
0.300

> <Color>
0.204

> <Negative vol penalty>
0.000

$$$$

  -OEChem-04052320233D

 85 94  0     1  0  0  0  0  0999 V2000
  -35.3717  -26.4633   26.8285 C   0  0  0  0  0  0  0  0  0  0  0  0
  -34.2272  -25.6747   26.8907 C   0  0  0  0  0  0  0  0  0  0  0  0
  -23.3770   -9.7263   19.8932 C   0  0  0  0  0  0  0  0  0  0  0  0
  -23.8362   -9.8716   22.2607 C   0  0  0  0  0  0  0  0  0  0  0  0
  -35.3566  -27.6561   26.1067 C   0  0  0  0  0  0  0  0  0  0  0  0
  -33.0666  -26.0792   26.2320 C   0  0  0  0  0  0  0  0  0  0  0  0
  -30.8552  -22.2966   23.6930 C   0  0  0  0  0  0  0  0  0  0  0  0
  -22.7217   -8.5116   20.0948 C   0  0  0  0  0  0  0  0  0  0  0  0
  -23.1807   -8.6570   22.4624 C   0  0  0  0  0  0  0  0  0  0  0  0
  -30.1073  -21.3834   24.4350 C   0  0  0  0  0  0  0  0  0  0  0  0
  -19.7036   -7.4633   21.2017 C   0  0  0  0  0  0  0  0  0  0  0  0
  -18.4792   -7.2732   20.5611 C   0  0  0  0  0  0  0  0  0  0  0  0
  -28.0820  -22.5163   23.7763 C   0  0  0  0  0  0  0  0  0  0  0  0
  -19.3859   -5.3608   19.3958 C   0  0  0  0  0  0  0  0  0  0  0  0
  -23.9343  -10.4063   20.9762 C   0  0  0  0  0  0  0  0  0  0  0  0
  -24.0446  -12.9488   20.7996 C   0  0  0  0  0  0  0  0  0  0  0  0
  -34.1981  -28.0705   25.4309 C   0  0  0  0  0  0  0  0  0  0  0  0
  -30.2219  -23.3347   22.9948 C   0  0  0  0  0  0  0  0  0  0  0  0
  -33.0356  -27.2793   25.5017 C   0  0  0  0  0  0  0  0  0  0  0  0
  -28.8239  -23.4398   23.0242 C   0  0  0  0  0  0  0  0  0  0  0  0
  -22.6235   -7.9770   21.3794 C   0  0  0  0  0  0  0  0  0  0  0  0
  -28.7207  -21.4949   24.4791 C   0  0  0  0  0  0  0  0  0  0  0  0
  -20.7692   -6.6022   20.9392 C   0  0  0  0  0  0  0  0  0  0  0  0
  -18.3203   -6.2219   19.6582 C   0  0  0  0  0  0  0  0  0  0  0  0
  -20.6103   -5.5510   20.0363 C   0  0  0  0  0  0  0  0  0  0  0  0
  -24.6119  -11.6608   20.7684 C   0  0  0  0  0  0  0  0  0  0  0  0
  -25.0969  -13.7938   20.5445 C   0  0  0  0  0  0  0  0  0  0  0  0
  -22.6877  -13.3459   21.0379 C   0  0  0  0  0  0  0  0  0  0  0  0
  -30.3054  -26.5092   23.1340 C   0  0  0  0  0  0  0  0  0  0  0  0
  -28.4256  -26.2854   20.4999 C   0  0  0  0  0  0  0  0  0  0  0  0
  -26.2260  -24.4363   18.6589 C   0  0  0  0  0  0  0  0  0  0  0  0
  -31.0128  -13.2870   21.3164 C   0  0  0  0  0  0  0  0  0  0  0  0
  -34.2158  -29.3912   24.7027 C   0  0  0  0  0  0  0  0  0  0  0  0
  -31.0410  -24.2956   22.1774 C   0  0  0  0  0  0  0  0  0  0  0  0
  -28.0943  -24.5241   22.2757 C   0  0  0  0  0  0  0  0  0  0  0  0
  -33.0576  -29.5621   23.7231 C   0  0  0  0  0  0  0  0  0  0  0  0
  -28.4936  -15.9150   30.1491 C   0  0  0  0  0  0  0  0  0  0  0  0
  -29.3013  -13.9566   18.2670 C   0  0  0  0  0  0  0  0  0  0  0  0
  -31.7415  -29.1509   24.3755 C   0  0  0  0  0  0  0  0  0  0  0  0
  -28.5264  -17.0204   29.0733 C   0  0  0  0  0  0  0  0  0  0  0  0
  -29.2319  -15.0104   29.1409 C   0  0  0  0  0  0  0  0  0  0  0  0
  -27.8542  -13.5604   18.5651 C   0  0  0  0  0  0  0  0  0  0  0  0
  -30.2952  -13.0269   18.9598 C   0  0  0  0  0  0  0  0  0  0  0  0
  -28.6492  -12.4844   20.7119 C   0  0  0  0  0  0  0  0  0  0  0  0
  -29.9105  -14.8690   26.0947 C   0  0  0  0  0  0  0  0  0  0  0  0
  -29.7476  -16.7380   24.5232 C   0  0  0  0  0  0  0  0  0  0  0  0
  -31.7647  -27.6719   24.7800 C   0  0  1  0  0  0  0  0  0  0  0  0
  -30.3293  -25.6207   21.9225 C   0  0  1  0  0  0  0  0  0  0  0  0
  -28.6192  -15.8875   28.0182 C   0  0  0  0  0  0  0  0  0  0  0  0
  -29.4988  -16.1548   26.8064 C   0  0  2  0  0  0  0  0  0  0  0  0
  -28.8113  -16.9595   25.7020 C   0  0  1  0  0  0  0  0  0  0  0  0
  -27.6102  -13.4267   20.0803 C   0  0  2  0  0  0  0  0  0  0  0  0
  -24.8314  -24.5344   16.5750 C   0  0  0  0  0  0  0  0  0  0  0  0
  -26.7167  -18.7274   24.4187 C   0  0  0  0  0  0  0  0  0  0  0  0
  -26.4272  -28.0974   21.9256 C   0  0  0  0  0  0  0  0  0  0  0  0
  -24.7024  -27.3949   20.2523 C   0  0  0  0  0  0  0  0  0  0  0  0
  -26.7489  -28.6056   19.4981 C   0  0  0  0  0  0  0  0  0  0  0  0
  -27.6440  -22.1306   17.4622 C   0  0  0  0  0  0  0  0  0  0  0  0
  -28.6328  -18.4340   26.0280 C   0  0  0  0  0  0  0  0  0  0  0  0
  -31.5789  -13.5115   23.7223 C   0  0  0  0  0  0  0  0  0  0  0  0
  -31.5004  -14.9718   24.1266 C   0  0  0  0  0  0  0  0  0  0  0  0
  -26.9391  -26.1997   20.2515 C   0  0  1  0  0  0  0  0  0  0  0  0
  -26.1677  -24.1247   17.1743 C   0  0  2  0  0  0  0  0  0  0  0  0
  -28.0917  -19.2296   24.8381 C   0  0  2  0  0  0  0  0  0  1  0  0
  -26.2180  -27.5550   20.4977 C   0  0  0  0  0  0  0  0  0  0  0  0
  -25.9229  -11.6809   20.5135 N   0  0  0  0  0  0  0  0  0  0  0  0
  -26.1880  -12.9918   20.3820 N   0  0  0  0  0  0  0  0  0  0  0  0
  -28.9398  -25.4431   21.4959 N   0  0  0  0  0  0  0  0  0  0  0  0
  -30.0099  -12.9453   20.3943 N   0  0  0  0  0  0  0  0  0  0  0  0
  -25.1860  -15.1372   20.4455 N   0  0  0  0  0  0  0  0  0  0  0  0
  -21.7332  -12.3494   21.2834 N   0  0  0  0  0  0  0  0  0  0  0  0
  -31.5580  -26.8281   23.6226 N   0  0  0  0  0  0  0  0  0  0  0  0
  -26.7807  -25.6756   18.8992 N   0  0  0  0  0  0  0  0  0  0  0  0
  -30.6573  -13.1880   22.6560 N   0  0  0  0  0  0  0  0  0  0  0  0
  -30.1337  -15.2792   24.6496 N   0  3  1  0  0  0  0  0  0  0  0  0
  -26.3584  -22.6648   16.9436 N   0  3  0  0  0  0  0  0  0  0  0  0
  -22.3290  -14.5477   21.0170 O   0  0  0  0  0  0  0  0  0  0  0  0
  -29.2302  -26.8793   23.5908 O   0  0  0  0  0  0  0  0  0  0  0  0
  -29.1067  -27.0656   19.8298 O   0  0  0  0  0  0  0  0  0  0  0  0
  -25.8168  -23.6597   19.5191 O   0  0  0  0  0  0  0  0  0  0  0  0
  -32.1398  -13.6583   20.9714 O   0  0  0  0  0  0  0  0  0  0  0  0
  -21.9839   -6.7918   21.5766 O   0  0  0  0  0  0  0  0  0  0  0  0
  -27.9883  -20.6053   25.2030 O   0  0  0  0  0  0  0  0  0  1  0  0
  -17.1440   -6.0385   19.0443 F   0  0  0  0  0  0  0  0  0  0  0  0
  -21.6299   -4.7197   19.7811 F   0  0  0  0  0  0  0  0  0  0  0  0
  1  2  1  0  0  0  0
  1  5  2  0  0  0  0
  2  6  2  0  0  0  0
  3  8  2  0  0  0  0
  3 15  1  0  0  0  0
  4  9  1  0  0  0  0
  4 15  2  0  0  0  0
  5 17  1  0  0  0  0
  6 19  1  0  0  0  0
  7 10  2  0  0  0  0
  7 18  1  0  0  0  0
  8 21  1  0  0  0  0
  9 21  2  0  0  0  0
 10 22  1  0  0  0  0
 11 12  2  0  0  0  0
 11 23  1  0  0  0  0
 12 24  1  0  0  0  0
 13 20  1  0  0  0  0
 13 22  2  0  0  0  0
 14 24  2  0  0  0  0
 14 25  1  0  0  0  0
 15 26  1  0  0  0  0
 16 26  1  0  0  0  0
 16 27  2  0  0  0  0
 16 28  1  0  0  0  0
 17 19  2  0  0  0  0
 17 33  1  0  0  0  0
 18 20  2  0  0  0  0
 18 34  1  0  0  0  0
 19 47  1  0  0  0  0
 20 35  1  0  0  0  0
 21 82  1  0  0  0  0
 22 83  1  0  0  0  0
 23 25  2  0  0  0  0
 23 82  1  0  0  0  0
 24 84  1  0  0  0  0
 25 85  1  0  0  0  0
 26 66  2  0  0  0  0
 27 67  1  0  0  0  0
 27 70  1  0  0  0  0
 28 71  1  0  0  0  0
 28 77  2  0  0  0  0
 29 48  1  0  0  0  0
 29 72  1  0  0  0  0
 29 78  2  0  0  0  0
 30 62  1  0  0  0  0
 30 68  1  0  0  0  0
 30 79  2  0  0  0  0
 31 63  1  0  0  0  0
 31 73  1  0  0  0  0
 31 80  2  0  0  0  0
 32 69  1  0  0  0  0
 32 74  1  0  0  0  0
 32 81  2  0  0  0  0
 33 36  1  0  0  0  0
 34 48  1  0  0  0  0
 35 68  1  0  0  0  0
 36 39  1  0  0  0  0
 37 40  1  0  0  0  0
 37 41  1  0  0  0  0
 38 42  1  0  0  0  0
 38 43  1  0  0  0  0
 39 47  1  0  0  0  0
 40 49  1  0  0  0  0
 41 49  1  0  0  0  0
 42 52  1  0  0  0  0
 43 69  1  0  0  0  0
 44 52  1  0  0  0  0
 44 69  1  0  0  0  0
 45 50  1  0  0  0  0
 45 75  1  0  0  0  0
 46 51  1  0  0  0  0
 46 75  1  0  0  0  0
 47 72  1  0  0  0  0
 48 68  1  0  0  0  0
 49 50  1  0  0  0  0
 50 51  1  0  0  0  0
 51 59  1  0  0  0  0
 52 67  1  0  0  0  0
 53 63  1  0  0  0  0
 54 64  1  0  0  0  0
 55 65  1  0  0  0  0
 56 65  1  0  0  0  0
 57 65  1  0  0  0  0
 58 76  1  0  0  0  0
 59 64  1  0  0  0  0
 60 61  1  0  0  0  0
 60 74  1  0  0  0  0
 61 75  1  0  0  0  0
 62 65  1  0  0  0  0
 62 73  1  0  0  0  0
 63 76  1  0  0  0  0
 64 83  1  0  0  0  0
 66 67  1  0  0  0  0
M  CHG  2  75   1  76   1
M  ISO  4  32 100  64 101  74 100  83 101
M  END
> <Batch ID>
0120

> <Smiles>
CNC(C)C(=O)NC(C(=O)N1Cc2cc([101O:1][101CH:1](C)CC3CN(CC[100NH:0][100C:0](=O)N4CCCC(n5nc(-c6ccc(Oc7ccc(F)cc7F)cc6)c(C(N)=O)c5N)C4)CC3C3CCC3)ccc2CC1C(=O)NC1CCCc2ccccc21)C(C)(C)C

> <Shape>
0.166

> <Color>
0.175

> <Negative vol penalty>
0.000

$$$$

  -OEChem-04052320233D

 81 89  0     1  0  0  0  0  0999 V2000
  -27.9157  -38.1346   24.6100 C   0  0  0  0  0  0  0  0  0  0  0  0
  -28.4667  -37.0797   23.8895 C   0  0  0  0  0  0  0  0  0  0  0  0
  -26.8148  -10.9215   21.4995 C   0  0  0  0  0  0  0  0  0  0  0  0
  -25.4888  -12.0280   19.8100 C   0  0  0  0  0  0  0  0  0  0  0  0
  -26.8953  -37.8920   25.5286 C   0  0  0  0  0  0  0  0  0  0  0  0
  -27.9982  -35.7814   24.0880 C   0  0  0  0  0  0  0  0  0  0  0  0
  -27.4975  -31.3643   19.8756 C   0  0  0  0  0  0  0  0  0  0  0  0
  -25.6761  -10.2610   21.9606 C   0  0  0  0  0  0  0  0  0  0  0  0
  -24.3501  -11.3675   20.2711 C   0  0  0  0  0  0  0  0  0  0  0  0
  -28.3138  -30.2820   19.5497 C   0  0  0  0  0  0  0  0  0  0  0  0
  -22.9655   -8.2980   19.9847 C   0  0  0  0  0  0  0  0  0  0  0  0
  -22.1156   -7.7338   19.0335 C   0  0  0  0  0  0  0  0  0  0  0  0
  -26.9647  -28.8514   20.9470 C   0  0  0  0  0  0  0  0  0  0  0  0
  -20.3089   -9.1331   19.8178 C   0  0  0  0  0  0  0  0  0  0  0  0
  -27.4797  -21.8818   16.6204 C   0  0  0  0  0  0  0  0  0  0  0  0
  -27.3046  -19.7087   17.3107 C   0  0  0  0  0  0  0  0  0  0  0  0
  -26.7212  -11.8050   20.4242 C   0  0  0  0  0  0  0  0  0  0  0  0
  -28.7929  -12.0470   18.9554 C   0  0  0  0  0  0  0  0  0  0  0  0
  -26.4074  -36.5914   25.7313 C   0  0  0  0  0  0  0  0  0  0  0  0
  -26.4133  -31.2002   20.7498 C   0  0  0  0  0  0  0  0  0  0  0  0
  -26.9712  -35.5210   25.0111 C   0  0  0  0  0  0  0  0  0  0  0  0
  -26.1346  -29.9326   21.2804 C   0  0  0  0  0  0  0  0  0  0  0  0
  -24.4437  -10.4839   21.3464 C   0  0  0  0  0  0  0  0  0  0  0  0
  -28.0492  -29.0260   20.0877 C   0  0  0  0  0  0  0  0  0  0  0  0
  -22.4872   -9.2797   20.8526 C   0  0  0  0  0  0  0  0  0  0  0  0
  -20.7873   -8.1513   18.9500 C   0  0  0  0  0  0  0  0  0  0  0  0
  -21.1589   -9.6972   20.7691 C   0  0  0  0  0  0  0  0  0  0  0  0
  -27.8970  -12.4881   19.9477 C   0  0  0  0  0  0  0  0  0  0  0  0
  -28.4456  -22.1076   17.5762 C   0  0  0  0  0  0  0  0  0  0  0  0
  -28.2710  -19.9342   18.2661 C   0  0  0  0  0  0  0  0  0  0  0  0
  -29.7317  -13.0460   18.8718 C   0  0  0  0  0  0  0  0  0  0  0  0
  -28.7778  -10.8419   18.1787 C   0  0  0  0  0  0  0  0  0  0  0  0
  -25.6217  -32.3888   23.5895 C   0  0  0  0  0  0  0  0  0  0  0  0
  -22.8554  -30.7806   23.0569 C   0  0  0  0  0  0  0  0  0  0  0  0
  -21.2480  -28.2328   21.4532 C   0  0  0  0  0  0  0  0  0  0  0  0
  -29.6015  -18.8858   20.1307 C   0  0  0  0  0  0  0  0  0  0  0  0
  -25.3356  -36.3718   26.7694 C   0  0  0  0  0  0  0  0  0  0  0  0
  -25.5263  -32.3719   21.0703 C   0  0  0  0  0  0  0  0  0  0  0  0
  -24.9708  -29.6994   22.2076 C   0  0  0  0  0  0  0  0  0  0  0  0
  -24.6382  -35.0193   26.6481 C   0  0  0  0  0  0  0  0  0  0  0  0
  -31.8130  -16.4593   21.5085 C   0  0  0  0  0  0  0  0  0  0  0  0
  -25.6634  -33.9043   26.4676 C   0  0  0  0  0  0  0  0  0  0  0  0
  -31.1444  -15.1252   21.1690 C   0  0  0  0  0  0  0  0  0  0  0  0
  -30.7861  -17.5377   21.8495 C   0  0  0  0  0  0  0  0  0  0  0  0
  -29.0647  -16.3984   20.5050 C   0  0  0  0  0  0  0  0  0  0  0  0
  -26.4728  -34.1022   25.1803 C   0  0  1  0  0  0  0  0  0  0  0  0
  -24.7564  -32.1990   22.3759 C   0  0  1  0  0  0  0  0  0  0  0  0
  -30.0560  -15.2984   20.0915 C   0  0  2  0  0  0  0  0  0  0  0  0
  -18.9964  -27.1439   21.2478 C   0  0  0  0  0  0  0  0  0  0  0  0
  -23.2594  -29.4394   25.7676 C   0  0  0  0  0  0  0  0  0  0  0  0
  -21.5634  -27.7253   25.0942 C   0  0  0  0  0  0  0  0  0  0  0  0
  -20.9032  -30.1234   25.2830 C   0  0  0  0  0  0  0  0  0  0  0  0
  -21.0897  -28.8393   18.5608 C   0  0  0  0  0  0  0  0  0  0  0  0
  -29.0821  -23.4676   17.7153 C   0  0  0  0  0  0  0  0  0  0  0  0
  -28.3498  -24.3972   18.6894 C   0  0  0  0  0  0  0  0  0  0  0  0
  -28.9646  -25.7958   18.7588 C   0  0  0  0  0  0  0  0  0  0  0  0
  -28.2364  -26.6773   19.7644 C   0  0  0  0  0  0  0  0  0  1  0  0
  -22.3560  -29.3863   23.3496 C   0  0  1  0  0  0  0  0  0  0  0  0
  -19.9408  -28.1934   20.6825 C   0  0  2  0  0  0  0  0  0  0  0  0
  -22.0436  -29.1731   24.8577 C   0  0  0  0  0  0  0  0  0  0  0  0
  -26.8918  -20.6783   16.4705 N   0  0  0  0  0  0  0  0  0  0  0  0
  -28.2363  -13.6749   20.4580 N   0  0  0  0  0  0  0  0  0  0  0  0
  -28.8586  -21.1379   18.4162 N   0  0  0  0  0  0  0  0  0  0  0  0
  -29.3559  -13.9880   19.7837 N   0  0  0  0  0  0  0  0  0  0  0  0
  -24.1366  -30.8777   22.4958 N   0  0  0  0  0  0  0  0  0  0  0  0
  -29.7896  -17.6484   20.7820 N   0  0  0  0  0  0  0  0  0  0  0  0
  -30.8337  -13.2019   18.1079 N   0  0  0  0  0  0  0  0  0  0  0  0
  -27.7412   -9.9229   18.3914 N   0  0  0  0  0  0  0  0  0  0  0  0
  -28.6507  -18.8619   19.1109 N   0  0  0  0  0  0  0  0  0  0  0  0
  -25.6966  -33.6971   24.0280 N   0  0  0  0  0  0  0  0  0  0  0  0
  -21.2156  -29.1675   22.4664 N   0  0  0  0  0  0  0  0  0  0  0  0
  -20.1941  -27.8743   19.2489 N   0  3  0  0  0  0  0  0  0  0  0  0
  -29.6665  -10.5801   17.3330 O   0  0  0  0  0  0  0  0  0  0  0  0
  -26.1788  -31.4198   24.0919 O   0  0  0  0  0  0  0  0  0  0  0  0
  -22.1324  -31.7474   23.3101 O   0  0  0  0  0  0  0  0  0  0  0  0
  -22.2012  -27.5044   21.1857 O   0  0  0  0  0  0  0  0  0  0  0  0
  -30.2564  -19.8858   20.4357 O   0  0  0  0  0  0  0  0  0  0  0  0
  -23.3324   -9.8394   21.7960 O   0  0  0  0  0  0  0  0  0  0  0  0
  -28.8447  -27.9681   19.7718 O   0  0  0  0  0  0  0  0  0  1  0  0
  -19.9717   -7.6106   18.0354 F   0  0  0  0  0  0  0  0  0  0  0  0
  -20.6939  -10.6408   21.5994 F   0  0  0  0  0  0  0  0  0  0  0  0
  1  2  1  0  0  0  0
  1  5  2  0  0  0  0
  2  6  2  0  0  0  0
  3  8  2  0  0  0  0
  3 17  1  0  0  0  0
  4  9  1  0  0  0  0
  4 17  2  0  0  0  0
  5 19  1  0  0  0  0
  6 21  1  0  0  0  0
  7 10  2  0  0  0  0
  7 20  1  0  0  0  0
  8 23  1  0  0  0  0
  9 23  2  0  0  0  0
 10 24  1  0  0  0  0
 11 12  2  0  0  0  0
 11 25  1  0  0  0  0
 12 26  1  0  0  0  0
 13 22  1  0  0  0  0
 13 24  2  0  0  0  0
 14 26  2  0  0  0  0
 14 27  1  0  0  0  0
 15 29  1  0  0  0  0
 15 61  2  0  0  0  0
 16 30  2  0  0  0  0
 16 61  1  0  0  0  0
 17 28  1  0  0  0  0
 18 28  1  0  0  0  0
 18 31  2  0  0  0  0
 18 32  1  0  0  0  0
 19 21  2  0  0  0  0
 19 37  1  0  0  0  0
 20 22  2  0  0  0  0
 20 38  1  0  0  0  0
 21 46  1  0  0  0  0
 22 39  1  0  0  0  0
 23 78  1  0  0  0  0
 24 79  1  0  0  0  0
 25 27  2  0  0  0  0
 25 78  1  0  0  0  0
 26 80  1  0  0  0  0
 27 81  1  0  0  0  0
 28 62  2  0  0  0  0
 29 54  1  0  0  0  0
 29 63  2  0  0  0  0
 30 63  1  0  0  0  0
 30 69  1  0  0  0  0
 31 64  1  0  0  0  0
 31 67  1  0  0  0  0
 32 68  1  0  0  0  0
 32 73  2  0  0  0  0
 33 47  1  0  0  0  0
 33 70  1  0  0  0  0
 33 74  2  0  0  0  0
 34 58  1  0  0  0  0
 34 65  1  0  0  0  0
 34 75  2  0  0  0  0
 35 59  1  0  0  0  0
 35 71  1  0  0  0  0
 35 76  2  0  0  0  0
 36 66  1  0  0  0  0
 36 69  1  0  0  0  0
 36 77  2  0  0  0  0
 37 40  1  0  0  0  0
 38 47  1  0  0  0  0
 39 65  1  0  0  0  0
 40 42  1  0  0  0  0
 41 43  1  0  0  0  0
 41 44  1  0  0  0  0
 42 46  1  0  0  0  0
 43 48  1  0  0  0  0
 44 66  1  0  0  0  0
 45 48  1  0  0  0  0
 45 66  1  0  0  0  0
 46 70  1  0  0  0  0
 47 65  1  0  0  0  0
 48 64  1  0  0  0  0
 49 59  1  0  0  0  0
 50 60  1  0  0  0  0
 51 60  1  0  0  0  0
 52 60  1  0  0  0  0
 53 72  1  0  0  0  0
 54 55  1  0  0  0  0
 55 56  1  0  0  0  0
 56 57  1  0  0  0  0
 57 79  1  0  0  0  0
 58 60  1  0  0  0  0
 58 71  1  0  0  0  0
 59 72  1  0  0  0  0
 62 64  1  0  0  0  0
M  CHG  1  72   1
M  ISO  4  36 100  57 101  69 100  79 101
M  END
> <Batch ID>
0120

> <Smiles>
CNC(C)C(=O)NC(C(=O)N1Cc2cc([101O:1][101CH2:1]CCCc3cncc([100NH:0][100C:0](=O)N4CCCC(n5nc(-c6ccc(Oc7ccc(F)cc7F)cc6)c(C(N)=O)c5N)C4)n3)ccc2CC1C(=O)NC1CCCc2ccccc21)C(C)(C)C

> <Shape>
0.333

> <Color>
0.069

> <Negative vol penalty>
0.000

$$$$

  -OEChem-04052320233D

 88 97  0     1  0  0  0  0  0999 V2000
  -18.8247  -27.9675   22.5006 C   0  0  0  0  0  0  0  0  0  0  0  0
  -18.9280  -26.7830   21.7784 C   0  0  0  0  0  0  0  0  0  0  0  0
  -27.7580  -26.0293   19.3893 C   0  0  0  0  0  0  0  0  0  0  0  0
  -29.7045  -25.4253   20.6868 C   0  0  0  0  0  0  0  0  0  0  0  0
  -19.9315  -28.4612   23.1899 C   0  0  0  0  0  0  0  0  0  0  0  0
  -20.1387  -26.0919   21.7442 C   0  0  0  0  0  0  0  0  0  0  0  0
  -20.9072  -20.0195   21.5419 C   0  0  0  0  0  0  0  0  0  0  0  0
  -23.5477  -12.5059   23.2135 C   0  0  0  0  0  0  0  0  0  0  0  0
  -27.4766  -27.0568   20.2897 C   0  0  0  0  0  0  0  0  0  0  0  0
  -29.4231  -26.4528   21.5872 C   0  0  0  0  0  0  0  0  0  0  0  0
  -21.1676  -19.1415   20.4907 C   0  0  0  0  0  0  0  0  0  0  0  0
  -28.5839  -30.1886   20.9207 C   0  0  0  0  0  0  0  0  0  0  0  0
  -28.2380  -31.4338   20.3959 C   0  0  0  0  0  0  0  0  0  0  0  0
  -22.7719  -13.1378   22.2479 C   0  0  0  0  0  0  0  0  0  0  0  0
  -23.5235  -19.2401   20.9999 C   0  0  0  0  0  0  0  0  0  0  0  0
  -26.1040  -31.3159   21.5225 C   0  0  0  0  0  0  0  0  0  0  0  0
  -28.8719  -25.2135   19.5879 C   0  0  0  0  0  0  0  0  0  0  0  0
  -29.9594  -24.2300   17.5004 C   0  0  0  0  0  0  0  0  0  0  0  0
  -21.1537  -27.7708   23.1720 C   0  0  0  0  0  0  0  0  0  0  0  0
  -21.9559  -20.5238   22.3245 C   0  0  0  0  0  0  0  0  0  0  0  0
  -21.2633  -26.5776   22.4328 C   0  0  0  0  0  0  0  0  0  0  0  0
  -24.9045  -12.7951   23.3056 C   0  0  0  0  0  0  0  0  0  0  0  0
  -23.2735  -20.1223   22.0621 C   0  0  0  0  0  0  0  0  0  0  0  0
  -28.3091  -27.2686   21.3886 C   0  0  0  0  0  0  0  0  0  0  0  0
  -22.4762  -18.7539   20.2177 C   0  0  0  0  0  0  0  0  0  0  0  0
  -27.6898  -29.5070   21.7464 C   0  0  0  0  0  0  0  0  0  0  0  0
  -26.9981  -31.9975   20.6968 C   0  0  0  0  0  0  0  0  0  0  0  0
  -26.4499  -30.0707   22.0473 C   0  0  0  0  0  0  0  0  0  0  0  0
  -29.1628  -24.1516   18.6585 C   0  0  0  0  0  0  0  0  0  0  0  0
  -25.4333  -13.7163   22.4158 C   0  0  0  0  0  0  0  0  0  0  0  0
  -23.3960  -14.0438   21.4056 C   0  0  0  0  0  0  0  0  0  0  0  0
  -29.9206  -22.9634   16.9706 C   0  0  0  0  0  0  0  0  0  0  0  0
  -30.6709  -25.3477   16.9526 C   0  0  0  0  0  0  0  0  0  0  0  0
  -23.1234  -23.4212   22.9124 C   0  0  0  0  0  0  0  0  0  0  0  0
  -24.9759  -21.8174   25.0381 C   0  0  0  0  0  0  0  0  0  0  0  0
  -26.4113  -18.8692   25.9841 C   0  0  0  0  0  0  0  0  0  0  0  0
  -29.0311  -17.6843   19.4597 C   0  0  0  0  0  0  0  0  0  0  0  0
  -22.3355  -28.3683   23.8937 C   0  0  0  0  0  0  0  0  0  0  0  0
  -21.6557  -21.4491   23.4717 C   0  0  0  0  0  0  0  0  0  0  0  0
  -24.4328  -20.6192   22.8853 C   0  0  0  0  0  0  0  0  0  0  0  0
  -23.4781  -27.3801   24.1136 C   0  0  0  0  0  0  0  0  0  0  0  0
  -27.1193  -19.0902   16.7273 C   0  0  0  0  0  0  0  0  0  0  0  0
  -25.3362  -12.2141   25.7856 C   0  0  0  0  0  0  0  0  0  0  0  0
  -26.5376  -12.9640   25.3014 C   0  0  0  0  0  0  0  0  0  0  0  0
  -23.7705  -26.6081   22.8309 C   0  0  0  0  0  0  0  0  0  0  0  0
  -27.5112  -20.5666   16.8100 C   0  0  0  0  0  0  0  0  0  0  0  0
  -26.9898  -18.4740   18.1171 C   0  0  0  0  0  0  0  0  0  0  0  0
  -28.5974  -20.0904   19.0535 C   0  0  0  0  0  0  0  0  0  0  0  0
  -25.7423  -12.1219   24.3373 C   0  0  0  0  0  0  0  0  0  0  0  0
  -22.5526  -25.7863   22.3918 C   0  0  1  0  0  0  0  0  0  0  0  0
  -22.8522  -22.3034   23.8792 C   0  0  1  0  0  0  0  0  0  0  0  0
  -28.7663  -20.7654   17.6801 C   0  0  2  0  0  0  0  0  0  0  0  0
  -27.9011  -17.8789   27.7440 C   0  0  0  0  0  0  0  0  0  0  0  0
  -27.4004  -23.1066   23.7078 C   0  0  0  0  0  0  0  0  0  0  0  0
  -28.8408  -21.3975   24.8356 C   0  0  0  0  0  0  0  0  0  0  0  0
  -27.5115  -23.0047   26.2041 C   0  0  0  0  0  0  0  0  0  0  0  0
  -24.3032  -16.9944   26.8785 C   0  0  0  0  0  0  0  0  0  0  0  0
  -26.8845  -14.0669   22.4669 C   0  0  0  0  0  0  0  0  0  0  0  0
  -22.3492  -15.6954   18.2836 C   0  0  0  0  0  0  0  0  0  0  0  0
  -29.3334  -15.2431   19.7857 C   0  0  0  0  0  0  0  0  0  0  0  0
  -28.8733  -14.8580   21.1793 C   0  0  0  0  0  0  0  0  0  0  0  0
  -21.7173  -16.9493   18.8673 C   0  0  0  0  0  0  0  0  0  1  0  0
  -23.3277  -15.0482   19.2510 C   0  0  0  0  0  0  0  0  0  0  0  0
  -26.3225  -21.1373   24.9829 C   0  0  1  0  0  0  0  0  0  0  0  0
  -26.4664  -18.1604   27.3254 C   0  0  2  0  0  0  0  0  0  0  0  0
  -27.4974  -22.1535   24.9157 C   0  0  0  0  0  0  0  0  0  0  0  0
  -28.6550  -22.9317   18.8534 N   0  0  0  0  0  0  0  0  0  0  0  0
  -24.7114  -14.3503   21.4648 N   0  0  0  0  0  0  0  0  0  0  0  0
  -29.1335  -22.2319   17.8107 N   0  0  0  0  0  0  0  0  0  0  0  0
  -24.0886  -21.5270   23.9921 N   0  0  0  0  0  0  0  0  0  0  0  0
  -28.2244  -18.6817   18.8871 N   0  0  0  0  0  0  0  0  0  0  0  0
  -30.4832  -22.4151   15.8728 N   0  0  0  0  0  0  0  0  0  0  0  0
  -30.6038  -26.5763   17.6236 N   0  0  0  0  0  0  0  0  0  0  0  0
  -22.4366  -24.5869   23.1933 N   0  0  0  0  0  0  0  0  0  0  0  0
  -26.3739  -20.2397   26.1318 N   0  0  0  0  0  0  0  0  0  0  0  0
  -28.6044  -16.3768   19.2620 N   0  0  0  0  0  0  0  0  0  0  0  0
  -25.7339  -16.8644   27.2568 N   0  3  0  0  0  0  0  0  0  0  0  0
  -27.4443  -14.4502   21.1425 N   0  3  0  0  0  0  0  0  0  0  0  0
  -31.3327  -25.2637   15.8903 O   0  0  0  0  0  0  0  0  0  0  0  0
  -23.8995  -23.2400   21.9816 O   0  0  0  0  0  0  0  0  0  0  0  0
  -24.7180  -22.5727   25.9787 O   0  0  0  0  0  0  0  0  0  0  0  0
  -26.4059  -18.2675   24.9125 O   0  0  0  0  0  0  0  0  0  0  0  0
  -30.0592  -17.9398   20.0959 O   0  0  0  0  0  0  0  0  0  0  0  0
  -28.0350  -28.2712   22.2673 O   0  0  0  0  0  0  0  0  0  0  0  0
  -22.7332  -17.8975   19.1918 O   0  0  0  0  0  0  0  0  0  1  0  0
  -22.6523  -14.6799   20.4460 O   0  0  0  0  0  0  0  0  0  0  0  0
  -26.6667  -33.1940   20.1940 F   0  0  0  0  0  0  0  0  0  0  0  0
  -25.5873  -29.4212   22.8409 F   0  0  0  0  0  0  0  0  0  0  0  0
  1  2  1  0  0  0  0
  1  5  2  0  0  0  0
  2  6  2  0  0  0  0
  3  9  2  0  0  0  0
  3 17  1  0  0  0  0
  4 10  1  0  0  0  0
  4 17  2  0  0  0  0
  5 19  1  0  0  0  0
  6 21  1  0  0  0  0
  7 11  2  0  0  0  0
  7 20  1  0  0  0  0
  8 14  2  0  0  0  0
  8 22  1  0  0  0  0
  9 24  1  0  0  0  0
 10 24  2  0  0  0  0
 11 25  1  0  0  0  0
 12 13  2  0  0  0  0
 12 26  1  0  0  0  0
 13 27  1  0  0  0  0
 14 31  1  0  0  0  0
 15 23  1  0  0  0  0
 15 25  2  0  0  0  0
 16 27  2  0  0  0  0
 16 28  1  0  0  0  0
 17 29  1  0  0  0  0
 18 29  1  0  0  0  0
 18 32  2  0  0  0  0
 18 33  1  0  0  0  0
 19 21  2  0  0  0  0
 19 38  1  0  0  0  0
 20 23  2  0  0  0  0
 20 39  1  0  0  0  0
 21 50  1  0  0  0  0
 22 30  2  0  0  0  0
 22 49  1  0  0  0  0
 23 40  1  0  0  0  0
 24 84  1  0  0  0  0
 25 85  1  0  0  0  0
 26 28  2  0  0  0  0
 26 84  1  0  0  0  0
 27 87  1  0  0  0  0
 28 88  1  0  0  0  0
 29 67  2  0  0  0  0
 30 58  1  0  0  0  0
 30 68  1  0  0  0  0
 31 68  2  0  0  0  0
 31 86  1  0  0  0  0
 32 69  1  0  0  0  0
 32 72  1  0  0  0  0
 33 73  1  0  0  0  0
 33 79  2  0  0  0  0
 34 51  1  0  0  0  0
 34 74  1  0  0  0  0
 34 80  2  0  0  0  0
 35 64  1  0  0  0  0
 35 70  1  0  0  0  0
 35 81  2  0  0  0  0
 36 65  1  0  0  0  0
 36 75  1  0  0  0  0
 36 82  2  0  0  0  0
 37 71  1  0  0  0  0
 37 76  1  0  0  0  0
 37 83  2  0  0  0  0
 38 41  1  0  0  0  0
 39 51  1  0  0  0  0
 40 70  1  0  0  0  0
 41 45  1  0  0  0  0
 42 46  1  0  0  0  0
 42 47  1  0  0  0  0
 43 44  1  0  0  0  0
 43 49  1  0  0  0  0
 44 49  1  0  0  0  0
 45 50  1  0  0  0  0
 46 52  1  0  0  0  0
 47 71  1  0  0  0  0
 48 52  1  0  0  0  0
 48 71  1  0  0  0  0
 50 74  1  0  0  0  0
 51 70  1  0  0  0  0
 52 69  1  0  0  0  0
 53 65  1  0  0  0  0
 54 66  1  0  0  0  0
 55 66  1  0  0  0  0
 56 66  1  0  0  0  0
 57 77  1  0  0  0  0
 58 78  1  0  0  0  0
 59 62  1  0  0  0  0
 59 63  1  0  0  0  0
 60 61  1  0  0  0  0
 60 76  1  0  0  0  0
 61 78  1  0  0  0  0
 62 85  1  0  0  0  0
 63 86  1  0  0  0  0
 64 66  1  0  0  0  0
 64 75  1  0  0  0  0
 65 77  1  0  0  0  0
 67 69  1  0  0  0  0
M  CHG  2  77   1  78   1
M  ISO  4  37 100  62 101  76 100  85 101
M  END
> <Batch ID>
0120

> <Smiles>
CNC(C)C(=O)NC(C(=O)N1Cc2cc([101O:1][101CH2:1]CCOc3ccc(C4CC4)c(CNCC[100NH:0][100C:0](=O)N4CCCC(n5nc(-c6ccc(Oc7ccc(F)cc7F)cc6)c(C(N)=O)c5N)C4)n3)ccc2CC1C(=O)NC1CCCc2ccccc21)C(C)(C)C

> <Shape>
0.187

> <Color>
0.060

> <Negative vol penalty>
0.000

$$$$

  -OEChem-04052320233D

 86 94  0     1  0  0  0  0  0999 V2000
  -21.9923  -33.0750   13.6815 C   0  0  0  0  0  0  0  0  0  0  0  0
  -23.0403  -32.2610   14.0992 C   0  0  0  0  0  0  0  0  0  0  0  0
  -22.7103  -10.5244   20.5238 C   0  0  0  0  0  0  0  0  0  0  0  0
  -24.4480   -9.4472   21.8113 C   0  0  0  0  0  0  0  0  0  0  0  0
  -21.0950  -33.5890   14.6167 C   0  0  0  0  0  0  0  0  0  0  0  0
  -23.1924  -31.9615   15.4525 C   0  0  0  0  0  0  0  0  0  0  0  0
  -25.2365  -26.7118   17.8543 C   0  0  0  0  0  0  0  0  0  0  0  0
  -21.9315   -9.3704   20.6095 C   0  0  0  0  0  0  0  0  0  0  0  0
  -23.6691   -8.2933   21.8970 C   0  0  0  0  0  0  0  0  0  0  0  0
  -26.4861  -26.3246   18.3361 C   0  0  0  0  0  0  0  0  0  0  0  0
  -19.9358   -7.8761   22.8937 C   0  0  0  0  0  0  0  0  0  0  0  0
  -18.5851   -8.0275   23.2072 C   0  0  0  0  0  0  0  0  0  0  0  0
  -25.7824  -26.8655   20.5791 C   0  0  0  0  0  0  0  0  0  0  0  0
  -17.9820   -6.9845   21.1131 C   0  0  0  0  0  0  0  0  0  0  0  0
  -23.9686  -10.5628   21.1247 C   0  0  0  0  0  0  0  0  0  0  0  0
  -24.7851  -12.8413   21.9305 C   0  0  0  0  0  0  0  0  0  0  0  0
  -21.2305  -33.2878   15.9811 C   0  0  0  0  0  0  0  0  0  0  0  0
  -24.2524  -27.1899   18.7315 C   0  0  0  0  0  0  0  0  0  0  0  0
  -22.2969  -32.4731   16.4070 C   0  0  0  0  0  0  0  0  0  0  0  0
  -24.5201  -27.2557   20.1063 C   0  0  0  0  0  0  0  0  0  0  0  0
  -22.4108   -8.2549   21.2961 C   0  0  0  0  0  0  0  0  0  0  0  0
  -26.7603  -26.4041   19.6983 C   0  0  0  0  0  0  0  0  0  0  0  0
  -20.3096   -7.2790   21.6897 C   0  0  0  0  0  0  0  0  0  0  0  0
  -17.6082   -7.5817   22.3170 C   0  0  0  0  0  0  0  0  0  0  0  0
  -19.3327   -6.8332   20.7995 C   0  0  0  0  0  0  0  0  0  0  0  0
  -24.7739  -11.7543   21.0360 C   0  0  0  0  0  0  0  0  0  0  0  0
  -25.7124  -13.7081   21.4059 C   0  0  0  0  0  0  0  0  0  0  0  0
  -24.0254  -13.0487   23.1286 C   0  0  0  0  0  0  0  0  0  0  0  0
  -22.6878  -29.9366   19.0653 C   0  0  0  0  0  0  0  0  0  0  0  0
  -21.0335  -28.2728   21.3052 C   0  0  0  0  0  0  0  0  0  0  0  0
  -20.9524  -25.6624   23.5020 C   0  0  0  0  0  0  0  0  0  0  0  0
  -27.5333  -16.3029   16.6828 C   0  0  0  0  0  0  0  0  0  0  0  0
  -20.2637  -33.9053   16.9603 C   0  0  0  0  0  0  0  0  0  0  0  0
  -22.9003  -27.5785   18.1994 C   0  0  0  0  0  0  0  0  0  0  0  0
  -23.4910  -27.7428   21.0923 C   0  0  0  0  0  0  0  0  0  0  0  0
  -20.2747  -33.2352   18.3318 C   0  0  0  0  0  0  0  0  0  0  0  0
  -29.0924  -13.1010   17.7064 C   0  0  0  0  0  0  0  0  0  0  0  0
  -21.7072  -33.0281   18.8133 C   0  0  0  0  0  0  0  0  0  0  0  0
  -28.0631  -12.5285   18.6794 C   0  0  0  0  0  0  0  0  0  0  0  0
  -28.4442  -14.0095   16.6665 C   0  0  0  0  0  0  0  0  0  0  0  0
  -27.2463  -18.7463   16.9554 C   0  0  0  0  0  0  0  0  0  0  0  0
  -26.6001  -14.5388   18.2290 C   0  0  0  0  0  0  0  0  0  0  0  0
  -27.5274  -17.3719   18.9826 C   0  0  0  0  0  0  0  0  0  0  0  0
  -28.4649  -19.5849   17.3053 C   0  0  0  0  0  0  0  0  0  0  0  0
  -22.4805  -32.1054   17.8635 C   0  0  1  0  0  0  0  0  0  0  0  0
  -22.1484  -28.5353   19.1194 C   0  0  1  0  0  0  0  0  0  0  0  0
  -27.2272  -13.6523   19.3158 C   0  0  1  0  0  0  0  0  0  0  0  0
  -28.7663  -18.1765   19.4038 C   0  0  1  0  0  0  0  0  0  0  0  0
  -31.7294  -15.6954   19.6164 C   0  0  0  0  0  0  0  0  0  0  0  0
  -19.4799  -24.5801   25.2218 C   0  0  0  0  0  0  0  0  0  0  0  0
  -31.1344  -23.3499   18.4891 C   0  0  0  0  0  0  0  0  0  0  0  0
  -30.6582  -25.1460   20.9922 C   0  0  0  0  0  0  0  0  0  0  0  0
  -21.6879  -30.5123   23.2715 C   0  0  0  0  0  0  0  0  0  0  0  0
  -21.0436  -28.9697   25.1352 C   0  0  0  0  0  0  0  0  0  0  0  0
  -19.3508  -29.6361   23.4285 C   0  0  0  0  0  0  0  0  0  0  0  0
  -20.8692  -23.1157   21.9966 C   0  0  0  0  0  0  0  0  0  0  0  0
  -30.0698  -17.4818   19.0107 C   0  0  0  0  0  0  0  0  0  0  0  0
  -30.4465  -16.4040   20.0208 C   0  0  0  0  0  0  0  0  0  0  0  0
  -29.1968  -21.9259   19.3119 C   0  0  0  0  0  0  0  0  0  0  0  0
  -29.7567  -20.5094   19.2373 C   0  0  0  0  0  0  0  0  0  0  0  0
  -28.6671  -25.0047   19.4498 C   0  0  0  0  0  0  0  0  0  1  0  0
  -21.1909  -28.0257   22.7861 C   0  0  1  0  0  0  0  0  0  0  0  0
  -19.9034  -24.5962   23.7612 C   0  0  2  0  0  0  0  0  0  0  0  0
  -30.2632  -22.9779   19.6954 C   0  0  2  0  0  0  0  0  0  0  0  0
  -29.6038  -24.2138   20.3764 C   0  0  1  0  0  0  0  0  0  0  0  0
  -20.8386  -29.2786   23.6368 C   0  0  0  0  0  0  0  0  0  0  0  0
  -25.6262  -11.9138   20.0200 N   0  0  0  0  0  0  0  0  0  0  0  0
  -26.1816  -13.1112   20.2729 N   0  0  0  0  0  0  0  0  0  0  0  0
  -22.1861  -28.1172   20.5223 N   0  0  0  0  0  0  0  0  0  0  0  0
  -27.6183  -15.0412   17.2940 N   0  0  0  0  0  0  0  0  0  0  0  0
  -27.3352  -17.4055   17.5274 N   0  0  0  0  0  0  0  0  0  0  0  0
  -26.1639  -14.9152   21.8077 N   0  0  0  0  0  0  0  0  0  0  0  0
  -23.1170  -12.0573   23.5238 N   0  0  0  0  0  0  0  0  0  0  0  0
  -22.1104  -30.7244   18.0878 N   0  0  0  0  0  0  0  0  0  0  0  0
  -20.3836  -26.8496   23.0918 N   0  0  0  0  0  0  0  0  0  0  0  0
  -28.6616  -19.5729   18.8049 N   0  3  1  0  0  0  0  0  0  0  0  0
  -20.4364  -23.2492   23.4115 N   0  3  0  0  0  0  0  0  0  0  0  0
  -24.1366  -14.0900   23.8192 O   0  0  0  0  0  0  0  0  0  0  0  0
  -23.5621  -30.2784   19.8531 O   0  0  0  0  0  0  0  0  0  0  0  0
  -19.9269  -28.5853   20.8585 O   0  0  0  0  0  0  0  0  0  0  0  0
  -22.1559  -25.4632   23.6523 O   0  0  0  0  0  0  0  0  0  0  0  0
  -27.6358  -16.4355   15.4568 O   0  0  0  0  0  0  0  0  0  0  0  0
  -21.6510   -7.1287   21.3802 O   0  0  0  0  0  0  0  0  0  0  0  0
  -27.9872  -26.0250   20.1741 O   0  0  0  0  0  0  0  0  0  1  0  0
  -16.3112   -7.7257   22.6189 F   0  0  0  0  0  0  0  0  0  0  0  0
  -19.6858   -6.2577   19.6419 F   0  0  0  0  0  0  0  0  0  0  0  0
  1  2  1  0  0  0  0
  1  5  2  0  0  0  0
  2  6  2  0  0  0  0
  3  8  2  0  0  0  0
  3 15  1  0  0  0  0
  4  9  1  0  0  0  0
  4 15  2  0  0  0  0
  5 17  1  0  0  0  0
  6 19  1  0  0  0  0
  7 10  2  0  0  0  0
  7 18  1  0  0  0  0
  8 21  1  0  0  0  0
  9 21  2  0  0  0  0
 10 22  1  0  0  0  0
 11 12  2  0  0  0  0
 11 23  1  0  0  0  0
 12 24  1  0  0  0  0
 13 20  1  0  0  0  0
 13 22  2  0  0  0  0
 14 24  2  0  0  0  0
 14 25  1  0  0  0  0
 15 26  1  0  0  0  0
 16 26  1  0  0  0  0
 16 27  2  0  0  0  0
 16 28  1  0  0  0  0
 17 19  2  0  0  0  0
 17 33  1  0  0  0  0
 18 20  2  0  0  0  0
 18 34  1  0  0  0  0
 19 45  1  0  0  0  0
 20 35  1  0  0  0  0
 21 83  1  0  0  0  0
 22 84  1  0  0  0  0
 23 25  2  0  0  0  0
 23 83  1  0  0  0  0
 24 85  1  0  0  0  0
 25 86  1  0  0  0  0
 26 67  2  0  0  0  0
 27 68  1  0  0  0  0
 27 72  1  0  0  0  0
 28 73  1  0  0  0  0
 28 78  2  0  0  0  0
 29 46  1  0  0  0  0
 29 74  1  0  0  0  0
 29 79  2  0  0  0  0
 30 62  1  0  0  0  0
 30 69  1  0  0  0  0
 30 80  2  0  0  0  0
 31 63  1  0  0  0  0
 31 75  1  0  0  0  0
 31 81  2  0  0  0  0
 32 70  1  0  0  0  0
 32 71  1  0  0  0  0
 32 82  2  0  0  0  0
 33 36  1  0  0  0  0
 34 46  1  0  0  0  0
 35 69  1  0  0  0  0
 36 38  1  0  0  0  0
 37 39  1  0  0  0  0
 37 40  1  0  0  0  0
 38 45  1  0  0  0  0
 39 47  1  0  0  0  0
 40 70  1  0  0  0  0
 41 44  1  0  0  0  0
 41 71  1  0  0  0  0
 42 47  1  0  0  0  0
 42 70  1  0  0  0  0
 43 48  1  0  0  0  0
 43 71  1  0  0  0  0
 44 76  1  0  0  0  0
 45 74  1  0  0  0  0
 46 69  1  0  0  0  0
 47 68  1  0  0  0  0
 48 57  1  0  0  0  0
 48 76  1  0  0  0  0
 49 58  1  0  0  0  0
 50 63  1  0  0  0  0
 51 64  1  0  0  0  0
 52 65  1  0  0  0  0
 53 66  1  0  0  0  0
 54 66  1  0  0  0  0
 55 66  1  0  0  0  0
 56 77  1  0  0  0  0
 57 58  1  0  0  0  0
 59 60  1  0  0  0  0
 59 64  1  0  0  0  0
 60 76  1  0  0  0  0
 61 65  1  0  0  0  0
 61 84  1  0  0  0  0
 62 66  1  0  0  0  0
 62 75  1  0  0  0  0
 63 77  1  0  0  0  0
 64 65  1  0  0  0  0
 67 68  1  0  0  0  0
M  CHG  2  76   1  77   1
M  ISO  4  32 100  61 101  71 100  84 101
M  END
> <Batch ID>
0120

> <Smiles>
CCCC1C[100N:0]([100C:0](=O)N2CCCC(n3nc(-c4ccc(Oc5ccc(F)cc5F)cc4)c(C(N)=O)c3N)C2)CCN1CCC(C)C(C)[101CH2:1][101O:1]c1ccc2c(c1)CN(C(=O)C(NC(=O)C(C)NC)C(C)(C)C)C(C(=O)NC1CCCc3ccccc31)C2

> <Shape>
0.240

> <Color>
0.077

> <Negative vol penalty>
0.000

$$$$

  -OEChem-04052320233D

 87 96  0     1  0  0  0  0  0999 V2000
  -22.5657   -8.1921   20.8204 C   0  0  0  0  0  0  0  0  0  0  0  0
  -21.8213   -9.3054   20.4438 C   0  0  0  0  0  0  0  0  0  0  0  0
  -28.9340  -26.5565   18.3680 C   0  0  0  0  0  0  0  0  0  0  0  0
  -27.0021  -25.1226   18.1476 C   0  0  0  0  0  0  0  0  0  0  0  0
  -23.6978   -8.3496   21.6188 C   0  0  0  0  0  0  0  0  0  0  0  0
  -22.2080  -10.5768   20.8663 C   0  0  0  0  0  0  0  0  0  0  0  0
  -22.2086  -17.4120   18.7225 C   0  0  0  0  0  0  0  0  0  0  0  0
  -29.7638  -25.4355   18.3876 C   0  0  0  0  0  0  0  0  0  0  0  0
  -27.8319  -24.0016   18.1671 C   0  0  0  0  0  0  0  0  0  0  0  0
  -21.8208  -18.6779   19.1595 C   0  0  0  0  0  0  0  0  0  0  0  0
  -31.0705  -23.2643   16.1490 C   0  0  0  0  0  0  0  0  0  0  0  0
  -32.2247  -23.2984   15.3665 C   0  0  0  0  0  0  0  0  0  0  0  0
  -23.8396  -18.8371   20.4704 C   0  0  0  0  0  0  0  0  0  0  0  0
  -33.5761  -23.0007   17.3470 C   0  0  0  0  0  0  0  0  0  0  0  0
  -18.6743  -22.7111   24.2909 C   0  0  0  0  0  0  0  0  0  0  0  0
  -27.5531  -26.4000   18.2481 C   0  0  0  0  0  0  0  0  0  0  0  0
  -26.2808  -28.2894   17.0995 C   0  0  0  0  0  0  0  0  0  0  0  0
  -24.1041   -9.6245   22.0432 C   0  0  0  0  0  0  0  0  0  0  0  0
  -23.4115  -16.8437   19.1655 C   0  0  0  0  0  0  0  0  0  0  0  0
  -23.3459  -10.7513   21.6721 C   0  0  0  0  0  0  0  0  0  0  0  0
  -24.2415  -17.5649   20.0356 C   0  0  0  0  0  0  0  0  0  0  0  0
  -29.2128  -24.1580   18.2871 C   0  0  0  0  0  0  0  0  0  0  0  0
  -22.6349  -19.3894   20.0358 C   0  0  0  0  0  0  0  0  0  0  0  0
  -31.1691  -23.0984   17.5305 C   0  0  0  0  0  0  0  0  0  0  0  0
  -33.4775  -23.1666   15.9655 C   0  0  0  0  0  0  0  0  0  0  0  0
  -32.4219  -22.9666   18.1295 C   0  0  0  0  0  0  0  0  0  0  0  0
  -26.6954  -27.5576   18.2284 C   0  0  0  0  0  0  0  0  0  0  0  0
  -18.6719  -25.3335   23.7902 C   0  0  0  0  0  0  0  0  0  0  0  0
  -18.8957  -23.1921   23.0192 C   0  0  0  0  0  0  0  0  0  0  0  0
  -18.4498  -24.8523   25.0618 C   0  0  0  0  0  0  0  0  0  0  0  0
  -25.4831  -29.2844   17.6093 C   0  0  0  0  0  0  0  0  0  0  0  0
  -26.5892  -28.0876   15.7139 C   0  0  0  0  0  0  0  0  0  0  0  0
  -24.1876  -14.2491   20.8298 C   0  0  0  0  0  0  0  0  0  0  0  0
  -27.2134  -15.1581   20.0942 C   0  0  0  0  0  0  0  0  0  0  0  0
  -29.3525  -17.6695   19.2204 C   0  0  0  0  0  0  0  0  0  0  0  0
  -22.2511  -29.7501   22.6281 C   0  0  0  0  0  0  0  0  0  0  0  0
  -25.3080   -9.7401   22.9443 C   0  0  0  0  0  0  0  0  0  0  0  0
  -23.8284  -15.4883   18.6638 C   0  0  0  0  0  0  0  0  0  0  0  0
  -25.5525  -17.0078   20.5248 C   0  0  0  0  0  0  0  0  0  0  0  0
  -25.8638  -11.1587   23.0392 C   0  0  0  0  0  0  0  0  0  0  0  0
  -24.8506  -31.9290   21.5460 C   0  0  0  0  0  0  0  0  0  0  0  0
  -24.7352  -12.1604   23.2627 C   0  0  0  0  0  0  0  0  0  0  0  0
  -18.2189  -27.0856   22.0535 C   0  0  0  0  0  0  0  0  0  0  0  0
  -25.5808  -31.1218   20.4711 C   0  0  0  0  0  0  0  0  0  0  0  0
  -19.4394  -27.6575   21.3372 C   0  0  0  0  0  0  0  0  0  0  0  0
  -24.3657  -31.0390   22.6882 C   0  0  0  0  0  0  0  0  0  0  0  0
  -24.2746  -29.0802   21.1953 C   0  0  0  0  0  0  0  0  0  0  0  0
  -23.7475  -12.1493   22.0898 C   0  0  1  0  0  0  0  0  0  0  0  0
  -18.6729  -26.7959   23.5019 C   0  0  2  0  0  0  0  0  0  0  0  0
  -24.8271  -14.7921   19.5832 C   0  0  1  0  0  0  0  0  0  0  0  0
  -24.7336  -29.9263   19.9954 C   0  0  2  0  0  0  0  0  0  0  0  0
  -20.1975  -28.3682   22.4485 C   0  0  1  0  0  0  0  0  0  0  0  0
  -20.1006  -27.3784   23.6083 C   0  0  1  0  0  0  0  0  0  0  0  0
  -18.2002  -25.7718   26.2082 C   0  0  0  0  0  0  0  0  0  0  0  0
  -31.7725  -18.1131   18.7263 C   0  0  0  0  0  0  0  0  0  0  0  0
  -27.8432  -15.0305   23.0770 C   0  0  0  0  0  0  0  0  0  0  0  0
  -29.9128  -16.3653   22.6261 C   0  0  0  0  0  0  0  0  0  0  0  0
  -29.6340  -14.1122   21.5925 C   0  0  0  0  0  0  0  0  0  0  0  0
  -28.7465  -18.5595   16.4636 C   0  0  0  0  0  0  0  0  0  0  0  0
  -19.1452  -22.2426   21.8748 C   0  0  0  0  0  0  0  0  0  0  0  0
  -20.6230  -21.9053   21.6654 C   0  0  0  0  0  0  0  0  0  0  0  0
  -20.8578  -20.8796   20.5626 C   0  0  0  0  0  0  0  0  0  1  0  0
  -28.2491  -16.0474   20.7388 C   0  0  1  0  0  0  0  0  0  0  0  0
  -30.4153  -17.7571   18.1399 C   0  0  2  0  0  0  0  0  0  0  0  0
  -28.8842  -15.3988   22.0011 C   0  0  0  0  0  0  0  0  0  0  0  0
  -18.4474  -23.5326   25.3350 N   0  0  0  0  0  0  0  0  0  0  0  0
  -26.2019  -28.0462   19.3694 N   0  0  0  0  0  0  0  0  0  0  0  0
  -18.8985  -24.5119   22.7461 N   0  0  0  0  0  0  0  0  0  0  0  0
  -25.4691  -29.0958   18.9600 N   0  0  0  0  0  0  0  0  0  0  0  0
  -25.9132  -15.6762   20.0107 N   0  0  0  0  0  0  0  0  0  0  0  0
  -23.5672  -29.9256   22.1698 N   0  0  0  0  0  0  0  0  0  0  0  0
  -24.7992  -30.2937   17.0295 N   0  0  0  0  0  0  0  0  0  0  0  0
  -27.4242  -27.0177   15.3642 N   0  0  0  0  0  0  0  0  0  0  0  0
  -24.2916  -12.8778   20.9639 N   0  0  0  0  0  0  0  0  0  0  0  0
  -29.2085  -16.3817   19.6918 N   0  0  0  0  0  0  0  0  0  0  0  0
  -21.5621  -28.6745   22.0812 N   0  0  0  0  0  0  0  0  0  0  0  0
  -30.0495  -18.7966   17.1366 N   0  3  0  0  0  0  0  0  0  0  0  0
  -26.1510  -28.8439   14.8142 O   0  0  0  0  0  0  0  0  0  0  0  0
  -23.6417  -15.0177   21.6127 O   0  0  0  0  0  0  0  0  0  0  0  0
  -27.5472  -14.0475   19.6736 O   0  0  0  0  0  0  0  0  0  0  0  0
  -28.7166  -18.6464   19.6099 O   0  0  0  0  0  0  0  0  0  0  0  0
  -21.7269  -30.4998   23.4589 O   0  0  0  0  0  0  0  0  0  0  0  0
  -20.2720  -28.0326   24.8553 O   0  0  0  0  0  0  0  0  0  0  0  0
  -30.0222  -23.0640   18.3059 O   0  0  0  0  0  0  0  0  0  0  0  0
  -22.2585  -20.6250   20.4644 O   0  0  0  0  0  0  0  0  0  1  0  0
  -34.5857  -23.1979   15.2138 F   0  0  0  0  0  0  0  0  0  0  0  0
  -32.5229  -22.8059   19.4560 F   0  0  0  0  0  0  0  0  0  0  0  0
  1  2  1  0  0  0  0
  1  5  2  0  0  0  0
  2  6  2  0  0  0  0
  3  8  2  0  0  0  0
  3 16  1  0  0  0  0
  4  9  1  0  0  0  0
  4 16  2  0  0  0  0
  5 18  1  0  0  0  0
  6 20  1  0  0  0  0
  7 10  2  0  0  0  0
  7 19  1  0  0  0  0
  8 22  1  0  0  0  0
  9 22  2  0  0  0  0
 10 23  1  0  0  0  0
 11 12  2  0  0  0  0
 11 24  1  0  0  0  0
 12 25  1  0  0  0  0
 13 21  1  0  0  0  0
 13 23  2  0  0  0  0
 14 25  2  0  0  0  0
 14 26  1  0  0  0  0
 15 29  1  0  0  0  0
 15 66  2  0  0  0  0
 16 27  1  0  0  0  0
 17 27  1  0  0  0  0
 17 31  2  0  0  0  0
 17 32  1  0  0  0  0
 18 20  2  0  0  0  0
 18 37  1  0  0  0  0
 19 21  2  0  0  0  0
 19 38  1  0  0  0  0
 20 48  1  0  0  0  0
 21 39  1  0  0  0  0
 22 84  1  0  0  0  0
 23 85  1  0  0  0  0
 24 26  2  0  0  0  0
 24 84  1  0  0  0  0
 25 86  1  0  0  0  0
 26 87  1  0  0  0  0
 27 67  2  0  0  0  0
 28 30  2  0  0  0  0
 28 49  1  0  0  0  0
 28 68  1  0  0  0  0
 29 60  1  0  0  0  0
 29 68  2  0  0  0  0
 30 54  1  0  0  0  0
 30 66  1  0  0  0  0
 31 69  1  0  0  0  0
 31 72  1  0  0  0  0
 32 73  1  0  0  0  0
 32 78  2  0  0  0  0
 33 50  1  0  0  0  0
 33 74  1  0  0  0  0
 33 79  2  0  0  0  0
 34 63  1  0  0  0  0
 34 70  1  0  0  0  0
 34 80  2  0  0  0  0
 35 64  1  0  0  0  0
 35 75  1  0  0  0  0
 35 81  2  0  0  0  0
 36 71  1  0  0  0  0
 36 76  1  0  0  0  0
 36 82  2  0  0  0  0
 37 40  1  0  0  0  0
 38 50  1  0  0  0  0
 39 70  1  0  0  0  0
 40 42  1  0  0  0  0
 41 44  1  0  0  0  0
 41 46  1  0  0  0  0
 42 48  1  0  0  0  0
 43 45  1  0  0  0  0
 43 49  1  0  0  0  0
 44 51  1  0  0  0  0
 45 52  1  0  0  0  0
 46 71  1  0  0  0  0
 47 51  1  0  0  0  0
 47 71  1  0  0  0  0
 48 74  1  0  0  0  0
 49 53  1  0  0  0  0
 50 70  1  0  0  0  0
 51 69  1  0  0  0  0
 52 53  1  0  0  0  0
 52 76  1  0  0  0  0
 53 83  1  0  0  0  0
 55 64  1  0  0  0  0
 56 65  1  0  0  0  0
 57 65  1  0  0  0  0
 58 65  1  0  0  0  0
 59 77  1  0  0  0  0
 60 61  1  0  0  0  0
 61 62  1  0  0  0  0
 62 85  1  0  0  0  0
 63 65  1  0  0  0  0
 63 75  1  0  0  0  0
 64 77  1  0  0  0  0
 67 69  1  0  0  0  0
M  CHG  1  77   1
M  ISO  4  36 100  62 101  76 100  85 101
M  END
> <Batch ID>
0120

> <Smiles>
CNC(C)C(=O)NC(C(=O)N1Cc2cc([101O:1][101CH2:1]CCc3cnc(C)c(C4CCC([100NH:0][100C:0](=O)N5CCCC(n6nc(-c7ccc(Oc8ccc(F)cc8F)cc7)c(C(N)=O)c6N)C5)C4O)n3)ccc2CC1C(=O)NC1CCCc2ccccc21)C(C)(C)C

> <Shape>
0.241

> <Color>
0.065

> <Negative vol penalty>
0.000

$$$$

  -OEChem-04052320233D

 90 98  0     1  0  0  0  0  0999 V2000
  -28.8236  -34.4548   24.8524 C   0  0  0  0  0  0  0  0  0  0  0  0
  -29.5165  -33.6218   23.9799 C   0  0  0  0  0  0  0  0  0  0  0  0
  -25.3849   -8.8008   20.1689 C   0  0  0  0  0  0  0  0  0  0  0  0
  -25.8331   -9.3577   22.4767 C   0  0  0  0  0  0  0  0  0  0  0  0
  -27.6871  -33.9843   25.5087 C   0  0  0  0  0  0  0  0  0  0  0  0
  -29.0739  -32.3172   23.7640 C   0  0  0  0  0  0  0  0  0  0  0  0
  -28.7620  -27.3001   18.6604 C   0  0  0  0  0  0  0  0  0  0  0  0
  -25.7491   -7.4775   20.4175 C   0  0  0  0  0  0  0  0  0  0  0  0
  -26.1972   -8.0344   22.7254 C   0  0  0  0  0  0  0  0  0  0  0  0
  -29.0934  -25.9635   18.4422 C   0  0  0  0  0  0  0  0  0  0  0  0
  -24.6406   -5.0852   23.2729 C   0  0  0  0  0  0  0  0  0  0  0  0
  -24.1429   -4.4840   24.4288 C   0  0  0  0  0  0  0  0  0  0  0  0
  -27.0721  -25.2846   19.5704 C   0  0  0  0  0  0  0  0  0  0  0  0
  -26.3995   -4.1226   25.2125 C   0  0  0  0  0  0  0  0  0  0  0  0
  -25.4269   -9.7409   21.1985 C   0  0  0  0  0  0  0  0  0  0  0  0
  -23.7667  -11.6725   21.0557 C   0  0  0  0  0  0  0  0  0  0  0  0
  -27.2248  -32.6764   25.2935 C   0  0  0  0  0  0  0  0  0  0  0  0
  -27.5867  -27.6393   19.3459 C   0  0  0  0  0  0  0  0  0  0  0  0
  -27.9309  -31.8283   24.4192 C   0  0  0  0  0  0  0  0  0  0  0  0
  -26.7268  -26.6262   19.7937 C   0  0  0  0  0  0  0  0  0  0  0  0
  -26.1552   -7.0943   21.6957 C   0  0  0  0  0  0  0  0  0  0  0  0
  -28.2498  -24.9555   18.8998 C   0  0  0  0  0  0  0  0  0  0  0  0
  -26.0178   -5.2051   23.0866 C   0  0  0  0  0  0  0  0  0  0  0  0
  -25.0223   -4.0027   25.3987 C   0  0  0  0  0  0  0  0  0  0  0  0
  -26.8973   -4.7239   24.0565 C   0  0  0  0  0  0  0  0  0  0  0  0
  -25.0514  -11.1082   20.9421 C   0  0  0  0  0  0  0  0  0  0  0  0
  -23.9380  -12.9895   20.7054 C   0  0  0  0  0  0  0  0  0  0  0  0
  -22.5292  -11.0609   21.4431 C   0  0  0  0  0  0  0  0  0  0  0  0
  -26.9312  -29.1736   22.0514 C   0  0  0  0  0  0  0  0  0  0  0  0
  -30.1250  -21.8855   19.0874 C   0  0  0  0  0  0  0  0  0  0  0  0
  -23.8662  -28.8356   21.0444 C   0  0  0  0  0  0  0  0  0  0  0  0
  -21.6147  -27.1155   19.1421 C   0  0  0  0  0  0  0  0  0  0  0  0
  -28.6650  -16.6622   20.8379 C   0  0  0  0  0  0  0  0  0  0  0  0
  -26.0187  -32.1971   26.0618 C   0  0  0  0  0  0  0  0  0  0  0  0
  -27.2302  -29.0863   19.5496 C   0  0  0  0  0  0  0  0  0  0  0  0
  -25.4431  -26.9380   20.5171 C   0  0  0  0  0  0  0  0  0  0  0  0
  -25.3999  -30.9234   25.4916 C   0  0  0  0  0  0  0  0  0  0  0  0
  -26.6896  -15.8169   17.9989 C   0  0  0  0  0  0  0  0  0  0  0  0
  -26.4828  -29.8916   25.1923 C   0  0  0  0  0  0  0  0  0  0  0  0
  -25.9298  -14.5652   18.4415 C   0  0  0  0  0  0  0  0  0  0  0  0
  -27.1605  -17.7737   24.6449 C   0  0  0  0  0  0  0  0  0  0  0  0
  -28.1071  -15.8468   18.5662 C   0  0  0  0  0  0  0  0  0  0  0  0
  -27.4317  -14.4391   20.4730 C   0  0  0  0  0  0  0  0  0  0  0  0
  -25.9080  -18.5756   24.9675 C   0  0  0  0  0  0  0  0  0  0  0  0
  -27.4677  -30.4149   24.1400 C   0  0  1  0  0  0  0  0  0  0  0  0
  -26.2656  -29.3062   20.7109 C   0  0  1  0  0  0  0  0  0  0  0  0
  -25.9783  -14.3915   19.9715 C   0  0  2  0  0  0  0  0  0  0  0  0
  -28.0972  -18.3944   23.5959 C   0  0  2  0  0  0  0  0  0  0  0  0
  -28.1481  -20.8487   24.0090 C   0  0  2  0  0  0  0  0  0  0  0  0
  -26.6151  -20.8739   24.1903 C   0  0  2  0  0  0  0  0  0  0  0  0
  -29.9974  -20.8092   18.0361 C   0  0  0  0  0  0  0  0  0  0  0  0
  -19.1762  -27.0506   18.5530 C   0  0  0  0  0  0  0  0  0  0  0  0
  -24.0280  -23.6823   24.8641 C   0  0  0  0  0  0  0  0  0  0  0  0
  -23.2487  -27.5691   23.7508 C   0  0  0  0  0  0  0  0  0  0  0  0
  -21.1203  -26.6847   22.7730 C   0  0  0  0  0  0  0  0  0  0  0  0
  -21.4980  -29.1465   22.9133 C   0  0  0  0  0  0  0  0  0  0  0  0
  -22.1747  -27.6044   16.2774 C   0  0  0  0  0  0  0  0  0  0  0  0
  -29.9493  -23.3152   18.6223 C   0  0  0  0  0  0  0  0  0  1  0  0
  -28.5539  -21.4538   22.6565 C   0  0  0  0  0  0  0  0  0  0  0  0
  -29.1409  -17.3519   23.1739 C   0  0  0  0  0  0  0  0  0  0  0  0
  -26.0890  -22.2784   24.4925 C   0  0  0  0  0  0  0  0  0  0  0  0
  -30.0051  -21.9238   22.6825 C   0  0  0  0  0  0  0  0  0  0  0  0
  -30.4369  -22.5192   21.3471 C   0  0  0  0  0  0  0  0  0  0  0  0
  -22.7929  -27.7884   21.2190 C   0  0  1  0  0  0  0  0  0  0  0  0
  -20.5469  -27.5877   18.1718 C   0  0  2  0  0  0  0  0  0  0  0  0
  -24.6021  -22.4481   24.1811 C   0  0  2  0  0  0  0  0  0  0  0  0
  -22.1900  -27.7909   22.6521 C   0  0  0  0  0  0  0  0  0  0  0  0
  -25.9710  -11.9941   20.5503 N   0  0  0  0  0  0  0  0  0  0  0  0
  -30.3377  -21.5058   20.2955 N   0  0  0  0  0  0  0  0  0  0  0  0
  -25.2632  -13.1285   20.4144 N   0  0  0  0  0  0  0  0  0  0  0  0
  -28.7986  -19.5422   24.1717 N   0  0  0  0  0  0  0  0  0  0  0  0
  -25.1416  -28.3677   20.6975 N   0  0  0  0  0  0  0  0  0  0  0  0
  -28.0828  -15.6787   20.0212 N   0  0  0  0  0  0  0  0  0  0  0  0
  -23.0828  -14.0306   20.6210 N   0  0  0  0  0  0  0  0  0  0  0  0
  -22.5311   -9.6982   21.7709 N   0  0  0  0  0  0  0  0  0  0  0  0
  -26.8892  -30.3235   22.8166 N   0  0  0  0  0  0  0  0  0  0  0  0
  -21.8174  -28.0234   20.1599 N   0  0  0  0  0  0  0  0  0  0  0  0
  -28.5929  -16.4283   22.2056 N   0  0  0  0  0  0  0  0  0  0  0  0
  -26.2186  -19.9855   25.3410 N   0  3  0  0  0  0  0  0  0  0  0  0
  -24.4048  -22.6026   22.7126 N   0  3  0  0  0  0  0  0  0  0  0  0
  -20.8637  -27.1292   16.7897 N   0  3  0  0  0  0  0  0  0  0  0  0
  -21.4504  -11.6999   21.4813 O   0  0  0  0  0  0  0  0  0  0  0  0
  -27.4436  -28.1066   22.3686 O   0  0  0  0  0  0  0  0  0  0  0  0
  -23.5818  -30.0254   21.2027 O   0  0  0  0  0  0  0  0  0  0  0  0
  -22.2069  -26.0464   19.0123 O   0  0  0  0  0  0  0  0  0  0  0  0
  -29.2040  -17.6764   20.3820 O   0  0  0  0  0  0  0  0  0  0  0  0
  -26.5104   -5.8030   21.9388 O   0  0  0  0  0  0  0  0  0  0  0  0
  -28.5743  -23.6373   18.6868 O   0  0  0  0  0  0  0  0  0  1  0  0
  -24.5442   -3.4267   26.5095 F   0  0  0  0  0  0  0  0  0  0  0  0
  -28.2213   -4.8373   23.8837 F   0  0  0  0  0  0  0  0  0  0  0  0
  1  2  1  0  0  0  0
  1  5  2  0  0  0  0
  2  6  2  0  0  0  0
  3  8  2  0  0  0  0
  3 15  1  0  0  0  0
  4  9  1  0  0  0  0
  4 15  2  0  0  0  0
  5 17  1  0  0  0  0
  6 19  1  0  0  0  0
  7 10  2  0  0  0  0
  7 18  1  0  0  0  0
  8 21  1  0  0  0  0
  9 21  2  0  0  0  0
 10 22  1  0  0  0  0
 11 12  2  0  0  0  0
 11 23  1  0  0  0  0
 12 24  1  0  0  0  0
 13 20  1  0  0  0  0
 13 22  2  0  0  0  0
 14 24  2  0  0  0  0
 14 25  1  0  0  0  0
 15 26  1  0  0  0  0
 16 26  1  0  0  0  0
 16 27  2  0  0  0  0
 16 28  1  0  0  0  0
 17 19  2  0  0  0  0
 17 34  1  0  0  0  0
 18 20  2  0  0  0  0
 18 35  1  0  0  0  0
 19 45  1  0  0  0  0
 20 36  1  0  0  0  0
 21 87  1  0  0  0  0
 22 88  1  0  0  0  0
 23 25  2  0  0  0  0
 23 87  1  0  0  0  0
 24 89  1  0  0  0  0
 25 90  1  0  0  0  0
 26 68  2  0  0  0  0
 27 70  1  0  0  0  0
 27 74  1  0  0  0  0
 28 75  1  0  0  0  0
 28 82  2  0  0  0  0
 29 46  1  0  0  0  0
 29 76  1  0  0  0  0
 29 83  2  0  0  0  0
 30 51  1  0  0  0  0
 30 58  1  0  0  0  0
 30 69  2  0  0  0  0
 31 64  1  0  0  0  0
 31 72  1  0  0  0  0
 31 84  2  0  0  0  0
 32 65  1  0  0  0  0
 32 77  1  0  0  0  0
 32 85  2  0  0  0  0
 33 73  1  0  0  0  0
 33 78  1  0  0  0  0
 33 86  2  0  0  0  0
 34 37  1  0  0  0  0
 35 46  1  0  0  0  0
 36 72  1  0  0  0  0
 37 39  1  0  0  0  0
 38 40  1  0  0  0  0
 38 42  1  0  0  0  0
 39 45  1  0  0  0  0
 40 47  1  0  0  0  0
 41 44  1  0  0  0  0
 41 48  1  0  0  0  0
 42 73  1  0  0  0  0
 43 47  1  0  0  0  0
 43 73  1  0  0  0  0
 44 79  1  0  0  0  0
 45 76  1  0  0  0  0
 46 72  1  0  0  0  0
 47 70  1  0  0  0  0
 48 60  1  0  0  0  0
 48 71  1  0  0  0  0
 49 50  1  0  0  0  0
 49 59  1  0  0  0  0
 49 71  1  0  0  0  0
 50 61  1  0  0  0  0
 50 79  1  0  0  0  0
 52 65  1  0  0  0  0
 53 66  1  0  0  0  0
 54 67  1  0  0  0  0
 55 67  1  0  0  0  0
 56 67  1  0  0  0  0
 57 81  1  0  0  0  0
 58 88  1  0  0  0  0
 59 62  1  0  0  0  0
 60 78  1  0  0  0  0
 61 66  1  0  0  0  0
 62 63  1  0  0  0  0
 63 69  1  0  0  0  0
 64 67  1  0  0  0  0
 64 77  1  0  0  0  0
 65 81  1  0  0  0  0
 66 80  1  0  0  0  0
 68 70  1  0  0  0  0
M  CHG  3  79   1  80   1  81   1
M  ISO  4  33 100  58 101  78 100  88 101
M  END
> <Batch ID>
0120

> <Smiles>
C=C(NCCCC1NC(C[100NH:0][100C:0](=O)N2CCCC(n3nc(-c4ccc(Oc5ccc(F)cc5F)cc4)c(C(N)=O)c3N)C2)CCNC1CC(C)N)[101CH2:1][101O:1]c1ccc2c(c1)CN(C(=O)C(NC(=O)C(C)NC)C(C)(C)C)C(C(=O)NC1CCCc3ccccc31)C2

> <Shape>
0.241

> <Color>
0.065

> <Negative vol penalty>
0.000

$$$$

  -OEChem-04052320233D

 82 90  0     1  0  0  0  0  0999 V2000
  -18.2446  -25.3370   23.5854 C   0  0  0  0  0  0  0  0  0  0  0  0
  -19.3275  -25.1831   22.7257 C   0  0  0  0  0  0  0  0  0  0  0  0
  -26.3239  -15.7299   21.7250 C   0  0  0  0  0  0  0  0  0  0  0  0
  -26.1330  -15.8490   19.3195 C   0  0  0  0  0  0  0  0  0  0  0  0
  -17.7513  -26.6114   23.8620 C   0  0  0  0  0  0  0  0  0  0  0  0
  -19.9169  -26.3034   22.1411 C   0  0  0  0  0  0  0  0  0  0  0  0
  -25.8510  -27.0876   20.8458 C   0  0  0  0  0  0  0  0  0  0  0  0
  -26.1665  -14.3451   21.6689 C   0  0  0  0  0  0  0  0  0  0  0  0
  -25.9757  -14.4641   19.2634 C   0  0  0  0  0  0  0  0  0  0  0  0
  -26.5807  -26.9435   19.6666 C   0  0  0  0  0  0  0  0  0  0  0  0
  -28.0709  -11.6494   20.9344 C   0  0  0  0  0  0  0  0  0  0  0  0
  -23.2940  -26.5216   16.2606 C   0  0  0  0  0  0  0  0  0  0  0  0
  -28.9331  -10.8674   21.7029 C   0  0  0  0  0  0  0  0  0  0  0  0
  -22.4584  -25.4950   16.6863 C   0  0  0  0  0  0  0  0  0  0  0  0
  -26.3641  -29.3097   19.2504 C   0  0  0  0  0  0  0  0  0  0  0  0
  -27.0414   -9.9554   22.8974 C   0  0  0  0  0  0  0  0  0  0  0  0
  -24.7797  -24.8810   15.3900 C   0  0  0  0  0  0  0  0  0  0  0  0
  -26.3071  -16.4819   20.5502 C   0  0  0  0  0  0  0  0  0  0  0  0
  -27.6761  -18.6344   20.5472 C   0  0  0  0  0  0  0  0  0  0  0  0
  -18.3411  -27.7487   23.2880 C   0  0  0  0  0  0  0  0  0  0  0  0
  -25.3622  -28.3442   21.2313 C   0  0  0  0  0  0  0  0  0  0  0  0
  -19.4301  -27.5941   22.4091 C   0  0  0  0  0  0  0  0  0  0  0  0
  -25.6307  -29.4676   20.4363 C   0  0  0  0  0  0  0  0  0  0  0  0
  -25.9924  -13.7122   20.4382 C   0  0  0  0  0  0  0  0  0  0  0  0
  -26.8349  -28.0541   18.8672 C   0  0  0  0  0  0  0  0  0  0  0  0
  -24.4787  -26.2171   15.5993 C   0  0  0  0  0  0  0  0  0  0  0  0
  -26.6938  -11.5845   21.1474 C   0  0  0  0  0  0  0  0  0  0  0  0
  -28.4184  -10.0204   22.6844 C   0  0  0  0  0  0  0  0  0  0  0  0
  -26.1791  -10.7374   22.1289 C   0  0  0  0  0  0  0  0  0  0  0  0
  -26.4690  -17.9125   20.6075 C   0  0  0  0  0  0  0  0  0  0  0  0
  -22.8497  -24.1912   16.4281 C   0  0  0  0  0  0  0  0  0  0  0  0
  -27.2941  -19.9504   20.6418 C   0  0  0  0  0  0  0  0  0  0  0  0
  -29.0221  -18.1582   20.4173 C   0  0  0  0  0  0  0  0  0  0  0  0
  -22.4717  -29.5744   21.7159 C   0  0  0  0  0  0  0  0  0  0  0  0
  -24.1644  -32.1447   22.7409 C   0  0  0  0  0  0  0  0  0  0  0  0
  -27.0851  -33.9083   22.6639 C   0  0  0  0  0  0  0  0  0  0  0  0
  -22.2079  -22.8242   19.3294 C   0  0  0  0  0  0  0  0  0  0  0  0
  -17.7430  -29.1021   23.5798 C   0  0  0  0  0  0  0  0  0  0  0  0
  -24.5996  -28.4875   22.5198 C   0  0  0  0  0  0  0  0  0  0  0  0
  -25.1456  -30.8420   20.8159 C   0  0  0  0  0  0  0  0  0  0  0  0
  -18.6610  -30.2655   23.2136 C   0  0  0  0  0  0  0  0  0  0  0  0
  -23.8618  -22.7302   22.4810 C   0  0  0  0  0  0  0  0  0  0  0  0
  -19.2567  -30.0587   21.8247 C   0  0  0  0  0  0  0  0  0  0  0  0
  -24.8265  -21.5500   22.3528 C   0  0  0  0  0  0  0  0  0  0  0  0
  -22.5440  -22.4632   21.7570 C   0  0  0  0  0  0  0  0  0  0  0  0
  -23.6479  -20.8902   20.2140 C   0  0  0  0  0  0  0  0  0  0  0  0
  -20.1121  -28.7870   21.7750 C   0  0  1  0  0  0  0  0  0  0  0  0
  -23.7101  -29.7264   22.5530 C   0  0  1  0  0  0  0  0  0  0  0  0
  -25.0123  -21.1350   20.8808 C   0  0  2  0  0  0  0  0  0  0  0  0
  -28.1555  -35.9873   23.5747 C   0  0  0  0  0  0  0  0  0  0  0  0
  -22.5524  -33.8327   20.7757 C   0  0  0  0  0  0  0  0  0  0  0  0
  -24.2662  -35.6400   21.0301 C   0  0  0  0  0  0  0  0  0  0  0  0
  -22.9311  -34.9029   23.0041 C   0  0  0  0  0  0  0  0  0  0  0  0
  -29.2033  -32.3582   24.0310 C   0  0  0  0  0  0  0  0  0  0  0  0
  -21.9770  -23.0644   16.8701 C   0  0  0  0  0  0  0  0  0  0  0  0
  -27.5291  -28.1601   15.3150 C   0  0  0  0  0  0  0  0  0  0  0  0
  -27.2468  -28.8222   16.6545 C   0  0  0  0  0  0  0  0  0  1  0  0
  -26.7074  -26.8954   15.1211 C   0  0  0  0  0  0  0  0  0  0  0  0
  -24.7304  -33.3820   22.0870 C   0  0  1  0  0  0  0  0  0  0  0  0
  -27.9367  -34.4957   23.7748 C   0  0  2  0  0  0  0  0  0  0  0  0
  -23.6276  -34.4133   21.7158 C   0  0  0  0  0  0  0  0  0  0  0  0
  -23.9929  -23.8565   15.7888 N   0  0  0  0  0  0  0  0  0  0  0  0
  -25.4003  -18.7041   20.7309 N   0  0  0  0  0  0  0  0  0  0  0  0
  -25.9345  -19.9371   20.7491 N   0  0  0  0  0  0  0  0  0  0  0  0
  -24.3990  -30.9296   22.0818 N   0  0  0  0  0  0  0  0  0  0  0  0
  -22.7902  -22.0760   20.3658 N   0  0  0  0  0  0  0  0  0  0  0  0
  -27.9920  -21.1059   20.6429 N   0  0  0  0  0  0  0  0  0  0  0  0
  -29.2365  -16.7757   20.3326 N   0  0  0  0  0  0  0  0  0  0  0  0
  -21.4008  -29.0203   22.3909 N   0  0  0  0  0  0  0  0  0  0  0  0
  -25.7473  -33.8963   22.9979 N   0  0  0  0  0  0  0  0  0  0  0  0
  -22.4973  -22.3934   18.0405 N   0  0  0  0  0  0  0  0  0  0  0  0
  -29.2678  -33.8268   23.8159 N   0  3  0  0  0  0  0  0  0  0  0  0
  -30.0070  -18.9347   20.3939 O   0  0  0  0  0  0  0  0  0  0  0  0
  -22.4861  -29.9346   20.5447 O   0  0  0  0  0  0  0  0  0  0  0  0
  -23.5433  -32.2514   23.8014 O   0  0  0  0  0  0  0  0  0  0  0  0
  -27.5587  -33.5043   21.6042 O   0  0  0  0  0  0  0  0  0  0  0  0
  -21.4881  -23.8069   19.5372 O   0  0  0  0  0  0  0  0  0  0  0  0
  -25.8391  -12.3609   20.3831 O   0  0  0  0  0  0  0  0  0  0  0  0
  -27.5463  -27.9161   17.7154 O   0  0  0  0  0  0  0  0  0  1  0  0
  -25.3219  -27.2083   15.1690 O   0  0  0  0  0  0  0  0  0  0  0  0
  -29.2464   -9.2683   23.4212 F   0  0  0  0  0  0  0  0  0  0  0  0
  -24.8571  -10.6699   22.3373 F   0  0  0  0  0  0  0  0  0  0  0  0
  1  2  1  0  0  0  0
  1  5  2  0  0  0  0
  2  6  2  0  0  0  0
  3  8  2  0  0  0  0
  3 18  1  0  0  0  0
  4  9  1  0  0  0  0
  4 18  2  0  0  0  0
  5 20  1  0  0  0  0
  6 22  1  0  0  0  0
  7 10  2  0  0  0  0
  7 21  1  0  0  0  0
  8 24  1  0  0  0  0
  9 24  2  0  0  0  0
 10 25  1  0  0  0  0
 11 13  2  0  0  0  0
 11 27  1  0  0  0  0
 12 14  2  0  0  0  0
 12 26  1  0  0  0  0
 13 28  1  0  0  0  0
 14 31  1  0  0  0  0
 15 23  1  0  0  0  0
 15 25  2  0  0  0  0
 16 28  2  0  0  0  0
 16 29  1  0  0  0  0
 17 26  2  0  0  0  0
 17 62  1  0  0  0  0
 18 30  1  0  0  0  0
 19 30  1  0  0  0  0
 19 32  2  0  0  0  0
 19 33  1  0  0  0  0
 20 22  2  0  0  0  0
 20 38  1  0  0  0  0
 21 23  2  0  0  0  0
 21 39  1  0  0  0  0
 22 47  1  0  0  0  0
 23 40  1  0  0  0  0
 24 78  1  0  0  0  0
 25 79  1  0  0  0  0
 26 80  1  0  0  0  0
 27 29  2  0  0  0  0
 27 78  1  0  0  0  0
 28 81  1  0  0  0  0
 29 82  1  0  0  0  0
 30 63  2  0  0  0  0
 31 55  1  0  0  0  0
 31 62  2  0  0  0  0
 32 64  1  0  0  0  0
 32 67  1  0  0  0  0
 33 68  1  0  0  0  0
 33 73  2  0  0  0  0
 34 48  1  0  0  0  0
 34 69  1  0  0  0  0
 34 74  2  0  0  0  0
 35 59  1  0  0  0  0
 35 65  1  0  0  0  0
 35 75  2  0  0  0  0
 36 60  1  0  0  0  0
 36 70  1  0  0  0  0
 36 76  2  0  0  0  0
 37 66  1  0  0  0  0
 37 71  1  0  0  0  0
 37 77  2  0  0  0  0
 38 41  1  0  0  0  0
 39 48  1  0  0  0  0
 40 65  1  0  0  0  0
 41 43  1  0  0  0  0
 42 44  1  0  0  0  0
 42 45  1  0  0  0  0
 43 47  1  0  0  0  0
 44 49  1  0  0  0  0
 45 66  1  0  0  0  0
 46 49  1  0  0  0  0
 46 66  1  0  0  0  0
 47 69  1  0  0  0  0
 48 65  1  0  0  0  0
 49 64  1  0  0  0  0
 50 60  1  0  0  0  0
 51 61  1  0  0  0  0
 52 61  1  0  0  0  0
 53 61  1  0  0  0  0
 54 72  1  0  0  0  0
 55 71  1  0  0  0  0
 56 57  1  0  0  0  0
 56 58  1  0  0  0  0
 57 79  1  0  0  0  0
 58 80  1  0  0  0  0
 59 61  1  0  0  0  0
 59 70  1  0  0  0  0
 60 72  1  0  0  0  0
 63 64  1  0  0  0  0
M  CHG  1  72   1
M  ISO  4  37 100  57 101  71 100  79 101
M  END
> <Batch ID>
0120

> <Smiles>
CNC(C)C(=O)NC(C(=O)N1Cc2cc([101O:1][101CH2:1]CCOc3ccc(C[100NH:0][100C:0](=O)N4CCCC(n5nc(-c6ccc(Oc7ccc(F)cc7F)cc6)c(C(N)=O)c5N)C4)nc3)ccc2CC1C(=O)NC1CCCc2ccccc21)C(C)(C)C

> <Shape>
0.212

> <Color>
0.098

> <Negative vol penalty>
0.000

$$$$

  -OEChem-04052320233D

 90 99  0     1  0  0  0  0  0999 V2000
  -25.1721   -5.2309   24.6965 C   0  0  0  0  0  0  0  0  0  0  0  0
  -25.8645   -5.6539   23.5664 C   0  0  0  0  0  0  0  0  0  0  0  0
  -22.9873  -28.7432   23.7302 C   0  0  0  0  0  0  0  0  0  0  0  0
  -21.7873  -28.9338   21.6420 C   0  0  0  0  0  0  0  0  0  0  0  0
  -23.8929   -5.7222   24.9534 C   0  0  0  0  0  0  0  0  0  0  0  0
  -25.2775   -6.5677   22.6919 C   0  0  0  0  0  0  0  0  0  0  0  0
  -27.8738  -13.5124   20.2307 C   0  0  0  0  0  0  0  0  0  0  0  0
  -21.8477  -28.2152   24.3369 C   0  0  0  0  0  0  0  0  0  0  0  0
  -20.6477  -28.4057   22.2487 C   0  0  0  0  0  0  0  0  0  0  0  0
  -28.1536  -14.8243   19.8477 C   0  0  0  0  0  0  0  0  0  0  0  0
  -18.1778  -29.4945   24.2847 C   0  0  0  0  0  0  0  0  0  0  0  0
  -16.9590  -30.1245   24.0335 C   0  0  0  0  0  0  0  0  0  0  0  0
  -25.7902  -15.2624   19.5824 C   0  0  0  0  0  0  0  0  0  0  0  0
  -16.0951  -28.0762   23.0874 C   0  0  0  0  0  0  0  0  0  0  0  0
  -22.9571  -29.1026   22.3827 C   0  0  0  0  0  0  0  0  0  0  0  0
  -24.8219  -30.8227   22.1158 C   0  0  0  0  0  0  0  0  0  0  0  0
  -23.2937   -6.6499   24.0867 C   0  0  0  0  0  0  0  0  0  0  0  0
  -26.5486  -13.0745   20.3060 C   0  0  0  0  0  0  0  0  0  0  0  0
  -23.9884   -7.0709   22.9367 C   0  0  0  0  0  0  0  0  0  0  0  0
  -25.5031  -13.9531   19.9775 C   0  0  0  0  0  0  0  0  0  0  0  0
  -20.6779  -28.0464   23.5962 C   0  0  0  0  0  0  0  0  0  0  0  0
  -27.1144  -15.6970   19.5241 C   0  0  0  0  0  0  0  0  0  0  0  0
  -18.3554  -28.1553   23.9371 C   0  0  0  0  0  0  0  0  0  0  0  0
  -15.9176  -29.4154   23.4349 C   0  0  0  0  0  0  0  0  0  0  0  0
  -17.3140  -27.4461   23.3385 C   0  0  0  0  0  0  0  0  0  0  0  0
  -24.1338  -29.6486   21.7556 C   0  0  0  0  0  0  0  0  0  0  0  0
  -25.8599  -30.9010   21.2198 C   0  0  0  0  0  0  0  0  0  0  0  0
  -24.5473  -31.7589   23.1665 C   0  0  0  0  0  0  0  0  0  0  0  0
  -24.1916  -10.2609   21.0832 C   0  0  0  0  0  0  0  0  0  0  0  0
  -22.9304  -12.8181   22.2148 C   0  0  0  0  0  0  0  0  0  0  0  0
  -22.5129  -15.4259   23.9259 C   0  0  0  0  0  0  0  0  0  0  0  0
  -28.7761  -26.7890   17.9888 C   0  0  0  0  0  0  0  0  0  0  0  0
  -21.8901   -7.1167   24.3809 C   0  0  0  0  0  0  0  0  0  0  0  0
  -26.2034  -11.6521   20.6544 C   0  0  0  0  0  0  0  0  0  0  0  0
  -24.0947  -13.4282   20.0393 C   0  0  0  0  0  0  0  0  0  0  0  0
  -21.4887   -8.3677   23.6035 C   0  0  0  0  0  0  0  0  0  0  0  0
  -27.0575  -29.6543   16.7586 C   0  0  0  0  0  0  0  0  0  0  0  0
  -21.8773   -8.2310   22.1347 C   0  0  0  0  0  0  0  0  0  0  0  0
  -28.0999  -19.1922   20.8847 C   0  0  0  0  0  0  0  0  0  0  0  0
  -26.0954  -20.4213   19.9478 C   0  0  0  0  0  0  0  0  0  0  0  0
  -26.1754  -30.0837   17.9322 C   0  0  0  0  0  0  0  0  0  0  0  0
  -28.7797  -20.5286   21.1823 C   0  0  0  0  0  0  0  0  0  0  0  0
  -26.7759  -21.7573   20.2458 C   0  0  0  0  0  0  0  0  0  0  0  0
  -31.3890  -23.6864   20.8607 C   0  0  0  0  0  0  0  0  0  0  0  0
  -27.1717  -28.1343   16.6649 C   0  0  0  0  0  0  0  0  0  0  0  0
  -26.7319  -27.8984   19.0784 C   0  0  0  0  0  0  0  0  0  0  0  0
  -32.5756  -24.6063   21.0990 C   0  0  0  0  0  0  0  0  0  0  0  0
  -31.5051  -26.3856   19.7030 C   0  0  0  0  0  0  0  0  0  0  0  0
  -23.3952   -8.0799   21.9774 C   0  0  1  0  0  0  0  0  0  0  0  0
  -24.8996  -11.5282   21.4629 C   0  0  1  0  0  0  0  0  0  0  0  0
  -27.1207  -19.3038   19.7072 C   0  0  0  0  0  0  0  0  0  0  0  0
  -30.0941  -24.4736   20.5975 C   0  0  1  0  0  0  0  0  0  0  0  0
  -26.6319  -29.4241   19.2474 C   0  0  2  0  0  0  0  0  0  0  0  0
  -30.3004  -25.4842   19.4492 C   0  0  1  0  0  0  0  0  0  0  0  0
  -27.7445  -21.6250   21.4178 C   0  0  0  0  0  0  0  0  0  0  0  0
  -21.7928  -17.3519   25.3644 C   0  0  0  0  0  0  0  0  0  0  0  0
  -27.6476  -26.0752   23.7331 C   0  0  0  0  0  0  0  0  0  0  0  0
  -29.6372  -24.5440   23.8065 C   0  0  0  0  0  0  0  0  0  0  0  0
  -21.0933  -12.9620   19.7841 C   0  0  0  0  0  0  0  0  0  0  0  0
  -19.8285  -14.7894   20.9369 C   0  0  0  0  0  0  0  0  0  0  0  0
  -19.9258  -12.5117   21.9494 C   0  0  0  0  0  0  0  0  0  0  0  0
  -23.1541  -13.9577   26.4143 C   0  0  0  0  0  0  0  0  0  0  0  0
  -28.9457  -23.5033   20.3088 C   0  0  0  0  0  0  0  0  0  0  0  0
  -26.4166  -17.9701   19.4641 C   0  0  0  0  0  0  0  0  0  1  0  0
  -27.6243  -23.9197   22.3779 C   0  0  0  0  0  0  0  0  0  0  0  0
  -21.9887  -13.9729   21.9846 C   0  0  1  0  0  0  0  0  0  0  0  0
  -21.9722  -15.8440   25.2813 C   0  0  2  0  0  0  0  0  0  0  0  0
  -28.4781  -25.0568   22.9504 C   0  0  0  0  0  0  0  0  0  0  0  0
  -20.7370  -13.5615   21.1591 C   0  0  0  0  0  0  0  0  0  0  0  0
  -24.6879  -29.0258   20.7120 N   0  0  0  0  0  0  0  0  0  0  0  0
  -25.7351  -29.8116   20.4087 N   0  0  0  0  0  0  0  0  0  0  0  0
  -23.9180  -12.6045   21.2455 N   0  0  0  0  0  0  0  0  0  0  0  0
  -27.6102  -27.5713   17.9442 N   0  0  0  0  0  0  0  0  0  0  0  0
  -26.8580  -31.7947   21.0544 N   0  0  0  0  0  0  0  0  0  0  0  0
  -25.1304  -31.5433   24.4226 N   0  0  0  0  0  0  0  0  0  0  0  0
  -24.0487   -9.3629   22.1236 N   0  0  0  0  0  0  0  0  0  0  0  0
  -21.6825  -14.5188   23.3024 N   0  0  0  0  0  0  0  0  0  0  0  0
  -29.1243  -26.2993   19.2417 N   0  0  0  0  0  0  0  0  0  0  0  0
  -32.7117  -25.5397   19.9441 N   0  3  0  0  0  0  0  0  0  0  0  0
  -22.9051  -15.4214   26.3639 N   0  3  0  0  0  0  0  0  0  0  0  0
  -28.4499  -22.9202   21.6079 N   0  3  1  0  0  0  0  0  0  0  0  0
  -23.7938  -32.7480   23.0010 O   0  0  0  0  0  0  0  0  0  0  0  0
  -23.8018  -10.1084   19.9315 O   0  0  0  0  0  0  0  0  0  0  0  0
  -22.7929  -12.1194   23.2228 O   0  0  0  0  0  0  0  0  0  0  0  0
  -23.5647  -15.8633   23.4645 O   0  0  0  0  0  0  0  0  0  0  0  0
  -29.4591  -26.5495   16.9873 O   0  0  0  0  0  0  0  0  0  0  0  0
  -19.5658  -27.5310   24.1878 O   0  0  0  0  0  0  0  0  0  0  0  0
  -27.3944  -16.9778   19.1553 O   0  0  0  0  0  0  0  0  0  1  0  0
  -14.7467  -30.0201   23.1952 F   0  0  0  0  0  0  0  0  0  0  0  0
  -17.4782  -26.1591   23.0034 F   0  0  0  0  0  0  0  0  0  0  0  0
  1  2  1  0  0  0  0
  1  5  2  0  0  0  0
  2  6  2  0  0  0  0
  3  8  2  0  0  0  0
  3 15  1  0  0  0  0
  4  9  1  0  0  0  0
  4 15  2  0  0  0  0
  5 17  1  0  0  0  0
  6 19  1  0  0  0  0
  7 10  2  0  0  0  0
  7 18  1  0  0  0  0
  8 21  1  0  0  0  0
  9 21  2  0  0  0  0
 10 22  1  0  0  0  0
 11 12  2  0  0  0  0
 11 23  1  0  0  0  0
 12 24  1  0  0  0  0
 13 20  1  0  0  0  0
 13 22  2  0  0  0  0
 14 24  2  0  0  0  0
 14 25  1  0  0  0  0
 15 26  1  0  0  0  0
 16 26  1  0  0  0  0
 16 27  2  0  0  0  0
 16 28  1  0  0  0  0
 17 19  2  0  0  0  0
 17 33  1  0  0  0  0
 18 20  2  0  0  0  0
 18 34  1  0  0  0  0
 19 49  1  0  0  0  0
 20 35  1  0  0  0  0
 21 87  1  0  0  0  0
 22 88  1  0  0  0  0
 23 25  2  0  0  0  0
 23 87  1  0  0  0  0
 24 89  1  0  0  0  0
 25 90  1  0  0  0  0
 26 70  2  0  0  0  0
 27 71  1  0  0  0  0
 27 74  1  0  0  0  0
 28 75  1  0  0  0  0
 28 82  2  0  0  0  0
 29 50  1  0  0  0  0
 29 76  1  0  0  0  0
 29 83  2  0  0  0  0
 30 66  1  0  0  0  0
 30 72  1  0  0  0  0
 30 84  2  0  0  0  0
 31 67  1  0  0  0  0
 31 77  1  0  0  0  0
 31 85  2  0  0  0  0
 32 73  1  0  0  0  0
 32 78  1  0  0  0  0
 32 86  2  0  0  0  0
 33 36  1  0  0  0  0
 34 50  1  0  0  0  0
 35 72  1  0  0  0  0
 36 38  1  0  0  0  0
 37 41  1  0  0  0  0
 37 45  1  0  0  0  0
 38 49  1  0  0  0  0
 39 42  1  0  0  0  0
 39 51  1  0  0  0  0
 40 43  1  0  0  0  0
 40 51  1  0  0  0  0
 41 53  1  0  0  0  0
 42 55  1  0  0  0  0
 43 55  1  0  0  0  0
 44 47  1  0  0  0  0
 44 52  1  0  0  0  0
 45 73  1  0  0  0  0
 46 53  1  0  0  0  0
 46 73  1  0  0  0  0
 47 79  1  0  0  0  0
 48 54  1  0  0  0  0
 48 79  1  0  0  0  0
 49 76  1  0  0  0  0
 50 72  1  0  0  0  0
 51 64  1  0  0  0  0
 52 54  1  0  0  0  0
 52 63  1  0  0  0  0
 53 71  1  0  0  0  0
 54 78  1  0  0  0  0
 55 81  1  0  0  0  0
 56 67  1  0  0  0  0
 57 68  1  0  0  0  0
 58 68  1  0  0  0  0
 59 69  1  0  0  0  0
 60 69  1  0  0  0  0
 61 69  1  0  0  0  0
 62 80  1  0  0  0  0
 63 81  1  0  0  0  0
 64 88  1  0  0  0  0
 65 68  1  0  0  0  0
 65 81  1  0  0  0  0
 66 69  1  0  0  0  0
 66 77  1  0  0  0  0
 67 80  1  0  0  0  0
 70 71  1  0  0  0  0
M  CHG  3  79   1  80   1  81   1
M  ISO  4  32 100  64 101  78 100  88 101
M  END
> <Batch ID>
0120

> <Smiles>
CNC(C)C(=O)NC(C(=O)N1Cc2cc([101O:1][101CH2:1]C3CCC(N(CC(C)C)CC4CCNCC4[100NH:0][100C:0](=O)N4CCCC(n5nc(-c6ccc(Oc7ccc(F)cc7F)cc6)c(C(N)=O)c5N)C4)CC3)ccc2CC1C(=O)NC1CCCc2ccccc21)C(C)(C)C

> <Shape>
0.303

> <Color>
0.046

> <Negative vol penalty>
0.000

$$$$

  -OEChem-04052320233D

 82 90  0     1  0  0  0  0  0999 V2000
  -27.3876  -29.9026   27.2369 C   0  0  0  0  0  0  0  0  0  0  0  0
  -26.8832  -28.7380   26.6671 C   0  0  0  0  0  0  0  0  0  0  0  0
  -22.6847  -10.1815   20.1952 C   0  0  0  0  0  0  0  0  0  0  0  0
  -24.3105   -9.4954   21.8454 C   0  0  0  0  0  0  0  0  0  0  0  0
  -27.1891  -31.1293   26.6047 C   0  0  0  0  0  0  0  0  0  0  0  0
  -26.1788  -28.7996   25.4652 C   0  0  0  0  0  0  0  0  0  0  0  0
  -27.5822  -25.1888   22.2037 C   0  0  0  0  0  0  0  0  0  0  0  0
  -21.9591   -9.0124   20.4240 C   0  0  0  0  0  0  0  0  0  0  0  0
  -23.5849   -8.3263   22.0742 C   0  0  0  0  0  0  0  0  0  0  0  0
  -27.0837  -23.9052   22.4217 C   0  0  0  0  0  0  0  0  0  0  0  0
  -20.8111   -7.4105   23.7736 C   0  0  0  0  0  0  0  0  0  0  0  0
  -20.6024   -7.0279   25.0986 C   0  0  0  0  0  0  0  0  0  0  0  0
  -25.4109  -24.2728   20.7229 C   0  0  0  0  0  0  0  0  0  0  0  0
  -21.7602   -4.9490   24.6806 C   0  0  0  0  0  0  0  0  0  0  0  0
  -23.8604  -10.4230   20.9059 C   0  0  0  0  0  0  0  0  0  0  0  0
  -24.1650  -12.9549   20.8385 C   0  0  0  0  0  0  0  0  0  0  0  0
  -26.4903  -31.2048   25.3895 C   0  0  0  0  0  0  0  0  0  0  0  0
  -26.9910  -26.0295   21.2497 C   0  0  0  0  0  0  0  0  0  0  0  0
  -25.9695  -30.0287   24.8168 C   0  0  0  0  0  0  0  0  0  0  0  0
  -25.9055  -25.5657   20.4929 C   0  0  0  0  0  0  0  0  0  0  0  0
  -22.4092   -8.0848   21.3635 C   0  0  0  0  0  0  0  0  0  0  0  0
  -25.9961  -23.4480   21.6833 C   0  0  0  0  0  0  0  0  0  0  0  0
  -21.4942   -6.5624   22.9021 C   0  0  0  0  0  0  0  0  0  0  0  0
  -21.0770   -5.7971   25.5521 C   0  0  0  0  0  0  0  0  0  0  0  0
  -21.9688   -5.3316   23.3555 C   0  0  0  0  0  0  0  0  0  0  0  0
  -24.6107  -11.6302   20.6697 C   0  0  0  0  0  0  0  0  0  0  0  0
  -25.2440  -13.7278   20.4854 C   0  0  0  0  0  0  0  0  0  0  0  0
  -27.1061  -19.5910   22.2325 C   0  0  0  0  0  0  0  0  0  0  0  0
  -22.8896  -13.4430   21.2754 C   0  0  0  0  0  0  0  0  0  0  0  0
  -25.5178  -28.8445   21.3460 C   0  0  0  0  0  0  0  0  0  0  0  0
  -25.5699  -28.5439   18.1166 C   0  0  0  0  0  0  0  0  0  0  0  0
  -25.0245  -25.9139   15.7076 C   0  0  0  0  0  0  0  0  0  0  0  0
  -30.7135  -14.8225   20.6656 C   0  0  0  0  0  0  0  0  0  0  0  0
  -26.2599  -32.5593   24.7676 C   0  0  0  0  0  0  0  0  0  0  0  0
  -27.5574  -27.4017   21.0077 C   0  0  0  0  0  0  0  0  0  0  0  0
  -25.2478  -26.4217   19.4425 C   0  0  0  0  0  0  0  0  0  0  0  0
  -28.5688  -19.2124   22.2153 C   0  0  0  0  0  0  0  0  0  0  0  0
  -25.8263  -32.4924   23.3054 C   0  0  0  0  0  0  0  0  0  0  0  0
  -29.5967  -12.4734   18.2343 C   0  0  0  0  0  0  0  0  0  0  0  0
  -24.7257  -31.4522   23.1221 C   0  0  0  0  0  0  0  0  0  0  0  0
  -28.1662  -12.1495   18.6687 C   0  0  0  0  0  0  0  0  0  0  0  0
  -30.5175  -12.6818   19.4347 C   0  0  0  0  0  0  0  0  0  0  0  0
  -27.0037  -19.0548   19.7851 C   0  0  0  0  0  0  0  0  0  0  0  0
  -28.6134  -13.3551   20.8471 C   0  0  0  0  0  0  0  0  0  0  0  0
  -28.5157  -19.0431   19.7581 C   0  0  0  0  0  0  0  0  0  0  0  0
  -25.2216  -30.0516   23.5015 C   0  0  1  0  0  0  0  0  0  0  0  0
  -26.5538  -28.3588   20.3721 C   0  0  1  0  0  0  0  0  0  0  0  0
  -27.6350  -13.1916   19.6713 C   0  0  2  0  0  0  0  0  0  0  0  0
  -25.9257  -25.6167   13.3845 C   0  0  0  0  0  0  0  0  0  0  0  0
  -22.9831  -29.9103   17.2500 C   0  0  0  0  0  0  0  0  0  0  0  0
  -22.8924  -28.3455   15.2977 C   0  0  0  0  0  0  0  0  0  0  0  0
  -24.8013  -29.9341   15.5330 C   0  0  0  0  0  0  0  0  0  0  0  0
  -26.1141  -23.2378   16.3479 C   0  0  0  0  0  0  0  0  0  0  0  0
  -25.0495  -20.0349   20.9449 C   0  0  0  0  0  0  0  0  0  0  0  0
  -30.7554  -16.9468   21.9482 C   0  0  0  0  0  0  0  0  0  0  0  0
  -30.4512  -18.1059   21.0175 C   0  0  0  0  0  0  0  0  0  0  0  0
  -24.9048  -21.5373   20.7810 C   0  0  0  0  0  0  0  0  0  1  0  0
  -24.6471  -27.9432   17.0838 C   0  0  1  0  0  0  0  0  0  0  0  0
  -26.0766  -25.2355   14.8490 C   0  0  2  0  0  0  0  0  0  0  0  0
  -23.8321  -29.0232   16.3177 C   0  0  0  0  0  0  0  0  0  0  0  0
  -25.8743  -11.5619   20.2425 N   0  0  0  0  0  0  0  0  0  0  0  0
  -26.2319  -12.8533   20.1398 N   0  0  0  0  0  0  0  0  0  0  0  0
  -26.4470  -19.6291   21.0066 N   0  0  0  0  0  0  0  0  0  0  0  0
  -25.8340  -27.7580   19.2473 N   0  0  0  0  0  0  0  0  0  0  0  0
  -29.9572  -13.6829   20.3456 N   0  0  0  0  0  0  0  0  0  0  0  0
  -25.4347  -15.0635   20.4400 N   0  0  0  0  0  0  0  0  0  0  0  0
  -21.8929  -12.5121   21.5985 N   0  0  0  0  0  0  0  0  0  0  0  0
  -26.0413  -29.5018   22.4430 N   0  0  0  0  0  0  0  0  0  0  0  0
  -25.4814  -27.1060   16.2286 N   0  0  0  0  0  0  0  0  0  0  0  0
  -30.1058  -15.7242   21.5308 N   0  0  0  0  0  0  0  0  0  0  0  0
  -28.9763  -18.3914   21.0265 N   0  3  1  0  0  0  0  0  0  0  0  0
  -25.9618  -23.7540   14.9632 N   0  3  0  0  0  0  0  0  0  0  0  0
  -26.5892  -19.9183   23.3046 O   0  0  0  0  0  0  0  0  0  0  0  0
  -22.6359  -14.6685   21.3605 O   0  0  0  0  0  0  0  0  0  0  0  0
  -24.3313  -28.6394   21.1183 O   0  0  0  0  0  0  0  0  0  0  0  0
  -26.0448  -29.6659   17.9238 O   0  0  0  0  0  0  0  0  0  0  0  0
  -23.9076  -25.4362   15.8942 O   0  0  0  0  0  0  0  0  0  0  0  0
  -31.8441  -15.0242   20.2097 O   0  0  0  0  0  0  0  0  0  0  0  0
  -21.7013   -6.9440   21.5871 O   0  0  0  0  0  0  0  0  0  0  0  0
  -25.5071  -22.1958   21.8945 O   0  0  0  0  0  0  0  0  0  1  0  0
  -20.8779   -5.4305   26.8250 F   0  0  0  0  0  0  0  0  0  0  0  0
  -22.6269   -4.5131   22.5232 F   0  0  0  0  0  0  0  0  0  0  0  0
  1  2  1  0  0  0  0
  1  5  2  0  0  0  0
  2  6  2  0  0  0  0
  3  8  2  0  0  0  0
  3 15  1  0  0  0  0
  4  9  1  0  0  0  0
  4 15  2  0  0  0  0
  5 17  1  0  0  0  0
  6 19  1  0  0  0  0
  7 10  2  0  0  0  0
  7 18  1  0  0  0  0
  8 21  1  0  0  0  0
  9 21  2  0  0  0  0
 10 22  1  0  0  0  0
 11 12  2  0  0  0  0
 11 23  1  0  0  0  0
 12 24  1  0  0  0  0
 13 20  1  0  0  0  0
 13 22  2  0  0  0  0
 14 24  2  0  0  0  0
 14 25  1  0  0  0  0
 15 26  1  0  0  0  0
 16 26  1  0  0  0  0
 16 27  2  0  0  0  0
 16 29  1  0  0  0  0
 17 19  2  0  0  0  0
 17 34  1  0  0  0  0
 18 20  2  0  0  0  0
 18 35  1  0  0  0  0
 19 46  1  0  0  0  0
 20 36  1  0  0  0  0
 21 79  1  0  0  0  0
 22 80  1  0  0  0  0
 23 25  2  0  0  0  0
 23 79  1  0  0  0  0
 24 81  1  0  0  0  0
 25 82  1  0  0  0  0
 26 61  2  0  0  0  0
 27 62  1  0  0  0  0
 27 66  1  0  0  0  0
 28 37  1  0  0  0  0
 28 63  1  0  0  0  0
 28 73  2  0  0  0  0
 29 67  1  0  0  0  0
 29 74  2  0  0  0  0
 30 47  1  0  0  0  0
 30 68  1  0  0  0  0
 30 75  2  0  0  0  0
 31 58  1  0  0  0  0
 31 64  1  0  0  0  0
 31 76  2  0  0  0  0
 32 59  1  0  0  0  0
 32 69  1  0  0  0  0
 32 77  2  0  0  0  0
 33 65  1  0  0  0  0
 33 70  1  0  0  0  0
 33 78  2  0  0  0  0
 34 38  1  0  0  0  0
 35 47  1  0  0  0  0
 36 64  1  0  0  0  0
 37 71  1  0  0  0  0
 38 40  1  0  0  0  0
 39 41  1  0  0  0  0
 39 42  1  0  0  0  0
 40 46  1  0  0  0  0
 41 48  1  0  0  0  0
 42 65  1  0  0  0  0
 43 45  1  0  0  0  0
 43 63  1  0  0  0  0
 44 48  1  0  0  0  0
 44 65  1  0  0  0  0
 45 71  1  0  0  0  0
 46 68  1  0  0  0  0
 47 64  1  0  0  0  0
 48 62  1  0  0  0  0
 49 59  1  0  0  0  0
 50 60  1  0  0  0  0
 51 60  1  0  0  0  0
 52 60  1  0  0  0  0
 53 72  1  0  0  0  0
 54 57  1  0  0  0  0
 54 63  1  0  0  0  0
 55 56  1  0  0  0  0
 55 70  1  0  0  0  0
 56 71  1  0  0  0  0
 57 80  1  0  0  0  0
 58 60  1  0  0  0  0
 58 69  1  0  0  0  0
 59 72  1  0  0  0  0
 61 62  1  0  0  0  0
M  CHG  2  71   1  72   1
M  ISO  4  33 100  57 101  70 100  80 101
M  END
> <Batch ID>
0120

> <Smiles>
CNC(C)C(=O)NC(C(=O)N1Cc2cc([101O:1][101CH2:1]CN3CCN(CC[100NH:0][100C:0](=O)N4CCCC(n5nc(-c6ccc(Oc7ccc(F)cc7F)cc6)c(C(N)=O)c5N)C4)CC3=O)ccc2CC1C(=O)NC1CCCc2ccccc21)C(C)(C)C

> <Shape>
0.318

> <Color>
0.196

> <Negative vol penalty>
0.000

$$$$

  -OEChem-04052320233D

 84 92  0     1  0  0  0  0  0999 V2000
  -28.8036  -35.0647   24.7164 C   0  0  0  0  0  0  0  0  0  0  0  0
  -28.8925  -33.7432   24.2908 C   0  0  0  0  0  0  0  0  0  0  0  0
  -23.8823  -13.2479   20.1253 C   0  0  0  0  0  0  0  0  0  0  0  0
  -26.0507  -13.6255   21.1215 C   0  0  0  0  0  0  0  0  0  0  0  0
  -27.5800  -35.5769   25.1456 C   0  0  0  0  0  0  0  0  0  0  0  0
  -27.7578  -32.9327   24.2953 C   0  0  0  0  0  0  0  0  0  0  0  0
  -27.2934  -30.2171   20.0462 C   0  0  0  0  0  0  0  0  0  0  0  0
  -24.1283  -11.8751   20.1100 C   0  0  0  0  0  0  0  0  0  0  0  0
  -26.2967  -12.2525   21.1062 C   0  0  0  0  0  0  0  0  0  0  0  0
  -28.0945  -29.0826   19.9249 C   0  0  0  0  0  0  0  0  0  0  0  0
  -24.0637   -9.3081   22.3099 C   0  0  0  0  0  0  0  0  0  0  0  0
  -23.0420   -8.4617   22.7403 C   0  0  0  0  0  0  0  0  0  0  0  0
  -26.2260  -27.7013   20.5728 C   0  0  0  0  0  0  0  0  0  0  0  0
  -23.0149   -7.3929   20.5737 C   0  0  0  0  0  0  0  0  0  0  0  0
  -24.8435  -14.1232   20.6310 C   0  0  0  0  0  0  0  0  0  0  0  0
  -23.9870  -16.2860   21.6779 C   0  0  0  0  0  0  0  0  0  0  0  0
  -26.4277  -34.7750   25.1462 C   0  0  0  0  0  0  0  0  0  0  0  0
  -25.9532  -30.1030   20.4430 C   0  0  0  0  0  0  0  0  0  0  0  0
  -26.5179  -33.4342   24.7262 C   0  0  0  0  0  0  0  0  0  0  0  0
  -25.4093  -28.8357   20.6959 C   0  0  0  0  0  0  0  0  0  0  0  0
  -25.3355  -11.3773   20.6005 C   0  0  0  0  0  0  0  0  0  0  0  0
  -27.5617  -27.8246   20.1910 C   0  0  0  0  0  0  0  0  0  0  0  0
  -24.5609   -9.1971   21.0114 C   0  0  0  0  0  0  0  0  0  0  0  0
  -22.5176   -7.5040   21.8722 C   0  0  0  0  0  0  0  0  0  0  0  0
  -24.0366   -8.2395   20.1433 C   0  0  0  0  0  0  0  0  0  0  0  0
  -24.5902  -15.5415   20.6466 C   0  0  0  0  0  0  0  0  0  0  0  0
  -23.9783  -17.5771   21.2094 C   0  0  0  0  0  0  0  0  0  0  0  0
  -23.4799  -15.8496   22.9460 C   0  0  0  0  0  0  0  0  0  0  0  0
  -24.2472  -31.1536   22.9107 C   0  0  0  0  0  0  0  0  0  0  0  0
  -21.7725  -29.8882   21.2384 C   0  0  0  0  0  0  0  0  0  0  0  0
  -20.7031  -27.6492   18.8953 C   0  0  0  0  0  0  0  0  0  0  0  0
  -27.3642  -20.4906   17.2222 C   0  0  0  0  0  0  0  0  0  0  0  0
  -25.1371  -35.3591   25.6637 C   0  0  0  0  0  0  0  0  0  0  0  0
  -25.0950  -31.3342   20.5432 C   0  0  0  0  0  0  0  0  0  0  0  0
  -23.9708  -28.6574   21.1054 C   0  0  0  0  0  0  0  0  0  0  0  0
  -23.9039  -34.5436   25.2838 C   0  0  0  0  0  0  0  0  0  0  0  0
  -23.8285  -20.0813   17.1354 C   0  0  0  0  0  0  0  0  0  0  0  0
  -31.2378  -22.3568   21.8475 C   0  0  0  0  0  0  0  0  0  0  0  0
  -24.1438  -33.0600   25.5445 C   0  0  0  0  0  0  0  0  0  0  0  0
  -30.3601  -23.1634   22.7964 C   0  0  0  0  0  0  0  0  0  0  0  0
  -23.5683  -18.9386   18.1185 C   0  0  0  0  0  0  0  0  0  0  0  0
  -25.1263  -19.8727   16.3582 C   0  0  0  0  0  0  0  0  0  0  0  0
  -26.0582  -18.4963   18.1778 C   0  0  0  0  0  0  0  0  0  0  0  0
  -30.4828  -21.1816   21.2521 C   0  0  0  0  0  0  0  0  0  0  0  0
  -25.3042  -32.5308   24.6931 C   0  0  1  0  0  0  0  0  0  0  0  0
  -23.8845  -31.1463   21.4526 C   0  0  1  0  0  0  0  0  0  0  0  0
  -29.0617  -23.6437   22.1355 C   0  0  2  0  0  0  0  0  0  0  0  0
  -24.7889  -18.6899   19.0249 C   0  0  2  0  0  0  0  0  0  0  0  0
  -28.3036  -22.5082   21.4139 C   0  0  2  0  0  0  0  0  0  0  0  0
  -18.6193  -26.8206   17.7689 C   0  0  0  0  0  0  0  0  0  0  0  0
  -26.5707  -22.4112   23.2307 C   0  0  0  0  0  0  0  0  0  0  0  0
  -26.8553  -20.4704   21.6635 C   0  0  0  0  0  0  0  0  0  0  0  0
  -21.0443  -28.3142   23.7489 C   0  0  0  0  0  0  0  0  0  0  0  0
  -19.6051  -26.8421   22.3241 C   0  0  0  0  0  0  0  0  0  0  0  0
  -19.0915  -29.2755   22.5172 C   0  0  0  0  0  0  0  0  0  0  0  0
  -21.6749  -28.4824   16.2269 C   0  0  0  0  0  0  0  0  0  0  0  0
  -29.3173  -24.8570   21.2345 C   0  0  0  0  0  0  0  0  0  0  0  0
  -29.5884  -20.9937   18.2014 C   0  0  0  0  0  0  0  0  0  0  0  0
  -29.4642  -22.1559   19.1690 C   0  0  0  0  0  0  0  0  0  0  0  0
  -28.0338  -25.6124   20.9250 C   0  0  0  0  0  0  0  0  0  1  0  0
  -21.1039  -28.5361   21.1772 C   0  0  1  0  0  0  0  0  0  0  0  0
  -19.7771  -27.8044   17.7025 C   0  0  2  0  0  0  0  0  0  0  0  0
  -27.5638  -21.6001   22.4042 C   0  0  0  0  0  0  0  0  0  0  0  0
  -20.2389  -28.2452   22.4360 C   0  0  0  0  0  0  0  0  0  0  0  0
  -24.9393  -16.2967   19.6017 N   0  0  0  0  0  0  0  0  0  0  0  0
  -24.5541  -17.5293   19.9740 N   0  0  0  0  0  0  0  0  0  0  0  0
  -23.1739  -29.8920   21.1957 N   0  0  0  0  0  0  0  0  0  0  0  0
  -26.2449  -19.6438   17.2760 N   0  0  0  0  0  0  0  0  0  0  0  0
  -23.5344  -18.7374   21.7379 N   0  0  0  0  0  0  0  0  0  0  0  0
  -23.5680  -14.4885   23.2682 N   0  0  0  0  0  0  0  0  0  0  0  0
  -24.8720  -32.3129   23.3292 N   0  0  0  0  0  0  0  0  0  0  0  0
  -20.3615  -28.5042   19.9217 N   0  0  0  0  0  0  0  0  0  0  0  0
  -28.3767  -20.2079   18.1308 N   0  0  0  0  0  0  0  0  0  0  0  0
  -29.2196  -21.6359   20.5614 N   0  3  1  0  0  0  0  0  0  0  0  0
  -20.5225  -27.5680   16.4338 N   0  3  0  0  0  0  0  0  0  0  0  0
  -22.9491  -16.6406   23.7622 O   0  0  0  0  0  0  0  0  0  0  0  0
  -23.9788  -30.1801   23.6050 O   0  0  0  0  0  0  0  0  0  0  0  0
  -21.0767  -30.9040   21.3139 O   0  0  0  0  0  0  0  0  0  0  0  0
  -21.6339  -26.8469   18.9160 O   0  0  0  0  0  0  0  0  0  0  0  0
  -27.4523  -21.4324   16.4270 O   0  0  0  0  0  0  0  0  0  0  0  0
  -25.5758  -10.0377   20.5859 O   0  0  0  0  0  0  0  0  0  0  0  0
  -28.3416  -26.7157   20.0739 O   0  0  0  0  0  0  0  0  0  1  0  0
  -21.5376   -6.6902   22.2861 F   0  0  0  0  0  0  0  0  0  0  0  0
  -24.5110   -8.1272   18.8951 F   0  0  0  0  0  0  0  0  0  0  0  0
  1  2  1  0  0  0  0
  1  5  2  0  0  0  0
  2  6  2  0  0  0  0
  3  8  2  0  0  0  0
  3 15  1  0  0  0  0
  4  9  1  0  0  0  0
  4 15  2  0  0  0  0
  5 17  1  0  0  0  0
  6 19  1  0  0  0  0
  7 10  2  0  0  0  0
  7 18  1  0  0  0  0
  8 21  1  0  0  0  0
  9 21  2  0  0  0  0
 10 22  1  0  0  0  0
 11 12  2  0  0  0  0
 11 23  1  0  0  0  0
 12 24  1  0  0  0  0
 13 20  1  0  0  0  0
 13 22  2  0  0  0  0
 14 24  2  0  0  0  0
 14 25  1  0  0  0  0
 15 26  1  0  0  0  0
 16 26  1  0  0  0  0
 16 27  2  0  0  0  0
 16 28  1  0  0  0  0
 17 19  2  0  0  0  0
 17 33  1  0  0  0  0
 18 20  2  0  0  0  0
 18 34  1  0  0  0  0
 19 45  1  0  0  0  0
 20 35  1  0  0  0  0
 21 81  1  0  0  0  0
 22 82  1  0  0  0  0
 23 25  2  0  0  0  0
 23 81  1  0  0  0  0
 24 83  1  0  0  0  0
 25 84  1  0  0  0  0
 26 65  2  0  0  0  0
 27 66  1  0  0  0  0
 27 69  1  0  0  0  0
 28 70  1  0  0  0  0
 28 76  2  0  0  0  0
 29 46  1  0  0  0  0
 29 71  1  0  0  0  0
 29 77  2  0  0  0  0
 30 61  1  0  0  0  0
 30 67  1  0  0  0  0
 30 78  2  0  0  0  0
 31 62  1  0  0  0  0
 31 72  1  0  0  0  0
 31 79  2  0  0  0  0
 32 68  1  0  0  0  0
 32 73  1  0  0  0  0
 32 80  2  0  0  0  0
 33 36  1  0  0  0  0
 34 46  1  0  0  0  0
 35 67  1  0  0  0  0
 36 39  1  0  0  0  0
 37 41  1  0  0  0  0
 37 42  1  0  0  0  0
 38 40  1  0  0  0  0
 38 44  1  0  0  0  0
 39 45  1  0  0  0  0
 40 47  1  0  0  0  0
 41 48  1  0  0  0  0
 42 68  1  0  0  0  0
 43 48  1  0  0  0  0
 43 68  1  0  0  0  0
 44 74  1  0  0  0  0
 45 71  1  0  0  0  0
 46 67  1  0  0  0  0
 47 49  1  0  0  0  0
 47 57  1  0  0  0  0
 48 66  1  0  0  0  0
 49 63  1  0  0  0  0
 49 74  1  0  0  0  0
 50 62  1  0  0  0  0
 51 63  1  0  0  0  0
 52 63  1  0  0  0  0
 53 64  1  0  0  0  0
 54 64  1  0  0  0  0
 55 64  1  0  0  0  0
 56 75  1  0  0  0  0
 57 60  1  0  0  0  0
 58 59  1  0  0  0  0
 58 73  1  0  0  0  0
 59 74  1  0  0  0  0
 60 82  1  0  0  0  0
 61 64  1  0  0  0  0
 61 72  1  0  0  0  0
 62 75  1  0  0  0  0
 65 66  1  0  0  0  0
M  CHG  2  74   1  75   1
M  ISO  4  32 100  60 101  73 100  82 101
M  END
> <Batch ID>
0120

> <Smiles>
CNC(C)C(=O)NC(C(=O)N1Cc2cc([101O:1][101CH2:1]CC3CCCN(CC[100NH:0][100C:0](=O)N4CCCC(n5nc(-c6ccc(Oc7ccc(F)cc7F)cc6)c(C(N)=O)c5N)C4)C3C(C)C)ccc2CC1C(=O)NC1CCCc2ccccc21)C(C)(C)C

> <Shape>
0.262

> <Color>
0.075

> <Negative vol penalty>
0.000

$$$$

  -OEChem-04052320233D

 83 92  0     1  0  0  0  0  0999 V2000
  -24.4749  -30.1624   17.6574 C   0  0  0  0  0  0  0  0  0  0  0  0
  -23.8031  -28.9519   17.5202 C   0  0  0  0  0  0  0  0  0  0  0  0
  -30.4722  -20.0515   19.5805 C   0  0  0  0  0  0  0  0  0  0  0  0
  -28.2640  -19.6672   20.4825 C   0  0  0  0  0  0  0  0  0  0  0  0
  -25.5657  -30.2590   18.5204 C   0  0  0  0  0  0  0  0  0  0  0  0
  -24.2225  -27.8369   18.2450 C   0  0  0  0  0  0  0  0  0  0  0  0
  -21.6529  -21.9504   21.4170 C   0  0  0  0  0  0  0  0  0  0  0  0
  -30.0820  -21.3255   19.1680 C   0  0  0  0  0  0  0  0  0  0  0  0
  -27.8738  -20.9413   20.0699 C   0  0  0  0  0  0  0  0  0  0  0  0
  -21.8502  -20.5706   21.4486 C   0  0  0  0  0  0  0  0  0  0  0  0
  -29.6347  -24.3697   20.5700 C   0  0  0  0  0  0  0  0  0  0  0  0
  -30.5073  -25.4283   20.8221 C   0  0  0  0  0  0  0  0  0  0  0  0
  -23.6979  -20.8757   22.9691 C   0  0  0  0  0  0  0  0  0  0  0  0
  -30.6481  -25.8765   18.4522 C   0  0  0  0  0  0  0  0  0  0  0  0
  -23.2534  -14.4441   20.7268 C   0  0  0  0  0  0  0  0  0  0  0  0
  -29.5632  -19.2223   20.2377 C   0  0  0  0  0  0  0  0  0  0  0  0
  -31.0016  -17.5821   21.5599 C   0  0  0  0  0  0  0  0  0  0  0  0
  -25.9927  -29.1471   19.2634 C   0  0  0  0  0  0  0  0  0  0  0  0
  -22.4849  -22.8054   22.1539 C   0  0  0  0  0  0  0  0  0  0  0  0
  -25.3209  -27.9184   19.1177 C   0  0  0  0  0  0  0  0  0  0  0  0
  -23.5074  -22.2658   22.9472 C   0  0  0  0  0  0  0  0  0  0  0  0
  -22.8562  -14.5178   23.0412 C   0  0  0  0  0  0  0  0  0  0  0  0
  -22.4982  -15.8586   22.9066 C   0  0  0  0  0  0  0  0  0  0  0  0
  -23.2502  -13.7789   21.9444 C   0  0  0  0  0  0  0  0  0  0  0  0
  -28.7828  -21.7704   19.4127 C   0  0  0  0  0  0  0  0  0  0  0  0
  -22.8746  -20.0332   22.2225 C   0  0  0  0  0  0  0  0  0  0  0  0
  -29.2688  -24.0644   19.2590 C   0  0  0  0  0  0  0  0  0  0  0  0
  -31.0140  -26.1817   19.7632 C   0  0  0  0  0  0  0  0  0  0  0  0
  -29.7755  -24.8178   18.2001 C   0  0  0  0  0  0  0  0  0  0  0  0
  -29.9655  -17.9059   20.6636 C   0  0  0  0  0  0  0  0  0  0  0  0
  -22.5434  -16.4385   21.6608 C   0  0  0  0  0  0  0  0  0  0  0  0
  -30.9785  -16.2106   21.6303 C   0  0  0  0  0  0  0  0  0  0  0  0
  -31.9041  -18.4439   22.2658 C   0  0  0  0  0  0  0  0  0  0  0  0
  -24.5044  -25.1488   21.4232 C   0  0  0  0  0  0  0  0  0  0  0  0
  -24.6584  -25.4940   24.6449 C   0  0  0  0  0  0  0  0  0  0  0  0
  -24.2852  -24.0851   27.7308 C   0  0  0  0  0  0  0  0  0  0  0  0
  -26.6795  -12.1511   20.6868 C   0  0  0  0  0  0  0  0  0  0  0  0
  -27.2063  -29.2877   20.1479 C   0  0  0  0  0  0  0  0  0  0  0  0
  -22.2421  -24.2896   22.1301 C   0  0  0  0  0  0  0  0  0  0  0  0
  -22.7899  -14.0928   24.4733 C   0  0  0  0  0  0  0  0  0  0  0  0
  -22.1584  -16.4662   24.2253 C   0  0  0  0  0  0  0  0  0  0  0  0
  -24.4154  -23.1391   23.7726 C   0  0  0  0  0  0  0  0  0  0  0  0
  -27.3548  -28.1569   21.1624 C   0  0  0  0  0  0  0  0  0  0  0  0
  -21.9172  -15.2072   25.0735 C   0  0  0  0  0  0  0  0  0  0  0  0
  -29.8351  -12.3475   19.0496 C   0  0  0  0  0  0  0  0  0  0  0  0
  -27.1441  -26.8045   20.4891 C   0  0  0  0  0  0  0  0  0  0  0  0
  -30.3198  -13.7651   19.3585 C   0  0  0  0  0  0  0  0  0  0  0  0
  -28.3232  -12.3012   18.8396 C   0  0  0  0  0  0  0  0  0  0  0  0
  -28.0123  -14.3017   20.2450 C   0  0  0  0  0  0  0  0  0  0  0  0
  -25.7304  -26.6930   19.9056 C   0  0  1  0  0  0  0  0  0  0  0  0
  -23.4739  -25.1028   22.5157 C   0  0  1  0  0  0  0  0  0  0  0  0
  -29.5232  -14.3895   20.5199 C   0  0  2  0  0  0  0  0  0  0  0  0
  -24.5201  -24.6042   30.1747 C   0  0  0  0  0  0  0  0  0  0  0  0
  -27.6915  -25.2713   24.3982 C   0  0  0  0  0  0  0  0  0  0  0  0
  -27.7906  -24.8418   26.8628 C   0  0  0  0  0  0  0  0  0  0  0  0
  -26.9010  -27.0112   26.0114 C   0  0  0  0  0  0  0  0  0  0  0  0
  -21.4143  -23.5724   28.2343 C   0  0  0  0  0  0  0  0  0  0  0  0
  -23.6549  -12.3539   22.0468 C   0  0  0  0  0  0  0  0  0  0  0  0
  -22.1879  -17.8838   21.4711 C   0  0  0  0  0  0  0  0  0  1  0  0
  -25.0795  -12.1502   22.5839 C   0  0  0  0  0  0  0  0  0  0  0  0
  -25.5166  -24.9128   25.7426 C   0  0  1  0  0  0  0  0  0  0  0  0
  -23.5773  -24.5730   28.9819 C   0  0  2  0  0  0  0  0  0  0  0  0
  -26.9592  -25.4927   25.7368 C   0  0  0  0  0  0  0  0  0  0  0  0
  -22.9110  -15.7499   20.5558 N   0  0  0  0  0  0  0  0  0  0  0  0
  -29.3306  -16.8270   20.1978 N   0  0  0  0  0  0  0  0  0  0  0  0
  -29.9695  -15.8118   20.8038 N   0  0  0  0  0  0  0  0  0  0  0  0
  -24.1419  -24.5844   23.7112 N   0  0  0  0  0  0  0  0  0  0  0  0
  -27.6267  -12.9073   19.9769 N   0  0  0  0  0  0  0  0  0  0  0  0
  -31.7231  -15.3188   22.3179 N   0  0  0  0  0  0  0  0  0  0  0  0
  -31.5307  -18.9070   23.5348 N   0  0  0  0  0  0  0  0  0  0  0  0
  -24.7708  -26.4210   20.9542 N   0  0  0  0  0  0  0  0  0  0  0  0
  -24.7896  -25.1318   26.9883 N   0  0  0  0  0  0  0  0  0  0  0  0
  -26.0703  -12.7990   21.7544 N   0  0  0  0  0  0  0  0  0  0  0  0
  -22.4320  -23.6781   29.3113 N   0  3  0  0  0  0  0  0  0  0  0  0
  -33.0018  -18.8062   21.7786 O   0  0  0  0  0  0  0  0  0  0  0  0
  -25.0207  -24.1072   21.0354 O   0  0  0  0  0  0  0  0  0  0  0  0
  -24.4481  -26.7092   24.6210 O   0  0  0  0  0  0  0  0  0  0  0  0
  -24.3844  -22.8944   27.4430 O   0  0  0  0  0  0  0  0  0  0  0  0
  -26.4015  -10.9831   20.3944 O   0  0  0  0  0  0  0  0  0  0  0  0
  -28.4018  -23.0137   19.0105 O   0  0  0  0  0  0  0  0  0  0  0  0
  -23.0698  -18.6868   22.2546 O   0  0  0  0  0  0  0  0  0  1  0  0
  -31.8508  -27.1992   20.0055 F   0  0  0  0  0  0  0  0  0  0  0  0
  -29.4267  -24.5301   16.9387 F   0  0  0  0  0  0  0  0  0  0  0  0
  1  2  1  0  0  0  0
  1  5  2  0  0  0  0
  2  6  2  0  0  0  0
  3  8  2  0  0  0  0
  3 16  1  0  0  0  0
  4  9  1  0  0  0  0
  4 16  2  0  0  0  0
  5 18  1  0  0  0  0
  6 20  1  0  0  0  0
  7 10  2  0  0  0  0
  7 19  1  0  0  0  0
  8 25  1  0  0  0  0
  9 25  2  0  0  0  0
 10 26  1  0  0  0  0
 11 12  2  0  0  0  0
 11 27  1  0  0  0  0
 12 28  1  0  0  0  0
 13 21  1  0  0  0  0
 13 26  2  0  0  0  0
 14 28  2  0  0  0  0
 14 29  1  0  0  0  0
 15 24  1  0  0  0  0
 15 64  2  0  0  0  0
 16 30  1  0  0  0  0
 17 30  1  0  0  0  0
 17 32  2  0  0  0  0
 17 33  1  0  0  0  0
 18 20  2  0  0  0  0
 18 38  1  0  0  0  0
 19 21  2  0  0  0  0
 19 39  1  0  0  0  0
 20 50  1  0  0  0  0
 21 42  1  0  0  0  0
 22 23  1  0  0  0  0
 22 24  2  0  0  0  0
 22 40  1  0  0  0  0
 23 31  2  0  0  0  0
 23 41  1  0  0  0  0
 24 58  1  0  0  0  0
 25 80  1  0  0  0  0
 26 81  1  0  0  0  0
 27 29  2  0  0  0  0
 27 80  1  0  0  0  0
 28 82  1  0  0  0  0
 29 83  1  0  0  0  0
 30 65  2  0  0  0  0
 31 59  1  0  0  0  0
 31 64  1  0  0  0  0
 32 66  1  0  0  0  0
 32 69  1  0  0  0  0
 33 70  1  0  0  0  0
 33 75  2  0  0  0  0
 34 51  1  0  0  0  0
 34 71  1  0  0  0  0
 34 76  2  0  0  0  0
 35 61  1  0  0  0  0
 35 67  1  0  0  0  0
 35 77  2  0  0  0  0
 36 62  1  0  0  0  0
 36 72  1  0  0  0  0
 36 78  2  0  0  0  0
 37 68  1  0  0  0  0
 37 73  1  0  0  0  0
 37 79  2  0  0  0  0
 38 43  1  0  0  0  0
 39 51  1  0  0  0  0
 40 44  1  0  0  0  0
 41 44  1  0  0  0  0
 42 67  1  0  0  0  0
 43 46  1  0  0  0  0
 45 47  1  0  0  0  0
 45 48  1  0  0  0  0
 46 50  1  0  0  0  0
 47 52  1  0  0  0  0
 48 68  1  0  0  0  0
 49 52  1  0  0  0  0
 49 68  1  0  0  0  0
 50 71  1  0  0  0  0
 51 67  1  0  0  0  0
 52 66  1  0  0  0  0
 53 62  1  0  0  0  0
 54 63  1  0  0  0  0
 55 63  1  0  0  0  0
 56 63  1  0  0  0  0
 57 74  1  0  0  0  0
 58 60  1  0  0  0  0
 59 81  1  0  0  0  0
 60 73  1  0  0  0  0
 61 63  1  0  0  0  0
 61 72  1  0  0  0  0
 62 74  1  0  0  0  0
 65 66  1  0  0  0  0
M  CHG  1  74   1
M  ISO  4  37 100  59 101  73 100  81 101
M  END
> <Batch ID>
0120

> <Smiles>
CNC(C)C(=O)NC(C(=O)N1Cc2cc([101O:1][101CH2:1]c3ncc(CC[100NH:0][100C:0](=O)N4CCCC(n5nc(-c6ccc(Oc7ccc(F)cc7F)cc6)c(C(N)=O)c5N)C4)c4c3CCC4)ccc2CC1C(=O)NC1CCCc2ccccc21)C(C)(C)C

> <Shape>
0.204

> <Color>
0.057

> <Negative vol penalty>
0.000

$$$$

  -OEChem-04052320233D

 81 89  0     1  0  0  0  0  0999 V2000
  -18.1425  -31.2633   22.2669 C   0  0  0  0  0  0  0  0  0  0  0  0
  -19.5308  -31.3454   22.2338 C   0  0  0  0  0  0  0  0  0  0  0  0
  -27.1399  -18.2848   20.5668 C   0  0  0  0  0  0  0  0  0  0  0  0
  -29.3853  -17.6494   21.1923 C   0  0  0  0  0  0  0  0  0  0  0  0
  -17.5222  -30.0254   22.4308 C   0  0  0  0  0  0  0  0  0  0  0  0
  -20.2998  -30.1897   22.3657 C   0  0  0  0  0  0  0  0  0  0  0  0
  -25.6487  -28.9950   19.6329 C   0  0  0  0  0  0  0  0  0  0  0  0
  -26.7603  -16.9427   20.5659 C   0  0  0  0  0  0  0  0  0  0  0  0
  -29.0057  -16.3072   21.1914 C   0  0  0  0  0  0  0  0  0  0  0  0
  -26.9686  -29.0944   20.0708 C   0  0  0  0  0  0  0  0  0  0  0  0
  -28.4709  -13.8709   18.9090 C   0  0  0  0  0  0  0  0  0  0  0  0
  -29.3232  -12.9568   18.2896 C   0  0  0  0  0  0  0  0  0  0  0  0
  -26.9473  -26.7520   20.6472 C   0  0  0  0  0  0  0  0  0  0  0  0
  -29.5734  -11.7730   20.3809 C   0  0  0  0  0  0  0  0  0  0  0  0
  -28.4524  -18.6382   20.8800 C   0  0  0  0  0  0  0  0  0  0  0  0
  -28.7973  -20.9213   21.9646 C   0  0  0  0  0  0  0  0  0  0  0  0
  -18.2838  -28.8527   22.5551 C   0  0  0  0  0  0  0  0  0  0  0  0
  -24.9635  -27.7739   19.7091 C   0  0  0  0  0  0  0  0  0  0  0  0
  -19.6892  -28.9351   22.5328 C   0  0  0  0  0  0  0  0  0  0  0  0
  -25.6196  -26.6392   20.2072 C   0  0  0  0  0  0  0  0  0  0  0  0
  -27.6932  -15.9538   20.8783 C   0  0  0  0  0  0  0  0  0  0  0  0
  -27.6172  -27.9735   20.5808 C   0  0  0  0  0  0  0  0  0  0  0  0
  -28.1699  -13.7361   20.2644 C   0  0  0  0  0  0  0  0  0  0  0  0
  -29.8744  -11.9078   19.0255 C   0  0  0  0  0  0  0  0  0  0  0  0
  -28.7211  -12.6872   21.0003 C   0  0  0  0  0  0  0  0  0  0  0  0
  -28.8453  -20.0245   20.8805 C   0  0  0  0  0  0  0  0  0  0  0  0
  -29.2750  -22.1034   21.4538 C   0  0  0  0  0  0  0  0  0  0  0  0
  -28.3601  -20.7050   23.3129 C   0  0  0  0  0  0  0  0  0  0  0  0
  -22.3695  -26.7486   21.2334 C   0  0  0  0  0  0  0  0  0  0  0  0
  -22.8877  -24.0586   19.4963 C   0  0  0  0  0  0  0  0  0  0  0  0
  -25.0112  -21.5407   18.0238 C   0  0  0  0  0  0  0  0  0  0  0  0
  -32.9813  -24.9368   18.3911 C   0  0  0  0  0  0  0  0  0  0  0  0
  -17.5694  -27.5433   22.7778 C   0  0  0  0  0  0  0  0  0  0  0  0
  -23.5487  -27.6771   19.2077 C   0  0  0  0  0  0  0  0  0  0  0  0
  -24.9349  -25.3003   20.2914 C   0  0  0  0  0  0  0  0  0  0  0  0
  -18.4497  -26.3201   22.5348 C   0  0  0  0  0  0  0  0  0  0  0  0
  -30.2170  -23.4851   16.6799 C   0  0  0  0  0  0  0  0  0  0  0  0
  -19.8034  -26.4927   23.2163 C   0  0  0  0  0  0  0  0  0  0  0  0
  -29.6140  -22.5253   17.7072 C   0  0  0  0  0  0  0  0  0  0  0  0
  -31.2891  -29.8529   23.9049 C   0  0  0  0  0  0  0  0  0  0  0  0
  -32.3454  -29.2863   22.9454 C   0  0  0  0  0  0  0  0  0  0  0  0
  -31.7405  -23.5286   16.7744 C   0  0  0  0  0  0  0  0  0  0  0  0
  -31.6666  -22.8638   19.1464 C   0  0  0  0  0  0  0  0  0  0  0  0
  -20.5573  -27.7009   22.6477 C   0  0  1  0  0  0  0  0  0  0  0  0
  -22.7807  -26.5041   19.8091 C   0  0  1  0  0  0  0  0  0  0  0  0
  -30.3975  -27.8586   22.8707 C   0  0  2  0  0  0  0  0  0  0  0  0
  -30.1288  -22.8281   19.1272 C   0  0  2  0  0  0  0  0  0  0  0  0
  -29.9762  -29.1863   23.4995 C   0  0  1  0  0  0  0  0  0  0  0  0
  -31.5871  -28.3253   22.0326 C   0  0  2  0  0  0  0  0  0  0  0  0
  -25.1753  -19.5114   16.5567 C   0  0  0  0  0  0  0  0  0  0  0  0
  -22.8149  -22.5012   22.1191 C   0  0  0  0  0  0  0  0  0  0  0  0
  -23.8790  -20.5755   20.9244 C   0  0  0  0  0  0  0  0  0  0  0  0
  -21.6317  -21.3931   20.2147 C   0  0  0  0  0  0  0  0  0  0  0  0
  -25.8570  -23.1530   15.6906 C   0  0  0  0  0  0  0  0  0  0  0  0
  -29.3051  -27.1917   22.0626 C   0  0  0  0  0  0  0  0  0  1  0  0
  -34.1622  -26.2555   20.1306 C   0  0  0  0  0  0  0  0  0  0  0  0
  -33.3475  -27.4897   20.4701 C   0  0  0  0  0  0  0  0  0  0  0  0
  -23.6769  -22.7884   19.7024 C   0  0  1  0  0  0  0  0  0  0  0  0
  -24.9444  -21.0139   16.6017 C   0  0  2  0  0  0  0  0  0  0  0  0
  -23.0132  -21.8401   20.7405 C   0  0  0  0  0  0  0  0  0  0  0  0
  -29.3162  -20.5886   19.7651 N   0  0  0  0  0  0  0  0  0  0  0  0
  -29.5683  -21.8526   20.1457 N   0  0  0  0  0  0  0  0  0  0  0  0
  -23.5497  -25.2580   19.7946 N   0  0  0  0  0  0  0  0  0  0  0  0
  -32.1632  -23.8216   18.1460 N   0  0  0  0  0  0  0  0  0  0  0  0
  -29.4685  -23.3224   22.0005 N   0  0  0  0  0  0  0  0  0  0  0  0
  -27.8992  -19.4304   23.6695 N   0  0  0  0  0  0  0  0  0  0  0  0
  -21.1439  -27.3731   21.3659 N   0  0  0  0  0  0  0  0  0  0  0  0
  -23.8524  -22.1977   18.3800 N   0  0  0  0  0  0  0  0  0  0  0  0
  -33.3306  -25.1463   19.7195 N   0  0  0  0  0  0  0  0  0  0  0  0
  -29.1011  -28.9857   24.6704 N   0  3  0  0  0  0  0  0  0  0  0  0
  -32.4451  -27.1977   21.6216 N   0  3  0  0  0  0  0  0  0  0  0  0
  -25.9787  -21.6738   15.7558 N   0  3  0  0  0  0  0  0  0  0  0  0
  -28.3622  -21.6195   24.1715 O   0  0  0  0  0  0  0  0  0  0  0  0
  -23.1087  -26.3955   22.1448 O   0  0  0  0  0  0  0  0  0  0  0  0
  -21.7289  -23.9896   19.0790 O   0  0  0  0  0  0  0  0  0  0  0  0
  -25.9916  -21.3818   18.7477 O   0  0  0  0  0  0  0  0  0  0  0  0
  -33.3671  -25.6931   17.4932 O   0  0  0  0  0  0  0  0  0  0  0  0
  -27.3230  -14.6440   20.8777 O   0  0  0  0  0  0  0  0  0  0  0  0
  -28.9052  -28.0678   21.0095 O   0  0  0  0  0  0  0  0  0  1  0  0
  -30.6915  -11.0292   18.4302 F   0  0  0  0  0  0  0  0  0  0  0  0
  -28.4347  -12.5519   22.3024 F   0  0  0  0  0  0  0  0  0  0  0  0
  1  2  1  0  0  0  0
  1  5  2  0  0  0  0
  2  6  2  0  0  0  0
  3  8  2  0  0  0  0
  3 15  1  0  0  0  0
  4  9  1  0  0  0  0
  4 15  2  0  0  0  0
  5 17  1  0  0  0  0
  6 19  1  0  0  0  0
  7 10  2  0  0  0  0
  7 18  1  0  0  0  0
  8 21  1  0  0  0  0
  9 21  2  0  0  0  0
 10 22  1  0  0  0  0
 11 12  2  0  0  0  0
 11 23  1  0  0  0  0
 12 24  1  0  0  0  0
 13 20  1  0  0  0  0
 13 22  2  0  0  0  0
 14 24  2  0  0  0  0
 14 25  1  0  0  0  0
 15 26  1  0  0  0  0
 16 26  1  0  0  0  0
 16 27  2  0  0  0  0
 16 28  1  0  0  0  0
 17 19  2  0  0  0  0
 17 33  1  0  0  0  0
 18 20  2  0  0  0  0
 18 34  1  0  0  0  0
 19 44  1  0  0  0  0
 20 35  1  0  0  0  0
 21 78  1  0  0  0  0
 22 79  1  0  0  0  0
 23 25  2  0  0  0  0
 23 78  1  0  0  0  0
 24 80  1  0  0  0  0
 25 81  1  0  0  0  0
 26 61  2  0  0  0  0
 27 62  1  0  0  0  0
 27 65  1  0  0  0  0
 28 66  1  0  0  0  0
 28 73  2  0  0  0  0
 29 45  1  0  0  0  0
 29 67  1  0  0  0  0
 29 74  2  0  0  0  0
 30 58  1  0  0  0  0
 30 63  1  0  0  0  0
 30 75  2  0  0  0  0
 31 59  1  0  0  0  0
 31 68  1  0  0  0  0
 31 76  2  0  0  0  0
 32 64  1  0  0  0  0
 32 69  1  0  0  0  0
 32 77  2  0  0  0  0
 33 36  1  0  0  0  0
 34 45  1  0  0  0  0
 35 63  1  0  0  0  0
 36 38  1  0  0  0  0
 37 39  1  0  0  0  0
 37 42  1  0  0  0  0
 38 44  1  0  0  0  0
 39 47  1  0  0  0  0
 40 41  1  0  0  0  0
 40 48  1  0  0  0  0
 41 49  1  0  0  0  0
 42 64  1  0  0  0  0
 43 47  1  0  0  0  0
 43 64  1  0  0  0  0
 44 67  1  0  0  0  0
 45 63  1  0  0  0  0
 46 48  1  0  0  0  0
 46 49  1  0  0  0  0
 46 55  1  0  0  0  0
 47 62  1  0  0  0  0
 48 70  1  0  0  0  0
 49 71  1  0  0  0  0
 50 59  1  0  0  0  0
 51 60  1  0  0  0  0
 52 60  1  0  0  0  0
 53 60  1  0  0  0  0
 54 72  1  0  0  0  0
 55 79  1  0  0  0  0
 56 57  1  0  0  0  0
 56 69  1  0  0  0  0
 57 71  1  0  0  0  0
 58 60  1  0  0  0  0
 58 68  1  0  0  0  0
 59 72  1  0  0  0  0
 61 62  1  0  0  0  0
M  CHG  3  70   1  71   1  72   1
M  ISO  4  32 100  55 101  69 100  79 101
M  END
> <Batch ID>
0120

> <Smiles>
CNC(C)C(=O)NC(C(=O)N1Cc2cc([101O:1][101CH2:1]C3C(N)CCC3NCC[100NH:0][100C:0](=O)N3CCCC(n4nc(-c5ccc(Oc6ccc(F)cc6F)cc5)c(C(N)=O)c4N)C3)ccc2CC1C(=O)NC1CCCc2ccccc21)C(C)(C)C

> <Shape>
0.225

> <Color>
0.070

> <Negative vol penalty>
0.000

$$$$

  -OEChem-04052320233D

 88 97  0     1  0  0  0  0  0999 V2000
  -24.9555  -35.6332   24.4206 C   0  0  0  0  0  0  0  0  0  0  0  0
  -25.7300  -35.3073   23.3119 C   0  0  0  0  0  0  0  0  0  0  0  0
  -25.5837  -14.0325   20.3484 C   0  0  0  0  0  0  0  0  0  0  0  0
  -25.8048  -14.6166   22.6823 C   0  0  0  0  0  0  0  0  0  0  0  0
  -24.6741  -34.6637   25.3823 C   0  0  0  0  0  0  0  0  0  0  0  0
  -26.2245  -34.0118   23.1647 C   0  0  0  0  0  0  0  0  0  0  0  0
  -25.3574  -28.9679   17.2626 C   0  0  0  0  0  0  0  0  0  0  0  0
  -24.5824  -13.1170   20.6723 C   0  0  0  0  0  0  0  0  0  0  0  0
  -24.8035  -13.7012   23.0062 C   0  0  0  0  0  0  0  0  0  0  0  0
  -25.1439  -27.9327   16.3521 C   0  0  0  0  0  0  0  0  0  0  0  0
  -22.2181  -10.3660   20.9274 C   0  0  0  0  0  0  0  0  0  0  0  0
  -22.2733   -9.1051   20.3335 C   0  0  0  0  0  0  0  0  0  0  0  0
  -30.7397  -20.5583   13.8721 C   0  0  0  0  0  0  0  0  0  0  0  0
  -31.2054  -20.7853   15.1907 C   0  0  0  0  0  0  0  0  0  0  0  0
  -25.4846  -26.3044   18.1072 C   0  0  0  0  0  0  0  0  0  0  0  0
  -24.4359   -8.7251   21.3415 C   0  0  0  0  0  0  0  0  0  0  0  0
  -26.1949  -14.7823   21.3534 C   0  0  0  0  0  0  0  0  0  0  0  0
  -28.4595  -15.4553   20.3909 C   0  0  0  0  0  0  0  0  0  0  0  0
  -25.1572  -33.3532   25.2419 C   0  0  0  0  0  0  0  0  0  0  0  0
  -25.6204  -28.6752   18.6037 C   0  0  0  0  0  0  0  0  0  0  0  0
  -25.9503  -33.0241   24.1260 C   0  0  0  0  0  0  0  0  0  0  0  0
  -25.6870  -27.3374   19.0263 C   0  0  0  0  0  0  0  0  0  0  0  0
  -24.1923  -12.9514   22.0012 C   0  0  0  0  0  0  0  0  0  0  0  0
  -25.2076  -26.6043   16.7733 C   0  0  0  0  0  0  0  0  0  0  0  0
  -23.2718  -10.8065   21.7282 C   0  0  0  0  0  0  0  0  0  0  0  0
  -23.3822   -8.2846   20.5406 C   0  0  0  0  0  0  0  0  0  0  0  0
  -24.3807   -9.9860   21.9353 C   0  0  0  0  0  0  0  0  0  0  0  0
  -27.2297  -15.7278   21.0194 C   0  0  0  0  0  0  0  0  0  0  0  0
  -29.6117  -21.3288   13.6959 C   0  0  0  0  0  0  0  0  0  0  0  0
  -30.3476  -21.6876   15.7802 C   0  0  0  0  0  0  0  0  0  0  0  0
  -29.0774  -16.6786   20.3006 C   0  0  0  0  0  0  0  0  0  0  0  0
  -28.9954  -14.2080   19.9298 C   0  0  0  0  0  0  0  0  0  0  0  0
  -26.3241  -29.9940   22.0448 C   0  0  0  0  0  0  0  0  0  0  0  0
  -24.4142  -27.6162   22.3751 C   0  0  0  0  0  0  0  0  0  0  0  0
  -21.9891  -25.2192   22.2746 C   0  0  0  0  0  0  0  0  0  0  0  0
  -28.9202  -22.1372   19.1498 C   0  0  0  0  0  0  0  0  0  0  0  0
  -24.8663  -32.3516   26.3313 C   0  0  0  0  0  0  0  0  0  0  0  0
  -25.9176  -29.7567   19.6066 C   0  0  0  0  0  0  0  0  0  0  0  0
  -26.0072  -27.0691   20.4715 C   0  0  0  0  0  0  0  0  0  0  0  0
  -25.1150  -30.9052   25.9113 C   0  0  0  0  0  0  0  0  0  0  0  0
  -27.9017  -21.1244   22.4076 C   0  0  0  0  0  0  0  0  0  0  0  0
  -26.4579  -30.7797   25.1987 C   0  0  0  0  0  0  0  0  0  0  0  0
  -27.7316  -19.6093   22.2832 C   0  0  0  0  0  0  0  0  0  0  0  0
  -28.2484  -24.2157   14.1835 C   0  0  0  0  0  0  0  0  0  0  0  0
  -26.7889  -24.5496   13.8554 C   0  0  0  0  0  0  0  0  0  0  0  0
  -26.8127  -22.4219   14.9362 C   0  0  0  0  0  0  0  0  0  0  0  0
  -27.4668  -21.8475   21.1348 C   0  0  0  0  0  0  0  0  0  0  0  0
  -27.9371  -19.8479   19.7733 C   0  0  0  0  0  0  0  0  0  0  0  0
  -26.4840  -31.6234   23.9184 C   0  0  1  0  0  0  0  0  0  0  0  0
  -25.3860  -29.4362   21.0151 C   0  0  1  0  0  0  0  0  0  0  0  0
  -28.2377  -22.9748   15.1008 C   0  0  1  0  0  0  0  0  0  0  0  0
  -28.4151  -19.0709   21.0119 C   0  0  2  0  0  0  0  0  0  0  0  0
  -25.9303  -23.6685   14.7724 C   0  0  2  0  0  0  0  0  0  0  0  0
  -24.5877  -23.3188   14.1248 C   0  0  0  0  0  0  0  0  0  0  0  0
  -28.0436  -20.1465   12.1158 C   0  0  0  0  0  0  0  0  0  0  0  0
  -29.4729  -22.0493   11.2843 C   0  0  0  0  0  0  0  0  0  0  0  0
  -31.7907  -22.4033   17.7211 C   0  0  0  0  0  0  0  0  0  0  0  0
  -20.4867  -23.8733   23.7676 C   0  0  0  0  0  0  0  0  0  0  0  0
  -26.7776  -25.8544   23.1588 C   0  0  0  0  0  0  0  0  0  0  0  0
  -25.1429  -24.0728   23.8084 C   0  0  0  0  0  0  0  0  0  0  0  0
  -25.1300  -26.2673   24.9943 C   0  0  0  0  0  0  0  0  0  0  0  0
  -19.5511  -26.3407   21.0267 C   0  0  0  0  0  0  0  0  0  0  0  0
  -25.6702  -24.3650   16.1183 C   0  0  0  0  0  0  0  0  0  1  0  0
  -28.7366  -21.4697   12.5138 C   0  0  0  0  0  0  0  0  0  0  0  0
  -30.3701  -22.2656   17.1398 C   0  0  2  0  0  0  0  0  0  0  0  0
  -24.2681  -26.1358   22.6212 C   0  0  1  0  0  0  0  0  0  0  0  0
  -20.6245  -25.1383   22.9348 C   0  0  2  0  0  0  0  0  0  0  0  0
  -25.3296  -25.5933   23.6193 C   0  0  0  0  0  0  0  0  0  0  0  0
  -27.0738  -17.0225   21.3082 N   0  0  0  0  0  0  0  0  0  0  0  0
  -29.3826  -22.0108   14.8624 N   0  0  0  0  0  0  0  0  0  0  0  0
  -28.2139  -17.5745   20.8591 N   0  0  0  0  0  0  0  0  0  0  0  0
  -25.2647  -28.0031   21.3323 N   0  0  0  0  0  0  0  0  0  0  0  0
  -28.1526  -21.2904   19.9664 N   0  0  0  0  0  0  0  0  0  0  0  0
  -30.2697  -17.0646   19.7988 N   0  0  0  0  0  0  0  0  0  0  0  0
  -28.2287  -13.0473   20.1010 N   0  0  0  0  0  0  0  0  0  0  0  0
  -25.7580  -30.9565   22.8588 N   0  0  0  0  0  0  0  0  0  0  0  0
  -22.8878  -25.9267   23.0447 N   0  0  0  0  0  0  0  0  0  0  0  0
  -29.5418  -21.5274   18.0670 N   0  0  0  0  0  0  0  0  0  0  0  0
  -19.5490  -25.1412   21.9031 N   0  3  0  0  0  0  0  0  0  0  0  0
  -30.1279  -14.1227   19.3971 O   0  0  0  0  0  0  0  0  0  0  0  0
  -27.4766  -29.5811   22.0990 O   0  0  0  0  0  0  0  0  0  0  0  0
  -23.7968  -28.4103   23.0902 O   0  0  0  0  0  0  0  0  0  0  0  0
  -22.2343  -24.7030   21.1866 O   0  0  0  0  0  0  0  0  0  0  0  0
  -29.0467  -23.3461   19.3724 O   0  0  0  0  0  0  0  0  0  0  0  0
  -23.2152  -12.0583   22.3177 O   0  0  0  0  0  0  0  0  0  0  0  0
  -24.9937  -25.5987   15.8802 O   0  0  0  0  0  0  0  0  0  1  0  0
  -23.4344   -7.0732   19.9715 F   0  0  0  0  0  0  0  0  0  0  0  0
  -25.3955  -10.4033   22.7046 F   0  0  0  0  0  0  0  0  0  0  0  0
  1  2  1  0  0  0  0
  1  5  2  0  0  0  0
  2  6  2  0  0  0  0
  3  8  2  0  0  0  0
  3 17  1  0  0  0  0
  4  9  1  0  0  0  0
  4 17  2  0  0  0  0
  5 19  1  0  0  0  0
  6 21  1  0  0  0  0
  7 10  2  0  0  0  0
  7 20  1  0  0  0  0
  8 23  1  0  0  0  0
  9 23  2  0  0  0  0
 10 24  1  0  0  0  0
 11 12  2  0  0  0  0
 11 25  1  0  0  0  0
 12 26  1  0  0  0  0
 13 14  1  0  0  0  0
 13 29  2  0  0  0  0
 14 30  2  0  0  0  0
 15 22  1  0  0  0  0
 15 24  2  0  0  0  0
 16 26  2  0  0  0  0
 16 27  1  0  0  0  0
 17 28  1  0  0  0  0
 18 28  1  0  0  0  0
 18 31  2  0  0  0  0
 18 32  1  0  0  0  0
 19 21  2  0  0  0  0
 19 37  1  0  0  0  0
 20 22  2  0  0  0  0
 20 38  1  0  0  0  0
 21 49  1  0  0  0  0
 22 39  1  0  0  0  0
 23 85  1  0  0  0  0
 24 86  1  0  0  0  0
 25 27  2  0  0  0  0
 25 85  1  0  0  0  0
 26 87  1  0  0  0  0
 27 88  1  0  0  0  0
 28 69  2  0  0  0  0
 29 64  1  0  0  0  0
 29 70  1  0  0  0  0
 30 65  1  0  0  0  0
 30 70  1  0  0  0  0
 31 71  1  0  0  0  0
 31 74  1  0  0  0  0
 32 75  1  0  0  0  0
 32 80  2  0  0  0  0
 33 50  1  0  0  0  0
 33 76  1  0  0  0  0
 33 81  2  0  0  0  0
 34 66  1  0  0  0  0
 34 72  1  0  0  0  0
 34 82  2  0  0  0  0
 35 67  1  0  0  0  0
 35 77  1  0  0  0  0
 35 83  2  0  0  0  0
 36 73  1  0  0  0  0
 36 78  1  0  0  0  0
 36 84  2  0  0  0  0
 37 40  1  0  0  0  0
 38 50  1  0  0  0  0
 39 72  1  0  0  0  0
 40 42  1  0  0  0  0
 41 43  1  0  0  0  0
 41 47  1  0  0  0  0
 42 49  1  0  0  0  0
 43 52  1  0  0  0  0
 44 45  1  0  0  0  0
 44 51  1  0  0  0  0
 45 53  1  0  0  0  0
 46 51  1  0  0  0  0
 46 53  1  0  0  0  0
 47 73  1  0  0  0  0
 48 52  1  0  0  0  0
 48 73  1  0  0  0  0
 49 76  1  0  0  0  0
 50 72  1  0  0  0  0
 51 70  1  0  0  0  0
 52 71  1  0  0  0  0
 53 54  1  0  0  0  0
 53 63  1  0  0  0  0
 55 64  1  0  0  0  0
 56 64  1  0  0  0  0
 57 65  1  0  0  0  0
 58 67  1  0  0  0  0
 59 68  1  0  0  0  0
 60 68  1  0  0  0  0
 61 68  1  0  0  0  0
 62 79  1  0  0  0  0
 63 86  1  0  0  0  0
 65 78  1  0  0  0  0
 66 68  1  0  0  0  0
 66 77  1  0  0  0  0
 67 79  1  0  0  0  0
 69 71  1  0  0  0  0
M  CHG  1  79   1
M  ISO  4  36 100  63 101  78 100  86 101
M  END
> <Batch ID>
0120

> <Smiles>
CNC(C)C(=O)NC(C(=O)N1Cc2cc([101O:1][101CH2:1]C3(C)CCC(n4c(C(C)C)ccc4C(C)[100NH:0][100C:0](=O)N4CCCC(n5nc(-c6ccc(Oc7ccc(F)cc7F)cc6)c(C(N)=O)c5N)C4)C3)ccc2CC1C(=O)NC1CCCc2ccccc21)C(C)(C)C

> <Shape>
0.261

> <Color>
0.074

> <Negative vol penalty>
0.000

$$$$

  -OEChem-04052320233D

 86 95  0     1  0  0  0  0  0999 V2000
  -30.5768  -35.2241   22.1088 C   0  0  0  0  0  0  0  0  0  0  0  0
  -30.3974  -33.8446   22.1200 C   0  0  0  0  0  0  0  0  0  0  0  0
  -23.8811   -9.5812   21.6715 C   0  0  0  0  0  0  0  0  0  0  0  0
  -25.3820  -10.3608   23.3967 C   0  0  0  0  0  0  0  0  0  0  0  0
  -29.5623  -36.0616   22.5706 C   0  0  0  0  0  0  0  0  0  0  0  0
  -29.2036  -33.3017   22.5940 C   0  0  0  0  0  0  0  0  0  0  0  0
  -31.0738  -19.9409   21.1006 C   0  0  0  0  0  0  0  0  0  0  0  0
  -27.4170  -29.6277   19.6016 C   0  0  0  0  0  0  0  0  0  0  0  0
  -31.4774  -18.6324   21.3659 C   0  0  0  0  0  0  0  0  0  0  0  0
  -23.6065   -8.4405   22.4258 C   0  0  0  0  0  0  0  0  0  0  0  0
  -25.1074   -9.2201   24.1511 C   0  0  0  0  0  0  0  0  0  0  0  0
  -28.0190  -28.3743   19.7035 C   0  0  0  0  0  0  0  0  0  0  0  0
  -21.6937   -7.6166   25.0895 C   0  0  0  0  0  0  0  0  0  0  0  0
  -20.3609   -7.2221   25.2064 C   0  0  0  0  0  0  0  0  0  0  0  0
  -29.1408  -19.6319   22.5166 C   0  0  0  0  0  0  0  0  0  0  0  0
  -26.1981  -27.6194   21.0940 C   0  0  0  0  0  0  0  0  0  0  0  0
  -20.8980   -5.1030   24.1777 C   0  0  0  0  0  0  0  0  0  0  0  0
  -24.7689  -10.5413   22.1569 C   0  0  0  0  0  0  0  0  0  0  0  0
  -24.1358  -12.6973   20.9491 C   0  0  0  0  0  0  0  0  0  0  0  0
  -29.9056  -20.4407   21.6760 C   0  0  0  0  0  0  0  0  0  0  0  0
  -28.3517  -35.5292   23.0415 C   0  0  0  0  0  0  0  0  0  0  0  0
  -26.2044  -29.8901   20.2552 C   0  0  0  0  0  0  0  0  0  0  0  0
  -28.1725  -34.1328   23.0637 C   0  0  0  0  0  0  0  0  0  0  0  0
  -25.5814  -28.8761   20.9967 C   0  0  0  0  0  0  0  0  0  0  0  0
  -30.7127  -17.8235   22.2065 C   0  0  0  0  0  0  0  0  0  0  0  0
  -29.5443  -18.3232   22.7819 C   0  0  0  0  0  0  0  0  0  0  0  0
  -24.2196   -8.2600   23.6656 C   0  0  0  0  0  0  0  0  0  0  0  0
  -27.4110  -27.3708   20.4521 C   0  0  0  0  0  0  0  0  0  0  0  0
  -22.6286   -6.7543   24.5167 C   0  0  0  0  0  0  0  0  0  0  0  0
  -19.9631   -5.9653   24.7505 C   0  0  0  0  0  0  0  0  0  0  0  0
  -22.2308   -5.4976   24.0608 C   0  0  0  0  0  0  0  0  0  0  0  0
  -25.0535  -11.7196   21.3779 C   0  0  0  0  0  0  0  0  0  0  0  0
  -24.8983  -13.6004   20.2495 C   0  0  0  0  0  0  0  0  0  0  0  0
  -22.7208  -12.7815   21.1640 C   0  0  0  0  0  0  0  0  0  0  0  0
  -25.2720  -31.9073   22.5280 C   0  0  0  0  0  0  0  0  0  0  0  0
  -22.3351  -30.7151   21.8382 C   0  0  0  0  0  0  0  0  0  0  0  0
  -20.4735  -28.1483   20.5762 C   0  0  0  0  0  0  0  0  0  0  0  0
  -30.7014  -15.0608   20.4542 C   0  0  0  0  0  0  0  0  0  0  0  0
  -27.3025  -36.4723   23.5746 C   0  0  0  0  0  0  0  0  0  0  0  0
  -25.5544  -31.2391   20.1135 C   0  0  0  0  0  0  0  0  0  0  0  0
  -24.2691  -29.1007   21.7009 C   0  0  0  0  0  0  0  0  0  0  0  0
  -25.9226  -35.8339   23.7113 C   0  0  0  0  0  0  0  0  0  0  0  0
  -28.8863  -13.8933   17.6225 C   0  0  0  0  0  0  0  0  0  0  0  0
  -29.1614  -22.0777   19.8945 C   0  0  0  0  0  0  0  0  0  0  0  0
  -30.4929  -22.8934   21.8898 C   0  0  0  0  0  0  0  0  0  0  0  0
  -26.0301  -34.4691   24.3840 C   0  0  0  0  0  0  0  0  0  0  0  0
  -28.7078  -23.5103   19.6156 C   0  0  0  0  0  0  0  0  0  0  0  0
  -30.0360  -24.3240   21.6059 C   0  0  0  0  0  0  0  0  0  0  0  0
  -27.6153  -13.2920   18.2252 C   0  0  0  0  0  0  0  0  0  0  0  0
  -30.1037  -13.6460   18.5106 C   0  0  0  0  0  0  0  0  0  0  0  0
  -28.6769  -13.4815   20.5134 C   0  0  0  0  0  0  0  0  0  0  0  0
  -29.4664  -21.8646   21.3868 C   0  0  0  0  0  0  0  0  0  0  0  0
  -26.8821  -33.5071   23.5471 C   0  0  1  0  0  0  0  0  0  0  0  0
  -24.5783  -31.5537   21.2429 C   0  0  1  0  0  0  0  0  0  0  0  0
  -29.7314  -24.5372   20.1173 C   0  0  0  0  0  0  0  0  0  0  0  0
  -27.4123  -13.7536   19.6808 C   0  0  2  0  0  0  0  0  0  0  0  0
  -28.7094  -17.4756   23.6847 C   0  0  0  0  0  0  0  0  0  0  0  0
  -18.0965  -27.4472   20.1814 C   0  0  0  0  0  0  0  0  0  0  0  0
  -22.0277  -30.0926   24.8094 C   0  0  0  0  0  0  0  0  0  0  0  0
  -20.1215  -28.5788   24.2237 C   0  0  0  0  0  0  0  0  0  0  0  0
  -19.9756  -31.0175   23.7195 C   0  0  0  0  0  0  0  0  0  0  0  0
  -20.8861  -27.9833   17.6502 C   0  0  0  0  0  0  0  0  0  0  0  0
  -31.1642  -16.4254   22.4749 C   0  0  0  0  0  0  0  0  0  0  0  0
  -29.2340  -25.9598   19.8676 C   0  0  0  0  0  0  0  0  0  1  0  0
  -21.5075  -29.5557   22.3381 C   0  0  1  0  0  0  0  0  0  0  0  0
  -19.3195  -28.1308   19.5900 C   0  0  2  0  0  0  0  0  0  0  0  0
  -20.9338  -29.8072   23.7611 C   0  0  0  0  0  0  0  0  0  0  0  0
  -26.3033  -11.9773   20.9836 N   0  0  0  0  0  0  0  0  0  0  0  0
  -26.1764  -13.1271   20.2995 N   0  0  0  0  0  0  0  0  0  0  0  0
  -23.6763  -30.4384   21.5374 N   0  0  0  0  0  0  0  0  0  0  0  0
  -29.8464  -14.1076   19.8769 N   0  0  0  0  0  0  0  0  0  0  0  0
  -24.5934  -14.7453   19.6024 N   0  0  0  0  0  0  0  0  0  0  0  0
  -22.0961  -11.7691   21.9050 N   0  0  0  0  0  0  0  0  0  0  0  0
  -26.1173  -32.9960   22.4299 N   0  0  0  0  0  0  0  0  0  0  0  0
  -20.4925  -29.3095   21.3195 N   0  0  0  0  0  0  0  0  0  0  0  0
  -30.3826  -15.4485   21.7499 N   0  0  0  0  0  0  0  0  0  0  0  0
  -19.7099  -27.4042   18.3488 N   0  3  0  0  0  0  0  0  0  0  0  0
  -22.0281  -13.7180   20.6984 O   0  0  0  0  0  0  0  0  0  0  0  0
  -25.0551  -31.2426   23.5343 O   0  0  0  0  0  0  0  0  0  0  0  0
  -21.8090  -31.8237   21.7122 O   0  0  0  0  0  0  0  0  0  0  0  0
  -21.2754  -27.2226   20.6797 O   0  0  0  0  0  0  0  0  0  0  0  0
  -31.6736  -15.5355   19.8571 O   0  0  0  0  0  0  0  0  0  0  0  0
  -23.9516   -7.1472   24.4021 O   0  0  0  0  0  0  0  0  0  0  0  0
  -27.9969  -26.1468   20.5538 O   0  0  0  0  0  0  0  0  0  1  0  0
  -18.6835   -5.5860   24.8642 F   0  0  0  0  0  0  0  0  0  0  0  0
  -23.1247   -4.6644   23.5107 F   0  0  0  0  0  0  0  0  0  0  0  0
  1  2  1  0  0  0  0
  1  5  2  0  0  0  0
  2  6  2  0  0  0  0
  3 10  2  0  0  0  0
  3 18  1  0  0  0  0
  4 11  1  0  0  0  0
  4 18  2  0  0  0  0
  5 21  1  0  0  0  0
  6 23  1  0  0  0  0
  7  9  2  0  0  0  0
  7 20  1  0  0  0  0
  8 12  2  0  0  0  0
  8 22  1  0  0  0  0
  9 25  1  0  0  0  0
 10 27  1  0  0  0  0
 11 27  2  0  0  0  0
 12 28  1  0  0  0  0
 13 14  2  0  0  0  0
 13 29  1  0  0  0  0
 14 30  1  0  0  0  0
 15 20  2  0  0  0  0
 15 26  1  0  0  0  0
 16 24  1  0  0  0  0
 16 28  2  0  0  0  0
 17 30  2  0  0  0  0
 17 31  1  0  0  0  0
 18 32  1  0  0  0  0
 19 32  1  0  0  0  0
 19 33  2  0  0  0  0
 19 34  1  0  0  0  0
 20 52  1  0  0  0  0
 21 23  2  0  0  0  0
 21 39  1  0  0  0  0
 22 24  2  0  0  0  0
 22 40  1  0  0  0  0
 23 53  1  0  0  0  0
 24 41  1  0  0  0  0
 25 26  2  0  0  0  0
 25 63  1  0  0  0  0
 26 57  1  0  0  0  0
 27 83  1  0  0  0  0
 28 84  1  0  0  0  0
 29 31  2  0  0  0  0
 29 83  1  0  0  0  0
 30 85  1  0  0  0  0
 31 86  1  0  0  0  0
 32 68  2  0  0  0  0
 33 69  1  0  0  0  0
 33 72  1  0  0  0  0
 34 73  1  0  0  0  0
 34 78  2  0  0  0  0
 35 54  1  0  0  0  0
 35 74  1  0  0  0  0
 35 79  2  0  0  0  0
 36 65  1  0  0  0  0
 36 70  1  0  0  0  0
 36 80  2  0  0  0  0
 37 66  1  0  0  0  0
 37 75  1  0  0  0  0
 37 81  2  0  0  0  0
 38 71  1  0  0  0  0
 38 76  1  0  0  0  0
 38 82  2  0  0  0  0
 39 42  1  0  0  0  0
 40 54  1  0  0  0  0
 41 70  1  0  0  0  0
 42 46  1  0  0  0  0
 43 49  1  0  0  0  0
 43 50  1  0  0  0  0
 44 47  1  0  0  0  0
 44 52  1  0  0  0  0
 45 48  1  0  0  0  0
 45 52  1  0  0  0  0
 46 53  1  0  0  0  0
 47 55  1  0  0  0  0
 48 55  1  0  0  0  0
 49 56  1  0  0  0  0
 50 71  1  0  0  0  0
 51 56  1  0  0  0  0
 51 71  1  0  0  0  0
 53 74  1  0  0  0  0
 54 70  1  0  0  0  0
 55 64  1  0  0  0  0
 56 69  1  0  0  0  0
 58 66  1  0  0  0  0
 59 67  1  0  0  0  0
 60 67  1  0  0  0  0
 61 67  1  0  0  0  0
 62 77  1  0  0  0  0
 63 76  1  0  0  0  0
 64 84  1  0  0  0  0
 65 67  1  0  0  0  0
 65 75  1  0  0  0  0
 66 77  1  0  0  0  0
 68 69  1  0  0  0  0
M  CHG  1  77   1
M  ISO  4  38 100  64 101  76 100  84 101
M  END
> <Batch ID>
0120

> <Smiles>
CNC(C)C(=O)NC(C(=O)N1Cc2cc([101O:1][101CH2:1]C3CCC(c4ccc(C[100NH:0][100C:0](=O)N5CCCC(n6nc(-c7ccc(Oc8ccc(F)cc8F)cc7)c(C(N)=O)c6N)C5)c(C)c4)CC3)ccc2CC1C(=O)NC1CCCc2ccccc21)C(C)(C)C

> <Shape>
0.347

> <Color>
0.117

> <Negative vol penalty>
0.000

$$$$

  -OEChem-04052320232D

  0  0  0     0  0  0  0  0  0999 V2000
M  END
$$$$

  -OEChem-04052320233D

 88 96  0     1  0  0  0  0  0999 V2000
  -20.1593  -19.4185   18.4251 C   0  0  0  0  0  0  0  0  0  0  0  0
  -21.4493  -19.7278   18.8442 C   0  0  0  0  0  0  0  0  0  0  0  0
  -20.4651  -24.6682   21.5127 C   0  0  0  0  0  0  0  0  0  0  0  0
  -21.2253  -24.7031   23.8057 C   0  0  0  0  0  0  0  0  0  0  0  0
  -19.5814  -18.2034   18.7902 C   0  0  0  0  0  0  0  0  0  0  0  0
  -22.1618  -18.8224   19.6297 C   0  0  0  0  0  0  0  0  0  0  0  0
  -26.9510  -18.2581   18.0836 C   0  0  0  0  0  0  0  0  0  0  0  0
  -20.2189  -23.2991   21.6151 C   0  0  0  0  0  0  0  0  0  0  0  0
  -20.9790  -23.3340   23.9081 C   0  0  0  0  0  0  0  0  0  0  0  0
  -27.8549  -19.2607   18.4321 C   0  0  0  0  0  0  0  0  0  0  0  0
  -20.8902  -19.7799   24.6635 C   0  0  0  0  0  0  0  0  0  0  0  0
  -21.8641  -18.9899   25.2742 C   0  0  0  0  0  0  0  0  0  0  0  0
  -28.6677  -17.8901   20.2432 C   0  0  0  0  0  0  0  0  0  0  0  0
  -23.4641  -19.6634   23.5939 C   0  0  0  0  0  0  0  0  0  0  0  0
  -20.9683  -25.3702   22.6080 C   0  0  0  0  0  0  0  0  0  0  0  0
  -20.3274  -27.8331   22.7839 C   0  0  0  0  0  0  0  0  0  0  0  0
  -20.2909  -17.2785   19.5725 C   0  0  0  0  0  0  0  0  0  0  0  0
  -26.8910  -17.0664   18.8203 C   0  0  0  0  0  0  0  0  0  0  0  0
  -21.5924  -17.5943   20.0067 C   0  0  0  0  0  0  0  0  0  0  0  0
  -27.7639  -16.8729   19.9004 C   0  0  0  0  0  0  0  0  0  0  0  0
  -20.4758  -22.6320   22.8128 C   0  0  0  0  0  0  0  0  0  0  0  0
  -28.7114  -19.0780   19.5138 C   0  0  0  0  0  0  0  0  0  0  0  0
  -21.2032  -20.5116   23.5179 C   0  0  0  0  0  0  0  0  0  0  0  0
  -23.1511  -18.9317   24.7394 C   0  0  0  0  0  0  0  0  0  0  0  0
  -22.4902  -20.4534   22.9831 C   0  0  0  0  0  0  0  0  0  0  0  0
  -21.2234  -26.7844   22.5026 C   0  0  0  0  0  0  0  0  0  0  0  0
  -21.0455  -28.9759   22.5294 C   0  0  0  0  0  0  0  0  0  0  0  0
  -18.9675  -27.7791   23.2351 C   0  0  0  0  0  0  0  0  0  0  0  0
  -24.6638  -15.6174   20.5648 C   0  0  0  0  0  0  0  0  0  0  0  0
  -26.8678  -13.2411   20.6975 C   0  0  0  0  0  0  0  0  0  0  0  0
  -30.1470  -12.3165   20.4990 C   0  0  0  0  0  0  0  0  0  0  0  0
  -26.8437  -30.0830   22.6343 C   0  0  0  0  0  0  0  0  0  0  0  0
  -19.6069  -15.9981   19.9816 C   0  0  0  0  0  0  0  0  0  0  0  0
  -25.9288  -15.9836   18.4150 C   0  0  0  0  0  0  0  0  0  0  0  0
  -27.7533  -15.6035   20.7110 C   0  0  0  0  0  0  0  0  0  0  0  0
  -20.5687  -14.9333   20.5025 C   0  0  0  0  0  0  0  0  0  0  0  0
  -24.6325  -30.6191   19.8199 C   0  0  0  0  0  0  0  0  0  0  0  0
  -21.5491  -15.5417   21.5003 C   0  0  0  0  0  0  0  0  0  0  0  0
  -23.4152  -29.7866   20.2266 C   0  0  0  0  0  0  0  0  0  0  0  0
  -25.9325  -29.9384   20.2381 C   0  0  0  0  0  0  0  0  0  0  0  0
  -24.8032  -28.7822   22.0987 C   0  0  0  0  0  0  0  0  0  0  0  0
  -28.9501  -32.9400   22.9876 C   0  0  0  0  0  0  0  0  0  0  0  0
  -22.4065  -16.6275   20.8390 C   0  0  1  0  0  0  0  0  0  0  0  0
  -25.5995  -15.0209   19.5517 C   0  0  1  0  0  0  0  0  0  0  0  0
  -30.3118  -31.0226   22.5987 C   0  0  1  0  0  0  0  0  0  0  0  0
  -23.4568  -29.4277   21.7238 C   0  0  2  0  0  0  0  0  0  0  0  0
  -28.8973  -31.4221   23.0172 C   0  0  2  0  0  0  0  0  0  0  0  0
  -31.1680  -31.9935   23.4172 C   0  0  1  0  0  0  0  0  0  0  0  0
  -31.6431  -10.3107   20.6885 C   0  0  0  0  0  0  0  0  0  0  0  0
  -33.6047  -32.8728   25.0667 C   0  0  0  0  0  0  0  0  0  0  0  0
  -34.6870  -33.5802   22.9239 C   0  0  0  0  0  0  0  0  0  0  0  0
  -26.5944  -13.3272   23.7352 C   0  0  0  0  0  0  0  0  0  0  0  0
  -28.7317  -12.0332   23.8946 C   0  0  0  0  0  0  0  0  0  0  0  0
  -26.7476  -11.0267   22.7664 C   0  0  0  0  0  0  0  0  0  0  0  0
  -31.0796  -12.6035   17.7049 C   0  0  0  0  0  0  0  0  0  0  0  0
  -30.6382  -29.5626   22.8806 C   0  0  0  0  0  0  0  0  0  0  0  0
  -32.5378  -32.2760   22.8290 C   0  0  0  0  0  0  0  0  0  0  0  0
  -30.0250  -28.6386   21.8288 C   0  0  0  0  0  0  0  0  0  0  0  0
  -30.3829  -27.1757   22.0965 C   0  0  0  0  0  0  0  0  0  0  0  0
  -29.7412  -26.2473   21.0628 C   0  0  0  0  0  0  0  0  0  0  0  0
  -30.1315  -24.7886   21.3108 C   0  0  0  0  0  0  0  0  0  0  0  0
  -29.5054  -23.8125   20.3100 C   0  0  0  0  0  0  0  0  0  0  0  0
  -29.8791  -22.3501   20.5730 C   0  0  0  0  0  0  0  0  0  0  0  0
  -29.2157  -21.4012   19.5809 C   0  0  0  0  0  0  0  0  0  1  0  0
  -28.0106  -12.8932   21.6206 C   0  0  1  0  0  0  0  0  0  0  0  0
  -30.8319  -11.1887   19.7484 C   0  0  2  0  0  0  0  0  0  0  0  0
  -33.3524  -33.3139   23.6242 C   0  0  0  0  0  0  0  0  0  0  0  0
  -27.5202  -12.3449   22.9903 C   0  0  0  0  0  0  0  0  0  0  0  0
  -22.4194  -27.2221   22.1000 N   0  0  0  0  0  0  0  0  0  0  0  0
  -22.2799  -28.5585   22.1264 N   0  0  0  0  0  0  0  0  0  0  0  0
  -26.7901  -14.5771   20.2794 N   0  0  0  0  0  0  0  0  0  0  0  0
  -25.9153  -29.6406   21.6773 N   0  0  0  0  0  0  0  0  0  0  0  0
  -20.7353  -30.2871   22.6131 N   0  0  0  0  0  0  0  0  0  0  0  0
  -18.3833  -26.5229   23.4471 N   0  0  0  0  0  0  0  0  0  0  0  0
  -23.4534  -16.0279   20.0397 N   0  0  0  0  0  0  0  0  0  0  0  0
  -28.8673  -11.9728   20.8806 N   0  0  0  0  0  0  0  0  0  0  0  0
  -27.8702  -30.8859   22.1521 N   0  0  0  0  0  0  0  0  0  0  0  0
  -30.3499  -33.2632   23.4350 N   0  3  0  0  0  0  0  0  0  0  0  0
  -31.7491  -11.7391   18.7107 N   0  3  0  0  0  0  0  0  0  0  0  0
  -18.2854  -28.8139   23.4284 O   0  0  0  0  0  0  0  0  0  0  0  0
  -25.0135  -15.6978   21.7365 O   0  0  0  0  0  0  0  0  0  0  0  0
  -26.0775  -12.3583   20.3542 O   0  0  0  0  0  0  0  0  0  0  0  0
  -30.6939  -13.3932   20.7273 O   0  0  0  0  0  0  0  0  0  0  0  0
  -26.7610  -29.7887   23.8316 O   0  0  0  0  0  0  0  0  0  0  0  0
  -20.2354  -21.2961   22.9132 O   0  0  0  0  0  0  0  0  0  0  0  0
  -29.6009  -20.0627   19.8591 O   0  0  0  0  0  0  0  0  0  1  0  0
  -24.0867  -18.1742   25.3269 F   0  0  0  0  0  0  0  0  0  0  0  0
  -22.7971  -21.1551   21.8835 F   0  0  0  0  0  0  0  0  0  0  0  0
  1  2  1  0  0  0  0
  1  5  2  0  0  0  0
  2  6  2  0  0  0  0
  3  8  2  0  0  0  0
  3 15  1  0  0  0  0
  4  9  1  0  0  0  0
  4 15  2  0  0  0  0
  5 17  1  0  0  0  0
  6 19  1  0  0  0  0
  7 10  2  0  0  0  0
  7 18  1  0  0  0  0
  8 21  1  0  0  0  0
  9 21  2  0  0  0  0
 10 22  1  0  0  0  0
 11 12  2  0  0  0  0
 11 23  1  0  0  0  0
 12 24  1  0  0  0  0
 13 20  1  0  0  0  0
 13 22  2  0  0  0  0
 14 24  2  0  0  0  0
 14 25  1  0  0  0  0
 15 26  1  0  0  0  0
 16 26  1  0  0  0  0
 16 27  2  0  0  0  0
 16 28  1  0  0  0  0
 17 19  2  0  0  0  0
 17 33  1  0  0  0  0
 18 20  2  0  0  0  0
 18 34  1  0  0  0  0
 19 43  1  0  0  0  0
 20 35  1  0  0  0  0
 21 85  1  0  0  0  0
 22 86  1  0  0  0  0
 23 25  2  0  0  0  0
 23 85  1  0  0  0  0
 24 87  1  0  0  0  0
 25 88  1  0  0  0  0
 26 69  2  0  0  0  0
 27 70  1  0  0  0  0
 27 73  1  0  0  0  0
 28 74  1  0  0  0  0
 28 80  2  0  0  0  0
 29 44  1  0  0  0  0
 29 75  1  0  0  0  0
 29 81  2  0  0  0  0
 30 65  1  0  0  0  0
 30 71  1  0  0  0  0
 30 82  2  0  0  0  0
 31 66  1  0  0  0  0
 31 76  1  0  0  0  0
 31 83  2  0  0  0  0
 32 72  1  0  0  0  0
 32 77  1  0  0  0  0
 32 84  2  0  0  0  0
 33 36  1  0  0  0  0
 34 44  1  0  0  0  0
 35 71  1  0  0  0  0
 36 38  1  0  0  0  0
 37 39  1  0  0  0  0
 37 40  1  0  0  0  0
 38 43  1  0  0  0  0
 39 46  1  0  0  0  0
 40 72  1  0  0  0  0
 41 46  1  0  0  0  0
 41 72  1  0  0  0  0
 42 47  1  0  0  0  0
 42 78  1  0  0  0  0
 43 75  1  0  0  0  0
 44 71  1  0  0  0  0
 45 47  1  0  0  0  0
 45 48  1  0  0  0  0
 45 56  1  0  0  0  0
 46 70  1  0  0  0  0
 47 77  1  0  0  0  0
 48 57  1  0  0  0  0
 48 78  1  0  0  0  0
 49 66  1  0  0  0  0
 50 67  1  0  0  0  0
 51 67  1  0  0  0  0
 52 68  1  0  0  0  0
 53 68  1  0  0  0  0
 54 68  1  0  0  0  0
 55 79  1  0  0  0  0
 56 58  1  0  0  0  0
 57 67  1  0  0  0  0
 58 59  1  0  0  0  0
 59 60  1  0  0  0  0
 60 61  1  0  0  0  0
 61 62  1  0  0  0  0
 62 63  1  0  0  0  0
 63 64  1  0  0  0  0
 64 86  1  0  0  0  0
 65 68  1  0  0  0  0
 65 76  1  0  0  0  0
 66 79  1  0  0  0  0
 69 70  1  0  0  0  0
M  CHG  2  78   1  79   1
M  ISO  4  32 100  64 101  77 100  86 101
M  END
> <Batch ID>
0120

> <Smiles>
CNC(C)C(=O)NC(C(=O)N1Cc2cc([101O:1][101CH2:1]CCCCCCCC3C(CC(C)C)NCC3[100NH:0][100C:0](=O)N3CCCC(n4nc(-c5ccc(Oc6ccc(F)cc6F)cc5)c(C(N)=O)c4N)C3)ccc2CC1C(=O)NC1CCCc2ccccc21)C(C)(C)C

> <Shape>
0.224

> <Color>
0.049

> <Negative vol penalty>
0.000

$$$$

  -OEChem-04052320233D

 87 96  0     1  0  0  0  0  0999 V2000
  -18.5489  -28.2491   23.3699 C   0  0  0  0  0  0  0  0  0  0  0  0
  -19.8651  -28.3366   23.8120 C   0  0  0  0  0  0  0  0  0  0  0  0
  -26.9210  -12.6834   21.2498 C   0  0  0  0  0  0  0  0  0  0  0  0
  -26.5650  -13.4667   18.9922 C   0  0  0  0  0  0  0  0  0  0  0  0
  -18.2513  -27.5417   22.2059 C   0  0  0  0  0  0  0  0  0  0  0  0
  -20.8844  -27.7158   23.0908 C   0  0  0  0  0  0  0  0  0  0  0  0
  -26.6292  -29.7125   22.3728 C   0  0  0  0  0  0  0  0  0  0  0  0
  -26.2682  -11.4906   20.9389 C   0  0  0  0  0  0  0  0  0  0  0  0
  -25.9123  -12.2738   18.6812 C   0  0  0  0  0  0  0  0  0  0  0  0
  -27.8231  -29.3849   23.0138 C   0  0  0  0  0  0  0  0  0  0  0  0
  -23.0841  -10.4121   20.5889 C   0  0  0  0  0  0  0  0  0  0  0  0
  -22.1479   -9.9292   21.5031 C   0  0  0  0  0  0  0  0  0  0  0  0
  -28.3373  -27.8257   21.2464 C   0  0  0  0  0  0  0  0  0  0  0  0
  -23.4398   -7.9033   21.7558 C   0  0  0  0  0  0  0  0  0  0  0  0
  -27.0693  -13.6715   20.2764 C   0  0  0  0  0  0  0  0  0  0  0  0
  -29.1185  -15.1778   20.4750 C   0  0  0  0  0  0  0  0  0  0  0  0
  -19.2686  -26.9201   21.4648 C   0  0  0  0  0  0  0  0  0  0  0  0
  -26.2746  -29.0902   21.1672 C   0  0  0  0  0  0  0  0  0  0  0  0
  -20.5999  -26.9983   21.9165 C   0  0  0  0  0  0  0  0  0  0  0  0
  -27.1395  -28.1491   20.5907 C   0  0  0  0  0  0  0  0  0  0  0  0
  -25.7639  -11.2858   19.6546 C   0  0  0  0  0  0  0  0  0  0  0  0
  -28.6760  -28.4393   22.4522 C   0  0  0  0  0  0  0  0  0  0  0  0
  -24.1981   -9.6406   20.2580 C   0  0  0  0  0  0  0  0  0  0  0  0
  -22.3257   -8.6748   22.0866 C   0  0  0  0  0  0  0  0  0  0  0  0
  -24.3760   -8.3862   20.8415 C   0  0  0  0  0  0  0  0  0  0  0  0
  -27.7430  -14.9041   20.5972 C   0  0  0  0  0  0  0  0  0  0  0  0
  -29.2497  -16.4760   20.9039 C   0  0  0  0  0  0  0  0  0  0  0  0
  -30.1825  -14.3341   20.0150 C   0  0  0  0  0  0  0  0  0  0  0  0
  -23.8764  -27.2292   20.2242 C   0  0  0  0  0  0  0  0  0  0  0  0
  -25.2533  -27.5948   17.3099 C   0  0  0  0  0  0  0  0  0  0  0  0
  -28.0628  -28.2828   15.4988 C   0  0  0  0  0  0  0  0  0  0  0  0
  -27.1595  -21.7534   20.5284 C   0  0  0  0  0  0  0  0  0  0  0  0
  -18.8923  -26.1268   20.2386 C   0  0  0  0  0  0  0  0  0  0  0  0
  -24.9959  -29.4742   20.4745 C   0  0  0  0  0  0  0  0  0  0  0  0
  -26.8146  -27.4671   19.2877 C   0  0  0  0  0  0  0  0  0  0  0  0
  -20.0771  -25.8133   19.3286 C   0  0  0  0  0  0  0  0  0  0  0  0
  -34.6041  -23.9271   21.4224 C   0  0  0  0  0  0  0  0  0  0  0  0
  -25.9923  -19.5314   23.2563 C   0  0  0  0  0  0  0  0  0  0  0  0
  -21.2579  -25.3007   20.1470 C   0  0  0  0  0  0  0  0  0  0  0  0
  -35.1797  -24.8739   22.4698 C   0  0  0  0  0  0  0  0  0  0  0  0
  -26.3947  -18.1476   22.7497 C   0  0  0  0  0  0  0  0  0  0  0  0
  -33.5573  -24.6205   20.5560 C   0  0  0  0  0  0  0  0  0  0  0  0
  -29.6912  -24.1241   20.4462 C   0  0  0  0  0  0  0  0  0  0  0  0
  -30.4762  -22.0617   21.6761 C   0  0  0  0  0  0  0  0  0  0  0  0
  -25.7347  -20.5022   22.1082 C   0  0  0  0  0  0  0  0  0  0  0  0
  -28.8797  -23.2226   19.5196 C   0  0  0  0  0  0  0  0  0  0  0  0
  -29.6250  -21.2002   20.7385 C   0  0  0  0  0  0  0  0  0  0  0  0
  -27.2749  -19.2333   20.6454 C   0  0  0  0  0  0  0  0  0  0  0  0
  -21.7362  -26.3592   21.1481 C   0  0  1  0  0  0  0  0  0  0  0  0
  -24.4913  -28.4018   19.5139 C   0  0  1  0  0  0  0  0  0  0  0  0
  -34.0893  -25.5153   23.3457 C   0  0  2  0  0  0  0  0  0  0  0  0
  -33.0241  -26.2226   22.4659 C   0  0  1  0  0  0  0  0  0  0  0  0
  -27.5845  -18.2444   21.7794 C   0  0  2  0  0  0  0  0  0  0  0  0
  -32.4526  -25.2856   21.3784 C   0  0  2  0  0  0  0  0  0  0  0  0
  -30.8957  -23.3640   20.9976 C   0  0  0  0  0  0  0  0  0  0  0  0
  -34.7467  -26.4687   24.3494 C   0  0  0  0  0  0  0  0  0  0  0  0
  -28.8866  -28.4699   13.1358 C   0  0  0  0  0  0  0  0  0  0  0  0
  -31.5551  -25.9723   24.4853 C   0  0  0  0  0  0  0  0  0  0  0  0
  -25.2912  -24.5521   17.0849 C   0  0  0  0  0  0  0  0  0  0  0  0
  -26.9374  -24.7807   15.2124 C   0  0  0  0  0  0  0  0  0  0  0  0
  -24.6485  -25.7457   14.9833 C   0  0  0  0  0  0  0  0  0  0  0  0
  -28.7855  -31.1308   15.8534 C   0  0  0  0  0  0  0  0  0  0  0  0
  -30.6686  -27.1410   22.4465 C   0  0  0  0  0  0  0  0  0  1  0  0
  -26.3131  -26.8568   16.5281 C   0  0  1  0  0  0  0  0  0  0  0  0
  -28.3013  -29.2155   14.3250 C   0  0  2  0  0  0  0  0  0  0  0  0
  -31.9082  -26.8651   23.2993 C   0  0  2  0  0  0  0  0  0  0  0  0
  -25.8030  -25.4951   15.9777 C   0  0  0  0  0  0  0  0  0  0  0  0
  -27.0499  -15.9447   21.0670 N   0  0  0  0  0  0  0  0  0  0  0  0
  -27.9938  -16.8849   21.2439 N   0  0  0  0  0  0  0  0  0  0  0  0
  -25.5498  -27.8718   18.6520 N   0  0  0  0  0  0  0  0  0  0  0  0
  -26.8595  -20.5419   21.1734 N   0  0  0  0  0  0  0  0  0  0  0  0
  -28.5030  -21.9773   20.1914 N   0  0  0  0  0  0  0  0  0  0  0  0
  -30.3157  -17.2962   21.0196 N   0  0  0  0  0  0  0  0  0  0  0  0
  -29.8727  -13.0281   19.6115 N   0  0  0  0  0  0  0  0  0  0  0  0
  -22.5251  -27.3698   20.4766 N   0  0  0  0  0  0  0  0  0  0  0  0
  -26.7787  -27.7805   15.4993 N   0  0  0  0  0  0  0  0  0  0  0  0
  -31.5998  -24.2215   21.9859 N   0  3  0  0  0  0  0  0  0  0  0  0
  -29.2463  -30.3016   14.7101 N   0  3  0  0  0  0  0  0  0  0  0  0
  -31.3751  -14.7212   19.9787 O   0  0  0  0  0  0  0  0  0  0  0  0
  -24.5758  -26.2674   20.5199 O   0  0  0  0  0  0  0  0  0  0  0  0
  -24.2042  -27.9199   16.7486 O   0  0  0  0  0  0  0  0  0  0  0  0
  -28.9301  -28.0228   16.3299 O   0  0  0  0  0  0  0  0  0  0  0  0
  -26.2795  -22.5845   20.2718 O   0  0  0  0  0  0  0  0  0  0  0  0
  -25.1271  -10.1218   19.3508 O   0  0  0  0  0  0  0  0  0  0  0  0
  -29.8500  -28.1149   23.0806 O   0  0  0  0  0  0  0  0  0  1  0  0
  -21.4274   -8.2118   22.9657 F   0  0  0  0  0  0  0  0  0  0  0  0
  -25.4448   -7.6410   20.5285 F   0  0  0  0  0  0  0  0  0  0  0  0
  1  2  1  0  0  0  0
  1  5  2  0  0  0  0
  2  6  2  0  0  0  0
  3  8  2  0  0  0  0
  3 15  1  0  0  0  0
  4  9  1  0  0  0  0
  4 15  2  0  0  0  0
  5 17  1  0  0  0  0
  6 19  1  0  0  0  0
  7 10  2  0  0  0  0
  7 18  1  0  0  0  0
  8 21  1  0  0  0  0
  9 21  2  0  0  0  0
 10 22  1  0  0  0  0
 11 12  2  0  0  0  0
 11 23  1  0  0  0  0
 12 24  1  0  0  0  0
 13 20  1  0  0  0  0
 13 22  2  0  0  0  0
 14 24  2  0  0  0  0
 14 25  1  0  0  0  0
 15 26  1  0  0  0  0
 16 26  1  0  0  0  0
 16 27  2  0  0  0  0
 16 28  1  0  0  0  0
 17 19  2  0  0  0  0
 17 33  1  0  0  0  0
 18 20  2  0  0  0  0
 18 34  1  0  0  0  0
 19 49  1  0  0  0  0
 20 35  1  0  0  0  0
 21 84  1  0  0  0  0
 22 85  1  0  0  0  0
 23 25  2  0  0  0  0
 23 84  1  0  0  0  0
 24 86  1  0  0  0  0
 25 87  1  0  0  0  0
 26 68  2  0  0  0  0
 27 69  1  0  0  0  0
 27 73  1  0  0  0  0
 28 74  1  0  0  0  0
 28 79  2  0  0  0  0
 29 50  1  0  0  0  0
 29 75  1  0  0  0  0
 29 80  2  0  0  0  0
 30 64  1  0  0  0  0
 30 70  1  0  0  0  0
 30 81  2  0  0  0  0
 31 65  1  0  0  0  0
 31 76  1  0  0  0  0
 31 82  2  0  0  0  0
 32 71  1  0  0  0  0
 32 72  1  0  0  0  0
 32 83  2  0  0  0  0
 33 36  1  0  0  0  0
 34 50  1  0  0  0  0
 35 70  1  0  0  0  0
 36 39  1  0  0  0  0
 37 40  1  0  0  0  0
 37 42  1  0  0  0  0
 38 41  1  0  0  0  0
 38 45  1  0  0  0  0
 39 49  1  0  0  0  0
 40 51  1  0  0  0  0
 41 53  1  0  0  0  0
 42 54  1  0  0  0  0
 43 46  1  0  0  0  0
 43 55  1  0  0  0  0
 44 47  1  0  0  0  0
 44 55  1  0  0  0  0
 45 71  1  0  0  0  0
 46 72  1  0  0  0  0
 47 72  1  0  0  0  0
 48 53  1  0  0  0  0
 48 71  1  0  0  0  0
 49 75  1  0  0  0  0
 50 70  1  0  0  0  0
 51 52  1  0  0  0  0
 51 56  1  0  0  0  0
 52 54  1  0  0  0  0
 52 66  1  0  0  0  0
 53 69  1  0  0  0  0
 54 77  1  0  0  0  0
 55 77  1  0  0  0  0
 57 65  1  0  0  0  0
 58 66  1  0  0  0  0
 59 67  1  0  0  0  0
 60 67  1  0  0  0  0
 61 67  1  0  0  0  0
 62 78  1  0  0  0  0
 63 66  1  0  0  0  0
 63 85  1  0  0  0  0
 64 67  1  0  0  0  0
 64 76  1  0  0  0  0
 65 78  1  0  0  0  0
 68 69  1  0  0  0  0
M  CHG  2  77   1  78   1
M  ISO  4  32 100  63 101  72 100  85 101
M  END
> <Batch ID>
0120

> <Smiles>
CNC(C)C(=O)NC(C(=O)N1Cc2cc([101O:1][101CH2:1]C(C)C3C(C)CCCC3NC3CC[100N:0]([100C:0](=O)N4CCCC(n5nc(-c6ccc(Oc7ccc(F)cc7F)cc6)c(C(N)=O)c5N)C4)CC3)ccc2CC1C(=O)NC1CCCc2ccccc21)C(C)(C)C

> <Shape>
0.237

> <Color>
0.079

> <Negative vol penalty>
0.000

$$$$

  -OEChem-04052320233D

 87 96  0     1  0  0  0  0  0999 V2000
  -31.8607  -12.8011   21.7961 C   0  0  0  0  0  0  0  0  0  0  0  0
  -31.1154  -13.8836   22.2521 C   0  0  0  0  0  0  0  0  0  0  0  0
  -30.1288  -24.6672   19.8489 C   0  0  0  0  0  0  0  0  0  0  0  0
  -27.8697  -24.1166   19.1930 C   0  0  0  0  0  0  0  0  0  0  0  0
  -31.3666  -11.9999   20.7675 C   0  0  0  0  0  0  0  0  0  0  0  0
  -29.8760  -14.1662   21.6791 C   0  0  0  0  0  0  0  0  0  0  0  0
  -22.8056  -23.9552   24.4916 C   0  0  0  0  0  0  0  0  0  0  0  0
  -24.9397  -16.4268   24.5126 C   0  0  0  0  0  0  0  0  0  0  0  0
  -23.4620  -22.7253   24.5343 C   0  0  0  0  0  0  0  0  0  0  0  0
  -30.3779  -23.3219   20.1204 C   0  0  0  0  0  0  0  0  0  0  0  0
  -28.1187  -22.7713   19.4645 C   0  0  0  0  0  0  0  0  0  0  0  0
  -24.4189  -17.7169   24.6035 C   0  0  0  0  0  0  0  0  0  0  0  0
  -29.6664  -20.1727   17.9568 C   0  0  0  0  0  0  0  0  0  0  0  0
  -29.2331  -19.2333   17.0213 C   0  0  0  0  0  0  0  0  0  0  0  0
  -22.9231  -17.2356   22.7731 C   0  0  0  0  0  0  0  0  0  0  0  0
  -21.3608  -21.6193   24.9803 C   0  0  0  0  0  0  0  0  0  0  0  0
  -27.8369  -18.2030   18.7024 C   0  0  0  0  0  0  0  0  0  0  0  0
  -28.8747  -25.0646   19.3852 C   0  0  0  0  0  0  0  0  0  0  0  0
  -28.8080  -27.1247   17.8821 C   0  0  0  0  0  0  0  0  0  0  0  0
  -30.1162  -12.2671   20.1882 C   0  0  0  0  0  0  0  0  0  0  0  0
  -24.4628  -15.5335   23.5425 C   0  0  0  0  0  0  0  0  0  0  0  0
  -29.3653  -13.3687   20.6410 C   0  0  0  0  0  0  0  0  0  0  0  0
  -21.4267  -24.0173   24.6933 C   0  0  0  0  0  0  0  0  0  0  0  0
  -23.4377  -15.9339   22.6737 C   0  0  0  0  0  0  0  0  0  0  0  0
  -22.7397  -21.5573   24.7786 C   0  0  0  0  0  0  0  0  0  0  0  0
  -20.7044  -22.8493   24.9376 C   0  0  0  0  0  0  0  0  0  0  0  0
  -29.3729  -22.3739   19.9282 C   0  0  0  0  0  0  0  0  0  0  0  0
  -23.4125  -18.1224   23.7318 C   0  0  0  0  0  0  0  0  0  0  0  0
  -29.1851  -20.1272   19.2653 C   0  0  0  0  0  0  0  0  0  0  0  0
  -28.3183  -18.2485   17.3940 C   0  0  0  0  0  0  0  0  0  0  0  0
  -28.2703  -19.1424   19.6380 C   0  0  0  0  0  0  0  0  0  0  0  0
  -28.6166  -26.4542   19.1051 C   0  0  0  0  0  0  0  0  0  0  0  0
  -28.4187  -28.4174   18.1347 C   0  0  0  0  0  0  0  0  0  0  0  0
  -29.2942  -26.6237   16.6298 C   0  0  0  0  0  0  0  0  0  0  0  0
  -25.7519  -14.0129   21.0667 C   0  0  0  0  0  0  0  0  0  0  0  0
  -22.8439  -12.5820   20.9299 C   0  0  0  0  0  0  0  0  0  0  0  0
  -19.5139  -12.7114   21.6653 C   0  0  0  0  0  0  0  0  0  0  0  0
  -24.6863  -30.8432   22.1392 C   0  0  0  0  0  0  0  0  0  0  0  0
  -29.6450  -11.4011   19.0468 C   0  0  0  0  0  0  0  0  0  0  0  0
  -25.0164  -14.1365   23.4749 C   0  0  0  0  0  0  0  0  0  0  0  0
  -22.8771  -15.0063   21.6278 C   0  0  0  0  0  0  0  0  0  0  0  0
  -28.1549  -11.5446   18.7482 C   0  0  0  0  0  0  0  0  0  0  0  0
  -28.1314  -31.6164   21.6808 C   0  0  0  0  0  0  0  0  0  0  0  0
  -21.3063  -26.3240   25.6993 C   0  0  0  0  0  0  0  0  0  0  0  0
  -27.7579  -13.0169   18.7075 C   0  0  0  0  0  0  0  0  0  0  0  0
  -28.6637  -30.4416   20.8583 C   0  0  0  0  0  0  0  0  0  0  0  0
  -21.9295  -27.4744   24.9114 C   0  0  0  0  0  0  0  0  0  0  0  0
  -20.9604  -26.0321   23.2800 C   0  0  0  0  0  0  0  0  0  0  0  0
  -27.0792  -31.1666   22.6920 C   0  0  0  0  0  0  0  0  0  0  0  0
  -26.4914  -29.2219   21.2970 C   0  0  0  0  0  0  0  0  0  0  0  0
  -20.7455  -25.3455   24.6426 C   0  0  1  0  0  0  0  0  0  0  0  0
  -28.0054  -13.6927   20.0616 C   0  0  1  0  0  0  0  0  0  0  0  0
  -24.8149  -13.4792   22.1131 C   0  0  1  0  0  0  0  0  0  0  0  0
  -27.5146  -29.6343   20.2249 C   0  0  2  0  0  0  0  0  0  0  0  0
  -21.0990  -27.5013   23.6421 C   0  0  2  0  0  0  0  0  0  0  0  0
  -19.2275  -22.8912   25.1569 C   0  0  0  0  0  0  0  0  0  0  0  0
  -17.3845  -11.4117   21.3933 C   0  0  0  0  0  0  0  0  0  0  0  0
  -22.7045  -13.4280   18.0016 C   0  0  0  0  0  0  0  0  0  0  0  0
  -20.2444  -12.9660   18.0576 C   0  0  0  0  0  0  0  0  0  0  0  0
  -21.8686  -11.1160   18.4605 C   0  0  0  0  0  0  0  0  0  0  0  0
  -19.1460  -12.4783   24.5926 C   0  0  0  0  0  0  0  0  0  0  0  0
  -23.4459  -20.2343   24.8249 C   0  0  0  0  0  0  0  0  0  1  0  0
  -22.3335  -30.3943   21.4897 C   0  0  0  0  0  0  0  0  0  0  0  0
  -21.6060  -29.7354   22.6468 C   0  0  0  0  0  0  0  0  0  0  0  0
  -21.5361  -12.8825   20.2384 C   0  0  1  0  0  0  0  0  0  0  0  0
  -18.5801  -11.6910   22.2907 C   0  0  2  0  0  0  0  0  0  0  0  0
  -21.6001  -12.6165   18.7079 C   0  0  0  0  0  0  0  0  0  0  0  0
  -28.1427  -27.2548   20.0634 N   0  0  0  0  0  0  0  0  0  0  0  0
  -28.0331  -28.4418   19.4427 N   0  0  0  0  0  0  0  0  0  0  0  0
  -23.4554  -13.6527   21.5973 N   0  0  0  0  0  0  0  0  0  0  0  0
  -26.0171  -30.4080   22.0269 N   0  0  0  0  0  0  0  0  0  0  0  0
  -28.3721  -29.5243   17.3633 N   0  0  0  0  0  0  0  0  0  0  0  0
  -29.6496  -25.2707   16.5441 N   0  0  0  0  0  0  0  0  0  0  0  0
  -26.9593  -13.3442   20.9990 N   0  0  0  0  0  0  0  0  0  0  0  0
  -20.5171  -12.1070   20.9376 N   0  0  0  0  0  0  0  0  0  0  0  0
  -23.7426  -30.0707   21.4732 N   0  0  0  0  0  0  0  0  0  0  0  0
  -21.7788  -28.2544   22.5743 N   0  3  0  0  0  0  0  0  0  0  0  0
  -18.0769  -12.1855   23.6035 N   0  3  0  0  0  0  0  0  0  0  0  0
  -29.4254  -27.3580   15.6213 O   0  0  0  0  0  0  0  0  0  0  0  0
  -25.4046  -14.9601   20.3712 O   0  0  0  0  0  0  0  0  0  0  0  0
  -23.3024  -11.4377   20.8857 O   0  0  0  0  0  0  0  0  0  0  0  0
  -19.3658  -13.9234   21.8050 O   0  0  0  0  0  0  0  0  0  0  0  0
  -24.3636  -31.8489   22.7806 O   0  0  0  0  0  0  0  0  0  0  0  0
  -29.6156  -21.0611   20.1928 O   0  0  0  0  0  0  0  0  0  0  0  0
  -22.9030  -19.3813   23.8179 O   0  0  0  0  0  0  0  0  0  1  0  0
  -27.9011  -17.3474   16.4951 F   0  0  0  0  0  0  0  0  0  0  0  0
  -27.8034  -19.0944   20.8932 F   0  0  0  0  0  0  0  0  0  0  0  0
  1  2  1  0  0  0  0
  1  5  2  0  0  0  0
  2  6  2  0  0  0  0
  3 10  2  0  0  0  0
  3 18  1  0  0  0  0
  4 11  1  0  0  0  0
  4 18  2  0  0  0  0
  5 20  1  0  0  0  0
  6 22  1  0  0  0  0
  7  9  2  0  0  0  0
  7 23  1  0  0  0  0
  8 12  2  0  0  0  0
  8 21  1  0  0  0  0
  9 25  1  0  0  0  0
 10 27  1  0  0  0  0
 11 27  2  0  0  0  0
 12 28  1  0  0  0  0
 13 14  2  0  0  0  0
 13 29  1  0  0  0  0
 14 30  1  0  0  0  0
 15 24  1  0  0  0  0
 15 28  2  0  0  0  0
 16 25  2  0  0  0  0
 16 26  1  0  0  0  0
 17 30  2  0  0  0  0
 17 31  1  0  0  0  0
 18 32  1  0  0  0  0
 19 32  1  0  0  0  0
 19 33  2  0  0  0  0
 19 34  1  0  0  0  0
 20 22  2  0  0  0  0
 20 39  1  0  0  0  0
 21 24  2  0  0  0  0
 21 40  1  0  0  0  0
 22 52  1  0  0  0  0
 23 26  2  0  0  0  0
 23 51  1  0  0  0  0
 24 41  1  0  0  0  0
 25 62  1  0  0  0  0
 26 56  1  0  0  0  0
 27 84  1  0  0  0  0
 28 85  1  0  0  0  0
 29 31  2  0  0  0  0
 29 84  1  0  0  0  0
 30 86  1  0  0  0  0
 31 87  1  0  0  0  0
 32 68  2  0  0  0  0
 33 69  1  0  0  0  0
 33 72  1  0  0  0  0
 34 73  1  0  0  0  0
 34 79  2  0  0  0  0
 35 53  1  0  0  0  0
 35 74  1  0  0  0  0
 35 80  2  0  0  0  0
 36 65  1  0  0  0  0
 36 70  1  0  0  0  0
 36 81  2  0  0  0  0
 37 66  1  0  0  0  0
 37 75  1  0  0  0  0
 37 82  2  0  0  0  0
 38 71  1  0  0  0  0
 38 76  1  0  0  0  0
 38 83  2  0  0  0  0
 39 42  1  0  0  0  0
 40 53  1  0  0  0  0
 41 70  1  0  0  0  0
 42 45  1  0  0  0  0
 43 46  1  0  0  0  0
 43 49  1  0  0  0  0
 44 47  1  0  0  0  0
 44 51  1  0  0  0  0
 45 52  1  0  0  0  0
 46 54  1  0  0  0  0
 47 55  1  0  0  0  0
 48 51  1  0  0  0  0
 48 55  1  0  0  0  0
 49 71  1  0  0  0  0
 50 54  1  0  0  0  0
 50 71  1  0  0  0  0
 52 74  1  0  0  0  0
 53 70  1  0  0  0  0
 54 69  1  0  0  0  0
 55 77  1  0  0  0  0
 57 66  1  0  0  0  0
 58 67  1  0  0  0  0
 59 67  1  0  0  0  0
 60 67  1  0  0  0  0
 61 78  1  0  0  0  0
 62 85  1  0  0  0  0
 63 64  1  0  0  0  0
 63 76  1  0  0  0  0
 64 77  1  0  0  0  0
 65 67  1  0  0  0  0
 65 75  1  0  0  0  0
 66 78  1  0  0  0  0
 68 69  1  0  0  0  0
M  CHG  2  77   1  78   1
M  ISO  4  38 100  62 101  76 100  85 101
M  END
> <Batch ID>
0120

> <Smiles>
CNC(C)C(=O)NC(C(=O)N1Cc2cc([101O:1][101CH2:1]c3ccc(C4CCC(NCC[100NH:0][100C:0](=O)N5CCCC(n6nc(-c7ccc(Oc8ccc(F)cc8F)cc7)c(C(N)=O)c6N)C5)C4)c(C)c3)ccc2CC1C(=O)NC1CCCc2ccccc21)C(C)(C)C

> <Shape>
0.242

> <Color>
0.068

> <Negative vol penalty>
0.000

$$$$

  -OEChem-04052320233D

 84 93  0     1  0  0  0  0  0999 V2000
  -20.7031  -32.8880   14.8207 C   0  0  0  0  0  0  0  0  0  0  0  0
  -21.6515  -31.8943   15.0412 C   0  0  0  0  0  0  0  0  0  0  0  0
  -23.5567   -9.4883   20.8907 C   0  0  0  0  0  0  0  0  0  0  0  0
  -24.3459  -10.2014   23.0599 C   0  0  0  0  0  0  0  0  0  0  0  0
  -20.7293  -34.0561   15.5816 C   0  0  0  0  0  0  0  0  0  0  0  0
  -22.6273  -32.0686   16.0219 C   0  0  0  0  0  0  0  0  0  0  0  0
  -25.0797  -27.7343   19.5864 C   0  0  0  0  0  0  0  0  0  0  0  0
  -23.0191   -8.3364   21.4649 C   0  0  0  0  0  0  0  0  0  0  0  0
  -23.8083   -9.0495   23.6342 C   0  0  0  0  0  0  0  0  0  0  0  0
  -26.2720  -27.0163   19.5045 C   0  0  0  0  0  0  0  0  0  0  0  0
  -20.2705   -7.4890   23.2424 C   0  0  0  0  0  0  0  0  0  0  0  0
  -18.9809   -7.1167   22.8630 C   0  0  0  0  0  0  0  0  0  0  0  0
  -27.3146  -28.5875   21.0090 C   0  0  0  0  0  0  0  0  0  0  0  0
  -19.8316   -5.0114   22.0375 C   0  0  0  0  0  0  0  0  0  0  0  0
  -24.2201  -10.4208   21.6882 C   0  0  0  0  0  0  0  0  0  0  0  0
  -24.1359  -12.8522   20.9206 C   0  0  0  0  0  0  0  0  0  0  0  0
  -21.7000  -34.2406   16.5787 C   0  0  0  0  0  0  0  0  0  0  0  0
  -24.9989  -28.8925   20.3729 C   0  0  0  0  0  0  0  0  0  0  0  0
  -22.6673  -33.2408   16.7959 C   0  0  0  0  0  0  0  0  0  0  0  0
  -26.1194  -29.3171   21.1012 C   0  0  0  0  0  0  0  0  0  0  0  0
  -23.1449   -8.1170   22.8366 C   0  0  0  0  0  0  0  0  0  0  0  0
  -27.3905  -27.4445   20.2136 C   0  0  0  0  0  0  0  0  0  0  0  0
  -21.3407   -6.6225   23.0193 C   0  0  0  0  0  0  0  0  0  0  0  0
  -18.7614   -5.8779   22.2606 C   0  0  0  0  0  0  0  0  0  0  0  0
  -21.1212   -5.3837   22.4169 C   0  0  0  0  0  0  0  0  0  0  0  0
  -24.7761  -11.6107   21.0955 C   0  0  0  0  0  0  0  0  0  0  0  0
  -25.0818  -13.6443   20.3170 C   0  0  0  0  0  0  0  0  0  0  0  0
  -22.8052  -13.2535   21.2723 C   0  0  0  0  0  0  0  0  0  0  0  0
  -24.4104  -31.9617   19.7923 C   0  0  0  0  0  0  0  0  0  0  0  0
  -24.4782  -32.1847   23.0277 C   0  0  0  0  0  0  0  0  0  0  0  0
  -25.5576  -30.8977   25.9985 C   0  0  0  0  0  0  0  0  0  0  0  0
  -30.5097  -15.3431   20.4232 C   0  0  0  0  0  0  0  0  0  0  0  0
  -21.7171  -35.5404   17.3435 C   0  0  0  0  0  0  0  0  0  0  0  0
  -23.6979  -29.6408   20.4717 C   0  0  0  0  0  0  0  0  0  0  0  0
  -26.0789  -30.5425   21.9759 C   0  0  0  0  0  0  0  0  0  0  0  0
  -22.5553  -35.4862   18.6181 C   0  0  0  0  0  0  0  0  0  0  0  0
  -29.5455  -12.4899   18.2622 C   0  0  0  0  0  0  0  0  0  0  0  0
  -23.9042  -34.8295   18.3425 C   0  0  0  0  0  0  0  0  0  0  0  0
  -28.2002  -12.0697   18.8512 C   0  0  0  0  0  0  0  0  0  0  0  0
  -30.7233  -18.6049   21.5860 C   0  0  0  0  0  0  0  0  0  0  0  0
  -28.6881  -18.3427   20.1124 C   0  0  0  0  0  0  0  0  0  0  0  0
  -28.8047  -23.6724   20.2144 C   0  0  0  0  0  0  0  0  0  0  0  0
  -30.4434  -13.1420   19.3088 C   0  0  0  0  0  0  0  0  0  0  0  0
  -30.5046  -17.1793   22.0856 C   0  0  0  0  0  0  0  0  0  0  0  0
  -28.5249  -16.9081   20.6232 C   0  0  0  0  0  0  0  0  0  0  0  0
  -28.4636  -13.8736   20.6000 C   0  0  0  0  0  0  0  0  0  0  0  0
  -23.7264  -33.3823   17.8675 C   0  0  1  0  0  0  0  0  0  0  0  0
  -23.8758  -31.0950   20.8972 C   0  0  1  0  0  0  0  0  0  0  0  0
  -29.9839  -22.9644   20.8283 C   0  0  1  0  0  0  0  0  0  0  0  0
  -29.4737  -24.2453   21.4363 C   0  0  1  0  0  0  0  0  0  0  0  0
  -27.5190  -13.2532   19.5595 C   0  0  2  0  0  0  0  0  0  0  0  0
  -29.3955  -19.2175   21.1451 C   0  0  0  0  0  0  0  0  0  0  0  0
  -25.4850  -31.3205   28.4710 C   0  0  0  0  0  0  0  0  0  0  0  0
  -31.2945  -25.6141   22.4610 C   0  0  0  0  0  0  0  0  0  0  0  0
  -26.5464  -34.4049   22.7064 C   0  0  0  0  0  0  0  0  0  0  0  0
  -27.1219  -34.1236   25.1267 C   0  0  0  0  0  0  0  0  0  0  0  0
  -24.8227  -34.8317   24.4674 C   0  0  0  0  0  0  0  0  0  0  0  0
  -24.1785  -28.3304   26.5143 C   0  0  0  0  0  0  0  0  0  0  0  0
  -29.7890  -21.6502   21.5524 C   0  0  0  0  0  0  0  0  0  0  0  0
  -29.4099  -26.7750   21.2763 C   0  0  0  0  0  0  0  0  0  1  0  0
  -25.5494  -32.4448   24.0592 C   0  0  1  0  0  0  0  0  0  0  0  0
  -24.8262  -30.6120   27.2976 C   0  0  2  0  0  0  0  0  0  0  0  0
  -30.2787  -25.4942   21.3329 C   0  0  2  0  0  0  0  0  0  0  0  0
  -26.0117  -33.9292   24.0720 C   0  0  0  0  0  0  0  0  0  0  0  0
  -26.0317  -11.6092   20.6398 N   0  0  0  0  0  0  0  0  0  0  0  0
  -26.1879  -12.8595   20.1724 N   0  0  0  0  0  0  0  0  0  0  0  0
  -24.7858  -31.2438   22.0348 N   0  0  0  0  0  0  0  0  0  0  0  0
  -29.7584  -14.2333   20.0018 N   0  0  0  0  0  0  0  0  0  0  0  0
  -29.8135  -16.3681   21.0815 N   0  0  0  0  0  0  0  0  0  0  0  0
  -25.0670  -14.9285   19.9010 N   0  0  0  0  0  0  0  0  0  0  0  0
  -21.9644  -12.3149   21.8859 N   0  0  0  0  0  0  0  0  0  0  0  0
  -23.4323  -32.5151   18.9881 N   0  0  0  0  0  0  0  0  0  0  0  0
  -25.0131  -31.9750   25.3320 N   0  0  0  0  0  0  0  0  0  0  0  0
  -29.6514  -20.5564   20.5539 N   0  3  0  0  0  0  0  0  0  0  0  0
  -24.8186  -29.1481   27.5767 N   0  3  0  0  0  0  0  0  0  0  0  0
  -22.3690  -14.4053   21.0342 O   0  0  0  0  0  0  0  0  0  0  0  0
  -25.6205  -32.1181   19.6788 O   0  0  0  0  0  0  0  0  0  0  0  0
  -23.4053  -32.7886   23.1045 O   0  0  0  0  0  0  0  0  0  0  0  0
  -26.5185  -30.2341   25.6152 O   0  0  0  0  0  0  0  0  0  0  0  0
  -31.7284  -15.4135   20.2207 O   0  0  0  0  0  0  0  0  0  0  0  0
  -22.6203   -6.9932   23.3973 O   0  0  0  0  0  0  0  0  0  0  0  0
  -28.5639  -26.7408   20.1344 O   0  0  0  0  0  0  0  0  0  1  0  0
  -17.5228   -5.5199   21.8977 F   0  0  0  0  0  0  0  0  0  0  0  0
  -22.1451   -4.5466   22.2011 F   0  0  0  0  0  0  0  0  0  0  0  0
  1  2  1  0  0  0  0
  1  5  2  0  0  0  0
  2  6  2  0  0  0  0
  3  8  2  0  0  0  0
  3 15  1  0  0  0  0
  4  9  1  0  0  0  0
  4 15  2  0  0  0  0
  5 17  1  0  0  0  0
  6 19  1  0  0  0  0
  7 10  2  0  0  0  0
  7 18  1  0  0  0  0
  8 21  1  0  0  0  0
  9 21  2  0  0  0  0
 10 22  1  0  0  0  0
 11 12  2  0  0  0  0
 11 23  1  0  0  0  0
 12 24  1  0  0  0  0
 13 20  1  0  0  0  0
 13 22  2  0  0  0  0
 14 24  2  0  0  0  0
 14 25  1  0  0  0  0
 15 26  1  0  0  0  0
 16 26  1  0  0  0  0
 16 27  2  0  0  0  0
 16 28  1  0  0  0  0
 17 19  2  0  0  0  0
 17 33  1  0  0  0  0
 18 20  2  0  0  0  0
 18 34  1  0  0  0  0
 19 47  1  0  0  0  0
 20 35  1  0  0  0  0
 21 81  1  0  0  0  0
 22 82  1  0  0  0  0
 23 25  2  0  0  0  0
 23 81  1  0  0  0  0
 24 83  1  0  0  0  0
 25 84  1  0  0  0  0
 26 65  2  0  0  0  0
 27 66  1  0  0  0  0
 27 70  1  0  0  0  0
 28 71  1  0  0  0  0
 28 76  2  0  0  0  0
 29 48  1  0  0  0  0
 29 72  1  0  0  0  0
 29 77  2  0  0  0  0
 30 61  1  0  0  0  0
 30 67  1  0  0  0  0
 30 78  2  0  0  0  0
 31 62  1  0  0  0  0
 31 73  1  0  0  0  0
 31 79  2  0  0  0  0
 32 68  1  0  0  0  0
 32 69  1  0  0  0  0
 32 80  2  0  0  0  0
 33 36  1  0  0  0  0
 34 48  1  0  0  0  0
 35 67  1  0  0  0  0
 36 38  1  0  0  0  0
 37 39  1  0  0  0  0
 37 43  1  0  0  0  0
 38 47  1  0  0  0  0
 39 51  1  0  0  0  0
 40 44  1  0  0  0  0
 40 52  1  0  0  0  0
 41 45  1  0  0  0  0
 41 52  1  0  0  0  0
 42 49  1  0  0  0  0
 42 50  1  0  0  0  0
 43 68  1  0  0  0  0
 44 69  1  0  0  0  0
 45 69  1  0  0  0  0
 46 51  1  0  0  0  0
 46 68  1  0  0  0  0
 47 72  1  0  0  0  0
 48 67  1  0  0  0  0
 49 50  1  0  0  0  0
 49 59  1  0  0  0  0
 50 63  1  0  0  0  0
 51 66  1  0  0  0  0
 52 74  1  0  0  0  0
 53 62  1  0  0  0  0
 54 63  1  0  0  0  0
 55 64  1  0  0  0  0
 56 64  1  0  0  0  0
 57 64  1  0  0  0  0
 58 75  1  0  0  0  0
 59 74  1  0  0  0  0
 60 63  1  0  0  0  0
 60 82  1  0  0  0  0
 61 64  1  0  0  0  0
 61 73  1  0  0  0  0
 62 75  1  0  0  0  0
 65 66  1  0  0  0  0
M  CHG  2  74   1  75   1
M  ISO  4  32 100  60 101  69 100  82 101
M  END
> <Batch ID>
0120

> <Smiles>
CNC(C)C(=O)NC(C(=O)N1Cc2cc([101O:1][101CH2:1]C(C)C3CC3CNC3CC[100N:0]([100C:0](=O)N4CCCC(n5nc(-c6ccc(Oc7ccc(F)cc7F)cc6)c(C(N)=O)c5N)C4)CC3)ccc2CC1C(=O)NC1CCCc2ccccc21)C(C)(C)C

> <Shape>
0.370

> <Color>
0.211

> <Negative vol penalty>
0.000

$$$$

  -OEChem-04052320233D

 84 92  0     1  0  0  0  0  0999 V2000
  -18.4716  -26.7737   22.3890 C   0  0  0  0  0  0  0  0  0  0  0  0
  -19.2890  -26.8401   21.2653 C   0  0  0  0  0  0  0  0  0  0  0  0
  -27.9047  -24.3928   29.5612 C   0  0  0  0  0  0  0  0  0  0  0  0
  -28.9531  -26.0716   28.1758 C   0  0  0  0  0  0  0  0  0  0  0  0
  -18.7149  -27.6108   23.4771 C   0  0  0  0  0  0  0  0  0  0  0  0
  -20.3497  -27.7446   21.2286 C   0  0  0  0  0  0  0  0  0  0  0  0
  -24.6094  -25.6719   19.4389 C   0  0  0  0  0  0  0  0  0  0  0  0
  -28.7585  -24.7269   30.6124 C   0  0  0  0  0  0  0  0  0  0  0  0
  -29.8069  -26.4059   29.2270 C   0  0  0  0  0  0  0  0  0  0  0  0
  -24.7079  -25.5115   18.0575 C   0  0  0  0  0  0  0  0  0  0  0  0
  -32.6196  -25.1723   30.6405 C   0  0  0  0  0  0  0  0  0  0  0  0
  -33.9729  -25.3407   30.3477 C   0  0  0  0  0  0  0  0  0  0  0  0
  -26.0614  -27.5041   17.9286 C   0  0  0  0  0  0  0  0  0  0  0  0
  -33.8592  -27.6223   31.1340 C   0  0  0  0  0  0  0  0  0  0  0  0
  -30.2366  -24.8251   17.7819 C   0  0  0  0  0  0  0  0  0  0  0  0
  -29.7233  -24.9908   20.0042 C   0  0  0  0  0  0  0  0  0  0  0  0
  -28.0020  -25.0651   28.3429 C   0  0  0  0  0  0  0  0  0  0  0  0
  -25.8586  -25.2768   26.9759 C   0  0  0  0  0  0  0  0  0  0  0  0
  -19.7849  -28.5192   23.4577 C   0  0  0  0  0  0  0  0  0  0  0  0
  -25.2282  -26.7575   20.0753 C   0  0  0  0  0  0  0  0  0  0  0  0
  -20.6067  -28.5956   22.3170 C   0  0  0  0  0  0  0  0  0  0  0  0
  -25.9714  -27.6746   19.3186 C   0  0  0  0  0  0  0  0  0  0  0  0
  -29.7096  -25.7335   30.4453 C   0  0  0  0  0  0  0  0  0  0  0  0
  -25.4316  -26.4292   17.3018 C   0  0  0  0  0  0  0  0  0  0  0  0
  -31.8860  -26.2290   31.1800 C   0  0  0  0  0  0  0  0  0  0  0  0
  -34.5928  -26.5656   30.5945 C   0  0  0  0  0  0  0  0  0  0  0  0
  -32.5059  -27.4540   31.4268 C   0  0  0  0  0  0  0  0  0  0  0  0
  -27.1207  -24.7199   27.2565 C   0  0  0  0  0  0  0  0  0  0  0  0
  -29.8047  -23.5171   17.7797 C   0  0  0  0  0  0  0  0  0  0  0  0
  -29.2907  -23.6830   20.0019 C   0  0  0  0  0  0  0  0  0  0  0  0
  -25.4336  -24.6145   25.8502 C   0  0  0  0  0  0  0  0  0  0  0  0
  -25.1351  -26.3013   27.6707 C   0  0  0  0  0  0  0  0  0  0  0  0
  -24.2065  -29.2358   21.7836 C   0  0  0  0  0  0  0  0  0  0  0  0
  -27.3806  -29.7607   22.1980 C   0  0  0  0  0  0  0  0  0  0  0  0
  -30.2772  -28.8707   21.3446 C   0  0  0  0  0  0  0  0  0  0  0  0
  -28.3177  -21.8379   21.4143 C   0  0  0  0  0  0  0  0  0  0  0  0
  -19.9797  -29.4368   24.6386 C   0  0  0  0  0  0  0  0  0  0  0  0
  -25.1348  -26.9016   21.5696 C   0  0  0  0  0  0  0  0  0  0  0  0
  -26.6713  -28.8460   19.9562 C   0  0  0  0  0  0  0  0  0  0  0  0
  -21.3518  -30.1051   24.6709 C   0  0  0  0  0  0  0  0  0  0  0  0
  -25.8753  -20.4197   23.5825 C   0  0  0  0  0  0  0  0  0  0  0  0
  -21.7058  -30.6640   23.2965 C   0  0  0  0  0  0  0  0  0  0  0  0
  -25.7982  -21.4153   24.7422 C   0  0  0  0  0  0  0  0  0  0  0  0
  -27.3015  -20.2726   23.0551 C   0  0  0  0  0  0  0  0  0  0  0  0
  -27.8861  -22.5285   23.8540 C   0  0  0  0  0  0  0  0  0  0  0  0
  -21.7822  -29.5463   22.2494 C   0  0  1  0  0  0  0  0  0  0  0  0
  -25.3756  -28.3299   22.0484 C   0  0  1  0  0  0  0  0  0  0  0  0
  -26.4585  -22.7591   24.3762 C   0  0  2  0  0  0  0  0  0  0  0  0
  -30.1446  -21.2152   16.8207 C   0  0  0  0  0  0  0  0  0  0  0  0
  -32.7182  -28.4575   20.9350 C   0  0  0  0  0  0  0  0  0  0  0  0
  -26.9158  -32.6011   21.1851 C   0  0  0  0  0  0  0  0  0  0  0  0
  -29.3866  -32.8070   20.8377 C   0  0  0  0  0  0  0  0  0  0  0  0
  -28.4783  -32.4298   23.1302 C   0  0  0  0  0  0  0  0  0  0  0  0
  -30.5043  -27.1405   23.7350 C   0  0  0  0  0  0  0  0  0  0  0  0
  -26.9962  -25.9201   14.0894 C   0  0  0  0  0  0  0  0  0  0  0  0
  -27.1824  -24.4396   14.3856 C   0  0  0  0  0  0  0  0  0  0  0  0
  -28.5796  -22.8087   15.6611 C   0  0  0  0  0  0  0  0  0  0  0  0
  -26.7153  -26.7625   15.3277 C   0  0  0  0  0  0  0  0  0  1  0  0
  -29.8567  -22.6871   16.5025 C   0  0  1  0  0  0  0  0  0  0  0  0
  -28.4419  -30.5362   21.4555 C   0  0  1  0  0  0  0  0  0  0  0  0
  -31.6133  -28.5264   21.9776 C   0  0  2  0  0  0  0  0  0  0  0  0
  -28.2910  -32.0726   21.6396 C   0  0  0  0  0  0  0  0  0  0  0  0
  -30.2037  -25.5855   18.8943 N   0  0  0  0  0  0  0  0  0  0  0  0
  -27.4744  -23.7763   26.3798 N   0  0  0  0  0  0  0  0  0  0  0  0
  -29.3239  -22.9226   18.8896 N   0  0  0  0  0  0  0  0  0  0  0  0
  -26.4281  -23.7352   25.5374 N   0  0  0  0  0  0  0  0  0  0  0  0
  -26.5451  -28.9472   21.4195 N   0  0  0  0  0  0  0  0  0  0  0  0
  -27.8609  -21.5852   22.7252 N   0  0  0  0  0  0  0  0  0  0  0  0
  -24.3099  -24.7043   25.1075 N   0  0  0  0  0  0  0  0  0  0  0  0
  -25.7174  -26.8757   28.8088 N   0  0  0  0  0  0  0  0  0  0  0  0
  -28.7983  -23.1309   21.2104 N   0  0  0  0  0  0  0  0  0  0  0  0
  -23.0282  -28.8209   22.3743 N   0  0  0  0  0  0  0  0  0  0  0  0
  -29.7245  -30.0039   21.9028 N   0  0  0  0  0  0  0  0  0  0  0  0
  -31.5352  -27.2076   22.6674 N   0  3  0  0  0  0  0  0  0  0  0  0
  -28.3523  -24.2274   15.2698 N   0  3  0  0  0  0  0  0  0  0  0  0
  -23.9986  -26.6841   27.3030 O   0  0  0  0  0  0  0  0  0  0  0  0
  -24.3623  -30.2378   21.0955 O   0  0  0  0  0  0  0  0  0  0  0  0
  -27.3006  -29.8671   23.4243 O   0  0  0  0  0  0  0  0  0  0  0  0
  -29.7758  -28.2033   20.4424 O   0  0  0  0  0  0  0  0  0  0  0  0
  -28.2598  -20.9794   20.5302 O   0  0  0  0  0  0  0  0  0  0  0  0
  -30.5427  -26.0601   31.4709 O   0  0  0  0  0  0  0  0  0  0  0  0
  -25.5287  -26.2754   15.9532 O   0  0  0  0  0  0  0  0  0  1  0  0
  -35.8927  -26.7267   30.3147 F   0  0  0  0  0  0  0  0  0  0  0  0
  -31.8066  -28.4724   31.9461 F   0  0  0  0  0  0  0  0  0  0  0  0
  1  2  1  0  0  0  0
  1  5  2  0  0  0  0
  2  6  2  0  0  0  0
  3  8  2  0  0  0  0
  3 17  1  0  0  0  0
  4  9  1  0  0  0  0
  4 17  2  0  0  0  0
  5 19  1  0  0  0  0
  6 21  1  0  0  0  0
  7 10  2  0  0  0  0
  7 20  1  0  0  0  0
  8 23  1  0  0  0  0
  9 23  2  0  0  0  0
 10 24  1  0  0  0  0
 11 12  2  0  0  0  0
 11 25  1  0  0  0  0
 12 26  1  0  0  0  0
 13 22  1  0  0  0  0
 13 24  2  0  0  0  0
 14 26  2  0  0  0  0
 14 27  1  0  0  0  0
 15 29  1  0  0  0  0
 15 63  2  0  0  0  0
 16 30  2  0  0  0  0
 16 63  1  0  0  0  0
 17 28  1  0  0  0  0
 18 28  1  0  0  0  0
 18 31  2  0  0  0  0
 18 32  1  0  0  0  0
 19 21  2  0  0  0  0
 19 37  1  0  0  0  0
 20 22  2  0  0  0  0
 20 38  1  0  0  0  0
 21 46  1  0  0  0  0
 22 39  1  0  0  0  0
 23 81  1  0  0  0  0
 24 82  1  0  0  0  0
 25 27  2  0  0  0  0
 25 81  1  0  0  0  0
 26 83  1  0  0  0  0
 27 84  1  0  0  0  0
 28 64  2  0  0  0  0
 29 59  1  0  0  0  0
 29 65  2  0  0  0  0
 30 65  1  0  0  0  0
 30 71  1  0  0  0  0
 31 66  1  0  0  0  0
 31 69  1  0  0  0  0
 32 70  1  0  0  0  0
 32 76  2  0  0  0  0
 33 47  1  0  0  0  0
 33 72  1  0  0  0  0
 33 77  2  0  0  0  0
 34 60  1  0  0  0  0
 34 67  1  0  0  0  0
 34 78  2  0  0  0  0
 35 61  1  0  0  0  0
 35 73  1  0  0  0  0
 35 79  2  0  0  0  0
 36 68  1  0  0  0  0
 36 71  1  0  0  0  0
 36 80  2  0  0  0  0
 37 40  1  0  0  0  0
 38 47  1  0  0  0  0
 39 67  1  0  0  0  0
 40 42  1  0  0  0  0
 41 43  1  0  0  0  0
 41 44  1  0  0  0  0
 42 46  1  0  0  0  0
 43 48  1  0  0  0  0
 44 68  1  0  0  0  0
 45 48  1  0  0  0  0
 45 68  1  0  0  0  0
 46 72  1  0  0  0  0
 47 67  1  0  0  0  0
 48 66  1  0  0  0  0
 49 59  1  0  0  0  0
 50 61  1  0  0  0  0
 51 62  1  0  0  0  0
 52 62  1  0  0  0  0
 53 62  1  0  0  0  0
 54 74  1  0  0  0  0
 55 56  1  0  0  0  0
 55 58  1  0  0  0  0
 56 75  1  0  0  0  0
 57 59  1  0  0  0  0
 57 75  1  0  0  0  0
 58 82  1  0  0  0  0
 60 62  1  0  0  0  0
 60 73  1  0  0  0  0
 61 74  1  0  0  0  0
 64 66  1  0  0  0  0
M  CHG  2  74   1  75   1
M  ISO  4  36 100  58 101  71 100  82 101
M  END
> <Batch ID>
0120

> <Smiles>
CNC(C)C(=O)NC(C(=O)N1Cc2cc([101O:1][101CH2:1]CCNCC(C)c3cncc([100NH:0][100C:0](=O)N4CCCC(n5nc(-c6ccc(Oc7ccc(F)cc7F)cc6)c(C(N)=O)c5N)C4)n3)ccc2CC1C(=O)NC1CCCc2ccccc21)C(C)(C)C

> <Shape>
0.171

> <Color>
0.056

> <Negative vol penalty>
0.000

$$$$

  -OEChem-04052320233D

 89 98  0     1  0  0  0  0  0999 V2000
  -17.0176  -30.7405   24.4255 C   0  0  0  0  0  0  0  0  0  0  0  0
  -17.5106  -29.4416   24.4978 C   0  0  0  0  0  0  0  0  0  0  0  0
  -24.0332   -9.4844   22.6811 C   0  0  0  0  0  0  0  0  0  0  0  0
  -22.9571  -10.1130   20.6113 C   0  0  0  0  0  0  0  0  0  0  0  0
  -17.5119  -31.6199   23.4631 C   0  0  0  0  0  0  0  0  0  0  0  0
  -18.4976  -29.0211   23.6071 C   0  0  0  0  0  0  0  0  0  0  0  0
  -23.0668  -25.1079   24.7541 C   0  0  0  0  0  0  0  0  0  0  0  0
  -23.6550   -8.1578   22.4748 C   0  0  0  0  0  0  0  0  0  0  0  0
  -22.5789   -8.7864   20.4050 C   0  0  0  0  0  0  0  0  0  0  0  0
  -23.2236  -23.7471   24.4948 C   0  0  0  0  0  0  0  0  0  0  0  0
  -22.6620   -4.6651   22.6716 C   0  0  0  0  0  0  0  0  0  0  0  0
  -22.1309   -3.9647   23.7546 C   0  0  0  0  0  0  0  0  0  0  0  0
  -24.4279  -24.2771   22.4730 C   0  0  0  0  0  0  0  0  0  0  0  0
  -20.3369   -5.5748   23.9160 C   0  0  0  0  0  0  0  0  0  0  0  0
  -23.6842  -10.4621   21.7493 C   0  0  0  0  0  0  0  0  0  0  0  0
  -23.7247  -12.6571   23.0485 C   0  0  0  0  0  0  0  0  0  0  0  0
  -18.5123  -31.2129   22.5664 C   0  0  0  0  0  0  0  0  0  0  0  0
  -23.5808  -26.0652   23.8676 C   0  0  0  0  0  0  0  0  0  0  0  0
  -19.0048  -29.8955   22.6309 C   0  0  0  0  0  0  0  0  0  0  0  0
  -24.2785  -25.6495   22.7246 C   0  0  0  0  0  0  0  0  0  0  0  0
  -22.9279   -7.8087   21.3368 C   0  0  0  0  0  0  0  0  0  0  0  0
  -23.9017  -23.3314   23.3527 C   0  0  0  0  0  0  0  0  0  0  0  0
  -22.0307   -5.8204   22.2109 C   0  0  0  0  0  0  0  0  0  0  0  0
  -20.9683   -4.4195   24.3768 C   0  0  0  0  0  0  0  0  0  0  0  0
  -20.8681   -6.2753   22.8331 C   0  0  0  0  0  0  0  0  0  0  0  0
  -24.0742  -11.8327   21.9621 C   0  0  0  0  0  0  0  0  0  0  0  0
  -24.3412  -13.8553   22.7824 C   0  0  0  0  0  0  0  0  0  0  0  0
  -22.9153  -12.3658   24.1955 C   0  0  0  0  0  0  0  0  0  0  0  0
  -22.3196  -28.3627   22.0690 C   0  0  0  0  0  0  0  0  0  0  0  0
  -25.4298  -29.0833   21.4948 C   0  0  0  0  0  0  0  0  0  0  0  0
  -28.4756  -27.2653   20.8352 C   0  0  0  0  0  0  0  0  0  0  0  0
  -29.1523  -15.1892   19.6313 C   0  0  0  0  0  0  0  0  0  0  0  0
  -18.9817  -32.1846   21.5127 C   0  0  0  0  0  0  0  0  0  0  0  0
  -23.4264  -27.5294   24.1753 C   0  0  0  0  0  0  0  0  0  0  0  0
  -24.8669  -26.6373   21.7517 C   0  0  0  0  0  0  0  0  0  0  0  0
  -20.2942  -31.7760   20.8488 C   0  0  0  0  0  0  0  0  0  0  0  0
  -25.8423  -16.5657   19.1345 C   0  0  0  0  0  0  0  0  0  0  0  0
  -20.2601  -30.3009   20.4617 C   0  0  0  0  0  0  0  0  0  0  0  0
  -27.8701  -20.8789   21.8720 C   0  0  0  0  0  0  0  0  0  0  0  0
  -27.5050  -18.5181   22.6908 C   0  0  0  0  0  0  0  0  0  0  0  0
  -29.1475  -20.4348   21.1616 C   0  0  0  0  0  0  0  0  0  0  0  0
  -28.7822  -18.0741   21.9800 C   0  0  0  0  0  0  0  0  0  0  0  0
  -24.9797  -15.5731   19.9159 C   0  0  0  0  0  0  0  0  0  0  0  0
  -31.4878  -18.3050   17.3558 C   0  0  0  0  0  0  0  0  0  0  0  0
  -26.9896  -15.8579   18.4196 C   0  0  0  0  0  0  0  0  0  0  0  0
  -27.0008  -14.0488   20.0932 C   0  0  0  0  0  0  0  0  0  0  0  0
  -32.2841  -17.3657   16.4606 C   0  0  0  0  0  0  0  0  0  0  0  0
  -32.0406  -15.5157   18.1368 C   0  0  0  0  0  0  0  0  0  0  0  0
  -20.0931  -29.4097   21.6983 C   0  0  1  0  0  0  0  0  0  0  0  0
  -23.5436  -28.4154   22.9389 C   0  0  1  0  0  0  0  0  0  0  0  0
  -26.8635  -19.7284   22.0006 C   0  0  0  0  0  0  0  0  0  0  0  0
  -29.7887  -19.2245   21.8521 C   0  0  0  0  0  0  0  0  0  0  0  0
  -25.8366  -14.7056   20.8569 C   0  0  2  0  0  0  0  0  0  0  0  0
  -31.2314  -16.4207   19.0635 C   0  0  1  0  0  0  0  0  0  0  0  0
  -31.5992  -17.8930   18.8250 C   0  0  2  0  0  0  0  0  0  0  0  0
  -30.8694  -27.8802   21.2700 C   0  0  0  0  0  0  0  0  0  0  0  0
  -24.4591  -19.2229   22.5014 C   0  0  0  0  0  0  0  0  0  0  0  0
  -32.2189  -19.6848   21.3458 C   0  0  0  0  0  0  0  0  0  0  0  0
  -25.3865  -30.1059   18.6203 C   0  0  0  0  0  0  0  0  0  0  0  0
  -27.7160  -29.2300   18.3473 C   0  0  0  0  0  0  0  0  0  0  0  0
  -27.2456  -31.0164   20.0237 C   0  0  0  0  0  0  0  0  0  0  0  0
  -28.9481  -24.7950   22.3951 C   0  0  0  0  0  0  0  0  0  0  0  0
  -25.2229  -21.6124   22.3753 C   0  0  0  0  0  0  0  0  0  1  0  0
  -26.4545  -28.6572   20.4714 C   0  0  1  0  0  0  0  0  0  0  0  0
  -29.6600  -27.1065   21.7714 C   0  0  2  0  0  0  0  0  0  0  0  0
  -25.6180  -20.1837   22.7587 C   0  0  2  0  0  0  0  0  0  0  0  0
  -31.0350  -18.7692   21.0952 C   0  0  2  0  0  0  0  0  0  0  0  0
  -26.6796  -29.7351   19.3737 C   0  0  0  0  0  0  0  0  0  0  0  0
  -24.8521  -12.4547   21.0722 N   0  0  0  0  0  0  0  0  0  0  0  0
  -24.9966  -13.6826   21.5989 N   0  0  0  0  0  0  0  0  0  0  0  0
  -24.6842  -28.0577   22.0932 N   0  0  0  0  0  0  0  0  0  0  0  0
  -27.7769  -15.0647   19.3742 N   0  0  0  0  0  0  0  0  0  0  0  0
  -24.3811  -15.0293   23.4478 N   0  0  0  0  0  0  0  0  0  0  0  0
  -21.5372  -12.6096   24.1201 N   0  0  0  0  0  0  0  0  0  0  0  0
  -21.3494  -29.2871   22.4062 N   0  0  0  0  0  0  0  0  0  0  0  0
  -27.6569  -28.3061   21.2194 N   0  0  0  0  0  0  0  0  0  0  0  0
  -29.8151  -16.1700   18.9037 N   0  0  0  0  0  0  0  0  0  0  0  0
  -31.8628  -15.9557   16.7189 N   0  3  0  0  0  0  0  0  0  0  0  0
  -30.7244  -18.7764   19.6419 N   0  3  0  0  0  0  0  0  0  0  0  0
  -30.0375  -25.6697   21.8899 N   0  3  0  0  0  0  0  0  0  0  0  0
  -23.4022  -11.9185   25.2615 O   0  0  0  0  0  0  0  0  0  0  0  0
  -22.2604  -27.5449   21.1583 O   0  0  0  0  0  0  0  0  0  0  0  0
  -25.3007  -30.2813   21.7587 O   0  0  0  0  0  0  0  0  0  0  0  0
  -28.2968  -26.5411   19.8584 O   0  0  0  0  0  0  0  0  0  0  0  0
  -29.7453  -14.4818   20.4529 O   0  0  0  0  0  0  0  0  0  0  0  0
  -22.5588   -6.5142   21.1351 O   0  0  0  0  0  0  0  0  0  0  0  0
  -24.0556  -22.0038   23.0969 O   0  0  0  0  0  0  0  0  0  1  0  0
  -20.4574   -3.7459   25.4158 F   0  0  0  0  0  0  0  0  0  0  0  0
  -20.2564   -7.3839   22.3942 F   0  0  0  0  0  0  0  0  0  0  0  0
  1  2  1  0  0  0  0
  1  5  2  0  0  0  0
  2  6  2  0  0  0  0
  3  8  2  0  0  0  0
  3 15  1  0  0  0  0
  4  9  1  0  0  0  0
  4 15  2  0  0  0  0
  5 17  1  0  0  0  0
  6 19  1  0  0  0  0
  7 10  2  0  0  0  0
  7 18  1  0  0  0  0
  8 21  1  0  0  0  0
  9 21  2  0  0  0  0
 10 22  1  0  0  0  0
 11 12  2  0  0  0  0
 11 23  1  0  0  0  0
 12 24  1  0  0  0  0
 13 20  1  0  0  0  0
 13 22  2  0  0  0  0
 14 24  2  0  0  0  0
 14 25  1  0  0  0  0
 15 26  1  0  0  0  0
 16 26  1  0  0  0  0
 16 27  2  0  0  0  0
 16 28  1  0  0  0  0
 17 19  2  0  0  0  0
 17 33  1  0  0  0  0
 18 20  2  0  0  0  0
 18 34  1  0  0  0  0
 19 49  1  0  0  0  0
 20 35  1  0  0  0  0
 21 86  1  0  0  0  0
 22 87  1  0  0  0  0
 23 25  2  0  0  0  0
 23 86  1  0  0  0  0
 24 88  1  0  0  0  0
 25 89  1  0  0  0  0
 26 69  2  0  0  0  0
 27 70  1  0  0  0  0
 27 73  1  0  0  0  0
 28 74  1  0  0  0  0
 28 81  2  0  0  0  0
 29 50  1  0  0  0  0
 29 75  1  0  0  0  0
 29 82  2  0  0  0  0
 30 64  1  0  0  0  0
 30 71  1  0  0  0  0
 30 83  2  0  0  0  0
 31 65  1  0  0  0  0
 31 76  1  0  0  0  0
 31 84  2  0  0  0  0
 32 72  1  0  0  0  0
 32 77  1  0  0  0  0
 32 85  2  0  0  0  0
 33 36  1  0  0  0  0
 34 50  1  0  0  0  0
 35 71  1  0  0  0  0
 36 38  1  0  0  0  0
 37 43  1  0  0  0  0
 37 45  1  0  0  0  0
 38 49  1  0  0  0  0
 39 41  1  0  0  0  0
 39 51  1  0  0  0  0
 40 42  1  0  0  0  0
 40 51  1  0  0  0  0
 41 52  1  0  0  0  0
 42 52  1  0  0  0  0
 43 53  1  0  0  0  0
 44 47  1  0  0  0  0
 44 55  1  0  0  0  0
 45 72  1  0  0  0  0
 46 53  1  0  0  0  0
 46 72  1  0  0  0  0
 47 78  1  0  0  0  0
 48 54  1  0  0  0  0
 48 78  1  0  0  0  0
 49 75  1  0  0  0  0
 50 71  1  0  0  0  0
 51 66  1  0  0  0  0
 52 67  1  0  0  0  0
 53 70  1  0  0  0  0
 54 55  1  0  0  0  0
 54 77  1  0  0  0  0
 55 79  1  0  0  0  0
 56 65  1  0  0  0  0
 57 66  1  0  0  0  0
 58 67  1  0  0  0  0
 59 68  1  0  0  0  0
 60 68  1  0  0  0  0
 61 68  1  0  0  0  0
 62 80  1  0  0  0  0
 63 66  1  0  0  0  0
 63 87  1  0  0  0  0
 64 68  1  0  0  0  0
 64 76  1  0  0  0  0
 65 80  1  0  0  0  0
 67 79  1  0  0  0  0
 69 70  1  0  0  0  0
M  CHG  3  78   1  79   1  80   1
M  ISO  4  32 100  63 101  77 100  87 101
M  END
> <Batch ID>
0120

> <Smiles>
CNC(C)C(=O)NC(C(=O)N1Cc2cc([101O:1][101CH2:1]C(C)C3CCC(C(C)NC4CCNCC4[100NH:0][100C:0](=O)N4CCCC(n5nc(-c6ccc(Oc7ccc(F)cc7F)cc6)c(C(N)=O)c5N)C4)CC3)ccc2CC1C(=O)NC1CCCc2ccccc21)C(C)(C)C

> <Shape>
0.244

> <Color>
0.084

> <Negative vol penalty>
0.000

$$$$

  -OEChem-04052320233D

 88 97  0     1  0  0  0  0  0999 V2000
  -16.5389  -27.5963   26.7447 C   0  0  0  0  0  0  0  0  0  0  0  0
  -17.6478  -26.7880   26.5153 C   0  0  0  0  0  0  0  0  0  0  0  0
  -23.2961   -9.5066   19.9609 C   0  0  0  0  0  0  0  0  0  0  0  0
  -23.3538  -10.6997   22.0609 C   0  0  0  0  0  0  0  0  0  0  0  0
  -16.3285  -28.7285   25.9587 C   0  0  0  0  0  0  0  0  0  0  0  0
  -18.5463  -27.1110   25.4990 C   0  0  0  0  0  0  0  0  0  0  0  0
  -24.6082  -26.2400   25.5303 C   0  0  0  0  0  0  0  0  0  0  0  0
  -29.2078  -22.1656   23.6364 C   0  0  0  0  0  0  0  0  0  0  0  0
  -22.4397   -8.5595   20.5224 C   0  0  0  0  0  0  0  0  0  0  0  0
  -22.4973   -9.7527   22.6225 C   0  0  0  0  0  0  0  0  0  0  0  0
  -25.4153  -25.2428   24.9844 C   0  0  0  0  0  0  0  0  0  0  0  0
  -19.1897   -9.0605   22.5938 C   0  0  0  0  0  0  0  0  0  0  0  0
  -18.1235   -9.5279   23.3621 C   0  0  0  0  0  0  0  0  0  0  0  0
  -30.0345  -21.2982   22.9311 C   0  0  0  0  0  0  0  0  0  0  0  0
  -25.8073  -26.6281   23.0488 C   0  0  0  0  0  0  0  0  0  0  0  0
  -18.9704   -8.3172   25.2737 C   0  0  0  0  0  0  0  0  0  0  0  0
  -27.4491  -21.6347   22.1258 C   0  0  0  0  0  0  0  0  0  0  0  0
  -23.7532  -10.5766   20.7301 C   0  0  0  0  0  0  0  0  0  0  0  0
  -24.2754  -12.7420   19.4866 C   0  0  0  0  0  0  0  0  0  0  0  0
  -17.2300  -29.0708   24.9386 C   0  0  0  0  0  0  0  0  0  0  0  0
  -24.3853  -27.4363   24.8334 C   0  0  0  0  0  0  0  0  0  0  0  0
  -18.3470  -28.2481   24.6978 C   0  0  0  0  0  0  0  0  0  0  0  0
  -24.9990  -27.6399   23.5892 C   0  0  0  0  0  0  0  0  0  0  0  0
  -27.8891  -22.3427   23.2326 C   0  0  0  0  0  0  0  0  0  0  0  0
  -22.0403   -8.6826   21.8532 C   0  0  0  0  0  0  0  0  0  0  0  0
  -26.0127  -25.4356   23.7422 C   0  0  0  0  0  0  0  0  0  0  0  0
  -20.1462   -8.2214   23.1653 C   0  0  0  0  0  0  0  0  0  0  0  0
  -18.0139   -9.1563   24.7021 C   0  0  0  0  0  0  0  0  0  0  0  0
  -20.0365   -7.8498   24.5053 C   0  0  0  0  0  0  0  0  0  0  0  0
  -24.6383  -11.5549   20.1508 C   0  0  0  0  0  0  0  0  0  0  0  0
  -29.4984  -20.6369   21.8379 C   0  0  0  0  0  0  0  0  0  0  0  0
  -25.4715  -13.3148   19.1293 C   0  0  0  0  0  0  0  0  0  0  0  0
  -22.9736  -13.2788   19.2169 C   0  0  0  0  0  0  0  0  0  0  0  0
  -21.8262  -28.8889   23.6315 C   0  0  0  0  0  0  0  0  0  0  0  0
  -23.9425  -31.2738   23.0346 C   0  0  0  0  0  0  0  0  0  0  0  0
  -27.1832  -32.2085   22.5142 C   0  0  0  0  0  0  0  0  0  0  0  0
  -30.7158  -14.7894   20.3408 C   0  0  0  0  0  0  0  0  0  0  0  0
  -16.9351  -30.2782   24.0842 C   0  0  0  0  0  0  0  0  0  0  0  0
  -23.5336  -28.5130   25.4480 C   0  0  0  0  0  0  0  0  0  0  0  0
  -24.8079  -28.9146   22.8099 C   0  0  0  0  0  0  0  0  0  0  0  0
  -18.1357  -30.7577   23.2724 C   0  0  0  0  0  0  0  0  0  0  0  0
  -30.1732  -11.4519   19.2259 C   0  0  0  0  0  0  0  0  0  0  0  0
  -18.8231  -29.5797   22.5893 C   0  0  0  0  0  0  0  0  0  0  0  0
  -28.6563  -11.2774   19.3183 C   0  0  0  0  0  0  0  0  0  0  0  0
  -30.6595  -17.7138   18.8603 C   0  0  0  0  0  0  0  0  0  0  0  0
  -31.2663  -19.1111   18.7494 C   0  0  0  0  0  0  0  0  0  0  0  0
  -29.7606  -18.2758   21.1550 C   0  0  0  0  0  0  0  0  0  0  0  0
  -30.7129  -12.3124   20.3662 C   0  0  0  0  0  0  0  0  0  0  0  0
  -28.5403  -13.4506   20.6077 C   0  0  0  0  0  0  0  0  0  0  0  0
  -19.3575  -28.5790   23.6210 C   0  0  1  0  0  0  0  0  0  0  0  0
  -30.3570  -19.6981   21.0579 C   0  0  1  0  0  0  0  0  0  0  0  0
  -22.9605  -29.4820   24.4184 C   0  0  1  0  0  0  0  0  0  0  0  0
  -27.9424  -12.6364   19.4476 C   0  0  2  0  0  0  0  0  0  0  0  0
  -30.5554  -17.2659   20.3200 C   0  0  1  0  0  0  0  0  0  0  0  0
  -30.4775  -20.1261   19.5783 C   0  0  1  0  0  0  0  0  0  0  0  0
  -28.5970  -34.2207   22.0148 C   0  0  0  0  0  0  0  0  0  0  0  0
  -32.0835  -23.1654   18.0235 C   0  0  0  0  0  0  0  0  0  0  0  0
  -29.5936  -22.8367   18.2812 C   0  0  0  0  0  0  0  0  0  0  0  0
  -23.0081  -31.2066   20.1308 C   0  0  0  0  0  0  0  0  0  0  0  0
  -25.0555  -32.5091   19.5148 C   0  0  0  0  0  0  0  0  0  0  0  0
  -23.3660  -33.5012   21.0587 C   0  0  0  0  0  0  0  0  0  0  0  0
  -28.7078  -31.9065   25.0328 C   0  0  0  0  0  0  0  0  0  0  0  0
  -26.9719  -23.2716   23.9723 C   0  0  0  0  0  0  0  0  0  1  0  0
  -24.8537  -31.6317   21.8855 C   0  0  1  0  0  0  0  0  0  0  0  0
  -28.0141  -33.3337   23.1039 C   0  0  2  0  0  0  0  0  0  0  0  0
  -30.9556  -22.1645   18.2162 C   0  0  0  0  0  0  0  0  0  0  0  0
  -24.0731  -32.1872   20.6610 C   0  0  0  0  0  0  0  0  0  0  0  0
  -28.2226  -20.7833   21.4155 N   0  0  0  0  0  0  0  0  0  0  0  0
  -25.9613  -11.3826   20.2129 N   0  0  0  0  0  0  0  0  0  0  0  0
  -26.4403  -12.4689   19.5831 N   0  0  0  0  0  0  0  0  0  0  0  0
  -23.9612  -29.9347   23.4500 N   0  0  0  0  0  0  0  0  0  0  0  0
  -29.9948  -13.5875   20.4332 N   0  0  0  0  0  0  0  0  0  0  0  0
  -25.7785  -14.4546   18.4741 N   0  0  0  0  0  0  0  0  0  0  0  0
  -21.8515  -12.5618   19.6541 N   0  0  0  0  0  0  0  0  0  0  0  0
  -20.5848  -29.0684   24.2113 N   0  0  0  0  0  0  0  0  0  0  0  0
  -25.8503  -32.5502   22.4256 N   0  0  0  0  0  0  0  0  0  0  0  0
  -29.9578  -15.9521   20.4069 N   0  0  0  0  0  0  0  0  0  0  0  0
  -31.1834  -21.4382   19.4910 N   0  3  0  0  0  0  0  0  0  0  0  0
  -29.1381  -32.7798   23.9106 N   0  3  0  0  0  0  0  0  0  0  0  0
  -22.8098  -14.3539   18.5917 O   0  0  0  0  0  0  0  0  0  0  0  0
  -22.0598  -28.3124   22.5757 O   0  0  0  0  0  0  0  0  0  0  0  0
  -23.2452  -32.1514   23.5495 O   0  0  0  0  0  0  0  0  0  0  0  0
  -27.6686  -31.1352   22.1634 O   0  0  0  0  0  0  0  0  0  0  0  0
  -31.9434  -14.8238   20.2038 O   0  0  0  0  0  0  0  0  0  0  0  0
  -21.2045   -7.7588   22.4014 O   0  0  0  0  0  0  0  0  0  0  0  0
  -26.8005  -24.4637   23.2068 O   0  0  0  0  0  0  0  0  0  1  0  0
  -16.9908   -9.6066   25.4403 F   0  0  0  0  0  0  0  0  0  0  0  0
  -20.9530   -7.0448   25.0603 F   0  0  0  0  0  0  0  0  0  0  0  0
  1  2  1  0  0  0  0
  1  5  2  0  0  0  0
  2  6  2  0  0  0  0
  3  9  2  0  0  0  0
  3 18  1  0  0  0  0
  4 10  1  0  0  0  0
  4 18  2  0  0  0  0
  5 20  1  0  0  0  0
  6 22  1  0  0  0  0
  7 11  2  0  0  0  0
  7 21  1  0  0  0  0
  8 14  2  0  0  0  0
  8 24  1  0  0  0  0
  9 25  1  0  0  0  0
 10 25  2  0  0  0  0
 11 26  1  0  0  0  0
 12 13  2  0  0  0  0
 12 27  1  0  0  0  0
 13 28  1  0  0  0  0
 14 31  1  0  0  0  0
 15 23  1  0  0  0  0
 15 26  2  0  0  0  0
 16 28  2  0  0  0  0
 16 29  1  0  0  0  0
 17 24  2  0  0  0  0
 17 68  1  0  0  0  0
 18 30  1  0  0  0  0
 19 30  1  0  0  0  0
 19 32  2  0  0  0  0
 19 33  1  0  0  0  0
 20 22  2  0  0  0  0
 20 38  1  0  0  0  0
 21 23  2  0  0  0  0
 21 39  1  0  0  0  0
 22 50  1  0  0  0  0
 23 40  1  0  0  0  0
 24 63  1  0  0  0  0
 25 85  1  0  0  0  0
 26 86  1  0  0  0  0
 27 29  2  0  0  0  0
 27 85  1  0  0  0  0
 28 87  1  0  0  0  0
 29 88  1  0  0  0  0
 30 69  2  0  0  0  0
 31 51  1  0  0  0  0
 31 68  2  0  0  0  0
 32 70  1  0  0  0  0
 32 73  1  0  0  0  0
 33 74  1  0  0  0  0
 33 80  2  0  0  0  0
 34 52  1  0  0  0  0
 34 75  1  0  0  0  0
 34 81  2  0  0  0  0
 35 64  1  0  0  0  0
 35 71  1  0  0  0  0
 35 82  2  0  0  0  0
 36 65  1  0  0  0  0
 36 76  1  0  0  0  0
 36 83  2  0  0  0  0
 37 72  1  0  0  0  0
 37 77  1  0  0  0  0
 37 84  2  0  0  0  0
 38 41  1  0  0  0  0
 39 52  1  0  0  0  0
 40 71  1  0  0  0  0
 41 43  1  0  0  0  0
 42 44  1  0  0  0  0
 42 48  1  0  0  0  0
 43 50  1  0  0  0  0
 44 53  1  0  0  0  0
 45 46  1  0  0  0  0
 45 54  1  0  0  0  0
 46 55  1  0  0  0  0
 47 51  1  0  0  0  0
 47 54  1  0  0  0  0
 48 72  1  0  0  0  0
 49 53  1  0  0  0  0
 49 72  1  0  0  0  0
 50 75  1  0  0  0  0
 51 55  1  0  0  0  0
 52 71  1  0  0  0  0
 53 70  1  0  0  0  0
 54 77  1  0  0  0  0
 55 78  1  0  0  0  0
 56 65  1  0  0  0  0
 57 66  1  0  0  0  0
 58 66  1  0  0  0  0
 59 67  1  0  0  0  0
 60 67  1  0  0  0  0
 61 67  1  0  0  0  0
 62 79  1  0  0  0  0
 63 86  1  0  0  0  0
 64 67  1  0  0  0  0
 64 76  1  0  0  0  0
 65 79  1  0  0  0  0
 66 78  1  0  0  0  0
 69 70  1  0  0  0  0
M  CHG  2  78   1  79   1
M  ISO  4  37 100  63 101  77 100  86 101
M  END
> <Batch ID>
0120

> <Smiles>
CNC(C)C(=O)NC(C(=O)N1Cc2cc([101O:1][101CH2:1]c3ccc(C4CC([100NH:0][100C:0](=O)N5CCCC(n6nc(-c7ccc(Oc8ccc(F)cc8F)cc7)c(C(N)=O)c6N)C5)CCC4NC(C)C)nc3)ccc2CC1C(=O)NC1CCCc2ccccc21)C(C)(C)C

> <Shape>
0.251

> <Color>
0.105

> <Negative vol penalty>
0.000

$$$$

  -OEChem-04052320233D

 85 93  0     1  0  0  0  0  0999 V2000
  -21.9558  -11.2947   19.3281 C   0  0  0  0  0  0  0  0  0  0  0  0
  -21.6433  -12.5291   19.8886 C   0  0  0  0  0  0  0  0  0  0  0  0
  -26.1410  -29.7092   20.9388 C   0  0  0  0  0  0  0  0  0  0  0  0
  -24.9851  -28.0998   19.5565 C   0  0  0  0  0  0  0  0  0  0  0  0
  -23.2631  -10.8138   19.3886 C   0  0  0  0  0  0  0  0  0  0  0  0
  -22.6379  -13.2829   20.5108 C   0  0  0  0  0  0  0  0  0  0  0  0
  -22.4728  -18.1728   19.2045 C   0  0  0  0  0  0  0  0  0  0  0  0
  -27.3166  -28.9682   20.8185 C   0  0  0  0  0  0  0  0  0  0  0  0
  -26.1607  -27.3588   19.4361 C   0  0  0  0  0  0  0  0  0  0  0  0
  -21.5009  -18.9630   19.8168 C   0  0  0  0  0  0  0  0  0  0  0  0
  -30.7118  -27.6913   20.5780 C   0  0  0  0  0  0  0  0  0  0  0  0
  -31.8916  -28.3858   20.3110 C   0  0  0  0  0  0  0  0  0  0  0  0
  -23.1622  -19.8095   21.3474 C   0  0  0  0  0  0  0  0  0  0  0  0
  -19.5658  -21.6979   24.3236 C   0  0  0  0  0  0  0  0  0  0  0  0
  -30.9370  -29.2164   18.2529 C   0  0  0  0  0  0  0  0  0  0  0  0
  -24.9752  -29.2750   20.3079 C   0  0  0  0  0  0  0  0  0  0  0  0
  -23.3199  -31.0786   19.5907 C   0  0  0  0  0  0  0  0  0  0  0  0
  -24.2762  -11.5665   20.0033 C   0  0  0  0  0  0  0  0  0  0  0  0
  -23.7966  -18.1869   19.6668 C   0  0  0  0  0  0  0  0  0  0  0  0
  -23.9597  -12.8110   20.5806 C   0  0  0  0  0  0  0  0  0  0  0  0
  -24.1495  -19.0205   20.7376 C   0  0  0  0  0  0  0  0  0  0  0  0
  -20.1367  -22.1107   23.1249 C   0  0  0  0  0  0  0  0  0  0  0  0
  -19.6060  -23.2036   22.4486 C   0  0  0  0  0  0  0  0  0  0  0  0
  -27.3265  -27.7930   20.0671 C   0  0  0  0  0  0  0  0  0  0  0  0
  -21.8450  -19.7793   20.8903 C   0  0  0  0  0  0  0  0  0  0  0  0
  -29.6445  -27.7593   19.6824 C   0  0  0  0  0  0  0  0  0  0  0  0
  -32.0042  -29.1483   19.1485 C   0  0  0  0  0  0  0  0  0  0  0  0
  -29.7571  -28.5218   18.5198 C   0  0  0  0  0  0  0  0  0  0  0  0
  -23.7604  -30.0396   20.4323 C   0  0  0  0  0  0  0  0  0  0  0  0
  -18.4742  -22.4060   24.7999 C   0  0  0  0  0  0  0  0  0  0  0  0
  -18.5125  -23.8441   23.0086 C   0  0  0  0  0  0  0  0  0  0  0  0
  -22.1209  -31.4738   20.1317 C   0  0  0  0  0  0  0  0  0  0  0  0
  -18.8994  -24.1318   19.0647 C   0  0  0  0  0  0  0  0  0  0  0  0
  -19.3911  -23.2655   19.9578 C   0  0  0  0  0  0  0  0  0  0  0  0
  -23.9392  -31.6365   18.4241 C   0  0  0  0  0  0  0  0  0  0  0  0
  -25.7607  -16.0202   20.9125 C   0  0  0  0  0  0  0  0  0  0  0  0
  -27.9271  -18.4241   20.6869 C   0  0  0  0  0  0  0  0  0  0  0  0
  -28.5239  -21.7799   20.5174 C   0  0  0  0  0  0  0  0  0  0  0  0
  -18.0673  -28.6804   23.5399 C   0  0  0  0  0  0  0  0  0  0  0  0
  -25.6649  -10.9839   20.0857 C   0  0  0  0  0  0  0  0  0  0  0  0
  -24.8387  -17.3488   18.9783 C   0  0  0  0  0  0  0  0  0  0  0  0
  -25.5610  -19.0872   21.2589 C   0  0  0  0  0  0  0  0  0  0  0  0
  -26.7375  -12.0130   20.4329 C   0  0  0  0  0  0  0  0  0  0  0  0
  -19.7891  -31.7019   24.3032 C   0  0  0  0  0  0  0  0  0  0  0  0
  -26.2837  -12.8840   21.6001 C   0  0  0  0  0  0  0  0  0  0  0  0
  -20.9624  -31.7123   23.3217 C   0  0  0  0  0  0  0  0  0  0  0  0
  -19.4744  -30.2897   24.7916 C   0  0  0  0  0  0  0  0  0  0  0  0
  -20.4254  -29.3098   22.7401 C   0  0  0  0  0  0  0  0  0  0  0  0
  -25.0160  -13.6692   21.2423 C   0  0  1  0  0  0  0  0  0  0  0  0
  -26.0477  -17.0546   19.8611 C   0  0  1  0  0  0  0  0  0  0  0  0
  -20.7444  -30.7051   22.1766 C   0  0  2  0  0  0  0  0  0  0  0  0
  -17.8363  -21.9917   26.0837 C   0  0  0  0  0  0  0  0  0  0  0  0
  -30.3981  -23.4429   20.3783 C   0  0  0  0  0  0  0  0  0  0  0  0
  -28.5224  -17.9972   23.6489 C   0  0  0  0  0  0  0  0  0  0  0  0
  -29.6467  -20.2341   23.6738 C   0  0  0  0  0  0  0  0  0  0  0  0
  -30.5392  -18.4076   22.2281 C   0  0  0  0  0  0  0  0  0  0  0  0
  -27.5660  -22.8164   17.9160 C   0  0  0  0  0  0  0  0  0  0  0  0
  -20.2064  -23.6618   21.1604 C   0  0  0  0  0  0  0  0  0  0  0  0
  -21.3204  -21.3635   22.5847 C   0  0  0  0  0  0  0  0  0  1  0  0
  -16.8424  -25.6876   22.8140 C   0  0  0  0  0  0  0  0  0  0  0  0
  -16.7737  -27.0643   22.1709 C   0  0  0  0  0  0  0  0  0  0  0  0
  -28.3748  -19.5479   21.5899 C   0  0  1  0  0  0  0  0  0  0  0  0
  -29.4046  -22.6010   19.5929 C   0  0  2  0  0  0  0  0  0  0  0  0
  -29.2437  -19.0442   22.7768 C   0  0  0  0  0  0  0  0  0  0  0  0
  -22.9105  -29.7906   21.4321 N   0  0  0  0  0  0  0  0  0  0  0  0
  -17.9309  -23.4723   24.1710 N   0  0  0  0  0  0  0  0  0  0  0  0
  -21.9240  -30.6787   21.2222 N   0  0  0  0  0  0  0  0  0  0  0  0
  -26.5427  -18.2444   20.5565 N   0  0  0  0  0  0  0  0  0  0  0  0
  -19.2771  -29.3845   23.6569 N   0  0  0  0  0  0  0  0  0  0  0  0
  -21.2265  -32.4204   19.7763 N   0  0  0  0  0  0  0  0  0  0  0  0
  -25.1701  -31.1128   18.0058 N   0  0  0  0  0  0  0  0  0  0  0  0
  -17.9663  -24.9587   22.3241 N   0  0  0  0  0  0  0  0  0  0  0  0
  -25.3435  -14.8041   20.4061 N   0  0  0  0  0  0  0  0  0  0  0  0
  -29.0423  -20.5203   20.7312 N   0  0  0  0  0  0  0  0  0  0  0  0
  -17.9600  -27.8489   22.4319 N   0  0  0  0  0  0  0  0  0  0  0  0
  -28.5717  -23.5129   18.7588 N   0  3  0  0  0  0  0  0  0  0  0  0
  -23.4244  -32.5828   17.7814 O   0  0  0  0  0  0  0  0  0  0  0  0
  -25.9083  -16.3040   22.0954 O   0  0  0  0  0  0  0  0  0  0  0  0
  -28.7744  -17.7356   20.1127 O   0  0  0  0  0  0  0  0  0  0  0  0
  -27.4822  -22.2140   21.0043 O   0  0  0  0  0  0  0  0  0  0  0  0
  -17.1487  -28.7891   24.3592 O   0  0  0  0  0  0  0  0  0  0  0  0
  -28.4736  -27.0699   19.9493 O   0  0  0  0  0  0  0  0  0  0  0  0
  -20.8982  -20.5510   21.4902 O   0  0  0  0  0  0  0  0  0  1  0  0
  -33.1367  -29.8164   18.8930 F   0  0  0  0  0  0  0  0  0  0  0  0
  -28.7348  -28.5919   17.6563 F   0  0  0  0  0  0  0  0  0  0  0  0
  1  2  1  0  0  0  0
  1  5  2  0  0  0  0
  2  6  2  0  0  0  0
  3  8  2  0  0  0  0
  3 16  1  0  0  0  0
  4  9  1  0  0  0  0
  4 16  2  0  0  0  0
  5 18  1  0  0  0  0
  6 20  1  0  0  0  0
  7 10  2  0  0  0  0
  7 19  1  0  0  0  0
  8 24  1  0  0  0  0
  9 24  2  0  0  0  0
 10 25  1  0  0  0  0
 11 12  2  0  0  0  0
 11 26  1  0  0  0  0
 12 27  1  0  0  0  0
 13 21  1  0  0  0  0
 13 25  2  0  0  0  0
 14 22  2  0  0  0  0
 14 30  1  0  0  0  0
 15 27  2  0  0  0  0
 15 28  1  0  0  0  0
 16 29  1  0  0  0  0
 17 29  1  0  0  0  0
 17 32  2  0  0  0  0
 17 35  1  0  0  0  0
 18 20  2  0  0  0  0
 18 40  1  0  0  0  0
 19 21  2  0  0  0  0
 19 41  1  0  0  0  0
 20 49  1  0  0  0  0
 21 42  1  0  0  0  0
 22 23  1  0  0  0  0
 22 59  1  0  0  0  0
 23 31  2  0  0  0  0
 23 58  1  0  0  0  0
 24 82  1  0  0  0  0
 25 83  1  0  0  0  0
 26 28  2  0  0  0  0
 26 82  1  0  0  0  0
 27 84  1  0  0  0  0
 28 85  1  0  0  0  0
 29 65  2  0  0  0  0
 30 52  1  0  0  0  0
 30 66  2  0  0  0  0
 31 66  1  0  0  0  0
 31 72  1  0  0  0  0
 32 67  1  0  0  0  0
 32 70  1  0  0  0  0
 33 34  2  0  0  0  0
 34 58  1  0  0  0  0
 35 71  1  0  0  0  0
 35 77  2  0  0  0  0
 36 50  1  0  0  0  0
 36 73  1  0  0  0  0
 36 78  2  0  0  0  0
 37 62  1  0  0  0  0
 37 68  1  0  0  0  0
 37 79  2  0  0  0  0
 38 63  1  0  0  0  0
 38 74  1  0  0  0  0
 38 80  2  0  0  0  0
 39 69  1  0  0  0  0
 39 75  1  0  0  0  0
 39 81  2  0  0  0  0
 40 43  1  0  0  0  0
 41 50  1  0  0  0  0
 42 68  1  0  0  0  0
 43 45  1  0  0  0  0
 44 46  1  0  0  0  0
 44 47  1  0  0  0  0
 45 49  1  0  0  0  0
 46 51  1  0  0  0  0
 47 69  1  0  0  0  0
 48 51  1  0  0  0  0
 48 69  1  0  0  0  0
 49 73  1  0  0  0  0
 50 68  1  0  0  0  0
 51 67  1  0  0  0  0
 53 63  1  0  0  0  0
 54 64  1  0  0  0  0
 55 64  1  0  0  0  0
 56 64  1  0  0  0  0
 57 76  1  0  0  0  0
 59 83  1  0  0  0  0
 60 61  1  0  0  0  0
 60 72  1  0  0  0  0
 61 75  1  0  0  0  0
 62 64  1  0  0  0  0
 62 74  1  0  0  0  0
 63 76  1  0  0  0  0
 65 67  1  0  0  0  0
M  CHG  1  76   1
M  ISO  4  39 100  59 101  75 100  83 101
M  END
> <Batch ID>
0120

> <Smiles>
C=CCc1c([101CH2:1][101O:1]c2ccc3c(c2)CN(C(=O)C(NC(=O)C(C)NC)C(C)(C)C)C(C(=O)NC2CCCc4ccccc42)C3)cc(C)nc1NCC[100NH:0][100C:0](=O)N1CCCC(n2nc(-c3ccc(Oc4ccc(F)cc4F)cc3)c(C(N)=O)c2N)C1

> <Shape>
0.237

> <Color>
0.069

> <Negative vol penalty>
0.000

$$$$

  -OEChem-04052320233D

 82 90  0     1  0  0  0  0  0999 V2000
  -26.8945  -20.7002   40.5316 C   0  0  0  0  0  0  0  0  0  0  0  0
  -26.7525  -20.7425   39.1483 C   0  0  0  0  0  0  0  0  0  0  0  0
  -23.0743   -9.8688   19.9422 C   0  0  0  0  0  0  0  0  0  0  0  0
  -23.8384   -9.8750   22.2342 C   0  0  0  0  0  0  0  0  0  0  0  0
  -28.1126  -20.3219   41.0948 C   0  0  0  0  0  0  0  0  0  0  0  0
  -27.8288  -20.4076   38.3274 C   0  0  0  0  0  0  0  0  0  0  0  0
  -27.5801  -17.5753   32.9032 C   0  0  0  0  0  0  0  0  0  0  0  0
  -22.3317   -8.7150   20.1929 C   0  0  0  0  0  0  0  0  0  0  0  0
  -23.0958   -8.7212   22.4849 C   0  0  0  0  0  0  0  0  0  0  0  0
  -27.6196  -18.0518   31.5936 C   0  0  0  0  0  0  0  0  0  0  0  0
  -19.8694   -7.9207   23.0930 C   0  0  0  0  0  0  0  0  0  0  0  0
  -19.1146   -7.8796   24.2652 C   0  0  0  0  0  0  0  0  0  0  0  0
  -29.9897  -17.6105   31.5109 C   0  0  0  0  0  0  0  0  0  0  0  0
  -20.3588   -5.9426   24.9982 C   0  0  0  0  0  0  0  0  0  0  0  0
  -23.8277  -10.4488   20.9629 C   0  0  0  0  0  0  0  0  0  0  0  0
  -24.1675  -12.9743   20.8437 C   0  0  0  0  0  0  0  0  0  0  0  0
  -29.2014  -19.9729   40.2805 C   0  0  0  0  0  0  0  0  0  0  0  0
  -28.7491  -17.1222   33.5313 C   0  0  0  0  0  0  0  0  0  0  0  0
  -29.0629  -20.0256   38.8803 C   0  0  0  0  0  0  0  0  0  0  0  0
  -29.9620  -17.1263   32.8277 C   0  0  0  0  0  0  0  0  0  0  0  0
  -22.3424   -8.1412   21.4642 C   0  0  0  0  0  0  0  0  0  0  0  0
  -28.8250  -18.0721   30.8982 C   0  0  0  0  0  0  0  0  0  0  0  0
  -20.8688   -6.9727   22.8732 C   0  0  0  0  0  0  0  0  0  0  0  0
  -19.3593   -6.8905   25.2179 C   0  0  0  0  0  0  0  0  0  0  0  0
  -21.1135   -5.9837   23.8259 C   0  0  0  0  0  0  0  0  0  0  0  0
  -24.5955  -11.6404   20.7044 C   0  0  0  0  0  0  0  0  0  0  0  0
  -25.2584  -13.7248   20.4788 C   0  0  0  0  0  0  0  0  0  0  0  0
  -22.8974  -13.4889   21.2653 C   0  0  0  0  0  0  0  0  0  0  0  0
  -30.4120  -18.0156   36.0888 C   0  0  0  0  0  0  0  0  0  0  0  0
  -32.1220  -15.3391   35.4293 C   0  0  0  0  0  0  0  0  0  0  0  0
  -33.1196  -13.0345   33.1183 C   0  0  0  0  0  0  0  0  0  0  0  0
  -30.7418  -14.7476   20.6575 C   0  0  0  0  0  0  0  0  0  0  0  0
  -30.5125  -19.6160   40.9351 C   0  0  0  0  0  0  0  0  0  0  0  0
  -28.6849  -16.5864   34.9353 C   0  0  0  0  0  0  0  0  0  0  0  0
  -31.2414  -16.6320   33.4498 C   0  0  0  0  0  0  0  0  0  0  0  0
  -31.4910  -18.9149   39.9963 C   0  0  0  0  0  0  0  0  0  0  0  0
  -29.6015  -12.3637   18.2715 C   0  0  0  0  0  0  0  0  0  0  0  0
  -31.5632  -19.6443   38.6586 C   0  0  0  0  0  0  0  0  0  0  0  0
  -28.1650  -12.0687   18.7069 C   0  0  0  0  0  0  0  0  0  0  0  0
  -30.7511  -15.9889   26.6584 C   0  0  0  0  0  0  0  0  0  0  0  0
  -30.5207  -12.5845   19.4708 C   0  0  0  0  0  0  0  0  0  0  0  0
  -28.6210  -13.3134   20.8614 C   0  0  0  0  0  0  0  0  0  0  0  0
  -29.9098  -17.3665   24.9089 C   0  0  0  0  0  0  0  0  0  0  0  0
  -30.1998  -19.6456   37.9567 C   0  0  1  0  0  0  0  0  0  0  0  0
  -30.0303  -16.6291   35.6533 C   0  0  1  0  0  0  0  0  0  0  0  0
  -30.4025  -17.4370   26.3470 C   0  0  1  0  0  0  0  0  0  0  0  0
  -27.6448  -13.1388   19.6854 C   0  0  2  0  0  0  0  0  0  0  0  0
  -31.4834  -15.5463   25.3982 C   0  0  1  0  0  0  0  0  0  0  0  0
  -31.4627  -14.0451   25.1767 C   0  0  0  0  0  0  0  0  0  0  0  0
  -34.5472  -10.9859   32.8685 C   0  0  0  0  0  0  0  0  0  0  0  0
  -29.0359  -19.4660   26.9072 C   0  0  0  0  0  0  0  0  0  0  0  0
  -34.6253  -17.0835   35.4539 C   0  0  0  0  0  0  0  0  0  0  0  0
  -35.8428  -15.2313   34.2898 C   0  0  0  0  0  0  0  0  0  0  0  0
  -34.8925  -14.8595   36.5661 C   0  0  0  0  0  0  0  0  0  0  0  0
  -30.8016  -11.3745   32.3246 C   0  0  0  0  0  0  0  0  0  0  0  0
  -30.8084  -16.8975   21.8955 C   0  0  0  0  0  0  0  0  0  0  0  0
  -31.6217  -16.7255   23.1649 C   0  0  0  0  0  0  0  0  0  0  0  0
  -29.8526  -17.9745   28.7556 C   0  0  0  0  0  0  0  0  0  1  0  0
  -33.3324  -15.0251   34.5835 C   0  0  1  0  0  0  0  0  0  0  0  0
  -33.1520  -11.5174   33.1578 C   0  0  2  0  0  0  0  0  0  0  0  0
  -29.3664  -18.0291   27.3048 C   0  0  2  0  0  0  0  0  0  0  0  0
  -34.6497  -15.5610   35.2120 C   0  0  0  0  0  0  0  0  0  0  0  0
  -25.8596  -11.5457   20.2837 N   0  0  0  0  0  0  0  0  0  0  0  0
  -26.2353  -12.8296   20.1554 N   0  0  0  0  0  0  0  0  0  0  0  0
  -31.1283  -16.1236   34.8269 N   0  0  0  0  0  0  0  0  0  0  0  0
  -29.9710  -13.6121   20.3584 N   0  0  0  0  0  0  0  0  0  0  0  0
  -25.4678  -15.0564   20.4062 N   0  0  0  0  0  0  0  0  0  0  0  0
  -21.8868  -12.5789   21.6039 N   0  0  0  0  0  0  0  0  0  0  0  0
  -29.9459  -18.3595   37.3434 N   0  0  0  0  0  0  0  0  0  0  0  0
  -33.3168  -13.5823   34.3683 N   0  0  0  0  0  0  0  0  0  0  0  0
  -30.1436  -15.6755   21.5012 N   0  0  0  0  0  0  0  0  0  0  0  0
  -30.7333  -16.2554   24.2764 N   0  3  2  0  0  0  0  0  0  0  0  0
  -32.2148  -10.9528   32.1458 N   0  3  0  0  0  0  0  0  0  0  0  0
  -22.6604  -14.7194   21.3238 O   0  0  0  0  0  0  0  0  0  0  0  0
  -31.0811  -18.7205   35.3425 O   0  0  0  0  0  0  0  0  0  0  0  0
  -32.0572  -14.8984   36.5796 O   0  0  0  0  0  0  0  0  0  0  0  0
  -32.9412  -13.6703   32.0817 O   0  0  0  0  0  0  0  0  0  0  0  0
  -31.8768  -14.9242   20.2019 O   0  0  0  0  0  0  0  0  0  0  0  0
  -21.6178   -7.0154   21.7092 O   0  0  0  0  0  0  0  0  0  0  0  0
  -28.8665  -18.5373   29.6200 O   0  0  0  0  0  0  0  0  0  1  0  0
  -18.6355   -6.8520   26.3443 F   0  0  0  0  0  0  0  0  0  0  0  0
  -22.0731   -5.0710   23.6210 F   0  0  0  0  0  0  0  0  0  0  0  0
  1  2  1  0  0  0  0
  1  5  2  0  0  0  0
  2  6  2  0  0  0  0
  3  8  2  0  0  0  0
  3 15  1  0  0  0  0
  4  9  1  0  0  0  0
  4 15  2  0  0  0  0
  5 17  1  0  0  0  0
  6 19  1  0  0  0  0
  7 10  2  0  0  0  0
  7 18  1  0  0  0  0
  8 21  1  0  0  0  0
  9 21  2  0  0  0  0
 10 22  1  0  0  0  0
 11 12  2  0  0  0  0
 11 23  1  0  0  0  0
 12 24  1  0  0  0  0
 13 20  1  0  0  0  0
 13 22  2  0  0  0  0
 14 24  2  0  0  0  0
 14 25  1  0  0  0  0
 15 26  1  0  0  0  0
 16 26  1  0  0  0  0
 16 27  2  0  0  0  0
 16 28  1  0  0  0  0
 17 19  2  0  0  0  0
 17 33  1  0  0  0  0
 18 20  2  0  0  0  0
 18 34  1  0  0  0  0
 19 44  1  0  0  0  0
 20 35  1  0  0  0  0
 21 79  1  0  0  0  0
 22 80  1  0  0  0  0
 23 25  2  0  0  0  0
 23 79  1  0  0  0  0
 24 81  1  0  0  0  0
 25 82  1  0  0  0  0
 26 63  2  0  0  0  0
 27 64  1  0  0  0  0
 27 67  1  0  0  0  0
 28 68  1  0  0  0  0
 28 74  2  0  0  0  0
 29 45  1  0  0  0  0
 29 69  1  0  0  0  0
 29 75  2  0  0  0  0
 30 59  1  0  0  0  0
 30 65  1  0  0  0  0
 30 76  2  0  0  0  0
 31 60  1  0  0  0  0
 31 70  1  0  0  0  0
 31 77  2  0  0  0  0
 32 66  1  0  0  0  0
 32 71  1  0  0  0  0
 32 78  2  0  0  0  0
 33 36  1  0  0  0  0
 34 45  1  0  0  0  0
 35 65  1  0  0  0  0
 36 38  1  0  0  0  0
 37 39  1  0  0  0  0
 37 41  1  0  0  0  0
 38 44  1  0  0  0  0
 39 47  1  0  0  0  0
 40 46  1  0  0  0  0
 40 48  1  0  0  0  0
 41 66  1  0  0  0  0
 42 47  1  0  0  0  0
 42 66  1  0  0  0  0
 43 46  1  0  0  0  0
 43 72  1  0  0  0  0
 44 69  1  0  0  0  0
 45 65  1  0  0  0  0
 46 61  1  0  0  0  0
 47 64  1  0  0  0  0
 48 49  1  0  0  0  0
 48 72  1  0  0  0  0
 50 60  1  0  0  0  0
 51 61  1  0  0  0  0
 52 62  1  0  0  0  0
 53 62  1  0  0  0  0
 54 62  1  0  0  0  0
 55 73  1  0  0  0  0
 56 57  1  0  0  0  0
 56 71  1  0  0  0  0
 57 72  1  0  0  0  0
 58 61  1  0  0  0  0
 58 80  1  0  0  0  0
 59 62  1  0  0  0  0
 59 70  1  0  0  0  0
 60 73  1  0  0  0  0
 63 64  1  0  0  0  0
M  CHG  2  72   1  73   1
M  ISO  4  32 100  58 101  71 100  80 101
M  END
> <Batch ID>
0120

> <Smiles>
CNC(C)C(=O)NC(C(=O)N1Cc2cc([101O:1][101CH2:1]C(C)C3CC(C)N(CC[100NH:0][100C:0](=O)N4CCCC(n5nc(-c6ccc(Oc7ccc(F)cc7F)cc6)c(C(N)=O)c5N)C4)C3)ccc2CC1C(=O)NC1CCCc2ccccc21)C(C)(C)C

> <Shape>
0.164

> <Color>
0.187

> <Negative vol penalty>
0.000

$$$$

  -OEChem-04052320233D

 82 90  0     1  0  0  0  0  0999 V2000
  -35.5860  -30.0033   25.8051 C   0  0  0  0  0  0  0  0  0  0  0  0
  -34.5907  -29.0923   26.1441 C   0  0  0  0  0  0  0  0  0  0  0  0
  -23.0752   -9.8668   19.9431 C   0  0  0  0  0  0  0  0  0  0  0  0
  -23.8393   -9.8751   22.2351 C   0  0  0  0  0  0  0  0  0  0  0  0
  -35.8690  -30.2578   24.4638 C   0  0  0  0  0  0  0  0  0  0  0  0
  -33.8771  -28.4360   25.1418 C   0  0  0  0  0  0  0  0  0  0  0  0
  -31.7248  -22.7048   25.3050 C   0  0  0  0  0  0  0  0  0  0  0  0
  -22.3334   -8.7127   20.1946 C   0  0  0  0  0  0  0  0  0  0  0  0
  -23.0974   -8.7210   22.4866 C   0  0  0  0  0  0  0  0  0  0  0  0
  -30.4628  -22.1845   25.5884 C   0  0  0  0  0  0  0  0  0  0  0  0
  -19.8714   -7.9190   23.0952 C   0  0  0  0  0  0  0  0  0  0  0  0
  -19.1167   -7.8782   24.2675 C   0  0  0  0  0  0  0  0  0  0  0  0
  -29.9706  -22.1086   23.2281 C   0  0  0  0  0  0  0  0  0  0  0  0
  -20.3620   -5.9425   25.0019 C   0  0  0  0  0  0  0  0  0  0  0  0
  -29.2868  -18.9393   22.4055 C   0  0  0  0  0  0  0  0  0  0  0  0
  -23.8283  -10.4480   20.9634 C   0  0  0  0  0  0  0  0  0  0  0  0
  -24.1665  -12.9736   20.8423 C   0  0  0  0  0  0  0  0  0  0  0  0
  -35.1651  -29.5971   23.4447 C   0  0  0  0  0  0  0  0  0  0  0  0
  -32.1158  -22.9415   23.9792 C   0  0  0  0  0  0  0  0  0  0  0  0
  -34.1501  -28.6829   23.7856 C   0  0  0  0  0  0  0  0  0  0  0  0
  -31.2391  -22.6295   22.9303 C   0  0  0  0  0  0  0  0  0  0  0  0
  -22.3444   -8.1398   21.4664 C   0  0  0  0  0  0  0  0  0  0  0  0
  -29.5844  -21.8890   24.5501 C   0  0  0  0  0  0  0  0  0  0  0  0
  -20.8714   -6.9715   22.8762 C   0  0  0  0  0  0  0  0  0  0  0  0
  -19.3620   -6.8900   25.2209 C   0  0  0  0  0  0  0  0  0  0  0  0
  -21.1167   -5.9833   23.8296 C   0  0  0  0  0  0  0  0  0  0  0  0
  -24.5953  -11.6398   20.7041 C   0  0  0  0  0  0  0  0  0  0  0  0
  -28.6491  -19.3099   23.6045 C   0  0  0  0  0  0  0  0  0  0  0  0
  -29.9537  -17.7793   22.7156 C   0  0  0  0  0  0  0  0  0  0  0  0
  -25.2570  -13.7244   20.4770 C   0  0  0  0  0  0  0  0  0  0  0  0
  -22.8961  -13.4877   21.2635 C   0  0  0  0  0  0  0  0  0  0  0  0
  -32.9438  -25.5171   22.3106 C   0  0  0  0  0  0  0  0  0  0  0  0
  -33.5988  -23.3328   20.0036 C   0  0  0  0  0  0  0  0  0  0  0  0
  -33.0291  -20.2272   18.7087 C   0  0  0  0  0  0  0  0  0  0  0  0
  -30.7397  -14.7508   20.6551 C   0  0  0  0  0  0  0  0  0  0  0  0
  -35.4742  -29.9402   22.0089 C   0  0  0  0  0  0  0  0  0  0  0  0
  -33.4906  -23.4781   23.6888 C   0  0  0  0  0  0  0  0  0  0  0  0
  -31.6182  -22.8462   21.4889 C   0  0  0  0  0  0  0  0  0  0  0  0
  -34.9284  -28.9242   21.0088 C   0  0  0  0  0  0  0  0  0  0  0  0
  -29.6009  -12.3644   18.2708 C   0  0  0  0  0  0  0  0  0  0  0  0
  -33.4807  -28.5749   21.3390 C   0  0  0  0  0  0  0  0  0  0  0  0
  -28.1646  -12.0689   18.7064 C   0  0  0  0  0  0  0  0  0  0  0  0
  -30.5199  -12.5867   19.4700 C   0  0  0  0  0  0  0  0  0  0  0  0
  -28.6198  -13.3154   20.8600 C   0  0  0  0  0  0  0  0  0  0  0  0
  -33.3710  -27.9327   22.7272 C   0  0  1  0  0  0  0  0  0  0  0  0
  -33.5904  -24.1609   22.3282 C   0  0  1  0  0  0  0  0  0  0  0  0
  -27.6437  -13.1394   19.6841 C   0  0  2  0  0  0  0  0  0  0  0  0
  -26.3749  -20.1299   24.3108 C   0  0  0  0  0  0  0  0  0  0  0  0
  -33.6817  -18.7407   16.7950 C   0  0  0  0  0  0  0  0  0  0  0  0
  -29.0145  -15.5372   25.3110 C   0  0  0  0  0  0  0  0  0  0  0  0
  -31.0507  -16.8847   25.9777 C   0  0  0  0  0  0  0  0  0  0  0  0
  -31.8027  -24.9482   18.1395 C   0  0  0  0  0  0  0  0  0  0  0  0
  -31.7284  -22.9682   16.6090 C   0  0  0  0  0  0  0  0  0  0  0  0
  -33.9030  -24.0945   17.0838 C   0  0  0  0  0  0  0  0  0  0  0  0
  -34.1560  -18.1836   20.5288 C   0  0  0  0  0  0  0  0  0  0  0  0
  -30.8049  -16.9017   21.8916 C   0  0  0  0  0  0  0  0  0  0  0  0
  -27.7731  -20.5177   23.8467 C   0  0  1  0  0  0  0  0  0  1  0  0
  -32.8143  -22.6924   18.8840 C   0  0  1  0  0  0  0  0  0  0  0  0
  -33.9804  -19.1452   18.2303 C   0  0  2  0  0  0  0  0  0  0  0  0
  -30.1610  -16.4241   24.8215 C   0  0  0  0  0  0  0  0  0  0  0  0
  -32.5539  -23.6735   17.7062 C   0  0  0  0  0  0  0  0  0  0  0  0
  -25.8595  -11.5456   20.2835 N   0  0  0  0  0  0  0  0  0  0  0  0
  -28.8891  -18.4545   24.6019 N   0  0  0  0  0  0  0  0  0  0  0  0
  -29.6850  -17.5349   24.0302 N   0  0  0  0  0  0  0  0  0  0  0  0
  -26.2344  -12.8297   20.1543 N   0  0  0  0  0  0  0  0  0  0  0  0
  -32.9710  -23.3787   21.2565 N   0  0  0  0  0  0  0  0  0  0  0  0
  -29.9696  -13.6146   20.3568 N   0  0  0  0  0  0  0  0  0  0  0  0
  -25.4655  -15.0562   20.4034 N   0  0  0  0  0  0  0  0  0  0  0  0
  -21.8860  -12.5773   21.6028 N   0  0  0  0  0  0  0  0  0  0  0  0
  -33.7880  -26.5477   22.6777 N   0  0  0  0  0  0  0  0  0  0  0  0
  -33.5480  -21.4888   18.5081 N   0  0  0  0  0  0  0  0  0  0  0  0
  -30.1408  -15.6790   21.4981 N   0  0  0  0  0  0  0  0  0  0  0  0
  -33.8652  -17.9357   19.0932 N   0  3  0  0  0  0  0  0  0  0  0  0
  -22.6583  -14.7181   21.3211 O   0  0  0  0  0  0  0  0  0  0  0  0
  -31.7666  -25.6211   21.9865 O   0  0  0  0  0  0  0  0  0  0  0  0
  -34.7298  -23.7697   19.7767 O   0  0  0  0  0  0  0  0  0  0  0  0
  -31.9334  -19.9781   19.2068 O   0  0  0  0  0  0  0  0  0  0  0  0
  -31.8746  -14.9278   20.1994 O   0  0  0  0  0  0  0  0  0  0  0  0
  -21.6204   -7.0137   21.7122 O   0  0  0  0  0  0  0  0  0  0  0  0
  -28.3517  -21.3817   24.8240 O   0  0  0  0  0  0  0  0  0  1  0  0
  -18.6381   -6.8519   26.3473 F   0  0  0  0  0  0  0  0  0  0  0  0
  -22.0769   -5.0710   23.6254 F   0  0  0  0  0  0  0  0  0  0  0  0
  1  2  1  0  0  0  0
  1  5  2  0  0  0  0
  2  6  2  0  0  0  0
  3  8  2  0  0  0  0
  3 16  1  0  0  0  0
  4  9  1  0  0  0  0
  4 16  2  0  0  0  0
  5 18  1  0  0  0  0
  6 20  1  0  0  0  0
  7 10  2  0  0  0  0
  7 19  1  0  0  0  0
  8 22  1  0  0  0  0
  9 22  2  0  0  0  0
 10 23  1  0  0  0  0
 11 12  2  0  0  0  0
 11 24  1  0  0  0  0
 12 25  1  0  0  0  0
 13 21  1  0  0  0  0
 13 23  2  0  0  0  0
 14 25  2  0  0  0  0
 14 26  1  0  0  0  0
 15 28  1  0  0  0  0
 15 29  2  0  0  0  0
 16 27  1  0  0  0  0
 17 27  1  0  0  0  0
 17 30  2  0  0  0  0
 17 31  1  0  0  0  0
 18 20  2  0  0  0  0
 18 36  1  0  0  0  0
 19 21  2  0  0  0  0
 19 37  1  0  0  0  0
 20 45  1  0  0  0  0
 21 38  1  0  0  0  0
 22 79  1  0  0  0  0
 23 80  1  0  0  0  0
 24 26  2  0  0  0  0
 24 79  1  0  0  0  0
 25 81  1  0  0  0  0
 26 82  1  0  0  0  0
 27 62  2  0  0  0  0
 28 57  1  0  0  0  0
 28 63  2  0  0  0  0
 29 56  1  0  0  0  0
 29 64  1  0  0  0  0
 30 65  1  0  0  0  0
 30 68  1  0  0  0  0
 31 69  1  0  0  0  0
 31 74  2  0  0  0  0
 32 46  1  0  0  0  0
 32 70  1  0  0  0  0
 32 75  2  0  0  0  0
 33 58  1  0  0  0  0
 33 66  1  0  0  0  0
 33 76  2  0  0  0  0
 34 59  1  0  0  0  0
 34 71  1  0  0  0  0
 34 77  2  0  0  0  0
 35 67  1  0  0  0  0
 35 72  1  0  0  0  0
 35 78  2  0  0  0  0
 36 39  1  0  0  0  0
 37 46  1  0  0  0  0
 38 66  1  0  0  0  0
 39 41  1  0  0  0  0
 40 42  1  0  0  0  0
 40 43  1  0  0  0  0
 41 45  1  0  0  0  0
 42 47  1  0  0  0  0
 43 67  1  0  0  0  0
 44 47  1  0  0  0  0
 44 67  1  0  0  0  0
 45 70  1  0  0  0  0
 46 66  1  0  0  0  0
 47 65  1  0  0  0  0
 48 57  1  0  0  0  0
 49 59  1  0  0  0  0
 50 60  1  0  0  0  0
 51 60  1  0  0  0  0
 52 61  1  0  0  0  0
 53 61  1  0  0  0  0
 54 61  1  0  0  0  0
 55 73  1  0  0  0  0
 56 72  1  0  0  0  0
 57 80  1  0  0  0  0
 58 61  1  0  0  0  0
 58 71  1  0  0  0  0
 59 73  1  0  0  0  0
 60 64  1  0  0  0  0
 62 65  1  0  0  0  0
 63 64  1  0  0  0  0
M  CHG  1  73   1
M  ISO  4  35 100  57 101  72 100  80 101
M  END
> <Batch ID>
0120

> <Smiles>
CNC(C)C(=O)NC(C(=O)N1Cc2cc([101O:1][101CH:1](C)c3cc(C[100NH:0][100C:0](=O)N4CCCC(n5nc(-c6ccc(Oc7ccc(F)cc7F)cc6)c(C(N)=O)c5N)C4)n(C(C)C)n3)ccc2CC1C(=O)NC1CCCc2ccccc21)C(C)(C)C

> <Shape>
0.179

> <Color>
0.192

> <Negative vol penalty>
0.000

$$$$

  -OEChem-04052320233D

 87 95  0     1  0  0  0  0  0999 V2000
  -20.0410  -24.7449   24.2832 C   0  0  0  0  0  0  0  0  0  0  0  0
  -21.3120  -25.0897   23.8348 C   0  0  0  0  0  0  0  0  0  0  0  0
  -22.7802  -11.2741   19.8980 C   0  0  0  0  0  0  0  0  0  0  0  0
  -22.7418  -13.2180   18.4638 C   0  0  0  0  0  0  0  0  0  0  0  0
  -18.9474  -25.5468   23.9591 C   0  0  0  0  0  0  0  0  0  0  0  0
  -21.4900  -26.2361   23.0611 C   0  0  0  0  0  0  0  0  0  0  0  0
  -25.4818  -28.9783   24.5411 C   0  0  0  0  0  0  0  0  0  0  0  0
  -29.1381  -18.3309   19.5085 C   0  0  0  0  0  0  0  0  0  0  0  0
  -21.4889  -11.5705   20.3343 C   0  0  0  0  0  0  0  0  0  0  0  0
  -21.4505  -13.5144   18.9001 C   0  0  0  0  0  0  0  0  0  0  0  0
  -26.7428  -28.5286   24.1519 C   0  0  0  0  0  0  0  0  0  0  0  0
  -28.9186  -19.4642   20.2914 C   0  0  0  0  0  0  0  0  0  0  0  0
  -20.0232  -13.7018   22.5100 C   0  0  0  0  0  0  0  0  0  0  0  0
  -19.7682  -13.6218   23.8790 C   0  0  0  0  0  0  0  0  0  0  0  0
  -26.7614  -30.1472   22.3633 C   0  0  0  0  0  0  0  0  0  0  0  0
  -31.1475  -20.2463   19.7841 C   0  0  0  0  0  0  0  0  0  0  0  0
  -18.0850  -11.9383   23.4671 C   0  0  0  0  0  0  0  0  0  0  0  0
  -23.4067  -12.0979   18.9628 C   0  0  0  0  0  0  0  0  0  0  0  0
  -25.1043  -10.9899   17.4141 C   0  0  0  0  0  0  0  0  0  0  0  0
  -19.1135  -26.7088   23.1891 C   0  0  0  0  0  0  0  0  0  0  0  0
  -24.8454  -30.0102   23.8364 C   0  0  0  0  0  0  0  0  0  0  0  0
  -20.3974  -27.0535   22.7252 C   0  0  0  0  0  0  0  0  0  0  0  0
  -25.4934  -30.6100   22.7472 C   0  0  0  0  0  0  0  0  0  0  0  0
  -30.3623  -18.1552   18.8634 C   0  0  0  0  0  0  0  0  0  0  0  0
  -31.3670  -19.1129   19.0012 C   0  0  0  0  0  0  0  0  0  0  0  0
  -20.8241  -12.6906   19.8354 C   0  0  0  0  0  0  0  0  0  0  0  0
  -27.3815  -29.1111   23.0611 C   0  0  0  0  0  0  0  0  0  0  0  0
  -29.9233  -20.4219   20.4292 C   0  0  0  0  0  0  0  0  0  0  0  0
  -19.3091  -12.9000   21.6195 C   0  0  0  0  0  0  0  0  0  0  0  0
  -18.7991  -12.7400   24.3576 C   0  0  0  0  0  0  0  0  0  0  0  0
  -18.3400  -12.0183   22.0981 C   0  0  0  0  0  0  0  0  0  0  0  0
  -24.7407  -11.7925   18.5121 C   0  0  0  0  0  0  0  0  0  0  0  0
  -26.4775  -11.0151   17.4102 C   0  0  0  0  0  0  0  0  0  0  0  0
  -24.2748  -10.2847   16.4812 C   0  0  0  0  0  0  0  0  0  0  0  0
  -22.1517  -30.2572   22.1670 C   0  0  0  0  0  0  0  0  0  0  0  0
  -22.9647  -33.3956   22.0588 C   0  0  0  0  0  0  0  0  0  0  0  0
  -25.4201  -35.7598   22.2263 C   0  0  0  0  0  0  0  0  0  0  0  0
  -30.4897  -14.9368   19.5016 C   0  0  0  0  0  0  0  0  0  0  0  0
  -17.8944  -27.5184   22.8245 C   0  0  0  0  0  0  0  0  0  0  0  0
  -23.4967  -30.5020   24.2853 C   0  0  0  0  0  0  0  0  0  0  0  0
  -24.8618  -31.7347   21.9698 C   0  0  0  0  0  0  0  0  0  0  0  0
  -18.2236  -28.9193   22.3152 C   0  0  0  0  0  0  0  0  0  0  0  0
  -30.2224  -11.4892   20.3499 C   0  0  0  0  0  0  0  0  0  0  0  0
  -19.3480  -28.8626   21.2859 C   0  0  0  0  0  0  0  0  0  0  0  0
  -28.8200  -11.1036   19.8760 C   0  0  0  0  0  0  0  0  0  0  0  0
  -30.2588  -12.9104   20.9076 C   0  0  0  0  0  0  0  0  0  0  0  0
  -28.3222  -13.5592   19.5283 C   0  0  0  0  0  0  0  0  0  0  0  0
  -20.6345  -28.3027   21.9046 C   0  0  1  0  0  0  0  0  0  0  0  0
  -22.7206  -31.2107   23.1794 C   0  0  1  0  0  0  0  0  0  0  0  0
  -28.2472  -12.1544   18.9060 C   0  0  2  0  0  0  0  0  0  0  0  0
  -32.6859  -18.9456   18.3209 C   0  0  0  0  0  0  0  0  0  0  0  0
  -30.1700  -17.1371   16.5638 C   0  0  0  0  0  0  0  0  0  0  0  0
  -25.7835  -38.2375   22.0635 C   0  0  0  0  0  0  0  0  0  0  0  0
  -22.6830  -33.2351   19.0248 C   0  0  0  0  0  0  0  0  0  0  0  0
  -23.9487  -35.3892   18.8632 C   0  0  0  0  0  0  0  0  0  0  0  0
  -21.7556  -35.3192   20.0498 C   0  0  0  0  0  0  0  0  0  0  0  0
  -26.4522  -35.9076   24.9962 C   0  0  0  0  0  0  0  0  0  0  0  0
  -29.5490  -23.9250   21.2004 C   0  0  0  0  0  0  0  0  0  0  0  0
  -30.2416  -25.2263   20.8336 C   0  0  0  0  0  0  0  0  0  0  0  0
  -29.9441  -27.7045   20.9269 C   0  0  0  0  0  0  0  0  0  0  0  0
  -30.3967  -22.7193   20.8209 C   0  0  0  0  0  0  0  0  0  0  0  0
  -28.9360  -28.7760   21.2927 C   0  0  0  0  0  0  0  0  0  1  0  0
  -30.5738  -16.9338   18.0305 C   0  0  2  0  0  0  0  0  0  0  0  0
  -23.7816  -34.2568   21.1261 C   0  0  1  0  0  0  0  0  0  0  0  0
  -25.5098  -37.0663   22.9942 C   0  0  2  0  0  0  0  0  0  0  0  0
  -23.0536  -34.5276   19.7792 C   0  0  0  0  0  0  0  0  0  0  0  0
  -25.7977  -12.2911   19.1587 N   0  0  0  0  0  0  0  0  0  0  0  0
  -26.8390  -11.8004   18.4651 N   0  0  0  0  0  0  0  0  0  0  0  0
  -23.5396  -32.1761   22.4436 N   0  0  0  0  0  0  0  0  0  0  0  0
  -29.7032  -13.8581   19.9385 N   0  0  0  0  0  0  0  0  0  0  0  0
  -27.3990  -10.4419   16.6073 N   0  0  0  0  0  0  0  0  0  0  0  0
  -22.8835  -10.3661   16.6299 N   0  0  0  0  0  0  0  0  0  0  0  0
  -21.2941  -29.3147   22.7016 N   0  0  0  0  0  0  0  0  0  0  0  0
  -24.1205  -35.4621   21.8750 N   0  0  0  0  0  0  0  0  0  0  0  0
  -29.8893  -15.7838   18.5781 N   0  0  0  0  0  0  0  0  0  0  0  0
  -26.6057  -37.0007   24.0019 N   0  3  0  0  0  0  0  0  0  0  0  0
  -29.3528  -26.3671   21.1836 N   0  3  0  0  0  0  0  0  0  0  0  0
  -24.7534   -9.5894   15.5534 O   0  0  0  0  0  0  0  0  0  0  0  0
  -22.4663  -30.3693   20.9880 O   0  0  0  0  0  0  0  0  0  0  0  0
  -21.8603  -33.7936   22.4377 O   0  0  0  0  0  0  0  0  0  0  0  0
  -26.4050  -35.0740   21.9613 O   0  0  0  0  0  0  0  0  0  0  0  0
  -31.6435  -15.1277   19.9007 O   0  0  0  0  0  0  0  0  0  0  0  0
  -19.5640  -12.9800   20.2607 O   0  0  0  0  0  0  0  0  0  0  0  0
  -28.6121  -28.6736   22.6787 O   0  0  0  0  0  0  0  0  0  1  0  0
  -29.7080  -21.5355   21.1990 O   0  0  0  0  0  0  0  0  0  0  0  0
  -18.5554  -12.6622   25.6724 F   0  0  0  0  0  0  0  0  0  0  0  0
  -17.6516  -11.2446   21.2476 F   0  0  0  0  0  0  0  0  0  0  0  0
  1  2  1  0  0  0  0
  1  5  2  0  0  0  0
  2  6  2  0  0  0  0
  3  9  2  0  0  0  0
  3 18  1  0  0  0  0
  4 10  1  0  0  0  0
  4 18  2  0  0  0  0
  5 20  1  0  0  0  0
  6 22  1  0  0  0  0
  7 11  2  0  0  0  0
  7 21  1  0  0  0  0
  8 12  2  0  0  0  0
  8 24  1  0  0  0  0
  9 26  1  0  0  0  0
 10 26  2  0  0  0  0
 11 27  1  0  0  0  0
 12 28  1  0  0  0  0
 13 14  2  0  0  0  0
 13 29  1  0  0  0  0
 14 30  1  0  0  0  0
 15 23  1  0  0  0  0
 15 27  2  0  0  0  0
 16 25  1  0  0  0  0
 16 28  2  0  0  0  0
 17 30  2  0  0  0  0
 17 31  1  0  0  0  0
 18 32  1  0  0  0  0
 19 32  1  0  0  0  0
 19 33  2  0  0  0  0
 19 34  1  0  0  0  0
 20 22  2  0  0  0  0
 20 39  1  0  0  0  0
 21 23  2  0  0  0  0
 21 40  1  0  0  0  0
 22 48  1  0  0  0  0
 23 41  1  0  0  0  0
 24 25  2  0  0  0  0
 24 63  1  0  0  0  0
 25 51  1  0  0  0  0
 26 83  1  0  0  0  0
 27 84  1  0  0  0  0
 28 85  1  0  0  0  0
 29 31  2  0  0  0  0
 29 83  1  0  0  0  0
 30 86  1  0  0  0  0
 31 87  1  0  0  0  0
 32 67  2  0  0  0  0
 33 68  1  0  0  0  0
 33 71  1  0  0  0  0
 34 72  1  0  0  0  0
 34 78  2  0  0  0  0
 35 49  1  0  0  0  0
 35 73  1  0  0  0  0
 35 79  2  0  0  0  0
 36 64  1  0  0  0  0
 36 69  1  0  0  0  0
 36 80  2  0  0  0  0
 37 65  1  0  0  0  0
 37 74  1  0  0  0  0
 37 81  2  0  0  0  0
 38 70  1  0  0  0  0
 38 75  1  0  0  0  0
 38 82  2  0  0  0  0
 39 42  1  0  0  0  0
 40 49  1  0  0  0  0
 41 69  1  0  0  0  0
 42 44  1  0  0  0  0
 43 45  1  0  0  0  0
 43 46  1  0  0  0  0
 44 48  1  0  0  0  0
 45 50  1  0  0  0  0
 46 70  1  0  0  0  0
 47 50  1  0  0  0  0
 47 70  1  0  0  0  0
 48 73  1  0  0  0  0
 49 69  1  0  0  0  0
 50 68  1  0  0  0  0
 52 63  1  0  0  0  0
 53 65  1  0  0  0  0
 54 66  1  0  0  0  0
 55 66  1  0  0  0  0
 56 66  1  0  0  0  0
 57 76  1  0  0  0  0
 58 59  1  0  0  0  0
 58 61  1  0  0  0  0
 59 77  1  0  0  0  0
 60 62  1  0  0  0  0
 60 77  1  0  0  0  0
 61 85  1  0  0  0  0
 62 84  1  0  0  0  0
 63 75  1  0  0  0  0
 64 66  1  0  0  0  0
 64 74  1  0  0  0  0
 65 76  1  0  0  0  0
 67 68  1  0  0  0  0
M  CHG  2  76   1  77   1
M  ISO  4  38 100  62 101  75 100  84 101
M  END
> <Batch ID>
0120

> <Smiles>
CNC(C)C(=O)NC(C(=O)N1Cc2cc([101O:1][101CH2:1]CNCCCOc3ccc(C(C)[100NH:0][100C:0](=O)N4CCCC(n5nc(-c6ccc(Oc7ccc(F)cc7F)cc6)c(C(N)=O)c5N)C4)c(C)c3)ccc2CC1C(=O)NC1CCCc2ccccc21)C(C)(C)C

> <Shape>
0.248

> <Color>
0.117

> <Negative vol penalty>
0.000

$$$$

  -OEChem-04052320233D

 83 91  0     1  0  0  0  0  0999 V2000
  -30.8635  -32.0129   24.8918 C   0  0  0  0  0  0  0  0  0  0  0  0
  -30.9467  -31.2371   23.7400 C   0  0  0  0  0  0  0  0  0  0  0  0
  -22.8324  -10.4601   20.3495 C   0  0  0  0  0  0  0  0  0  0  0  0
  -24.4282   -9.5599   21.9244 C   0  0  0  0  0  0  0  0  0  0  0  0
  -29.9344  -31.6929   25.8809 C   0  0  0  0  0  0  0  0  0  0  0  0
  -30.1014  -30.1401   23.5771 C   0  0  0  0  0  0  0  0  0  0  0  0
  -27.6810  -28.1045   18.3326 C   0  0  0  0  0  0  0  0  0  0  0  0
  -29.1042  -17.5373   19.0997 C   0  0  0  0  0  0  0  0  0  0  0  0
  -22.1133   -9.2658   20.3955 C   0  0  0  0  0  0  0  0  0  0  0  0
  -23.7091   -8.3656   21.9704 C   0  0  0  0  0  0  0  0  0  0  0  0
  -28.0495  -27.0760   17.4665 C   0  0  0  0  0  0  0  0  0  0  0  0
  -20.9076   -7.2026   23.4604 C   0  0  0  0  0  0  0  0  0  0  0  0
  -20.6737   -6.6366   24.7136 C   0  0  0  0  0  0  0  0  0  0  0  0
  -28.9878  -18.7393   18.4104 C   0  0  0  0  0  0  0  0  0  0  0  0
  -26.4750  -25.6058   18.5523 C   0  0  0  0  0  0  0  0  0  0  0  0
  -21.8604   -4.6444   24.0354 C   0  0  0  0  0  0  0  0  0  0  0  0
  -29.6049  -18.7747   21.0681 C   0  0  0  0  0  0  0  0  0  0  0  0
  -23.9899  -10.6071   21.1140 C   0  0  0  0  0  0  0  0  0  0  0  0
  -24.5598  -12.9700   21.8885 C   0  0  0  0  0  0  0  0  0  0  0  0
  -29.0707  -30.5972   25.7256 C   0  0  0  0  0  0  0  0  0  0  0  0
  -26.7130  -27.8879   19.3238 C   0  0  0  0  0  0  0  0  0  0  0  0
  -29.1607  -29.8044   24.5656 C   0  0  0  0  0  0  0  0  0  0  0  0
  -26.0942  -26.6339   19.4281 C   0  0  0  0  0  0  0  0  0  0  0  0
  -29.4184  -17.5467   20.4541 C   0  0  0  0  0  0  0  0  0  0  0  0
  -22.5516   -8.2185   21.2059 C   0  0  0  0  0  0  0  0  0  0  0  0
  -27.4485  -25.8256   17.5781 C   0  0  0  0  0  0  0  0  0  0  0  0
  -21.6179   -6.4895   22.4946 C   0  0  0  0  0  0  0  0  0  0  0  0
  -21.1501   -5.3575   25.0011 C   0  0  0  0  0  0  0  0  0  0  0  0
  -22.0943   -5.2104   22.7821 C   0  0  0  0  0  0  0  0  0  0  0  0
  -24.7335  -11.8404   21.0665 C   0  0  0  0  0  0  0  0  0  0  0  0
  -29.1933  -19.9139   19.1159 C   0  0  0  0  0  0  0  0  0  0  0  0
  -25.5029  -13.8650   21.4458 C   0  0  0  0  0  0  0  0  0  0  0  0
  -23.6292  -13.1905   22.9567 C   0  0  0  0  0  0  0  0  0  0  0  0
  -26.6951  -27.9847   22.5009 C   0  0  0  0  0  0  0  0  0  0  0  0
  -23.5105  -27.5085   22.1091 C   0  0  0  0  0  0  0  0  0  0  0  0
  -20.9757  -26.3419   20.1442 C   0  0  0  0  0  0  0  0  0  0  0  0
  -30.9412  -14.5837   19.9542 C   0  0  0  0  0  0  0  0  0  0  0  0
  -28.1149  -30.2621   26.8432 C   0  0  0  0  0  0  0  0  0  0  0  0
  -26.3075  -29.0154   20.2330 C   0  0  0  0  0  0  0  0  0  0  0  0
  -25.0350  -26.3558   20.4620 C   0  0  0  0  0  0  0  0  0  0  0  0
  -27.0002  -29.3066   26.4254 C   0  0  0  0  0  0  0  0  0  0  0  0
  -28.4374  -13.8205   17.3370 C   0  0  0  0  0  0  0  0  0  0  0  0
  -27.5703  -28.1363   25.6304 C   0  0  0  0  0  0  0  0  0  0  0  0
  -27.2676  -13.2642   18.1472 C   0  0  0  0  0  0  0  0  0  0  0  0
  -29.7747  -13.5729   18.0283 C   0  0  0  0  0  0  0  0  0  0  0  0
  -28.6633  -13.5234   20.2366 C   0  0  0  0  0  0  0  0  0  0  0  0
  -28.2441  -28.6213   24.3411 C   0  0  1  0  0  0  0  0  0  0  0  0
  -25.6809  -28.5346   21.5383 C   0  0  1  0  0  0  0  0  0  0  0  0
  -27.2970  -13.7974   19.5902 C   0  0  2  0  0  0  0  0  0  0  0  0
  -18.4829  -26.0548   20.1089 C   0  0  0  0  0  0  0  0  0  0  0  0
  -23.7600  -25.1296   24.0034 C   0  0  0  0  0  0  0  0  0  0  0  0
  -21.5262  -24.3399   23.1942 C   0  0  0  0  0  0  0  0  0  0  0  0
  -21.7236  -26.5371   24.3589 C   0  0  0  0  0  0  0  0  0  0  0  0
  -31.9973  -16.1723   21.5165 C   0  0  0  0  0  0  0  0  0  0  0  0
  -20.6920  -28.0866   17.7705 C   0  0  0  0  0  0  0  0  0  0  0  0
  -29.5506  -16.2778   21.2188 C   0  0  0  0  0  0  0  0  0  0  0  0
  -28.7538  -22.6241   16.5315 C   0  0  0  0  0  0  0  0  0  0  0  0
  -28.7498  -21.1775   17.0106 C   0  0  0  0  0  0  0  0  0  0  0  0
  -27.7136  -23.4871   17.2360 C   0  0  0  0  0  0  0  0  0  1  0  0
  -22.6154  -26.2973   22.0053 C   0  0  1  0  0  0  0  0  0  0  0  0
  -19.6489  -26.9588   19.7400 C   0  0  2  0  0  0  0  0  0  0  0  0
  -22.4276  -25.5803   23.3721 C   0  0  0  0  0  0  0  0  0  0  0  0
  -29.5001  -19.9628   20.4317 N   0  0  0  0  0  0  0  0  0  0  0  0
  -25.7100  -12.0007   20.1694 N   0  0  0  0  0  0  0  0  0  0  0  0
  -26.1584  -13.2416   20.4251 N   0  0  0  0  0  0  0  0  0  0  0  0
  -24.6772  -27.4886   21.3318 N   0  0  0  0  0  0  0  0  0  0  0  0
  -29.7607  -14.0503   19.4115 N   0  0  0  0  0  0  0  0  0  0  0  0
  -25.8270  -15.1167   21.8339 N   0  0  0  0  0  0  0  0  0  0  0  0
  -22.7297  -12.1658   23.2813 N   0  0  0  0  0  0  0  0  0  0  0  0
  -29.0731  -21.1037   18.4150 N   0  0  0  0  0  0  0  0  0  0  0  0
  -27.2492  -28.9345   23.3378 N   0  0  0  0  0  0  0  0  0  0  0  0
  -21.3724  -26.7592   21.3971 N   0  0  0  0  0  0  0  0  0  0  0  0
  -30.8023  -15.5802   20.9322 N   0  0  0  0  0  0  0  0  0  0  0  0
  -19.6139  -27.1942   18.2688 N   0  3  0  0  0  0  0  0  0  0  0  0
  -23.5854  -14.2704   23.5933 O   0  0  0  0  0  0  0  0  0  0  0  0
  -26.9546  -26.7871   22.4866 O   0  0  0  0  0  0  0  0  0  0  0  0
  -23.1828  -28.4412   22.8469 O   0  0  0  0  0  0  0  0  0  0  0  0
  -21.5962  -25.5644   19.4224 O   0  0  0  0  0  0  0  0  0  0  0  0
  -32.0559  -14.1984   19.5788 O   0  0  0  0  0  0  0  0  0  0  0  0
  -21.8500   -7.0531   21.2512 O   0  0  0  0  0  0  0  0  0  0  0  0
  -27.8068  -24.8198   16.7344 O   0  0  0  0  0  0  0  0  0  1  0  0
  -20.9267   -4.8147   26.2051 F   0  0  0  0  0  0  0  0  0  0  0  0
  -22.7783   -4.5209   21.8588 F   0  0  0  0  0  0  0  0  0  0  0  0
  1  2  1  0  0  0  0
  1  5  2  0  0  0  0
  2  6  2  0  0  0  0
  3  9  2  0  0  0  0
  3 18  1  0  0  0  0
  4 10  1  0  0  0  0
  4 18  2  0  0  0  0
  5 20  1  0  0  0  0
  6 22  1  0  0  0  0
  7 11  2  0  0  0  0
  7 21  1  0  0  0  0
  8 14  2  0  0  0  0
  8 24  1  0  0  0  0
  9 25  1  0  0  0  0
 10 25  2  0  0  0  0
 11 26  1  0  0  0  0
 12 13  2  0  0  0  0
 12 27  1  0  0  0  0
 13 28  1  0  0  0  0
 14 31  1  0  0  0  0
 15 23  1  0  0  0  0
 15 26  2  0  0  0  0
 16 28  2  0  0  0  0
 16 29  1  0  0  0  0
 17 24  2  0  0  0  0
 17 63  1  0  0  0  0
 18 30  1  0  0  0  0
 19 30  1  0  0  0  0
 19 32  2  0  0  0  0
 19 33  1  0  0  0  0
 20 22  2  0  0  0  0
 20 38  1  0  0  0  0
 21 23  2  0  0  0  0
 21 39  1  0  0  0  0
 22 47  1  0  0  0  0
 23 40  1  0  0  0  0
 24 56  1  0  0  0  0
 25 80  1  0  0  0  0
 26 81  1  0  0  0  0
 27 29  2  0  0  0  0
 27 80  1  0  0  0  0
 28 82  1  0  0  0  0
 29 83  1  0  0  0  0
 30 64  2  0  0  0  0
 31 63  2  0  0  0  0
 31 70  1  0  0  0  0
 32 65  1  0  0  0  0
 32 68  1  0  0  0  0
 33 69  1  0  0  0  0
 33 75  2  0  0  0  0
 34 48  1  0  0  0  0
 34 71  1  0  0  0  0
 34 76  2  0  0  0  0
 35 60  1  0  0  0  0
 35 66  1  0  0  0  0
 35 77  2  0  0  0  0
 36 61  1  0  0  0  0
 36 72  1  0  0  0  0
 36 78  2  0  0  0  0
 37 67  1  0  0  0  0
 37 73  1  0  0  0  0
 37 79  2  0  0  0  0
 38 41  1  0  0  0  0
 39 48  1  0  0  0  0
 40 66  1  0  0  0  0
 41 43  1  0  0  0  0
 42 44  1  0  0  0  0
 42 45  1  0  0  0  0
 43 47  1  0  0  0  0
 44 49  1  0  0  0  0
 45 67  1  0  0  0  0
 46 49  1  0  0  0  0
 46 67  1  0  0  0  0
 47 71  1  0  0  0  0
 48 66  1  0  0  0  0
 49 65  1  0  0  0  0
 50 61  1  0  0  0  0
 51 62  1  0  0  0  0
 52 62  1  0  0  0  0
 53 62  1  0  0  0  0
 54 73  1  0  0  0  0
 55 74  1  0  0  0  0
 56 73  1  0  0  0  0
 57 58  1  0  0  0  0
 57 59  1  0  0  0  0
 58 70  1  0  0  0  0
 59 81  1  0  0  0  0
 60 62  1  0  0  0  0
 60 72  1  0  0  0  0
 61 74  1  0  0  0  0
 64 65  1  0  0  0  0
M  CHG  1  74   1
M  ISO  4  37 100  59 101  73 100  81 101
M  END
> <Batch ID>
0120

> <Smiles>
CNC(C)C(=O)NC(C(=O)N1Cc2cc([101O:1][101CH2:1]CCNc3ccc(C[100N:0](C)[100C:0](=O)N4CCCC(n5nc(-c6ccc(Oc7ccc(F)cc7F)cc6)c(C(N)=O)c5N)C4)cn3)ccc2CC1C(=O)NC1CCCc2ccccc21)C(C)(C)C

> <Shape>
0.281

> <Color>
0.145

> <Negative vol penalty>
0.000

$$$$

  -OEChem-04052320233D

 85 94  0     1  0  0  0  0  0999 V2000
  -19.0947  -23.9435   23.4923 C   0  0  0  0  0  0  0  0  0  0  0  0
  -20.4387  -24.0651   23.1543 C   0  0  0  0  0  0  0  0  0  0  0  0
  -24.2451  -13.8104   21.8194 C   0  0  0  0  0  0  0  0  0  0  0  0
  -26.0892  -14.1456   20.2950 C   0  0  0  0  0  0  0  0  0  0  0  0
  -18.2496  -25.0481   23.3940 C   0  0  0  0  0  0  0  0  0  0  0  0
  -20.9382  -25.2913   22.7168 C   0  0  0  0  0  0  0  0  0  0  0  0
  -25.3608  -26.4718   24.8830 C   0  0  0  0  0  0  0  0  0  0  0  0
  -24.1961  -12.4625   21.4638 C   0  0  0  0  0  0  0  0  0  0  0  0
  -26.0403  -12.7977   19.9394 C   0  0  0  0  0  0  0  0  0  0  0  0
  -26.5007  -25.8393   24.3888 C   0  0  0  0  0  0  0  0  0  0  0  0
  -25.8971   -9.6317   22.1890 C   0  0  0  0  0  0  0  0  0  0  0  0
  -25.7733   -8.6947   23.2148 C   0  0  0  0  0  0  0  0  0  0  0  0
  -27.0279  -27.8093   23.1002 C   0  0  0  0  0  0  0  0  0  0  0  0
  -27.8352  -22.5984   17.6616 C   0  0  0  0  0  0  0  0  0  0  0  0
  -23.6985   -7.9156   22.2527 C   0  0  0  0  0  0  0  0  0  0  0  0
  -26.2414  -24.3100   17.2432 C   0  0  0  0  0  0  0  0  0  0  0  0
  -25.1916  -14.6520   21.2350 C   0  0  0  0  0  0  0  0  0  0  0  0
  -25.9959  -16.6233   22.6401 C   0  0  0  0  0  0  0  0  0  0  0  0
  -18.7411  -26.2908   22.9643 C   0  0  0  0  0  0  0  0  0  0  0  0
  -25.0394  -27.7761   24.4803 C   0  0  0  0  0  0  0  0  0  0  0  0
  -20.0986  -26.4132   22.6114 C   0  0  0  0  0  0  0  0  0  0  0  0
  -25.8847  -28.4571   23.5927 C   0  0  0  0  0  0  0  0  0  0  0  0
  -26.5942  -22.9738   17.1620 C   0  0  0  0  0  0  0  0  0  0  0  0
  -28.6724  -23.5614   18.2167 C   0  0  0  0  0  0  0  0  0  0  0  0
  -25.0937  -11.9562   20.5239 C   0  0  0  0  0  0  0  0  0  0  0  0
  -27.3329  -26.5069   23.4951 C   0  0  0  0  0  0  0  0  0  0  0  0
  -24.9216   -9.7107   21.1950 C   0  0  0  0  0  0  0  0  0  0  0  0
  -24.6740   -7.8366   23.2467 C   0  0  0  0  0  0  0  0  0  0  0  0
  -23.8224   -8.8526   21.2269 C   0  0  0  0  0  0  0  0  0  0  0  0
  -25.2422  -16.0445   21.6015 C   0  0  0  0  0  0  0  0  0  0  0  0
  -28.2240  -24.8736   18.2733 C   0  0  0  0  0  0  0  0  0  0  0  0
  -25.6991  -17.9628   22.5744 C   0  0  0  0  0  0  0  0  0  0  0  0
  -26.8848  -16.0055   23.5802 C   0  0  0  0  0  0  0  0  0  0  0  0
  -22.6031  -29.1106   22.9353 C   0  0  0  0  0  0  0  0  0  0  0  0
  -24.1496  -31.8646   23.6742 C   0  0  0  0  0  0  0  0  0  0  0  0
  -27.0827  -33.4157   24.4728 C   0  0  0  0  0  0  0  0  0  0  0  0
  -23.8083  -21.5070   18.1343 C   0  0  0  0  0  0  0  0  0  0  0  0
  -17.7791  -27.4445   22.8289 C   0  0  0  0  0  0  0  0  0  0  0  0
  -23.8205  -28.4542   25.0432 C   0  0  0  0  0  0  0  0  0  0  0  0
  -25.5951  -29.8657   23.1449 C   0  0  0  0  0  0  0  0  0  0  0  0
  -18.4681  -28.8019   22.7145 C   0  0  0  0  0  0  0  0  0  0  0  0
  -22.2103  -20.9654   21.2695 C   0  0  0  0  0  0  0  0  0  0  0  0
  -19.6134  -28.7362   21.7091 C   0  0  0  0  0  0  0  0  0  0  0  0
  -22.8741  -19.6951   21.8038 C   0  0  0  0  0  0  0  0  0  0  0  0
  -22.0304  -20.9135   19.7539 C   0  0  0  0  0  0  0  0  0  0  0  0
  -23.9244  -19.3529   19.5282 C   0  0  0  0  0  0  0  0  0  0  0  0
  -20.6833  -27.7328   22.1563 C   0  0  1  0  0  0  0  0  0  0  0  0
  -23.3137  -29.5957   24.1671 C   0  0  1  0  0  0  0  0  0  0  0  0
  -24.1778  -19.3821   21.0452 C   0  0  2  0  0  0  0  0  0  0  0  0
  -30.7825  -24.2328   18.9691 C   0  0  2  0  0  0  0  0  0  0  0  0
  -30.0568  -25.4032   19.6411 C   0  0  2  0  0  0  0  0  0  0  0  0
  -31.5176  -24.6394   17.6901 C   0  0  0  0  0  0  0  0  0  0  0  0
  -28.0393  -35.6793   24.9812 C   0  0  0  0  0  0  0  0  0  0  0  0
  -24.0444  -32.5726   20.7081 C   0  0  0  0  0  0  0  0  0  0  0  0
  -25.7971  -34.3094   21.1318 C   0  0  0  0  0  0  0  0  0  0  0  0
  -23.5758  -34.4821   22.2536 C   0  0  0  0  0  0  0  0  0  0  0  0
  -27.9297  -32.5775   27.1819 C   0  0  0  0  0  0  0  0  0  0  0  0
  -25.6731  -21.9712   16.5639 C   0  0  0  0  0  0  0  0  0  0  0  0
  -29.5509  -25.0706   21.0465 C   0  0  0  0  0  0  0  0  0  0  0  0
  -28.8783  -26.2663   21.7035 C   0  0  0  0  0  0  0  0  0  1  0  0
  -25.2105  -32.7069   23.0077 C   0  0  1  0  0  0  0  0  0  0  0  0
  -27.4304  -34.4130   25.5632 C   0  0  2  0  0  0  0  0  0  0  0  0
  -24.6616  -33.4905   21.7821 C   0  0  0  0  0  0  0  0  0  0  0  0
  -27.0257  -25.2685   17.7854 N   0  0  0  0  0  0  0  0  0  0  0  0
  -24.5208  -16.9427   20.9255 N   0  0  0  0  0  0  0  0  0  0  0  0
  -24.8198  -18.0995   21.5408 N   0  0  0  0  0  0  0  0  0  0  0  0
  -24.3882  -30.4837   23.7183 N   0  0  0  0  0  0  0  0  0  0  0  0
  -23.3037  -20.6144   19.0943 N   0  0  0  0  0  0  0  0  0  0  0  0
  -26.1072  -19.0252   23.3005 N   0  0  0  0  0  0  0  0  0  0  0  0
  -27.0757  -14.6189   23.5074 N   0  0  0  0  0  0  0  0  0  0  0  0
  -21.5104  -28.3059   23.1964 N   0  0  0  0  0  0  0  0  0  0  0  0
  -25.7765  -33.5527   24.0530 N   0  0  0  0  0  0  0  0  0  0  0  0
  -25.0237  -21.1514   17.5623 N   0  0  0  0  0  0  0  0  0  0  0  0
  -28.4077  -33.8173   26.5176 N   0  3  0  0  0  0  0  0  0  0  0  0
  -27.4791  -16.6612   24.4693 O   0  0  0  0  0  0  0  0  0  0  0  0
  -23.0146  -29.4430   21.8300 O   0  0  0  0  0  0  0  0  0  0  0  0
  -23.1497  -32.4125   24.1448 O   0  0  0  0  0  0  0  0  0  0  0  0
  -27.8903  -32.5994   24.0346 O   0  0  0  0  0  0  0  0  0  0  0  0
  -23.2220  -22.5468   17.8148 O   0  0  0  0  0  0  0  0  0  0  0  0
  -29.8875  -23.1514   18.6827 O   0  0  0  0  0  0  0  0  0  0  0  0
  -28.9709  -25.8781   18.8361 O   0  0  0  0  0  0  0  0  0  0  0  0
  -25.0464  -10.6409   20.1768 O   0  0  0  0  0  0  0  0  0  0  0  0
  -28.4459  -25.8916   23.0108 O   0  0  0  0  0  0  0  0  0  1  0  0
  -24.5560   -6.9359   24.2310 F   0  0  0  0  0  0  0  0  0  0  0  0
  -22.8826   -8.9230   20.2742 F   0  0  0  0  0  0  0  0  0  0  0  0
  1  2  1  0  0  0  0
  1  5  2  0  0  0  0
  2  6  2  0  0  0  0
  3  8  2  0  0  0  0
  3 17  1  0  0  0  0
  4  9  1  0  0  0  0
  4 17  2  0  0  0  0
  5 19  1  0  0  0  0
  6 21  1  0  0  0  0
  7 10  2  0  0  0  0
  7 20  1  0  0  0  0
  8 25  1  0  0  0  0
  9 25  2  0  0  0  0
 10 26  1  0  0  0  0
 11 12  2  0  0  0  0
 11 27  1  0  0  0  0
 12 28  1  0  0  0  0
 13 22  1  0  0  0  0
 13 26  2  0  0  0  0
 14 23  2  0  0  0  0
 14 24  1  0  0  0  0
 15 28  2  0  0  0  0
 15 29  1  0  0  0  0
 16 23  1  0  0  0  0
 16 64  2  0  0  0  0
 17 30  1  0  0  0  0
 18 30  1  0  0  0  0
 18 32  2  0  0  0  0
 18 33  1  0  0  0  0
 19 21  2  0  0  0  0
 19 38  1  0  0  0  0
 20 22  2  0  0  0  0
 20 39  1  0  0  0  0
 21 47  1  0  0  0  0
 22 40  1  0  0  0  0
 23 58  1  0  0  0  0
 24 31  2  0  0  0  0
 24 80  1  0  0  0  0
 25 82  1  0  0  0  0
 26 83  1  0  0  0  0
 27 29  2  0  0  0  0
 27 82  1  0  0  0  0
 28 84  1  0  0  0  0
 29 85  1  0  0  0  0
 30 65  2  0  0  0  0
 31 64  1  0  0  0  0
 31 81  1  0  0  0  0
 32 66  1  0  0  0  0
 32 69  1  0  0  0  0
 33 70  1  0  0  0  0
 33 75  2  0  0  0  0
 34 48  1  0  0  0  0
 34 71  1  0  0  0  0
 34 76  2  0  0  0  0
 35 61  1  0  0  0  0
 35 67  1  0  0  0  0
 35 77  2  0  0  0  0
 36 62  1  0  0  0  0
 36 72  1  0  0  0  0
 36 78  2  0  0  0  0
 37 68  1  0  0  0  0
 37 73  1  0  0  0  0
 37 79  2  0  0  0  0
 38 41  1  0  0  0  0
 39 48  1  0  0  0  0
 40 67  1  0  0  0  0
 41 43  1  0  0  0  0
 42 44  1  0  0  0  0
 42 45  1  0  0  0  0
 43 47  1  0  0  0  0
 44 49  1  0  0  0  0
 45 68  1  0  0  0  0
 46 49  1  0  0  0  0
 46 68  1  0  0  0  0
 47 71  1  0  0  0  0
 48 67  1  0  0  0  0
 49 66  1  0  0  0  0
 50 51  1  0  0  0  0
 50 52  1  0  0  0  0
 50 80  1  0  0  0  0
 51 59  1  0  0  0  0
 51 81  1  0  0  0  0
 53 62  1  0  0  0  0
 54 63  1  0  0  0  0
 55 63  1  0  0  0  0
 56 63  1  0  0  0  0
 57 74  1  0  0  0  0
 58 73  1  0  0  0  0
 59 60  1  0  0  0  0
 60 83  1  0  0  0  0
 61 63  1  0  0  0  0
 61 72  1  0  0  0  0
 62 74  1  0  0  0  0
 65 66  1  0  0  0  0
M  CHG  1  74   1
M  ISO  4  37 100  60 101  73 100  83 101
M  END
> <Batch ID>
0120

> <Smiles>
CNC(C)C(=O)NC(C(=O)N1Cc2cc([101O:1][101CH2:1]CC3Oc4ncc(C[100NH:0][100C:0](=O)N5CCCC(n6nc(-c7ccc(Oc8ccc(F)cc8F)cc7)c(C(N)=O)c6N)C5)cc4OC3C)ccc2CC1C(=O)NC1CCCc2ccccc21)C(C)(C)C

> <Shape>
0.226

> <Color>
0.075

> <Negative vol penalty>
0.000

$$$$

  -OEChem-04052320233D

 85 93  0     1  0  0  0  0  0999 V2000
  -16.9268  -28.9651   20.0958 C   0  0  0  0  0  0  0  0  0  0  0  0
  -17.9816  -28.0689   20.2357 C   0  0  0  0  0  0  0  0  0  0  0  0
  -23.1155   -9.8179   21.4661 C   0  0  0  0  0  0  0  0  0  0  0  0
  -23.8263  -10.7474   23.5798 C   0  0  0  0  0  0  0  0  0  0  0  0
  -17.1055  -30.3075   20.4275 C   0  0  0  0  0  0  0  0  0  0  0  0
  -19.2162  -28.5148   20.7064 C   0  0  0  0  0  0  0  0  0  0  0  0
  -21.2014  -25.4190   24.1877 C   0  0  0  0  0  0  0  0  0  0  0  0
  -22.3842   -8.8410   22.1416 C   0  0  0  0  0  0  0  0  0  0  0  0
  -23.0949   -9.7704   24.2553 C   0  0  0  0  0  0  0  0  0  0  0  0
  -21.8067  -24.2498   23.7290 C   0  0  0  0  0  0  0  0  0  0  0  0
  -20.6198   -5.8834   23.3094 C   0  0  0  0  0  0  0  0  0  0  0  0
  -20.7187   -4.5680   22.8563 C   0  0  0  0  0  0  0  0  0  0  0  0
  -23.9718  -25.2893   23.9547 C   0  0  0  0  0  0  0  0  0  0  0  0
  -26.1293  -21.4654   21.2145 C   0  0  0  0  0  0  0  0  0  0  0  0
  -23.0979   -4.6025   23.2752 C   0  0  0  0  0  0  0  0  0  0  0  0
  -25.7143  -20.5377   23.2237 C   0  0  0  0  0  0  0  0  0  0  0  0
  -23.8366  -10.7711   22.1852 C   0  0  0  0  0  0  0  0  0  0  0  0
  -24.1424  -13.0504   21.0811 C   0  0  0  0  0  0  0  0  0  0  0  0
  -18.3400  -30.7682   20.9117 C   0  0  0  0  0  0  0  0  0  0  0  0
  -21.9773  -26.5377   24.5236 C   0  0  0  0  0  0  0  0  0  0  0  0
  -19.4119  -29.8649   21.0436 C   0  0  0  0  0  0  0  0  0  0  0  0
  -23.3740  -26.4706   24.4199 C   0  0  0  0  0  0  0  0  0  0  0  0
  -25.6665  -21.7255   22.5280 C   0  0  0  0  0  0  0  0  0  0  0  0
  -22.3738   -8.8172   23.5362 C   0  0  0  0  0  0  0  0  0  0  0  0
  -23.1919  -24.1858   23.6097 C   0  0  0  0  0  0  0  0  0  0  0  0
  -21.7600   -6.5585   23.7453 C   0  0  0  0  0  0  0  0  0  0  0  0
  -21.9578   -3.9275   22.8392 C   0  0  0  0  0  0  0  0  0  0  0  0
  -22.9990   -5.9181   23.7283 C   0  0  0  0  0  0  0  0  0  0  0  0
  -24.5928  -11.7802   21.4880 C   0  0  0  0  0  0  0  0  0  0  0  0
  -26.4457  -20.1265   21.1474 C   0  0  0  0  0  0  0  0  0  0  0  0
  -25.2305  -13.6196   20.4659 C   0  0  0  0  0  0  0  0  0  0  0  0
  -22.8556  -13.6611   21.2447 C   0  0  0  0  0  0  0  0  0  0  0  0
  -22.1985  -29.5197   23.4455 C   0  0  0  0  0  0  0  0  0  0  0  0
  -24.2114  -29.8676   25.9653 C   0  0  0  0  0  0  0  0  0  0  0  0
  -26.3310  -28.4036   28.2038 C   0  0  0  0  0  0  0  0  0  0  0  0
  -30.6929  -14.7527   20.3100 C   0  0  0  0  0  0  0  0  0  0  0  0
  -18.4992  -32.2375   21.2124 C   0  0  0  0  0  0  0  0  0  0  0  0
  -21.3108  -27.7823   25.0422 C   0  0  0  0  0  0  0  0  0  0  0  0
  -24.2534  -27.6371   24.7869 C   0  0  0  0  0  0  0  0  0  0  0  0
  -19.7288  -32.5562   22.0591 C   0  0  0  0  0  0  0  0  0  0  0  0
  -29.6427  -11.5944   19.0455 C   0  0  0  0  0  0  0  0  0  0  0  0
  -20.9535  -31.8255   21.5179 C   0  0  0  0  0  0  0  0  0  0  0  0
  -28.2010  -11.4635   19.5398 C   0  0  0  0  0  0  0  0  0  0  0  0
  -30.5306  -12.2922   20.0735 C   0  0  0  0  0  0  0  0  0  0  0  0
  -28.5889  -13.4688   21.0322 C   0  0  0  0  0  0  0  0  0  0  0  0
  -20.7588  -30.3055   21.5744 C   0  0  1  0  0  0  0  0  0  0  0  0
  -22.1645  -29.0345   24.8671 C   0  0  1  0  0  0  0  0  0  0  0  0
  -27.6428  -12.8214   20.0065 C   0  0  2  0  0  0  0  0  0  0  0  0
  -27.8588  -28.9505   30.1180 C   0  0  0  0  0  0  0  0  0  0  0  0
  -25.0675  -17.5002   23.1067 C   0  0  0  0  0  0  0  0  0  0  0  0
  -27.4342  -18.0227   23.8362 C   0  0  0  0  0  0  0  0  0  0  0  0
  -26.2836  -30.9432   24.0009 C   0  0  0  0  0  0  0  0  0  0  0  0
  -28.0340  -30.5722   25.7521 C   0  0  0  0  0  0  0  0  0  0  0  0
  -26.1693  -32.1743   26.1748 C   0  0  0  0  0  0  0  0  0  0  0  0
  -24.7720  -26.7265   30.0787 C   0  0  0  0  0  0  0  0  0  0  0  0
  -25.2089  -23.0502   23.0639 C   0  0  0  0  0  0  0  0  0  1  0  0
  -26.9700  -19.3317   20.0176 C   0  0  0  0  0  0  0  0  0  0  0  0
  -30.4211  -17.8892   19.2560 C   0  0  0  0  0  0  0  0  0  0  0  0
  -30.6996  -17.2179   20.5965 C   0  0  0  0  0  0  0  0  0  0  0  0
  -28.9353  -18.1435   19.0355 C   0  0  0  0  0  0  0  0  0  0  0  0
  -25.6951  -29.6909   26.1807 C   0  0  1  0  0  0  0  0  0  0  0  0
  -26.4531  -28.5369   29.7110 C   0  0  2  0  0  0  0  0  0  0  0  0
  -26.3841  -18.1855   22.7356 C   0  0  0  0  0  0  0  0  0  0  0  0
  -26.5291  -30.8237   25.5183 C   0  0  0  0  0  0  0  0  0  0  0  0
  -25.8676  -11.5552   21.1588 N   0  0  0  0  0  0  0  0  0  0  0  0
  -26.1891  -19.5725   22.3744 N   0  0  0  0  0  0  0  0  0  0  0  0
  -26.2275  -12.6918   20.5385 N   0  0  0  0  0  0  0  0  0  0  0  0
  -23.5541  -28.8339   25.2831 N   0  0  0  0  0  0  0  0  0  0  0  0
  -29.9458  -13.5744   20.4730 N   0  0  0  0  0  0  0  0  0  0  0  0
  -25.4221  -14.8182   19.8752 N   0  0  0  0  0  0  0  0  0  0  0  0
  -21.8507  -12.9367   21.9003 N   0  0  0  0  0  0  0  0  0  0  0  0
  -20.9548  -29.8207   22.9239 N   0  0  0  0  0  0  0  0  0  0  0  0
  -25.8870  -29.5723   27.6220 N   0  0  0  0  0  0  0  0  0  0  0  0
  -30.0619  -15.9250   20.7080 N   0  0  0  0  0  0  0  0  0  0  0  0
  -26.1344  -27.2403   30.3731 N   0  3  0  0  0  0  0  0  0  0  0  0
  -28.4197  -18.9895   20.1402 N   0  3  0  0  0  0  0  0  0  0  0  0
  -22.5995  -14.8086   20.8076 O   0  0  0  0  0  0  0  0  0  0  0  0
  -23.2736  -29.6153   22.8652 O   0  0  0  0  0  0  0  0  0  0  0  0
  -23.6548  -30.8819   26.3930 O   0  0  0  0  0  0  0  0  0  0  0  0
  -26.6059  -27.3677   27.6022 O   0  0  0  0  0  0  0  0  0  0  0  0
  -31.8354  -14.7601   19.8394 O   0  0  0  0  0  0  0  0  0  0  0  0
  -21.6600   -7.8642   24.1956 O   0  0  0  0  0  0  0  0  0  0  0  0
  -23.7852  -23.0461   23.1616 O   0  0  0  0  0  0  0  0  0  1  0  0
  -22.0523   -2.6637   22.4055 F   0  0  0  0  0  0  0  0  0  0  0  0
  -24.0977   -6.5611   24.1469 F   0  0  0  0  0  0  0  0  0  0  0  0
  1  2  1  0  0  0  0
  1  5  2  0  0  0  0
  2  6  2  0  0  0  0
  3  8  2  0  0  0  0
  3 17  1  0  0  0  0
  4  9  1  0  0  0  0
  4 17  2  0  0  0  0
  5 19  1  0  0  0  0
  6 21  1  0  0  0  0
  7 10  2  0  0  0  0
  7 20  1  0  0  0  0
  8 24  1  0  0  0  0
  9 24  2  0  0  0  0
 10 25  1  0  0  0  0
 11 12  2  0  0  0  0
 11 26  1  0  0  0  0
 12 27  1  0  0  0  0
 13 22  1  0  0  0  0
 13 25  2  0  0  0  0
 14 23  1  0  0  0  0
 14 30  2  0  0  0  0
 15 27  2  0  0  0  0
 15 28  1  0  0  0  0
 16 23  2  0  0  0  0
 16 66  1  0  0  0  0
 17 29  1  0  0  0  0
 18 29  1  0  0  0  0
 18 31  2  0  0  0  0
 18 32  1  0  0  0  0
 19 21  2  0  0  0  0
 19 37  1  0  0  0  0
 20 22  2  0  0  0  0
 20 38  1  0  0  0  0
 21 46  1  0  0  0  0
 22 39  1  0  0  0  0
 23 56  1  0  0  0  0
 24 82  1  0  0  0  0
 25 83  1  0  0  0  0
 26 28  2  0  0  0  0
 26 82  1  0  0  0  0
 27 84  1  0  0  0  0
 28 85  1  0  0  0  0
 29 65  2  0  0  0  0
 30 57  1  0  0  0  0
 30 66  1  0  0  0  0
 31 67  1  0  0  0  0
 31 70  1  0  0  0  0
 32 71  1  0  0  0  0
 32 77  2  0  0  0  0
 33 47  1  0  0  0  0
 33 72  1  0  0  0  0
 33 78  2  0  0  0  0
 34 61  1  0  0  0  0
 34 68  1  0  0  0  0
 34 79  2  0  0  0  0
 35 62  1  0  0  0  0
 35 73  1  0  0  0  0
 35 80  2  0  0  0  0
 36 69  1  0  0  0  0
 36 74  1  0  0  0  0
 36 81  2  0  0  0  0
 37 40  1  0  0  0  0
 38 47  1  0  0  0  0
 39 68  1  0  0  0  0
 40 42  1  0  0  0  0
 41 43  1  0  0  0  0
 41 44  1  0  0  0  0
 42 46  1  0  0  0  0
 43 48  1  0  0  0  0
 44 69  1  0  0  0  0
 45 48  1  0  0  0  0
 45 69  1  0  0  0  0
 46 72  1  0  0  0  0
 47 68  1  0  0  0  0
 48 67  1  0  0  0  0
 49 62  1  0  0  0  0
 50 63  1  0  0  0  0
 51 63  1  0  0  0  0
 52 64  1  0  0  0  0
 53 64  1  0  0  0  0
 54 64  1  0  0  0  0
 55 75  1  0  0  0  0
 56 83  1  0  0  0  0
 57 76  1  0  0  0  0
 58 59  1  0  0  0  0
 58 60  1  0  0  0  0
 59 74  1  0  0  0  0
 60 76  1  0  0  0  0
 61 64  1  0  0  0  0
 61 73  1  0  0  0  0
 62 75  1  0  0  0  0
 63 66  1  0  0  0  0
 65 67  1  0  0  0  0
M  CHG  2  75   1  76   1
M  ISO  4  36 100  56 101  74 100  83 101
M  END
> <Batch ID>
0120

> <Smiles>
CNC(C)C(=O)NC(C(=O)N1Cc2cc([101O:1][101CH2:1]c3cc(CNCCC[100NH:0][100C:0](=O)N4CCCC(n5nc(-c6ccc(Oc7ccc(F)cc7F)cc6)c(C(N)=O)c5N)C4)n(C(C)C)c3)ccc2CC1C(=O)NC1CCCc2ccccc21)C(C)(C)C

> <Shape>
0.245

> <Color>
0.192

> <Negative vol penalty>
0.000

$$$$

  -OEChem-04052320233D

 88 96  0     1  0  0  0  0  0999 V2000
  -16.8077  -29.1646   24.3584 C   0  0  0  0  0  0  0  0  0  0  0  0
  -17.4848  -28.1444   23.6980 C   0  0  0  0  0  0  0  0  0  0  0  0
  -30.2128  -22.8288   20.6910 C   0  0  0  0  0  0  0  0  0  0  0  0
  -28.6712  -22.6683   18.8376 C   0  0  0  0  0  0  0  0  0  0  0  0
  -17.1778  -30.4928   24.1519 C   0  0  0  0  0  0  0  0  0  0  0  0
  -18.5318  -28.4520   22.8299 C   0  0  0  0  0  0  0  0  0  0  0  0
  -22.5509  -25.4427   23.4900 C   0  0  0  0  0  0  0  0  0  0  0  0
  -30.7549  -23.9896   20.1396 C   0  0  0  0  0  0  0  0  0  0  0  0
  -29.2134  -23.8292   18.2862 C   0  0  0  0  0  0  0  0  0  0  0  0
  -22.4838  -24.1617   22.9437 C   0  0  0  0  0  0  0  0  0  0  0  0
  -31.9569  -24.6985   16.5119 C   0  0  0  0  0  0  0  0  0  0  0  0
  -32.2337  -24.6986   15.1448 C   0  0  0  0  0  0  0  0  0  0  0  0
  -23.8084  -24.8992   21.0673 C   0  0  0  0  0  0  0  0  0  0  0  0
  -30.7108  -26.5487   14.8365 C   0  0  0  0  0  0  0  0  0  0  0  0
  -29.1709  -22.1681   20.0400 C   0  0  0  0  0  0  0  0  0  0  0  0
  -27.5345  -20.8781   21.5116 C   0  0  0  0  0  0  0  0  0  0  0  0
  -18.2361  -30.8163   23.2882 C   0  0  0  0  0  0  0  0  0  0  0  0
  -23.2392  -26.4660   22.8226 C   0  0  0  0  0  0  0  0  0  0  0  0
  -18.9155  -29.7859   22.6106 C   0  0  0  0  0  0  0  0  0  0  0  0
  -23.8849  -26.1916   21.6086 C   0  0  0  0  0  0  0  0  0  0  0  0
  -30.2552  -24.4899   18.9372 C   0  0  0  0  0  0  0  0  0  0  0  0
  -23.1101  -23.8906   21.7307 C   0  0  0  0  0  0  0  0  0  0  0  0
  -31.0570  -25.6235   17.0413 C   0  0  0  0  0  0  0  0  0  0  0  0
  -31.6107  -25.6237   14.3071 C   0  0  0  0  0  0  0  0  0  0  0  0
  -30.4340  -26.5486   16.2037 C   0  0  0  0  0  0  0  0  0  0  0  0
  -28.6108  -20.9685   20.6088 C   0  0  0  0  0  0  0  0  0  0  0  0
  -27.3936  -19.5318   21.7442 C   0  0  0  0  0  0  0  0  0  0  0  0
  -20.9073  -16.8310   21.0033 C   0  0  0  0  0  0  0  0  0  0  0  0
  -21.2061  -17.9586   20.3449 C   0  0  0  0  0  0  0  0  0  0  0  0
  -26.7335  -21.9181   22.0883 C   0  0  0  0  0  0  0  0  0  0  0  0
  -22.4245  -29.2729   21.5731 C   0  0  0  0  0  0  0  0  0  0  0  0
  -25.6244  -29.5638   21.1278 C   0  0  0  0  0  0  0  0  0  0  0  0
  -28.6492  -28.0279   20.7555 C   0  0  0  0  0  0  0  0  0  0  0  0
  -27.1751  -14.2704   19.8963 C   0  0  0  0  0  0  0  0  0  0  0  0
  -18.5690  -32.2696   23.0605 C   0  0  0  0  0  0  0  0  0  0  0  0
  -23.3249  -27.8356   23.4384 C   0  0  0  0  0  0  0  0  0  0  0  0
  -24.6538  -27.2501   20.8624 C   0  0  0  0  0  0  0  0  0  0  0  0
  -19.4978  -16.3380   21.1917 C   0  0  0  0  0  0  0  0  0  0  0  0
  -19.9339  -32.4875   22.4125 C   0  0  0  0  0  0  0  0  0  0  0  0
  -19.6318  -15.3013   22.2971 C   0  0  0  0  0  0  0  0  0  0  0  0
  -30.3971  -15.6484   20.5259 C   0  0  0  0  0  0  0  0  0  0  0  0
  -20.1200  -31.5429   21.2293 C   0  0  0  0  0  0  0  0  0  0  0  0
  -30.1316  -17.1477   20.6717 C   0  0  0  0  0  0  0  0  0  0  0  0
  -21.0092  -14.6967   22.0578 C   0  0  0  0  0  0  0  0  0  0  0  0
  -29.4977  -15.0164   19.4658 C   0  0  0  0  0  0  0  0  0  0  0  0
  -27.7898  -16.7621   19.7964 C   0  0  0  0  0  0  0  0  0  0  0  0
  -20.0726  -30.0780   21.6801 C   0  0  1  0  0  0  0  0  0  0  0  0
  -23.6186  -28.9318   22.4189 C   0  0  1  0  0  0  0  0  0  0  0  0
  -28.6340  -17.4330   20.8935 C   0  0  2  0  0  0  0  0  0  0  0  0
  -21.9016  -15.8952   21.6746 C   0  0  2  0  0  0  0  0  0  0  0  0
  -22.4996  -16.5497   22.9308 C   0  0  0  0  0  0  0  0  0  0  0  0
  -23.1979  -17.9606   18.8363 C   0  0  0  0  0  0  0  0  0  0  0  0
  -31.0780  -28.5276   20.3704 C   0  0  0  0  0  0  0  0  0  0  0  0
  -22.1468  -20.1852   22.4958 C   0  0  0  0  0  0  0  0  0  0  0  0
  -21.3451  -22.5716   19.4949 C   0  0  0  0  0  0  0  0  0  0  0  0
  -25.0365  -30.1463   18.1910 C   0  0  0  0  0  0  0  0  0  0  0  0
  -27.4477  -29.6946   17.6908 C   0  0  0  0  0  0  0  0  0  0  0  0
  -26.8207  -31.5780   19.2016 C   0  0  0  0  0  0  0  0  0  0  0  0
  -29.4333  -26.7714   23.3177 C   0  0  0  0  0  0  0  0  0  0  0  0
  -23.0311  -15.4398   20.7427 C   0  0  0  0  0  0  0  0  0  0  0  0
  -23.7162  -14.1893   21.2858 C   0  0  0  0  0  0  0  0  0  0  0  0
  -24.8079  -13.6797   20.3507 C   0  0  0  0  0  0  0  0  0  0  0  0
  -22.6051  -18.4659   20.1471 C   0  0  1  0  0  0  0  0  0  0  0  0
  -26.5878  -29.1987   20.0244 C   0  0  1  0  0  0  0  0  0  0  0  0
  -29.9952  -28.2821   21.4096 C   0  0  2  0  0  0  0  0  0  0  0  0
  -21.7272  -20.6052   21.0913 C   0  0  1  0  0  0  0  0  0  0  0  0
  -21.7477  -22.1285   20.8972 C   0  0  1  0  0  0  0  0  0  1  0  0
  -26.4571  -30.1347   18.7898 C   0  0  0  0  0  0  0  0  0  0  0  0
  -29.1179  -19.7748   20.2897 N   0  0  0  0  0  0  0  0  0  0  0  0
  -28.3569  -18.9215   20.9960 N   0  0  0  0  0  0  0  0  0  0  0  0
  -24.7033  -28.5752   21.5022 N   0  0  0  0  0  0  0  0  0  0  0  0
  -28.0908  -15.3232   19.7350 N   0  0  0  0  0  0  0  0  0  0  0  0
  -26.5411  -18.8224   22.5138 N   0  0  0  0  0  0  0  0  0  0  0  0
  -27.0133  -23.2469   21.7416 N   0  0  0  0  0  0  0  0  0  0  0  0
  -21.3260  -29.6979   22.2957 N   0  0  0  0  0  0  0  0  0  0  0  0
  -27.9157  -29.1886   20.6287 N   0  0  0  0  0  0  0  0  0  0  0  0
  -25.8633  -14.6485   20.1549 N   0  0  0  0  0  0  0  0  0  0  0  0
  -30.3971  -27.1113   22.2395 N   0  3  0  0  0  0  0  0  0  0  0  0
  -22.6566  -19.9500   20.1264 N   0  3  0  0  0  0  0  0  0  0  0  0
  -25.8081  -21.6772   22.9002 O   0  0  0  0  0  0  0  0  0  0  0  0
  -22.4950  -29.1602   20.3549 O   0  0  0  0  0  0  0  0  0  0  0  0
  -25.6914  -30.6823   21.6436 O   0  0  0  0  0  0  0  0  0  0  0  0
  -28.2863  -26.9120   20.3899 O   0  0  0  0  0  0  0  0  0  0  0  0
  -27.5034  -13.0815   19.8211 O   0  0  0  0  0  0  0  0  0  0  0  0
  -30.7839  -25.6227   18.3989 O   0  0  0  0  0  0  0  0  0  0  0  0
  -23.0456  -22.6413   21.1949 O   0  0  0  0  0  0  0  0  0  1  0  0
  -31.8777  -25.6246   12.9945 F   0  0  0  0  0  0  0  0  0  0  0  0
  -29.5695  -27.4404   16.7067 F   0  0  0  0  0  0  0  0  0  0  0  0
  1  2  1  0  0  0  0
  1  5  2  0  0  0  0
  2  6  2  0  0  0  0
  3  8  2  0  0  0  0
  3 15  1  0  0  0  0
  4  9  1  0  0  0  0
  4 15  2  0  0  0  0
  5 17  1  0  0  0  0
  6 19  1  0  0  0  0
  7 10  2  0  0  0  0
  7 18  1  0  0  0  0
  8 21  1  0  0  0  0
  9 21  2  0  0  0  0
 10 22  1  0  0  0  0
 11 12  2  0  0  0  0
 11 23  1  0  0  0  0
 12 24  1  0  0  0  0
 13 20  1  0  0  0  0
 13 22  2  0  0  0  0
 14 24  2  0  0  0  0
 14 25  1  0  0  0  0
 15 26  1  0  0  0  0
 16 26  1  0  0  0  0
 16 27  2  0  0  0  0
 16 30  1  0  0  0  0
 17 19  2  0  0  0  0
 17 35  1  0  0  0  0
 18 20  2  0  0  0  0
 18 36  1  0  0  0  0
 19 47  1  0  0  0  0
 20 37  1  0  0  0  0
 21 85  1  0  0  0  0
 22 86  1  0  0  0  0
 23 25  2  0  0  0  0
 23 85  1  0  0  0  0
 24 87  1  0  0  0  0
 25 88  1  0  0  0  0
 26 69  2  0  0  0  0
 27 70  1  0  0  0  0
 27 73  1  0  0  0  0
 28 29  2  0  0  0  0
 28 38  1  0  0  0  0
 28 50  1  0  0  0  0
 29 63  1  0  0  0  0
 30 74  1  0  0  0  0
 30 80  2  0  0  0  0
 31 48  1  0  0  0  0
 31 75  1  0  0  0  0
 31 81  2  0  0  0  0
 32 64  1  0  0  0  0
 32 71  1  0  0  0  0
 32 82  2  0  0  0  0
 33 65  1  0  0  0  0
 33 76  1  0  0  0  0
 33 83  2  0  0  0  0
 34 72  1  0  0  0  0
 34 77  1  0  0  0  0
 34 84  2  0  0  0  0
 35 39  1  0  0  0  0
 36 48  1  0  0  0  0
 37 71  1  0  0  0  0
 38 40  1  0  0  0  0
 39 42  1  0  0  0  0
 40 44  1  0  0  0  0
 41 43  1  0  0  0  0
 41 45  1  0  0  0  0
 42 47  1  0  0  0  0
 43 49  1  0  0  0  0
 44 50  1  0  0  0  0
 45 72  1  0  0  0  0
 46 49  1  0  0  0  0
 46 72  1  0  0  0  0
 47 75  1  0  0  0  0
 48 71  1  0  0  0  0
 49 70  1  0  0  0  0
 50 51  1  0  0  0  0
 50 60  1  0  0  0  0
 52 63  1  0  0  0  0
 53 65  1  0  0  0  0
 54 66  1  0  0  0  0
 55 67  1  0  0  0  0
 56 68  1  0  0  0  0
 57 68  1  0  0  0  0
 58 68  1  0  0  0  0
 59 78  1  0  0  0  0
 60 61  1  0  0  0  0
 61 62  1  0  0  0  0
 62 77  1  0  0  0  0
 63 79  1  0  0  0  0
 64 68  1  0  0  0  0
 64 76  1  0  0  0  0
 65 78  1  0  0  0  0
 66 67  1  0  0  0  0
 66 79  1  0  0  0  0
 67 86  1  0  0  0  0
 69 70  1  0  0  0  0
M  CHG  2  78   1  79   1
M  ISO  4  34 100  67 101  77 100  86 101
M  END
> <Batch ID>
0120

> <Smiles>
CNC(C)C(=O)NC(C(=O)N1Cc2cc([101O:1][101CH:1](C)C(C)NC(C)C=C3CCCC3(C)CCC[100NH:0][100C:0](=O)N3CCCC(n4nc(-c5ccc(Oc6ccc(F)cc6F)cc5)c(C(N)=O)c4N)C3)ccc2CC1C(=O)NC1CCCc2ccccc21)C(C)(C)C

> <Shape>
0.236

> <Color>
0.080

> <Negative vol penalty>
0.000

$$$$

  -OEChem-04052320233D

 85 93  0     1  0  0  0  0  0999 V2000
  -18.4009  -33.0861   24.2299 C   0  0  0  0  0  0  0  0  0  0  0  0
  -19.6408  -33.2393   23.6180 C   0  0  0  0  0  0  0  0  0  0  0  0
  -24.2119   -9.4334   22.0782 C   0  0  0  0  0  0  0  0  0  0  0  0
  -23.0217  -10.1641   20.1068 C   0  0  0  0  0  0  0  0  0  0  0  0
  -18.0578  -31.8663   24.8115 C   0  0  0  0  0  0  0  0  0  0  0  0
  -20.5389  -32.1730   23.5883 C   0  0  0  0  0  0  0  0  0  0  0  0
  -25.6557  -29.2964   19.4822 C   0  0  0  0  0  0  0  0  0  0  0  0
  -23.3057   -8.3850   22.2368 C   0  0  0  0  0  0  0  0  0  0  0  0
  -22.1154   -9.1156   20.2653 C   0  0  0  0  0  0  0  0  0  0  0  0
  -26.9806  -28.8685   19.5540 C   0  0  0  0  0  0  0  0  0  0  0  0
  -22.7647   -5.3339   20.8835 C   0  0  0  0  0  0  0  0  0  0  0  0
  -23.2795   -4.0702   21.1727 C   0  0  0  0  0  0  0  0  0  0  0  0
  -26.2485  -26.7835   20.5215 C   0  0  0  0  0  0  0  0  0  0  0  0
  -22.0329   -4.0359   23.2420 C   0  0  0  0  0  0  0  0  0  0  0  0
  -24.0699  -10.3230   21.0132 C   0  0  0  0  0  0  0  0  0  0  0  0
  -26.2073  -11.3884   20.1166 C   0  0  0  0  0  0  0  0  0  0  0  0
  -18.9483  -30.7816   24.7804 C   0  0  0  0  0  0  0  0  0  0  0  0
  -24.6163  -28.4741   19.9403 C   0  0  0  0  0  0  0  0  0  0  0  0
  -20.2079  -30.9380   24.1712 C   0  0  0  0  0  0  0  0  0  0  0  0
  -24.9110  -27.2023   20.4520 C   0  0  0  0  0  0  0  0  0  0  0  0
  -22.2575   -8.2260   21.3303 C   0  0  0  0  0  0  0  0  0  0  0  0
  -27.2775  -27.6130   20.0764 C   0  0  0  0  0  0  0  0  0  0  0  0
  -21.8840   -5.9487   21.7736 C   0  0  0  0  0  0  0  0  0  0  0  0
  -22.9136   -3.4212   22.3519 C   0  0  0  0  0  0  0  0  0  0  0  0
  -21.5181   -5.2997   22.9528 C   0  0  0  0  0  0  0  0  0  0  0  0
  -25.0053  -11.4065   20.8492 C   0  0  0  0  0  0  0  0  0  0  0  0
  -26.7234  -12.6517   20.2722 C   0  0  0  0  0  0  0  0  0  0  0  0
  -26.8039  -10.3247   19.3627 C   0  0  0  0  0  0  0  0  0  0  0  0
  -22.4105  -28.7055   22.2173 C   0  0  0  0  0  0  0  0  0  0  0  0
  -21.3291  -25.9414   20.9086 C   0  0  0  0  0  0  0  0  0  0  0  0
  -22.0089  -23.1409   19.0805 C   0  0  0  0  0  0  0  0  0  0  0  0
  -26.0766  -18.1938   20.3804 C   0  0  0  0  0  0  0  0  0  0  0  0
  -18.5517  -29.4970   25.4640 C   0  0  0  0  0  0  0  0  0  0  0  0
  -23.1902  -28.9396   19.8313 C   0  0  0  0  0  0  0  0  0  0  0  0
  -23.8299  -26.2732   20.9384 C   0  0  0  0  0  0  0  0  0  0  0  0
  -19.4116  -28.3019   25.0608 C   0  0  0  0  0  0  0  0  0  0  0  0
  -25.3588  -16.4064   23.3748 C   0  0  0  0  0  0  0  0  0  0  0  0
  -20.8907  -28.6732   25.0933 C   0  0  0  0  0  0  0  0  0  0  0  0
  -25.2959  -14.9463   22.9231 C   0  0  0  0  0  0  0  0  0  0  0  0
  -30.1269  -21.7015   19.5878 C   0  0  0  0  0  0  0  0  0  0  0  0
  -29.4704  -22.4241   17.2709 C   0  0  0  0  0  0  0  0  0  0  0  0
  -24.7860  -17.3491   22.3187 C   0  0  0  0  0  0  0  0  0  0  0  0
  -25.3137  -15.7455   20.5232 C   0  0  0  0  0  0  0  0  0  0  0  0
  -29.9541  -23.1304   20.0786 C   0  0  0  0  0  0  0  0  0  0  0  0
  -21.1994  -29.7971   24.0968 C   0  0  1  0  0  0  0  0  0  0  0  0
  -22.2532  -28.2270   20.8017 C   0  0  1  0  0  0  0  0  0  0  0  0
  -25.9312  -14.7619   21.5319 C   0  0  2  0  0  0  0  0  0  0  0  0
  -29.2208  -21.4287   18.3966 C   0  0  1  0  0  0  0  0  0  0  0  0
  -29.3045  -23.8736   17.7508 C   0  0  2  0  0  0  0  0  0  0  0  0
  -29.6438  -24.8368   16.6149 C   0  0  0  0  0  0  0  0  0  0  0  0
  -20.9329  -21.0480   18.2091 C   0  0  0  0  0  0  0  0  0  0  0  0
  -31.2813  -25.6621   20.5234 C   0  0  0  0  0  0  0  0  0  0  0  0
  -29.6241  -17.6822   18.4606 C   0  0  0  0  0  0  0  0  0  0  0  0
  -21.4594  -24.7152   23.6995 C   0  0  0  0  0  0  0  0  0  0  0  0
  -21.3073  -22.4533   22.6370 C   0  0  0  0  0  0  0  0  0  0  0  0
  -19.4351  -24.0810   22.3749 C   0  0  0  0  0  0  0  0  0  0  0  0
  -22.5271  -23.9065   16.2691 C   0  0  0  0  0  0  0  0  0  0  0  0
  -27.3745  -18.8869   18.3818 C   0  0  0  0  0  0  0  0  0  0  0  0
  -28.8033  -25.7891   20.0456 C   0  0  0  0  0  0  0  0  0  1  0  0
  -21.6020  -24.4737   21.1329 C   0  0  1  0  0  0  0  0  0  0  0  0
  -21.2811  -22.4986   17.9134 C   0  0  2  0  0  0  0  0  0  0  0  0
  -30.1908  -25.5198   19.4741 C   0  0  2  0  0  0  0  0  0  0  0  0
  -28.8629  -18.9769   18.7114 C   0  0  2  0  0  0  0  0  0  0  0  0
  -20.9717  -23.9489   22.4538 C   0  0  0  0  0  0  0  0  0  0  0  0
  -24.7717  -12.5877   21.4275 N   0  0  0  0  0  0  0  0  0  0  0  0
  -25.8340  -13.3234   21.0583 N   0  0  0  0  0  0  0  0  0  0  0  0
  -22.4517  -26.7763   20.8167 N   0  0  0  0  0  0  0  0  0  0  0  0
  -25.4319  -17.1242   21.0233 N   0  0  0  0  0  0  0  0  0  0  0  0
  -27.8467  -13.2423   19.8120 N   0  0  0  0  0  0  0  0  0  0  0  0
  -26.1404   -9.0914   19.3071 N   0  0  0  0  0  0  0  0  0  0  0  0
  -21.2686  -29.2731   22.7495 N   0  0  0  0  0  0  0  0  0  0  0  0
  -21.1377  -23.7842   19.9340 N   0  0  0  0  0  0  0  0  0  0  0  0
  -26.6686  -17.8933   19.1598 N   0  0  0  0  0  0  0  0  0  0  0  0
  -30.2258  -24.1050   18.9476 N   0  3  1  0  0  0  0  0  0  0  0  0
  -29.4827  -20.0541   17.8947 N   0  3  0  0  0  0  0  0  0  0  0  0
  -22.1295  -22.5381   16.6888 N   0  3  0  0  0  0  0  0  0  0  0  0
  -27.9012  -10.4588   18.7699 O   0  0  0  0  0  0  0  0  0  0  0  0
  -23.4877  -28.5684   22.7852 O   0  0  0  0  0  0  0  0  0  0  0  0
  -20.1629  -26.3316   20.8110 O   0  0  0  0  0  0  0  0  0  0  0  0
  -23.2279  -23.0752   19.2229 O   0  0  0  0  0  0  0  0  0  0  0  0
  -26.1260  -19.3310   20.8614 O   0  0  0  0  0  0  0  0  0  0  0  0
  -21.3731   -7.2030   21.4846 O   0  0  0  0  0  0  0  0  0  0  0  0
  -28.5699  -27.1931   20.1483 O   0  0  0  0  0  0  0  0  0  1  0  0
  -23.4068   -2.2071   22.6288 F   0  0  0  0  0  0  0  0  0  0  0  0
  -20.6715   -5.8847   23.8111 F   0  0  0  0  0  0  0  0  0  0  0  0
  1  2  1  0  0  0  0
  1  5  2  0  0  0  0
  2  6  2  0  0  0  0
  3  8  2  0  0  0  0
  3 15  1  0  0  0  0
  4  9  1  0  0  0  0
  4 15  2  0  0  0  0
  5 17  1  0  0  0  0
  6 19  1  0  0  0  0
  7 10  2  0  0  0  0
  7 18  1  0  0  0  0
  8 21  1  0  0  0  0
  9 21  2  0  0  0  0
 10 22  1  0  0  0  0
 11 12  2  0  0  0  0
 11 23  1  0  0  0  0
 12 24  1  0  0  0  0
 13 20  1  0  0  0  0
 13 22  2  0  0  0  0
 14 24  2  0  0  0  0
 14 25  1  0  0  0  0
 15 26  1  0  0  0  0
 16 26  1  0  0  0  0
 16 27  2  0  0  0  0
 16 28  1  0  0  0  0
 17 19  2  0  0  0  0
 17 33  1  0  0  0  0
 18 20  2  0  0  0  0
 18 34  1  0  0  0  0
 19 45  1  0  0  0  0
 20 35  1  0  0  0  0
 21 82  1  0  0  0  0
 22 83  1  0  0  0  0
 23 25  2  0  0  0  0
 23 82  1  0  0  0  0
 24 84  1  0  0  0  0
 25 85  1  0  0  0  0
 26 65  2  0  0  0  0
 27 66  1  0  0  0  0
 27 69  1  0  0  0  0
 28 70  1  0  0  0  0
 28 77  2  0  0  0  0
 29 46  1  0  0  0  0
 29 71  1  0  0  0  0
 29 78  2  0  0  0  0
 30 60  1  0  0  0  0
 30 67  1  0  0  0  0
 30 79  2  0  0  0  0
 31 61  1  0  0  0  0
 31 72  1  0  0  0  0
 31 80  2  0  0  0  0
 32 68  1  0  0  0  0
 32 73  1  0  0  0  0
 32 81  2  0  0  0  0
 33 36  1  0  0  0  0
 34 46  1  0  0  0  0
 35 67  1  0  0  0  0
 36 38  1  0  0  0  0
 37 39  1  0  0  0  0
 37 42  1  0  0  0  0
 38 45  1  0  0  0  0
 39 47  1  0  0  0  0
 40 44  1  0  0  0  0
 40 48  1  0  0  0  0
 41 48  1  0  0  0  0
 41 49  1  0  0  0  0
 42 68  1  0  0  0  0
 43 47  1  0  0  0  0
 43 68  1  0  0  0  0
 44 74  1  0  0  0  0
 45 71  1  0  0  0  0
 46 67  1  0  0  0  0
 47 66  1  0  0  0  0
 48 75  1  0  0  0  0
 49 50  1  0  0  0  0
 49 74  1  0  0  0  0
 51 61  1  0  0  0  0
 52 62  1  0  0  0  0
 53 63  1  0  0  0  0
 54 64  1  0  0  0  0
 55 64  1  0  0  0  0
 56 64  1  0  0  0  0
 57 76  1  0  0  0  0
 58 63  1  0  0  0  0
 58 73  1  0  0  0  0
 59 62  1  0  0  0  0
 59 83  1  0  0  0  0
 60 64  1  0  0  0  0
 60 72  1  0  0  0  0
 61 76  1  0  0  0  0
 62 74  1  0  0  0  0
 63 75  1  0  0  0  0
 65 66  1  0  0  0  0
M  CHG  3  74   1  75   1  76   1
M  ISO  4  32 100  59 101  73 100  83 101
M  END
> <Batch ID>
0120

> <Smiles>
CNC(C)C(=O)NC(C(=O)N1Cc2cc([101O:1][101CH2:1]C(C)N3CCC(NC(C)C[100NH:0][100C:0](=O)N4CCCC(n5nc(-c6ccc(Oc7ccc(F)cc7F)cc6)c(C(N)=O)c5N)C4)CC3C)ccc2CC1C(=O)NC1CCCc2ccccc21)C(C)(C)C

> <Shape>
0.280

> <Color>
0.114

> <Negative vol penalty>
0.000

$$$$

  -OEChem-04052320233D

 91100  0     1  0  0  0  0  0999 V2000
  -18.9536  -34.8454   17.1073 C   0  0  0  0  0  0  0  0  0  0  0  0
  -20.1116  -34.1854   16.7090 C   0  0  0  0  0  0  0  0  0  0  0  0
  -23.1557  -10.9776   22.4026 C   0  0  0  0  0  0  0  0  0  0  0  0
  -24.4984   -9.0904   21.7150 C   0  0  0  0  0  0  0  0  0  0  0  0
  -18.7018  -35.0527   18.4628 C   0  0  0  0  0  0  0  0  0  0  0  0
  -21.0193  -33.7331   17.6661 C   0  0  0  0  0  0  0  0  0  0  0  0
  -25.6787  -28.4278   18.8743 C   0  0  0  0  0  0  0  0  0  0  0  0
  -29.1965  -17.2191   22.7390 C   0  0  0  0  0  0  0  0  0  0  0  0
  -31.3863  -17.0583   21.7312 C   0  0  0  0  0  0  0  0  0  0  0  0
  -22.5437  -10.1876   23.3757 C   0  0  0  0  0  0  0  0  0  0  0  0
  -23.8863   -8.3004   22.6881 C   0  0  0  0  0  0  0  0  0  0  0  0
  -27.0105  -28.2249   19.2332 C   0  0  0  0  0  0  0  0  0  0  0  0
  -29.5481  -18.4433   23.3077 C   0  0  0  0  0  0  0  0  0  0  0  0
  -31.7379  -18.2826   22.2998 C   0  0  0  0  0  0  0  0  0  0  0  0
  -20.9619   -6.6496   23.0796 C   0  0  0  0  0  0  0  0  0  0  0  0
  -20.5446   -5.3715   22.7084 C   0  0  0  0  0  0  0  0  0  0  0  0
  -26.4324  -28.5692   21.5498 C   0  0  0  0  0  0  0  0  0  0  0  0
  -22.0022   -4.4106   24.3784 C   0  0  0  0  0  0  0  0  0  0  0  0
  -24.1331  -10.4290   21.5722 C   0  0  0  0  0  0  0  0  0  0  0  0
  -24.1402  -11.9081   19.4938 C   0  0  0  0  0  0  0  0  0  0  0  0
  -19.6021  -34.5942   19.4375 C   0  0  0  0  0  0  0  0  0  0  0  0
  -24.7140  -28.7142   19.8510 C   0  0  0  0  0  0  0  0  0  0  0  0
  -20.7800  -33.9356   19.0359 C   0  0  0  0  0  0  0  0  0  0  0  0
  -25.0886  -28.7728   21.2009 C   0  0  0  0  0  0  0  0  0  0  0  0
  -30.1157  -16.5266   21.9508 C   0  0  0  0  0  0  0  0  0  0  0  0
  -22.9090   -8.8490   23.5185 C   0  0  0  0  0  0  0  0  0  0  0  0
  -30.8188  -18.9751   23.0880 C   0  0  0  0  0  0  0  0  0  0  0  0
  -27.3881  -28.2985   20.5708 C   0  0  0  0  0  0  0  0  0  0  0  0
  -21.8994   -6.8083   24.1002 C   0  0  0  0  0  0  0  0  0  0  0  0
  -21.0647   -4.2519   23.3578 C   0  0  0  0  0  0  0  0  0  0  0  0
  -22.4196   -5.6888   24.7496 C   0  0  0  0  0  0  0  0  0  0  0  0
  -24.7653  -11.2444   20.5665 C   0  0  0  0  0  0  0  0  0  0  0  0
  -25.1672  -12.5393   18.8353 C   0  0  0  0  0  0  0  0  0  0  0  0
  -22.7552  -11.9504   19.1256 C   0  0  0  0  0  0  0  0  0  0  0  0
  -22.7820  -31.1676   20.4441 C   0  0  0  0  0  0  0  0  0  0  0  0
  -21.6065  -29.1867   22.7281 C   0  0  0  0  0  0  0  0  0  0  0  0
  -22.9459  -26.8715   25.1494 C   0  0  0  0  0  0  0  0  0  0  0  0
  -30.5515  -14.4677   20.5661 C   0  0  0  0  0  0  0  0  0  0  0  0
  -19.3102  -34.8833   20.8887 C   0  0  0  0  0  0  0  0  0  0  0  0
  -23.2767  -28.9040   19.4503 C   0  0  0  0  0  0  0  0  0  0  0  0
  -24.0878  -29.0571   22.2900 C   0  0  0  0  0  0  0  0  0  0  0  0
  -20.1391  -34.0422   21.8560 C   0  0  0  0  0  0  0  0  0  0  0  0
  -29.8588  -12.1423   17.9604 C   0  0  0  0  0  0  0  0  0  0  0  0
  -21.6052  -34.0338   21.4349 C   0  0  0  0  0  0  0  0  0  0  0  0
  -28.4151  -11.7131   18.2318 C   0  0  0  0  0  0  0  0  0  0  0  0
  -28.7346  -23.7430   22.7026 C   0  0  0  0  0  0  0  0  0  0  0  0
  -30.6393  -12.3582   19.2557 C   0  0  0  0  0  0  0  0  0  0  0  0
  -28.5619  -12.8394   20.4895 C   0  0  0  0  0  0  0  0  0  0  0  0
  -29.4429  -24.4605   21.5618 C   0  0  0  0  0  0  0  0  0  0  0  0
  -30.8896  -25.6737   23.2212 C   0  0  0  0  0  0  0  0  0  0  0  0
  -21.7766  -33.4083   20.0454 C   0  0  1  0  0  0  0  0  0  0  0  0
  -22.4710  -29.6979   20.4740 C   0  0  1  0  0  0  0  0  0  0  0  0
  -29.6171  -23.5802   23.9503 C   0  0  2  0  0  0  0  0  0  0  0  0
  -30.1813  -24.9562   24.3743 C   0  0  1  0  0  0  0  0  0  0  0  0
  -27.7174  -12.6727   19.2156 C   0  0  2  0  0  0  0  0  0  0  0  0
  -32.0544  -26.1044   27.5607 C   0  0  0  0  0  0  0  0  0  0  0  0
  -21.9213  -24.8368   26.2018 C   0  0  0  0  0  0  0  0  0  0  0  0
  -20.8053  -31.1024   24.9637 C   0  0  0  0  0  0  0  0  0  0  0  0
  -21.3075  -29.2827   26.6083 C   0  0  0  0  0  0  0  0  0  0  0  0
  -19.5100  -28.9639   24.9083 C   0  0  0  0  0  0  0  0  0  0  0  0
  -25.1929  -25.1502   24.2848 C   0  0  0  0  0  0  0  0  0  0  0  0
  -30.6919  -22.5103   23.7214 C   0  0  0  0  0  0  0  0  0  0  0  0
  -31.1070  -24.8707   25.5890 C   0  0  0  0  0  0  0  0  0  0  0  0
  -31.1543  -26.1965   26.3390 C   0  0  0  0  0  0  0  0  0  0  0  0
  -30.5614  -26.5944   20.9274 C   0  0  0  0  0  0  0  0  0  0  0  0
  -30.1158  -21.1149   23.8513 C   0  0  0  0  0  0  0  0  0  0  0  0
  -29.4584  -27.2263   20.1014 C   0  0  0  0  0  0  0  0  0  1  0  0
  -21.9298  -28.9153   24.1775 C   0  0  1  0  0  0  0  0  0  0  0  0
  -22.8450  -25.3573   25.1116 C   0  0  2  0  0  0  0  0  0  0  0  0
  -20.9081  -29.5750   25.1462 C   0  0  0  0  0  0  0  0  0  0  0  0
  -26.0869  -11.4359   20.5916 N   0  0  0  0  0  0  0  0  0  0  0  0
  -26.3007  -12.2271   19.5265 N   0  0  0  0  0  0  0  0  0  0  0  0
  -22.6959  -29.2417   21.8471 N   0  0  0  0  0  0  0  0  0  0  0  0
  -29.9202  -13.2813   20.1363 N   0  0  0  0  0  0  0  0  0  0  0  0
  -25.2020  -13.3252   17.7383 N   0  0  0  0  0  0  0  0  0  0  0  0
  -21.8332  -11.2455   19.9112 N   0  0  0  0  0  0  0  0  0  0  0  0
  -29.7586  -15.2829   21.3732 N   0  0  0  0  0  0  0  0  0  0  0  0
  -21.6992  -31.9655   20.1276 N   0  0  0  0  0  0  0  0  0  0  0  0
  -22.0282  -27.4657   24.3093 N   0  0  0  0  0  0  0  0  0  0  0  0
  -29.9488  -25.7962   22.0459 N   0  3  1  0  0  0  0  0  0  0  0  0
  -24.1896  -24.7436   25.3023 N   0  3  0  0  0  0  0  0  0  0  0  0
  -22.3495  -12.5808   18.1198 O   0  0  0  0  0  0  0  0  0  0  0  0
  -23.9199  -31.5495   20.6914 O   0  0  0  0  0  0  0  0  0  0  0  0
  -20.4301  -29.3370   22.3888 O   0  0  0  0  0  0  0  0  0  0  0  0
  -23.7553  -27.4677   25.8566 O   0  0  0  0  0  0  0  0  0  0  0  0
  -31.7005  -14.7536   20.2197 O   0  0  0  0  0  0  0  0  0  0  0  0
  -22.3121   -8.0779   24.4680 O   0  0  0  0  0  0  0  0  0  0  0  0
  -31.1643  -20.1781   23.6468 O   0  0  0  0  0  0  0  0  0  0  0  0
  -28.6875  -28.1015   20.9237 O   0  0  0  0  0  0  0  0  0  1  0  0
  -20.6628   -3.0247   23.0023 F   0  0  0  0  0  0  0  0  0  0  0  0
  -23.3196   -5.8349   25.7316 F   0  0  0  0  0  0  0  0  0  0  0  0
  1  2  1  0  0  0  0
  1  5  2  0  0  0  0
  2  6  2  0  0  0  0
  3 10  2  0  0  0  0
  3 19  1  0  0  0  0
  4 11  1  0  0  0  0
  4 19  2  0  0  0  0
  5 21  1  0  0  0  0
  6 23  1  0  0  0  0
  7 12  2  0  0  0  0
  7 22  1  0  0  0  0
  8 13  2  0  0  0  0
  8 25  1  0  0  0  0
  9 14  1  0  0  0  0
  9 25  2  0  0  0  0
 10 26  1  0  0  0  0
 11 26  2  0  0  0  0
 12 28  1  0  0  0  0
 13 27  1  0  0  0  0
 14 27  2  0  0  0  0
 15 16  2  0  0  0  0
 15 29  1  0  0  0  0
 16 30  1  0  0  0  0
 17 24  1  0  0  0  0
 17 28  2  0  0  0  0
 18 30  2  0  0  0  0
 18 31  1  0  0  0  0
 19 32  1  0  0  0  0
 20 32  1  0  0  0  0
 20 33  2  0  0  0  0
 20 34  1  0  0  0  0
 21 23  2  0  0  0  0
 21 39  1  0  0  0  0
 22 24  2  0  0  0  0
 22 40  1  0  0  0  0
 23 51  1  0  0  0  0
 24 41  1  0  0  0  0
 25 77  1  0  0  0  0
 26 87  1  0  0  0  0
 27 88  1  0  0  0  0
 28 89  1  0  0  0  0
 29 31  2  0  0  0  0
 29 87  1  0  0  0  0
 30 90  1  0  0  0  0
 31 91  1  0  0  0  0
 32 71  2  0  0  0  0
 33 72  1  0  0  0  0
 33 75  1  0  0  0  0
 34 76  1  0  0  0  0
 34 82  2  0  0  0  0
 35 52  1  0  0  0  0
 35 78  1  0  0  0  0
 35 83  2  0  0  0  0
 36 68  1  0  0  0  0
 36 73  1  0  0  0  0
 36 84  2  0  0  0  0
 37 69  1  0  0  0  0
 37 79  1  0  0  0  0
 37 85  2  0  0  0  0
 38 74  1  0  0  0  0
 38 77  1  0  0  0  0
 38 86  2  0  0  0  0
 39 42  1  0  0  0  0
 40 52  1  0  0  0  0
 41 73  1  0  0  0  0
 42 44  1  0  0  0  0
 43 45  1  0  0  0  0
 43 47  1  0  0  0  0
 44 51  1  0  0  0  0
 45 55  1  0  0  0  0
 46 49  1  0  0  0  0
 46 53  1  0  0  0  0
 47 74  1  0  0  0  0
 48 55  1  0  0  0  0
 48 74  1  0  0  0  0
 49 80  1  0  0  0  0
 50 54  1  0  0  0  0
 50 80  1  0  0  0  0
 51 78  1  0  0  0  0
 52 73  1  0  0  0  0
 53 54  1  0  0  0  0
 53 62  1  0  0  0  0
 54 63  1  0  0  0  0
 55 72  1  0  0  0  0
 56 64  1  0  0  0  0
 57 69  1  0  0  0  0
 58 70  1  0  0  0  0
 59 70  1  0  0  0  0
 60 70  1  0  0  0  0
 61 81  1  0  0  0  0
 62 66  1  0  0  0  0
 63 64  1  0  0  0  0
 65 67  1  0  0  0  0
 65 80  1  0  0  0  0
 66 88  1  0  0  0  0
 67 89  1  0  0  0  0
 68 70  1  0  0  0  0
 68 79  1  0  0  0  0
 69 81  1  0  0  0  0
 71 72  1  0  0  0  0
M  CHG  2  80   1  81   1
M  ISO  4  38 100  67 101  77 100  89 101
M  END
> <Batch ID>
0120

> <Smiles>
CCCC1CN(C[101CH2:1][101O:1]c2ccc3c(c2)CN(C(=O)C(NC(=O)C(C)NC)C(C)(C)C)C(C(=O)NC2CCCc4ccccc42)C3)CCC1CCOc1ccc([100NH:0][100C:0](=O)N2CCCC(n3nc(-c4ccc(Oc5ccc(F)cc5F)cc4)c(C(N)=O)c3N)C2)cc1

> <Shape>
0.257

> <Color>
0.093

> <Negative vol penalty>
0.000

$$$$

  -OEChem-04052320233D

 87 95  0     1  0  0  0  0  0999 V2000
  -22.4523  -24.8126   31.0335 C   0  0  0  0  0  0  0  0  0  0  0  0
  -22.7648  -23.4903   30.7346 C   0  0  0  0  0  0  0  0  0  0  0  0
  -23.0724   -9.8706   19.9431 C   0  0  0  0  0  0  0  0  0  0  0  0
  -23.8350   -9.8786   22.2356 C   0  0  0  0  0  0  0  0  0  0  0  0
  -21.8220  -25.6113   30.0802 C   0  0  0  0  0  0  0  0  0  0  0  0
  -22.4461  -22.9656   29.4826 C   0  0  0  0  0  0  0  0  0  0  0  0
  -26.2347  -20.2616   27.4877 C   0  0  0  0  0  0  0  0  0  0  0  0
  -30.1057  -14.5014   25.8235 C   0  0  0  0  0  0  0  0  0  0  0  0
  -30.8567  -14.9385   24.7324 C   0  0  0  0  0  0  0  0  0  0  0  0
  -22.3288   -8.7176   20.1945 C   0  0  0  0  0  0  0  0  0  0  0  0
  -23.0914   -8.7255   22.4870 C   0  0  0  0  0  0  0  0  0  0  0  0
  -26.4192  -18.9683   27.9747 C   0  0  0  0  0  0  0  0  0  0  0  0
  -19.3823   -7.9217   21.6496 C   0  0  0  0  0  0  0  0  0  0  0  0
  -18.0748   -7.8752   21.1659 C   0  0  0  0  0  0  0  0  0  0  0  0
  -29.2726  -16.7457   26.1491 C   0  0  0  0  0  0  0  0  0  0  0  0
  -25.2669  -18.0850   26.0483 C   0  0  0  0  0  0  0  0  0  0  0  0
  -18.6329   -5.9316   19.8438 C   0  0  0  0  0  0  0  0  0  0  0  0
  -23.8256  -10.4511   20.9637 C   0  0  0  0  0  0  0  0  0  0  0  0
  -30.0236  -17.1828   25.0580 C   0  0  0  0  0  0  0  0  0  0  0  0
  -24.1673  -12.9762   20.8421 C   0  0  0  0  0  0  0  0  0  0  0  0
  -21.5041  -25.0989   28.8125 C   0  0  0  0  0  0  0  0  0  0  0  0
  -25.5542  -20.4773   26.2807 C   0  0  0  0  0  0  0  0  0  0  0  0
  -21.8097  -23.7578   28.5120 C   0  0  0  0  0  0  0  0  0  0  0  0
  -25.0773  -19.3818   25.5469 C   0  0  0  0  0  0  0  0  0  0  0  0
  -29.3136  -15.4050   26.5319 C   0  0  0  0  0  0  0  0  0  0  0  0
  -30.8157  -16.2792   24.3497 C   0  0  0  0  0  0  0  0  0  0  0  0
  -22.3383   -8.1450   21.4664 C   0  0  0  0  0  0  0  0  0  0  0  0
  -25.9327  -17.8799   27.2565 C   0  0  0  0  0  0  0  0  0  0  0  0
  -20.3151   -6.9731   21.2303 C   0  0  0  0  0  0  0  0  0  0  0  0
  -17.7001   -6.8802   20.2630 C   0  0  0  0  0  0  0  0  0  0  0  0
  -19.9404   -5.9780   20.3275 C   0  0  0  0  0  0  0  0  0  0  0  0
  -24.5944  -11.6418   20.7045 C   0  0  0  0  0  0  0  0  0  0  0  0
  -25.2590  -13.7255   20.4773 C   0  0  0  0  0  0  0  0  0  0  0  0
  -29.9626  -18.5882   24.6797 C   0  0  0  0  0  0  0  0  0  0  0  0
  -22.8973  -13.4922   21.2623 C   0  0  0  0  0  0  0  0  0  0  0  0
  -22.8872  -21.9937   25.4493 C   0  0  0  0  0  0  0  0  0  0  0  0
  -23.8746  -21.2694   22.4455 C   0  0  0  0  0  0  0  0  0  0  0  0
  -25.7238  -19.2460   20.4125 C   0  0  0  0  0  0  0  0  0  0  0  0
  -30.7430  -14.7445   20.6587 C   0  0  0  0  0  0  0  0  0  0  0  0
  -20.7802  -25.9867   27.8314 C   0  0  0  0  0  0  0  0  0  0  0  0
  -25.3869  -21.8768   25.7557 C   0  0  0  0  0  0  0  0  0  0  0  0
  -24.3578  -19.5584   24.2356 C   0  0  0  0  0  0  0  0  0  0  0  0
  -20.8143  -25.4644   26.3974 C   0  0  0  0  0  0  0  0  0  0  0  0
  -29.6026  -12.3590   18.2743 C   0  0  0  0  0  0  0  0  0  0  0  0
  -20.4762  -23.9774   26.3627 C   0  0  0  0  0  0  0  0  0  0  0  0
  -28.1656  -12.0655   18.7091 C   0  0  0  0  0  0  0  0  0  0  0  0
  -30.5211  -12.5803   19.4740 C   0  0  0  0  0  0  0  0  0  0  0  0
  -28.6210  -13.3120   20.8625 C   0  0  0  0  0  0  0  0  0  0  0  0
  -21.5024  -23.1596   27.1563 C   0  0  1  0  0  0  0  0  0  0  0  0
  -24.2284  -22.0115   24.7722 C   0  0  1  0  0  0  0  0  0  0  0  0
  -27.6454  -13.1369   19.6861 C   0  0  2  0  0  0  0  0  0  0  0  0
  -29.9161  -21.5934   25.8135 C   0  0  0  0  0  0  0  0  0  0  0  0
  -26.7915  -18.4200   18.2971 C   0  0  0  0  0  0  0  0  0  0  0  0
  -21.1341  -20.0101   21.9830 C   0  0  0  0  0  0  0  0  0  0  0  0
  -22.0813  -18.8550   19.9738 C   0  0  0  0  0  0  0  0  0  0  0  0
  -22.0062  -21.3470   20.0577 C   0  0  0  0  0  0  0  0  0  0  0  0
  -28.1266  -20.9218   20.8337 C   0  0  0  0  0  0  0  0  0  0  0  0
  -28.5019  -14.9320   27.7113 C   0  0  0  0  0  0  0  0  0  0  0  0
  -31.6300  -16.7203   23.1774 C   0  0  0  0  0  0  0  0  0  0  0  0
  -27.0933  -14.4626   27.3411 C   0  0  0  0  0  0  0  0  0  0  0  0
  -30.9471  -20.8665   25.0191 C   0  0  0  0  0  0  0  0  0  0  0  0
  -30.8103  -16.8956   21.8946 C   0  0  0  0  0  0  0  0  0  0  0  0
  -26.2195  -15.5708   26.7651 C   0  0  0  0  0  0  0  0  0  1  0  0
  -23.6692  -20.1077   21.5036 C   0  0  1  0  0  0  0  0  0  0  0  0
  -26.7023  -19.5631   19.2961 C   0  0  2  0  0  0  0  0  0  0  0  0
  -22.2345  -20.0764   20.9052 C   0  0  0  0  0  0  0  0  0  0  0  0
  -25.8587  -11.5458   20.2848 N   0  0  0  0  0  0  0  0  0  0  0  0
  -26.2355  -12.8293   20.1554 N   0  0  0  0  0  0  0  0  0  0  0  0
  -24.2135  -20.9467   23.7671 N   0  0  0  0  0  0  0  0  0  0  0  0
  -29.9716  -13.6092   20.3602 N   0  0  0  0  0  0  0  0  0  0  0  0
  -25.4694  -15.0569   20.4034 N   0  0  0  0  0  0  0  0  0  0  0  0
  -21.8858  -12.5832   21.6012 N   0  0  0  0  0  0  0  0  0  0  0  0
  -30.8951  -19.4448   25.2739 N   0  0  0  0  0  0  0  0  0  0  0  0
  -22.7180  -22.9927   26.3889 N   0  0  0  0  0  0  0  0  0  0  0  0
  -24.7306  -20.1978   20.5068 N   0  0  0  0  0  0  0  0  0  0  0  0
  -30.1448  -15.6737   21.5010 N   0  0  0  0  0  0  0  0  0  0  0  0
  -28.0627  -19.8073   19.8535 N   0  3  0  0  0  0  0  0  0  0  0  0
  -29.0995  -18.9873   23.8799 O   0  0  0  0  0  0  0  0  0  0  0  0
  -22.6611  -14.7228   21.3194 O   0  0  0  0  0  0  0  0  0  0  0  0
  -22.0661  -21.1379   25.1410 O   0  0  0  0  0  0  0  0  0  0  0  0
  -23.7462  -22.4210   22.0224 O   0  0  0  0  0  0  0  0  0  0  0  0
  -25.8279  -18.2514   21.1270 O   0  0  0  0  0  0  0  0  0  0  0  0
  -31.8784  -14.9198   20.2037 O   0  0  0  0  0  0  0  0  0  0  0  0
  -21.6126   -7.0201   21.7121 O   0  0  0  0  0  0  0  0  0  0  0  0
  -26.1108  -16.6166   27.7299 O   0  0  0  0  0  0  0  0  0  1  0  0
  -16.4441   -6.8348   19.7998 F   0  0  0  0  0  0  0  0  0  0  0  0
  -20.8319   -5.0633   19.9220 F   0  0  0  0  0  0  0  0  0  0  0  0
  1  2  1  0  0  0  0
  1  5  2  0  0  0  0
  2  6  2  0  0  0  0
  3 10  2  0  0  0  0
  3 18  1  0  0  0  0
  4 11  1  0  0  0  0
  4 18  2  0  0  0  0
  5 21  1  0  0  0  0
  6 23  1  0  0  0  0
  7 12  2  0  0  0  0
  7 22  1  0  0  0  0
  8  9  2  0  0  0  0
  8 25  1  0  0  0  0
  9 26  1  0  0  0  0
 10 27  1  0  0  0  0
 11 27  2  0  0  0  0
 12 28  1  0  0  0  0
 13 14  2  0  0  0  0
 13 29  1  0  0  0  0
 14 30  1  0  0  0  0
 15 19  1  0  0  0  0
 15 25  2  0  0  0  0
 16 24  1  0  0  0  0
 16 28  2  0  0  0  0
 17 30  2  0  0  0  0
 17 31  1  0  0  0  0
 18 32  1  0  0  0  0
 19 26  2  0  0  0  0
 19 34  1  0  0  0  0
 20 32  1  0  0  0  0
 20 33  2  0  0  0  0
 20 35  1  0  0  0  0
 21 23  2  0  0  0  0
 21 40  1  0  0  0  0
 22 24  2  0  0  0  0
 22 41  1  0  0  0  0
 23 49  1  0  0  0  0
 24 42  1  0  0  0  0
 25 58  1  0  0  0  0
 26 59  1  0  0  0  0
 27 84  1  0  0  0  0
 28 85  1  0  0  0  0
 29 31  2  0  0  0  0
 29 84  1  0  0  0  0
 30 86  1  0  0  0  0
 31 87  1  0  0  0  0
 32 67  2  0  0  0  0
 33 68  1  0  0  0  0
 33 71  1  0  0  0  0
 34 73  1  0  0  0  0
 34 78  2  0  0  0  0
 35 72  1  0  0  0  0
 35 79  2  0  0  0  0
 36 50  1  0  0  0  0
 36 74  1  0  0  0  0
 36 80  2  0  0  0  0
 37 64  1  0  0  0  0
 37 69  1  0  0  0  0
 37 81  2  0  0  0  0
 38 65  1  0  0  0  0
 38 75  1  0  0  0  0
 38 82  2  0  0  0  0
 39 70  1  0  0  0  0
 39 76  1  0  0  0  0
 39 83  2  0  0  0  0
 40 43  1  0  0  0  0
 41 50  1  0  0  0  0
 42 69  1  0  0  0  0
 43 45  1  0  0  0  0
 44 46  1  0  0  0  0
 44 47  1  0  0  0  0
 45 49  1  0  0  0  0
 46 51  1  0  0  0  0
 47 70  1  0  0  0  0
 48 51  1  0  0  0  0
 48 70  1  0  0  0  0
 49 74  1  0  0  0  0
 50 69  1  0  0  0  0
 51 68  1  0  0  0  0
 52 61  1  0  0  0  0
 53 65  1  0  0  0  0
 54 66  1  0  0  0  0
 55 66  1  0  0  0  0
 56 66  1  0  0  0  0
 57 77  1  0  0  0  0
 58 60  1  0  0  0  0
 59 62  1  0  0  0  0
 60 63  1  0  0  0  0
 61 73  1  0  0  0  0
 62 76  1  0  0  0  0
 63 85  1  0  0  0  0
 64 66  1  0  0  0  0
 64 75  1  0  0  0  0
 65 77  1  0  0  0  0
 67 68  1  0  0  0  0
M  CHG  1  77   1
M  ISO  4  39 100  63 101  76 100  85 101
M  END
> <Batch ID>
0120

> <Smiles>
CCNC(=O)c1cc(CC[101CH2:1][101O:1]c2ccc3c(c2)CN(C(=O)C(NC(=O)C(C)NC)C(C)(C)C)C(C(=O)NC2CCCc4ccccc42)C3)ccc1CC[100NH:0][100C:0](=O)N1CCCC(n2nc(-c3ccc(Oc4ccc(F)cc4F)cc3)c(C(N)=O)c2N)C1

> <Shape>
0.161

> <Color>
0.191

> <Negative vol penalty>
0.000

$$$$

  -OEChem-04052320233D

 86 95  0     1  0  0  0  0  0999 V2000
  -21.7059  -27.6481   16.8521 C   0  0  0  0  0  0  0  0  0  0  0  0
  -22.1604  -26.6924   17.7551 C   0  0  0  0  0  0  0  0  0  0  0  0
  -26.9080  -18.3923   19.6915 C   0  0  0  0  0  0  0  0  0  0  0  0
  -23.1063   -9.7521   19.9405 C   0  0  0  0  0  0  0  0  0  0  0  0
  -23.7070   -9.9308   22.2738 C   0  0  0  0  0  0  0  0  0  0  0  0
  -22.1732  -28.9593   16.9324 C   0  0  0  0  0  0  0  0  0  0  0  0
  -23.0834  -27.0470   18.7383 C   0  0  0  0  0  0  0  0  0  0  0  0
  -23.4249  -24.8322   24.4377 C   0  0  0  0  0  0  0  0  0  0  0  0
  -22.3690   -8.6011   20.2185 C   0  0  0  0  0  0  0  0  0  0  0  0
  -22.9696   -8.7799   22.5518 C   0  0  0  0  0  0  0  0  0  0  0  0
  -24.2259  -23.8479   25.0151 C   0  0  0  0  0  0  0  0  0  0  0  0
  -23.3609   -5.4357   22.2442 C   0  0  0  0  0  0  0  0  0  0  0  0
  -23.9450   -4.4757   23.0705 C   0  0  0  0  0  0  0  0  0  0  0  0
  -26.8391  -19.1692   20.8743 C   0  0  0  0  0  0  0  0  0  0  0  0
  -25.7556  -25.5495   25.7793 C   0  0  0  0  0  0  0  0  0  0  0  0
  -22.1277   -4.7233   24.6431 C   0  0  0  0  0  0  0  0  0  0  0  0
  -28.2025  -17.9365   19.5736 C   0  0  0  0  0  0  0  0  0  0  0  0
  -23.7753  -10.4169   20.9682 C   0  0  0  0  0  0  0  0  0  0  0  0
  -24.0767  -12.9357   20.6985 C   0  0  0  0  0  0  0  0  0  0  0  0
  -23.0951  -29.3324   17.9231 C   0  0  0  0  0  0  0  0  0  0  0  0
  -23.7895  -26.1839   24.5175 C   0  0  0  0  0  0  0  0  0  0  0  0
  -23.5645  -28.3641   18.8311 C   0  0  0  0  0  0  0  0  0  0  0  0
  -24.9561  -26.5492   25.2043 C   0  0  0  0  0  0  0  0  0  0  0  0
  -22.3006   -8.1150   21.5241 C   0  0  0  0  0  0  0  0  0  0  0  0
  -25.3929  -24.2062   25.6836 C   0  0  0  0  0  0  0  0  0  0  0  0
  -22.1601   -6.0397   22.6175 C   0  0  0  0  0  0  0  0  0  0  0  0
  -23.3284   -4.1195   24.2699 C   0  0  0  0  0  0  0  0  0  0  0  0
  -21.5436   -5.6835   23.8169 C   0  0  0  0  0  0  0  0  0  0  0  0
  -24.5376  -11.6056   20.6816 C   0  0  0  0  0  0  0  0  0  0  0  0
  -28.0937  -19.1646   21.4431 C   0  0  0  0  0  0  0  0  0  0  0  0
  -25.1768  -13.6846   20.3588 C   0  0  0  0  0  0  0  0  0  0  0  0
  -22.7710  -13.4484   20.9950 C   0  0  0  0  0  0  0  0  0  0  0  0
  -24.5193  -28.4392   22.3998 C   0  0  0  0  0  0  0  0  0  0  0  0
  -24.5436  -30.3473   25.0229 C   0  0  0  0  0  0  0  0  0  0  0  0
  -24.8901  -30.6154   28.4074 C   0  0  0  0  0  0  0  0  0  0  0  0
  -30.6145  -14.8428   20.8443 C   0  0  0  0  0  0  0  0  0  0  0  0
  -23.6074  -30.7508   17.9408 C   0  0  0  0  0  0  0  0  0  0  0  0
  -22.9008  -27.2358   23.9125 C   0  0  0  0  0  0  0  0  0  0  0  0
  -25.3813  -27.9881   25.3357 C   0  0  0  0  0  0  0  0  0  0  0  0
  -24.3004  -31.1318   19.2465 C   0  0  0  0  0  0  0  0  0  0  0  0
  -29.6885  -12.2774   18.5557 C   0  0  0  0  0  0  0  0  0  0  0  0
  -25.2770  -30.0397   19.6710 C   0  0  0  0  0  0  0  0  0  0  0  0
  -28.2306  -11.9796   18.9103 C   0  0  0  0  0  0  0  0  0  0  0  0
  -28.4259  -21.3433   22.5856 C   0  0  0  0  0  0  0  0  0  0  0  0
  -27.8185  -19.2769   23.9078 C   0  0  0  0  0  0  0  0  0  0  0  0
  -30.5168  -12.5998   19.7974 C   0  0  0  0  0  0  0  0  0  0  0  0
  -28.5110  -13.3773   21.0000 C   0  0  0  0  0  0  0  0  0  0  0  0
  -28.8501  -22.0326   23.8762 C   0  0  0  0  0  0  0  0  0  0  0  0
  -28.2477  -19.9819   25.1882 C   0  0  0  0  0  0  0  0  0  0  0  0
  -24.5468  -28.7158   19.9272 C   0  0  1  0  0  0  0  0  0  0  0  0
  -28.5780  -19.8168   22.6852 C   0  0  0  0  0  0  0  0  0  0  0  0
  -23.6360  -28.5381   23.6113 C   0  0  1  0  0  0  0  0  0  0  0  0
  -27.6233  -13.1012   19.7744 C   0  0  2  0  0  0  0  0  0  0  0  0
  -24.8973  -32.3094   30.2588 C   0  0  0  0  0  0  0  0  0  0  0  0
  -27.3452  -31.2319   24.1994 C   0  0  0  0  0  0  0  0  0  0  0  0
  -27.6611  -32.1432   26.5098 C   0  0  0  0  0  0  0  0  0  0  0  0
  -25.8743  -33.0726   25.0378 C   0  0  0  0  0  0  0  0  0  0  0  0
  -22.5694  -29.3459   29.7347 C   0  0  0  0  0  0  0  0  0  0  0  0
  -30.3173  -18.1500   20.8777 C   0  0  0  0  0  0  0  0  0  0  0  0
  -30.5547  -17.0724   21.9325 C   0  0  0  0  0  0  0  0  0  0  0  0
  -28.3433  -22.2057   26.3109 C   0  0  0  0  0  0  0  0  0  0  0  0
  -27.5770  -23.5136   26.3210 C   0  0  0  0  0  0  0  0  0  1  0  0
  -25.5865  -30.7655   26.0311 C   0  0  1  0  0  0  0  0  0  0  0  0
  -24.0548  -31.3339   29.4517 C   0  0  2  0  0  0  0  0  0  0  0  0
  -26.6100  -31.7759   25.4406 C   0  0  0  0  0  0  0  0  0  0  0  0
  -25.8297  -11.5117   20.3567 N   0  0  0  0  0  0  0  0  0  0  0  0
  -28.9143  -18.4124   20.6437 N   0  0  0  0  0  0  0  0  0  0  0  0
  -26.1902  -12.7923   20.1662 N   0  0  0  0  0  0  0  0  0  0  0  0
  -24.4823  -28.9793   24.7218 N   0  0  0  0  0  0  0  0  0  0  0  0
  -29.8875  -13.6722   20.5719 N   0  0  0  0  0  0  0  0  0  0  0  0
  -25.3665  -15.0127   20.2090 N   0  0  0  0  0  0  0  0  0  0  0  0
  -21.7557  -12.5404   21.3251 N   0  0  0  0  0  0  0  0  0  0  0  0
  -23.8822  -28.7457   21.2125 N   0  0  0  0  0  0  0  0  0  0  0  0
  -24.8559  -31.2642   27.1912 N   0  0  0  0  0  0  0  0  0  0  0  0
  -29.9416  -15.8116   21.5786 N   0  0  0  0  0  0  0  0  0  0  0  0
  -28.0587  -21.4806   25.0470 N   0  3  0  0  0  0  0  0  0  0  0  0
  -23.4434  -30.3519   30.3913 N   0  3  0  0  0  0  0  0  0  0  0  0
  -22.5081  -14.6742   20.9518 O   0  0  0  0  0  0  0  0  0  0  0  0
  -25.6924  -28.1105   22.5325 O   0  0  0  0  0  0  0  0  0  0  0  0
  -23.8056  -31.2019   24.5264 O   0  0  0  0  0  0  0  0  0  0  0  0
  -25.5137  -29.5839   28.6476 O   0  0  0  0  0  0  0  0  0  0  0  0
  -31.7754  -15.0141   20.4570 O   0  0  0  0  0  0  0  0  0  0  0  0
  -21.5811   -6.9921   21.7957 O   0  0  0  0  0  0  0  0  0  0  0  0
  -26.1769  -23.2475   26.2475 O   0  0  0  0  0  0  0  0  0  1  0  0
  -23.8887   -3.1964   25.0624 F   0  0  0  0  0  0  0  0  0  0  0  0
  -20.3893   -6.2593   24.1801 F   0  0  0  0  0  0  0  0  0  0  0  0
  1  2  1  0  0  0  0
  1  6  2  0  0  0  0
  2  7  2  0  0  0  0
  3 14  1  0  0  0  0
  3 17  2  0  0  0  0
  4  9  2  0  0  0  0
  4 18  1  0  0  0  0
  5 10  1  0  0  0  0
  5 18  2  0  0  0  0
  6 20  1  0  0  0  0
  7 22  1  0  0  0  0
  8 11  2  0  0  0  0
  8 21  1  0  0  0  0
  9 24  1  0  0  0  0
 10 24  2  0  0  0  0
 11 25  1  0  0  0  0
 12 13  2  0  0  0  0
 12 26  1  0  0  0  0
 13 27  1  0  0  0  0
 14 30  2  0  0  0  0
 15 23  1  0  0  0  0
 15 25  2  0  0  0  0
 16 27  2  0  0  0  0
 16 28  1  0  0  0  0
 17 67  1  0  0  0  0
 18 29  1  0  0  0  0
 19 29  1  0  0  0  0
 19 31  2  0  0  0  0
 19 32  1  0  0  0  0
 20 22  2  0  0  0  0
 20 37  1  0  0  0  0
 21 23  2  0  0  0  0
 21 38  1  0  0  0  0
 22 50  1  0  0  0  0
 23 39  1  0  0  0  0
 24 83  1  0  0  0  0
 25 84  1  0  0  0  0
 26 28  2  0  0  0  0
 26 83  1  0  0  0  0
 27 85  1  0  0  0  0
 28 86  1  0  0  0  0
 29 66  2  0  0  0  0
 30 51  1  0  0  0  0
 30 67  1  0  0  0  0
 31 68  1  0  0  0  0
 31 71  1  0  0  0  0
 32 72  1  0  0  0  0
 32 78  2  0  0  0  0
 33 52  1  0  0  0  0
 33 73  1  0  0  0  0
 33 79  2  0  0  0  0
 34 63  1  0  0  0  0
 34 69  1  0  0  0  0
 34 80  2  0  0  0  0
 35 64  1  0  0  0  0
 35 74  1  0  0  0  0
 35 81  2  0  0  0  0
 36 70  1  0  0  0  0
 36 75  1  0  0  0  0
 36 82  2  0  0  0  0
 37 40  1  0  0  0  0
 38 52  1  0  0  0  0
 39 69  1  0  0  0  0
 40 42  1  0  0  0  0
 41 43  1  0  0  0  0
 41 46  1  0  0  0  0
 42 50  1  0  0  0  0
 43 53  1  0  0  0  0
 44 48  1  0  0  0  0
 44 51  1  0  0  0  0
 45 49  1  0  0  0  0
 45 51  1  0  0  0  0
 46 70  1  0  0  0  0
 47 53  1  0  0  0  0
 47 70  1  0  0  0  0
 48 76  1  0  0  0  0
 49 76  1  0  0  0  0
 50 73  1  0  0  0  0
 52 69  1  0  0  0  0
 53 68  1  0  0  0  0
 54 64  1  0  0  0  0
 55 65  1  0  0  0  0
 56 65  1  0  0  0  0
 57 65  1  0  0  0  0
 58 77  1  0  0  0  0
 59 60  1  0  0  0  0
 59 67  1  0  0  0  0
 60 75  1  0  0  0  0
 61 62  1  0  0  0  0
 61 76  1  0  0  0  0
 62 84  1  0  0  0  0
 63 65  1  0  0  0  0
 63 74  1  0  0  0  0
 64 77  1  0  0  0  0
 66 68  1  0  0  0  0
M  CHG  2  76   1  77   1
M  ISO  4  36 100  62 101  75 100  84 101
M  END
> <Batch ID>
0120

> <Smiles>
CNC(C)C(=O)NC(C(=O)N1Cc2cc([101O:1][101CH2:1]CN3CCC(c4cccn4CC[100NH:0][100C:0](=O)N4CCCC(n5nc(-c6ccc(Oc7ccc(F)cc7F)cc6)c(C(N)=O)c5N)C4)CC3)ccc2CC1C(=O)NC1CCCc2ccccc21)C(C)(C)C

> <Shape>
0.291

> <Color>
0.209

> <Negative vol penalty>
0.000

$$$$

  -OEChem-04052320233D

 82 91  0     1  0  0  0  0  0999 V2000
  -27.4356  -29.8073   23.7704 C   0  0  0  0  0  0  0  0  0  0  0  0
  -27.5943  -28.4502   23.5086 C   0  0  0  0  0  0  0  0  0  0  0  0
  -23.2178   -9.7777   19.9772 C   0  0  0  0  0  0  0  0  0  0  0  0
  -23.9510   -9.8969   22.2761 C   0  0  0  0  0  0  0  0  0  0  0  0
  -26.6573  -30.5934   22.9218 C   0  0  0  0  0  0  0  0  0  0  0  0
  -26.9738  -27.8782   22.3986 C   0  0  0  0  0  0  0  0  0  0  0  0
  -30.0545  -24.7879   19.8287 C   0  0  0  0  0  0  0  0  0  0  0  0
  -22.5610   -8.5775   20.2488 C   0  0  0  0  0  0  0  0  0  0  0  0
  -23.2942   -8.6967   22.5478 C   0  0  0  0  0  0  0  0  0  0  0  0
  -30.2655  -23.5152   20.3574 C   0  0  0  0  0  0  0  0  0  0  0  0
  -23.3805   -5.3201   20.6256 C   0  0  0  0  0  0  0  0  0  0  0  0
  -23.5351   -4.2766   19.7130 C   0  0  0  0  0  0  0  0  0  0  0  0
  -29.8168  -19.0187   22.5793 C   0  0  0  0  0  0  0  0  0  0  0  0
  -28.6622  -22.6086   18.7996 C   0  0  0  0  0  0  0  0  0  0  0  0
  -21.1487   -4.2520   19.3368 C   0  0  0  0  0  0  0  0  0  0  0  0
  -31.9163  -18.8603   21.4732 C   0  0  0  0  0  0  0  0  0  0  0  0
  -23.9128  -10.4374   20.9908 C   0  0  0  0  0  0  0  0  0  0  0  0
  -24.0632  -12.9777   20.8121 C   0  0  0  0  0  0  0  0  0  0  0  0
  -26.0349  -30.0327   21.7954 C   0  0  0  0  0  0  0  0  0  0  0  0
  -29.1361  -24.9825   18.7870 C   0  0  0  0  0  0  0  0  0  0  0  0
  -26.1854  -28.6573   21.5348 C   0  0  0  0  0  0  0  0  0  0  0  0
  -29.9412  -17.6821   22.9418 C   0  0  0  0  0  0  0  0  0  0  0  0
  -28.4432  -23.8843   18.2577 C   0  0  0  0  0  0  0  0  0  0  0  0
  -30.8187  -19.6265   21.8310 C   0  0  0  0  0  0  0  0  0  0  0  0
  -22.5992   -8.0370   21.5341 C   0  0  0  0  0  0  0  0  0  0  0  0
  -29.5673  -22.4258   19.8448 C   0  0  0  0  0  0  0  0  0  0  0  0
  -22.1100   -5.8295   20.8939 C   0  0  0  0  0  0  0  0  0  0  0  0
  -22.4192   -3.7426   19.0686 C   0  0  0  0  0  0  0  0  0  0  0  0
  -20.9941   -5.2955   20.2495 C   0  0  0  0  0  0  0  0  0  0  0  0
  -24.5919  -11.6769   20.7107 C   0  0  0  0  0  0  0  0  0  0  0  0
  -31.0780  -17.0029   22.5341 C   0  0  0  0  0  0  0  0  0  0  0  0
  -25.0991  -13.7993   20.4401 C   0  0  0  0  0  0  0  0  0  0  0  0
  -22.7529  -13.4050   21.2074 C   0  0  0  0  0  0  0  0  0  0  0  0
  -26.4460  -26.6416   18.4490 C   0  0  0  0  0  0  0  0  0  0  0  0
  -26.6938  -25.6712   15.3637 C   0  0  0  0  0  0  0  0  0  0  0  0
  -27.9194  -23.4004   13.1304 C   0  0  0  0  0  0  0  0  0  0  0  0
  -30.8590  -14.1997   20.8614 C   0  0  0  0  0  0  0  0  0  0  0  0
  -25.1646  -30.9128   20.9335 C   0  0  0  0  0  0  0  0  0  0  0  0
  -28.9395  -26.3574   18.2096 C   0  0  0  0  0  0  0  0  0  0  0  0
  -27.4612  -24.0369   17.1259 C   0  0  0  0  0  0  0  0  0  0  0  0
  -24.8470  -30.3064   19.5691 C   0  0  0  0  0  0  0  0  0  0  0  0
  -29.2615  -13.1990   17.8409 C   0  0  0  0  0  0  0  0  0  0  0  0
  -27.7912  -16.2527   23.0318 C   0  0  0  0  0  0  0  0  0  0  0  0
  -27.4665  -17.5638   23.6767 C   0  0  0  0  0  0  0  0  0  0  0  0
  -24.4217  -28.8491   19.7186 C   0  0  0  0  0  0  0  0  0  0  0  0
  -27.8454  -12.8254   18.2824 C   0  0  0  0  0  0  0  0  0  0  0  0
  -30.3010  -12.8085   18.8891 C   0  0  0  0  0  0  0  0  0  0  0  0
  -28.6212  -12.9514   20.6868 C   0  0  0  0  0  0  0  0  0  0  0  0
  -28.8720  -17.0243   23.7440 C   0  0  0  0  0  0  0  0  0  0  0  0
  -25.5485  -28.0053   20.3268 C   0  0  1  0  0  0  0  0  0  0  0  0
  -27.6011  -26.5200   17.4958 C   0  0  1  0  0  0  0  0  0  0  0  0
  -27.5323  -13.3761   19.6867 C   0  0  2  0  0  0  0  0  0  0  0  0
  -27.9225  -22.8494   10.6821 C   0  0  0  0  0  0  0  0  0  0  0  0
  -23.8492  -24.5942   15.6050 C   0  0  0  0  0  0  0  0  0  0  0  0
  -24.2541  -23.2562   13.5280 C   0  0  0  0  0  0  0  0  0  0  0  0
  -24.3481  -25.7475   13.4427 C   0  0  0  0  0  0  0  0  0  0  0  0
  -30.8593  -23.6899   12.9504 C   0  0  0  0  0  0  0  0  0  0  0  0
  -30.7146  -21.0669   21.4237 C   0  0  0  0  0  0  0  0  0  1  0  0
  -31.2670  -15.5653   22.8931 C   0  0  0  0  0  0  0  0  0  0  0  0
  -26.2148  -24.4748   14.5775 C   0  0  1  0  0  0  0  0  0  0  0  0
  -28.6415  -23.5779   11.8069 C   0  0  2  0  0  0  0  0  0  0  0  0
  -24.6836  -24.5153   14.3109 C   0  0  0  0  0  0  0  0  0  0  0  0
  -32.0723  -17.5595   21.8066 N   0  0  0  0  0  0  0  0  0  0  0  0
  -25.8647  -11.6678   20.3058 N   0  0  0  0  0  0  0  0  0  0  0  0
  -26.1444  -12.9729   20.1494 N   0  0  0  0  0  0  0  0  0  0  0  0
  -27.2991  -25.4022   16.5995 N   0  0  0  0  0  0  0  0  0  0  0  0
  -29.9462  -13.3634   20.1976 N   0  0  0  0  0  0  0  0  0  0  0  0
  -25.2085  -15.1408   20.3364 N   0  0  0  0  0  0  0  0  0  0  0  0
  -21.8095  -12.4297   21.5581 N   0  0  0  0  0  0  0  0  0  0  0  0
  -26.5503  -27.7038   19.3268 N   0  0  0  0  0  0  0  0  0  0  0  0
  -27.0307  -24.4272   13.3690 N   0  0  0  0  0  0  0  0  0  0  0  0
  -30.4414  -14.6879   22.0934 N   0  0  0  0  0  0  0  0  0  0  0  0
  -30.0305  -23.0457   11.8992 N   0  3  0  0  0  0  0  0  0  0  0  0
  -22.4234  -14.6151   21.2326 O   0  0  0  0  0  0  0  0  0  0  0  0
  -25.5273  -25.8327   18.3914 O   0  0  0  0  0  0  0  0  0  0  0  0
  -26.5431  -26.8024   14.8953 O   0  0  0  0  0  0  0  0  0  0  0  0
  -28.1208  -22.4443   13.8760 O   0  0  0  0  0  0  0  0  0  0  0  0
  -31.9620  -14.4941   20.3884 O   0  0  0  0  0  0  0  0  0  0  0  0
  -21.9582   -6.8660   21.7996 O   0  0  0  0  0  0  0  0  0  0  0  0
  -29.7709  -21.1826   20.3595 O   0  0  0  0  0  0  0  0  0  1  0  0
  -22.5680   -2.7416   18.1911 F   0  0  0  0  0  0  0  0  0  0  0  0
  -19.7711   -5.7815   20.5023 F   0  0  0  0  0  0  0  0  0  0  0  0
  1  2  1  0  0  0  0
  1  5  2  0  0  0  0
  2  6  2  0  0  0  0
  3  8  2  0  0  0  0
  3 17  1  0  0  0  0
  4  9  1  0  0  0  0
  4 17  2  0  0  0  0
  5 19  1  0  0  0  0
  6 21  1  0  0  0  0
  7 10  2  0  0  0  0
  7 20  1  0  0  0  0
  8 25  1  0  0  0  0
  9 25  2  0  0  0  0
 10 26  1  0  0  0  0
 11 12  2  0  0  0  0
 11 27  1  0  0  0  0
 12 28  1  0  0  0  0
 13 22  1  0  0  0  0
 13 24  2  0  0  0  0
 14 23  1  0  0  0  0
 14 26  2  0  0  0  0
 15 28  2  0  0  0  0
 15 29  1  0  0  0  0
 16 24  1  0  0  0  0
 16 63  2  0  0  0  0
 17 30  1  0  0  0  0
 18 30  1  0  0  0  0
 18 32  2  0  0  0  0
 18 33  1  0  0  0  0
 19 21  2  0  0  0  0
 19 38  1  0  0  0  0
 20 23  2  0  0  0  0
 20 39  1  0  0  0  0
 21 50  1  0  0  0  0
 22 31  2  0  0  0  0
 22 49  1  0  0  0  0
 23 40  1  0  0  0  0
 24 58  1  0  0  0  0
 25 79  1  0  0  0  0
 26 80  1  0  0  0  0
 27 29  2  0  0  0  0
 27 79  1  0  0  0  0
 28 81  1  0  0  0  0
 29 82  1  0  0  0  0
 30 64  2  0  0  0  0
 31 59  1  0  0  0  0
 31 63  1  0  0  0  0
 32 65  1  0  0  0  0
 32 68  1  0  0  0  0
 33 69  1  0  0  0  0
 33 74  2  0  0  0  0
 34 51  1  0  0  0  0
 34 70  1  0  0  0  0
 34 75  2  0  0  0  0
 35 60  1  0  0  0  0
 35 66  1  0  0  0  0
 35 76  2  0  0  0  0
 36 61  1  0  0  0  0
 36 71  1  0  0  0  0
 36 77  2  0  0  0  0
 37 67  1  0  0  0  0
 37 72  1  0  0  0  0
 37 78  2  0  0  0  0
 38 41  1  0  0  0  0
 39 51  1  0  0  0  0
 40 66  1  0  0  0  0
 41 45  1  0  0  0  0
 42 46  1  0  0  0  0
 42 47  1  0  0  0  0
 43 44  1  0  0  0  0
 43 49  1  0  0  0  0
 44 49  1  0  0  0  0
 45 50  1  0  0  0  0
 46 52  1  0  0  0  0
 47 67  1  0  0  0  0
 48 52  1  0  0  0  0
 48 67  1  0  0  0  0
 50 70  1  0  0  0  0
 51 66  1  0  0  0  0
 52 65  1  0  0  0  0
 53 61  1  0  0  0  0
 54 62  1  0  0  0  0
 55 62  1  0  0  0  0
 56 62  1  0  0  0  0
 57 73  1  0  0  0  0
 58 80  1  0  0  0  0
 59 72  1  0  0  0  0
 60 62  1  0  0  0  0
 60 71  1  0  0  0  0
 61 73  1  0  0  0  0
 64 65  1  0  0  0  0
M  CHG  1  73   1
M  ISO  4  37 100  58 101  72 100  80 101
M  END
> <Batch ID>
0120

> <Smiles>
CNC(C)C(=O)NC(C(=O)N1Cc2cc([101O:1][101CH2:1]c3cnc(C[100NH:0][100C:0](=O)N4CCCC(n5nc(-c6ccc(Oc7ccc(F)cc7F)cc6)c(C(N)=O)c5N)C4)c(C4CC4)c3)ccc2CC1C(=O)NC1CCCc2ccccc21)C(C)(C)C

> <Shape>
0.273

> <Color>
0.209

> <Negative vol penalty>
0.000

$$$$

  -OEChem-04052320233D

 85 94  0     1  0  0  0  0  0999 V2000
  -16.4101  -28.9183   23.7945 C   0  0  0  0  0  0  0  0  0  0  0  0
  -16.7845  -28.9841   22.4563 C   0  0  0  0  0  0  0  0  0  0  0  0
  -28.5114  -11.8378   20.4493 C   0  0  0  0  0  0  0  0  0  0  0  0
  -30.2124  -13.2376   19.4573 C   0  0  0  0  0  0  0  0  0  0  0  0
  -17.2460  -29.4459   24.7778 C   0  0  0  0  0  0  0  0  0  0  0  0
  -17.9946  -29.5786   22.1004 C   0  0  0  0  0  0  0  0  0  0  0  0
  -23.9857  -26.6707   18.0167 C   0  0  0  0  0  0  0  0  0  0  0  0
  -30.6728  -22.6333   20.0374 C   0  0  0  0  0  0  0  0  0  0  0  0
  -28.6169  -10.9505   19.3781 C   0  0  0  0  0  0  0  0  0  0  0  0
  -30.3180  -12.3504   18.3862 C   0  0  0  0  0  0  0  0  0  0  0  0
  -25.1730  -26.2146   17.4435 C   0  0  0  0  0  0  0  0  0  0  0  0
  -27.5372  -10.7674   16.1805 C   0  0  0  0  0  0  0  0  0  0  0  0
  -26.3542  -10.2954   15.6119 C   0  0  0  0  0  0  0  0  0  0  0  0
  -30.0435  -21.4377   20.3658 C   0  0  0  0  0  0  0  0  0  0  0  0
  -26.4288  -27.8284   18.7345 C   0  0  0  0  0  0  0  0  0  0  0  0
  -26.9963   -8.0307   16.1557 C   0  0  0  0  0  0  0  0  0  0  0  0
  -28.7992  -23.8019   20.9208 C   0  0  0  0  0  0  0  0  0  0  0  0
  -29.3091  -12.9814   20.4888 C   0  0  0  0  0  0  0  0  0  0  0  0
  -29.9281  -13.8680   22.7993 C   0  0  0  0  0  0  0  0  0  0  0  0
  -30.0455  -23.8423   20.3168 C   0  0  0  0  0  0  0  0  0  0  0  0
  -18.4714  -30.0386   24.4346 C   0  0  0  0  0  0  0  0  0  0  0  0
  -24.0171  -27.6982   18.9636 C   0  0  0  0  0  0  0  0  0  0  0  0
  -18.8470  -30.1159   23.0799 C   0  0  0  0  0  0  0  0  0  0  0  0
  -25.2440  -28.2809   19.3213 C   0  0  0  0  0  0  0  0  0  0  0  0
  -29.5202  -11.2068   18.3466 C   0  0  0  0  0  0  0  0  0  0  0  0
  -26.3914  -26.7922   17.8013 C   0  0  0  0  0  0  0  0  0  0  0  0
  -28.4499   -9.8710   16.7366 C   0  0  0  0  0  0  0  0  0  0  0  0
  -26.0837   -8.9271   15.5995 C   0  0  0  0  0  0  0  0  0  0  0  0
  -28.1794   -8.5026   16.7242 C   0  0  0  0  0  0  0  0  0  0  0  0
  -29.2002  -13.8985   21.5947 C   0  0  0  0  0  0  0  0  0  0  0  0
  -28.7973  -21.5050   20.9677 C   0  0  0  0  0  0  0  0  0  0  0  0
  -29.4587  -14.9445   23.5115 C   0  0  0  0  0  0  0  0  0  0  0  0
  -30.9383  -12.9488   23.2355 C   0  0  0  0  0  0  0  0  0  0  0  0
  -22.0749  -29.9058   21.2939 C   0  0  0  0  0  0  0  0  0  0  0  0
  -24.6364  -29.0869   22.7700 C   0  0  0  0  0  0  0  0  0  0  0  0
  -27.3648  -27.6190   24.1975 C   0  0  0  0  0  0  0  0  0  0  0  0
  -26.9204  -20.1096   21.9039 C   0  0  0  0  0  0  0  0  0  0  0  0
  -19.3197  -30.6374   25.5285 C   0  0  0  0  0  0  0  0  0  0  0  0
  -22.7570  -28.2628   19.5612 C   0  0  0  0  0  0  0  0  0  0  0  0
  -25.2261  -29.4071   20.3184 C   0  0  0  0  0  0  0  0  0  0  0  0
  -20.7583  -30.9156   25.1003 C   0  0  0  0  0  0  0  0  0  0  0  0
  -25.5429  -17.6440   24.0720 C   0  0  0  0  0  0  0  0  0  0  0  0
  -20.7863  -31.6137   23.7444 C   0  0  0  0  0  0  0  0  0  0  0  0
  -26.3947  -16.4027   23.7968 C   0  0  0  0  0  0  0  0  0  0  0  0
  -32.0072  -25.3375   20.7852 C   0  0  0  0  0  0  0  0  0  0  0  0
  -25.2971  -18.4561   22.8017 C   0  0  0  0  0  0  0  0  0  0  0  0
  -27.3588  -17.5783   21.7781 C   0  0  0  0  0  0  0  0  0  0  0  0
  -32.7013  -26.6530   20.4735 C   0  0  0  0  0  0  0  0  0  0  0  0
  -31.7043  -26.6710   18.1837 C   0  0  0  0  0  0  0  0  0  0  0  0
  -30.7085  -25.1664   19.9706 C   0  0  1  0  0  0  0  0  0  0  0  0
  -20.1633  -30.7308   22.6563 C   0  0  1  0  0  0  0  0  0  0  0  0
  -22.9277  -28.7004   21.0270 C   0  0  1  0  0  0  0  0  0  0  0  0
  -30.9765  -25.3489   18.4513 C   0  0  1  0  0  0  0  0  0  0  0  0
  -27.6877  -16.7630   23.0394 C   0  0  2  0  0  0  0  0  0  0  0  0
  -28.6722  -27.5534   26.3385 C   0  0  0  0  0  0  0  0  0  0  0  0
  -25.8639  -31.7975   22.0991 C   0  0  0  0  0  0  0  0  0  0  0  0
  -27.7507  -31.2474   23.6501 C   0  0  0  0  0  0  0  0  0  0  0  0
  -25.4242  -31.4245   24.5326 C   0  0  0  0  0  0  0  0  0  0  0  0
  -26.8470  -24.7278   24.5606 C   0  0  0  0  0  0  0  0  0  0  0  0
  -29.6822  -25.3178   17.6310 C   0  0  0  0  0  0  0  0  0  0  0  0
  -28.7320  -26.4363   18.0305 C   0  0  0  0  0  0  0  0  0  1  0  0
  -26.0633  -29.4318   23.1139 C   0  0  1  0  0  0  0  0  0  0  0  0
  -27.5499  -26.9191   25.5318 C   0  0  2  0  0  0  0  0  0  0  0  0
  -26.2692  -30.9581   23.3272 C   0  0  0  0  0  0  0  0  0  0  0  0
  -28.1566  -22.6603   21.2546 N   0  0  0  0  0  0  0  0  0  0  0  0
  -28.3341  -14.9139   21.5412 N   0  0  0  0  0  0  0  0  0  0  0  0
  -28.5147  -15.5314   22.7211 N   0  0  0  0  0  0  0  0  0  0  0  0
  -24.2934  -29.0947   21.4125 N   0  0  0  0  0  0  0  0  0  0  0  0
  -26.5668  -18.7642   22.1400 N   0  0  0  0  0  0  0  0  0  0  0  0
  -29.7653  -15.4369   24.7305 N   0  0  0  0  0  0  0  0  0  0  0  0
  -31.3015  -11.8998   22.3798 N   0  0  0  0  0  0  0  0  0  0  0  0
  -28.1647  -20.2809   21.2981 N   0  0  0  0  0  0  0  0  0  0  0  0
  -21.0944  -29.7016   22.2460 N   0  0  0  0  0  0  0  0  0  0  0  0
  -26.4134  -28.6143   24.2704 N   0  0  0  0  0  0  0  0  0  0  0  0
  -32.9472  -26.7357   19.0058 N   0  3  0  0  0  0  0  0  0  0  0  0
  -27.8776  -25.4806   25.3211 N   0  3  0  0  0  0  0  0  0  0  0  0
  -31.4904  -13.0448   24.3577 O   0  0  0  0  0  0  0  0  0  0  0  0
  -22.2905  -30.9458   20.6827 O   0  0  0  0  0  0  0  0  0  0  0  0
  -23.8438  -28.8229   23.6785 O   0  0  0  0  0  0  0  0  0  0  0  0
  -28.0033  -27.3158   23.1920 O   0  0  0  0  0  0  0  0  0  0  0  0
  -26.1864  -21.0422   22.2407 O   0  0  0  0  0  0  0  0  0  0  0  0
  -29.6236  -10.3411   17.3014 O   0  0  0  0  0  0  0  0  0  0  0  0
  -27.5471  -26.3390   17.2412 O   0  0  0  0  0  0  0  0  0  1  0  0
  -24.9469   -8.4741   15.0549 F   0  0  0  0  0  0  0  0  0  0  0  0
  -29.0518   -7.6367   17.2580 F   0  0  0  0  0  0  0  0  0  0  0  0
  1  2  1  0  0  0  0
  1  5  2  0  0  0  0
  2  6  2  0  0  0  0
  3  9  2  0  0  0  0
  3 18  1  0  0  0  0
  4 10  1  0  0  0  0
  4 18  2  0  0  0  0
  5 21  1  0  0  0  0
  6 23  1  0  0  0  0
  7 11  2  0  0  0  0
  7 22  1  0  0  0  0
  8 14  2  0  0  0  0
  8 20  1  0  0  0  0
  9 25  1  0  0  0  0
 10 25  2  0  0  0  0
 11 26  1  0  0  0  0
 12 13  2  0  0  0  0
 12 27  1  0  0  0  0
 13 28  1  0  0  0  0
 14 31  1  0  0  0  0
 15 24  1  0  0  0  0
 15 26  2  0  0  0  0
 16 28  2  0  0  0  0
 16 29  1  0  0  0  0
 17 20  2  0  0  0  0
 17 65  1  0  0  0  0
 18 30  1  0  0  0  0
 19 30  1  0  0  0  0
 19 32  2  0  0  0  0
 19 33  1  0  0  0  0
 20 50  1  0  0  0  0
 21 23  2  0  0  0  0
 21 38  1  0  0  0  0
 22 24  2  0  0  0  0
 22 39  1  0  0  0  0
 23 51  1  0  0  0  0
 24 40  1  0  0  0  0
 25 82  1  0  0  0  0
 26 83  1  0  0  0  0
 27 29  2  0  0  0  0
 27 82  1  0  0  0  0
 28 84  1  0  0  0  0
 29 85  1  0  0  0  0
 30 66  2  0  0  0  0
 31 65  2  0  0  0  0
 31 72  1  0  0  0  0
 32 67  1  0  0  0  0
 32 70  1  0  0  0  0
 33 71  1  0  0  0  0
 33 77  2  0  0  0  0
 34 52  1  0  0  0  0
 34 73  1  0  0  0  0
 34 78  2  0  0  0  0
 35 62  1  0  0  0  0
 35 68  1  0  0  0  0
 35 79  2  0  0  0  0
 36 63  1  0  0  0  0
 36 74  1  0  0  0  0
 36 80  2  0  0  0  0
 37 69  1  0  0  0  0
 37 72  1  0  0  0  0
 37 81  2  0  0  0  0
 38 41  1  0  0  0  0
 39 52  1  0  0  0  0
 40 68  1  0  0  0  0
 41 43  1  0  0  0  0
 42 44  1  0  0  0  0
 42 46  1  0  0  0  0
 43 51  1  0  0  0  0
 44 54  1  0  0  0  0
 45 48  1  0  0  0  0
 45 50  1  0  0  0  0
 46 69  1  0  0  0  0
 47 54  1  0  0  0  0
 47 69  1  0  0  0  0
 48 75  1  0  0  0  0
 49 53  1  0  0  0  0
 49 75  1  0  0  0  0
 50 53  1  0  0  0  0
 51 73  1  0  0  0  0
 52 68  1  0  0  0  0
 53 60  1  0  0  0  0
 54 67  1  0  0  0  0
 55 63  1  0  0  0  0
 56 64  1  0  0  0  0
 57 64  1  0  0  0  0
 58 64  1  0  0  0  0
 59 76  1  0  0  0  0
 60 61  1  0  0  0  0
 61 83  1  0  0  0  0
 62 64  1  0  0  0  0
 62 74  1  0  0  0  0
 63 76  1  0  0  0  0
 66 67  1  0  0  0  0
M  CHG  2  75   1  76   1
M  ISO  4  37 100  61 101  72 100  83 101
M  END
> <Batch ID>
0120

> <Smiles>
CNC(C)C(=O)NC(C(=O)N1Cc2cc([101O:1][101CH2:1]CC3CNCCC3c3ccc([100NH:0][100C:0](=O)N4CCCC(n5nc(-c6ccc(Oc7ccc(F)cc7F)cc6)c(C(N)=O)c5N)C4)nc3)ccc2CC1C(=O)NC1CCCc2ccccc21)C(C)(C)C

> <Shape>
0.234

> <Color>
0.056

> <Negative vol penalty>
0.000

$$$$

  -OEChem-04052320233D

 90 98  0     1  0  0  0  0  0999 V2000
  -19.5981  -33.8723   20.9781 C   0  0  0  0  0  0  0  0  0  0  0  0
  -20.8612  -33.4070   20.6263 C   0  0  0  0  0  0  0  0  0  0  0  0
  -26.3954  -14.6994   22.8538 C   0  0  0  0  0  0  0  0  0  0  0  0
  -25.7286  -14.4525   20.5447 C   0  0  0  0  0  0  0  0  0  0  0  0
  -18.9261  -33.3092   22.0621 C   0  0  0  0  0  0  0  0  0  0  0  0
  -21.4533  -32.3790   21.3592 C   0  0  0  0  0  0  0  0  0  0  0  0
  -25.0970  -27.9511   19.2091 C   0  0  0  0  0  0  0  0  0  0  0  0
  -25.4440  -13.7513   23.2299 C   0  0  0  0  0  0  0  0  0  0  0  0
  -24.7773  -13.5043   20.9209 C   0  0  0  0  0  0  0  0  0  0  0  0
  -26.4833  -27.8040   19.1897 C   0  0  0  0  0  0  0  0  0  0  0  0
  -24.7207  -10.2296   21.7537 C   0  0  0  0  0  0  0  0  0  0  0  0
  -24.6309   -9.0657   20.9903 C   0  0  0  0  0  0  0  0  0  0  0  0
  -26.3647  -26.4788   21.2019 C   0  0  0  0  0  0  0  0  0  0  0  0
  -22.3314   -9.5879   20.4643 C   0  0  0  0  0  0  0  0  0  0  0  0
  -26.5377  -15.0501   21.5112 C   0  0  0  0  0  0  0  0  0  0  0  0
  -28.8597  -15.7933   20.7603 C   0  0  0  0  0  0  0  0  0  0  0  0
  -19.5062  -32.2673   22.8027 C   0  0  0  0  0  0  0  0  0  0  0  0
  -24.3339  -27.3714   20.2328 C   0  0  0  0  0  0  0  0  0  0  0  0
  -20.7889  -31.8024   22.4550 C   0  0  0  0  0  0  0  0  0  0  0  0
  -24.9686  -26.6179   21.2306 C   0  0  0  0  0  0  0  0  0  0  0  0
  -24.6350  -13.1537   22.2635 C   0  0  0  0  0  0  0  0  0  0  0  0
  -27.1176  -27.0701   20.1878 C   0  0  0  0  0  0  0  0  0  0  0  0
  -23.6158  -11.0727   21.8725 C   0  0  0  0  0  0  0  0  0  0  0  0
  -23.4363   -8.7448   20.3456 C   0  0  0  0  0  0  0  0  0  0  0  0
  -22.4212  -10.7518   21.2278 C   0  0  0  0  0  0  0  0  0  0  0  0
  -27.5199  -16.0299   21.1221 C   0  0  0  0  0  0  0  0  0  0  0  0
  -29.3649  -17.0394   20.4803 C   0  0  0  0  0  0  0  0  0  0  0  0
  -29.5828  -14.5575   20.6841 C   0  0  0  0  0  0  0  0  0  0  0  0
  -22.4227  -28.4888   22.5137 C   0  0  0  0  0  0  0  0  0  0  0  0
  -21.8474  -25.3391   23.0337 C   0  0  0  0  0  0  0  0  0  0  0  0
  -22.9204  -22.1121   22.7472 C   0  0  0  0  0  0  0  0  0  0  0  0
  -28.8901  -22.0581   18.0860 C   0  0  0  0  0  0  0  0  0  0  0  0
  -18.7613  -31.7223   23.9955 C   0  0  0  0  0  0  0  0  0  0  0  0
  -22.8369  -27.5170   20.2246 C   0  0  0  0  0  0  0  0  0  0  0  0
  -24.1929  -25.9584   22.3404 C   0  0  0  0  0  0  0  0  0  0  0  0
  -19.2996  -30.3820   24.4895 C   0  0  0  0  0  0  0  0  0  0  0  0
  -27.4281  -21.6388   21.3052 C   0  0  0  0  0  0  0  0  0  0  0  0
  -20.8216  -30.4203   24.5844 C   0  0  0  0  0  0  0  0  0  0  0  0
  -27.4265  -20.1231   21.5117 C   0  0  0  0  0  0  0  0  0  0  0  0
  -34.4641  -22.1300   19.6475 C   0  0  0  0  0  0  0  0  0  0  0  0
  -33.9936  -21.6373   18.2814 C   0  0  0  0  0  0  0  0  0  0  0  0
  -27.1516  -22.0104   19.8500 C   0  0  0  0  0  0  0  0  0  0  0  0
  -28.0364  -19.8457   19.0724 C   0  0  0  0  0  0  0  0  0  0  0  0
  -21.4539  -30.6721   23.2102 C   0  0  1  0  0  0  0  0  0  0  0  0
  -22.2093  -27.3149   21.6003 C   0  0  1  0  0  0  0  0  0  0  0  0
  -28.3662  -19.4203   20.5135 C   0  0  2  0  0  0  0  0  0  0  0  0
  -34.2127  -23.6316   19.7794 C   0  0  1  0  0  0  0  0  0  0  0  0
  -32.5389  -22.0485   18.0187 C   0  0  2  0  0  0  0  0  0  0  0  0
  -32.7456  -23.9865   19.4800 C   0  0  1  0  0  0  0  0  0  0  0  0
  -32.1111  -28.6001   15.8400 C   0  0  0  0  0  0  0  0  0  0  0  0
  -22.2506  -19.7572   23.2980 C   0  0  0  0  0  0  0  0  0  0  0  0
  -36.2878  -24.0706   22.8980 C   0  0  0  0  0  0  0  0  0  0  0  0
  -36.4921  -25.5062   20.8313 C   0  0  0  0  0  0  0  0  0  0  0  0
  -22.5865  -25.8148   25.9556 C   0  0  0  0  0  0  0  0  0  0  0  0
  -22.8250  -23.3373   26.2262 C   0  0  0  0  0  0  0  0  0  0  0  0
  -20.6149  -24.3157   25.6089 C   0  0  0  0  0  0  0  0  0  0  0  0
  -22.9102  -21.3245   19.8944 C   0  0  0  0  0  0  0  0  0  0  0  0
  -32.1033  -21.6148   16.6202 C   0  0  0  0  0  0  0  0  0  0  0  0
  -32.4839  -25.4937   19.5237 C   0  0  0  0  0  0  0  0  0  0  0  0
  -31.2431  -27.7707   16.7753 C   0  0  0  0  0  0  0  0  0  0  0  0
  -31.0090  -25.8112   19.2644 C   0  0  0  0  0  0  0  0  0  0  0  0
  -31.4900  -28.1459   18.2391 C   0  0  0  0  0  0  0  0  0  0  0  0
  -30.6449  -21.9437   16.3348 C   0  0  0  0  0  0  0  0  0  0  0  0
  -29.1781  -27.5522   19.1025 C   0  0  0  0  0  0  0  0  0  1  0  0
  -22.4711  -24.2660   23.8931 C   0  0  1  0  0  0  0  0  0  0  0  0
  -22.2226  -20.8589   22.2500 C   0  0  2  0  0  0  0  0  0  0  0  0
  -30.6890  -27.3233   19.2704 C   0  0  1  0  0  0  0  0  0  0  0  0
  -36.0309  -24.1753   21.4033 C   0  0  0  0  0  0  0  0  0  0  0  0
  -22.1395  -24.4474   25.4012 C   0  0  0  0  0  0  0  0  0  0  0  0
  -27.1946  -17.3245   21.0771 N   0  0  0  0  0  0  0  0  0  0  0  0
  -28.3372  -17.9126   20.6838 N   0  0  0  0  0  0  0  0  0  0  0  0
  -32.3678  -23.5019   18.1414 N   0  0  0  0  0  0  0  0  0  0  0  0
  -22.7321  -26.1350   22.2923 N   0  0  0  0  0  0  0  0  0  0  0  0
  -28.0776  -21.3118   18.9554 N   0  0  0  0  0  0  0  0  0  0  0  0
  -30.5836  -17.4624   20.0824 N   0  0  0  0  0  0  0  0  0  0  0  0
  -28.9118  -13.3698   21.0056 N   0  0  0  0  0  0  0  0  0  0  0  0
  -21.4443  -29.4600   22.4196 N   0  0  0  0  0  0  0  0  0  0  0  0
  -22.0349  -22.9908   23.3345 N   0  0  0  0  0  0  0  0  0  0  0  0
  -29.7435  -21.3182   17.2767 N   0  0  0  0  0  0  0  0  0  0  0  0
  -34.5701  -24.0411   21.1657 N   0  3  0  0  0  0  0  0  0  0  0  0
  -22.8867  -20.3511   21.0163 N   0  3  0  0  0  0  0  0  0  0  0  0
  -30.7928  -14.5098   20.3568 O   0  0  0  0  0  0  0  0  0  0  0  0
  -23.4018  -28.5111   23.2503 O   0  0  0  0  0  0  0  0  0  0  0  0
  -20.6201  -25.4617   23.0152 O   0  0  0  0  0  0  0  0  0  0  0  0
  -24.1306  -22.2916   22.6298 O   0  0  0  0  0  0  0  0  0  0  0  0
  -28.8611  -23.2925   18.0385 O   0  0  0  0  0  0  0  0  0  0  0  0
  -23.7067  -12.2283   22.6301 O   0  0  0  0  0  0  0  0  0  0  0  0
  -28.4706  -26.9255   20.1716 O   0  0  0  0  0  0  0  0  0  1  0  0
  -23.3508   -7.6278   19.6113 F   0  0  0  0  0  0  0  0  0  0  0  0
  -21.3567  -11.5585   21.3372 F   0  0  0  0  0  0  0  0  0  0  0  0
  1  2  1  0  0  0  0
  1  5  2  0  0  0  0
  2  6  2  0  0  0  0
  3  8  2  0  0  0  0
  3 15  1  0  0  0  0
  4  9  1  0  0  0  0
  4 15  2  0  0  0  0
  5 17  1  0  0  0  0
  6 19  1  0  0  0  0
  7 10  2  0  0  0  0
  7 18  1  0  0  0  0
  8 21  1  0  0  0  0
  9 21  2  0  0  0  0
 10 22  1  0  0  0  0
 11 12  2  0  0  0  0
 11 23  1  0  0  0  0
 12 24  1  0  0  0  0
 13 20  1  0  0  0  0
 13 22  2  0  0  0  0
 14 24  2  0  0  0  0
 14 25  1  0  0  0  0
 15 26  1  0  0  0  0
 16 26  1  0  0  0  0
 16 27  2  0  0  0  0
 16 28  1  0  0  0  0
 17 19  2  0  0  0  0
 17 33  1  0  0  0  0
 18 20  2  0  0  0  0
 18 34  1  0  0  0  0
 19 44  1  0  0  0  0
 20 35  1  0  0  0  0
 21 87  1  0  0  0  0
 22 88  1  0  0  0  0
 23 25  2  0  0  0  0
 23 87  1  0  0  0  0
 24 89  1  0  0  0  0
 25 90  1  0  0  0  0
 26 70  2  0  0  0  0
 27 71  1  0  0  0  0
 27 75  1  0  0  0  0
 28 76  1  0  0  0  0
 28 82  2  0  0  0  0
 29 45  1  0  0  0  0
 29 77  1  0  0  0  0
 29 83  2  0  0  0  0
 30 65  1  0  0  0  0
 30 73  1  0  0  0  0
 30 84  2  0  0  0  0
 31 66  1  0  0  0  0
 31 78  1  0  0  0  0
 31 85  2  0  0  0  0
 32 74  1  0  0  0  0
 32 79  1  0  0  0  0
 32 86  2  0  0  0  0
 33 36  1  0  0  0  0
 34 45  1  0  0  0  0
 35 73  1  0  0  0  0
 36 38  1  0  0  0  0
 37 39  1  0  0  0  0
 37 42  1  0  0  0  0
 38 44  1  0  0  0  0
 39 46  1  0  0  0  0
 40 41  1  0  0  0  0
 40 47  1  0  0  0  0
 41 48  1  0  0  0  0
 42 74  1  0  0  0  0
 43 46  1  0  0  0  0
 43 74  1  0  0  0  0
 44 77  1  0  0  0  0
 45 73  1  0  0  0  0
 46 71  1  0  0  0  0
 47 49  1  0  0  0  0
 47 80  1  0  0  0  0
 48 58  1  0  0  0  0
 48 72  1  0  0  0  0
 49 59  1  0  0  0  0
 49 72  1  0  0  0  0
 50 60  1  0  0  0  0
 51 66  1  0  0  0  0
 52 68  1  0  0  0  0
 53 68  1  0  0  0  0
 54 69  1  0  0  0  0
 55 69  1  0  0  0  0
 56 69  1  0  0  0  0
 57 81  1  0  0  0  0
 58 63  1  0  0  0  0
 59 61  1  0  0  0  0
 60 62  1  0  0  0  0
 61 67  1  0  0  0  0
 62 67  1  0  0  0  0
 63 79  1  0  0  0  0
 64 67  1  0  0  0  0
 64 88  1  0  0  0  0
 65 69  1  0  0  0  0
 65 78  1  0  0  0  0
 66 81  1  0  0  0  0
 68 80  1  0  0  0  0
 70 71  1  0  0  0  0
M  CHG  2  80   1  81   1
M  ISO  4  32 100  64 101  79 100  88 101
M  END
> <Batch ID>
0120

> <Smiles>
CCCC(CCC1NC(CC[100NH:0][100C:0](=O)N2CCCC(n3nc(-c4ccc(Oc5ccc(F)cc5F)cc4)c(C(N)=O)c3N)C2)CCC1NC(C)C)[101CH2:1][101O:1]c1ccc2c(c1)CN(C(=O)C(NC(=O)C(C)NC)C(C)(C)C)C(C(=O)NC1CCCc3ccccc31)C2

> <Shape>
0.213

> <Color>
0.097

> <Negative vol penalty>
0.000

$$$$

  -OEChem-04052320233D

 84 92  0     1  0  0  0  0  0999 V2000
  -26.1132  -19.0965   14.8984 C   0  0  0  0  0  0  0  0  0  0  0  0
  -26.8441  -20.2742   14.7903 C   0  0  0  0  0  0  0  0  0  0  0  0
  -23.4772  -14.0733   21.6797 C   0  0  0  0  0  0  0  0  0  0  0  0
  -24.1911  -14.8548   19.5080 C   0  0  0  0  0  0  0  0  0  0  0  0
  -24.9705  -19.0605   15.6947 C   0  0  0  0  0  0  0  0  0  0  0  0
  -26.4393  -21.4129   15.4879 C   0  0  0  0  0  0  0  0  0  0  0  0
  -25.8880  -28.5510   19.7476 C   0  0  0  0  0  0  0  0  0  0  0  0
  -24.4618  -13.0859   21.6482 C   0  0  0  0  0  0  0  0  0  0  0  0
  -25.1758  -13.8674   19.4764 C   0  0  0  0  0  0  0  0  0  0  0  0
  -25.0833  -29.0122   20.7886 C   0  0  0  0  0  0  0  0  0  0  0  0
  -28.1123  -11.7813   18.9830 C   0  0  0  0  0  0  0  0  0  0  0  0
  -29.3902  -12.1520   18.5644 C   0  0  0  0  0  0  0  0  0  0  0  0
  -25.2257  -26.8500   21.8486 C   0  0  0  0  0  0  0  0  0  0  0  0
  -29.5252  -13.7386   20.3814 C   0  0  0  0  0  0  0  0  0  0  0  0
  -23.3417  -14.9578   20.6096 C   0  0  0  0  0  0  0  0  0  0  0  0
  -22.1832  -17.0083   21.5898 C   0  0  0  0  0  0  0  0  0  0  0  0
  -24.5452  -20.2032   16.3921 C   0  0  0  0  0  0  0  0  0  0  0  0
  -26.3594  -27.2303   19.7439 C   0  0  0  0  0  0  0  0  0  0  0  0
  -25.3023  -21.3899   16.3156 C   0  0  0  0  0  0  0  0  0  0  0  0
  -26.0383  -26.3752   20.8078 C   0  0  0  0  0  0  0  0  0  0  0  0
  -25.3112  -12.9830   20.5465 C   0  0  0  0  0  0  0  0  0  0  0  0
  -24.7497  -28.1608   21.8378 C   0  0  0  0  0  0  0  0  0  0  0  0
  -27.5408  -12.3894   20.1007 C   0  0  0  0  0  0  0  0  0  0  0  0
  -30.0967  -13.1306   19.2636 C   0  0  0  0  0  0  0  0  0  0  0  0
  -28.2473  -13.3680   20.8000 C   0  0  0  0  0  0  0  0  0  0  0  0
  -22.3244  -15.9776   20.6414 C   0  0  0  0  0  0  0  0  0  0  0  0
  -21.0719  -17.7030   21.1790 C   0  0  0  0  0  0  0  0  0  0  0  0
  -22.9851  -17.3108   22.7392 C   0  0  0  0  0  0  0  0  0  0  0  0
  -25.9919  -24.7228   17.8252 C   0  0  0  0  0  0  0  0  0  0  0  0
  -28.1982  -23.3866   19.7922 C   0  0  0  0  0  0  0  0  0  0  0  0
  -28.8563  -23.3010   23.3386 C   0  0  0  0  0  0  0  0  0  0  0  0
  -18.0278  -20.0697   17.1445 C   0  0  0  0  0  0  0  0  0  0  0  0
  -23.3054  -20.1061   17.2459 C   0  0  0  0  0  0  0  0  0  0  0  0
  -27.2484  -26.7561   18.6271 C   0  0  0  0  0  0  0  0  0  0  0  0
  -26.5356  -24.9545   20.8611 C   0  0  0  0  0  0  0  0  0  0  0  0
  -22.7108  -21.4685   17.5875 C   0  0  0  0  0  0  0  0  0  0  0  0
  -17.5909  -16.5779   17.6857 C   0  0  0  0  0  0  0  0  0  0  0  0
  -23.7982  -22.3930   18.1140 C   0  0  0  0  0  0  0  0  0  0  0  0
  -16.6899  -24.2080   18.7796 C   0  0  0  0  0  0  0  0  0  0  0  0
  -18.9100  -24.9007   17.7900 C   0  0  0  0  0  0  0  0  0  0  0  0
  -18.7747  -16.1947   18.5755 C   0  0  0  0  0  0  0  0  0  0  0  0
  -17.1571  -22.7526   18.8145 C   0  0  0  0  0  0  0  0  0  0  0  0
  -19.3808  -23.4463   17.8224 C   0  0  0  0  0  0  0  0  0  0  0  0
  -17.9769  -17.6410   16.6596 C   0  0  0  0  0  0  0  0  0  0  0  0
  -19.7846  -18.4681   18.1164 C   0  0  0  0  0  0  0  0  0  0  0  0
  -24.8639  -22.6493   17.0409 C   0  0  1  0  0  0  0  0  0  0  0  0
  -27.2487  -25.2390   18.4668 C   0  0  1  0  0  0  0  0  0  0  0  0
  -17.8472  -25.2144   18.8528 C   0  0  0  0  0  0  0  0  0  0  0  0
  -19.4299  -17.4394   19.2037 C   0  0  2  0  0  0  0  0  0  0  0  0
  -18.2029  -22.4745   17.7326 C   0  0  0  0  0  0  0  0  0  0  0  0
  -31.0066  -22.9795   24.5916 C   0  0  0  0  0  0  0  0  0  0  0  0
  -27.3911  -20.4445   19.8442 C   0  0  0  0  0  0  0  0  0  0  0  0
  -28.3014  -20.3079   22.1725 C   0  0  0  0  0  0  0  0  0  0  0  0
  -29.8182  -20.8681   20.2730 C   0  0  0  0  0  0  0  0  0  0  0  0
  -28.4870  -25.8187   24.8498 C   0  0  0  0  0  0  0  0  0  0  0  0
  -18.4536  -25.2780   20.2574 C   0  0  0  0  0  0  0  0  0  0  0  0
  -19.2667  -26.5561   20.4595 C   0  0  0  0  0  0  0  0  0  0  0  0
  -21.8172  -29.4771   23.4793 C   0  0  0  0  0  0  0  0  0  0  0  0
  -19.8337  -26.6253   21.8696 C   0  0  0  0  0  0  0  0  0  0  0  0
  -21.1287  -28.1233   23.3920 C   0  0  0  0  0  0  0  0  0  0  0  0
  -23.0087  -29.6207   22.5404 C   0  0  0  0  0  0  0  0  0  1  0  0
  -28.1451  -22.5871   21.0716 C   0  0  1  0  0  0  0  0  0  0  0  0
  -29.9963  -23.9885   24.0681 C   0  0  2  0  0  0  0  0  0  0  0  0
  -28.3937  -21.0708   20.8338 C   0  0  0  0  0  0  0  0  0  0  0  0
  -21.3781  -16.0107   19.6992 N   0  0  0  0  0  0  0  0  0  0  0  0
  -20.6318  -17.0706   20.0536 N   0  0  0  0  0  0  0  0  0  0  0  0
  -27.3966  -24.5358   19.7427 N   0  0  0  0  0  0  0  0  0  0  0  0
  -18.5912  -18.7951   17.3204 N   0  0  0  0  0  0  0  0  0  0  0  0
  -20.4378  -18.7870   21.6744 N   0  0  0  0  0  0  0  0  0  0  0  0
  -24.0909  -16.4953   23.0158 N   0  0  0  0  0  0  0  0  0  0  0  0
  -25.9765  -23.3537   17.6392 N   0  0  0  0  0  0  0  0  0  0  0  0
  -29.0965  -23.2128   21.9837 N   0  0  0  0  0  0  0  0  0  0  0  0
  -18.6679  -21.1075   17.8108 N   0  0  0  0  0  0  0  0  0  0  0  0
  -29.4741  -24.7730   25.2226 N   0  3  0  0  0  0  0  0  0  0  0  0
  -20.5779  -27.9046   22.0339 N   0  3  0  0  0  0  0  0  0  0  0  0
  -22.7190  -18.2658   23.5078 O   0  0  0  0  0  0  0  0  0  0  0  0
  -25.1014  -25.5085   17.5226 O   0  0  0  0  0  0  0  0  0  0  0  0
  -28.9295  -23.0093   18.8732 O   0  0  0  0  0  0  0  0  0  0  0  0
  -27.8547  -22.8808   23.9136 O   0  0  0  0  0  0  0  0  0  0  0  0
  -17.0251  -20.2674   16.4498 O   0  0  0  0  0  0  0  0  0  0  0  0
  -26.2724  -12.0198   20.5155 O   0  0  0  0  0  0  0  0  0  0  0  0
  -23.9639  -28.6082   22.8548 O   0  0  0  0  0  0  0  0  0  1  0  0
  -31.3244  -13.4853   18.8625 F   0  0  0  0  0  0  0  0  0  0  0  0
  -27.7039  -13.9548   21.8753 F   0  0  0  0  0  0  0  0  0  0  0  0
  1  2  1  0  0  0  0
  1  5  2  0  0  0  0
  2  6  2  0  0  0  0
  3  8  2  0  0  0  0
  3 15  1  0  0  0  0
  4  9  1  0  0  0  0
  4 15  2  0  0  0  0
  5 17  1  0  0  0  0
  6 19  1  0  0  0  0
  7 10  2  0  0  0  0
  7 18  1  0  0  0  0
  8 21  1  0  0  0  0
  9 21  2  0  0  0  0
 10 22  1  0  0  0  0
 11 12  2  0  0  0  0
 11 23  1  0  0  0  0
 12 24  1  0  0  0  0
 13 20  1  0  0  0  0
 13 22  2  0  0  0  0
 14 24  2  0  0  0  0
 14 25  1  0  0  0  0
 15 26  1  0  0  0  0
 16 26  1  0  0  0  0
 16 27  2  0  0  0  0
 16 28  1  0  0  0  0
 17 19  2  0  0  0  0
 17 33  1  0  0  0  0
 18 20  2  0  0  0  0
 18 34  1  0  0  0  0
 19 46  1  0  0  0  0
 20 35  1  0  0  0  0
 21 81  1  0  0  0  0
 22 82  1  0  0  0  0
 23 25  2  0  0  0  0
 23 81  1  0  0  0  0
 24 83  1  0  0  0  0
 25 84  1  0  0  0  0
 26 65  2  0  0  0  0
 27 66  1  0  0  0  0
 27 69  1  0  0  0  0
 28 70  1  0  0  0  0
 28 76  2  0  0  0  0
 29 47  1  0  0  0  0
 29 71  1  0  0  0  0
 29 77  2  0  0  0  0
 30 62  1  0  0  0  0
 30 67  1  0  0  0  0
 30 78  2  0  0  0  0
 31 63  1  0  0  0  0
 31 72  1  0  0  0  0
 31 79  2  0  0  0  0
 32 68  1  0  0  0  0
 32 73  1  0  0  0  0
 32 80  2  0  0  0  0
 33 36  1  0  0  0  0
 34 47  1  0  0  0  0
 35 67  1  0  0  0  0
 36 38  1  0  0  0  0
 37 41  1  0  0  0  0
 37 44  1  0  0  0  0
 38 46  1  0  0  0  0
 39 42  1  0  0  0  0
 39 48  1  0  0  0  0
 40 43  1  0  0  0  0
 40 48  1  0  0  0  0
 41 49  1  0  0  0  0
 42 50  1  0  0  0  0
 43 50  1  0  0  0  0
 44 68  1  0  0  0  0
 45 49  1  0  0  0  0
 45 68  1  0  0  0  0
 46 71  1  0  0  0  0
 47 67  1  0  0  0  0
 48 56  1  0  0  0  0
 49 66  1  0  0  0  0
 50 73  1  0  0  0  0
 51 63  1  0  0  0  0
 52 64  1  0  0  0  0
 53 64  1  0  0  0  0
 54 64  1  0  0  0  0
 55 74  1  0  0  0  0
 56 57  1  0  0  0  0
 57 59  1  0  0  0  0
 58 60  1  0  0  0  0
 58 61  1  0  0  0  0
 59 75  1  0  0  0  0
 60 75  1  0  0  0  0
 61 82  1  0  0  0  0
 62 64  1  0  0  0  0
 62 72  1  0  0  0  0
 63 74  1  0  0  0  0
 65 66  1  0  0  0  0
M  CHG  2  74   1  75   1
M  ISO  4  32 100  61 101  73 100  82 101
M  END
> <Batch ID>
0120

> <Smiles>
CNC(C)C(=O)NC(C(=O)N1Cc2cc([101O:1][101CH2:1]CCNCCCC3CCC([100NH:0][100C:0](=O)N4CCCC(n5nc(-c6ccc(Oc7ccc(F)cc7F)cc6)c(C(N)=O)c5N)C4)CC3)ccc2CC1C(=O)NC1CCCc2ccccc21)C(C)(C)C

> <Shape>
0.176

> <Color>
0.073

> <Negative vol penalty>
0.000

$$$$

  -OEChem-04052320233D

 84 92  0     1  0  0  0  0  0999 V2000
  -18.0022  -29.9659   25.1423 C   0  0  0  0  0  0  0  0  0  0  0  0
  -19.2427  -29.5988   25.6538 C   0  0  0  0  0  0  0  0  0  0  0  0
  -26.4311  -14.0626   21.6703 C   0  0  0  0  0  0  0  0  0  0  0  0
  -26.2933  -14.0525   19.2582 C   0  0  0  0  0  0  0  0  0  0  0  0
  -17.5747  -29.4532   23.9183 C   0  0  0  0  0  0  0  0  0  0  0  0
  -20.0561  -28.7177   24.9421 C   0  0  0  0  0  0  0  0  0  0  0  0
  -26.9571  -27.3020   23.6431 C   0  0  0  0  0  0  0  0  0  0  0  0
  -25.5281  -13.0011   21.7263 C   0  0  0  0  0  0  0  0  0  0  0  0
  -25.3903  -12.9909   19.3143 C   0  0  0  0  0  0  0  0  0  0  0  0
  -27.8651  -26.2447   23.6797 C   0  0  0  0  0  0  0  0  0  0  0  0
  -22.1870  -12.5576   21.4718 C   0  0  0  0  0  0  0  0  0  0  0  0
  -21.1532  -12.6358   22.4049 C   0  0  0  0  0  0  0  0  0  0  0  0
  -27.0566  -25.4841   21.5379 C   0  0  0  0  0  0  0  0  0  0  0  0
  -21.9461  -10.6087   23.4533 C   0  0  0  0  0  0  0  0  0  0  0  0
  -31.2841  -25.0736   20.5884 C   0  0  0  0  0  0  0  0  0  0  0  0
  -26.8138  -14.5884   20.4362 C   0  0  0  0  0  0  0  0  0  0  0  0
  -29.1493  -15.6050   20.2976 C   0  0  0  0  0  0  0  0  0  0  0  0
  -18.3873  -28.5729   23.1866 C   0  0  0  0  0  0  0  0  0  0  0  0
  -26.0831  -27.4523   22.5569 C   0  0  0  0  0  0  0  0  0  0  0  0
  -19.6384  -28.1916   23.7077 C   0  0  0  0  0  0  0  0  0  0  0  0
  -26.1402  -26.5457   21.4888 C   0  0  0  0  0  0  0  0  0  0  0  0
  -25.0077  -12.4652   20.5484 C   0  0  0  0  0  0  0  0  0  0  0  0
  -27.9130  -25.3339   22.6284 C   0  0  0  0  0  0  0  0  0  0  0  0
  -23.1003  -11.5049   21.5293 C   0  0  0  0  0  0  0  0  0  0  0  0
  -21.0327  -11.6614   23.3956 C   0  0  0  0  0  0  0  0  0  0  0  0
  -22.9799  -10.5305   22.5201 C   0  0  0  0  0  0  0  0  0  0  0  0
  -27.7461  -15.6853   20.3776 C   0  0  0  0  0  0  0  0  0  0  0  0
  -31.3700  -23.9119   21.3027 C   0  0  0  0  0  0  0  0  0  0  0  0
  -29.5670  -16.9131   20.2674 C   0  0  0  0  0  0  0  0  0  0  0  0
  -31.9106  -23.4646   19.2031 C   0  0  0  0  0  0  0  0  0  0  0  0
  -29.9992  -14.4511   20.2543 C   0  0  0  0  0  0  0  0  0  0  0  0
  -22.9247  -27.4307   22.1996 C   0  0  0  0  0  0  0  0  0  0  0  0
  -23.6541  -28.2772   19.1543 C   0  0  0  0  0  0  0  0  0  0  0  0
  -25.9387  -28.2903   16.6191 C   0  0  0  0  0  0  0  0  0  0  0  0
  -29.0752  -22.1362   18.3639 C   0  0  0  0  0  0  0  0  0  0  0  0
  -17.8621  -28.0077   21.8906 C   0  0  0  0  0  0  0  0  0  0  0  0
  -25.1278  -28.6136   22.5201 C   0  0  0  0  0  0  0  0  0  0  0  0
  -25.2374  -26.6745   20.2901 C   0  0  0  0  0  0  0  0  0  0  0  0
  -18.9437  -27.3726   21.0205 C   0  0  0  0  0  0  0  0  0  0  0  0
  -27.0236  -21.2016   21.1197 C   0  0  0  0  0  0  0  0  0  0  0  0
  -19.8375  -26.4637   21.8583 C   0  0  0  0  0  0  0  0  0  0  0  0
  -27.1396  -19.6769   21.1615 C   0  0  0  0  0  0  0  0  0  0  0  0
  -27.0206  -21.7282   19.6863 C   0  0  0  0  0  0  0  0  0  0  0  0
  -28.2733  -19.7562   18.9016 C   0  0  0  0  0  0  0  0  0  0  0  0
  -20.5598  -27.2577   22.9534 C   0  0  1  0  0  0  0  0  0  0  0  0
  -23.9313  -28.3742   21.6045 C   0  0  1  0  0  0  0  0  0  0  0  0
  -28.3368  -19.1825   20.3275 C   0  0  2  0  0  0  0  0  0  0  0  0
  -32.4082  -23.7289   23.5875 C   0  0  0  0  0  0  0  0  0  0  0  0
  -26.2334  -29.0214   14.2366 C   0  0  0  0  0  0  0  0  0  0  0  0
  -30.3311  -26.4041   17.9285 C   0  0  0  0  0  0  0  0  0  0  0  0
  -21.9442  -25.9275   18.2243 C   0  0  0  0  0  0  0  0  0  0  0  0
  -23.0230  -26.1234   15.9735 C   0  0  0  0  0  0  0  0  0  0  0  0
  -21.6703  -28.0154   16.8753 C   0  0  0  0  0  0  0  0  0  0  0  0
  -28.1790  -30.0901   17.3267 C   0  0  0  0  0  0  0  0  0  0  0  0
  -32.3233  -22.7239   17.9850 C   0  0  0  0  0  0  0  0  0  0  0  0
  -31.1602  -22.3836   17.0407 C   0  0  0  0  0  0  0  0  0  0  0  0
  -30.0231  -24.5171   23.3606 C   0  0  0  0  0  0  0  0  0  1  0  0
  -31.1169  -23.6152   22.7724 C   0  0  1  0  0  0  0  0  0  0  0  0
  -23.9403  -27.5274   17.8757 C   0  0  1  0  0  0  0  0  0  0  0  0
  -26.4154  -29.3992   15.6985 C   0  0  2  0  0  0  0  0  0  0  0  0
  -31.6657  -25.7143   18.1961 C   0  0  2  0  0  0  0  0  0  0  0  0
  -22.6603  -26.8946   17.2605 C   0  0  0  0  0  0  0  0  0  0  0  0
  -27.3021  -16.9449   20.3972 N   0  0  0  0  0  0  0  0  0  0  0  0
  -31.6244  -24.7675   19.2928 N   0  0  0  0  0  0  0  0  0  0  0  0
  -28.4328  -17.6680   20.3291 N   0  0  0  0  0  0  0  0  0  0  0  0
  -31.7593  -22.9330   20.4205 N   0  3  0  0  0  0  0  0  0  0  0  0
  -24.3163  -27.8230   20.3037 N   0  0  0  0  0  0  0  0  0  0  0  0
  -28.1823  -21.2239   18.9501 N   0  0  0  0  0  0  0  0  0  0  0  0
  -30.7901  -17.4797   20.1944 N   0  0  0  0  0  0  0  0  0  0  0  0
  -29.4056  -13.1821   20.2943 N   0  0  0  0  0  0  0  0  0  0  0  0
  -21.6760  -27.9897   22.3943 N   0  0  0  0  0  0  0  0  0  0  0  0
  -24.6241  -28.4684   16.9950 N   0  0  0  0  0  0  0  0  0  0  0  0
  -30.1529  -21.5746   17.6901 N   0  0  0  0  0  0  0  0  0  0  0  0
  -27.8593  -29.6833   15.9341 N   0  3  0  0  0  0  0  0  0  0  0  0
  -31.2491  -14.5427   20.1989 O   0  0  0  0  0  0  0  0  0  0  0  0
  -23.2559  -26.2802   22.4613 O   0  0  0  0  0  0  0  0  0  0  0  0
  -22.8773  -29.2352   19.1327 O   0  0  0  0  0  0  0  0  0  0  0  0
  -26.6593  -27.3573   16.9668 O   0  0  0  0  0  0  0  0  0  0  0  0
  -28.9261  -23.3604   18.4402 O   0  0  0  0  0  0  0  0  0  0  0  0
  -24.1266  -11.4291   20.6027 O   0  0  0  0  0  0  0  0  0  0  0  0
  -28.7979  -24.3006   22.6618 O   0  0  0  0  0  0  0  0  0  1  0  0
  -20.0408  -11.7374   24.2926 F   0  0  0  0  0  0  0  0  0  0  0  0
  -23.8550   -9.5174   22.5812 F   0  0  0  0  0  0  0  0  0  0  0  0
  -32.9320  -26.9394   18.5076 Cl  0  0  0  0  0  0  0  0  0  0  0  0
  1  2  1  0  0  0  0
  1  5  2  0  0  0  0
  2  6  2  0  0  0  0
  3  8  2  0  0  0  0
  3 16  1  0  0  0  0
  4  9  1  0  0  0  0
  4 16  2  0  0  0  0
  5 18  1  0  0  0  0
  6 20  1  0  0  0  0
  7 10  2  0  0  0  0
  7 19  1  0  0  0  0
  8 22  1  0  0  0  0
  9 22  2  0  0  0  0
 10 23  1  0  0  0  0
 11 12  2  0  0  0  0
 11 24  1  0  0  0  0
 12 25  1  0  0  0  0
 13 21  1  0  0  0  0
 13 23  2  0  0  0  0
 14 25  2  0  0  0  0
 14 26  1  0  0  0  0
 15 28  2  0  0  0  0
 15 64  1  0  0  0  0
 16 27  1  0  0  0  0
 17 27  1  0  0  0  0
 17 29  2  0  0  0  0
 17 31  1  0  0  0  0
 18 20  2  0  0  0  0
 18 36  1  0  0  0  0
 19 21  2  0  0  0  0
 19 37  1  0  0  0  0
 20 45  1  0  0  0  0
 21 38  1  0  0  0  0
 22 80  1  0  0  0  0
 23 81  1  0  0  0  0
 24 26  2  0  0  0  0
 24 80  1  0  0  0  0
 25 82  1  0  0  0  0
 26 83  1  0  0  0  0
 27 63  2  0  0  0  0
 28 58  1  0  0  0  0
 28 66  1  0  0  0  0
 29 65  1  0  0  0  0
 29 69  1  0  0  0  0
 30 55  1  0  0  0  0
 30 64  1  0  0  0  0
 30 66  2  0  0  0  0
 31 70  1  0  0  0  0
 31 75  2  0  0  0  0
 32 46  1  0  0  0  0
 32 71  1  0  0  0  0
 32 76  2  0  0  0  0
 33 59  1  0  0  0  0
 33 67  1  0  0  0  0
 33 77  2  0  0  0  0
 34 60  1  0  0  0  0
 34 72  1  0  0  0  0
 34 78  2  0  0  0  0
 35 68  1  0  0  0  0
 35 73  1  0  0  0  0
 35 79  2  0  0  0  0
 36 39  1  0  0  0  0
 37 46  1  0  0  0  0
 38 67  1  0  0  0  0
 39 41  1  0  0  0  0
 40 42  1  0  0  0  0
 40 43  1  0  0  0  0
 41 45  1  0  0  0  0
 42 47  1  0  0  0  0
 43 68  1  0  0  0  0
 44 47  1  0  0  0  0
 44 68  1  0  0  0  0
 45 71  1  0  0  0  0
 46 67  1  0  0  0  0
 47 65  1  0  0  0  0
 48 58  1  0  0  0  0
 49 60  1  0  0  0  0
 50 61  1  0  0  0  0
 51 62  1  0  0  0  0
 52 62  1  0  0  0  0
 53 62  1  0  0  0  0
 54 74  1  0  0  0  0
 55 56  1  0  0  0  0
 56 73  1  0  0  0  0
 57 58  1  0  0  0  0
 57 81  1  0  0  0  0
 59 62  1  0  0  0  0
 59 72  1  0  0  0  0
 60 74  1  0  0  0  0
 61 64  1  0  0  0  0
 61 84  1  0  0  0  0
 63 65  1  0  0  0  0
M  CHG  2  66   1  74   1
M  ISO  4  35 100  57 101  73 100  81 101
M  END
> <Batch ID>
0120

> <Smiles>
CNC(C)C(=O)NC(C(=O)N1Cc2cc([101O:1][101CH2:1]C(C)c3cn(C(C)Cl)c(CC[100NH:0][100C:0](=O)N4CCCC(n5nc(-c6ccc(Oc7ccc(F)cc7F)cc6)c(C(N)=O)c5N)C4)n3)ccc2CC1C(=O)NC1CCCc2ccccc21)C(C)(C)C

> <Shape>
0.238

> <Color>
0.072

> <Negative vol penalty>
0.000

$$$$

  -OEChem-04052320233D

 84 93  0     1  0  0  0  0  0999 V2000
  -28.1370  -21.6829   16.5861 C   0  0  0  0  0  0  0  0  0  0  0  0
  -27.2056  -21.4258   17.5870 C   0  0  0  0  0  0  0  0  0  0  0  0
  -17.6869  -18.8475   24.3158 C   0  0  0  0  0  0  0  0  0  0  0  0
  -27.7195  -17.0014   19.0470 C   0  0  0  0  0  0  0  0  0  0  0  0
  -27.3581  -17.2873   21.4186 C   0  0  0  0  0  0  0  0  0  0  0  0
  -28.8016  -22.9081   16.5519 C   0  0  0  0  0  0  0  0  0  0  0  0
  -26.9392  -22.3934   18.5551 C   0  0  0  0  0  0  0  0  0  0  0  0
  -21.9831  -22.9467   19.4363 C   0  0  0  0  0  0  0  0  0  0  0  0
  -18.3287  -19.6476   23.3705 C   0  0  0  0  0  0  0  0  0  0  0  0
  -18.2173  -17.6016   24.6506 C   0  0  0  0  0  0  0  0  0  0  0  0
  -28.3044  -18.2661   18.9836 C   0  0  0  0  0  0  0  0  0  0  0  0
  -27.9430  -18.5520   21.3553 C   0  0  0  0  0  0  0  0  0  0  0  0
  -21.3678  -21.9859   20.2376 C   0  0  0  0  0  0  0  0  0  0  0  0
  -31.0609  -19.8486   21.2201 C   0  0  0  0  0  0  0  0  0  0  0  0
  -31.9845  -20.1841   22.2100 C   0  0  0  0  0  0  0  0  0  0  0  0
  -21.4939  -23.4859   22.1226 C   0  0  0  0  0  0  0  0  0  0  0  0
  -30.5932  -22.0429   22.8781 C   0  0  0  0  0  0  0  0  0  0  0  0
  -27.2463  -16.5120   20.2645 C   0  0  0  0  0  0  0  0  0  0  0  0
  -27.2893  -13.9806   20.5771 C   0  0  0  0  0  0  0  0  0  0  0  0
  -28.5361  -23.8949   17.5144 C   0  0  0  0  0  0  0  0  0  0  0  0
  -22.3690  -24.1822   19.9757 C   0  0  0  0  0  0  0  0  0  0  0  0
  -27.6019  -23.6324   18.5346 C   0  0  0  0  0  0  0  0  0  0  0  0
  -22.1117  -24.4616   21.3254 C   0  0  0  0  0  0  0  0  0  0  0  0
  -20.0313  -17.9557   23.0946 C   0  0  0  0  0  0  0  0  0  0  0  0
  -19.5009  -19.2017   22.7599 C   0  0  0  0  0  0  0  0  0  0  0  0
  -28.4162  -19.0414   20.1378 C   0  0  0  0  0  0  0  0  0  0  0  0
  -21.1257  -22.2543   21.5816 C   0  0  0  0  0  0  0  0  0  0  0  0
  -19.3894  -17.1557   24.0400 C   0  0  0  0  0  0  0  0  0  0  0  0
  -29.9035  -20.6103   21.0591 C   0  0  0  0  0  0  0  0  0  0  0  0
  -31.7507  -21.2812   23.0390 C   0  0  0  0  0  0  0  0  0  0  0  0
  -29.6696  -21.7074   21.8881 C   0  0  0  0  0  0  0  0  0  0  0  0
  -26.6415  -15.2059   20.3305 C   0  0  0  0  0  0  0  0  0  0  0  0
  -26.2833  -13.0463   20.5373 C   0  0  0  0  0  0  0  0  0  0  0  0
  -28.6763  -13.7111   20.8205 C   0  0  0  0  0  0  0  0  0  0  0  0
  -25.1369  -25.6988   20.3530 C   0  0  0  0  0  0  0  0  0  0  0  0
  -23.2272  -28.1199   21.3599 C   0  0  0  0  0  0  0  0  0  0  0  0
  -20.2349  -29.0913   22.6825 C   0  0  0  0  0  0  0  0  0  0  0  0
  -20.3798  -13.3682   21.4836 C   0  0  0  0  0  0  0  0  0  0  0  0
  -29.3141  -25.1859   17.4641 C   0  0  0  0  0  0  0  0  0  0  0  0
  -23.0076  -25.2181   19.0917 C   0  0  0  0  0  0  0  0  0  0  0  0
  -22.4882  -25.7803   21.9480 C   0  0  0  0  0  0  0  0  0  0  0  0
  -28.7003  -26.3002   18.3080 C   0  0  0  0  0  0  0  0  0  0  0  0
  -22.0162  -12.2213   18.5368 C   0  0  0  0  0  0  0  0  0  0  0  0
  -22.4470  -17.0656   23.3089 C   0  0  0  0  0  0  0  0  0  0  0  0
  -22.5210  -18.3305   22.5122 C   0  0  0  0  0  0  0  0  0  0  0  0
  -28.3206  -25.7762   19.6893 C   0  0  0  0  0  0  0  0  0  0  0  0
  -23.4456  -12.7456   18.6846 C   0  0  0  0  0  0  0  0  0  0  0  0
  -20.9923  -13.2109   19.0884 C   0  0  0  0  0  0  0  0  0  0  0  0
  -22.6645  -14.1679   20.6251 C   0  0  0  0  0  0  0  0  0  0  0  0
  -21.2868  -17.4730   22.4422 C   0  0  0  0  0  0  0  0  0  0  0  0
  -27.2674  -24.6662   19.5879 C   0  0  1  0  0  0  0  0  0  0  0  0
  -23.8239  -26.2460   19.8692 C   0  0  1  0  0  0  0  0  0  0  0  0
  -23.7365  -13.1801   20.1337 C   0  0  2  0  0  0  0  0  0  0  0  0
  -18.9802  -31.1330   23.4273 C   0  0  0  0  0  0  0  0  0  0  0  0
  -24.9125  -28.2254   23.9013 C   0  0  0  0  0  0  0  0  0  0  0  0
  -23.0895  -29.5671   24.9712 C   0  0  0  0  0  0  0  0  0  0  0  0
  -24.2847  -30.4608   22.9723 C   0  0  0  0  0  0  0  0  0  0  0  0
  -18.0907  -28.6417   20.6926 C   0  0  0  0  0  0  0  0  0  0  0  0
  -20.1708  -20.0825   21.7466 C   0  0  0  0  0  0  0  0  0  1  0  0
  -19.9180  -13.5781   23.9129 C   0  0  0  0  0  0  0  0  0  0  0  0
  -19.0543  -14.8038   24.1505 C   0  0  0  0  0  0  0  0  0  0  0  0
  -22.6555  -28.5482   22.6898 C   0  0  1  0  0  0  0  0  0  0  0  0
  -19.2596  -30.1809   22.2749 C   0  0  2  0  0  0  0  0  0  0  0  0
  -23.7301  -29.1747   23.6227 C   0  0  0  0  0  0  0  0  0  0  0  0
  -25.3259  -15.0659   20.1474 N   0  0  0  0  0  0  0  0  0  0  0  0
  -25.1388  -13.7416   20.2789 N   0  0  0  0  0  0  0  0  0  0  0  0
  -23.1158  -26.7584   21.0441 N   0  0  0  0  0  0  0  0  0  0  0  0
  -21.3246  -13.5811   20.4662 N   0  0  0  0  0  0  0  0  0  0  0  0
  -26.2750  -11.7060   20.6984 N   0  0  0  0  0  0  0  0  0  0  0  0
  -29.5748  -14.7867   20.8270 N   0  0  0  0  0  0  0  0  0  0  0  0
  -25.9581  -25.2325   19.3443 N   0  0  0  0  0  0  0  0  0  0  0  0
  -21.5371  -29.4347   22.3869 N   0  0  0  0  0  0  0  0  0  0  0  0
  -20.7775  -13.7411   22.7616 N   0  0  0  0  0  0  0  0  0  0  0  0
  -17.9674  -29.5819   21.8363 N   0  3  0  0  0  0  0  0  0  0  0  0
  -29.1086  -12.5489   21.0099 O   0  0  0  0  0  0  0  0  0  0  0  0
  -25.3872  -25.7010   21.5527 O   0  0  0  0  0  0  0  0  0  0  0  0
  -23.7468  -28.9635   20.6251 O   0  0  0  0  0  0  0  0  0  0  0  0
  -19.8775  -28.0421   23.2136 O   0  0  0  0  0  0  0  0  0  0  0  0
  -19.2663  -12.8768   21.2696 O   0  0  0  0  0  0  0  0  0  0  0  0
  -28.9871  -20.2755   20.0764 O   0  0  0  0  0  0  0  0  0  0  0  0
  -20.5257  -21.3181   22.3661 O   0  0  0  0  0  0  0  0  0  1  0  0
  -19.8909  -15.9354   24.3811 O   0  0  0  0  0  0  0  0  0  0  0  0
  -32.6370  -21.6024   23.9906 F   0  0  0  0  0  0  0  0  0  0  0  0
  -28.5589  -22.4422   21.7390 F   0  0  0  0  0  0  0  0  0  0  0  0
  1  2  1  0  0  0  0
  1  6  2  0  0  0  0
  2  7  2  0  0  0  0
  3  9  2  0  0  0  0
  3 10  1  0  0  0  0
  4 11  2  0  0  0  0
  4 18  1  0  0  0  0
  5 12  1  0  0  0  0
  5 18  2  0  0  0  0
  6 20  1  0  0  0  0
  7 22  1  0  0  0  0
  8 13  2  0  0  0  0
  8 21  1  0  0  0  0
  9 25  1  0  0  0  0
 10 28  2  0  0  0  0
 11 26  1  0  0  0  0
 12 26  2  0  0  0  0
 13 27  1  0  0  0  0
 14 15  2  0  0  0  0
 14 29  1  0  0  0  0
 15 30  1  0  0  0  0
 16 23  1  0  0  0  0
 16 27  2  0  0  0  0
 17 30  2  0  0  0  0
 17 31  1  0  0  0  0
 18 32  1  0  0  0  0
 19 32  1  0  0  0  0
 19 33  2  0  0  0  0
 19 34  1  0  0  0  0
 20 22  2  0  0  0  0
 20 39  1  0  0  0  0
 21 23  2  0  0  0  0
 21 40  1  0  0  0  0
 22 51  1  0  0  0  0
 23 41  1  0  0  0  0
 24 25  2  0  0  0  0
 24 28  1  0  0  0  0
 24 50  1  0  0  0  0
 25 59  1  0  0  0  0
 26 80  1  0  0  0  0
 27 81  1  0  0  0  0
 28 82  1  0  0  0  0
 29 31  2  0  0  0  0
 29 80  1  0  0  0  0
 30 83  1  0  0  0  0
 31 84  1  0  0  0  0
 32 65  2  0  0  0  0
 33 66  1  0  0  0  0
 33 69  1  0  0  0  0
 34 70  1  0  0  0  0
 34 75  2  0  0  0  0
 35 52  1  0  0  0  0
 35 71  1  0  0  0  0
 35 76  2  0  0  0  0
 36 62  1  0  0  0  0
 36 67  1  0  0  0  0
 36 77  2  0  0  0  0
 37 63  1  0  0  0  0
 37 72  1  0  0  0  0
 37 78  2  0  0  0  0
 38 68  1  0  0  0  0
 38 73  1  0  0  0  0
 38 79  2  0  0  0  0
 39 42  1  0  0  0  0
 40 52  1  0  0  0  0
 41 67  1  0  0  0  0
 42 46  1  0  0  0  0
 43 47  1  0  0  0  0
 43 48  1  0  0  0  0
 44 45  1  0  0  0  0
 44 50  1  0  0  0  0
 45 50  1  0  0  0  0
 46 51  1  0  0  0  0
 47 53  1  0  0  0  0
 48 68  1  0  0  0  0
 49 53  1  0  0  0  0
 49 68  1  0  0  0  0
 51 71  1  0  0  0  0
 52 67  1  0  0  0  0
 53 66  1  0  0  0  0
 54 63  1  0  0  0  0
 55 64  1  0  0  0  0
 56 64  1  0  0  0  0
 57 64  1  0  0  0  0
 58 74  1  0  0  0  0
 59 81  1  0  0  0  0
 60 61  1  0  0  0  0
 60 73  1  0  0  0  0
 61 82  1  0  0  0  0
 62 64  1  0  0  0  0
 62 72  1  0  0  0  0
 63 74  1  0  0  0  0
 65 66  1  0  0  0  0
M  CHG  1  74   1
M  ISO  4  38 100  59 101  73 100  81 101
M  END
> <Batch ID>
0120

> <Smiles>
CNC(C)C(=O)NC(C(=O)N1Cc2cc([101O:1][101CH2:1]c3cccc(OCC[100NH:0][100C:0](=O)N4CCCC(n5nc(-c6ccc(Oc7ccc(F)cc7F)cc6)c(C(N)=O)c5N)C4)c3C3CC3)ccc2CC1C(=O)NC1CCCc2ccccc21)C(C)(C)C

> <Shape>
0.185

> <Color>
0.072

> <Negative vol penalty>
0.000

$$$$

  -OEChem-04052320233D

 81 89  0     1  0  0  0  0  0999 V2000
  -19.0699  -27.7384   23.8882 C   0  0  0  0  0  0  0  0  0  0  0  0
  -20.1087  -26.9488   23.4056 C   0  0  0  0  0  0  0  0  0  0  0  0
  -22.9871  -10.0114   19.9362 C   0  0  0  0  0  0  0  0  0  0  0  0
  -23.8581   -9.8459   22.1837 C   0  0  0  0  0  0  0  0  0  0  0  0
  -18.1795  -28.3371   22.9979 C   0  0  0  0  0  0  0  0  0  0  0  0
  -20.2569  -26.7565   22.0325 C   0  0  0  0  0  0  0  0  0  0  0  0
  -25.0646  -27.2273   20.5127 C   0  0  0  0  0  0  0  0  0  0  0  0
  -22.2188   -8.8671   20.1497 C   0  0  0  0  0  0  0  0  0  0  0  0
  -23.0896   -8.7015   22.3972 C   0  0  0  0  0  0  0  0  0  0  0  0
  -25.9154  -26.1483   20.7483 C   0  0  0  0  0  0  0  0  0  0  0  0
  -21.0832   -5.9433   23.6559 C   0  0  0  0  0  0  0  0  0  0  0  0
  -20.3841   -5.8458   24.8589 C   0  0  0  0  0  0  0  0  0  0  0  0
  -25.6479  -25.4446   18.4565 C   0  0  0  0  0  0  0  0  0  0  0  0
  -19.1699   -7.8629   24.3167 C   0  0  0  0  0  0  0  0  0  0  0  0
  -23.8069  -10.5008   20.9532 C   0  0  0  0  0  0  0  0  0  0  0  0
  -24.2256  -13.0171   20.9772 C   0  0  0  0  0  0  0  0  0  0  0  0
  -18.3226  -28.1599   21.6127 C   0  0  0  0  0  0  0  0  0  0  0  0
  -24.4894  -27.4172   19.2479 C   0  0  0  0  0  0  0  0  0  0  0  0
  -19.3667  -27.3522   21.1230 C   0  0  0  0  0  0  0  0  0  0  0  0
  -24.7921  -26.5282   18.2067 C   0  0  0  0  0  0  0  0  0  0  0  0
  -22.2700   -8.2121   21.3802 C   0  0  0  0  0  0  0  0  0  0  0  0
  -26.2049  -25.2551   19.7210 C   0  0  0  0  0  0  0  0  0  0  0  0
  -20.8257   -7.0006   22.7833 C   0  0  0  0  0  0  0  0  0  0  0  0
  -19.4274   -6.8056   25.1894 C   0  0  0  0  0  0  0  0  0  0  0  0
  -19.8690   -7.9604   23.1137 C   0  0  0  0  0  0  0  0  0  0  0  0
  -24.6013  -11.6826   20.7331 C   0  0  0  0  0  0  0  0  0  0  0  0
  -25.3228  -13.7559   20.6073 C   0  0  0  0  0  0  0  0  0  0  0  0
  -22.9948  -13.5421   21.4923 C   0  0  0  0  0  0  0  0  0  0  0  0
  -21.5177  -27.4766   18.1212 C   0  0  0  0  0  0  0  0  0  0  0  0
  -22.9936  -28.3585   15.3705 C   0  0  0  0  0  0  0  0  0  0  0  0
  -25.8343  -28.3616   13.4791 C   0  0  0  0  0  0  0  0  0  0  0  0
  -30.8398  -14.5967   20.5807 C   0  0  0  0  0  0  0  0  0  0  0  0
  -17.3072  -28.7887   20.6917 C   0  0  0  0  0  0  0  0  0  0  0  0
  -23.5948  -28.6012   19.0027 C   0  0  0  0  0  0  0  0  0  0  0  0
  -24.2165  -26.6992   16.8254 C   0  0  0  0  0  0  0  0  0  0  0  0
  -17.7569  -28.8403   19.2338 C   0  0  0  0  0  0  0  0  0  0  0  0
  -29.5088  -12.4082   18.1078 C   0  0  0  0  0  0  0  0  0  0  0  0
  -18.3378  -27.4961   18.8064 C   0  0  0  0  0  0  0  0  0  0  0  0
  -28.7470  -21.8959   20.3326 C   0  0  0  0  0  0  0  0  0  0  0  0
  -26.9354  -20.5039   19.2432 C   0  0  0  0  0  0  0  0  0  0  0  0
  -28.0853  -12.1297   18.5938 C   0  0  0  0  0  0  0  0  0  0  0  0
  -29.2279  -20.6662   21.1030 C   0  0  0  0  0  0  0  0  0  0  0  0
  -27.4170  -19.2748   20.0138 C   0  0  0  0  0  0  0  0  0  0  0  0
  -30.4903  -12.5227   19.2720 C   0  0  0  0  0  0  0  0  0  0  0  0
  -28.6838  -13.2179   20.7975 C   0  0  0  0  0  0  0  0  0  0  0  0
  -19.5752  -27.1401   19.6392 C   0  0  1  0  0  0  0  0  0  0  0  0
  -22.6577  -28.4062   17.8148 C   0  0  1  0  0  0  0  0  0  0  0  0
  -27.2517  -21.8048   19.9952 C   0  0  0  0  0  0  0  0  0  0  0  0
  -27.6480  -13.1497   19.6623 C   0  0  2  0  0  0  0  0  0  0  0  0
  -28.9039  -19.3850   20.3396 C   0  0  0  0  0  0  0  0  0  0  0  0
  -26.7228  -29.1270   11.2605 C   0  0  0  0  0  0  0  0  0  0  0  0
  -21.5235  -26.0664   13.9938 C   0  0  0  0  0  0  0  0  0  0  0  0
  -23.1291  -26.2759   12.0843 C   0  0  0  0  0  0  0  0  0  0  0  0
  -21.6308  -28.1834   12.6667 C   0  0  0  0  0  0  0  0  0  0  0  0
  -27.8629  -30.0953   14.7588 C   0  0  0  0  0  0  0  0  0  0  0  0
  -26.8085  -23.0189   19.1812 C   0  0  0  0  0  0  0  0  0  1  0  0
  -31.0370  -16.6590   21.9473 C   0  0  0  0  0  0  0  0  0  0  0  0
  -30.7463  -17.8700   21.0806 C   0  0  0  0  0  0  0  0  0  0  0  0
  -23.5733  -27.6245   14.1855 C   0  0  1  0  0  0  0  0  0  0  0  0
  -26.5445  -29.4748   12.7301 C   0  0  2  0  0  0  0  0  0  0  0  0
  -22.4736  -27.0330   13.2590 C   0  0  0  0  0  0  0  0  0  0  0  0
  -25.8404  -11.5766   20.2457 N   0  0  0  0  0  0  0  0  0  0  0  0
  -26.2527  -12.8541   20.1804 N   0  0  0  0  0  0  0  0  0  0  0  0
  -23.3422  -27.8687   16.6372 N   0  0  0  0  0  0  0  0  0  0  0  0
  -30.0180  -13.5070   20.2487 N   0  0  0  0  0  0  0  0  0  0  0  0
  -25.5732  -15.0824   20.6087 N   0  0  0  0  0  0  0  0  0  0  0  0
  -21.9711  -12.6433   21.8220 N   0  0  0  0  0  0  0  0  0  0  0  0
  -20.7266  -27.8856   19.1777 N   0  0  0  0  0  0  0  0  0  0  0  0
  -24.4711  -28.5642   13.5226 N   0  0  0  0  0  0  0  0  0  0  0  0
  -30.3135  -15.4860   21.5097 N   0  0  0  0  0  0  0  0  0  0  0  0
  -29.3030  -18.2168   21.1686 N   0  3  0  0  0  0  0  0  0  0  0  0
  -27.8902  -29.7205   13.3215 N   0  3  0  0  0  0  0  0  0  0  0  0
  -22.8024  -14.7728   21.6400 O   0  0  0  0  0  0  0  0  0  0  0  0
  -21.3662  -26.4639   17.4480 O   0  0  0  0  0  0  0  0  0  0  0  0
  -22.2643  -29.3348   15.1795 O   0  0  0  0  0  0  0  0  0  0  0  0
  -26.4289  -27.4059   13.9726 O   0  0  0  0  0  0  0  0  0  0  0  0
  -31.9574  -14.7676   20.0819 O   0  0  0  0  0  0  0  0  0  0  0  0
  -21.5201   -7.0956   21.5889 O   0  0  0  0  0  0  0  0  0  0  0  0
  -27.0346  -24.2007   19.9485 O   0  0  0  0  0  0  0  0  0  1  0  0
  -18.7550   -6.7110   26.3440 F   0  0  0  0  0  0  0  0  0  0  0  0
  -19.6165   -8.9778   22.2789 F   0  0  0  0  0  0  0  0  0  0  0  0
  1  2  1  0  0  0  0
  1  5  2  0  0  0  0
  2  6  2  0  0  0  0
  3  8  2  0  0  0  0
  3 15  1  0  0  0  0
  4  9  1  0  0  0  0
  4 15  2  0  0  0  0
  5 17  1  0  0  0  0
  6 19  1  0  0  0  0
  7 10  2  0  0  0  0
  7 18  1  0  0  0  0
  8 21  1  0  0  0  0
  9 21  2  0  0  0  0
 10 22  1  0  0  0  0
 11 12  2  0  0  0  0
 11 23  1  0  0  0  0
 12 24  1  0  0  0  0
 13 20  1  0  0  0  0
 13 22  2  0  0  0  0
 14 24  2  0  0  0  0
 14 25  1  0  0  0  0
 15 26  1  0  0  0  0
 16 26  1  0  0  0  0
 16 27  2  0  0  0  0
 16 28  1  0  0  0  0
 17 19  2  0  0  0  0
 17 33  1  0  0  0  0
 18 20  2  0  0  0  0
 18 34  1  0  0  0  0
 19 46  1  0  0  0  0
 20 35  1  0  0  0  0
 21 78  1  0  0  0  0
 22 79  1  0  0  0  0
 23 25  2  0  0  0  0
 23 78  1  0  0  0  0
 24 80  1  0  0  0  0
 25 81  1  0  0  0  0
 26 62  2  0  0  0  0
 27 63  1  0  0  0  0
 27 66  1  0  0  0  0
 28 67  1  0  0  0  0
 28 73  2  0  0  0  0
 29 47  1  0  0  0  0
 29 68  1  0  0  0  0
 29 74  2  0  0  0  0
 30 59  1  0  0  0  0
 30 64  1  0  0  0  0
 30 75  2  0  0  0  0
 31 60  1  0  0  0  0
 31 69  1  0  0  0  0
 31 76  2  0  0  0  0
 32 65  1  0  0  0  0
 32 70  1  0  0  0  0
 32 77  2  0  0  0  0
 33 36  1  0  0  0  0
 34 47  1  0  0  0  0
 35 64  1  0  0  0  0
 36 38  1  0  0  0  0
 37 41  1  0  0  0  0
 37 44  1  0  0  0  0
 38 46  1  0  0  0  0
 39 42  1  0  0  0  0
 39 48  1  0  0  0  0
 40 43  1  0  0  0  0
 40 48  1  0  0  0  0
 41 49  1  0  0  0  0
 42 50  1  0  0  0  0
 43 50  1  0  0  0  0
 44 65  1  0  0  0  0
 45 49  1  0  0  0  0
 45 65  1  0  0  0  0
 46 68  1  0  0  0  0
 47 64  1  0  0  0  0
 48 56  1  0  0  0  0
 49 63  1  0  0  0  0
 50 71  1  0  0  0  0
 51 60  1  0  0  0  0
 52 61  1  0  0  0  0
 53 61  1  0  0  0  0
 54 61  1  0  0  0  0
 55 72  1  0  0  0  0
 56 79  1  0  0  0  0
 57 58  1  0  0  0  0
 57 70  1  0  0  0  0
 58 71  1  0  0  0  0
 59 61  1  0  0  0  0
 59 69  1  0  0  0  0
 60 72  1  0  0  0  0
 62 63  1  0  0  0  0
M  CHG  2  71   1  72   1
M  ISO  4  32 100  56 101  70 100  79 101
M  END
> <Batch ID>
0120

> <Smiles>
CNC(C)C(=O)NC(C(=O)N1Cc2cc([101O:1][101CH2:1]C3CCC(NCC[100NH:0][100C:0](=O)N4CCCC(n5nc(-c6ccc(Oc7ccc(F)cc7F)cc6)c(C(N)=O)c5N)C4)CC3)ccc2CC1C(=O)NC1CCCc2ccccc21)C(C)(C)C

> <Shape>
0.278

> <Color>
0.211

> <Negative vol penalty>
0.000

$$$$

  -OEChem-04052320233D

 91100  0     1  0  0  0  0  0999 V2000
  -16.5137  -28.2352   22.3982 C   0  0  0  0  0  0  0  0  0  0  0  0
  -16.4077  -26.8559   22.2513 C   0  0  0  0  0  0  0  0  0  0  0  0
  -28.6967  -22.6949   21.2947 C   0  0  0  0  0  0  0  0  0  0  0  0
  -29.3375  -21.8576   19.1209 C   0  0  0  0  0  0  0  0  0  0  0  0
  -17.7702  -28.8285   22.5121 C   0  0  0  0  0  0  0  0  0  0  0  0
  -17.5584  -26.0690   22.2170 C   0  0  0  0  0  0  0  0  0  0  0  0
  -19.9448  -19.5831   24.1022 C   0  0  0  0  0  0  0  0  0  0  0  0
  -29.2660  -23.9304   20.9866 C   0  0  0  0  0  0  0  0  0  0  0  0
  -29.9068  -23.0931   18.8128 C   0  0  0  0  0  0  0  0  0  0  0  0
  -20.6022  -18.4785   23.5624 C   0  0  0  0  0  0  0  0  0  0  0  0
  -28.4430  -26.6737   19.1893 C   0  0  0  0  0  0  0  0  0  0  0  0
  -27.7121  -27.8200   19.5012 C   0  0  0  0  0  0  0  0  0  0  0  0
  -22.7163  -19.6046   23.8478 C   0  0  0  0  0  0  0  0  0  0  0  0
  -23.6793  -14.6685   22.8119 C   0  0  0  0  0  0  0  0  0  0  0  0
  -29.4990  -28.5660   20.9462 C   0  0  0  0  0  0  0  0  0  0  0  0
  -23.3145  -13.8516   20.2340 C   0  0  0  0  0  0  0  0  0  0  0  0
  -28.7325  -21.6584   20.3618 C   0  0  0  0  0  0  0  0  0  0  0  0
  -26.8005  -20.1224   21.0066 C   0  0  0  0  0  0  0  0  0  0  0  0
  -18.9365  -28.0475   22.4889 C   0  0  0  0  0  0  0  0  0  0  0  0
  -20.6685  -20.7130   24.5095 C   0  0  0  0  0  0  0  0  0  0  0  0
  -18.8318  -26.6526   22.3294 C   0  0  0  0  0  0  0  0  0  0  0  0
  -22.0660  -20.7213   24.3949 C   0  0  0  0  0  0  0  0  0  0  0  0
  -24.4863  -13.6612   22.2949 C   0  0  0  0  0  0  0  0  0  0  0  0
  -24.3069  -13.2392   20.9822 C   0  0  0  0  0  0  0  0  0  0  0  0
  -29.8710  -24.1296   19.7456 C   0  0  0  0  0  0  0  0  0  0  0  0
  -21.9878  -18.4902   23.4324 C   0  0  0  0  0  0  0  0  0  0  0  0
  -29.7018  -26.4734   19.7559 C   0  0  0  0  0  0  0  0  0  0  0  0
  -28.2401  -28.7662   20.3796 C   0  0  0  0  0  0  0  0  0  0  0  0
  -30.2298  -27.4196   20.6343 C   0  0  0  0  0  0  0  0  0  0  0  0
  -28.1450  -20.3817   20.6797 C   0  0  0  0  0  0  0  0  0  0  0  0
  -22.7151  -15.2171   21.9817 C   0  0  0  0  0  0  0  0  0  0  0  0
  -26.7546  -18.7664   21.2203 C   0  0  0  0  0  0  0  0  0  0  0  0
  -25.6922  -21.0263   21.1080 C   0  0  0  0  0  0  0  0  0  0  0  0
  -20.7368  -23.7683   23.6352 C   0  0  0  0  0  0  0  0  0  0  0  0
  -22.7508  -24.0428   26.1631 C   0  0  0  0  0  0  0  0  0  0  0  0
  -24.9566  -22.5360   28.2870 C   0  0  0  0  0  0  0  0  0  0  0  0
  -28.1126  -13.5583   19.7449 C   0  0  0  0  0  0  0  0  0  0  0  0
  -20.2747  -28.7387   22.5681 C   0  0  0  0  0  0  0  0  0  0  0  0
  -19.9469  -21.8859   25.1146 C   0  0  0  0  0  0  0  0  0  0  0  0
  -22.8909  -21.9017   24.8360 C   0  0  0  0  0  0  0  0  0  0  0  0
  -21.4287  -27.7958   22.8987 C   0  0  0  0  0  0  0  0  0  0  0  0
  -30.4819  -15.3781   21.6819 C   0  0  0  0  0  0  0  0  0  0  0  0
  -21.3516  -26.5366   22.0412 C   0  0  0  0  0  0  0  0  0  0  0  0
  -29.9778  -16.8208   21.6154 C   0  0  0  0  0  0  0  0  0  0  0  0
  -21.9802  -10.8455   19.6397 C   0  0  0  0  0  0  0  0  0  0  0  0
  -30.2535  -14.6392   20.3650 C   0  0  0  0  0  0  0  0  0  0  0  0
  -28.3606  -16.1140   19.8033 C   0  0  0  0  0  0  0  0  0  0  0  0
  -23.2913  -11.1959   18.9619 C   0  0  0  0  0  0  0  0  0  0  0  0
  -20.0558  -25.7628   22.3126 C   0  0  1  0  0  0  0  0  0  0  0  0
  -20.7378  -23.1871   25.0208 C   0  0  1  0  0  0  0  0  0  0  0  0
  -22.3695   -9.7396   20.6098 C   0  0  1  0  0  0  0  0  0  0  0  0
  -28.5182  -16.8828   21.1263 C   0  0  2  0  0  0  0  0  0  0  0  0
  -23.6687  -10.2801   21.2094 C   0  0  1  0  0  0  0  0  0  0  0  0
  -25.5350  -13.0497   23.1636 C   0  0  0  0  0  0  0  0  0  0  0  0
  -21.2933   -9.4639   21.6481 C   0  0  0  0  0  0  0  0  0  0  0  0
  -26.5125  -22.2942   30.2410 C   0  0  0  0  0  0  0  0  0  0  0  0
  -24.7528  -25.3484   24.2664 C   0  0  0  0  0  0  0  0  0  0  0  0
  -26.5331  -24.9456   25.9800 C   0  0  0  0  0  0  0  0  0  0  0  0
  -24.5967  -26.4228   26.5194 C   0  0  0  0  0  0  0  0  0  0  0  0
  -22.7543  -21.7203   30.0880 C   0  0  0  0  0  0  0  0  0  0  0  0
  -25.5994   -5.8401   20.7263 C   0  0  0  0  0  0  0  0  0  0  0  0
  -21.8257  -16.3059   22.5059 C   0  0  0  0  0  0  0  0  0  1  0  0
  -24.5725   -9.2084   21.7958 C   0  0  0  0  0  0  0  0  0  0  0  0
  -25.9005  -12.6241   19.1181 C   0  0  0  0  0  0  0  0  0  0  0  0
  -24.6362   -7.9760   20.9077 C   0  0  0  0  0  0  0  0  0  0  0  0
  -25.1428  -12.1644   20.3788 C   0  0  2  0  0  0  0  0  0  0  0  0
  -24.2430  -23.9245   26.3590 C   0  0  1  0  0  0  0  0  0  0  0  0
  -25.0842  -22.5730   29.7992 C   0  0  2  0  0  0  0  0  0  0  0  0
  -25.0160  -25.1387   25.7710 C   0  0  0  0  0  0  0  0  0  0  0  0
  -22.5111  -14.8332   20.7016 N   0  0  0  0  0  0  0  0  0  0  0  0
  -28.8988  -19.2791   20.6842 N   0  0  0  0  0  0  0  0  0  0  0  0
  -28.0249  -18.3137   21.0167 N   0  0  0  0  0  0  0  0  0  0  0  0
  -22.1387  -23.0268   25.4155 N   0  0  0  0  0  0  0  0  0  0  0  0
  -28.8496  -14.7349   19.9578 N   0  0  0  0  0  0  0  0  0  0  0  0
  -25.7519  -17.9290   21.5607 N   0  0  0  0  0  0  0  0  0  0  0  0
  -24.9206  -21.2682   19.9633 N   0  0  0  0  0  0  0  0  0  0  0  0
  -20.1600  -25.0212   23.5510 N   0  0  0  0  0  0  0  0  0  0  0  0
  -24.4521  -23.7183   27.7880 N   0  0  0  0  0  0  0  0  0  0  0  0
  -26.7876  -13.7384   19.3672 N   0  0  0  0  0  0  0  0  0  0  0  0
  -24.3551  -10.9419   20.0172 N   0  3  2  0  0  0  0  0  0  0  0  0
  -24.1927  -21.5524   30.4194 N   0  3  0  0  0  0  0  0  0  0  0  0
  -25.4050  -21.6150   22.1777 O   0  0  0  0  0  0  0  0  0  0  0  0
  -21.2246  -23.1281   22.7111 O   0  0  0  0  0  0  0  0  0  0  0  0
  -22.1493  -24.9976   26.6614 O   0  0  0  0  0  0  0  0  0  0  0  0
  -25.2763  -21.5577   27.6153 O   0  0  0  0  0  0  0  0  0  0  0  0
  -28.5979  -12.4307   19.8865 O   0  0  0  0  0  0  0  0  0  0  0  0
  -30.4265  -25.3352   19.4446 O   0  0  0  0  0  0  0  0  0  0  0  0
  -22.6319  -17.4136   22.9052 O   0  0  0  0  0  0  0  0  0  1  0  0
  -25.4826   -7.0131   21.5203 O   0  0  0  0  0  0  0  0  0  0  0  0
  -27.5389  -29.8678   20.6779 F   0  0  0  0  0  0  0  0  0  0  0  0
  -31.4391  -27.2333   21.1808 F   0  0  0  0  0  0  0  0  0  0  0  0
  1  2  1  0  0  0  0
  1  5  2  0  0  0  0
  2  6  2  0  0  0  0
  3  8  2  0  0  0  0
  3 17  1  0  0  0  0
  4  9  1  0  0  0  0
  4 17  2  0  0  0  0
  5 19  1  0  0  0  0
  6 21  1  0  0  0  0
  7 10  2  0  0  0  0
  7 20  1  0  0  0  0
  8 25  1  0  0  0  0
  9 25  2  0  0  0  0
 10 26  1  0  0  0  0
 11 12  2  0  0  0  0
 11 27  1  0  0  0  0
 12 28  1  0  0  0  0
 13 22  1  0  0  0  0
 13 26  2  0  0  0  0
 14 23  2  0  0  0  0
 14 31  1  0  0  0  0
 15 28  2  0  0  0  0
 15 29  1  0  0  0  0
 16 24  2  0  0  0  0
 16 70  1  0  0  0  0
 17 30  1  0  0  0  0
 18 30  1  0  0  0  0
 18 32  2  0  0  0  0
 18 33  1  0  0  0  0
 19 21  2  0  0  0  0
 19 38  1  0  0  0  0
 20 22  2  0  0  0  0
 20 39  1  0  0  0  0
 21 49  1  0  0  0  0
 22 40  1  0  0  0  0
 23 24  1  0  0  0  0
 23 54  1  0  0  0  0
 24 66  1  0  0  0  0
 25 87  1  0  0  0  0
 26 88  1  0  0  0  0
 27 29  2  0  0  0  0
 27 87  1  0  0  0  0
 28 90  1  0  0  0  0
 29 91  1  0  0  0  0
 30 71  2  0  0  0  0
 31 62  1  0  0  0  0
 31 70  2  0  0  0  0
 32 72  1  0  0  0  0
 32 75  1  0  0  0  0
 33 76  1  0  0  0  0
 33 82  2  0  0  0  0
 34 50  1  0  0  0  0
 34 77  1  0  0  0  0
 34 83  2  0  0  0  0
 35 67  1  0  0  0  0
 35 73  1  0  0  0  0
 35 84  2  0  0  0  0
 36 68  1  0  0  0  0
 36 78  1  0  0  0  0
 36 85  2  0  0  0  0
 37 74  1  0  0  0  0
 37 79  1  0  0  0  0
 37 86  2  0  0  0  0
 38 41  1  0  0  0  0
 39 50  1  0  0  0  0
 40 73  1  0  0  0  0
 41 43  1  0  0  0  0
 42 44  1  0  0  0  0
 42 46  1  0  0  0  0
 43 49  1  0  0  0  0
 44 52  1  0  0  0  0
 45 48  1  0  0  0  0
 45 51  1  0  0  0  0
 46 74  1  0  0  0  0
 47 52  1  0  0  0  0
 47 74  1  0  0  0  0
 48 80  1  0  0  0  0
 49 77  1  0  0  0  0
 50 73  1  0  0  0  0
 51 53  1  0  0  0  0
 51 55  1  0  0  0  0
 52 72  1  0  0  0  0
 53 63  1  0  0  0  0
 53 80  1  0  0  0  0
 56 68  1  0  0  0  0
 57 69  1  0  0  0  0
 58 69  1  0  0  0  0
 59 69  1  0  0  0  0
 60 81  1  0  0  0  0
 61 89  1  0  0  0  0
 62 88  1  0  0  0  0
 63 65  1  0  0  0  0
 64 66  1  0  0  0  0
 64 79  1  0  0  0  0
 65 89  1  0  0  0  0
 66 80  1  0  0  0  0
 67 69  1  0  0  0  0
 67 78  1  0  0  0  0
 68 81  1  0  0  0  0
 71 72  1  0  0  0  0
M  CHG  2  80   1  81   1
M  ISO  4  37 100  62 101  79 100  88 101
M  END
> <Batch ID>
0120

> <Smiles>
CNC(C)C(=O)NC(C(=O)N1Cc2cc([101O:1][101CH2:1]c3cc(C)c(C(C[100NH:0][100C:0](=O)N4CCCC(n5nc(-c6ccc(Oc7ccc(F)cc7F)cc6)c(C(N)=O)c5N)C4)N4CCC(C)C4CCOC)cn3)ccc2CC1C(=O)NC1CCCc2ccccc21)C(C)(C)C

> <Shape>
0.257

> <Color>
0.044

> <Negative vol penalty>
0.000

$$$$
