
  -OEChem-04052320253D

 87 96  0     1  0  0  0  0  0999 V2000
  -31.1844  -22.7158   14.7589 C   0  0  0  0  0  0  0  0  0  0  0  0
  -29.9499  -23.1808   15.2004 C   0  0  0  0  0  0  0  0  0  0  0  0
  -30.8333  -18.6828   19.4599 C   0  0  0  0  0  0  0  0  0  0  0  0
  -28.8134  -17.3896   19.7505 C   0  0  0  0  0  0  0  0  0  0  0  0
  -32.2510  -22.6178   15.6515 C   0  0  0  0  0  0  0  0  0  0  0  0
  -29.7808  -23.5472   16.5352 C   0  0  0  0  0  0  0  0  0  0  0  0
  -26.2426  -28.0548   18.6958 C   0  0  0  0  0  0  0  0  0  0  0  0
  -31.5964  -17.5252   19.6124 C   0  0  0  0  0  0  0  0  0  0  0  0
  -29.5765  -16.2320   19.9030 C   0  0  0  0  0  0  0  0  0  0  0  0
  -24.9634  -28.0594   19.2503 C   0  0  0  0  0  0  0  0  0  0  0  0
  -32.6780  -15.5717   22.1498 C   0  0  0  0  0  0  0  0  0  0  0  0
  -33.7981  -15.6392   22.9783 C   0  0  0  0  0  0  0  0  0  0  0  0
  -25.9279  -28.0030   21.4607 C   0  0  0  0  0  0  0  0  0  0  0  0
  -19.9068  -25.7318   19.3329 C   0  0  0  0  0  0  0  0  0  0  0  0
  -21.6339  -24.0744   19.0996 C   0  0  0  0  0  0  0  0  0  0  0  0
  -35.2126  -15.0350   21.1152 C   0  0  0  0  0  0  0  0  0  0  0  0
  -29.4418  -18.6150   19.5291 C   0  0  0  0  0  0  0  0  0  0  0  0
  -28.1412  -20.3400   18.1724 C   0  0  0  0  0  0  0  0  0  0  0  0
  -32.0976  -22.9923   16.9957 C   0  0  0  0  0  0  0  0  0  0  0  0
  -27.3758  -28.0133   19.5208 C   0  0  0  0  0  0  0  0  0  0  0  0
  -30.8460  -23.4529   17.4469 C   0  0  0  0  0  0  0  0  0  0  0  0
  -27.2204  -28.0006   20.9142 C   0  0  0  0  0  0  0  0  0  0  0  0
  -20.4928  -24.6993   18.6091 C   0  0  0  0  0  0  0  0  0  0  0  0
  -30.9680  -16.2998   19.8339 C   0  0  0  0  0  0  0  0  0  0  0  0
  -24.8058  -28.0305   20.6328 C   0  0  0  0  0  0  0  0  0  0  0  0
  -32.8252  -15.2358   20.8040 C   0  0  0  0  0  0  0  0  0  0  0  0
  -35.0654  -15.3709   22.4610 C   0  0  0  0  0  0  0  0  0  0  0  0
  -34.0925  -14.9675   20.2867 C   0  0  0  0  0  0  0  0  0  0  0  0
  -28.6530  -19.8106   19.3722 C   0  0  0  0  0  0  0  0  0  0  0  0
  -20.4959  -26.0989   20.5320 C   0  0  0  0  0  0  0  0  0  0  0  0
  -22.1458  -24.5159   20.3091 C   0  0  0  0  0  0  0  0  0  0  0  0
  -27.4691  -21.4745   18.5568 C   0  0  0  0  0  0  0  0  0  0  0  0
  -28.2623  -19.8501   16.8304 C   0  0  0  0  0  0  0  0  0  0  0  0
  -29.7797  -25.9741   19.9288 C   0  0  0  0  0  0  0  0  0  0  0  0
  -30.9066  -28.3000   21.8891 C   0  0  0  0  0  0  0  0  0  0  0  0
  -29.9883  -29.6686   24.8775 C   0  0  0  0  0  0  0  0  0  0  0  0
  -23.9911  -24.1497   21.9846 C   0  0  0  0  0  0  0  0  0  0  0  0
  -33.2664  -22.8242   17.9340 C   0  0  0  0  0  0  0  0  0  0  0  0
  -28.7491  -28.0359   18.9077 C   0  0  0  0  0  0  0  0  0  0  0  0
  -28.4049  -27.9761   21.8441 C   0  0  0  0  0  0  0  0  0  0  0  0
  -33.1080  -23.5868   19.2469 C   0  0  0  0  0  0  0  0  0  0  0  0
  -27.3994  -23.9194   22.9884 C   0  0  0  0  0  0  0  0  0  0  0  0
  -18.7838  -27.9661   23.3103 C   0  0  0  0  0  0  0  0  0  0  0  0
  -31.7165  -23.3623   19.8302 C   0  0  0  0  0  0  0  0  0  0  0  0
  -18.8879  -26.7555   22.4037 C   0  0  0  0  0  0  0  0  0  0  0  0
  -27.9873  -22.8735   22.0384 C   0  0  0  0  0  0  0  0  0  0  0  0
  -25.9634  -23.5816   23.3854 C   0  0  0  0  0  0  0  0  0  0  0  0
  -25.6376  -22.2917   21.3119 C   0  0  0  0  0  0  0  0  0  0  0  0
  -20.2197  -28.4314   23.4575 C   0  0  0  0  0  0  0  0  0  0  0  0
  -30.6301  -23.8834   18.8816 C   0  0  1  0  0  0  0  0  0  0  0  0
  -19.8883  -27.2153   21.3435 C   0  0  1  0  0  0  0  0  0  0  0  0
  -29.8250  -27.4728   19.8311 C   0  0  1  0  0  0  0  0  0  0  0  0
  -27.0604  -22.6231   20.8327 C   0  0  2  0  0  0  0  0  0  0  0  0
  -19.4209  -22.8003   17.3448 C   0  0  0  0  0  0  0  0  0  0  0  0
  -20.8607  -24.4724   16.1257 C   0  0  0  0  0  0  0  0  0  0  0  0
  -30.9423  -30.8182   26.8938 C   0  0  0  0  0  0  0  0  0  0  0  0
  -31.9643  -25.6263   22.9101 C   0  0  0  0  0  0  0  0  0  0  0  0
  -32.0196  -26.6068   25.2131 C   0  0  0  0  0  0  0  0  0  0  0  0
  -33.4336  -27.5880   23.4074 C   0  0  0  0  0  0  0  0  0  0  0  0
  -28.3865  -32.1087   24.3880 C   0  0  0  0  0  0  0  0  0  0  0  0
  -21.4674  -29.2010   21.3978 C   0  0  0  0  0  0  0  0  0  0  0  0
  -22.5315  -28.6991   20.4419 C   0  0  0  0  0  0  0  0  0  1  0  0
  -19.9001  -24.2641   17.3121 C   0  0  0  0  0  0  0  0  0  0  0  0
  -30.9320  -27.9501   23.3574 C   0  0  1  0  0  0  0  0  0  0  0  0
  -30.3206  -31.0040   25.5184 C   0  0  2  0  0  0  0  0  0  0  0  0
  -32.0632  -26.9424   23.7070 C   0  0  0  0  0  0  0  0  0  0  0  0
  -28.3336  -20.5482   20.4389 N   0  0  0  0  0  0  0  0  0  0  0  0
  -21.6043  -25.5155   21.0406 N   0  0  0  0  0  0  0  0  0  0  0  0
  -27.6139  -21.5527   19.9107 N   0  0  0  0  0  0  0  0  0  0  0  0
  -29.7269  -27.9929   21.1964 N   0  0  0  0  0  0  0  0  0  0  0  0
  -25.1431  -23.3619   22.1923 N   0  0  0  0  0  0  0  0  0  0  0  0
  -26.7745  -22.4028   17.8654 N   0  0  0  0  0  0  0  0  0  0  0  0
  -28.9872  -18.6704   16.6127 N   0  0  0  0  0  0  0  0  0  0  0  0
  -23.3091  -23.8729   20.8002 N   0  0  0  0  0  0  0  0  0  0  0  0
  -30.5320  -25.3247   18.9687 N   0  0  0  0  0  0  0  0  0  0  0  0
  -31.0161  -29.2162   24.0773 N   0  0  0  0  0  0  0  0  0  0  0  0
  -20.8948  -28.0409   22.1537 N   0  3  1  0  0  0  0  0  0  0  0  0
  -29.0880  -31.8282   25.6672 N   0  3  0  0  0  0  0  0  0  0  0  0
  -27.7571  -20.4497   15.8513 O   0  0  0  0  0  0  0  0  0  0  0  0
  -29.1129  -25.4461   20.8110 O   0  0  0  0  0  0  0  0  0  0  0  0
  -31.8944  -28.8329   21.3773 O   0  0  0  0  0  0  0  0  0  0  0  0
  -28.9249  -29.0834   25.0705 O   0  0  0  0  0  0  0  0  0  0  0  0
  -23.6511  -25.0255   22.7842 O   0  0  0  0  0  0  0  0  0  0  0  0
  -31.7123  -15.1700   19.9825 O   0  0  0  0  0  0  0  0  0  0  0  0
  -23.5584  -28.0342   21.1766 O   0  0  0  0  0  0  0  0  0  1  0  0
  -36.1411  -15.4372   23.2564 F   0  0  0  0  0  0  0  0  0  0  0  0
  -34.2403  -14.6455   18.9943 F   0  0  0  0  0  0  0  0  0  0  0  0
  1  2  1  0  0  0  0
  1  5  2  0  0  0  0
  2  6  2  0  0  0  0
  3  8  2  0  0  0  0
  3 17  1  0  0  0  0
  4  9  1  0  0  0  0
  4 17  2  0  0  0  0
  5 19  1  0  0  0  0
  6 21  1  0  0  0  0
  7 10  2  0  0  0  0
  7 20  1  0  0  0  0
  8 24  1  0  0  0  0
  9 24  2  0  0  0  0
 10 25  1  0  0  0  0
 11 12  2  0  0  0  0
 11 26  1  0  0  0  0
 12 27  1  0  0  0  0
 13 22  1  0  0  0  0
 13 25  2  0  0  0  0
 14 23  2  0  0  0  0
 14 30  1  0  0  0  0
 15 23  1  0  0  0  0
 15 31  2  0  0  0  0
 16 27  2  0  0  0  0
 16 28  1  0  0  0  0
 17 29  1  0  0  0  0
 18 29  1  0  0  0  0
 18 32  2  0  0  0  0
 18 33  1  0  0  0  0
 19 21  2  0  0  0  0
 19 38  1  0  0  0  0
 20 22  2  0  0  0  0
 20 39  1  0  0  0  0
 21 50  1  0  0  0  0
 22 40  1  0  0  0  0
 23 63  1  0  0  0  0
 24 84  1  0  0  0  0
 25 85  1  0  0  0  0
 26 28  2  0  0  0  0
 26 84  1  0  0  0  0
 27 86  1  0  0  0  0
 28 87  1  0  0  0  0
 29 67  2  0  0  0  0
 30 51  1  0  0  0  0
 30 68  2  0  0  0  0
 31 68  1  0  0  0  0
 31 74  1  0  0  0  0
 32 69  1  0  0  0  0
 32 72  1  0  0  0  0
 33 73  1  0  0  0  0
 33 79  2  0  0  0  0
 34 52  1  0  0  0  0
 34 75  1  0  0  0  0
 34 80  2  0  0  0  0
 35 64  1  0  0  0  0
 35 70  1  0  0  0  0
 35 81  2  0  0  0  0
 36 65  1  0  0  0  0
 36 76  1  0  0  0  0
 36 82  2  0  0  0  0
 37 71  1  0  0  0  0
 37 74  1  0  0  0  0
 37 83  2  0  0  0  0
 38 41  1  0  0  0  0
 39 52  1  0  0  0  0
 40 70  1  0  0  0  0
 41 44  1  0  0  0  0
 42 46  1  0  0  0  0
 42 47  1  0  0  0  0
 43 45  1  0  0  0  0
 43 49  1  0  0  0  0
 44 50  1  0  0  0  0
 45 51  1  0  0  0  0
 46 53  1  0  0  0  0
 47 71  1  0  0  0  0
 48 53  1  0  0  0  0
 48 71  1  0  0  0  0
 49 77  1  0  0  0  0
 50 75  1  0  0  0  0
 51 77  1  0  0  0  0
 52 70  1  0  0  0  0
 53 69  1  0  0  0  0
 54 63  1  0  0  0  0
 55 63  1  0  0  0  0
 56 65  1  0  0  0  0
 57 66  1  0  0  0  0
 58 66  1  0  0  0  0
 59 66  1  0  0  0  0
 60 78  1  0  0  0  0
 61 62  1  0  0  0  0
 61 77  1  0  0  0  0
 62 85  1  0  0  0  0
 64 66  1  0  0  0  0
 64 76  1  0  0  0  0
 65 78  1  0  0  0  0
 67 69  1  0  0  0  0
M  CHG  2  77   1  78   1
M  ISO  4  37 100  62 101  74 100  85 101
M  END
> <Batch ID>
0121

> <Smiles>
CNC(C)C(=O)NC(C(=O)N1Cc2cc([101O:1][101CH2:1]CN3CCCC3c3cc(C(C)C)cc([100NH:0][100C:0](=O)N4CCCC(n5nc(-c6ccc(Oc7ccc(F)cc7F)cc6)c(C(N)=O)c5N)C4)n3)ccc2CC1C(=O)NC1CCCc2ccccc21)C(C)(C)C

> <Shape>
0.189

> <Color>
0.055

> <Negative vol penalty>
0.000

$$$$

  -OEChem-04052320253D

 90100  0     1  0  0  0  0  0999 V2000
  -17.1875  -12.6508   22.3166 C   0  0  0  0  0  0  0  0  0  0  0  0
  -17.9144  -13.6776   22.9106 C   0  0  0  0  0  0  0  0  0  0  0  0
  -26.9310  -25.0498   20.5335 C   0  0  0  0  0  0  0  0  0  0  0  0
  -27.8754  -25.9959   18.5210 C   0  0  0  0  0  0  0  0  0  0  0  0
  -17.8395  -11.4971   21.8832 C   0  0  0  0  0  0  0  0  0  0  0  0
  -19.2935  -13.5508   23.0725 C   0  0  0  0  0  0  0  0  0  0  0  0
  -21.7979  -17.7524   21.7611 C   0  0  0  0  0  0  0  0  0  0  0  0
  -18.8845  -22.3078   25.2962 C   0  0  0  0  0  0  0  0  0  0  0  0
  -27.6488  -23.8736   20.3174 C   0  0  0  0  0  0  0  0  0  0  0  0
  -28.5932  -24.8197   18.3049 C   0  0  0  0  0  0  0  0  0  0  0  0
  -21.7949  -18.8064   22.6737 C   0  0  0  0  0  0  0  0  0  0  0  0
  -30.9527  -22.2002   17.4163 C   0  0  0  0  0  0  0  0  0  0  0  0
  -32.2938  -22.3159   17.0511 C   0  0  0  0  0  0  0  0  0  0  0  0
  -18.2472  -23.3680   24.6612 C   0  0  0  0  0  0  0  0  0  0  0  0
  -24.0006  -18.1660   23.4113 C   0  0  0  0  0  0  0  0  0  0  0  0
  -32.7547  -23.4857   19.1142 C   0  0  0  0  0  0  0  0  0  0  0  0
  -20.0857  -23.8849   26.6102 C   0  0  0  0  0  0  0  0  0  0  0  0
  -27.0442  -26.1110   19.6353 C   0  0  0  0  0  0  0  0  0  0  0  0
  -26.7210  -28.4564   20.5852 C   0  0  0  0  0  0  0  0  0  0  0  0
  -19.2287  -11.3602   22.0311 C   0  0  0  0  0  0  0  0  0  0  0  0
  -22.8996  -16.8892   21.6742 C   0  0  0  0  0  0  0  0  0  0  0  0
  -19.9645  -12.3936   22.6418 C   0  0  0  0  0  0  0  0  0  0  0  0
  -24.0161  -17.1033   22.4950 C   0  0  0  0  0  0  0  0  0  0  0  0
  -19.8226  -22.5627   26.2903 C   0  0  0  0  0  0  0  0  0  0  0  0
  -28.4800  -23.7585   19.2031 C   0  0  0  0  0  0  0  0  0  0  0  0
  -22.8952  -19.0116   23.5010 C   0  0  0  0  0  0  0  0  0  0  0  0
  -30.5125  -22.7273   18.6305 C   0  0  0  0  0  0  0  0  0  0  0  0
  -33.1949  -22.9586   17.9000 C   0  0  0  0  0  0  0  0  0  0  0  0
  -31.4135  -23.3700   19.4794 C   0  0  0  0  0  0  0  0  0  0  0  0
  -26.3025  -27.3261   19.8577 C   0  0  0  0  0  0  0  0  0  0  0  0
  -18.5806  -24.6541   25.0541 C   0  0  0  0  0  0  0  0  0  0  0  0
  -25.6648  -29.3303   20.4994 C   0  0  0  0  0  0  0  0  0  0  0  0
  -27.9541  -28.6951   21.2766 C   0  0  0  0  0  0  0  0  0  0  0  0
  -23.3533  -13.7775   22.1378 C   0  0  0  0  0  0  0  0  0  0  0  0
  -26.3210  -14.4383   21.0072 C   0  0  0  0  0  0  0  0  0  0  0  0
  -28.7807  -16.7494   20.5022 C   0  0  0  0  0  0  0  0  0  0  0  0
  -19.9673  -29.1001   20.4372 C   0  0  0  0  0  0  0  0  0  0  0  0
  -19.8825  -10.0746   21.5900 C   0  0  0  0  0  0  0  0  0  0  0  0
  -22.8983  -15.7731   20.6659 C   0  0  0  0  0  0  0  0  0  0  0  0
  -25.2322  -16.2173   22.4267 C   0  0  0  0  0  0  0  0  0  0  0  0
  -21.4000  -10.1768   21.4587 C   0  0  0  0  0  0  0  0  0  0  0  0
  -21.8828  -29.7390   17.4417 C   0  0  0  0  0  0  0  0  0  0  0  0
  -21.9959  -10.8712   22.6791 C   0  0  0  0  0  0  0  0  0  0  0  0
  -15.7518  -27.9722   23.4528 C   0  0  0  0  0  0  0  0  0  0  0  0
  -16.0845  -29.4082   23.1576 C   0  0  0  0  0  0  0  0  0  0  0  0
  -23.2856  -29.2912   17.8499 C   0  0  0  0  0  0  0  0  0  0  0  0
  -20.7955  -28.8684   18.0739 C   0  0  0  0  0  0  0  0  0  0  0  0
  -20.4688  -27.0593   21.8287 C   0  0  0  0  0  0  0  0  0  0  0  0
  -22.3017  -28.3068   19.9532 C   0  0  0  0  0  0  0  0  0  0  0  0
  -19.3970  -26.1497   22.4088 C   0  0  0  0  0  0  0  0  0  0  0  0
  -21.4655  -12.3038   22.8125 C   0  0  1  0  0  0  0  0  0  0  0  0
  -23.8621  -14.6453   21.0217 C   0  0  1  0  0  0  0  0  0  0  0  0
  -17.0566  -28.3210   22.7919 C   0  0  0  0  0  0  0  0  0  0  0  0
  -23.4112  -29.2020   19.3809 C   0  0  1  0  0  0  0  0  0  0  0  0
  -18.3559  -28.1767   23.5490 C   0  0  2  0  0  0  0  0  0  0  0  0
  -19.4795  -29.0565   22.9277 C   0  0  1  0  0  0  0  0  0  0  0  0
  -20.6121  -29.3259   23.9279 C   0  0  0  0  0  0  0  0  0  0  0  0
  -31.1069  -16.9833   19.5902 C   0  0  0  0  0  0  0  0  0  0  0  0
  -27.4367  -13.1168   23.5209 C   0  0  0  0  0  0  0  0  0  0  0  0
  -29.6386  -14.2026   23.0302 C   0  0  0  0  0  0  0  0  0  0  0  0
  -28.6705  -12.5647   21.4168 C   0  0  0  0  0  0  0  0  0  0  0  0
  -27.9026  -18.6817   18.4396 C   0  0  0  0  0  0  0  0  0  0  0  0
  -20.5217  -21.4505   26.9880 C   0  0  0  0  0  0  0  0  0  0  0  0
  -17.9123  -25.8221   24.3907 C   0  0  0  0  0  0  0  0  0  0  0  0
  -21.8350  -21.0065   26.3208 C   0  0  0  0  0  0  0  0  0  0  0  0
  -21.6321  -20.4432   24.9191 C   0  0  0  0  0  0  0  0  0  1  0  0
  -27.6316  -14.8601   21.6265 C   0  0  1  0  0  0  0  0  0  0  0  0
  -29.6208  -17.0758   19.2806 C   0  0  2  0  0  0  0  0  0  0  0  0
  -28.3208  -13.7017   22.4015 C   0  0  0  0  0  0  0  0  0  0  0  0
  -19.4868  -24.9410   26.0155 N   0  0  0  0  0  0  0  0  0  0  0  0
  -25.0761  -27.4663   19.3475 N   0  0  0  0  0  0  0  0  0  0  0  0
  -24.7148  -28.6949   19.7550 N   0  0  0  0  0  0  0  0  0  0  0  0
  -25.1803  -15.1358   21.4291 N   0  0  0  0  0  0  0  0  0  0  0  0
  -20.9805  -28.7717   19.5260 N   0  0  0  0  0  0  0  0  0  0  0  0
  -19.9739  -28.4283   21.6777 N   0  0  0  0  0  0  0  0  0  0  0  0
  -25.4653  -30.5724   20.9889 N   0  0  0  0  0  0  0  0  0  0  0  0
  -28.9321  -27.6912   21.2644 N   0  0  0  0  0  0  0  0  0  0  0  0
  -22.1352  -13.1800   21.8755 N   0  0  0  0  0  0  0  0  0  0  0  0
  -28.4352  -15.4152   20.5428 N   0  0  0  0  0  0  0  0  0  0  0  0
  -18.8823  -26.7425   23.7006 N   0  3  1  0  0  0  0  0  0  0  0  0
  -29.3254  -18.4560   18.8024 N   0  3  0  0  0  0  0  0  0  0  0  0
  -28.1755  -29.7603   21.9009 O   0  0  0  0  0  0  0  0  0  0  0  0
  -24.0174  -13.6576   23.1607 O   0  0  0  0  0  0  0  0  0  0  0  0
  -26.3108  -13.5284   20.1743 O   0  0  0  0  0  0  0  0  0  0  0  0
  -28.4659  -17.5930   21.3387 O   0  0  0  0  0  0  0  0  0  0  0  0
  -19.1173  -29.9590   20.1691 O   0  0  0  0  0  0  0  0  0  0  0  0
  -29.1808  -22.6109   18.9920 O   0  0  0  0  0  0  0  0  0  0  0  0
  -22.8946  -20.0465   24.3993 O   0  0  0  0  0  0  0  0  0  1  0  0
  -34.4831  -23.0683   17.5499 F   0  0  0  0  0  0  0  0  0  0  0  0
  -30.9968  -23.8773   20.6476 F   0  0  0  0  0  0  0  0  0  0  0  0
  1  2  1  0  0  0  0
  1  5  2  0  0  0  0
  2  6  2  0  0  0  0
  3  9  2  0  0  0  0
  3 18  1  0  0  0  0
  4 10  1  0  0  0  0
  4 18  2  0  0  0  0
  5 20  1  0  0  0  0
  6 22  1  0  0  0  0
  7 11  2  0  0  0  0
  7 21  1  0  0  0  0
  8 14  2  0  0  0  0
  8 24  1  0  0  0  0
  9 25  1  0  0  0  0
 10 25  2  0  0  0  0
 11 26  1  0  0  0  0
 12 13  2  0  0  0  0
 12 27  1  0  0  0  0
 13 28  1  0  0  0  0
 14 31  1  0  0  0  0
 15 23  1  0  0  0  0
 15 26  2  0  0  0  0
 16 28  2  0  0  0  0
 16 29  1  0  0  0  0
 17 24  2  0  0  0  0
 17 70  1  0  0  0  0
 18 30  1  0  0  0  0
 19 30  1  0  0  0  0
 19 32  2  0  0  0  0
 19 33  1  0  0  0  0
 20 22  2  0  0  0  0
 20 38  1  0  0  0  0
 21 23  2  0  0  0  0
 21 39  1  0  0  0  0
 22 51  1  0  0  0  0
 23 40  1  0  0  0  0
 24 63  1  0  0  0  0
 25 87  1  0  0  0  0
 26 88  1  0  0  0  0
 27 29  2  0  0  0  0
 27 87  1  0  0  0  0
 28 89  1  0  0  0  0
 29 90  1  0  0  0  0
 30 71  2  0  0  0  0
 31 64  1  0  0  0  0
 31 70  2  0  0  0  0
 32 72  1  0  0  0  0
 32 76  1  0  0  0  0
 33 77  1  0  0  0  0
 33 82  2  0  0  0  0
 34 52  1  0  0  0  0
 34 78  1  0  0  0  0
 34 83  2  0  0  0  0
 35 67  1  0  0  0  0
 35 73  1  0  0  0  0
 35 84  2  0  0  0  0
 36 68  1  0  0  0  0
 36 79  1  0  0  0  0
 36 85  2  0  0  0  0
 37 74  1  0  0  0  0
 37 75  1  0  0  0  0
 37 86  2  0  0  0  0
 38 41  1  0  0  0  0
 39 52  1  0  0  0  0
 40 73  1  0  0  0  0
 41 43  1  0  0  0  0
 42 46  1  0  0  0  0
 42 47  1  0  0  0  0
 43 51  1  0  0  0  0
 44 45  1  0  0  0  0
 44 53  1  0  0  0  0
 45 53  1  0  0  0  0
 46 54  1  0  0  0  0
 47 74  1  0  0  0  0
 48 50  1  0  0  0  0
 48 75  1  0  0  0  0
 49 54  1  0  0  0  0
 49 74  1  0  0  0  0
 50 80  1  0  0  0  0
 51 78  1  0  0  0  0
 52 73  1  0  0  0  0
 53 55  1  0  0  0  0
 54 72  1  0  0  0  0
 55 56  1  0  0  0  0
 55 80  1  0  0  0  0
 56 57  1  0  0  0  0
 56 75  1  0  0  0  0
 58 68  1  0  0  0  0
 59 69  1  0  0  0  0
 60 69  1  0  0  0  0
 61 69  1  0  0  0  0
 62 81  1  0  0  0  0
 63 65  1  0  0  0  0
 64 80  1  0  0  0  0
 65 66  1  0  0  0  0
 66 88  1  0  0  0  0
 67 69  1  0  0  0  0
 67 79  1  0  0  0  0
 68 81  1  0  0  0  0
 71 72  1  0  0  0  0
M  CHG  2  80   1  81   1
M  ISO  4  37 100  66 101  75 100  88 101
M  END
> <Batch ID>
0121

> <Smiles>
CNC(C)C(=O)NC(C(=O)N1Cc2cc([101O:1][101CH2:1]CCc3ccc(CN4CC[100N:0]([100C:0](=O)N5CCCC(n6nc(-c7ccc(Oc8ccc(F)cc8F)cc7)c(C(N)=O)c6N)C5)C(C)C4C4CC4)nc3)ccc2CC1C(=O)NC1CCCc2ccccc21)C(C)(C)C

> <Shape>
0.234

> <Color>
0.067

> <Negative vol penalty>
0.000

$$$$

  -OEChem-04052320253D

 88 97  0     1  0  0  0  0  0999 V2000
  -17.1029  -30.7953   23.4272 C   0  0  0  0  0  0  0  0  0  0  0  0
  -18.4438  -31.1426   23.2980 C   0  0  0  0  0  0  0  0  0  0  0  0
  -25.0310  -14.0317   21.5914 C   0  0  0  0  0  0  0  0  0  0  0  0
  -25.3117  -14.3612   19.2145 C   0  0  0  0  0  0  0  0  0  0  0  0
  -16.7247  -29.4539   23.3902 C   0  0  0  0  0  0  0  0  0  0  0  0
  -19.4075  -30.1484   23.1328 C   0  0  0  0  0  0  0  0  0  0  0  0
  -25.6853  -28.9407   19.9007 C   0  0  0  0  0  0  0  0  0  0  0  0
  -24.1620  -12.9696   21.3416 C   0  0  0  0  0  0  0  0  0  0  0  0
  -24.4427  -13.2990   18.9647 C   0  0  0  0  0  0  0  0  0  0  0  0
  -26.9733  -28.4884   20.1841 C   0  0  0  0  0  0  0  0  0  0  0  0
  -24.3967   -9.7131   20.4625 C   0  0  0  0  0  0  0  0  0  0  0  0
  -24.5684   -8.5462   21.2072 C   0  0  0  0  0  0  0  0  0  0  0  0
  -33.1869  -25.7644   21.5267 C   0  0  0  0  0  0  0  0  0  0  0  0
  -26.1945  -26.2089   20.0556 C   0  0  0  0  0  0  0  0  0  0  0  0
  -31.3284  -26.1306   20.0447 C   0  0  0  0  0  0  0  0  0  0  0  0
  -22.3251   -8.7707   22.0759 C   0  0  0  0  0  0  0  0  0  0  0  0
  -32.5783  -26.6337   22.4176 C   0  0  0  0  0  0  0  0  0  0  0  0
  -25.6058  -14.7276   20.5279 C   0  0  0  0  0  0  0  0  0  0  0  0
  -27.7193  -15.7810   21.4928 C   0  0  0  0  0  0  0  0  0  0  0  0
  -17.6831  -28.4433   23.2147 C   0  0  0  0  0  0  0  0  0  0  0  0
  -24.6382  -28.0292   19.7030 C   0  0  0  0  0  0  0  0  0  0  0  0
  -19.0419  -28.7921   23.0947 C   0  0  0  0  0  0  0  0  0  0  0  0
  -24.8947  -26.6521   19.7672 C   0  0  0  0  0  0  0  0  0  0  0  0
  -32.5435  -25.5133   20.3199 C   0  0  0  0  0  0  0  0  0  0  0  0
  -23.8679  -12.6032   20.0283 C   0  0  0  0  0  0  0  0  0  0  0  0
  -27.2274  -27.1223   20.2645 C   0  0  0  0  0  0  0  0  0  0  0  0
  -23.1893  -10.4088   20.5246 C   0  0  0  0  0  0  0  0  0  0  0  0
  -23.5326   -8.0750   22.0139 C   0  0  0  0  0  0  0  0  0  0  0  0
  -22.1535   -9.9376   21.3313 C   0  0  0  0  0  0  0  0  0  0  0  0
  -26.5030  -15.8252   20.7853 C   0  0  0  0  0  0  0  0  0  0  0  0
  -30.8029  -26.9834   21.0020 C   0  0  0  0  0  0  0  0  0  0  0  0
  -28.1845  -17.0727   21.4570 C   0  0  0  0  0  0  0  0  0  0  0  0
  -34.6434  -22.7321   19.9689 C   0  0  0  0  0  0  0  0  0  0  0  0
  -28.3703  -14.6714   22.1258 C   0  0  0  0  0  0  0  0  0  0  0  0
  -21.8839  -27.4243   21.1698 C   0  0  0  0  0  0  0  0  0  0  0  0
  -21.4514  -25.3924   18.6784 C   0  0  0  0  0  0  0  0  0  0  0  0
  -22.8510  -23.4856   16.2184 C   0  0  0  0  0  0  0  0  0  0  0  0
  -29.1842  -21.8102   18.6816 C   0  0  0  0  0  0  0  0  0  0  0  0
  -17.2317  -27.0044   23.2285 C   0  0  0  0  0  0  0  0  0  0  0  0
  -23.2602  -28.5327   19.3716 C   0  0  0  0  0  0  0  0  0  0  0  0
  -23.8095  -25.6321   19.5430 C   0  0  0  0  0  0  0  0  0  0  0  0
  -18.2721  -26.0343   22.6745 C   0  0  0  0  0  0  0  0  0  0  0  0
  -25.9110  -21.3518   20.0053 C   0  0  0  0  0  0  0  0  0  0  0  0
  -19.6470  -26.3322   23.2640 C   0  0  0  0  0  0  0  0  0  0  0  0
  -25.8717  -19.8688   20.3785 C   0  0  0  0  0  0  0  0  0  0  0  0
  -26.7172  -21.5918   18.7308 C   0  0  0  0  0  0  0  0  0  0  0  0
  -28.0433  -19.5514   19.1206 C   0  0  0  0  0  0  0  0  0  0  0  0
  -32.3477  -21.2971   21.0384 C   0  0  0  0  0  0  0  0  0  0  0  0
  -20.1139  -27.7439   22.8890 C   0  0  1  0  0  0  0  0  0  0  0  0
  -34.7979  -21.4280   20.7397 C   0  0  2  0  0  0  0  0  0  0  0  0
  -22.1617  -27.5251   19.6966 C   0  0  1  0  0  0  0  0  0  0  0  0
  -27.2884  -19.2659   20.4302 C   0  0  2  0  0  0  0  0  0  0  0  0
  -32.1385  -22.4178   20.0301 C   0  0  2  0  0  0  0  0  0  0  0  0
  -35.9870  -20.6116   20.2510 C   0  0  0  0  0  0  0  0  0  0  0  0
  -22.2447  -21.9073   14.3640 C   0  0  0  0  0  0  0  0  0  0  0  0
  -20.9252  -23.1926   20.7262 C   0  0  0  0  0  0  0  0  0  0  0  0
  -21.2711  -21.5103   18.9045 C   0  0  0  0  0  0  0  0  0  0  0  0
  -19.4036  -23.1562   18.7418 C   0  0  0  0  0  0  0  0  0  0  0  0
  -24.0453  -25.2532   14.1669 C   0  0  0  0  0  0  0  0  0  0  0  0
  -33.1552  -24.5862   19.3252 C   0  0  0  0  0  0  0  0  0  0  0  0
  -29.4933  -27.6669   20.7389 C   0  0  0  0  0  0  0  0  0  1  0  0
  -31.6652  -21.8721   18.6772 C   0  0  0  0  0  0  0  0  0  0  0  0
  -21.7829  -23.9443   18.4099 C   0  0  1  0  0  0  0  0  0  0  0  0
  -22.5292  -23.3529   14.7408 C   0  0  2  0  0  0  0  0  0  0  0  0
  -20.8660  -22.9698   19.2018 C   0  0  0  0  0  0  0  0  0  0  0  0
  -31.3986  -27.2519   22.1855 N   0  0  0  0  0  0  0  0  0  0  0  0
  -26.2137  -17.0482   20.3332 N   0  0  0  0  0  0  0  0  0  0  0  0
  -27.2547  -17.7845   20.7577 N   0  0  0  0  0  0  0  0  0  0  0  0
  -33.3474  -23.2437   19.8629 N   0  0  0  0  0  0  0  0  0  0  0  0
  -22.4774  -26.1742   19.2281 N   0  0  0  0  0  0  0  0  0  0  0  0
  -28.0509  -20.9968   18.8455 N   0  0  0  0  0  0  0  0  0  0  0  0
  -29.2941  -17.6579   21.9558 N   0  0  0  0  0  0  0  0  0  0  0  0
  -29.2741  -13.9091   21.3733 N   0  0  0  0  0  0  0  0  0  0  0  0
  -20.5942  -27.7715   21.5241 N   0  0  0  0  0  0  0  0  0  0  0  0
  -21.7264  -23.7743   16.9621 N   0  0  0  0  0  0  0  0  0  0  0  0
  -30.4095  -21.1680   18.8125 N   0  0  0  0  0  0  0  0  0  0  0  0
  -33.5851  -20.5619   20.6745 N   0  3  0  0  0  0  0  0  0  0  0  0
  -23.6722  -23.8372   13.9162 N   0  3  0  0  0  0  0  0  0  0  0  0
  -35.6453  -23.3331   19.5703 O   0  0  0  0  0  0  0  0  0  0  0  0
  -28.1445  -14.3550   23.3185 O   0  0  0  0  0  0  0  0  0  0  0  0
  -22.7733  -27.0572   21.9286 O   0  0  0  0  0  0  0  0  0  0  0  0
  -20.3260  -25.8162   18.4036 O   0  0  0  0  0  0  0  0  0  0  0  0
  -23.9859  -23.3435   16.6683 O   0  0  0  0  0  0  0  0  0  0  0  0
  -29.1097  -23.0201   18.4419 O   0  0  0  0  0  0  0  0  0  0  0  0
  -23.0202  -11.5667   19.7841 O   0  0  0  0  0  0  0  0  0  0  0  0
  -28.4835  -26.6781   20.5417 O   0  0  0  0  0  0  0  0  0  1  0  0
  -23.6970   -6.9536   22.7277 F   0  0  0  0  0  0  0  0  0  0  0  0
  -20.9909  -10.6011   21.3941 F   0  0  0  0  0  0  0  0  0  0  0  0
  1  2  1  0  0  0  0
  1  5  2  0  0  0  0
  2  6  2  0  0  0  0
  3  8  2  0  0  0  0
  3 18  1  0  0  0  0
  4  9  1  0  0  0  0
  4 18  2  0  0  0  0
  5 20  1  0  0  0  0
  6 22  1  0  0  0  0
  7 10  2  0  0  0  0
  7 21  1  0  0  0  0
  8 25  1  0  0  0  0
  9 25  2  0  0  0  0
 10 26  1  0  0  0  0
 11 12  2  0  0  0  0
 11 27  1  0  0  0  0
 12 28  1  0  0  0  0
 13 17  2  0  0  0  0
 13 24  1  0  0  0  0
 14 23  1  0  0  0  0
 14 26  2  0  0  0  0
 15 24  2  0  0  0  0
 15 31  1  0  0  0  0
 16 28  2  0  0  0  0
 16 29  1  0  0  0  0
 17 66  1  0  0  0  0
 18 30  1  0  0  0  0
 19 30  1  0  0  0  0
 19 32  2  0  0  0  0
 19 34  1  0  0  0  0
 20 22  2  0  0  0  0
 20 39  1  0  0  0  0
 21 23  2  0  0  0  0
 21 40  1  0  0  0  0
 22 49  1  0  0  0  0
 23 41  1  0  0  0  0
 24 60  1  0  0  0  0
 25 85  1  0  0  0  0
 26 86  1  0  0  0  0
 27 29  2  0  0  0  0
 27 85  1  0  0  0  0
 28 87  1  0  0  0  0
 29 88  1  0  0  0  0
 30 67  2  0  0  0  0
 31 61  1  0  0  0  0
 31 66  2  0  0  0  0
 32 68  1  0  0  0  0
 32 72  1  0  0  0  0
 33 50  1  0  0  0  0
 33 69  1  0  0  0  0
 33 79  2  0  0  0  0
 34 73  1  0  0  0  0
 34 80  2  0  0  0  0
 35 51  1  0  0  0  0
 35 74  1  0  0  0  0
 35 81  2  0  0  0  0
 36 63  1  0  0  0  0
 36 70  1  0  0  0  0
 36 82  2  0  0  0  0
 37 64  1  0  0  0  0
 37 75  1  0  0  0  0
 37 83  2  0  0  0  0
 38 71  1  0  0  0  0
 38 76  1  0  0  0  0
 38 84  2  0  0  0  0
 39 42  1  0  0  0  0
 40 51  1  0  0  0  0
 41 70  1  0  0  0  0
 42 44  1  0  0  0  0
 43 45  1  0  0  0  0
 43 46  1  0  0  0  0
 44 49  1  0  0  0  0
 45 52  1  0  0  0  0
 46 71  1  0  0  0  0
 47 52  1  0  0  0  0
 47 71  1  0  0  0  0
 48 53  1  0  0  0  0
 48 77  1  0  0  0  0
 49 74  1  0  0  0  0
 50 54  1  0  0  0  0
 50 77  1  0  0  0  0
 51 70  1  0  0  0  0
 52 68  1  0  0  0  0
 53 62  1  0  0  0  0
 53 69  1  0  0  0  0
 55 64  1  0  0  0  0
 56 65  1  0  0  0  0
 57 65  1  0  0  0  0
 58 65  1  0  0  0  0
 59 78  1  0  0  0  0
 60 69  1  0  0  0  0
 61 86  1  0  0  0  0
 62 76  1  0  0  0  0
 63 65  1  0  0  0  0
 63 75  1  0  0  0  0
 64 78  1  0  0  0  0
 67 68  1  0  0  0  0
M  CHG  2  77   1  78   1
M  ISO  4  38 100  61 101  76 100  86 101
M  END
> <Batch ID>
0121

> <Smiles>
CNC(C)C(=O)NC(C(=O)N1Cc2cc([101O:1][101CH2:1]c3cc(CN4C(=O)C(C)NCC4C[100NH:0][100C:0](=O)N4CCCC(n5nc(-c6ccc(Oc7ccc(F)cc7F)cc6)c(C(N)=O)c5N)C4)ccn3)ccc2CC1C(=O)NC1CCCc2ccccc21)C(C)(C)C

> <Shape>
0.243

> <Color>
0.086

> <Negative vol penalty>
0.000

$$$$

  -OEChem-04052320253D

 86 95  0     1  0  0  0  0  0999 V2000
  -32.0021  -15.0982   21.5027 C   0  0  0  0  0  0  0  0  0  0  0  0
  -31.0538  -16.1156   21.4671 C   0  0  0  0  0  0  0  0  0  0  0  0
  -28.2302  -25.7405   19.5904 C   0  0  0  0  0  0  0  0  0  0  0  0
  -27.6075  -25.9514   21.9152 C   0  0  0  0  0  0  0  0  0  0  0  0
  -31.6677  -13.8193   21.0594 C   0  0  0  0  0  0  0  0  0  0  0  0
  -29.7708  -15.8548   20.9871 C   0  0  0  0  0  0  0  0  0  0  0  0
  -24.8887  -25.2248   21.8902 C   0  0  0  0  0  0  0  0  0  0  0  0
  -24.0117  -25.3280   24.1390 C   0  0  0  0  0  0  0  0  0  0  0  0
  -26.1566  -17.8529   23.9179 C   0  0  0  0  0  0  0  0  0  0  0  0
  -25.2980  -23.9097   22.1101 C   0  0  0  0  0  0  0  0  0  0  0  0
  -24.4210  -24.0128   24.3590 C   0  0  0  0  0  0  0  0  0  0  0  0
  -29.1158  -24.7148   19.9207 C   0  0  0  0  0  0  0  0  0  0  0  0
  -28.4931  -24.9256   22.2455 C   0  0  0  0  0  0  0  0  0  0  0  0
  -25.9181  -19.2207   23.7914 C   0  0  0  0  0  0  0  0  0  0  0  0
  -31.2750  -21.7959   20.1027 C   0  0  0  0  0  0  0  0  0  0  0  0
  -31.2770  -20.6566   19.2979 C   0  0  0  0  0  0  0  0  0  0  0  0
  -24.0090  -18.7523   22.3931 C   0  0  0  0  0  0  0  0  0  0  0  0
  -28.9522  -20.2745   19.8333 C   0  0  0  0  0  0  0  0  0  0  0  0
  -27.4761  -26.3589   20.5877 C   0  0  0  0  0  0  0  0  0  0  0  0
  -25.4584  -27.3429   19.3759 C   0  0  0  0  0  0  0  0  0  0  0  0
  -24.2455  -25.9340   22.9046 C   0  0  0  0  0  0  0  0  0  0  0  0
  -30.3771  -13.5404   20.5828 C   0  0  0  0  0  0  0  0  0  0  0  0
  -25.3282  -16.9233   23.2730 C   0  0  0  0  0  0  0  0  0  0  0  0
  -29.4193  -14.5713   20.5357 C   0  0  0  0  0  0  0  0  0  0  0  0
  -24.2376  -17.3732   22.5151 C   0  0  0  0  0  0  0  0  0  0  0  0
  -25.0642  -23.3037   23.3445 C   0  0  0  0  0  0  0  0  0  0  0  0
  -29.2473  -24.3073   21.2482 C   0  0  0  0  0  0  0  0  0  0  0  0
  -24.8459  -19.6707   23.0266 C   0  0  0  0  0  0  0  0  0  0  0  0
  -30.1117  -22.1744   20.7728 C   0  0  0  0  0  0  0  0  0  0  0  0
  -30.1156  -19.8959   19.1632 C   0  0  0  0  0  0  0  0  0  0  0  0
  -28.9503  -21.4137   20.6381 C   0  0  0  0  0  0  0  0  0  0  0  0
  -26.5615  -27.4190   20.2473 C   0  0  0  0  0  0  0  0  0  0  0  0
  -24.9197  -28.6062   19.3929 C   0  0  0  0  0  0  0  0  0  0  0  0
  -24.9649  -26.2298   18.6188 C   0  0  0  0  0  0  0  0  0  0  0  0
  -25.7613  -14.7028   21.0401 C   0  0  0  0  0  0  0  0  0  0  0  0
  -22.6735  -13.9754   21.7173 C   0  0  0  0  0  0  0  0  0  0  0  0
  -19.6561  -15.0008   22.9384 C   0  0  0  0  0  0  0  0  0  0  0  0
  -24.9259  -33.0276   23.2824 C   0  0  0  0  0  0  0  0  0  0  0  0
  -30.0765  -12.1542   20.0701 C   0  0  0  0  0  0  0  0  0  0  0  0
  -25.5830  -15.4505   23.4412 C   0  0  0  0  0  0  0  0  0  0  0  0
  -23.3065  -16.4155   21.8192 C   0  0  0  0  0  0  0  0  0  0  0  0
  -28.5839  -11.8684   19.9262 C   0  0  0  0  0  0  0  0  0  0  0  0
  -26.1110  -33.1873   20.0272 C   0  0  0  0  0  0  0  0  0  0  0  0
  -27.8828  -13.0297   19.2286 C   0  0  0  0  0  0  0  0  0  0  0  0
  -26.2614  -31.7226   19.6186 C   0  0  0  0  0  0  0  0  0  0  0  0
  -24.5184  -28.3486   23.6079 C   0  0  0  0  0  0  0  0  0  0  0  0
  -26.5657  -33.4004   21.4662 C   0  0  0  0  0  0  0  0  0  0  0  0
  -25.9876  -31.0701   22.0632 C   0  0  0  0  0  0  0  0  0  0  0  0
  -22.2787  -27.5076   22.7768 C   0  0  0  0  0  0  0  0  0  0  0  0
  -22.5328  -29.9031   23.4722 C   0  0  0  0  0  0  0  0  0  0  0  0
  -23.7997  -27.3653   22.6661 C   0  0  2  0  0  0  0  0  0  0  0  0
  -28.0097  -14.3215   20.0451 C   0  0  1  0  0  0  0  0  0  0  0  0
  -24.9811  -14.6081   22.3208 C   0  0  1  0  0  0  0  0  0  0  0  0
  -24.0534  -29.7935   23.3689 C   0  0  1  0  0  0  0  0  0  0  0  0
  -25.5396  -30.7962   20.6128 C   0  0  2  0  0  0  0  0  0  0  0  0
  -17.3118  -14.1948   23.3279 C   0  0  0  0  0  0  0  0  0  0  0  0
  -22.0851  -14.2535   18.7363 C   0  0  0  0  0  0  0  0  0  0  0  0
  -19.6494  -14.3855   19.3004 C   0  0  0  0  0  0  0  0  0  0  0  0
  -20.9452  -12.3257   19.8492 C   0  0  0  0  0  0  0  0  0  0  0  0
  -23.3121  -32.6269   25.1025 C   0  0  0  0  0  0  0  0  0  0  0  0
  -19.8724  -15.4235   25.8596 C   0  0  0  0  0  0  0  0  0  0  0  0
  -25.5033  -21.8883   23.5797 C   0  0  0  0  0  0  0  0  0  1  0  0
  -24.7236  -30.7455   24.3577 C   0  0  0  0  0  0  0  0  0  0  0  0
  -21.3299  -14.4286   21.1991 C   0  0  1  0  0  0  0  0  0  0  0  0
  -18.6994  -14.3601   23.9277 C   0  0  2  0  0  0  0  0  0  0  0  0
  -21.0209  -13.8667   19.7826 C   0  0  0  0  0  0  0  0  0  0  0  0
  -26.7157  -28.6345   20.7790 N   0  0  0  0  0  0  0  0  0  0  0  0
  -25.7025  -29.3339   20.2401 N   0  0  0  0  0  0  0  0  0  0  0  0
  -23.6010  -14.9856   22.0089 N   0  0  0  0  0  0  0  0  0  0  0  0
  -25.8638  -32.5008   22.3821 N   0  0  0  0  0  0  0  0  0  0  0  0
  -23.8575  -29.1545   18.7655 N   0  0  0  0  0  0  0  0  0  0  0  0
  -25.4585  -26.0323   17.3220 N   0  0  0  0  0  0  0  0  0  0  0  0
  -27.0813  -14.3108   21.1553 N   0  0  0  0  0  0  0  0  0  0  0  0
  -20.3530  -14.0553   22.2162 N   0  0  0  0  0  0  0  0  0  0  0  0
  -24.2868  -32.1241   24.1449 N   0  0  0  0  0  0  0  0  0  0  0  0
  -21.9017  -28.9323   22.5289 N   0  3  0  0  0  0  0  0  0  0  0  0
  -18.5844  -15.1987   25.1543 N   0  3  0  0  0  0  0  0  0  0  0  0
  -24.0993  -25.4435   19.0726 O   0  0  0  0  0  0  0  0  0  0  0  0
  -25.2063  -15.1005   20.0225 O   0  0  0  0  0  0  0  0  0  0  0  0
  -22.8894  -12.7699   21.8651 O   0  0  0  0  0  0  0  0  0  0  0  0
  -19.7708  -16.2183   22.8157 O   0  0  0  0  0  0  0  0  0  0  0  0
  -24.6777  -34.2397   23.3199 O   0  0  0  0  0  0  0  0  0  0  0  0
  -30.1112  -23.3062   21.5708 O   0  0  0  0  0  0  0  0  0  0  0  0
  -24.6112  -21.0053   22.9009 O   0  0  0  0  0  0  0  0  0  1  0  0
  -30.1171  -18.8027   18.3892 F   0  0  0  0  0  0  0  0  0  0  0  0
  -27.8293  -21.7731   21.2785 F   0  0  0  0  0  0  0  0  0  0  0  0
  1  2  1  0  0  0  0
  1  5  2  0  0  0  0
  2  6  2  0  0  0  0
  3 12  2  0  0  0  0
  3 19  1  0  0  0  0
  4 13  1  0  0  0  0
  4 19  2  0  0  0  0
  5 22  1  0  0  0  0
  6 24  1  0  0  0  0
  7 10  2  0  0  0  0
  7 21  1  0  0  0  0
  8 11  1  0  0  0  0
  8 21  2  0  0  0  0
  9 14  2  0  0  0  0
  9 23  1  0  0  0  0
 10 26  1  0  0  0  0
 11 26  2  0  0  0  0
 12 27  1  0  0  0  0
 13 27  2  0  0  0  0
 14 28  1  0  0  0  0
 15 16  2  0  0  0  0
 15 29  1  0  0  0  0
 16 30  1  0  0  0  0
 17 25  1  0  0  0  0
 17 28  2  0  0  0  0
 18 30  2  0  0  0  0
 18 31  1  0  0  0  0
 19 32  1  0  0  0  0
 20 32  1  0  0  0  0
 20 33  2  0  0  0  0
 20 34  1  0  0  0  0
 21 51  1  0  0  0  0
 22 24  2  0  0  0  0
 22 39  1  0  0  0  0
 23 25  2  0  0  0  0
 23 40  1  0  0  0  0
 24 52  1  0  0  0  0
 25 41  1  0  0  0  0
 26 62  1  0  0  0  0
 27 83  1  0  0  0  0
 28 84  1  0  0  0  0
 29 31  2  0  0  0  0
 29 83  1  0  0  0  0
 30 85  1  0  0  0  0
 31 86  1  0  0  0  0
 32 67  2  0  0  0  0
 33 68  1  0  0  0  0
 33 71  1  0  0  0  0
 34 72  1  0  0  0  0
 34 78  2  0  0  0  0
 35 53  1  0  0  0  0
 35 73  1  0  0  0  0
 35 79  2  0  0  0  0
 36 64  1  0  0  0  0
 36 69  1  0  0  0  0
 36 80  2  0  0  0  0
 37 65  1  0  0  0  0
 37 74  1  0  0  0  0
 37 81  2  0  0  0  0
 38 70  1  0  0  0  0
 38 75  1  0  0  0  0
 38 82  2  0  0  0  0
 39 42  1  0  0  0  0
 40 53  1  0  0  0  0
 41 69  1  0  0  0  0
 42 44  1  0  0  0  0
 43 45  1  0  0  0  0
 43 47  1  0  0  0  0
 44 52  1  0  0  0  0
 45 55  1  0  0  0  0
 46 51  1  0  0  0  0
 46 54  1  0  0  0  0
 47 70  1  0  0  0  0
 48 55  1  0  0  0  0
 48 70  1  0  0  0  0
 49 51  1  0  0  0  0
 49 76  1  0  0  0  0
 50 54  1  0  0  0  0
 50 76  1  0  0  0  0
 52 73  1  0  0  0  0
 53 69  1  0  0  0  0
 54 63  1  0  0  0  0
 55 68  1  0  0  0  0
 56 65  1  0  0  0  0
 57 66  1  0  0  0  0
 58 66  1  0  0  0  0
 59 66  1  0  0  0  0
 60 75  1  0  0  0  0
 61 77  1  0  0  0  0
 62 84  1  0  0  0  0
 63 75  1  0  0  0  0
 64 66  1  0  0  0  0
 64 74  1  0  0  0  0
 65 77  1  0  0  0  0
 67 68  1  0  0  0  0
M  CHG  2  76   1  77   1
M  ISO  4  38 100  62 101  75 100  84 101
M  END
> <Batch ID>
0121

> <Smiles>
CNC(C)C(=O)NC(C(=O)N1Cc2cc([101O:1][101CH2:1]c3ccc(C4CNCC(C[100N:0](C)[100C:0](=O)N5CCCC(n6nc(-c7ccc(Oc8ccc(F)cc8F)cc7)c(C(N)=O)c6N)C5)C4)cc3)ccc2CC1C(=O)NC1CCCc2ccccc21)C(C)(C)C

> <Shape>
0.241

> <Color>
0.059

> <Negative vol penalty>
0.000

$$$$

  -OEChem-04052320253D

 88 97  0     1  0  0  0  0  0999 V2000
  -30.8310  -35.1372   21.6286 C   0  0  0  0  0  0  0  0  0  0  0  0
  -30.5847  -33.7680   21.6254 C   0  0  0  0  0  0  0  0  0  0  0  0
  -21.0049   -6.4323   21.6675 C   0  0  0  0  0  0  0  0  0  0  0  0
  -23.2701   -5.6134   21.8551 C   0  0  0  0  0  0  0  0  0  0  0  0
  -29.9408  -36.0030   22.2625 C   0  0  0  0  0  0  0  0  0  0  0  0
  -29.4484  -33.2637   22.2571 C   0  0  0  0  0  0  0  0  0  0  0  0
  -27.0502  -29.7903   19.4591 C   0  0  0  0  0  0  0  0  0  0  0  0
  -29.8167  -24.1257   20.5366 C   0  0  0  0  0  0  0  0  0  0  0  0
  -20.5217   -5.1354   21.8408 C   0  0  0  0  0  0  0  0  0  0  0  0
  -22.7869   -4.3164   22.0286 C   0  0  0  0  0  0  0  0  0  0  0  0
  -27.5955  -28.5075   19.4318 C   0  0  0  0  0  0  0  0  0  0  0  0
  -21.4392   -2.4747   24.5210 C   0  0  0  0  0  0  0  0  0  0  0  0
  -22.0076   -1.7030   25.5344 C   0  0  0  0  0  0  0  0  0  0  0  0
  -30.1925  -22.7883   20.5952 C   0  0  0  0  0  0  0  0  0  0  0  0
  -25.9655  -27.7864   21.0573 C   0  0  0  0  0  0  0  0  0  0  0  0
  -22.7090   -0.0703   23.8975 C   0  0  0  0  0  0  0  0  0  0  0  0
  -28.8169  -23.6982   18.4214 C   0  0  0  0  0  0  0  0  0  0  0  0
  -22.3792   -6.6713   21.6746 C   0  0  0  0  0  0  0  0  0  0  0  0
  -23.1401   -8.9624   22.4989 C   0  0  0  0  0  0  0  0  0  0  0  0
  -28.7881  -35.5100   22.8940 C   0  0  0  0  0  0  0  0  0  0  0  0
  -25.9635  -30.0841   20.2953 C   0  0  0  0  0  0  0  0  0  0  0  0
  -28.5427  -34.1236   22.9012 C   0  0  0  0  0  0  0  0  0  0  0  0
  -25.4065  -29.0731   21.0915 C   0  0  0  0  0  0  0  0  0  0  0  0
  -29.1155  -24.5973   19.4325 C   0  0  0  0  0  0  0  0  0  0  0  0
  -21.4126   -4.0774   22.0214 C   0  0  0  0  0  0  0  0  0  0  0  0
  -27.0550  -27.5060   20.2331 C   0  0  0  0  0  0  0  0  0  0  0  0
  -21.5056   -2.0442   23.1959 C   0  0  0  0  0  0  0  0  0  0  0  0
  -22.6426   -0.5008   25.2226 C   0  0  0  0  0  0  0  0  0  0  0  0
  -22.1405   -0.8420   22.8841 C   0  0  0  0  0  0  0  0  0  0  0  0
  -22.8790   -8.0107   21.4949 C   0  0  0  0  0  0  0  0  0  0  0  0
  -29.8456  -21.9702   19.5321 C   0  0  0  0  0  0  0  0  0  0  0  0
  -23.5959  -10.0643   21.8173 C   0  0  0  0  0  0  0  0  0  0  0  0
  -22.9847   -8.8595   23.9205 C   0  0  0  0  0  0  0  0  0  0  0  0
  -25.4844  -32.0562   22.7416 C   0  0  0  0  0  0  0  0  0  0  0  0
  -22.4203  -31.0278   22.4662 C   0  0  0  0  0  0  0  0  0  0  0  0
  -20.2623  -28.5986   21.4225 C   0  0  0  0  0  0  0  0  0  0  0  0
  -26.7876  -12.3606   17.8569 C   0  0  0  0  0  0  0  0  0  0  0  0
  -27.8797  -36.4802   23.6068 C   0  0  0  0  0  0  0  0  0  0  0  0
  -25.3698  -31.4661   20.2933 C   0  0  0  0  0  0  0  0  0  0  0  0
  -24.2269  -29.3319   21.9914 C   0  0  0  0  0  0  0  0  0  0  0  0
  -26.5046  -35.9017   23.9304 C   0  0  0  0  0  0  0  0  0  0  0  0
  -23.6086  -11.1001   16.8662 C   0  0  0  0  0  0  0  0  0  0  0  0
  -26.6407  -34.5093   24.5381 C   0  0  0  0  0  0  0  0  0  0  0  0
  -23.1602  -10.2579   18.0619 C   0  0  0  0  0  0  0  0  0  0  0  0
  -30.0214  -17.6802   18.6229 C   0  0  0  0  0  0  0  0  0  0  0  0
  -25.1152  -10.9992   16.6380 C   0  0  0  0  0  0  0  0  0  0  0  0
  -29.5096  -16.2442   18.5231 C   0  0  0  0  0  0  0  0  0  0  0  0
  -25.4942  -10.4676   19.0145 C   0  0  0  0  0  0  0  0  0  0  0  0
  -27.3082  -33.5408   23.5543 C   0  0  1  0  0  0  0  0  0  0  0  0
  -24.5900  -31.7832   21.5655 C   0  0  1  0  0  0  0  0  0  0  0  0
  -23.9906  -10.5815   19.3185 C   0  0  2  0  0  0  0  0  0  0  0  0
  -29.4677  -18.1828   19.9462 C   0  0  2  0  0  0  0  0  0  0  0  0
  -28.2562  -17.2959   20.2094 C   0  0  2  0  0  0  0  0  0  0  0  0
  -27.8228  -17.3211   21.6708 C   0  0  0  0  0  0  0  0  0  0  0  0
  -17.8202  -28.0236   21.3690 C   0  0  0  0  0  0  0  0  0  0  0  0
  -22.5267  -30.3100   25.4299 C   0  0  0  0  0  0  0  0  0  0  0  0
  -20.4794  -28.9090   25.0927 C   0  0  0  0  0  0  0  0  0  0  0  0
  -20.3855  -31.3688   24.6892 C   0  0  0  0  0  0  0  0  0  0  0  0
  -20.2260  -28.5238   18.4641 C   0  0  0  0  0  0  0  0  0  0  0  0
  -28.6958  -26.0349   19.3391 C   0  0  0  0  0  0  0  0  0  1  0  0
  -30.2325  -20.5293   19.5616 C   0  0  0  0  0  0  0  0  0  0  0  0
  -27.7784  -14.9610   19.6287 C   0  0  0  0  0  0  0  0  0  0  0  0
  -28.4205  -13.6452   19.2144 C   0  0  0  0  0  0  0  0  0  0  0  0
  -21.6179  -29.8901   23.0501 C   0  0  1  0  0  0  0  0  0  0  0  0
  -18.9751  -28.6713   20.6211 C   0  0  2  0  0  0  0  0  0  0  0  0
  -21.2758  -30.1148   24.5501 C   0  0  0  0  0  0  0  0  0  0  0  0
  -29.1651  -22.3922   18.4428 N   0  0  0  0  0  0  0  0  0  0  0  0
  -23.1465   -8.4680   20.2688 N   0  0  0  0  0  0  0  0  0  0  0  0
  -23.5803   -9.7192   20.4979 N   0  0  0  0  0  0  0  0  0  0  0  0
  -23.6858  -30.7007   21.9590 N   0  0  0  0  0  0  0  0  0  0  0  0
  -25.8446  -11.3196   17.8673 N   0  0  0  0  0  0  0  0  0  0  0  0
  -28.7949  -15.9937   19.7830 N   0  0  1  0  0  0  0  0  0  0  0  0
  -24.0043  -11.2851   22.2238 N   0  0  0  0  0  0  0  0  0  0  0  0
  -22.5045   -7.6561   24.4548 N   0  0  0  0  0  0  0  0  0  0  0  0
  -26.3605  -33.1075   22.5501 N   0  0  0  0  0  0  0  0  0  0  0  0
  -20.4513  -29.7292   22.1888 N   0  0  0  0  0  0  0  0  0  0  0  0
  -27.4295  -12.6029   19.0652 N   0  0  0  0  0  0  0  0  0  0  0  0
  -29.0926  -19.6180   19.8559 N   0  3  0  0  0  0  0  0  0  0  0  0
  -19.1387  -27.9741   19.3141 N   0  3  0  0  0  0  0  0  0  0  0  0
  -23.2477   -9.8124   24.6928 O   0  0  0  0  0  0  0  0  0  0  0  0
  -25.3858  -31.3653   23.7489 O   0  0  0  0  0  0  0  0  0  0  0  0
  -21.9389  -32.1635   22.4540 O   0  0  0  0  0  0  0  0  0  0  0  0
  -21.0221  -27.6337   21.3765 O   0  0  0  0  0  0  0  0  0  0  0  0
  -27.0351  -13.0284   16.8471 O   0  0  0  0  0  0  0  0  0  0  0  0
  -20.9414   -2.8118   22.1908 O   0  0  0  0  0  0  0  0  0  0  0  0
  -27.5858  -26.2532   20.2089 O   0  0  0  0  0  0  0  0  0  1  0  0
  -23.1898    0.2394   26.1957 F   0  0  0  0  0  0  0  0  0  0  0  0
  -22.2085   -0.4237   21.6128 F   0  0  0  0  0  0  0  0  0  0  0  0
  1  2  1  0  0  0  0
  1  5  2  0  0  0  0
  2  6  2  0  0  0  0
  3  9  2  0  0  0  0
  3 18  1  0  0  0  0
  4 10  1  0  0  0  0
  4 18  2  0  0  0  0
  5 20  1  0  0  0  0
  6 22  1  0  0  0  0
  7 11  2  0  0  0  0
  7 21  1  0  0  0  0
  8 14  2  0  0  0  0
  8 24  1  0  0  0  0
  9 25  1  0  0  0  0
 10 25  2  0  0  0  0
 11 26  1  0  0  0  0
 12 13  2  0  0  0  0
 12 27  1  0  0  0  0
 13 28  1  0  0  0  0
 14 31  1  0  0  0  0
 15 23  1  0  0  0  0
 15 26  2  0  0  0  0
 16 28  2  0  0  0  0
 16 29  1  0  0  0  0
 17 24  2  0  0  0  0
 17 67  1  0  0  0  0
 18 30  1  0  0  0  0
 19 30  1  0  0  0  0
 19 32  2  0  0  0  0
 19 33  1  0  0  0  0
 20 22  2  0  0  0  0
 20 38  1  0  0  0  0
 21 23  2  0  0  0  0
 21 39  1  0  0  0  0
 22 49  1  0  0  0  0
 23 40  1  0  0  0  0
 24 60  1  0  0  0  0
 25 85  1  0  0  0  0
 26 86  1  0  0  0  0
 27 29  2  0  0  0  0
 27 85  1  0  0  0  0
 28 87  1  0  0  0  0
 29 88  1  0  0  0  0
 30 68  2  0  0  0  0
 31 61  1  0  0  0  0
 31 67  2  0  0  0  0
 32 69  1  0  0  0  0
 32 73  1  0  0  0  0
 33 74  1  0  0  0  0
 33 80  2  0  0  0  0
 34 50  1  0  0  0  0
 34 75  1  0  0  0  0
 34 81  2  0  0  0  0
 35 64  1  0  0  0  0
 35 70  1  0  0  0  0
 35 82  2  0  0  0  0
 36 65  1  0  0  0  0
 36 76  1  0  0  0  0
 36 83  2  0  0  0  0
 37 71  1  0  0  0  0
 37 77  1  0  0  0  0
 37 84  2  0  0  0  0
 38 41  1  0  0  0  0
 39 50  1  0  0  0  0
 40 70  1  0  0  0  0
 41 43  1  0  0  0  0
 42 44  1  0  0  0  0
 42 46  1  0  0  0  0
 43 49  1  0  0  0  0
 44 51  1  0  0  0  0
 45 47  1  0  0  0  0
 45 52  1  0  0  0  0
 46 71  1  0  0  0  0
 47 72  1  0  0  0  0
 48 51  1  0  0  0  0
 48 71  1  0  0  0  0
 49 75  1  0  0  0  0
 50 70  1  0  0  0  0
 51 69  1  0  0  0  0
 52 53  1  0  0  0  0
 52 78  1  0  0  0  0
 53 54  1  0  0  0  0
 53 72  1  0  0  0  0
 55 65  1  0  0  0  0
 56 66  1  0  0  0  0
 57 66  1  0  0  0  0
 58 66  1  0  0  0  0
 59 79  1  0  0  0  0
 60 86  1  0  0  0  0
 61 78  1  0  0  0  0
 62 63  1  0  0  0  0
 62 72  1  0  0  0  0
 63 77  1  0  0  0  0
 64 66  1  0  0  0  0
 64 76  1  0  0  0  0
 65 79  1  0  0  0  0
 68 69  1  0  0  0  0
M  CHG  2  78   1  79   1
M  ISO  4  37 100  60 101  77 100  86 101
M  END
> <Batch ID>
0121

> <Smiles>
CNC(C)C(=O)NC(C(=O)N1Cc2cc([101O:1][101CH2:1]c3ccc(CNC4CCN(CC[100NH:0][100C:0](=O)N5CCCC(n6nc(-c7ccc(Oc8ccc(F)cc8F)cc7)c(C(N)=O)c6N)C5)C4C)nc3)ccc2CC1C(=O)NC1CCCc2ccccc21)C(C)(C)C

> <Shape>
0.286

> <Color>
0.069

> <Negative vol penalty>
0.000

$$$$

  -OEChem-04052320253D

 88 97  0     1  0  0  0  0  0999 V2000
  -32.4014  -14.2801   19.1940 C   0  0  0  0  0  0  0  0  0  0  0  0
  -31.6205  -15.4295   19.2613 C   0  0  0  0  0  0  0  0  0  0  0  0
  -26.1065  -27.2225   21.7087 C   0  0  0  0  0  0  0  0  0  0  0  0
  -24.7432  -28.4540   20.1396 C   0  0  0  0  0  0  0  0  0  0  0  0
  -31.7987  -13.0245   19.2582 C   0  0  0  0  0  0  0  0  0  0  0  0
  -30.2362  -15.3239   19.3917 C   0  0  0  0  0  0  0  0  0  0  0  0
  -26.5344  -19.0810   22.5040 C   0  0  0  0  0  0  0  0  0  0  0  0
  -26.4380  -26.3116   20.7058 C   0  0  0  0  0  0  0  0  0  0  0  0
  -25.0747  -27.5431   19.1366 C   0  0  0  0  0  0  0  0  0  0  0  0
  -25.7237  -20.1424   22.1041 C   0  0  0  0  0  0  0  0  0  0  0  0
  -28.5499  -26.1690   18.0690 C   0  0  0  0  0  0  0  0  0  0  0  0
  -29.8876  -25.7913   17.9527 C   0  0  0  0  0  0  0  0  0  0  0  0
  -23.8297  -18.6516   22.0074 C   0  0  0  0  0  0  0  0  0  0  0  0
  -29.2722  -23.4891   18.3508 C   0  0  0  0  0  0  0  0  0  0  0  0
  -25.2590  -28.2937   21.4256 C   0  0  0  0  0  0  0  0  0  0  0  0
  -25.6004  -30.4186   22.7953 C   0  0  0  0  0  0  0  0  0  0  0  0
  -30.4073  -12.9035   19.3991 C   0  0  0  0  0  0  0  0  0  0  0  0
  -26.0002  -17.7925   22.6483 C   0  0  0  0  0  0  0  0  0  0  0  0
  -29.6142  -14.0654   19.4565 C   0  0  0  0  0  0  0  0  0  0  0  0
  -24.6352  -17.5760   22.4118 C   0  0  0  0  0  0  0  0  0  0  0  0
  -25.9222  -26.4719   19.4197 C   0  0  0  0  0  0  0  0  0  0  0  0
  -24.3718  -19.9272   21.8530 C   0  0  0  0  0  0  0  0  0  0  0  0
  -27.5733  -25.2068   18.3263 C   0  0  0  0  0  0  0  0  0  0  0  0
  -30.2487  -24.4514   18.0936 C   0  0  0  0  0  0  0  0  0  0  0  0
  -27.9345  -23.8669   18.4672 C   0  0  0  0  0  0  0  0  0  0  0  0
  -24.9158  -29.2347   22.4614 C   0  0  0  0  0  0  0  0  0  0  0  0
  -24.8799  -30.9498   23.8370 C   0  0  0  0  0  0  0  0  0  0  0  0
  -26.7821  -30.9873   22.2157 C   0  0  0  0  0  0  0  0  0  0  0  0
  -26.5243  -14.9790   21.2650 C   0  0  0  0  0  0  0  0  0  0  0  0
  -24.4496  -13.9210   23.5230 C   0  0  0  0  0  0  0  0  0  0  0  0
  -21.8940  -14.6320   25.6701 C   0  0  0  0  0  0  0  0  0  0  0  0
  -20.7615  -27.2798   23.9629 C   0  0  0  0  0  0  0  0  0  0  0  0
  -29.7966  -11.5246   19.4166 C   0  0  0  0  0  0  0  0  0  0  0  0
  -26.8823  -16.6635   23.1063 C   0  0  0  0  0  0  0  0  0  0  0  0
  -24.0085  -16.2158   22.5718 C   0  0  0  0  0  0  0  0  0  0  0  0
  -28.3598  -11.5012   19.9317 C   0  0  0  0  0  0  0  0  0  0  0  0
  -23.0597  -28.1405   26.5593 C   0  0  0  0  0  0  0  0  0  0  0  0
  -27.5409  -12.6109   19.2799 C   0  0  0  0  0  0  0  0  0  0  0  0
  -21.9919  -23.3256   21.9171 C   0  0  0  0  0  0  0  0  0  0  0  0
  -23.7529  -24.6288   20.6613 C   0  0  0  0  0  0  0  0  0  0  0  0
  -20.9430  -24.3644   21.5242 C   0  0  0  0  0  0  0  0  0  0  0  0
  -22.7040  -25.6677   20.2685 C   0  0  0  0  0  0  0  0  0  0  0  0
  -23.2078  -29.6549   26.4639 C   0  0  0  0  0  0  0  0  0  0  0  0
  -17.5534  -28.2332   22.5714 C   0  0  0  0  0  0  0  0  0  0  0  0
  -21.6362  -27.7191   26.2294 C   0  0  0  0  0  0  0  0  0  0  0  0
  -18.7957  -28.7451   23.2851 C   0  0  0  0  0  0  0  0  0  0  0  0
  -21.3714  -29.6474   24.6811 C   0  0  0  0  0  0  0  0  0  0  0  0
  -28.1119  -13.9921   19.6229 C   0  0  1  0  0  0  0  0  0  0  0  0
  -26.3412  -15.2894   22.7237 C   0  0  1  0  0  0  0  0  0  0  0  0
  -23.1257  -23.2473   20.8869 C   0  0  0  0  0  0  0  0  0  0  0  0
  -21.5702  -25.7459   21.2987 C   0  0  0  0  0  0  0  0  0  0  0  0
  -18.1421  -27.5384   21.3435 C   0  0  1  0  0  0  0  0  0  0  0  0
  -22.7490  -30.2073   25.1048 C   0  0  2  0  0  0  0  0  0  0  0  0
  -19.4071  -26.8663   21.9064 C   0  0  1  0  0  0  0  0  0  0  0  0
  -16.0992  -28.3263   19.1860 C   0  0  0  0  0  0  0  0  0  0  0  0
  -20.3815  -13.5543   27.3577 C   0  0  0  0  0  0  0  0  0  0  0  0
  -21.1455  -28.1187   20.5974 C   0  0  0  0  0  0  0  0  0  0  0  0
  -16.8306  -25.4345   21.6853 C   0  0  0  0  0  0  0  0  0  0  0  0
  -22.8223  -12.6728   21.2638 C   0  0  0  0  0  0  0  0  0  0  0  0
  -20.9037  -12.4583   22.8580 C   0  0  0  0  0  0  0  0  0  0  0  0
  -23.0372  -11.2458   23.3063 C   0  0  0  0  0  0  0  0  0  0  0  0
  -22.8968  -16.3664   27.8484 C   0  0  0  0  0  0  0  0  0  0  0  0
  -24.1856  -22.2390   21.3267 C   0  0  0  0  0  0  0  0  0  1  0  0
  -15.8700  -27.2394   20.2266 C   0  0  0  0  0  0  0  0  0  0  0  0
  -22.9513  -13.7550   23.6044 C   0  0  1  0  0  0  0  0  0  0  0  0
  -21.6887  -14.2993   27.1370 C   0  0  2  0  0  0  0  0  0  0  0  0
  -20.5103  -26.7543   20.8590 C   0  0  1  0  0  0  0  0  0  0  0  0
  -17.1706  -26.5607   20.7015 C   0  0  1  0  0  0  0  0  0  0  0  0
  -22.4405  -12.5583   22.7531 C   0  0  0  0  0  0  0  0  0  0  0  0
  -23.8428  -29.0256   23.2288 N   0  0  0  0  0  0  0  0  0  0  0  0
  -23.8478  -30.0853   24.0554 N   0  0  0  0  0  0  0  0  0  0  0  0
  -24.9137  -15.1428   23.0155 N   0  0  0  0  0  0  0  0  0  0  0  0
  -21.2123  -28.2051   24.9162 N   0  0  0  0  0  0  0  0  0  0  0  0
  -19.8034  -27.7112   23.0421 N   0  0  0  0  0  0  0  0  0  0  0  0
  -25.0348  -32.0673   24.5784 N   0  0  0  0  0  0  0  0  0  0  0  0
  -27.3965  -30.3116   21.1526 N   0  0  0  0  0  0  0  0  0  0  0  0
  -27.7315  -14.3772   20.9651 N   0  0  0  0  0  0  0  0  0  0  0  0
  -22.6277  -13.6598   25.0237 N   0  0  0  0  0  0  0  0  0  0  0  0
  -21.6623  -15.5465   27.9522 N   0  3  0  0  0  0  0  0  0  0  0  0
  -27.2877  -32.0544   22.6390 O   0  0  0  0  0  0  0  0  0  0  0  0
  -25.6355  -15.2631   20.4706 O   0  0  0  0  0  0  0  0  0  0  0  0
  -25.1812  -13.0032   23.9025 O   0  0  0  0  0  0  0  0  0  0  0  0
  -21.4450  -15.6505   25.1489 O   0  0  0  0  0  0  0  0  0  0  0  0
  -21.1891  -26.1181   23.9404 O   0  0  0  0  0  0  0  0  0  0  0  0
  -26.2456  -25.5833   18.4408 O   0  0  0  0  0  0  0  0  0  0  0  0
  -23.5711  -20.9710   21.4583 O   0  0  0  0  0  0  0  0  0  1  0  0
  -31.5331  -24.0886   17.9803 F   0  0  0  0  0  0  0  0  0  0  0  0
  -27.0006  -22.9378   18.7133 F   0  0  0  0  0  0  0  0  0  0  0  0
  1  2  1  0  0  0  0
  1  5  2  0  0  0  0
  2  6  2  0  0  0  0
  3  8  2  0  0  0  0
  3 15  1  0  0  0  0
  4  9  1  0  0  0  0
  4 15  2  0  0  0  0
  5 17  1  0  0  0  0
  6 19  1  0  0  0  0
  7 10  2  0  0  0  0
  7 18  1  0  0  0  0
  8 21  1  0  0  0  0
  9 21  2  0  0  0  0
 10 22  1  0  0  0  0
 11 12  2  0  0  0  0
 11 23  1  0  0  0  0
 12 24  1  0  0  0  0
 13 20  1  0  0  0  0
 13 22  2  0  0  0  0
 14 24  2  0  0  0  0
 14 25  1  0  0  0  0
 15 26  1  0  0  0  0
 16 26  1  0  0  0  0
 16 27  2  0  0  0  0
 16 28  1  0  0  0  0
 17 19  2  0  0  0  0
 17 33  1  0  0  0  0
 18 20  2  0  0  0  0
 18 34  1  0  0  0  0
 19 48  1  0  0  0  0
 20 35  1  0  0  0  0
 21 85  1  0  0  0  0
 22 86  1  0  0  0  0
 23 25  2  0  0  0  0
 23 85  1  0  0  0  0
 24 87  1  0  0  0  0
 25 88  1  0  0  0  0
 26 70  2  0  0  0  0
 27 71  1  0  0  0  0
 27 75  1  0  0  0  0
 28 76  1  0  0  0  0
 28 80  2  0  0  0  0
 29 49  1  0  0  0  0
 29 77  1  0  0  0  0
 29 81  2  0  0  0  0
 30 65  1  0  0  0  0
 30 72  1  0  0  0  0
 30 82  2  0  0  0  0
 31 66  1  0  0  0  0
 31 78  1  0  0  0  0
 31 83  2  0  0  0  0
 32 73  1  0  0  0  0
 32 74  1  0  0  0  0
 32 84  2  0  0  0  0
 33 36  1  0  0  0  0
 34 49  1  0  0  0  0
 35 72  1  0  0  0  0
 36 38  1  0  0  0  0
 37 43  1  0  0  0  0
 37 45  1  0  0  0  0
 38 48  1  0  0  0  0
 39 41  1  0  0  0  0
 39 50  1  0  0  0  0
 40 42  1  0  0  0  0
 40 50  1  0  0  0  0
 41 51  1  0  0  0  0
 42 51  1  0  0  0  0
 43 53  1  0  0  0  0
 44 46  1  0  0  0  0
 44 52  1  0  0  0  0
 45 73  1  0  0  0  0
 46 74  1  0  0  0  0
 47 53  1  0  0  0  0
 47 73  1  0  0  0  0
 48 77  1  0  0  0  0
 49 72  1  0  0  0  0
 50 63  1  0  0  0  0
 51 67  1  0  0  0  0
 52 54  1  0  0  0  0
 52 68  1  0  0  0  0
 53 71  1  0  0  0  0
 54 67  1  0  0  0  0
 54 74  1  0  0  0  0
 55 64  1  0  0  0  0
 56 66  1  0  0  0  0
 57 67  1  0  0  0  0
 58 68  1  0  0  0  0
 59 69  1  0  0  0  0
 60 69  1  0  0  0  0
 61 69  1  0  0  0  0
 62 79  1  0  0  0  0
 63 86  1  0  0  0  0
 64 68  1  0  0  0  0
 65 69  1  0  0  0  0
 65 78  1  0  0  0  0
 66 79  1  0  0  0  0
 70 71  1  0  0  0  0
M  CHG  1  79   1
M  ISO  4  32 100  63 101  74 100  86 101
M  END
> <Batch ID>
0121

> <Smiles>
CCC(C)C1CC[100N:0]([100C:0](=O)N2CCCC(n3nc(-c4ccc(Oc5ccc(F)cc5F)cc4)c(C(N)=O)c3N)C2)C1C(C)C1CCC([101CH2:1][101O:1]c2ccc3c(c2)CN(C(=O)C(NC(=O)C(C)NC)C(C)(C)C)C(C(=O)NC2CCCc4ccccc42)C3)CC1

> <Shape>
0.231

> <Color>
0.072

> <Negative vol penalty>
0.000

$$$$

  -OEChem-04052320253D

 87 95  0     1  0  0  0  0  0999 V2000
  -26.3494  -33.4849   26.1481 C   0  0  0  0  0  0  0  0  0  0  0  0
  -26.3547  -32.1621   26.5788 C   0  0  0  0  0  0  0  0  0  0  0  0
  -22.8446  -10.1023   20.1110 C   0  0  0  0  0  0  0  0  0  0  0  0
  -24.2729   -9.5477   21.9790 C   0  0  0  0  0  0  0  0  0  0  0  0
  -26.3140  -33.7727   24.7843 C   0  0  0  0  0  0  0  0  0  0  0  0
  -26.3234  -31.1261   25.6459 C   0  0  0  0  0  0  0  0  0  0  0  0
  -31.2433  -25.1400   24.6520 C   0  0  0  0  0  0  0  0  0  0  0  0
  -22.1356   -8.9163   20.3010 C   0  0  0  0  0  0  0  0  0  0  0  0
  -23.5639   -8.3617   22.1691 C   0  0  0  0  0  0  0  0  0  0  0  0
  -32.1280  -24.1284   24.2776 C   0  0  0  0  0  0  0  0  0  0  0  0
  -20.6313   -7.4091   23.5521 C   0  0  0  0  0  0  0  0  0  0  0  0
  -20.2712   -7.0730   24.8571 C   0  0  0  0  0  0  0  0  0  0  0  0
  -31.3246  -24.2541   22.0001 C   0  0  0  0  0  0  0  0  0  0  0  0
  -21.5410   -5.0253   24.6801 C   0  0  0  0  0  0  0  0  0  0  0  0
  -23.9133  -10.4181   20.9500 C   0  0  0  0  0  0  0  0  0  0  0  0
  -24.1392  -12.9550   20.8060 C   0  0  0  0  0  0  0  0  0  0  0  0
  -26.2920  -32.7397   23.8340 C   0  0  0  0  0  0  0  0  0  0  0  0
  -30.4057  -25.7239   23.6975 C   0  0  0  0  0  0  0  0  0  0  0  0
  -26.2863  -31.4004   24.2682 C   0  0  0  0  0  0  0  0  0  0  0  0
  -30.4452  -25.2764   22.3667 C   0  0  0  0  0  0  0  0  0  0  0  0
  -22.4952   -8.0459   21.3300 C   0  0  0  0  0  0  0  0  0  0  0  0
  -32.1683  -23.6864   22.9550 C   0  0  0  0  0  0  0  0  0  0  0  0
  -21.4461   -6.5532   22.8111 C   0  0  0  0  0  0  0  0  0  0  0  0
  -20.7261   -5.8811   25.4211 C   0  0  0  0  0  0  0  0  0  0  0  0
  -21.9011   -5.3613   23.3751 C   0  0  0  0  0  0  0  0  0  0  0  0
  -24.6465  -11.6428   20.7539 C   0  0  0  0  0  0  0  0  0  0  0  0
  -25.2275  -13.7542   20.5545 C   0  0  0  0  0  0  0  0  0  0  0  0
  -22.8035  -13.4107   21.0592 C   0  0  0  0  0  0  0  0  0  0  0  0
  -31.2686  -19.5817   23.0711 C   0  0  0  0  0  0  0  0  0  0  0  0
  -27.7512  -28.2705   22.9601 C   0  0  0  0  0  0  0  0  0  0  0  0
  -29.7127  -28.3197   20.6021 C   0  0  0  0  0  0  0  0  0  0  0  0
  -32.3255  -28.3611   18.4092 C   0  0  0  0  0  0  0  0  0  0  0  0
  -31.1189  -12.9661   21.2772 C   0  0  0  0  0  0  0  0  0  0  0  0
  -26.2062  -33.1001   22.3720 C   0  0  0  0  0  0  0  0  0  0  0  0
  -29.3937  -26.7737   24.0683 C   0  0  0  0  0  0  0  0  0  0  0  0
  -29.5014  -25.9095   21.3811 C   0  0  0  0  0  0  0  0  0  0  0  0
  -26.5530  -31.9434   21.4382 C   0  0  0  0  0  0  0  0  0  0  0  0
  -29.9410  -19.3136   26.1239 C   0  0  0  0  0  0  0  0  0  0  0  0
  -29.4200  -13.7545   18.2492 C   0  0  0  0  0  0  0  0  0  0  0  0
  -29.5979  -18.0335   26.8827 C   0  0  0  0  0  0  0  0  0  0  0  0
  -25.8388  -30.6694   21.8783 C   0  0  0  0  0  0  0  0  0  0  0  0
  -31.3427  -19.2865   25.5176 C   0  0  0  0  0  0  0  0  0  0  0  0
  -27.9582  -13.4211   18.5525 C   0  0  0  0  0  0  0  0  0  0  0  0
  -30.3745  -12.7709   18.9226 C   0  0  0  0  0  0  0  0  0  0  0  0
  -28.7169  -12.2810   20.6792 C   0  0  0  0  0  0  0  0  0  0  0  0
  -29.2977  -16.8125   26.0260 C   0  0  0  0  0  0  0  0  0  0  0  0
  -30.5136  -17.4076   23.9049 C   0  0  0  0  0  0  0  0  0  0  0  0
  -26.2780  -30.2490   23.2861 C   0  0  1  0  0  0  0  0  0  0  0  0
  -31.4605  -18.5736   24.1676 C   0  0  1  0  0  0  0  0  0  0  0  0
  -29.1844  -27.8265   22.9652 C   0  0  1  0  0  0  0  0  0  0  0  0
  -27.7182  -13.2784   20.0675 C   0  0  2  0  0  0  0  0  0  0  0  0
  -32.7974  -18.5910   21.3829 C   0  0  0  0  0  0  0  0  0  0  0  0
  -33.1134  -29.4784   16.3048 C   0  0  0  0  0  0  0  0  0  0  0  0
  -27.7682  -26.6219   18.9770 C   0  0  0  0  0  0  0  0  0  0  0  0
  -29.1998  -27.0351   16.9650 C   0  0  0  0  0  0  0  0  0  0  0  0
  -28.0910  -28.9487   18.1188 C   0  0  0  0  0  0  0  0  0  0  0  0
  -34.7188  -29.4664   19.7543 C   0  0  0  0  0  0  0  0  0  0  0  0
  -31.7041  -14.5955   24.1101 C   0  0  0  0  0  0  0  0  0  0  0  0
  -33.6557  -20.4041   22.9127 C   0  0  0  0  0  0  0  0  0  0  0  0
  -31.7104  -13.1321   23.6817 C   0  0  0  0  0  0  0  0  0  0  0  0
  -30.3467  -15.0349   24.6440 C   0  0  0  0  0  0  0  0  0  0  0  0
  -33.3771  -21.7400   23.5935 C   0  0  0  0  0  0  0  0  0  1  0  0
  -32.4422  -19.8666   22.1445 C   0  0  2  0  0  0  0  0  0  0  0  0
  -30.0517  -27.8006   19.2277 C   0  0  1  0  0  0  0  0  0  0  0  0
  -33.1327  -29.5065   17.8252 C   0  0  2  0  0  0  0  0  0  0  0  0
  -28.7887  -27.5899   18.3456 C   0  0  0  0  0  0  0  0  0  0  0  0
  -25.9553  -11.6062   20.4898 N   0  0  0  0  0  0  0  0  0  0  0  0
  -30.1461  -20.2086   22.9227 N   0  0  0  0  0  0  0  0  0  0  0  0
  -26.2795  -12.9052   20.3737 N   0  0  0  0  0  0  0  0  0  0  0  0
  -29.4554  -27.3647   21.5932 N   0  0  0  0  0  0  0  0  0  0  0  0
  -30.0952  -12.6832   20.3579 N   0  0  0  0  0  0  0  0  0  0  0  0
  -25.3777  -15.0932   20.4725 N   0  0  0  0  0  0  0  0  0  0  0  0
  -21.8059  -12.4558   21.2985 N   0  0  0  0  0  0  0  0  0  0  0  0
  -27.5768  -29.6122   23.2412 N   0  0  0  0  0  0  0  0  0  0  0  0
  -31.0232  -28.7335   18.6671 N   0  0  0  0  0  0  0  0  0  0  0  0
  -30.7680  -12.8656   22.6179 N   0  0  0  0  0  0  0  0  0  0  0  0
  -30.4356  -16.4744   25.0909 N   0  3  2  0  0  0  0  0  0  0  0  0
  -34.5499  -29.4256   18.2789 N   0  3  0  0  0  0  0  0  0  0  0  0
  -22.5004  -14.6279   21.0567 O   0  0  0  0  0  0  0  0  0  0  0  0
  -26.8675  -27.4569   22.7176 O   0  0  0  0  0  0  0  0  0  0  0  0
  -29.6708  -29.5383   20.7931 O   0  0  0  0  0  0  0  0  0  0  0  0
  -32.8016  -27.2465   18.6125 O   0  0  0  0  0  0  0  0  0  0  0  0
  -32.2594  -13.2899   20.9290 O   0  0  0  0  0  0  0  0  0  0  0  0
  -21.8034   -6.8886   21.5159 O   0  0  0  0  0  0  0  0  0  0  0  0
  -33.0376  -22.7017   22.5953 O   0  0  0  0  0  0  0  0  0  1  0  0
  -20.3815   -5.5593   26.6749 F   0  0  0  0  0  0  0  0  0  0  0  0
  -22.6851   -4.5356   22.6685 F   0  0  0  0  0  0  0  0  0  0  0  0
  1  2  1  0  0  0  0
  1  5  2  0  0  0  0
  2  6  2  0  0  0  0
  3  8  2  0  0  0  0
  3 15  1  0  0  0  0
  4  9  1  0  0  0  0
  4 15  2  0  0  0  0
  5 17  1  0  0  0  0
  6 19  1  0  0  0  0
  7 10  2  0  0  0  0
  7 18  1  0  0  0  0
  8 21  1  0  0  0  0
  9 21  2  0  0  0  0
 10 22  1  0  0  0  0
 11 12  2  0  0  0  0
 11 23  1  0  0  0  0
 12 24  1  0  0  0  0
 13 20  1  0  0  0  0
 13 22  2  0  0  0  0
 14 24  2  0  0  0  0
 14 25  1  0  0  0  0
 15 26  1  0  0  0  0
 16 26  1  0  0  0  0
 16 27  2  0  0  0  0
 16 28  1  0  0  0  0
 17 19  2  0  0  0  0
 17 34  1  0  0  0  0
 18 20  2  0  0  0  0
 18 35  1  0  0  0  0
 19 48  1  0  0  0  0
 20 36  1  0  0  0  0
 21 84  1  0  0  0  0
 22 85  1  0  0  0  0
 23 25  2  0  0  0  0
 23 84  1  0  0  0  0
 24 86  1  0  0  0  0
 25 87  1  0  0  0  0
 26 67  2  0  0  0  0
 27 69  1  0  0  0  0
 27 72  1  0  0  0  0
 28 73  1  0  0  0  0
 28 79  2  0  0  0  0
 29 49  1  0  0  0  0
 29 63  1  0  0  0  0
 29 68  2  0  0  0  0
 30 50  1  0  0  0  0
 30 74  1  0  0  0  0
 30 80  2  0  0  0  0
 31 64  1  0  0  0  0
 31 70  1  0  0  0  0
 31 81  2  0  0  0  0
 32 65  1  0  0  0  0
 32 75  1  0  0  0  0
 32 82  2  0  0  0  0
 33 71  1  0  0  0  0
 33 76  1  0  0  0  0
 33 83  2  0  0  0  0
 34 37  1  0  0  0  0
 35 50  1  0  0  0  0
 36 70  1  0  0  0  0
 37 41  1  0  0  0  0
 38 40  1  0  0  0  0
 38 42  1  0  0  0  0
 39 43  1  0  0  0  0
 39 44  1  0  0  0  0
 40 46  1  0  0  0  0
 41 48  1  0  0  0  0
 42 49  1  0  0  0  0
 43 51  1  0  0  0  0
 44 71  1  0  0  0  0
 45 51  1  0  0  0  0
 45 71  1  0  0  0  0
 46 77  1  0  0  0  0
 47 49  1  0  0  0  0
 47 77  1  0  0  0  0
 48 74  1  0  0  0  0
 50 70  1  0  0  0  0
 51 69  1  0  0  0  0
 52 63  1  0  0  0  0
 53 65  1  0  0  0  0
 54 66  1  0  0  0  0
 55 66  1  0  0  0  0
 56 66  1  0  0  0  0
 57 78  1  0  0  0  0
 58 60  1  0  0  0  0
 58 61  1  0  0  0  0
 59 62  1  0  0  0  0
 59 63  1  0  0  0  0
 60 76  1  0  0  0  0
 61 77  1  0  0  0  0
 62 85  1  0  0  0  0
 64 66  1  0  0  0  0
 64 75  1  0  0  0  0
 65 78  1  0  0  0  0
 67 69  1  0  0  0  0
M  CHG  2  77   1  78   1
M  ISO  4  33 100  62 101  76 100  85 101
M  END
> <Batch ID>
0121

> <Smiles>
CNC(C)C(=O)NC(C(=O)N1Cc2cc([101O:1][101CH2:1]CC(C)C(N)=C3CCCCN(CCC[100NH:0][100C:0](=O)N4CCCC(n5nc(-c6ccc(Oc7ccc(F)cc7F)cc6)c(C(N)=O)c5N)C4)C3)ccc2CC1C(=O)NC1CCCc2ccccc21)C(C)(C)C

> <Shape>
0.269

> <Color>
0.167

> <Negative vol penalty>
0.000

$$$$

  -OEChem-04052320253D

 88 97  0     1  0  0  0  0  0999 V2000
  -25.5636  -29.0531   21.0260 C   0  0  0  0  0  0  0  0  0  0  0  0
  -25.0056  -27.9274   20.4286 C   0  0  0  0  0  0  0  0  0  0  0  0
  -21.2218  -23.1824   23.1234 C   0  0  0  0  0  0  0  0  0  0  0  0
  -21.7302  -22.8071   20.7915 C   0  0  0  0  0  0  0  0  0  0  0  0
  -26.9475  -29.2218   21.0361 C   0  0  0  0  0  0  0  0  0  0  0  0
  -25.8312  -26.9703   19.8400 C   0  0  0  0  0  0  0  0  0  0  0  0
  -24.9182  -20.9166   19.6818 C   0  0  0  0  0  0  0  0  0  0  0  0
  -21.8700  -12.1585   18.1536 C   0  0  0  0  0  0  0  0  0  0  0  0
  -21.1498  -24.5551   22.8869 C   0  0  0  0  0  0  0  0  0  0  0  0
  -21.6582  -24.1799   20.5549 C   0  0  0  0  0  0  0  0  0  0  0  0
  -24.3999  -20.0714   18.7016 C   0  0  0  0  0  0  0  0  0  0  0  0
  -18.9267  -26.7454   21.5855 C   0  0  0  0  0  0  0  0  0  0  0  0
  -17.8558  -27.4440   22.1429 C   0  0  0  0  0  0  0  0  0  0  0  0
  -20.6493  -12.3901   18.7779 C   0  0  0  0  0  0  0  0  0  0  0  0
  -26.6394  -19.5699   17.9583 C   0  0  0  0  0  0  0  0  0  0  0  0
  -19.4023  -28.8266   23.3814 C   0  0  0  0  0  0  0  0  0  0  0  0
  -21.5120  -22.3083   22.0758 C   0  0  0  0  0  0  0  0  0  0  0  0
  -20.5358  -19.9573   22.2404 C   0  0  0  0  0  0  0  0  0  0  0  0
  -27.7911  -28.2615   20.4557 C   0  0  0  0  0  0  0  0  0  0  0  0
  -26.3029  -21.1035   19.8008 C   0  0  0  0  0  0  0  0  0  0  0  0
  -27.2277  -27.1270   19.8411 C   0  0  0  0  0  0  0  0  0  0  0  0
  -27.1729  -20.4159   18.9426 C   0  0  0  0  0  0  0  0  0  0  0  0
  -23.0535  -12.4254   18.8328 C   0  0  0  0  0  0  0  0  0  0  0  0
  -21.3680  -25.0539   21.6026 C   0  0  0  0  0  0  0  0  0  0  0  0
  -25.2603  -19.4002   17.8378 C   0  0  0  0  0  0  0  0  0  0  0  0
  -20.2355  -27.0873   21.9262 C   0  0  0  0  0  0  0  0  0  0  0  0
  -18.0935  -28.4846   23.0408 C   0  0  0  0  0  0  0  0  0  0  0  0
  -20.4732  -28.1280   22.8241 C   0  0  0  0  0  0  0  0  0  0  0  0
  -21.5870  -20.8903   22.3196 C   0  0  0  0  0  0  0  0  0  0  0  0
  -20.6663  -12.8851   20.0719 C   0  0  0  0  0  0  0  0  0  0  0  0
  -22.9629  -12.9191   20.1242 C   0  0  0  0  0  0  0  0  0  0  0  0
  -21.1186  -18.7553   22.5600 C   0  0  0  0  0  0  0  0  0  0  0  0
  -19.1559  -20.1590   21.9075 C   0  0  0  0  0  0  0  0  0  0  0  0
  -24.7661  -13.9897   16.5053 C   0  0  0  0  0  0  0  0  0  0  0  0
  -28.2615  -23.5928   19.5346 C   0  0  0  0  0  0  0  0  0  0  0  0
  -30.4825  -21.4584   20.5513 C   0  0  0  0  0  0  0  0  0  0  0  0
  -31.4453  -18.1976   20.8461 C   0  0  0  0  0  0  0  0  0  0  0  0
  -25.3091  -15.1001   22.0865 C   0  0  0  0  0  0  0  0  0  0  0  0
  -29.2785  -28.5107   20.4495 C   0  0  0  0  0  0  0  0  0  0  0  0
  -26.8474  -21.9978   20.8807 C   0  0  0  0  0  0  0  0  0  0  0  0
  -28.6681  -20.5665   19.0419 C   0  0  0  0  0  0  0  0  0  0  0  0
  -30.1034  -27.2656   20.1340 C   0  0  0  0  0  0  0  0  0  0  0  0
  -25.6845  -17.7158   24.4726 C   0  0  0  0  0  0  0  0  0  0  0  0
  -29.5215  -26.5305   18.9308 C   0  0  0  0  0  0  0  0  0  0  0  0
  -24.5697  -18.7002   24.1147 C   0  0  0  0  0  0  0  0  0  0  0  0
  -24.8137  -16.4347   15.5204 C   0  0  0  0  0  0  0  0  0  0  0  0
  -26.2876  -17.0691   23.2276 C   0  0  0  0  0  0  0  0  0  0  0  0
  -24.1958  -17.4117   21.9703 C   0  0  0  0  0  0  0  0  0  0  0  0
  -28.0916  -26.0543   19.2139 C   0  0  1  0  0  0  0  0  0  0  0  0
  -25.5400  -15.2902   16.2708 C   0  0  1  0  0  0  0  0  0  0  0  0
  -28.2514  -22.5125   20.5788 C   0  0  1  0  0  0  0  0  0  0  0  0
  -25.6722  -16.2759   17.4696 C   0  0  2  0  0  0  0  0  0  0  0  0
  -23.5189  -18.0476   23.1965 C   0  0  2  0  0  0  0  0  0  0  0  0
  -25.5370  -17.4361   16.4468 C   0  0  2  0  0  0  0  0  0  1  0  0
  -19.3744  -13.1436   20.7728 C   0  0  0  0  0  0  0  0  0  0  0  0
  -26.9708  -16.2181   18.2503 C   0  0  0  0  0  0  0  0  0  0  0  0
  -32.8392  -16.2367   21.5598 C   0  0  0  0  0  0  0  0  0  0  0  0
  -32.1446  -22.2126   18.1062 C   0  0  0  0  0  0  0  0  0  0  0  0
  -33.4987  -20.1391   18.4738 C   0  0  0  0  0  0  0  0  0  0  0  0
  -33.4600  -21.9261   20.2138 C   0  0  0  0  0  0  0  0  0  0  0  0
  -29.9744  -17.9339   23.4007 C   0  0  0  0  0  0  0  0  0  0  0  0
  -24.3746  -12.1787   18.1635 C   0  0  0  0  0  0  0  0  0  0  0  0
  -24.2011  -13.2210   20.9030 C   0  0  0  0  0  0  0  0  0  0  0  0
  -31.4134  -20.4806   19.8759 C   0  0  1  0  0  0  0  0  0  0  0  0
  -31.9919  -17.4112   22.0239 C   0  0  2  0  0  0  0  0  0  0  0  0
  -32.6010  -21.1880   19.1641 C   0  0  0  0  0  0  0  0  0  0  0  0
  -22.7495  -20.3293   22.6628 N   0  0  0  0  0  0  0  0  0  0  0  0
  -21.7956  -13.1566   20.7636 N   0  0  0  0  0  0  0  0  0  0  0  0
  -22.4323  -19.0308   22.8022 N   0  0  0  0  0  0  0  0  0  0  0  0
  -29.1517  -21.4571   20.1100 N   0  0  0  0  0  0  0  0  0  0  0  0
  -25.2387  -16.4673   22.4008 N   0  0  0  0  0  0  0  0  0  0  0  0
  -20.6304  -17.5003   22.6548 N   0  0  0  0  0  0  0  0  0  0  0  0
  -18.7245  -21.4578   21.6052 N   0  0  0  0  0  0  0  0  0  0  0  0
  -28.1087  -24.8685   20.0433 N   0  0  0  0  0  0  0  0  0  0  0  0
  -25.0026  -13.4084   17.7364 N   0  0  0  0  0  0  0  0  0  0  0  0
  -31.8156  -19.5246   20.9019 N   0  0  0  0  0  0  0  0  0  0  0  0
  -24.2716  -14.6086   21.3038 N   0  0  0  0  0  0  0  0  0  0  0  0
  -30.8749  -16.8843   22.8580 N   0  3  0  0  0  0  0  0  0  0  0  0
  -18.3264  -19.2181   21.8950 O   0  0  0  0  0  0  0  0  0  0  0  0
  -24.0196  -13.5648   15.6312 O   0  0  0  0  0  0  0  0  0  0  0  0
  -28.3993  -23.2914   18.3548 O   0  0  0  0  0  0  0  0  0  0  0  0
  -30.9183  -22.1912   21.4428 O   0  0  0  0  0  0  0  0  0  0  0  0
  -30.7615  -17.6851   19.9627 O   0  0  0  0  0  0  0  0  0  0  0  0
  -26.2256  -14.3702   22.4792 O   0  0  0  0  0  0  0  0  0  0  0  0
  -21.2976  -26.3933   21.3714 O   0  0  0  0  0  0  0  0  0  0  0  0
  -24.7570  -18.5752   16.8797 O   0  0  0  0  0  0  0  0  0  1  0  0
  -17.0651  -29.1564   23.5747 F   0  0  0  0  0  0  0  0  0  0  0  0
  -21.7283  -28.4619   23.1542 F   0  0  0  0  0  0  0  0  0  0  0  0
  1  2  1  0  0  0  0
  1  5  2  0  0  0  0
  2  6  2  0  0  0  0
  3  9  2  0  0  0  0
  3 17  1  0  0  0  0
  4 10  1  0  0  0  0
  4 17  2  0  0  0  0
  5 19  1  0  0  0  0
  6 21  1  0  0  0  0
  7 11  2  0  0  0  0
  7 20  1  0  0  0  0
  8 14  2  0  0  0  0
  8 23  1  0  0  0  0
  9 24  1  0  0  0  0
 10 24  2  0  0  0  0
 11 25  1  0  0  0  0
 12 13  2  0  0  0  0
 12 26  1  0  0  0  0
 13 27  1  0  0  0  0
 14 30  1  0  0  0  0
 15 22  1  0  0  0  0
 15 25  2  0  0  0  0
 16 27  2  0  0  0  0
 16 28  1  0  0  0  0
 17 29  1  0  0  0  0
 18 29  1  0  0  0  0
 18 32  2  0  0  0  0
 18 33  1  0  0  0  0
 19 21  2  0  0  0  0
 19 39  1  0  0  0  0
 20 22  2  0  0  0  0
 20 40  1  0  0  0  0
 21 49  1  0  0  0  0
 22 41  1  0  0  0  0
 23 31  2  0  0  0  0
 23 62  1  0  0  0  0
 24 85  1  0  0  0  0
 25 86  1  0  0  0  0
 26 28  2  0  0  0  0
 26 85  1  0  0  0  0
 27 87  1  0  0  0  0
 28 88  1  0  0  0  0
 29 67  2  0  0  0  0
 30 55  1  0  0  0  0
 30 68  2  0  0  0  0
 31 63  1  0  0  0  0
 31 68  1  0  0  0  0
 32 69  1  0  0  0  0
 32 72  1  0  0  0  0
 33 73  1  0  0  0  0
 33 79  2  0  0  0  0
 34 50  1  0  0  0  0
 34 75  1  0  0  0  0
 34 80  2  0  0  0  0
 35 51  1  0  0  0  0
 35 74  1  0  0  0  0
 35 81  2  0  0  0  0
 36 64  1  0  0  0  0
 36 70  1  0  0  0  0
 36 82  2  0  0  0  0
 37 65  1  0  0  0  0
 37 76  1  0  0  0  0
 37 83  2  0  0  0  0
 38 71  1  0  0  0  0
 38 77  1  0  0  0  0
 38 84  2  0  0  0  0
 39 42  1  0  0  0  0
 40 51  1  0  0  0  0
 41 70  1  0  0  0  0
 42 44  1  0  0  0  0
 43 45  1  0  0  0  0
 43 47  1  0  0  0  0
 44 49  1  0  0  0  0
 45 53  1  0  0  0  0
 46 50  1  0  0  0  0
 46 54  1  0  0  0  0
 47 71  1  0  0  0  0
 48 53  1  0  0  0  0
 48 71  1  0  0  0  0
 49 74  1  0  0  0  0
 50 52  1  0  0  0  0
 51 70  1  0  0  0  0
 52 54  1  0  0  0  0
 52 56  1  0  0  0  0
 53 69  1  0  0  0  0
 54 86  1  0  0  0  0
 57 65  1  0  0  0  0
 58 66  1  0  0  0  0
 59 66  1  0  0  0  0
 60 66  1  0  0  0  0
 61 78  1  0  0  0  0
 62 75  1  0  0  0  0
 63 77  1  0  0  0  0
 64 66  1  0  0  0  0
 64 76  1  0  0  0  0
 65 78  1  0  0  0  0
 67 69  1  0  0  0  0
M  CHG  1  78   1
M  ISO  4  38 100  54 101  77 100  86 101
M  END
> <Batch ID>
0121

> <Smiles>
CNC(C)C(=O)NC(C(=O)N1Cc2cc([101O:1][101CH:1]3CC(C(=O)NCc4ccc(C)nc4C[100NH:0][100C:0](=O)N4CCCC(n5nc(-c6ccc(Oc7ccc(F)cc7F)cc6)c(C(N)=O)c5N)C4)C3C)ccc2CC1C(=O)NC1CCCc2ccccc21)C(C)(C)C

> <Shape>
0.189

> <Color>
0.060

> <Negative vol penalty>
0.000

$$$$

  -OEChem-04052320253D

 82 91  0     1  0  0  0  0  0999 V2000
  -32.1404  -30.1008   15.3982 C   0  0  0  0  0  0  0  0  0  0  0  0
  -31.3122  -29.3303   16.2081 C   0  0  0  0  0  0  0  0  0  0  0  0
  -23.6265   -9.4519   20.1624 C   0  0  0  0  0  0  0  0  0  0  0  0
  -23.4453   -9.6560   22.5629 C   0  0  0  0  0  0  0  0  0  0  0  0
  -32.6544  -31.3060   15.8750 C   0  0  0  0  0  0  0  0  0  0  0  0
  -30.9985  -29.7640   17.4957 C   0  0  0  0  0  0  0  0  0  0  0  0
  -26.0795  -29.2382   18.5782 C   0  0  0  0  0  0  0  0  0  0  0  0
  -23.5659   -8.0630   20.2759 C   0  0  0  0  0  0  0  0  0  0  0  0
  -23.3847   -8.2671   22.6764 C   0  0  0  0  0  0  0  0  0  0  0  0
  -25.6333  -27.9592   18.9081 C   0  0  0  0  0  0  0  0  0  0  0  0
  -22.8192   -4.7887   23.5701 C   0  0  0  0  0  0  0  0  0  0  0  0
  -21.8566   -4.2484   24.4228 C   0  0  0  0  0  0  0  0  0  0  0  0
  -25.7063  -28.5436   21.2474 C   0  0  0  0  0  0  0  0  0  0  0  0
  -20.1130   -5.2911   23.1153 C   0  0  0  0  0  0  0  0  0  0  0  0
  -23.5663  -10.2485   21.3059 C   0  0  0  0  0  0  0  0  0  0  0  0
  -22.5489  -12.5717   21.0324 C   0  0  0  0  0  0  0  0  0  0  0  0
  -32.3390  -31.7594   17.1656 C   0  0  0  0  0  0  0  0  0  0  0  0
  -26.3533  -30.1776   19.5826 C   0  0  0  0  0  0  0  0  0  0  0  0
  -31.5099  -30.9757   17.9906 C   0  0  0  0  0  0  0  0  0  0  0  0
  -26.1534  -29.8347   20.9275 C   0  0  0  0  0  0  0  0  0  0  0  0
  -23.4450   -7.4706   21.5329 C   0  0  0  0  0  0  0  0  0  0  0  0
  -25.4494  -27.6108   20.2429 C   0  0  0  0  0  0  0  0  0  0  0  0
  -22.4287   -5.5803   22.4901 C   0  0  0  0  0  0  0  0  0  0  0  0
  -20.5035   -4.4996   24.1954 C   0  0  0  0  0  0  0  0  0  0  0  0
  -21.0756   -5.8315   22.2626 C   0  0  0  0  0  0  0  0  0  0  0  0
  -23.6295  -11.6832   21.1893 C   0  0  0  0  0  0  0  0  0  0  0  0
  -23.1318  -13.8139   20.9716 C   0  0  0  0  0  0  0  0  0  0  0  0
  -21.1438  -12.2987   20.9491 C   0  0  0  0  0  0  0  0  0  0  0  0
  -28.9447  -31.7535   20.5338 C   0  0  0  0  0  0  0  0  0  0  0  0
  -26.8359  -33.2611   22.4838 C   0  0  0  0  0  0  0  0  0  0  0  0
  -23.8432  -33.1892   24.1225 C   0  0  0  0  0  0  0  0  0  0  0  0
  -26.9697  -17.1213   18.8809 C   0  0  0  0  0  0  0  0  0  0  0  0
  -32.9567  -33.0456   17.6542 C   0  0  0  0  0  0  0  0  0  0  0  0
  -26.8084  -31.5617   19.2090 C   0  0  0  0  0  0  0  0  0  0  0  0
  -26.4137  -30.8132   22.0425 C   0  0  0  0  0  0  0  0  0  0  0  0
  -32.2737  -33.6167   18.8942 C   0  0  0  0  0  0  0  0  0  0  0  0
  -27.8410  -15.3101   21.9468 C   0  0  0  0  0  0  0  0  0  0  0  0
  -32.0479  -32.5213   19.9316 C   0  0  0  0  0  0  0  0  0  0  0  0
  -26.0772  -20.3199   19.4291 C   0  0  0  0  0  0  0  0  0  0  0  0
  -26.7585  -14.2362   21.9699 C   0  0  0  0  0  0  0  0  0  0  0  0
  -25.5544  -21.4899   20.2602 C   0  0  0  0  0  0  0  0  0  0  0  0
  -29.5375  -19.1233   18.0577 C   0  0  0  0  0  0  0  0  0  0  0  0
  -28.2732  -15.6697   20.5248 C   0  0  0  0  0  0  0  0  0  0  0  0
  -29.4285  -17.9884   19.0806 C   0  0  0  0  0  0  0  0  0  0  0  0
  -26.0565  -14.9644   19.6633 C   0  0  0  0  0  0  0  0  0  0  0  0
  -27.8784  -21.8156   18.4878 C   0  0  0  0  0  0  0  0  0  0  0  0
  -31.1266  -31.4245   19.3841 C   0  0  1  0  0  0  0  0  0  0  0  0
  -27.5483  -32.2725   20.3380 C   0  0  1  0  0  0  0  0  0  0  0  0
  -27.5740  -20.4660   19.1324 C   0  0  2  0  0  0  0  0  0  0  0  0
  -25.5726  -14.6490   21.0855 C   0  0  1  0  0  0  0  0  0  0  0  0
  -28.0258  -19.3500   18.2112 C   0  0  2  0  0  0  0  0  0  0  0  0
  -25.8717  -22.8338   19.6052 C   0  0  1  0  0  0  0  0  0  0  0  0
  -22.4107  -34.5511   25.6687 C   0  0  0  0  0  0  0  0  0  0  0  0
  -28.6590  -32.5250   24.8172 C   0  0  0  0  0  0  0  0  0  0  0  0
  -26.7657  -33.0465   26.3702 C   0  0  0  0  0  0  0  0  0  0  0  0
  -27.7165  -34.8393   24.9194 C   0  0  0  0  0  0  0  0  0  0  0  0
  -21.6412  -33.3258   22.1498 C   0  0  0  0  0  0  0  0  0  0  0  0
  -25.4714  -24.0092   20.4849 C   0  0  0  0  0  0  0  0  0  0  0  0
  -25.3717  -25.2995   19.6882 C   0  0  0  0  0  0  0  0  0  1  0  0
  -26.3059  -33.0188   23.8764 C   0  0  1  0  0  0  0  0  0  0  0  0
  -22.7235  -34.2096   24.2201 C   0  0  2  0  0  0  0  0  0  0  0  0
  -27.3586  -33.3381   24.9751 C   0  0  0  0  0  0  0  0  0  0  0  0
  -24.8095  -12.3078   21.2258 N   0  0  0  0  0  0  0  0  0  0  0  0
  -24.4738  -13.6021   21.0909 N   0  0  0  0  0  0  0  0  0  0  0  0
  -26.8633  -32.1520   21.6266 N   0  0  0  0  0  0  0  0  0  0  0  0
  -27.1244  -15.9712   19.6624 N   0  0  0  0  0  0  0  0  0  0  0  0
  -27.9877  -18.0489   18.8826 N   0  0  0  0  0  0  0  0  0  0  0  0
  -22.6222  -15.0558   20.8283 N   0  0  0  0  0  0  0  0  0  0  0  0
  -20.7162  -10.9664   21.0294 N   0  0  0  0  0  0  0  0  0  0  0  0
  -29.7473  -31.8615   19.4142 N   0  0  0  0  0  0  0  0  0  0  0  0
  -25.0747  -33.7939   23.9852 N   0  0  0  0  0  0  0  0  0  0  0  0
  -27.3499  -22.9097   19.3566 N   0  3  0  0  0  0  0  0  0  0  0  0
  -21.4839  -33.6809   23.5837 N   0  3  0  0  0  0  0  0  0  0  0  0
  -20.2940  -13.2078   20.7912 O   0  0  0  0  0  0  0  0  0  0  0  0
  -29.2704  -31.2908   21.6208 O   0  0  0  0  0  0  0  0  0  0  0  0
  -27.2051  -34.3944   22.1660 O   0  0  0  0  0  0  0  0  0  0  0  0
  -23.6455  -31.9770   24.1675 O   0  0  0  0  0  0  0  0  0  0  0  0
  -25.9675  -17.3036   18.1771 O   0  0  0  0  0  0  0  0  0  0  0  0
  -23.3855   -6.1154   21.6440 O   0  0  0  0  0  0  0  0  0  0  0  0
  -25.0114  -26.3536   20.5701 O   0  0  0  0  0  0  0  0  0  1  0  0
  -19.5792   -3.9793   25.0134 F   0  0  0  0  0  0  0  0  0  0  0  0
  -20.6943   -6.5903   21.2259 F   0  0  0  0  0  0  0  0  0  0  0  0
  1  2  1  0  0  0  0
  1  5  2  0  0  0  0
  2  6  2  0  0  0  0
  3  8  2  0  0  0  0
  3 15  1  0  0  0  0
  4  9  1  0  0  0  0
  4 15  2  0  0  0  0
  5 17  1  0  0  0  0
  6 19  1  0  0  0  0
  7 10  2  0  0  0  0
  7 18  1  0  0  0  0
  8 21  1  0  0  0  0
  9 21  2  0  0  0  0
 10 22  1  0  0  0  0
 11 12  2  0  0  0  0
 11 23  1  0  0  0  0
 12 24  1  0  0  0  0
 13 20  1  0  0  0  0
 13 22  2  0  0  0  0
 14 24  2  0  0  0  0
 14 25  1  0  0  0  0
 15 26  1  0  0  0  0
 16 26  1  0  0  0  0
 16 27  2  0  0  0  0
 16 28  1  0  0  0  0
 17 19  2  0  0  0  0
 17 33  1  0  0  0  0
 18 20  2  0  0  0  0
 18 34  1  0  0  0  0
 19 47  1  0  0  0  0
 20 35  1  0  0  0  0
 21 79  1  0  0  0  0
 22 80  1  0  0  0  0
 23 25  2  0  0  0  0
 23 79  1  0  0  0  0
 24 81  1  0  0  0  0
 25 82  1  0  0  0  0
 26 63  2  0  0  0  0
 27 64  1  0  0  0  0
 27 68  1  0  0  0  0
 28 69  1  0  0  0  0
 28 74  2  0  0  0  0
 29 48  1  0  0  0  0
 29 70  1  0  0  0  0
 29 75  2  0  0  0  0
 30 60  1  0  0  0  0
 30 65  1  0  0  0  0
 30 76  2  0  0  0  0
 31 61  1  0  0  0  0
 31 71  1  0  0  0  0
 31 77  2  0  0  0  0
 32 66  1  0  0  0  0
 32 67  1  0  0  0  0
 32 78  2  0  0  0  0
 33 36  1  0  0  0  0
 34 48  1  0  0  0  0
 35 65  1  0  0  0  0
 36 38  1  0  0  0  0
 37 40  1  0  0  0  0
 37 43  1  0  0  0  0
 38 47  1  0  0  0  0
 39 41  1  0  0  0  0
 39 49  1  0  0  0  0
 40 50  1  0  0  0  0
 41 52  1  0  0  0  0
 42 44  1  0  0  0  0
 42 51  1  0  0  0  0
 43 66  1  0  0  0  0
 44 67  1  0  0  0  0
 45 50  1  0  0  0  0
 45 66  1  0  0  0  0
 46 49  1  0  0  0  0
 46 72  1  0  0  0  0
 47 70  1  0  0  0  0
 48 65  1  0  0  0  0
 49 51  1  0  0  0  0
 50 64  1  0  0  0  0
 51 67  1  0  0  0  0
 52 58  1  0  0  0  0
 52 72  1  0  0  0  0
 53 61  1  0  0  0  0
 54 62  1  0  0  0  0
 55 62  1  0  0  0  0
 56 62  1  0  0  0  0
 57 73  1  0  0  0  0
 58 59  1  0  0  0  0
 59 80  1  0  0  0  0
 60 62  1  0  0  0  0
 60 71  1  0  0  0  0
 61 73  1  0  0  0  0
 63 64  1  0  0  0  0
M  CHG  2  72   1  73   1
M  ISO  4  32 100  59 101  67 100  80 101
M  END
> <Batch ID>
0121

> <Smiles>
CNC(C)C(=O)NC(C(=O)N1Cc2cc([101O:1][101CH2:1]CC3CCC(C4CC[100N:0]4[100C:0](=O)N4CCCC(n5nc(-c6ccc(Oc7ccc(F)cc7F)cc6)c(C(N)=O)c5N)C4)CN3)ccc2CC1C(=O)NC1CCCc2ccccc21)C(C)(C)C

> <Shape>
0.226

> <Color>
0.104

> <Negative vol penalty>
0.000

$$$$

  -OEChem-04052320253D

 84 93  0     1  0  0  0  0  0999 V2000
  -24.8432  -19.7310   27.6092 C   0  0  0  0  0  0  0  0  0  0  0  0
  -25.7166  -20.3494   26.7203 C   0  0  0  0  0  0  0  0  0  0  0  0
  -30.2518  -13.6108   20.2134 C   0  0  0  0  0  0  0  0  0  0  0  0
  -28.3750  -14.0278   18.7502 C   0  0  0  0  0  0  0  0  0  0  0  0
  -23.4659  -19.8534   27.4302 C   0  0  0  0  0  0  0  0  0  0  0  0
  -25.2132  -21.0897   25.6512 C   0  0  0  0  0  0  0  0  0  0  0  0
  -27.6402  -26.1577   23.2159 C   0  0  0  0  0  0  0  0  0  0  0  0
  -29.7900  -12.3136   20.4361 C   0  0  0  0  0  0  0  0  0  0  0  0
  -27.9132  -12.7305   18.9729 C   0  0  0  0  0  0  0  0  0  0  0  0
  -28.4367  -26.3694   22.0914 C   0  0  0  0  0  0  0  0  0  0  0  0
  -26.0447   -9.6480   19.4384 C   0  0  0  0  0  0  0  0  0  0  0  0
  -24.6836   -9.4789   19.6919 C   0  0  0  0  0  0  0  0  0  0  0  0
  -28.8271  -21.6547   17.0134 C   0  0  0  0  0  0  0  0  0  0  0  0
  -26.4684  -26.9138   20.8073 C   0  0  0  0  0  0  0  0  0  0  0  0
  -24.8708  -10.8942   21.6411 C   0  0  0  0  0  0  0  0  0  0  0  0
  -30.0564  -22.2663   16.9785 C   0  0  0  0  0  0  0  0  0  0  0  0
  -29.5442  -14.4680   19.3705 C   0  0  0  0  0  0  0  0  0  0  0  0
  -30.9027  -16.2353   18.1300 C   0  0  0  0  0  0  0  0  0  0  0  0
  -22.9453  -20.6036   26.3640 C   0  0  0  0  0  0  0  0  0  0  0  0
  -26.2484  -26.3122   23.1417 C   0  0  0  0  0  0  0  0  0  0  0  0
  -23.8276  -21.2211   25.4570 C   0  0  0  0  0  0  0  0  0  0  0  0
  -25.6568  -26.7060   21.9329 C   0  0  0  0  0  0  0  0  0  0  0  0
  -28.6208  -11.8735   19.8159 C   0  0  0  0  0  0  0  0  0  0  0  0
  -27.8505  -26.7447   20.8861 C   0  0  0  0  0  0  0  0  0  0  0  0
  -26.8189  -10.4401   20.2863 C   0  0  0  0  0  0  0  0  0  0  0  0
  -24.0966  -10.1020   20.7932 C   0  0  0  0  0  0  0  0  0  0  0  0
  -26.2320  -11.0632   21.3876 C   0  0  0  0  0  0  0  0  0  0  0  0
  -30.0204  -15.8083   19.1405 C   0  0  0  0  0  0  0  0  0  0  0  0
  -28.2933  -22.0088   18.2670 C   0  0  0  0  0  0  0  0  0  0  0  0
  -31.0378  -17.5858   18.3403 C   0  0  0  0  0  0  0  0  0  0  0  0
  -31.5430  -15.4787   17.0940 C   0  0  0  0  0  0  0  0  0  0  0  0
  -23.7528  -24.3870   23.5533 C   0  0  0  0  0  0  0  0  0  0  0  0
  -22.0674  -27.1337   23.1825 C   0  0  0  0  0  0  0  0  0  0  0  0
  -21.9408  -30.3101   21.9409 C   0  0  0  0  0  0  0  0  0  0  0  0
  -27.2472  -21.3650   21.3977 C   0  0  0  0  0  0  0  0  0  0  0  0
  -21.4493  -20.6681   26.1841 C   0  0  0  0  0  0  0  0  0  0  0  0
  -25.4059  -26.1061   24.3705 C   0  0  0  0  0  0  0  0  0  0  0  0
  -24.1693  -26.9049   21.8059 C   0  0  0  0  0  0  0  0  0  0  0  0
  -20.9965  -21.7809   25.2423 C   0  0  0  0  0  0  0  0  0  0  0  0
  -30.9019  -20.8811   21.7703 C   0  0  0  0  0  0  0  0  0  0  0  0
  -21.8452  -21.7860   23.9749 C   0  0  0  0  0  0  0  0  0  0  0  0
  -31.1302  -19.5159   21.1285 C   0  0  0  0  0  0  0  0  0  0  0  0
  -25.7124  -22.5511   18.6037 C   0  0  0  0  0  0  0  0  0  0  0  0
  -29.4905  -21.0091   22.3321 C   0  0  0  0  0  0  0  0  0  0  0  0
  -25.3090  -22.3151   20.0545 C   0  0  0  0  0  0  0  0  0  0  0  0
  -28.6467  -19.3839   20.6709 C   0  0  0  0  0  0  0  0  0  0  0  0
  -23.3199  -22.0532   24.2995 C   0  0  1  0  0  0  0  0  0  0  0  0
  -26.8697  -21.5439   18.7893 C   0  0  2  0  0  0  0  0  0  0  0  0
  -23.9480  -25.7917   24.0496 C   0  0  1  0  0  0  0  0  0  0  0  0
  -30.0539  -19.2314   20.0702 C   0  0  2  0  0  0  0  0  0  0  0  0
  -20.4174  -32.2963   21.7628 C   0  0  0  0  0  0  0  0  0  0  0  0
  -32.6616  -25.8894   18.5161 C   0  0  0  0  0  0  0  0  0  0  0  0
  -20.4811  -25.7178   20.9942 C   0  0  0  0  0  0  0  0  0  0  0  0
  -19.6704  -27.9593   20.2282 C   0  0  0  0  0  0  0  0  0  0  0  0
  -19.1080  -27.1475   22.5189 C   0  0  0  0  0  0  0  0  0  0  0  0
  -23.8157  -32.0298   23.4529 C   0  0  0  0  0  0  0  0  0  0  0  0
  -30.1366  -25.9502   18.2152 C   0  0  0  0  0  0  0  0  0  0  0  0
  -31.3605  -23.7504   18.6155 C   0  0  0  0  0  0  0  0  0  0  0  0
  -29.8299  -26.1921   19.6891 C   0  0  0  0  0  0  0  0  0  1  0  0
  -21.4750  -27.8743   22.0079 C   0  0  1  0  0  0  0  0  0  0  0  0
  -21.5138  -31.6225   22.5731 C   0  0  2  0  0  0  0  0  0  0  0  0
  -31.4333  -25.1529   17.9693 C   0  0  2  0  0  0  0  0  0  0  0  0
  -20.2115  -27.1692   21.4389 C   0  0  0  0  0  0  0  0  0  0  0  0
  -29.6231  -16.8066   19.9338 N   0  0  0  0  0  0  0  0  0  0  0  0
  -29.1162  -22.7849   18.9772 N   0  0  0  0  0  0  0  0  0  0  0  0
  -30.1796  -22.9236   18.1672 N   0  0  0  0  0  0  0  0  0  0  0  0
  -30.2587  -17.8744   19.4220 N   0  0  0  0  0  0  0  0  0  0  0  0
  -23.3874  -26.6853   23.0339 N   0  0  0  0  0  0  0  0  0  0  0  0
  -28.4683  -20.6824   21.3343 N   0  0  0  0  0  0  0  0  0  0  0  0
  -26.5699  -21.6037   20.2241 N   0  0  0  0  0  0  0  0  0  0  0  0
  -31.7457  -18.5428   17.7036 N   0  0  0  0  0  0  0  0  0  0  0  0
  -31.2944  -14.1013   17.0215 N   0  0  0  0  0  0  0  0  0  0  0  0
  -23.5338  -23.4614   24.5557 N   0  0  0  0  0  0  0  0  0  0  0  0
  -21.2430  -29.2411   22.4621 N   0  0  0  0  0  0  0  0  0  0  0  0
  -22.6726  -32.5553   22.6630 N   0  3  0  0  0  0  0  0  0  0  0  0
  -32.3255  -16.0056   16.2672 O   0  0  0  0  0  0  0  0  0  0  0  0
  -23.7960  -24.1600   22.3498 O   0  0  0  0  0  0  0  0  0  0  0  0
  -21.3864  -26.9658   24.1973 O   0  0  0  0  0  0  0  0  0  0  0  0
  -22.8042  -30.2405   21.0690 O   0  0  0  0  0  0  0  0  0  0  0  0
  -26.7870  -21.7753   22.4719 O   0  0  0  0  0  0  0  0  0  0  0  0
  -28.1700  -10.6076   20.0328 O   0  0  0  0  0  0  0  0  0  0  0  0
  -28.6256  -26.9513   19.7868 O   0  0  0  0  0  0  0  0  0  1  0  0
  -22.7891   -9.9408   21.0357 F   0  0  0  0  0  0  0  0  0  0  0  0
  -26.9704  -11.8264   22.2050 F   0  0  0  0  0  0  0  0  0  0  0  0
  1  2  1  0  0  0  0
  1  5  2  0  0  0  0
  2  6  2  0  0  0  0
  3  8  2  0  0  0  0
  3 17  1  0  0  0  0
  4  9  1  0  0  0  0
  4 17  2  0  0  0  0
  5 19  1  0  0  0  0
  6 21  1  0  0  0  0
  7 10  2  0  0  0  0
  7 20  1  0  0  0  0
  8 23  1  0  0  0  0
  9 23  2  0  0  0  0
 10 24  1  0  0  0  0
 11 12  2  0  0  0  0
 11 25  1  0  0  0  0
 12 26  1  0  0  0  0
 13 16  2  0  0  0  0
 13 29  1  0  0  0  0
 14 22  1  0  0  0  0
 14 24  2  0  0  0  0
 15 26  2  0  0  0  0
 15 27  1  0  0  0  0
 16 66  1  0  0  0  0
 17 28  1  0  0  0  0
 18 28  1  0  0  0  0
 18 30  2  0  0  0  0
 18 31  1  0  0  0  0
 19 21  2  0  0  0  0
 19 36  1  0  0  0  0
 20 22  2  0  0  0  0
 20 37  1  0  0  0  0
 21 47  1  0  0  0  0
 22 38  1  0  0  0  0
 23 81  1  0  0  0  0
 24 82  1  0  0  0  0
 25 27  2  0  0  0  0
 25 81  1  0  0  0  0
 26 83  1  0  0  0  0
 27 84  1  0  0  0  0
 28 64  2  0  0  0  0
 29 48  1  0  0  0  0
 29 65  2  0  0  0  0
 30 67  1  0  0  0  0
 30 71  1  0  0  0  0
 31 72  1  0  0  0  0
 31 76  2  0  0  0  0
 32 49  1  0  0  0  0
 32 73  1  0  0  0  0
 32 77  2  0  0  0  0
 33 60  1  0  0  0  0
 33 68  1  0  0  0  0
 33 78  2  0  0  0  0
 34 61  1  0  0  0  0
 34 74  1  0  0  0  0
 34 79  2  0  0  0  0
 35 69  1  0  0  0  0
 35 70  1  0  0  0  0
 35 80  2  0  0  0  0
 36 39  1  0  0  0  0
 37 49  1  0  0  0  0
 38 68  1  0  0  0  0
 39 41  1  0  0  0  0
 40 42  1  0  0  0  0
 40 44  1  0  0  0  0
 41 47  1  0  0  0  0
 42 50  1  0  0  0  0
 43 45  1  0  0  0  0
 43 48  1  0  0  0  0
 44 69  1  0  0  0  0
 45 70  1  0  0  0  0
 46 50  1  0  0  0  0
 46 69  1  0  0  0  0
 47 73  1  0  0  0  0
 48 70  1  0  0  0  0
 49 68  1  0  0  0  0
 50 67  1  0  0  0  0
 51 61  1  0  0  0  0
 52 62  1  0  0  0  0
 53 63  1  0  0  0  0
 54 63  1  0  0  0  0
 55 63  1  0  0  0  0
 56 75  1  0  0  0  0
 57 59  1  0  0  0  0
 57 62  1  0  0  0  0
 58 62  1  0  0  0  0
 58 66  1  0  0  0  0
 59 82  1  0  0  0  0
 60 63  1  0  0  0  0
 60 74  1  0  0  0  0
 61 75  1  0  0  0  0
 64 67  1  0  0  0  0
 65 66  1  0  0  0  0
M  CHG  1  75   1
M  ISO  4  35 100  59 101  70 100  82 101
M  END
> <Batch ID>
0121

> <Smiles>
CNC(C)C(=O)NC(C(=O)N1Cc2cc([101O:1][101CH2:1]CC(C)Cn3ccc(C4CC[100N:0]4[100C:0](=O)N4CCCC(n5nc(-c6ccc(Oc7ccc(F)cc7F)cc6)c(C(N)=O)c5N)C4)n3)ccc2CC1C(=O)NC1CCCc2ccccc21)C(C)(C)C

> <Shape>
0.218

> <Color>
0.074

> <Negative vol penalty>
0.000

$$$$

  -OEChem-04052320253D

 83 92  0     1  0  0  0  0  0999 V2000
  -30.5152  -34.0214   22.9951 C   0  0  0  0  0  0  0  0  0  0  0  0
  -30.1754  -32.6761   22.8946 C   0  0  0  0  0  0  0  0  0  0  0  0
  -23.1694  -11.6375   21.6144 C   0  0  0  0  0  0  0  0  0  0  0  0
  -24.3567   -9.5376   21.4805 C   0  0  0  0  0  0  0  0  0  0  0  0
  -29.5489  -34.9579   23.3602 C   0  0  0  0  0  0  0  0  0  0  0  0
  -28.8693  -32.2663   23.1603 C   0  0  0  0  0  0  0  0  0  0  0  0
  -27.1261  -28.9825   19.7218 C   0  0  0  0  0  0  0  0  0  0  0  0
  -29.2683  -21.7913   21.5551 C   0  0  0  0  0  0  0  0  0  0  0  0
  -21.9588  -10.9484   21.6873 C   0  0  0  0  0  0  0  0  0  0  0  0
  -23.1461   -8.8485   21.5535 C   0  0  0  0  0  0  0  0  0  0  0  0
  -27.5551  -27.6604   19.8293 C   0  0  0  0  0  0  0  0  0  0  0  0
  -20.9301   -7.9560   23.9437 C   0  0  0  0  0  0  0  0  0  0  0  0
  -20.8618   -6.8580   24.8012 C   0  0  0  0  0  0  0  0  0  0  0  0
  -29.0215  -23.1544   21.4350 C   0  0  0  0  0  0  0  0  0  0  0  0
  -25.4726  -27.0780   20.8986 C   0  0  0  0  0  0  0  0  0  0  0  0
  -20.3279   -5.4284   22.9281 C   0  0  0  0  0  0  0  0  0  0  0  0
  -28.8775  -21.5677   19.2198 C   0  0  0  0  0  0  0  0  0  0  0  0
  -24.3683  -10.9321   21.5109 C   0  0  0  0  0  0  0  0  0  0  0  0
  -26.4390  -12.0382   22.5090 C   0  0  0  0  0  0  0  0  0  0  0  0
  -29.1969  -20.9759   20.4312 C   0  0  0  0  0  0  0  0  0  0  0  0
  -28.2280  -34.5607   23.6211 C   0  0  0  0  0  0  0  0  0  0  0  0
  -25.8695  -29.3652   20.2126 C   0  0  0  0  0  0  0  0  0  0  0  0
  -27.8848  -33.1982   23.5305 C   0  0  0  0  0  0  0  0  0  0  0  0
  -25.0290  -28.4051   20.7938 C   0  0  0  0  0  0  0  0  0  0  0  0
  -21.9472   -9.5539   21.6569 C   0  0  0  0  0  0  0  0  0  0  0  0
  -26.7295  -26.7084   20.4203 C   0  0  0  0  0  0  0  0  0  0  0  0
  -20.6972   -7.7902   22.5784 C   0  0  0  0  0  0  0  0  0  0  0  0
  -20.5607   -5.5942   24.2934 C   0  0  0  0  0  0  0  0  0  0  0  0
  -20.3962   -6.5264   22.0706 C   0  0  0  0  0  0  0  0  0  0  0  0
  -25.6191  -11.6433   21.4350 C   0  0  0  0  0  0  0  0  0  0  0  0
  -28.7101  -23.6487   20.1786 C   0  0  0  0  0  0  0  0  0  0  0  0
  -27.5006  -12.6754   21.9144 C   0  0  0  0  0  0  0  0  0  0  0  0
  -26.2574  -11.8462   23.9182 C   0  0  0  0  0  0  0  0  0  0  0  0
  -24.8544  -31.3796   22.4522 C   0  0  0  0  0  0  0  0  0  0  0  0
  -21.9325  -30.5966   21.2811 C   0  0  0  0  0  0  0  0  0  0  0  0
  -19.9897  -28.3421   19.6108 C   0  0  0  0  0  0  0  0  0  0  0  0
  -29.6712  -16.0968   18.2261 C   0  0  0  0  0  0  0  0  0  0  0  0
  -27.2295  -35.6029   24.0584 C   0  0  0  0  0  0  0  0  0  0  0  0
  -25.4105  -30.7900   20.0649 C   0  0  0  0  0  0  0  0  0  0  0  0
  -23.6625  -28.7605   21.3181 C   0  0  0  0  0  0  0  0  0  0  0  0
  -25.7793  -35.1369   23.9585 C   0  0  0  0  0  0  0  0  0  0  0  0
  -28.9060  -12.9305   17.0697 C   0  0  0  0  0  0  0  0  0  0  0  0
  -25.6251  -33.7406   24.5530 C   0  0  0  0  0  0  0  0  0  0  0  0
  -28.0490  -12.3334   18.1856 C   0  0  0  0  0  0  0  0  0  0  0  0
  -28.2227  -18.6541   20.1443 C   0  0  0  0  0  0  0  0  0  0  0  0
  -30.6809  -19.0585   19.6933 C   0  0  0  0  0  0  0  0  0  0  0  0
  -28.5457  -14.3917   16.8274 C   0  0  0  0  0  0  0  0  0  0  0  0
  -28.5053  -17.1507   20.2138 C   0  0  0  0  0  0  0  0  0  0  0  0
  -30.9092  -17.5534   19.7991 C   0  0  0  0  0  0  0  0  0  0  0  0
  -27.8030  -14.6657   19.1708 C   0  0  0  0  0  0  0  0  0  0  0  0
  -29.4602  -19.4850   20.5288 C   0  0  0  0  0  0  0  0  0  0  0  0
  -26.4727  -32.7180   23.7866 C   0  0  1  0  0  0  0  0  0  0  0  0
  -24.3218  -31.1735   21.0624 C   0  0  1  0  0  0  0  0  0  0  0  0
  -28.1312  -13.1874   19.4632 C   0  0  1  0  0  0  0  0  0  0  0  0
  -17.6316  -27.9626   18.8409 C   0  0  0  0  0  0  0  0  0  0  0  0
  -21.1180  -29.8852   24.1343 C   0  0  0  0  0  0  0  0  0  0  0  0
  -19.1550  -28.6497   23.1917 C   0  0  0  0  0  0  0  0  0  0  0  0
  -19.3726  -31.1076   22.8252 C   0  0  0  0  0  0  0  0  0  0  0  0
  -20.8084  -28.2579   16.7680 C   0  0  0  0  0  0  0  0  0  0  0  0
  -28.4398  -25.1069   20.0129 C   0  0  0  0  0  0  0  0  0  1  0  0
  -20.9097  -29.5287   21.5856 C   0  0  1  0  0  0  0  0  0  0  0  0
  -19.0004  -28.5134   18.4723 C   0  0  2  0  0  0  0  0  0  0  0  0
  -20.1653  -29.7862   22.9262 C   0  0  0  0  0  0  0  0  0  0  0  0
  -28.6314  -22.8878   19.0640 N   0  0  0  0  0  0  0  0  0  0  0  0
  -26.1169  -11.9999   20.2480 N   0  0  0  0  0  0  0  0  0  0  0  0
  -27.2611  -12.6256   20.5726 N   0  0  0  0  0  0  0  0  0  0  0  0
  -23.2616  -30.1678   21.1562 N   0  0  0  0  0  0  0  0  0  0  0  0
  -28.6323  -15.1680   18.0642 N   0  0  0  0  0  0  0  0  0  0  0  0
  -29.7032  -16.8110   19.4333 N   0  0  0  0  0  0  0  0  0  0  0  0
  -28.6061  -13.2678   22.4136 N   0  0  0  0  0  0  0  0  0  0  0  0
  -25.1109  -11.1708   24.3582 N   0  0  0  0  0  0  0  0  0  0  0  0
  -25.8269  -32.3571   22.5428 N   0  0  0  0  0  0  0  0  0  0  0  0
  -20.0348  -29.4574   20.4204 N   0  0  0  0  0  0  0  0  0  0  0  0
  -19.4820  -27.7999   17.2558 N   0  3  0  0  0  0  0  0  0  0  0  0
  -27.0791  -12.2757   24.7632 O   0  0  0  0  0  0  0  0  0  0  0  0
  -24.4146  -30.7029   23.3743 O   0  0  0  0  0  0  0  0  0  0  0  0
  -21.5647  -31.7668   21.1515 O   0  0  0  0  0  0  0  0  0  0  0  0
  -20.6532  -27.3197   19.7686 O   0  0  0  0  0  0  0  0  0  0  0  0
  -30.5210  -16.2774   17.3450 O   0  0  0  0  0  0  0  0  0  0  0  0
  -20.7661   -8.8812   21.7283 O   0  0  0  0  0  0  0  0  0  0  0  0
  -27.1490  -25.4083   20.5278 O   0  0  0  0  0  0  0  0  0  1  0  0
  -20.4967   -4.5396   25.1167 F   0  0  0  0  0  0  0  0  0  0  0  0
  -20.1726   -6.3608   20.7597 F   0  0  0  0  0  0  0  0  0  0  0  0
  1  2  1  0  0  0  0
  1  5  2  0  0  0  0
  2  6  2  0  0  0  0
  3  9  2  0  0  0  0
  3 18  1  0  0  0  0
  4 10  1  0  0  0  0
  4 18  2  0  0  0  0
  5 21  1  0  0  0  0
  6 23  1  0  0  0  0
  7 11  2  0  0  0  0
  7 22  1  0  0  0  0
  8 14  2  0  0  0  0
  8 20  1  0  0  0  0
  9 25  1  0  0  0  0
 10 25  2  0  0  0  0
 11 26  1  0  0  0  0
 12 13  2  0  0  0  0
 12 27  1  0  0  0  0
 13 28  1  0  0  0  0
 14 31  1  0  0  0  0
 15 24  1  0  0  0  0
 15 26  2  0  0  0  0
 16 28  2  0  0  0  0
 16 29  1  0  0  0  0
 17 20  2  0  0  0  0
 17 64  1  0  0  0  0
 18 30  1  0  0  0  0
 19 30  1  0  0  0  0
 19 32  2  0  0  0  0
 19 33  1  0  0  0  0
 20 51  1  0  0  0  0
 21 23  2  0  0  0  0
 21 38  1  0  0  0  0
 22 24  2  0  0  0  0
 22 39  1  0  0  0  0
 23 52  1  0  0  0  0
 24 40  1  0  0  0  0
 25 80  1  0  0  0  0
 26 81  1  0  0  0  0
 27 29  2  0  0  0  0
 27 80  1  0  0  0  0
 28 82  1  0  0  0  0
 29 83  1  0  0  0  0
 30 65  2  0  0  0  0
 31 60  1  0  0  0  0
 31 64  2  0  0  0  0
 32 66  1  0  0  0  0
 32 70  1  0  0  0  0
 33 71  1  0  0  0  0
 33 75  2  0  0  0  0
 34 53  1  0  0  0  0
 34 72  1  0  0  0  0
 34 76  2  0  0  0  0
 35 61  1  0  0  0  0
 35 67  1  0  0  0  0
 35 77  2  0  0  0  0
 36 62  1  0  0  0  0
 36 73  1  0  0  0  0
 36 78  2  0  0  0  0
 37 68  1  0  0  0  0
 37 69  1  0  0  0  0
 37 79  2  0  0  0  0
 38 41  1  0  0  0  0
 39 53  1  0  0  0  0
 40 67  1  0  0  0  0
 41 43  1  0  0  0  0
 42 44  1  0  0  0  0
 42 47  1  0  0  0  0
 43 52  1  0  0  0  0
 44 54  1  0  0  0  0
 45 48  1  0  0  0  0
 45 51  1  0  0  0  0
 46 49  1  0  0  0  0
 46 51  1  0  0  0  0
 47 68  1  0  0  0  0
 48 69  1  0  0  0  0
 49 69  1  0  0  0  0
 50 54  1  0  0  0  0
 50 68  1  0  0  0  0
 52 72  1  0  0  0  0
 53 67  1  0  0  0  0
 54 66  1  0  0  0  0
 55 62  1  0  0  0  0
 56 63  1  0  0  0  0
 57 63  1  0  0  0  0
 58 63  1  0  0  0  0
 59 74  1  0  0  0  0
 60 81  1  0  0  0  0
 61 63  1  0  0  0  0
 61 73  1  0  0  0  0
 62 74  1  0  0  0  0
 65 66  1  0  0  0  0
M  CHG  1  74   1
M  ISO  4  37 100  60 101  69 100  81 101
M  END
> <Batch ID>
0121

> <Smiles>
CNC(C)C(=O)NC(C(=O)N1Cc2cc([101O:1][101CH2:1]c3ccc(C4CC[100N:0]([100C:0](=O)N5CCCC(n6nc(-c7ccc(Oc8ccc(F)cc8F)cc7)c(C(N)=O)c6N)C5)CC4)cn3)ccc2CC1C(=O)NC1CCCc2ccccc21)C(C)(C)C

> <Shape>
0.313

> <Color>
0.076

> <Negative vol penalty>
0.000

$$$$

  -OEChem-04052320253D

 87 96  0     1  0  0  0  0  0999 V2000
  -27.1769  -25.3091   12.6011 C   0  0  0  0  0  0  0  0  0  0  0  0
  -26.4894  -26.4417   13.0252 C   0  0  0  0  0  0  0  0  0  0  0  0
  -25.2665  -12.3128   19.5469 C   0  0  0  0  0  0  0  0  0  0  0  0
  -25.8071  -13.1400   21.7515 C   0  0  0  0  0  0  0  0  0  0  0  0
  -27.3720  -24.2438   13.4792 C   0  0  0  0  0  0  0  0  0  0  0  0
  -25.9955  -26.5092   14.3274 C   0  0  0  0  0  0  0  0  0  0  0  0
  -18.0645  -26.9599   22.0089 C   0  0  0  0  0  0  0  0  0  0  0  0
  -20.0821  -26.1394   23.0545 C   0  0  0  0  0  0  0  0  0  0  0  0
  -24.7408  -31.2098   19.5855 C   0  0  0  0  0  0  0  0  0  0  0  0
  -18.2288  -28.1857   22.6537 C   0  0  0  0  0  0  0  0  0  0  0  0
  -20.2464  -27.3653   23.6993 C   0  0  0  0  0  0  0  0  0  0  0  0
  -24.8997  -11.0849   20.0975 C   0  0  0  0  0  0  0  0  0  0  0  0
  -25.4402  -11.9121   22.3022 C   0  0  0  0  0  0  0  0  0  0  0  0
  -23.7190  -31.6237   20.4390 C   0  0  0  0  0  0  0  0  0  0  0  0
  -22.2406   -9.7815   21.7295 C   0  0  0  0  0  0  0  0  0  0  0  0
  -21.0541   -9.1996   21.2834 C   0  0  0  0  0  0  0  0  0  0  0  0
  -24.1847  -29.7558   21.8927 C   0  0  0  0  0  0  0  0  0  0  0  0
  -22.2889   -7.2701   20.5159 C   0  0  0  0  0  0  0  0  0  0  0  0
  -25.7203  -13.3404   20.3739 C   0  0  0  0  0  0  0  0  0  0  0  0
  -27.1104  -14.8461   18.8546 C   0  0  0  0  0  0  0  0  0  0  0  0
  -18.9911  -25.9367   22.2093 C   0  0  0  0  0  0  0  0  0  0  0  0
  -26.8887  -24.3024   14.7959 C   0  0  0  0  0  0  0  0  0  0  0  0
  -25.4862  -30.0576   19.8740 C   0  0  0  0  0  0  0  0  0  0  0  0
  -26.1831  -25.4432   15.2236 C   0  0  0  0  0  0  0  0  0  0  0  0
  -25.2171  -29.3308   21.0425 C   0  0  0  0  0  0  0  0  0  0  0  0
  -19.3198  -28.3885   23.4989 C   0  0  0  0  0  0  0  0  0  0  0  0
  -24.9865  -10.8845   21.4752 C   0  0  0  0  0  0  0  0  0  0  0  0
  -23.4389  -30.8951   21.5913 C   0  0  0  0  0  0  0  0  0  0  0  0
  -23.4514   -9.1078   21.5687 C   0  0  0  0  0  0  0  0  0  0  0  0
  -21.0782   -7.9439   20.6766 C   0  0  0  0  0  0  0  0  0  0  0  0
  -23.4755   -7.8520   20.9620 C   0  0  0  0  0  0  0  0  0  0  0  0
  -26.0999  -14.6089   19.8056 C   0  0  0  0  0  0  0  0  0  0  0  0
  -27.0731  -16.2030   18.6451 C   0  0  0  0  0  0  0  0  0  0  0  0
  -28.0029  -13.9224   18.2175 C   0  0  0  0  0  0  0  0  0  0  0  0
  -25.9454  -27.2631   18.4306 C   0  0  0  0  0  0  0  0  0  0  0  0
  -28.0985  -26.8259   20.8171 C   0  0  0  0  0  0  0  0  0  0  0  0
  -28.2645  -27.4658   24.3639 C   0  0  0  0  0  0  0  0  0  0  0  0
  -22.7236  -20.1536   19.2197 C   0  0  0  0  0  0  0  0  0  0  0  0
  -27.0828  -23.1066   15.6943 C   0  0  0  0  0  0  0  0  0  0  0  0
  -26.6027  -29.6394   18.9570 C   0  0  0  0  0  0  0  0  0  0  0  0
  -26.0016  -28.0982   21.4081 C   0  0  0  0  0  0  0  0  0  0  0  0
  -26.8539  -23.4117   17.1724 C   0  0  0  0  0  0  0  0  0  0  0  0
  -25.9530  -20.3026   20.8465 C   0  0  0  0  0  0  0  0  0  0  0  0
  -25.5705  -24.2146   17.3592 C   0  0  0  0  0  0  0  0  0  0  0  0
  -26.4502  -18.8670   20.6676 C   0  0  0  0  0  0  0  0  0  0  0  0
  -18.6790  -23.4148   22.4531 C   0  0  0  0  0  0  0  0  0  0  0  0
  -24.4506  -20.3384   21.1107 C   0  0  0  0  0  0  0  0  0  0  0  0
  -24.1214  -18.2210   19.8934 C   0  0  0  0  0  0  0  0  0  0  0  0
  -18.8860  -22.2397   21.5205 C   0  0  0  0  0  0  0  0  0  0  0  0
  -19.9740  -24.2247   20.5909 C   0  0  0  0  0  0  0  0  0  0  0  0
  -18.8141  -24.6101   21.5121 C   0  0  2  0  0  0  0  0  0  0  0  0
  -25.6538  -25.5643   16.6362 C   0  0  1  0  0  0  0  0  0  0  0  0
  -26.9578  -28.1611   19.0835 C   0  0  1  0  0  0  0  0  0  0  0  0
  -25.6294  -18.1186   19.6007 C   0  0  2  0  0  0  0  0  0  0  0  0
  -30.2393  -27.8734   25.8576 C   0  0  0  0  0  0  0  0  0  0  0  0
  -27.9570  -23.8229   21.3387 C   0  0  0  0  0  0  0  0  0  0  0  0
  -28.5455  -24.2809   23.7287 C   0  0  0  0  0  0  0  0  0  0  0  0
  -30.1494  -24.8796   21.9144 C   0  0  0  0  0  0  0  0  0  0  0  0
  -27.1475  -30.0284   25.3357 C   0  0  0  0  0  0  0  0  0  0  0  0
  -19.4976  -29.7146   24.1942 C   0  0  0  0  0  0  0  0  0  0  0  0
  -20.3220  -30.7245   23.3929 C   0  0  0  0  0  0  0  0  0  0  0  0
  -21.3960  -22.1731   18.6575 C   0  0  0  0  0  0  0  0  0  0  0  0
  -20.0151  -22.0592   19.2760 C   0  0  0  0  0  0  0  0  0  0  0  0
  -21.7615  -30.2803   23.1610 C   0  0  0  0  0  0  0  0  0  1  0  0
  -28.0464  -26.2510   22.2120 C   0  0  1  0  0  0  0  0  0  0  0  0
  -29.1143  -28.5138   25.0595 C   0  0  2  0  0  0  0  0  0  0  0  0
  -28.6518  -24.8208   22.2865 C   0  0  0  0  0  0  0  0  0  0  0  0
  -25.4669  -15.7256   20.1749 N   0  0  0  0  0  0  0  0  0  0  0  0
  -26.0814  -16.6776   19.4522 N   0  0  0  0  0  0  0  0  0  0  0  0
  -27.0791  -27.7261   20.4764 N   0  0  0  0  0  0  0  0  0  0  0  0
  -23.7262  -19.6248   20.0495 N   0  0  0  0  0  0  0  0  0  0  0  0
  -27.7923  -17.0245   17.8512 N   0  0  0  0  0  0  0  0  0  0  0  0
  -29.2354  -13.6545   18.8288 N   0  0  0  0  0  0  0  0  0  0  0  0
  -26.4547  -26.4976   17.3990 N   0  0  0  0  0  0  0  0  0  0  0  0
  -28.7025  -27.2236   23.0791 N   0  0  0  0  0  0  0  0  0  0  0  0
  -22.4033  -21.4881   19.4366 N   0  0  0  0  0  0  0  0  0  0  0  0
  -20.0098  -22.7054   20.6236 N   0  3  2  0  0  0  0  0  0  0  0  0
  -28.2789  -29.3233   25.9911 N   0  3  0  0  0  0  0  0  0  0  0  0
  -27.7230  -13.3640   17.1297 O   0  0  0  0  0  0  0  0  0  0  0  0
  -24.7883  -27.2635   18.8339 O   0  0  0  0  0  0  0  0  0  0  0  0
  -29.0143  -26.4941   20.0601 O   0  0  0  0  0  0  0  0  0  0  0  0
  -27.3100  -26.9143   24.9074 O   0  0  0  0  0  0  0  0  0  0  0  0
  -22.1589  -19.4868   18.3458 O   0  0  0  0  0  0  0  0  0  0  0  0
  -24.6285   -9.6865   22.0128 O   0  0  0  0  0  0  0  0  0  0  0  0
  -22.4418  -31.2966   22.4257 O   0  0  0  0  0  0  0  0  0  1  0  0
  -19.9385   -7.3845   20.2497 F   0  0  0  0  0  0  0  0  0  0  0  0
  -24.6355   -7.1994   20.8058 F   0  0  0  0  0  0  0  0  0  0  0  0
  1  2  1  0  0  0  0
  1  5  2  0  0  0  0
  2  6  2  0  0  0  0
  3 12  2  0  0  0  0
  3 19  1  0  0  0  0
  4 13  1  0  0  0  0
  4 19  2  0  0  0  0
  5 22  1  0  0  0  0
  6 24  1  0  0  0  0
  7 10  2  0  0  0  0
  7 21  1  0  0  0  0
  8 11  1  0  0  0  0
  8 21  2  0  0  0  0
  9 14  2  0  0  0  0
  9 23  1  0  0  0  0
 10 26  1  0  0  0  0
 11 26  2  0  0  0  0
 12 27  1  0  0  0  0
 13 27  2  0  0  0  0
 14 28  1  0  0  0  0
 15 16  2  0  0  0  0
 15 29  1  0  0  0  0
 16 30  1  0  0  0  0
 17 25  1  0  0  0  0
 17 28  2  0  0  0  0
 18 30  2  0  0  0  0
 18 31  1  0  0  0  0
 19 32  1  0  0  0  0
 20 32  1  0  0  0  0
 20 33  2  0  0  0  0
 20 34  1  0  0  0  0
 21 51  1  0  0  0  0
 22 24  2  0  0  0  0
 22 39  1  0  0  0  0
 23 25  2  0  0  0  0
 23 40  1  0  0  0  0
 24 52  1  0  0  0  0
 25 41  1  0  0  0  0
 26 60  1  0  0  0  0
 27 84  1  0  0  0  0
 28 85  1  0  0  0  0
 29 31  2  0  0  0  0
 29 84  1  0  0  0  0
 30 86  1  0  0  0  0
 31 87  1  0  0  0  0
 32 68  2  0  0  0  0
 33 69  1  0  0  0  0
 33 72  1  0  0  0  0
 34 73  1  0  0  0  0
 34 79  2  0  0  0  0
 35 53  1  0  0  0  0
 35 74  1  0  0  0  0
 35 80  2  0  0  0  0
 36 65  1  0  0  0  0
 36 70  1  0  0  0  0
 36 81  2  0  0  0  0
 37 66  1  0  0  0  0
 37 75  1  0  0  0  0
 37 82  2  0  0  0  0
 38 71  1  0  0  0  0
 38 76  1  0  0  0  0
 38 83  2  0  0  0  0
 39 42  1  0  0  0  0
 40 53  1  0  0  0  0
 41 70  1  0  0  0  0
 42 44  1  0  0  0  0
 43 45  1  0  0  0  0
 43 47  1  0  0  0  0
 44 52  1  0  0  0  0
 45 54  1  0  0  0  0
 46 49  1  0  0  0  0
 46 51  1  0  0  0  0
 47 71  1  0  0  0  0
 48 54  1  0  0  0  0
 48 71  1  0  0  0  0
 49 77  1  0  0  0  0
 50 51  1  0  0  0  0
 50 77  1  0  0  0  0
 52 74  1  0  0  0  0
 53 70  1  0  0  0  0
 54 69  1  0  0  0  0
 55 66  1  0  0  0  0
 56 67  1  0  0  0  0
 57 67  1  0  0  0  0
 58 67  1  0  0  0  0
 59 78  1  0  0  0  0
 60 61  1  0  0  0  0
 61 64  1  0  0  0  0
 62 63  1  0  0  0  0
 62 76  1  0  0  0  0
 63 77  1  0  0  0  0
 64 85  1  0  0  0  0
 65 67  1  0  0  0  0
 65 75  1  0  0  0  0
 66 78  1  0  0  0  0
 68 69  1  0  0  0  0
M  CHG  2  77   1  78   1
M  ISO  4  38 100  64 101  76 100  85 101
M  END
> <Batch ID>
0121

> <Smiles>
CNC(C)C(=O)NC(C(=O)N1Cc2cc([101O:1][101CH2:1]CCc3ccc(C4CCN(CC[100NH:0][100C:0](=O)N5CCCC(n6nc(-c7ccc(Oc8ccc(F)cc8F)cc7)c(C(N)=O)c6N)C5)C4)cc3)ccc2CC1C(=O)NC1CCCc2ccccc21)C(C)(C)C

> <Shape>
0.215

> <Color>
0.086

> <Negative vol penalty>
0.000

$$$$

  -OEChem-04052320253D

 92102  0     1  0  0  0  0  0999 V2000
  -16.2616  -27.2537   25.7568 C   0  0  0  0  0  0  0  0  0  0  0  0
  -17.3286  -26.4222   25.4322 C   0  0  0  0  0  0  0  0  0  0  0  0
  -25.5574  -13.5105   18.9945 C   0  0  0  0  0  0  0  0  0  0  0  0
  -26.0266  -13.7478   21.3526 C   0  0  0  0  0  0  0  0  0  0  0  0
  -16.1688  -28.5220   25.1851 C   0  0  0  0  0  0  0  0  0  0  0  0
  -18.3029  -26.8580   24.5349 C   0  0  0  0  0  0  0  0  0  0  0  0
  -24.2858  -25.5578   24.6783 C   0  0  0  0  0  0  0  0  0  0  0  0
  -24.2203  -13.8314   19.2282 C   0  0  0  0  0  0  0  0  0  0  0  0
  -24.6894  -14.0687   21.5864 C   0  0  0  0  0  0  0  0  0  0  0  0
  -25.0586  -24.6202   23.9945 C   0  0  0  0  0  0  0  0  0  0  0  0
  -21.3252  -14.5986   22.8557 C   0  0  0  0  0  0  0  0  0  0  0  0
  -20.6921  -13.9895   23.9391 C   0  0  0  0  0  0  0  0  0  0  0  0
  -25.6484  -26.3015   22.3683 C   0  0  0  0  0  0  0  0  0  0  0  0
  -21.1139  -11.8190   22.9654 C   0  0  0  0  0  0  0  0  0  0  0  0
  -26.4606  -13.4686   20.0567 C   0  0  0  0  0  0  0  0  0  0  0  0
  -28.3455  -11.9447   19.2615 C   0  0  0  0  0  0  0  0  0  0  0  0
  -17.1475  -28.9773   24.2877 C   0  0  0  0  0  0  0  0  0  0  0  0
  -24.1795  -26.8736   24.2054 C   0  0  0  0  0  0  0  0  0  0  0  0
  -18.2223  -28.1330   23.9496 C   0  0  0  0  0  0  0  0  0  0  0  0
  -24.8756  -27.2545   23.0493 C   0  0  0  0  0  0  0  0  0  0  0  0
  -23.7863  -14.1106   20.5241 C   0  0  0  0  0  0  0  0  0  0  0  0
  -25.7377  -24.9913   22.8377 C   0  0  0  0  0  0  0  0  0  0  0  0
  -21.8527  -13.8179   21.8271 C   0  0  0  0  0  0  0  0  0  0  0  0
  -20.5865  -12.5997   23.9940 C   0  0  0  0  0  0  0  0  0  0  0  0
  -21.7470  -12.4281   21.8819 C   0  0  0  0  0  0  0  0  0  0  0  0
  -27.8419  -13.1366   19.8160 C   0  0  0  0  0  0  0  0  0  0  0  0
  -29.7073  -12.1226   19.2442 C   0  0  0  0  0  0  0  0  0  0  0  0
  -27.6450  -10.7808   18.8029 C   0  0  0  0  0  0  0  0  0  0  0  0
  -27.0740  -21.4781   20.9562 C   0  0  0  0  0  0  0  0  0  0  0  0
  -21.7909  -28.7022   23.1785 C   0  0  0  0  0  0  0  0  0  0  0  0
  -24.0844  -30.9956   23.1293 C   0  0  0  0  0  0  0  0  0  0  0  0
  -27.4022  -31.7713   22.9377 C   0  0  0  0  0  0  0  0  0  0  0  0
  -29.8972  -17.3205   21.0897 C   0  0  0  0  0  0  0  0  0  0  0  0
  -16.9793  -30.3378   23.6589 C   0  0  0  0  0  0  0  0  0  0  0  0
  -23.3634  -27.8799   24.9694 C   0  0  0  0  0  0  0  0  0  0  0  0
  -24.8107  -28.6598   22.5114 C   0  0  0  0  0  0  0  0  0  0  0  0
  -18.2525  -30.8682   23.0049 C   0  0  0  0  0  0  0  0  0  0  0  0
  -31.4011  -14.3996   22.4947 C   0  0  0  0  0  0  0  0  0  0  0  0
  -30.5153  -19.9786   18.7018 C   0  0  0  0  0  0  0  0  0  0  0  0
  -18.9026  -29.7869   22.1475 C   0  0  0  0  0  0  0  0  0  0  0  0
  -31.9273  -13.6165   21.2971 C   0  0  0  0  0  0  0  0  0  0  0  0
  -28.9942  -20.0298   18.7265 C   0  0  0  0  0  0  0  0  0  0  0  0
  -25.0095  -20.4280   21.8514 C   0  0  0  0  0  0  0  0  0  0  0  0
  -25.6757  -17.6959   17.8736 C   0  0  0  0  0  0  0  0  0  0  0  0
  -27.9963  -16.7031   17.9607 C   0  0  0  0  0  0  0  0  0  0  0  0
  -31.5393  -15.8958   22.2593 C   0  0  0  0  0  0  0  0  0  0  0  0
  -30.8043  -18.5239   19.0383 C   0  0  0  0  0  0  0  0  0  0  0  0
  -31.2553  -15.5867   19.8078 C   0  0  0  0  0  0  0  0  0  0  0  0
  -24.3311  -19.0844   21.6832 C   0  0  0  0  0  0  0  0  0  0  0  0
  -25.5181  -17.1733   16.4535 C   0  0  0  0  0  0  0  0  0  0  0  0
  -27.8174  -16.1900   16.5396 C   0  0  0  0  0  0  0  0  0  0  0  0
  -19.3122  -28.5795   22.9994 C   0  0  1  0  0  0  0  0  0  0  0  0
  -26.4038  -20.1855   21.2951 C   0  0  1  0  0  0  0  0  0  0  0  0
  -22.9130  -29.0587   24.1120 C   0  0  1  0  0  0  0  0  0  0  0  0
  -27.1483  -17.9563   18.2215 C   0  0  0  0  0  0  0  0  0  0  0  0
  -31.2724  -14.0498   19.9757 C   0  0  2  0  0  0  0  0  0  0  0  0
  -28.6302  -19.1040   19.8905 C   0  0  1  0  0  0  0  0  0  0  0  0
  -26.1360  -19.3411   20.0532 C   0  0  1  0  0  0  0  0  0  0  0  0
  -29.0732  -22.8881   21.4027 C   0  0  0  0  0  0  0  0  0  0  0  0
  -28.9668  -33.7326   22.8835 C   0  0  0  0  0  0  0  0  0  0  0  0
  -23.3168  -31.5245   20.2239 C   0  0  0  0  0  0  0  0  0  0  0  0
  -25.4746  -32.7649   19.9526 C   0  0  0  0  0  0  0  0  0  0  0  0
  -23.7647  -33.5805   21.5755 C   0  0  0  0  0  0  0  0  0  0  0  0
  -28.7568  -30.9074   25.4232 C   0  0  0  0  0  0  0  0  0  0  0  0
  -27.0904  -23.0380   22.9411 C   0  0  0  0  0  0  0  0  0  1  0  0
  -27.9279  -22.1179   22.0498 C   0  0  1  0  0  0  0  0  0  0  0  0
  -25.0812  -31.4889   22.1086 C   0  0  1  0  0  0  0  0  0  0  0  0
  -28.2671  -32.7075   23.7623 C   0  0  2  0  0  0  0  0  0  0  0  0
  -27.2898  -18.4144   19.6714 C   0  0  1  0  0  0  0  0  0  0  0  0
  -24.4092  -32.3126   20.9739 C   0  0  0  0  0  0  0  0  0  0  0  0
  -28.8053  -14.0073   20.1286 N   0  0  0  0  0  0  0  0  0  0  0  0
  -29.9280  -13.3618   19.7693 N   0  0  0  0  0  0  0  0  0  0  0  0
  -23.9945  -29.6057   23.2903 N   0  0  0  0  0  0  0  0  0  0  0  0
  -30.8774  -16.3190   21.0251 N   0  0  0  0  0  0  0  0  0  0  0  0
  -29.7458  -18.1540   19.9792 N   0  0  0  0  0  0  0  0  0  0  0  0
  -30.7255  -11.3383   18.8313 N   0  0  0  0  0  0  0  0  0  0  0  0
  -27.3969   -9.7471   19.7163 N   0  0  0  0  0  0  0  0  0  0  0  0
  -20.5319  -28.8632   23.7249 N   0  0  0  0  0  0  0  0  0  0  0  0
  -26.1009  -32.2193   22.8537 N   0  0  0  0  0  0  0  0  0  0  0  0
  -26.3660  -15.9569   16.2799 N   0  3  0  0  0  0  0  0  0  0  0  0
  -24.9272  -18.5203   20.4268 N   0  3  0  0  0  0  0  0  0  0  0  0
  -29.3054  -31.9362   24.5026 N   0  3  0  0  0  0  0  0  0  0  0  0
  -27.2651  -10.6539   17.6141 O   0  0  0  0  0  0  0  0  0  0  0  0
  -26.9559  -21.9737   19.8355 O   0  0  0  0  0  0  0  0  0  0  0  0
  -22.0482  -28.3114   22.0459 O   0  0  0  0  0  0  0  0  0  0  0  0
  -23.4153  -31.8136   23.7656 O   0  0  0  0  0  0  0  0  0  0  0  0
  -27.8384  -30.7471   22.4168 O   0  0  0  0  0  0  0  0  0  0  0  0
  -29.1951  -17.4702   22.0985 O   0  0  0  0  0  0  0  0  0  0  0  0
  -22.4816  -14.4240   20.7525 O   0  0  0  0  0  0  0  0  0  0  0  0
  -26.4971  -24.0720   22.1635 O   0  0  0  0  0  0  0  0  0  1  0  0
  -19.9798  -12.0149   25.0352 F   0  0  0  0  0  0  0  0  0  0  0  0
  -22.2528  -11.6728   20.8973 F   0  0  0  0  0  0  0  0  0  0  0  0
  1  2  1  0  0  0  0
  1  5  2  0  0  0  0
  2  6  2  0  0  0  0
  3  8  2  0  0  0  0
  3 15  1  0  0  0  0
  4  9  1  0  0  0  0
  4 15  2  0  0  0  0
  5 17  1  0  0  0  0
  6 19  1  0  0  0  0
  7 10  2  0  0  0  0
  7 18  1  0  0  0  0
  8 21  1  0  0  0  0
  9 21  2  0  0  0  0
 10 22  1  0  0  0  0
 11 12  2  0  0  0  0
 11 23  1  0  0  0  0
 12 24  1  0  0  0  0
 13 20  1  0  0  0  0
 13 22  2  0  0  0  0
 14 24  2  0  0  0  0
 14 25  1  0  0  0  0
 15 26  1  0  0  0  0
 16 26  1  0  0  0  0
 16 27  2  0  0  0  0
 16 28  1  0  0  0  0
 17 19  2  0  0  0  0
 17 34  1  0  0  0  0
 18 20  2  0  0  0  0
 18 35  1  0  0  0  0
 19 52  1  0  0  0  0
 20 36  1  0  0  0  0
 21 89  1  0  0  0  0
 22 90  1  0  0  0  0
 23 25  2  0  0  0  0
 23 89  1  0  0  0  0
 24 91  1  0  0  0  0
 25 92  1  0  0  0  0
 26 71  2  0  0  0  0
 27 72  1  0  0  0  0
 27 76  1  0  0  0  0
 28 77  1  0  0  0  0
 28 83  2  0  0  0  0
 29 53  1  0  0  0  0
 29 66  1  0  0  0  0
 29 84  2  0  0  0  0
 30 54  1  0  0  0  0
 30 78  1  0  0  0  0
 30 85  2  0  0  0  0
 31 67  1  0  0  0  0
 31 73  1  0  0  0  0
 31 86  2  0  0  0  0
 32 68  1  0  0  0  0
 32 79  1  0  0  0  0
 32 87  2  0  0  0  0
 33 74  1  0  0  0  0
 33 75  1  0  0  0  0
 33 88  2  0  0  0  0
 34 37  1  0  0  0  0
 35 54  1  0  0  0  0
 36 73  1  0  0  0  0
 37 40  1  0  0  0  0
 38 41  1  0  0  0  0
 38 46  1  0  0  0  0
 39 42  1  0  0  0  0
 39 47  1  0  0  0  0
 40 52  1  0  0  0  0
 41 56  1  0  0  0  0
 42 57  1  0  0  0  0
 43 49  1  0  0  0  0
 43 53  1  0  0  0  0
 44 50  1  0  0  0  0
 44 55  1  0  0  0  0
 45 51  1  0  0  0  0
 45 55  1  0  0  0  0
 46 74  1  0  0  0  0
 47 75  1  0  0  0  0
 48 56  1  0  0  0  0
 48 74  1  0  0  0  0
 49 81  1  0  0  0  0
 50 80  1  0  0  0  0
 51 80  1  0  0  0  0
 52 78  1  0  0  0  0
 53 58  1  0  0  0  0
 54 73  1  0  0  0  0
 55 69  1  0  0  0  0
 56 72  1  0  0  0  0
 57 69  1  0  0  0  0
 57 75  1  0  0  0  0
 58 69  1  0  0  0  0
 58 81  1  0  0  0  0
 59 66  1  0  0  0  0
 60 68  1  0  0  0  0
 61 70  1  0  0  0  0
 62 70  1  0  0  0  0
 63 70  1  0  0  0  0
 64 82  1  0  0  0  0
 65 66  1  0  0  0  0
 65 90  1  0  0  0  0
 67 70  1  0  0  0  0
 67 79  1  0  0  0  0
 68 82  1  0  0  0  0
 71 72  1  0  0  0  0
M  CHG  3  80   1  81   1  82   1
M  ISO  4  33 100  65 101  75 100  90 101
M  END
> <Batch ID>
0121

> <Smiles>
CNC(C)C(=O)NC(C(=O)N1Cc2cc([101O:1][101CH2:1]C(C)C(=O)C3CCNC3C(C3CCNCC3)C3CCC[100N:0]3[100C:0](=O)N3CCCC(n4nc(-c5ccc(Oc6ccc(F)cc6F)cc5)c(C(N)=O)c4N)C3)ccc2CC1C(=O)NC1CCCc2ccccc21)C(C)(C)C

> <Shape>
0.274

> <Color>
0.071

> <Negative vol penalty>
0.000

$$$$

  -OEChem-04052320253D

 84 92  0     1  0  0  0  0  0999 V2000
  -18.4337  -19.7021   21.5425 C   0  0  0  0  0  0  0  0  0  0  0  0
  -19.2595  -20.5537   20.8158 C   0  0  0  0  0  0  0  0  0  0  0  0
  -28.4573  -24.6037   23.8223 C   0  0  0  0  0  0  0  0  0  0  0  0
  -24.4260  -13.9158   20.1660 C   0  0  0  0  0  0  0  0  0  0  0  0
  -26.4552  -13.9055   21.4772 C   0  0  0  0  0  0  0  0  0  0  0  0
  -17.5083  -20.2300   22.4419 C   0  0  0  0  0  0  0  0  0  0  0  0
  -19.1597  -21.9340   20.9872 C   0  0  0  0  0  0  0  0  0  0  0  0
  -23.6837  -24.1746   21.3845 C   0  0  0  0  0  0  0  0  0  0  0  0
  -24.4606  -12.5229   20.1013 C   0  0  0  0  0  0  0  0  0  0  0  0
  -26.4898  -12.5126   21.4125 C   0  0  0  0  0  0  0  0  0  0  0  0
  -24.3982  -24.3801   20.2050 C   0  0  0  0  0  0  0  0  0  0  0  0
  -23.8173   -8.9509   19.8966 C   0  0  0  0  0  0  0  0  0  0  0  0
  -22.6262   -8.2613   20.1234 C   0  0  0  0  0  0  0  0  0  0  0  0
  -28.9146  -25.7446   23.1722 C   0  0  0  0  0  0  0  0  0  0  0  0
  -28.2487  -23.4346   23.0990 C   0  0  0  0  0  0  0  0  0  0  0  0
  -23.6738  -26.6808   20.1741 C   0  0  0  0  0  0  0  0  0  0  0  0
  -22.4894   -9.2249   22.3347 C   0  0  0  0  0  0  0  0  0  0  0  0
  -25.4233  -14.6071   20.8539 C   0  0  0  0  0  0  0  0  0  0  0  0
  -24.7591  -16.8366   21.9009 C   0  0  0  0  0  0  0  0  0  0  0  0
  -17.4038  -21.6170   22.6316 C   0  0  0  0  0  0  0  0  0  0  0  0
  -22.9488  -25.2196   21.9626 C   0  0  0  0  0  0  0  0  0  0  0  0
  -18.2311  -22.4810   21.8890 C   0  0  0  0  0  0  0  0  0  0  0  0
  -22.9529  -26.4867   21.3623 C   0  0  0  0  0  0  0  0  0  0  0  0
  -25.4926  -11.8213   20.7246 C   0  0  0  0  0  0  0  0  0  0  0  0
  -24.3910  -25.6325   19.5981 C   0  0  0  0  0  0  0  0  0  0  0  0
  -24.3444   -9.7775   20.8888 C   0  0  0  0  0  0  0  0  0  0  0  0
  -21.9622   -8.3983   21.3424 C   0  0  0  0  0  0  0  0  0  0  0  0
  -23.6805   -9.9145   22.1079 C   0  0  0  0  0  0  0  0  0  0  0  0
  -25.3883  -16.0460   20.9206 C   0  0  0  0  0  0  0  0  0  0  0  0
  -29.1465  -25.6650   21.8085 C   0  0  0  0  0  0  0  0  0  0  0  0
  -28.5103  -23.4585   21.7386 C   0  0  0  0  0  0  0  0  0  0  0  0
  -25.0156  -18.1298   21.5157 C   0  0  0  0  0  0  0  0  0  0  0  0
  -24.0099  -16.4376   23.0564 C   0  0  0  0  0  0  0  0  0  0  0  0
  -19.8756  -25.7104   22.6096 C   0  0  0  0  0  0  0  0  0  0  0  0
  -21.0084  -28.3852   24.0536 C   0  0  0  0  0  0  0  0  0  0  0  0
  -23.4850  -30.7210   24.2924 C   0  0  0  0  0  0  0  0  0  0  0  0
  -28.4920  -22.0566   19.6456 C   0  0  0  0  0  0  0  0  0  0  0  0
  -16.3558  -22.1430   23.5801 C   0  0  0  0  0  0  0  0  0  0  0  0
  -22.2050  -24.9888   23.2495 C   0  0  0  0  0  0  0  0  0  0  0  0
  -22.1964  -27.6470   21.9538 C   0  0  0  0  0  0  0  0  0  0  0  0
  -16.5719  -23.6006   23.9791 C   0  0  0  0  0  0  0  0  0  0  0  0
  -26.9511  -19.9627   17.2127 C   0  0  0  0  0  0  0  0  0  0  0  0
  -16.8799  -24.4503   22.7503 C   0  0  0  0  0  0  0  0  0  0  0  0
  -26.3554  -18.8221   18.0411 C   0  0  0  0  0  0  0  0  0  0  0  0
  -28.2914  -20.4325   17.7755 C   0  0  0  0  0  0  0  0  0  0  0  0
  -27.6808  -19.6461   20.0290 C   0  0  0  0  0  0  0  0  0  0  0  0
  -18.1698  -23.9828   22.0655 C   0  0  1  0  0  0  0  0  0  0  0  0
  -21.0737  -25.9876   23.4731 C   0  0  1  0  0  0  0  0  0  0  0  0
  -26.2993  -19.1829   19.5386 C   0  0  2  0  0  0  0  0  0  0  0  0
  -31.1780  -26.9825   21.1225 C   0  0  0  0  0  0  0  0  0  0  0  0
  -24.1115  -32.8075   25.5379 C   0  0  0  0  0  0  0  0  0  0  0  0
  -24.9693  -27.7299   16.9601 C   0  0  0  0  0  0  0  0  0  0  0  0
  -19.0270  -29.9820   22.3701 C   0  0  0  0  0  0  0  0  0  0  0  0
  -20.3235  -32.0491   22.9306 C   0  0  0  0  0  0  0  0  0  0  0  0
  -19.2242  -30.7380   24.7458 C   0  0  0  0  0  0  0  0  0  0  0  0
  -25.9171  -29.4609   25.4132 C   0  0  0  0  0  0  0  0  0  0  0  0
  -29.1701  -26.9451   19.6058 C   0  0  0  0  0  0  0  0  0  0  0  0
  -27.1218  -27.0863   18.1834 C   0  0  0  0  0  0  0  0  0  0  0  0
  -29.6484  -26.8956   21.0627 C   0  0  1  0  0  0  0  0  0  0  0  0
  -21.2825  -29.8031   23.6138 C   0  0  1  0  0  0  0  0  0  0  0  0
  -24.2194  -31.2913   25.4924 C   0  0  2  0  0  0  0  0  0  0  0  0
  -25.5983  -27.1484   18.2195 C   0  0  2  0  0  0  0  0  0  1  0  0
  -19.9771  -30.6209   23.4027 C   0  0  0  0  0  0  0  0  0  0  0  0
  -25.9984  -16.7760   19.9830 N   0  0  0  0  0  0  0  0  0  0  0  0
  -28.9554  -24.5473   21.0723 N   0  0  0  0  0  0  0  0  0  0  0  0
  -25.7537  -18.0387   20.3724 N   0  0  0  0  0  0  0  0  0  0  0  0
  -21.4795  -27.3696   23.2094 N   0  0  0  0  0  0  0  0  0  0  0  0
  -28.1605  -20.7606   19.1968 N   0  0  0  0  0  0  0  0  0  0  0  0
  -24.6794  -19.3245   22.0467 N   0  0  0  0  0  0  0  0  0  0  0  0
  -23.8421  -15.0683   23.3039 N   0  0  0  0  0  0  0  0  0  0  0  0
  -28.2964  -22.2616   21.0110 N   0  0  0  0  0  0  0  0  0  0  0  0
  -19.3282  -24.4550   22.7932 N   0  0  0  0  0  0  0  0  0  0  0  0
  -22.1890  -30.3703   24.6062 N   0  0  0  0  0  0  0  0  0  0  0  0
  -25.6628  -30.9243   25.4387 N   0  3  0  0  0  0  0  0  0  0  0  0
  -27.6830  -26.9587   19.5514 N   0  3  0  0  0  0  0  0  0  0  0  0
  -23.4903  -17.2708   23.8370 O   0  0  0  0  0  0  0  0  0  0  0  0
  -19.4765  -26.5723   21.8354 O   0  0  0  0  0  0  0  0  0  0  0  0
  -20.4050  -28.1859   25.1109 O   0  0  0  0  0  0  0  0  0  0  0  0
  -24.0076  -30.6022   23.1864 O   0  0  0  0  0  0  0  0  0  0  0  0
  -28.8921  -22.9292   18.8706 O   0  0  0  0  0  0  0  0  0  0  0  0
  -25.5266  -10.4621   20.6619 O   0  0  0  0  0  0  0  0  0  0  0  0
  -25.0870  -25.8356   18.4465 O   0  0  0  0  0  0  0  0  0  1  0  0
  -20.8177   -7.7373   21.5594 F   0  0  0  0  0  0  0  0  0  0  0  0
  -24.1814  -10.7081   23.0645 F   0  0  0  0  0  0  0  0  0  0  0  0
  1  2  1  0  0  0  0
  1  6  2  0  0  0  0
  2  7  2  0  0  0  0
  3 14  2  0  0  0  0
  3 15  1  0  0  0  0
  4  9  2  0  0  0  0
  4 18  1  0  0  0  0
  5 10  1  0  0  0  0
  5 18  2  0  0  0  0
  6 20  1  0  0  0  0
  7 22  1  0  0  0  0
  8 11  2  0  0  0  0
  8 21  1  0  0  0  0
  9 24  1  0  0  0  0
 10 24  2  0  0  0  0
 11 25  1  0  0  0  0
 12 13  2  0  0  0  0
 12 26  1  0  0  0  0
 13 27  1  0  0  0  0
 14 30  1  0  0  0  0
 15 31  2  0  0  0  0
 16 23  1  0  0  0  0
 16 25  2  0  0  0  0
 17 27  2  0  0  0  0
 17 28  1  0  0  0  0
 18 29  1  0  0  0  0
 19 29  1  0  0  0  0
 19 32  2  0  0  0  0
 19 33  1  0  0  0  0
 20 22  2  0  0  0  0
 20 38  1  0  0  0  0
 21 23  2  0  0  0  0
 21 39  1  0  0  0  0
 22 47  1  0  0  0  0
 23 40  1  0  0  0  0
 24 81  1  0  0  0  0
 25 82  1  0  0  0  0
 26 28  2  0  0  0  0
 26 81  1  0  0  0  0
 27 83  1  0  0  0  0
 28 84  1  0  0  0  0
 29 64  2  0  0  0  0
 30 59  1  0  0  0  0
 30 65  2  0  0  0  0
 31 65  1  0  0  0  0
 31 71  1  0  0  0  0
 32 66  1  0  0  0  0
 32 69  1  0  0  0  0
 33 70  1  0  0  0  0
 33 76  2  0  0  0  0
 34 48  1  0  0  0  0
 34 72  1  0  0  0  0
 34 77  2  0  0  0  0
 35 60  1  0  0  0  0
 35 67  1  0  0  0  0
 35 78  2  0  0  0  0
 36 61  1  0  0  0  0
 36 73  1  0  0  0  0
 36 79  2  0  0  0  0
 37 68  1  0  0  0  0
 37 71  1  0  0  0  0
 37 80  2  0  0  0  0
 38 41  1  0  0  0  0
 39 48  1  0  0  0  0
 40 67  1  0  0  0  0
 41 43  1  0  0  0  0
 42 44  1  0  0  0  0
 42 45  1  0  0  0  0
 43 47  1  0  0  0  0
 44 49  1  0  0  0  0
 45 68  1  0  0  0  0
 46 49  1  0  0  0  0
 46 68  1  0  0  0  0
 47 72  1  0  0  0  0
 48 67  1  0  0  0  0
 49 66  1  0  0  0  0
 50 59  1  0  0  0  0
 51 61  1  0  0  0  0
 52 62  1  0  0  0  0
 53 63  1  0  0  0  0
 54 63  1  0  0  0  0
 55 63  1  0  0  0  0
 56 74  1  0  0  0  0
 57 59  1  0  0  0  0
 57 75  1  0  0  0  0
 58 62  1  0  0  0  0
 58 75  1  0  0  0  0
 60 63  1  0  0  0  0
 60 73  1  0  0  0  0
 61 74  1  0  0  0  0
 62 82  1  0  0  0  0
 64 66  1  0  0  0  0
M  CHG  2  74   1  75   1
M  ISO  4  37 100  62 101  71 100  82 101
M  END
> <Batch ID>
0121

> <Smiles>
CNC(C)C(=O)NC(C(=O)N1Cc2cc([101O:1][101CH:1](C)CNCC(C)c3cccc([100NH:0][100C:0](=O)N4CCCC(n5nc(-c6ccc(Oc7ccc(F)cc7F)cc6)c(C(N)=O)c5N)C4)n3)ccc2CC1C(=O)NC1CCCc2ccccc21)C(C)(C)C

> <Shape>
0.221

> <Color>
0.054

> <Negative vol penalty>
0.000

$$$$

  -OEChem-04052320253D

 87 96  0     1  0  0  0  0  0999 V2000
  -45.1063  -23.1048   25.8945 C   0  0  0  0  0  0  0  0  0  0  0  0
  -44.0476  -23.4421   26.7316 C   0  0  0  0  0  0  0  0  0  0  0  0
  -23.1874  -10.2566   22.1957 C   0  0  0  0  0  0  0  0  0  0  0  0
  -23.8179   -9.4795   19.9967 C   0  0  0  0  0  0  0  0  0  0  0  0
  -44.9362  -23.1340   24.5109 C   0  0  0  0  0  0  0  0  0  0  0  0
  -42.8184  -23.8099   26.1856 C   0  0  0  0  0  0  0  0  0  0  0  0
  -35.7102  -20.8006   27.3874 C   0  0  0  0  0  0  0  0  0  0  0  0
  -22.4543   -9.0874   22.3987 C   0  0  0  0  0  0  0  0  0  0  0  0
  -23.0848   -8.3103   20.1996 C   0  0  0  0  0  0  0  0  0  0  0  0
  -34.4275  -20.2523   27.3975 C   0  0  0  0  0  0  0  0  0  0  0  0
  -19.4471   -7.8435   21.4853 C   0  0  0  0  0  0  0  0  0  0  0  0
  -18.1711   -7.9668   22.0350 C   0  0  0  0  0  0  0  0  0  0  0  0
  -31.4348  -17.6442   21.6510 C   0  0  0  0  0  0  0  0  0  0  0  0
  -34.0303  -21.1133   25.1729 C   0  0  0  0  0  0  0  0  0  0  0  0
  -18.8432   -6.5913   23.9040 C   0  0  0  0  0  0  0  0  0  0  0  0
  -32.4266  -16.8441   21.1278 C   0  0  0  0  0  0  0  0  0  0  0  0
  -32.0615  -16.1676   23.2311 C   0  0  0  0  0  0  0  0  0  0  0  0
  -23.8692  -10.4527   20.9947 C   0  0  0  0  0  0  0  0  0  0  0  0
  -24.1395  -12.9813   20.7937 C   0  0  0  0  0  0  0  0  0  0  0  0
  -43.7014  -23.4931   23.9479 C   0  0  0  0  0  0  0  0  0  0  0  0
  -36.1639  -21.4950   26.2625 C   0  0  0  0  0  0  0  0  0  0  0  0
  -42.6320  -23.8453   24.7932 C   0  0  0  0  0  0  0  0  0  0  0  0
  -35.3187  -21.6540   25.1521 C   0  0  0  0  0  0  0  0  0  0  0  0
  -31.2038  -17.2162   22.9816 C   0  0  0  0  0  0  0  0  0  0  0  0
  -22.4030   -8.1143   21.4007 C   0  0  0  0  0  0  0  0  0  0  0  0
  -33.5895  -20.4085   26.2931 C   0  0  0  0  0  0  0  0  0  0  0  0
  -20.4212   -7.0940   22.1450 C   0  0  0  0  0  0  0  0  0  0  0  0
  -17.8691   -7.3407   23.2443 C   0  0  0  0  0  0  0  0  0  0  0  0
  -20.1193   -6.4680   23.3543 C   0  0  0  0  0  0  0  0  0  0  0  0
  -24.6263  -11.6604   20.7843 C   0  0  0  0  0  0  0  0  0  0  0  0
  -25.2458  -13.7567   20.5457 C   0  0  0  0  0  0  0  0  0  0  0  0
  -22.8066  -13.4643   21.0077 C   0  0  0  0  0  0  0  0  0  0  0  0
  -38.9702  -23.3777   24.6327 C   0  0  0  0  0  0  0  0  0  0  0  0
  -37.7057  -21.6116   22.4665 C   0  0  0  0  0  0  0  0  0  0  0  0
  -36.3056  -19.2138   20.4847 C   0  0  0  0  0  0  0  0  0  0  0  0
  -30.9944  -12.8361   21.5264 C   0  0  0  0  0  0  0  0  0  0  0  0
  -43.5793  -23.5559   22.4459 C   0  0  0  0  0  0  0  0  0  0  0  0
  -37.5157  -22.1551   26.2315 C   0  0  0  0  0  0  0  0  0  0  0  0
  -35.8366  -22.4384   23.9777 C   0  0  0  0  0  0  0  0  0  0  0  0
  -42.1350  -23.5945   21.9533 C   0  0  0  0  0  0  0  0  0  0  0  0
  -29.4879  -13.6300   18.3330 C   0  0  0  0  0  0  0  0  0  0  0  0
  -41.3245  -24.6080   22.7550 C   0  0  0  0  0  0  0  0  0  0  0  0
  -28.0127  -13.3358   18.6111 C   0  0  0  0  0  0  0  0  0  0  0  0
  -35.0452  -15.1424   22.9040 C   0  0  0  0  0  0  0  0  0  0  0  0
  -30.3944  -12.6258   19.0387 C   0  0  0  0  0  0  0  0  0  0  0  0
  -28.7053  -12.2352   20.7903 C   0  0  0  0  0  0  0  0  0  0  0  0
  -36.1315  -14.0867   22.7682 C   0  0  0  0  0  0  0  0  0  0  0  0
  -34.4449  -12.4091   21.9891 C   0  0  0  0  0  0  0  0  0  0  0  0
  -41.2761  -24.2257   24.2392 C   0  0  1  0  0  0  0  0  0  0  0  0
  -38.1701  -22.1252   24.8387 C   0  0  1  0  0  0  0  0  0  0  0  0
  -27.7378  -13.2295   20.1229 C   0  0  2  0  0  0  0  0  0  0  0  0
  -33.8709  -14.8825   21.9396 C   0  0  1  0  0  0  0  0  0  0  0  0
  -33.3283  -13.4435   22.1115 C   0  0  1  0  0  0  0  0  0  0  0  0
  -35.9849  -17.7552   18.4680 C   0  0  0  0  0  0  0  0  0  0  0  0
  -36.1888  -24.0361   21.4057 C   0  0  0  0  0  0  0  0  0  0  0  0
  -35.5132  -22.6587   19.4272 C   0  0  0  0  0  0  0  0  0  0  0  0
  -37.9258  -23.1298   19.8514 C   0  0  0  0  0  0  0  0  0  0  0  0
  -28.3675  -16.3107   23.1374 C   0  0  0  0  0  0  0  0  0  0  0  0
  -38.1930  -17.1790   21.5125 C   0  0  0  0  0  0  0  0  0  0  0  0
  -30.8161  -18.3104   25.2627 C   0  0  0  0  0  0  0  0  0  0  0  0
  -31.7924  -19.4653   25.0528 C   0  0  0  0  0  0  0  0  0  1  0  0
  -30.1997  -17.8009   23.9505 C   0  0  2  0  0  0  0  0  0  0  0  0
  -36.6979  -21.5055   21.3501 C   0  0  1  0  0  0  0  0  0  0  0  0
  -36.9275  -18.1546   19.5927 C   0  0  2  0  0  0  0  0  0  0  0  0
  -36.5753  -22.8239   20.5350 C   0  0  0  0  0  0  0  0  0  0  0  0
  -25.9394  -11.5965   20.5487 N   0  0  0  0  0  0  0  0  0  0  0  0
  -32.8002  -15.9505   22.0974 N   0  0  0  0  0  0  0  0  0  0  0  0
  -26.2873  -12.8869   20.4078 N   0  0  0  0  0  0  0  0  0  0  0  0
  -37.2339  -22.0682   23.7032 N   0  0  0  0  0  0  0  0  0  0  0  0
  -30.0944  -12.5867   20.4770 N   0  0  0  0  0  0  0  0  0  0  0  0
  -25.4195  -15.0908   20.4342 N   0  0  0  0  0  0  0  0  0  0  0  0
  -21.7887  -12.5316   21.2491 N   0  0  0  0  0  0  0  0  0  0  0  0
  -40.3230  -23.1583   24.4553 N   0  0  0  0  0  0  0  0  0  0  0  0
  -37.0893  -20.3461   20.5557 N   0  0  0  0  0  0  0  0  0  0  0  0
  -32.2917  -13.1553   21.1448 N   0  0  0  0  0  0  0  0  0  0  0  0
  -35.5292  -12.7361   22.9625 N   0  3  0  0  0  0  0  0  0  0  0  0
  -29.1297  -16.8124   24.3051 N   0  3  0  0  0  0  0  0  0  0  0  0
  -37.2551  -16.9364   20.3862 N   0  3  0  0  0  0  0  0  0  0  0  0
  -22.5235  -14.6857   20.9691 O   0  0  0  0  0  0  0  0  0  0  0  0
  -38.4030  -24.4639   24.6329 O   0  0  0  0  0  0  0  0  0  0  0  0
  -38.8811  -21.3042   22.2493 O   0  0  0  0  0  0  0  0  0  0  0  0
  -35.2302  -19.0543   21.0580 O   0  0  0  0  0  0  0  0  0  0  0  0
  -30.6647  -12.7835   22.7163 O   0  0  0  0  0  0  0  0  0  0  0  0
  -21.6879   -6.9732   21.5984 O   0  0  0  0  0  0  0  0  0  0  0  0
  -32.3401  -19.8668   26.3079 O   0  0  0  0  0  0  0  0  0  1  0  0
  -16.6442   -7.4605   23.7728 F   0  0  0  0  0  0  0  0  0  0  0  0
  -21.0513   -5.7476   23.9933 F   0  0  0  0  0  0  0  0  0  0  0  0
  1  2  1  0  0  0  0
  1  5  2  0  0  0  0
  2  6  2  0  0  0  0
  3  8  2  0  0  0  0
  3 18  1  0  0  0  0
  4  9  1  0  0  0  0
  4 18  2  0  0  0  0
  5 20  1  0  0  0  0
  6 22  1  0  0  0  0
  7 10  2  0  0  0  0
  7 21  1  0  0  0  0
  8 25  1  0  0  0  0
  9 25  2  0  0  0  0
 10 26  1  0  0  0  0
 11 12  2  0  0  0  0
 11 27  1  0  0  0  0
 12 28  1  0  0  0  0
 13 16  2  0  0  0  0
 13 24  1  0  0  0  0
 14 23  1  0  0  0  0
 14 26  2  0  0  0  0
 15 28  2  0  0  0  0
 15 29  1  0  0  0  0
 16 67  1  0  0  0  0
 17 24  2  0  0  0  0
 17 67  1  0  0  0  0
 18 30  1  0  0  0  0
 19 30  1  0  0  0  0
 19 31  2  0  0  0  0
 19 32  1  0  0  0  0
 20 22  2  0  0  0  0
 20 37  1  0  0  0  0
 21 23  2  0  0  0  0
 21 38  1  0  0  0  0
 22 49  1  0  0  0  0
 23 39  1  0  0  0  0
 24 62  1  0  0  0  0
 25 84  1  0  0  0  0
 26 85  1  0  0  0  0
 27 29  2  0  0  0  0
 27 84  1  0  0  0  0
 28 86  1  0  0  0  0
 29 87  1  0  0  0  0
 30 66  2  0  0  0  0
 31 68  1  0  0  0  0
 31 71  1  0  0  0  0
 32 72  1  0  0  0  0
 32 79  2  0  0  0  0
 33 50  1  0  0  0  0
 33 73  1  0  0  0  0
 33 80  2  0  0  0  0
 34 63  1  0  0  0  0
 34 69  1  0  0  0  0
 34 81  2  0  0  0  0
 35 64  1  0  0  0  0
 35 74  1  0  0  0  0
 35 82  2  0  0  0  0
 36 70  1  0  0  0  0
 36 75  1  0  0  0  0
 36 83  2  0  0  0  0
 37 40  1  0  0  0  0
 38 50  1  0  0  0  0
 39 69  1  0  0  0  0
 40 42  1  0  0  0  0
 41 43  1  0  0  0  0
 41 45  1  0  0  0  0
 42 49  1  0  0  0  0
 43 51  1  0  0  0  0
 44 47  1  0  0  0  0
 44 52  1  0  0  0  0
 45 70  1  0  0  0  0
 46 51  1  0  0  0  0
 46 70  1  0  0  0  0
 47 76  1  0  0  0  0
 48 53  1  0  0  0  0
 48 76  1  0  0  0  0
 49 73  1  0  0  0  0
 50 69  1  0  0  0  0
 51 68  1  0  0  0  0
 52 53  1  0  0  0  0
 52 67  1  0  0  0  0
 53 75  1  0  0  0  0
 54 64  1  0  0  0  0
 55 65  1  0  0  0  0
 56 65  1  0  0  0  0
 57 65  1  0  0  0  0
 58 77  1  0  0  0  0
 59 78  1  0  0  0  0
 60 61  1  0  0  0  0
 60 62  1  0  0  0  0
 61 85  1  0  0  0  0
 62 77  1  0  0  0  0
 63 65  1  0  0  0  0
 63 74  1  0  0  0  0
 64 78  1  0  0  0  0
 66 68  1  0  0  0  0
M  CHG  3  76   1  77   1  78   1
M  ISO  4  36 100  61 101  75 100  85 101
M  END
> <Batch ID>
0121

> <Smiles>
CNC(C)C(=O)NC(C(=O)N1Cc2cc([101O:1][101CH2:1]CC(NC)c3ccn(C4CCNCC4[100NH:0][100C:0](=O)N4CCCC(n5nc(-c6ccc(Oc7ccc(F)cc7F)cc6)c(C(N)=O)c5N)C4)c3)ccc2CC1C(=O)NC1CCCc2ccccc21)C(C)(C)C

> <Shape>
0.137

> <Color>
0.163

> <Negative vol penalty>
0.000

$$$$

  -OEChem-04052320253D

 87 96  0     1  0  0  0  0  0999 V2000
  -26.4960  -33.0788   28.1863 C   0  0  0  0  0  0  0  0  0  0  0  0
  -27.0283  -32.1710   27.2764 C   0  0  0  0  0  0  0  0  0  0  0  0
  -23.1440  -10.0844   22.2705 C   0  0  0  0  0  0  0  0  0  0  0  0
  -24.2576  -11.4856   23.8933 C   0  0  0  0  0  0  0  0  0  0  0  0
  -25.1135  -33.1967   28.3239 C   0  0  0  0  0  0  0  0  0  0  0  0
  -26.1785  -31.3798   26.5043 C   0  0  0  0  0  0  0  0  0  0  0  0
  -27.1007  -29.5255   20.7408 C   0  0  0  0  0  0  0  0  0  0  0  0
  -22.4979   -9.4032   23.3021 C   0  0  0  0  0  0  0  0  0  0  0  0
  -23.6114  -10.8045   24.9249 C   0  0  0  0  0  0  0  0  0  0  0  0
  -27.5745  -28.3288   20.2050 C   0  0  0  0  0  0  0  0  0  0  0  0
  -23.2466   -6.9847   25.5414 C   0  0  0  0  0  0  0  0  0  0  0  0
  -23.2063   -5.5922   25.4719 C   0  0  0  0  0  0  0  0  0  0  0  0
  -31.4970  -18.6215   17.1278 C   0  0  0  0  0  0  0  0  0  0  0  0
  -25.3038  -27.5774   19.8909 C   0  0  0  0  0  0  0  0  0  0  0  0
  -29.8462  -17.4356   18.4135 C   0  0  0  0  0  0  0  0  0  0  0  0
  -20.7913   -5.6630   25.4550 C   0  0  0  0  0  0  0  0  0  0  0  0
  -32.1344  -17.4078   16.9272 C   0  0  0  0  0  0  0  0  0  0  0  0
  -24.0239  -11.1256   22.5662 C   0  0  0  0  0  0  0  0  0  0  0  0
  -24.2370  -12.9761   20.8233 C   0  0  0  0  0  0  0  0  0  0  0  0
  -24.2462  -32.4134   27.5462 C   0  0  0  0  0  0  0  0  0  0  0  0
  -25.7227  -29.7531   20.8660 C   0  0  0  0  0  0  0  0  0  0  0  0
  -24.7832  -31.4864   26.6325 C   0  0  0  0  0  0  0  0  0  0  0  0
  -30.3317  -18.6271   17.8863 C   0  0  0  0  0  0  0  0  0  0  0  0
  -24.8151  -28.7789   20.4263 C   0  0  0  0  0  0  0  0  0  0  0  0
  -22.7315   -9.7632   24.6293 C   0  0  0  0  0  0  0  0  0  0  0  0
  -26.6761  -27.3533   19.7826 C   0  0  0  0  0  0  0  0  0  0  0  0
  -22.0593   -7.7164   25.5678 C   0  0  0  0  0  0  0  0  0  0  0  0
  -21.9787   -4.9313   25.4287 C   0  0  0  0  0  0  0  0  0  0  0  0
  -20.8317   -7.0555   25.5246 C   0  0  0  0  0  0  0  0  0  0  0  0
  -24.6921  -11.8292   21.5011 C   0  0  0  0  0  0  0  0  0  0  0  0
  -30.5574  -16.2749   18.1552 C   0  0  0  0  0  0  0  0  0  0  0  0
  -25.2255  -13.2499   19.9098 C   0  0  0  0  0  0  0  0  0  0  0  0
  -23.0289  -13.7269   21.0034 C   0  0  0  0  0  0  0  0  0  0  0  0
  -23.7464  -30.2683   23.3017 C   0  0  0  0  0  0  0  0  0  0  0  0
  -21.5824  -30.7586   20.9355 C   0  0  0  0  0  0  0  0  0  0  0  0
  -20.6442  -30.1898   17.7040 C   0  0  0  0  0  0  0  0  0  0  0  0
  -30.6018  -13.7897   18.5655 C   0  0  0  0  0  0  0  0  0  0  0  0
  -22.7594  -32.5424   27.7640 C   0  0  0  0  0  0  0  0  0  0  0  0
  -25.2274  -31.0602   21.4215 C   0  0  0  0  0  0  0  0  0  0  0  0
  -23.3257  -28.9827   20.5203 C   0  0  0  0  0  0  0  0  0  0  0  0
  -21.9242  -31.9346   26.6401 C   0  0  0  0  0  0  0  0  0  0  0  0
  -29.2267  -10.5070   18.4645 C   0  0  0  0  0  0  0  0  0  0  0  0
  -22.4506  -30.5510   26.2721 C   0  0  0  0  0  0  0  0  0  0  0  0
  -27.8869  -10.6527   19.1898 C   0  0  0  0  0  0  0  0  0  0  0  0
  -28.1855  -19.8377   17.5460 C   0  0  0  0  0  0  0  0  0  0  0  0
  -29.5502  -20.2079   19.6406 C   0  0  0  0  0  0  0  0  0  0  0  0
  -30.3107  -11.3794   19.0951 C   0  0  0  0  0  0  0  0  0  0  0  0
  -28.6189  -12.9431   19.9680 C   0  0  0  0  0  0  0  0  0  0  0  0
  -27.3888  -21.0990   17.8538 C   0  0  0  0  0  0  0  0  0  0  0  0
  -28.7433  -21.4666   19.9322 C   0  0  0  0  0  0  0  0  0  0  0  0
  -29.6042  -19.9092   18.1337 C   0  0  0  0  0  0  0  0  0  0  0  0
  -23.8937  -30.6282   25.7593 C   0  0  1  0  0  0  0  0  0  0  0  0
  -23.8091  -30.9744   21.9769 C   0  0  1  0  0  0  0  0  0  0  0  0
  -27.4794  -12.1327   19.3289 C   0  0  2  0  0  0  0  0  0  0  0  0
  -18.8075  -30.6900   16.0689 C   0  0  0  0  0  0  0  0  0  0  0  0
  -26.0614  -22.3152   21.1701 C   0  0  0  0  0  0  0  0  0  0  0  0
  -19.8040  -28.6913   22.3045 C   0  0  0  0  0  0  0  0  0  0  0  0
  -18.4749  -28.5359   20.1885 C   0  0  0  0  0  0  0  0  0  0  0  0
  -18.5909  -30.6961   21.4307 C   0  0  0  0  0  0  0  0  0  0  0  0
  -22.4951  -31.6076   15.8811 C   0  0  0  0  0  0  0  0  0  0  0  0
  -27.2308  -23.7983   19.4928 C   0  0  0  0  0  0  0  0  0  0  0  0
  -26.3259  -25.0247   19.4498 C   0  0  0  0  0  0  0  0  0  1  0  0
  -20.6233  -29.8831   20.1657 C   0  0  1  0  0  0  0  0  0  0  0  0
  -20.1563  -31.1298   16.6164 C   0  0  2  0  0  0  0  0  0  0  0  0
  -26.4781  -22.4850   19.7152 C   0  0  1  0  0  0  0  0  0  0  0  0
  -19.4013  -29.4467   21.0222 C   0  0  0  0  0  0  0  0  0  0  0  0
  -31.6930  -16.2301   17.4231 N   0  0  0  0  0  0  0  0  0  0  0  0
  -25.8773  -11.4036   21.0560 N   0  0  0  0  0  0  0  0  0  0  0  0
  -26.1754  -12.2877   20.0888 N   0  0  0  0  0  0  0  0  0  0  0  0
  -22.8908  -30.2747   21.0763 N   0  0  0  0  0  0  0  0  0  0  0  0
  -29.8559  -12.7682   19.1906 N   0  0  0  0  0  0  0  0  0  0  0  0
  -25.3661  -14.2175   18.9789 N   0  0  0  0  0  0  0  0  0  0  0  0
  -22.1221  -13.3078   21.9864 N   0  0  0  0  0  0  0  0  0  0  0  0
  -30.0547  -15.0657   18.6965 N   0  0  0  0  0  0  0  0  0  0  0  0
  -23.9194  -31.1002   24.3914 N   0  0  0  0  0  0  0  0  0  0  0  0
  -20.2730  -30.6242   18.9589 N   0  0  0  0  0  0  0  0  0  0  0  0
  -27.3504  -21.3341   19.3503 N   0  3  0  0  0  0  0  0  0  0  0  0
  -21.1310  -31.1685   15.4896 N   0  3  0  0  0  0  0  0  0  0  0  0
  -22.7538  -14.7298   20.3019 O   0  0  0  0  0  0  0  0  0  0  0  0
  -23.5538  -29.0585   23.3331 O   0  0  0  0  0  0  0  0  0  0  0  0
  -21.1872  -31.8355   21.3890 O   0  0  0  0  0  0  0  0  0  0  0  0
  -21.2868  -29.1700   17.4640 O   0  0  0  0  0  0  0  0  0  0  0  0
  -31.6343  -13.5466   17.9355 O   0  0  0  0  0  0  0  0  0  0  0  0
  -22.1010   -9.0989   25.6361 O   0  0  0  0  0  0  0  0  0  0  0  0
  -27.1358  -26.1841   19.2598 O   0  0  0  0  0  0  0  0  0  1  0  0
  -21.9401   -3.5942   25.3604 F   0  0  0  0  0  0  0  0  0  0  0  0
  -19.6877   -7.7531   25.5484 F   0  0  0  0  0  0  0  0  0  0  0  0
  1  2  1  0  0  0  0
  1  5  2  0  0  0  0
  2  6  2  0  0  0  0
  3  8  2  0  0  0  0
  3 18  1  0  0  0  0
  4  9  1  0  0  0  0
  4 18  2  0  0  0  0
  5 20  1  0  0  0  0
  6 22  1  0  0  0  0
  7 10  2  0  0  0  0
  7 21  1  0  0  0  0
  8 25  1  0  0  0  0
  9 25  2  0  0  0  0
 10 26  1  0  0  0  0
 11 12  2  0  0  0  0
 11 27  1  0  0  0  0
 12 28  1  0  0  0  0
 13 17  2  0  0  0  0
 13 23  1  0  0  0  0
 14 24  1  0  0  0  0
 14 26  2  0  0  0  0
 15 23  2  0  0  0  0
 15 31  1  0  0  0  0
 16 28  2  0  0  0  0
 16 29  1  0  0  0  0
 17 67  1  0  0  0  0
 18 30  1  0  0  0  0
 19 30  1  0  0  0  0
 19 32  2  0  0  0  0
 19 33  1  0  0  0  0
 20 22  2  0  0  0  0
 20 38  1  0  0  0  0
 21 24  2  0  0  0  0
 21 39  1  0  0  0  0
 22 52  1  0  0  0  0
 23 51  1  0  0  0  0
 24 40  1  0  0  0  0
 25 84  1  0  0  0  0
 26 85  1  0  0  0  0
 27 29  2  0  0  0  0
 27 84  1  0  0  0  0
 28 86  1  0  0  0  0
 29 87  1  0  0  0  0
 30 68  2  0  0  0  0
 31 67  2  0  0  0  0
 31 74  1  0  0  0  0
 32 69  1  0  0  0  0
 32 72  1  0  0  0  0
 33 73  1  0  0  0  0
 33 79  2  0  0  0  0
 34 53  1  0  0  0  0
 34 75  1  0  0  0  0
 34 80  2  0  0  0  0
 35 63  1  0  0  0  0
 35 70  1  0  0  0  0
 35 81  2  0  0  0  0
 36 64  1  0  0  0  0
 36 76  1  0  0  0  0
 36 82  2  0  0  0  0
 37 71  1  0  0  0  0
 37 74  1  0  0  0  0
 37 83  2  0  0  0  0
 38 41  1  0  0  0  0
 39 53  1  0  0  0  0
 40 70  1  0  0  0  0
 41 43  1  0  0  0  0
 42 44  1  0  0  0  0
 42 47  1  0  0  0  0
 43 52  1  0  0  0  0
 44 54  1  0  0  0  0
 45 49  1  0  0  0  0
 45 51  1  0  0  0  0
 46 50  1  0  0  0  0
 46 51  1  0  0  0  0
 47 71  1  0  0  0  0
 48 54  1  0  0  0  0
 48 71  1  0  0  0  0
 49 77  1  0  0  0  0
 50 77  1  0  0  0  0
 52 75  1  0  0  0  0
 53 70  1  0  0  0  0
 54 69  1  0  0  0  0
 55 64  1  0  0  0  0
 56 65  1  0  0  0  0
 57 66  1  0  0  0  0
 58 66  1  0  0  0  0
 59 66  1  0  0  0  0
 60 78  1  0  0  0  0
 61 62  1  0  0  0  0
 61 65  1  0  0  0  0
 62 85  1  0  0  0  0
 63 66  1  0  0  0  0
 63 76  1  0  0  0  0
 64 78  1  0  0  0  0
 65 77  1  0  0  0  0
 68 69  1  0  0  0  0
M  CHG  2  77   1  78   1
M  ISO  4  37 100  62 101  74 100  85 101
M  END
> <Batch ID>
0121

> <Smiles>
CNC(C)C(=O)NC(C(=O)N1Cc2cc([101O:1][101CH2:1]CC(C)N3CCC(c4ccnc([100NH:0][100C:0](=O)N5CCCC(n6nc(-c7ccc(Oc8ccc(F)cc8F)cc7)c(C(N)=O)c6N)C5)c4)CC3)ccc2CC1C(=O)NC1CCCc2ccccc21)C(C)(C)C

> <Shape>
0.259

> <Color>
0.121

> <Negative vol penalty>
0.000

$$$$

  -OEChem-04052320253D

 91102  0     1  0  0  0  0  0999 V2000
  -24.6791  -35.4005   27.5515 C   0  0  0  0  0  0  0  0  0  0  0  0
  -25.6138  -35.0665   26.5767 C   0  0  0  0  0  0  0  0  0  0  0  0
  -25.7688  -13.7992   20.4631 C   0  0  0  0  0  0  0  0  0  0  0  0
  -25.9828  -11.3998   20.2785 C   0  0  0  0  0  0  0  0  0  0  0  0
  -23.7799  -34.4396   28.0118 C   0  0  0  0  0  0  0  0  0  0  0  0
  -25.6504  -33.7710   26.0623 C   0  0  0  0  0  0  0  0  0  0  0  0
  -27.0738  -30.2032   20.0157 C   0  0  0  0  0  0  0  0  0  0  0  0
  -28.7396  -24.2657   17.5852 C   0  0  0  0  0  0  0  0  0  0  0  0
  -29.4100  -23.7400   19.8460 C   0  0  0  0  0  0  0  0  0  0  0  0
  -29.6463  -23.3247   17.0974 C   0  0  0  0  0  0  0  0  0  0  0  0
  -30.3167  -22.7989   19.3582 C   0  0  0  0  0  0  0  0  0  0  0  0
  -24.3937  -13.6620   20.6525 C   0  0  0  0  0  0  0  0  0  0  0  0
  -24.6077  -11.2626   20.4679 C   0  0  0  0  0  0  0  0  0  0  0  0
  -27.8473  -29.1417   19.5481 C   0  0  0  0  0  0  0  0  0  0  0  0
  -20.8791  -13.9205   21.5446 C   0  0  0  0  0  0  0  0  0  0  0  0
  -20.2865  -14.6698   22.5609 C   0  0  0  0  0  0  0  0  0  0  0  0
  -26.1930  -27.5858   20.3614 C   0  0  0  0  0  0  0  0  0  0  0  0
  -21.7027  -13.5823   24.1884 C   0  0  0  0  0  0  0  0  0  0  0  0
  -26.5634  -12.6681   20.2761 C   0  0  0  0  0  0  0  0  0  0  0  0
  -28.9820  -12.8216   21.0724 C   0  0  0  0  0  0  0  0  0  0  0  0
  -23.7992  -33.1342   27.4958 C   0  0  0  0  0  0  0  0  0  0  0  0
  -25.8572  -29.9630   20.6705 C   0  0  0  0  0  0  0  0  0  0  0  0
  -24.7514  -32.7913   26.5170 C   0  0  0  0  0  0  0  0  0  0  0  0
  -25.4046  -28.6460   20.8341 C   0  0  0  0  0  0  0  0  0  0  0  0
  -28.6214  -24.4734   18.9594 C   0  0  0  0  0  0  0  0  0  0  0  0
  -30.4349  -22.5913   17.9839 C   0  0  0  0  0  0  0  0  0  0  0  0
  -23.8132  -12.3937   20.6549 C   0  0  0  0  0  0  0  0  0  0  0  0
  -27.4084  -27.8326   19.7235 C   0  0  0  0  0  0  0  0  0  0  0  0
  -21.8835  -13.0020   21.8501 C   0  0  0  0  0  0  0  0  0  0  0  0
  -20.6983  -14.5008   23.8828 C   0  0  0  0  0  0  0  0  0  0  0  0
  -22.2953  -12.8330   23.1721 C   0  0  0  0  0  0  0  0  0  0  0  0
  -27.9838  -12.8092   20.0798 C   0  0  0  0  0  0  0  0  0  0  0  0
  -30.1559  -12.9790   20.3769 C   0  0  0  0  0  0  0  0  0  0  0  0
  -28.8592  -12.7016   22.4959 C   0  0  0  0  0  0  0  0  0  0  0  0
  -24.7234  -30.5467   23.5821 C   0  0  0  0  0  0  0  0  0  0  0  0
  -21.9613  -29.4189   22.3088 C   0  0  0  0  0  0  0  0  0  0  0  0
  -20.4373  -27.5012   19.9326 C   0  0  0  0  0  0  0  0  0  0  0  0
  -29.3749  -16.5080   16.9803 C   0  0  0  0  0  0  0  0  0  0  0  0
  -22.8383  -32.1169   28.0585 C   0  0  0  0  0  0  0  0  0  0  0  0
  -25.0216  -31.1201   21.1452 C   0  0  0  0  0  0  0  0  0  0  0  0
  -24.0962  -28.3356   21.5123 C   0  0  0  0  0  0  0  0  0  0  0  0
  -22.6972  -30.8680   27.1922 C   0  0  0  0  0  0  0  0  0  0  0  0
  -29.2268  -13.2033   15.7924 C   0  0  0  0  0  0  0  0  0  0  0  0
  -24.0694  -30.3582   26.7631 C   0  0  0  0  0  0  0  0  0  0  0  0
  -30.2458  -12.4399   16.6340 C   0  0  0  0  0  0  0  0  0  0  0  0
  -28.4125  -17.7390   23.0619 C   0  0  0  0  0  0  0  0  0  0  0  0
  -27.2671  -17.3535   20.7211 C   0  0  0  0  0  0  0  0  0  0  0  0
  -29.7369  -14.5962   15.4527 C   0  0  0  0  0  0  0  0  0  0  0  0
  -31.5011  -17.7462   17.5714 C   0  0  0  0  0  0  0  0  0  0  0  0
  -31.0736  -14.6939   17.5389 C   0  0  0  0  0  0  0  0  0  0  0  0
  -31.7958  -19.1429   17.0405 C   0  0  0  0  0  0  0  0  0  0  0  0
  -29.5919  -19.9307   17.9016 C   0  0  0  0  0  0  0  0  0  0  0  0
  -24.8062  -31.4032   25.9167 C   0  0  1  0  0  0  0  0  0  0  0  0
  -24.0465  -30.7376   22.2543 C   0  0  1  0  0  0  0  0  0  0  0  0
  -27.4853  -17.0112   22.1441 C   0  0  1  0  0  0  0  0  0  0  0  0
  -28.9618  -16.9242   21.9334 C   0  0  1  0  0  0  0  0  0  0  0  0
  -28.7901  -17.1895   20.4784 C   0  0  2  0  0  0  0  0  0  0  0  0
  -30.7316  -13.2229   17.8663 C   0  0  1  0  0  0  0  0  0  0  0  0
  -29.2851  -18.5269   18.4255 C   0  0  2  0  0  0  0  0  0  0  0  0
  -32.8539  -21.8641   17.8745 C   0  0  0  0  0  0  0  0  0  0  0  0
  -18.1700  -26.7437   19.1689 C   0  0  0  0  0  0  0  0  0  0  0  0
  -21.8352  -27.4543   24.6399 C   0  0  0  0  0  0  0  0  0  0  0  0
  -20.1413  -26.1386   23.3486 C   0  0  0  0  0  0  0  0  0  0  0  0
  -19.6417  -28.4868   24.0260 C   0  0  0  0  0  0  0  0  0  0  0  0
  -20.7785  -28.7701   17.2807 C   0  0  0  0  0  0  0  0  0  0  0  0
  -27.6522  -25.4793   19.4817 C   0  0  0  0  0  0  0  0  0  1  0  0
  -29.5107  -18.3958   19.9348 C   0  0  0  0  0  0  0  0  0  0  0  0
  -31.4158  -21.5707   17.4547 C   0  0  1  0  0  0  0  0  0  0  0  0
  -21.3191  -28.0585   22.1834 C   0  0  1  0  0  0  0  0  0  0  0  0
  -19.2672  -27.7844   19.0078 C   0  0  2  0  0  0  0  0  0  0  0  0
  -20.7600  -27.5400   23.5384 C   0  0  0  0  0  0  0  0  0  0  0  0
  -28.4802  -12.9478   18.8476 N   0  0  0  0  0  0  0  0  0  0  0  0
  -29.8032  -13.0489   19.0613 N   0  0  0  0  0  0  0  0  0  0  0  0
  -23.3181  -29.5007   21.9647 N   0  0  0  0  0  0  0  0  0  0  0  0
  -30.0919  -15.3440   16.6577 N   0  0  0  0  0  0  0  0  0  0  0  0
  -30.0563  -17.5049   17.6966 N   0  0  0  0  0  0  0  0  0  0  0  0
  -31.4451  -13.0632   20.7685 N   0  0  0  0  0  0  0  0  0  0  0  0
  -27.5792  -12.5459   23.0452 N   0  0  0  0  0  0  0  0  0  0  0  0
  -24.2888  -31.4151   24.5652 N   0  0  0  0  0  0  0  0  0  0  0  0
  -20.3173  -28.1756   21.1292 N   0  0  0  0  0  0  0  0  0  0  0  0
  -31.0812  -20.1682   17.8821 N   0  3  2  0  0  0  0  0  0  0  0  0
  -19.7165  -27.7775   17.5869 N   0  3  0  0  0  0  0  0  0  0  0  0
  -29.8534  -12.7479   23.2593 O   0  0  0  0  0  0  0  0  0  0  0  0
  -25.5759  -29.6751   23.7059 O   0  0  0  0  0  0  0  0  0  0  0  0
  -21.2824  -30.3753   22.6909 O   0  0  0  0  0  0  0  0  0  0  0  0
  -21.3631  -26.7534   19.6256 O   0  0  0  0  0  0  0  0  0  0  0  0
  -28.1866  -16.6414   16.6611 O   0  0  0  0  0  0  0  0  0  0  0  0
  -22.4714  -12.2594   20.8399 O   0  0  0  0  0  0  0  0  0  0  0  0
  -28.1670  -26.7875   19.2655 O   0  0  0  0  0  0  0  0  0  1  0  0
  -20.1302  -15.2215   24.8585 F   0  0  0  0  0  0  0  0  0  0  0  0
  -23.2606  -11.9530   23.4716 F   0  0  0  0  0  0  0  0  0  0  0  0
  1  2  1  0  0  0  0
  1  5  2  0  0  0  0
  2  6  2  0  0  0  0
  3 12  2  0  0  0  0
  3 19  1  0  0  0  0
  4 13  1  0  0  0  0
  4 19  2  0  0  0  0
  5 21  1  0  0  0  0
  6 23  1  0  0  0  0
  7 14  2  0  0  0  0
  7 22  1  0  0  0  0
  8 10  2  0  0  0  0
  8 25  1  0  0  0  0
  9 11  1  0  0  0  0
  9 25  2  0  0  0  0
 10 26  1  0  0  0  0
 11 26  2  0  0  0  0
 12 27  1  0  0  0  0
 13 27  2  0  0  0  0
 14 28  1  0  0  0  0
 15 16  2  0  0  0  0
 15 29  1  0  0  0  0
 16 30  1  0  0  0  0
 17 24  1  0  0  0  0
 17 28  2  0  0  0  0
 18 30  2  0  0  0  0
 18 31  1  0  0  0  0
 19 32  1  0  0  0  0
 20 32  1  0  0  0  0
 20 33  2  0  0  0  0
 20 34  1  0  0  0  0
 21 23  2  0  0  0  0
 21 39  1  0  0  0  0
 22 24  2  0  0  0  0
 22 40  1  0  0  0  0
 23 53  1  0  0  0  0
 24 41  1  0  0  0  0
 25 66  1  0  0  0  0
 26 68  1  0  0  0  0
 27 88  1  0  0  0  0
 28 89  1  0  0  0  0
 29 31  2  0  0  0  0
 29 88  1  0  0  0  0
 30 90  1  0  0  0  0
 31 91  1  0  0  0  0
 32 72  2  0  0  0  0
 33 73  1  0  0  0  0
 33 77  1  0  0  0  0
 34 78  1  0  0  0  0
 34 83  2  0  0  0  0
 35 54  1  0  0  0  0
 35 79  1  0  0  0  0
 35 84  2  0  0  0  0
 36 69  1  0  0  0  0
 36 74  1  0  0  0  0
 36 85  2  0  0  0  0
 37 70  1  0  0  0  0
 37 80  1  0  0  0  0
 37 86  2  0  0  0  0
 38 75  1  0  0  0  0
 38 76  1  0  0  0  0
 38 87  2  0  0  0  0
 39 42  1  0  0  0  0
 40 54  1  0  0  0  0
 41 74  1  0  0  0  0
 42 44  1  0  0  0  0
 43 45  1  0  0  0  0
 43 48  1  0  0  0  0
 44 53  1  0  0  0  0
 45 58  1  0  0  0  0
 46 55  1  0  0  0  0
 46 56  1  0  0  0  0
 47 55  1  0  0  0  0
 47 57  1  0  0  0  0
 48 75  1  0  0  0  0
 49 51  1  0  0  0  0
 49 76  1  0  0  0  0
 50 58  1  0  0  0  0
 50 75  1  0  0  0  0
 51 81  1  0  0  0  0
 52 59  1  0  0  0  0
 52 81  1  0  0  0  0
 53 79  1  0  0  0  0
 54 74  1  0  0  0  0
 55 56  1  0  0  0  0
 56 57  1  0  0  0  0
 57 67  1  0  0  0  0
 58 73  1  0  0  0  0
 59 67  1  0  0  0  0
 59 76  1  0  0  0  0
 60 68  1  0  0  0  0
 61 70  1  0  0  0  0
 62 71  1  0  0  0  0
 63 71  1  0  0  0  0
 64 71  1  0  0  0  0
 65 82  1  0  0  0  0
 66 89  1  0  0  0  0
 68 81  1  0  0  0  0
 69 71  1  0  0  0  0
 69 80  1  0  0  0  0
 70 82  1  0  0  0  0
 72 73  1  0  0  0  0
M  CHG  2  81   1  82   1
M  ISO  4  38 100  66 101  76 100  89 101
M  END
> <Batch ID>
0121

> <Smiles>
CNC(C)C(=O)NC(C(=O)N1Cc2cc([101O:1][101CH2:1]c3ccc(C(C)N4CC[100N:0]([100C:0](=O)N5CCCC(n6nc(-c7ccc(Oc8ccc(F)cc8F)cc7)c(C(N)=O)c6N)C5)C(CC5CC6CC65)C4)cc3)ccc2CC1C(=O)NC1CCCc2ccccc21)C(C)(C)C

> <Shape>
0.305

> <Color>
0.065

> <Negative vol penalty>
0.000

$$$$

  -OEChem-04052320253D

 89 98  0     1  0  0  0  0  0999 V2000
  -30.5394  -34.8628   18.4573 C   0  0  0  0  0  0  0  0  0  0  0  0
  -30.4670  -33.4805   18.5961 C   0  0  0  0  0  0  0  0  0  0  0  0
  -22.7461  -10.1884   20.1442 C   0  0  0  0  0  0  0  0  0  0  0  0
  -24.3849   -9.5342   21.7945 C   0  0  0  0  0  0  0  0  0  0  0  0
  -29.8136  -35.6875   19.3157 C   0  0  0  0  0  0  0  0  0  0  0  0
  -29.6694  -32.9220   19.5944 C   0  0  0  0  0  0  0  0  0  0  0  0
  -26.5023  -27.6898   19.2795 C   0  0  0  0  0  0  0  0  0  0  0  0
  -22.0536   -8.9968   20.3594 C   0  0  0  0  0  0  0  0  0  0  0  0
  -23.6924   -8.3426   22.0098 C   0  0  0  0  0  0  0  0  0  0  0  0
  -26.7738  -26.4002   19.7346 C   0  0  0  0  0  0  0  0  0  0  0  0
  -20.9400   -7.3318   23.6898 C   0  0  0  0  0  0  0  0  0  0  0  0
  -20.7376   -6.9311   25.0105 C   0  0  0  0  0  0  0  0  0  0  0  0
  -25.4947  -26.8423   21.7316 C   0  0  0  0  0  0  0  0  0  0  0  0
  -21.9563   -4.8903   24.5781 C   0  0  0  0  0  0  0  0  0  0  0  0
  -23.9117  -10.4571   20.8617 C   0  0  0  0  0  0  0  0  0  0  0  0
  -24.1434  -12.9972   20.8184 C   0  0  0  0  0  0  0  0  0  0  0  0
  -28.9992  -35.1387   20.3188 C   0  0  0  0  0  0  0  0  0  0  0  0
  -25.7329  -28.5704   20.0533 C   0  0  0  0  0  0  0  0  0  0  0  0
  -28.9331  -33.7402   20.4679 C   0  0  0  0  0  0  0  0  0  0  0  0
  -25.2128  -28.1416   21.2829 C   0  0  0  0  0  0  0  0  0  0  0  0
  -22.5268   -8.0740   21.2922 C   0  0  0  0  0  0  0  0  0  0  0  0
  -26.2724  -25.9772   20.9621 C   0  0  0  0  0  0  0  0  0  0  0  0
  -21.6505   -6.5117   22.8133 C   0  0  0  0  0  0  0  0  0  0  0  0
  -21.2457   -5.7104   25.4546 C   0  0  0  0  0  0  0  0  0  0  0  0
  -22.1586   -5.2910   23.2574 C   0  0  0  0  0  0  0  0  0  0  0  0
  -24.6278  -11.6875   20.6394 C   0  0  0  0  0  0  0  0  0  0  0  0
  -25.2011  -13.8041   20.4767 C   0  0  0  0  0  0  0  0  0  0  0  0
  -22.8529  -13.4443   21.2547 C   0  0  0  0  0  0  0  0  0  0  0  0
  -26.2558  -31.3846   21.4356 C   0  0  0  0  0  0  0  0  0  0  0  0
  -23.0832  -31.2144   22.0896 C   0  0  0  0  0  0  0  0  0  0  0  0
  -20.3182  -29.2652   22.5392 C   0  0  0  0  0  0  0  0  0  0  0  0
  -30.7778  -14.7204   21.1253 C   0  0  0  0  0  0  0  0  0  0  0  0
  -28.2702  -36.0715   21.2532 C   0  0  0  0  0  0  0  0  0  0  0  0
  -25.4267  -29.9492   19.5361 C   0  0  0  0  0  0  0  0  0  0  0  0
  -24.3644  -29.0416   22.1423 C   0  0  0  0  0  0  0  0  0  0  0  0
  -27.1558  -35.3921   22.0451 C   0  0  0  0  0  0  0  0  0  0  0  0
  -29.5922  -12.7332   18.2294 C   0  0  0  0  0  0  0  0  0  0  0  0
  -27.6459  -34.0718   22.6310 C   0  0  0  0  0  0  0  0  0  0  0  0
  -29.9086  -23.1177   21.8799 C   0  0  0  0  0  0  0  0  0  0  0  0
  -28.7846  -22.1246   19.8436 C   0  0  0  0  0  0  0  0  0  0  0  0
  -28.1817  -12.3336   18.6586 C   0  0  0  0  0  0  0  0  0  0  0  0
  -28.6145  -23.8434   22.2356 C   0  0  0  0  0  0  0  0  0  0  0  0
  -27.4938  -22.8536   20.2047 C   0  0  0  0  0  0  0  0  0  0  0  0
  -31.4866  -18.1029   21.4309 C   0  0  0  0  0  0  0  0  0  0  0  0
  -29.3662  -17.7799   20.0960 C   0  0  0  0  0  0  0  0  0  0  0  0
  -30.5100  -12.9480   19.4287 C   0  0  0  0  0  0  0  0  0  0  0  0
  -31.1011  -16.8907   22.2745 C   0  0  0  0  0  0  0  0  0  0  0  0
  -29.0350  -16.5539   20.9520 C   0  0  0  0  0  0  0  0  0  0  0  0
  -28.5701  -13.5249   20.8522 C   0  0  0  0  0  0  0  0  0  0  0  0
  -28.0597  -33.0961   21.5227 C   0  0  1  0  0  0  0  0  0  0  0  0
  -25.0619  -30.9349   20.6418 C   0  0  1  0  0  0  0  0  0  0  0  0
  -29.6358  -21.8319   21.0870 C   0  0  0  0  0  0  0  0  0  0  0  0
  -27.6094  -13.3444   19.6672 C   0  0  2  0  0  0  0  0  0  0  0  0
  -30.2343  -18.7716   20.8675 C   0  0  0  0  0  0  0  0  0  0  0  0
  -27.7694  -24.1296   20.9973 C   0  0  0  0  0  0  0  0  0  1  0  0
  -17.8767  -29.4091   23.1010 C   0  0  0  0  0  0  0  0  0  0  0  0
  -30.3439  -18.9905   16.3195 C   0  0  0  0  0  0  0  0  0  0  0  0
  -30.7944  -21.3906   15.7720 C   0  0  0  0  0  0  0  0  0  0  0  0
  -23.7882  -31.7001   25.0182 C   0  0  0  0  0  0  0  0  0  0  0  0
  -21.4967  -30.8987   25.6305 C   0  0  0  0  0  0  0  0  0  0  0  0
  -21.7671  -32.9337   24.2133 C   0  0  0  0  0  0  0  0  0  0  0  0
  -19.5329  -28.0646   19.9506 C   0  0  0  0  0  0  0  0  0  0  0  0
  -30.9462  -21.1515   20.6955 C   0  0  0  0  0  0  0  0  0  0  0  0
  -31.8393  -20.4013   17.8315 C   0  0  0  0  0  0  0  0  0  0  0  0
  -31.7778  -19.4812   19.0465 C   0  0  0  0  0  0  0  0  0  0  0  0
  -22.2533  -30.6594   23.2219 C   0  0  1  0  0  0  0  0  0  0  0  0
  -18.9090  -29.3726   21.9849 C   0  0  2  0  0  0  0  0  0  0  0  0
  -30.6070  -20.3780   16.9056 C   0  0  0  0  0  0  0  0  0  0  0  0
  -22.3439  -31.5314   24.5059 C   0  0  0  0  0  0  0  0  0  0  0  0
  -25.8944  -11.6595   20.2166 N   0  0  0  0  0  0  0  0  0  0  0  0
  -26.2150  -12.9615   20.1270 N   0  0  0  0  0  0  0  0  0  0  0  0
  -24.0982  -30.3826   21.5960 N   0  0  0  0  0  0  0  0  0  0  0  0
  -29.9239  -13.8758   20.3963 N   0  0  0  0  0  0  0  0  0  0  0  0
  -30.2591  -15.9647   21.5146 N   0  0  0  0  0  0  0  0  0  0  0  0
  -25.3534  -15.1450   20.4441 N   0  0  0  0  0  0  0  0  0  0  0  0
  -22.6412  -13.6371   22.6267 N   0  0  0  0  0  0  0  0  0  0  0  0
  -26.8911  -32.4960   20.9154 N   0  0  0  0  0  0  0  0  0  0  0  0
  -20.9002  -30.5050   22.6987 N   0  0  0  0  0  0  0  0  0  0  0  0
  -18.6085  -28.2083   21.1046 N   0  3  0  0  0  0  0  0  0  0  0  0
  -30.6404  -19.8728   19.9564 N   0  3  1  0  0  0  0  0  0  0  0  0
  -21.9104  -13.6507   20.4532 O   0  0  0  0  0  0  0  0  0  0  0  0
  -26.5760  -30.7697   22.4461 O   0  0  0  0  0  0  0  0  0  0  0  0
  -22.8352  -32.3416   21.6541 O   0  0  0  0  0  0  0  0  0  0  0  0
  -20.8482  -28.1892   22.8075 O   0  0  0  0  0  0  0  0  0  0  0  0
  -31.9340  -14.3826   21.4084 O   0  0  0  0  0  0  0  0  0  0  0  0
  -21.8512   -6.9113   21.5027 O   0  0  0  0  0  0  0  0  0  0  0  0
  -26.5381  -24.7110   21.4119 O   0  0  0  0  0  0  0  0  0  1  0  0
  -21.0526   -5.3265   26.7233 F   0  0  0  0  0  0  0  0  0  0  0  0
  -22.8431   -4.4994   22.4203 F   0  0  0  0  0  0  0  0  0  0  0  0
  1  2  1  0  0  0  0
  1  5  2  0  0  0  0
  2  6  2  0  0  0  0
  3  8  2  0  0  0  0
  3 15  1  0  0  0  0
  4  9  1  0  0  0  0
  4 15  2  0  0  0  0
  5 17  1  0  0  0  0
  6 19  1  0  0  0  0
  7 10  2  0  0  0  0
  7 18  1  0  0  0  0
  8 21  1  0  0  0  0
  9 21  2  0  0  0  0
 10 22  1  0  0  0  0
 11 12  2  0  0  0  0
 11 23  1  0  0  0  0
 12 24  1  0  0  0  0
 13 20  1  0  0  0  0
 13 22  2  0  0  0  0
 14 24  2  0  0  0  0
 14 25  1  0  0  0  0
 15 26  1  0  0  0  0
 16 26  1  0  0  0  0
 16 27  2  0  0  0  0
 16 28  1  0  0  0  0
 17 19  2  0  0  0  0
 17 33  1  0  0  0  0
 18 20  2  0  0  0  0
 18 34  1  0  0  0  0
 19 50  1  0  0  0  0
 20 35  1  0  0  0  0
 21 86  1  0  0  0  0
 22 87  1  0  0  0  0
 23 25  2  0  0  0  0
 23 86  1  0  0  0  0
 24 88  1  0  0  0  0
 25 89  1  0  0  0  0
 26 70  2  0  0  0  0
 27 71  1  0  0  0  0
 27 75  1  0  0  0  0
 28 76  1  0  0  0  0
 28 81  2  0  0  0  0
 29 51  1  0  0  0  0
 29 77  1  0  0  0  0
 29 82  2  0  0  0  0
 30 66  1  0  0  0  0
 30 72  1  0  0  0  0
 30 83  2  0  0  0  0
 31 67  1  0  0  0  0
 31 78  1  0  0  0  0
 31 84  2  0  0  0  0
 32 73  1  0  0  0  0
 32 74  1  0  0  0  0
 32 85  2  0  0  0  0
 33 36  1  0  0  0  0
 34 51  1  0  0  0  0
 35 72  1  0  0  0  0
 36 38  1  0  0  0  0
 37 41  1  0  0  0  0
 37 46  1  0  0  0  0
 38 50  1  0  0  0  0
 39 42  1  0  0  0  0
 39 52  1  0  0  0  0
 40 43  1  0  0  0  0
 40 52  1  0  0  0  0
 41 53  1  0  0  0  0
 42 55  1  0  0  0  0
 43 55  1  0  0  0  0
 44 47  1  0  0  0  0
 44 54  1  0  0  0  0
 45 48  1  0  0  0  0
 45 54  1  0  0  0  0
 46 73  1  0  0  0  0
 47 74  1  0  0  0  0
 48 74  1  0  0  0  0
 49 53  1  0  0  0  0
 49 73  1  0  0  0  0
 50 77  1  0  0  0  0
 51 72  1  0  0  0  0
 52 63  1  0  0  0  0
 53 71  1  0  0  0  0
 54 80  1  0  0  0  0
 55 87  1  0  0  0  0
 56 67  1  0  0  0  0
 57 68  1  0  0  0  0
 58 68  1  0  0  0  0
 59 69  1  0  0  0  0
 60 69  1  0  0  0  0
 61 69  1  0  0  0  0
 62 79  1  0  0  0  0
 63 80  1  0  0  0  0
 64 65  1  0  0  0  0
 64 68  1  0  0  0  0
 65 80  1  0  0  0  0
 66 69  1  0  0  0  0
 66 78  1  0  0  0  0
 67 79  1  0  0  0  0
 70 71  1  0  0  0  0
M  CHG  2  79   1  80   1
M  ISO  4  32 100  55 101  74 100  87 101
M  END
> <Batch ID>
0121

> <Smiles>
CNC(C)C(=O)NC(C(=O)N1Cc2cc([101O:1][101CH:1]3CCC(CN(CCC(C)C)C4CC[100N:0]([100C:0](=O)N5CCCC(n6nc(-c7ccc(Oc8ccc(F)cc8F)cc7)c(C(N)=O)c6N)C5)CC4)CC3)ccc2CC1C(=O)NC1CCCc2ccccc21)C(C)(C)C

> <Shape>
0.364

> <Color>
0.184

> <Negative vol penalty>
0.000

$$$$

  -OEChem-04052320253D

 88 98  0     1  0  0  0  0  0999 V2000
  -17.2191  -29.5001   24.7848 C   0  0  0  0  0  0  0  0  0  0  0  0
  -17.5991  -28.3488   24.1026 C   0  0  0  0  0  0  0  0  0  0  0  0
  -28.9759  -22.6976   17.9248 C   0  0  0  0  0  0  0  0  0  0  0  0
  -31.2147  -22.2512   18.7156 C   0  0  0  0  0  0  0  0  0  0  0  0
  -17.7462  -30.7359   24.4120 C   0  0  0  0  0  0  0  0  0  0  0  0
  -18.5056  -28.4327   23.0464 C   0  0  0  0  0  0  0  0  0  0  0  0
  -22.7599  -24.3042   21.5094 C   0  0  0  0  0  0  0  0  0  0  0  0
  -29.4994  -23.3957   16.8366 C   0  0  0  0  0  0  0  0  0  0  0  0
  -31.7383  -22.9493   17.6273 C   0  0  0  0  0  0  0  0  0  0  0  0
  -22.7854  -23.2983   20.5443 C   0  0  0  0  0  0  0  0  0  0  0  0
  -30.8039  -26.4552   16.2347 C   0  0  0  0  0  0  0  0  0  0  0  0
  -30.2207  -27.6800   15.9101 C   0  0  0  0  0  0  0  0  0  0  0  0
  -24.3399  -13.9795   18.3200 C   0  0  0  0  0  0  0  0  0  0  0  0
  -26.3260  -13.0384   20.1006 C   0  0  0  0  0  0  0  0  0  0  0  0
  -23.9422  -24.7833   19.0357 C   0  0  0  0  0  0  0  0  0  0  0  0
  -29.6558  -26.8306   13.7200 C   0  0  0  0  0  0  0  0  0  0  0  0
  -29.8336  -22.1254   18.8643 C   0  0  0  0  0  0  0  0  0  0  0  0
  -28.4359  -21.9051   20.9870 C   0  0  0  0  0  0  0  0  0  0  0  0
  -18.6670  -30.8338   23.3570 C   0  0  0  0  0  0  0  0  0  0  0  0
  -23.3167  -25.5628   21.2405 C   0  0  0  0  0  0  0  0  0  0  0  0
  -19.0445  -29.6711   22.6583 C   0  0  0  0  0  0  0  0  0  0  0  0
  -24.3435  -12.6654   18.7565 C   0  0  0  0  0  0  0  0  0  0  0  0
  -25.3262  -12.1997   19.6380 C   0  0  0  0  0  0  0  0  0  0  0  0
  -23.9248  -25.8026   20.0000 C   0  0  0  0  0  0  0  0  0  0  0  0
  -25.3519  -14.8292   18.7717 C   0  0  0  0  0  0  0  0  0  0  0  0
  -26.3379  -14.3621   19.6554 C   0  0  0  0  0  0  0  0  0  0  0  0
  -30.8806  -23.5215   16.6878 C   0  0  0  0  0  0  0  0  0  0  0  0
  -23.3740  -23.5387   19.3063 C   0  0  0  0  0  0  0  0  0  0  0  0
  -30.8131  -25.4181   15.3019 C   0  0  0  0  0  0  0  0  0  0  0  0
  -29.6467  -27.8677   14.6528 C   0  0  0  0  0  0  0  0  0  0  0  0
  -30.2391  -25.6058   14.0446 C   0  0  0  0  0  0  0  0  0  0  0  0
  -29.2934  -21.4047   19.9890 C   0  0  0  0  0  0  0  0  0  0  0  0
  -28.2148  -20.8344   21.8183 C   0  0  0  0  0  0  0  0  0  0  0  0
  -27.8880  -23.2203   21.1480 C   0  0  0  0  0  0  0  0  0  0  0  0
  -22.1845  -28.5287   21.0808 C   0  0  0  0  0  0  0  0  0  0  0  0
  -25.3178  -29.2897   20.7269 C   0  0  0  0  0  0  0  0  0  0  0  0
  -28.2235  -28.1446   20.3319 C   0  0  0  0  0  0  0  0  0  0  0  0
  -28.3987  -14.9192   20.9930 C   0  0  0  0  0  0  0  0  0  0  0  0
  -19.1734  -32.1977   22.9596 C   0  0  0  0  0  0  0  0  0  0  0  0
  -23.3048  -26.6287   22.3018 C   0  0  0  0  0  0  0  0  0  0  0  0
  -23.3535  -11.5879   18.4447 C   0  0  0  0  0  0  0  0  0  0  0  0
  -25.0836  -10.7681   19.9984 C   0  0  0  0  0  0  0  0  0  0  0  0
  -24.5545  -27.1301   19.6690 C   0  0  0  0  0  0  0  0  0  0  0  0
  -20.4148  -32.1518   22.0724 C   0  0  0  0  0  0  0  0  0  0  0  0
  -24.1333  -10.3351   18.8720 C   0  0  0  0  0  0  0  0  0  0  0  0
  -30.2834  -16.7989   23.3576 C   0  0  0  0  0  0  0  0  0  0  0  0
  -20.2347  -31.1295   20.9547 C   0  0  0  0  0  0  0  0  0  0  0  0
  -30.1603  -18.2396   22.8564 C   0  0  0  0  0  0  0  0  0  0  0  0
  -23.5844  -18.8190   18.0283 C   0  0  0  0  0  0  0  0  0  0  0  0
  -24.8578  -19.5456   20.0952 C   0  0  0  0  0  0  0  0  0  0  0  0
  -23.4265  -20.2805   17.6159 C   0  0  0  0  0  0  0  0  0  0  0  0
  -24.6963  -21.0054   19.6780 C   0  0  0  0  0  0  0  0  0  0  0  0
  -30.3809  -15.8031   22.2032 C   0  0  0  0  0  0  0  0  0  0  0  0
  -29.1897  -17.3489   20.6996 C   0  0  0  0  0  0  0  0  0  0  0  0
  -20.0443  -29.7182   21.5233 C   0  0  1  0  0  0  0  0  0  0  0  0
  -23.4451  -28.0380   21.7348 C   0  0  1  0  0  0  0  0  0  0  0  0
  -29.0234  -18.3825   21.8256 C   0  0  2  0  0  0  0  0  0  0  0  0
  -24.8411  -18.6271   18.8750 C   0  0  0  0  0  0  0  0  0  0  0  0
  -23.4441  -21.2136   18.8258 C   0  0  0  0  0  0  0  0  0  1  0  0
  -30.6614  -27.6365   20.0217 C   0  0  0  0  0  0  0  0  0  0  0  0
  -24.5350  -30.8047   18.1967 C   0  0  0  0  0  0  0  0  0  0  0  0
  -26.9503  -30.8122   17.5376 C   0  0  0  0  0  0  0  0  0  0  0  0
  -26.2260  -31.9663   19.6271 C   0  0  0  0  0  0  0  0  0  0  0  0
  -28.7563  -28.3572   23.2353 C   0  0  0  0  0  0  0  0  0  0  0  0
  -25.3575  -16.2526   18.2973 C   0  0  0  0  0  0  0  0  0  0  0  0
  -26.2557  -29.4393   19.5534 C   0  0  1  0  0  0  0  0  0  0  0  0
  -29.6225  -28.3255   20.8928 C   0  0  2  0  0  0  0  0  0  0  0  0
  -25.9783  -30.7311   18.7340 C   0  0  0  0  0  0  0  0  0  0  0  0
  -29.5965  -20.1163   20.1683 N   0  0  0  0  0  0  0  0  0  0  0  0
  -28.9259  -19.7981   21.2886 N   0  0  0  0  0  0  0  0  0  0  0  0
  -24.5121  -28.1423   20.7373 N   0  0  0  0  0  0  0  0  0  0  0  0
  -29.2689  -15.9948   21.2695 N   0  0  0  0  0  0  0  0  0  0  0  0
  -27.4835  -20.6877   22.9435 N   0  0  0  0  0  0  0  0  0  0  0  0
  -28.6098  -24.1572   21.9001 N   0  0  0  0  0  0  0  0  0  0  0  0
  -27.3597  -15.2290   20.1160 N   0  0  0  0  0  0  0  0  0  0  0  0
  -21.3147  -29.1673   21.9441 N   0  0  0  0  0  0  0  0  0  0  0  0
  -27.6068  -29.3554   20.0975 N   0  0  0  0  0  0  0  0  0  0  0  0
  -24.9003  -17.2144   19.3352 N   0  3  0  0  0  0  0  0  0  0  0  0
  -29.7076  -27.7542   22.2666 N   0  3  0  0  0  0  0  0  0  0  0  0
  -26.7832  -23.5498   20.6539 O   0  0  0  0  0  0  0  0  0  0  0  0
  -22.0142  -28.3431   19.8816 O   0  0  0  0  0  0  0  0  0  0  0  0
  -25.3059  -30.1552   21.6057 O   0  0  0  0  0  0  0  0  0  0  0  0
  -27.7289  -27.0398   20.1192 O   0  0  0  0  0  0  0  0  0  0  0  0
  -28.5471  -13.8128   21.5181 O   0  0  0  0  0  0  0  0  0  0  0  0
  -31.3918  -24.2024   15.6259 O   0  0  0  0  0  0  0  0  0  0  0  0
  -23.3996  -22.5589   18.3623 O   0  0  0  0  0  0  0  0  0  1  0  0
  -29.0853  -29.0434   14.3418 F   0  0  0  0  0  0  0  0  0  0  0  0
  -30.2438  -24.6128   13.1447 F   0  0  0  0  0  0  0  0  0  0  0  0
  1  2  1  0  0  0  0
  1  5  2  0  0  0  0
  2  6  2  0  0  0  0
  3  8  2  0  0  0  0
  3 17  1  0  0  0  0
  4  9  1  0  0  0  0
  4 17  2  0  0  0  0
  5 19  1  0  0  0  0
  6 21  1  0  0  0  0
  7 10  2  0  0  0  0
  7 20  1  0  0  0  0
  8 27  1  0  0  0  0
  9 27  2  0  0  0  0
 10 28  1  0  0  0  0
 11 12  2  0  0  0  0
 11 29  1  0  0  0  0
 12 30  1  0  0  0  0
 13 22  2  0  0  0  0
 13 25  1  0  0  0  0
 14 23  2  0  0  0  0
 14 26  1  0  0  0  0
 15 24  1  0  0  0  0
 15 28  2  0  0  0  0
 16 30  2  0  0  0  0
 16 31  1  0  0  0  0
 17 32  1  0  0  0  0
 18 32  1  0  0  0  0
 18 33  2  0  0  0  0
 18 34  1  0  0  0  0
 19 21  2  0  0  0  0
 19 39  1  0  0  0  0
 20 24  2  0  0  0  0
 20 40  1  0  0  0  0
 21 55  1  0  0  0  0
 22 23  1  0  0  0  0
 22 41  1  0  0  0  0
 23 42  1  0  0  0  0
 24 43  1  0  0  0  0
 25 26  2  0  0  0  0
 25 65  1  0  0  0  0
 26 75  1  0  0  0  0
 27 85  1  0  0  0  0
 28 86  1  0  0  0  0
 29 31  2  0  0  0  0
 29 85  1  0  0  0  0
 30 87  1  0  0  0  0
 31 88  1  0  0  0  0
 32 69  2  0  0  0  0
 33 70  1  0  0  0  0
 33 73  1  0  0  0  0
 34 74  1  0  0  0  0
 34 80  2  0  0  0  0
 35 56  1  0  0  0  0
 35 76  1  0  0  0  0
 35 81  2  0  0  0  0
 36 66  1  0  0  0  0
 36 71  1  0  0  0  0
 36 82  2  0  0  0  0
 37 67  1  0  0  0  0
 37 77  1  0  0  0  0
 37 83  2  0  0  0  0
 38 72  1  0  0  0  0
 38 75  1  0  0  0  0
 38 84  2  0  0  0  0
 39 44  1  0  0  0  0
 40 56  1  0  0  0  0
 41 45  1  0  0  0  0
 42 45  1  0  0  0  0
 43 71  1  0  0  0  0
 44 47  1  0  0  0  0
 46 48  1  0  0  0  0
 46 53  1  0  0  0  0
 47 55  1  0  0  0  0
 48 57  1  0  0  0  0
 49 51  1  0  0  0  0
 49 58  1  0  0  0  0
 50 52  1  0  0  0  0
 50 58  1  0  0  0  0
 51 59  1  0  0  0  0
 52 59  1  0  0  0  0
 53 72  1  0  0  0  0
 54 57  1  0  0  0  0
 54 72  1  0  0  0  0
 55 76  1  0  0  0  0
 56 71  1  0  0  0  0
 57 70  1  0  0  0  0
 58 78  1  0  0  0  0
 59 86  1  0  0  0  0
 60 67  1  0  0  0  0
 61 68  1  0  0  0  0
 62 68  1  0  0  0  0
 63 68  1  0  0  0  0
 64 79  1  0  0  0  0
 65 78  1  0  0  0  0
 66 68  1  0  0  0  0
 66 77  1  0  0  0  0
 67 79  1  0  0  0  0
 69 70  1  0  0  0  0
M  CHG  2  78   1  79   1
M  ISO  4  38 100  59 101  75 100  86 101
M  END
> <Batch ID>
0121

> <Smiles>
CNC(C)C(=O)NC(C(=O)N1Cc2cc([101O:1][101CH:1]3CCC(NCc4cc5c(cc4[100NH:0][100C:0](=O)N4CCCC(n6nc(-c7ccc(Oc8ccc(F)cc8F)cc7)c(C(N)=O)c6N)C4)CCC5)CC3)ccc2CC1C(=O)NC1CCCc2ccccc21)C(C)(C)C

> <Shape>
0.223

> <Color>
0.057

> <Negative vol penalty>
0.000

$$$$

  -OEChem-04052320253D

 90 99  0     1  0  0  0  0  0999 V2000
  -24.8601  -31.5766   21.3301 C   0  0  0  0  0  0  0  0  0  0  0  0
  -25.5722  -30.6724   20.5486 C   0  0  0  0  0  0  0  0  0  0  0  0
  -26.1018  -14.1753   21.7835 C   0  0  0  0  0  0  0  0  0  0  0  0
  -24.9858  -15.4119   20.0335 C   0  0  0  0  0  0  0  0  0  0  0  0
  -23.6294  -31.2093   21.8726 C   0  0  0  0  0  0  0  0  0  0  0  0
  -25.0544  -29.3999   20.3100 C   0  0  0  0  0  0  0  0  0  0  0  0
  -25.6481  -26.0829   15.1962 C   0  0  0  0  0  0  0  0  0  0  0  0
  -25.0209  -13.2964   21.8518 C   0  0  0  0  0  0  0  0  0  0  0  0
  -23.9049  -14.5329   20.1017 C   0  0  0  0  0  0  0  0  0  0  0  0
  -26.5105  -25.0448   14.8463 C   0  0  0  0  0  0  0  0  0  0  0  0
  -23.8509  -10.6468   20.1072 C   0  0  0  0  0  0  0  0  0  0  0  0
  -24.1287   -9.2813   20.1687 C   0  0  0  0  0  0  0  0  0  0  0  0
  -24.8232  -23.4394   15.4748 C   0  0  0  0  0  0  0  0  0  0  0  0
  -22.9912   -9.1458   22.2959 C   0  0  0  0  0  0  0  0  0  0  0  0
  -31.3492  -23.7576   19.1035 C   0  0  0  0  0  0  0  0  0  0  0  0
  -26.0842  -15.2332   20.8744 C   0  0  0  0  0  0  0  0  0  0  0  0
  -28.3432  -16.0228   19.9906 C   0  0  0  0  0  0  0  0  0  0  0  0
  -23.0918  -29.9350   21.6326 C   0  0  0  0  0  0  0  0  0  0  0  0
  -24.3686  -25.8064   15.6991 C   0  0  0  0  0  0  0  0  0  0  0  0
  -23.8160  -29.0147   20.8509 C   0  0  0  0  0  0  0  0  0  0  0  0
  -23.9456  -24.4758   15.8279 C   0  0  0  0  0  0  0  0  0  0  0  0
  -23.9225  -13.4751   21.0109 C   0  0  0  0  0  0  0  0  0  0  0  0
  -26.0992  -23.7228   14.9884 C   0  0  0  0  0  0  0  0  0  0  0  0
  -23.1433  -11.2619   21.1400 C   0  0  0  0  0  0  0  0  0  0  0  0
  -23.6988   -8.5308   21.2631 C   0  0  0  0  0  0  0  0  0  0  0  0
  -22.7134  -10.5114   22.2344 C   0  0  0  0  0  0  0  0  0  0  0  0
  -27.2003  -16.1418   20.8038 C   0  0  0  0  0  0  0  0  0  0  0  0
  -30.5363  -22.7092   18.7329 C   0  0  0  0  0  0  0  0  0  0  0  0
  -28.6903  -23.9708   19.2131 C   0  0  0  0  0  0  0  0  0  0  0  0
  -29.5034  -25.0190   19.5844 C   0  0  0  0  0  0  0  0  0  0  0  0
  -29.0962  -17.1312   20.2925 C   0  0  0  0  0  0  0  0  0  0  0  0
  -28.6930  -15.0018   19.0468 C   0  0  0  0  0  0  0  0  0  0  0  0
  -22.8615  -26.3848   18.4373 C   0  0  0  0  0  0  0  0  0  0  0  0
  -20.3206  -25.1400   16.8510 C   0  0  0  0  0  0  0  0  0  0  0  0
  -19.1722  -23.1375   14.3374 C   0  0  0  0  0  0  0  0  0  0  0  0
  -27.7060  -22.5416   22.4478 C   0  0  0  0  0  0  0  0  0  0  0  0
  -21.7799  -29.5669   22.2794 C   0  0  0  0  0  0  0  0  0  0  0  0
  -23.4405  -26.9379   16.0468 C   0  0  0  0  0  0  0  0  0  0  0  0
  -22.5745  -24.1260   16.3440 C   0  0  0  0  0  0  0  0  0  0  0  0
  -21.1261  -28.3296   21.6696 C   0  0  0  0  0  0  0  0  0  0  0  0
  -29.9852  -20.1969   23.8564 C   0  0  0  0  0  0  0  0  0  0  0  0
  -22.1508  -27.2122   21.5020 C   0  0  0  0  0  0  0  0  0  0  0  0
  -28.1891  -28.4877   22.2282 C   0  0  0  0  0  0  0  0  0  0  0  0
  -29.2787  -29.4669   21.8910 C   0  0  0  0  0  0  0  0  0  0  0  0
  -29.6331  -18.8811   23.1604 C   0  0  0  0  0  0  0  0  0  0  0  0
  -28.7428  -21.0430   24.1258 C   0  0  0  0  0  0  0  0  0  0  0  0
  -27.5492  -19.9860   22.2465 C   0  0  0  0  0  0  0  0  0  0  0  0
  -23.2758  -27.6336   20.5491 C   0  0  1  0  0  0  0  0  0  0  0  0
  -22.3488  -26.5337   17.0328 C   0  0  1  0  0  0  0  0  0  0  0  0
  -28.8049  -28.4839   20.8565 C   0  0  0  0  0  0  0  0  0  0  0  0
  -28.7758  -19.1234   21.9036 C   0  0  2  0  0  0  0  0  0  0  0  0
  -17.0456  -22.2873   13.3117 C   0  0  0  0  0  0  0  0  0  0  0  0
  -19.9741  -23.2017   19.1819 C   0  0  0  0  0  0  0  0  0  0  0  0
  -18.5011  -21.8082   17.7133 C   0  0  0  0  0  0  0  0  0  0  0  0
  -17.8393  -24.1449   18.2832 C   0  0  0  0  0  0  0  0  0  0  0  0
  -19.7963  -24.3844   11.7270 C   0  0  0  0  0  0  0  0  0  0  0  0
  -31.1312  -21.4158   18.2561 C   0  0  0  0  0  0  0  0  0  0  0  0
  -27.2032  -24.0718   19.2678 C   0  0  0  0  0  0  0  0  0  0  0  0
  -29.6859  -27.3588   20.4316 C   0  0  0  0  0  0  0  0  0  0  0  0
  -28.9975  -21.7972   13.8189 C   0  0  0  0  0  0  0  0  0  0  0  0
  -26.6282  -23.9101   20.6800 C   0  0  0  0  0  0  0  0  0  0  0  0
  -30.2584  -20.6683   17.2531 C   0  0  0  0  0  0  0  0  0  0  0  0
  -29.1841  -20.8654   15.0068 C   0  0  0  0  0  0  0  0  0  0  0  0
  -28.2276  -23.0691   14.1525 C   0  0  0  0  0  0  0  0  0  1  0  0
  -19.7469  -23.7553   16.6703 C   0  0  1  0  0  0  0  0  0  0  0  0
  -18.1172  -23.3656   13.2701 C   0  0  2  0  0  0  0  0  0  0  0  0
  -19.0419  -23.2338   17.9543 C   0  0  0  0  0  0  0  0  0  0  0  0
  -30.8474  -24.9314   19.5359 N   0  0  0  0  0  0  0  0  0  0  0  0
  -27.2211  -17.2390   21.5652 N   0  0  0  0  0  0  0  0  0  0  0  0
  -29.1922  -22.7970   18.7811 N   0  0  0  0  0  0  0  0  0  0  0  0
  -28.3863  -17.8196   21.2317 N   0  0  0  0  0  0  0  0  0  0  0  0
  -21.7059  -25.2673   16.6764 N   0  0  0  0  0  0  0  0  0  0  0  0
  -27.9749  -21.2370   22.8934 N   0  0  0  0  0  0  0  0  0  0  0  0
  -30.2897  -17.5742   19.8434 N   0  0  0  0  0  0  0  0  0  0  0  0
  -27.8056  -13.9334   18.8588 N   0  0  0  0  0  0  0  0  0  0  0  0
  -28.9157  -26.2249   20.0287 N   0  0  0  0  0  0  0  0  0  0  0  0
  -22.8305  -27.5532   19.1744 N   0  0  0  0  0  0  0  0  0  0  0  0
  -18.8807  -23.8221   15.4983 N   0  0  0  0  0  0  0  0  0  0  0  0
  -26.9779  -22.6362   21.2681 N   0  0  0  0  0  0  0  0  0  0  0  0
  -18.7398  -23.3573   11.9161 N   0  3  0  0  0  0  0  0  0  0  0  0
  -29.9755  -21.5275   16.0702 N   0  3  0  0  0  0  0  0  0  0  0  0
  -29.7684  -15.0274   18.4016 O   0  0  0  0  0  0  0  0  0  0  0  0
  -23.2546  -25.2905   18.8241 O   0  0  0  0  0  0  0  0  0  0  0  0
  -19.5663  -26.0755   17.1295 O   0  0  0  0  0  0  0  0  0  0  0  0
  -20.1546  -22.4204   14.1605 O   0  0  0  0  0  0  0  0  0  0  0  0
  -28.0911  -23.5476   23.0533 O   0  0  0  0  0  0  0  0  0  0  0  0
  -22.8677  -12.6175   21.0770 O   0  0  0  0  0  0  0  0  0  0  0  0
  -26.9392  -22.7076   14.6483 O   0  0  0  0  0  0  0  0  0  1  0  0
  -23.9643   -7.2192   21.3213 F   0  0  0  0  0  0  0  0  0  0  0  0
  -22.0322  -11.0965   23.2291 F   0  0  0  0  0  0  0  0  0  0  0  0
  1  2  1  0  0  0  0
  1  5  2  0  0  0  0
  2  6  2  0  0  0  0
  3  8  2  0  0  0  0
  3 16  1  0  0  0  0
  4  9  1  0  0  0  0
  4 16  2  0  0  0  0
  5 18  1  0  0  0  0
  6 20  1  0  0  0  0
  7 10  2  0  0  0  0
  7 19  1  0  0  0  0
  8 22  1  0  0  0  0
  9 22  2  0  0  0  0
 10 23  1  0  0  0  0
 11 12  2  0  0  0  0
 11 24  1  0  0  0  0
 12 25  1  0  0  0  0
 13 21  1  0  0  0  0
 13 23  2  0  0  0  0
 14 25  2  0  0  0  0
 14 26  1  0  0  0  0
 15 28  1  0  0  0  0
 15 68  2  0  0  0  0
 16 27  1  0  0  0  0
 17 27  1  0  0  0  0
 17 31  2  0  0  0  0
 17 32  1  0  0  0  0
 18 20  2  0  0  0  0
 18 37  1  0  0  0  0
 19 21  2  0  0  0  0
 19 38  1  0  0  0  0
 20 48  1  0  0  0  0
 21 39  1  0  0  0  0
 22 87  1  0  0  0  0
 23 88  1  0  0  0  0
 24 26  2  0  0  0  0
 24 87  1  0  0  0  0
 25 89  1  0  0  0  0
 26 90  1  0  0  0  0
 27 69  2  0  0  0  0
 28 57  1  0  0  0  0
 28 70  2  0  0  0  0
 29 30  2  0  0  0  0
 29 58  1  0  0  0  0
 29 70  1  0  0  0  0
 30 68  1  0  0  0  0
 30 76  1  0  0  0  0
 31 71  1  0  0  0  0
 31 74  1  0  0  0  0
 32 75  1  0  0  0  0
 32 82  2  0  0  0  0
 33 49  1  0  0  0  0
 33 77  1  0  0  0  0
 33 83  2  0  0  0  0
 34 65  1  0  0  0  0
 34 72  1  0  0  0  0
 34 84  2  0  0  0  0
 35 66  1  0  0  0  0
 35 78  1  0  0  0  0
 35 85  2  0  0  0  0
 36 73  1  0  0  0  0
 36 79  1  0  0  0  0
 36 86  2  0  0  0  0
 37 40  1  0  0  0  0
 38 49  1  0  0  0  0
 39 72  1  0  0  0  0
 40 42  1  0  0  0  0
 41 45  1  0  0  0  0
 41 46  1  0  0  0  0
 42 48  1  0  0  0  0
 43 44  1  0  0  0  0
 43 50  1  0  0  0  0
 44 50  1  0  0  0  0
 45 51  1  0  0  0  0
 46 73  1  0  0  0  0
 47 51  1  0  0  0  0
 47 73  1  0  0  0  0
 48 77  1  0  0  0  0
 49 72  1  0  0  0  0
 50 59  1  0  0  0  0
 51 71  1  0  0  0  0
 52 66  1  0  0  0  0
 53 67  1  0  0  0  0
 54 67  1  0  0  0  0
 55 67  1  0  0  0  0
 56 80  1  0  0  0  0
 57 62  1  0  0  0  0
 58 61  1  0  0  0  0
 59 76  1  0  0  0  0
 60 63  1  0  0  0  0
 60 64  1  0  0  0  0
 61 79  1  0  0  0  0
 62 81  1  0  0  0  0
 63 81  1  0  0  0  0
 64 88  1  0  0  0  0
 65 67  1  0  0  0  0
 65 78  1  0  0  0  0
 66 80  1  0  0  0  0
 69 71  1  0  0  0  0
M  CHG  2  80   1  81   1
M  ISO  4  36 100  64 101  79 100  88 101
M  END
> <Batch ID>
0121

> <Smiles>
CNC(C)C(=O)NC(C(=O)N1Cc2cc([101O:1][101CH2:1]CCNCCc3cnc(NCC4CC4)c(CC[100NH:0][100C:0](=O)N4CCCC(n5nc(-c6ccc(Oc7ccc(F)cc7F)cc6)c(C(N)=O)c5N)C4)n3)ccc2CC1C(=O)NC1CCCc2ccccc21)C(C)(C)C

> <Shape>
0.204

> <Color>
0.077

> <Negative vol penalty>
0.000

$$$$

  -OEChem-04052320253D

 88 97  0     1  0  0  0  0  0999 V2000
  -22.7125  -21.8033   24.2556 C   0  0  0  0  0  0  0  0  0  0  0  0
  -23.7028  -22.6117   23.7091 C   0  0  0  0  0  0  0  0  0  0  0  0
  -24.4725   -9.4317   21.7338 C   0  0  0  0  0  0  0  0  0  0  0  0
  -22.7882  -10.3582   20.2702 C   0  0  0  0  0  0  0  0  0  0  0  0
  -21.5716  -22.3820   24.8075 C   0  0  0  0  0  0  0  0  0  0  0  0
  -23.5581  -23.9994   23.7249 C   0  0  0  0  0  0  0  0  0  0  0  0
  -27.4084  -26.6653   22.2176 C   0  0  0  0  0  0  0  0  0  0  0  0
  -24.5839  -25.8421   15.8582 C   0  0  0  0  0  0  0  0  0  0  0  0
  -23.5271  -25.0072   16.2213 C   0  0  0  0  0  0  0  0  0  0  0  0
  -23.7029   -8.2789   21.8896 C   0  0  0  0  0  0  0  0  0  0  0  0
  -22.0186   -9.2053   20.4260 C   0  0  0  0  0  0  0  0  0  0  0  0
  -27.7953  -26.7413   20.8804 C   0  0  0  0  0  0  0  0  0  0  0  0
  -20.9915   -7.3154   23.6628 C   0  0  0  0  0  0  0  0  0  0  0  0
  -20.8425   -6.8060   24.9527 C   0  0  0  0  0  0  0  0  0  0  0  0
  -26.8095  -28.9376   20.7263 C   0  0  0  0  0  0  0  0  0  0  0  0
  -24.6197  -26.7673   18.0897 C   0  0  0  0  0  0  0  0  0  0  0  0
  -21.8650   -4.7322   24.2517 C   0  0  0  0  0  0  0  0  0  0  0  0
  -24.0151  -10.4714   20.9241 C   0  0  0  0  0  0  0  0  0  0  0  0
  -26.1144  -11.7506   20.2428 C   0  0  0  0  0  0  0  0  0  0  0  0
  -21.4079  -23.7771   24.8184 C   0  0  0  0  0  0  0  0  0  0  0  0
  -26.7084  -27.7221   22.8173 C   0  0  0  0  0  0  0  0  0  0  0  0
  -22.4249  -24.6035   24.2988 C   0  0  0  0  0  0  0  0  0  0  0  0
  -26.4171  -28.8736   22.0721 C   0  0  0  0  0  0  0  0  0  0  0  0
  -25.1303  -26.7221   16.7924 C   0  0  0  0  0  0  0  0  0  0  0  0
  -23.0166  -25.0524   17.5186 C   0  0  0  0  0  0  0  0  0  0  0  0
  -23.5629  -25.9325   18.4528 C   0  0  0  0  0  0  0  0  0  0  0  0
  -22.4760   -8.1656   21.2357 C   0  0  0  0  0  0  0  0  0  0  0  0
  -27.4934  -27.8764   20.1337 C   0  0  0  0  0  0  0  0  0  0  0  0
  -21.5771   -6.5332   22.6673 C   0  0  0  0  0  0  0  0  0  0  0  0
  -21.2793   -5.5144   25.2472 C   0  0  0  0  0  0  0  0  0  0  0  0
  -22.0139   -5.2417   22.9618 C   0  0  0  0  0  0  0  0  0  0  0  0
  -24.8093  -11.6628   20.7632 C   0  0  0  0  0  0  0  0  0  0  0  0
  -26.4183  -13.0888   20.3018 C   0  0  0  0  0  0  0  0  0  0  0  0
  -26.9750  -10.7152   19.7499 C   0  0  0  0  0  0  0  0  0  0  0  0
  -23.8371  -28.0450   24.1421 C   0  0  0  0  0  0  0  0  0  0  0  0
  -24.9434  -31.0018   24.8876 C   0  0  0  0  0  0  0  0  0  0  0  0
  -26.8596  -33.5857   23.2538 C   0  0  0  0  0  0  0  0  0  0  0  0
  -23.0030  -17.9042   20.2449 C   0  0  0  0  0  0  0  0  0  0  0  0
  -20.1567  -24.3507   25.4355 C   0  0  0  0  0  0  0  0  0  0  0  0
  -26.3216  -27.6357   24.2682 C   0  0  0  0  0  0  0  0  0  0  0  0
  -25.6854  -30.0441   22.6746 C   0  0  0  0  0  0  0  0  0  0  0  0
  -19.8901  -25.7907   25.0095 C   0  0  0  0  0  0  0  0  0  0  0  0
  -25.4210  -17.0488   22.7981 C   0  0  0  0  0  0  0  0  0  0  0  0
  -21.1494  -26.6262   25.1847 C   0  0  0  0  0  0  0  0  0  0  0  0
  -25.6591  -15.5659   22.5070 C   0  0  0  0  0  0  0  0  0  0  0  0
  -21.6488  -21.3429   20.4717 C   0  0  0  0  0  0  0  0  0  0  0  0
  -23.5029  -20.8196   18.8444 C   0  0  0  0  0  0  0  0  0  0  0  0
  -23.9591  -17.4272   22.5797 C   0  0  0  0  0  0  0  0  0  0  0  0
  -23.6707  -15.6182   20.9311 C   0  0  0  0  0  0  0  0  0  0  0  0
  -21.1471  -22.4369   19.5383 C   0  0  0  0  0  0  0  0  0  0  0  0
  -22.9925  -21.9172   17.9199 C   0  0  0  0  0  0  0  0  0  0  0  0
  -22.2752  -26.1140   24.2773 C   0  0  1  0  0  0  0  0  0  0  0  0
  -25.1616  -28.5570   24.6332 C   0  0  1  0  0  0  0  0  0  0  0  0
  -25.1347  -15.1776   21.1119 C   0  0  2  0  0  0  0  0  0  0  0  0
  -22.3788  -20.2406   19.7036 C   0  0  0  0  0  0  0  0  0  0  0  0
  -23.0325  -25.9986   19.8475 C   0  0  0  0  0  0  0  0  0  0  0  0
  -28.3346  -35.3756   24.2118 C   0  0  0  0  0  0  0  0  0  0  0  0
  -22.4370  -32.7364   24.7496 C   0  0  0  0  0  0  0  0  0  0  0  0
  -23.8885  -34.6568   24.0612 C   0  0  0  0  0  0  0  0  0  0  0  0
  -24.2117  -33.5884   26.2921 C   0  0  0  0  0  0  0  0  0  0  0  0
  -29.1640  -32.7311   21.6051 C   0  0  0  0  0  0  0  0  0  0  0  0
  -26.2723  -27.6248   16.3995 C   0  0  0  0  0  0  0  0  0  0  0  0
  -21.8841  -24.1498   17.8838 C   0  0  0  0  0  0  0  0  0  0  0  0
  -27.6532  -27.0083   16.6332 C   0  0  0  0  0  0  0  0  0  0  0  0
  -27.9481  -26.7270   18.1019 C   0  0  0  0  0  0  0  0  0  1  0  0
  -24.9319  -32.3501   24.2088 C   0  0  1  0  0  0  0  0  0  0  0  0
  -28.2859  -33.9974   23.5709 C   0  0  2  0  0  0  0  0  0  0  0  0
  -23.8672  -33.3087   24.8129 C   0  0  0  0  0  0  0  0  0  0  0  0
  -24.3180  -12.8506   21.1264 N   0  0  0  0  0  0  0  0  0  0  0  0
  -25.3197  -13.6974   20.8337 N   0  0  0  0  0  0  0  0  0  0  0  0
  -25.3229  -29.9092   24.0951 N   0  0  0  0  0  0  0  0  0  0  0  0
  -23.5279  -17.0476   21.2269 N   0  0  0  0  0  0  0  0  0  0  0  0
  -27.5154  -13.7924   19.9503 N   0  0  0  0  0  0  0  0  0  0  0  0
  -26.9143  -10.3876   18.3885 N   0  0  0  0  0  0  0  0  0  0  0  0
  -23.5050  -26.7925   24.6221 N   0  0  0  0  0  0  0  0  0  0  0  0
  -26.2990  -32.8546   24.2797 N   0  0  0  0  0  0  0  0  0  0  0  0
  -22.8940  -19.2412   20.6072 N   0  0  0  0  0  0  0  0  0  0  0  0
  -22.3035  -22.9838   18.7364 N   0  3  0  0  0  0  0  0  0  0  0  0
  -29.1049  -34.0286   22.3262 N   0  3  0  0  0  0  0  0  0  0  0  0
  -27.7624  -10.0875   20.4978 O   0  0  0  0  0  0  0  0  0  0  0  0
  -23.1654  -28.7359   23.3850 O   0  0  0  0  0  0  0  0  0  0  0  0
  -24.6343  -30.9219   26.0791 O   0  0  0  0  0  0  0  0  0  0  0  0
  -26.2975  -33.8861   22.2029 O   0  0  0  0  0  0  0  0  0  0  0  0
  -22.6616  -17.5076   19.1254 O   0  0  0  0  0  0  0  0  0  0  0  0
  -21.7249   -7.0407   21.3874 O   0  0  0  0  0  0  0  0  0  0  0  0
  -27.8693  -27.9529   18.8280 O   0  0  0  0  0  0  0  0  0  1  0  0
  -21.1376   -5.0259   26.4863 F   0  0  0  0  0  0  0  0  0  0  0  0
  -22.5783   -4.4859   22.0099 F   0  0  0  0  0  0  0  0  0  0  0  0
  1  2  1  0  0  0  0
  1  5  2  0  0  0  0
  2  6  2  0  0  0  0
  3 10  2  0  0  0  0
  3 18  1  0  0  0  0
  4 11  1  0  0  0  0
  4 18  2  0  0  0  0
  5 20  1  0  0  0  0
  6 22  1  0  0  0  0
  7 12  2  0  0  0  0
  7 21  1  0  0  0  0
  8  9  2  0  0  0  0
  8 24  1  0  0  0  0
  9 25  1  0  0  0  0
 10 27  1  0  0  0  0
 11 27  2  0  0  0  0
 12 28  1  0  0  0  0
 13 14  2  0  0  0  0
 13 29  1  0  0  0  0
 14 30  1  0  0  0  0
 15 23  1  0  0  0  0
 15 28  2  0  0  0  0
 16 24  2  0  0  0  0
 16 26  1  0  0  0  0
 17 30  2  0  0  0  0
 17 31  1  0  0  0  0
 18 32  1  0  0  0  0
 19 32  1  0  0  0  0
 19 33  2  0  0  0  0
 19 34  1  0  0  0  0
 20 22  2  0  0  0  0
 20 39  1  0  0  0  0
 21 23  2  0  0  0  0
 21 40  1  0  0  0  0
 22 52  1  0  0  0  0
 23 41  1  0  0  0  0
 24 62  1  0  0  0  0
 25 26  2  0  0  0  0
 25 63  1  0  0  0  0
 26 56  1  0  0  0  0
 27 85  1  0  0  0  0
 28 86  1  0  0  0  0
 29 31  2  0  0  0  0
 29 85  1  0  0  0  0
 30 87  1  0  0  0  0
 31 88  1  0  0  0  0
 32 69  2  0  0  0  0
 33 70  1  0  0  0  0
 33 73  1  0  0  0  0
 34 74  1  0  0  0  0
 34 80  2  0  0  0  0
 35 53  1  0  0  0  0
 35 75  1  0  0  0  0
 35 81  2  0  0  0  0
 36 66  1  0  0  0  0
 36 71  1  0  0  0  0
 36 82  2  0  0  0  0
 37 67  1  0  0  0  0
 37 76  1  0  0  0  0
 37 83  2  0  0  0  0
 38 72  1  0  0  0  0
 38 77  1  0  0  0  0
 38 84  2  0  0  0  0
 39 42  1  0  0  0  0
 40 53  1  0  0  0  0
 41 71  1  0  0  0  0
 42 44  1  0  0  0  0
 43 45  1  0  0  0  0
 43 48  1  0  0  0  0
 44 52  1  0  0  0  0
 45 54  1  0  0  0  0
 46 50  1  0  0  0  0
 46 55  1  0  0  0  0
 47 51  1  0  0  0  0
 47 55  1  0  0  0  0
 48 72  1  0  0  0  0
 49 54  1  0  0  0  0
 49 72  1  0  0  0  0
 50 78  1  0  0  0  0
 51 78  1  0  0  0  0
 52 75  1  0  0  0  0
 53 71  1  0  0  0  0
 54 70  1  0  0  0  0
 55 77  1  0  0  0  0
 57 67  1  0  0  0  0
 58 68  1  0  0  0  0
 59 68  1  0  0  0  0
 60 68  1  0  0  0  0
 61 79  1  0  0  0  0
 62 64  1  0  0  0  0
 63 78  1  0  0  0  0
 64 65  1  0  0  0  0
 65 86  1  0  0  0  0
 66 68  1  0  0  0  0
 66 76  1  0  0  0  0
 67 79  1  0  0  0  0
 69 70  1  0  0  0  0
M  CHG  2  78   1  79   1
M  ISO  4  38 100  65 101  77 100  86 101
M  END
> <Batch ID>
0121

> <Smiles>
CNC(C)C(=O)NC(C(=O)N1Cc2cc([101O:1][101CH2:1]CCc3ccc(CN4CCC([100NH:0][100C:0](=O)N5CCCC(n6nc(-c7ccc(Oc8ccc(F)cc8F)cc7)c(C(N)=O)c6N)C5)CC4)c(C)c3)ccc2CC1C(=O)NC1CCCc2ccccc21)C(C)(C)C

> <Shape>
0.212

> <Color>
0.094

> <Negative vol penalty>
0.000

$$$$

  -OEChem-04052320253D

 88 97  0     1  0  0  0  0  0999 V2000
  -18.9040  -28.0639   26.4226 C   0  0  0  0  0  0  0  0  0  0  0  0
  -19.8359  -27.7211   25.4482 C   0  0  0  0  0  0  0  0  0  0  0  0
  -22.8574  -10.1555   20.0146 C   0  0  0  0  0  0  0  0  0  0  0  0
  -23.7354   -9.9470   22.2557 C   0  0  0  0  0  0  0  0  0  0  0  0
  -17.8361  -28.9005   26.1006 C   0  0  0  0  0  0  0  0  0  0  0  0
  -19.6998  -28.2140   24.1509 C   0  0  0  0  0  0  0  0  0  0  0  0
  -24.0767  -29.9048   22.2459 C   0  0  0  0  0  0  0  0  0  0  0  0
  -22.0249   -9.0590   20.2387 C   0  0  0  0  0  0  0  0  0  0  0  0
  -22.9028   -8.8505   22.4799 C   0  0  0  0  0  0  0  0  0  0  0  0
  -24.9798  -28.9499   21.7807 C   0  0  0  0  0  0  0  0  0  0  0  0
  -22.8568   -5.5588   21.7096 C   0  0  0  0  0  0  0  0  0  0  0  0
  -23.4125   -4.4387   22.3279 C   0  0  0  0  0  0  0  0  0  0  0  0
  -29.0576  -26.3061   20.0221 C   0  0  0  0  0  0  0  0  0  0  0  0
  -24.2570  -29.3768   19.5192 C   0  0  0  0  0  0  0  0  0  0  0  0
  -21.8273   -4.6518   24.1387 C   0  0  0  0  0  0  0  0  0  0  0  0
  -29.5184  -25.1965   19.3484 C   0  0  0  0  0  0  0  0  0  0  0  0
  -23.7127  -10.5994   21.0231 C   0  0  0  0  0  0  0  0  0  0  0  0
  -24.2787  -13.0869   21.0338 C   0  0  0  0  0  0  0  0  0  0  0  0
  -17.6922  -29.4116   24.8011 C   0  0  0  0  0  0  0  0  0  0  0  0
  -23.2479  -30.5962   21.3508 C   0  0  0  0  0  0  0  0  0  0  0  0
  -18.6283  -29.0571   23.8109 C   0  0  0  0  0  0  0  0  0  0  0  0
  -23.3460  -30.3418   19.9754 C   0  0  0  0  0  0  0  0  0  0  0  0
  -27.6689  -26.1245   20.2363 C   0  0  0  0  0  0  0  0  0  0  0  0
  -22.0476   -8.4065   21.4713 C   0  0  0  0  0  0  0  0  0  0  0  0
  -25.0680  -28.6837   20.4175 C   0  0  0  0  0  0  0  0  0  0  0  0
  -21.7863   -6.2254   22.3059 C   0  0  0  0  0  0  0  0  0  0  0  0
  -22.8978   -3.9852   23.5424 C   0  0  0  0  0  0  0  0  0  0  0  0
  -21.2716   -5.7718   23.5204 C   0  0  0  0  0  0  0  0  0  0  0  0
  -24.5734  -11.7317   20.7920 C   0  0  0  0  0  0  0  0  0  0  0  0
  -27.3235  -24.9094   19.6871 C   0  0  0  0  0  0  0  0  0  0  0  0
  -25.4143  -13.7586   20.6523 C   0  0  0  0  0  0  0  0  0  0  0  0
  -23.0851  -13.6850   21.5565 C   0  0  0  0  0  0  0  0  0  0  0  0
  -20.1065  -30.8265   20.9235 C   0  0  0  0  0  0  0  0  0  0  0  0
  -20.9611  -33.0619   18.7337 C   0  0  0  0  0  0  0  0  0  0  0  0
  -23.3467  -34.2859   16.6224 C   0  0  0  0  0  0  0  0  0  0  0  0
  -30.9708  -14.2737   20.5787 C   0  0  0  0  0  0  0  0  0  0  0  0
  -16.4952  -30.2742   24.4887 C   0  0  0  0  0  0  0  0  0  0  0  0
  -22.2978  -31.6423   21.8660 C   0  0  0  0  0  0  0  0  0  0  0  0
  -22.4929  -31.0712   18.9711 C   0  0  0  0  0  0  0  0  0  0  0  0
  -16.6314  -31.0558   23.1846 C   0  0  0  0  0  0  0  0  0  0  0  0
  -29.4935  -12.1585   18.1251 C   0  0  0  0  0  0  0  0  0  0  0  0
  -17.1382  -30.1479   22.0685 C   0  0  0  0  0  0  0  0  0  0  0  0
  -28.0602  -11.9658   18.6234 C   0  0  0  0  0  0  0  0  0  0  0  0
  -29.9146  -21.7067   20.0770 C   0  0  0  0  0  0  0  0  0  0  0  0
  -28.0640  -20.6195   18.7585 C   0  0  0  0  0  0  0  0  0  0  0  0
  -30.4895  -12.2192   19.2811 C   0  0  0  0  0  0  0  0  0  0  0  0
  -28.7394  -13.0247   20.8180 C   0  0  0  0  0  0  0  0  0  0  0  0
  -29.9472  -20.5043   21.0104 C   0  0  0  0  0  0  0  0  0  0  0  0
  -28.1059  -19.4227   19.6989 C   0  0  0  0  0  0  0  0  0  0  0  0
  -18.5286  -29.5915   22.3986 C   0  0  1  0  0  0  0  0  0  0  0  0
  -21.1388  -31.9182   20.9132 C   0  0  1  0  0  0  0  0  0  0  0  0
  -28.5280  -21.9048   19.4536 C   0  0  0  0  0  0  0  0  0  0  0  0
  -27.6922  -13.0135   19.6913 C   0  0  2  0  0  0  0  0  0  0  0  0
  -26.0127  -24.2284   19.6268 C   0  0  0  0  0  0  0  0  0  0  0  0
  -23.7396  -36.1006   14.9343 C   0  0  0  0  0  0  0  0  0  0  0  0
  -19.2844  -31.5277   16.6978 C   0  0  0  0  0  0  0  0  0  0  0  0
  -20.4541  -32.7953   14.8832 C   0  0  0  0  0  0  0  0  0  0  0  0
  -19.0707  -34.0157   16.5623 C   0  0  0  0  0  0  0  0  0  0  0  0
  -25.5609  -35.4425   18.2094 C   0  0  0  0  0  0  0  0  0  0  0  0
  -26.7506  -27.0843   20.9340 C   0  0  0  0  0  0  0  0  0  1  0  0
  -28.5361  -23.0775   18.4754 C   0  0  0  0  0  0  0  0  0  0  0  0
  -31.0749  -17.5564   21.0639 C   0  0  0  0  0  0  0  0  0  0  0  0
  -31.2999  -16.3256   21.9355 C   0  0  0  0  0  0  0  0  0  0  0  0
  -29.6287  -18.0335   21.1011 C   0  0  0  0  0  0  0  0  0  0  0  0
  -21.2970  -33.0432   17.2621 C   0  0  1  0  0  0  0  0  0  0  0  0
  -23.8632  -35.6951   16.3948 C   0  0  2  0  0  0  0  0  0  0  0  0
  -20.0414  -32.8302   16.3702 C   0  0  0  0  0  0  0  0  0  0  0  0
  -25.8001  -11.5514   20.2952 N   0  0  0  0  0  0  0  0  0  0  0  0
  -28.4556  -24.3541   19.1505 N   0  0  0  0  0  0  0  0  0  0  0  0
  -26.2862  -12.8022   20.2216 N   0  0  0  0  0  0  0  0  0  0  0  0
  -21.5749  -32.0804   19.5247 N   0  0  0  0  0  0  0  0  0  0  0  0
  -30.0838  -13.2330   20.2576 N   0  0  0  0  0  0  0  0  0  0  0  0
  -25.7422  -15.0681   20.6464 N   0  0  0  0  0  0  0  0  0  0  0  0
  -22.0131  -12.8491   21.8979 N   0  0  0  0  0  0  0  0  0  0  0  0
  -19.5436  -30.5961   22.1643 N   0  0  0  0  0  0  0  0  0  0  0  0
  -22.0184  -34.2823   16.9923 N   0  0  0  0  0  0  0  0  0  0  0  0
  -30.5053  -15.1956   21.5083 N   0  0  0  0  0  0  0  0  0  0  0  0
  -29.4992  -19.2736   20.2601 N   0  3  0  0  0  0  0  0  0  0  0  0
  -25.2970  -35.7913   16.7896 N   0  3  0  0  0  0  0  0  0  0  0  0
  -22.9665  -14.9254   21.7008 O   0  0  0  0  0  0  0  0  0  0  0  0
  -19.8393  -30.2378   19.8825 O   0  0  0  0  0  0  0  0  0  0  0  0
  -20.1882  -33.9203   19.1667 O   0  0  0  0  0  0  0  0  0  0  0  0
  -24.0502  -33.2878   16.4823 O   0  0  0  0  0  0  0  0  0  0  0  0
  -32.0924  -14.3768   20.0705 O   0  0  0  0  0  0  0  0  0  0  0  0
  -21.2352   -7.3367   21.6904 O   0  0  0  0  0  0  0  0  0  0  0  0
  -25.9482  -27.7517   19.9608 O   0  0  0  0  0  0  0  0  0  1  0  0
  -23.4306   -2.9087   24.1353 F   0  0  0  0  0  0  0  0  0  0  0  0
  -20.2425   -6.4074   24.0974 F   0  0  0  0  0  0  0  0  0  0  0  0
  1  2  1  0  0  0  0
  1  5  2  0  0  0  0
  2  6  2  0  0  0  0
  3  8  2  0  0  0  0
  3 17  1  0  0  0  0
  4  9  1  0  0  0  0
  4 17  2  0  0  0  0
  5 19  1  0  0  0  0
  6 21  1  0  0  0  0
  7 10  2  0  0  0  0
  7 20  1  0  0  0  0
  8 24  1  0  0  0  0
  9 24  2  0  0  0  0
 10 25  1  0  0  0  0
 11 12  2  0  0  0  0
 11 26  1  0  0  0  0
 12 27  1  0  0  0  0
 13 16  2  0  0  0  0
 13 23  1  0  0  0  0
 14 22  1  0  0  0  0
 14 25  2  0  0  0  0
 15 27  2  0  0  0  0
 15 28  1  0  0  0  0
 16 69  1  0  0  0  0
 17 29  1  0  0  0  0
 18 29  1  0  0  0  0
 18 31  2  0  0  0  0
 18 32  1  0  0  0  0
 19 21  2  0  0  0  0
 19 37  1  0  0  0  0
 20 22  2  0  0  0  0
 20 38  1  0  0  0  0
 21 50  1  0  0  0  0
 22 39  1  0  0  0  0
 23 30  2  0  0  0  0
 23 60  1  0  0  0  0
 24 85  1  0  0  0  0
 25 86  1  0  0  0  0
 26 28  2  0  0  0  0
 26 85  1  0  0  0  0
 27 87  1  0  0  0  0
 28 88  1  0  0  0  0
 29 68  2  0  0  0  0
 30 54  1  0  0  0  0
 30 69  1  0  0  0  0
 31 70  1  0  0  0  0
 31 73  1  0  0  0  0
 32 74  1  0  0  0  0
 32 80  2  0  0  0  0
 33 51  1  0  0  0  0
 33 75  1  0  0  0  0
 33 81  2  0  0  0  0
 34 65  1  0  0  0  0
 34 71  1  0  0  0  0
 34 82  2  0  0  0  0
 35 66  1  0  0  0  0
 35 76  1  0  0  0  0
 35 83  2  0  0  0  0
 36 72  1  0  0  0  0
 36 77  1  0  0  0  0
 36 84  2  0  0  0  0
 37 40  1  0  0  0  0
 38 51  1  0  0  0  0
 39 71  1  0  0  0  0
 40 42  1  0  0  0  0
 41 43  1  0  0  0  0
 41 46  1  0  0  0  0
 42 50  1  0  0  0  0
 43 53  1  0  0  0  0
 44 48  1  0  0  0  0
 44 52  1  0  0  0  0
 45 49  1  0  0  0  0
 45 52  1  0  0  0  0
 46 72  1  0  0  0  0
 47 53  1  0  0  0  0
 47 72  1  0  0  0  0
 48 78  1  0  0  0  0
 49 78  1  0  0  0  0
 50 75  1  0  0  0  0
 51 71  1  0  0  0  0
 52 61  1  0  0  0  0
 53 70  1  0  0  0  0
 55 66  1  0  0  0  0
 56 67  1  0  0  0  0
 57 67  1  0  0  0  0
 58 67  1  0  0  0  0
 59 79  1  0  0  0  0
 60 86  1  0  0  0  0
 61 69  1  0  0  0  0
 62 63  1  0  0  0  0
 62 64  1  0  0  0  0
 63 77  1  0  0  0  0
 64 78  1  0  0  0  0
 65 67  1  0  0  0  0
 65 76  1  0  0  0  0
 66 79  1  0  0  0  0
 68 70  1  0  0  0  0
M  CHG  2  78   1  79   1
M  ISO  4  36 100  60 101  77 100  86 101
M  END
> <Batch ID>
0121

> <Smiles>
CNC(C)C(=O)NC(C(=O)N1Cc2cc([101O:1][101CH2:1]c3ccn(CC4CCN(CCC[100NH:0][100C:0](=O)N5CCCC(n6nc(-c7ccc(Oc8ccc(F)cc8F)cc7)c(C(N)=O)c6N)C5)CC4)c3C)ccc2CC1C(=O)NC1CCCc2ccccc21)C(C)(C)C

> <Shape>
0.345

> <Color>
0.205

> <Negative vol penalty>
0.000

$$$$

  -OEChem-04052320253D

 84 92  0     1  0  0  0  0  0999 V2000
  -31.6143  -18.6473   36.8945 C   0  0  0  0  0  0  0  0  0  0  0  0
  -32.5545  -18.3581   35.9108 C   0  0  0  0  0  0  0  0  0  0  0  0
  -23.0063   -9.8940   19.9826 C   0  0  0  0  0  0  0  0  0  0  0  0
  -23.7632   -9.9378   22.2766 C   0  0  0  0  0  0  0  0  0  0  0  0
  -30.5574  -17.7681   37.1271 C   0  0  0  0  0  0  0  0  0  0  0  0
  -32.4390  -17.1889   35.1597 C   0  0  0  0  0  0  0  0  0  0  0  0
  -33.9337  -16.4346   29.2688 C   0  0  0  0  0  0  0  0  0  0  0  0
  -31.8104  -14.5088   24.6499 C   0  0  0  0  0  0  0  0  0  0  0  0
  -22.2517   -8.7526   20.2533 C   0  0  0  0  0  0  0  0  0  0  0  0
  -23.0085   -8.7963   22.5473 C   0  0  0  0  0  0  0  0  0  0  0  0
  -35.0631  -15.9022   28.6484 C   0  0  0  0  0  0  0  0  0  0  0  0
  -23.2702   -5.4619   22.0537 C   0  0  0  0  0  0  0  0  0  0  0  0
  -23.8755   -4.4449   22.7919 C   0  0  0  0  0  0  0  0  0  0  0  0
  -32.7973  -13.6183   25.0577 C   0  0  0  0  0  0  0  0  0  0  0  0
  -33.9431  -13.7751   28.4483 C   0  0  0  0  0  0  0  0  0  0  0  0
  -22.1734   -4.6662   24.4923 C   0  0  0  0  0  0  0  0  0  0  0  0
  -33.4914  -15.7932   23.5631 C   0  0  0  0  0  0  0  0  0  0  0  0
  -23.7621  -10.4866   20.9943 C   0  0  0  0  0  0  0  0  0  0  0  0
  -24.1268  -13.0059   20.8268 C   0  0  0  0  0  0  0  0  0  0  0  0
  -30.4236  -16.5923   36.3720 C   0  0  0  0  0  0  0  0  0  0  0  0
  -32.8026  -15.6368   29.4938 C   0  0  0  0  0  0  0  0  0  0  0  0
  -31.3802  -16.2925   35.3834 C   0  0  0  0  0  0  0  0  0  0  0  0
  -32.7997  -14.3004   29.0695 C   0  0  0  0  0  0  0  0  0  0  0  0
  -32.1558  -15.6195   23.8881 C   0  0  0  0  0  0  0  0  0  0  0  0
  -22.2528   -8.2037   21.5357 C   0  0  0  0  0  0  0  0  0  0  0  0
  -35.0689  -14.5715   28.2406 C   0  0  0  0  0  0  0  0  0  0  0  0
  -22.1166   -6.0811   22.5347 C   0  0  0  0  0  0  0  0  0  0  0  0
  -23.3271   -4.0471   24.0112 C   0  0  0  0  0  0  0  0  0  0  0  0
  -21.5682   -5.6833   23.7540 C   0  0  0  0  0  0  0  0  0  0  0  0
  -24.5422  -11.6654   20.7151 C   0  0  0  0  0  0  0  0  0  0  0  0
  -34.1042  -13.8814   24.6802 C   0  0  0  0  0  0  0  0  0  0  0  0
  -25.2262  -13.7384   20.4510 C   0  0  0  0  0  0  0  0  0  0  0  0
  -22.8605  -13.5409   21.2339 C   0  0  0  0  0  0  0  0  0  0  0  0
  -31.2270  -14.6556   32.0743 C   0  0  0  0  0  0  0  0  0  0  0  0
  -29.1559  -13.4663   29.8792 C   0  0  0  0  0  0  0  0  0  0  0  0
  -28.6283  -12.3643   26.6926 C   0  0  0  0  0  0  0  0  0  0  0  0
  -30.7742  -14.6357   20.7331 C   0  0  0  0  0  0  0  0  0  0  0  0
  -29.2909  -15.6492   36.6918 C   0  0  0  0  0  0  0  0  0  0  0  0
  -31.5825  -16.2334   30.1403 C   0  0  0  0  0  0  0  0  0  0  0  0
  -31.6034  -13.4074   29.2695 C   0  0  0  0  0  0  0  0  0  0  0  0
  -29.0304  -14.6170   35.5977 C   0  0  0  0  0  0  0  0  0  0  0  0
  -29.5522  -12.3187   18.2754 C   0  0  0  0  0  0  0  0  0  0  0  0
  -30.3407  -13.9898   35.1326 C   0  0  0  0  0  0  0  0  0  0  0  0
  -28.1204  -12.0260   18.7181 C   0  0  0  0  0  0  0  0  0  0  0  0
  -30.4716  -12.5238   19.4743 C   0  0  0  0  0  0  0  0  0  0  0  0
  -28.5784  -13.3135   20.8582 C   0  0  0  0  0  0  0  0  0  0  0  0
  -31.2752  -15.0464   34.5311 C   0  0  1  0  0  0  0  0  0  0  0  0
  -30.6751  -15.1885   30.7823 C   0  0  1  0  0  0  0  0  0  0  0  0
  -27.6096  -13.1140   19.6772 C   0  0  2  0  0  0  0  0  0  0  0  0
  -31.3766  -18.0246   23.9258 C   0  0  0  0  0  0  0  0  0  0  0  0
  -27.3518  -11.5440   24.6939 C   0  0  0  0  0  0  0  0  0  0  0  0
  -37.9957  -15.2210   26.6085 C   0  0  0  0  0  0  0  0  0  0  0  0
  -29.4367  -10.7618   31.2637 C   0  0  0  0  0  0  0  0  0  0  0  0
  -28.4304   -9.6965   29.2338 C   0  0  0  0  0  0  0  0  0  0  0  0
  -27.1059  -11.3389   30.5645 C   0  0  0  0  0  0  0  0  0  0  0  0
  -28.0756  -15.1212   25.7691 C   0  0  0  0  0  0  0  0  0  0  0  0
  -35.2003  -12.9368   25.1043 C   0  0  0  0  0  0  0  0  0  0  0  0
  -36.5645  -13.6161   25.2931 C   0  0  0  0  0  0  0  0  0  0  0  0
  -31.1235  -16.5907   23.4368 C   0  0  1  0  0  0  0  0  0  0  0  0
  -29.0215  -12.1605   29.1336 C   0  0  1  0  0  0  0  0  0  0  0  0
  -27.5397  -12.6831   25.6838 C   0  0  2  0  0  0  0  0  0  0  0  0
  -36.5925  -14.6596   26.4166 C   0  0  1  0  0  0  0  0  0  1  0  0
  -28.5220  -11.0055   30.0467 C   0  0  0  0  0  0  0  0  0  0  0  0
  -34.4781  -14.9497   23.9409 N   0  0  0  0  0  0  0  0  0  0  0  0
  -25.8067  -11.5503   20.3006 N   0  0  0  0  0  0  0  0  0  0  0  0
  -26.1954  -12.8277   20.1485 N   0  0  0  0  0  0  0  0  0  0  0  0
  -30.4369  -14.0353   29.9119 N   0  0  0  0  0  0  0  0  0  0  0  0
  -29.9494  -13.5527   20.3780 N   0  0  0  0  0  0  0  0  0  0  0  0
  -25.4487  -15.0663   20.3530 N   0  0  0  0  0  0  0  0  0  0  0  0
  -21.8400  -12.6475   21.5869 N   0  0  0  0  0  0  0  0  0  0  0  0
  -30.8567  -15.3853   33.1878 N   0  0  0  0  0  0  0  0  0  0  0  0
  -28.1600  -12.4315   27.9878 N   0  0  0  0  0  0  0  0  0  0  0  0
  -30.2017  -15.5658   21.5882 N   0  0  0  0  0  0  0  0  0  0  0  0
  -27.8850  -13.9161   24.9214 N   0  3  0  0  0  0  0  0  0  0  0  0
  -30.9723  -16.6521   21.9636 N   0  3  0  0  0  0  0  0  0  0  0  0
  -22.6353  -14.7745   21.2675 O   0  0  0  0  0  0  0  0  0  0  0  0
  -31.9352  -13.6556   32.0620 O   0  0  0  0  0  0  0  0  0  0  0  0
  -28.1595  -13.9668   30.4068 O   0  0  0  0  0  0  0  0  0  0  0  0
  -29.7781  -12.0801   26.3644 O   0  0  0  0  0  0  0  0  0  0  0  0
  -31.9301  -14.7590   20.3130 O   0  0  0  0  0  0  0  0  0  0  0  0
  -21.5164   -7.0901   21.8003 O   0  0  0  0  0  0  0  0  0  0  0  0
  -36.1702  -14.0492   27.6354 O   0  0  0  0  0  0  0  0  0  1  0  0
  -23.9075   -3.0694   24.7193 F   0  0  0  0  0  0  0  0  0  0  0  0
  -20.4594   -6.2736   24.2207 F   0  0  0  0  0  0  0  0  0  0  0  0
  1  2  1  0  0  0  0
  1  5  2  0  0  0  0
  2  6  2  0  0  0  0
  3  9  2  0  0  0  0
  3 18  1  0  0  0  0
  4 10  1  0  0  0  0
  4 18  2  0  0  0  0
  5 20  1  0  0  0  0
  6 22  1  0  0  0  0
  7 11  2  0  0  0  0
  7 21  1  0  0  0  0
  8 14  2  0  0  0  0
  8 24  1  0  0  0  0
  9 25  1  0  0  0  0
 10 25  2  0  0  0  0
 11 26  1  0  0  0  0
 12 13  2  0  0  0  0
 12 27  1  0  0  0  0
 13 28  1  0  0  0  0
 14 31  1  0  0  0  0
 15 23  1  0  0  0  0
 15 26  2  0  0  0  0
 16 28  2  0  0  0  0
 16 29  1  0  0  0  0
 17 24  2  0  0  0  0
 17 64  1  0  0  0  0
 18 30  1  0  0  0  0
 19 30  1  0  0  0  0
 19 32  2  0  0  0  0
 19 33  1  0  0  0  0
 20 22  2  0  0  0  0
 20 38  1  0  0  0  0
 21 23  2  0  0  0  0
 21 39  1  0  0  0  0
 22 47  1  0  0  0  0
 23 40  1  0  0  0  0
 24 59  1  0  0  0  0
 25 81  1  0  0  0  0
 26 82  1  0  0  0  0
 27 29  2  0  0  0  0
 27 81  1  0  0  0  0
 28 83  1  0  0  0  0
 29 84  1  0  0  0  0
 30 65  2  0  0  0  0
 31 57  1  0  0  0  0
 31 64  2  0  0  0  0
 32 66  1  0  0  0  0
 32 69  1  0  0  0  0
 33 70  1  0  0  0  0
 33 76  2  0  0  0  0
 34 48  1  0  0  0  0
 34 71  1  0  0  0  0
 34 77  2  0  0  0  0
 35 60  1  0  0  0  0
 35 67  1  0  0  0  0
 35 78  2  0  0  0  0
 36 61  1  0  0  0  0
 36 72  1  0  0  0  0
 36 79  2  0  0  0  0
 37 68  1  0  0  0  0
 37 73  1  0  0  0  0
 37 80  2  0  0  0  0
 38 41  1  0  0  0  0
 39 48  1  0  0  0  0
 40 67  1  0  0  0  0
 41 43  1  0  0  0  0
 42 44  1  0  0  0  0
 42 45  1  0  0  0  0
 43 47  1  0  0  0  0
 44 49  1  0  0  0  0
 45 68  1  0  0  0  0
 46 49  1  0  0  0  0
 46 68  1  0  0  0  0
 47 71  1  0  0  0  0
 48 67  1  0  0  0  0
 49 66  1  0  0  0  0
 50 59  1  0  0  0  0
 51 61  1  0  0  0  0
 52 62  1  0  0  0  0
 53 63  1  0  0  0  0
 54 63  1  0  0  0  0
 55 63  1  0  0  0  0
 56 74  1  0  0  0  0
 57 58  1  0  0  0  0
 58 62  1  0  0  0  0
 59 75  1  0  0  0  0
 60 63  1  0  0  0  0
 60 72  1  0  0  0  0
 61 74  1  0  0  0  0
 62 82  1  0  0  0  0
 65 66  1  0  0  0  0
 73 75  1  0  0  0  0
M  CHG  2  74   1  75   1
M  ISO  4  37 100  62 101  73 100  82 101
M  END
> <Batch ID>
0121

> <Smiles>
CNC(C)C(=O)NC(C(=O)N1Cc2cc([101O:1][101CH:1](C)CCc3ccc(C(C)N[100NH:0][100C:0](=O)N4CCCC(n5nc(-c6ccc(Oc7ccc(F)cc7F)cc6)c(C(N)=O)c5N)C4)cn3)ccc2CC1C(=O)NC1CCCc2ccccc21)C(C)(C)C

> <Shape>
0.168

> <Color>
0.195

> <Negative vol penalty>
0.000

$$$$

  -OEChem-04052320253D

 87 96  0     1  0  0  0  0  0999 V2000
  -38.6675  -21.2633   14.4920 C   0  0  0  0  0  0  0  0  0  0  0  0
  -37.5234  -22.0400   14.3400 C   0  0  0  0  0  0  0  0  0  0  0  0
  -23.1100   -9.7947   20.0176 C   0  0  0  0  0  0  0  0  0  0  0  0
  -23.7752   -9.9907   22.3319 C   0  0  0  0  0  0  0  0  0  0  0  0
  -38.8680  -20.5423   15.6685 C   0  0  0  0  0  0  0  0  0  0  0  0
  -36.5785  -22.0954   15.3640 C   0  0  0  0  0  0  0  0  0  0  0  0
  -31.8596  -26.5687   18.3703 C   0  0  0  0  0  0  0  0  0  0  0  0
  -22.3871   -8.6416   20.3230 C   0  0  0  0  0  0  0  0  0  0  0  0
  -23.0522   -8.8376   22.6373 C   0  0  0  0  0  0  0  0  0  0  0  0
  -30.5144  -26.6320   18.7312 C   0  0  0  0  0  0  0  0  0  0  0  0
  -23.4527   -5.4937   22.3386 C   0  0  0  0  0  0  0  0  0  0  0  0
  -24.0650   -4.5418   23.1537 C   0  0  0  0  0  0  0  0  0  0  0  0
  -31.1508  -19.7215   22.4482 C   0  0  0  0  0  0  0  0  0  0  0  0
  -31.0048  -25.4073   20.7508 C   0  0  0  0  0  0  0  0  0  0  0  0
  -29.4601  -18.0111   22.4681 C   0  0  0  0  0  0  0  0  0  0  0  0
  -22.2914   -4.7894   24.7754 C   0  0  0  0  0  0  0  0  0  0  0  0
  -31.9478  -18.8497   21.7240 C   0  0  0  0  0  0  0  0  0  0  0  0
  -23.8041  -10.4693   21.0221 C   0  0  0  0  0  0  0  0  0  0  0  0
  -24.0842  -12.9879   20.7292 C   0  0  0  0  0  0  0  0  0  0  0  0
  -37.9298  -20.5965   16.7112 C   0  0  0  0  0  0  0  0  0  0  0  0
  -32.7872  -25.9137   19.1931 C   0  0  0  0  0  0  0  0  0  0  0  0
  -36.7660  -21.3734   16.5549 C   0  0  0  0  0  0  0  0  0  0  0  0
  -32.3617  -25.3393   20.3994 C   0  0  0  0  0  0  0  0  0  0  0  0
  -29.8846  -19.2866   22.8234 C   0  0  0  0  0  0  0  0  0  0  0  0
  -22.3581   -8.1630   21.6328 C   0  0  0  0  0  0  0  0  0  0  0  0
  -30.0863  -26.0487   19.9201 C   0  0  0  0  0  0  0  0  0  0  0  0
  -22.2597   -6.0936   22.7419 C   0  0  0  0  0  0  0  0  0  0  0  0
  -23.4844   -4.1896   24.3720 C   0  0  0  0  0  0  0  0  0  0  0  0
  -21.6791   -5.7414   23.9603 C   0  0  0  0  0  0  0  0  0  0  0  0
  -24.5516  -11.6601   20.7071 C   0  0  0  0  0  0  0  0  0  0  0  0
  -30.3327  -17.2159   21.7429 C   0  0  0  0  0  0  0  0  0  0  0  0
  -25.1703  -13.7405   20.3542 C   0  0  0  0  0  0  0  0  0  0  0  0
  -22.7846  -13.4955   21.0593 C   0  0  0  0  0  0  0  0  0  0  0  0
  -34.7030  -23.3998   18.8550 C   0  0  0  0  0  0  0  0  0  0  0  0
  -35.7843  -24.3227   21.7707 C   0  0  0  0  0  0  0  0  0  0  0  0
  -35.1830  -25.9818   24.6918 C   0  0  0  0  0  0  0  0  0  0  0  0
  -30.5954  -14.9550   20.6632 C   0  0  0  0  0  0  0  0  0  0  0  0
  -38.1670  -19.7625   17.9453 C   0  0  0  0  0  0  0  0  0  0  0  0
  -34.2394  -25.8774   18.8027 C   0  0  0  0  0  0  0  0  0  0  0  0
  -33.3211  -24.6420   21.3276 C   0  0  0  0  0  0  0  0  0  0  0  0
  -37.2992  -20.1712   19.1328 C   0  0  0  0  0  0  0  0  0  0  0  0
  -29.6424  -12.3438   18.4383 C   0  0  0  0  0  0  0  0  0  0  0  0
  -35.8502  -20.3600   18.6951 C   0  0  0  0  0  0  0  0  0  0  0  0
  -28.1946  -12.0424   18.8320 C   0  0  0  0  0  0  0  0  0  0  0  0
  -26.1023  -22.2754   22.6865 C   0  0  0  0  0  0  0  0  0  0  0  0
  -30.5013  -12.6860   19.6543 C   0  0  0  0  0  0  0  0  0  0  0  0
  -26.7860  -21.2370   23.5770 C   0  0  0  0  0  0  0  0  0  0  0  0
  -28.5212  -13.4531   20.9033 C   0  0  0  0  0  0  0  0  0  0  0  0
  -28.3714  -21.8986   21.9919 C   0  0  0  0  0  0  0  0  0  0  0  0
  -35.7300  -21.4786   17.6530 C   0  0  1  0  0  0  0  0  0  0  0  0
  -35.0080  -24.7385   19.4655 C   0  0  1  0  0  0  0  0  0  0  0  0
  -27.6022  -13.1663   19.7046 C   0  0  2  0  0  0  0  0  0  0  0  0
  -27.0409  -22.4311   21.4986 C   0  0  2  0  0  0  0  0  0  0  0  0
  -36.2417  -26.5295   26.9001 C   0  0  0  0  0  0  0  0  0  0  0  0
  -26.5194  -26.2849   19.4389 C   0  0  0  0  0  0  0  0  0  0  0  0
  -35.2414  -21.4787   22.7336 C   0  0  0  0  0  0  0  0  0  0  0  0
  -35.3991  -22.3197   25.0865 C   0  0  0  0  0  0  0  0  0  0  0  0
  -37.3762  -22.4747   23.5733 C   0  0  0  0  0  0  0  0  0  0  0  0
  -35.0605  -28.8907   24.1605 C   0  0  0  0  0  0  0  0  0  0  0  0
  -28.9798  -20.1910   23.6092 C   0  0  0  0  0  0  0  0  0  0  0  0
  -27.7004  -24.0326   19.7152 C   0  0  0  0  0  0  0  0  0  0  0  0
  -35.4050  -24.0131   23.1988 C   0  0  1  0  0  0  0  0  0  0  0  0
  -36.0134  -26.9879   25.4682 C   0  0  2  0  0  0  0  0  0  0  0  0
  -27.8323  -25.5150   19.3812 C   0  0  2  0  0  0  0  0  0  1  0  0
  -35.8368  -22.5829   23.6298 C   0  0  0  0  0  0  0  0  0  0  0  0
  -31.5701  -17.6036   21.3604 N   0  0  0  0  0  0  0  0  0  0  0  0
  -25.8346  -11.5711   20.3464 N   0  0  0  0  0  0  0  0  0  0  0  0
  -26.1826  -12.8523   20.1384 N   0  0  0  0  0  0  0  0  0  0  0  0
  -34.7295  -24.6276   20.8988 N   0  0  0  0  0  0  0  0  0  0  0  0
  -29.8801  -13.7612   20.4308 N   0  0  0  0  0  0  0  0  0  0  0  0
  -27.9207  -20.7520   22.7844 N   0  0  1  0  0  0  0  0  0  0  0  0
  -25.3485  -15.0687   20.1913 N   0  0  0  0  0  0  0  0  0  0  0  0
  -21.7839  -12.5842   21.4232 N   0  0  0  0  0  0  0  0  0  0  0  0
  -29.8911  -15.9178   21.3853 N   0  0  0  0  0  0  0  0  0  0  0  0
  -35.7996  -22.7749   18.2927 N   0  0  0  0  0  0  0  0  0  0  0  0
  -35.9757  -25.0805   24.0133 N   0  0  0  0  0  0  0  0  0  0  0  0
  -27.1497  -23.8404   21.0799 N   0  3  0  0  0  0  0  0  0  0  0  0
  -35.3269  -28.3102   25.5018 N   0  3  0  0  0  0  0  0  0  0  0  0
  -22.5140  -14.7196   21.0163 O   0  0  0  0  0  0  0  0  0  0  0  0
  -33.5577  -22.9654   18.8928 O   0  0  0  0  0  0  0  0  0  0  0  0
  -36.9732  -24.3021   21.4427 O   0  0  0  0  0  0  0  0  0  0  0  0
  -33.9540  -25.9921   24.6906 O   0  0  0  0  0  0  0  0  0  0  0  0
  -31.7379  -15.1221   20.2286 O   0  0  0  0  0  0  0  0  0  0  0  0
  -21.6526   -7.0380   21.9312 O   0  0  0  0  0  0  0  0  0  0  0  0
  -28.7738  -26.1084   20.2744 O   0  0  0  0  0  0  0  0  0  1  0  0
  -24.0717   -3.2742   25.1539 F   0  0  0  0  0  0  0  0  0  0  0  0
  -20.5324   -6.3134   24.3526 F   0  0  0  0  0  0  0  0  0  0  0  0
  1  2  1  0  0  0  0
  1  5  2  0  0  0  0
  2  6  2  0  0  0  0
  3  8  2  0  0  0  0
  3 18  1  0  0  0  0
  4  9  1  0  0  0  0
  4 18  2  0  0  0  0
  5 20  1  0  0  0  0
  6 22  1  0  0  0  0
  7 10  2  0  0  0  0
  7 21  1  0  0  0  0
  8 25  1  0  0  0  0
  9 25  2  0  0  0  0
 10 26  1  0  0  0  0
 11 12  2  0  0  0  0
 11 27  1  0  0  0  0
 12 28  1  0  0  0  0
 13 17  2  0  0  0  0
 13 24  1  0  0  0  0
 14 23  1  0  0  0  0
 14 26  2  0  0  0  0
 15 24  2  0  0  0  0
 15 31  1  0  0  0  0
 16 28  2  0  0  0  0
 16 29  1  0  0  0  0
 17 66  1  0  0  0  0
 18 30  1  0  0  0  0
 19 30  1  0  0  0  0
 19 32  2  0  0  0  0
 19 33  1  0  0  0  0
 20 22  2  0  0  0  0
 20 38  1  0  0  0  0
 21 23  2  0  0  0  0
 21 39  1  0  0  0  0
 22 50  1  0  0  0  0
 23 40  1  0  0  0  0
 24 60  1  0  0  0  0
 25 84  1  0  0  0  0
 26 85  1  0  0  0  0
 27 29  2  0  0  0  0
 27 84  1  0  0  0  0
 28 86  1  0  0  0  0
 29 87  1  0  0  0  0
 30 67  2  0  0  0  0
 31 66  2  0  0  0  0
 31 74  1  0  0  0  0
 32 68  1  0  0  0  0
 32 72  1  0  0  0  0
 33 73  1  0  0  0  0
 33 79  2  0  0  0  0
 34 51  1  0  0  0  0
 34 75  1  0  0  0  0
 34 80  2  0  0  0  0
 35 62  1  0  0  0  0
 35 69  1  0  0  0  0
 35 81  2  0  0  0  0
 36 63  1  0  0  0  0
 36 76  1  0  0  0  0
 36 82  2  0  0  0  0
 37 70  1  0  0  0  0
 37 74  1  0  0  0  0
 37 83  2  0  0  0  0
 38 41  1  0  0  0  0
 39 51  1  0  0  0  0
 40 69  1  0  0  0  0
 41 43  1  0  0  0  0
 42 44  1  0  0  0  0
 42 46  1  0  0  0  0
 43 50  1  0  0  0  0
 44 52  1  0  0  0  0
 45 47  1  0  0  0  0
 45 53  1  0  0  0  0
 46 70  1  0  0  0  0
 47 71  1  0  0  0  0
 48 52  1  0  0  0  0
 48 70  1  0  0  0  0
 49 53  1  0  0  0  0
 49 71  1  0  0  0  0
 50 75  1  0  0  0  0
 51 69  1  0  0  0  0
 52 68  1  0  0  0  0
 53 77  1  0  0  0  0
 54 63  1  0  0  0  0
 55 64  1  0  0  0  0
 56 65  1  0  0  0  0
 57 65  1  0  0  0  0
 58 65  1  0  0  0  0
 59 78  1  0  0  0  0
 60 71  1  0  0  0  0
 61 64  1  0  0  0  0
 61 77  1  0  0  0  0
 62 65  1  0  0  0  0
 62 76  1  0  0  0  0
 63 78  1  0  0  0  0
 64 85  1  0  0  0  0
 67 68  1  0  0  0  0
M  CHG  2  77   1  78   1
M  ISO  4  37 100  64 101  74 100  85 101
M  END
> <Batch ID>
0121

> <Smiles>
CNC(C)C(=O)NC(C(=O)N1Cc2cc([101O:1][101CH:1](C)CNC3CCN(Cc4ccnc([100NH:0][100C:0](=O)N5CCCC(n6nc(-c7ccc(Oc8ccc(F)cc8F)cc7)c(C(N)=O)c6N)C5)c4)C3)ccc2CC1C(=O)NC1CCCc2ccccc21)C(C)(C)C

> <Shape>
0.219

> <Color>
0.192

> <Negative vol penalty>
0.000

$$$$

  -OEChem-04052320253D

 88 97  0     1  0  0  0  0  0999 V2000
  -29.8237  -20.8377   16.2326 C   0  0  0  0  0  0  0  0  0  0  0  0
  -28.9172  -20.9109   17.2854 C   0  0  0  0  0  0  0  0  0  0  0  0
  -22.8725   -9.8620   20.0034 C   0  0  0  0  0  0  0  0  0  0  0  0
  -24.3772   -9.3257   21.8159 C   0  0  0  0  0  0  0  0  0  0  0  0
  -30.6992  -21.8960   15.9932 C   0  0  0  0  0  0  0  0  0  0  0  0
  -28.8865  -22.0422   18.1002 C   0  0  0  0  0  0  0  0  0  0  0  0
  -24.1724  -23.6490   19.0166 C   0  0  0  0  0  0  0  0  0  0  0  0
  -26.5306  -18.8730   24.0030 C   0  0  0  0  0  0  0  0  0  0  0  0
  -22.2046   -8.6534   20.2003 C   0  0  0  0  0  0  0  0  0  0  0  0
  -23.7092   -8.1171   22.0129 C   0  0  0  0  0  0  0  0  0  0  0  0
  -23.4358  -22.9499   19.9719 C   0  0  0  0  0  0  0  0  0  0  0  0
  -20.8526   -7.0619   23.4780 C   0  0  0  0  0  0  0  0  0  0  0  0
  -20.5458   -6.6990   24.7894 C   0  0  0  0  0  0  0  0  0  0  0  0
  -25.2826  -19.3265   24.4155 C   0  0  0  0  0  0  0  0  0  0  0  0
  -23.9385  -24.6573   21.6002 C   0  0  0  0  0  0  0  0  0  0  0  0
  -21.8674   -4.6916   24.5431 C   0  0  0  0  0  0  0  0  0  0  0  0
  -23.9589  -10.1981   20.8111 C   0  0  0  0  0  0  0  0  0  0  0  0
  -24.1068  -12.7422   20.6944 C   0  0  0  0  0  0  0  0  0  0  0  0
  -30.6726  -23.0449   16.7994 C   0  0  0  0  0  0  0  0  0  0  0  0
  -24.8077  -24.8540   19.3495 C   0  0  0  0  0  0  0  0  0  0  0  0
  -29.7634  -23.1163   17.8721 C   0  0  0  0  0  0  0  0  0  0  0  0
  -27.3207  -19.6749   23.1869 C   0  0  0  0  0  0  0  0  0  0  0  0
  -24.6804  -25.3710   20.6466 C   0  0  0  0  0  0  0  0  0  0  0  0
  -22.6229   -7.7810   21.2050 C   0  0  0  0  0  0  0  0  0  0  0  0
  -23.3212  -23.4525   21.2647 C   0  0  0  0  0  0  0  0  0  0  0  0
  -21.6668   -6.2396   22.6991 C   0  0  0  0  0  0  0  0  0  0  0  0
  -21.0532   -5.5138   25.3219 C   0  0  0  0  0  0  0  0  0  0  0  0
  -22.1742   -5.0545   23.2317 C   0  0  0  0  0  0  0  0  0  0  0  0
  -24.6497  -11.4462   20.6079 C   0  0  0  0  0  0  0  0  0  0  0  0
  -24.8740  -20.5794   23.9876 C   0  0  0  0  0  0  0  0  0  0  0  0
  -26.8207  -20.9121   22.8139 C   0  0  0  0  0  0  0  0  0  0  0  0
  -25.1628  -13.5759   20.4183 C   0  0  0  0  0  0  0  0  0  0  0  0
  -22.7678  -13.1554   20.9974 C   0  0  0  0  0  0  0  0  0  0  0  0
  -27.8235  -25.8559   19.4162 C   0  0  0  0  0  0  0  0  0  0  0  0
  -26.4492  -28.7160   20.0894 C   0  0  0  0  0  0  0  0  0  0  0  0
  -23.7396  -29.9162   22.1474 C   0  0  0  0  0  0  0  0  0  0  0  0
  -30.4244  -15.0852   20.9144 C   0  0  0  0  0  0  0  0  0  0  0  0
  -31.6706  -24.1434   16.5309 C   0  0  0  0  0  0  0  0  0  0  0  0
  -25.5763  -25.6096   18.3003 C   0  0  0  0  0  0  0  0  0  0  0  0
  -25.3263  -26.6707   21.0492 C   0  0  0  0  0  0  0  0  0  0  0  0
  -31.3192  -25.4648   17.2096 C   0  0  0  0  0  0  0  0  0  0  0  0
  -29.7695  -12.5824   18.6050 C   0  0  0  0  0  0  0  0  0  0  0  0
  -30.9259  -25.2297   18.6645 C   0  0  0  0  0  0  0  0  0  0  0  0
  -28.3355  -12.1584   18.9194 C   0  0  0  0  0  0  0  0  0  0  0  0
  -31.2369  -17.7417   23.0779 C   0  0  0  0  0  0  0  0  0  0  0  0
  -28.7480  -17.6540   22.6352 C   0  0  0  0  0  0  0  0  0  0  0  0
  -30.5549  -12.8376   19.8859 C   0  0  0  0  0  0  0  0  0  0  0  0
  -28.4920  -13.4499   21.1067 C   0  0  0  0  0  0  0  0  0  0  0  0
  -31.1610  -19.2578   23.1730 C   0  0  0  0  0  0  0  0  0  0  0  0
  -29.6829  -24.3372   18.7627 C   0  0  1  0  0  0  0  0  0  0  0  0
  -28.6795  -19.1863   22.7336 C   0  0  2  0  0  0  0  0  0  0  0  0
  -26.6088  -26.5660   18.8889 C   0  0  1  0  0  0  0  0  0  0  0  0
  -27.6489  -13.1792   19.8436 C   0  0  2  0  0  0  0  0  0  0  0  0
  -30.1322  -17.1811   22.1792 C   0  0  2  0  0  0  0  0  0  0  0  0
  -27.6266  -21.8172   21.9409 C   0  0  0  0  0  0  0  0  0  0  0  0
  -22.2798  -31.9428   21.9038 C   0  0  0  0  0  0  0  0  0  0  0  0
  -28.4787  -30.0431   21.9415 C   0  0  0  0  0  0  0  0  0  0  0  0
  -26.5792  -31.2357   23.0541 C   0  0  0  0  0  0  0  0  0  0  0  0
  -27.0575  -31.6361   20.6388 C   0  0  0  0  0  0  0  0  0  0  0  0
  -30.2703  -15.0651   23.4404 C   0  0  0  0  0  0  0  0  0  0  0  0
  -21.2688  -28.2889   22.2248 C   0  0  0  0  0  0  0  0  0  0  0  0
  -23.5270  -21.1036   24.4172 C   0  0  0  0  0  0  0  0  0  0  0  0
  -22.3907  -20.7409   23.4587 C   0  0  0  0  0  0  0  0  0  0  0  0
  -22.5528  -21.3515   22.0715 C   0  0  0  0  0  0  0  0  0  1  0  0
  -26.0397  -29.4345   21.3524 C   0  0  1  0  0  0  0  0  0  0  0  0
  -22.3999  -30.4452   21.6681 C   0  0  2  0  0  0  0  0  0  0  0  0
  -27.0391  -30.5589   21.7452 C   0  0  0  0  0  0  0  0  0  0  0  0
  -25.9495  -11.4510   20.3006 N   0  0  0  0  0  0  0  0  0  0  0  0
  -25.6135  -21.3868   23.1947 N   0  0  0  0  0  0  0  0  0  0  0  0
  -26.2323  -12.7603   20.1917 N   0  0  0  0  0  0  0  0  0  0  0  0
  -26.0725  -27.3692   19.9895 N   0  0  0  0  0  0  0  0  0  0  0  0
  -29.8714  -13.8077   20.7418 N   0  0  0  0  0  0  0  0  0  0  0  0
  -25.2716  -14.9197   20.3497 N   0  0  0  0  0  0  0  0  0  0  0  0
  -22.4268  -13.3865   22.3370 N   0  0  0  0  0  0  0  0  0  0  0  0
  -28.4885  -25.1001   18.4696 N   0  0  0  0  0  0  0  0  0  0  0  0
  -24.6740  -29.8986   21.1335 N   0  0  0  0  0  0  0  0  0  0  0  0
  -30.1877  -15.7267   22.1395 N   0  0  0  0  0  0  0  0  0  0  0  0
  -29.7968  -19.6561   23.6322 N   0  3  0  0  0  0  0  0  0  0  0  0
  -21.2867  -29.7653   22.3889 N   0  3  0  0  0  0  0  0  0  0  0  0
  -21.8948  -13.2992   20.1081 O   0  0  0  0  0  0  0  0  0  0  0  0
  -28.1353  -25.9855   20.5942 O   0  0  0  0  0  0  0  0  0  0  0  0
  -27.0739  -29.3293   19.2203 O   0  0  0  0  0  0  0  0  0  0  0  0
  -23.9385  -29.5582   23.3062 O   0  0  0  0  0  0  0  0  0  0  0  0
  -31.0994  -15.6214   20.0261 O   0  0  0  0  0  0  0  0  0  0  0  0
  -21.9712   -6.6017   21.3976 O   0  0  0  0  0  0  0  0  0  0  0  0
  -22.6034  -22.7718   22.1992 O   0  0  0  0  0  0  0  0  0  1  0  0
  -20.7597   -5.1662   26.5818 F   0  0  0  0  0  0  0  0  0  0  0  0
  -22.9579   -4.2611   22.4886 F   0  0  0  0  0  0  0  0  0  0  0  0
  1  2  1  0  0  0  0
  1  5  2  0  0  0  0
  2  6  2  0  0  0  0
  3  9  2  0  0  0  0
  3 17  1  0  0  0  0
  4 10  1  0  0  0  0
  4 17  2  0  0  0  0
  5 19  1  0  0  0  0
  6 21  1  0  0  0  0
  7 11  2  0  0  0  0
  7 20  1  0  0  0  0
  8 14  2  0  0  0  0
  8 22  1  0  0  0  0
  9 24  1  0  0  0  0
 10 24  2  0  0  0  0
 11 25  1  0  0  0  0
 12 13  2  0  0  0  0
 12 26  1  0  0  0  0
 13 27  1  0  0  0  0
 14 30  1  0  0  0  0
 15 23  1  0  0  0  0
 15 25  2  0  0  0  0
 16 27  2  0  0  0  0
 16 28  1  0  0  0  0
 17 29  1  0  0  0  0
 18 29  1  0  0  0  0
 18 32  2  0  0  0  0
 18 33  1  0  0  0  0
 19 21  2  0  0  0  0
 19 38  1  0  0  0  0
 20 23  2  0  0  0  0
 20 39  1  0  0  0  0
 21 50  1  0  0  0  0
 22 31  2  0  0  0  0
 22 51  1  0  0  0  0
 23 40  1  0  0  0  0
 24 85  1  0  0  0  0
 25 86  1  0  0  0  0
 26 28  2  0  0  0  0
 26 85  1  0  0  0  0
 27 87  1  0  0  0  0
 28 88  1  0  0  0  0
 29 68  2  0  0  0  0
 30 62  1  0  0  0  0
 30 69  2  0  0  0  0
 31 55  1  0  0  0  0
 31 69  1  0  0  0  0
 32 70  1  0  0  0  0
 32 73  1  0  0  0  0
 33 74  1  0  0  0  0
 33 80  2  0  0  0  0
 34 52  1  0  0  0  0
 34 75  1  0  0  0  0
 34 81  2  0  0  0  0
 35 65  1  0  0  0  0
 35 71  1  0  0  0  0
 35 82  2  0  0  0  0
 36 66  1  0  0  0  0
 36 76  1  0  0  0  0
 36 83  2  0  0  0  0
 37 72  1  0  0  0  0
 37 77  1  0  0  0  0
 37 84  2  0  0  0  0
 38 41  1  0  0  0  0
 39 52  1  0  0  0  0
 40 71  1  0  0  0  0
 41 43  1  0  0  0  0
 42 44  1  0  0  0  0
 42 47  1  0  0  0  0
 43 50  1  0  0  0  0
 44 53  1  0  0  0  0
 45 49  1  0  0  0  0
 45 54  1  0  0  0  0
 46 51  1  0  0  0  0
 46 54  1  0  0  0  0
 47 72  1  0  0  0  0
 48 53  1  0  0  0  0
 48 72  1  0  0  0  0
 49 78  1  0  0  0  0
 50 75  1  0  0  0  0
 51 78  1  0  0  0  0
 52 71  1  0  0  0  0
 53 70  1  0  0  0  0
 54 77  1  0  0  0  0
 56 66  1  0  0  0  0
 57 67  1  0  0  0  0
 58 67  1  0  0  0  0
 59 67  1  0  0  0  0
 60 77  1  0  0  0  0
 61 79  1  0  0  0  0
 62 63  1  0  0  0  0
 63 64  1  0  0  0  0
 64 86  1  0  0  0  0
 65 67  1  0  0  0  0
 65 76  1  0  0  0  0
 66 79  1  0  0  0  0
 68 70  1  0  0  0  0
M  CHG  2  78   1  79   1
M  ISO  4  37 100  64 101  77 100  86 101
M  END
> <Batch ID>
0121

> <Smiles>
CNC(C)C(=O)NC(C(=O)N1Cc2cc([101O:1][101CH2:1]CCc3ccc(C4CC([100N:0](C)[100C:0](=O)N5CCCC(n6nc(-c7ccc(Oc8ccc(F)cc8F)cc7)c(C(N)=O)c6N)C5)CCN4)c(C)n3)ccc2CC1C(=O)NC1CCCc2ccccc21)C(C)(C)C

> <Shape>
0.337

> <Color>
0.195

> <Negative vol penalty>
0.000

$$$$

  -OEChem-04052320253D

 92102  0     1  0  0  0  0  0999 V2000
  -27.4608  -36.1246   28.1561 C   0  0  0  0  0  0  0  0  0  0  0  0
  -27.4663  -34.7463   27.9671 C   0  0  0  0  0  0  0  0  0  0  0  0
  -24.0773   -9.9907   22.6365 C   0  0  0  0  0  0  0  0  0  0  0  0
  -25.2301   -9.0053   20.7558 C   0  0  0  0  0  0  0  0  0  0  0  0
  -26.5193  -36.9138   27.4969 C   0  0  0  0  0  0  0  0  0  0  0  0
  -26.5293  -34.1563   27.1195 C   0  0  0  0  0  0  0  0  0  0  0  0
  -28.5938  -30.7000   24.0474 C   0  0  0  0  0  0  0  0  0  0  0  0
  -23.7868   -8.7172   23.1257 C   0  0  0  0  0  0  0  0  0  0  0  0
  -24.9396   -7.7318   21.2450 C   0  0  0  0  0  0  0  0  0  0  0  0
  -28.8758  -29.4491   24.5947 C   0  0  0  0  0  0  0  0  0  0  0  0
  -21.5677   -6.2496   22.4848 C   0  0  0  0  0  0  0  0  0  0  0  0
  -20.2698   -6.0101   22.9362 C   0  0  0  0  0  0  0  0  0  0  0  0
  -26.8533  -28.5716   23.6155 C   0  0  0  0  0  0  0  0  0  0  0  0
  -21.1305   -5.4833   25.1314 C   0  0  0  0  0  0  0  0  0  0  0  0
  -24.7989  -10.1348   21.4515 C   0  0  0  0  0  0  0  0  0  0  0  0
  -24.1784  -12.4496   20.5774 C   0  0  0  0  0  0  0  0  0  0  0  0
  -25.5765  -36.3342   26.6333 C   0  0  0  0  0  0  0  0  0  0  0  0
  -27.4320  -30.8992   23.2879 C   0  0  0  0  0  0  0  0  0  0  0  0
  -25.5734  -34.9383   26.4491 C   0  0  0  0  0  0  0  0  0  0  0  0
  -26.5602  -29.8253   23.0576 C   0  0  0  0  0  0  0  0  0  0  0  0
  -24.2179   -7.5877   22.4300 C   0  0  0  0  0  0  0  0  0  0  0  0
  -28.0040  -28.3854   24.3812 C   0  0  0  0  0  0  0  0  0  0  0  0
  -22.6470   -6.1059   23.3567 C   0  0  0  0  0  0  0  0  0  0  0  0
  -20.0512   -5.6270   24.2595 C   0  0  0  0  0  0  0  0  0  0  0  0
  -22.4284   -5.7228   24.6800 C   0  0  0  0  0  0  0  0  0  0  0  0
  -25.0989  -11.4500   20.9453 C   0  0  0  0  0  0  0  0  0  0  0  0
  -24.9599  -13.5011   20.1650 C   0  0  0  0  0  0  0  0  0  0  0  0
  -22.7450  -12.4295   20.6060 C   0  0  0  0  0  0  0  0  0  0  0  0
  -24.8487  -32.7285   23.5778 C   0  0  0  0  0  0  0  0  0  0  0  0
  -24.1682  -31.5602   20.6292 C   0  0  0  0  0  0  0  0  0  0  0  0
  -24.3679  -28.3737   18.9487 C   0  0  0  0  0  0  0  0  0  0  0  0
  -29.2136  -16.8560   20.9381 C   0  0  0  0  0  0  0  0  0  0  0  0
  -24.5483  -37.2229   25.9794 C   0  0  0  0  0  0  0  0  0  0  0  0
  -27.1558  -32.2479   22.6821 C   0  0  0  0  0  0  0  0  0  0  0  0
  -25.3099  -29.9818   22.2326 C   0  0  0  0  0  0  0  0  0  0  0  0
  -23.8283  -36.5611   24.8072 C   0  0  0  0  0  0  0  0  0  0  0  0
  -29.9252  -13.7467   19.2283 C   0  0  0  0  0  0  0  0  0  0  0  0
  -23.3841  -35.1505   25.1812 C   0  0  0  0  0  0  0  0  0  0  0  0
  -29.3277  -24.8152   23.6035 C   0  0  0  0  0  0  0  0  0  0  0  0
  -31.2616  -24.8916   25.2255 C   0  0  0  0  0  0  0  0  0  0  0  0
  -29.5191  -23.3078   23.4464 C   0  0  0  0  0  0  0  0  0  0  0  0
  -31.4530  -23.3842   25.0683 C   0  0  0  0  0  0  0  0  0  0  0  0
  -28.6456  -12.9523   19.4966 C   0  0  0  0  0  0  0  0  0  0  0  0
  -32.3291  -21.4799   21.3570 C   0  0  0  0  0  0  0  0  0  0  0  0
  -30.3153  -14.5913   20.4377 C   0  0  0  0  0  0  0  0  0  0  0  0
  -27.9692  -14.7264   21.1804 C   0  0  0  0  0  0  0  0  0  0  0  0
  -33.6443  -20.8096   21.7255 C   0  0  0  0  0  0  0  0  0  0  0  0
  -32.4221  -18.7235   22.3814 C   0  0  0  0  0  0  0  0  0  0  0  0
  -29.9430  -21.1415   25.7126 C   0  0  0  0  0  0  0  0  0  0  0  0
  -30.3082  -19.3544   24.6941 C   0  0  0  0  0  0  0  0  0  0  0  0
  -24.5890  -34.2639   25.5184 C   0  0  1  0  0  0  0  0  0  0  0  0
  -25.6816  -32.4656   22.3552 C   0  0  1  0  0  0  0  0  0  0  0  0
  -29.8066  -25.3074   24.9751 C   0  0  0  0  0  0  0  0  0  0  0  0
  -30.9742  -22.8920   23.6966 C   0  0  0  0  0  0  0  0  0  0  0  0
  -31.1238  -20.9060   22.1226 C   0  0  1  0  0  0  0  0  0  0  0  0
  -31.0726  -19.3609   22.0337 C   0  0  1  0  0  0  0  0  0  0  0  0
  -29.6438  -19.6658   26.0520 C   0  0  0  0  0  0  0  0  0  0  0  0
  -27.5094  -13.8692   19.9871 C   0  0  2  0  0  0  0  0  0  0  0  0
  -24.6320  -27.8271   16.5138 C   0  0  0  0  0  0  0  0  0  0  0  0
  -21.1214  -31.3972   20.6327 C   0  0  0  0  0  0  0  0  0  0  0  0
  -21.2932  -29.4500   19.0684 C   0  0  0  0  0  0  0  0  0  0  0  0
  -22.1479  -31.6873   18.3708 C   0  0  0  0  0  0  0  0  0  0  0  0
  -26.7646  -26.7151   19.4619 C   0  0  0  0  0  0  0  0  0  0  0  0
  -30.5855  -18.9037   20.6517 C   0  0  0  0  0  0  0  0  0  0  0  0
  -30.3123  -19.0989   27.2863 C   0  0  0  0  0  0  0  0  0  0  0  0
  -29.6513  -26.8228   25.0888 C   0  0  0  0  0  0  0  0  0  1  0  0
  -23.4241  -30.3574   20.1013 C   0  0  1  0  0  0  0  0  0  0  0  0
  -25.3407  -27.9851   17.8500 C   0  0  2  0  0  0  0  0  0  0  0  0
  -31.1295  -21.3766   23.5828 C   0  0  2  0  0  0  0  0  0  0  0  0
  -22.0098  -30.7225   19.5685 C   0  0  0  0  0  0  0  0  0  0  0  0
  -26.3681  -11.8322   20.7810 N   0  0  0  0  0  0  0  0  0  0  0  0
  -26.2507  -13.0835   20.3052 N   0  0  0  0  0  0  0  0  0  0  0  0
  -25.0805  -31.3215   21.6668 N   0  0  0  0  0  0  0  0  0  0  0  0
  -29.1967  -15.4546   20.8424 N   0  0  0  0  0  0  0  0  0  0  0  0
  -24.6621  -14.7328   19.6997 N   0  0  0  0  0  0  0  0  0  0  0  0
  -22.0603  -11.9811   19.4683 N   0  0  0  0  0  0  0  0  0  0  0  0
  -25.2522  -33.8305   24.3073 N   0  0  0  0  0  0  0  0  0  0  0  0
  -24.2965  -29.7416   19.1073 N   0  0  0  0  0  0  0  0  0  0  0  0
  -30.4163  -17.4683   20.6073 N   0  0  0  0  0  0  0  0  0  0  0  0
  -33.5122  -19.3329   21.5628 N   0  3  0  0  0  0  0  0  0  0  0  0
  -29.9921  -20.7383   24.2952 N   0  3  0  0  0  0  0  0  0  0  0  0
  -29.5823  -19.5588   28.4904 N   0  3  0  0  0  0  0  0  0  0  0  0
  -26.0095  -26.6956   18.1827 N   0  3  0  0  0  0  0  0  0  0  0  0
  -22.0905  -12.8138   21.6047 O   0  0  0  0  0  0  0  0  0  0  0  0
  -23.9085  -31.9872   23.8391 O   0  0  0  0  0  0  0  0  0  0  0  0
  -23.9534  -32.6694   20.1341 O   0  0  0  0  0  0  0  0  0  0  0  0
  -23.7319  -27.5467   19.5985 O   0  0  0  0  0  0  0  0  0  0  0  0
  -28.2277  -17.5140   21.2874 O   0  0  0  0  0  0  0  0  0  0  0  0
  -23.9348   -6.3449   22.9072 O   0  0  0  0  0  0  0  0  0  0  0  0
  -28.2765  -27.1635   24.9147 O   0  0  0  0  0  0  0  0  0  1  0  0
  -18.8047   -5.3985   24.6932 F   0  0  0  0  0  0  0  0  0  0  0  0
  -23.4612   -5.5843   25.5225 F   0  0  0  0  0  0  0  0  0  0  0  0
  1  2  1  0  0  0  0
  1  5  2  0  0  0  0
  2  6  2  0  0  0  0
  3  8  2  0  0  0  0
  3 15  1  0  0  0  0
  4  9  1  0  0  0  0
  4 15  2  0  0  0  0
  5 17  1  0  0  0  0
  6 19  1  0  0  0  0
  7 10  2  0  0  0  0
  7 18  1  0  0  0  0
  8 21  1  0  0  0  0
  9 21  2  0  0  0  0
 10 22  1  0  0  0  0
 11 12  2  0  0  0  0
 11 23  1  0  0  0  0
 12 24  1  0  0  0  0
 13 20  1  0  0  0  0
 13 22  2  0  0  0  0
 14 24  2  0  0  0  0
 14 25  1  0  0  0  0
 15 26  1  0  0  0  0
 16 26  1  0  0  0  0
 16 27  2  0  0  0  0
 16 28  1  0  0  0  0
 17 19  2  0  0  0  0
 17 33  1  0  0  0  0
 18 20  2  0  0  0  0
 18 34  1  0  0  0  0
 19 51  1  0  0  0  0
 20 35  1  0  0  0  0
 21 89  1  0  0  0  0
 22 90  1  0  0  0  0
 23 25  2  0  0  0  0
 23 89  1  0  0  0  0
 24 91  1  0  0  0  0
 25 92  1  0  0  0  0
 26 71  2  0  0  0  0
 27 72  1  0  0  0  0
 27 75  1  0  0  0  0
 28 76  1  0  0  0  0
 28 84  2  0  0  0  0
 29 52  1  0  0  0  0
 29 77  1  0  0  0  0
 29 85  2  0  0  0  0
 30 67  1  0  0  0  0
 30 73  1  0  0  0  0
 30 86  2  0  0  0  0
 31 68  1  0  0  0  0
 31 78  1  0  0  0  0
 31 87  2  0  0  0  0
 32 74  1  0  0  0  0
 32 79  1  0  0  0  0
 32 88  2  0  0  0  0
 33 36  1  0  0  0  0
 34 52  1  0  0  0  0
 35 73  1  0  0  0  0
 36 38  1  0  0  0  0
 37 43  1  0  0  0  0
 37 45  1  0  0  0  0
 38 51  1  0  0  0  0
 39 41  1  0  0  0  0
 39 53  1  0  0  0  0
 40 42  1  0  0  0  0
 40 53  1  0  0  0  0
 41 54  1  0  0  0  0
 42 54  1  0  0  0  0
 43 58  1  0  0  0  0
 44 47  1  0  0  0  0
 44 55  1  0  0  0  0
 45 74  1  0  0  0  0
 46 58  1  0  0  0  0
 46 74  1  0  0  0  0
 47 80  1  0  0  0  0
 48 56  1  0  0  0  0
 48 80  1  0  0  0  0
 49 57  1  0  0  0  0
 49 81  1  0  0  0  0
 50 57  1  0  0  0  0
 50 81  1  0  0  0  0
 51 77  1  0  0  0  0
 52 73  1  0  0  0  0
 53 66  1  0  0  0  0
 54 69  1  0  0  0  0
 55 56  1  0  0  0  0
 55 69  1  0  0  0  0
 56 64  1  0  0  0  0
 57 65  1  0  0  0  0
 58 72  1  0  0  0  0
 59 68  1  0  0  0  0
 60 70  1  0  0  0  0
 61 70  1  0  0  0  0
 62 70  1  0  0  0  0
 63 83  1  0  0  0  0
 64 79  1  0  0  0  0
 65 82  1  0  0  0  0
 66 90  1  0  0  0  0
 67 70  1  0  0  0  0
 67 78  1  0  0  0  0
 68 83  1  0  0  0  0
 69 81  1  0  0  0  0
 71 72  1  0  0  0  0
M  CHG  4  80   1  81   1  82   1  83   1
M  ISO  4  32 100  66 101  79 100  90 101
M  END
> <Batch ID>
0121

> <Smiles>
CNC(C)C(=O)NC(C(=O)N1Cc2cc([101O:1][101CH2:1]C3CCC(C(C4CCNCC4C[100NH:0][100C:0](=O)N4CCCC(n5nc(-c6ccc(Oc7ccc(F)cc7F)cc6)c(C(N)=O)c5N)C4)N4CC(CN)C4)CC3)ccc2CC1C(=O)NC1CCCc2ccccc21)C(C)(C)C

> <Shape>
0.254

> <Color>
0.084

> <Negative vol penalty>
0.000

$$$$

  -OEChem-04052320253D

 85 94  0     1  0  0  0  0  0999 V2000
  -27.4042  -37.2018   18.5620 C   0  0  0  0  0  0  0  0  0  0  0  0
  -27.9941  -35.9857   18.2325 C   0  0  0  0  0  0  0  0  0  0  0  0
  -22.8962  -10.7691   22.0185 C   0  0  0  0  0  0  0  0  0  0  0  0
  -24.5038   -9.0100   21.6208 C   0  0  0  0  0  0  0  0  0  0  0  0
  -26.6943  -37.3304   19.7550 C   0  0  0  0  0  0  0  0  0  0  0  0
  -27.8753  -34.8977   19.0965 C   0  0  0  0  0  0  0  0  0  0  0  0
  -27.3788  -27.7516   19.0394 C   0  0  0  0  0  0  0  0  0  0  0  0
  -22.2648   -9.9757   22.9762 C   0  0  0  0  0  0  0  0  0  0  0  0
  -23.8724   -8.2165   22.5786 C   0  0  0  0  0  0  0  0  0  0  0  0
  -27.9745  -26.6260   19.6067 C   0  0  0  0  0  0  0  0  0  0  0  0
  -21.1166   -6.2677   22.7756 C   0  0  0  0  0  0  0  0  0  0  0  0
  -20.8844   -4.9296   22.4577 C   0  0  0  0  0  0  0  0  0  0  0  0
  -30.0030  -21.4185   24.0762 C   0  0  0  0  0  0  0  0  0  0  0  0
  -26.6574  -26.9424   21.6028 C   0  0  0  0  0  0  0  0  0  0  0  0
  -22.2352   -4.2477   24.3412 C   0  0  0  0  0  0  0  0  0  0  0  0
  -30.2368  -22.7106   24.5186 C   0  0  0  0  0  0  0  0  0  0  0  0
  -24.0157  -10.2863   21.3408 C   0  0  0  0  0  0  0  0  0  0  0  0
  -24.1028  -11.6251   19.1711 C   0  0  0  0  0  0  0  0  0  0  0  0
  -26.5585  -36.2407   20.6295 C   0  0  0  0  0  0  0  0  0  0  0  0
  -26.4242  -28.4886   19.7550 C   0  0  0  0  0  0  0  0  0  0  0  0
  -27.1640  -35.0122   20.3030 C   0  0  0  0  0  0  0  0  0  0  0  0
  -28.9828  -21.2216   23.1523 C   0  0  0  0  0  0  0  0  0  0  0  0
  -26.0491  -28.0755   21.0413 C   0  0  0  0  0  0  0  0  0  0  0  0
  -28.2381  -22.3073   22.7053 C   0  0  0  0  0  0  0  0  0  0  0  0
  -22.7529   -8.6993   23.2563 C   0  0  0  0  0  0  0  0  0  0  0  0
  -27.6160  -26.2229   20.8897 C   0  0  0  0  0  0  0  0  0  0  0  0
  -21.9082   -6.5959   23.8762 C   0  0  0  0  0  0  0  0  0  0  0  0
  -21.4436   -3.9196   23.2405 C   0  0  0  0  0  0  0  0  0  0  0  0
  -22.4674   -5.5859   24.6590 C   0  0  0  0  0  0  0  0  0  0  0  0
  -24.6681  -11.1052   20.3509 C   0  0  0  0  0  0  0  0  0  0  0  0
  -28.5507  -23.5596   23.2092 C   0  0  0  0  0  0  0  0  0  0  0  0
  -25.1248  -12.3283   18.5816 C   0  0  0  0  0  0  0  0  0  0  0  0
  -22.7728  -11.4850   18.6543 C   0  0  0  0  0  0  0  0  0  0  0  0
  -26.2411  -31.4736   20.8320 C   0  0  0  0  0  0  0  0  0  0  0  0
  -23.2253  -30.5865   21.6321 C   0  0  0  0  0  0  0  0  0  0  0  0
  -21.0502  -28.0671   22.3860 C   0  0  0  0  0  0  0  0  0  0  0  0
  -30.0556  -14.9435   20.7494 C   0  0  0  0  0  0  0  0  0  0  0  0
  -25.8218  -36.4411   21.9301 C   0  0  0  0  0  0  0  0  0  0  0  0
  -25.7713  -29.6849   19.1185 C   0  0  0  0  0  0  0  0  0  0  0  0
  -25.0147  -28.8205   21.8434 C   0  0  0  0  0  0  0  0  0  0  0  0
  -25.4253  -35.1347   22.6131 C   0  0  0  0  0  0  0  0  0  0  0  0
  -29.8962  -12.4217   18.2410 C   0  0  0  0  0  0  0  0  0  0  0  0
  -28.9858  -18.7561   23.7264 C   0  0  0  0  0  0  0  0  0  0  0  0
  -29.4771  -19.5077   21.3561 C   0  0  0  0  0  0  0  0  0  0  0  0
  -26.6002  -34.1621   22.6279 C   0  0  0  0  0  0  0  0  0  0  0  0
  -28.4873  -11.8453   18.3909 C   0  0  0  0  0  0  0  0  0  0  0  0
  -28.6875  -17.3464   23.2147 C   0  0  0  0  0  0  0  0  0  0  0  0
  -29.1791  -18.0961   20.8494 C   0  0  0  0  0  0  0  0  0  0  0  0
  -30.4987  -12.7981   19.5928 C   0  0  0  0  0  0  0  0  0  0  0  0
  -28.2564  -13.1201   20.5635 C   0  0  0  0  0  0  0  0  0  0  0  0
  -28.7031  -19.8171   22.6490 C   0  0  0  0  0  0  0  0  0  0  0  0
  -27.0363  -33.8020   21.2026 C   0  0  1  0  0  0  0  0  0  0  0  0
  -25.1870  -30.6591   20.1369 C   0  0  1  0  0  0  0  0  0  0  0  0
  -27.5855  -12.7774   19.2223 C   0  0  2  0  0  0  0  0  0  0  0  0
  -29.4565  -17.0448   21.9261 C   0  0  0  0  0  0  0  0  0  0  0  0
  -27.1378  -22.1260   21.7144 C   0  0  0  0  0  0  0  0  0  0  0  0
  -18.6609  -27.6551   23.0331 C   0  0  0  0  0  0  0  0  0  0  0  0
  -23.8314  -31.5384   24.4669 C   0  0  0  0  0  0  0  0  0  0  0  0
  -21.8269  -30.2593   25.2504 C   0  0  0  0  0  0  0  0  0  0  0  0
  -21.5516  -32.1365   23.6307 C   0  0  0  0  0  0  0  0  0  0  0  0
  -20.5525  -26.4427   19.9626 C   0  0  0  0  0  0  0  0  0  0  0  0
  -27.7818  -24.7688   22.7643 C   0  0  0  0  0  0  0  0  0  1  0  0
  -22.5808  -29.9642   22.8472 C   0  0  1  0  0  0  0  0  0  0  0  0
  -19.6510  -27.7603   21.8836 C   0  0  2  0  0  0  0  0  0  0  0  0
  -22.4686  -30.9615   24.0347 C   0  0  0  0  0  0  0  0  0  0  0  0
  -29.5345  -23.7900   24.1075 N   0  0  0  0  0  0  0  0  0  0  0  0
  -25.9498  -11.4487   20.5034 N   0  0  0  0  0  0  0  0  0  0  0  0
  -26.1984  -12.1918   19.4116 N   0  0  0  0  0  0  0  0  0  0  0  0
  -24.4095  -29.9873   21.1801 N   0  0  0  0  0  0  0  0  0  0  0  0
  -29.5950  -13.6844   20.3303 N   0  0  0  0  0  0  0  0  0  0  0  0
  -25.2010  -13.0437   17.4393 N   0  0  0  0  0  0  0  0  0  0  0  0
  -22.4972  -10.4069   17.8022 N   0  0  0  0  0  0  0  0  0  0  0  0
  -26.1274  -32.8352   20.6250 N   0  0  0  0  0  0  0  0  0  0  0  0
  -21.3025  -29.4226   22.3989 N   0  0  0  0  0  0  0  0  0  0  0  0
  -29.1333  -15.7232   21.4366 N   0  0  0  0  0  0  0  0  0  0  0  0
  -19.6404  -26.4718   21.1349 N   0  3  0  0  0  0  0  0  0  0  0  0
  -21.8600  -12.3013   18.9265 O   0  0  0  0  0  0  0  0  0  0  0  0
  -27.0935  -30.9088   21.5073 O   0  0  0  0  0  0  0  0  0  0  0  0
  -22.6936  -31.5637   21.0992 O   0  0  0  0  0  0  0  0  0  0  0  0
  -21.8391  -27.1920   22.7359 O   0  0  0  0  0  0  0  0  0  0  0  0
  -31.2020  -15.3453   20.5230 O   0  0  0  0  0  0  0  0  0  0  0  0
  -22.1371   -7.9249   24.1910 O   0  0  0  0  0  0  0  0  0  0  0  0
  -28.1964  -25.1250   21.4461 O   0  0  0  0  0  0  0  0  0  1  0  0
  -21.2193   -2.6346   22.9360 F   0  0  0  0  0  0  0  0  0  0  0  0
  -23.2277   -5.8950   25.7184 F   0  0  0  0  0  0  0  0  0  0  0  0
  1  2  1  0  0  0  0
  1  5  2  0  0  0  0
  2  6  2  0  0  0  0
  3  8  2  0  0  0  0
  3 17  1  0  0  0  0
  4  9  1  0  0  0  0
  4 17  2  0  0  0  0
  5 19  1  0  0  0  0
  6 21  1  0  0  0  0
  7 10  2  0  0  0  0
  7 20  1  0  0  0  0
  8 25  1  0  0  0  0
  9 25  2  0  0  0  0
 10 26  1  0  0  0  0
 11 12  2  0  0  0  0
 11 27  1  0  0  0  0
 12 28  1  0  0  0  0
 13 16  1  0  0  0  0
 13 22  2  0  0  0  0
 14 23  1  0  0  0  0
 14 26  2  0  0  0  0
 15 28  2  0  0  0  0
 15 29  1  0  0  0  0
 16 66  2  0  0  0  0
 17 30  1  0  0  0  0
 18 30  1  0  0  0  0
 18 32  2  0  0  0  0
 18 33  1  0  0  0  0
 19 21  2  0  0  0  0
 19 38  1  0  0  0  0
 20 23  2  0  0  0  0
 20 39  1  0  0  0  0
 21 52  1  0  0  0  0
 22 24  1  0  0  0  0
 22 51  1  0  0  0  0
 23 40  1  0  0  0  0
 24 31  2  0  0  0  0
 24 56  1  0  0  0  0
 25 82  1  0  0  0  0
 26 83  1  0  0  0  0
 27 29  2  0  0  0  0
 27 82  1  0  0  0  0
 28 84  1  0  0  0  0
 29 85  1  0  0  0  0
 30 67  2  0  0  0  0
 31 62  1  0  0  0  0
 31 66  1  0  0  0  0
 32 68  1  0  0  0  0
 32 71  1  0  0  0  0
 33 72  1  0  0  0  0
 33 77  2  0  0  0  0
 34 53  1  0  0  0  0
 34 73  1  0  0  0  0
 34 78  2  0  0  0  0
 35 63  1  0  0  0  0
 35 69  1  0  0  0  0
 35 79  2  0  0  0  0
 36 64  1  0  0  0  0
 36 74  1  0  0  0  0
 36 80  2  0  0  0  0
 37 70  1  0  0  0  0
 37 75  1  0  0  0  0
 37 81  2  0  0  0  0
 38 41  1  0  0  0  0
 39 53  1  0  0  0  0
 40 69  1  0  0  0  0
 41 45  1  0  0  0  0
 42 46  1  0  0  0  0
 42 49  1  0  0  0  0
 43 47  1  0  0  0  0
 43 51  1  0  0  0  0
 44 48  1  0  0  0  0
 44 51  1  0  0  0  0
 45 52  1  0  0  0  0
 46 54  1  0  0  0  0
 47 55  1  0  0  0  0
 48 55  1  0  0  0  0
 49 70  1  0  0  0  0
 50 54  1  0  0  0  0
 50 70  1  0  0  0  0
 52 73  1  0  0  0  0
 53 69  1  0  0  0  0
 54 68  1  0  0  0  0
 55 75  1  0  0  0  0
 57 64  1  0  0  0  0
 58 65  1  0  0  0  0
 59 65  1  0  0  0  0
 60 65  1  0  0  0  0
 61 76  1  0  0  0  0
 62 83  1  0  0  0  0
 63 65  1  0  0  0  0
 63 74  1  0  0  0  0
 64 76  1  0  0  0  0
 67 68  1  0  0  0  0
M  CHG  1  76   1
M  ISO  4  37 100  62 101  75 100  83 101
M  END
> <Batch ID>
0121

> <Smiles>
CNC(C)C(=O)NC(C(=O)N1Cc2cc([101O:1][101CH2:1]c3nccc(C4CCC([100NH:0][100C:0](=O)N5CCCC(n6nc(-c7ccc(Oc8ccc(F)cc8F)cc7)c(C(N)=O)c6N)C5)CC4)c3C)ccc2CC1C(=O)NC1CCCc2ccccc21)C(C)(C)C

> <Shape>
0.299

> <Color>
0.104

> <Negative vol penalty>
0.000

$$$$

  -OEChem-04052320253D

 86 94  0     1  0  0  0  0  0999 V2000
  -36.3350  -34.3976   20.9664 C   0  0  0  0  0  0  0  0  0  0  0  0
  -35.9831  -33.3880   21.8566 C   0  0  0  0  0  0  0  0  0  0  0  0
  -23.0738   -9.8680   19.9446 C   0  0  0  0  0  0  0  0  0  0  0  0
  -23.8349   -9.8789   22.2375 C   0  0  0  0  0  0  0  0  0  0  0  0
  -35.5887  -34.5928   19.8050 C   0  0  0  0  0  0  0  0  0  0  0  0
  -34.8839  -32.5737   21.5863 C   0  0  0  0  0  0  0  0  0  0  0  0
  -32.5441  -25.8662   22.5090 C   0  0  0  0  0  0  0  0  0  0  0  0
  -22.3309   -8.7146   20.1966 C   0  0  0  0  0  0  0  0  0  0  0  0
  -23.0920   -8.7255   22.4896 C   0  0  0  0  0  0  0  0  0  0  0  0
  -31.4439  -25.1679   23.0047 C   0  0  0  0  0  0  0  0  0  0  0  0
  -22.9059   -5.3970   20.4920 C   0  0  0  0  0  0  0  0  0  0  0  0
  -22.9730   -4.3661   19.5548 C   0  0  0  0  0  0  0  0  0  0  0  0
  -30.2759  -25.5463   20.9282 C   0  0  0  0  0  0  0  0  0  0  0  0
  -20.5882   -4.5296   19.2042 C   0  0  0  0  0  0  0  0  0  0  0  0
  -23.8258  -10.4501   20.9650 C   0  0  0  0  0  0  0  0  0  0  0  0
  -24.1657  -12.9753   20.8412 C   0  0  0  0  0  0  0  0  0  0  0  0
  -34.4856  -33.7742   19.5156 C   0  0  0  0  0  0  0  0  0  0  0  0
  -32.5143  -26.4201   21.2211 C   0  0  0  0  0  0  0  0  0  0  0  0
  -34.1213  -32.7589   20.4206 C   0  0  0  0  0  0  0  0  0  0  0  0
  -31.3780  -26.2489   20.4176 C   0  0  0  0  0  0  0  0  0  0  0  0
  -22.3400   -8.1434   21.4691 C   0  0  0  0  0  0  0  0  0  0  0  0
  -30.3084  -25.0103   22.2153 C   0  0  0  0  0  0  0  0  0  0  0  0
  -21.6799   -5.9942   20.7853 C   0  0  0  0  0  0  0  0  0  0  0  0
  -21.8142   -3.9324   18.9109 C   0  0  0  0  0  0  0  0  0  0  0  0
  -20.5211   -5.5605   20.1414 C   0  0  0  0  0  0  0  0  0  0  0  0
  -24.5939  -11.6412   20.7052 C   0  0  0  0  0  0  0  0  0  0  0  0
  -25.2571  -13.7251   20.4762 C   0  0  0  0  0  0  0  0  0  0  0  0
  -22.8951  -13.4908   21.2600 C   0  0  0  0  0  0  0  0  0  0  0  0
  -32.7112  -29.3648   20.0407 C   0  0  0  0  0  0  0  0  0  0  0  0
  -32.7333  -27.8043   17.1970 C   0  0  0  0  0  0  0  0  0  0  0  0
  -31.9224  -25.0043   15.4224 C   0  0  0  0  0  0  0  0  0  0  0  0
  -30.7402  -14.7485   20.6602 C   0  0  0  0  0  0  0  0  0  0  0  0
  -33.6808  -34.0538   18.2711 C   0  0  0  0  0  0  0  0  0  0  0  0
  -33.7194  -27.1476   20.6912 C   0  0  0  0  0  0  0  0  0  0  0  0
  -31.3033  -26.8068   19.0205 C   0  0  0  0  0  0  0  0  0  0  0  0
  -32.7558  -32.9064   17.8734 C   0  0  0  0  0  0  0  0  0  0  0  0
  -29.6031  -12.3597   18.2774 C   0  0  0  0  0  0  0  0  0  0  0  0
  -27.2313  -17.4884   17.0702 C   0  0  0  0  0  0  0  0  0  0  0  0
  -31.9915  -32.3910   19.0887 C   0  0  0  0  0  0  0  0  0  0  0  0
  -27.4166  -17.9599   18.5116 C   0  0  0  0  0  0  0  0  0  0  0  0
  -28.1661  -12.0655   18.7116 C   0  0  0  0  0  0  0  0  0  0  0  0
  -30.5207  -12.5830   19.4775 C   0  0  0  0  0  0  0  0  0  0  0  0
  -28.6192  -13.3146   20.8641 C   0  0  0  0  0  0  0  0  0  0  0  0
  -27.0526  -18.6584   16.1161 C   0  0  0  0  0  0  0  0  0  0  0  0
  -28.3655  -20.1356   17.6544 C   0  0  0  0  0  0  0  0  0  0  0  0
  -32.9505  -31.8390   20.1502 C   0  0  1  0  0  0  0  0  0  0  0  0
  -33.3846  -28.1116   19.5572 C   0  0  1  0  0  0  0  0  0  0  0  0
  -28.5642  -18.9735   18.6274 C   0  0  1  0  0  0  0  0  0  0  0  0
  -27.6445  -13.1376   19.6872 C   0  0  2  0  0  0  0  0  0  0  0  0
  -32.0328  -24.0374   13.1093 C   0  0  0  0  0  0  0  0  0  0  0  0
  -30.4048  -29.5826   16.3451 C   0  0  0  0  0  0  0  0  0  0  0  0
  -29.9541  -27.9783   14.4766 C   0  0  0  0  0  0  0  0  0  0  0  0
  -32.1273  -29.1992   14.5730 C   0  0  0  0  0  0  0  0  0  0  0  0
  -33.6156  -22.7492   16.3204 C   0  0  0  0  0  0  0  0  0  0  0  0
  -27.3660  -20.1016   20.5492 C   0  0  0  0  0  0  0  0  0  0  0  0
  -30.8051  -16.9009   21.8939 C   0  0  0  0  0  0  0  0  0  0  0  0
  -27.3561  -20.5981   21.9923 C   0  0  0  0  0  0  0  0  0  0  0  0
  -30.5216  -18.0424   20.9353 C   0  0  0  0  0  0  0  0  0  0  0  0
  -28.3951  -22.2457   23.5558 C   0  0  0  0  0  0  0  0  0  0  0  0
  -29.4912  -23.2896   23.6392 C   0  0  0  0  0  0  0  0  0  1  0  0
  -31.6765  -27.3389   16.2246 C   0  0  1  0  0  0  0  0  0  0  0  0
  -32.7289  -24.1553   14.4562 C   0  0  2  0  0  0  0  0  0  0  0  0
  -28.6851  -19.4909   20.0590 C   0  0  1  0  0  0  0  0  0  0  0  0
  -31.0410  -28.5158   15.4318 C   0  0  0  0  0  0  0  0  0  0  0  0
  -25.8586  -11.5457   20.2863 N   0  0  0  0  0  0  0  0  0  0  0  0
  -26.2345  -12.8293   20.1559 N   0  0  0  0  0  0  0  0  0  0  0  0
  -32.5048  -27.5156   18.5498 N   0  0  0  0  0  0  0  0  0  0  0  0
  -29.9698  -13.6123   20.3623 N   0  0  0  0  0  0  0  0  0  0  0  0
  -25.4665  -15.0566   20.4012 N   0  0  0  0  0  0  0  0  0  0  0  0
  -21.8840  -12.5813   21.5992 N   0  0  0  0  0  0  0  0  0  0  0  0
  -33.4176  -30.5220   19.7735 N   0  0  0  0  0  0  0  0  0  0  0  0
  -32.3103  -26.3270   15.3863 N   0  0  0  0  0  0  0  0  0  0  0  0
  -30.1408  -15.6781   21.5012 N   0  0  0  0  0  0  0  0  0  0  0  0
  -28.2031  -19.5972   16.2699 N   0  3  0  0  0  0  0  0  0  0  0  0
  -32.9211  -22.7842   15.0076 N   0  3  0  0  0  0  0  0  0  0  0  0
  -28.3769  -21.6623   22.1906 N   0  3  0  0  0  0  0  0  0  0  0  0
  -29.0667  -18.3450   20.9301 N   0  3  0  0  0  0  0  0  0  0  0  0
  -22.6579  -14.7213   21.3157 O   0  0  0  0  0  0  0  0  0  0  0  0
  -31.6300  -29.2877   20.6123 O   0  0  0  0  0  0  0  0  0  0  0  0
  -33.7285  -28.3958   16.7711 O   0  0  0  0  0  0  0  0  0  0  0  0
  -31.0345  -24.5411   16.1348 O   0  0  0  0  0  0  0  0  0  0  0  0
  -31.8758  -14.9242   20.2057 O   0  0  0  0  0  0  0  0  0  0  0  0
  -21.6150   -7.0181   21.7154 O   0  0  0  0  0  0  0  0  0  0  0  0
  -29.2329  -24.3297   22.6969 O   0  0  0  0  0  0  0  0  0  1  0  0
  -21.8790   -2.9435   18.0098 F   0  0  0  0  0  0  0  0  0  0  0  0
  -19.3406   -6.1312   20.4182 F   0  0  0  0  0  0  0  0  0  0  0  0
  1  2  1  0  0  0  0
  1  5  2  0  0  0  0
  2  6  2  0  0  0  0
  3  8  2  0  0  0  0
  3 15  1  0  0  0  0
  4  9  1  0  0  0  0
  4 15  2  0  0  0  0
  5 17  1  0  0  0  0
  6 19  1  0  0  0  0
  7 10  2  0  0  0  0
  7 18  1  0  0  0  0
  8 21  1  0  0  0  0
  9 21  2  0  0  0  0
 10 22  1  0  0  0  0
 11 12  2  0  0  0  0
 11 23  1  0  0  0  0
 12 24  1  0  0  0  0
 13 20  1  0  0  0  0
 13 22  2  0  0  0  0
 14 24  2  0  0  0  0
 14 25  1  0  0  0  0
 15 26  1  0  0  0  0
 16 26  1  0  0  0  0
 16 27  2  0  0  0  0
 16 28  1  0  0  0  0
 17 19  2  0  0  0  0
 17 33  1  0  0  0  0
 18 20  2  0  0  0  0
 18 34  1  0  0  0  0
 19 46  1  0  0  0  0
 20 35  1  0  0  0  0
 21 83  1  0  0  0  0
 22 84  1  0  0  0  0
 23 25  2  0  0  0  0
 23 83  1  0  0  0  0
 24 85  1  0  0  0  0
 25 86  1  0  0  0  0
 26 65  2  0  0  0  0
 27 66  1  0  0  0  0
 27 69  1  0  0  0  0
 28 70  1  0  0  0  0
 28 78  2  0  0  0  0
 29 47  1  0  0  0  0
 29 71  1  0  0  0  0
 29 79  2  0  0  0  0
 30 61  1  0  0  0  0
 30 67  1  0  0  0  0
 30 80  2  0  0  0  0
 31 62  1  0  0  0  0
 31 72  1  0  0  0  0
 31 81  2  0  0  0  0
 32 68  1  0  0  0  0
 32 73  1  0  0  0  0
 32 82  2  0  0  0  0
 33 36  1  0  0  0  0
 34 47  1  0  0  0  0
 35 67  1  0  0  0  0
 36 39  1  0  0  0  0
 37 41  1  0  0  0  0
 37 42  1  0  0  0  0
 38 40  1  0  0  0  0
 38 44  1  0  0  0  0
 39 46  1  0  0  0  0
 40 48  1  0  0  0  0
 41 49  1  0  0  0  0
 42 68  1  0  0  0  0
 43 49  1  0  0  0  0
 43 68  1  0  0  0  0
 44 74  1  0  0  0  0
 45 48  1  0  0  0  0
 45 74  1  0  0  0  0
 46 71  1  0  0  0  0
 47 67  1  0  0  0  0
 48 63  1  0  0  0  0
 49 66  1  0  0  0  0
 50 62  1  0  0  0  0
 51 64  1  0  0  0  0
 52 64  1  0  0  0  0
 53 64  1  0  0  0  0
 54 75  1  0  0  0  0
 55 57  1  0  0  0  0
 55 63  1  0  0  0  0
 56 58  1  0  0  0  0
 56 73  1  0  0  0  0
 57 76  1  0  0  0  0
 58 77  1  0  0  0  0
 59 60  1  0  0  0  0
 59 76  1  0  0  0  0
 60 84  1  0  0  0  0
 61 64  1  0  0  0  0
 61 72  1  0  0  0  0
 62 75  1  0  0  0  0
 63 77  1  0  0  0  0
 65 66  1  0  0  0  0
M  CHG  4  74   1  75   1  76   1  77   1
M  ISO  4  32 100  60 101  73 100  84 101
M  END
> <Batch ID>
0121

> <Smiles>
CNC(C)C(=O)NC(C(=O)N1Cc2cc([101O:1][101CH2:1]CNCCC(NCC[100NH:0][100C:0](=O)N3CCCC(n4nc(-c5ccc(Oc6ccc(F)cc6F)cc5)c(C(N)=O)c4N)C3)C3CCCNC3)ccc2CC1C(=O)NC1CCCc2ccccc21)C(C)(C)C

> <Shape>
0.209

> <Color>
0.176

> <Negative vol penalty>
0.000

$$$$

  -OEChem-04052320253D

 88 96  0     1  0  0  0  0  0999 V2000
  -24.1702  -19.8925   29.4774 C   0  0  0  0  0  0  0  0  0  0  0  0
  -23.8374  -19.8350   28.1278 C   0  0  0  0  0  0  0  0  0  0  0  0
  -30.5162  -21.0303   20.3266 C   0  0  0  0  0  0  0  0  0  0  0  0
  -28.3146  -20.2971   19.6542 C   0  0  0  0  0  0  0  0  0  0  0  0
  -23.7219  -20.9556   30.2601 C   0  0  0  0  0  0  0  0  0  0  0  0
  -23.0550  -20.8402   27.5604 C   0  0  0  0  0  0  0  0  0  0  0  0
  -24.8405  -22.3991   23.0853 C   0  0  0  0  0  0  0  0  0  0  0  0
  -30.2796  -22.2753   19.7437 C   0  0  0  0  0  0  0  0  0  0  0  0
  -28.0779  -21.5420   19.0714 C   0  0  0  0  0  0  0  0  0  0  0  0
  -24.5861  -21.5875   21.9806 C   0  0  0  0  0  0  0  0  0  0  0  0
  -30.1187  -25.7678   18.7481 C   0  0  0  0  0  0  0  0  0  0  0  0
  -30.4782  -26.9029   19.4746 C   0  0  0  0  0  0  0  0  0  0  0  0
  -22.7664  -23.0368   21.3424 C   0  0  0  0  0  0  0  0  0  0  0  0
  -28.9696  -26.2480   21.2444 C   0  0  0  0  0  0  0  0  0  0  0  0
  -22.8100  -13.2462   20.8390 C   0  0  0  0  0  0  0  0  0  0  0  0
  -29.5337  -20.0412   20.2818 C   0  0  0  0  0  0  0  0  0  0  0  0
  -29.5009  -18.3699   22.2088 C   0  0  0  0  0  0  0  0  0  0  0  0
  -22.9416  -21.9793   29.6998 C   0  0  0  0  0  0  0  0  0  0  0  0
  -24.0515  -23.5315   23.3333 C   0  0  0  0  0  0  0  0  0  0  0  0
  -22.5946  -21.9173   28.3367 C   0  0  0  0  0  0  0  0  0  0  0  0
  -23.0144  -23.8625   22.4496 C   0  0  0  0  0  0  0  0  0  0  0  0
  -29.0605  -22.5311   19.1161 C   0  0  0  0  0  0  0  0  0  0  0  0
  -23.5471  -21.9047   21.1106 C   0  0  0  0  0  0  0  0  0  0  0  0
  -29.1845  -24.8728   19.2696 C   0  0  0  0  0  0  0  0  0  0  0  0
  -29.9037  -27.1430   20.7228 C   0  0  0  0  0  0  0  0  0  0  0  0
  -28.6100  -25.1129   20.5178 C   0  0  0  0  0  0  0  0  0  0  0  0
  -29.7777  -18.7548   20.8832 C   0  0  0  0  0  0  0  0  0  0  0  0
  -23.1812  -15.3393   20.9465 C   0  0  0  0  0  0  0  0  0  0  0  0
  -24.3570  -14.7375   21.3283 C   0  0  0  0  0  0  0  0  0  0  0  0
  -29.9140  -17.0619   22.2798 C   0  0  0  0  0  0  0  0  0  0  0  0
  -28.9222  -19.1269   23.2800 C   0  0  0  0  0  0  0  0  0  0  0  0
  -22.1250  -24.4510   25.6885 C   0  0  0  0  0  0  0  0  0  0  0  0
  -22.0143  -27.2152   23.9947 C   0  0  0  0  0  0  0  0  0  0  0  0
  -22.3560  -28.7832   20.9828 C   0  0  0  0  0  0  0  0  0  0  0  0
  -30.1188  -12.2583   19.0552 C   0  0  0  0  0  0  0  0  0  0  0  0
  -22.4407  -23.0837   30.5965 C   0  0  0  0  0  0  0  0  0  0  0  0
  -24.3557  -24.4116   24.5146 C   0  0  0  0  0  0  0  0  0  0  0  0
  -22.1511  -25.0786   22.6600 C   0  0  0  0  0  0  0  0  0  0  0  0
  -21.9293  -24.3030   29.8336 C   0  0  0  0  0  0  0  0  0  0  0  0
  -33.0144  -14.2399   19.6595 C   0  0  0  0  0  0  0  0  0  0  0  0
  -21.0147  -23.8729   28.6911 C   0  0  0  0  0  0  0  0  0  0  0  0
  -32.4492  -15.5704   20.1599 C   0  0  0  0  0  0  0  0  0  0  0  0
  -32.1307  -13.6224   18.5779 C   0  0  0  0  0  0  0  0  0  0  0  0
  -30.1475  -14.7956   19.4523 C   0  0  0  0  0  0  0  0  0  0  0  0
  -21.7686  -23.0015   27.6792 C   0  0  1  0  0  0  0  0  0  0  0  0
  -23.1624  -25.2535   24.9555 C   0  0  1  0  0  0  0  0  0  0  0  0
  -30.9749  -15.4293   20.5837 C   0  0  2  0  0  0  0  0  0  0  0  0
  -25.5704  -16.1442   23.0319 C   0  0  0  0  0  0  0  0  0  0  0  0
  -26.3414  -16.1272   20.6319 C   0  0  0  0  0  0  0  0  0  0  0  0
  -22.1648  -31.0411   19.9045 C   0  0  0  0  0  0  0  0  0  0  0  0
  -22.8574  -19.2810   17.7972 C   0  0  0  0  0  0  0  0  0  0  0  0
  -18.9725  -26.9829   24.0531 C   0  0  0  0  0  0  0  0  0  0  0  0
  -18.8776  -28.6731   22.2086 C   0  0  0  0  0  0  0  0  0  0  0  0
  -19.8493  -29.2961   24.4200 C   0  0  0  0  0  0  0  0  0  0  0  0
  -25.2074  -28.7747   20.1904 C   0  0  0  0  0  0  0  0  0  0  0  0
  -22.8726  -16.8117   20.8383 C   0  0  0  0  0  0  0  0  0  0  0  0
  -22.9375  -17.3592   19.4057 C   0  0  0  0  0  0  0  0  0  0  0  0
  -28.0332  -11.0260   19.5946 C   0  0  0  0  0  0  0  0  0  0  0  0
  -27.0122  -11.0646   20.7164 C   0  0  0  0  0  0  0  0  0  0  0  0
  -23.6090  -19.7271   20.1564 C   0  0  0  0  0  0  0  0  0  1  0  0
  -25.0212  -12.3229   21.5544 C   0  0  0  0  0  0  0  0  0  0  0  0
  -25.6573  -15.2942   21.7420 C   0  0  0  0  0  0  0  0  0  0  0  0
  -21.1425  -27.7564   22.8874 C   0  0  1  0  0  0  0  0  0  0  0  0
  -23.0948  -30.0478   20.5836 C   0  0  2  0  0  0  0  0  0  0  0  0
  -22.6902  -18.8778   19.2678 C   0  0  1  0  0  0  0  0  0  0  0  0
  -19.7253  -28.1531   23.3891 C   0  0  0  0  0  0  0  0  0  0  0  0
  -22.2220  -14.4055   20.6436 N   0  0  0  0  0  0  0  0  0  0  0  0
  -30.3245  -17.7710   20.1641 N   0  0  0  0  0  0  0  0  0  0  0  0
  -24.1037  -13.3967   21.2549 N   0  0  0  0  0  0  0  0  0  0  0  0
  -30.3946  -16.7549   21.0409 N   0  0  0  0  0  0  0  0  0  0  0  0
  -22.4840  -25.9042   23.8326 N   0  0  0  0  0  0  0  0  0  0  0  0
  -30.7460  -13.5150   19.0438 N   0  0  0  0  0  0  0  0  0  0  0  0
  -29.9093  -16.1558   23.2806 N   0  0  0  0  0  0  0  0  0  0  0  0
  -28.5546  -20.4571   23.0356 N   0  0  0  0  0  0  0  0  0  0  0  0
  -22.5988  -23.8228   26.8245 N   0  0  0  0  0  0  0  0  0  0  0  0
  -21.8891  -28.8519   22.2784 N   0  0  0  0  0  0  0  0  0  0  0  0
  -28.8085  -12.2441   19.5174 N   0  0  0  0  0  0  0  0  0  0  0  0
  -24.2046  -29.7243   19.6431 N   0  3  0  0  0  0  0  0  0  0  0  0
  -26.0376  -12.1614   20.4723 N   0  3  0  0  0  0  0  0  0  0  0  0
  -28.7516  -18.6432   24.4248 O   0  0  0  0  0  0  0  0  0  0  0  0
  -20.9792  -24.4063   25.2564 O   0  0  0  0  0  0  0  0  0  0  0  0
  -22.2749  -27.9320   24.9643 O   0  0  0  0  0  0  0  0  0  0  0  0
  -22.2046  -27.8313   20.2203 O   0  0  0  0  0  0  0  0  0  0  0  0
  -30.6864  -11.2245   18.6863 O   0  0  0  0  0  0  0  0  0  0  0  0
  -28.8292  -23.7459   18.5475 O   0  0  0  0  0  0  0  0  0  0  0  0
  -23.2963  -21.1138   20.0319 O   0  0  0  0  0  0  0  0  0  1  0  0
  -30.2502  -28.2323   21.4210 F   0  0  0  0  0  0  0  0  0  0  0  0
  -27.7129  -24.2560   21.0246 F   0  0  0  0  0  0  0  0  0  0  0  0
  1  2  1  0  0  0  0
  1  5  2  0  0  0  0
  2  6  2  0  0  0  0
  3  8  2  0  0  0  0
  3 16  1  0  0  0  0
  4  9  1  0  0  0  0
  4 16  2  0  0  0  0
  5 18  1  0  0  0  0
  6 20  1  0  0  0  0
  7 10  2  0  0  0  0
  7 19  1  0  0  0  0
  8 22  1  0  0  0  0
  9 22  2  0  0  0  0
 10 23  1  0  0  0  0
 11 12  2  0  0  0  0
 11 24  1  0  0  0  0
 12 25  1  0  0  0  0
 13 21  1  0  0  0  0
 13 23  2  0  0  0  0
 14 25  2  0  0  0  0
 14 26  1  0  0  0  0
 15 67  2  0  0  0  0
 15 69  1  0  0  0  0
 16 27  1  0  0  0  0
 17 27  1  0  0  0  0
 17 30  2  0  0  0  0
 17 31  1  0  0  0  0
 18 20  2  0  0  0  0
 18 36  1  0  0  0  0
 19 21  2  0  0  0  0
 19 37  1  0  0  0  0
 20 45  1  0  0  0  0
 21 38  1  0  0  0  0
 22 85  1  0  0  0  0
 23 86  1  0  0  0  0
 24 26  2  0  0  0  0
 24 85  1  0  0  0  0
 25 87  1  0  0  0  0
 26 88  1  0  0  0  0
 27 68  2  0  0  0  0
 28 29  2  0  0  0  0
 28 56  1  0  0  0  0
 28 67  1  0  0  0  0
 29 62  1  0  0  0  0
 29 69  1  0  0  0  0
 30 70  1  0  0  0  0
 30 73  1  0  0  0  0
 31 74  1  0  0  0  0
 31 80  2  0  0  0  0
 32 46  1  0  0  0  0
 32 75  1  0  0  0  0
 32 81  2  0  0  0  0
 33 63  1  0  0  0  0
 33 71  1  0  0  0  0
 33 82  2  0  0  0  0
 34 64  1  0  0  0  0
 34 76  1  0  0  0  0
 34 83  2  0  0  0  0
 35 72  1  0  0  0  0
 35 77  1  0  0  0  0
 35 84  2  0  0  0  0
 36 39  1  0  0  0  0
 37 46  1  0  0  0  0
 38 71  1  0  0  0  0
 39 41  1  0  0  0  0
 40 42  1  0  0  0  0
 40 43  1  0  0  0  0
 41 45  1  0  0  0  0
 42 47  1  0  0  0  0
 43 72  1  0  0  0  0
 44 47  1  0  0  0  0
 44 72  1  0  0  0  0
 45 75  1  0  0  0  0
 46 71  1  0  0  0  0
 47 70  1  0  0  0  0
 48 62  1  0  0  0  0
 49 62  1  0  0  0  0
 50 64  1  0  0  0  0
 51 65  1  0  0  0  0
 52 66  1  0  0  0  0
 53 66  1  0  0  0  0
 54 66  1  0  0  0  0
 55 78  1  0  0  0  0
 56 57  1  0  0  0  0
 57 65  1  0  0  0  0
 58 59  1  0  0  0  0
 58 77  1  0  0  0  0
 59 79  1  0  0  0  0
 60 65  1  0  0  0  0
 60 86  1  0  0  0  0
 61 69  1  0  0  0  0
 61 79  1  0  0  0  0
 63 66  1  0  0  0  0
 63 76  1  0  0  0  0
 64 78  1  0  0  0  0
 68 70  1  0  0  0  0
M  CHG  2  78   1  79   1
M  ISO  4  35 100  60 101  77 100  86 101
M  END
> <Batch ID>
0121

> <Smiles>
CNC(C)C(=O)NC(C(=O)N1Cc2cc([101O:1][101CH2:1]C(C)CCc3ncn(CNCC[100NH:0][100C:0](=O)N4CCCC(n5nc(-c6ccc(Oc7ccc(F)cc7F)cc6)c(C(N)=O)c5N)C4)c3C(C)C)ccc2CC1C(=O)NC1CCCc2ccccc21)C(C)(C)C

> <Shape>
0.249

> <Color>
0.052

> <Negative vol penalty>
0.000

$$$$

  -OEChem-04052320253D

 90 99  0     1  0  0  0  0  0999 V2000
  -30.8571  -34.2063   25.8522 C   0  0  0  0  0  0  0  0  0  0  0  0
  -31.5319  -33.0303   26.1636 C   0  0  0  0  0  0  0  0  0  0  0  0
  -22.8662  -10.0398   20.0365 C   0  0  0  0  0  0  0  0  0  0  0  0
  -24.2754   -9.4556   21.9099 C   0  0  0  0  0  0  0  0  0  0  0  0
  -29.5419  -34.1532   25.3926 C   0  0  0  0  0  0  0  0  0  0  0  0
  -30.8914  -31.8004   26.0167 C   0  0  0  0  0  0  0  0  0  0  0  0
  -32.2395  -24.9702   24.3292 C   0  0  0  0  0  0  0  0  0  0  0  0
  -31.0486  -18.3874   23.8684 C   0  0  0  0  0  0  0  0  0  0  0  0
  -22.1645   -8.8444   20.1914 C   0  0  0  0  0  0  0  0  0  0  0  0
  -23.5737   -8.2600   22.0649 C   0  0  0  0  0  0  0  0  0  0  0  0
  -32.0378  -23.6801   24.8177 C   0  0  0  0  0  0  0  0  0  0  0  0
  -20.6318   -7.2542   23.3893 C   0  0  0  0  0  0  0  0  0  0  0  0
  -20.2582   -6.8867   24.6820 C   0  0  0  0  0  0  0  0  0  0  0  0
  -30.7300  -19.4351   24.7254 C   0  0  0  0  0  0  0  0  0  0  0  0
  -29.7910  -23.7054   23.9402 C   0  0  0  0  0  0  0  0  0  0  0  0
  -21.5468   -4.8534   24.4763 C   0  0  0  0  0  0  0  0  0  0  0  0
  -23.9217  -10.3454   20.8957 C   0  0  0  0  0  0  0  0  0  0  0  0
  -24.1287  -12.8866   20.8102 C   0  0  0  0  0  0  0  0  0  0  0  0
  -28.8882  -32.9215   25.2308 C   0  0  0  0  0  0  0  0  0  0  0  0
  -31.2130  -25.6430   23.6508 C   0  0  0  0  0  0  0  0  0  0  0  0
  -29.5658  -31.7308   25.5558 C   0  0  0  0  0  0  0  0  0  0  0  0
  -29.9830  -25.0031   23.4418 C   0  0  0  0  0  0  0  0  0  0  0  0
  -31.5446  -18.6615   22.5986 C   0  0  0  0  0  0  0  0  0  0  0  0
  -22.5183   -7.9545   21.2056 C   0  0  0  0  0  0  0  0  0  0  0  0
  -30.8125  -23.0486   24.6258 C   0  0  0  0  0  0  0  0  0  0  0  0
  -21.4629   -6.4213   22.6401 C   0  0  0  0  0  0  0  0  0  0  0  0
  -20.7157   -5.6863   25.2255 C   0  0  0  0  0  0  0  0  0  0  0  0
  -21.9204   -5.2209   23.1837 C   0  0  0  0  0  0  0  0  0  0  0  0
  -24.6473  -11.5800   20.7358 C   0  0  0  0  0  0  0  0  0  0  0  0
  -31.7022  -19.9897   22.2367 C   0  0  0  0  0  0  0  0  0  0  0  0
  -30.9240  -20.7286   24.2683 C   0  0  0  0  0  0  0  0  0  1  0  0
  -25.2136  -13.6997   20.5901 C   0  0  0  0  0  0  0  0  0  0  0  0
  -22.7863  -13.3261   21.0563 C   0  0  0  0  0  0  0  0  0  0  0  0
  -29.5596  -28.3096   24.1602 C   0  0  0  0  0  0  0  0  0  0  0  0
  -28.3450  -27.6544   21.2246 C   0  0  0  0  0  0  0  0  0  0  0  0
  -27.2139  -24.7330   19.4348 C   0  0  0  0  0  0  0  0  0  0  0  0
  -30.9911  -12.8771   21.4838 C   0  0  0  0  0  0  0  0  0  0  0  0
  -27.4502  -32.9171   24.7759 C   0  0  0  0  0  0  0  0  0  0  0  0
  -31.4553  -27.0241   23.1066 C   0  0  0  0  0  0  0  0  0  0  0  0
  -28.8555  -25.6742   22.7023 C   0  0  0  0  0  0  0  0  0  0  0  0
  -26.9688  -31.5518   24.2915 C   0  0  0  0  0  0  0  0  0  0  0  0
  -29.4382  -13.7802   18.3421 C   0  0  0  0  0  0  0  0  0  0  0  0
  -27.3864  -30.4600   25.2714 C   0  0  0  0  0  0  0  0  0  0  0  0
  -27.9730  -13.4371   18.6173 C   0  0  0  0  0  0  0  0  0  0  0  0
  -35.2223  -14.0637   20.4690 C   0  0  0  0  0  0  0  0  0  0  0  0
  -30.3750  -12.7672   18.9937 C   0  0  0  0  0  0  0  0  0  0  0  0
  -28.7111  -12.2545   20.7379 C   0  0  0  0  0  0  0  0  0  0  0  0
  -35.9107  -12.7646   20.8643 C   0  0  0  0  0  0  0  0  0  0  0  0
  -34.0444  -12.2250   22.4508 C   0  0  0  0  0  0  0  0  0  0  0  0
  -28.9132  -30.3760   25.3861 C   0  0  1  0  0  0  0  0  0  0  0  0
  -30.1683  -27.8113   22.8800 C   0  0  1  0  0  0  0  0  0  0  0  0
  -27.7139  -13.2543   20.1245 C   0  0  2  0  0  0  0  0  0  0  0  0
  -33.3151  -13.5145   22.0794 C   0  0  1  0  0  0  0  0  0  0  0  0
  -34.3172  -14.5722   21.5928 C   0  0  2  0  0  0  0  0  0  0  0  0
  -32.6290  -21.8123   20.7856 C   0  0  0  0  0  0  0  0  0  0  0  0
  -30.6219  -16.7338   21.2849 C   0  0  0  0  0  0  0  0  0  0  0  0
  -27.1336  -24.2581   16.9720 C   0  0  0  0  0  0  0  0  0  0  0  0
  -34.1737  -17.3951   22.8397 C   0  0  0  0  0  0  0  0  0  0  0  0
  -25.4779  -28.6808   21.4143 C   0  0  0  0  0  0  0  0  0  0  0  0
  -24.8080  -26.9051   19.7814 C   0  0  0  0  0  0  0  0  0  0  0  0
  -26.4322  -28.6726   19.1027 C   0  0  0  0  0  0  0  0  0  0  0  0
  -28.7986  -22.2526   19.7437 C   0  0  0  0  0  0  0  0  0  0  0  0
  -32.2301  -20.3431   20.8849 C   0  0  0  0  0  0  0  0  0  0  0  0
  -31.8843  -17.5434   21.6747 C   0  0  2  0  0  0  0  0  0  0  0  0
  -27.1688  -26.8625   20.7067 C   0  0  1  0  0  0  0  0  0  0  0  0
  -27.9081  -24.0583   18.2654 C   0  0  2  0  0  0  0  0  0  0  0  0
  -33.0161  -16.6142   22.2196 C   0  0  1  0  0  0  0  0  0  0  0  0
  -25.9847  -27.7733   20.2756 C   0  0  0  0  0  0  0  0  0  0  0  0
  -25.9596  -11.5594   20.4877 N   0  0  0  0  0  0  0  0  0  0  0  0
  -31.4037  -21.0339   23.0417 N   0  0  0  0  0  0  0  0  0  0  0  0
  -26.2747  -12.8632   20.4041 N   0  0  0  0  0  0  0  0  0  0  0  0
  -29.1391  -27.0268   22.1948 N   0  0  0  0  0  0  0  0  0  0  0  0
  -30.0885  -12.6543   20.4308 N   0  0  0  0  0  0  0  0  0  0  0  0
  -25.3538  -15.0414   20.5393 N   0  0  0  0  0  0  0  0  0  0  0  0
  -22.3899  -13.5529   22.3813 N   0  0  0  0  0  0  0  0  0  0  0  0
  -29.4688  -29.6860   24.2417 N   0  0  0  0  0  0  0  0  0  0  0  0
  -27.6870  -26.0117   19.6408 N   0  0  0  0  0  0  0  0  0  0  0  0
  -32.2770  -13.2456   21.1077 N   0  0  0  0  0  0  0  0  0  0  0  0
  -34.8845  -11.7703   21.3005 N   0  3  0  0  0  0  0  0  0  0  0  0
  -33.5927  -15.7821   21.1192 N   0  3  0  0  0  0  0  0  0  0  0  0
  -28.0377  -22.5947   18.5144 N   0  3  0  0  0  0  0  0  0  0  0  0
  -21.9578  -13.4963   20.1299 O   0  0  0  0  0  0  0  0  0  0  0  0
  -29.1977  -27.5047   25.0105 O   0  0  0  0  0  0  0  0  0  0  0  0
  -28.5558  -28.7853   20.7794 O   0  0  0  0  0  0  0  0  0  0  0  0
  -26.3370  -24.1823   20.0967 O   0  0  0  0  0  0  0  0  0  0  0  0
  -30.6731  -12.7614   22.6724 O   0  0  0  0  0  0  0  0  0  0  0  0
  -21.8336   -6.7879   21.3572 O   0  0  0  0  0  0  0  0  0  0  0  0
  -30.6128  -21.7896   25.1022 O   0  0  0  0  0  0  0  0  0  1  0  0
  -20.3580   -5.3343   26.4674 F   0  0  0  0  0  0  0  0  0  0  0  0
  -22.7200   -4.4172   22.4692 F   0  0  0  0  0  0  0  0  0  0  0  0
  1  2  1  0  0  0  0
  1  5  2  0  0  0  0
  2  6  2  0  0  0  0
  3  9  2  0  0  0  0
  3 17  1  0  0  0  0
  4 10  1  0  0  0  0
  4 17  2  0  0  0  0
  5 19  1  0  0  0  0
  6 21  1  0  0  0  0
  7 11  2  0  0  0  0
  7 20  1  0  0  0  0
  8 14  2  0  0  0  0
  8 23  1  0  0  0  0
  9 24  1  0  0  0  0
 10 24  2  0  0  0  0
 11 25  1  0  0  0  0
 12 13  2  0  0  0  0
 12 26  1  0  0  0  0
 13 27  1  0  0  0  0
 14 31  1  0  0  0  0
 15 22  1  0  0  0  0
 15 25  2  0  0  0  0
 16 27  2  0  0  0  0
 16 28  1  0  0  0  0
 17 29  1  0  0  0  0
 18 29  1  0  0  0  0
 18 32  2  0  0  0  0
 18 33  1  0  0  0  0
 19 21  2  0  0  0  0
 19 38  1  0  0  0  0
 20 22  2  0  0  0  0
 20 39  1  0  0  0  0
 21 50  1  0  0  0  0
 22 40  1  0  0  0  0
 23 30  2  0  0  0  0
 23 64  1  0  0  0  0
 24 87  1  0  0  0  0
 25 88  1  0  0  0  0
 26 28  2  0  0  0  0
 26 87  1  0  0  0  0
 27 89  1  0  0  0  0
 28 90  1  0  0  0  0
 29 69  2  0  0  0  0
 30 63  1  0  0  0  0
 30 70  1  0  0  0  0
 31 70  2  0  0  0  0
 31 88  1  0  0  0  0
 32 71  1  0  0  0  0
 32 74  1  0  0  0  0
 33 75  1  0  0  0  0
 33 82  2  0  0  0  0
 34 51  1  0  0  0  0
 34 76  1  0  0  0  0
 34 83  2  0  0  0  0
 35 65  1  0  0  0  0
 35 72  1  0  0  0  0
 35 84  2  0  0  0  0
 36 66  1  0  0  0  0
 36 77  1  0  0  0  0
 36 85  2  0  0  0  0
 37 73  1  0  0  0  0
 37 78  1  0  0  0  0
 37 86  2  0  0  0  0
 38 41  1  0  0  0  0
 39 51  1  0  0  0  0
 40 72  1  0  0  0  0
 41 43  1  0  0  0  0
 42 44  1  0  0  0  0
 42 46  1  0  0  0  0
 43 50  1  0  0  0  0
 44 52  1  0  0  0  0
 45 48  1  0  0  0  0
 45 54  1  0  0  0  0
 46 73  1  0  0  0  0
 47 52  1  0  0  0  0
 47 73  1  0  0  0  0
 48 79  1  0  0  0  0
 49 53  1  0  0  0  0
 49 79  1  0  0  0  0
 50 76  1  0  0  0  0
 51 72  1  0  0  0  0
 52 71  1  0  0  0  0
 53 54  1  0  0  0  0
 53 78  1  0  0  0  0
 54 80  1  0  0  0  0
 55 63  1  0  0  0  0
 56 64  1  0  0  0  0
 57 66  1  0  0  0  0
 58 67  1  0  0  0  0
 59 68  1  0  0  0  0
 60 68  1  0  0  0  0
 61 68  1  0  0  0  0
 62 81  1  0  0  0  0
 64 67  1  0  0  0  0
 65 68  1  0  0  0  0
 65 77  1  0  0  0  0
 66 81  1  0  0  0  0
 67 80  1  0  0  0  0
 69 71  1  0  0  0  0
M  CHG  3  79   1  80   1  81   1
M  ISO  4  31 101  37 100  78 100  88 101
M  END
> <Batch ID>
0121

> <Smiles>
CCc1n[101c:1]([101O:1]c2ccc3c(c2)CN(C(=O)C(NC(=O)C(C)NC)C(C)(C)C)C(C(=O)NC2CCCc4ccccc42)C3)ccc1C(C)C(C)NC1CCNCC1[100NH:0][100C:0](=O)N1CCCC(n2nc(-c3ccc(Oc4ccc(F)cc4F)cc3)c(C(N)=O)c2N)C1

> <Shape>
0.259

> <Color>
0.142

> <Negative vol penalty>
0.000

$$$$

  -OEChem-04052320253D

 81 89  0     1  0  0  0  0  0999 V2000
  -27.5242  -24.1434   16.8819 C   0  0  0  0  0  0  0  0  0  0  0  0
  -26.3953  -24.3964   17.6545 C   0  0  0  0  0  0  0  0  0  0  0  0
  -27.1658  -17.0965   19.0354 C   0  0  0  0  0  0  0  0  0  0  0  0
  -26.9218  -17.7319   21.3536 C   0  0  0  0  0  0  0  0  0  0  0  0
  -28.7630  -24.6498   17.2729 C   0  0  0  0  0  0  0  0  0  0  0  0
  -26.5048  -25.1551   18.8193 C   0  0  0  0  0  0  0  0  0  0  0  0
  -22.8239  -28.6073   19.2424 C   0  0  0  0  0  0  0  0  0  0  0  0
  -28.4772  -17.5715   19.0432 C   0  0  0  0  0  0  0  0  0  0  0  0
  -28.2332  -18.2069   21.3614 C   0  0  0  0  0  0  0  0  0  0  0  0
  -21.5733  -28.1563   19.6622 C   0  0  0  0  0  0  0  0  0  0  0  0
  -31.3974  -19.9149   21.8909 C   0  0  0  0  0  0  0  0  0  0  0  0
  -31.6351  -21.1528   22.4882 C   0  0  0  0  0  0  0  0  0  0  0  0
  -22.0504  -28.9317   21.8961 C   0  0  0  0  0  0  0  0  0  0  0  0
  -30.1301  -22.2007   20.9153 C   0  0  0  0  0  0  0  0  0  0  0  0
  -26.3880  -17.1767   20.1906 C   0  0  0  0  0  0  0  0  0  0  0  0
  -24.5982  -15.3845   20.4944 C   0  0  0  0  0  0  0  0  0  0  0  0
  -28.8860  -25.4232   18.4379 C   0  0  0  0  0  0  0  0  0  0  0  0
  -23.7030  -29.2150   20.1502 C   0  0  0  0  0  0  0  0  0  0  0  0
  -27.7466  -25.6712   19.2270 C   0  0  0  0  0  0  0  0  0  0  0  0
  -23.3106  -29.3918   21.4847 C   0  0  0  0  0  0  0  0  0  0  0  0
  -29.0109  -18.1267   20.2062 C   0  0  0  0  0  0  0  0  0  0  0  0
  -21.1875  -28.3159   20.9899 C   0  0  0  0  0  0  0  0  0  0  0  0
  -30.5262  -19.8199   20.8057 C   0  0  0  0  0  0  0  0  0  0  0  0
  -31.0014  -22.2957   22.0004 C   0  0  0  0  0  0  0  0  0  0  0  0
  -29.8925  -20.9628   20.3179 C   0  0  0  0  0  0  0  0  0  0  0  0
  -25.0330  -16.6867   20.1830 C   0  0  0  0  0  0  0  0  0  0  0  0
  -23.2344  -15.4315   20.3388 C   0  0  0  0  0  0  0  0  0  0  0  0
  -25.3591  -14.2352   20.8890 C   0  0  0  0  0  0  0  0  0  0  0  0
  -26.6043  -28.5384   21.2586 C   0  0  0  0  0  0  0  0  0  0  0  0
  -26.3116  -31.4386   22.6818 C   0  0  0  0  0  0  0  0  0  0  0  0
  -24.2539  -33.8881   23.8703 C   0  0  0  0  0  0  0  0  0  0  0  0
  -19.2491  -19.8910   20.6252 C   0  0  0  0  0  0  0  0  0  0  0  0
  -30.2543  -25.9094   18.8454 C   0  0  0  0  0  0  0  0  0  0  0  0
  -25.0379  -29.7201   19.6755 C   0  0  0  0  0  0  0  0  0  0  0  0
  -24.2094  -30.0562   22.4943 C   0  0  0  0  0  0  0  0  0  0  0  0
  -30.2194  -27.0189   19.8933 C   0  0  0  0  0  0  0  0  0  0  0  0
  -19.8231  -17.7062   17.8731 C   0  0  0  0  0  0  0  0  0  0  0  0
  -29.2507  -26.6622   21.0163 C   0  0  0  0  0  0  0  0  0  0  0  0
  -20.5739  -25.2794   22.3998 C   0  0  0  0  0  0  0  0  0  0  0  0
  -21.1842  -17.0797   18.1811 C   0  0  0  0  0  0  0  0  0  0  0  0
  -20.4302  -24.1004   23.3610 C   0  0  0  0  0  0  0  0  0  0  0  0
  -19.7621  -19.1675   18.3122 C   0  0  0  0  0  0  0  0  0  0  0  0
  -21.4868  -18.7799   20.0295 C   0  0  0  0  0  0  0  0  0  0  0  0
  -18.6328  -24.3956   21.0521 C   0  0  0  0  0  0  0  0  0  0  0  0
  -27.8206  -26.5107   20.4839 C   0  0  1  0  0  0  0  0  0  0  0  0
  -26.0580  -29.8613   20.8011 C   0  0  1  0  0  0  0  0  0  0  0  0
  -19.2381  -25.6247   21.7284 C   0  0  2  0  0  0  0  0  0  0  0  0
  -21.5778  -17.2905   19.6555 C   0  0  2  0  0  0  0  0  0  0  0  0
  -19.8160  -22.8824   22.6727 C   0  0  1  0  0  0  0  0  0  0  0  0
  -24.3058  -36.1220   25.0125 C   0  0  0  0  0  0  0  0  0  0  0  0
  -18.0974  -27.1427   20.0790 C   0  0  0  0  0  0  0  0  0  0  0  0
  -26.9755  -30.0685   25.3261 C   0  0  0  0  0  0  0  0  0  0  0  0
  -26.0941  -32.0885   26.5139 C   0  0  0  0  0  0  0  0  0  0  0  0
  -28.0673  -32.2949   25.0018 C   0  0  0  0  0  0  0  0  0  0  0  0
  -22.8898  -35.2101   21.6008 C   0  0  0  0  0  0  0  0  0  0  0  0
  -19.5482  -21.7464   23.6490 C   0  0  0  0  0  0  0  0  0  0  0  0
  -18.8763  -20.5478   22.9893 C   0  0  0  0  0  0  0  0  0  0  0  0
  -25.7733  -31.9315   24.0033 C   0  0  1  0  0  0  0  0  0  0  0  0
  -24.2647  -35.3939   23.6779 C   0  0  2  0  0  0  0  0  0  0  0  0
  -19.4190  -26.7488   20.7210 C   0  0  1  0  0  0  0  0  0  1  0  0
  -26.7112  -31.5816   25.1929 C   0  0  0  0  0  0  0  0  0  0  0  0
  -24.0270  -17.5014   19.8543 N   0  0  0  0  0  0  0  0  0  0  0  0
  -22.9464  -16.7091   19.9582 N   0  0  0  0  0  0  0  0  0  0  0  0
  -25.5071  -30.5275   21.9829 N   0  0  0  0  0  0  0  0  0  0  0  0
  -20.1451  -19.2984   19.7201 N   0  0  0  0  0  0  0  0  0  0  0  0
  -22.2654  -14.5041   20.4918 N   0  0  0  0  0  0  0  0  0  0  0  0
  -26.7506  -14.3610   21.0002 N   0  0  0  0  0  0  0  0  0  0  0  0
  -27.2241  -27.8103   20.2609 N   0  0  0  0  0  0  0  0  0  0  0  0
  -25.5271  -33.3598   23.8365 N   0  0  0  0  0  0  0  0  0  0  0  0
  -19.6879  -19.9701   21.9412 N   0  0  0  0  0  0  0  0  0  0  0  0
  -18.5127  -23.2899   22.0504 N   0  3  0  0  0  0  0  0  0  0  0  0
  -23.0450  -35.8308   22.9415 N   0  3  0  0  0  0  0  0  0  0  0  0
  -24.8227  -13.1250   21.1199 O   0  0  0  0  0  0  0  0  0  0  0  0
  -26.4746  -28.2038   22.4303 O   0  0  0  0  0  0  0  0  0  0  0  0
  -27.4024  -31.8523   22.2810 O   0  0  0  0  0  0  0  0  0  0  0  0
  -23.2198  -33.2454   24.0378 O   0  0  0  0  0  0  0  0  0  0  0  0
  -18.1382  -20.3130   20.2867 O   0  0  0  0  0  0  0  0  0  0  0  0
  -30.2907  -18.5901   20.2143 O   0  0  0  0  0  0  0  0  0  0  0  0
  -19.9676  -27.8761   21.4025 O   0  0  0  0  0  0  0  0  0  1  0  0
  -31.2285  -23.4841   22.5751 F   0  0  0  0  0  0  0  0  0  0  0  0
  -29.0535  -20.8776   19.2764 F   0  0  0  0  0  0  0  0  0  0  0  0
  1  2  1  0  0  0  0
  1  5  2  0  0  0  0
  2  6  2  0  0  0  0
  3  8  2  0  0  0  0
  3 15  1  0  0  0  0
  4  9  1  0  0  0  0
  4 15  2  0  0  0  0
  5 17  1  0  0  0  0
  6 19  1  0  0  0  0
  7 10  2  0  0  0  0
  7 18  1  0  0  0  0
  8 21  1  0  0  0  0
  9 21  2  0  0  0  0
 10 22  1  0  0  0  0
 11 12  2  0  0  0  0
 11 23  1  0  0  0  0
 12 24  1  0  0  0  0
 13 20  1  0  0  0  0
 13 22  2  0  0  0  0
 14 24  2  0  0  0  0
 14 25  1  0  0  0  0
 15 26  1  0  0  0  0
 16 26  1  0  0  0  0
 16 27  2  0  0  0  0
 16 28  1  0  0  0  0
 17 19  2  0  0  0  0
 17 33  1  0  0  0  0
 18 20  2  0  0  0  0
 18 34  1  0  0  0  0
 19 45  1  0  0  0  0
 20 35  1  0  0  0  0
 21 78  1  0  0  0  0
 22 79  1  0  0  0  0
 23 25  2  0  0  0  0
 23 78  1  0  0  0  0
 24 80  1  0  0  0  0
 25 81  1  0  0  0  0
 26 62  2  0  0  0  0
 27 63  1  0  0  0  0
 27 66  1  0  0  0  0
 28 67  1  0  0  0  0
 28 73  2  0  0  0  0
 29 46  1  0  0  0  0
 29 68  1  0  0  0  0
 29 74  2  0  0  0  0
 30 58  1  0  0  0  0
 30 64  1  0  0  0  0
 30 75  2  0  0  0  0
 31 59  1  0  0  0  0
 31 69  1  0  0  0  0
 31 76  2  0  0  0  0
 32 65  1  0  0  0  0
 32 70  1  0  0  0  0
 32 77  2  0  0  0  0
 33 36  1  0  0  0  0
 34 46  1  0  0  0  0
 35 64  1  0  0  0  0
 36 38  1  0  0  0  0
 37 40  1  0  0  0  0
 37 42  1  0  0  0  0
 38 45  1  0  0  0  0
 39 41  1  0  0  0  0
 39 47  1  0  0  0  0
 40 48  1  0  0  0  0
 41 49  1  0  0  0  0
 42 65  1  0  0  0  0
 43 48  1  0  0  0  0
 43 65  1  0  0  0  0
 44 47  1  0  0  0  0
 44 71  1  0  0  0  0
 45 68  1  0  0  0  0
 46 64  1  0  0  0  0
 47 60  1  0  0  0  0
 48 63  1  0  0  0  0
 49 56  1  0  0  0  0
 49 71  1  0  0  0  0
 50 59  1  0  0  0  0
 51 60  1  0  0  0  0
 52 61  1  0  0  0  0
 53 61  1  0  0  0  0
 54 61  1  0  0  0  0
 55 72  1  0  0  0  0
 56 57  1  0  0  0  0
 57 70  1  0  0  0  0
 58 61  1  0  0  0  0
 58 69  1  0  0  0  0
 59 72  1  0  0  0  0
 60 79  1  0  0  0  0
 62 63  1  0  0  0  0
M  CHG  2  71   1  72   1
M  ISO  4  32 100  60 101  70 100  79 101
M  END
> <Batch ID>
0121

> <Smiles>
CNC(C)C(=O)NC(C(=O)N1Cc2cc([101O:1][101CH:1](C)C3CCC(CC[100NH:0][100C:0](=O)N4CCCC(n5nc(-c6ccc(Oc7ccc(F)cc7F)cc6)c(C(N)=O)c5N)C4)NC3)ccc2CC1C(=O)NC1CCCc2ccccc21)C(C)(C)C

> <Shape>
0.275

> <Color>
0.080

> <Negative vol penalty>
0.000

$$$$

  -OEChem-04052320253D

 87 96  0     1  0  0  0  0  0999 V2000
  -28.4440  -33.0957   23.5824 C   0  0  0  0  0  0  0  0  0  0  0  0
  -28.2178  -31.9676   24.3644 C   0  0  0  0  0  0  0  0  0  0  0  0
  -23.0999   -9.8001   19.9601 C   0  0  0  0  0  0  0  0  0  0  0  0
  -23.4893   -9.9926   22.3367 C   0  0  0  0  0  0  0  0  0  0  0  0
  -28.3630  -33.0072   22.1933 C   0  0  0  0  0  0  0  0  0  0  0  0
  -27.9094  -30.7505   23.7578 C   0  0  0  0  0  0  0  0  0  0  0  0
  -29.5507  -25.1667   25.6638 C   0  0  0  0  0  0  0  0  0  0  0  0
  -22.3005   -8.6788   20.1819 C   0  0  0  0  0  0  0  0  0  0  0  0
  -22.6898   -8.8713   22.5585 C   0  0  0  0  0  0  0  0  0  0  0  0
  -28.8755  -24.1879   26.3917 C   0  0  0  0  0  0  0  0  0  0  0  0
  -22.9908   -5.5118   22.3269 C   0  0  0  0  0  0  0  0  0  0  0  0
  -23.4627   -4.5448   23.2145 C   0  0  0  0  0  0  0  0  0  0  0  0
  -28.2442  -23.1009   24.3328 C   0  0  0  0  0  0  0  0  0  0  0  0
  -21.5182   -4.8765   24.6095 C   0  0  0  0  0  0  0  0  0  0  0  0
  -23.6944  -10.4570   21.0375 C   0  0  0  0  0  0  0  0  0  0  0  0
  -24.1070  -12.9599   20.7679 C   0  0  0  0  0  0  0  0  0  0  0  0
  -28.0629  -31.7863   21.5689 C   0  0  0  0  0  0  0  0  0  0  0  0
  -29.5686  -25.1259   24.2623 C   0  0  0  0  0  0  0  0  0  0  0  0
  -27.8230  -30.6459   22.3591 C   0  0  0  0  0  0  0  0  0  0  0  0
  -28.9225  -24.0789   23.5896 C   0  0  0  0  0  0  0  0  0  0  0  0
  -22.0954   -8.2144   21.4811 C   0  0  0  0  0  0  0  0  0  0  0  0
  -28.2196  -23.1564   25.7262 C   0  0  0  0  0  0  0  0  0  0  0  0
  -21.7827   -6.1612   22.5806 C   0  0  0  0  0  0  0  0  0  0  0  0
  -22.7263   -4.2272   24.3558 C   0  0  0  0  0  0  0  0  0  0  0  0
  -21.0463   -5.8436   23.7218 C   0  0  0  0  0  0  0  0  0  0  0  0
  -24.5208  -11.6150   20.8089 C   0  0  0  0  0  0  0  0  0  0  0  0
  -25.2591  -13.6663   20.5228 C   0  0  0  0  0  0  0  0  0  0  0  0
  -27.8743  -16.2696   24.2932 C   0  0  0  0  0  0  0  0  0  0  0  0
  -22.7982  -13.5206   20.9365 C   0  0  0  0  0  0  0  0  0  0  0  0
  -28.5296  -27.0424   21.9490 C   0  0  0  0  0  0  0  0  0  0  0  0
  -30.0577  -24.9159   20.0344 C   0  0  0  0  0  0  0  0  0  0  0  0
  -31.2616  -21.7522   19.6004 C   0  0  0  0  0  0  0  0  0  0  0  0
  -31.0445  -12.5144   21.5490 C   0  0  0  0  0  0  0  0  0  0  0  0
  -27.9399  -31.7503   20.0662 C   0  0  0  0  0  0  0  0  0  0  0  0
  -30.3240  -26.1744   23.4926 C   0  0  0  0  0  0  0  0  0  0  0  0
  -28.9289  -23.9784   22.0868 C   0  0  0  0  0  0  0  0  0  0  0  0
  -27.9766  -30.3390   19.4856 C   0  0  0  0  0  0  0  0  0  0  0  0
  -29.5312  -13.2458   18.4102 C   0  0  0  0  0  0  0  0  0  0  0  0
  -27.0580  -29.4125   20.2760 C   0  0  0  0  0  0  0  0  0  0  0  0
  -28.0382  -13.0322   18.6654 C   0  0  0  0  0  0  0  0  0  0  0  0
  -26.8272  -17.4753   27.4847 C   0  0  0  0  0  0  0  0  0  0  0  0
  -28.3621  -15.6500   26.6872 C   0  0  0  0  0  0  0  0  0  0  0  0
  -28.7200  -18.0152   25.8832 C   0  0  0  0  0  0  0  0  0  0  0  0
  -30.3847  -12.2383   19.1773 C   0  0  0  0  0  0  0  0  0  0  0  0
  -26.0128  -15.6547   25.8888 C   0  0  0  0  0  0  0  0  0  0  0  0
  -28.6260  -11.9645   20.8820 C   0  0  0  0  0  0  0  0  0  0  0  0
  -27.5103  -29.3022   21.7371 C   0  0  1  0  0  0  0  0  0  0  0  0
  -29.8433  -26.3204   22.0521 C   0  0  1  0  0  0  0  0  0  0  0  0
  -26.9260  -15.9999   27.0654 C   0  0  2  0  0  0  0  0  0  0  0  0
  -27.3449  -18.4493   26.4185 C   0  0  2  0  0  0  0  0  0  0  0  0
  -27.7271  -12.9924   20.1737 C   0  0  2  0  0  0  0  0  0  0  0  0
  -28.7936  -16.5183   25.4992 C   0  0  2  0  0  0  0  0  0  0  0  0
  -32.4267  -20.3016   17.9165 C   0  0  0  0  0  0  0  0  0  0  0  0
  -27.4504  -24.6371   18.4742 C   0  0  0  0  0  0  0  0  0  0  0  0
  -28.3660  -22.5420   17.4543 C   0  0  0  0  0  0  0  0  0  0  0  0
  -29.5097  -24.7231   17.0577 C   0  0  0  0  0  0  0  0  0  0  0  0
  -33.5768  -21.3289   21.3947 C   0  0  0  0  0  0  0  0  0  0  0  0
  -27.4062  -19.8735   26.9719 C   0  0  0  0  0  0  0  0  0  0  0  0
  -30.2388  -16.1658   25.1125 C   0  0  0  0  0  0  0  0  0  0  0  0
  -31.5479  -12.7748   23.9652 C   0  0  0  0  0  0  0  0  0  0  0  0
  -31.6264  -14.2505   24.3096 C   0  0  0  0  0  0  0  0  0  0  0  0
  -27.4822  -20.8992   25.8568 C   0  0  0  0  0  0  0  0  0  1  0  0
  -29.6693  -23.6359   19.3347 C   0  0  1  0  0  0  0  0  0  0  0  0
  -32.6006  -21.2442   19.0972 C   0  0  2  0  0  0  0  0  0  0  0  0
  -28.7469  -23.8872   18.1085 C   0  0  0  0  0  0  0  0  0  0  0  0
  -25.8332  -11.4729   20.6059 N   0  0  0  0  0  0  0  0  0  0  0  0
  -26.2541  -12.7377   20.4349 N   0  0  0  0  0  0  0  0  0  0  0  0
  -26.5550  -15.9812   24.5795 N   0  0  0  0  0  0  0  0  0  0  0  0
  -29.6759  -25.0310   21.3786 N   0  0  0  0  0  0  0  0  0  0  0  0
  -30.0415  -12.2515   20.6014 N   0  0  0  0  0  0  0  0  0  0  0  0
  -25.5080  -14.9850   20.3759 N   0  0  0  0  0  0  0  0  0  0  0  0
  -21.7258  -12.6522   21.1818 N   0  0  0  0  0  0  0  0  0  0  0  0
  -28.6486  -28.4154   21.8482 N   0  0  0  0  0  0  0  0  0  0  0  0
  -30.9169  -22.9514   19.0136 N   0  0  0  0  0  0  0  0  0  0  0  0
  -30.6330  -12.5145   22.8762 N   0  0  0  0  0  0  0  0  0  0  0  0
  -33.3177  -20.5135   20.1802 N   0  3  0  0  0  0  0  0  0  0  0  0
  -30.2900  -14.7345   24.7646 N   0  3  0  0  0  0  0  0  0  0  0  0
  -28.2700  -16.4023   23.1335 O   0  0  0  0  0  0  0  0  0  0  0  0
  -22.5833  -14.7538   20.8552 O   0  0  0  0  0  0  0  0  0  0  0  0
  -27.4854  -26.4011   21.9585 O   0  0  0  0  0  0  0  0  0  0  0  0
  -30.6833  -25.7788   19.4134 O   0  0  0  0  0  0  0  0  0  0  0  0
  -30.5869  -21.1440   20.4284 O   0  0  0  0  0  0  0  0  0  0  0  0
  -32.2186  -12.7382   21.2352 O   0  0  0  0  0  0  0  0  0  0  0  0
  -21.3152   -7.1204   21.6979 O   0  0  0  0  0  0  0  0  0  0  0  0
  -27.5544  -22.1931   26.4394 O   0  0  0  0  0  0  0  0  0  1  0  0
  -23.1788   -3.2975   25.2073 F   0  0  0  0  0  0  0  0  0  0  0  0
  -19.8844   -6.4632   23.9703 F   0  0  0  0  0  0  0  0  0  0  0  0
  1  2  1  0  0  0  0
  1  5  2  0  0  0  0
  2  6  2  0  0  0  0
  3  8  2  0  0  0  0
  3 15  1  0  0  0  0
  4  9  1  0  0  0  0
  4 15  2  0  0  0  0
  5 17  1  0  0  0  0
  6 19  1  0  0  0  0
  7 10  2  0  0  0  0
  7 18  1  0  0  0  0
  8 21  1  0  0  0  0
  9 21  2  0  0  0  0
 10 22  1  0  0  0  0
 11 12  2  0  0  0  0
 11 23  1  0  0  0  0
 12 24  1  0  0  0  0
 13 20  1  0  0  0  0
 13 22  2  0  0  0  0
 14 24  2  0  0  0  0
 14 25  1  0  0  0  0
 15 26  1  0  0  0  0
 16 26  1  0  0  0  0
 16 27  2  0  0  0  0
 16 29  1  0  0  0  0
 17 19  2  0  0  0  0
 17 34  1  0  0  0  0
 18 20  2  0  0  0  0
 18 35  1  0  0  0  0
 19 47  1  0  0  0  0
 20 36  1  0  0  0  0
 21 84  1  0  0  0  0
 22 85  1  0  0  0  0
 23 25  2  0  0  0  0
 23 84  1  0  0  0  0
 24 86  1  0  0  0  0
 25 87  1  0  0  0  0
 26 66  2  0  0  0  0
 27 67  1  0  0  0  0
 27 71  1  0  0  0  0
 28 52  1  0  0  0  0
 28 68  1  0  0  0  0
 28 78  2  0  0  0  0
 29 72  1  0  0  0  0
 29 79  2  0  0  0  0
 30 48  1  0  0  0  0
 30 73  1  0  0  0  0
 30 80  2  0  0  0  0
 31 63  1  0  0  0  0
 31 69  1  0  0  0  0
 31 81  2  0  0  0  0
 32 64  1  0  0  0  0
 32 74  1  0  0  0  0
 32 82  2  0  0  0  0
 33 70  1  0  0  0  0
 33 75  1  0  0  0  0
 33 83  2  0  0  0  0
 34 37  1  0  0  0  0
 35 48  1  0  0  0  0
 36 69  1  0  0  0  0
 37 39  1  0  0  0  0
 38 40  1  0  0  0  0
 38 44  1  0  0  0  0
 39 47  1  0  0  0  0
 40 51  1  0  0  0  0
 41 49  1  0  0  0  0
 41 50  1  0  0  0  0
 42 49  1  0  0  0  0
 42 52  1  0  0  0  0
 43 50  1  0  0  0  0
 43 52  1  0  0  0  0
 44 70  1  0  0  0  0
 45 49  1  0  0  0  0
 45 68  1  0  0  0  0
 46 51  1  0  0  0  0
 46 70  1  0  0  0  0
 47 73  1  0  0  0  0
 48 69  1  0  0  0  0
 50 58  1  0  0  0  0
 51 67  1  0  0  0  0
 52 59  1  0  0  0  0
 53 64  1  0  0  0  0
 54 65  1  0  0  0  0
 55 65  1  0  0  0  0
 56 65  1  0  0  0  0
 57 76  1  0  0  0  0
 58 62  1  0  0  0  0
 59 77  1  0  0  0  0
 60 61  1  0  0  0  0
 60 75  1  0  0  0  0
 61 77  1  0  0  0  0
 62 85  1  0  0  0  0
 63 65  1  0  0  0  0
 63 74  1  0  0  0  0
 64 76  1  0  0  0  0
 66 67  1  0  0  0  0
M  CHG  2  76   1  77   1
M  ISO  4  33 100  62 101  75 100  85 101
M  END
> <Batch ID>
0121

> <Smiles>
CNC(C)C(=O)NC(C(=O)N1Cc2cc([101O:1][101CH2:1]CC3CC4CNC(=O)C(CNCC[100NH:0][100C:0](=O)N5CCCC(n6nc(-c7ccc(Oc8ccc(F)cc8F)cc7)c(C(N)=O)c6N)C5)(C4)C3)ccc2CC1C(=O)NC1CCCc2ccccc21)C(C)(C)C

> <Shape>
0.234

> <Color>
0.189

> <Negative vol penalty>
0.000

$$$$

  -OEChem-04052320253D

 90100  0     1  0  0  0  0  0999 V2000
  -29.9651  -24.5968   18.0537 C   0  0  0  0  0  0  0  0  0  0  0  0
  -28.5850  -24.7722   18.0472 C   0  0  0  0  0  0  0  0  0  0  0  0
  -24.6607  -10.4151   23.7114 C   0  0  0  0  0  0  0  0  0  0  0  0
  -23.7797   -9.7215   21.5714 C   0  0  0  0  0  0  0  0  0  0  0  0
  -30.7191  -25.0490   19.1358 C   0  0  0  0  0  0  0  0  0  0  0  0
  -27.9580  -25.3991   19.1235 C   0  0  0  0  0  0  0  0  0  0  0  0
  -23.0480  -29.0528   18.9044 C   0  0  0  0  0  0  0  0  0  0  0  0
  -24.6824   -9.0858   24.1334 C   0  0  0  0  0  0  0  0  0  0  0  0
  -23.8013   -8.3921   21.9933 C   0  0  0  0  0  0  0  0  0  0  0  0
  -21.6940  -28.8197   19.1414 C   0  0  0  0  0  0  0  0  0  0  0  0
  -21.9163   -6.3627   23.9321 C   0  0  0  0  0  0  0  0  0  0  0  0
  -20.7941   -5.5791   23.6635 C   0  0  0  0  0  0  0  0  0  0  0  0
  -19.4416  -20.4297   17.9336 C   0  0  0  0  0  0  0  0  0  0  0  0
  -21.9592  -29.6152   21.4032 C   0  0  0  0  0  0  0  0  0  0  0  0
  -18.2429  -21.1784   19.8796 C   0  0  0  0  0  0  0  0  0  0  0  0
  -22.1604   -4.0670   22.3658 C   0  0  0  0  0  0  0  0  0  0  0  0
  -19.8512  -21.7403   17.7481 C   0  0  0  0  0  0  0  0  0  0  0  0
  -24.2093  -10.7330   22.4304 C   0  0  0  0  0  0  0  0  0  0  0  0
  -25.2173  -12.8082   21.3418 C   0  0  0  0  0  0  0  0  0  0  0  0
  -30.1021  -25.6904   20.2215 C   0  0  0  0  0  0  0  0  0  0  0  0
  -23.8715  -29.5595   19.9201 C   0  0  0  0  0  0  0  0  0  0  0  0
  -28.7042  -25.8591   20.2217 C   0  0  0  0  0  0  0  0  0  0  0  0
  -18.6222  -20.1518   19.0220 C   0  0  0  0  0  0  0  0  0  0  0  0
  -23.3227  -29.8563   21.1758 C   0  0  0  0  0  0  0  0  0  0  0  0
  -24.2527   -8.0743   23.2744 C   0  0  0  0  0  0  0  0  0  0  0  0
  -21.1500  -29.0982   20.3918 C   0  0  0  0  0  0  0  0  0  0  0  0
  -23.1606   -5.9985   23.4175 C   0  0  0  0  0  0  0  0  0  0  0  0
  -20.9161   -4.4313   22.8804 C   0  0  0  0  0  0  0  0  0  0  0  0
  -23.2826   -4.8507   22.6344 C   0  0  0  0  0  0  0  0  0  0  0  0
  -24.1862  -12.1060   21.9941 C   0  0  0  0  0  0  0  0  0  0  0  0
  -18.7063  -22.4555   19.6071 C   0  0  0  0  0  0  0  0  0  0  0  0
  -24.7039  -14.0667   21.1442 C   0  0  0  0  0  0  0  0  0  0  0  0
  -26.5223  -12.3626   20.9494 C   0  0  0  0  0  0  0  0  0  0  0  0
  -26.4362  -28.4965   21.4679 C   0  0  0  0  0  0  0  0  0  0  0  0
  -26.4053  -31.4700   22.7639 C   0  0  0  0  0  0  0  0  0  0  0  0
  -24.6132  -34.2596   23.5724 C   0  0  0  0  0  0  0  0  0  0  0  0
  -18.8554  -15.7057   20.9282 C   0  0  0  0  0  0  0  0  0  0  0  0
  -30.9532  -26.1198   21.3901 C   0  0  0  0  0  0  0  0  0  0  0  0
  -25.3243  -29.8305   19.6404 C   0  0  0  0  0  0  0  0  0  0  0  0
  -24.1597  -30.4205   22.2937 C   0  0  0  0  0  0  0  0  0  0  0  0
  -30.2559  -27.1091   22.3204 C   0  0  0  0  0  0  0  0  0  0  0  0
  -21.6024  -17.1916   22.9905 C   0  0  0  0  0  0  0  0  0  0  0  0
  -28.8389  -26.6393   22.6340 C   0  0  0  0  0  0  0  0  0  0  0  0
  -22.6315  -16.0626   22.9596 C   0  0  0  0  0  0  0  0  0  0  0  0
  -19.5691  -24.2067   21.1485 C   0  0  0  0  0  0  0  0  0  0  0  0
  -17.5286  -24.6433   19.7228 C   0  0  0  0  0  0  0  0  0  0  0  0
  -20.1839  -16.6507   22.8544 C   0  0  0  0  0  0  0  0  0  0  0  0
  -16.6069  -16.7266   20.7336 C   0  0  0  0  0  0  0  0  0  0  0  0
  -18.5819  -18.2108   20.6496 C   0  0  0  0  0  0  0  0  0  0  0  0
  -20.9981  -14.6786   21.6006 C   0  0  0  0  0  0  0  0  0  0  0  0
  -19.2144  -25.4130   22.0085 C   0  0  0  0  0  0  0  0  0  0  0  0
  -17.1893  -25.8461   20.5940 C   0  0  0  0  0  0  0  0  0  0  0  0
  -16.1525  -17.2028   19.3654 C   0  0  0  0  0  0  0  0  0  0  0  0
  -27.9904  -26.5566   21.3593 C   0  0  1  0  0  0  0  0  0  0  0  0
  -18.1453  -18.7376   19.2713 C   0  0  1  0  0  0  0  0  0  0  0  0
  -18.3190  -23.5817   20.5063 C   0  0  0  0  0  0  0  0  0  0  0  0
  -26.1796  -29.8650   20.9031 C   0  0  1  0  0  0  0  0  0  0  0  0
  -22.4461  -15.1839   21.7110 C   0  0  2  0  0  0  0  0  0  0  0  0
  -24.8535  -36.5094   24.6578 C   0  0  0  0  0  0  0  0  0  0  0  0
  -26.4519  -30.1382   25.5088 C   0  0  0  0  0  0  0  0  0  0  0  0
  -25.7403  -32.3227   26.5036 C   0  0  0  0  0  0  0  0  0  0  0  0
  -27.9194  -32.1526   25.3016 C   0  0  0  0  0  0  0  0  0  0  0  0
  -23.8207  -35.6690   21.0936 C   0  0  0  0  0  0  0  0  0  0  0  0
  -18.1951  -27.6870   21.9409 C   0  0  0  0  0  0  0  0  0  0  0  0
  -19.4532  -28.5325   21.9592 C   0  0  0  0  0  0  0  0  0  1  0  0
  -25.7662  -32.1007   23.9776 C   0  0  1  0  0  0  0  0  0  0  0  0
  -24.8912  -35.7352   23.3494 C   0  0  2  0  0  0  0  0  0  0  0  0
  -26.4538  -31.6661   25.3026 C   0  0  0  0  0  0  0  0  0  0  0  0
  -19.5034  -22.7640   18.5597 N   0  0  0  0  0  0  0  0  0  0  0  0
  -23.1000  -12.8562   22.1976 N   0  0  0  0  0  0  0  0  0  0  0  0
  -23.4457  -14.0429   21.6701 N   0  0  0  0  0  0  0  0  0  0  0  0
  -25.5761  -30.6622   21.9730 N   0  0  0  0  0  0  0  0  0  0  0  0
  -20.0426  -15.7858   21.6750 N   0  0  0  0  0  0  0  0  0  0  0  0
  -18.0559  -16.8577   20.8838 N   0  0  0  0  0  0  0  0  0  0  0  0
  -25.2107  -15.1804   20.5738 N   0  0  0  0  0  0  0  0  0  0  0  0
  -26.8883  -11.0388   21.2286 N   0  0  0  0  0  0  0  0  0  0  0  0
  -27.5588  -27.8768   20.9530 N   0  0  0  0  0  0  0  0  0  0  0  0
  -25.7773  -33.5406   23.7429 N   0  0  0  0  0  0  0  0  0  0  0  0
  -16.6475  -18.5977   19.1523 N   0  3  0  0  0  0  0  0  0  0  0  0
  -18.4594  -26.4201   21.1746 N   0  3  0  0  0  0  0  0  0  0  0  0
  -23.8764  -36.3200   22.4278 N   0  3  0  0  0  0  0  0  0  0  0  0
  -27.3457  -13.1208   20.3831 O   0  0  0  0  0  0  0  0  0  0  0  0
  -25.6731  -28.0375   22.3097 O   0  0  0  0  0  0  0  0  0  0  0  0
  -27.5944  -31.6919   22.5225 O   0  0  0  0  0  0  0  0  0  0  0  0
  -23.4768  -33.7921   23.5970 O   0  0  0  0  0  0  0  0  0  0  0  0
  -18.5340  -14.6693   20.3337 O   0  0  0  0  0  0  0  0  0  0  0  0
  -24.2740   -6.7770   23.6857 O   0  0  0  0  0  0  0  0  0  0  0  0
  -19.8194  -28.8694   20.6277 O   0  0  0  0  0  0  0  0  0  1  0  0
  -19.8386   -3.6781   22.6238 F   0  0  0  0  0  0  0  0  0  0  0  0
  -24.4756   -4.4951   22.1382 F   0  0  0  0  0  0  0  0  0  0  0  0
  1  2  1  0  0  0  0
  1  5  2  0  0  0  0
  2  6  2  0  0  0  0
  3  8  2  0  0  0  0
  3 18  1  0  0  0  0
  4  9  1  0  0  0  0
  4 18  2  0  0  0  0
  5 20  1  0  0  0  0
  6 22  1  0  0  0  0
  7 10  2  0  0  0  0
  7 21  1  0  0  0  0
  8 25  1  0  0  0  0
  9 25  2  0  0  0  0
 10 26  1  0  0  0  0
 11 12  2  0  0  0  0
 11 27  1  0  0  0  0
 12 28  1  0  0  0  0
 13 17  2  0  0  0  0
 13 23  1  0  0  0  0
 14 24  1  0  0  0  0
 14 26  2  0  0  0  0
 15 23  2  0  0  0  0
 15 31  1  0  0  0  0
 16 28  2  0  0  0  0
 16 29  1  0  0  0  0
 17 69  1  0  0  0  0
 18 30  1  0  0  0  0
 19 30  1  0  0  0  0
 19 32  2  0  0  0  0
 19 33  1  0  0  0  0
 20 22  2  0  0  0  0
 20 38  1  0  0  0  0
 21 24  2  0  0  0  0
 21 39  1  0  0  0  0
 22 54  1  0  0  0  0
 23 55  1  0  0  0  0
 24 40  1  0  0  0  0
 25 87  1  0  0  0  0
 26 88  1  0  0  0  0
 27 29  2  0  0  0  0
 27 87  1  0  0  0  0
 28 89  1  0  0  0  0
 29 90  1  0  0  0  0
 30 70  2  0  0  0  0
 31 56  1  0  0  0  0
 31 69  2  0  0  0  0
 32 71  1  0  0  0  0
 32 75  1  0  0  0  0
 33 76  1  0  0  0  0
 33 82  2  0  0  0  0
 34 57  1  0  0  0  0
 34 77  1  0  0  0  0
 34 83  2  0  0  0  0
 35 66  1  0  0  0  0
 35 72  1  0  0  0  0
 35 84  2  0  0  0  0
 36 67  1  0  0  0  0
 36 78  1  0  0  0  0
 36 85  2  0  0  0  0
 37 73  1  0  0  0  0
 37 74  1  0  0  0  0
 37 86  2  0  0  0  0
 38 41  1  0  0  0  0
 39 57  1  0  0  0  0
 40 72  1  0  0  0  0
 41 43  1  0  0  0  0
 42 44  1  0  0  0  0
 42 47  1  0  0  0  0
 43 54  1  0  0  0  0
 44 58  1  0  0  0  0
 45 51  1  0  0  0  0
 45 56  1  0  0  0  0
 46 52  1  0  0  0  0
 46 56  1  0  0  0  0
 47 73  1  0  0  0  0
 48 53  1  0  0  0  0
 48 74  1  0  0  0  0
 49 55  1  0  0  0  0
 49 74  1  0  0  0  0
 50 58  1  0  0  0  0
 50 73  1  0  0  0  0
 51 80  1  0  0  0  0
 52 80  1  0  0  0  0
 53 79  1  0  0  0  0
 54 77  1  0  0  0  0
 55 79  1  0  0  0  0
 57 72  1  0  0  0  0
 58 71  1  0  0  0  0
 59 67  1  0  0  0  0
 60 68  1  0  0  0  0
 61 68  1  0  0  0  0
 62 68  1  0  0  0  0
 63 81  1  0  0  0  0
 64 65  1  0  0  0  0
 64 80  1  0  0  0  0
 65 88  1  0  0  0  0
 66 68  1  0  0  0  0
 66 78  1  0  0  0  0
 67 81  1  0  0  0  0
 70 71  1  0  0  0  0
M  CHG  3  79   1  80   1  81   1
M  ISO  4  37 100  65 101  74 100  88 101
M  END
> <Batch ID>
0121

> <Smiles>
CNC(C)C(=O)NC(C(=O)N1Cc2cc([101O:1][101CH2:1]CN3CCC(c4cc(C5C[100N:0]([100C:0](=O)N6CCCC(n7nc(-c8ccc(Oc9ccc(F)cc9F)cc8)c(C(N)=O)c7N)C6)CCN5)ccn4)CC3)ccc2CC1C(=O)NC1CCCc2ccccc21)C(C)(C)C

> <Shape>
0.301

> <Color>
0.097

> <Negative vol penalty>
0.000

$$$$

  -OEChem-04052320253D

 84 92  0     1  0  0  0  0  0999 V2000
  -29.9141  -34.4217   25.1006 C   0  0  0  0  0  0  0  0  0  0  0  0
  -29.5138  -33.2079   24.5513 C   0  0  0  0  0  0  0  0  0  0  0  0
  -22.9535  -10.1276   19.9011 C   0  0  0  0  0  0  0  0  0  0  0  0
  -23.9146   -9.7724   22.0891 C   0  0  0  0  0  0  0  0  0  0  0  0
  -28.9682  -35.2744   25.6682 C   0  0  0  0  0  0  0  0  0  0  0  0
  -28.1674  -32.8455   24.5702 C   0  0  0  0  0  0  0  0  0  0  0  0
  -26.6022  -30.9541   20.1410 C   0  0  0  0  0  0  0  0  0  0  0  0
  -22.1928   -8.9676   20.0469 C   0  0  0  0  0  0  0  0  0  0  0  0
  -23.1539   -8.6124   22.2349 C   0  0  0  0  0  0  0  0  0  0  0  0
  -26.9461  -29.6335   19.8554 C   0  0  0  0  0  0  0  0  0  0  0  0
  -19.9650   -7.8083   23.0130 C   0  0  0  0  0  0  0  0  0  0  0  0
  -19.3145   -7.6106   24.2309 C   0  0  0  0  0  0  0  0  0  0  0  0
  -24.7386  -28.9216   20.5182 C   0  0  0  0  0  0  0  0  0  0  0  0
  -20.5443   -5.5562   24.5542 C   0  0  0  0  0  0  0  0  0  0  0  0
  -27.6940  -22.6091   20.5317 C   0  0  0  0  0  0  0  0  0  0  0  0
  -23.8145  -10.5300   20.9221 C   0  0  0  0  0  0  0  0  0  0  0  0
  -24.2372  -13.0359   21.1441 C   0  0  0  0  0  0  0  0  0  0  0  0
  -27.6083  -34.9267   25.6854 C   0  0  0  0  0  0  0  0  0  0  0  0
  -25.3253  -31.2676   20.6285 C   0  0  0  0  0  0  0  0  0  0  0  0
  -27.2026  -33.6938   25.1397 C   0  0  0  0  0  0  0  0  0  0  0  0
  -24.3801  -30.2473   20.8068 C   0  0  0  0  0  0  0  0  0  0  0  0
  -22.2930   -8.2100   21.2138 C   0  0  0  0  0  0  0  0  0  0  0  0
  -26.0152  -28.6167   20.0467 C   0  0  0  0  0  0  0  0  0  0  0  0
  -20.9051   -6.8800   22.5656 C   0  0  0  0  0  0  0  0  0  0  0  0
  -19.6042   -6.4846   25.0015 C   0  0  0  0  0  0  0  0  0  0  0  0
  -21.1947   -5.7540   23.3362 C   0  0  0  0  0  0  0  0  0  0  0  0
  -24.6009  -11.7279   20.7719 C   0  0  0  0  0  0  0  0  0  0  0  0
  -27.4259  -21.3127   20.1799 C   0  0  0  0  0  0  0  0  0  0  0  0
  -27.2185  -23.3567   19.4405 C   0  0  0  0  0  0  0  0  0  0  0  0
  -25.3196  -13.8059   20.7946 C   0  0  0  0  0  0  0  0  0  0  0  0
  -23.0291  -13.5123   21.7517 C   0  0  0  0  0  0  0  0  0  0  0  0
  -24.2016  -32.5601   23.3063 C   0  0  0  0  0  0  0  0  0  0  0  0
  -21.3735  -32.4265   21.7231 C   0  0  0  0  0  0  0  0  0  0  0  0
  -19.4886  -30.9746   19.2764 C   0  0  0  0  0  0  0  0  0  0  0  0
  -30.8321  -14.6575   20.6167 C   0  0  0  0  0  0  0  0  0  0  0  0
  -26.6288  -35.8597   26.3524 C   0  0  0  0  0  0  0  0  0  0  0  0
  -24.9612  -32.7003   20.9064 C   0  0  0  0  0  0  0  0  0  0  0  0
  -22.9893  -30.5336   21.3088 C   0  0  0  0  0  0  0  0  0  0  0  0
  -25.1728  -35.5700   25.9967 C   0  0  0  0  0  0  0  0  0  0  0  0
  -29.3990  -12.6855   18.0217 C   0  0  0  0  0  0  0  0  0  0  0  0
  -24.8846  -34.0758   26.1023 C   0  0  0  0  0  0  0  0  0  0  0  0
  -27.9960  -12.3636   18.5393 C   0  0  0  0  0  0  0  0  0  0  0  0
  -30.4271  -12.7021   19.1507 C   0  0  0  0  0  0  0  0  0  0  0  0
  -28.6848  -13.2607   20.8019 C   0  0  0  0  0  0  0  0  0  0  0  0
  -25.7481  -33.2766   25.1189 C   0  0  1  0  0  0  0  0  0  0  0  0
  -23.8004  -32.8425   21.8861 C   0  0  1  0  0  0  0  0  0  0  0  0
  -27.6038  -13.2876   19.7079 C   0  0  2  0  0  0  0  0  0  0  0  0
  -17.2024  -31.0511   18.2446 C   0  0  0  0  0  0  0  0  0  0  0  0
  -20.2401  -30.9311   24.1292 C   0  0  0  0  0  0  0  0  0  0  0  0
  -18.3175  -30.2185   22.6926 C   0  0  0  0  0  0  0  0  0  0  0  0
  -18.7033  -32.6411   23.1451 C   0  0  0  0  0  0  0  0  0  0  0  0
  -20.5821  -31.7133   16.6274 C   0  0  0  0  0  0  0  0  0  0  0  0
  -27.6468  -20.0164   20.8326 C   0  0  0  0  0  0  0  0  0  0  0  0
  -30.7640  -17.8840   21.3962 C   0  0  0  0  0  0  0  0  0  0  0  0
  -31.0874  -16.5958   22.1454 C   0  0  0  0  0  0  0  0  0  0  0  0
  -29.2949  -18.2684   21.5163 C   0  0  0  0  0  0  0  0  0  0  0  0
  -27.7187  -26.9613   19.9291 C   0  0  0  0  0  0  0  0  0  1  0  0
  -27.7992  -25.4945   20.3055 C   0  0  0  0  0  0  0  0  0  0  0  0
  -20.2691  -31.4057   21.5915 C   0  0  1  0  0  0  0  0  0  0  0  0
  -18.6290  -31.5738   18.1781 C   0  0  2  0  0  0  0  0  0  0  0  0
  -19.4093  -31.2931   22.8820 C   0  0  0  0  0  0  0  0  0  0  0  0
  -25.8191  -11.6666   20.2274 N   0  0  0  0  0  0  0  0  0  0  0  0
  -26.6956  -22.5831   18.4850 N   0  0  0  0  0  0  0  0  0  0  0  0
  -26.2302  -12.9458   20.2549 N   0  0  0  0  0  0  0  0  0  0  0  0
  -22.6832  -31.9494   21.5723 N   0  0  0  0  0  0  0  0  0  0  0  0
  -29.9961  -13.5985   20.2263 N   0  0  0  0  0  0  0  0  0  0  0  0
  -25.5716  -15.1280   20.8993 N   0  0  0  0  0  0  0  0  0  0  0  0
  -22.0184  -12.5866   22.0445 N   0  0  0  0  0  0  0  0  0  0  0  0
  -25.2115  -33.3764   23.7786 N   0  0  0  0  0  0  0  0  0  0  0  0
  -19.5127  -31.7740   20.3996 N   0  0  0  0  0  0  0  0  0  0  0  0
  -30.3452  -15.4630   21.6388 N   0  0  0  0  0  0  0  0  0  0  0  0
  -19.1907  -31.2378   16.8392 N   0  3  0  0  0  0  0  0  0  0  0  0
  -29.0706  -19.5500   20.8060 N   0  3  0  0  0  0  0  0  0  0  0  0
  -22.8445  -14.7255   22.0116 O   0  0  0  0  0  0  0  0  0  0  0  0
  -23.6356  -31.6685   23.9281 O   0  0  0  0  0  0  0  0  0  0  0  0
  -21.0843  -33.6051   21.9442 O   0  0  0  0  0  0  0  0  0  0  0  0
  -20.0767  -29.9026   19.1519 O   0  0  0  0  0  0  0  0  0  0  0  0
  -31.9288  -14.8727   20.0895 O   0  0  0  0  0  0  0  0  0  0  0  0
  -26.8301  -21.2842   18.9604 O   0  0  0  0  0  0  0  0  0  0  0  0
  -21.5506   -7.0781   21.3566 O   0  0  0  0  0  0  0  0  0  0  0  0
  -26.3486  -27.3268   19.7694 O   0  0  0  0  0  0  0  0  0  1  0  0
  -27.2320  -24.7147   19.2598 O   0  0  0  0  0  0  0  0  0  0  0  0
  -18.9805   -6.2956   26.1718 F   0  0  0  0  0  0  0  0  0  0  0  0
  -22.0978   -4.8592   22.9122 F   0  0  0  0  0  0  0  0  0  0  0  0
  1  2  1  0  0  0  0
  1  5  2  0  0  0  0
  2  6  2  0  0  0  0
  3  8  2  0  0  0  0
  3 16  1  0  0  0  0
  4  9  1  0  0  0  0
  4 16  2  0  0  0  0
  5 18  1  0  0  0  0
  6 20  1  0  0  0  0
  7 10  2  0  0  0  0
  7 19  1  0  0  0  0
  8 22  1  0  0  0  0
  9 22  2  0  0  0  0
 10 23  1  0  0  0  0
 11 12  2  0  0  0  0
 11 24  1  0  0  0  0
 12 25  1  0  0  0  0
 13 21  1  0  0  0  0
 13 23  2  0  0  0  0
 14 25  2  0  0  0  0
 14 26  1  0  0  0  0
 15 28  2  0  0  0  0
 15 29  1  0  0  0  0
 16 27  1  0  0  0  0
 17 27  1  0  0  0  0
 17 30  2  0  0  0  0
 17 31  1  0  0  0  0
 18 20  2  0  0  0  0
 18 36  1  0  0  0  0
 19 21  2  0  0  0  0
 19 37  1  0  0  0  0
 20 45  1  0  0  0  0
 21 38  1  0  0  0  0
 22 80  1  0  0  0  0
 23 81  1  0  0  0  0
 24 26  2  0  0  0  0
 24 80  1  0  0  0  0
 25 83  1  0  0  0  0
 26 84  1  0  0  0  0
 27 62  2  0  0  0  0
 28 53  1  0  0  0  0
 28 79  1  0  0  0  0
 29 63  2  0  0  0  0
 29 82  1  0  0  0  0
 30 64  1  0  0  0  0
 30 67  1  0  0  0  0
 31 68  1  0  0  0  0
 31 74  2  0  0  0  0
 32 46  1  0  0  0  0
 32 69  1  0  0  0  0
 32 75  2  0  0  0  0
 33 59  1  0  0  0  0
 33 65  1  0  0  0  0
 33 76  2  0  0  0  0
 34 60  1  0  0  0  0
 34 70  1  0  0  0  0
 34 77  2  0  0  0  0
 35 66  1  0  0  0  0
 35 71  1  0  0  0  0
 35 78  2  0  0  0  0
 36 39  1  0  0  0  0
 37 46  1  0  0  0  0
 38 65  1  0  0  0  0
 39 41  1  0  0  0  0
 40 42  1  0  0  0  0
 40 43  1  0  0  0  0
 41 45  1  0  0  0  0
 42 47  1  0  0  0  0
 43 66  1  0  0  0  0
 44 47  1  0  0  0  0
 44 66  1  0  0  0  0
 45 69  1  0  0  0  0
 46 65  1  0  0  0  0
 47 64  1  0  0  0  0
 48 60  1  0  0  0  0
 49 61  1  0  0  0  0
 50 61  1  0  0  0  0
 51 61  1  0  0  0  0
 52 72  1  0  0  0  0
 53 73  1  0  0  0  0
 54 55  1  0  0  0  0
 54 56  1  0  0  0  0
 55 71  1  0  0  0  0
 56 73  1  0  0  0  0
 57 58  1  0  0  0  0
 57 81  1  0  0  0  0
 58 82  1  0  0  0  0
 59 61  1  0  0  0  0
 59 70  1  0  0  0  0
 60 72  1  0  0  0  0
 62 64  1  0  0  0  0
 63 79  1  0  0  0  0
M  CHG  2  72   1  73   1
M  ISO  4  35 100  57 101  71 100  81 101
M  END
> <Batch ID>
0121

> <Smiles>
CNC(C)C(=O)NC(C(=O)N1Cc2cc([101O:1][101CH2:1]COc3cc(CNCCC[100NH:0][100C:0](=O)N4CCCC(n5nc(-c6ccc(Oc7ccc(F)cc7F)cc6)c(C(N)=O)c5N)C4)on3)ccc2CC1C(=O)NC1CCCc2ccccc21)C(C)(C)C

> <Shape>
0.342

> <Color>
0.208

> <Negative vol penalty>
0.000

$$$$

  -OEChem-04052320253D

 87 96  0     1  0  0  0  0  0999 V2000
  -28.1169  -37.6963   25.6152 C   0  0  0  0  0  0  0  0  0  0  0  0
  -28.6903  -36.5406   25.0945 C   0  0  0  0  0  0  0  0  0  0  0  0
  -22.7980   -9.8956   20.0244 C   0  0  0  0  0  0  0  0  0  0  0  0
  -24.4344   -9.2269   21.6712 C   0  0  0  0  0  0  0  0  0  0  0  0
  -26.7747  -37.6982   25.9923 C   0  0  0  0  0  0  0  0  0  0  0  0
  -27.9219  -35.3857   24.9518 C   0  0  0  0  0  0  0  0  0  0  0  0
  -27.1982  -29.6489   20.7232 C   0  0  0  0  0  0  0  0  0  0  0  0
  -22.1422   -8.6745   20.1801 C   0  0  0  0  0  0  0  0  0  0  0  0
  -23.7786   -8.0057   21.8270 C   0  0  0  0  0  0  0  0  0  0  0  0
  -27.1354  -28.2581   20.7962 C   0  0  0  0  0  0  0  0  0  0  0  0
  -21.0378   -6.8379   23.4223 C   0  0  0  0  0  0  0  0  0  0  0  0
  -20.8304   -6.3766   24.7222 C   0  0  0  0  0  0  0  0  0  0  0  0
  -24.8062  -28.4014   21.4074 C   0  0  0  0  0  0  0  0  0  0  0  0
  -22.1213   -4.3958   24.2252 C   0  0  0  0  0  0  0  0  0  0  0  0
  -26.6605  -23.2797   19.9144 C   0  0  0  0  0  0  0  0  0  0  0  0
  -26.6476  -23.4469   22.2443 C   0  0  0  0  0  0  0  0  0  0  0  0
  -23.9442  -10.1718   20.7699 C   0  0  0  0  0  0  0  0  0  0  0  0
  -24.0930  -12.7177   20.8342 C   0  0  0  0  0  0  0  0  0  0  0  0
  -25.9869  -36.5456   25.8452 C   0  0  0  0  0  0  0  0  0  0  0  0
  -26.0664  -30.4282   21.0028 C   0  0  0  0  0  0  0  0  0  0  0  0
  -26.5682  -35.3718   25.3287 C   0  0  0  0  0  0  0  0  0  0  0  0
  -24.8566  -29.8019   21.3347 C   0  0  0  0  0  0  0  0  0  0  0  0
  -26.7922  -24.0834   21.0285 C   0  0  0  0  0  0  0  0  0  0  0  0
  -22.6324   -7.7295   21.0814 C   0  0  0  0  0  0  0  0  0  0  0  0
  -25.9400  -27.6342   21.1412 C   0  0  0  0  0  0  0  0  0  0  0  0
  -21.7869   -6.0782   22.5238 C   0  0  0  0  0  0  0  0  0  0  0  0
  -21.3721   -5.1556   25.1237 C   0  0  0  0  0  0  0  0  0  0  0  0
  -22.3287   -4.8571   22.9252 C   0  0  0  0  0  0  0  0  0  0  0  0
  -24.6224  -11.4329   20.6091 C   0  0  0  0  0  0  0  0  0  0  0  0
  -25.1282  -13.5717   20.5419 C   0  0  0  0  0  0  0  0  0  0  0  0
  -26.2877  -21.4527   21.2144 C   0  0  0  0  0  0  0  0  0  0  0  0
  -22.7826  -13.1046   21.2688 C   0  0  0  0  0  0  0  0  0  0  0  0
  -25.3405  -32.6301   23.1773 C   0  0  0  0  0  0  0  0  0  0  0  0
  -22.6265  -32.9079   21.4225 C   0  0  0  0  0  0  0  0  0  0  0  0
  -20.4308  -31.4773   19.2362 C   0  0  0  0  0  0  0  0  0  0  0  0
  -30.5156  -14.9864   20.8872 C   0  0  0  0  0  0  0  0  0  0  0  0
  -24.5529  -36.5821   26.3109 C   0  0  0  0  0  0  0  0  0  0  0  0
  -26.1436  -31.9264   20.8935 C   0  0  0  0  0  0  0  0  0  0  0  0
  -23.6077  -30.5923   21.6245 C   0  0  0  0  0  0  0  0  0  0  0  0
  -23.7100  -35.4262   25.7783 C   0  0  0  0  0  0  0  0  0  0  0  0
  -29.5881  -12.7001   18.3203 C   0  0  0  0  0  0  0  0  0  0  0  0
  -24.4545  -34.1045   25.9384 C   0  0  0  0  0  0  0  0  0  0  0  0
  -28.1730  -12.2682   18.7089 C   0  0  0  0  0  0  0  0  0  0  0  0
  -26.5586  -19.2553   22.6012 C   0  0  0  0  0  0  0  0  0  0  0  0
  -26.5587  -19.1350   20.1160 C   0  0  0  0  0  0  0  0  0  0  0  0
  -30.4734  -12.9029   19.5479 C   0  0  0  0  0  0  0  0  0  0  0  0
  -28.5074  -13.3867   20.9530 C   0  0  0  0  0  0  0  0  0  0  0  0
  -28.0826  -19.1575   22.6172 C   0  0  0  0  0  0  0  0  0  0  0  0
  -28.0824  -19.0684   20.1116 C   0  0  0  0  0  0  0  0  0  0  0  0
  -25.7610  -34.1065   25.1354 C   0  0  1  0  0  0  0  0  0  0  0  0
  -25.0639  -32.6408   21.7005 C   0  0  1  0  0  0  0  0  0  0  0  0
  -27.5614  -13.2239   19.7509 C   0  0  2  0  0  0  0  0  0  0  0  0
  -25.9942  -19.9405   21.3221 C   0  0  0  0  0  0  0  0  0  0  0  0
  -24.4562  -19.7841   21.3434 C   0  0  0  0  0  0  0  0  0  0  0  0
  -18.2883  -31.9359   18.0129 C   0  0  0  0  0  0  0  0  0  0  0  0
  -21.0611  -32.4687   24.0045 C   0  0  0  0  0  0  0  0  0  0  0  0
  -19.0353  -31.9909   22.6130 C   0  0  0  0  0  0  0  0  0  0  0  0
  -20.1216  -34.2337   22.5023 C   0  0  0  0  0  0  0  0  0  0  0  0
  -21.7354  -31.1669   16.5979 C   0  0  0  0  0  0  0  0  0  0  0  0
  -27.0718  -25.5539   20.9240 C   0  0  0  0  0  0  0  0  0  1  0  0
  -30.4042  -17.0415   22.2740 C   0  0  0  0  0  0  0  0  0  0  0  0
  -30.0451  -18.2256   21.3960 C   0  0  0  0  0  0  0  0  0  0  0  0
  -21.2693  -32.2469   21.4406 C   0  0  1  0  0  0  0  0  0  0  0  0
  -19.8068  -31.9941   17.9525 C   0  0  2  0  0  0  0  0  0  0  0  0
  -20.3957  -32.7199   22.6366 C   0  0  0  0  0  0  0  0  0  0  0  0
  -26.4073  -21.9557   19.9710 N   0  0  0  0  0  0  0  0  0  0  0  0
  -26.3938  -22.1282   22.3746 N   0  0  0  0  0  0  0  0  0  0  0  0
  -25.8951  -11.4632   20.2048 N   0  0  0  0  0  0  0  0  0  0  0  0
  -26.1739  -12.7775   20.1735 N   0  0  0  0  0  0  0  0  0  0  0  0
  -23.7355  -32.0546   21.5106 N   0  0  0  0  0  0  0  0  0  0  0  0
  -29.8368  -13.8206   20.4957 N   0  0  0  0  0  0  0  0  0  0  0  0
  -25.2368  -14.9171   20.5666 N   0  0  0  0  0  0  0  0  0  0  0  0
  -22.5457  -13.2334   22.6442 N   0  0  0  0  0  0  0  0  0  0  0  0
  -25.4911  -33.8873   23.7306 N   0  0  0  0  0  0  0  0  0  0  0  0
  -20.6760  -32.4970   20.1314 N   0  0  0  0  0  0  0  0  0  0  0  0
  -29.8387  -15.8044   21.7834 N   0  0  0  0  0  0  0  0  0  0  0  0
  -28.5539  -18.4204   21.3891 N   0  3  0  0  0  0  0  0  0  0  0  0
  -20.2624  -31.1796   16.7906 N   0  3  0  0  0  0  0  0  0  0  0  0
  -21.8449  -13.3134   20.4621 O   0  0  0  0  0  0  0  0  0  0  0  0
  -25.4105  -31.5605   23.7712 O   0  0  0  0  0  0  0  0  0  0  0  0
  -22.7000  -34.1354   21.3263 O   0  0  0  0  0  0  0  0  0  0  0  0
  -20.6730  -30.2876   19.4274 O   0  0  0  0  0  0  0  0  0  0  0  0
  -31.6394  -15.2793   20.4648 O   0  0  0  0  0  0  0  0  0  0  0  0
  -21.9926   -6.5379   21.2338 O   0  0  0  0  0  0  0  0  0  0  0  0
  -25.8761  -26.2768   21.2139 O   0  0  0  0  0  0  0  0  0  1  0  0
  -21.1742   -4.7134   26.3724 F   0  0  0  0  0  0  0  0  0  0  0  0
  -23.0503   -4.1234   22.0669 F   0  0  0  0  0  0  0  0  0  0  0  0
  1  2  1  0  0  0  0
  1  5  2  0  0  0  0
  2  6  2  0  0  0  0
  3  8  2  0  0  0  0
  3 17  1  0  0  0  0
  4  9  1  0  0  0  0
  4 17  2  0  0  0  0
  5 19  1  0  0  0  0
  6 21  1  0  0  0  0
  7 10  2  0  0  0  0
  7 20  1  0  0  0  0
  8 24  1  0  0  0  0
  9 24  2  0  0  0  0
 10 25  1  0  0  0  0
 11 12  2  0  0  0  0
 11 26  1  0  0  0  0
 12 27  1  0  0  0  0
 13 22  1  0  0  0  0
 13 25  2  0  0  0  0
 14 27  2  0  0  0  0
 14 28  1  0  0  0  0
 15 23  1  0  0  0  0
 15 66  2  0  0  0  0
 16 23  2  0  0  0  0
 16 67  1  0  0  0  0
 17 29  1  0  0  0  0
 18 29  1  0  0  0  0
 18 30  2  0  0  0  0
 18 32  1  0  0  0  0
 19 21  2  0  0  0  0
 19 37  1  0  0  0  0
 20 22  2  0  0  0  0
 20 38  1  0  0  0  0
 21 50  1  0  0  0  0
 22 39  1  0  0  0  0
 23 60  1  0  0  0  0
 24 84  1  0  0  0  0
 25 85  1  0  0  0  0
 26 28  2  0  0  0  0
 26 84  1  0  0  0  0
 27 86  1  0  0  0  0
 28 87  1  0  0  0  0
 29 68  2  0  0  0  0
 30 69  1  0  0  0  0
 30 72  1  0  0  0  0
 31 53  1  0  0  0  0
 31 66  1  0  0  0  0
 31 67  2  0  0  0  0
 32 73  1  0  0  0  0
 32 79  2  0  0  0  0
 33 51  1  0  0  0  0
 33 74  1  0  0  0  0
 33 80  2  0  0  0  0
 34 63  1  0  0  0  0
 34 70  1  0  0  0  0
 34 81  2  0  0  0  0
 35 64  1  0  0  0  0
 35 75  1  0  0  0  0
 35 82  2  0  0  0  0
 36 71  1  0  0  0  0
 36 76  1  0  0  0  0
 36 83  2  0  0  0  0
 37 40  1  0  0  0  0
 38 51  1  0  0  0  0
 39 70  1  0  0  0  0
 40 42  1  0  0  0  0
 41 43  1  0  0  0  0
 41 46  1  0  0  0  0
 42 50  1  0  0  0  0
 43 52  1  0  0  0  0
 44 48  1  0  0  0  0
 44 53  1  0  0  0  0
 45 49  1  0  0  0  0
 45 53  1  0  0  0  0
 46 71  1  0  0  0  0
 47 52  1  0  0  0  0
 47 71  1  0  0  0  0
 48 77  1  0  0  0  0
 49 77  1  0  0  0  0
 50 74  1  0  0  0  0
 51 70  1  0  0  0  0
 52 69  1  0  0  0  0
 53 54  1  0  0  0  0
 55 64  1  0  0  0  0
 56 65  1  0  0  0  0
 57 65  1  0  0  0  0
 58 65  1  0  0  0  0
 59 78  1  0  0  0  0
 60 85  1  0  0  0  0
 61 62  1  0  0  0  0
 61 76  1  0  0  0  0
 62 77  1  0  0  0  0
 63 65  1  0  0  0  0
 63 75  1  0  0  0  0
 64 78  1  0  0  0  0
 68 69  1  0  0  0  0
M  CHG  2  77   1  78   1
M  ISO  4  36 100  60 101  76 100  85 101
M  END
> <Batch ID>
0121

> <Smiles>
CNC(C)C(=O)NC(C(=O)N1Cc2cc([101O:1][101CH2:1]c3cnc(C4(C)CCN(CC[100NH:0][100C:0](=O)N5CCCC(n6nc(-c7ccc(Oc8ccc(F)cc8F)cc7)c(C(N)=O)c6N)C5)CC4)nc3)ccc2CC1C(=O)NC1CCCc2ccccc21)C(C)(C)C

> <Shape>
0.333

> <Color>
0.187

> <Negative vol penalty>
0.000

$$$$

  -OEChem-04052320253D

 82 90  0     1  0  0  0  0  0999 V2000
  -17.2637  -28.3587   23.9950 C   0  0  0  0  0  0  0  0  0  0  0  0
  -17.8302  -27.1518   23.5978 C   0  0  0  0  0  0  0  0  0  0  0  0
  -23.5890   -9.8769   21.7481 C   0  0  0  0  0  0  0  0  0  0  0  0
  -24.1292  -11.1094   23.7546 C   0  0  0  0  0  0  0  0  0  0  0  0
  -17.9933  -29.5413   23.8799 C   0  0  0  0  0  0  0  0  0  0  0  0
  -19.1263  -27.1269   23.0842 C   0  0  0  0  0  0  0  0  0  0  0  0
  -23.2900  -22.6951   23.8120 C   0  0  0  0  0  0  0  0  0  0  0  0
  -22.9990   -8.8770   22.5211 C   0  0  0  0  0  0  0  0  0  0  0  0
  -23.5392  -10.1094   24.5277 C   0  0  0  0  0  0  0  0  0  0  0  0
  -23.6853  -21.6362   22.9957 C   0  0  0  0  0  0  0  0  0  0  0  0
  -24.0133   -6.2544   24.3965 C   0  0  0  0  0  0  0  0  0  0  0  0
  -24.3121   -4.9295   24.0788 C   0  0  0  0  0  0  0  0  0  0  0  0
  -25.5157  -22.9689   22.1635 C   0  0  0  0  0  0  0  0  0  0  0  0
  -21.9702   -4.4997   23.6689 C   0  0  0  0  0  0  0  0  0  0  0  0
  -24.1542  -10.9931   22.3648 C   0  0  0  0  0  0  0  0  0  0  0  0
  -24.1392  -13.1690   21.0334 C   0  0  0  0  0  0  0  0  0  0  0  0
  -19.3025  -29.5295   23.3736 C   0  0  0  0  0  0  0  0  0  0  0  0
  -23.9993  -23.9047   23.8020 C   0  0  0  0  0  0  0  0  0  0  0  0
  -19.8737  -28.3105   22.9610 C   0  0  0  0  0  0  0  0  0  0  0  0
  -25.1289  -24.0408   22.9825 C   0  0  0  0  0  0  0  0  0  0  0  0
  -22.9740   -8.9932   23.9109 C   0  0  0  0  0  0  0  0  0  0  0  0
  -24.7965  -21.7740   22.1692 C   0  0  0  0  0  0  0  0  0  0  0  0
  -22.6930   -6.7019   24.3505 C   0  0  0  0  0  0  0  0  0  0  0  0
  -23.2906   -4.0521   23.7150 C   0  0  0  0  0  0  0  0  0  0  0  0
  -21.6715   -5.8246   23.9867 C   0  0  0  0  0  0  0  0  0  0  0  0
  -24.7644  -12.0261   21.5669 C   0  0  0  0  0  0  0  0  0  0  0  0
  -25.1407  -13.8260   20.3613 C   0  0  0  0  0  0  0  0  0  0  0  0
  -22.7752  -13.5985   21.1363 C   0  0  0  0  0  0  0  0  0  0  0  0
  -23.2929  -26.9133   23.0584 C   0  0  0  0  0  0  0  0  0  0  0  0
  -26.2802  -27.4835   24.1869 C   0  0  0  0  0  0  0  0  0  0  0  0
  -29.4060  -26.2832   24.8468 C   0  0  0  0  0  0  0  0  0  0  0  0
  -31.0986  -13.8751   20.9547 C   0  0  0  0  0  0  0  0  0  0  0  0
  -20.0348  -30.8395   23.2239 C   0  0  0  0  0  0  0  0  0  0  0  0
  -23.5760  -25.0281   24.7082 C   0  0  0  0  0  0  0  0  0  0  0  0
  -25.9366  -25.3116   22.9498 C   0  0  0  0  0  0  0  0  0  0  0  0
  -21.5387  -30.6767   23.0192 C   0  0  0  0  0  0  0  0  0  0  0  0
  -29.2447  -13.0205   18.0376 C   0  0  0  0  0  0  0  0  0  0  0  0
  -21.8219  -29.6039   21.9725 C   0  0  0  0  0  0  0  0  0  0  0  0
  -27.8299  -12.7719   18.5632 C   0  0  0  0  0  0  0  0  0  0  0  0
  -29.7383  -18.7876   21.2710 C   0  0  0  0  0  0  0  0  0  0  0  0
  -28.8654  -19.0963   23.6257 C   0  0  0  0  0  0  0  0  0  0  0  0
  -30.3061  -12.5397   19.0247 C   0  0  0  0  0  0  0  0  0  0  0  0
  -28.7539  -12.8274   20.9173 C   0  0  0  0  0  0  0  0  0  0  0  0
  -28.3765  -18.2495   20.8474 C   0  0  0  0  0  0  0  0  0  0  0  0
  -27.5104  -18.5560   23.1835 C   0  0  0  0  0  0  0  0  0  0  0  0
  -21.2860  -28.2393   22.4221 C   0  0  1  0  0  0  0  0  0  0  0  0
  -24.0668  -26.3934   24.2367 C   0  0  1  0  0  0  0  0  0  0  0  0
  -27.6493  -13.3467   19.9811 C   0  0  2  0  0  0  0  0  0  0  0  0
  -30.0225  -18.6008   22.7602 C   0  0  0  0  0  0  0  0  0  0  0  0
  -31.6434  -26.9957   25.7320 C   0  0  0  0  0  0  0  0  0  0  0  0
  -26.8734  -28.8925   21.5463 C   0  0  0  0  0  0  0  0  0  0  0  0
  -29.3123  -28.7327   22.0892 C   0  0  0  0  0  0  0  0  0  0  0  0
  -27.7897  -30.0407   23.5703 C   0  0  0  0  0  0  0  0  0  0  0  0
  -29.2634  -24.3547   27.0872 C   0  0  0  0  0  0  0  0  0  0  0  0
  -31.7434  -15.1980   22.9531 C   0  0  0  0  0  0  0  0  0  0  0  0
  -25.9267  -18.4578   21.2605 C   0  0  0  0  0  0  0  0  0  0  0  0
  -31.6122  -16.6777   22.6443 C   0  0  0  0  0  0  0  0  0  0  0  0
  -24.9085  -19.4218   21.8366 C   0  0  0  0  0  0  0  0  0  1  0  0
  -27.6632  -27.5156   23.5826 C   0  0  1  0  0  0  0  0  0  0  0  0
  -30.2893  -26.3954   26.0763 C   0  0  2  0  0  0  0  0  0  0  0  0
  -27.8935  -28.7720   22.6961 C   0  0  0  0  0  0  0  0  0  0  0  0
  -26.0625  -11.9578   21.2600 N   0  0  0  0  0  0  0  0  0  0  0  0
  -26.2612  -13.0660   20.5263 N   0  0  0  0  0  0  0  0  0  0  0  0
  -25.4790  -26.3835   23.8493 N   0  0  0  0  0  0  0  0  0  0  0  0
  -30.0788  -13.1224   20.3494 N   0  0  0  0  0  0  0  0  0  0  0  0
  -25.1634  -14.9738   19.6510 N   0  0  0  0  0  0  0  0  0  0  0  0
  -21.8780  -12.8051   21.8643 N   0  0  0  0  0  0  0  0  0  0  0  0
  -22.1721  -27.6457   23.4003 N   0  0  0  0  0  0  0  0  0  0  0  0
  -28.5980  -27.3902   24.6956 N   0  0  0  0  0  0  0  0  0  0  0  0
  -30.7986  -14.3969   22.2071 N   0  0  0  0  0  0  0  0  0  0  0  0
  -27.3028  -18.8569   21.7183 N   0  3  0  0  0  0  0  0  0  0  0  0
  -30.2623  -17.1556   23.0387 N   0  3  0  0  0  0  0  0  0  0  0  0
  -30.5109  -25.0507   26.6793 N   0  3  0  0  0  0  0  0  0  0  0  0
  -22.3604  -14.6461   20.5849 O   0  0  0  0  0  0  0  0  0  0  0  0
  -23.6845  -26.6694   21.9232 O   0  0  0  0  0  0  0  0  0  0  0  0
  -25.9264  -28.3969   24.9367 O   0  0  0  0  0  0  0  0  0  0  0  0
  -29.4330  -25.3124   24.0936 O   0  0  0  0  0  0  0  0  0  0  0  0
  -32.1934  -14.0722   20.4165 O   0  0  0  0  0  0  0  0  0  0  0  0
  -22.3981   -8.0178   24.6655 O   0  0  0  0  0  0  0  0  0  0  0  0
  -25.1841  -20.7423   21.3710 O   0  0  0  0  0  0  0  0  0  1  0  0
  -23.5778   -2.7802   23.4084 F   0  0  0  0  0  0  0  0  0  0  0  0
  -20.4013   -6.2491   23.9395 F   0  0  0  0  0  0  0  0  0  0  0  0
  1  2  1  0  0  0  0
  1  5  2  0  0  0  0
  2  6  2  0  0  0  0
  3  8  2  0  0  0  0
  3 15  1  0  0  0  0
  4  9  1  0  0  0  0
  4 15  2  0  0  0  0
  5 17  1  0  0  0  0
  6 19  1  0  0  0  0
  7 10  2  0  0  0  0
  7 18  1  0  0  0  0
  8 21  1  0  0  0  0
  9 21  2  0  0  0  0
 10 22  1  0  0  0  0
 11 12  2  0  0  0  0
 11 23  1  0  0  0  0
 12 24  1  0  0  0  0
 13 20  1  0  0  0  0
 13 22  2  0  0  0  0
 14 24  2  0  0  0  0
 14 25  1  0  0  0  0
 15 26  1  0  0  0  0
 16 26  1  0  0  0  0
 16 27  2  0  0  0  0
 16 28  1  0  0  0  0
 17 19  2  0  0  0  0
 17 33  1  0  0  0  0
 18 20  2  0  0  0  0
 18 34  1  0  0  0  0
 19 46  1  0  0  0  0
 20 35  1  0  0  0  0
 21 79  1  0  0  0  0
 22 80  1  0  0  0  0
 23 25  2  0  0  0  0
 23 79  1  0  0  0  0
 24 81  1  0  0  0  0
 25 82  1  0  0  0  0
 26 62  2  0  0  0  0
 27 63  1  0  0  0  0
 27 66  1  0  0  0  0
 28 67  1  0  0  0  0
 28 74  2  0  0  0  0
 29 47  1  0  0  0  0
 29 68  1  0  0  0  0
 29 75  2  0  0  0  0
 30 59  1  0  0  0  0
 30 64  1  0  0  0  0
 30 76  2  0  0  0  0
 31 60  1  0  0  0  0
 31 69  1  0  0  0  0
 31 77  2  0  0  0  0
 32 65  1  0  0  0  0
 32 70  1  0  0  0  0
 32 78  2  0  0  0  0
 33 36  1  0  0  0  0
 34 47  1  0  0  0  0
 35 64  1  0  0  0  0
 36 38  1  0  0  0  0
 37 39  1  0  0  0  0
 37 42  1  0  0  0  0
 38 46  1  0  0  0  0
 39 48  1  0  0  0  0
 40 44  1  0  0  0  0
 40 49  1  0  0  0  0
 41 45  1  0  0  0  0
 41 49  1  0  0  0  0
 42 65  1  0  0  0  0
 43 48  1  0  0  0  0
 43 65  1  0  0  0  0
 44 71  1  0  0  0  0
 45 71  1  0  0  0  0
 46 68  1  0  0  0  0
 47 64  1  0  0  0  0
 48 63  1  0  0  0  0
 49 72  1  0  0  0  0
 50 60  1  0  0  0  0
 51 61  1  0  0  0  0
 52 61  1  0  0  0  0
 53 61  1  0  0  0  0
 54 73  1  0  0  0  0
 55 57  1  0  0  0  0
 55 70  1  0  0  0  0
 56 58  1  0  0  0  0
 56 71  1  0  0  0  0
 57 72  1  0  0  0  0
 58 80  1  0  0  0  0
 59 61  1  0  0  0  0
 59 69  1  0  0  0  0
 60 73  1  0  0  0  0
 62 63  1  0  0  0  0
M  CHG  3  71   1  72   1  73   1
M  ISO  4  32 100  58 101  70 100  80 101
M  END
> <Batch ID>
0121

> <Smiles>
CNC(C)C(=O)NC(C(=O)N1Cc2cc([101O:1][101CH2:1]CN3CCC(NCC[100NH:0][100C:0](=O)N4CCCC(n5nc(-c6ccc(Oc7ccc(F)cc7F)cc6)c(C(N)=O)c5N)C4)CC3)ccc2CC1C(=O)NC1CCCc2ccccc21)C(C)(C)C

> <Shape>
0.241

> <Color>
0.123

> <Negative vol penalty>
0.000

$$$$

  -OEChem-04052320253D

 81 89  0     1  0  0  0  0  0999 V2000
  -22.6885   -7.9323   20.6293 C   0  0  0  0  0  0  0  0  0  0  0  0
  -21.8591   -9.0156   20.3573 C   0  0  0  0  0  0  0  0  0  0  0  0
  -28.5170  -26.2917   19.9372 C   0  0  0  0  0  0  0  0  0  0  0  0
  -26.5890  -25.2181   18.9535 C   0  0  0  0  0  0  0  0  0  0  0  0
  -23.8151   -8.1029   21.4328 C   0  0  0  0  0  0  0  0  0  0  0  0
  -22.1552  -10.2699   20.8896 C   0  0  0  0  0  0  0  0  0  0  0  0
  -21.6229  -17.2489   19.3644 C   0  0  0  0  0  0  0  0  0  0  0  0
  -29.2941  -25.1737   19.6343 C   0  0  0  0  0  0  0  0  0  0  0  0
  -27.3661  -24.1001   18.6506 C   0  0  0  0  0  0  0  0  0  0  0  0
  -21.1473  -18.4384   19.9145 C   0  0  0  0  0  0  0  0  0  0  0  0
  -30.8397  -23.8752   16.9218 C   0  0  0  0  0  0  0  0  0  0  0  0
  -32.0976  -24.0930   16.3598 C   0  0  0  0  0  0  0  0  0  0  0  0
  -23.1639  -18.6319   21.2242 C   0  0  0  0  0  0  0  0  0  0  0  0
  -33.1289  -22.9666   18.2319 C   0  0  0  0  0  0  0  0  0  0  0  0
  -27.1644  -26.3139   19.5969 C   0  0  0  0  0  0  0  0  0  0  0  0
  -26.1448  -28.5988   19.0995 C   0  0  0  0  0  0  0  0  0  0  0  0
  -24.1305   -9.3621   21.9673 C   0  0  0  0  0  0  0  0  0  0  0  0
  -22.8698  -16.7354   19.7488 C   0  0  0  0  0  0  0  0  0  0  0  0
  -23.2863  -10.4573   21.7021 C   0  0  0  0  0  0  0  0  0  0  0  0
  -23.6541  -17.4370   20.6755 C   0  0  0  0  0  0  0  0  0  0  0  0
  -28.7187  -24.0779   18.9910 C   0  0  0  0  0  0  0  0  0  0  0  0
  -21.9165  -19.1286   20.8468 C   0  0  0  0  0  0  0  0  0  0  0  0
  -30.7264  -23.2031   18.1388 C   0  0  0  0  0  0  0  0  0  0  0  0
  -33.2422  -23.6387   17.0149 C   0  0  0  0  0  0  0  0  0  0  0  0
  -31.8710  -22.7488   18.7938 C   0  0  0  0  0  0  0  0  0  0  0  0
  -26.3610  -27.4683   19.9100 C   0  0  0  0  0  0  0  0  0  0  0  0
  -25.3164  -29.4021   19.8444 C   0  0  0  0  0  0  0  0  0  0  0  0
  -26.6478  -28.8962   17.7902 C   0  0  0  0  0  0  0  0  0  0  0  0
  -23.8560  -14.0692   21.1709 C   0  0  0  0  0  0  0  0  0  0  0  0
  -26.7970  -15.2642   20.5041 C   0  0  0  0  0  0  0  0  0  0  0  0
  -28.7333  -17.9966   19.8470 C   0  0  0  0  0  0  0  0  0  0  0  0
  -21.3948  -28.2675   24.2245 C   0  0  0  0  0  0  0  0  0  0  0  0
  -25.3330   -9.4874   22.8690 C   0  0  0  0  0  0  0  0  0  0  0  0
  -23.3803  -15.4650   19.1260 C   0  0  0  0  0  0  0  0  0  0  0  0
  -25.0085  -16.9387   21.1064 C   0  0  0  0  0  0  0  0  0  0  0  0
  -25.7829  -10.9297   23.0873 C   0  0  0  0  0  0  0  0  0  0  0  0
  -24.2024  -30.4517   24.3774 C   0  0  0  0  0  0  0  0  0  0  0  0
  -24.5858  -11.8201   23.4050 C   0  0  0  0  0  0  0  0  0  0  0  0
  -25.0545  -30.0368   23.1767 C   0  0  0  0  0  0  0  0  0  0  0  0
  -19.1292  -27.1165   20.7446 C   0  0  0  0  0  0  0  0  0  0  0  0
  -19.2337  -25.9492   19.7801 C   0  0  0  0  0  0  0  0  0  0  0  0
  -23.5219  -29.2498   25.0288 C   0  0  0  0  0  0  0  0  0  0  0  0
  -23.5832  -27.9968   22.9075 C   0  0  0  0  0  0  0  0  0  0  0  0
  -23.5878  -11.8389   22.2408 C   0  0  1  0  0  0  0  0  0  0  0  0
  -24.4387  -14.7669   19.9745 C   0  0  1  0  0  0  0  0  0  0  0  0
  -24.2449  -29.1817   22.1834 C   0  0  2  0  0  0  0  0  0  0  0  0
  -18.8956  -26.4287   22.0822 C   0  0  2  0  0  0  0  0  0  0  0  0
  -20.1033  -24.9593   20.5420 C   0  0  2  0  0  0  0  0  0  0  0  0
  -31.1077  -18.6626   19.3823 C   0  0  0  0  0  0  0  0  0  0  0  0
  -20.1615  -23.3531   18.6390 C   0  0  0  0  0  0  0  0  0  0  0  0
  -27.4695  -14.9205   23.4604 C   0  0  0  0  0  0  0  0  0  0  0  0
  -29.4288  -16.4415   23.1199 C   0  0  0  0  0  0  0  0  0  0  0  0
  -29.3061  -14.2742   21.8908 C   0  0  0  0  0  0  0  0  0  0  0  0
  -28.0305  -19.0794   17.1839 C   0  0  0  0  0  0  0  0  0  0  0  0
  -19.3425  -27.2378   23.2828 C   0  0  0  0  0  0  0  0  0  0  0  0
  -20.7967  -22.5508   20.9313 C   0  0  0  0  0  0  0  0  0  0  0  0
  -20.5904  -21.0838   20.5741 C   0  0  0  0  0  0  0  0  0  1  0  0
  -27.7713  -16.1681   21.2202 C   0  0  1  0  0  0  0  0  0  0  0  0
  -29.7739  -18.2591   18.7734 C   0  0  2  0  0  0  0  0  0  0  0  0
  -19.8983  -23.5133   20.1380 C   0  0  1  0  0  0  0  0  0  0  0  0
  -28.4676  -15.4597   22.4163 C   0  0  0  0  0  0  0  0  0  0  0  0
  -25.7216  -27.5430   21.0803 N   0  0  0  0  0  0  0  0  0  0  0  0
  -25.0956  -28.7302   21.0106 N   0  0  0  0  0  0  0  0  0  0  0  0
  -25.4611  -15.6887   20.4738 N   0  0  0  0  0  0  0  0  0  0  0  0
  -22.7698  -28.4821   24.0335 N   0  0  0  0  0  0  0  0  0  0  0  0
  -24.7627  -30.6105   19.6092 N   0  0  0  0  0  0  0  0  0  0  0  0
  -27.4866  -27.9612   17.1684 N   0  0  0  0  0  0  0  0  0  0  0  0
  -24.0631  -12.7030   21.1816 N   0  0  0  0  0  0  0  0  0  0  0  0
  -28.6909  -16.6650   20.2024 N   0  0  0  0  0  0  0  0  0  0  0  0
  -20.7565  -27.5355   23.2308 N   0  0  0  0  0  0  0  0  0  0  0  0
  -19.7024  -25.1580   21.9826 N   0  3  0  0  0  0  0  0  0  0  0  0
  -29.3201  -19.3530   17.8687 N   0  3  0  0  0  0  0  0  0  0  0  0
  -26.3752  -29.9669   17.1962 O   0  0  0  0  0  0  0  0  0  0  0  0
  -23.2637  -14.7222   22.0221 O   0  0  0  0  0  0  0  0  0  0  0  0
  -27.2075  -14.2235   19.9844 O   0  0  0  0  0  0  0  0  0  0  0  0
  -28.0311  -18.8846   20.3255 O   0  0  0  0  0  0  0  0  0  0  0  0
  -20.7805  -28.7010   25.2051 O   0  0  0  0  0  0  0  0  0  0  0  0
  -29.4767  -22.9869   18.6950 O   0  0  0  0  0  0  0  0  0  0  0  0
  -21.4544  -20.2895   21.3858 O   0  0  0  0  0  0  0  0  0  1  0  0
  -34.4500  -23.8466   16.4743 F   0  0  0  0  0  0  0  0  0  0  0  0
  -31.7684  -22.1014   19.9627 F   0  0  0  0  0  0  0  0  0  0  0  0
  1  2  1  0  0  0  0
  1  5  2  0  0  0  0
  2  6  2  0  0  0  0
  3  8  2  0  0  0  0
  3 15  1  0  0  0  0
  4  9  1  0  0  0  0
  4 15  2  0  0  0  0
  5 17  1  0  0  0  0
  6 19  1  0  0  0  0
  7 10  2  0  0  0  0
  7 18  1  0  0  0  0
  8 21  1  0  0  0  0
  9 21  2  0  0  0  0
 10 22  1  0  0  0  0
 11 12  2  0  0  0  0
 11 23  1  0  0  0  0
 12 24  1  0  0  0  0
 13 20  1  0  0  0  0
 13 22  2  0  0  0  0
 14 24  2  0  0  0  0
 14 25  1  0  0  0  0
 15 26  1  0  0  0  0
 16 26  1  0  0  0  0
 16 27  2  0  0  0  0
 16 28  1  0  0  0  0
 17 19  2  0  0  0  0
 17 33  1  0  0  0  0
 18 20  2  0  0  0  0
 18 34  1  0  0  0  0
 19 44  1  0  0  0  0
 20 35  1  0  0  0  0
 21 78  1  0  0  0  0
 22 79  1  0  0  0  0
 23 25  2  0  0  0  0
 23 78  1  0  0  0  0
 24 80  1  0  0  0  0
 25 81  1  0  0  0  0
 26 62  2  0  0  0  0
 27 63  1  0  0  0  0
 27 66  1  0  0  0  0
 28 67  1  0  0  0  0
 28 73  2  0  0  0  0
 29 45  1  0  0  0  0
 29 68  1  0  0  0  0
 29 74  2  0  0  0  0
 30 58  1  0  0  0  0
 30 64  1  0  0  0  0
 30 75  2  0  0  0  0
 31 59  1  0  0  0  0
 31 69  1  0  0  0  0
 31 76  2  0  0  0  0
 32 65  1  0  0  0  0
 32 70  1  0  0  0  0
 32 77  2  0  0  0  0
 33 36  1  0  0  0  0
 34 45  1  0  0  0  0
 35 64  1  0  0  0  0
 36 38  1  0  0  0  0
 37 39  1  0  0  0  0
 37 42  1  0  0  0  0
 38 44  1  0  0  0  0
 39 46  1  0  0  0  0
 40 41  1  0  0  0  0
 40 47  1  0  0  0  0
 41 48  1  0  0  0  0
 42 65  1  0  0  0  0
 43 46  1  0  0  0  0
 43 65  1  0  0  0  0
 44 68  1  0  0  0  0
 45 64  1  0  0  0  0
 46 63  1  0  0  0  0
 47 55  1  0  0  0  0
 47 71  1  0  0  0  0
 48 60  1  0  0  0  0
 48 71  1  0  0  0  0
 49 59  1  0  0  0  0
 50 60  1  0  0  0  0
 51 61  1  0  0  0  0
 52 61  1  0  0  0  0
 53 61  1  0  0  0  0
 54 72  1  0  0  0  0
 55 70  1  0  0  0  0
 56 57  1  0  0  0  0
 56 60  1  0  0  0  0
 57 79  1  0  0  0  0
 58 61  1  0  0  0  0
 58 69  1  0  0  0  0
 59 72  1  0  0  0  0
 62 63  1  0  0  0  0
M  CHG  2  71   1  72   1
M  ISO  4  32 100  57 101  70 100  79 101
M  END
> <Batch ID>
0121

> <Smiles>
CNC(C)C(=O)NC(C(=O)N1Cc2cc([101O:1][101CH2:1]CC(C)C3CCC(C[100NH:0][100C:0](=O)N4CCCC(n5nc(-c6ccc(Oc7ccc(F)cc7F)cc6)c(C(N)=O)c5N)C4)N3)ccc2CC1C(=O)NC1CCCc2ccccc21)C(C)(C)C

> <Shape>
0.245

> <Color>
0.051

> <Negative vol penalty>
0.000

$$$$

  -OEChem-04052320253D

 89 98  0     1  0  0  0  0  0999 V2000
  -25.3070  -30.2220   22.8373 C   0  0  0  0  0  0  0  0  0  0  0  0
  -24.9593  -28.9101   23.1429 C   0  0  0  0  0  0  0  0  0  0  0  0
  -21.3617  -23.6926   20.4187 C   0  0  0  0  0  0  0  0  0  0  0  0
  -22.0249  -22.5843   22.4605 C   0  0  0  0  0  0  0  0  0  0  0  0
  -25.8703  -30.5219   21.5977 C   0  0  0  0  0  0  0  0  0  0  0  0
  -25.1738  -27.8974   22.2085 C   0  0  0  0  0  0  0  0  0  0  0  0
  -26.8440  -20.9435   21.7968 C   0  0  0  0  0  0  0  0  0  0  0  0
  -21.2743  -24.9040   21.1046 C   0  0  0  0  0  0  0  0  0  0  0  0
  -21.9375  -23.7957   23.1464 C   0  0  0  0  0  0  0  0  0  0  0  0
  -26.3910  -19.7595   21.2164 C   0  0  0  0  0  0  0  0  0  0  0  0
  -19.0903  -26.4408   23.1766 C   0  0  0  0  0  0  0  0  0  0  0  0
  -17.9712  -27.2391   22.9405 C   0  0  0  0  0  0  0  0  0  0  0  0
  -27.4440  -20.3830   19.1375 C   0  0  0  0  0  0  0  0  0  0  0  0
  -19.4057  -29.0190   22.1588 C   0  0  0  0  0  0  0  0  0  0  0  0
  -21.7369  -22.5327   21.0967 C   0  0  0  0  0  0  0  0  0  0  0  0
  -22.6582  -20.9819   19.2928 C   0  0  0  0  0  0  0  0  0  0  0  0
  -26.1008  -29.5110   20.6514 C   0  0  0  0  0  0  0  0  0  0  0  0
  -27.5923  -21.8627   21.0475 C   0  0  0  0  0  0  0  0  0  0  0  0
  -25.7395  -28.1843   20.9546 C   0  0  0  0  0  0  0  0  0  0  0  0
  -27.9074  -21.5767   19.7115 C   0  0  0  0  0  0  0  0  0  0  0  0
  -21.5622  -24.9556   22.4685 C   0  0  0  0  0  0  0  0  0  0  0  0
  -26.6886  -19.4805   19.8857 C   0  0  0  0  0  0  0  0  0  0  0  0
  -20.3672  -26.9316   22.9039 C   0  0  0  0  0  0  0  0  0  0  0  0
  -18.1288  -28.5282   22.4316 C   0  0  0  0  0  0  0  0  0  0  0  0
  -20.5249  -28.2207   22.3950 C   0  0  0  0  0  0  0  0  0  0  0  0
  -21.8268  -21.2810   20.3888 C   0  0  0  0  0  0  0  0  0  0  0  0
  -22.3701  -19.6735   18.9903 C   0  0  0  0  0  0  0  0  0  0  0  0
  -23.6061  -21.8126   18.6094 C   0  0  0  0  0  0  0  0  0  0  0  0
  -25.6314  -14.4710   21.5846 C   0  0  0  0  0  0  0  0  0  0  0  0
  -27.1788  -24.8804   20.1387 C   0  0  0  0  0  0  0  0  0  0  0  0
  -30.2105  -24.5537   19.0323 C   0  0  0  0  0  0  0  0  0  0  0  0
  -32.1252  -22.0314   17.3032 C   0  0  0  0  0  0  0  0  0  0  0  0
  -21.4148  -14.4085   20.5756 C   0  0  0  0  0  0  0  0  0  0  0  0
  -26.6686  -29.8910   19.3068 C   0  0  0  0  0  0  0  0  0  0  0  0
  -28.0962  -23.1229   21.6960 C   0  0  0  0  0  0  0  0  0  0  0  0
  -28.7247  -22.5211   18.8698 C   0  0  0  0  0  0  0  0  0  0  0  0
  -27.2087  -28.7023   18.5158 C   0  0  0  0  0  0  0  0  0  0  0  0
  -18.6545  -16.6569   20.6277 C   0  0  0  0  0  0  0  0  0  0  0  0
  -28.9782  -16.9108   22.8532 C   0  0  0  0  0  0  0  0  0  0  0  0
  -26.2140  -27.5462   18.5435 C   0  0  0  0  0  0  0  0  0  0  0  0
  -28.7090  -16.8020   21.3556 C   0  0  0  0  0  0  0  0  0  0  0  0
  -19.3027  -18.0352   20.4861 C   0  0  0  0  0  0  0  0  0  0  0  0
  -24.4948  -11.1268   20.5420 C   0  0  0  0  0  0  0  0  0  0  0  0
  -19.5102  -15.7148   21.4716 C   0  0  0  0  0  0  0  0  0  0  0  0
  -21.5560  -16.9550   20.8795 C   0  0  0  0  0  0  0  0  0  0  0  0
  -26.5631  -12.3377   20.5786 C   0  0  0  0  0  0  0  0  0  0  0  0
  -28.7463  -15.5841   23.5526 C   0  0  0  0  0  0  0  0  0  0  0  0
  -25.9795  -27.0545   19.9769 C   0  0  1  0  0  0  0  0  0  0  0  0
  -27.0646  -14.9227   21.8005 C   0  0  1  0  0  0  0  0  0  0  0  0
  -28.4134  -24.2262   20.6914 C   0  0  1  0  0  0  0  0  0  0  0  0
  -27.3030  -16.2492   21.0613 C   0  0  2  0  0  0  0  0  0  0  0  0
  -20.7569  -17.9227   19.9900 C   0  0  2  0  0  0  0  0  0  0  0  0
  -25.8719  -11.1730   19.8946 C   0  0  2  0  0  0  0  0  0  0  0  0
  -24.1692  -12.5999   20.8072 C   0  0  2  0  0  0  0  0  0  0  0  0
  -34.5930  -21.5760   17.2959 C   0  0  0  0  0  0  0  0  0  0  0  0
  -27.0214  -17.2559   17.3129 C   0  0  0  0  0  0  0  0  0  0  0  0
  -30.2351  -26.3169   16.5422 C   0  0  0  0  0  0  0  0  0  0  0  0
  -31.9407  -24.7747   15.5520 C   0  0  0  0  0  0  0  0  0  0  0  0
  -32.4634  -26.0331   17.6415 C   0  0  0  0  0  0  0  0  0  0  0  0
  -31.7260  -19.2180   18.1306 C   0  0  0  0  0  0  0  0  0  0  0  0
  -27.1289  -16.0942   19.5461 C   0  0  0  0  0  0  0  0  0  0  0  0
  -23.4010  -13.2412   19.6529 C   0  0  0  0  0  0  0  0  0  0  0  0
  -30.8313  -24.1043   17.7317 C   0  0  1  0  0  0  0  0  0  0  0  0
  -33.2450  -21.1851   17.8815 C   0  0  2  0  0  0  0  0  0  0  0  0
  -27.2371  -17.4316   18.8101 C   0  0  2  0  0  0  0  0  0  1  0  0
  -31.3424  -25.2973   16.8755 C   0  0  0  0  0  0  0  0  0  0  0  0
  -21.0674  -20.2459   20.7575 N   0  0  0  0  0  0  0  0  0  0  0  0
  -21.4205  -19.2836   19.8883 N   0  0  0  0  0  0  0  0  0  0  0  0
  -25.4792  -13.2262   20.9940 N   0  0  0  0  0  0  0  0  0  0  0  0
  -29.1891  -23.7430   19.5473 N   0  0  0  0  0  0  0  0  0  0  0  0
  -20.8766  -15.6516   20.9473 N   0  0  0  0  0  0  0  0  0  0  0  0
  -22.8390  -18.8299   18.0464 N   0  0  0  0  0  0  0  0  0  0  0  0
  -23.1637  -22.5730   17.5183 N   0  0  0  0  0  0  0  0  0  0  0  0
  -27.0856  -26.2310   20.4160 N   0  0  0  0  0  0  0  0  0  0  0  0
  -31.8644  -23.1367   18.0853 N   0  0  0  0  0  0  0  0  0  0  0  0
  -22.7135  -14.4385   20.0824 N   0  0  0  0  0  0  0  0  0  0  0  0
  -27.3597  -15.1203   23.2603 N   0  3  0  0  0  0  0  0  0  0  0  0
  -33.0069  -19.7428   17.5914 N   0  3  0  0  0  0  0  0  0  0  0  0
  -24.8134  -21.8660   18.9457 O   0  0  0  0  0  0  0  0  0  0  0  0
  -24.6941  -15.1957   21.9231 O   0  0  0  0  0  0  0  0  0  0  0  0
  -26.3713  -24.2099   19.5062 O   0  0  0  0  0  0  0  0  0  0  0  0
  -30.6218  -25.5822   19.5751 O   0  0  0  0  0  0  0  0  0  0  0  0
  -31.5429  -21.7430   16.2601 O   0  0  0  0  0  0  0  0  0  0  0  0
  -20.7827  -13.3510   20.6709 O   0  0  0  0  0  0  0  0  0  0  0  0
  -21.4773  -26.1375   23.1380 O   0  0  0  0  0  0  0  0  0  0  0  0
  -26.2472  -18.3259   19.3165 O   0  0  0  0  0  0  0  0  0  1  0  0
  -17.0539  -29.2941   22.2035 F   0  0  0  0  0  0  0  0  0  0  0  0
  -21.7490  -28.6973   22.1299 F   0  0  0  0  0  0  0  0  0  0  0  0
  -25.7334  -11.4594   18.5727 F   0  0  0  0  0  0  0  0  0  0  0  0
  1  2  1  0  0  0  0
  1  5  2  0  0  0  0
  2  6  2  0  0  0  0
  3  8  2  0  0  0  0
  3 15  1  0  0  0  0
  4  9  1  0  0  0  0
  4 15  2  0  0  0  0
  5 17  1  0  0  0  0
  6 19  1  0  0  0  0
  7 10  2  0  0  0  0
  7 18  1  0  0  0  0
  8 21  1  0  0  0  0
  9 21  2  0  0  0  0
 10 22  1  0  0  0  0
 11 12  2  0  0  0  0
 11 23  1  0  0  0  0
 12 24  1  0  0  0  0
 13 20  1  0  0  0  0
 13 22  2  0  0  0  0
 14 24  2  0  0  0  0
 14 25  1  0  0  0  0
 15 26  1  0  0  0  0
 16 26  1  0  0  0  0
 16 27  2  0  0  0  0
 16 28  1  0  0  0  0
 17 19  2  0  0  0  0
 17 34  1  0  0  0  0
 18 20  2  0  0  0  0
 18 35  1  0  0  0  0
 19 48  1  0  0  0  0
 20 36  1  0  0  0  0
 21 85  1  0  0  0  0
 22 86  1  0  0  0  0
 23 25  2  0  0  0  0
 23 85  1  0  0  0  0
 24 87  1  0  0  0  0
 25 88  1  0  0  0  0
 26 67  2  0  0  0  0
 27 68  1  0  0  0  0
 27 72  1  0  0  0  0
 28 73  1  0  0  0  0
 28 79  2  0  0  0  0
 29 49  1  0  0  0  0
 29 69  1  0  0  0  0
 29 80  2  0  0  0  0
 30 50  1  0  0  0  0
 30 74  1  0  0  0  0
 30 81  2  0  0  0  0
 31 63  1  0  0  0  0
 31 70  1  0  0  0  0
 31 82  2  0  0  0  0
 32 64  1  0  0  0  0
 32 75  1  0  0  0  0
 32 83  2  0  0  0  0
 33 71  1  0  0  0  0
 33 76  1  0  0  0  0
 33 84  2  0  0  0  0
 34 37  1  0  0  0  0
 35 50  1  0  0  0  0
 36 70  1  0  0  0  0
 37 40  1  0  0  0  0
 38 42  1  0  0  0  0
 38 44  1  0  0  0  0
 39 41  1  0  0  0  0
 39 47  1  0  0  0  0
 40 48  1  0  0  0  0
 41 51  1  0  0  0  0
 42 52  1  0  0  0  0
 43 53  1  0  0  0  0
 43 54  1  0  0  0  0
 44 71  1  0  0  0  0
 45 52  1  0  0  0  0
 45 71  1  0  0  0  0
 46 53  1  0  0  0  0
 46 69  1  0  0  0  0
 47 77  1  0  0  0  0
 48 74  1  0  0  0  0
 49 51  1  0  0  0  0
 49 77  1  0  0  0  0
 50 70  1  0  0  0  0
 51 61  1  0  0  0  0
 52 68  1  0  0  0  0
 53 89  1  0  0  0  0
 54 62  1  0  0  0  0
 54 69  1  0  0  0  0
 55 64  1  0  0  0  0
 56 65  1  0  0  0  0
 57 66  1  0  0  0  0
 58 66  1  0  0  0  0
 59 66  1  0  0  0  0
 60 78  1  0  0  0  0
 61 65  1  0  0  0  0
 62 76  1  0  0  0  0
 63 66  1  0  0  0  0
 63 75  1  0  0  0  0
 64 78  1  0  0  0  0
 65 86  1  0  0  0  0
 67 68  1  0  0  0  0
M  CHG  2  77   1  78   1
M  ISO  4  33 100  65 101  76 100  86 101
M  END
> <Batch ID>
0121

> <Smiles>
CNC(C)C(=O)NC(C(=O)N1Cc2cc([101O:1][101CH:1](C)CC3CCCNC3C(=O)N3CC(F)CC3C[100NH:0][100C:0](=O)N3CCCC(n4nc(-c5ccc(Oc6ccc(F)cc6F)cc5)c(C(N)=O)c4N)C3)ccc2CC1C(=O)NC1CCCc2ccccc21)C(C)(C)C

> <Shape>
0.210

> <Color>
0.064

> <Negative vol penalty>
0.000

$$$$

  -OEChem-04052320253D

 80 88  0     1  0  0  0  0  0999 V2000
  -17.0551  -30.2305   23.4881 C   0  0  0  0  0  0  0  0  0  0  0  0
  -18.3306  -30.7524   23.2975 C   0  0  0  0  0  0  0  0  0  0  0  0
  -24.1944  -18.1207   20.1683 C   0  0  0  0  0  0  0  0  0  0  0  0
  -25.1083  -17.0121   22.1107 C   0  0  0  0  0  0  0  0  0  0  0  0
  -16.8615  -28.8498   23.4918 C   0  0  0  0  0  0  0  0  0  0  0  0
  -19.4134  -29.8937   23.1115 C   0  0  0  0  0  0  0  0  0  0  0  0
  -25.6692  -29.4665   19.6477 C   0  0  0  0  0  0  0  0  0  0  0  0
  -23.3382  -17.0405   19.9546 C   0  0  0  0  0  0  0  0  0  0  0  0
  -24.2520  -15.9319   21.8970 C   0  0  0  0  0  0  0  0  0  0  0  0
  -27.0165  -29.1991   19.8865 C   0  0  0  0  0  0  0  0  0  0  0  0
  -24.1068  -13.2315   19.8679 C   0  0  0  0  0  0  0  0  0  0  0  0
  -24.6449  -11.9484   19.9673 C   0  0  0  0  0  0  0  0  0  0  0  0
  -26.5502  -26.8330   19.8329 C   0  0  0  0  0  0  0  0  0  0  0  0
  -23.0997  -11.4387   21.7532 C   0  0  0  0  0  0  0  0  0  0  0  0
  -25.0795  -18.1065   21.2463 C   0  0  0  0  0  0  0  0  0  0  0  0
  -25.7095  -20.3690   22.2423 C   0  0  0  0  0  0  0  0  0  0  0  0
  -17.9409  -27.9739   23.2962 C   0  0  0  0  0  0  0  0  0  0  0  0
  -24.7489  -28.4175   19.5103 C   0  0  0  0  0  0  0  0  0  0  0  0
  -19.2342  -28.4999   23.1140 C   0  0  0  0  0  0  0  0  0  0  0  0
  -25.1922  -27.0897   19.5899 C   0  0  0  0  0  0  0  0  0  0  0  0
  -23.3670  -15.9462   20.8189 C   0  0  0  0  0  0  0  0  0  0  0  0
  -27.4567  -27.8822   19.9821 C   0  0  0  0  0  0  0  0  0  0  0  0
  -23.0652  -13.6182   20.7113 C   0  0  0  0  0  0  0  0  0  0  0  0
  -24.1413  -11.0520   20.9099 C   0  0  0  0  0  0  0  0  0  0  0  0
  -22.5616  -12.7218   21.6539 C   0  0  0  0  0  0  0  0  0  0  0  0
  -25.9646  -19.2218   21.4673 C   0  0  0  0  0  0  0  0  0  0  0  0
  -26.8548  -21.1191   22.1327 C   0  0  0  0  0  0  0  0  0  0  0  0
  -24.5417  -20.7247   22.9942 C   0  0  0  0  0  0  0  0  0  0  0  0
  -22.1601  -27.4821   21.1000 C   0  0  0  0  0  0  0  0  0  0  0  0
  -30.4568  -25.5319   18.6063 C   0  0  0  0  0  0  0  0  0  0  0  0
  -21.9130  -25.3508   18.6671 C   0  0  0  0  0  0  0  0  0  0  0  0
  -23.4638  -23.5915   16.1879 C   0  0  0  0  0  0  0  0  0  0  0  0
  -30.9565  -22.4757   18.3383 C   0  0  0  0  0  0  0  0  0  0  0  0
  -17.6900  -26.4879   23.3554 C   0  0  0  0  0  0  0  0  0  0  0  0
  -23.3036  -28.7223   19.2264 C   0  0  0  0  0  0  0  0  0  0  0  0
  -24.2479  -25.9274   19.4295 C   0  0  0  0  0  0  0  0  0  0  0  0
  -18.8306  -25.6541   22.7776 C   0  0  0  0  0  0  0  0  0  0  0  0
  -28.3644  -23.8044   16.2122 C   0  0  0  0  0  0  0  0  0  0  0  0
  -31.5449  -20.1890   20.9330 C   0  0  0  0  0  0  0  0  0  0  0  0
  -20.1738  -26.1490   23.3044 C   0  0  0  0  0  0  0  0  0  0  0  0
  -29.0466  -25.1148   16.5841 C   0  0  0  0  0  0  0  0  0  0  0  0
  -30.1480  -19.7944   21.4071 C   0  0  0  0  0  0  0  0  0  0  0  0
  -31.5808  -20.3404   19.4177 C   0  0  0  0  0  0  0  0  0  0  0  0
  -28.6208  -22.9253   17.4250 C   0  0  0  0  0  0  0  0  0  0  0  0
  -29.1849  -20.9661   19.3613 C   0  0  0  0  0  0  0  0  0  0  0  0
  -20.4300  -27.6013   22.8842 C   0  0  1  0  0  0  0  0  0  0  0  0
  -22.3653  -27.5839   19.6150 C   0  0  1  0  0  0  0  0  0  0  0  0
  -30.2615  -24.6746   17.3960 C   0  0  2  0  0  0  0  0  0  0  0  0
  -29.0948  -20.7883   20.8908 C   0  0  1  0  0  0  0  0  0  0  0  0
  -23.0072  -21.9014   14.3900 C   0  0  0  0  0  0  0  0  0  0  0  0
  -21.7688  -23.1502   20.7757 C   0  0  0  0  0  0  0  0  0  0  0  0
  -22.2703  -21.4865   18.9733 C   0  0  0  0  0  0  0  0  0  0  0  0
  -20.1918  -22.8609   18.8564 C   0  0  0  0  0  0  0  0  0  0  0  0
  -24.3278  -25.4540   14.0564 C   0  0  0  0  0  0  0  0  0  0  0  0
  -31.0026  -27.8443   19.3396 C   0  0  0  0  0  0  0  0  0  0  0  0
  -29.7212  -28.5618   19.7244 C   0  0  0  0  0  0  0  0  0  1  0  0
  -22.4276  -23.9547   18.4125 C   0  0  1  0  0  0  0  0  0  0  0  0
  -23.1069  -23.3809   14.7275 C   0  0  2  0  0  0  0  0  0  0  0  0
  -21.6823  -22.8848   19.2595 C   0  0  0  0  0  0  0  0  0  0  0  0
  -27.1768  -19.2374   20.9066 N   0  0  0  0  0  0  0  0  0  0  0  0
  -27.6935  -20.4037   21.3296 N   0  0  0  0  0  0  0  0  0  0  0  0
  -22.8434  -26.2769   19.1595 N   0  0  0  0  0  0  0  0  0  0  0  0
  -30.5600  -21.2779   18.9472 N   0  0  0  0  0  0  0  0  0  0  0  0
  -29.9498  -23.3313   17.8818 N   0  0  0  0  0  0  0  0  0  0  0  0
  -27.2162  -22.3144   22.6457 N   0  0  0  0  0  0  0  0  0  0  0  0
  -23.4550  -19.8395   22.9993 N   0  0  0  0  0  0  0  0  0  0  0  0
  -20.8497  -27.6605   21.5004 N   0  0  0  0  0  0  0  0  0  0  0  0
  -30.7738  -26.8460   18.3197 N   0  0  0  0  0  0  0  0  0  0  0  0
  -22.3396  -23.7436   16.9716 N   0  0  0  0  0  0  0  0  0  0  0  0
  -24.1413  -23.9950   13.8478 N   0  3  0  0  0  0  0  0  0  0  0  0
  -24.4578  -21.8034   23.6290 O   0  0  0  0  0  0  0  0  0  0  0  0
  -23.1194  -27.2568   21.8285 O   0  0  0  0  0  0  0  0  0  0  0  0
  -30.3285  -25.0408   19.7217 O   0  0  0  0  0  0  0  0  0  0  0  0
  -20.7308  -25.6121   18.4308 O   0  0  0  0  0  0  0  0  0  0  0  0
  -24.6238  -23.6147   16.5935 O   0  0  0  0  0  0  0  0  0  0  0  0
  -32.1526  -22.7580   18.1897 O   0  0  0  0  0  0  0  0  0  0  0  0
  -22.5315  -14.8920   20.6108 O   0  0  0  0  0  0  0  0  0  0  0  0
  -28.7804  -27.6166   20.2174 O   0  0  0  0  0  0  0  0  0  1  0  0
  -24.6571   -9.8195   21.0042 F   0  0  0  0  0  0  0  0  0  0  0  0
  -21.5602  -13.0871   22.4660 F   0  0  0  0  0  0  0  0  0  0  0  0
  1  2  1  0  0  0  0
  1  5  2  0  0  0  0
  2  6  2  0  0  0  0
  3  8  2  0  0  0  0
  3 15  1  0  0  0  0
  4  9  1  0  0  0  0
  4 15  2  0  0  0  0
  5 17  1  0  0  0  0
  6 19  1  0  0  0  0
  7 10  2  0  0  0  0
  7 18  1  0  0  0  0
  8 21  1  0  0  0  0
  9 21  2  0  0  0  0
 10 22  1  0  0  0  0
 11 12  2  0  0  0  0
 11 23  1  0  0  0  0
 12 24  1  0  0  0  0
 13 20  1  0  0  0  0
 13 22  2  0  0  0  0
 14 24  2  0  0  0  0
 14 25  1  0  0  0  0
 15 26  1  0  0  0  0
 16 26  1  0  0  0  0
 16 27  2  0  0  0  0
 16 28  1  0  0  0  0
 17 19  2  0  0  0  0
 17 34  1  0  0  0  0
 18 20  2  0  0  0  0
 18 35  1  0  0  0  0
 19 46  1  0  0  0  0
 20 36  1  0  0  0  0
 21 77  1  0  0  0  0
 22 78  1  0  0  0  0
 23 25  2  0  0  0  0
 23 77  1  0  0  0  0
 24 79  1  0  0  0  0
 25 80  1  0  0  0  0
 26 60  2  0  0  0  0
 27 61  1  0  0  0  0
 27 65  1  0  0  0  0
 28 66  1  0  0  0  0
 28 71  2  0  0  0  0
 29 47  1  0  0  0  0
 29 67  1  0  0  0  0
 29 72  2  0  0  0  0
 30 48  1  0  0  0  0
 30 68  1  0  0  0  0
 30 73  2  0  0  0  0
 31 57  1  0  0  0  0
 31 62  1  0  0  0  0
 31 74  2  0  0  0  0
 32 58  1  0  0  0  0
 32 69  1  0  0  0  0
 32 75  2  0  0  0  0
 33 63  1  0  0  0  0
 33 64  1  0  0  0  0
 33 76  2  0  0  0  0
 34 37  1  0  0  0  0
 35 47  1  0  0  0  0
 36 62  1  0  0  0  0
 37 40  1  0  0  0  0
 38 41  1  0  0  0  0
 38 44  1  0  0  0  0
 39 42  1  0  0  0  0
 39 43  1  0  0  0  0
 40 46  1  0  0  0  0
 41 48  1  0  0  0  0
 42 49  1  0  0  0  0
 43 63  1  0  0  0  0
 44 64  1  0  0  0  0
 45 49  1  0  0  0  0
 45 63  1  0  0  0  0
 46 67  1  0  0  0  0
 47 62  1  0  0  0  0
 48 64  1  0  0  0  0
 49 61  1  0  0  0  0
 50 58  1  0  0  0  0
 51 59  1  0  0  0  0
 52 59  1  0  0  0  0
 53 59  1  0  0  0  0
 54 70  1  0  0  0  0
 55 56  1  0  0  0  0
 55 68  1  0  0  0  0
 56 78  1  0  0  0  0
 57 59  1  0  0  0  0
 57 69  1  0  0  0  0
 58 70  1  0  0  0  0
 60 61  1  0  0  0  0
M  CHG  1  70   1
M  ISO  4  33 100  56 101  64 100  78 101
M  END
> <Batch ID>
0121

> <Smiles>
CNC(C)C(=O)NC(C(=O)N1Cc2cc([101O:1][101CH2:1]CNC(=O)C3CCC[100N:0]3[100C:0](=O)N3CCCC(n4nc(-c5ccc(Oc6ccc(F)cc6F)cc5)c(C(N)=O)c4N)C3)ccc2CC1C(=O)NC1CCCc2ccccc21)C(C)(C)C

> <Shape>
0.231

> <Color>
0.085

> <Negative vol penalty>
0.000

$$$$

  -OEChem-04052320253D

 87 95  0     1  0  0  0  0  0999 V2000
  -23.6484  -28.6445   22.9370 C   0  0  0  0  0  0  0  0  0  0  0  0
  -23.6951  -27.2544   22.9070 C   0  0  0  0  0  0  0  0  0  0  0  0
  -29.2130  -21.3064   26.3323 C   0  0  0  0  0  0  0  0  0  0  0  0
  -27.9680  -19.3023   26.8528 C   0  0  0  0  0  0  0  0  0  0  0  0
  -24.3544  -29.3852   21.9900 C   0  0  0  0  0  0  0  0  0  0  0  0
  -24.4472  -26.6042   21.9293 C   0  0  0  0  0  0  0  0  0  0  0  0
  -27.5456  -21.3583   22.5509 C   0  0  0  0  0  0  0  0  0  0  0  0
  -28.1116  -22.0837   26.6904 C   0  0  0  0  0  0  0  0  0  0  0  0
  -26.8665  -20.0797   27.2109 C   0  0  0  0  0  0  0  0  0  0  0  0
  -27.2385  -20.0416   22.2106 C   0  0  0  0  0  0  0  0  0  0  0  0
  -25.7492  -24.6093   27.8110 C   0  0  0  0  0  0  0  0  0  0  0  0
  -25.9781  -25.7289   28.6108 C   0  0  0  0  0  0  0  0  0  0  0  0
  -23.7328  -12.1258   20.6547 C   0  0  0  0  0  0  0  0  0  0  0  0
  -28.4499  -20.3003   20.1407 C   0  0  0  0  0  0  0  0  0  0  0  0
  -26.8900  -24.3079   30.3389 C   0  0  0  0  0  0  0  0  0  0  0  0
  -24.8267  -11.3376   20.3356 C   0  0  0  0  0  0  0  0  0  0  0  0
  -29.1412  -19.9157   26.4134 C   0  0  0  0  0  0  0  0  0  0  0  0
  -31.3235  -18.6804   26.8817 C   0  0  0  0  0  0  0  0  0  0  0  0
  -25.1232  -28.7438   21.0060 C   0  0  0  0  0  0  0  0  0  0  0  0
  -28.2991  -22.1607   21.6821 C   0  0  0  0  0  0  0  0  0  0  0  0
  -25.1631  -27.3369   20.9674 C   0  0  0  0  0  0  0  0  0  0  0  0
  -28.7673  -21.6261   20.4734 C   0  0  0  0  0  0  0  0  0  0  0  0
  -23.9730  -13.3872   21.1879 C   0  0  0  0  0  0  0  0  0  0  0  0
  -25.2813  -13.8158   21.3831 C   0  0  0  0  0  0  0  0  0  0  0  0
  -26.9383  -21.4703   27.1298 C   0  0  0  0  0  0  0  0  0  0  0  0
  -27.6882  -19.5133   21.0041 C   0  0  0  0  0  0  0  0  0  0  0  0
  -26.0906  -23.3390   28.2751 C   0  0  0  0  0  0  0  0  0  0  0  0
  -26.5485  -25.5782   29.8747 C   0  0  0  0  0  0  0  0  0  0  0  0
  -26.6610  -23.1883   29.5391 C   0  0  0  0  0  0  0  0  0  0  0  0
  -30.2784  -19.1122   26.0431 C   0  0  0  0  0  0  0  0  0  0  0  0
  -26.3059  -12.9518   21.0315 C   0  0  0  0  0  0  0  0  0  0  0  0
  -32.1472  -17.9536   26.0573 C   0  0  0  0  0  0  0  0  0  0  0  0
  -31.5311  -18.9153   28.2807 C   0  0  0  0  0  0  0  0  0  0  0  0
  -27.7677  -24.8646   20.0978 C   0  0  0  0  0  0  0  0  0  0  0  0
  -30.9114  -24.5866   19.3479 C   0  0  0  0  0  0  0  0  0  0  0  0
  -33.6287  -22.5589   18.9587 C   0  0  0  0  0  0  0  0  0  0  0  0
  -31.2067  -14.9801   20.9460 C   0  0  0  0  0  0  0  0  0  0  0  0
  -25.8313  -29.5861   19.9746 C   0  0  0  0  0  0  0  0  0  0  0  0
  -28.6445  -23.5707   22.0759 C   0  0  0  0  0  0  0  0  0  0  0  0
  -29.5969  -22.4396   19.5150 C   0  0  0  0  0  0  0  0  0  0  0  0
  -26.9056  -28.8262   19.2009 C   0  0  0  0  0  0  0  0  0  0  0  0
  -33.5278  -17.6249   21.4881 C   0  0  0  0  0  0  0  0  0  0  0  0
  -26.3749  -27.4722   18.7405 C   0  0  0  0  0  0  0  0  0  0  0  0
  -33.0525  -18.2670   22.7926 C   0  0  0  0  0  0  0  0  0  0  0  0
  -32.3551  -17.1523   20.6317 C   0  0  0  0  0  0  0  0  0  0  0  0
  -30.9289  -16.9027   22.6261 C   0  0  0  0  0  0  0  0  0  0  0  0
  -25.9875  -26.5955   19.9375 C   0  0  1  0  0  0  0  0  0  0  0  0
  -28.9831  -24.4585   20.8824 C   0  0  1  0  0  0  0  0  0  0  0  0
  -32.0775  -17.3447   23.5489 C   0  0  2  0  0  0  0  0  0  0  0  0
  -36.0499  -22.6143   18.3011 C   0  0  0  0  0  0  0  0  0  0  0  0
  -21.4596  -13.5501   21.2276 C   0  0  0  0  0  0  0  0  0  0  0  0
  -22.8444  -15.5936   20.7354 C   0  0  0  0  0  0  0  0  0  0  0  0
  -22.7256  -14.6802   23.0447 C   0  0  0  0  0  0  0  0  0  0  0  0
  -30.1067  -24.8498   16.4164 C   0  0  0  0  0  0  0  0  0  0  0  0
  -32.3621  -23.9617   15.7898 C   0  0  0  0  0  0  0  0  0  0  0  0
  -32.1741  -26.1076   17.0478 C   0  0  0  0  0  0  0  0  0  0  0  0
  -34.4905  -21.5547   21.6059 C   0  0  0  0  0  0  0  0  0  0  0  0
  -25.5617  -15.1803   21.9601 C   0  0  0  0  0  0  0  0  0  0  0  0
  -26.4051  -16.0735   21.0477 C   0  0  0  0  0  0  0  0  0  0  0  0
  -28.7485  -12.7931   20.5476 C   0  0  0  0  0  0  0  0  0  0  0  0
  -30.0029  -12.8589   21.4053 C   0  0  0  0  0  0  0  0  0  0  0  0
  -26.6110  -17.4788   21.6011 C   0  0  0  0  0  0  0  0  0  1  0  0
  -31.6909  -23.9284   18.2351 C   0  0  1  0  0  0  0  0  0  0  0  0
  -35.0587  -22.6852   19.4523 C   0  0  2  0  0  0  0  0  0  0  0  0
  -22.8131  -14.2586   21.5411 C   0  0  0  0  0  0  0  0  0  0  0  0
  -31.5662  -24.6969   16.8892 C   0  0  0  0  0  0  0  0  0  0  0  0
  -26.1117  -11.7194   20.5109 N   0  0  0  0  0  0  0  0  0  0  0  0
  -30.4227  -18.6946   24.7826 N   0  0  0  0  0  0  0  0  0  0  0  0
  -31.5682  -17.9929   24.8230 N   0  0  0  0  0  0  0  0  0  0  0  0
  -29.9029  -23.8149   19.9422 N   0  0  0  0  0  0  0  0  0  0  0  0
  -31.4696  -16.2805   21.4074 N   0  0  0  0  0  0  0  0  0  0  0  0
  -33.3032  -17.2911   26.2749 N   0  0  0  0  0  0  0  0  0  0  0  0
  -30.5874  -19.6832   28.9765 N   0  0  0  0  0  0  0  0  0  0  0  0
  -27.6419  -13.3822   21.2281 N   0  0  0  0  0  0  0  0  0  0  0  0
  -27.1685  -26.0250   20.5493 N   0  0  0  0  0  0  0  0  0  0  0  0
  -33.0598  -23.7922   18.7208 N   0  0  0  0  0  0  0  0  0  0  0  0
  -30.3624  -14.2179   21.7441 N   0  0  0  0  0  0  0  0  0  0  0  0
  -35.3740  -21.5895   20.4121 N   0  3  0  0  0  0  0  0  0  0  0  0
  -32.5325  -18.4716   28.8921 O   0  0  0  0  0  0  0  0  0  0  0  0
  -27.4016  -24.1769   19.1519 O   0  0  0  0  0  0  0  0  0  0  0  0
  -31.1919  -25.7403   19.6824 O   0  0  0  0  0  0  0  0  0  0  0  0
  -33.0733  -21.4746   18.7965 O   0  0  0  0  0  0  0  0  0  0  0  0
  -31.6929  -14.5297   19.9031 O   0  0  0  0  0  0  0  0  0  0  0  0
  -25.8635  -22.2285   27.4795 O   0  0  0  0  0  0  0  0  0  0  0  0
  -27.3894  -18.2286   20.6692 O   0  0  0  0  0  0  0  0  0  1  0  0
  -26.7697  -26.6536   30.6421 F   0  0  0  0  0  0  0  0  0  0  0  0
  -26.9922  -21.9706   29.9899 F   0  0  0  0  0  0  0  0  0  0  0  0
  1  2  1  0  0  0  0
  1  5  2  0  0  0  0
  2  6  2  0  0  0  0
  3  8  2  0  0  0  0
  3 17  1  0  0  0  0
  4  9  1  0  0  0  0
  4 17  2  0  0  0  0
  5 19  1  0  0  0  0
  6 21  1  0  0  0  0
  7 10  2  0  0  0  0
  7 20  1  0  0  0  0
  8 25  1  0  0  0  0
  9 25  2  0  0  0  0
 10 26  1  0  0  0  0
 11 12  2  0  0  0  0
 11 27  1  0  0  0  0
 12 28  1  0  0  0  0
 13 16  1  0  0  0  0
 13 23  2  0  0  0  0
 14 22  1  0  0  0  0
 14 26  2  0  0  0  0
 15 28  2  0  0  0  0
 15 29  1  0  0  0  0
 16 67  2  0  0  0  0
 17 30  1  0  0  0  0
 18 30  1  0  0  0  0
 18 32  2  0  0  0  0
 18 33  1  0  0  0  0
 19 21  2  0  0  0  0
 19 38  1  0  0  0  0
 20 22  2  0  0  0  0
 20 39  1  0  0  0  0
 21 47  1  0  0  0  0
 22 40  1  0  0  0  0
 23 24  1  0  0  0  0
 23 65  1  0  0  0  0
 24 31  2  0  0  0  0
 24 58  1  0  0  0  0
 25 84  1  0  0  0  0
 26 85  1  0  0  0  0
 27 29  2  0  0  0  0
 27 84  1  0  0  0  0
 28 86  1  0  0  0  0
 29 87  1  0  0  0  0
 30 68  2  0  0  0  0
 31 67  1  0  0  0  0
 31 74  1  0  0  0  0
 32 69  1  0  0  0  0
 32 72  1  0  0  0  0
 33 73  1  0  0  0  0
 33 79  2  0  0  0  0
 34 48  1  0  0  0  0
 34 75  1  0  0  0  0
 34 80  2  0  0  0  0
 35 63  1  0  0  0  0
 35 70  1  0  0  0  0
 35 81  2  0  0  0  0
 36 64  1  0  0  0  0
 36 76  1  0  0  0  0
 36 82  2  0  0  0  0
 37 71  1  0  0  0  0
 37 77  1  0  0  0  0
 37 83  2  0  0  0  0
 38 41  1  0  0  0  0
 39 48  1  0  0  0  0
 40 70  1  0  0  0  0
 41 43  1  0  0  0  0
 42 44  1  0  0  0  0
 42 45  1  0  0  0  0
 43 47  1  0  0  0  0
 44 49  1  0  0  0  0
 45 71  1  0  0  0  0
 46 49  1  0  0  0  0
 46 71  1  0  0  0  0
 47 75  1  0  0  0  0
 48 70  1  0  0  0  0
 49 69  1  0  0  0  0
 50 64  1  0  0  0  0
 51 65  1  0  0  0  0
 52 65  1  0  0  0  0
 53 65  1  0  0  0  0
 54 66  1  0  0  0  0
 55 66  1  0  0  0  0
 56 66  1  0  0  0  0
 57 78  1  0  0  0  0
 58 59  1  0  0  0  0
 59 62  1  0  0  0  0
 60 61  1  0  0  0  0
 60 74  1  0  0  0  0
 61 77  1  0  0  0  0
 62 85  1  0  0  0  0
 63 66  1  0  0  0  0
 63 76  1  0  0  0  0
 64 78  1  0  0  0  0
 68 69  1  0  0  0  0
M  CHG  1  78   1
M  ISO  4  37 100  62 101  77 100  85 101
M  END
> <Batch ID>
0121

> <Smiles>
CNC(C)C(=O)NC(C(=O)N1Cc2cc([101O:1][101CH2:1]CCc3c(C(C)(C)C)ccnc3NCC[100NH:0][100C:0](=O)N3CCCC(n4nc(-c5ccc(Oc6ccc(F)cc6F)cc5)c(C(N)=O)c4N)C3)ccc2CC1C(=O)NC1CCCc2ccccc21)C(C)(C)C

> <Shape>
0.190

> <Color>
0.085

> <Negative vol penalty>
0.000

$$$$

  -OEChem-04052320253D

 88 97  0     1  0  0  0  0  0999 V2000
  -34.9587  -23.8759   15.3553 C   0  0  0  0  0  0  0  0  0  0  0  0
  -33.6483  -24.2408   15.0636 C   0  0  0  0  0  0  0  0  0  0  0  0
  -23.1060  -13.8029   19.1701 C   0  0  0  0  0  0  0  0  0  0  0  0
  -24.8589  -14.8435   20.4669 C   0  0  0  0  0  0  0  0  0  0  0  0
  -35.2347  -23.1277   16.4990 C   0  0  0  0  0  0  0  0  0  0  0  0
  -32.6129  -23.8568   15.9150 C   0  0  0  0  0  0  0  0  0  0  0  0
  -28.3631  -28.7660   19.0345 C   0  0  0  0  0  0  0  0  0  0  0  0
  -23.6426  -12.5468   19.4527 C   0  0  0  0  0  0  0  0  0  0  0  0
  -25.3955  -13.5873   20.7495 C   0  0  0  0  0  0  0  0  0  0  0  0
  -27.3756  -29.6331   19.5023 C   0  0  0  0  0  0  0  0  0  0  0  0
  -23.6465  -10.3632   22.0343 C   0  0  0  0  0  0  0  0  0  0  0  0
  -22.7642   -9.3519   22.4142 C   0  0  0  0  0  0  0  0  0  0  0  0
  -26.2899  -27.7981   20.6434 C   0  0  0  0  0  0  0  0  0  0  0  0
  -23.4588   -8.0318   20.5137 C   0  0  0  0  0  0  0  0  0  0  0  0
  -23.7142  -14.9513   19.6771 C   0  0  0  0  0  0  0  0  0  0  0  0
  -21.8723  -16.7159   19.7073 C   0  0  0  0  0  0  0  0  0  0  0  0
  -34.2033  -22.7426   17.3699 C   0  0  0  0  0  0  0  0  0  0  0  0
  -28.3263  -27.4128   19.3824 C   0  0  0  0  0  0  0  0  0  0  0  0
  -32.8751  -23.1016   17.0707 C   0  0  0  0  0  0  0  0  0  0  0  0
  -27.2832  -26.9271   20.1880 C   0  0  0  0  0  0  0  0  0  0  0  0
  -24.7873  -12.4390   20.2424 C   0  0  0  0  0  0  0  0  0  0  0  0
  -26.3414  -29.1503   20.3046 C   0  0  0  0  0  0  0  0  0  0  0  0
  -24.4350  -10.2088   20.8940 C   0  0  0  0  0  0  0  0  0  0  0  0
  -22.6703   -8.1862   21.6540 C   0  0  0  0  0  0  0  0  0  0  0  0
  -24.3411   -9.0432   20.1337 C   0  0  0  0  0  0  0  0  0  0  0  0
  -23.1607  -16.2491   19.3851 C   0  0  0  0  0  0  0  0  0  0  0  0
  -21.8393  -17.9986   19.2173 C   0  0  0  0  0  0  0  0  0  0  0  0
  -20.8011  -16.0497   20.3887 C   0  0  0  0  0  0  0  0  0  0  0  0
  -20.8614  -26.1524   22.5336 C   0  0  0  0  0  0  0  0  0  0  0  0
  -29.9450  -24.0386   19.1175 C   0  0  0  0  0  0  0  0  0  0  0  0
  -28.9804  -24.3392   22.0140 C   0  0  0  0  0  0  0  0  0  0  0  0
  -28.1445  -25.2333   25.1982 C   0  0  0  0  0  0  0  0  0  0  0  0
  -24.2146  -22.9978   18.5022 C   0  0  0  0  0  0  0  0  0  0  0  0
  -34.5447  -21.8939   18.5690 C   0  0  0  0  0  0  0  0  0  0  0  0
  -29.3347  -26.4309   18.8507 C   0  0  0  0  0  0  0  0  0  0  0  0
  -27.2649  -25.4575   20.5084 C   0  0  0  0  0  0  0  0  0  0  0  0
  -33.4361  -21.8467   19.6173 C   0  0  0  0  0  0  0  0  0  0  0  0
  -25.0524  -20.4421   16.1691 C   0  0  0  0  0  0  0  0  0  0  0  0
  -32.0854  -21.5943   18.9549 C   0  0  0  0  0  0  0  0  0  0  0  0
  -24.5345  -19.1620   16.8272 C   0  0  0  0  0  0  0  0  0  0  0  0
  -21.4736  -24.8208   19.1253 C   0  0  0  0  0  0  0  0  0  0  0  0
  -19.1649  -29.5914   22.9723 C   0  0  0  0  0  0  0  0  0  0  0  0
  -25.6117  -21.4201   17.2000 C   0  0  0  0  0  0  0  0  0  0  0  0
  -20.8623  -25.9040   20.0053 C   0  0  0  0  0  0  0  0  0  0  0  0
  -24.1724  -20.4711   18.9611 C   0  0  0  0  0  0  0  0  0  0  0  0
  -22.3167  -24.5277   21.3396 C   0  0  0  0  0  0  0  0  0  0  0  0
  -17.9209  -29.0681   23.6741 C   0  0  0  0  0  0  0  0  0  0  0  0
  -18.5464  -26.7164   23.0797 C   0  0  0  0  0  0  0  0  0  0  0  0
  -31.7278  -22.7252   17.9829 C   0  0  1  0  0  0  0  0  0  0  0  0
  -19.8094  -27.2100   22.3784 C   0  0  1  0  0  0  0  0  0  0  0  0
  -29.6813  -25.3179   19.8559 C   0  0  1  0  0  0  0  0  0  0  0  0
  -23.5474  -19.4773   17.9671 C   0  0  2  0  0  0  0  0  0  0  0  0
  -22.7478  -24.4492   19.8810 C   0  0  1  0  0  0  0  0  0  0  0  0
  -20.2793  -28.5444   22.9683 C   0  0  1  0  0  0  0  0  0  0  0  0
  -28.1328  -24.3598   27.5507 C   0  0  0  0  0  0  0  0  0  0  0  0
  -26.5474  -22.6199   21.3596 C   0  0  0  0  0  0  0  0  0  0  0  0
  -26.0255  -22.5521   23.8073 C   0  0  0  0  0  0  0  0  0  0  0  0
  -28.1608  -21.5784   22.9617 C   0  0  0  0  0  0  0  0  0  0  0  0
  -29.9633  -27.3757   26.1261 C   0  0  0  0  0  0  0  0  0  0  0  0
  -23.3833  -30.5535   21.9664 C   0  0  0  0  0  0  0  0  0  0  0  0
  -22.2447  -30.0846   22.8597 C   0  0  0  0  0  0  0  0  0  0  0  0
  -24.3537  -29.4450   21.5773 C   0  0  0  0  0  0  0  0  0  1  0  0
  -27.8784  -24.0903   23.0125 C   0  0  1  0  0  0  0  0  0  0  0  0
  -28.9120  -25.1419   26.5047 C   0  0  2  0  0  0  0  0  0  0  0  0
  -27.1555  -22.7350   22.7717 C   0  0  0  0  0  0  0  0  0  0  0  0
  -23.8932  -17.1610   18.7401 N   0  0  0  0  0  0  0  0  0  0  0  0
  -23.0622  -18.2136   18.6530 N   0  0  0  0  0  0  0  0  0  0  0  0
  -21.3077  -25.5782   21.3571 N   0  0  0  0  0  0  0  0  0  0  0  0
  -28.6245  -24.9964   20.8300 N   0  0  0  0  0  0  0  0  0  0  0  0
  -24.6260  -21.6781   18.2525 N   0  0  0  0  0  0  0  0  0  0  0  0
  -20.8837  -18.9522   19.2183 N   0  0  0  0  0  0  0  0  0  0  0  0
  -20.7244  -16.1618   21.7837 N   0  0  0  0  0  0  0  0  0  0  0  0
  -31.2560  -23.8850   18.7085 N   0  0  0  0  0  0  0  0  0  0  0  0
  -28.4873  -24.2165   24.3323 N   0  0  0  0  0  0  0  0  0  0  0  0
  -23.2730  -23.1535   19.5121 N   0  0  0  0  0  0  0  0  0  0  0  0
  -17.5035  -27.7838   23.0370 N   0  3  0  0  0  0  0  0  0  0  0  0
  -21.4158  -29.0741   22.1616 N   0  3  0  0  0  0  0  0  0  0  0  0
  -29.1831  -26.5050   27.0427 N   0  3  0  0  0  0  0  0  0  0  0  0
  -19.9469  -15.3614   19.7803 O   0  0  0  0  0  0  0  0  0  0  0  0
  -21.2717  -25.8399   23.6525 O   0  0  0  0  0  0  0  0  0  0  0  0
  -29.0277  -23.2473   18.9331 O   0  0  0  0  0  0  0  0  0  0  0  0
  -30.1254  -23.9574   22.2717 O   0  0  0  0  0  0  0  0  0  0  0  0
  -27.3204  -26.1161   24.9701 O   0  0  0  0  0  0  0  0  0  0  0  0
  -24.6499  -23.9650   17.8681 O   0  0  0  0  0  0  0  0  0  0  0  0
  -25.3111  -11.2134   20.5185 O   0  0  0  0  0  0  0  0  0  0  0  0
  -25.3830  -30.0032   20.7616 O   0  0  0  0  0  0  0  0  0  1  0  0
  -21.8241   -7.2145   22.0198 F   0  0  0  0  0  0  0  0  0  0  0  0
  -25.0968   -8.8887   19.0379 F   0  0  0  0  0  0  0  0  0  0  0  0
  1  2  1  0  0  0  0
  1  5  2  0  0  0  0
  2  6  2  0  0  0  0
  3  8  2  0  0  0  0
  3 15  1  0  0  0  0
  4  9  1  0  0  0  0
  4 15  2  0  0  0  0
  5 17  1  0  0  0  0
  6 19  1  0  0  0  0
  7 10  2  0  0  0  0
  7 18  1  0  0  0  0
  8 21  1  0  0  0  0
  9 21  2  0  0  0  0
 10 22  1  0  0  0  0
 11 12  2  0  0  0  0
 11 23  1  0  0  0  0
 12 24  1  0  0  0  0
 13 20  1  0  0  0  0
 13 22  2  0  0  0  0
 14 24  2  0  0  0  0
 14 25  1  0  0  0  0
 15 26  1  0  0  0  0
 16 26  1  0  0  0  0
 16 27  2  0  0  0  0
 16 28  1  0  0  0  0
 17 19  2  0  0  0  0
 17 34  1  0  0  0  0
 18 20  2  0  0  0  0
 18 35  1  0  0  0  0
 19 49  1  0  0  0  0
 20 36  1  0  0  0  0
 21 85  1  0  0  0  0
 22 86  1  0  0  0  0
 23 25  2  0  0  0  0
 23 85  1  0  0  0  0
 24 87  1  0  0  0  0
 25 88  1  0  0  0  0
 26 66  2  0  0  0  0
 27 67  1  0  0  0  0
 27 71  1  0  0  0  0
 28 72  1  0  0  0  0
 28 79  2  0  0  0  0
 29 50  1  0  0  0  0
 29 68  1  0  0  0  0
 29 80  2  0  0  0  0
 30 51  1  0  0  0  0
 30 73  1  0  0  0  0
 30 81  2  0  0  0  0
 31 63  1  0  0  0  0
 31 69  1  0  0  0  0
 31 82  2  0  0  0  0
 32 64  1  0  0  0  0
 32 74  1  0  0  0  0
 32 83  2  0  0  0  0
 33 70  1  0  0  0  0
 33 75  1  0  0  0  0
 33 84  2  0  0  0  0
 34 37  1  0  0  0  0
 35 51  1  0  0  0  0
 36 69  1  0  0  0  0
 37 39  1  0  0  0  0
 38 40  1  0  0  0  0
 38 43  1  0  0  0  0
 39 49  1  0  0  0  0
 40 52  1  0  0  0  0
 41 44  1  0  0  0  0
 41 53  1  0  0  0  0
 42 47  1  0  0  0  0
 42 54  1  0  0  0  0
 43 70  1  0  0  0  0
 44 68  1  0  0  0  0
 45 52  1  0  0  0  0
 45 70  1  0  0  0  0
 46 53  1  0  0  0  0
 46 68  1  0  0  0  0
 47 76  1  0  0  0  0
 48 50  1  0  0  0  0
 48 76  1  0  0  0  0
 49 73  1  0  0  0  0
 50 54  1  0  0  0  0
 51 69  1  0  0  0  0
 52 67  1  0  0  0  0
 53 75  1  0  0  0  0
 54 77  1  0  0  0  0
 55 64  1  0  0  0  0
 56 65  1  0  0  0  0
 57 65  1  0  0  0  0
 58 65  1  0  0  0  0
 59 78  1  0  0  0  0
 60 61  1  0  0  0  0
 60 62  1  0  0  0  0
 61 77  1  0  0  0  0
 62 86  1  0  0  0  0
 63 65  1  0  0  0  0
 63 74  1  0  0  0  0
 64 78  1  0  0  0  0
 66 67  1  0  0  0  0
M  CHG  3  76   1  77   1  78   1
M  ISO  4  33 100  62 101  75 100  86 101
M  END
> <Batch ID>
0121

> <Smiles>
CNC(C)C(=O)NC(C(=O)N1Cc2cc([101O:1][101CH2:1]CCNC3CCNCC3C(=O)N3CCC([100NH:0][100C:0](=O)N4CCCC(n5nc(-c6ccc(Oc7ccc(F)cc7F)cc6)c(C(N)=O)c5N)C4)C3)ccc2CC1C(=O)NC1CCCc2ccccc21)C(C)(C)C

> <Shape>
0.194

> <Color>
0.072

> <Negative vol penalty>
0.000

$$$$

  -OEChem-04052320253D

 84 92  0     1  0  0  0  0  0999 V2000
  -23.3280  -23.8064   18.6906 C   0  0  0  0  0  0  0  0  0  0  0  0
  -24.4305  -23.0555   19.0857 C   0  0  0  0  0  0  0  0  0  0  0  0
  -21.6433  -29.1253   23.4936 C   0  0  0  0  0  0  0  0  0  0  0  0
  -22.2942  -26.8891   24.1361 C   0  0  0  0  0  0  0  0  0  0  0  0
  -22.0455  -23.4122   19.0694 C   0  0  0  0  0  0  0  0  0  0  0  0
  -24.2510  -21.9104   19.8609 C   0  0  0  0  0  0  0  0  0  0  0  0
  -27.0332  -18.0054   18.2313 C   0  0  0  0  0  0  0  0  0  0  0  0
  -20.3011  -28.7794   23.6496 C   0  0  0  0  0  0  0  0  0  0  0  0
  -20.9520  -26.5432   24.2922 C   0  0  0  0  0  0  0  0  0  0  0  0
  -28.3879  -18.0074   18.5607 C   0  0  0  0  0  0  0  0  0  0  0  0
  -17.6847  -24.9663   24.5119 C   0  0  0  0  0  0  0  0  0  0  0  0
  -17.2637  -23.7466   23.9823 C   0  0  0  0  0  0  0  0  0  0  0  0
  -27.9462  -16.4636   20.3610 C   0  0  0  0  0  0  0  0  0  0  0  0
  -17.9284  -24.4749   21.7766 C   0  0  0  0  0  0  0  0  0  0  0  0
  -22.6399  -28.1801   23.7368 C   0  0  0  0  0  0  0  0  0  0  0  0
  -24.8873  -29.0682   24.5543 C   0  0  0  0  0  0  0  0  0  0  0  0
  -21.8495  -22.2563   19.8415 C   0  0  0  0  0  0  0  0  0  0  0  0
  -26.1216  -17.2397   18.9723 C   0  0  0  0  0  0  0  0  0  0  0  0
  -22.9648  -21.5010   20.2516 C   0  0  0  0  0  0  0  0  0  0  0  0
  -26.5809  -16.4516   20.0373 C   0  0  0  0  0  0  0  0  0  0  0  0
  -19.9554  -27.4884   24.0489 C   0  0  0  0  0  0  0  0  0  0  0  0
  -28.8442  -17.2387   19.6275 C   0  0  0  0  0  0  0  0  0  0  0  0
  -18.2275  -25.9405   23.6740 C   0  0  0  0  0  0  0  0  0  0  0  0
  -17.3856  -23.5009   22.6146 C   0  0  0  0  0  0  0  0  0  0  0  0
  -18.3494  -25.6947   22.3063 C   0  0  0  0  0  0  0  0  0  0  0  0
  -24.0266  -28.5366   23.5753 C   0  0  0  0  0  0  0  0  0  0  0  0
  -26.0870  -29.2301   23.9054 C   0  0  0  0  0  0  0  0  0  0  0  0
  -24.6257  -29.3871   25.9274 C   0  0  0  0  0  0  0  0  0  0  0  0
  -23.5761  -17.8927   20.7605 C   0  0  0  0  0  0  0  0  0  0  0  0
  -23.3025  -14.6620   20.8606 C   0  0  0  0  0  0  0  0  0  0  0  0
  -24.8214  -11.6165   20.6062 C   0  0  0  0  0  0  0  0  0  0  0  0
  -28.0729  -26.3999   18.8417 C   0  0  0  0  0  0  0  0  0  0  0  0
  -20.4479  -21.8962   20.2665 C   0  0  0  0  0  0  0  0  0  0  0  0
  -24.6676  -17.2276   18.5874 C   0  0  0  0  0  0  0  0  0  0  0  0
  -25.6461  -15.5963   20.8516 C   0  0  0  0  0  0  0  0  0  0  0  0
  -20.3145  -20.4624   20.7732 C   0  0  0  0  0  0  0  0  0  0  0  0
  -27.9399  -30.0309   19.5762 C   0  0  0  0  0  0  0  0  0  0  0  0
  -21.4381  -20.1352   21.7515 C   0  0  0  0  0  0  0  0  0  0  0  0
  -26.9306  -30.0993   20.7208 C   0  0  0  0  0  0  0  0  0  0  0  0
  -29.8496  -23.4240   18.9960 C   0  0  0  0  0  0  0  0  0  0  0  0
  -30.9053  -25.1424   20.5175 C   0  0  0  0  0  0  0  0  0  0  0  0
  -27.6866  -28.8314   18.6684 C   0  0  0  0  0  0  0  0  0  0  0  0
  -28.4820  -24.0082   19.3394 C   0  0  0  0  0  0  0  0  0  0  0  0
  -29.5140  -25.7115   20.8110 C   0  0  0  0  0  0  0  0  0  0  0  0
  -26.6338  -27.5973   20.5367 C   0  0  0  0  0  0  0  0  0  0  0  0
  -22.8089  -20.2390   21.0720 C   0  0  1  0  0  0  0  0  0  0  0  0
  -23.7499  -16.8106   19.7325 C   0  0  1  0  0  0  0  0  0  0  0  0
  -26.8897  -28.7704   21.4948 C   0  0  2  0  0  0  0  0  0  0  0  0
  -30.8276  -23.6635   20.1444 C   0  0  0  0  0  0  0  0  0  0  0  0
  -24.3466   -9.1581   20.7748 C   0  0  0  0  0  0  0  0  0  0  0  0
  -33.5200  -21.3135   18.9679 C   0  0  0  0  0  0  0  0  0  0  0  0
  -23.2252  -14.8880   23.9024 C   0  0  0  0  0  0  0  0  0  0  0  0
  -23.7078  -12.4345   24.0274 C   0  0  0  0  0  0  0  0  0  0  0  0
  -21.6126  -13.2378   22.9376 C   0  0  0  0  0  0  0  0  0  0  0  0
  -25.6216  -11.1512   17.7951 C   0  0  0  0  0  0  0  0  0  0  0  0
  -32.7266  -21.4140   21.3656 C   0  0  0  0  0  0  0  0  0  0  0  0
  -32.9244  -19.9382   21.7004 C   0  0  0  0  0  0  0  0  0  0  0  0
  -31.8214  -17.6980   21.6395 C   0  0  0  0  0  0  0  0  0  0  0  0
  -30.5000  -17.0266   21.3214 C   0  0  0  0  0  0  0  0  0  1  0  0
  -23.8269  -13.5721   21.7641 C   0  0  1  0  0  0  0  0  0  0  0  0
  -24.4372  -10.3595   19.8467 C   0  0  2  0  0  0  0  0  0  0  0  0
  -32.3911  -21.7307   19.9026 C   0  0  1  0  0  0  0  0  0  0  0  0
  -23.1107  -13.5506   23.1439 C   0  0  0  0  0  0  0  0  0  0  0  0
  -24.6283  -28.3719   22.3942 N   0  0  0  0  0  0  0  0  0  0  0  0
  -25.8799  -28.8026   22.6269 N   0  0  0  0  0  0  0  0  0  0  0  0
  -24.2327  -15.6231   20.4401 N   0  0  0  0  0  0  0  0  0  0  0  0
  -27.6045  -27.5859   19.4316 N   0  0  0  0  0  0  0  0  0  0  0  0
  -28.5885  -25.4219   19.7056 N   0  0  0  0  0  0  0  0  0  0  0  0
  -27.2882  -29.6951   24.3094 N   0  0  0  0  0  0  0  0  0  0  0  0
  -23.3387  -29.1585   26.4330 N   0  0  0  0  0  0  0  0  0  0  0  0
  -23.0582  -19.0702   20.2558 N   0  0  0  0  0  0  0  0  0  0  0  0
  -23.7118  -12.3276   21.0116 N   0  0  0  0  0  0  0  0  0  0  0  0
  -32.1774  -23.1935   19.7383 N   0  3  0  0  0  0  0  0  0  0  0  0
  -25.4467  -10.0630   18.7913 N   0  3  0  0  0  0  0  0  0  0  0  0
  -31.6999  -19.1623   21.3962 N   0  3  0  0  0  0  0  0  0  0  0  0
  -25.5027  -29.8761   26.6793 O   0  0  0  0  0  0  0  0  0  0  0  0
  -23.8874  -17.6749   21.9255 O   0  0  0  0  0  0  0  0  0  0  0  0
  -22.1130  -14.6566   20.5340 O   0  0  0  0  0  0  0  0  0  0  0  0
  -25.9891  -11.9338   20.8217 O   0  0  0  0  0  0  0  0  0  0  0  0
  -28.0340  -26.2278   17.6170 O   0  0  0  0  0  0  0  0  0  0  0  0
  -18.6457  -27.1506   24.2015 O   0  0  0  0  0  0  0  0  0  0  0  0
  -30.1753  -17.2393   19.9540 O   0  0  0  0  0  0  0  0  0  1  0  0
  -16.9826  -22.3289   22.1064 F   0  0  0  0  0  0  0  0  0  0  0  0
  -18.8711  -26.6262   21.4965 F   0  0  0  0  0  0  0  0  0  0  0  0
  1  2  1  0  0  0  0
  1  5  2  0  0  0  0
  2  6  2  0  0  0  0
  3  8  2  0  0  0  0
  3 15  1  0  0  0  0
  4  9  1  0  0  0  0
  4 15  2  0  0  0  0
  5 17  1  0  0  0  0
  6 19  1  0  0  0  0
  7 10  2  0  0  0  0
  7 18  1  0  0  0  0
  8 21  1  0  0  0  0
  9 21  2  0  0  0  0
 10 22  1  0  0  0  0
 11 12  2  0  0  0  0
 11 23  1  0  0  0  0
 12 24  1  0  0  0  0
 13 20  1  0  0  0  0
 13 22  2  0  0  0  0
 14 24  2  0  0  0  0
 14 25  1  0  0  0  0
 15 26  1  0  0  0  0
 16 26  1  0  0  0  0
 16 27  2  0  0  0  0
 16 28  1  0  0  0  0
 17 19  2  0  0  0  0
 17 33  1  0  0  0  0
 18 20  2  0  0  0  0
 18 34  1  0  0  0  0
 19 46  1  0  0  0  0
 20 35  1  0  0  0  0
 21 81  1  0  0  0  0
 22 82  1  0  0  0  0
 23 25  2  0  0  0  0
 23 81  1  0  0  0  0
 24 83  1  0  0  0  0
 25 84  1  0  0  0  0
 26 64  2  0  0  0  0
 27 65  1  0  0  0  0
 27 69  1  0  0  0  0
 28 70  1  0  0  0  0
 28 76  2  0  0  0  0
 29 47  1  0  0  0  0
 29 71  1  0  0  0  0
 29 77  2  0  0  0  0
 30 60  1  0  0  0  0
 30 66  1  0  0  0  0
 30 78  2  0  0  0  0
 31 61  1  0  0  0  0
 31 72  1  0  0  0  0
 31 79  2  0  0  0  0
 32 67  1  0  0  0  0
 32 68  1  0  0  0  0
 32 80  2  0  0  0  0
 33 36  1  0  0  0  0
 34 47  1  0  0  0  0
 35 66  1  0  0  0  0
 36 38  1  0  0  0  0
 37 39  1  0  0  0  0
 37 42  1  0  0  0  0
 38 46  1  0  0  0  0
 39 48  1  0  0  0  0
 40 43  1  0  0  0  0
 40 49  1  0  0  0  0
 41 44  1  0  0  0  0
 41 49  1  0  0  0  0
 42 67  1  0  0  0  0
 43 68  1  0  0  0  0
 44 68  1  0  0  0  0
 45 48  1  0  0  0  0
 45 67  1  0  0  0  0
 46 71  1  0  0  0  0
 47 66  1  0  0  0  0
 48 65  1  0  0  0  0
 49 73  1  0  0  0  0
 50 61  1  0  0  0  0
 51 62  1  0  0  0  0
 52 63  1  0  0  0  0
 53 63  1  0  0  0  0
 54 63  1  0  0  0  0
 55 74  1  0  0  0  0
 56 57  1  0  0  0  0
 56 62  1  0  0  0  0
 57 75  1  0  0  0  0
 58 59  1  0  0  0  0
 58 75  1  0  0  0  0
 59 82  1  0  0  0  0
 60 63  1  0  0  0  0
 60 72  1  0  0  0  0
 61 74  1  0  0  0  0
 62 73  1  0  0  0  0
 64 65  1  0  0  0  0
M  CHG  3  73   1  74   1  75   1
M  ISO  4  32 100  59 101  68 100  82 101
M  END
> <Batch ID>
0121

> <Smiles>
CNC(C)C(=O)NC(C(=O)N1Cc2cc([101O:1][101CH2:1]CNCCC(C)NC3CC[100N:0]([100C:0](=O)N4CCCC(n5nc(-c6ccc(Oc7ccc(F)cc7F)cc6)c(C(N)=O)c5N)C4)CC3)ccc2CC1C(=O)NC1CCCc2ccccc21)C(C)(C)C

> <Shape>
0.202

> <Color>
0.052

> <Negative vol penalty>
0.000

$$$$

  -OEChem-04052320253D

 78 86  0     1  0  0  0  0  0999 V2000
  -20.8964  -26.9940   27.0817 C   0  0  0  0  0  0  0  0  0  0  0  0
  -21.7059  -25.9445   26.6590 C   0  0  0  0  0  0  0  0  0  0  0  0
  -22.9931   -9.8823   19.9944 C   0  0  0  0  0  0  0  0  0  0  0  0
  -23.7128   -9.9612   22.2993 C   0  0  0  0  0  0  0  0  0  0  0  0
  -20.6687  -28.0806   26.2382 C   0  0  0  0  0  0  0  0  0  0  0  0
  -22.2874  -25.9805   25.3921 C   0  0  0  0  0  0  0  0  0  0  0  0
  -27.7802  -23.7903   23.7989 C   0  0  0  0  0  0  0  0  0  0  0  0
  -22.2240   -8.7526   20.2732 C   0  0  0  0  0  0  0  0  0  0  0  0
  -22.9436   -8.8315   22.5782 C   0  0  0  0  0  0  0  0  0  0  0  0
  -28.1747  -22.5998   23.1900 C   0  0  0  0  0  0  0  0  0  0  0  0
  -23.1834   -5.4864   22.1491 C   0  0  0  0  0  0  0  0  0  0  0  0
  -23.7674   -4.4778   22.9154 C   0  0  0  0  0  0  0  0  0  0  0  0
  -28.1981  -23.7099   21.0484 C   0  0  0  0  0  0  0  0  0  0  0  0
  -22.0399   -4.7448   24.5833 C   0  0  0  0  0  0  0  0  0  0  0  0
  -23.7375  -10.4866   21.0075 C   0  0  0  0  0  0  0  0  0  0  0  0
  -24.1276  -12.9991   20.8006 C   0  0  0  0  0  0  0  0  0  0  0  0
  -21.2554  -28.1344   24.9640 C   0  0  0  0  0  0  0  0  0  0  0  0
  -27.5808  -24.9488   23.0343 C   0  0  0  0  0  0  0  0  0  0  0  0
  -22.0662  -27.0682   24.5303 C   0  0  0  0  0  0  0  0  0  0  0  0
  -27.8035  -24.9145   21.6504 C   0  0  0  0  0  0  0  0  0  0  0  0
  -22.1992   -8.2271   21.5650 C   0  0  0  0  0  0  0  0  0  0  0  0
  -28.3809  -22.5587   21.8142 C   0  0  0  0  0  0  0  0  0  0  0  0
  -22.0277   -6.1243   22.5999 C   0  0  0  0  0  0  0  0  0  0  0  0
  -23.1956   -4.1070   24.1325 C   0  0  0  0  0  0  0  0  0  0  0  0
  -21.4559   -5.7535   23.8169 C   0  0  0  0  0  0  0  0  0  0  0  0
  -24.5327  -11.6533   20.7200 C   0  0  0  0  0  0  0  0  0  0  0  0
  -25.2394  -13.7152   20.4298 C   0  0  0  0  0  0  0  0  0  0  0  0
  -22.8596  -13.5525   21.1771 C   0  0  0  0  0  0  0  0  0  0  0  0
  -25.0960  -26.8362   22.4281 C   0  0  0  0  0  0  0  0  0  0  0  0
  -27.3303  -28.6383   20.9171 C   0  0  0  0  0  0  0  0  0  0  0  0
  -30.3630  -28.7871   19.3591 C   0  0  0  0  0  0  0  0  0  0  0  0
  -30.7368  -14.6436   20.6798 C   0  0  0  0  0  0  0  0  0  0  0  0
  -20.9420  -29.3075   24.0694 C   0  0  0  0  0  0  0  0  0  0  0  0
  -27.1811  -26.2319   23.7099 C   0  0  0  0  0  0  0  0  0  0  0  0
  -27.6228  -26.1357   20.7875 C   0  0  0  0  0  0  0  0  0  0  0  0
  -21.8979  -29.4444   22.8872 C   0  0  0  0  0  0  0  0  0  0  0  0
  -29.5976  -12.1924   18.3624 C   0  0  0  0  0  0  0  0  0  0  0  0
  -22.1041  -28.0941   22.2083 C   0  0  0  0  0  0  0  0  0  0  0  0
  -28.1477  -11.9404   18.7797 C   0  0  0  0  0  0  0  0  0  0  0  0
  -27.4870  -19.7919   19.9651 C   0  0  0  0  0  0  0  0  0  0  0  0
  -30.4975  -12.4415   19.5708 C   0  0  0  0  0  0  0  0  0  0  0  0
  -28.5855  -13.2571   20.8947 C   0  0  0  0  0  0  0  0  0  0  0  0
  -28.6918  -18.9852   19.5246 C   0  0  0  0  0  0  0  0  0  0  0  0
  -28.6281  -19.1063   21.9702 C   0  0  0  0  0  0  0  0  0  0  0  0
  -22.7347  -27.0823   23.1727 C   0  0  1  0  0  0  0  0  0  0  0  0
  -26.5091  -27.2216   22.7632 C   0  0  1  0  0  0  0  0  0  0  0  0
  -27.6291  -13.0561   19.7069 C   0  0  2  0  0  0  0  0  0  0  0  0
  -27.8883  -20.2795   21.3466 C   0  0  1  0  0  0  0  0  0  1  0  0
  -31.9031  -30.3905   18.1952 C   0  0  0  0  0  0  0  0  0  0  0  0
  -25.5435  -28.5564   18.4451 C   0  0  0  0  0  0  0  0  0  0  0  0
  -27.5041  -29.3203   17.0883 C   0  0  0  0  0  0  0  0  0  0  0  0
  -26.5973  -30.7789   18.8975 C   0  0  0  0  0  0  0  0  0  0  0  0
  -32.5102  -28.3494   21.3483 C   0  0  0  0  0  0  0  0  0  0  0  0
  -30.8204  -16.8372   21.8375 C   0  0  0  0  0  0  0  0  0  0  0  0
  -30.5760  -17.9487   20.8340 C   0  0  0  0  0  0  0  0  0  0  0  0
  -27.8888  -28.6952   19.5157 C   0  0  1  0  0  0  0  0  0  0  0  0
  -31.5322  -29.7419   19.5198 C   0  0  2  0  0  0  0  0  0  0  0  0
  -26.8851  -29.3141   18.5024 C   0  0  0  0  0  0  0  0  0  0  0  0
  -25.8027  -11.5197   20.3285 N   0  0  0  0  0  0  0  0  0  0  0  0
  -26.2052  -12.7907   20.1598 N   0  0  0  0  0  0  0  0  0  0  0  0
  -27.2251  -27.3647   21.4939 N   0  0  0  0  0  0  0  0  0  0  0  0
  -29.9505  -13.5118   20.4081 N   0  0  0  0  0  0  0  0  0  0  0  0
  -25.4754  -15.0391   20.3115 N   0  0  0  0  0  0  0  0  0  0  0  0
  -21.8255  -12.6745   21.5293 N   0  0  0  0  0  0  0  0  0  0  0  0
  -24.1538  -27.3311   23.3094 N   0  0  0  0  0  0  0  0  0  0  0  0
  -29.1580  -29.4083   19.6108 N   0  0  0  0  0  0  0  0  0  0  0  0
  -30.1401  -15.6135   21.4760 N   0  0  0  0  0  0  0  0  0  0  0  0
  -29.1188  -18.2795   20.7905 N   0  3  2  0  0  0  0  0  0  0  0  0
  -32.7261  -29.0161   20.0384 N   0  3  0  0  0  0  0  0  0  0  0  0
  -22.6450  -14.7884   21.1847 O   0  0  0  0  0  0  0  0  0  0  0  0
  -24.8766  -26.1425   21.4420 O   0  0  0  0  0  0  0  0  0  0  0  0
  -27.0060  -29.6859   21.4819 O   0  0  0  0  0  0  0  0  0  0  0  0
  -30.5042  -27.6091   19.0384 O   0  0  0  0  0  0  0  0  0  0  0  0
  -31.8835  -14.7820   20.2407 O   0  0  0  0  0  0  0  0  0  0  0  0
  -21.4486   -7.1249   21.8375 O   0  0  0  0  0  0  0  0  0  0  0  0
  -28.7653  -21.3978   21.2172 O   0  0  0  0  0  0  0  0  0  1  0  0
  -23.7557   -3.1374   24.8676 F   0  0  0  0  0  0  0  0  0  0  0  0
  -20.3450   -6.3618   24.2546 F   0  0  0  0  0  0  0  0  0  0  0  0
  1  2  1  0  0  0  0
  1  5  2  0  0  0  0
  2  6  2  0  0  0  0
  3  8  2  0  0  0  0
  3 15  1  0  0  0  0
  4  9  1  0  0  0  0
  4 15  2  0  0  0  0
  5 17  1  0  0  0  0
  6 19  1  0  0  0  0
  7 10  2  0  0  0  0
  7 18  1  0  0  0  0
  8 21  1  0  0  0  0
  9 21  2  0  0  0  0
 10 22  1  0  0  0  0
 11 12  2  0  0  0  0
 11 23  1  0  0  0  0
 12 24  1  0  0  0  0
 13 20  1  0  0  0  0
 13 22  2  0  0  0  0
 14 24  2  0  0  0  0
 14 25  1  0  0  0  0
 15 26  1  0  0  0  0
 16 26  1  0  0  0  0
 16 27  2  0  0  0  0
 16 28  1  0  0  0  0
 17 19  2  0  0  0  0
 17 33  1  0  0  0  0
 18 20  2  0  0  0  0
 18 34  1  0  0  0  0
 19 45  1  0  0  0  0
 20 35  1  0  0  0  0
 21 75  1  0  0  0  0
 22 76  1  0  0  0  0
 23 25  2  0  0  0  0
 23 75  1  0  0  0  0
 24 77  1  0  0  0  0
 25 78  1  0  0  0  0
 26 59  2  0  0  0  0
 27 60  1  0  0  0  0
 27 63  1  0  0  0  0
 28 64  1  0  0  0  0
 28 70  2  0  0  0  0
 29 46  1  0  0  0  0
 29 65  1  0  0  0  0
 29 71  2  0  0  0  0
 30 56  1  0  0  0  0
 30 61  1  0  0  0  0
 30 72  2  0  0  0  0
 31 57  1  0  0  0  0
 31 66  1  0  0  0  0
 31 73  2  0  0  0  0
 32 62  1  0  0  0  0
 32 67  1  0  0  0  0
 32 74  2  0  0  0  0
 33 36  1  0  0  0  0
 34 46  1  0  0  0  0
 35 61  1  0  0  0  0
 36 38  1  0  0  0  0
 37 39  1  0  0  0  0
 37 41  1  0  0  0  0
 38 45  1  0  0  0  0
 39 47  1  0  0  0  0
 40 43  1  0  0  0  0
 40 48  1  0  0  0  0
 41 62  1  0  0  0  0
 42 47  1  0  0  0  0
 42 62  1  0  0  0  0
 43 68  1  0  0  0  0
 44 48  1  0  0  0  0
 44 68  1  0  0  0  0
 45 65  1  0  0  0  0
 46 61  1  0  0  0  0
 47 60  1  0  0  0  0
 48 76  1  0  0  0  0
 49 57  1  0  0  0  0
 50 58  1  0  0  0  0
 51 58  1  0  0  0  0
 52 58  1  0  0  0  0
 53 69  1  0  0  0  0
 54 55  1  0  0  0  0
 54 67  1  0  0  0  0
 55 68  1  0  0  0  0
 56 58  1  0  0  0  0
 56 66  1  0  0  0  0
 57 69  1  0  0  0  0
 59 60  1  0  0  0  0
M  CHG  2  68   1  69   1
M  ISO  4  32 100  48 101  67 100  76 101
M  END
> <Batch ID>
0121

> <Smiles>
CNC(C)C(=O)NC(C(=O)N1Cc2cc([101O:1][101CH:1]3CCN(CC[100NH:0][100C:0](=O)N4CCCC(n5nc(-c6ccc(Oc7ccc(F)cc7F)cc6)c(C(N)=O)c5N)C4)C3)ccc2CC1C(=O)NC1CCCc2ccccc21)C(C)(C)C

> <Shape>
0.295

> <Color>
0.199

> <Negative vol penalty>
0.000

$$$$

  -OEChem-04052320253D

 85 93  0     1  0  0  0  0  0999 V2000
  -21.7020  -12.0022   20.0831 C   0  0  0  0  0  0  0  0  0  0  0  0
  -21.6361  -13.3366   20.4711 C   0  0  0  0  0  0  0  0  0  0  0  0
  -24.9785  -28.7967   19.3502 C   0  0  0  0  0  0  0  0  0  0  0  0
  -25.8680  -27.4746   21.1662 C   0  0  0  0  0  0  0  0  0  0  0  0
  -22.9296  -11.3414   20.0690 C   0  0  0  0  0  0  0  0  0  0  0  0
  -22.7978  -14.0106   20.8462 C   0  0  0  0  0  0  0  0  0  0  0  0
  -23.1075  -18.6336   18.8025 C   0  0  0  0  0  0  0  0  0  0  0  0
  -26.1999  -29.4606   19.2353 C   0  0  0  0  0  0  0  0  0  0  0  0
  -27.0894  -28.1385   21.0513 C   0  0  0  0  0  0  0  0  0  0  0  0
  -22.3423  -19.6413   19.3882 C   0  0  0  0  0  0  0  0  0  0  0  0
  -30.5556  -29.2341   20.9982 C   0  0  0  0  0  0  0  0  0  0  0  0
  -31.7185  -28.4646   21.0308 C   0  0  0  0  0  0  0  0  0  0  0  0
  -24.2950  -20.4332   20.5625 C   0  0  0  0  0  0  0  0  0  0  0  0
  -19.8601  -23.2030   24.9077 C   0  0  0  0  0  0  0  0  0  0  0  0
  -30.9721  -27.2539   19.0778 C   0  0  0  0  0  0  0  0  0  0  0  0
  -21.0056  -22.7048   26.7811 C   0  0  0  0  0  0  0  0  0  0  0  0
  -24.8126  -27.8037   20.3157 C   0  0  0  0  0  0  0  0  0  0  0  0
  -23.1571  -25.9407   19.7714 C   0  0  0  0  0  0  0  0  0  0  0  0
  -24.1082  -12.0104   20.4349 C   0  0  0  0  0  0  0  0  0  0  0  0
  -24.4721  -18.5113   19.1014 C   0  0  0  0  0  0  0  0  0  0  0  0
  -24.0421  -13.3577   20.8383 C   0  0  0  0  0  0  0  0  0  0  0  0
  -25.0758  -19.4247   19.9774 C   0  0  0  0  0  0  0  0  0  0  0  0
  -19.9826  -23.4858   26.2905 C   0  0  0  0  0  0  0  0  0  0  0  0
  -27.2553  -29.1315   20.0858 C   0  0  0  0  0  0  0  0  0  0  0  0
  -22.9354  -20.5395   20.2705 C   0  0  0  0  0  0  0  0  0  0  0  0
  -29.6009  -29.0135   20.0054 C   0  0  0  0  0  0  0  0  0  0  0  0
  -31.9267  -27.4745   20.0706 C   0  0  0  0  0  0  0  0  0  0  0  0
  -29.8091  -28.0234   19.0452 C   0  0  0  0  0  0  0  0  0  0  0  0
  -23.5510  -27.1179   20.4353 C   0  0  0  0  0  0  0  0  0  0  0  0
  -21.8822  -25.7019   20.2231 C   0  0  0  0  0  0  0  0  0  0  0  0
  -20.8120  -22.2575   24.5954 C   0  0  0  0  0  0  0  0  0  0  0  0
  -23.8792  -25.1349   18.8306 C   0  0  0  0  0  0  0  0  0  0  0  0
  -26.2823  -16.2695   20.4434 C   0  0  0  0  0  0  0  0  0  0  0  0
  -28.6977  -18.2589   19.5889 C   0  0  0  0  0  0  0  0  0  0  0  0
  -29.7068  -21.4264   18.8174 C   0  0  0  0  0  0  0  0  0  0  0  0
  -18.9748  -27.2383   25.2269 C   0  0  0  0  0  0  0  0  0  0  0  0
  -25.4052  -11.2407   20.4493 C   0  0  0  0  0  0  0  0  0  0  0  0
  -25.2894  -17.4353   18.4407 C   0  0  0  0  0  0  0  0  0  0  0  0
  -26.5415  -19.3489   20.3156 C   0  0  0  0  0  0  0  0  0  0  0  0
  -26.6425  -12.1332   20.5019 C   0  0  0  0  0  0  0  0  0  0  0  0
  -18.0099  -27.9721   21.8792 C   0  0  0  0  0  0  0  0  0  0  0  0
  -26.4726  -13.2197   21.5590 C   0  0  0  0  0  0  0  0  0  0  0  0
  -19.2851  -27.7302   21.0696 C   0  0  0  0  0  0  0  0  0  0  0  0
  -18.3165  -28.5754   23.2482 C   0  0  0  0  0  0  0  0  0  0  0  0
  -20.5702  -27.5781   23.2431 C   0  0  0  0  0  0  0  0  0  0  0  0
  -25.2836  -14.1300   21.2284 C   0  0  1  0  0  0  0  0  0  0  0  0
  -26.5578  -17.0885   19.2142 C   0  0  1  0  0  0  0  0  0  0  0  0
  -20.3162  -26.9187   21.8767 C   0  0  2  0  0  0  0  0  0  0  0  0
  -31.7487  -22.7479   18.1997 C   0  0  0  0  0  0  0  0  0  0  0  0
  -23.7982  -21.4265   25.0139 C   0  0  0  0  0  0  0  0  0  0  0  0
  -22.1396  -19.5872   25.5359 C   0  0  0  0  0  0  0  0  0  0  0  0
  -29.6305  -18.1704   22.4928 C   0  0  0  0  0  0  0  0  0  0  0  0
  -31.0350  -20.1906   22.0303 C   0  0  0  0  0  0  0  0  0  0  0  0
  -31.4704  -18.0633   20.8024 C   0  0  0  0  0  0  0  0  0  0  0  0
  -28.5485  -22.2175   16.2113 C   0  0  0  0  0  0  0  0  0  0  0  0
  -19.7727  -25.8611   27.1310 C   0  0  0  0  0  0  0  0  0  0  0  0
  -20.8085  -21.2466   21.0655 C   0  0  0  0  0  0  0  0  0  1  0  0
  -20.3351  -22.0262   22.2770 C   0  0  0  0  0  0  0  0  0  0  0  0
  -19.1660  -24.4402   27.0643 C   0  0  2  0  0  0  0  0  0  0  0  0
  -29.4102  -19.4179   20.2431 C   0  0  1  0  0  0  0  0  0  0  0  0
  -30.5541  -21.9644   17.6785 C   0  0  2  0  0  0  0  0  0  0  0  0
  -22.5889  -21.0143   25.8556 C   0  0  0  0  0  0  0  0  0  0  0  0
  -30.3585  -18.9611   21.3874 C   0  0  0  0  0  0  0  0  0  0  0  0
  -22.6030  -27.5941   21.2468 N   0  0  0  0  0  0  0  0  0  0  0  0
  -21.5022  -21.9620   25.7419 N   0  0  0  0  0  0  0  0  0  0  0  0
  -21.6008  -26.7116   21.0958 N   0  0  0  0  0  0  0  0  0  0  0  0
  -27.2971  -18.2755   19.6489 N   0  0  0  0  0  0  0  0  0  0  0  0
  -19.2995  -27.7574   23.9627 N   0  0  0  0  0  0  0  0  0  0  0  0
  -20.9856  -24.7290   19.9549 N   0  0  0  0  0  0  0  0  0  0  0  0
  -25.1783  -25.5237   18.4764 N   0  0  0  0  0  0  0  0  0  0  0  0
  -25.6417  -15.0717   20.1894 N   0  0  0  0  0  0  0  0  0  0  0  0
  -30.0774  -20.1457   19.1690 N   0  0  0  0  0  0  0  0  0  0  0  0
  -19.9605  -26.4686   25.8324 N   0  0  0  0  0  0  0  0  0  0  0  0
  -18.9072  -23.9984   28.4872 N   0  3  0  0  0  0  0  0  0  0  0  0
  -29.7437  -22.8650   16.8107 N   0  3  0  0  0  0  0  0  0  0  0  0
  -23.3808  -24.1099   18.3067 O   0  0  0  0  0  0  0  0  0  0  0  0
  -26.6267  -16.6922   21.5409 O   0  0  0  0  0  0  0  0  0  0  0  0
  -29.3594  -17.3751   19.0387 O   0  0  0  0  0  0  0  0  0  0  0  0
  -28.8086  -22.0786   19.3451 O   0  0  0  0  0  0  0  0  0  0  0  0
  -17.8850  -27.4410   25.7730 O   0  0  0  0  0  0  0  0  0  0  0  0
  -28.4473  -29.7789   19.9739 O   0  0  0  0  0  0  0  0  0  0  0  0
  -22.1907  -21.5235   20.8441 O   0  0  0  0  0  0  0  0  0  1  0  0
  -21.1131  -21.6477   23.4061 O   0  0  0  0  0  0  0  0  0  0  0  0
  -33.0442  -26.7366   20.1012 F   0  0  0  0  0  0  0  0  0  0  0  0
  -28.8961  -27.8077   18.0883 F   0  0  0  0  0  0  0  0  0  0  0  0
  1  2  1  0  0  0  0
  1  5  2  0  0  0  0
  2  6  2  0  0  0  0
  3  8  2  0  0  0  0
  3 17  1  0  0  0  0
  4  9  1  0  0  0  0
  4 17  2  0  0  0  0
  5 19  1  0  0  0  0
  6 21  1  0  0  0  0
  7 10  2  0  0  0  0
  7 20  1  0  0  0  0
  8 24  1  0  0  0  0
  9 24  2  0  0  0  0
 10 25  1  0  0  0  0
 11 12  2  0  0  0  0
 11 26  1  0  0  0  0
 12 27  1  0  0  0  0
 13 22  1  0  0  0  0
 13 25  2  0  0  0  0
 14 23  1  0  0  0  0
 14 31  2  0  0  0  0
 15 27  2  0  0  0  0
 15 28  1  0  0  0  0
 16 23  2  0  0  0  0
 16 65  1  0  0  0  0
 17 29  1  0  0  0  0
 18 29  1  0  0  0  0
 18 30  2  0  0  0  0
 18 32  1  0  0  0  0
 19 21  2  0  0  0  0
 19 37  1  0  0  0  0
 20 22  2  0  0  0  0
 20 38  1  0  0  0  0
 21 46  1  0  0  0  0
 22 39  1  0  0  0  0
 23 59  1  0  0  0  0
 24 81  1  0  0  0  0
 25 82  1  0  0  0  0
 26 28  2  0  0  0  0
 26 81  1  0  0  0  0
 27 84  1  0  0  0  0
 28 85  1  0  0  0  0
 29 64  2  0  0  0  0
 30 66  1  0  0  0  0
 30 69  1  0  0  0  0
 31 65  1  0  0  0  0
 31 83  1  0  0  0  0
 32 70  1  0  0  0  0
 32 76  2  0  0  0  0
 33 47  1  0  0  0  0
 33 71  1  0  0  0  0
 33 77  2  0  0  0  0
 34 60  1  0  0  0  0
 34 67  1  0  0  0  0
 34 78  2  0  0  0  0
 35 61  1  0  0  0  0
 35 72  1  0  0  0  0
 35 79  2  0  0  0  0
 36 68  1  0  0  0  0
 36 73  1  0  0  0  0
 36 80  2  0  0  0  0
 37 40  1  0  0  0  0
 38 47  1  0  0  0  0
 39 67  1  0  0  0  0
 40 42  1  0  0  0  0
 41 43  1  0  0  0  0
 41 44  1  0  0  0  0
 42 46  1  0  0  0  0
 43 48  1  0  0  0  0
 44 68  1  0  0  0  0
 45 48  1  0  0  0  0
 45 68  1  0  0  0  0
 46 71  1  0  0  0  0
 47 67  1  0  0  0  0
 48 66  1  0  0  0  0
 49 61  1  0  0  0  0
 50 62  1  0  0  0  0
 51 62  1  0  0  0  0
 52 63  1  0  0  0  0
 53 63  1  0  0  0  0
 54 63  1  0  0  0  0
 55 75  1  0  0  0  0
 56 59  1  0  0  0  0
 56 73  1  0  0  0  0
 57 58  1  0  0  0  0
 57 82  1  0  0  0  0
 58 83  1  0  0  0  0
 59 74  1  0  0  0  0
 60 63  1  0  0  0  0
 60 72  1  0  0  0  0
 61 75  1  0  0  0  0
 62 65  1  0  0  0  0
 64 66  1  0  0  0  0
M  CHG  2  74   1  75   1
M  ISO  4  36 100  57 101  73 100  82 101
M  END
> <Batch ID>
0121

> <Smiles>
CNC(C)C(=O)NC(C(=O)N1Cc2cc([101O:1][101CH2:1]COc3cc(C(N)C[100NH:0][100C:0](=O)N4CCCC(n5nc(-c6ccc(Oc7ccc(F)cc7F)cc6)c(C(N)=O)c5N)C4)cn3C(C)C)ccc2CC1C(=O)NC1CCCc2ccccc21)C(C)(C)C

> <Shape>
0.202

> <Color>
0.080

> <Negative vol penalty>
0.000

$$$$

  -OEChem-04052320253D

 87 96  0     1  0  0  0  0  0999 V2000
  -38.2837  -22.4310   14.3294 C   0  0  0  0  0  0  0  0  0  0  0  0
  -36.9689  -22.0330   14.5490 C   0  0  0  0  0  0  0  0  0  0  0  0
  -23.0753   -9.8630   19.9461 C   0  0  0  0  0  0  0  0  0  0  0  0
  -23.8319   -9.8806   22.2405 C   0  0  0  0  0  0  0  0  0  0  0  0
  -39.0575  -22.8943   15.3927 C   0  0  0  0  0  0  0  0  0  0  0  0
  -36.4273  -22.0971   15.8323 C   0  0  0  0  0  0  0  0  0  0  0  0
  -30.2315  -23.2906   19.2240 C   0  0  0  0  0  0  0  0  0  0  0  0
  -22.3322   -8.7102   20.2000 C   0  0  0  0  0  0  0  0  0  0  0  0
  -23.0887   -8.7278   22.4945 C   0  0  0  0  0  0  0  0  0  0  0  0
  -29.4001  -22.7137   20.1831 C   0  0  0  0  0  0  0  0  0  0  0  0
  -19.3826   -7.9172   21.6505 C   0  0  0  0  0  0  0  0  0  0  0  0
  -18.0765   -7.8676   21.1636 C   0  0  0  0  0  0  0  0  0  0  0  0
  -30.8054  -23.6055   21.9291 C   0  0  0  0  0  0  0  0  0  0  0  0
  -31.4765  -19.3891   22.7329 C   0  0  0  0  0  0  0  0  0  0  0  0
  -29.7409  -17.7244   22.7021 C   0  0  0  0  0  0  0  0  0  0  0  0
  -18.6399   -5.9193   19.8506 C   0  0  0  0  0  0  0  0  0  0  0  0
  -23.8253  -10.4481   20.9664 C   0  0  0  0  0  0  0  0  0  0  0  0
  -24.1649  -12.9731   20.8359 C   0  0  0  0  0  0  0  0  0  0  0  0
  -38.5220  -22.9732   16.6880 C   0  0  0  0  0  0  0  0  0  0  0  0
  -31.3641  -24.0213   19.6108 C   0  0  0  0  0  0  0  0  0  0  0  0
  -37.1950  -22.5606   16.9142 C   0  0  0  0  0  0  0  0  0  0  0  0
  -31.6482  -24.1928   20.9731 C   0  0  0  0  0  0  0  0  0  0  0  0
  -30.2136  -18.9611   23.1269 C   0  0  0  0  0  0  0  0  0  0  0  0
  -22.3388   -8.1427   21.4742 C   0  0  0  0  0  0  0  0  0  0  0  0
  -29.6886  -22.8687   21.5358 C   0  0  0  0  0  0  0  0  0  0  0  0
  -20.3175   -6.9679   21.2374 C   0  0  0  0  0  0  0  0  0  0  0  0
  -17.7051   -6.8687   20.2636 C   0  0  0  0  0  0  0  0  0  0  0  0
  -19.9461   -5.9689   20.3375 C   0  0  0  0  0  0  0  0  0  0  0  0
  -24.5936  -11.6386   20.7046 C   0  0  0  0  0  0  0  0  0  0  0  0
  -32.2213  -18.5500   21.9200 C   0  0  0  0  0  0  0  0  0  0  0  0
  -30.5634  -16.9598   21.8904 C   0  0  0  0  0  0  0  0  0  0  0  0
  -25.2569  -13.7220   20.4710 C   0  0  0  0  0  0  0  0  0  0  0  0
  -22.8933  -13.4895   21.2508 C   0  0  0  0  0  0  0  0  0  0  0  0
  -34.4952  -23.7118   19.1589 C   0  0  0  0  0  0  0  0  0  0  0  0
  -34.5988  -26.6019   20.6284 C   0  0  0  0  0  0  0  0  0  0  0  0
  -33.1081  -28.8373   22.7326 C   0  0  0  0  0  0  0  0  0  0  0  0
  -30.7218  -14.7735   20.6490 C   0  0  0  0  0  0  0  0  0  0  0  0
  -39.4119  -23.4360   17.8143 C   0  0  0  0  0  0  0  0  0  0  0  0
  -32.2360  -24.6598   18.5646 C   0  0  0  0  0  0  0  0  0  0  0  0
  -32.8406  -24.9851   21.4409 C   0  0  0  0  0  0  0  0  0  0  0  0
  -38.6451  -23.8262   19.0753 C   0  0  0  0  0  0  0  0  0  0  0  0
  -34.8788  -18.1542   19.5493 C   0  0  0  0  0  0  0  0  0  0  0  0
  -29.6131  -12.3484   18.2896 C   0  0  0  0  0  0  0  0  0  0  0  0
  -37.5983  -22.7691   19.4122 C   0  0  0  0  0  0  0  0  0  0  0  0
  -33.7510  -19.1044   19.9378 C   0  0  0  0  0  0  0  0  0  0  0  0
  -35.7444  -18.0832   20.7959 C   0  0  0  0  0  0  0  0  0  0  0  0
  -28.1731  -12.0573   18.7184 C   0  0  0  0  0  0  0  0  0  0  0  0
  -30.5263  -12.5832   19.4916 C   0  0  0  0  0  0  0  0  0  0  0  0
  -28.6166  -13.3119   20.8669 C   0  0  0  0  0  0  0  0  0  0  0  0
  -36.5640  -22.6388   18.2875 C   0  0  1  0  0  0  0  0  0  0  0  0
  -33.6005  -18.9834   21.4704 C   0  0  2  0  0  0  0  0  0  0  0  0
  -33.6493  -24.9498   19.0604 C   0  0  1  0  0  0  0  0  0  0  0  0
  -34.7113  -18.0041   21.9182 C   0  0  2  0  0  0  0  0  0  0  0  0
  -27.6457  -13.1326   19.6885 C   0  0  2  0  0  0  0  0  0  0  0  0
  -35.2995  -18.3456   23.2802 C   0  0  0  0  0  0  0  0  0  0  0  0
  -29.0959  -19.1530   25.3639 C   0  0  0  0  0  0  0  0  0  0  0  0
  -33.4507  -31.0962   23.7705 C   0  0  0  0  0  0  0  0  0  0  0  0
  -36.6088  -25.3966   22.5821 C   0  0  0  0  0  0  0  0  0  0  0  0
  -36.1878  -27.3387   24.1049 C   0  0  0  0  0  0  0  0  0  0  0  0
  -37.1465  -27.7216   21.8340 C   0  0  0  0  0  0  0  0  0  0  0  0
  -30.6768  -29.9267   21.4438 C   0  0  0  0  0  0  0  0  0  0  0  0
  -28.0207  -20.2473   23.3603 C   0  0  0  0  0  0  0  0  0  0  0  0
  -28.2018  -21.1037   22.1106 C   0  0  0  0  0  0  0  0  0  1  0  0
  -29.3538  -19.8409   24.0179 C   0  0  2  0  0  0  0  0  0  0  0  0
  -34.7139  -27.0704   22.0588 C   0  0  1  0  0  0  0  0  0  0  0  0
  -32.8531  -30.3280   22.6019 C   0  0  2  0  0  0  0  0  0  0  0  0
  -36.1428  -26.8652   22.6364 C   0  0  0  0  0  0  0  0  0  0  0  0
  -25.8592  -11.5422   20.2885 N   0  0  0  0  0  0  0  0  0  0  0  0
  -31.7959  -17.3421   21.4870 N   0  0  0  0  0  0  0  0  0  0  0  0
  -26.2350  -12.8255   20.1552 N   0  0  0  0  0  0  0  0  0  0  0  0
  -33.6664  -25.5847   20.3798 N   0  0  0  0  0  0  0  0  0  0  0  0
  -29.9651  -13.6173   20.3637 N   0  0  0  0  0  0  0  0  0  0  0  0
  -25.4661  -15.0533   20.3925 N   0  0  0  0  0  0  0  0  0  0  0  0
  -21.8818  -12.5808   21.5905 N   0  0  0  0  0  0  0  0  0  0  0  0
  -30.0724  -15.7015   21.4624 N   0  0  0  0  0  0  0  0  0  0  0  0
  -35.6131  -23.7281   18.3468 N   0  0  0  0  0  0  0  0  0  0  0  0
  -34.2571  -28.4559   22.0726 N   0  0  0  0  0  0  0  0  0  0  0  0
  -31.3887  -30.6013   22.5596 N   0  3  0  0  0  0  0  0  0  0  0  0
  -22.6559  -14.7201   21.3024 O   0  0  0  0  0  0  0  0  0  0  0  0
  -34.1594  -22.8094   19.9169 O   0  0  0  0  0  0  0  0  0  0  0  0
  -35.3048  -27.1243   19.7622 O   0  0  0  0  0  0  0  0  0  0  0  0
  -32.3645  -28.0868   23.3606 O   0  0  0  0  0  0  0  0  0  0  0  0
  -31.8514  -14.9412   20.1823 O   0  0  0  0  0  0  0  0  0  0  0  0
  -21.6136   -7.0179   21.7223 O   0  0  0  0  0  0  0  0  0  0  0  0
  -28.8791  -22.3061   22.4739 O   0  0  0  0  0  0  0  0  0  1  0  0
  -16.4503   -6.8203   19.7973 F   0  0  0  0  0  0  0  0  0  0  0  0
  -20.8394   -5.0535   19.9379 F   0  0  0  0  0  0  0  0  0  0  0  0
  1  2  1  0  0  0  0
  1  5  2  0  0  0  0
  2  6  2  0  0  0  0
  3  8  2  0  0  0  0
  3 17  1  0  0  0  0
  4  9  1  0  0  0  0
  4 17  2  0  0  0  0
  5 19  1  0  0  0  0
  6 21  1  0  0  0  0
  7 10  2  0  0  0  0
  7 20  1  0  0  0  0
  8 24  1  0  0  0  0
  9 24  2  0  0  0  0
 10 25  1  0  0  0  0
 11 12  2  0  0  0  0
 11 26  1  0  0  0  0
 12 27  1  0  0  0  0
 13 22  1  0  0  0  0
 13 25  2  0  0  0  0
 14 23  2  0  0  0  0
 14 30  1  0  0  0  0
 15 23  1  0  0  0  0
 15 31  2  0  0  0  0
 16 27  2  0  0  0  0
 16 28  1  0  0  0  0
 17 29  1  0  0  0  0
 18 29  1  0  0  0  0
 18 32  2  0  0  0  0
 18 33  1  0  0  0  0
 19 21  2  0  0  0  0
 19 38  1  0  0  0  0
 20 22  2  0  0  0  0
 20 39  1  0  0  0  0
 21 50  1  0  0  0  0
 22 40  1  0  0  0  0
 23 64  1  0  0  0  0
 24 84  1  0  0  0  0
 25 85  1  0  0  0  0
 26 28  2  0  0  0  0
 26 84  1  0  0  0  0
 27 86  1  0  0  0  0
 28 87  1  0  0  0  0
 29 68  2  0  0  0  0
 30 51  1  0  0  0  0
 30 69  2  0  0  0  0
 31 69  1  0  0  0  0
 31 75  1  0  0  0  0
 32 70  1  0  0  0  0
 32 73  1  0  0  0  0
 33 74  1  0  0  0  0
 33 79  2  0  0  0  0
 34 52  1  0  0  0  0
 34 76  1  0  0  0  0
 34 80  2  0  0  0  0
 35 65  1  0  0  0  0
 35 71  1  0  0  0  0
 35 81  2  0  0  0  0
 36 66  1  0  0  0  0
 36 77  1  0  0  0  0
 36 82  2  0  0  0  0
 37 72  1  0  0  0  0
 37 75  1  0  0  0  0
 37 83  2  0  0  0  0
 38 41  1  0  0  0  0
 39 52  1  0  0  0  0
 40 71  1  0  0  0  0
 41 44  1  0  0  0  0
 42 45  1  0  0  0  0
 42 46  1  0  0  0  0
 43 47  1  0  0  0  0
 43 48  1  0  0  0  0
 44 50  1  0  0  0  0
 45 51  1  0  0  0  0
 46 53  1  0  0  0  0
 47 54  1  0  0  0  0
 48 72  1  0  0  0  0
 49 54  1  0  0  0  0
 49 72  1  0  0  0  0
 50 76  1  0  0  0  0
 51 53  1  0  0  0  0
 52 71  1  0  0  0  0
 53 55  1  0  0  0  0
 54 70  1  0  0  0  0
 56 64  1  0  0  0  0
 57 66  1  0  0  0  0
 58 67  1  0  0  0  0
 59 67  1  0  0  0  0
 60 67  1  0  0  0  0
 61 78  1  0  0  0  0
 62 63  1  0  0  0  0
 62 64  1  0  0  0  0
 63 85  1  0  0  0  0
 65 67  1  0  0  0  0
 65 77  1  0  0  0  0
 66 78  1  0  0  0  0
 68 70  1  0  0  0  0
M  CHG  1  78   1
M  ISO  4  37 100  63 101  75 100  85 101
M  END
> <Batch ID>
0121

> <Smiles>
CNC(C)C(=O)NC(C(=O)N1Cc2cc([101O:1][101CH2:1]CC(C)c3cc([100NH:0][100C:0](=O)N4CCCC(n5nc(-c6ccc(Oc7ccc(F)cc7F)cc6)c(C(N)=O)c5N)C4)nc(C4CCCC4C)c3)ccc2CC1C(=O)NC1CCCc2ccccc21)C(C)(C)C

> <Shape>
0.182

> <Color>
0.188

> <Negative vol penalty>
0.000

$$$$

  -OEChem-04052320253D

 83 91  0     1  0  0  0  0  0999 V2000
  -17.2124  -30.0297   24.1206 C   0  0  0  0  0  0  0  0  0  0  0  0
  -18.5608  -30.3647   24.1922 C   0  0  0  0  0  0  0  0  0  0  0  0
  -24.7672  -13.8491   19.2350 C   0  0  0  0  0  0  0  0  0  0  0  0
  -24.7118  -14.1938   21.6257 C   0  0  0  0  0  0  0  0  0  0  0  0
  -16.8233  -28.8349   23.5164 C   0  0  0  0  0  0  0  0  0  0  0  0
  -19.5209  -29.5044   23.6607 C   0  0  0  0  0  0  0  0  0  0  0  0
  -25.9142  -29.5869   20.4302 C   0  0  0  0  0  0  0  0  0  0  0  0
  -25.1543  -12.5240   19.4350 C   0  0  0  0  0  0  0  0  0  0  0  0
  -25.0988  -12.8687   21.8257 C   0  0  0  0  0  0  0  0  0  0  0  0
  -27.1850  -29.0248   20.5426 C   0  0  0  0  0  0  0  0  0  0  0  0
  -25.7224   -9.4755   22.9726 C   0  0  0  0  0  0  0  0  0  0  0  0
  -25.0449   -8.7410   23.9458 C   0  0  0  0  0  0  0  0  0  0  0  0
  -28.3441  -28.2069   23.5621 C   0  0  0  0  0  0  0  0  0  0  0  0
  -26.3905  -27.0252   19.4519 C   0  0  0  0  0  0  0  0  0  0  0  0
  -22.9692   -9.0805   22.7570 C   0  0  0  0  0  0  0  0  0  0  0  0
  -27.7683  -27.4916   24.5888 C   0  0  0  0  0  0  0  0  0  0  0  0
  -28.4400  -26.0182   23.0421 C   0  0  0  0  0  0  0  0  0  0  0  0
  -24.5460  -14.6840   20.3303 C   0  0  0  0  0  0  0  0  0  0  0  0
  -22.8333  -16.5493   20.0226 C   0  0  0  0  0  0  0  0  0  0  0  0
  -17.7785  -27.9642   22.9686 C   0  0  0  0  0  0  0  0  0  0  0  0
  -24.8674  -28.8670   19.8366 C   0  0  0  0  0  0  0  0  0  0  0  0
  -19.1443  -28.2962   23.0498 C   0  0  0  0  0  0  0  0  0  0  0  0
  -25.1079  -27.5814   19.3308 C   0  0  0  0  0  0  0  0  0  0  0  0
  -28.7692  -27.2747   22.5836 C   0  0  0  0  0  0  0  0  0  0  0  0
  -25.3200  -12.0338   20.7303 C   0  0  0  0  0  0  0  0  0  0  0  0
  -27.4227  -27.7427   20.0560 C   0  0  0  0  0  0  0  0  0  0  0  0
  -25.0233  -10.0125   21.8916 C   0  0  0  0  0  0  0  0  0  0  0  0
  -23.6683   -8.5435   23.8380 C   0  0  0  0  0  0  0  0  0  0  0  0
  -23.6467   -9.8150   21.7838 C   0  0  0  0  0  0  0  0  0  0  0  0
  -24.1467  -16.0530   20.1244 C   0  0  0  0  0  0  0  0  0  0  0  0
  -22.9906  -17.9004   19.8323 C   0  0  0  0  0  0  0  0  0  0  0  0
  -21.5829  -15.8514   20.0937 C   0  0  0  0  0  0  0  0  0  0  0  0
  -22.0496  -27.7787   20.8263 C   0  0  0  0  0  0  0  0  0  0  0  0
  -21.7003  -26.9764   17.7027 C   0  0  0  0  0  0  0  0  0  0  0  0
  -23.1814  -26.2278   14.7206 C   0  0  0  0  0  0  0  0  0  0  0  0
  -25.4494  -22.7426   21.1180 C   0  0  0  0  0  0  0  0  0  0  0  0
  -17.3132  -26.6615   22.3676 C   0  0  0  0  0  0  0  0  0  0  0  0
  -23.5089  -29.4978   19.6989 C   0  0  0  0  0  0  0  0  0  0  0  0
  -24.0232  -26.7748   18.6667 C   0  0  0  0  0  0  0  0  0  0  0  0
  -18.3662  -25.9826   21.4954 C   0  0  0  0  0  0  0  0  0  0  0  0
  -27.1295  -20.6207   18.8046 C   0  0  0  0  0  0  0  0  0  0  0  0
  -19.7186  -25.9735   22.2009 C   0  0  0  0  0  0  0  0  0  0  0  0
  -26.3992  -19.2832   18.9381 C   0  0  0  0  0  0  0  0  0  0  0  0
  -27.2443  -21.3375   20.1481 C   0  0  0  0  0  0  0  0  0  0  0  0
  -25.2368  -20.1860   20.9954 C   0  0  0  0  0  0  0  0  0  0  0  0
  -20.2138  -27.4009   22.4628 C   0  0  1  0  0  0  0  0  0  0  0  0
  -22.3885  -28.4749   19.5386 C   0  0  1  0  0  0  0  0  0  0  0  0
  -25.0472  -19.4519   19.6570 C   0  0  2  0  0  0  0  0  0  0  0  0
  -30.8222  -26.9288   21.1664 C   0  0  0  0  0  0  0  0  0  0  0  0
  -22.6366  -25.5780   12.3588 C   0  0  0  0  0  0  0  0  0  0  0  0
  -21.0697  -24.1392   18.6314 C   0  0  0  0  0  0  0  0  0  0  0  0
  -21.4740  -23.3568   16.2877 C   0  0  0  0  0  0  0  0  0  0  0  0
  -19.6305  -24.9691   16.7621 C   0  0  0  0  0  0  0  0  0  0  0  0
  -24.4754  -28.6563   13.6311 C   0  0  0  0  0  0  0  0  0  0  0  0
  -27.3330  -25.0788   25.0774 C   0  0  0  0  0  0  0  0  0  0  0  0
  -23.5608  -24.0150   22.1045 C   0  0  0  0  0  0  0  0  0  0  0  0
  -25.8175  -24.9327   25.0401 C   0  0  0  0  0  0  0  0  0  0  0  0
  -23.8987  -24.3953   23.5339 C   0  0  0  0  0  0  0  0  0  0  0  0
  -29.4581  -27.5977   21.2775 C   0  0  1  0  0  0  0  0  0  1  0  0
  -22.0287  -25.7625   16.8675 C   0  0  1  0  0  0  0  0  0  0  0  0
  -22.9192  -26.7289   13.3119 C   0  0  2  0  0  0  0  0  0  0  0  0
  -21.0709  -24.5711   17.1514 C   0  0  0  0  0  0  0  0  0  0  0  0
  -25.0703  -17.0109   20.0082 N   0  0  0  0  0  0  0  0  0  0  0  0
  -27.8319  -26.1623   24.2617 N   0  0  0  0  0  0  0  0  0  0  0  0
  -24.3362  -18.1226   19.8314 N   0  0  0  0  0  0  0  0  0  0  0  0
  -22.7103  -27.4327   18.5616 N   0  0  0  0  0  0  0  0  0  0  0  0
  -25.9275  -21.4666   20.7769 N   0  0  0  0  0  0  0  0  0  0  0  0
  -22.1077  -18.9083   19.6672 N   0  0  0  0  0  0  0  0  0  0  0  0
  -21.6023  -14.4643   20.2934 N   0  0  0  0  0  0  0  0  0  0  0  0
  -20.7499  -27.9804   21.2498 N   0  0  0  0  0  0  0  0  0  0  0  0
  -22.0300  -26.2104   15.4791 N   0  0  0  0  0  0  0  0  0  0  0  0
  -24.1900  -22.7762   21.7039 N   0  0  0  0  0  0  0  0  0  0  0  0
  -24.0995  -27.4823   12.8020 N   0  3  0  0  0  0  0  0  0  0  0  0
  -25.3652  -24.6143   23.6635 N   0  3  0  0  0  0  0  0  0  0  0  0
  -20.4813  -16.4381   19.9671 O   0  0  0  0  0  0  0  0  0  0  0  0
  -22.9037  -27.1069   21.3929 O   0  0  0  0  0  0  0  0  0  0  0  0
  -20.5912  -27.5047   17.5918 O   0  0  0  0  0  0  0  0  0  0  0  0
  -24.2955  -25.8826   15.1082 O   0  0  0  0  0  0  0  0  0  0  0  0
  -26.0948  -23.7758   20.9104 O   0  0  0  0  0  0  0  0  0  0  0  0
  -25.6975  -10.7408   20.9258 O   0  0  0  0  0  0  0  0  0  0  0  0
  -28.6621  -27.1914   20.1651 O   0  0  0  0  0  0  0  0  0  1  0  0
  -23.0181   -7.8369   24.7719 F   0  0  0  0  0  0  0  0  0  0  0  0
  -22.9699  -10.3275   20.7469 F   0  0  0  0  0  0  0  0  0  0  0  0
  1  2  1  0  0  0  0
  1  5  2  0  0  0  0
  2  6  2  0  0  0  0
  3  8  2  0  0  0  0
  3 18  1  0  0  0  0
  4  9  1  0  0  0  0
  4 18  2  0  0  0  0
  5 20  1  0  0  0  0
  6 22  1  0  0  0  0
  7 10  2  0  0  0  0
  7 21  1  0  0  0  0
  8 25  1  0  0  0  0
  9 25  2  0  0  0  0
 10 26  1  0  0  0  0
 11 12  2  0  0  0  0
 11 27  1  0  0  0  0
 12 28  1  0  0  0  0
 13 16  2  0  0  0  0
 13 24  1  0  0  0  0
 14 23  1  0  0  0  0
 14 26  2  0  0  0  0
 15 28  2  0  0  0  0
 15 29  1  0  0  0  0
 16 64  1  0  0  0  0
 17 24  2  0  0  0  0
 17 64  1  0  0  0  0
 18 30  1  0  0  0  0
 19 30  1  0  0  0  0
 19 31  2  0  0  0  0
 19 32  1  0  0  0  0
 20 22  2  0  0  0  0
 20 37  1  0  0  0  0
 21 23  2  0  0  0  0
 21 38  1  0  0  0  0
 22 46  1  0  0  0  0
 23 39  1  0  0  0  0
 24 59  1  0  0  0  0
 25 80  1  0  0  0  0
 26 81  1  0  0  0  0
 27 29  2  0  0  0  0
 27 80  1  0  0  0  0
 28 82  1  0  0  0  0
 29 83  1  0  0  0  0
 30 63  2  0  0  0  0
 31 65  1  0  0  0  0
 31 68  1  0  0  0  0
 32 69  1  0  0  0  0
 32 75  2  0  0  0  0
 33 47  1  0  0  0  0
 33 70  1  0  0  0  0
 33 76  2  0  0  0  0
 34 60  1  0  0  0  0
 34 66  1  0  0  0  0
 34 77  2  0  0  0  0
 35 61  1  0  0  0  0
 35 71  1  0  0  0  0
 35 78  2  0  0  0  0
 36 67  1  0  0  0  0
 36 72  1  0  0  0  0
 36 79  2  0  0  0  0
 37 40  1  0  0  0  0
 38 47  1  0  0  0  0
 39 66  1  0  0  0  0
 40 42  1  0  0  0  0
 41 43  1  0  0  0  0
 41 44  1  0  0  0  0
 42 46  1  0  0  0  0
 43 48  1  0  0  0  0
 44 67  1  0  0  0  0
 45 48  1  0  0  0  0
 45 67  1  0  0  0  0
 46 70  1  0  0  0  0
 47 66  1  0  0  0  0
 48 65  1  0  0  0  0
 49 59  1  0  0  0  0
 50 61  1  0  0  0  0
 51 62  1  0  0  0  0
 52 62  1  0  0  0  0
 53 62  1  0  0  0  0
 54 73  1  0  0  0  0
 55 57  1  0  0  0  0
 55 64  1  0  0  0  0
 56 58  1  0  0  0  0
 56 72  1  0  0  0  0
 57 74  1  0  0  0  0
 58 74  1  0  0  0  0
 59 81  1  0  0  0  0
 60 62  1  0  0  0  0
 60 71  1  0  0  0  0
 61 73  1  0  0  0  0
 63 65  1  0  0  0  0
M  CHG  2  73   1  74   1
M  ISO  4  36 100  59 101  72 100  81 101
M  END
> <Batch ID>
0121

> <Smiles>
CNC(C)C(=O)NC(C(=O)N1Cc2cc([101O:1][101CH:1](C)c3ccn(CCNCC[100NH:0][100C:0](=O)N4CCCC(n5nc(-c6ccc(Oc7ccc(F)cc7F)cc6)c(C(N)=O)c5N)C4)c3)ccc2CC1C(=O)NC1CCCc2ccccc21)C(C)(C)C

> <Shape>
0.202

> <Color>
0.076

> <Negative vol penalty>
0.000

$$$$

  -OEChem-04052320253D

 87 95  0     1  0  0  0  0  0999 V2000
  -35.9228  -29.3157   26.3835 C   0  0  0  0  0  0  0  0  0  0  0  0
  -34.9051  -28.5877   26.9917 C   0  0  0  0  0  0  0  0  0  0  0  0
  -22.9968   -9.8963   19.9723 C   0  0  0  0  0  0  0  0  0  0  0  0
  -23.7353   -9.9208   22.2725 C   0  0  0  0  0  0  0  0  0  0  0  0
  -35.6764  -29.9927   25.1898 C   0  0  0  0  0  0  0  0  0  0  0  0
  -33.6402  -28.5373   26.4071 C   0  0  0  0  0  0  0  0  0  0  0  0
  -29.3750  -22.3622   24.2384 C   0  0  0  0  0  0  0  0  0  0  0  0
  -22.2318   -8.7588   20.2300 C   0  0  0  0  0  0  0  0  0  0  0  0
  -22.9703   -8.7832   22.5302 C   0  0  0  0  0  0  0  0  0  0  0  0
  -28.5951  -21.3547   23.6702 C   0  0  0  0  0  0  0  0  0  0  0  0
  -23.2119   -5.4500   22.0184 C   0  0  0  0  0  0  0  0  0  0  0  0
  -23.8038   -4.4242   22.7553 C   0  0  0  0  0  0  0  0  0  0  0  0
  -27.6558  -22.9464   22.1108 C   0  0  0  0  0  0  0  0  0  0  0  0
  -22.0897   -4.6477   24.4433 C   0  0  0  0  0  0  0  0  0  0  0  0
  -23.7486  -10.4773   20.9936 C   0  0  0  0  0  0  0  0  0  0  0  0
  -24.1329  -12.9948   20.8443 C   0  0  0  0  0  0  0  0  0  0  0  0
  -34.4105  -29.9426   24.5852 C   0  0  0  0  0  0  0  0  0  0  0  0
  -29.3096  -23.6640   23.7342 C   0  0  0  0  0  0  0  0  0  0  0  0
  -33.3763  -29.2154   25.2049 C   0  0  0  0  0  0  0  0  0  0  0  0
  -28.4439  -23.9571   22.6677 C   0  0  0  0  0  0  0  0  0  0  0  0
  -22.2186   -8.2022   21.5089 C   0  0  0  0  0  0  0  0  0  0  0  0
  -27.7374  -21.6462   22.6093 C   0  0  0  0  0  0  0  0  0  0  0  0
  -22.0589   -6.0747   22.4940 C   0  0  0  0  0  0  0  0  0  0  0  0
  -23.2427   -4.0230   23.9677 C   0  0  0  0  0  0  0  0  0  0  0  0
  -21.4978   -5.6735   23.7063 C   0  0  0  0  0  0  0  0  0  0  0  0
  -24.5395  -11.6520   20.7278 C   0  0  0  0  0  0  0  0  0  0  0  0
  -25.2405  -13.7216   20.4818 C   0  0  0  0  0  0  0  0  0  0  0  0
  -22.8672  -13.5366   21.2445 C   0  0  0  0  0  0  0  0  0  0  0  0
  -30.5452  -27.2000   23.9496 C   0  0  0  0  0  0  0  0  0  0  0  0
  -30.3000  -26.5219   20.9679 C   0  0  0  0  0  0  0  0  0  0  0  0
  -30.2938  -25.2423   17.8056 C   0  0  0  0  0  0  0  0  0  0  0  0
  -30.7382  -14.6536   20.7092 C   0  0  0  0  0  0  0  0  0  0  0  0
  -34.1788  -30.7295   23.3196 C   0  0  0  0  0  0  0  0  0  0  0  0
  -30.0858  -24.7935   24.3552 C   0  0  0  0  0  0  0  0  0  0  0  0
  -28.3807  -25.3790   22.1806 C   0  0  0  0  0  0  0  0  0  0  0  0
  -32.9145  -30.3183   22.5695 C   0  0  0  0  0  0  0  0  0  0  0  0
  -29.5839  -12.2571   18.3426 C   0  0  0  0  0  0  0  0  0  0  0  0
  -31.7378  -30.1977   23.5327 C   0  0  0  0  0  0  0  0  0  0  0  0
  -28.1379  -11.9925   18.7655 C   0  0  0  0  0  0  0  0  0  0  0  0
  -27.4028  -19.7779   18.3859 C   0  0  0  0  0  0  0  0  0  0  0  0
  -30.4933  -12.4786   19.5492 C   0  0  0  0  0  0  0  0  0  0  0  0
  -28.5910  -13.2585   20.9081 C   0  0  0  0  0  0  0  0  0  0  0  0
  -31.9977  -29.1164   24.5886 C   0  0  1  0  0  0  0  0  0  0  0  0
  -30.5629  -25.8349   23.3270 C   0  0  1  0  0  0  0  0  0  0  0  0
  -28.6805  -18.9067   18.5134 C   0  0  2  0  0  0  0  0  0  0  0  0
  -27.2055  -19.5910   19.9136 C   0  0  1  0  0  0  0  0  0  0  0  0
  -27.6251  -13.0845   19.7236 C   0  0  2  0  0  0  0  0  0  0  0  0
  -28.7395  -19.3606   19.9979 C   0  0  1  0  0  0  0  0  0  0  0  0
  -30.7525  -25.8792   15.4221 C   0  0  0  0  0  0  0  0  0  0  0  0
  -25.1451  -20.8509   20.5408 C   0  0  0  0  0  0  0  0  0  0  0  0
  -27.6506  -28.0299   20.8649 C   0  0  0  0  0  0  0  0  0  0  0  0
  -27.7016  -27.8063   18.3717 C   0  0  0  0  0  0  0  0  0  0  0  0
  -29.4992  -29.0767   19.5454 C   0  0  0  0  0  0  0  0  0  0  0  0
  -32.7886  -20.0587   11.0034 C   0  0  0  0  0  0  0  0  0  0  0  0
  -32.4446  -23.2245   17.5587 C   0  0  0  0  0  0  0  0  0  0  0  0
  -29.8538  -19.3023   17.6397 C   0  0  0  0  0  0  0  0  0  0  0  0
  -30.8278  -16.8188   21.9189 C   0  0  0  0  0  0  0  0  0  0  0  0
  -31.7364  -19.9051   13.1551 C   0  0  0  0  0  0  0  0  0  0  0  0
  -29.4780  -19.2843   16.1649 C   0  0  0  0  0  0  0  0  0  0  0  0
  -30.5734  -17.9537   20.9445 C   0  0  0  0  0  0  0  0  0  0  0  0
  -30.4410  -19.5956   13.8813 C   0  0  0  0  0  0  0  0  0  0  0  0
  -29.4406  -26.5559   19.7295 C   0  0  1  0  0  0  0  0  0  0  0  0
  -31.3311  -25.2880   16.6982 C   0  0  2  0  0  0  0  0  0  0  0  0
  -26.6597  -20.7840   20.6721 C   0  0  1  0  0  0  0  0  0  1  0  0
  -28.5742  -27.8441   19.6445 C   0  0  0  0  0  0  0  0  0  0  0  0
  -25.8064  -11.5302   20.3229 N   0  0  0  0  0  0  0  0  0  0  0  0
  -26.2055  -12.8057   20.1816 N   0  0  0  0  0  0  0  0  0  0  0  0
  -29.7359  -25.9478   22.1137 N   0  0  0  0  0  0  0  0  0  0  0  0
  -29.9515  -13.5274   20.4166 N   0  0  0  0  0  0  0  0  0  0  0  0
  -25.4734  -15.0484   20.3937 N   0  0  0  0  0  0  0  0  0  0  0  0
  -21.8374  -12.6485   21.5838 N   0  0  0  0  0  0  0  0  0  0  0  0
  -31.7878  -27.7997   24.0259 N   0  0  0  0  0  0  0  0  0  0  0  0
  -30.3447  -26.3682   18.6000 N   0  0  0  0  0  0  0  0  0  0  0  0
  -30.1466  -15.6030   21.5335 N   0  0  0  0  0  0  0  0  0  0  0  0
  -31.5369  -19.8176   11.6912 N   0  0  0  0  0  0  0  0  0  0  0  0
  -29.1154  -18.2829   20.9210 N   0  3  0  0  0  0  0  0  0  0  0  0
  -31.8282  -23.9157   16.3972 N   0  3  0  0  0  0  0  0  0  0  0  0
  -30.6676  -19.6346   15.3523 N   0  3  0  0  0  0  0  0  0  0  0  0
  -22.6506  -14.7715   21.2837 O   0  0  0  0  0  0  0  0  0  0  0  0
  -29.4826  -27.6761   24.3317 O   0  0  0  0  0  0  0  0  0  0  0  0
  -31.4387  -26.9959   20.9250 O   0  0  0  0  0  0  0  0  0  0  0  0
  -29.5136  -24.3035   17.9493 O   0  0  0  0  0  0  0  0  0  0  0  0
  -31.8811  -14.8047   20.2641 O   0  0  0  0  0  0  0  0  0  0  0  0
  -21.4720   -7.0924   21.7608 O   0  0  0  0  0  0  0  0  0  0  0  0
  -26.9822  -20.6569   22.0563 O   0  0  0  0  0  0  0  0  0  1  0  0
  -23.8104   -3.0369   24.6745 F   0  0  0  0  0  0  0  0  0  0  0  0
  -20.3896   -6.2691   24.1677 F   0  0  0  0  0  0  0  0  0  0  0  0
  1  2  1  0  0  0  0
  1  5  2  0  0  0  0
  2  6  2  0  0  0  0
  3  8  2  0  0  0  0
  3 15  1  0  0  0  0
  4  9  1  0  0  0  0
  4 15  2  0  0  0  0
  5 17  1  0  0  0  0
  6 19  1  0  0  0  0
  7 10  2  0  0  0  0
  7 18  1  0  0  0  0
  8 21  1  0  0  0  0
  9 21  2  0  0  0  0
 10 22  1  0  0  0  0
 11 12  2  0  0  0  0
 11 23  1  0  0  0  0
 12 24  1  0  0  0  0
 13 20  1  0  0  0  0
 13 22  2  0  0  0  0
 14 24  2  0  0  0  0
 14 25  1  0  0  0  0
 15 26  1  0  0  0  0
 16 26  1  0  0  0  0
 16 27  2  0  0  0  0
 16 28  1  0  0  0  0
 17 19  2  0  0  0  0
 17 33  1  0  0  0  0
 18 20  2  0  0  0  0
 18 34  1  0  0  0  0
 19 43  1  0  0  0  0
 20 35  1  0  0  0  0
 21 84  1  0  0  0  0
 22 85  1  0  0  0  0
 23 25  2  0  0  0  0
 23 84  1  0  0  0  0
 24 86  1  0  0  0  0
 25 87  1  0  0  0  0
 26 66  2  0  0  0  0
 27 67  1  0  0  0  0
 27 70  1  0  0  0  0
 28 71  1  0  0  0  0
 28 79  2  0  0  0  0
 29 44  1  0  0  0  0
 29 72  1  0  0  0  0
 29 80  2  0  0  0  0
 30 62  1  0  0  0  0
 30 68  1  0  0  0  0
 30 81  2  0  0  0  0
 31 63  1  0  0  0  0
 31 73  1  0  0  0  0
 31 82  2  0  0  0  0
 32 69  1  0  0  0  0
 32 74  1  0  0  0  0
 32 83  2  0  0  0  0
 33 36  1  0  0  0  0
 34 44  1  0  0  0  0
 35 68  1  0  0  0  0
 36 38  1  0  0  0  0
 37 39  1  0  0  0  0
 37 41  1  0  0  0  0
 38 43  1  0  0  0  0
 39 47  1  0  0  0  0
 40 45  1  0  0  0  0
 40 46  1  0  0  0  0
 41 69  1  0  0  0  0
 42 47  1  0  0  0  0
 42 69  1  0  0  0  0
 43 72  1  0  0  0  0
 44 68  1  0  0  0  0
 45 48  1  0  0  0  0
 45 56  1  0  0  0  0
 46 48  1  0  0  0  0
 46 64  1  0  0  0  0
 47 67  1  0  0  0  0
 48 76  1  0  0  0  0
 49 63  1  0  0  0  0
 50 64  1  0  0  0  0
 51 65  1  0  0  0  0
 52 65  1  0  0  0  0
 53 65  1  0  0  0  0
 54 75  1  0  0  0  0
 55 77  1  0  0  0  0
 56 59  1  0  0  0  0
 57 60  1  0  0  0  0
 57 74  1  0  0  0  0
 58 61  1  0  0  0  0
 58 75  1  0  0  0  0
 59 78  1  0  0  0  0
 60 76  1  0  0  0  0
 61 78  1  0  0  0  0
 62 65  1  0  0  0  0
 62 73  1  0  0  0  0
 63 77  1  0  0  0  0
 64 85  1  0  0  0  0
 66 67  1  0  0  0  0
M  CHG  3  76   1  77   1  78   1
M  ISO  4  32 100  64 101  74 100  85 101
M  END
> <Batch ID>
0121

> <Smiles>
CNCCNCCC1CC([101CH:1](C)[101O:1]c2ccc3c(c2)CN(C(=O)C(NC(=O)C(C)NC)C(C)(C)C)C(C(=O)NC2CCCc4ccccc42)C3)C1NCC[100NH:0][100C:0](=O)N1CCCC(n2nc(-c3ccc(Oc4ccc(F)cc4F)cc3)c(C(N)=O)c2N)C1

> <Shape>
0.279

> <Color>
0.183

> <Negative vol penalty>
0.000

$$$$

  -OEChem-04052320253D

 90100  0     1  0  0  0  0  0999 V2000
  -32.5403  -12.8253   20.9599 C   0  0  0  0  0  0  0  0  0  0  0  0
  -31.9399  -13.9226   21.5689 C   0  0  0  0  0  0  0  0  0  0  0  0
  -22.5309  -26.9030   21.2123 C   0  0  0  0  0  0  0  0  0  0  0  0
  -22.0049  -29.2080   20.7152 C   0  0  0  0  0  0  0  0  0  0  0  0
  -31.8331  -12.0785   20.0186 C   0  0  0  0  0  0  0  0  0  0  0  0
  -30.6322  -14.2743   21.2362 C   0  0  0  0  0  0  0  0  0  0  0  0
  -26.3945  -16.6449   24.9682 C   0  0  0  0  0  0  0  0  0  0  0  0
  -21.7059  -26.9569   22.3357 C   0  0  0  0  0  0  0  0  0  0  0  0
  -21.1797  -29.2619   21.8386 C   0  0  0  0  0  0  0  0  0  0  0  0
  -25.9589  -17.9518   25.1827 C   0  0  0  0  0  0  0  0  0  0  0  0
  -18.6520  -29.8988   24.3729 C   0  0  0  0  0  0  0  0  0  0  0  0
  -17.4006  -30.4985   24.2312 C   0  0  0  0  0  0  0  0  0  0  0  0
  -24.1383  -17.5914   23.6416 C   0  0  0  0  0  0  0  0  0  0  0  0
  -16.8101  -28.8686   22.5485 C   0  0  0  0  0  0  0  0  0  0  0  0
  -22.6805  -28.0285   20.4021 C   0  0  0  0  0  0  0  0  0  0  0  0
  -23.1652  -27.6076   17.9332 C   0  0  0  0  0  0  0  0  0  0  0  0
  -30.5128  -12.4155   19.6812 C   0  0  0  0  0  0  0  0  0  0  0  0
  -25.7105  -15.8035   24.0791 C   0  0  0  0  0  0  0  0  0  0  0  0
  -29.9072  -13.5321   20.2885 C   0  0  0  0  0  0  0  0  0  0  0  0
  -24.5658  -16.2734   23.4196 C   0  0  0  0  0  0  0  0  0  0  0  0
  -21.0302  -28.1364   22.6488 C   0  0  0  0  0  0  0  0  0  0  0  0
  -24.8323  -18.4262   24.5171 C   0  0  0  0  0  0  0  0  0  0  0  0
  -18.9824  -28.7840   23.6023 C   0  0  0  0  0  0  0  0  0  0  0  0
  -16.4797  -29.9834   23.3190 C   0  0  0  0  0  0  0  0  0  0  0  0
  -18.0615  -28.2689   22.6901 C   0  0  0  0  0  0  0  0  0  0  0  0
  -23.5330  -27.9736   19.2418 C   0  0  0  0  0  0  0  0  0  0  0  0
  -24.3260  -27.7168   17.2070 C   0  0  0  0  0  0  0  0  0  0  0  0
  -24.5011  -28.9369   25.2109 C   0  0  0  0  0  0  0  0  0  0  0  0
  -21.8885  -27.2051   17.4198 C   0  0  0  0  0  0  0  0  0  0  0  0
  -26.4626  -14.3109   21.3753 C   0  0  0  0  0  0  0  0  0  0  0  0
  -23.5141  -13.0064   21.7318 C   0  0  0  0  0  0  0  0  0  0  0  0
  -20.3796  -13.2495   23.0595 C   0  0  0  0  0  0  0  0  0  0  0  0
  -27.7181  -29.9564   21.0558 C   0  0  0  0  0  0  0  0  0  0  0  0
  -29.8048  -11.6066   18.6233 C   0  0  0  0  0  0  0  0  0  0  0  0
  -26.1776  -14.3878   23.8791 C   0  0  0  0  0  0  0  0  0  0  0  0
  -23.7843  -15.4037   22.4703 C   0  0  0  0  0  0  0  0  0  0  0  0
  -28.2936  -11.8210   18.6023 C   0  0  0  0  0  0  0  0  0  0  0  0
  -27.3864  -31.2642   23.9973 C   0  0  0  0  0  0  0  0  0  0  0  0
  -27.9086  -26.6735   19.2825 C   0  0  0  0  0  0  0  0  0  0  0  0
  -27.9645  -13.3089   18.6693 C   0  0  0  0  0  0  0  0  0  0  0  0
  -26.3547  -30.6134   24.9159 C   0  0  0  0  0  0  0  0  0  0  0  0
  -27.5962  -27.1055   17.8501 C   0  0  0  0  0  0  0  0  0  0  0  0
  -23.7031  -26.0823   27.0773 C   0  0  0  0  0  0  0  0  0  0  0  0
  -22.6901  -27.1754   26.9108 C   0  0  0  0  0  0  0  0  0  0  0  0
  -28.4160  -30.3069   23.3957 C   0  0  0  0  0  0  0  0  0  0  0  0
  -28.5606  -27.8065   20.0629 C   0  0  0  0  0  0  0  0  0  0  0  0
  -27.2764  -28.1532   22.7948 C   0  0  0  0  0  0  0  0  0  0  0  0
  -27.4301  -29.4947   18.6478 C   0  0  0  0  0  0  0  0  0  0  0  0
  -28.4818  -13.9303   19.9723 C   0  0  1  0  0  0  0  0  0  0  0  0
  -25.6067  -29.4362   24.2934 C   0  0  1  0  0  0  0  0  0  0  0  0
  -25.7048  -13.7832   22.5606 C   0  0  1  0  0  0  0  0  0  0  0  0
  -26.4918  -28.1925   24.1118 C   0  0  1  0  0  0  0  0  0  0  0  0
  -26.7543  -28.3989   17.7970 C   0  0  2  0  0  0  0  0  0  0  0  0
  -23.4908  -26.7084   25.7262 C   0  0  0  0  0  0  0  0  0  0  0  0
  -25.4960  -27.0248   24.2254 C   0  0  1  0  0  0  0  0  0  0  0  0
  -18.1781  -12.0481   23.1455 C   0  0  0  0  0  0  0  0  0  0  0  0
  -27.2931  -22.9509   24.1373 C   0  0  0  0  0  0  0  0  0  0  0  0
  -22.8909  -13.9506   18.8980 C   0  0  0  0  0  0  0  0  0  0  0  0
  -20.4621  -13.5889   19.3864 C   0  0  0  0  0  0  0  0  0  0  0  0
  -22.0447  -11.6616   19.4447 C   0  0  0  0  0  0  0  0  0  0  0  0
  -20.5325  -12.9383   25.9987 C   0  0  0  0  0  0  0  0  0  0  0  0
  -26.1647  -25.7396   24.6986 C   0  0  0  0  0  0  0  0  0  0  0  0
  -25.3014  -24.5165   24.3827 C   0  0  0  0  0  0  0  0  0  0  0  0
  -24.9544  -22.0309   24.5133 C   0  0  0  0  0  0  0  0  0  0  0  0
  -25.3972  -20.6742   25.0492 C   0  0  0  0  0  0  0  0  0  1  0  0
  -22.1187  -13.3825   21.2953 C   0  0  1  0  0  0  0  0  0  0  0  0
  -19.5269  -12.2490   23.8187 C   0  0  2  0  0  0  0  0  0  0  0  0
  -25.9392  -23.1783   24.8164 C   0  0  1  0  0  0  0  0  0  0  0  0
  -21.8948  -13.1632   19.7725 C   0  0  0  0  0  0  0  0  0  0  0  0
  -24.8263  -28.2913   19.3442 N   0  0  0  0  0  0  0  0  0  0  0  0
  -25.2813  -28.1253   18.0906 N   0  0  0  0  0  0  0  0  0  0  0  0
  -24.4908  -27.5437   25.1284 N   0  0  0  0  0  0  0  0  0  0  0  0
  -24.2844  -14.0291   22.3032 N   0  0  0  0  0  0  0  0  0  0  0  0
  -27.8443  -29.4396   22.3633 N   0  0  0  0  0  0  0  0  0  0  0  0
  -27.7623  -29.0342   19.9987 N   0  0  0  0  0  0  0  0  0  0  0  0
  -24.6124  -27.5022   15.9054 N   0  0  0  0  0  0  0  0  0  0  0  0
  -20.8016  -27.1466   18.3027 N   0  0  0  0  0  0  0  0  0  0  0  0
  -27.6059  -13.5955   21.0746 N   0  0  0  0  0  0  0  0  0  0  0  0
  -21.2069  -12.6278   22.1482 N   0  0  0  0  0  0  0  0  0  0  0  0
  -19.2909  -12.7216   25.2122 N   0  3  0  0  0  0  0  0  0  0  0  0
  -23.7435  -29.6505   25.8530 O   0  0  0  0  0  0  0  0  0  0  0  0
  -21.7202  -26.8902   16.2173 O   0  0  0  0  0  0  0  0  0  0  0  0
  -26.0404  -15.2935   20.7769 O   0  0  0  0  0  0  0  0  0  0  0  0
  -23.9037  -11.8461   21.5780 O   0  0  0  0  0  0  0  0  0  0  0  0
  -20.3154  -14.4615   23.2527 O   0  0  0  0  0  0  0  0  0  0  0  0
  -27.5384  -31.1626   20.8447 O   0  0  0  0  0  0  0  0  0  0  0  0
  -20.2249  -28.1893   23.7448 O   0  0  0  0  0  0  0  0  0  0  0  0
  -24.4025  -19.7104   24.7255 O   0  0  0  0  0  0  0  0  0  1  0  0
  -15.2775  -30.5584   23.1841 F   0  0  0  0  0  0  0  0  0  0  0  0
  -18.3728  -27.1974   21.9480 F   0  0  0  0  0  0  0  0  0  0  0  0
  1  2  1  0  0  0  0
  1  5  2  0  0  0  0
  2  6  2  0  0  0  0
  3  8  2  0  0  0  0
  3 15  1  0  0  0  0
  4  9  1  0  0  0  0
  4 15  2  0  0  0  0
  5 17  1  0  0  0  0
  6 19  1  0  0  0  0
  7 10  2  0  0  0  0
  7 18  1  0  0  0  0
  8 21  1  0  0  0  0
  9 21  2  0  0  0  0
 10 22  1  0  0  0  0
 11 12  2  0  0  0  0
 11 23  1  0  0  0  0
 12 24  1  0  0  0  0
 13 20  1  0  0  0  0
 13 22  2  0  0  0  0
 14 24  2  0  0  0  0
 14 25  1  0  0  0  0
 15 26  1  0  0  0  0
 16 26  1  0  0  0  0
 16 27  2  0  0  0  0
 16 29  1  0  0  0  0
 17 19  2  0  0  0  0
 17 34  1  0  0  0  0
 18 20  2  0  0  0  0
 18 35  1  0  0  0  0
 19 49  1  0  0  0  0
 20 36  1  0  0  0  0
 21 87  1  0  0  0  0
 22 88  1  0  0  0  0
 23 25  2  0  0  0  0
 23 87  1  0  0  0  0
 24 89  1  0  0  0  0
 25 90  1  0  0  0  0
 26 70  2  0  0  0  0
 27 71  1  0  0  0  0
 27 76  1  0  0  0  0
 28 50  1  0  0  0  0
 28 72  1  0  0  0  0
 28 81  2  0  0  0  0
 29 77  1  0  0  0  0
 29 82  2  0  0  0  0
 30 51  1  0  0  0  0
 30 78  1  0  0  0  0
 30 83  2  0  0  0  0
 31 66  1  0  0  0  0
 31 73  1  0  0  0  0
 31 84  2  0  0  0  0
 32 67  1  0  0  0  0
 32 79  1  0  0  0  0
 32 85  2  0  0  0  0
 33 74  1  0  0  0  0
 33 75  1  0  0  0  0
 33 86  2  0  0  0  0
 34 37  1  0  0  0  0
 35 51  1  0  0  0  0
 36 73  1  0  0  0  0
 37 40  1  0  0  0  0
 38 41  1  0  0  0  0
 38 45  1  0  0  0  0
 39 42  1  0  0  0  0
 39 46  1  0  0  0  0
 40 49  1  0  0  0  0
 41 50  1  0  0  0  0
 42 53  1  0  0  0  0
 43 44  1  0  0  0  0
 43 54  1  0  0  0  0
 44 54  1  0  0  0  0
 45 74  1  0  0  0  0
 46 75  1  0  0  0  0
 47 52  1  0  0  0  0
 47 74  1  0  0  0  0
 48 53  1  0  0  0  0
 48 75  1  0  0  0  0
 49 78  1  0  0  0  0
 50 52  1  0  0  0  0
 51 73  1  0  0  0  0
 52 55  1  0  0  0  0
 53 71  1  0  0  0  0
 54 72  1  0  0  0  0
 55 62  1  0  0  0  0
 55 72  1  0  0  0  0
 56 67  1  0  0  0  0
 57 68  1  0  0  0  0
 58 69  1  0  0  0  0
 59 69  1  0  0  0  0
 60 69  1  0  0  0  0
 61 80  1  0  0  0  0
 62 63  1  0  0  0  0
 63 68  1  0  0  0  0
 64 65  1  0  0  0  0
 64 68  1  0  0  0  0
 65 88  1  0  0  0  0
 66 69  1  0  0  0  0
 66 79  1  0  0  0  0
 67 80  1  0  0  0  0
 70 71  1  0  0  0  0
M  CHG  1  80   1
M  ISO  4  33 100  65 101  74 100  88 101
M  END
> <Batch ID>
0121

> <Smiles>
CNC(C)C(=O)NC(C(=O)N1Cc2cc([101O:1][101CH2:1]CC(C)CCC3C4C[100N:0]([100C:0](=O)N5CCCC(n6nc(-c7ccc(Oc8ccc(F)cc8F)cc7)c(C(N)=O)c6N)C5)CCCC4C(=O)N3C3CC3)ccc2CC1C(=O)NC1CCCc2ccccc21)C(C)(C)C

> <Shape>
0.232

> <Color>
0.055

> <Negative vol penalty>
0.000

$$$$

  -OEChem-04052320253D

 87 96  0     1  0  0  0  0  0999 V2000
  -27.2207  -35.1454   23.3637 C   0  0  0  0  0  0  0  0  0  0  0  0
  -27.5446  -33.8120   23.1346 C   0  0  0  0  0  0  0  0  0  0  0  0
  -26.7995  -11.5062   18.0063 C   0  0  0  0  0  0  0  0  0  0  0  0
  -27.5613  -10.4672   20.0501 C   0  0  0  0  0  0  0  0  0  0  0  0
  -25.9454  -35.4843   23.8139 C   0  0  0  0  0  0  0  0  0  0  0  0
  -26.5936  -32.8165   23.3565 C   0  0  0  0  0  0  0  0  0  0  0  0
  -26.4420  -29.4060   19.6161 C   0  0  0  0  0  0  0  0  0  0  0  0
  -27.7510  -10.7851   17.2850 C   0  0  0  0  0  0  0  0  0  0  0  0
  -28.5128   -9.7460   19.3288 C   0  0  0  0  0  0  0  0  0  0  0  0
  -27.4429  -28.4357   19.5983 C   0  0  0  0  0  0  0  0  0  0  0  0
  -28.5911   -6.9916   17.3725 C   0  0  0  0  0  0  0  0  0  0  0  0
  -28.7305   -5.6344   17.6629 C   0  0  0  0  0  0  0  0  0  0  0  0
  -25.9210  -26.8558   20.6017 C   0  0  0  0  0  0  0  0  0  0  0  0
  -28.2322  -22.7356   18.9515 C   0  0  0  0  0  0  0  0  0  0  0  0
  -31.0400   -6.0015   18.2700 C   0  0  0  0  0  0  0  0  0  0  0  0
  -27.8210  -24.0478   17.1685 C   0  0  0  0  0  0  0  0  0  0  0  0
  -26.7047  -11.3473   19.3889 C   0  0  0  0  0  0  0  0  0  0  0  0
  -24.4022  -11.7018   20.4284 C   0  0  0  0  0  0  0  0  0  0  0  0
  -24.9753  -34.4934   24.0322 C   0  0  0  0  0  0  0  0  0  0  0  0
  -25.1742  -29.1112   20.1378 C   0  0  0  0  0  0  0  0  0  0  0  0
  -25.3046  -33.1424   23.8113 C   0  0  0  0  0  0  0  0  0  0  0  0
  -24.9049  -27.8234   20.6227 C   0  0  0  0  0  0  0  0  0  0  0  0
  -28.6127  -23.9289   18.2893 C   0  0  0  0  0  0  0  0  0  0  0  0
  -28.6076   -9.9050   17.9463 C   0  0  0  0  0  0  0  0  0  0  0  0
  -27.1834  -27.1613   20.0937 C   0  0  0  0  0  0  0  0  0  0  0  0
  -29.6762   -7.8537   17.5307 C   0  0  0  0  0  0  0  0  0  0  0  0
  -29.9549   -5.1394   18.1116 C   0  0  0  0  0  0  0  0  0  0  0  0
  -30.9006   -7.3587   17.9795 C   0  0  0  0  0  0  0  0  0  0  0  0
  -25.7224  -12.0924   20.1346 C   0  0  0  0  0  0  0  0  0  0  0  0
  -27.2196  -22.1615   18.2150 C   0  0  0  0  0  0  0  0  0  0  0  0
  -23.8876  -12.7487   21.1534 C   0  0  0  0  0  0  0  0  0  0  0  0
  -23.7034  -10.5000   20.0773 C   0  0  0  0  0  0  0  0  0  0  0  0
  -23.4318  -30.2147   22.5566 C   0  0  0  0  0  0  0  0  0  0  0  0
  -21.1671  -28.2562   21.3085 C   0  0  0  0  0  0  0  0  0  0  0  0
  -20.4334  -25.5059   19.4258 C   0  0  0  0  0  0  0  0  0  0  0  0
  -25.0473  -18.4922   21.4875 C   0  0  0  0  0  0  0  0  0  0  0  0
  -23.6251  -34.9040   24.5642 C   0  0  0  0  0  0  0  0  0  0  0  0
  -24.0971  -30.1611   20.1254 C   0  0  0  0  0  0  0  0  0  0  0  0
  -23.5542  -27.4503   21.1748 C   0  0  0  0  0  0  0  0  0  0  0  0
  -22.5577  -33.8228   24.4166 C   0  0  0  0  0  0  0  0  0  0  0  0
  -25.1908  -16.2580   24.1211 C   0  0  0  0  0  0  0  0  0  0  0  0
  -23.0988  -32.4723   24.8749 C   0  0  0  0  0  0  0  0  0  0  0  0
  -25.2131  -14.8912   23.4373 C   0  0  0  0  0  0  0  0  0  0  0  0
  -27.3066  -19.8058   19.1450 C   0  0  0  0  0  0  0  0  0  0  0  0
  -25.1526  -21.1314   19.2588 C   0  0  0  0  0  0  0  0  0  0  0  0
  -26.0681  -17.2561   23.3745 C   0  0  0  0  0  0  0  0  0  0  0  0
  -26.5086  -18.5276   19.4177 C   0  0  0  0  0  0  0  0  0  0  0  0
  -24.4048  -19.8237   19.5017 C   0  0  0  0  0  0  0  0  0  0  0  0
  -25.7228  -16.0609   21.2367 C   0  0  0  0  0  0  0  0  0  0  0  0
  -24.2925  -32.0362   24.0168 C   0  0  1  0  0  0  0  0  0  0  0  0
  -26.4441  -20.8807   18.4592 C   0  0  0  0  0  0  0  0  0  0  0  0
  -22.9987  -29.9025   21.1521 C   0  0  1  0  0  0  0  0  0  0  0  0
  -24.8443  -15.0118   21.9481 C   0  0  1  0  0  0  0  0  0  0  0  0
  -30.8181  -24.9850   17.6958 C   0  0  0  0  0  0  0  0  0  0  0  0
  -18.4953  -24.1322   18.6170 C   0  0  0  0  0  0  0  0  0  0  0  0
  -26.6316  -22.5334   14.7291 C   0  0  0  0  0  0  0  0  0  0  0  0
  -24.9206  -23.8248   16.0748 C   0  0  0  0  0  0  0  0  0  0  0  0
  -20.9009  -27.0052   24.0787 C   0  0  0  0  0  0  0  0  0  0  0  0
  -19.7042  -25.0791   23.0175 C   0  0  0  0  0  0  0  0  0  0  0  0
  -18.7330  -27.3731   22.8875 C   0  0  0  0  0  0  0  0  0  0  0  0
  -21.0753  -26.0586   16.5901 C   0  0  0  0  0  0  0  0  0  0  0  0
  -29.1277  -26.2946   19.0332 C   0  0  0  0  0  0  0  0  0  1  0  0
  -29.6628  -24.8715   18.7199 C   0  0  1  0  0  0  0  0  0  0  0  0
  -20.7755  -26.8118   21.5072 C   0  0  1  0  0  0  0  0  0  0  0  0
  -19.4313  -25.2898   18.3062 C   0  0  2  0  0  0  0  0  0  0  0  0
  -25.9899  -22.7312   16.1039 C   0  0  0  0  0  0  0  0  0  0  0  0
  -20.0545  -26.5746   22.8641 C   0  0  0  0  0  0  0  0  0  0  0  0
  -26.0275  -13.2937   20.6322 N   0  0  0  0  0  0  0  0  0  0  0  0
  -26.9781  -22.9677   17.1333 N   0  0  0  0  0  0  0  0  0  0  0  0
  -24.8917  -13.6671   21.2459 N   0  0  0  0  0  0  0  0  0  0  0  0
  -22.5359  -28.5132   21.1468 N   0  0  0  0  0  0  0  0  0  0  0  0
  -25.6891  -17.3392   21.9641 N   0  0  0  0  0  0  0  0  0  0  0  0
  -25.2692  -18.8346   20.1451 N   0  0  0  0  0  0  0  0  0  0  0  0
  -22.6788  -12.9641   21.7143 N   0  0  0  0  0  0  0  0  0  0  0  0
  -24.3810   -9.5274   19.3294 N   0  0  0  0  0  0  0  0  0  0  0  0
  -23.8380  -31.5224   22.7425 N   0  0  0  0  0  0  0  0  0  0  0  0
  -19.9866  -26.4383   20.3381 N   0  0  0  0  0  0  0  0  0  0  0  0
  -20.1384  -24.9923   17.0285 N   0  3  0  0  0  0  0  0  0  0  0  0
  -22.5083  -10.3019   20.4028 O   0  0  0  0  0  0  0  0  0  0  0  0
  -23.3984  -29.3349   23.4088 O   0  0  0  0  0  0  0  0  0  0  0  0
  -20.2902  -29.1235   21.2901 O   0  0  0  0  0  0  0  0  0  0  0  0
  -21.5036  -24.9048   19.4871 O   0  0  0  0  0  0  0  0  0  0  0  0
  -24.3181  -19.1754   22.2173 O   0  0  0  0  0  0  0  0  0  0  0  0
  -29.5360   -9.2010   17.2427 O   0  0  0  0  0  0  0  0  0  0  0  0
  -28.1653  -26.2062   20.0779 O   0  0  0  0  0  0  0  0  0  1  0  0
  -30.0882   -3.8364   18.3920 F   0  0  0  0  0  0  0  0  0  0  0  0
  -31.9463   -8.1823   18.1347 F   0  0  0  0  0  0  0  0  0  0  0  0
  1  2  1  0  0  0  0
  1  5  2  0  0  0  0
  2  6  2  0  0  0  0
  3  8  2  0  0  0  0
  3 17  1  0  0  0  0
  4  9  1  0  0  0  0
  4 17  2  0  0  0  0
  5 19  1  0  0  0  0
  6 21  1  0  0  0  0
  7 10  2  0  0  0  0
  7 20  1  0  0  0  0
  8 24  1  0  0  0  0
  9 24  2  0  0  0  0
 10 25  1  0  0  0  0
 11 12  2  0  0  0  0
 11 26  1  0  0  0  0
 12 27  1  0  0  0  0
 13 22  1  0  0  0  0
 13 25  2  0  0  0  0
 14 23  1  0  0  0  0
 14 30  2  0  0  0  0
 15 27  2  0  0  0  0
 15 28  1  0  0  0  0
 16 23  2  0  0  0  0
 16 69  1  0  0  0  0
 17 29  1  0  0  0  0
 18 29  1  0  0  0  0
 18 31  2  0  0  0  0
 18 32  1  0  0  0  0
 19 21  2  0  0  0  0
 19 37  1  0  0  0  0
 20 22  2  0  0  0  0
 20 38  1  0  0  0  0
 21 50  1  0  0  0  0
 22 39  1  0  0  0  0
 23 63  1  0  0  0  0
 24 84  1  0  0  0  0
 25 85  1  0  0  0  0
 26 28  2  0  0  0  0
 26 84  1  0  0  0  0
 27 86  1  0  0  0  0
 28 87  1  0  0  0  0
 29 68  2  0  0  0  0
 30 51  1  0  0  0  0
 30 69  1  0  0  0  0
 31 70  1  0  0  0  0
 31 74  1  0  0  0  0
 32 75  1  0  0  0  0
 32 79  2  0  0  0  0
 33 52  1  0  0  0  0
 33 76  1  0  0  0  0
 33 80  2  0  0  0  0
 34 64  1  0  0  0  0
 34 71  1  0  0  0  0
 34 81  2  0  0  0  0
 35 65  1  0  0  0  0
 35 77  1  0  0  0  0
 35 82  2  0  0  0  0
 36 72  1  0  0  0  0
 36 73  1  0  0  0  0
 36 83  2  0  0  0  0
 37 40  1  0  0  0  0
 38 52  1  0  0  0  0
 39 71  1  0  0  0  0
 40 42  1  0  0  0  0
 41 43  1  0  0  0  0
 41 46  1  0  0  0  0
 42 50  1  0  0  0  0
 43 53  1  0  0  0  0
 44 47  1  0  0  0  0
 44 51  1  0  0  0  0
 45 48  1  0  0  0  0
 45 51  1  0  0  0  0
 46 72  1  0  0  0  0
 47 73  1  0  0  0  0
 48 73  1  0  0  0  0
 49 53  1  0  0  0  0
 49 72  1  0  0  0  0
 50 76  1  0  0  0  0
 52 71  1  0  0  0  0
 53 70  1  0  0  0  0
 54 63  1  0  0  0  0
 55 65  1  0  0  0  0
 56 66  1  0  0  0  0
 57 66  1  0  0  0  0
 58 67  1  0  0  0  0
 59 67  1  0  0  0  0
 60 67  1  0  0  0  0
 61 78  1  0  0  0  0
 62 63  1  0  0  0  0
 62 85  1  0  0  0  0
 64 67  1  0  0  0  0
 64 77  1  0  0  0  0
 65 78  1  0  0  0  0
 66 69  1  0  0  0  0
 68 70  1  0  0  0  0
M  CHG  1  78   1
M  ISO  4  36 100  62 101  73 100  85 101
M  END
> <Batch ID>
0121

> <Smiles>
CNC(C)C(=O)NC(C(=O)N1Cc2cc([101O:1][101CH2:1]C(C)c3cc(C4CC[100N:0]([100C:0](=O)N5CCCC(n6nc(-c7ccc(Oc8ccc(F)cc8F)cc7)c(C(N)=O)c6N)C5)CC4)n(C(C)C)c3)ccc2CC1C(=O)NC1CCCc2ccccc21)C(C)(C)C

> <Shape>
0.240

> <Color>
0.081

> <Negative vol penalty>
0.000

$$$$

  -OEChem-04052320253D

 87 96  0     1  0  0  0  0  0999 V2000
  -29.5017  -31.7780   25.9160 C   0  0  0  0  0  0  0  0  0  0  0  0
  -29.2777  -31.0166   24.7735 C   0  0  0  0  0  0  0  0  0  0  0  0
  -24.7382   -8.7248   21.5250 C   0  0  0  0  0  0  0  0  0  0  0  0
  -23.1315  -10.3972   20.8477 C   0  0  0  0  0  0  0  0  0  0  0  0
  -28.4963  -31.9092   26.8730 C   0  0  0  0  0  0  0  0  0  0  0  0
  -28.0485  -30.3850   24.5878 C   0  0  0  0  0  0  0  0  0  0  0  0
  -26.2706  -30.9405   19.8787 C   0  0  0  0  0  0  0  0  0  0  0  0
  -23.8009   -8.1798   22.4026 C   0  0  0  0  0  0  0  0  0  0  0  0
  -22.1942   -9.8522   21.7252 C   0  0  0  0  0  0  0  0  0  0  0  0
  -26.8273  -30.1323   18.8884 C   0  0  0  0  0  0  0  0  0  0  0  0
  -21.0983   -6.1562   22.2186 C   0  0  0  0  0  0  0  0  0  0  0  0
  -20.9573   -4.7687   22.2366 C   0  0  0  0  0  0  0  0  0  0  0  0
  -24.9269  -28.6538   19.0353 C   0  0  0  0  0  0  0  0  0  0  0  0
  -25.5368  -17.9991   18.7172 C   0  0  0  0  0  0  0  0  0  0  0  0
  -21.5700   -4.7367   24.5734 C   0  0  0  0  0  0  0  0  0  0  0  0
  -27.3111  -20.0719   18.6852 C   0  0  0  0  0  0  0  0  0  0  0  0
  -24.4035   -9.8336   20.7476 C   0  0  0  0  0  0  0  0  0  0  0  0
  -25.5772  -10.0492   18.4929 C   0  0  0  0  0  0  0  0  0  0  0  0
  -27.2507  -31.2869   26.6944 C   0  0  0  0  0  0  0  0  0  0  0  0
  -25.0410  -30.6050   20.4634 C   0  0  0  0  0  0  0  0  0  0  0  0
  -27.0259  -30.5069   25.5439 C   0  0  0  0  0  0  0  0  0  0  0  0
  -24.3555  -29.4608   20.0309 C   0  0  0  0  0  0  0  0  0  0  0  0
  -26.0062  -20.3189   18.2901 C   0  0  0  0  0  0  0  0  0  0  0  0
  -25.1084  -19.2574   18.3093 C   0  0  0  0  0  0  0  0  0  0  0  0
  -22.5289   -8.7435   22.5026 C   0  0  0  0  0  0  0  0  0  0  0  0
  -26.1569  -28.9872   18.4686 C   0  0  0  0  0  0  0  0  0  0  0  0
  -21.4752   -6.8341   23.3780 C   0  0  0  0  0  0  0  0  0  0  0  0
  -21.1931   -4.0589   23.4140 C   0  0  0  0  0  0  0  0  0  0  0  0
  -21.7111   -6.1243   24.5554 C   0  0  0  0  0  0  0  0  0  0  0  0
  -25.3714  -10.3974   19.8413 C   0  0  0  0  0  0  0  0  0  0  0  0
  -26.8628  -17.8559   19.0929 C   0  0  0  0  0  0  0  0  0  0  0  0
  -26.6008  -10.8664   18.0796 C   0  0  0  0  0  0  0  0  0  0  0  0
  -24.9032   -9.0743   17.6861 C   0  0  0  0  0  0  0  0  0  0  0  0
  -24.0802  -29.8761   23.4043 C   0  0  0  0  0  0  0  0  0  0  0  0
  -21.1378  -29.9457   22.0407 C   0  0  0  0  0  0  0  0  0  0  0  0
  -19.2487  -29.6764   19.2113 C   0  0  0  0  0  0  0  0  0  0  0  0
  -28.5671  -16.1983   19.9262 C   0  0  0  0  0  0  0  0  0  0  0  0
  -26.2111  -31.4188   27.7789 C   0  0  0  0  0  0  0  0  0  0  0  0
  -24.4411  -31.5017   21.5114 C   0  0  0  0  0  0  0  0  0  0  0  0
  -23.0230  -29.0675   20.6124 C   0  0  0  0  0  0  0  0  0  0  0  0
  -24.8069  -31.0249   27.3278 C   0  0  0  0  0  0  0  0  0  0  0  0
  -30.4490  -13.1814   19.7432 C   0  0  0  0  0  0  0  0  0  0  0  0
  -24.8425  -29.7060   26.5622 C   0  0  0  0  0  0  0  0  0  0  0  0
  -29.3794  -12.0939   19.6187 C   0  0  0  0  0  0  0  0  0  0  0  0
  -25.7931  -22.6891   19.0142 C   0  0  0  0  0  0  0  0  0  0  0  0
  -26.4090  -22.1258   16.6288 C   0  0  0  0  0  0  0  0  0  0  0  0
  -30.0035  -14.3117   20.6693 C   0  0  0  0  0  0  0  0  0  0  0  0
  -27.6325  -13.8197   20.2161 C   0  0  0  0  0  0  0  0  0  0  0  0
  -25.4648  -24.1127   18.5830 C   0  0  0  0  0  0  0  0  0  0  0  0
  -26.0756  -23.5537   16.2158 C   0  0  0  0  0  0  0  0  0  0  0  0
  -25.5988  -21.6915   17.8608 C   0  0  0  0  0  0  0  0  0  0  0  0
  -25.6972  -29.8268   25.2948 C   0  0  1  0  0  0  0  0  0  0  0  0
  -23.4295  -30.7866   22.4018 C   0  0  1  0  0  0  0  0  0  0  0  0
  -28.0094  -12.6913   19.2423 C   0  0  2  0  0  0  0  0  0  0  0  0
  -23.6860  -19.4454   17.8972 C   0  0  0  0  0  0  0  0  0  0  0  0
  -16.8689  -29.7425   18.4179 C   0  0  0  0  0  0  0  0  0  0  0  0
  -28.4725  -26.5806   17.7346 C   0  0  0  0  0  0  0  0  0  0  0  0
  -20.6873  -27.1456   23.1662 C   0  0  0  0  0  0  0  0  0  0  0  0
  -18.7595  -26.8972   21.5883 C   0  0  0  0  0  0  0  0  0  0  0  0
  -18.7130  -28.6706   23.3419 C   0  0  0  0  0  0  0  0  0  0  0  0
  -19.7770  -31.9987   17.4544 C   0  0  0  0  0  0  0  0  0  0  0  0
  -26.1140  -25.9215   16.9950 C   0  0  0  0  0  0  0  0  0  0  0  0
  -20.2533  -28.9330   21.3543 C   0  0  1  0  0  0  0  0  0  0  0  0
  -18.1368  -30.5479   18.6558 C   0  0  2  0  0  0  0  0  0  0  0  0
  -26.9765  -26.8412   17.8532 C   0  0  2  0  0  0  0  0  0  1  0  0
  -19.6293  -27.9177   22.3529 C   0  0  0  0  0  0  0  0  0  0  0  0
  -27.7641  -18.8634   19.0875 N   0  0  0  0  0  0  0  0  0  0  0  0
  -26.1981  -11.3606   20.2571 N   0  0  0  0  0  0  0  0  0  0  0  0
  -26.9333  -11.6246   19.1635 N   0  0  0  0  0  0  0  0  0  0  0  0
  -22.4807  -29.9730   21.6388 N   0  0  0  0  0  0  0  0  0  0  0  0
  -28.7003  -14.8313   20.2490 N   0  0  0  0  0  0  0  0  0  0  0  0
  -27.2401  -11.0031   16.8985 N   0  0  0  0  0  0  0  0  0  0  0  0
  -23.8747   -8.3209   18.2682 N   0  0  0  0  0  0  0  0  0  0  0  0
  -27.2896  -16.5703   19.5086 N   0  0  0  0  0  0  0  0  0  0  0  0
  -24.9635  -30.5144   24.2540 N   0  0  0  0  0  0  0  0  0  0  0  0
  -19.2741  -29.6979   20.5897 N   0  0  0  0  0  0  0  0  0  0  0  0
  -26.3034  -24.5006   17.3794 N   0  3  0  0  0  0  0  0  0  0  0  0
  -18.5548  -31.1592   17.3625 N   0  3  0  0  0  0  0  0  0  0  0  0
  -25.2152   -8.8656   16.4891 O   0  0  0  0  0  0  0  0  0  0  0  0
  -23.8005  -28.6830   23.4078 O   0  0  0  0  0  0  0  0  0  0  0  0
  -20.6533  -30.6901   22.8968 O   0  0  0  0  0  0  0  0  0  0  0  0
  -20.0155  -29.0374   18.4942 O   0  0  0  0  0  0  0  0  0  0  0  0
  -29.5229  -16.9758   19.9877 O   0  0  0  0  0  0  0  0  0  0  0  0
  -21.6140   -8.2118   23.3587 O   0  0  0  0  0  0  0  0  0  0  0  0
  -26.6983  -28.1962   17.5027 O   0  0  0  0  0  0  0  0  0  1  0  0
  -21.0562   -2.7266   23.4315 F   0  0  0  0  0  0  0  0  0  0  0  0
  -22.0723   -6.7701   25.6726 F   0  0  0  0  0  0  0  0  0  0  0  0
  1  2  1  0  0  0  0
  1  5  2  0  0  0  0
  2  6  2  0  0  0  0
  3  8  2  0  0  0  0
  3 17  1  0  0  0  0
  4  9  1  0  0  0  0
  4 17  2  0  0  0  0
  5 19  1  0  0  0  0
  6 21  1  0  0  0  0
  7 10  2  0  0  0  0
  7 20  1  0  0  0  0
  8 25  1  0  0  0  0
  9 25  2  0  0  0  0
 10 26  1  0  0  0  0
 11 12  2  0  0  0  0
 11 27  1  0  0  0  0
 12 28  1  0  0  0  0
 13 22  1  0  0  0  0
 13 26  2  0  0  0  0
 14 24  1  0  0  0  0
 14 31  2  0  0  0  0
 15 28  2  0  0  0  0
 15 29  1  0  0  0  0
 16 23  1  0  0  0  0
 16 67  2  0  0  0  0
 17 30  1  0  0  0  0
 18 30  1  0  0  0  0
 18 32  2  0  0  0  0
 18 33  1  0  0  0  0
 19 21  2  0  0  0  0
 19 38  1  0  0  0  0
 20 22  2  0  0  0  0
 20 39  1  0  0  0  0
 21 52  1  0  0  0  0
 22 40  1  0  0  0  0
 23 24  2  0  0  0  0
 23 51  1  0  0  0  0
 24 55  1  0  0  0  0
 25 84  1  0  0  0  0
 26 85  1  0  0  0  0
 27 29  2  0  0  0  0
 27 84  1  0  0  0  0
 28 86  1  0  0  0  0
 29 87  1  0  0  0  0
 30 68  2  0  0  0  0
 31 67  1  0  0  0  0
 31 74  1  0  0  0  0
 32 69  1  0  0  0  0
 32 72  1  0  0  0  0
 33 73  1  0  0  0  0
 33 79  2  0  0  0  0
 34 53  1  0  0  0  0
 34 75  1  0  0  0  0
 34 80  2  0  0  0  0
 35 63  1  0  0  0  0
 35 70  1  0  0  0  0
 35 81  2  0  0  0  0
 36 64  1  0  0  0  0
 36 76  1  0  0  0  0
 36 82  2  0  0  0  0
 37 71  1  0  0  0  0
 37 74  1  0  0  0  0
 37 83  2  0  0  0  0
 38 41  1  0  0  0  0
 39 53  1  0  0  0  0
 40 70  1  0  0  0  0
 41 43  1  0  0  0  0
 42 44  1  0  0  0  0
 42 47  1  0  0  0  0
 43 52  1  0  0  0  0
 44 54  1  0  0  0  0
 45 49  1  0  0  0  0
 45 51  1  0  0  0  0
 46 50  1  0  0  0  0
 46 51  1  0  0  0  0
 47 71  1  0  0  0  0
 48 54  1  0  0  0  0
 48 71  1  0  0  0  0
 49 77  1  0  0  0  0
 50 77  1  0  0  0  0
 52 75  1  0  0  0  0
 53 70  1  0  0  0  0
 54 69  1  0  0  0  0
 56 64  1  0  0  0  0
 57 65  1  0  0  0  0
 58 66  1  0  0  0  0
 59 66  1  0  0  0  0
 60 66  1  0  0  0  0
 61 78  1  0  0  0  0
 62 65  1  0  0  0  0
 62 77  1  0  0  0  0
 63 66  1  0  0  0  0
 63 76  1  0  0  0  0
 64 78  1  0  0  0  0
 65 85  1  0  0  0  0
 68 69  1  0  0  0  0
M  CHG  2  77   1  78   1
M  ISO  4  37 100  65 101  74 100  85 101
M  END
> <Batch ID>
0121

> <Smiles>
CNC(C)C(=O)NC(C(=O)N1Cc2cc([101O:1][101CH:1](C)CN3CCC(c4cnc([100NH:0][100C:0](=O)N5CCCC(n6nc(-c7ccc(Oc8ccc(F)cc8F)cc7)c(C(N)=O)c6N)C5)cc4C)CC3)ccc2CC1C(=O)NC1CCCc2ccccc21)C(C)(C)C

> <Shape>
0.282

> <Color>
0.084

> <Negative vol penalty>
0.000

$$$$

  -OEChem-04052320253D

 89 98  0     1  0  0  0  0  0999 V2000
  -32.0167  -21.1463   14.5157 C   0  0  0  0  0  0  0  0  0  0  0  0
  -31.7095  -21.2869   15.8653 C   0  0  0  0  0  0  0  0  0  0  0  0
  -23.0746   -9.8688   19.9422 C   0  0  0  0  0  0  0  0  0  0  0  0
  -23.8384   -9.8757   22.2343 C   0  0  0  0  0  0  0  0  0  0  0  0
  -33.0311  -20.2756   14.1199 C   0  0  0  0  0  0  0  0  0  0  0  0
  -32.4159  -20.5559   16.8198 C   0  0  0  0  0  0  0  0  0  0  0  0
  -33.7767  -23.3688   20.8049 C   0  0  0  0  0  0  0  0  0  0  0  0
  -22.3319   -8.7151   20.1931 C   0  0  0  0  0  0  0  0  0  0  0  0
  -23.0955   -8.7220   22.4853 C   0  0  0  0  0  0  0  0  0  0  0  0
  -32.7940  -23.6452   21.7545 C   0  0  0  0  0  0  0  0  0  0  0  0
  -19.8689   -7.9222   23.0930 C   0  0  0  0  0  0  0  0  0  0  0  0
  -19.1139   -7.8816   24.2652 C   0  0  0  0  0  0  0  0  0  0  0  0
  -27.0785  -19.1277   21.2446 C   0  0  0  0  0  0  0  0  0  0  0  0
  -33.6688  -21.8919   23.1615 C   0  0  0  0  0  0  0  0  0  0  0  0
  -20.3577   -5.9447   24.9991 C   0  0  0  0  0  0  0  0  0  0  0  0
  -28.3206  -17.9644   19.7702 C   0  0  0  0  0  0  0  0  0  0  0  0
  -23.8279  -10.4490   20.9628 C   0  0  0  0  0  0  0  0  0  0  0  0
  -27.0479  -18.4336   20.0099 C   0  0  0  0  0  0  0  0  0  0  0  0
  -24.1681  -12.9744   20.8428 C   0  0  0  0  0  0  0  0  0  0  0  0
  -33.7568  -19.5408   15.0707 C   0  0  0  0  0  0  0  0  0  0  0  0
  -34.7077  -22.3428   21.0220 C   0  0  0  0  0  0  0  0  0  0  0  0
  -33.4401  -19.6736   16.4362 C   0  0  0  0  0  0  0  0  0  0  0  0
  -34.6639  -21.6061   22.2143 C   0  0  0  0  0  0  0  0  0  0  0  0
  -22.3423   -8.1418   21.4647 C   0  0  0  0  0  0  0  0  0  0  0  0
  -32.7381  -22.9048   22.9317 C   0  0  0  0  0  0  0  0  0  0  0  0
  -20.8682   -6.9740   22.8738 C   0  0  0  0  0  0  0  0  0  0  0  0
  -19.3583   -6.8929   25.2182 C   0  0  0  0  0  0  0  0  0  0  0  0
  -21.1126   -5.9853   23.8269 C   0  0  0  0  0  0  0  0  0  0  0  0
  -24.5959  -11.6404   20.7040 C   0  0  0  0  0  0  0  0  0  0  0  0
  -28.3691  -19.0616   21.7217 C   0  0  0  0  0  0  0  0  0  0  0  0
  -25.2592  -13.7246   20.4778 C   0  0  0  0  0  0  0  0  0  0  0  0
  -25.9267  -18.2315   19.1390 C   0  0  0  0  0  0  0  0  0  0  0  0
  -22.8980  -13.4894   21.2639 C   0  0  0  0  0  0  0  0  0  0  0  0
  -35.4279  -19.6189   19.5505 C   0  0  0  0  0  0  0  0  0  0  0  0
  -37.8454  -19.5434   21.7120 C   0  0  0  0  0  0  0  0  0  0  0  0
  -39.0531  -20.5414   24.7439 C   0  0  0  0  0  0  0  0  0  0  0  0
  -30.7427  -14.7468   20.6573 C   0  0  0  0  0  0  0  0  0  0  0  0
  -34.8128  -18.5766   14.5914 C   0  0  0  0  0  0  0  0  0  0  0  0
  -35.7781  -22.0748   19.9999 C   0  0  0  0  0  0  0  0  0  0  0  0
  -35.6527  -20.5077   22.5045 C   0  0  0  0  0  0  0  0  0  0  0  0
  -35.7657  -18.1198   15.6930 C   0  0  0  0  0  0  0  0  0  0  0  0
  -29.6025  -12.3622   18.2718 C   0  0  0  0  0  0  0  0  0  0  0  0
  -28.7965  -19.6240   25.4886 C   0  0  0  0  0  0  0  0  0  0  0  0
  -34.9861  -17.7245   16.9432 C   0  0  0  0  0  0  0  0  0  0  0  0
  -28.2670  -19.0038   24.1985 C   0  0  0  0  0  0  0  0  0  0  0  0
  -28.1659  -12.0675   18.7071 C   0  0  0  0  0  0  0  0  0  0  0  0
  -30.5215  -12.5833   19.4712 C   0  0  0  0  0  0  0  0  0  0  0  0
  -28.6216  -13.3129   20.8612 C   0  0  0  0  0  0  0  0  0  0  0  0
  -28.6757  -21.1406   25.4759 C   0  0  0  0  0  0  0  0  0  0  0  0
  -28.8276  -21.1464   22.9712 C   0  0  0  0  0  0  0  0  0  0  0  0
  -34.2006  -18.9165   17.5033 C   0  0  1  0  0  0  0  0  0  0  0  0
  -28.9535  -19.6179   22.9681 C   0  0  2  0  0  0  0  0  0  0  0  0
  -36.3567  -20.6665   20.0958 C   0  0  1  0  0  0  0  0  0  0  0  0
  -27.6456  -13.1380   19.6851 C   0  0  2  0  0  0  0  0  0  0  0  0
  -24.5928  -18.8117   19.5464 C   0  0  0  0  0  0  0  0  0  0  0  0
  -41.0424  -20.2873   26.2525 C   0  0  0  0  0  0  0  0  0  0  0  0
  -36.8963  -16.7495   22.4888 C   0  0  0  0  0  0  0  0  0  0  0  0
  -38.2651  -16.9408   24.5764 C   0  0  0  0  0  0  0  0  0  0  0  0
  -39.3800  -17.0054   22.3458 C   0  0  0  0  0  0  0  0  0  0  0  0
  -39.6312  -23.4428   24.6628 C   0  0  0  0  0  0  0  0  0  0  0  0
  -30.5248  -18.0488   20.9339 C   0  0  0  0  0  0  0  0  0  0  0  0
  -30.8093  -16.8971   21.8945 C   0  0  0  0  0  0  0  0  0  0  0  0
  -29.4103  -23.1954   24.2705 C   0  0  0  0  0  0  0  0  0  0  0  0
  -30.5365  -23.6838   23.3810 C   0  0  0  0  0  0  0  0  0  1  0  0
  -38.0151  -18.9927   23.1073 C   0  0  1  0  0  0  0  0  0  0  0  0
  -40.3971  -21.1165   25.1530 C   0  0  2  0  0  0  0  0  0  0  0  0
  -38.1191  -17.4414   23.1236 C   0  0  0  0  0  0  0  0  0  0  0  0
  -25.8601  -11.5454   20.2836 N   0  0  0  0  0  0  0  0  0  0  0  0
  -29.1153  -18.3524   20.8171 N   0  0  0  0  0  0  0  0  0  0  0  0
  -26.2361  -12.8292   20.1549 N   0  0  0  0  0  0  0  0  0  0  0  0
  -36.6765  -20.2794   21.4714 N   0  0  0  0  0  0  0  0  0  0  0  0
  -29.9718  -13.6112   20.3584 N   0  0  0  0  0  0  0  0  0  0  0  0
  -25.4687  -15.0562   20.4048 N   0  0  0  0  0  0  0  0  0  0  0  0
  -21.8872  -12.5796   21.6027 N   0  0  0  0  0  0  0  0  0  0  0  0
  -35.0821  -19.8080   18.2260 N   0  0  0  0  0  0  0  0  0  0  0  0
  -39.1715  -19.6751   23.6777 N   0  0  0  0  0  0  0  0  0  0  0  0
  -30.1444  -15.6751   21.5005 N   0  0  0  0  0  0  0  0  0  0  0  0
  -29.3901  -21.7109   24.2652 N   0  3  1  0  0  0  0  0  0  0  0  0
  -40.2336  -22.5116   25.6511 N   0  3  0  0  0  0  0  0  0  0  0  0
  -25.9462  -17.6083   18.0619 O   0  0  0  0  0  0  0  0  0  0  0  0
  -22.6611  -14.7199   21.3219 O   0  0  0  0  0  0  0  0  0  0  0  0
  -35.0538  -18.7058   20.2771 O   0  0  0  0  0  0  0  0  0  0  0  0
  -38.7211  -19.3346   20.8688 O   0  0  0  0  0  0  0  0  0  0  0  0
  -38.0038  -20.8288   25.3155 O   0  0  0  0  0  0  0  0  0  0  0  0
  -31.8778  -14.9230   20.2018 O   0  0  0  0  0  0  0  0  0  0  0  0
  -21.6174   -7.0162   21.7100 O   0  0  0  0  0  0  0  0  0  0  0  0
  -31.7795  -23.1721   23.8598 O   0  0  0  0  0  0  0  0  0  1  0  0
  -18.6343   -6.8549   26.3445 F   0  0  0  0  0  0  0  0  0  0  0  0
  -22.0721   -5.0724   23.6225 F   0  0  0  0  0  0  0  0  0  0  0  0
  1  2  1  0  0  0  0
  1  5  2  0  0  0  0
  2  6  2  0  0  0  0
  3  8  2  0  0  0  0
  3 17  1  0  0  0  0
  4  9  1  0  0  0  0
  4 17  2  0  0  0  0
  5 20  1  0  0  0  0
  6 22  1  0  0  0  0
  7 10  2  0  0  0  0
  7 21  1  0  0  0  0
  8 24  1  0  0  0  0
  9 24  2  0  0  0  0
 10 25  1  0  0  0  0
 11 12  2  0  0  0  0
 11 26  1  0  0  0  0
 12 27  1  0  0  0  0
 13 18  1  0  0  0  0
 13 30  2  0  0  0  0
 14 23  1  0  0  0  0
 14 25  2  0  0  0  0
 15 27  2  0  0  0  0
 15 28  1  0  0  0  0
 16 18  2  0  0  0  0
 16 69  1  0  0  0  0
 17 29  1  0  0  0  0
 18 32  1  0  0  0  0
 19 29  1  0  0  0  0
 19 31  2  0  0  0  0
 19 33  1  0  0  0  0
 20 22  2  0  0  0  0
 20 38  1  0  0  0  0
 21 23  2  0  0  0  0
 21 39  1  0  0  0  0
 22 51  1  0  0  0  0
 23 40  1  0  0  0  0
 24 86  1  0  0  0  0
 25 87  1  0  0  0  0
 26 28  2  0  0  0  0
 26 86  1  0  0  0  0
 27 88  1  0  0  0  0
 28 89  1  0  0  0  0
 29 68  2  0  0  0  0
 30 52  1  0  0  0  0
 30 69  1  0  0  0  0
 31 70  1  0  0  0  0
 31 73  1  0  0  0  0
 32 55  1  0  0  0  0
 32 80  2  0  0  0  0
 33 74  1  0  0  0  0
 33 81  2  0  0  0  0
 34 53  1  0  0  0  0
 34 75  1  0  0  0  0
 34 82  2  0  0  0  0
 35 65  1  0  0  0  0
 35 71  1  0  0  0  0
 35 83  2  0  0  0  0
 36 66  1  0  0  0  0
 36 76  1  0  0  0  0
 36 84  2  0  0  0  0
 37 72  1  0  0  0  0
 37 77  1  0  0  0  0
 37 85  2  0  0  0  0
 38 41  1  0  0  0  0
 39 53  1  0  0  0  0
 40 71  1  0  0  0  0
 41 44  1  0  0  0  0
 42 46  1  0  0  0  0
 42 47  1  0  0  0  0
 43 45  1  0  0  0  0
 43 49  1  0  0  0  0
 44 51  1  0  0  0  0
 45 52  1  0  0  0  0
 46 54  1  0  0  0  0
 47 72  1  0  0  0  0
 48 54  1  0  0  0  0
 48 72  1  0  0  0  0
 49 78  1  0  0  0  0
 50 52  1  0  0  0  0
 50 78  1  0  0  0  0
 51 75  1  0  0  0  0
 53 71  1  0  0  0  0
 54 70  1  0  0  0  0
 56 66  1  0  0  0  0
 57 67  1  0  0  0  0
 58 67  1  0  0  0  0
 59 67  1  0  0  0  0
 60 79  1  0  0  0  0
 61 62  1  0  0  0  0
 61 69  1  0  0  0  0
 62 77  1  0  0  0  0
 63 64  1  0  0  0  0
 63 78  1  0  0  0  0
 64 87  1  0  0  0  0
 65 67  1  0  0  0  0
 65 76  1  0  0  0  0
 66 79  1  0  0  0  0
 68 70  1  0  0  0  0
M  CHG  2  78   1  79   1
M  ISO  4  37 100  64 101  77 100  87 101
M  END
> <Batch ID>
0121

> <Smiles>
CNC(C)C(=O)NC(C(=O)N1Cc2cc([101O:1][101CH2:1]CN3CCCC(c4cc(C(C)=O)cn4CC[100NH:0][100C:0](=O)N4CCCC(n5nc(-c6ccc(Oc7ccc(F)cc7F)cc6)c(C(N)=O)c5N)C4)C3)ccc2CC1C(=O)NC1CCCc2ccccc21)C(C)(C)C

> <Shape>
0.186

> <Color>
0.184

> <Negative vol penalty>
0.000

$$$$

  -OEChem-04052320253D

 86 94  0     1  0  0  0  0  0999 V2000
  -32.4786  -12.7578   21.3207 C   0  0  0  0  0  0  0  0  0  0  0  0
  -32.0864  -14.0815   21.4917 C   0  0  0  0  0  0  0  0  0  0  0  0
  -22.1272  -24.7596   24.3757 C   0  0  0  0  0  0  0  0  0  0  0  0
  -20.1159  -25.9122   25.0563 C   0  0  0  0  0  0  0  0  0  0  0  0
  -31.6597  -11.8745   20.6184 C   0  0  0  0  0  0  0  0  0  0  0  0
  -30.8755  -14.5231   20.9595 C   0  0  0  0  0  0  0  0  0  0  0  0
  -25.5527  -19.1350   22.2691 C   0  0  0  0  0  0  0  0  0  0  0  0
  -25.3650  -28.2878   18.9602 C   0  0  0  0  0  0  0  0  0  0  0  0
  -26.4011  -26.7063   20.4643 C   0  0  0  0  0  0  0  0  0  0  0  0
  -25.6684  -29.3251   19.8419 C   0  0  0  0  0  0  0  0  0  0  0  0
  -26.7046  -27.7437   21.3460 C   0  0  0  0  0  0  0  0  0  0  0  0
  -22.0153  -23.9131   25.4787 C   0  0  0  0  0  0  0  0  0  0  0  0
  -20.0040  -25.0656   26.1592 C   0  0  0  0  0  0  0  0  0  0  0  0
  -24.8413  -20.1624   21.6509 C   0  0  0  0  0  0  0  0  0  0  0  0
  -22.0595  -21.2170   27.9167 C   0  0  0  0  0  0  0  0  0  0  0  0
  -22.2572  -19.8519   27.7092 C   0  0  0  0  0  0  0  0  0  0  0  0
  -23.4711  -18.5277   20.5243 C   0  0  0  0  0  0  0  0  0  0  0  0
  -20.4134  -19.8221   26.1483 C   0  0  0  0  0  0  0  0  0  0  0  0
  -21.1776  -25.7592   24.1646 C   0  0  0  0  0  0  0  0  0  0  0  0
  -20.7461  -26.4376   21.7435 C   0  0  0  0  0  0  0  0  0  0  0  0
  -30.4337  -12.3031   20.0856 C   0  0  0  0  0  0  0  0  0  0  0  0
  -25.2352  -17.7938   22.0106 C   0  0  0  0  0  0  0  0  0  0  0  0
  -30.0401  -13.6451   20.2483 C   0  0  0  0  0  0  0  0  0  0  0  0
  -24.1783  -17.4851   21.1424 C   0  0  0  0  0  0  0  0  0  0  0  0
  -25.7313  -26.9783   19.2714 C   0  0  0  0  0  0  0  0  0  0  0  0
  -26.3382  -29.0531   21.0348 C   0  0  0  0  0  0  0  0  0  0  0  0
  -20.9537  -24.0661   26.3704 C   0  0  0  0  0  0  0  0  0  0  0  0
  -23.8022  -19.8588   20.7762 C   0  0  0  0  0  0  0  0  0  0  0  0
  -21.0386  -21.8846   27.2401 C   0  0  0  0  0  0  0  0  0  0  0  0
  -21.4343  -19.1545   26.8250 C   0  0  0  0  0  0  0  0  0  0  0  0
  -20.2156  -21.1872   26.3558 C   0  0  0  0  0  0  0  0  0  0  0  0
  -21.2929  -26.6344   23.0257 C   0  0  0  0  0  0  0  0  0  0  0  0
  -21.1376  -27.5438   21.0298 C   0  0  0  0  0  0  0  0  0  0  0  0
  -19.9549  -25.3519   21.2425 C   0  0  0  0  0  0  0  0  0  0  0  0
  -26.7868  -15.3250   20.7451 C   0  0  0  0  0  0  0  0  0  0  0  0
  -24.1317  -13.6941   21.6467 C   0  0  0  0  0  0  0  0  0  0  0  0
  -20.8068  -13.7678   22.4124 C   0  0  0  0  0  0  0  0  0  0  0  0
  -25.8673  -31.2878   22.0720 C   0  0  0  0  0  0  0  0  0  0  0  0
  -29.6044  -11.3236   19.2933 C   0  0  0  0  0  0  0  0  0  0  0  0
  -25.9948  -16.6974   22.7060 C   0  0  0  0  0  0  0  0  0  0  0  0
  -23.7846  -16.0617   20.8470 C   0  0  0  0  0  0  0  0  0  0  0  0
  -28.1620  -11.7769   19.0833 C   0  0  0  0  0  0  0  0  0  0  0  0
  -22.3055  -32.1488   21.5567 C   0  0  0  0  0  0  0  0  0  0  0  0
  -28.1201  -13.2354   18.6384 C   0  0  0  0  0  0  0  0  0  0  0  0
  -21.5919  -30.8305   21.8501 C   0  0  0  0  0  0  0  0  0  0  0  0
  -23.6123  -32.2709   22.3345 C   0  0  0  0  0  0  0  0  0  0  0  0
  -23.8314  -29.8035   22.4082 C   0  0  0  0  0  0  0  0  0  0  0  0
  -28.7223  -14.1556   19.7071 C   0  0  1  0  0  0  0  0  0  0  0  0
  -25.9212  -15.3617   21.9727 C   0  0  1  0  0  0  0  0  0  0  0  0
  -22.5321  -29.6387   21.6057 C   0  0  1  0  0  0  0  0  0  0  0  0
  -18.9040  -12.2714   23.0738 C   0  0  0  0  0  0  0  0  0  0  0  0
  -28.9809  -30.8577   21.7005 C   0  0  0  0  0  0  0  0  0  0  0  0
  -27.8952  -30.7431   23.9658 C   0  0  0  0  0  0  0  0  0  0  0  0
  -23.9225  -12.6935   18.7718 C   0  0  0  0  0  0  0  0  0  0  0  0
  -21.5600  -12.0184   19.2523 C   0  0  0  0  0  0  0  0  0  0  0  0
  -23.4370  -10.9673   20.5151 C   0  0  0  0  0  0  0  0  0  0  0  0
  -20.4220  -15.1963   24.9757 C   0  0  0  0  0  0  0  0  0  0  0  0
  -25.4049  -25.8626   18.3230 C   0  0  0  0  0  0  0  0  0  0  0  0
  -24.1415  -23.7330   17.9956 C   0  0  0  0  0  0  0  0  0  0  0  0
  -23.8089  -22.0749   19.9133 C   0  0  0  0  0  0  0  0  0  1  0  0
  -22.8070  -13.3672   21.0006 C   0  0  1  0  0  0  0  0  0  0  0  0
  -20.0261  -13.1705   23.5692 C   0  0  2  0  0  0  0  0  0  0  0  0
  -27.9713  -30.1254   22.5755 C   0  0  0  0  0  0  0  0  0  0  0  0
  -23.2072  -22.7378   18.6783 C   0  0  1  0  0  0  0  0  0  0  0  0
  -22.9401  -12.2885   19.8888 C   0  0  0  0  0  0  0  0  0  0  0  0
  -21.9796  -27.7758   23.1238 N   0  0  0  0  0  0  0  0  0  0  0  0
  -21.8670  -28.3061   21.8941 N   0  0  0  0  0  0  0  0  0  0  0  0
  -24.5614  -15.0249   21.5466 N   0  0  0  0  0  0  0  0  0  0  0  0
  -24.4713  -31.1017   22.1397 N   0  0  0  0  0  0  0  0  0  0  0  0
  -20.9256  -27.9291   19.7535 N   0  0  0  0  0  0  0  0  0  0  0  0
  -19.6441  -24.2958   22.1098 N   0  0  0  0  0  0  0  0  0  0  0  0
  -27.7788  -14.3639   20.7846 N   0  0  0  0  0  0  0  0  0  0  0  0
  -21.9037  -12.9989   22.0854 N   0  0  0  0  0  0  0  0  0  0  0  0
  -26.6523  -30.1258   21.9467 N   0  0  0  0  0  0  0  0  0  0  0  0
  -19.4288  -14.2511   24.4037 N   0  3  0  0  0  0  0  0  0  0  0  0
  -24.5318  -24.8201   18.9275 N   0  3  0  0  0  0  0  0  0  0  0  0
  -19.5499  -25.3114   20.0560 O   0  0  0  0  0  0  0  0  0  0  0  0
  -26.5698  -16.1097   19.8292 O   0  0  0  0  0  0  0  0  0  0  0  0
  -24.7587  -12.8030   22.2251 O   0  0  0  0  0  0  0  0  0  0  0  0
  -20.4746  -14.8101   21.8522 O   0  0  0  0  0  0  0  0  0  0  0  0
  -26.3838  -32.4075   22.1723 O   0  0  0  0  0  0  0  0  0  0  0  0
  -22.0021  -23.4011   19.0632 O   0  0  0  0  0  0  0  0  0  0  0  0
  -20.8440  -23.2400   27.4466 O   0  0  0  0  0  0  0  0  0  0  0  0
  -23.1066  -20.8597   20.1710 O   0  0  0  0  0  0  0  0  0  1  0  0
  -21.6253  -17.8439   26.6246 F   0  0  0  0  0  0  0  0  0  0  0  0
  -19.2340  -21.8234   25.7020 F   0  0  0  0  0  0  0  0  0  0  0  0
  1  2  1  0  0  0  0
  1  5  2  0  0  0  0
  2  6  2  0  0  0  0
  3 12  2  0  0  0  0
  3 19  1  0  0  0  0
  4 13  1  0  0  0  0
  4 19  2  0  0  0  0
  5 21  1  0  0  0  0
  6 23  1  0  0  0  0
  7 14  2  0  0  0  0
  7 22  1  0  0  0  0
  8 10  2  0  0  0  0
  8 25  1  0  0  0  0
  9 11  1  0  0  0  0
  9 25  2  0  0  0  0
 10 26  1  0  0  0  0
 11 26  2  0  0  0  0
 12 27  1  0  0  0  0
 13 27  2  0  0  0  0
 14 28  1  0  0  0  0
 15 16  2  0  0  0  0
 15 29  1  0  0  0  0
 16 30  1  0  0  0  0
 17 24  1  0  0  0  0
 17 28  2  0  0  0  0
 18 30  2  0  0  0  0
 18 31  1  0  0  0  0
 19 32  1  0  0  0  0
 20 32  1  0  0  0  0
 20 33  2  0  0  0  0
 20 34  1  0  0  0  0
 21 23  2  0  0  0  0
 21 39  1  0  0  0  0
 22 24  2  0  0  0  0
 22 40  1  0  0  0  0
 23 48  1  0  0  0  0
 24 41  1  0  0  0  0
 25 58  1  0  0  0  0
 26 74  1  0  0  0  0
 27 83  1  0  0  0  0
 28 84  1  0  0  0  0
 29 31  2  0  0  0  0
 29 83  1  0  0  0  0
 30 85  1  0  0  0  0
 31 86  1  0  0  0  0
 32 66  2  0  0  0  0
 33 67  1  0  0  0  0
 33 70  1  0  0  0  0
 34 71  1  0  0  0  0
 34 77  2  0  0  0  0
 35 49  1  0  0  0  0
 35 72  1  0  0  0  0
 35 78  2  0  0  0  0
 36 61  1  0  0  0  0
 36 68  1  0  0  0  0
 36 79  2  0  0  0  0
 37 62  1  0  0  0  0
 37 73  1  0  0  0  0
 37 80  2  0  0  0  0
 38 69  1  0  0  0  0
 38 74  1  0  0  0  0
 38 81  2  0  0  0  0
 39 42  1  0  0  0  0
 40 49  1  0  0  0  0
 41 68  1  0  0  0  0
 42 44  1  0  0  0  0
 43 45  1  0  0  0  0
 43 46  1  0  0  0  0
 44 48  1  0  0  0  0
 45 50  1  0  0  0  0
 46 69  1  0  0  0  0
 47 50  1  0  0  0  0
 47 69  1  0  0  0  0
 48 72  1  0  0  0  0
 49 68  1  0  0  0  0
 50 67  1  0  0  0  0
 51 62  1  0  0  0  0
 52 63  1  0  0  0  0
 53 63  1  0  0  0  0
 54 65  1  0  0  0  0
 55 65  1  0  0  0  0
 56 65  1  0  0  0  0
 57 75  1  0  0  0  0
 58 76  1  0  0  0  0
 59 64  1  0  0  0  0
 59 76  1  0  0  0  0
 60 64  1  0  0  0  0
 60 84  1  0  0  0  0
 61 65  1  0  0  0  0
 61 73  1  0  0  0  0
 62 75  1  0  0  0  0
 63 74  1  0  0  0  0
 64 82  1  0  0  0  0
 66 67  1  0  0  0  0
M  CHG  2  75   1  76   1
M  ISO  4  38 100  60 101  74 100  84 101
M  END
> <Batch ID>
0121

> <Smiles>
CNC(C)C(=O)NC(C(=O)N1Cc2cc([101O:1][101CH2:1]C(O)CNCc3ccc([100N:0](C(C)C)[100C:0](=O)N4CCCC(n5nc(-c6ccc(Oc7ccc(F)cc7F)cc6)c(C(N)=O)c5N)C4)cc3)ccc2CC1C(=O)NC1CCCc2ccccc21)C(C)(C)C

> <Shape>
0.217

> <Color>
0.055

> <Negative vol penalty>
0.000

$$$$

  -OEChem-04052320253D

 85 94  0     1  0  0  0  0  0999 V2000
  -17.0355  -30.5698   24.4383 C   0  0  0  0  0  0  0  0  0  0  0  0
  -17.9528  -29.7347   25.0679 C   0  0  0  0  0  0  0  0  0  0  0  0
  -29.3499  -17.3915   19.1052 C   0  0  0  0  0  0  0  0  0  0  0  0
  -30.1736  -17.8414   21.3315 C   0  0  0  0  0  0  0  0  0  0  0  0
  -16.9914  -30.6310   23.0461 C   0  0  0  0  0  0  0  0  0  0  0  0
  -18.8259  -28.9593   24.3056 C   0  0  0  0  0  0  0  0  0  0  0  0
  -24.6004  -27.4700   25.6994 C   0  0  0  0  0  0  0  0  0  0  0  0
  -31.1240  -24.7135   25.7212 C   0  0  0  0  0  0  0  0  0  0  0  0
  -29.8708  -16.0994   19.1736 C   0  0  0  0  0  0  0  0  0  0  0  0
  -30.6944  -16.5493   21.3999 C   0  0  0  0  0  0  0  0  0  0  0  0
  -25.1651  -26.3231   26.2559 C   0  0  0  0  0  0  0  0  0  0  0  0
  -30.6691  -12.5633   18.9025 C   0  0  0  0  0  0  0  0  0  0  0  0
  -29.8608  -11.5142   18.4647 C   0  0  0  0  0  0  0  0  0  0  0  0
  -30.1547  -24.4879   26.6922 C   0  0  0  0  0  0  0  0  0  0  0  0
  -25.6818  -25.5115   24.0438 C   0  0  0  0  0  0  0  0  0  0  0  0
  -28.2101  -12.0902   20.1322 C   0  0  0  0  0  0  0  0  0  0  0  0
  -29.9478  -23.2340   24.2775 C   0  0  0  0  0  0  0  0  0  0  0  0
  -29.5014  -18.2626   20.1842 C   0  0  0  0  0  0  0  0  0  0  0  0
  -27.6787  -20.0184   20.5046 C   0  0  0  0  0  0  0  0  0  0  0  0
  -31.0259  -24.0785   24.4881 C   0  0  0  0  0  0  0  0  0  0  0  0
  -17.8708  -29.8632   22.2664 C   0  0  0  0  0  0  0  0  0  0  0  0
  -24.5623  -27.6414   24.3082 C   0  0  0  0  0  0  0  0  0  0  0  0
  -18.7925  -29.0093   22.9017 C   0  0  0  0  0  0  0  0  0  0  0  0
  -25.1184  -26.6626   23.4723 C   0  0  0  0  0  0  0  0  0  0  0  0
  -30.5430  -15.6783   20.3210 C   0  0  0  0  0  0  0  0  0  0  0  0
  -25.7033  -25.3423   25.4280 C   0  0  0  0  0  0  0  0  0  0  0  0
  -30.2479  -13.3758   19.9552 C   0  0  0  0  0  0  0  0  0  0  0  0
  -28.6313  -11.2777   19.0795 C   0  0  0  0  0  0  0  0  0  0  0  0
  -29.0184  -13.1393   20.5700 C   0  0  0  0  0  0  0  0  0  0  0  0
  -28.9640  -19.5977   20.1139 C   0  0  0  0  0  0  0  0  0  0  0  0
  -29.1154  -23.6253   26.3828 C   0  0  0  0  0  0  0  0  0  0  0  0
  -27.6629  -21.3658   20.2390 C   0  0  0  0  0  0  0  0  0  0  0  0
  -26.5958  -19.2590   21.0582 C   0  0  0  0  0  0  0  0  0  0  0  0
  -22.2504  -27.9471   22.1482 C   0  0  0  0  0  0  0  0  0  0  0  0
  -24.7358  -28.4950   20.1370 C   0  0  0  0  0  0  0  0  0  0  0  0
  -28.0525  -28.0785   19.4494 C   0  0  0  0  0  0  0  0  0  0  0  0
  -32.2859  -25.2546   19.7854 C   0  0  0  0  0  0  0  0  0  0  0  0
  -17.7536  -29.9272   20.7642 C   0  0  0  0  0  0  0  0  0  0  0  0
  -23.9737  -28.8966   23.7246 C   0  0  0  0  0  0  0  0  0  0  0  0
  -25.1207  -26.8081   21.9732 C   0  0  0  0  0  0  0  0  0  0  0  0
  -18.9660  -29.3554   20.0338 C   0  0  0  0  0  0  0  0  0  0  0  0
  -29.6095  -24.6511   17.3423 C   0  0  0  0  0  0  0  0  0  0  0  0
  -19.3698  -28.0144   20.6383 C   0  0  0  0  0  0  0  0  0  0  0  0
  -29.0596  -23.2937   17.7879 C   0  0  0  0  0  0  0  0  0  0  0  0
  -32.7325  -25.6839   23.3665 C   0  0  0  0  0  0  0  0  0  0  0  0
  -31.0940  -24.8048   17.6683 C   0  0  0  0  0  0  0  0  0  0  0  0
  -33.3493  -25.7308   21.9777 C   0  0  0  0  0  0  0  0  0  0  0  0
  -31.5319  -24.1666   21.9743 C   0  0  0  0  0  0  0  0  0  0  0  0
  -30.9033  -23.1688   19.4998 C   0  0  0  0  0  0  0  0  0  0  0  0
  -32.0644  -24.3026   23.4106 C   0  0  2  0  0  0  0  0  0  0  0  0
  -19.7727  -28.1715   22.1095 C   0  0  1  0  0  0  0  0  0  0  0  0
  -23.5270  -28.7293   22.2755 C   0  0  1  0  0  0  0  0  0  0  0  0
  -29.3949  -23.0136   19.2660 C   0  0  2  0  0  0  0  0  0  0  0  0
  -29.7857  -28.6061   17.7130 C   0  0  0  0  0  0  0  0  0  0  0  0
  -28.5279  -23.4510   28.8934 C   0  0  0  0  0  0  0  0  0  0  0  0
  -27.4845  -21.9155   27.2408 C   0  0  0  0  0  0  0  0  0  0  0  0
  -23.6125  -26.2918   18.3498 C   0  0  0  0  0  0  0  0  0  0  0  0
  -25.8238  -26.2105   17.1785 C   0  0  0  0  0  0  0  0  0  0  0  0
  -24.4609  -28.2991   17.1229 C   0  0  0  0  0  0  0  0  0  0  0  0
  -29.6580  -29.6622   21.3661 C   0  0  0  0  0  0  0  0  0  0  0  0
  -26.8487  -24.3491   27.2603 C   0  0  0  0  0  0  0  0  0  1  0  0
  -25.6190  -27.6316   19.2689 C   0  0  1  0  0  0  0  0  0  0  0  0
  -29.1197  -29.0613   19.0022 C   0  0  2  0  0  0  0  0  0  0  0  0
  -28.0572  -23.3603   27.4010 C   0  0  0  0  0  0  0  0  0  0  0  0
  -24.8774  -27.1043   18.0082 C   0  0  0  0  0  0  0  0  0  0  0  0
  -28.9866  -22.9902   25.1963 N   0  0  0  0  0  0  0  0  0  0  0  0
  -29.7106  -20.5969   19.6363 N   0  0  0  0  0  0  0  0  0  0  0  0
  -28.8918  -21.6589   19.7251 N   0  0  0  0  0  0  0  0  0  0  0  0
  -24.5280  -28.0502   21.4503 N   0  0  0  0  0  0  0  0  0  0  0  0
  -31.3493  -24.4982   19.0742 N   0  0  0  0  0  0  0  0  0  0  0  0
  -32.4431  -24.9558   21.1411 N   0  0  0  0  0  0  0  0  0  0  0  0
  -26.7179  -22.3168   20.3973 N   0  0  0  0  0  0  0  0  0  0  0  0
  -26.7808  -17.8855   21.2665 N   0  0  0  0  0  0  0  0  0  0  0  0
  -21.1075  -28.7212   22.2121 N   0  0  0  0  0  0  0  0  0  0  0  0
  -26.8058  -28.4275   18.9749 N   0  0  0  0  0  0  0  0  0  0  0  0
  -30.1697  -29.1983   20.0508 N   0  3  0  0  0  0  0  0  0  0  0  0
  -25.4910  -19.7800   21.3440 O   0  0  0  0  0  0  0  0  0  0  0  0
  -22.2988  -26.7315   22.0013 O   0  0  0  0  0  0  0  0  0  0  0  0
  -24.2540  -29.5297   19.6692 O   0  0  0  0  0  0  0  0  0  0  0  0
  -28.3008  -27.0973   20.1466 O   0  0  0  0  0  0  0  0  0  0  0  0
  -32.9051  -26.1811   19.2476 O   0  0  0  0  0  0  0  0  0  0  0  0
  -31.0512  -14.4174   20.3881 O   0  0  0  0  0  0  0  0  0  0  0  0
  -26.2580  -24.2145   25.9720 O   0  0  0  0  0  0  0  0  0  1  0  0
  -27.8544  -10.2712   18.6580 F   0  0  0  0  0  0  0  0  0  0  0  0
  -28.6079  -13.9172   21.5810 F   0  0  0  0  0  0  0  0  0  0  0  0
  1  2  1  0  0  0  0
  1  5  2  0  0  0  0
  2  6  2  0  0  0  0
  3  9  2  0  0  0  0
  3 18  1  0  0  0  0
  4 10  1  0  0  0  0
  4 18  2  0  0  0  0
  5 21  1  0  0  0  0
  6 23  1  0  0  0  0
  7 11  2  0  0  0  0
  7 22  1  0  0  0  0
  8 14  2  0  0  0  0
  8 20  1  0  0  0  0
  9 25  1  0  0  0  0
 10 25  2  0  0  0  0
 11 26  1  0  0  0  0
 12 13  2  0  0  0  0
 12 27  1  0  0  0  0
 13 28  1  0  0  0  0
 14 31  1  0  0  0  0
 15 24  1  0  0  0  0
 15 26  2  0  0  0  0
 16 28  2  0  0  0  0
 16 29  1  0  0  0  0
 17 20  2  0  0  0  0
 17 66  1  0  0  0  0
 18 30  1  0  0  0  0
 19 30  1  0  0  0  0
 19 32  2  0  0  0  0
 19 33  1  0  0  0  0
 20 50  1  0  0  0  0
 21 23  2  0  0  0  0
 21 38  1  0  0  0  0
 22 24  2  0  0  0  0
 22 39  1  0  0  0  0
 23 51  1  0  0  0  0
 24 40  1  0  0  0  0
 25 82  1  0  0  0  0
 26 83  1  0  0  0  0
 27 29  2  0  0  0  0
 27 82  1  0  0  0  0
 28 84  1  0  0  0  0
 29 85  1  0  0  0  0
 30 67  2  0  0  0  0
 31 64  1  0  0  0  0
 31 66  2  0  0  0  0
 32 68  1  0  0  0  0
 32 72  1  0  0  0  0
 33 73  1  0  0  0  0
 33 77  2  0  0  0  0
 34 52  1  0  0  0  0
 34 74  1  0  0  0  0
 34 78  2  0  0  0  0
 35 62  1  0  0  0  0
 35 69  1  0  0  0  0
 35 79  2  0  0  0  0
 36 63  1  0  0  0  0
 36 75  1  0  0  0  0
 36 80  2  0  0  0  0
 37 70  1  0  0  0  0
 37 71  1  0  0  0  0
 37 81  2  0  0  0  0
 38 41  1  0  0  0  0
 39 52  1  0  0  0  0
 40 69  1  0  0  0  0
 41 43  1  0  0  0  0
 42 44  1  0  0  0  0
 42 46  1  0  0  0  0
 43 51  1  0  0  0  0
 44 53  1  0  0  0  0
 45 47  1  0  0  0  0
 45 50  1  0  0  0  0
 46 70  1  0  0  0  0
 47 71  1  0  0  0  0
 48 50  1  0  0  0  0
 48 71  1  0  0  0  0
 49 53  1  0  0  0  0
 49 70  1  0  0  0  0
 51 74  1  0  0  0  0
 52 69  1  0  0  0  0
 53 68  1  0  0  0  0
 54 63  1  0  0  0  0
 55 64  1  0  0  0  0
 56 64  1  0  0  0  0
 57 65  1  0  0  0  0
 58 65  1  0  0  0  0
 59 65  1  0  0  0  0
 60 76  1  0  0  0  0
 61 64  1  0  0  0  0
 61 83  1  0  0  0  0
 62 65  1  0  0  0  0
 62 75  1  0  0  0  0
 63 76  1  0  0  0  0
 67 68  1  0  0  0  0
M  CHG  1  76   1
M  ISO  4  37 100  61 101  71 100  83 101
M  END
> <Batch ID>
0121

> <Smiles>
CNC(C)C(=O)NC(C(=O)N1Cc2cc([101O:1][101CH2:1]C(C)(C)c3ccc(C4CC[100N:0]([100C:0](=O)N5CCCC(n6nc(-c7ccc(Oc8ccc(F)cc8F)cc7)c(C(N)=O)c6N)C5)C4)cn3)ccc2CC1C(=O)NC1CCCc2ccccc21)C(C)(C)C

> <Shape>
0.246

> <Color>
0.083

> <Negative vol penalty>
0.000

$$$$

  -OEChem-04052320253D

 81 89  0     1  0  0  0  0  0999 V2000
  -28.5279  -33.3055   14.4232 C   0  0  0  0  0  0  0  0  0  0  0  0
  -28.6616  -31.9590   14.7462 C   0  0  0  0  0  0  0  0  0  0  0  0
  -22.9063  -10.1249   19.9262 C   0  0  0  0  0  0  0  0  0  0  0  0
  -23.8111   -9.8006   22.1428 C   0  0  0  0  0  0  0  0  0  0  0  0
  -28.0492  -34.2052   15.3747 C   0  0  0  0  0  0  0  0  0  0  0  0
  -28.3178  -31.5115   16.0213 C   0  0  0  0  0  0  0  0  0  0  0  0
  -25.8368  -26.1060   17.4814 C   0  0  0  0  0  0  0  0  0  0  0  0
  -27.6181  -19.4927   20.9520 C   0  0  0  0  0  0  0  0  0  0  0  0
  -22.1108   -8.9903   20.0849 C   0  0  0  0  0  0  0  0  0  0  0  0
  -23.0155   -8.6659   22.3015 C   0  0  0  0  0  0  0  0  0  0  0  0
  -26.3887  -24.9208   17.9655 C   0  0  0  0  0  0  0  0  0  0  0  0
  -23.0657   -5.4309   21.3203 C   0  0  0  0  0  0  0  0  0  0  0  0
  -23.6620   -4.2917   21.8608 C   0  0  0  0  0  0  0  0  0  0  0  0
  -27.1107  -20.6138   20.3047 C   0  0  0  0  0  0  0  0  0  0  0  0
  -25.8224  -25.5831   20.2150 C   0  0  0  0  0  0  0  0  0  0  0  0
  -22.0877   -4.3368   23.6929 C   0  0  0  0  0  0  0  0  0  0  0  0
  -29.7634  -20.0189   20.0701 C   0  0  0  0  0  0  0  0  0  0  0  0
  -23.7566  -10.5301   20.9552 C   0  0  0  0  0  0  0  0  0  0  0  0
  -24.2442  -13.0284   21.1226 C   0  0  0  0  0  0  0  0  0  0  0  0
  -27.6902  -33.7669   16.6591 C   0  0  0  0  0  0  0  0  0  0  0  0
  -25.2824  -27.0452   18.3628 C   0  0  0  0  0  0  0  0  0  0  0  0
  -27.8351  -32.4064   16.9913 C   0  0  0  0  0  0  0  0  0  0  0  0
  -25.2618  -26.7783   19.7392 C   0  0  0  0  0  0  0  0  0  0  0  0
  -28.9687  -19.1826   20.8375 C   0  0  0  0  0  0  0  0  0  0  0  0
  -22.1653   -8.2608   21.2725 C   0  0  0  0  0  0  0  0  0  0  0  0
  -26.3842  -24.6605   19.3327 C   0  0  0  0  0  0  0  0  0  0  0  0
  -21.9804   -6.0231   21.9661 C   0  0  0  0  0  0  0  0  0  0  0  0
  -23.1730   -3.7446   23.0471 C   0  0  0  0  0  0  0  0  0  0  0  0
  -21.4914   -5.4761   23.1524 C   0  0  0  0  0  0  0  0  0  0  0  0
  -24.5791  -11.7017   20.7916 C   0  0  0  0  0  0  0  0  0  0  0  0
  -27.9885  -21.3862   19.5613 C   0  0  0  0  0  0  0  0  0  0  0  0
  -25.3546  -13.7592   20.7773 C   0  0  0  0  0  0  0  0  0  0  0  0
  -23.0373  -13.5532   21.6916 C   0  0  0  0  0  0  0  0  0  0  0  0
  -25.9259  -30.0649   19.1186 C   0  0  0  0  0  0  0  0  0  0  0  0
  -23.2035  -29.7999   20.8624 C   0  0  0  0  0  0  0  0  0  0  0  0
  -20.9912  -27.7743   22.4900 C   0  0  0  0  0  0  0  0  0  0  0  0
  -30.8913  -14.4552   20.6972 C   0  0  0  0  0  0  0  0  0  0  0  0
  -27.2223  -34.7847   17.6690 C   0  0  0  0  0  0  0  0  0  0  0  0
  -24.6671  -28.3068   17.8223 C   0  0  0  0  0  0  0  0  0  0  0  0
  -24.6606  -27.7448   20.7256 C   0  0  0  0  0  0  0  0  0  0  0  0
  -26.5260  -34.1666   18.8788 C   0  0  0  0  0  0  0  0  0  0  0  0
  -29.4585  -12.4564   18.1226 C   0  0  0  0  0  0  0  0  0  0  0  0
  -27.3299  -32.9847   19.4113 C   0  0  0  0  0  0  0  0  0  0  0  0
  -28.0366  -12.1864   18.6177 C   0  0  0  0  0  0  0  0  0  0  0  0
  -30.4628  -12.4742   19.2729 C   0  0  0  0  0  0  0  0  0  0  0  0
  -28.7025  -13.1227   20.8713 C   0  0  0  0  0  0  0  0  0  0  0  0
  -27.4492  -31.8785   18.3561 C   0  0  1  0  0  0  0  0  0  0  0  0
  -24.5916  -29.4256   18.8567 C   0  0  1  0  0  0  0  0  0  0  0  0
  -27.6458  -13.1507   19.7537 C   0  0  2  0  0  0  0  0  0  0  0  0
  -18.8853  -27.8505   23.8528 C   0  0  0  0  0  0  0  0  0  0  0  0
  -24.8017  -30.7714   23.2732 C   0  0  0  0  0  0  0  0  0  0  0  0
  -22.9586  -29.9323   24.7453 C   0  0  0  0  0  0  0  0  0  0  0  0
  -22.5031  -31.7390   23.0867 C   0  0  0  0  0  0  0  0  0  0  0  0
  -19.5132  -26.1449   20.5102 C   0  0  0  0  0  0  0  0  0  0  0  0
  -27.4755  -22.6034   18.8496 C   0  0  0  0  0  0  0  0  0  1  0  0
  -30.8941  -17.6958   21.3920 C   0  0  0  0  0  0  0  0  0  0  0  0
  -31.1683  -16.4248   22.1815 C   0  0  0  0  0  0  0  0  0  0  0  0
  -22.8746  -29.3743   22.2729 C   0  0  1  0  0  0  0  0  0  0  0  0
  -19.4749  -27.7078   22.4582 C   0  0  2  0  0  0  0  0  0  0  0  0
  -23.2976  -30.4367   23.3264 C   0  0  0  0  0  0  0  0  0  0  0  0
  -29.3065  -21.1167   19.4268 N   0  0  0  0  0  0  0  0  0  0  0  0
  -25.8062  -11.5931   20.2754 N   0  0  0  0  0  0  0  0  0  0  0  0
  -26.2520  -12.8609   20.2794 N   0  0  0  0  0  0  0  0  0  0  0  0
  -24.0769  -28.9671   20.1487 N   0  0  0  0  0  0  0  0  0  0  0  0
  -30.0344  -13.4096   20.3158 N   0  0  0  0  0  0  0  0  0  0  0  0
  -25.6412  -15.0762   20.8538 N   0  0  0  0  0  0  0  0  0  0  0  0
  -21.9953  -12.6633   21.9858 N   0  0  0  0  0  0  0  0  0  0  0  0
  -29.5097  -18.0570   21.4796 N   0  0  0  0  0  0  0  0  0  0  0  0
  -26.2187  -31.1209   18.2767 N   0  0  0  0  0  0  0  0  0  0  0  0
  -21.4505  -29.0577   22.2822 N   0  0  0  0  0  0  0  0  0  0  0  0
  -30.4056  -15.2999   21.6878 N   0  0  0  0  0  0  0  0  0  0  0  0
  -19.0254  -26.4059   21.8889 N   0  3  0  0  0  0  0  0  0  0  0  0
  -22.8811  -14.7774   21.9166 O   0  0  0  0  0  0  0  0  0  0  0  0
  -26.6365  -29.6332   20.0188 O   0  0  0  0  0  0  0  0  0  0  0  0
  -22.6983  -30.8294   20.4080 O   0  0  0  0  0  0  0  0  0  0  0  0
  -21.6973  -26.7873   22.6838 O   0  0  0  0  0  0  0  0  0  0  0  0
  -32.0044  -14.6266   20.1886 O   0  0  0  0  0  0  0  0  0  0  0  0
  -21.3889   -7.1537   21.4278 O   0  0  0  0  0  0  0  0  0  0  0  0
  -26.9228  -23.5047   19.8080 O   0  0  0  0  0  0  0  0  0  1  0  0
  -23.7448   -2.6497   23.5652 F   0  0  0  0  0  0  0  0  0  0  0  0
  -20.4482   -6.0399   23.7767 F   0  0  0  0  0  0  0  0  0  0  0  0
  1  2  1  0  0  0  0
  1  5  2  0  0  0  0
  2  6  2  0  0  0  0
  3  9  2  0  0  0  0
  3 18  1  0  0  0  0
  4 10  1  0  0  0  0
  4 18  2  0  0  0  0
  5 20  1  0  0  0  0
  6 22  1  0  0  0  0
  7 11  2  0  0  0  0
  7 21  1  0  0  0  0
  8 14  2  0  0  0  0
  8 24  1  0  0  0  0
  9 25  1  0  0  0  0
 10 25  2  0  0  0  0
 11 26  1  0  0  0  0
 12 13  2  0  0  0  0
 12 27  1  0  0  0  0
 13 28  1  0  0  0  0
 14 31  1  0  0  0  0
 15 23  1  0  0  0  0
 15 26  2  0  0  0  0
 16 28  2  0  0  0  0
 16 29  1  0  0  0  0
 17 24  2  0  0  0  0
 17 61  1  0  0  0  0
 18 30  1  0  0  0  0
 19 30  1  0  0  0  0
 19 32  2  0  0  0  0
 19 33  1  0  0  0  0
 20 22  2  0  0  0  0
 20 38  1  0  0  0  0
 21 23  2  0  0  0  0
 21 39  1  0  0  0  0
 22 47  1  0  0  0  0
 23 40  1  0  0  0  0
 24 68  1  0  0  0  0
 25 78  1  0  0  0  0
 26 79  1  0  0  0  0
 27 29  2  0  0  0  0
 27 78  1  0  0  0  0
 28 80  1  0  0  0  0
 29 81  1  0  0  0  0
 30 62  2  0  0  0  0
 31 55  1  0  0  0  0
 31 61  2  0  0  0  0
 32 63  1  0  0  0  0
 32 66  1  0  0  0  0
 33 67  1  0  0  0  0
 33 73  2  0  0  0  0
 34 48  1  0  0  0  0
 34 69  1  0  0  0  0
 34 74  2  0  0  0  0
 35 58  1  0  0  0  0
 35 64  1  0  0  0  0
 35 75  2  0  0  0  0
 36 59  1  0  0  0  0
 36 70  1  0  0  0  0
 36 76  2  0  0  0  0
 37 65  1  0  0  0  0
 37 71  1  0  0  0  0
 37 77  2  0  0  0  0
 38 41  1  0  0  0  0
 39 48  1  0  0  0  0
 40 64  1  0  0  0  0
 41 43  1  0  0  0  0
 42 44  1  0  0  0  0
 42 45  1  0  0  0  0
 43 47  1  0  0  0  0
 44 49  1  0  0  0  0
 45 65  1  0  0  0  0
 46 49  1  0  0  0  0
 46 65  1  0  0  0  0
 47 69  1  0  0  0  0
 48 64  1  0  0  0  0
 49 63  1  0  0  0  0
 50 59  1  0  0  0  0
 51 60  1  0  0  0  0
 52 60  1  0  0  0  0
 53 60  1  0  0  0  0
 54 72  1  0  0  0  0
 55 79  1  0  0  0  0
 56 57  1  0  0  0  0
 56 68  1  0  0  0  0
 57 71  1  0  0  0  0
 58 60  1  0  0  0  0
 58 70  1  0  0  0  0
 59 72  1  0  0  0  0
 62 63  1  0  0  0  0
M  CHG  1  72   1
M  ISO  4  37 100  55 101  71 100  79 101
M  END
> <Batch ID>
0121

> <Smiles>
CNC(C)C(=O)NC(C(=O)N1Cc2cc([101O:1][101CH2:1]c3ccc(NCC[100NH:0][100C:0](=O)N4CCCC(n5nc(-c6ccc(Oc7ccc(F)cc7F)cc6)c(C(N)=O)c5N)C4)cn3)ccc2CC1C(=O)NC1CCCc2ccccc21)C(C)(C)C

> <Shape>
0.356

> <Color>
0.214

> <Negative vol penalty>
0.000

$$$$

  -OEChem-04052320253D

 85 93  0     1  0  0  0  0  0999 V2000
  -24.2524  -29.0384   21.5401 C   0  0  0  0  0  0  0  0  0  0  0  0
  -24.5242  -28.0442   22.4745 C   0  0  0  0  0  0  0  0  0  0  0  0
  -21.7976  -24.2984   22.8089 C   0  0  0  0  0  0  0  0  0  0  0  0
  -20.9946  -23.3735   20.7264 C   0  0  0  0  0  0  0  0  0  0  0  0
  -24.5758  -28.8397   20.1985 C   0  0  0  0  0  0  0  0  0  0  0  0
  -25.1187  -26.8503   22.0676 C   0  0  0  0  0  0  0  0  0  0  0  0
  -29.6324  -21.7901   24.3778 C   0  0  0  0  0  0  0  0  0  0  0  0
  -21.3970  -25.5700   22.3987 C   0  0  0  0  0  0  0  0  0  0  0  0
  -20.5939  -24.6451   20.3161 C   0  0  0  0  0  0  0  0  0  0  0  0
  -29.7163  -20.4058   24.5216 C   0  0  0  0  0  0  0  0  0  0  0  0
  -18.5183  -27.3332   22.2057 C   0  0  0  0  0  0  0  0  0  0  0  0
  -17.8360  -28.1268   23.1278 C   0  0  0  0  0  0  0  0  0  0  0  0
  -30.3034  -20.2053   22.1905 C   0  0  0  0  0  0  0  0  0  0  0  0
  -19.5728  -29.7991   22.9737 C   0  0  0  0  0  0  0  0  0  0  0  0
  -21.5965  -23.2002   21.9727 C   0  0  0  0  0  0  0  0  0  0  0  0
  -21.5688  -21.1802   23.5304 C   0  0  0  0  0  0  0  0  0  0  0  0
  -25.1833  -27.6466   19.7765 C   0  0  0  0  0  0  0  0  0  0  0  0
  -29.8730  -22.3924   23.1346 C   0  0  0  0  0  0  0  0  0  0  0  0
  -25.4492  -26.6349   20.7189 C   0  0  0  0  0  0  0  0  0  0  0  0
  -30.2243  -21.5976   22.0341 C   0  0  0  0  0  0  0  0  0  0  0  0
  -20.7951  -25.7433   21.1523 C   0  0  0  0  0  0  0  0  0  0  0  0
  -30.0490  -19.6130   23.4272 C   0  0  0  0  0  0  0  0  0  0  0  0
  -19.7280  -27.7725   21.6677 C   0  0  0  0  0  0  0  0  0  0  0  0
  -18.3632  -29.3598   23.5118 C   0  0  0  0  0  0  0  0  0  0  0  0
  -20.2552  -29.0055   22.0517 C   0  0  0  0  0  0  0  0  0  0  0  0
  -22.0106  -21.8865   22.3957 C   0  0  0  0  0  0  0  0  0  0  0  0
  -22.2567  -19.9922   23.4847 C   0  0  0  0  0  0  0  0  0  0  0  0
  -20.6212  -21.5635   24.5358 C   0  0  0  0  0  0  0  0  0  0  0  0
  -28.1481  -24.1431   21.1188 C   0  0  0  0  0  0  0  0  0  0  0  0
  -30.9695  -24.3986   19.5387 C   0  0  0  0  0  0  0  0  0  0  0  0
  -34.0583  -23.0976   18.8959 C   0  0  0  0  0  0  0  0  0  0  0  0
  -24.0212  -15.6212   20.7049 C   0  0  0  0  0  0  0  0  0  0  0  0
  -25.4713  -27.4585   18.3080 C   0  0  0  0  0  0  0  0  0  0  0  0
  -29.8046  -23.8891   23.0023 C   0  0  0  0  0  0  0  0  0  0  0  0
  -30.5121  -22.1969   20.6827 C   0  0  0  0  0  0  0  0  0  0  0  0
  -26.4413  -26.3157   18.0191 C   0  0  0  0  0  0  0  0  0  0  0  0
  -26.1477  -18.5474   20.5927 C   0  0  0  0  0  0  0  0  0  0  0  0
  -26.0517  -25.0717   18.8112 C   0  0  0  0  0  0  0  0  0  0  0  0
  -25.2141  -19.6234   21.1502 C   0  0  0  0  0  0  0  0  0  0  0  0
  -25.5109  -11.3390   21.8465 C   0  0  0  0  0  0  0  0  0  0  0  0
  -25.3878  -17.5566   19.7156 C   0  0  0  0  0  0  0  0  0  0  0  0
  -23.2931  -17.9781   20.9436 C   0  0  0  0  0  0  0  0  0  0  0  0
  -26.0713  -10.6259   20.6239 C   0  0  0  0  0  0  0  0  0  0  0  0
  -25.4533  -12.5817   19.1751 C   0  0  0  0  0  0  0  0  0  0  0  0
  -26.1158  -25.3361   20.3203 C   0  0  1  0  0  0  0  0  0  0  0  0
  -29.5666  -24.3519   21.5682 C   0  0  1  0  0  0  0  0  0  0  0  0
  -23.9971  -18.9978   21.8572 C   0  0  2  0  0  0  0  0  0  0  0  0
  -24.8751  -13.3142   20.3846 C   0  0  1  0  0  0  0  0  0  0  0  0
  -25.5134  -12.8636   21.7082 C   0  0  2  0  0  0  0  0  0  0  0  0
  -36.1245  -23.5094   17.5326 C   0  0  0  0  0  0  0  0  0  0  0  0
  -29.5550  -13.6904   24.5558 C   0  0  0  0  0  0  0  0  0  0  0  0
  -31.3183  -15.2810   21.6389 C   0  0  0  0  0  0  0  0  0  0  0  0
  -29.5199  -23.4030   17.0452 C   0  0  0  0  0  0  0  0  0  0  0  0
  -31.7545  -22.9334   16.0185 C   0  0  0  0  0  0  0  0  0  0  0  0
  -31.1346  -25.2689   16.6380 C   0  0  0  0  0  0  0  0  0  0  0  0
  -35.7467  -23.3378   21.3147 C   0  0  0  0  0  0  0  0  0  0  0  0
  -29.0411  -15.4591   22.7890 C   0  0  0  0  0  0  0  0  0  0  0  0
  -27.4347  -13.5141   23.1717 C   0  0  0  0  0  0  0  0  0  0  0  0
  -30.4768  -17.5103   22.4018 C   0  0  0  0  0  0  0  0  0  1  0  0
  -31.6683  -23.6026   18.4630 C   0  0  1  0  0  0  0  0  0  0  0  0
  -35.4349  -23.7369   18.8688 C   0  0  2  0  0  0  0  0  0  0  0  0
  -28.9015  -13.9759   23.2005 C   0  0  2  0  0  0  0  0  0  0  0  0
  -30.4870  -16.0021   22.7010 C   0  0  2  0  0  0  0  0  0  0  0  0
  -31.0121  -23.7902   17.0661 C   0  0  0  0  0  0  0  0  0  0  0  0
  -22.9098  -21.2043   21.6814 N   0  0  0  0  0  0  0  0  0  0  0  0
  -23.0386  -20.0569   22.3691 N   0  0  0  0  0  0  0  0  0  0  0  0
  -30.4261  -23.6645   20.6024 N   0  0  0  0  0  0  0  0  0  0  0  0
  -24.2534  -16.9836   20.4537 N   0  0  0  0  0  0  0  0  0  0  0  0
  -22.2631  -18.9091   24.2905 N   0  0  0  0  0  0  0  0  0  0  0  0
  -19.2714  -21.2417   24.3391 N   0  0  0  0  0  0  0  0  0  0  0  0
  -27.4877  -25.3088   20.7804 N   0  0  0  0  0  0  0  0  0  0  0  0
  -33.0745  -23.9872   18.5191 N   0  0  0  0  0  0  0  0  0  0  0  0
  -24.9742  -14.7444   20.2012 N   0  0  0  0  0  0  0  0  0  0  0  0
  -25.3589  -11.1071   19.4035 N   0  3  0  0  0  0  0  0  0  0  0  0
  -26.9215  -13.3535   21.7907 N   0  3  0  0  0  0  0  0  0  0  0  0
  -36.2932  -23.1643   19.9442 N   0  3  0  0  0  0  0  0  0  0  0  0
  -20.9591  -22.1879   25.5700 O   0  0  0  0  0  0  0  0  0  0  0  0
  -27.6874  -23.0082   21.0804 O   0  0  0  0  0  0  0  0  0  0  0  0
  -30.9142  -25.6271   19.4423 O   0  0  0  0  0  0  0  0  0  0  0  0
  -33.8746  -21.9251   19.2154 O   0  0  0  0  0  0  0  0  0  0  0  0
  -23.0393  -15.2159   21.3365 O   0  0  0  0  0  0  0  0  0  0  0  0
  -20.4038  -26.9839   20.7518 O   0  0  0  0  0  0  0  0  0  0  0  0
  -30.1310  -18.2616   23.5647 O   0  0  0  0  0  0  0  0  0  1  0  0
  -17.7070  -30.1224   24.3961 F   0  0  0  0  0  0  0  0  0  0  0  0
  -21.4163  -29.4334   21.5374 F   0  0  0  0  0  0  0  0  0  0  0  0
  1  2  1  0  0  0  0
  1  5  2  0  0  0  0
  2  6  2  0  0  0  0
  3  8  2  0  0  0  0
  3 15  1  0  0  0  0
  4  9  1  0  0  0  0
  4 15  2  0  0  0  0
  5 17  1  0  0  0  0
  6 19  1  0  0  0  0
  7 10  2  0  0  0  0
  7 18  1  0  0  0  0
  8 21  1  0  0  0  0
  9 21  2  0  0  0  0
 10 22  1  0  0  0  0
 11 12  2  0  0  0  0
 11 23  1  0  0  0  0
 12 24  1  0  0  0  0
 13 20  1  0  0  0  0
 13 22  2  0  0  0  0
 14 24  2  0  0  0  0
 14 25  1  0  0  0  0
 15 26  1  0  0  0  0
 16 26  1  0  0  0  0
 16 27  2  0  0  0  0
 16 28  1  0  0  0  0
 17 19  2  0  0  0  0
 17 33  1  0  0  0  0
 18 20  2  0  0  0  0
 18 34  1  0  0  0  0
 19 45  1  0  0  0  0
 20 35  1  0  0  0  0
 21 82  1  0  0  0  0
 22 83  1  0  0  0  0
 23 25  2  0  0  0  0
 23 82  1  0  0  0  0
 24 84  1  0  0  0  0
 25 85  1  0  0  0  0
 26 65  2  0  0  0  0
 27 66  1  0  0  0  0
 27 69  1  0  0  0  0
 28 70  1  0  0  0  0
 28 77  2  0  0  0  0
 29 46  1  0  0  0  0
 29 71  1  0  0  0  0
 29 78  2  0  0  0  0
 30 60  1  0  0  0  0
 30 67  1  0  0  0  0
 30 79  2  0  0  0  0
 31 61  1  0  0  0  0
 31 72  1  0  0  0  0
 31 80  2  0  0  0  0
 32 68  1  0  0  0  0
 32 73  1  0  0  0  0
 32 81  2  0  0  0  0
 33 36  1  0  0  0  0
 34 46  1  0  0  0  0
 35 67  1  0  0  0  0
 36 38  1  0  0  0  0
 37 39  1  0  0  0  0
 37 41  1  0  0  0  0
 38 45  1  0  0  0  0
 39 47  1  0  0  0  0
 40 43  1  0  0  0  0
 40 49  1  0  0  0  0
 41 68  1  0  0  0  0
 42 47  1  0  0  0  0
 42 68  1  0  0  0  0
 43 74  1  0  0  0  0
 44 48  1  0  0  0  0
 44 74  1  0  0  0  0
 45 71  1  0  0  0  0
 46 67  1  0  0  0  0
 47 66  1  0  0  0  0
 48 49  1  0  0  0  0
 48 73  1  0  0  0  0
 49 75  1  0  0  0  0
 50 61  1  0  0  0  0
 51 62  1  0  0  0  0
 52 63  1  0  0  0  0
 53 64  1  0  0  0  0
 54 64  1  0  0  0  0
 55 64  1  0  0  0  0
 56 76  1  0  0  0  0
 57 62  1  0  0  0  0
 57 63  1  0  0  0  0
 58 62  1  0  0  0  0
 58 75  1  0  0  0  0
 59 63  1  0  0  0  0
 59 83  1  0  0  0  0
 60 64  1  0  0  0  0
 60 72  1  0  0  0  0
 61 76  1  0  0  0  0
 65 66  1  0  0  0  0
M  CHG  3  74   1  75   1  76   1
M  ISO  4  32 100  59 101  73 100  83 101
M  END
> <Batch ID>
0121

> <Smiles>
CNC(C)C(=O)NC(C(=O)N1Cc2cc([101O:1][101CH2:1]C(C)CC(C)CNC3CCNCC3[100NH:0][100C:0](=O)N3CCCC(n4nc(-c5ccc(Oc6ccc(F)cc6F)cc5)c(C(N)=O)c4N)C3)ccc2CC1C(=O)NC1CCCc2ccccc21)C(C)(C)C

> <Shape>
0.190

> <Color>
0.052

> <Negative vol penalty>
0.000

$$$$

  -OEChem-04052320253D

 88 97  0     1  0  0  0  0  0999 V2000
  -28.8308  -37.3925   22.6874 C   0  0  0  0  0  0  0  0  0  0  0  0
  -29.2082  -36.2430   22.0007 C   0  0  0  0  0  0  0  0  0  0  0  0
  -23.5266   -9.6522   20.0483 C   0  0  0  0  0  0  0  0  0  0  0  0
  -25.0043   -8.3930   21.4862 C   0  0  0  0  0  0  0  0  0  0  0  0
  -27.8798  -37.3151   23.7040 C   0  0  0  0  0  0  0  0  0  0  0  0
  -28.6357  -35.0152   22.3310 C   0  0  0  0  0  0  0  0  0  0  0  0
  -26.6360  -28.8090   19.3642 C   0  0  0  0  0  0  0  0  0  0  0  0
  -22.4443   -9.3056   20.8570 C   0  0  0  0  0  0  0  0  0  0  0  0
  -23.9220   -8.0464   22.2950 C   0  0  0  0  0  0  0  0  0  0  0  0
  -26.8050  -27.4345   19.5250 C   0  0  0  0  0  0  0  0  0  0  0  0
  -21.4940   -6.5328   24.5363 C   0  0  0  0  0  0  0  0  0  0  0  0
  -21.3914   -5.2039   24.9477 C   0  0  0  0  0  0  0  0  0  0  0  0
  -25.1141  -27.4341   21.2456 C   0  0  0  0  0  0  0  0  0  0  0  0
  -27.7876  -22.8477   21.2641 C   0  0  0  0  0  0  0  0  0  0  0  0
  -21.2678   -4.4991   22.6400 C   0  0  0  0  0  0  0  0  0  0  0  0
  -26.6066  -21.1641   19.4707 C   0  0  0  0  0  0  0  0  0  0  0  0
  -24.8066   -9.1959   20.3628 C   0  0  0  0  0  0  0  0  0  0  0  0
  -26.0916   -9.2627   18.1601 C   0  0  0  0  0  0  0  0  0  0  0  0
  -27.2882  -36.0873   24.0405 C   0  0  0  0  0  0  0  0  0  0  0  0
  -25.7111  -29.5095   20.1518 C   0  0  0  0  0  0  0  0  0  0  0  0
  -27.6769  -34.9211   23.3540 C   0  0  0  0  0  0  0  0  0  0  0  0
  -24.9335  -28.8171   21.0910 C   0  0  0  0  0  0  0  0  0  0  0  0
  -27.7799  -21.4801   21.5152 C   0  0  0  0  0  0  0  0  0  0  0  0
  -27.1802  -20.6155   20.6064 C   0  0  0  0  0  0  0  0  0  0  0  0
  -22.6420   -8.5027   21.9804 C   0  0  0  0  0  0  0  0  0  0  0  0
  -26.0460  -26.7473   20.4678 C   0  0  0  0  0  0  0  0  0  0  0  0
  -21.4834   -6.8448   23.1768 C   0  0  0  0  0  0  0  0  0  0  0  0
  -21.2783   -4.1871   23.9996 C   0  0  0  0  0  0  0  0  0  0  0  0
  -21.3704   -5.8280   22.2287 C   0  0  0  0  0  0  0  0  0  0  0  0
  -25.9249   -9.5531   19.5275 C   0  0  0  0  0  0  0  0  0  0  0  0
  -27.1870  -23.2964   20.0989 C   0  0  0  0  0  0  0  0  0  0  0  0
  -27.3078   -9.8134   17.8378 C   0  0  0  0  0  0  0  0  0  0  0  0
  -25.2245   -8.5581   17.2616 C   0  0  0  0  0  0  0  0  0  0  0  0
  -25.9045  -31.8617   22.2810 C   0  0  0  0  0  0  0  0  0  0  0  0
  -22.6664  -31.7014   22.1725 C   0  0  0  0  0  0  0  0  0  0  0  0
  -19.8780  -29.8493   21.5083 C   0  0  0  0  0  0  0  0  0  0  0  0
  -30.5288  -14.2332   20.0212 C   0  0  0  0  0  0  0  0  0  0  0  0
  -26.2994  -36.0456   25.1786 C   0  0  0  0  0  0  0  0  0  0  0  0
  -25.5217  -30.9876   19.9474 C   0  0  0  0  0  0  0  0  0  0  0  0
  -23.9125  -29.5192   21.9472 C   0  0  0  0  0  0  0  0  0  0  0  0
  -25.4655  -34.7675   25.2144 C   0  0  0  0  0  0  0  0  0  0  0  0
  -31.5451  -10.9298   19.7372 C   0  0  0  0  0  0  0  0  0  0  0  0
  -26.3565  -33.5434   25.0286 C   0  0  0  0  0  0  0  0  0  0  0  0
  -30.2419  -10.1617   19.5210 C   0  0  0  0  0  0  0  0  0  0  0  0
  -29.2971  -17.2741   18.6603 C   0  0  0  0  0  0  0  0  0  0  0  0
  -31.3630  -12.0289   20.7772 C   0  0  0  0  0  0  0  0  0  0  0  0
  -28.9616  -12.2461   20.2229 C   0  0  0  0  0  0  0  0  0  0  0  0
  -29.0084  -18.6743   19.1786 C   0  0  0  0  0  0  0  0  0  0  0  0
  -28.4399  -16.9806   20.8495 C   0  0  0  0  0  0  0  0  0  0  0  0
  -27.0602  -33.5749   23.6665 C   0  0  1  0  0  0  0  0  0  0  0  0
  -24.9175  -31.6861   21.1617 C   0  0  1  0  0  0  0  0  0  0  0  0
  -29.0881  -11.1198   19.1767 C   0  0  2  0  0  0  0  0  0  0  0  0
  -29.5207  -16.4597   19.9230 C   0  0  1  0  0  0  0  0  0  0  0  0
  -29.9063  -21.3227   22.8741 C   0  0  0  0  0  0  0  0  0  0  0  0
  -17.3721  -29.9774   21.5497 C   0  0  0  0  0  0  0  0  0  0  0  0
  -22.7041  -31.4082   25.2094 C   0  0  0  0  0  0  0  0  0  0  0  0
  -20.3370  -30.6014   25.0912 C   0  0  0  0  0  0  0  0  0  0  0  0
  -20.9066  -32.9071   24.3283 C   0  0  0  0  0  0  0  0  0  0  0  0
  -28.0916  -14.5385   19.4117 C   0  0  0  0  0  0  0  0  0  0  0  0
  -19.6895  -29.3709   18.5937 C   0  0  0  0  0  0  0  0  0  0  0  0
  -27.1431  -19.1429   20.8262 C   0  0  0  0  0  0  0  0  0  0  0  0
  -27.1760  -24.7657   19.7952 C   0  0  0  0  0  0  0  0  0  1  0  0
  -28.4190  -20.9645   22.7618 C   0  0  1  0  0  0  0  0  0  0  0  0
  -21.6087  -30.9273   22.9215 C   0  0  1  0  0  0  0  0  0  0  0  0
  -18.6260  -30.1646   20.7098 C   0  0  2  0  0  0  0  0  0  0  0  0
  -21.4096  -31.4478   24.3730 C   0  0  0  0  0  0  0  0  0  0  0  0
  -26.5944  -22.4869   19.1925 N   0  0  0  0  0  0  0  0  0  0  0  0
  -26.9532  -10.2353   20.0387 N   0  0  0  0  0  0  0  0  0  0  0  0
  -27.7776  -10.3780   18.9871 N   0  0  0  0  0  0  0  0  0  0  0  0
  -23.7687  -30.9658   21.7145 N   0  0  0  0  0  0  0  0  0  0  0  0
  -30.2558  -12.9167   20.4211 N   0  0  0  0  0  0  0  0  0  0  0  0
  -28.0106   -9.8650   16.6864 N   0  0  0  0  0  0  0  0  0  0  0  0
  -25.3775   -7.1706   17.1357 N   0  0  0  0  0  0  0  0  0  0  0  0
  -26.1462  -33.1803   22.6162 N   0  0  0  0  0  0  0  0  0  0  0  0
  -20.4055  -30.9786   22.0980 N   0  0  0  0  0  0  0  0  0  0  0  0
  -29.4319  -15.0464   19.6987 N   0  0  0  0  0  0  0  0  0  0  0  0
  -28.4552  -18.4710   20.5782 N   0  3  2  0  0  0  0  0  0  0  0  0
  -27.7468  -21.4432   24.0176 N   0  3  0  0  0  0  0  0  0  0  0  0
  -18.5321  -29.2723   19.5199 N   0  3  0  0  0  0  0  0  0  0  0  0
  -24.3510   -9.1439   16.5779 O   0  0  0  0  0  0  0  0  0  0  0  0
  -26.4082  -30.8739   22.8029 O   0  0  0  0  0  0  0  0  0  0  0  0
  -22.5166  -32.9127   21.9941 O   0  0  0  0  0  0  0  0  0  0  0  0
  -20.3396  -28.7142   21.6027 O   0  0  0  0  0  0  0  0  0  0  0  0
  -31.6884  -14.6624   19.9625 O   0  0  0  0  0  0  0  0  0  0  0  0
  -21.5862   -8.1645   22.7699 O   0  0  0  0  0  0  0  0  0  0  0  0
  -26.2094  -25.4058   20.6273 O   0  0  0  0  0  0  0  0  0  1  0  0
  -21.1814   -2.9109   24.3947 F   0  0  0  0  0  0  0  0  0  0  0  0
  -21.3608   -6.1215   20.9212 F   0  0  0  0  0  0  0  0  0  0  0  0
  1  2  1  0  0  0  0
  1  5  2  0  0  0  0
  2  6  2  0  0  0  0
  3  8  2  0  0  0  0
  3 17  1  0  0  0  0
  4  9  1  0  0  0  0
  4 17  2  0  0  0  0
  5 19  1  0  0  0  0
  6 21  1  0  0  0  0
  7 10  2  0  0  0  0
  7 20  1  0  0  0  0
  8 25  1  0  0  0  0
  9 25  2  0  0  0  0
 10 26  1  0  0  0  0
 11 12  2  0  0  0  0
 11 27  1  0  0  0  0
 12 28  1  0  0  0  0
 13 22  1  0  0  0  0
 13 26  2  0  0  0  0
 14 23  2  0  0  0  0
 14 31  1  0  0  0  0
 15 28  2  0  0  0  0
 15 29  1  0  0  0  0
 16 24  2  0  0  0  0
 16 67  1  0  0  0  0
 17 30  1  0  0  0  0
 18 30  1  0  0  0  0
 18 32  2  0  0  0  0
 18 33  1  0  0  0  0
 19 21  2  0  0  0  0
 19 38  1  0  0  0  0
 20 22  2  0  0  0  0
 20 39  1  0  0  0  0
 21 50  1  0  0  0  0
 22 40  1  0  0  0  0
 23 24  1  0  0  0  0
 23 63  1  0  0  0  0
 24 61  1  0  0  0  0
 25 85  1  0  0  0  0
 26 86  1  0  0  0  0
 27 29  2  0  0  0  0
 27 85  1  0  0  0  0
 28 87  1  0  0  0  0
 29 88  1  0  0  0  0
 30 68  2  0  0  0  0
 31 62  1  0  0  0  0
 31 67  2  0  0  0  0
 32 69  1  0  0  0  0
 32 72  1  0  0  0  0
 33 73  1  0  0  0  0
 33 80  2  0  0  0  0
 34 51  1  0  0  0  0
 34 74  1  0  0  0  0
 34 81  2  0  0  0  0
 35 64  1  0  0  0  0
 35 70  1  0  0  0  0
 35 82  2  0  0  0  0
 36 65  1  0  0  0  0
 36 75  1  0  0  0  0
 36 83  2  0  0  0  0
 37 71  1  0  0  0  0
 37 76  1  0  0  0  0
 37 84  2  0  0  0  0
 38 41  1  0  0  0  0
 39 51  1  0  0  0  0
 40 70  1  0  0  0  0
 41 43  1  0  0  0  0
 42 44  1  0  0  0  0
 42 46  1  0  0  0  0
 43 50  1  0  0  0  0
 44 52  1  0  0  0  0
 45 48  1  0  0  0  0
 45 53  1  0  0  0  0
 46 71  1  0  0  0  0
 47 52  1  0  0  0  0
 47 71  1  0  0  0  0
 48 77  1  0  0  0  0
 49 53  1  0  0  0  0
 49 77  1  0  0  0  0
 50 74  1  0  0  0  0
 51 70  1  0  0  0  0
 52 69  1  0  0  0  0
 53 76  1  0  0  0  0
 54 63  1  0  0  0  0
 55 65  1  0  0  0  0
 56 66  1  0  0  0  0
 57 66  1  0  0  0  0
 58 66  1  0  0  0  0
 59 76  1  0  0  0  0
 60 79  1  0  0  0  0
 61 77  1  0  0  0  0
 62 86  1  0  0  0  0
 63 78  1  0  0  0  0
 64 66  1  0  0  0  0
 64 75  1  0  0  0  0
 65 79  1  0  0  0  0
 68 69  1  0  0  0  0
M  CHG  3  77   1  78   1  79   1
M  ISO  4  37 100  62 101  76 100  86 101
M  END
> <Batch ID>
0121

> <Smiles>
CNC(C)C(=O)NC(C(=O)N1Cc2cc([101O:1][101CH2:1]c3cc(C(C)N)c(CN4CCC([100N:0](C)[100C:0](=O)N5CCCC(n6nc(-c7ccc(Oc8ccc(F)cc8F)cc7)c(C(N)=O)c6N)C5)C4)cn3)ccc2CC1C(=O)NC1CCCc2ccccc21)C(C)(C)C

> <Shape>
0.290

> <Color>
0.084

> <Negative vol penalty>
0.000

$$$$

  -OEChem-04052320253D

 86 95  0     1  0  0  0  0  0999 V2000
  -18.9413  -32.1526   26.3610 C   0  0  0  0  0  0  0  0  0  0  0  0
  -20.3062  -31.8852   26.3308 C   0  0  0  0  0  0  0  0  0  0  0  0
  -26.4512  -11.4269   21.0029 C   0  0  0  0  0  0  0  0  0  0  0  0
  -26.0515  -12.0231   18.6960 C   0  0  0  0  0  0  0  0  0  0  0  0
  -18.0837  -31.4958   25.4795 C   0  0  0  0  0  0  0  0  0  0  0  0
  -20.8142  -30.9598   25.4197 C   0  0  0  0  0  0  0  0  0  0  0  0
  -26.6351  -29.6443   21.4570 C   0  0  0  0  0  0  0  0  0  0  0  0
  -25.1256  -11.0106   21.1251 C   0  0  0  0  0  0  0  0  0  0  0  0
  -24.7258  -11.6067   18.8181 C   0  0  0  0  0  0  0  0  0  0  0  0
  -27.5537  -28.6283   21.1966 C   0  0  0  0  0  0  0  0  0  0  0  0
  -23.2747   -8.3104   20.2788 C   0  0  0  0  0  0  0  0  0  0  0  0
  -23.0333   -7.0952   20.9196 C   0  0  0  0  0  0  0  0  0  0  0  0
  -25.9879  -27.6128   19.6681 C   0  0  0  0  0  0  0  0  0  0  0  0
  -27.9308  -23.3005   22.4638 C   0  0  0  0  0  0  0  0  0  0  0  0
  -21.7013   -8.2361   22.5812 C   0  0  0  0  0  0  0  0  0  0  0  0
  -26.9142  -11.9333   19.7884 C   0  0  0  0  0  0  0  0  0  0  0  0
  -29.3871  -11.5838   19.2687 C   0  0  0  0  0  0  0  0  0  0  0  0
  -18.5827  -30.5690   24.5506 C   0  0  0  0  0  0  0  0  0  0  0  0
  -25.3797  -29.6462   20.8322 C   0  0  0  0  0  0  0  0  0  0  0  0
  -19.9623  -30.2889   24.5259 C   0  0  0  0  0  0  0  0  0  0  0  0
  -25.0562  -28.6313   19.9204 C   0  0  0  0  0  0  0  0  0  0  0  0
  -28.8881  -23.3365   21.4560 C   0  0  0  0  0  0  0  0  0  0  0  0
  -28.9734  -24.4482   20.6252 C   0  0  0  0  0  0  0  0  0  0  0  0
  -24.2629  -11.1004   20.0327 C   0  0  0  0  0  0  0  0  0  0  0  0
  -27.2291  -27.6108   20.3042 C   0  0  0  0  0  0  0  0  0  0  0  0
  -22.7294   -9.4885   20.7892 C   0  0  0  0  0  0  0  0  0  0  0  0
  -22.2466   -7.0581   22.0708 C   0  0  0  0  0  0  0  0  0  0  0  0
  -21.9427   -9.4513   21.9404 C   0  0  0  0  0  0  0  0  0  0  0  0
  -28.2833  -12.3641   19.6618 C   0  0  0  0  0  0  0  0  0  0  0  0
  -27.0893  -24.3930   22.5983 C   0  0  0  0  0  0  0  0  0  0  0  0
  -28.0853  -25.4894   20.8419 C   0  0  0  0  0  0  0  0  0  1  0  0
  -30.4517  -12.4507   19.3074 C   0  0  0  0  0  0  0  0  0  0  0  0
  -29.4449  -10.1991   18.9013 C   0  0  0  0  0  0  0  0  0  0  0  0
  -22.3707  -29.4796   21.8430 C   0  0  0  0  0  0  0  0  0  0  0  0
  -21.7003  -30.0142   18.7146 C   0  0  0  0  0  0  0  0  0  0  0  0
  -22.7148  -29.8285   15.4614 C   0  0  0  0  0  0  0  0  0  0  0  0
  -31.6290  -17.2244   22.3472 C   0  0  0  0  0  0  0  0  0  0  0  0
  -17.6108  -29.8490   23.6498 C   0  0  0  0  0  0  0  0  0  0  0  0
  -24.4103  -30.7638   21.1036 C   0  0  0  0  0  0  0  0  0  0  0  0
  -23.7296  -28.5986   19.2080 C   0  0  0  0  0  0  0  0  0  0  0  0
  -18.2772  -29.1598   22.4618 C   0  0  0  0  0  0  0  0  0  0  0  0
  -34.0709  -19.9673   22.8365 C   0  0  0  0  0  0  0  0  0  0  0  0
  -31.5401  -17.0802   18.8397 C   0  0  0  0  0  0  0  0  0  0  0  0
  -19.5049  -28.3780   22.9182 C   0  0  0  0  0  0  0  0  0  0  0  0
  -33.1692  -21.1963   22.9227 C   0  0  0  0  0  0  0  0  0  0  0  0
  -30.7950  -15.7659   18.6085 C   0  0  0  0  0  0  0  0  0  0  0  0
  -33.3536  -18.7061   23.3055 C   0  0  0  0  0  0  0  0  0  0  0  0
  -30.9431  -17.8810   19.9981 C   0  0  0  0  0  0  0  0  0  0  0  0
  -31.1684  -19.6845   22.6828 C   0  0  0  0  0  0  0  0  0  0  0  0
  -30.0855  -15.8033   21.0299 C   0  0  0  0  0  0  0  0  0  0  0  0
  -20.5546  -29.3101   23.5353 C   0  0  1  0  0  0  0  0  0  0  0  0
  -22.9634  -30.3862   20.8016 C   0  0  1  0  0  0  0  0  0  0  0  0
  -31.8462  -20.9641   22.1809 C   0  0  1  0  0  0  0  0  0  0  0  0
  -30.6989  -14.9491   19.9095 C   0  0  1  0  0  0  0  0  0  0  0  0
  -29.9879  -24.5185   19.5340 C   0  0  0  0  0  0  0  0  0  0  0  0
  -26.0500  -24.3894   23.6691 C   0  0  0  0  0  0  0  0  0  0  0  0
  -21.9349  -30.3058   13.1245 C   0  0  0  0  0  0  0  0  0  0  0  0
  -19.9430  -27.5211   18.7944 C   0  0  0  0  0  0  0  0  0  0  0  0
  -19.9692  -27.5074   16.2909 C   0  0  0  0  0  0  0  0  0  0  0  0
  -18.9744  -29.4396   17.5155 C   0  0  0  0  0  0  0  0  0  0  0  0
  -24.9020  -31.7689   15.0037 C   0  0  0  0  0  0  0  0  0  0  0  0
  -29.8182  -22.1622   21.2837 C   0  0  0  0  0  0  0  0  0  0  0  0
  -30.9177  -22.1653   22.3443 C   0  0  0  0  0  0  0  0  0  0  0  0
  -21.4848  -29.1399   17.5029 C   0  0  1  0  0  0  0  0  0  0  0  0
  -22.6792  -30.8461   14.3356 C   0  0  2  0  0  0  0  0  0  0  0  0
  -20.1172  -28.4013   17.5407 C   0  0  0  0  0  0  0  0  0  0  0  0
  -28.6159  -13.6294   19.9306 N   0  0  0  0  0  0  0  0  0  0  0  0
  -27.1421  -25.4905   21.8106 N   0  0  0  0  0  0  0  0  0  0  0  0
  -29.9408  -13.6508   19.7061 N   0  0  0  0  0  0  0  0  0  0  0  0
  -22.8131  -29.7101   19.5115 N   0  0  0  0  0  0  0  0  0  0  0  0
  -32.0753  -18.5290   22.6171 N   0  0  0  0  0  0  0  0  0  0  0  0
  -30.8343  -17.0496   21.2043 N   0  0  0  0  0  0  0  0  0  0  0  0
  -31.7656  -12.2960   19.0389 N   0  0  0  0  0  0  0  0  0  0  0  0
  -28.2579   -9.4540   18.9152 N   0  0  0  0  0  0  0  0  0  0  0  0
  -21.2777  -30.0141   22.4980 N   0  0  0  0  0  0  0  0  0  0  0  0
  -21.6664  -30.0021   16.3400 N   0  0  0  0  0  0  0  0  0  0  0  0
  -24.0640  -31.2026   13.9156 N   0  3  0  0  0  0  0  0  0  0  0  0
  -30.5202   -9.6350   18.5863 O   0  0  0  0  0  0  0  0  0  0  0  0
  -22.8674  -28.3762   22.0369 O   0  0  0  0  0  0  0  0  0  0  0  0
  -20.9144  -30.9375   18.9416 O   0  0  0  0  0  0  0  0  0  0  0  0
  -23.5834  -28.9636   15.5503 O   0  0  0  0  0  0  0  0  0  0  0  0
  -31.9258  -16.2740   23.0819 O   0  0  0  0  0  0  0  0  0  0  0  0
  -22.9693  -10.6940   20.1514 O   0  0  0  0  0  0  0  0  0  0  0  0
  -28.1364  -26.6033   20.0450 O   0  0  0  0  0  0  0  0  0  1  0  0
  -22.0136   -5.8908   22.6852 F   0  0  0  0  0  0  0  0  0  0  0  0
  -21.4152  -10.5796   22.4348 F   0  0  0  0  0  0  0  0  0  0  0  0
  1  2  1  0  0  0  0
  1  5  2  0  0  0  0
  2  6  2  0  0  0  0
  3  8  2  0  0  0  0
  3 16  1  0  0  0  0
  4  9  1  0  0  0  0
  4 16  2  0  0  0  0
  5 18  1  0  0  0  0
  6 20  1  0  0  0  0
  7 10  2  0  0  0  0
  7 19  1  0  0  0  0
  8 24  1  0  0  0  0
  9 24  2  0  0  0  0
 10 25  1  0  0  0  0
 11 12  2  0  0  0  0
 11 26  1  0  0  0  0
 12 27  1  0  0  0  0
 13 21  1  0  0  0  0
 13 25  2  0  0  0  0
 14 22  2  0  0  0  0
 14 30  1  0  0  0  0
 15 27  2  0  0  0  0
 15 28  1  0  0  0  0
 16 29  1  0  0  0  0
 17 29  1  0  0  0  0
 17 32  2  0  0  0  0
 17 33  1  0  0  0  0
 18 20  2  0  0  0  0
 18 38  1  0  0  0  0
 19 21  2  0  0  0  0
 19 39  1  0  0  0  0
 20 51  1  0  0  0  0
 21 40  1  0  0  0  0
 22 23  1  0  0  0  0
 22 62  1  0  0  0  0
 23 31  2  0  0  0  0
 23 55  1  0  0  0  0
 24 83  1  0  0  0  0
 25 84  1  0  0  0  0
 26 28  2  0  0  0  0
 26 83  1  0  0  0  0
 27 85  1  0  0  0  0
 28 86  1  0  0  0  0
 29 67  2  0  0  0  0
 30 56  1  0  0  0  0
 30 68  2  0  0  0  0
 31 68  1  0  0  0  0
 31 84  1  0  0  0  0
 32 69  1  0  0  0  0
 32 73  1  0  0  0  0
 33 74  1  0  0  0  0
 33 78  2  0  0  0  0
 34 52  1  0  0  0  0
 34 75  1  0  0  0  0
 34 79  2  0  0  0  0
 35 64  1  0  0  0  0
 35 70  1  0  0  0  0
 35 80  2  0  0  0  0
 36 65  1  0  0  0  0
 36 76  1  0  0  0  0
 36 81  2  0  0  0  0
 37 71  1  0  0  0  0
 37 72  1  0  0  0  0
 37 82  2  0  0  0  0
 38 41  1  0  0  0  0
 39 52  1  0  0  0  0
 40 70  1  0  0  0  0
 41 44  1  0  0  0  0
 42 45  1  0  0  0  0
 42 47  1  0  0  0  0
 43 46  1  0  0  0  0
 43 48  1  0  0  0  0
 44 51  1  0  0  0  0
 45 53  1  0  0  0  0
 46 54  1  0  0  0  0
 47 71  1  0  0  0  0
 48 72  1  0  0  0  0
 49 53  1  0  0  0  0
 49 71  1  0  0  0  0
 50 54  1  0  0  0  0
 50 72  1  0  0  0  0
 51 75  1  0  0  0  0
 52 70  1  0  0  0  0
 53 63  1  0  0  0  0
 54 69  1  0  0  0  0
 57 65  1  0  0  0  0
 58 66  1  0  0  0  0
 59 66  1  0  0  0  0
 60 66  1  0  0  0  0
 61 77  1  0  0  0  0
 62 63  1  0  0  0  0
 64 66  1  0  0  0  0
 64 76  1  0  0  0  0
 65 77  1  0  0  0  0
 67 69  1  0  0  0  0
M  CHG  1  77   1
M  ISO  4  31 101  37 100  71 100  84 101
M  END
> <Batch ID>
0121

> <Smiles>
CNC(C)C(=O)NC(C(=O)N1Cc2cc([101O:1][101c:1]3nc(C)cc(CCC4CCC[100N:0]([100C:0](=O)N5CCCC(n6nc(-c7ccc(Oc8ccc(F)cc8F)cc7)c(C(N)=O)c6N)C5)C4)c3C)ccc2CC1C(=O)NC1CCCc2ccccc21)C(C)(C)C

> <Shape>
0.270

> <Color>
0.081

> <Negative vol penalty>
0.000

$$$$

  -OEChem-04052320253D

 86 94  0     1  0  0  0  0  0999 V2000
  -25.3468  -28.4504   12.4810 C   0  0  0  0  0  0  0  0  0  0  0  0
  -26.3368  -28.1141   13.3987 C   0  0  0  0  0  0  0  0  0  0  0  0
  -23.8886   -9.6989   21.2827 C   0  0  0  0  0  0  0  0  0  0  0  0
  -25.5147  -10.1884   23.0012 C   0  0  0  0  0  0  0  0  0  0  0  0
  -24.5106  -29.5386   12.7269 C   0  0  0  0  0  0  0  0  0  0  0  0
  -26.4919  -28.8666   14.5623 C   0  0  0  0  0  0  0  0  0  0  0  0
  -27.1072  -25.9782   18.6762 C   0  0  0  0  0  0  0  0  0  0  0  0
  -23.6067   -8.4788   21.8970 C   0  0  0  0  0  0  0  0  0  0  0  0
  -25.2327   -8.9683   23.6156 C   0  0  0  0  0  0  0  0  0  0  0  0
  -28.3681  -25.4187   18.8786 C   0  0  0  0  0  0  0  0  0  0  0  0
  -21.8096   -7.3775   24.5410 C   0  0  0  0  0  0  0  0  0  0  0  0
  -20.4695   -7.0189   24.6856 C   0  0  0  0  0  0  0  0  0  0  0  0
  -28.8755  -27.1546   20.4750 C   0  0  0  0  0  0  0  0  0  0  0  0
  -20.8565   -5.0372   23.3588 C   0  0  0  0  0  0  0  0  0  0  0  0
  -24.8426  -10.5538   21.8348 C   0  0  0  0  0  0  0  0  0  0  0  0
  -24.2381  -12.8722   20.9590 C   0  0  0  0  0  0  0  0  0  0  0  0
  -24.6492  -30.2989   13.8987 C   0  0  0  0  0  0  0  0  0  0  0  0
  -26.7244  -27.1383   19.3647 C   0  0  0  0  0  0  0  0  0  0  0  0
  -25.6577  -29.9669   14.8235 C   0  0  0  0  0  0  0  0  0  0  0  0
  -27.6082  -27.7254   20.2815 C   0  0  0  0  0  0  0  0  0  0  0  0
  -24.2787   -8.1134   23.0634 C   0  0  0  0  0  0  0  0  0  0  0  0
  -29.2535  -26.0085   19.7759 C   0  0  0  0  0  0  0  0  0  0  0  0
  -22.6733   -6.5660   23.8052 C   0  0  0  0  0  0  0  0  0  0  0  0
  -19.9929   -5.8488   24.0945 C   0  0  0  0  0  0  0  0  0  0  0  0
  -22.1967   -5.3959   23.2142 C   0  0  0  0  0  0  0  0  0  0  0  0
  -25.1347  -11.8141   21.2004 C   0  0  0  0  0  0  0  0  0  0  0  0
  -24.9993  -13.8324   20.3384 C   0  0  0  0  0  0  0  0  0  0  0  0
  -22.8420  -12.9777   21.2680 C   0  0  0  0  0  0  0  0  0  0  0  0
  -25.9038  -30.0873   18.5083 C   0  0  0  0  0  0  0  0  0  0  0  0
  -29.7345  -16.7976   20.0636 C   0  0  0  0  0  0  0  0  0  0  0  0
  -25.2664  -30.4104   21.6724 C   0  0  0  0  0  0  0  0  0  0  0  0
  -30.7477  -22.6529   22.6707 C   0  0  0  0  0  0  0  0  0  0  0  0
  -24.7213  -31.2965   24.9227 C   0  0  0  0  0  0  0  0  0  0  0  0
  -23.7525  -31.4951   14.0983 C   0  0  0  0  0  0  0  0  0  0  0  0
  -25.3508  -27.7142   19.1551 C   0  0  0  0  0  0  0  0  0  0  0  0
  -27.2380  -28.9599   21.0608 C   0  0  0  0  0  0  0  0  0  0  0  0
  -23.7388  -32.0132   15.5341 C   0  0  0  0  0  0  0  0  0  0  0  0
  -29.6661  -13.6145   18.4195 C   0  0  0  0  0  0  0  0  0  0  0  0
  -25.1602  -32.1175   16.0777 C   0  0  0  0  0  0  0  0  0  0  0  0
  -28.4246  -12.9377   18.9991 C   0  0  0  0  0  0  0  0  0  0  0  0
  -30.3650  -14.4841   19.4598 C   0  0  0  0  0  0  0  0  0  0  0  0
  -27.1771  -20.3148   20.1139 C   0  0  0  0  0  0  0  0  0  0  0  0
  -28.2359  -14.8337   20.6709 C   0  0  0  0  0  0  0  0  0  0  0  0
  -26.1359  -21.2891   20.6441 C   0  0  0  0  0  0  0  0  0  0  0  0
  -27.9343  -22.4521   21.8895 C   0  0  0  0  0  0  0  0  0  0  0  0
  -25.8410  -30.7438   16.1091 C   0  0  1  0  0  0  0  0  0  0  0  0
  -25.2588  -29.1909   19.5271 C   0  0  1  0  0  0  0  0  0  0  0  0
  -27.4826  -13.9698   19.6439 C   0  0  2  0  0  0  0  0  0  0  0  0
  -28.9547  -21.4458   21.3373 C   0  0  1  0  0  0  0  0  0  0  0  0
  -24.6036  -33.3038   26.4241 C   0  0  0  0  0  0  0  0  0  0  0  0
  -28.3111  -30.6078   21.6432 C   0  0  0  0  0  0  0  0  0  0  0  0
  -28.1782  -31.9006   23.7831 C   0  0  0  0  0  0  0  0  0  0  0  0
  -27.1236  -32.8077   21.7125 C   0  0  0  0  0  0  0  0  0  0  0  0
  -21.9004  -30.7469   25.6294 C   0  0  0  0  0  0  0  0  0  0  0  0
  -30.0916  -21.3200   22.3608 C   0  0  0  0  0  0  0  0  0  0  0  0
  -29.2334  -19.1526   20.5175 C   0  0  0  0  0  0  0  0  0  0  0  0
  -32.0129  -24.4823   21.5499 C   0  0  0  0  0  0  0  0  0  0  0  0
  -28.5293  -17.3415   22.1713 C   0  0  0  0  0  0  0  0  0  0  0  0
  -31.0710  -25.6384   21.2644 C   0  0  0  0  0  0  0  0  0  1  0  0
  -28.7230  -17.7162   20.7018 C   0  0  2  0  0  0  0  0  0  0  0  0
  -26.0588  -30.8368   22.8845 C   0  0  1  0  0  0  0  0  0  0  0  0
  -23.8169  -32.3464   25.5425 C   0  0  2  0  0  0  0  0  0  0  0  0
  -27.4065  -31.5122   22.5039 C   0  0  0  0  0  0  0  0  0  0  0  0
  -26.3709  -12.0769   20.7684 N   0  0  0  0  0  0  0  0  0  0  0  0
  -26.2565  -13.3112   20.2491 N   0  0  0  0  0  0  0  0  0  0  0  0
  -25.8861  -29.4891   20.8163 N   0  0  0  0  0  0  0  0  0  0  0  0
  -29.4316  -15.4359   20.0649 N   0  0  0  0  0  0  0  0  0  0  0  0
  -28.3003  -20.1475   21.0535 N   0  0  2  0  0  0  0  0  0  0  0  0
  -24.7092  -15.0632   19.8659 N   0  0  0  0  0  0  0  0  0  0  0  0
  -22.2158  -11.8989   21.9069 N   0  0  0  0  0  0  0  0  0  0  0  0
  -25.3698  -29.9719   17.2390 N   0  0  0  0  0  0  0  0  0  0  0  0
  -31.3263  -23.2179   21.5393 N   0  0  0  0  0  0  0  0  0  0  0  0
  -25.1705  -31.6803   23.6769 N   0  0  0  0  0  0  0  0  0  0  0  0
  -26.8004  -22.5888   20.9329 N   0  3  0  0  0  0  0  0  0  0  0  0
  -29.6691  -17.8535   22.9775 N   0  3  0  0  0  0  0  0  0  0  0  0
  -22.7648  -31.6976   26.3751 N   0  3  0  0  0  0  0  0  0  0  0  0
  -22.1661  -13.9919   20.9712 O   0  0  0  0  0  0  0  0  0  0  0  0
  -26.8172  -30.8299   18.8488 O   0  0  0  0  0  0  0  0  0  0  0  0
  -30.7611  -17.2782   19.5764 O   0  0  0  0  0  0  0  0  0  0  0  0
  -24.1362  -30.8721   21.4956 O   0  0  0  0  0  0  0  0  0  0  0  0
  -30.7530  -23.1546   23.7916 O   0  0  0  0  0  0  0  0  0  0  0  0
  -25.0043  -30.2429   25.4889 O   0  0  0  0  0  0  0  0  0  0  0  0
  -24.0037   -6.9230   23.6632 O   0  0  0  0  0  0  0  0  0  0  0  0
  -30.4850  -25.4648   19.9748 O   0  0  0  0  0  0  0  0  0  1  0  0
  -18.7063   -5.5037   24.2348 F   0  0  0  0  0  0  0  0  0  0  0  0
  -23.0219   -4.6117   22.5072 F   0  0  0  0  0  0  0  0  0  0  0  0
  1  2  1  0  0  0  0
  1  5  2  0  0  0  0
  2  6  2  0  0  0  0
  3  8  2  0  0  0  0
  3 15  1  0  0  0  0
  4  9  1  0  0  0  0
  4 15  2  0  0  0  0
  5 17  1  0  0  0  0
  6 19  1  0  0  0  0
  7 10  2  0  0  0  0
  7 18  1  0  0  0  0
  8 21  1  0  0  0  0
  9 21  2  0  0  0  0
 10 22  1  0  0  0  0
 11 12  2  0  0  0  0
 11 23  1  0  0  0  0
 12 24  1  0  0  0  0
 13 20  1  0  0  0  0
 13 22  2  0  0  0  0
 14 24  2  0  0  0  0
 14 25  1  0  0  0  0
 15 26  1  0  0  0  0
 16 26  1  0  0  0  0
 16 27  2  0  0  0  0
 16 28  1  0  0  0  0
 17 19  2  0  0  0  0
 17 34  1  0  0  0  0
 18 20  2  0  0  0  0
 18 35  1  0  0  0  0
 19 46  1  0  0  0  0
 20 36  1  0  0  0  0
 21 83  1  0  0  0  0
 22 84  1  0  0  0  0
 23 25  2  0  0  0  0
 23 83  1  0  0  0  0
 24 85  1  0  0  0  0
 25 86  1  0  0  0  0
 26 64  2  0  0  0  0
 27 65  1  0  0  0  0
 27 69  1  0  0  0  0
 28 70  1  0  0  0  0
 28 77  2  0  0  0  0
 29 47  1  0  0  0  0
 29 71  1  0  0  0  0
 29 78  2  0  0  0  0
 30 60  1  0  0  0  0
 30 67  1  0  0  0  0
 30 79  2  0  0  0  0
 31 61  1  0  0  0  0
 31 66  1  0  0  0  0
 31 80  2  0  0  0  0
 32 55  1  0  0  0  0
 32 72  1  0  0  0  0
 32 81  2  0  0  0  0
 33 62  1  0  0  0  0
 33 73  1  0  0  0  0
 33 82  2  0  0  0  0
 34 37  1  0  0  0  0
 35 47  1  0  0  0  0
 36 66  1  0  0  0  0
 37 39  1  0  0  0  0
 38 40  1  0  0  0  0
 38 41  1  0  0  0  0
 39 46  1  0  0  0  0
 40 48  1  0  0  0  0
 41 67  1  0  0  0  0
 42 44  1  0  0  0  0
 42 68  1  0  0  0  0
 43 48  1  0  0  0  0
 43 67  1  0  0  0  0
 44 74  1  0  0  0  0
 45 49  1  0  0  0  0
 45 74  1  0  0  0  0
 46 71  1  0  0  0  0
 47 66  1  0  0  0  0
 48 65  1  0  0  0  0
 49 55  1  0  0  0  0
 49 68  1  0  0  0  0
 50 62  1  0  0  0  0
 51 63  1  0  0  0  0
 52 63  1  0  0  0  0
 53 63  1  0  0  0  0
 54 76  1  0  0  0  0
 56 60  1  0  0  0  0
 56 68  1  0  0  0  0
 57 59  1  0  0  0  0
 57 72  1  0  0  0  0
 58 60  1  0  0  0  0
 58 75  1  0  0  0  0
 59 84  1  0  0  0  0
 61 63  1  0  0  0  0
 61 73  1  0  0  0  0
 62 76  1  0  0  0  0
 64 65  1  0  0  0  0
M  CHG  3  74   1  75   1  76   1
M  ISO  4  30 100  59 101  60 100  84 101
M  END
> <Batch ID>
0121

> <Smiles>
CNC(C)C(=O)NC(C(=O)N1Cc2cc([101O:1][101CH2:1]CNC(=O)CC3CNCCN3C[100CH:0](CN)[100C:0](=O)N3CCCC(n4nc(-c5ccc(Oc6ccc(F)cc6F)cc5)c(C(N)=O)c4N)C3)ccc2CC1C(=O)NC1CCCc2ccccc21)C(C)(C)C

> <Shape>
0.308

> <Color>
0.116

> <Negative vol penalty>
0.000

$$$$

  -OEChem-04052320253D

 89 98  0     1  0  0  0  0  0999 V2000
  -22.8339  -32.4180   26.0126 C   0  0  0  0  0  0  0  0  0  0  0  0
  -23.7247  -31.5145   25.4420 C   0  0  0  0  0  0  0  0  0  0  0  0
  -27.1486  -16.4965   18.3228 C   0  0  0  0  0  0  0  0  0  0  0  0
  -27.8628  -16.8044   20.6102 C   0  0  0  0  0  0  0  0  0  0  0  0
  -21.4611  -32.2434   25.8426 C   0  0  0  0  0  0  0  0  0  0  0  0
  -23.2431  -30.4351   24.7021 C   0  0  0  0  0  0  0  0  0  0  0  0
  -25.7928  -29.7502   20.3807 C   0  0  0  0  0  0  0  0  0  0  0  0
  -27.7912  -17.6810   17.9628 C   0  0  0  0  0  0  0  0  0  0  0  0
  -28.5055  -17.9889   20.2502 C   0  0  0  0  0  0  0  0  0  0  0  0
  -27.0367  -29.1266   20.4673 C   0  0  0  0  0  0  0  0  0  0  0  0
  -28.9404  -20.8112   16.5118 C   0  0  0  0  0  0  0  0  0  0  0  0
  -28.2520  -21.6987   15.6848 C   0  0  0  0  0  0  0  0  0  0  0  0
  -26.0345  -27.0446   19.7742 C   0  0  0  0  0  0  0  0  0  0  0  0
  -26.5066  -21.8912   17.3443 C   0  0  0  0  0  0  0  0  0  0  0  0
  -28.2186  -24.2580   23.8886 C   0  0  0  0  0  0  0  0  0  0  0  0
  -29.1068  -24.2262   21.8331 C   0  0  0  0  0  0  0  0  0  0  0  0
  -27.1844  -16.0582   19.6466 C   0  0  0  0  0  0  0  0  0  0  0  0
  -27.0674  -13.5379   20.0233 C   0  0  0  0  0  0  0  0  0  0  0  0
  -20.9628  -31.1668   25.0922 C   0  0  0  0  0  0  0  0  0  0  0  0
  -24.6565  -29.0220   20.0001 C   0  0  0  0  0  0  0  0  0  0  0  0
  -21.8624  -30.2452   24.5231 C   0  0  0  0  0  0  0  0  0  0  0  0
  -24.7778  -27.6620   19.6810 C   0  0  0  0  0  0  0  0  0  0  0  0
  -28.8440  -25.4693   23.6920 C   0  0  0  0  0  0  0  0  0  0  0  0
  -29.4061  -25.4493   22.3917 C   0  0  0  0  0  0  0  0  0  0  0  0
  -28.4696  -18.4272   18.9264 C   0  0  0  0  0  0  0  0  0  0  0  0
  -27.1572  -27.7729   20.1669 C   0  0  0  0  0  0  0  0  0  0  0  0
  -28.4119  -20.4636   17.7551 C   0  0  0  0  0  0  0  0  0  0  0  0
  -27.0351  -22.2387   16.1010 C   0  0  0  0  0  0  0  0  0  0  0  0
  -27.1951  -21.0037   18.1713 C   0  0  0  0  0  0  0  0  0  0  0  0
  -26.5204  -14.8350   20.0193 C   0  0  0  0  0  0  0  0  0  0  0  0
  -26.0404  -12.7335   20.4531 C   0  0  0  0  0  0  0  0  0  0  0  0
  -28.3860  -13.0993   19.6701 C   0  0  0  0  0  0  0  0  0  0  0  0
  -21.8937  -28.2873   21.3897 C   0  0  0  0  0  0  0  0  0  0  0  0
  -21.2011  -27.0520   18.4714 C   0  0  0  0  0  0  0  0  0  0  0  0
  -22.3441  -25.7670   15.5236 C   0  0  0  0  0  0  0  0  0  0  0  0
  -22.2890  -16.6460   21.4914 C   0  0  0  0  0  0  0  0  0  0  0  0
  -19.4692  -30.9928   24.9757 C   0  0  0  0  0  0  0  0  0  0  0  0
  -23.3267  -29.7156   19.8856 C   0  0  0  0  0  0  0  0  0  0  0  0
  -23.5922  -26.8403   19.2478 C   0  0  0  0  0  0  0  0  0  0  0  0
  -19.0526  -30.0340   23.8633 C   0  0  0  0  0  0  0  0  0  0  0  0
  -22.0570  -13.8741   19.2487 C   0  0  0  0  0  0  0  0  0  0  0  0
  -21.6799  -17.5815   24.9416 C   0  0  0  0  0  0  0  0  0  0  0  0
  -19.8942  -28.7627   23.9112 C   0  0  0  0  0  0  0  0  0  0  0  0
  -22.6989  -12.7112   19.9971 C   0  0  0  0  0  0  0  0  0  0  0  0
  -22.6948  -18.6566   24.5791 C   0  0  0  0  0  0  0  0  0  0  0  0
  -21.3036  -14.7799   20.2105 C   0  0  0  0  0  0  0  0  0  0  0  0
  -22.0652  -16.4360   24.0183 C   0  0  0  0  0  0  0  0  0  0  0  0
  -22.8897  -14.2326   22.0466 C   0  0  0  0  0  0  0  0  0  0  0  0
  -21.3794  -29.0758   23.6929 C   0  0  1  0  0  0  0  0  0  0  0  0
  -22.1430  -28.7583   19.9848 C   0  0  1  0  0  0  0  0  0  0  0  0
  -23.5904  -13.1783   21.1589 C   0  0  2  0  0  0  0  0  0  0  0  0
  -22.8433  -18.5028   23.0629 C   0  0  1  0  0  0  0  0  0  0  0  0
  -28.9088  -26.5781   24.6648 C   0  0  0  0  0  0  0  0  0  0  0  0
  -21.5390  -24.8093   13.3483 C   0  0  0  0  0  0  0  0  0  0  0  0
  -25.6285  -22.9510   21.6958 C   0  0  0  0  0  0  0  0  0  0  0  0
  -20.5126  -24.4350   19.8811 C   0  0  0  0  0  0  0  0  0  0  0  0
  -20.6455  -23.2851   17.6611 C   0  0  0  0  0  0  0  0  0  0  0  0
  -18.9455  -25.0712   18.0388 C   0  0  0  0  0  0  0  0  0  0  0  0
  -23.6544  -27.9119   13.9611 C   0  0  0  0  0  0  0  0  0  0  0  0
  -30.1728  -26.5319   21.7442 C   0  0  0  0  0  0  0  0  0  0  0  0
  -24.2392  -18.8831   22.5864 C   0  0  0  0  0  0  0  0  0  0  0  0
  -27.8687  -22.1593   22.5499 C   0  0  0  0  0  0  0  0  0  0  0  0
  -24.5746  -20.3159   22.9643 C   0  0  0  0  0  0  0  0  0  0  0  0
  -29.2911  -27.6739   21.2122 C   0  0  0  0  0  0  0  0  0  1  0  0
  -21.3816  -25.7073   17.8094 C   0  0  1  0  0  0  0  0  0  0  0  0
  -21.9738  -26.0681   14.0826 C   0  0  2  0  0  0  0  0  0  0  0  0
  -26.3476  -22.0544   22.6945 C   0  0  2  0  0  0  0  0  0  0  0  0
  -20.3935  -24.6394   18.3576 C   0  0  0  0  0  0  0  0  0  0  0  0
  -25.2449  -14.8579   20.4150 N   0  0  0  0  0  0  0  0  0  0  0  0
  -28.3845  -23.5105   22.7519 N   0  0  0  0  0  0  0  0  0  0  0  0
  -24.9818  -13.5652   20.6716 N   0  0  0  0  0  0  0  0  0  0  0  0
  -22.3124  -27.5623   19.1572 N   0  0  0  0  0  0  0  0  0  0  0  0
  -22.1615  -15.2633   21.2926 N   0  0  0  0  0  0  0  0  0  0  0  0
  -22.5185  -17.0968   22.7933 N   0  0  0  0  0  0  0  0  0  0  0  0
  -25.9487  -11.4028   20.6616 N   0  0  0  0  0  0  0  0  0  0  0  0
  -29.3184  -14.0574   19.2493 N   0  0  0  0  0  0  0  0  0  0  0  0
  -21.6463  -29.3065   22.2893 N   0  0  0  0  0  0  0  0  0  0  0  0
  -21.2723  -25.9413   16.3735 N   0  0  0  0  0  0  0  0  0  0  0  0
  -23.1378  -26.6552   13.3605 N   0  3  0  0  0  0  0  0  0  0  0  0
  -25.9201  -20.6513   22.4396 N   0  3  0  0  0  0  0  0  0  0  0  0
  -28.7223  -11.8916   19.7104 O   0  0  0  0  0  0  0  0  0  0  0  0
  -21.9223  -27.0877   21.6387 O   0  0  0  0  0  0  0  0  0  0  0  0
  -20.1162  -27.6316   18.3772 O   0  0  0  0  0  0  0  0  0  0  0  0
  -23.4704  -25.4091   15.8611 O   0  0  0  0  0  0  0  0  0  0  0  0
  -22.1920  -17.4437   20.5494 O   0  0  0  0  0  0  0  0  0  0  0  0
  -29.0969  -19.5830   18.5753 O   0  0  0  0  0  0  0  0  0  0  0  0
  -28.3786  -27.1573   20.2518 O   0  0  0  0  0  0  0  0  0  1  0  0
  -26.3749  -23.0922   15.3074 F   0  0  0  0  0  0  0  0  0  0  0  0
  -26.6829  -20.6745   19.3651 F   0  0  0  0  0  0  0  0  0  0  0  0
  1  2  1  0  0  0  0
  1  5  2  0  0  0  0
  2  6  2  0  0  0  0
  3  8  2  0  0  0  0
  3 17  1  0  0  0  0
  4  9  1  0  0  0  0
  4 17  2  0  0  0  0
  5 19  1  0  0  0  0
  6 21  1  0  0  0  0
  7 10  2  0  0  0  0
  7 20  1  0  0  0  0
  8 25  1  0  0  0  0
  9 25  2  0  0  0  0
 10 26  1  0  0  0  0
 11 12  2  0  0  0  0
 11 27  1  0  0  0  0
 12 28  1  0  0  0  0
 13 22  1  0  0  0  0
 13 26  2  0  0  0  0
 14 28  2  0  0  0  0
 14 29  1  0  0  0  0
 15 23  2  0  0  0  0
 15 70  1  0  0  0  0
 16 24  2  0  0  0  0
 16 70  1  0  0  0  0
 17 30  1  0  0  0  0
 18 30  1  0  0  0  0
 18 31  2  0  0  0  0
 18 32  1  0  0  0  0
 19 21  2  0  0  0  0
 19 37  1  0  0  0  0
 20 22  2  0  0  0  0
 20 38  1  0  0  0  0
 21 49  1  0  0  0  0
 22 39  1  0  0  0  0
 23 24  1  0  0  0  0
 23 53  1  0  0  0  0
 24 60  1  0  0  0  0
 25 86  1  0  0  0  0
 26 87  1  0  0  0  0
 27 29  2  0  0  0  0
 27 86  1  0  0  0  0
 28 88  1  0  0  0  0
 29 89  1  0  0  0  0
 30 69  2  0  0  0  0
 31 71  1  0  0  0  0
 31 75  1  0  0  0  0
 32 76  1  0  0  0  0
 32 81  2  0  0  0  0
 33 50  1  0  0  0  0
 33 77  1  0  0  0  0
 33 82  2  0  0  0  0
 34 65  1  0  0  0  0
 34 72  1  0  0  0  0
 34 83  2  0  0  0  0
 35 66  1  0  0  0  0
 35 78  1  0  0  0  0
 35 84  2  0  0  0  0
 36 73  1  0  0  0  0
 36 74  1  0  0  0  0
 36 85  2  0  0  0  0
 37 40  1  0  0  0  0
 38 50  1  0  0  0  0
 39 72  1  0  0  0  0
 40 43  1  0  0  0  0
 41 44  1  0  0  0  0
 41 46  1  0  0  0  0
 42 45  1  0  0  0  0
 42 47  1  0  0  0  0
 43 49  1  0  0  0  0
 44 51  1  0  0  0  0
 45 52  1  0  0  0  0
 46 73  1  0  0  0  0
 47 74  1  0  0  0  0
 48 51  1  0  0  0  0
 48 73  1  0  0  0  0
 49 77  1  0  0  0  0
 50 72  1  0  0  0  0
 51 71  1  0  0  0  0
 52 61  1  0  0  0  0
 52 74  1  0  0  0  0
 54 66  1  0  0  0  0
 55 67  1  0  0  0  0
 56 68  1  0  0  0  0
 57 68  1  0  0  0  0
 58 68  1  0  0  0  0
 59 79  1  0  0  0  0
 60 64  1  0  0  0  0
 61 63  1  0  0  0  0
 62 67  1  0  0  0  0
 62 70  1  0  0  0  0
 63 80  1  0  0  0  0
 64 87  1  0  0  0  0
 65 68  1  0  0  0  0
 65 78  1  0  0  0  0
 66 79  1  0  0  0  0
 67 80  1  0  0  0  0
 69 71  1  0  0  0  0
M  CHG  2  79   1  80   1
M  ISO  4  36 100  64 101  74 100  87 101
M  END
> <Batch ID>
0121

> <Smiles>
CNC(C)C(=O)NC(C(=O)N1Cc2cc([101O:1][101CH2:1]Cc3cn(CC(C)NCCC4CCC[100N:0]4[100C:0](=O)N4CCCC(n5nc(-c6ccc(Oc7ccc(F)cc7F)cc6)c(C(N)=O)c5N)C4)cc3C)ccc2CC1C(=O)NC1CCCc2ccccc21)C(C)(C)C

> <Shape>
0.202

> <Color>
0.091

> <Negative vol penalty>
0.000

$$$$

  -OEChem-04052320253D

 82 90  0     1  0  0  0  0  0999 V2000
  -29.3937  -29.5606   26.9313 C   0  0  0  0  0  0  0  0  0  0  0  0
  -29.2081  -28.5512   25.9921 C   0  0  0  0  0  0  0  0  0  0  0  0
  -23.0578   -9.8506   19.9412 C   0  0  0  0  0  0  0  0  0  0  0  0
  -23.8428   -9.8361   22.2260 C   0  0  0  0  0  0  0  0  0  0  0  0
  -28.4047  -30.5247   27.1215 C   0  0  0  0  0  0  0  0  0  0  0  0
  -28.0326  -28.5047   25.2433 C   0  0  0  0  0  0  0  0  0  0  0  0
  -28.8911  -27.6095   20.3335 C   0  0  0  0  0  0  0  0  0  0  0  0
  -30.5442  -19.0792   22.5358 C   0  0  0  0  0  0  0  0  0  0  0  0
  -22.3269   -8.6878   20.1849 C   0  0  0  0  0  0  0  0  0  0  0  0
  -23.1119   -8.6733   22.4698 C   0  0  0  0  0  0  0  0  0  0  0  0
  -29.1691  -26.2938   19.9652 C   0  0  0  0  0  0  0  0  0  0  0  0
  -23.4259   -5.3612   21.8681 C   0  0  0  0  0  0  0  0  0  0  0  0
  -24.0582   -4.3327   22.5665 C   0  0  0  0  0  0  0  0  0  0  0  0
  -30.0166  -20.3292   22.2319 C   0  0  0  0  0  0  0  0  0  0  0  0
  -26.8859  -26.0219   19.2356 C   0  0  0  0  0  0  0  0  0  0  0  0
  -22.3743   -4.4700   24.2935 C   0  0  0  0  0  0  0  0  0  0  0  0
  -29.6009  -18.2479   20.5169 C   0  0  0  0  0  0  0  0  0  0  0  0
  -23.8158  -10.4247   20.9617 C   0  0  0  0  0  0  0  0  0  0  0  0
  -24.1341  -12.9541   20.8693 C   0  0  0  0  0  0  0  0  0  0  0  0
  -27.2207  -30.4956   26.3679 C   0  0  0  0  0  0  0  0  0  0  0  0
  -27.6034  -28.1386   20.1653 C   0  0  0  0  0  0  0  0  0  0  0  0
  -27.0262  -29.4686   25.4246 C   0  0  0  0  0  0  0  0  0  0  0  0
  -26.5948  -27.3453   19.6001 C   0  0  0  0  0  0  0  0  0  0  0  0
  -30.3369  -18.0134   21.6671 C   0  0  0  0  0  0  0  0  0  0  0  0
  -22.3539   -8.0992   21.4492 C   0  0  0  0  0  0  0  0  0  0  0  0
  -28.1658  -25.4989   19.4189 C   0  0  0  0  0  0  0  0  0  0  0  0
  -22.2677   -5.9442   22.3824 C   0  0  0  0  0  0  0  0  0  0  0  0
  -23.5324   -3.8871   23.7792 C   0  0  0  0  0  0  0  0  0  0  0  0
  -21.7419   -5.4986   23.5951 C   0  0  0  0  0  0  0  0  0  0  0  0
  -24.5715  -11.6255   20.7104 C   0  0  0  0  0  0  0  0  0  0  0  0
  -29.2951  -20.4601   21.0562 C   0  0  0  0  0  0  0  0  0  0  0  0
  -25.2155  -13.7177   20.5035 C   0  0  0  0  0  0  0  0  0  0  0  0
  -22.8638  -13.4533   21.3085 C   0  0  0  0  0  0  0  0  0  0  0  0
  -28.7055  -21.7788   20.6791 C   0  0  0  0  0  0  0  0  0  0  0  0
  -25.3799  -29.2937   22.1213 C   0  0  0  0  0  0  0  0  0  0  0  0
  -23.8654  -30.0123   19.3442 C   0  0  0  0  0  0  0  0  0  0  0  0
  -23.4403  -29.3565   16.0222 C   0  0  0  0  0  0  0  0  0  0  0  0
  -30.7232  -14.7416   20.7044 C   0  0  0  0  0  0  0  0  0  0  0  0
  -26.1599  -31.5319   26.6423 C   0  0  0  0  0  0  0  0  0  0  0  0
  -27.3265  -29.5681   20.5428 C   0  0  0  0  0  0  0  0  0  0  0  0
  -25.2011  -27.8723   19.3801 C   0  0  0  0  0  0  0  0  0  0  0  0
  -25.1046  -31.6291   25.5435 C   0  0  0  0  0  0  0  0  0  0  0  0
  -29.5408  -12.4435   18.2338 C   0  0  0  0  0  0  0  0  0  0  0  0
  -24.6237  -30.2386   25.1408 C   0  0  0  0  0  0  0  0  0  0  0  0
  -28.1191  -12.1120   18.6834 C   0  0  0  0  0  0  0  0  0  0  0  0
  -30.4698  -12.6326   19.4284 C   0  0  0  0  0  0  0  0  0  0  0  0
  -28.5791  -13.3401   20.8567 C   0  0  0  0  0  0  0  0  0  0  0  0
  -25.7755  -29.3988   24.5755 C   0  0  1  0  0  0  0  0  0  0  0  0
  -25.8484  -29.8417   20.8030 C   0  0  1  0  0  0  0  0  0  0  0  0
  -27.5993  -13.1607   19.6816 C   0  0  2  0  0  0  0  0  0  0  0  0
  -22.1046  -30.0834   14.0259 C   0  0  0  0  0  0  0  0  0  0  0  0
  -21.4375  -28.5140   20.4261 C   0  0  0  0  0  0  0  0  0  0  0  0
  -20.5260  -28.4492   18.0952 C   0  0  0  0  0  0  0  0  0  0  0  0
  -20.9008  -30.6411   19.2255 C   0  0  0  0  0  0  0  0  0  0  0  0
  -25.8731  -30.1652   14.5435 C   0  0  0  0  0  0  0  0  0  0  0  0
  -27.9190  -21.8825   19.3787 C   0  0  0  0  0  0  0  0  0  0  0  0
  -27.3593  -23.2792   19.1390 C   0  0  0  0  0  0  0  0  0  1  0  0
  -22.8917  -29.2949   18.4408 C   0  0  1  0  0  0  0  0  0  0  0  0
  -23.3922  -30.2726   14.8127 C   0  0  2  0  0  0  0  0  0  0  0  0
  -21.4647  -29.2140   19.0527 C   0  0  0  0  0  0  0  0  0  0  0  0
  -29.0728  -19.4481   20.1879 N   0  0  0  0  0  0  0  0  0  0  0  0
  -25.8325  -11.5461   20.2772 N   0  0  0  0  0  0  0  0  0  0  0  0
  -26.1966  -12.8345   20.1607 N   0  0  0  0  0  0  0  0  0  0  0  0
  -24.9782  -29.2740   19.7711 N   0  0  0  0  0  0  0  0  0  0  0  0
  -29.9359  -13.6274   20.3626 N   0  0  0  0  0  0  0  0  0  0  0  0
  -25.4134  -15.0518   20.4447 N   0  0  0  0  0  0  0  0  0  0  0  0
  -21.8637  -12.5311   21.6454 N   0  0  0  0  0  0  0  0  0  0  0  0
  -30.8555  -16.7435   21.9479 N   0  0  0  0  0  0  0  0  0  0  0  0
  -26.0657  -29.7910   23.2130 N   0  0  0  0  0  0  0  0  0  0  0  0
  -22.9516  -29.9769   17.1525 N   0  0  0  0  0  0  0  0  0  0  0  0
  -30.1382  -15.6361   21.5865 N   0  0  0  0  0  0  0  0  0  0  0  0
  -24.5420  -29.9946   13.9063 N   0  3  0  0  0  0  0  0  0  0  0  0
  -22.6174  -14.6810   21.3837 O   0  0  0  0  0  0  0  0  0  0  0  0
  -28.8687  -22.7427   21.4236 O   0  0  0  0  0  0  0  0  0  0  0  0
  -24.4631  -28.4809   22.1462 O   0  0  0  0  0  0  0  0  0  0  0  0
  -23.6502  -31.1869   19.6538 O   0  0  0  0  0  0  0  0  0  0  0  0
  -23.8651  -28.2045   15.9687 O   0  0  0  0  0  0  0  0  0  0  0  0
  -31.8575  -14.9216   20.2475 O   0  0  0  0  0  0  0  0  0  0  0  0
  -21.6406   -6.9648   21.6874 O   0  0  0  0  0  0  0  0  0  0  0  0
  -28.4343  -24.2142   19.0593 O   0  0  0  0  0  0  0  0  0  1  0  0
  -24.1389   -2.8983   24.4490 F   0  0  0  0  0  0  0  0  0  0  0  0
  -20.6289   -6.0541   24.0936 F   0  0  0  0  0  0  0  0  0  0  0  0
  1  2  1  0  0  0  0
  1  5  2  0  0  0  0
  2  6  2  0  0  0  0
  3  9  2  0  0  0  0
  3 18  1  0  0  0  0
  4 10  1  0  0  0  0
  4 18  2  0  0  0  0
  5 20  1  0  0  0  0
  6 22  1  0  0  0  0
  7 11  2  0  0  0  0
  7 21  1  0  0  0  0
  8 14  2  0  0  0  0
  8 24  1  0  0  0  0
  9 25  1  0  0  0  0
 10 25  2  0  0  0  0
 11 26  1  0  0  0  0
 12 13  2  0  0  0  0
 12 27  1  0  0  0  0
 13 28  1  0  0  0  0
 14 31  1  0  0  0  0
 15 23  1  0  0  0  0
 15 26  2  0  0  0  0
 16 28  2  0  0  0  0
 16 29  1  0  0  0  0
 17 24  2  0  0  0  0
 17 61  1  0  0  0  0
 18 30  1  0  0  0  0
 19 30  1  0  0  0  0
 19 32  2  0  0  0  0
 19 33  1  0  0  0  0
 20 22  2  0  0  0  0
 20 39  1  0  0  0  0
 21 23  2  0  0  0  0
 21 40  1  0  0  0  0
 22 48  1  0  0  0  0
 23 41  1  0  0  0  0
 24 68  1  0  0  0  0
 25 79  1  0  0  0  0
 26 80  1  0  0  0  0
 27 29  2  0  0  0  0
 27 79  1  0  0  0  0
 28 81  1  0  0  0  0
 29 82  1  0  0  0  0
 30 62  2  0  0  0  0
 31 34  1  0  0  0  0
 31 61  2  0  0  0  0
 32 63  1  0  0  0  0
 32 66  1  0  0  0  0
 33 67  1  0  0  0  0
 33 73  2  0  0  0  0
 34 56  1  0  0  0  0
 34 74  2  0  0  0  0
 35 49  1  0  0  0  0
 35 69  1  0  0  0  0
 35 75  2  0  0  0  0
 36 58  1  0  0  0  0
 36 64  1  0  0  0  0
 36 76  2  0  0  0  0
 37 59  1  0  0  0  0
 37 70  1  0  0  0  0
 37 77  2  0  0  0  0
 38 65  1  0  0  0  0
 38 71  1  0  0  0  0
 38 78  2  0  0  0  0
 39 42  1  0  0  0  0
 40 49  1  0  0  0  0
 41 64  1  0  0  0  0
 42 44  1  0  0  0  0
 43 45  1  0  0  0  0
 43 46  1  0  0  0  0
 44 48  1  0  0  0  0
 45 50  1  0  0  0  0
 46 65  1  0  0  0  0
 47 50  1  0  0  0  0
 47 65  1  0  0  0  0
 48 69  1  0  0  0  0
 49 64  1  0  0  0  0
 50 63  1  0  0  0  0
 51 59  1  0  0  0  0
 52 60  1  0  0  0  0
 53 60  1  0  0  0  0
 54 60  1  0  0  0  0
 55 72  1  0  0  0  0
 56 57  1  0  0  0  0
 57 80  1  0  0  0  0
 58 60  1  0  0  0  0
 58 70  1  0  0  0  0
 59 72  1  0  0  0  0
 62 63  1  0  0  0  0
 68 71  1  0  0  0  0
M  CHG  1  72   1
M  ISO  4  38 100  57 101  71 100  80 101
M  END
> <Batch ID>
0121

> <Smiles>
CNC(C)C(=O)NC(C(=O)N1Cc2cc([101O:1][101CH2:1]CC(=O)c3ccc(N[100NH:0][100C:0](=O)N4CCCC(n5nc(-c6ccc(Oc7ccc(F)cc7F)cc6)c(C(N)=O)c5N)C4)cn3)ccc2CC1C(=O)NC1CCCc2ccccc21)C(C)(C)C

> <Shape>
0.367

> <Color>
0.224

> <Negative vol penalty>
0.000

$$$$

  -OEChem-04052320253D

 79 87  0     1  0  0  0  0  0999 V2000
  -26.2557  -33.1308   18.4077 C   0  0  0  0  0  0  0  0  0  0  0  0
  -26.8579  -31.9800   18.9060 C   0  0  0  0  0  0  0  0  0  0  0  0
  -23.1007   -9.8373   19.9341 C   0  0  0  0  0  0  0  0  0  0  0  0
  -23.8695   -9.8462   22.2244 C   0  0  0  0  0  0  0  0  0  0  0  0
  -25.3740  -33.0446   17.3311 C   0  0  0  0  0  0  0  0  0  0  0  0
  -26.5779  -30.7420   18.3287 C   0  0  0  0  0  0  0  0  0  0  0  0
  -30.4333  -26.0292   17.6725 C   0  0  0  0  0  0  0  0  0  0  0  0
  -29.1411  -18.7571   21.0185 C   0  0  0  0  0  0  0  0  0  0  0  0
  -31.3554  -18.5679   20.0707 C   0  0  0  0  0  0  0  0  0  0  0  0
  -28.8580  -19.8089   20.1472 C   0  0  0  0  0  0  0  0  0  0  0  0
  -31.0723  -19.6197   19.1994 C   0  0  0  0  0  0  0  0  0  0  0  0
  -22.3825   -8.6671   20.1797 C   0  0  0  0  0  0  0  0  0  0  0  0
  -23.1512   -8.6760   22.4701 C   0  0  0  0  0  0  0  0  0  0  0  0
  -30.6269  -24.8652   18.4152 C   0  0  0  0  0  0  0  0  0  0  0  0
  -19.9432   -7.8061   23.0802 C   0  0  0  0  0  0  0  0  0  0  0  0
  -19.1920   -7.7429   24.2538 C   0  0  0  0  0  0  0  0  0  0  0  0
  -29.1880  -23.6642   16.8965 C   0  0  0  0  0  0  0  0  0  0  0  0
  -20.4772   -5.8277   24.9732 C   0  0  0  0  0  0  0  0  0  0  0  0
  -23.8443  -10.4268   20.9564 C   0  0  0  0  0  0  0  0  0  0  0  0
  -24.1320  -12.9594   20.8509 C   0  0  0  0  0  0  0  0  0  0  0  0
  -25.0904  -31.8062   16.7341 C   0  0  0  0  0  0  0  0  0  0  0  0
  -29.6055  -26.0219   16.5406 C   0  0  0  0  0  0  0  0  0  0  0  0
  -25.6905  -30.6389   17.2439 C   0  0  0  0  0  0  0  0  0  0  0  0
  -28.9876  -24.8287   16.1397 C   0  0  0  0  0  0  0  0  0  0  0  0
  -30.3898  -18.1366   20.9803 C   0  0  0  0  0  0  0  0  0  0  0  0
  -29.8236  -20.2402   19.2377 C   0  0  0  0  0  0  0  0  0  0  0  0
  -22.4077   -8.0864   21.4477 C   0  0  0  0  0  0  0  0  0  0  0  0
  -30.0019  -23.6832   18.0289 C   0  0  0  0  0  0  0  0  0  0  0  0
  -20.9613   -6.8801   22.8531 C   0  0  0  0  0  0  0  0  0  0  0  0
  -19.4590   -6.7537   25.2003 C   0  0  0  0  0  0  0  0  0  0  0  0
  -21.2283   -5.8909   23.7996 C   0  0  0  0  0  0  0  0  0  0  0  0
  -24.5869  -11.6354   20.7032 C   0  0  0  0  0  0  0  0  0  0  0  0
  -25.2065  -13.7341   20.4881 C   0  0  0  0  0  0  0  0  0  0  0  0
  -22.8525  -13.4455   21.2780 C   0  0  0  0  0  0  0  0  0  0  0  0
  -26.9174  -27.5054   15.7179 C   0  0  0  0  0  0  0  0  0  0  0  0
  -27.4575  -26.0678   12.8607 C   0  0  0  0  0  0  0  0  0  0  0  0
  -28.9270  -23.5185   11.1320 C   0  0  0  0  0  0  0  0  0  0  0  0
  -30.6681  -14.8682   20.6614 C   0  0  0  0  0  0  0  0  0  0  0  0
  -24.0943  -31.7568   15.6028 C   0  0  0  0  0  0  0  0  0  0  0  0
  -29.4283  -27.2796   15.7349 C   0  0  0  0  0  0  0  0  0  0  0  0
  -28.1054  -24.7632   14.9207 C   0  0  0  0  0  0  0  0  0  0  0  0
  -24.1397  -30.4546   14.8075 C   0  0  0  0  0  0  0  0  0  0  0  0
  -29.5717  -12.4749   18.2642 C   0  0  0  0  0  0  0  0  0  0  0  0
  -24.1751  -29.2550   15.7492 C   0  0  0  0  0  0  0  0  0  0  0  0
  -28.1426  -12.1480   18.7009 C   0  0  0  0  0  0  0  0  0  0  0  0
  -30.4888  -12.7077   19.4629 C   0  0  0  0  0  0  0  0  0  0  0  0
  -28.5776  -13.3896   20.8614 C   0  0  0  0  0  0  0  0  0  0  0  0
  -25.4311  -29.2809   16.6286 C   0  0  1  0  0  0  0  0  0  0  0  0
  -28.1542  -27.2771   14.8958 C   0  0  1  0  0  0  0  0  0  0  0  0
  -27.6026  -13.2017   19.6865 C   0  0  2  0  0  0  0  0  0  0  0  0
  -29.1577  -22.5866    8.8134 C   0  0  0  0  0  0  0  0  0  0  0  0
  -24.6287  -24.9379   13.0360 C   0  0  0  0  0  0  0  0  0  0  0  0
  -25.2453  -23.3033   11.2426 C   0  0  0  0  0  0  0  0  0  0  0  0
  -25.2883  -25.7512   10.7649 C   0  0  0  0  0  0  0  0  0  0  0  0
  -31.8638  -23.8847   11.1519 C   0  0  0  0  0  0  0  0  0  0  0  0
  -30.6933  -17.0120   21.9115 C   0  0  0  0  0  0  0  0  0  0  0  0
  -29.5177  -21.3705   18.2996 C   0  0  0  0  0  0  0  0  0  1  0  0
  -27.0774  -24.7449   12.2408 C   0  0  1  0  0  0  0  0  0  0  0  0
  -29.7581  -23.5105    9.8616 C   0  0  2  0  0  0  0  0  0  0  0  0
  -25.5749  -24.6857   11.8452 C   0  0  0  0  0  0  0  0  0  0  0  0
  -25.8518  -11.5690   20.2794 N   0  0  0  0  0  0  0  0  0  0  0  0
  -26.2008  -12.8611   20.1576 N   0  0  0  0  0  0  0  0  0  0  0  0
  -27.9582  -26.0208   14.1695 N   0  0  0  0  0  0  0  0  0  0  0  0
  -29.9201  -13.7188   20.3574 N   0  0  0  0  0  0  0  0  0  0  0  0
  -25.3883  -15.0702   20.4226 N   0  0  0  0  0  0  0  0  0  0  0  0
  -21.8615  -12.5130   21.6135 N   0  0  0  0  0  0  0  0  0  0  0  0
  -26.5846  -28.8373   15.8756 N   0  0  0  0  0  0  0  0  0  0  0  0
  -27.9970  -24.5365   11.1275 N   0  0  0  0  0  0  0  0  0  0  0  0
  -30.0528  -15.7789   21.5116 N   0  0  0  0  0  0  0  0  0  0  0  0
  -31.1456  -23.0516   10.1533 N   0  3  0  0  0  0  0  0  0  0  0  0
  -22.5905  -14.6704   21.3440 O   0  0  0  0  0  0  0  0  0  0  0  0
  -26.3092  -26.5444   16.1741 O   0  0  0  0  0  0  0  0  0  0  0  0
  -27.3221  -27.1040   12.2052 O   0  0  0  0  0  0  0  0  0  0  0  0
  -29.0845  -22.7010   12.0361 O   0  0  0  0  0  0  0  0  0  0  0  0
  -31.7982  -15.0706   20.2045 O   0  0  0  0  0  0  0  0  0  0  0  0
  -21.7068   -6.9447   21.6878 O   0  0  0  0  0  0  0  0  0  0  0  0
  -30.1886  -22.5458   18.7524 O   0  0  0  0  0  0  0  0  0  1  0  0
  -18.7385   -6.6940   26.3279 F   0  0  0  0  0  0  0  0  0  0  0  0
  -22.2060   -4.9993   23.5875 F   0  0  0  0  0  0  0  0  0  0  0  0
  1  2  1  0  0  0  0
  1  5  2  0  0  0  0
  2  6  2  0  0  0  0
  3 12  2  0  0  0  0
  3 19  1  0  0  0  0
  4 13  1  0  0  0  0
  4 19  2  0  0  0  0
  5 21  1  0  0  0  0
  6 23  1  0  0  0  0
  7 14  2  0  0  0  0
  7 22  1  0  0  0  0
  8 10  2  0  0  0  0
  8 25  1  0  0  0  0
  9 11  1  0  0  0  0
  9 25  2  0  0  0  0
 10 26  1  0  0  0  0
 11 26  2  0  0  0  0
 12 27  1  0  0  0  0
 13 27  2  0  0  0  0
 14 28  1  0  0  0  0
 15 16  2  0  0  0  0
 15 29  1  0  0  0  0
 16 30  1  0  0  0  0
 17 24  1  0  0  0  0
 17 28  2  0  0  0  0
 18 30  2  0  0  0  0
 18 31  1  0  0  0  0
 19 32  1  0  0  0  0
 20 32  1  0  0  0  0
 20 33  2  0  0  0  0
 20 34  1  0  0  0  0
 21 23  2  0  0  0  0
 21 39  1  0  0  0  0
 22 24  2  0  0  0  0
 22 40  1  0  0  0  0
 23 48  1  0  0  0  0
 24 41  1  0  0  0  0
 25 56  1  0  0  0  0
 26 57  1  0  0  0  0
 27 76  1  0  0  0  0
 28 77  1  0  0  0  0
 29 31  2  0  0  0  0
 29 76  1  0  0  0  0
 30 78  1  0  0  0  0
 31 79  1  0  0  0  0
 32 61  2  0  0  0  0
 33 62  1  0  0  0  0
 33 65  1  0  0  0  0
 34 66  1  0  0  0  0
 34 71  2  0  0  0  0
 35 49  1  0  0  0  0
 35 67  1  0  0  0  0
 35 72  2  0  0  0  0
 36 58  1  0  0  0  0
 36 63  1  0  0  0  0
 36 73  2  0  0  0  0
 37 59  1  0  0  0  0
 37 68  1  0  0  0  0
 37 74  2  0  0  0  0
 38 64  1  0  0  0  0
 38 69  1  0  0  0  0
 38 75  2  0  0  0  0
 39 42  1  0  0  0  0
 40 49  1  0  0  0  0
 41 63  1  0  0  0  0
 42 44  1  0  0  0  0
 43 45  1  0  0  0  0
 43 46  1  0  0  0  0
 44 48  1  0  0  0  0
 45 50  1  0  0  0  0
 46 64  1  0  0  0  0
 47 50  1  0  0  0  0
 47 64  1  0  0  0  0
 48 67  1  0  0  0  0
 49 63  1  0  0  0  0
 50 62  1  0  0  0  0
 51 59  1  0  0  0  0
 52 60  1  0  0  0  0
 53 60  1  0  0  0  0
 54 60  1  0  0  0  0
 55 70  1  0  0  0  0
 56 69  1  0  0  0  0
 57 77  1  0  0  0  0
 58 60  1  0  0  0  0
 58 68  1  0  0  0  0
 59 70  1  0  0  0  0
 61 62  1  0  0  0  0
M  CHG  1  70   1
M  ISO  4  38 100  57 101  69 100  77 101
M  END
> <Batch ID>
0121

> <Smiles>
CNC(C)C(=O)NC(C(=O)N1Cc2cc([101O:1][101CH2:1]c3ccc(C[100NH:0][100C:0](=O)N4CCCC(n5nc(-c6ccc(Oc7ccc(F)cc7F)cc6)c(C(N)=O)c5N)C4)cc3)ccc2CC1C(=O)NC1CCCc2ccccc21)C(C)(C)C

> <Shape>
0.232

> <Color>
0.203

> <Negative vol penalty>
0.000

$$$$

  -OEChem-04052320253D

 89 99  0     1  0  0  0  0  0999 V2000
  -27.3900  -34.5980   21.9479 C   0  0  0  0  0  0  0  0  0  0  0  0
  -28.0775  -33.6790   22.7341 C   0  0  0  0  0  0  0  0  0  0  0  0
  -23.0141   -9.8581   19.9887 C   0  0  0  0  0  0  0  0  0  0  0  0
  -23.7122   -9.9543   22.2997 C   0  0  0  0  0  0  0  0  0  0  0  0
  -26.1921  -34.2316   21.3357 C   0  0  0  0  0  0  0  0  0  0  0  0
  -27.5670  -32.3933   22.9095 C   0  0  0  0  0  0  0  0  0  0  0  0
  -30.7715  -27.2056   23.4790 C   0  0  0  0  0  0  0  0  0  0  0  0
  -22.2497   -8.7250   20.2668 C   0  0  0  0  0  0  0  0  0  0  0  0
  -22.9477   -8.8212   22.5777 C   0  0  0  0  0  0  0  0  0  0  0  0
  -31.1576  -26.4589   24.5913 C   0  0  0  0  0  0  0  0  0  0  0  0
  -23.2127   -5.4754   22.1695 C   0  0  0  0  0  0  0  0  0  0  0  0
  -23.7961   -4.4748   22.9467 C   0  0  0  0  0  0  0  0  0  0  0  0
  -29.2398  -25.0272   24.2883 C   0  0  0  0  0  0  0  0  0  0  0  0
  -32.3475  -17.2230   23.9208 C   0  0  0  0  0  0  0  0  0  0  0  0
  -22.0517   -4.7399   24.5972 C   0  0  0  0  0  0  0  0  0  0  0  0
  -23.7454  -10.4727   21.0052 C   0  0  0  0  0  0  0  0  0  0  0  0
  -24.1213  -12.9865   20.7879 C   0  0  0  0  0  0  0  0  0  0  0  0
  -25.6715  -32.9378   21.4958 C   0  0  0  0  0  0  0  0  0  0  0  0
  -29.6088  -26.8748   22.7683 C   0  0  0  0  0  0  0  0  0  0  0  0
  -26.3603  -32.0097   22.2999 C   0  0  0  0  0  0  0  0  0  0  0  0
  -28.8426  -25.7698   23.1658 C   0  0  0  0  0  0  0  0  0  0  0  0
  -31.7983  -16.2905   23.0479 C   0  0  0  0  0  0  0  0  0  0  0  0
  -30.6289  -16.5950   22.3599 C   0  0  0  0  0  0  0  0  0  0  0  0
  -22.2165   -8.2065   21.5613 C   0  0  0  0  0  0  0  0  0  0  0  0
  -30.3902  -25.3713   24.9978 C   0  0  0  0  0  0  0  0  0  0  0  0
  -22.0489   -6.1083   22.6061 C   0  0  0  0  0  0  0  0  0  0  0  0
  -23.2156   -4.1070   24.1606 C   0  0  0  0  0  0  0  0  0  0  0  0
  -21.4684   -5.7405   23.8200 C   0  0  0  0  0  0  0  0  0  0  0  0
  -24.5357  -11.6429   20.7184 C   0  0  0  0  0  0  0  0  0  0  0  0
  -31.6942  -18.4358   24.0694 C   0  0  0  0  0  0  0  0  0  0  0  0
  -30.0524  -17.8358   22.5786 C   0  0  0  0  0  0  0  0  0  0  0  0
  -25.2320  -13.7076   20.4233 C   0  0  0  0  0  0  0  0  0  0  0  0
  -22.8465  -13.5338   21.1497 C   0  0  0  0  0  0  0  0  0  0  0  0
  -26.8649  -28.3527   22.1434 C   0  0  0  0  0  0  0  0  0  0  0  0
  -26.3419  -25.7553   20.2719 C   0  0  0  0  0  0  0  0  0  0  0  0
  -27.0296  -22.4801   19.6036 C   0  0  0  0  0  0  0  0  0  0  0  0
  -30.7039  -14.6988   20.7030 C   0  0  0  0  0  0  0  0  0  0  0  0
  -24.3491  -32.6027   20.8528 C   0  0  0  0  0  0  0  0  0  0  0  0
  -29.2205  -27.6740   21.5547 C   0  0  0  0  0  0  0  0  0  0  0  0
  -27.5967  -25.3608   22.4249 C   0  0  0  0  0  0  0  0  0  0  0  0
  -24.0676  -31.1039   20.7840 C   0  0  0  0  0  0  0  0  0  0  0  0
  -29.6239  -12.1989   18.4093 C   0  0  0  0  0  0  0  0  0  0  0  0
  -31.7023  -13.7095   23.1050 C   0  0  0  0  0  0  0  0  0  0  0  0
  -32.7597  -14.1249   24.0795 C   0  0  0  0  0  0  0  0  0  0  0  0
  -24.3713  -30.4417   22.1242 C   0  0  0  0  0  0  0  0  0  0  0  0
  -28.1698  -11.9419   18.8113 C   0  0  0  0  0  0  0  0  0  0  0  0
  -32.6161  -20.7407   24.2259 C   0  0  0  0  0  0  0  0  0  0  0  0
  -31.2499  -19.7732   26.1190 C   0  0  0  0  0  0  0  0  0  0  0  0
  -30.5092  -12.4685   19.6248 C   0  0  0  0  0  0  0  0  0  0  0  0
  -28.5749  -13.2723   20.9215 C   0  0  0  0  0  0  0  0  0  0  0  0
  -33.1149  -21.8367   25.1588 C   0  0  0  0  0  0  0  0  0  0  0  0
  -31.7594  -20.8764   27.0376 C   0  0  0  0  0  0  0  0  0  0  0  0
  -32.4822  -14.9750   22.8687 C   0  0  0  0  0  0  0  0  0  0  0  0
  -25.8513  -30.5978   22.4939 C   0  0  1  0  0  0  0  0  0  0  0  0
  -32.2563  -19.4620   24.9995 C   0  0  0  0  0  0  0  0  0  0  0  0
  -27.7381  -27.5594   21.2130 C   0  0  1  0  0  0  0  0  0  0  0  0
  -27.6320  -13.0598   19.7259 C   0  0  2  0  0  0  0  0  0  0  0  0
  -28.7951  -18.2238   21.8697 C   0  0  0  0  0  0  0  0  0  0  0  0
  -26.4199  -20.6198   18.0336 C   0  0  0  0  0  0  0  0  0  0  0  0
  -23.6968  -25.3813   21.7462 C   0  0  0  0  0  0  0  0  0  0  0  0
  -23.5991  -23.0510   20.8361 C   0  0  0  0  0  0  0  0  0  0  0  0
  -23.5783  -24.9986   19.2776 C   0  0  0  0  0  0  0  0  0  0  0  0
  -29.8108  -22.2427   18.6200 C   0  0  0  0  0  0  0  0  0  0  0  0
  -32.4611  -23.2679   27.0925 C   0  0  0  0  0  0  0  0  0  0  0  0
  -32.1615  -24.5628   26.3633 C   0  0  0  0  0  0  0  0  0  1  0  0
  -25.7193  -24.3958   20.4797 C   0  0  1  0  0  0  0  0  0  0  0  0
  -27.3784  -21.7679   18.3092 C   0  0  2  0  0  0  0  0  0  0  0  0
  -24.1707  -24.4653   20.6003 C   0  0  0  0  0  0  0  0  0  0  0  0
  -25.8101  -11.5153   20.3393 N   0  0  0  0  0  0  0  0  0  0  0  0
  -30.5567  -18.7674   23.4185 N   0  0  0  0  0  0  0  0  0  0  0  0
  -26.2060  -12.7879   20.1672 N   0  0  0  0  0  0  0  0  0  0  0  0
  -27.2551  -26.1774   21.2485 N   0  0  0  0  0  0  0  0  0  0  0  0
  -29.9396  -13.5419   20.4422 N   0  0  0  0  0  0  0  0  0  0  0  0
  -25.4606  -15.0324   20.2998 N   0  0  0  0  0  0  0  0  0  0  0  0
  -21.8148  -12.6511   21.4973 N   0  0  0  0  0  0  0  0  0  0  0  0
  -30.0462  -15.6650   21.4636 N   0  0  0  0  0  0  0  0  0  0  0  0
  -26.6608  -29.6602   21.7456 N   0  0  0  0  0  0  0  0  0  0  0  0
  -26.1964  -23.5569   19.3856 N   0  0  0  0  0  0  0  0  0  0  0  0
  -32.0795  -22.1207   26.2308 N   0  3  0  0  0  0  0  0  0  0  0  0
  -28.7622  -21.2189   18.3767 N   0  3  0  0  0  0  0  0  0  0  0  0
  -22.6239  -14.7683   21.1485 O   0  0  0  0  0  0  0  0  0  0  0  0
  -26.4087  -27.8177   23.1471 O   0  0  0  0  0  0  0  0  0  0  0  0
  -26.0348  -26.4153   19.2761 O   0  0  0  0  0  0  0  0  0  0  0  0
  -27.4510  -22.1153   20.6991 O   0  0  0  0  0  0  0  0  0  0  0  0
  -31.8471  -14.8349   20.2597 O   0  0  0  0  0  0  0  0  0  0  0  0
  -21.4705   -7.1010   21.8330 O   0  0  0  0  0  0  0  0  0  0  0  0
  -30.7644  -24.6412   26.0835 O   0  0  0  0  0  0  0  0  0  1  0  0
  -23.7750   -3.1451   24.9061 F   0  0  0  0  0  0  0  0  0  0  0  0
  -20.3496   -6.3441   24.2441 F   0  0  0  0  0  0  0  0  0  0  0  0
  1  2  1  0  0  0  0
  1  5  2  0  0  0  0
  2  6  2  0  0  0  0
  3  8  2  0  0  0  0
  3 16  1  0  0  0  0
  4  9  1  0  0  0  0
  4 16  2  0  0  0  0
  5 18  1  0  0  0  0
  6 20  1  0  0  0  0
  7 10  2  0  0  0  0
  7 19  1  0  0  0  0
  8 24  1  0  0  0  0
  9 24  2  0  0  0  0
 10 25  1  0  0  0  0
 11 12  2  0  0  0  0
 11 26  1  0  0  0  0
 12 27  1  0  0  0  0
 13 21  1  0  0  0  0
 13 25  2  0  0  0  0
 14 22  2  0  0  0  0
 14 30  1  0  0  0  0
 15 27  2  0  0  0  0
 15 28  1  0  0  0  0
 16 29  1  0  0  0  0
 17 29  1  0  0  0  0
 17 32  2  0  0  0  0
 17 33  1  0  0  0  0
 18 20  2  0  0  0  0
 18 38  1  0  0  0  0
 19 21  2  0  0  0  0
 19 39  1  0  0  0  0
 20 54  1  0  0  0  0
 21 40  1  0  0  0  0
 22 23  1  0  0  0  0
 22 53  1  0  0  0  0
 23 31  2  0  0  0  0
 23 76  1  0  0  0  0
 24 86  1  0  0  0  0
 25 87  1  0  0  0  0
 26 28  2  0  0  0  0
 26 86  1  0  0  0  0
 27 88  1  0  0  0  0
 28 89  1  0  0  0  0
 29 69  2  0  0  0  0
 30 55  1  0  0  0  0
 30 70  2  0  0  0  0
 31 58  1  0  0  0  0
 31 70  1  0  0  0  0
 32 71  1  0  0  0  0
 32 74  1  0  0  0  0
 33 75  1  0  0  0  0
 33 81  2  0  0  0  0
 34 56  1  0  0  0  0
 34 77  1  0  0  0  0
 34 82  2  0  0  0  0
 35 66  1  0  0  0  0
 35 72  1  0  0  0  0
 35 83  2  0  0  0  0
 36 67  1  0  0  0  0
 36 78  1  0  0  0  0
 36 84  2  0  0  0  0
 37 73  1  0  0  0  0
 37 76  1  0  0  0  0
 37 85  2  0  0  0  0
 38 41  1  0  0  0  0
 39 56  1  0  0  0  0
 40 72  1  0  0  0  0
 41 45  1  0  0  0  0
 42 46  1  0  0  0  0
 42 49  1  0  0  0  0
 43 44  1  0  0  0  0
 43 53  1  0  0  0  0
 44 53  1  0  0  0  0
 45 54  1  0  0  0  0
 46 57  1  0  0  0  0
 47 51  1  0  0  0  0
 47 55  1  0  0  0  0
 48 52  1  0  0  0  0
 48 55  1  0  0  0  0
 49 73  1  0  0  0  0
 50 57  1  0  0  0  0
 50 73  1  0  0  0  0
 51 79  1  0  0  0  0
 52 79  1  0  0  0  0
 54 77  1  0  0  0  0
 56 72  1  0  0  0  0
 57 71  1  0  0  0  0
 59 67  1  0  0  0  0
 60 68  1  0  0  0  0
 61 68  1  0  0  0  0
 62 68  1  0  0  0  0
 63 80  1  0  0  0  0
 64 65  1  0  0  0  0
 64 79  1  0  0  0  0
 65 87  1  0  0  0  0
 66 68  1  0  0  0  0
 66 78  1  0  0  0  0
 67 80  1  0  0  0  0
 69 71  1  0  0  0  0
M  CHG  2  79   1  80   1
M  ISO  4  37 100  65 101  76 100  87 101
M  END
> <Batch ID>
0121

> <Smiles>
CNC(C)C(=O)NC(C(=O)N1Cc2cc([101O:1][101CH2:1]CN3CCC(c4cc(C5CC5)c([100NH:0][100C:0](=O)N5CCCC(n6nc(-c7ccc(Oc8ccc(F)cc8F)cc7)c(C(N)=O)c6N)C5)c(C)n4)CC3)ccc2CC1C(=O)NC1CCCc2ccccc21)C(C)(C)C

> <Shape>
0.272

> <Color>
0.191

> <Negative vol penalty>
0.000

$$$$

  -OEChem-04052320253D

 82 90  0     1  0  0  0  0  0999 V2000
  -26.4121  -34.6062   21.3545 C   0  0  0  0  0  0  0  0  0  0  0  0
  -27.0400  -33.8937   22.3711 C   0  0  0  0  0  0  0  0  0  0  0  0
  -23.4995   -9.7170   19.8406 C   0  0  0  0  0  0  0  0  0  0  0  0
  -24.2407   -9.7151   22.1401 C   0  0  0  0  0  0  0  0  0  0  0  0
  -25.5835  -33.9438   20.4497 C   0  0  0  0  0  0  0  0  0  0  0  0
  -26.8388  -32.5185   22.4842 C   0  0  0  0  0  0  0  0  0  0  0  0
  -30.2225  -26.5260   24.4734 C   0  0  0  0  0  0  0  0  0  0  0  0
  -22.9585   -8.4431   20.0139 C   0  0  0  0  0  0  0  0  0  0  0  0
  -23.6997   -8.4411   22.3134 C   0  0  0  0  0  0  0  0  0  0  0  0
  -30.0579  -25.4235   25.3107 C   0  0  0  0  0  0  0  0  0  0  0  0
  -20.6489   -7.0813   22.8275 C   0  0  0  0  0  0  0  0  0  0  0  0
  -19.9060   -6.8463   23.9843 C   0  0  0  0  0  0  0  0  0  0  0  0
  -28.6678  -24.3721   23.6429 C   0  0  0  0  0  0  0  0  0  0  0  0
  -21.4521   -5.1032   24.6233 C   0  0  0  0  0  0  0  0  0  0  0  0
  -24.1407  -10.3530   20.9037 C   0  0  0  0  0  0  0  0  0  0  0  0
  -24.0552  -12.9024   20.9343 C   0  0  0  0  0  0  0  0  0  0  0  0
  -25.3796  -32.5582   20.5460 C   0  0  0  0  0  0  0  0  0  0  0  0
  -29.6011  -26.5647   23.2169 C   0  0  0  0  0  0  0  0  0  0  0  0
  -26.0056  -31.8372   21.5807 C   0  0  0  0  0  0  0  0  0  0  0  0
  -28.8282  -25.4752   22.7905 C   0  0  0  0  0  0  0  0  0  0  0  0
  -23.0585   -7.8052   21.2503 C   0  0  0  0  0  0  0  0  0  0  0  0
  -29.2781  -24.3475   24.8967 C   0  0  0  0  0  0  0  0  0  0  0  0
  -21.7935   -6.3272   22.5684 C   0  0  0  0  0  0  0  0  0  0  0  0
  -20.3075   -5.8573   24.8822 C   0  0  0  0  0  0  0  0  0  0  0  0
  -22.1951   -5.3382   23.4664 C   0  0  0  0  0  0  0  0  0  0  0  0
  -24.7002  -11.6687   20.7251 C   0  0  0  0  0  0  0  0  0  0  0  0
  -25.0075  -13.8439   20.6290 C   0  0  0  0  0  0  0  0  0  0  0  0
  -22.7151  -13.1731   21.3661 C   0  0  0  0  0  0  0  0  0  0  0  0
  -27.4312  -28.4385   21.8443 C   0  0  0  0  0  0  0  0  0  0  0  0
  -28.1198  -26.6569   19.2226 C   0  0  0  0  0  0  0  0  0  0  0  0
  -29.3042  -23.7233   17.9426 C   0  0  0  0  0  0  0  0  0  0  0  0
  -30.9942  -13.7413   20.6428 C   0  0  0  0  0  0  0  0  0  0  0  0
  -24.4376  -31.8938   19.5734 C   0  0  0  0  0  0  0  0  0  0  0  0
  -29.8104  -27.7498   22.3146 C   0  0  0  0  0  0  0  0  0  0  0  0
  -28.1564  -25.4588   21.4426 C   0  0  0  0  0  0  0  0  0  0  0  0
  -24.5736  -30.3738   19.5355 C   0  0  0  0  0  0  0  0  0  0  0  0
  -28.8726  -14.5082   17.8884 C   0  0  0  0  0  0  0  0  0  0  0  0
  -24.6183  -29.8064   20.9507 C   0  0  0  0  0  0  0  0  0  0  0  0
  -27.5045  -13.9788   18.3219 C   0  0  0  0  0  0  0  0  0  0  0  0
  -29.4228  -18.4362   26.4467 C   0  0  0  0  0  0  0  0  0  0  0  0
  -30.3162  -19.3013   24.2561 C   0  0  0  0  0  0  0  0  0  0  0  0
  -30.0061  -13.6082   18.3751 C   0  0  0  0  0  0  0  0  0  0  0  0
  -28.6334  -12.8059   20.2581 C   0  0  0  0  0  0  0  0  0  0  0  0
  -29.3212  -17.0405   25.8466 C   0  0  0  0  0  0  0  0  0  0  0  0
  -30.2097  -17.9012   23.6672 C   0  0  0  0  0  0  0  0  0  0  0  0
  -25.8317  -30.3405   21.7212 C   0  0  1  0  0  0  0  0  0  0  0  0
  -28.7118  -27.9048   21.2675 C   0  0  1  0  0  0  0  0  0  0  0  0
  -29.2935  -19.5259   25.3761 C   0  0  0  0  0  0  0  0  0  0  0  0
  -27.4620  -13.7103   19.8383 C   0  0  2  0  0  0  0  0  0  0  0  0
  -29.7094  -22.5459   15.7639 C   0  0  0  0  0  0  0  0  0  0  0  0
  -25.1307  -26.0981   18.9714 C   0  0  0  0  0  0  0  0  0  0  0  0
  -25.6844  -24.2121   17.4208 C   0  0  0  0  0  0  0  0  0  0  0  0
  -26.2931  -26.5512   16.8039 C   0  0  0  0  0  0  0  0  0  0  0  0
  -32.2132  -23.5340   18.4528 C   0  0  0  0  0  0  0  0  0  0  0  0
  -29.4602  -20.9133   25.9921 C   0  0  0  0  0  0  0  0  0  0  0  0
  -31.7168  -15.2442   23.5136 C   0  0  0  0  0  0  0  0  0  0  0  0
  -31.8408  -13.8233   22.9743 C   0  0  0  0  0  0  0  0  0  0  0  0
  -30.3900  -15.4781   24.2246 C   0  0  0  0  0  0  0  0  0  0  0  0
  -28.9143  -22.0048   25.0843 C   0  0  0  0  0  0  0  0  0  1  0  0
  -27.5857  -25.3749   18.6307 C   0  0  1  0  0  0  0  0  0  0  0  0
  -30.3081  -23.4377   16.8404 C   0  0  2  0  0  0  0  0  0  0  0  0
  -26.1844  -25.5599   17.9829 C   0  0  0  0  0  0  0  0  0  0  0  0
  -25.9645  -11.8103   20.3182 N   0  0  0  0  0  0  0  0  0  0  0  0
  -26.1215  -13.1441   20.2691 N   0  0  0  0  0  0  0  0  0  0  0  0
  -28.3860  -26.6434   20.5991 N   0  0  0  0  0  0  0  0  0  0  0  0
  -29.9091  -13.3945   19.8211 N   0  0  0  0  0  0  0  0  0  0  0  0
  -24.9922  -15.1937   20.6358 N   0  0  0  0  0  0  0  0  0  0  0  0
  -21.8687  -12.0894   21.6372 N   0  0  0  0  0  0  0  0  0  0  0  0
  -27.0353  -29.6499   21.3102 N   0  0  0  0  0  0  0  0  0  0  0  0
  -28.6101  -24.8920   17.7110 N   0  0  0  0  0  0  0  0  0  0  0  0
  -30.8170  -13.5121   22.0018 N   0  0  0  0  0  0  0  0  0  0  0  0
  -30.3649  -16.8802   24.7680 N   0  3  0  0  0  0  0  0  0  0  0  0
  -31.5109  -22.7577   17.3987 N   0  3  0  0  0  0  0  0  0  0  0  0
  -22.2759  -14.3414   21.4915 O   0  0  0  0  0  0  0  0  0  0  0  0
  -26.8448  -27.7980   22.7089 O   0  0  0  0  0  0  0  0  0  0  0  0
  -28.3011  -27.6320   18.4892 O   0  0  0  0  0  0  0  0  0  0  0  0
  -29.1484  -22.9817   18.9102 O   0  0  0  0  0  0  0  0  0  0  0  0
  -32.0412  -14.2246   20.1989 O   0  0  0  0  0  0  0  0  0  0  0  0
  -22.5305   -6.5622   21.4199 O   0  0  0  0  0  0  0  0  0  0  0  0
  -29.1152  -23.2704   25.7122 O   0  0  0  0  0  0  0  0  0  1  0  0
  -19.5948   -5.6328   25.9939 F   0  0  0  0  0  0  0  0  0  0  0  0
  -23.2944   -4.6113   23.2235 F   0  0  0  0  0  0  0  0  0  0  0  0
  1  2  1  0  0  0  0
  1  5  2  0  0  0  0
  2  6  2  0  0  0  0
  3  8  2  0  0  0  0
  3 15  1  0  0  0  0
  4  9  1  0  0  0  0
  4 15  2  0  0  0  0
  5 17  1  0  0  0  0
  6 19  1  0  0  0  0
  7 10  2  0  0  0  0
  7 18  1  0  0  0  0
  8 21  1  0  0  0  0
  9 21  2  0  0  0  0
 10 22  1  0  0  0  0
 11 12  2  0  0  0  0
 11 23  1  0  0  0  0
 12 24  1  0  0  0  0
 13 20  1  0  0  0  0
 13 22  2  0  0  0  0
 14 24  2  0  0  0  0
 14 25  1  0  0  0  0
 15 26  1  0  0  0  0
 16 26  1  0  0  0  0
 16 27  2  0  0  0  0
 16 28  1  0  0  0  0
 17 19  2  0  0  0  0
 17 33  1  0  0  0  0
 18 20  2  0  0  0  0
 18 34  1  0  0  0  0
 19 46  1  0  0  0  0
 20 35  1  0  0  0  0
 21 79  1  0  0  0  0
 22 80  1  0  0  0  0
 23 25  2  0  0  0  0
 23 79  1  0  0  0  0
 24 81  1  0  0  0  0
 25 82  1  0  0  0  0
 26 63  2  0  0  0  0
 27 64  1  0  0  0  0
 27 67  1  0  0  0  0
 28 68  1  0  0  0  0
 28 74  2  0  0  0  0
 29 47  1  0  0  0  0
 29 69  1  0  0  0  0
 29 75  2  0  0  0  0
 30 60  1  0  0  0  0
 30 65  1  0  0  0  0
 30 76  2  0  0  0  0
 31 61  1  0  0  0  0
 31 70  1  0  0  0  0
 31 77  2  0  0  0  0
 32 66  1  0  0  0  0
 32 71  1  0  0  0  0
 32 78  2  0  0  0  0
 33 36  1  0  0  0  0
 34 47  1  0  0  0  0
 35 65  1  0  0  0  0
 36 38  1  0  0  0  0
 37 39  1  0  0  0  0
 37 42  1  0  0  0  0
 38 46  1  0  0  0  0
 39 49  1  0  0  0  0
 40 44  1  0  0  0  0
 40 48  1  0  0  0  0
 41 45  1  0  0  0  0
 41 48  1  0  0  0  0
 42 66  1  0  0  0  0
 43 49  1  0  0  0  0
 43 66  1  0  0  0  0
 44 72  1  0  0  0  0
 45 72  1  0  0  0  0
 46 69  1  0  0  0  0
 47 65  1  0  0  0  0
 48 55  1  0  0  0  0
 49 64  1  0  0  0  0
 50 61  1  0  0  0  0
 51 62  1  0  0  0  0
 52 62  1  0  0  0  0
 53 62  1  0  0  0  0
 54 73  1  0  0  0  0
 55 59  1  0  0  0  0
 56 57  1  0  0  0  0
 56 58  1  0  0  0  0
 57 71  1  0  0  0  0
 58 72  1  0  0  0  0
 59 80  1  0  0  0  0
 60 62  1  0  0  0  0
 60 70  1  0  0  0  0
 61 73  1  0  0  0  0
 63 64  1  0  0  0  0
M  CHG  2  72   1  73   1
M  ISO  4  32 100  59 101  71 100  80 101
M  END
> <Batch ID>
0121

> <Smiles>
CNC(C)C(=O)NC(C(=O)N1Cc2cc([101O:1][101CH2:1]CC3CCN(CCC[100NH:0][100C:0](=O)N4CCCC(n5nc(-c6ccc(Oc7ccc(F)cc7F)cc6)c(C(N)=O)c5N)C4)CC3)ccc2CC1C(=O)NC1CCCc2ccccc21)C(C)(C)C

> <Shape>
0.269

> <Color>
0.175

> <Negative vol penalty>
0.000

$$$$

  -OEChem-04052320253D

 89 98  0     1  0  0  0  0  0999 V2000
  -22.1673  -20.7386   13.1623 C   0  0  0  0  0  0  0  0  0  0  0  0
  -22.7793  -19.8610   14.0515 C   0  0  0  0  0  0  0  0  0  0  0  0
  -26.6069  -28.5643   19.0894 C   0  0  0  0  0  0  0  0  0  0  0  0
  -26.3469  -27.6120   21.2946 C   0  0  0  0  0  0  0  0  0  0  0  0
  -22.1254  -22.1026   13.4485 C   0  0  0  0  0  0  0  0  0  0  0  0
  -23.3508  -20.3470   15.2269 C   0  0  0  0  0  0  0  0  0  0  0  0
  -22.1848  -17.5238   19.2660 C   0  0  0  0  0  0  0  0  0  0  0  0
  -25.5490  -29.4376   19.3419 C   0  0  0  0  0  0  0  0  0  0  0  0
  -25.2890  -28.4853   21.5470 C   0  0  0  0  0  0  0  0  0  0  0  0
  -22.8825  -16.3279   19.4298 C   0  0  0  0  0  0  0  0  0  0  0  0
  -22.0068  -28.7134   20.7687 C   0  0  0  0  0  0  0  0  0  0  0  0
  -20.8592  -28.1869   21.3616 C   0  0  0  0  0  0  0  0  0  0  0  0
  -24.3166  -17.3935   21.0506 C   0  0  0  0  0  0  0  0  0  0  0  0
  -28.5029  -16.0113   22.4839 C   0  0  0  0  0  0  0  0  0  0  0  0
  -29.6260  -14.2384   21.3091 C   0  0  0  0  0  0  0  0  0  0  0  0
  -21.1363  -29.6902   23.2326 C   0  0  0  0  0  0  0  0  0  0  0  0
  -27.0058  -27.6514   20.0658 C   0  0  0  0  0  0  0  0  0  0  0  0
  -29.4282  -27.0906   19.4954 C   0  0  0  0  0  0  0  0  0  0  0  0
  -22.6883  -22.6043   14.6326 C   0  0  0  0  0  0  0  0  0  0  0  0
  -22.5553  -18.6684   19.9864 C   0  0  0  0  0  0  0  0  0  0  0  0
  -23.3177  -21.7191   15.5285 C   0  0  0  0  0  0  0  0  0  0  0  0
  -23.6204  -18.6020   20.8960 C   0  0  0  0  0  0  0  0  0  0  0  0
  -28.5621  -14.6797   22.0882 C   0  0  0  0  0  0  0  0  0  0  0  0
  -24.8900  -29.3982   20.5707 C   0  0  0  0  0  0  0  0  0  0  0  0
  -23.9503  -16.2633   20.3200 C   0  0  0  0  0  0  0  0  0  0  0  0
  -22.7192  -29.7282   21.4077 C   0  0  0  0  0  0  0  0  0  0  0  0
  -20.4240  -28.6754   22.5936 C   0  0  0  0  0  0  0  0  0  0  0  0
  -22.2839  -30.2166   22.6397 C   0  0  0  0  0  0  0  0  0  0  0  0
  -28.0982  -26.7487   19.8054 C   0  0  0  0  0  0  0  0  0  0  0  0
  -29.5242  -16.8547   22.0774 C   0  0  0  0  0  0  0  0  0  0  0  0
  -30.5970  -15.1613   20.9551 C   0  0  0  0  0  0  0  0  0  0  0  0
  -30.0657  -25.8840   19.3403 C   0  0  0  0  0  0  0  0  0  0  0  0
  -30.0332  -28.3834   19.3598 C   0  0  0  0  0  0  0  0  0  0  0  0
  -23.6072  -21.5654   19.2089 C   0  0  0  0  0  0  0  0  0  0  0  0
  -23.2952  -22.1070   22.3919 C   0  0  0  0  0  0  0  0  0  0  0  0
  -23.9867  -20.3178   25.4477 C   0  0  0  0  0  0  0  0  0  0  0  0
  -28.9497  -20.5310   21.5665 C   0  0  0  0  0  0  0  0  0  0  0  0
  -22.6602  -24.0925   14.8760 C   0  0  0  0  0  0  0  0  0  0  0  0
  -21.7757  -19.9436   19.8182 C   0  0  0  0  0  0  0  0  0  0  0  0
  -24.0451  -19.7970   21.7084 C   0  0  0  0  0  0  0  0  0  0  0  0
  -22.9592  -24.4789   16.3222 C   0  0  0  0  0  0  0  0  0  0  0  0
  -25.4948  -11.2295   21.5524 C   0  0  0  0  0  0  0  0  0  0  0  0
  -29.2374  -21.3492   18.0529 C   0  0  0  0  0  0  0  0  0  0  0  0
  -24.9714  -10.8805   20.1580 C   0  0  0  0  0  0  0  0  0  0  0  0
  -24.1767  -23.7179   16.8373 C   0  0  0  0  0  0  0  0  0  0  0  0
  -29.1025  -22.8727   18.0833 C   0  0  0  0  0  0  0  0  0  0  0  0
  -25.2543  -12.6946   21.9215 C   0  0  0  0  0  0  0  0  0  0  0  0
  -28.3220  -20.6925   19.0820 C   0  0  0  0  0  0  0  0  0  0  0  0
  -28.3816  -22.7000   20.5103 C   0  0  0  0  0  0  0  0  0  0  0  0
  -25.7743  -11.4369   18.9937 C   0  0  0  0  0  0  0  0  0  0  0  0
  -26.9749  -13.3585   20.0924 C   0  0  0  0  0  0  0  0  0  0  0  0
  -23.9271  -22.2049   16.8257 C   0  0  1  0  0  0  0  0  0  0  0  0
  -22.5655  -21.1846   20.2225 C   0  0  1  0  0  0  0  0  0  0  0  0
  -29.2985  -23.4242   19.5080 C   0  0  2  0  0  0  0  0  0  0  0  0
  -26.3450  -13.6929   21.4578 C   0  0  2  0  0  0  0  0  0  0  0  0
  -22.9232  -20.4879   27.7143 C   0  0  0  0  0  0  0  0  0  0  0  0
  -25.5633  -24.0583   22.9901 C   0  0  0  0  0  0  0  0  0  0  0  0
  -25.6955  -23.0897   25.2950 C   0  0  0  0  0  0  0  0  0  0  0  0
  -23.6072  -24.2258   24.5393 C   0  0  0  0  0  0  0  0  0  0  0  0
  -23.3617  -17.4255   25.4996 C   0  0  0  0  0  0  0  0  0  0  0  0
  -32.6236  -15.7371   19.8520 C   0  0  0  0  0  0  0  0  0  0  0  0
  -27.4843  -13.7244   22.4995 C   0  0  0  0  0  0  0  0  0  0  0  0
  -29.4930  -18.2905   22.4841 C   0  0  0  0  0  0  0  0  0  0  0  0
  -25.7168  -15.1026   21.4101 C   0  0  0  0  0  0  0  0  0  1  0  0
  -24.1938  -21.9550   23.5954 C   0  0  1  0  0  0  0  0  0  0  0  0
  -22.9679  -19.7210   26.4018 C   0  0  2  0  0  0  0  0  0  0  0  0
  -24.7678  -23.3155   24.0821 C   0  0  0  0  0  0  0  0  0  0  0  0
  -27.9012  -25.4282   19.8452 N   0  0  0  0  0  0  0  0  0  0  0  0
  -30.5735  -16.4626   21.3205 N   0  0  0  0  0  0  0  0  0  0  0  0
  -29.1158  -24.9298   19.5580 N   0  0  0  0  0  0  0  0  0  0  0  0
  -23.2556  -21.0227   21.5039 N   0  0  0  0  0  0  0  0  0  0  0  0
  -28.5720  -21.2485   20.4193 N   0  0  0  0  0  0  0  0  0  0  0  0
  -31.3405  -25.5566   19.0402 N   0  0  0  0  0  0  0  0  0  0  0  0
  -30.5963  -28.9800   20.4961 N   0  0  0  0  0  0  0  0  0  0  0  0
  -23.0997  -21.8206   17.9492 N   0  0  0  0  0  0  0  0  0  0  0  0
  -23.4129  -21.2420   24.6005 N   0  0  0  0  0  0  0  0  0  0  0  0
  -29.1021  -19.1603   21.3970 N   0  0  0  0  0  0  0  0  0  0  0  0
  -25.9605  -12.9140   19.0904 N   0  3  0  0  0  0  0  0  0  0  0  0
  -23.3064  -18.3004   26.6989 N   0  3  0  0  0  0  0  0  0  0  0  0
  -30.0588  -28.9985   18.2669 O   0  0  0  0  0  0  0  0  0  0  0  0
  -24.7841  -21.6248   19.5451 O   0  0  0  0  0  0  0  0  0  0  0  0
  -22.6467  -23.1465   22.2489 O   0  0  0  0  0  0  0  0  0  0  0  0
  -25.1736  -19.9989   25.4559 O   0  0  0  0  0  0  0  0  0  0  0  0
  -29.1423  -21.0727   22.6603 O   0  0  0  0  0  0  0  0  0  0  0  0
  -23.8578  -30.2503   20.8174 O   0  0  0  0  0  0  0  0  0  0  0  0
  -24.6334  -15.0975   20.4813 O   0  0  0  0  0  0  0  0  0  1  0  0
  -31.6551  -14.7506   20.1873 O   0  0  0  0  0  0  0  0  0  0  0  0
  -19.3211  -28.1708   23.1621 F   0  0  0  0  0  0  0  0  0  0  0  0
  -22.9635  -31.1923   23.2578 F   0  0  0  0  0  0  0  0  0  0  0  0
  1  2  1  0  0  0  0
  1  5  2  0  0  0  0
  2  6  2  0  0  0  0
  3  8  2  0  0  0  0
  3 17  1  0  0  0  0
  4  9  1  0  0  0  0
  4 17  2  0  0  0  0
  5 19  1  0  0  0  0
  6 21  1  0  0  0  0
  7 10  2  0  0  0  0
  7 20  1  0  0  0  0
  8 24  1  0  0  0  0
  9 24  2  0  0  0  0
 10 25  1  0  0  0  0
 11 12  2  0  0  0  0
 11 26  1  0  0  0  0
 12 27  1  0  0  0  0
 13 22  1  0  0  0  0
 13 25  2  0  0  0  0
 14 23  1  0  0  0  0
 14 30  2  0  0  0  0
 15 23  2  0  0  0  0
 15 31  1  0  0  0  0
 16 27  2  0  0  0  0
 16 28  1  0  0  0  0
 17 29  1  0  0  0  0
 18 29  1  0  0  0  0
 18 32  2  0  0  0  0
 18 33  1  0  0  0  0
 19 21  2  0  0  0  0
 19 38  1  0  0  0  0
 20 22  2  0  0  0  0
 20 39  1  0  0  0  0
 21 52  1  0  0  0  0
 22 40  1  0  0  0  0
 23 62  1  0  0  0  0
 24 85  1  0  0  0  0
 25 86  1  0  0  0  0
 26 28  2  0  0  0  0
 26 85  1  0  0  0  0
 27 88  1  0  0  0  0
 28 89  1  0  0  0  0
 29 68  2  0  0  0  0
 30 63  1  0  0  0  0
 30 69  1  0  0  0  0
 31 69  2  0  0  0  0
 31 87  1  0  0  0  0
 32 70  1  0  0  0  0
 32 73  1  0  0  0  0
 33 74  1  0  0  0  0
 33 80  2  0  0  0  0
 34 53  1  0  0  0  0
 34 75  1  0  0  0  0
 34 81  2  0  0  0  0
 35 65  1  0  0  0  0
 35 71  1  0  0  0  0
 35 82  2  0  0  0  0
 36 66  1  0  0  0  0
 36 76  1  0  0  0  0
 36 83  2  0  0  0  0
 37 72  1  0  0  0  0
 37 77  1  0  0  0  0
 37 84  2  0  0  0  0
 38 41  1  0  0  0  0
 39 53  1  0  0  0  0
 40 71  1  0  0  0  0
 41 45  1  0  0  0  0
 42 44  1  0  0  0  0
 42 47  1  0  0  0  0
 43 46  1  0  0  0  0
 43 48  1  0  0  0  0
 44 50  1  0  0  0  0
 45 52  1  0  0  0  0
 46 54  1  0  0  0  0
 47 55  1  0  0  0  0
 48 72  1  0  0  0  0
 49 54  1  0  0  0  0
 49 72  1  0  0  0  0
 50 78  1  0  0  0  0
 51 55  1  0  0  0  0
 51 78  1  0  0  0  0
 52 75  1  0  0  0  0
 53 71  1  0  0  0  0
 54 70  1  0  0  0  0
 55 62  1  0  0  0  0
 55 64  1  0  0  0  0
 56 66  1  0  0  0  0
 57 67  1  0  0  0  0
 58 67  1  0  0  0  0
 59 67  1  0  0  0  0
 60 79  1  0  0  0  0
 61 87  1  0  0  0  0
 63 77  1  0  0  0  0
 64 86  1  0  0  0  0
 65 67  1  0  0  0  0
 65 76  1  0  0  0  0
 66 79  1  0  0  0  0
 68 70  1  0  0  0  0
M  CHG  2  78   1  79   1
M  ISO  4  37 100  64 101  77 100  86 101
M  END
> <Batch ID>
0121

> <Smiles>
CNC(C)C(=O)NC(C(=O)N1Cc2cc([101O:1][101CH2:1]C3(Cc4cc(C[100NH:0][100C:0](=O)N5CCCC(n6nc(-c7ccc(Oc8ccc(F)cc8F)cc7)c(C(N)=O)c6N)C5)nc(OC)c4)CCCCNC3)ccc2CC1C(=O)NC1CCCc2ccccc21)C(C)(C)C

> <Shape>
0.222

> <Color>
0.068

> <Negative vol penalty>
0.000

$$$$

  -OEChem-04052320253D

 88 96  0     1  0  0  0  0  0999 V2000
  -18.9498  -31.3688   19.6870 C   0  0  0  0  0  0  0  0  0  0  0  0
  -20.3366  -31.4560   19.6189 C   0  0  0  0  0  0  0  0  0  0  0  0
  -22.9137  -10.2110   21.8087 C   0  0  0  0  0  0  0  0  0  0  0  0
  -24.3460   -9.3130   20.0827 C   0  0  0  0  0  0  0  0  0  0  0  0
  -18.3478  -30.6395   20.7115 C   0  0  0  0  0  0  0  0  0  0  0  0
  -21.1222  -30.8148   20.5760 C   0  0  0  0  0  0  0  0  0  0  0  0
  -25.9912  -25.8622   18.6641 C   0  0  0  0  0  0  0  0  0  0  0  0
  -22.2901   -8.9700   21.9370 C   0  0  0  0  0  0  0  0  0  0  0  0
  -23.7225   -8.0719   20.2110 C   0  0  0  0  0  0  0  0  0  0  0  0
  -27.0898  -25.0579   18.3602 C   0  0  0  0  0  0  0  0  0  0  0  0
  -22.9440   -5.9931   23.4012 C   0  0  0  0  0  0  0  0  0  0  0  0
  -22.7234   -5.5087   24.6905 C   0  0  0  0  0  0  0  0  0  0  0  0
  -27.5282  -24.7472   20.7180 C   0  0  0  0  0  0  0  0  0  0  0  0
  -20.3460   -5.4555   24.2636 C   0  0  0  0  0  0  0  0  0  0  0  0
  -23.9417  -10.3826   20.8815 C   0  0  0  0  0  0  0  0  0  0  0  0
  -23.9823  -12.8866   20.3961 C   0  0  0  0  0  0  0  0  0  0  0  0
  -19.1266  -29.9810   21.6760 C   0  0  0  0  0  0  0  0  0  0  0  0
  -25.6473  -26.0997   19.9978 C   0  0  0  0  0  0  0  0  0  0  0  0
  -20.5300  -30.0771   21.6152 C   0  0  0  0  0  0  0  0  0  0  0  0
  -26.4214  -25.5417   21.0285 C   0  0  0  0  0  0  0  0  0  0  0  0
  -22.6945   -7.9004   21.1382 C   0  0  0  0  0  0  0  0  0  0  0  0
  -27.8565  -24.5020   19.3846 C   0  0  0  0  0  0  0  0  0  0  0  0
  -21.8656   -6.2089   22.5432 C   0  0  0  0  0  0  0  0  0  0  0  0
  -21.4244   -5.2399   25.1217 C   0  0  0  0  0  0  0  0  0  0  0  0
  -20.5666   -5.9400   22.9744 C   0  0  0  0  0  0  0  0  0  0  0  0
  -24.5858  -11.6645   20.7482 C   0  0  0  0  0  0  0  0  0  0  0  0
  -25.0129  -13.7945   20.4079 C   0  0  0  0  0  0  0  0  0  0  0  0
  -22.6126  -13.1754   20.0861 C   0  0  0  0  0  0  0  0  0  0  0  0
  -23.2992  -27.7620   22.4058 C   0  0  0  0  0  0  0  0  0  0  0  0
  -23.9112  -24.9770   23.5370 C   0  0  0  0  0  0  0  0  0  0  0  0
  -26.1772  -22.7680   24.8109 C   0  0  0  0  0  0  0  0  0  0  0  0
  -30.3752  -13.4290   23.3491 C   0  0  0  0  0  0  0  0  0  0  0  0
  -18.4296  -29.2438   22.7920 C   0  0  0  0  0  0  0  0  0  0  0  0
  -24.5090  -27.0097   20.3719 C   0  0  0  0  0  0  0  0  0  0  0  0
  -26.0347  -25.8527   22.4486 C   0  0  0  0  0  0  0  0  0  0  0  0
  -19.3419  -28.2832   23.5504 C   0  0  0  0  0  0  0  0  0  0  0  0
  -33.0785  -18.6029   22.0918 C   0  0  0  0  0  0  0  0  0  0  0  0
  -32.9792  -19.9119   21.3165 C   0  0  0  0  0  0  0  0  0  0  0  0
  -29.7373  -14.1226   19.7695 C   0  0  0  0  0  0  0  0  0  0  0  0
  -20.6652  -28.9609   23.8915 C   0  0  0  0  0  0  0  0  0  0  0  0
  -32.2921  -17.4802   21.4191 C   0  0  0  0  0  0  0  0  0  0  0  0
  -31.5291  -20.3113   21.0538 C   0  0  0  0  0  0  0  0  0  0  0  0
  -28.3129  -13.6043   19.5785 C   0  0  0  0  0  0  0  0  0  0  0  0
  -30.4672  -13.3780   20.8833 C   0  0  0  0  0  0  0  0  0  0  0  0
  -28.3187  -12.8604   21.9924 C   0  0  0  0  0  0  0  0  0  0  0  0
  -21.4167  -29.3748   22.6205 C   0  0  1  0  0  0  0  0  0  0  0  0
  -23.7680  -26.5579   21.6431 C   0  0  1  0  0  0  0  0  0  0  0  0
  -30.8269  -17.8536   21.1369 C   0  0  2  0  0  0  0  0  0  0  0  0
  -30.7080  -19.1985   20.3805 C   0  0  2  0  0  0  0  0  0  0  0  0
  -27.5400  -13.6211   20.9087 C   0  0  2  0  0  0  0  0  0  0  0  0
  -26.3415  -20.7485   26.2914 C   0  0  0  0  0  0  0  0  0  0  0  0
  -30.0368  -18.2485   18.1499 C   0  0  0  0  0  0  0  0  0  0  0  0
  -23.5618  -26.7530   25.9921 C   0  0  0  0  0  0  0  0  0  0  0  0
  -24.6506  -24.9588   27.3572 C   0  0  0  0  0  0  0  0  0  0  0  0
  -22.5018  -24.4955   26.1778 C   0  0  0  0  0  0  0  0  0  0  0  0
  -30.3944  -14.1539   25.7058 C   0  0  0  0  0  0  0  0  0  0  0  0
  -27.2676  -21.1058   22.6184 C   0  0  0  0  0  0  0  0  0  0  0  0
  -30.0076  -17.8734   22.4340 C   0  0  0  0  0  0  0  0  0  0  0  0
  -28.5224  -14.8831   24.2741 C   0  0  0  0  0  0  0  0  0  0  0  0
  -28.8540  -16.3447   24.0374 C   0  0  0  0  0  0  0  0  0  0  0  0
  -30.5020  -22.6199   17.6059 C   0  0  0  0  0  0  0  0  0  0  0  0
  -31.4197  -20.3845   18.2380 C   0  0  0  0  0  0  0  0  0  0  0  0
  -29.2475  -23.4666   17.6923 C   0  0  0  0  0  0  0  0  0  1  0  0
  -24.6325  -24.7091   24.8336 C   0  0  1  0  0  0  0  0  0  0  0  0
  -26.1848  -21.2509   24.8646 C   0  0  2  0  0  0  0  0  0  0  0  0
  -31.1036  -19.0417   18.9064 C   0  0  1  0  0  0  0  0  0  0  0  0
  -23.8501  -25.2404   26.0677 C   0  0  0  0  0  0  0  0  0  0  0  0
  -25.8981  -11.7818   20.9675 N   0  0  0  0  0  0  0  0  0  0  0  0
  -26.1277  -13.0884   20.7526 N   0  0  0  0  0  0  0  0  0  0  0  0
  -24.5730  -25.7787   22.5990 N   0  0  0  0  0  0  0  0  0  0  0  0
  -29.6911  -13.3723   22.1237 N   0  0  0  0  0  0  0  0  0  0  0  0
  -25.0653  -15.1199   20.1569 N   0  0  0  0  0  0  0  0  0  0  0  0
  -22.1941  -13.0758   18.7522 N   0  0  0  0  0  0  0  0  0  0  0  0
  -22.0577  -28.2268   22.0158 N   0  0  0  0  0  0  0  0  0  0  0  0
  -24.8959  -23.2745   24.8653 N   0  0  0  0  0  0  0  0  0  0  0  0
  -29.7211  -14.0598   24.4182 N   0  0  0  0  0  0  0  0  0  0  0  0
  -27.3089  -20.7094   24.0496 N   0  3  0  0  0  0  0  0  0  0  0  0
  -29.6135  -16.4897   22.7618 N   0  3  0  0  0  0  0  0  0  0  0  0
  -30.2633  -21.3198   18.2819 N   0  3  0  0  0  0  0  0  0  0  0  0
  -21.7882  -13.5277   20.9635 O   0  0  0  0  0  0  0  0  0  0  0  0
  -24.0100  -28.2348   23.2850 O   0  0  0  0  0  0  0  0  0  0  0  0
  -22.7891  -24.4946   23.3602 O   0  0  0  0  0  0  0  0  0  0  0  0
  -27.2052  -23.4369   24.7325 O   0  0  0  0  0  0  0  0  0  0  0  0
  -31.5100  -12.9519   23.4775 O   0  0  0  0  0  0  0  0  0  0  0  0
  -22.0864   -6.6891   21.2632 O   0  0  0  0  0  0  0  0  0  0  0  0
  -28.9250  -23.7141   19.0808 O   0  0  0  0  0  0  0  0  0  1  0  0
  -21.2128   -4.7732   26.3593 F   0  0  0  0  0  0  0  0  0  0  0  0
  -19.5267   -6.1442   22.1541 F   0  0  0  0  0  0  0  0  0  0  0  0
  1  2  1  0  0  0  0
  1  5  2  0  0  0  0
  2  6  2  0  0  0  0
  3  8  2  0  0  0  0
  3 15  1  0  0  0  0
  4  9  1  0  0  0  0
  4 15  2  0  0  0  0
  5 17  1  0  0  0  0
  6 19  1  0  0  0  0
  7 10  2  0  0  0  0
  7 18  1  0  0  0  0
  8 21  1  0  0  0  0
  9 21  2  0  0  0  0
 10 22  1  0  0  0  0
 11 12  2  0  0  0  0
 11 23  1  0  0  0  0
 12 24  1  0  0  0  0
 13 20  1  0  0  0  0
 13 22  2  0  0  0  0
 14 24  2  0  0  0  0
 14 25  1  0  0  0  0
 15 26  1  0  0  0  0
 16 26  1  0  0  0  0
 16 27  2  0  0  0  0
 16 28  1  0  0  0  0
 17 19  2  0  0  0  0
 17 33  1  0  0  0  0
 18 20  2  0  0  0  0
 18 34  1  0  0  0  0
 19 46  1  0  0  0  0
 20 35  1  0  0  0  0
 21 85  1  0  0  0  0
 22 86  1  0  0  0  0
 23 25  2  0  0  0  0
 23 85  1  0  0  0  0
 24 87  1  0  0  0  0
 25 88  1  0  0  0  0
 26 68  2  0  0  0  0
 27 69  1  0  0  0  0
 27 72  1  0  0  0  0
 28 73  1  0  0  0  0
 28 80  2  0  0  0  0
 29 47  1  0  0  0  0
 29 74  1  0  0  0  0
 29 81  2  0  0  0  0
 30 64  1  0  0  0  0
 30 70  1  0  0  0  0
 30 82  2  0  0  0  0
 31 65  1  0  0  0  0
 31 75  1  0  0  0  0
 31 83  2  0  0  0  0
 32 71  1  0  0  0  0
 32 76  1  0  0  0  0
 32 84  2  0  0  0  0
 33 36  1  0  0  0  0
 34 47  1  0  0  0  0
 35 70  1  0  0  0  0
 36 40  1  0  0  0  0
 37 38  1  0  0  0  0
 37 41  1  0  0  0  0
 38 42  1  0  0  0  0
 39 43  1  0  0  0  0
 39 44  1  0  0  0  0
 40 46  1  0  0  0  0
 41 48  1  0  0  0  0
 42 49  1  0  0  0  0
 43 50  1  0  0  0  0
 44 71  1  0  0  0  0
 45 50  1  0  0  0  0
 45 71  1  0  0  0  0
 46 74  1  0  0  0  0
 47 70  1  0  0  0  0
 48 49  1  0  0  0  0
 48 58  1  0  0  0  0
 49 66  1  0  0  0  0
 50 69  1  0  0  0  0
 51 65  1  0  0  0  0
 52 66  1  0  0  0  0
 53 67  1  0  0  0  0
 54 67  1  0  0  0  0
 55 67  1  0  0  0  0
 56 76  1  0  0  0  0
 57 77  1  0  0  0  0
 58 78  1  0  0  0  0
 59 60  1  0  0  0  0
 59 76  1  0  0  0  0
 60 78  1  0  0  0  0
 61 63  1  0  0  0  0
 61 79  1  0  0  0  0
 62 66  1  0  0  0  0
 62 79  1  0  0  0  0
 63 86  1  0  0  0  0
 64 67  1  0  0  0  0
 64 75  1  0  0  0  0
 65 77  1  0  0  0  0
 68 69  1  0  0  0  0
M  CHG  3  77   1  78   1  79   1
M  ISO  4  32 100  63 101  76 100  86 101
M  END
> <Batch ID>
0121

> <Smiles>
CNC(C)C(=O)NC(C(=O)N1Cc2cc([101O:1][101CH2:1]CNCC(C)C3CCCCC3CNCC[100N:0](C)[100C:0](=O)N3CCCC(n4nc(-c5ccc(Oc6ccc(F)cc6F)cc5)c(C(N)=O)c4N)C3)ccc2CC1C(=O)NC1CCCc2ccccc21)C(C)(C)C

> <Shape>
0.230

> <Color>
0.150

> <Negative vol penalty>
0.000

$$$$

  -OEChem-04052320253D

 81 89  0     1  0  0  0  0  0999 V2000
  -32.6757  -24.2919   16.9129 C   0  0  0  0  0  0  0  0  0  0  0  0
  -31.4483  -24.6365   16.3560 C   0  0  0  0  0  0  0  0  0  0  0  0
  -25.8828  -15.1011   19.3862 C   0  0  0  0  0  0  0  0  0  0  0  0
  -23.9840  -14.9795   20.8752 C   0  0  0  0  0  0  0  0  0  0  0  0
  -32.7766  -24.0569   18.2835 C   0  0  0  0  0  0  0  0  0  0  0  0
  -30.3208  -24.7452   17.1693 C   0  0  0  0  0  0  0  0  0  0  0  0
  -24.2219  -28.4510   17.7911 C   0  0  0  0  0  0  0  0  0  0  0  0
  -26.2026  -13.7769   19.6858 C   0  0  0  0  0  0  0  0  0  0  0  0
  -24.3037  -13.6553   21.1747 C   0  0  0  0  0  0  0  0  0  0  0  0
  -22.8500  -28.2506   17.9375 C   0  0  0  0  0  0  0  0  0  0  0  0
  -23.9371  -10.6194   19.7361 C   0  0  0  0  0  0  0  0  0  0  0  0
  -22.8967   -9.6905   19.7505 C   0  0  0  0  0  0  0  0  0  0  0  0
  -23.1599  -27.8991   20.3038 C   0  0  0  0  0  0  0  0  0  0  0  0
  -23.3670   -9.1997   22.0689 C   0  0  0  0  0  0  0  0  0  0  0  0
  -24.7736  -15.7025   19.9809 C   0  0  0  0  0  0  0  0  0  0  0  0
  -23.6038  -17.5302   18.6398 C   0  0  0  0  0  0  0  0  0  0  0  0
  -31.6518  -24.1722   19.1155 C   0  0  0  0  0  0  0  0  0  0  0  0
  -25.0759  -28.3661   18.9001 C   0  0  0  0  0  0  0  0  0  0  0  0
  -30.4065  -24.5101   18.5521 C   0  0  0  0  0  0  0  0  0  0  0  0
  -24.5419  -28.1014   20.1693 C   0  0  0  0  0  0  0  0  0  0  0  0
  -25.4130  -13.0539   20.5801 C   0  0  0  0  0  0  0  0  0  0  0  0
  -22.3191  -27.9718   19.1935 C   0  0  0  0  0  0  0  0  0  0  0  0
  -24.6925  -10.8385   20.8881 C   0  0  0  0  0  0  0  0  0  0  0  0
  -22.6116   -8.9806   20.9169 C   0  0  0  0  0  0  0  0  0  0  0  0
  -24.4074  -10.1287   22.0545 C   0  0  0  0  0  0  0  0  0  0  0  0
  -24.4431  -17.0705   19.6723 C   0  0  0  0  0  0  0  0  0  0  0  0
  -23.6170  -18.8975   18.7696 C   0  0  0  0  0  0  0  0  0  0  0  0
  -22.8771  -16.7876   17.6517 C   0  0  0  0  0  0  0  0  0  0  0  0
  -27.5183  -26.5011   19.7128 C   0  0  0  0  0  0  0  0  0  0  0  0
  -27.7383  -28.5445   22.2224 C   0  0  0  0  0  0  0  0  0  0  0  0
  -26.1933  -30.7965   24.2690 C   0  0  0  0  0  0  0  0  0  0  0  0
  -23.3786  -23.4881   21.9341 C   0  0  0  0  0  0  0  0  0  0  0  0
  -31.8002  -23.8623   20.5840 C   0  0  0  0  0  0  0  0  0  0  0  0
  -26.5501  -28.6112   18.7300 C   0  0  0  0  0  0  0  0  0  0  0  0
  -25.4134  -28.0196   21.3950 C   0  0  0  0  0  0  0  0  0  0  0  0
  -30.6354  -24.3644   21.4333 C   0  0  0  0  0  0  0  0  0  0  0  0
  -26.5504  -21.9094   21.5821 C   0  0  0  0  0  0  0  0  0  0  0  0
  -17.3697  -25.1871   23.0046 C   0  0  0  0  0  0  0  0  0  0  0  0
  -29.3046  -24.0015   20.7821 C   0  0  0  0  0  0  0  0  0  0  0  0
  -26.2150  -20.5460   20.9748 C   0  0  0  0  0  0  0  0  0  0  0  0
  -18.5394  -25.9425   22.3963 C   0  0  0  0  0  0  0  0  0  0  0  0
  -25.4867  -22.3593   22.5810 C   0  0  0  0  0  0  0  0  0  0  0  0
  -23.7719  -20.9964   21.4516 C   0  0  0  0  0  0  0  0  0  0  0  0
  -16.4788  -24.9187   21.8120 C   0  0  0  0  0  0  0  0  0  0  0  0
  -29.1658  -24.6621   19.4052 C   0  0  1  0  0  0  0  0  0  0  0  0
  -27.3910  -27.9926   19.8424 C   0  0  1  0  0  0  0  0  0  0  0  0
  -24.7874  -20.5258   20.3962 C   0  0  2  0  0  0  0  0  0  0  0  0
  -18.8004  -25.2235   21.0681 C   0  0  2  0  0  0  0  0  0  0  0  0
  -26.6213  -32.2725   26.2528 C   0  0  0  0  0  0  0  0  0  0  0  0
  -19.4802  -25.4205   18.6639 C   0  0  0  0  0  0  0  0  0  0  0  0
  -27.6354  -26.1071   24.0550 C   0  0  0  0  0  0  0  0  0  0  0  0
  -27.1105  -27.6469   25.9580 C   0  0  0  0  0  0  0  0  0  0  0  0
  -29.2790  -27.8616   24.7439 C   0  0  0  0  0  0  0  0  0  0  0  0
  -25.5573  -33.2440   22.7315 C   0  0  0  0  0  0  0  0  0  0  0  0
  -19.7642  -24.0446   21.2246 C   0  0  0  0  0  0  0  0  0  0  0  0
  -21.2212  -24.4802   21.2127 C   0  0  0  0  0  0  0  0  0  0  0  0
  -20.5627  -26.8969   20.3834 C   0  0  0  0  0  0  0  0  0  1  0  0
  -27.1446  -28.6024   23.6092 C   0  0  1  0  0  0  0  0  0  0  0  0
  -26.6043  -32.1816   24.7349 C   0  0  2  0  0  0  0  0  0  0  0  0
  -19.2750  -26.1764   19.9748 C   0  0  2  0  0  0  0  0  0  0  0  0
  -27.7760  -27.5541   24.5683 C   0  0  0  0  0  0  0  0  0  0  0  0
  -24.9525  -18.0651   20.4040 N   0  0  0  0  0  0  0  0  0  0  0  0
  -24.4319  -19.1633   19.8304 N   0  0  0  0  0  0  0  0  0  0  0  0
  -26.8492  -28.2606   21.1761 N   0  0  0  0  0  0  0  0  0  0  0  0
  -24.1562  -22.3188   21.9695 N   0  0  0  0  0  0  0  0  0  0  0  0
  -23.0109  -19.8862   18.0786 N   0  0  0  0  0  0  0  0  0  0  0  0
  -22.9749  -15.3895   17.6611 N   0  0  0  0  0  0  0  0  0  0  0  0
  -28.8172  -26.0595   19.5478 N   0  0  0  0  0  0  0  0  0  0  0  0
  -27.2867  -29.9837   24.0567 N   0  0  0  0  0  0  0  0  0  0  0  0
  -22.1330  -23.3642   21.3310 N   0  0  0  0  0  0  0  0  0  0  0  0
  -17.4382  -24.6719   20.6845 N   0  3  0  0  0  0  0  0  0  0  0  0
  -25.6561  -33.2061   24.2133 N   0  3  0  0  0  0  0  0  0  0  0  0
  -22.1754  -17.3481   16.7760 O   0  0  0  0  0  0  0  0  0  0  0  0
  -26.5126  -25.8025   19.7604 O   0  0  0  0  0  0  0  0  0  0  0  0
  -28.9451  -28.7509   22.0721 O   0  0  0  0  0  0  0  0  0  0  0  0
  -25.0195  -30.4673   24.1128 O   0  0  0  0  0  0  0  0  0  0  0  0
  -23.7680  -24.5642   22.4004 O   0  0  0  0  0  0  0  0  0  0  0  0
  -25.7246  -11.7617   20.8725 O   0  0  0  0  0  0  0  0  0  0  0  0
  -20.9804  -27.7751   19.3390 O   0  0  0  0  0  0  0  0  0  1  0  0
  -21.6115   -8.0897   20.9310 F   0  0  0  0  0  0  0  0  0  0  0  0
  -25.1288  -10.3357   23.1647 F   0  0  0  0  0  0  0  0  0  0  0  0
  1  2  1  0  0  0  0
  1  5  2  0  0  0  0
  2  6  2  0  0  0  0
  3  8  2  0  0  0  0
  3 15  1  0  0  0  0
  4  9  1  0  0  0  0
  4 15  2  0  0  0  0
  5 17  1  0  0  0  0
  6 19  1  0  0  0  0
  7 10  2  0  0  0  0
  7 18  1  0  0  0  0
  8 21  1  0  0  0  0
  9 21  2  0  0  0  0
 10 22  1  0  0  0  0
 11 12  2  0  0  0  0
 11 23  1  0  0  0  0
 12 24  1  0  0  0  0
 13 20  1  0  0  0  0
 13 22  2  0  0  0  0
 14 24  2  0  0  0  0
 14 25  1  0  0  0  0
 15 26  1  0  0  0  0
 16 26  1  0  0  0  0
 16 27  2  0  0  0  0
 16 28  1  0  0  0  0
 17 19  2  0  0  0  0
 17 33  1  0  0  0  0
 18 20  2  0  0  0  0
 18 34  1  0  0  0  0
 19 45  1  0  0  0  0
 20 35  1  0  0  0  0
 21 78  1  0  0  0  0
 22 79  1  0  0  0  0
 23 25  2  0  0  0  0
 23 78  1  0  0  0  0
 24 80  1  0  0  0  0
 25 81  1  0  0  0  0
 26 62  2  0  0  0  0
 27 63  1  0  0  0  0
 27 66  1  0  0  0  0
 28 67  1  0  0  0  0
 28 73  2  0  0  0  0
 29 46  1  0  0  0  0
 29 68  1  0  0  0  0
 29 74  2  0  0  0  0
 30 58  1  0  0  0  0
 30 64  1  0  0  0  0
 30 75  2  0  0  0  0
 31 59  1  0  0  0  0
 31 69  1  0  0  0  0
 31 76  2  0  0  0  0
 32 65  1  0  0  0  0
 32 70  1  0  0  0  0
 32 77  2  0  0  0  0
 33 36  1  0  0  0  0
 34 46  1  0  0  0  0
 35 64  1  0  0  0  0
 36 39  1  0  0  0  0
 37 40  1  0  0  0  0
 37 42  1  0  0  0  0
 38 41  1  0  0  0  0
 38 44  1  0  0  0  0
 39 45  1  0  0  0  0
 40 47  1  0  0  0  0
 41 48  1  0  0  0  0
 42 65  1  0  0  0  0
 43 47  1  0  0  0  0
 43 65  1  0  0  0  0
 44 71  1  0  0  0  0
 45 68  1  0  0  0  0
 46 64  1  0  0  0  0
 47 63  1  0  0  0  0
 48 55  1  0  0  0  0
 48 60  1  0  0  0  0
 48 71  1  0  0  0  0
 49 59  1  0  0  0  0
 50 60  1  0  0  0  0
 51 61  1  0  0  0  0
 52 61  1  0  0  0  0
 53 61  1  0  0  0  0
 54 72  1  0  0  0  0
 55 56  1  0  0  0  0
 56 70  1  0  0  0  0
 57 60  1  0  0  0  0
 57 79  1  0  0  0  0
 58 61  1  0  0  0  0
 58 69  1  0  0  0  0
 59 72  1  0  0  0  0
 62 63  1  0  0  0  0
M  CHG  2  71   1  72   1
M  ISO  4  32 100  57 101  70 100  79 101
M  END
> <Batch ID>
0121

> <Smiles>
CNC(C)C(=O)NC(C(=O)N1Cc2cc([101O:1][101CH2:1]C(C)C3(CC[100NH:0][100C:0](=O)N4CCCC(n5nc(-c6ccc(Oc7ccc(F)cc7F)cc6)c(C(N)=O)c5N)C4)CCCN3)ccc2CC1C(=O)NC1CCCc2ccccc21)C(C)(C)C

> <Shape>
0.221

> <Color>
0.056

> <Negative vol penalty>
0.000

$$$$

  -OEChem-04052320253D

 82 91  0     1  0  0  0  0  0999 V2000
  -25.2215  -10.8376   20.8915 C   0  0  0  0  0  0  0  0  0  0  0  0
  -26.3253  -11.4763   20.3356 C   0  0  0  0  0  0  0  0  0  0  0  0
  -19.4383  -26.5030   20.2131 C   0  0  0  0  0  0  0  0  0  0  0  0
  -20.9643  -24.6317   20.1328 C   0  0  0  0  0  0  0  0  0  0  0  0
  -24.0294  -11.5380   21.0709 C   0  0  0  0  0  0  0  0  0  0  0  0
  -26.2372  -12.8156   19.9575 C   0  0  0  0  0  0  0  0  0  0  0  0
  -32.3808  -25.3041   20.1688 C   0  0  0  0  0  0  0  0  0  0  0  0
  -30.2010  -18.7669   19.5257 C   0  0  0  0  0  0  0  0  0  0  0  0
  -32.4482  -24.4214   19.0888 C   0  0  0  0  0  0  0  0  0  0  0  0
  -18.4421  -25.7154   19.6360 C   0  0  0  0  0  0  0  0  0  0  0  0
  -19.9682  -23.8441   19.5558 C   0  0  0  0  0  0  0  0  0  0  0  0
  -30.5561  -19.7607   18.6146 C   0  0  0  0  0  0  0  0  0  0  0  0
  -17.2327  -22.1448   20.5806 C   0  0  0  0  0  0  0  0  0  0  0  0
  -17.0587  -20.8540   21.0798 C   0  0  0  0  0  0  0  0  0  0  0  0
  -30.5088  -25.4662   18.0564 C   0  0  0  0  0  0  0  0  0  0  0  0
  -28.4697  -20.8924   19.0448 C   0  0  0  0  0  0  0  0  0  0  0  0
  -17.5435  -19.9436   18.8950 C   0  0  0  0  0  0  0  0  0  0  0  0
  -20.6994  -25.9611   20.4614 C   0  0  0  0  0  0  0  0  0  0  0  0
  -21.6893  -27.4123   22.3113 C   0  0  0  0  0  0  0  0  0  0  0  0
  -23.9295  -12.8892   20.7038 C   0  0  0  0  0  0  0  0  0  0  0  0
  -31.3827  -26.2642   20.1716 C   0  0  0  0  0  0  0  0  0  0  0  0
  -28.9706  -18.8228   20.1962 C   0  0  0  0  0  0  0  0  0  0  0  0
  -25.0422  -13.5344   20.1309 C   0  0  0  0  0  0  0  0  0  0  0  0
  -30.4524  -26.3428   19.1283 C   0  0  0  0  0  0  0  0  0  0  0  0
  -28.1023  -19.8994   19.9658 C   0  0  0  0  0  0  0  0  0  0  0  0
  -31.5190  -24.5022   18.0398 C   0  0  0  0  0  0  0  0  0  0  0  0
  -18.7070  -24.3859   19.3074 C   0  0  0  0  0  0  0  0  0  0  0  0
  -29.6892  -20.8221   18.3719 C   0  0  0  0  0  0  0  0  0  0  0  0
  -17.5620  -22.3350   19.2385 C   0  0  0  0  0  0  0  0  0  0  0  0
  -17.2141  -19.7534   20.2371 C   0  0  0  0  0  0  0  0  0  0  0  0
  -17.7174  -21.2344   18.3958 C   0  0  0  0  0  0  0  0  0  0  0  0
  -21.7290  -26.7744   21.0569 C   0  0  0  0  0  0  0  0  0  0  0  0
  -22.9004  -28.0529   22.4091 C   0  0  0  0  0  0  0  0  0  0  0  0
  -20.6507  -27.4246   23.2996 C   0  0  0  0  0  0  0  0  0  0  0  0
  -28.1344  -26.8958   19.8516 C   0  0  0  0  0  0  0  0  0  0  0  0
  -26.3900  -16.9703   20.3064 C   0  0  0  0  0  0  0  0  0  0  0  0
  -25.4643  -19.0628   22.6057 C   0  0  0  0  0  0  0  0  0  0  0  0
  -25.7245  -22.1868   23.9547 C   0  0  0  0  0  0  0  0  0  0  0  0
  -22.6057  -13.5916   20.8732 C   0  0  0  0  0  0  0  0  0  0  0  0
  -31.0915  -27.2821   21.2279 C   0  0  0  0  0  0  0  0  0  0  0  0
  -28.6139  -17.7570   21.1958 C   0  0  0  0  0  0  0  0  0  0  0  0
  -26.7787  -20.0165   20.6748 C   0  0  0  0  0  0  0  0  0  0  0  0
  -22.7083  -15.1125   20.7922 C   0  0  0  0  0  0  0  0  0  0  0  0
  -30.1650  -28.2514   20.4731 C   0  0  0  0  0  0  0  0  0  0  0  0
  -26.3189  -30.0449   19.7316 C   0  0  0  0  0  0  0  0  0  0  0  0
  -23.5620  -15.5271   19.5979 C   0  0  0  0  0  0  0  0  0  0  0  0
  -24.9163  -29.6052   20.1493 C   0  0  0  0  0  0  0  0  0  0  0  0
  -27.0191  -28.9728   18.9007 C   0  0  0  0  0  0  0  0  0  0  0  0
  -25.6825  -27.1968   19.9888 C   0  0  0  0  0  0  0  0  0  0  0  0
  -29.4585  -27.4367   19.3738 C   0  0  1  0  0  0  0  0  0  0  0  0
  -24.9933  -14.9931   19.7311 C   0  0  1  0  0  0  0  0  0  0  0  0
  -27.1120  -17.6442   21.4387 C   0  0  1  0  0  0  0  0  0  0  0  0
  -24.9537  -28.2381   20.8545 C   0  0  2  0  0  0  0  0  0  0  0  0
  -32.9327  -23.6921   16.1223 C   0  0  0  0  0  0  0  0  0  0  0  0
  -24.8159  -23.6142   25.8079 C   0  0  0  0  0  0  0  0  0  0  0  0
  -22.8773  -19.4510   21.0350 C   0  0  0  0  0  0  0  0  0  0  0  0
  -22.4568  -21.5239   22.3747 C   0  0  0  0  0  0  0  0  0  0  0  0
  -22.5811  -19.3083   23.5142 C   0  0  0  0  0  0  0  0  0  0  0  0
  -28.4010  -22.5080   25.1762 C   0  0  0  0  0  0  0  0  0  0  0  0
  -31.4244  -22.0723   17.3317 C   0  0  0  0  0  0  0  0  0  1  0  0
  -31.6108  -23.5263   16.8773 C   0  0  1  0  0  0  0  0  0  0  0  0
  -24.6982  -20.3636   22.6217 C   0  0  1  0  0  0  0  0  0  0  0  0
  -25.9164  -22.6529   25.3867 C   0  0  2  0  0  0  0  0  0  0  0  0
  -23.1774  -20.1588   22.3714 C   0  0  0  0  0  0  0  0  0  0  0  0
  -22.8745  -26.9902   20.4047 N   0  0  0  0  0  0  0  0  0  0  0  0
  -23.5657  -27.7710   21.2524 N   0  0  0  0  0  0  0  0  0  0  0  0
  -27.0092  -27.6796   19.5949 N   0  0  0  0  0  0  0  0  0  0  0  0
  -26.4724  -18.9462   21.6383 N   0  0  0  0  0  0  0  0  0  0  0  0
  -23.4503  -28.8242   23.3709 N   0  0  0  0  0  0  0  0  0  0  0  0
  -20.6545  -26.4282   24.2852 N   0  0  0  0  0  0  0  0  0  0  0  0
  -25.7489  -15.7999   20.6652 N   0  0  0  0  0  0  0  0  0  0  0  0
  -25.0133  -21.0072   23.8925 N   0  0  0  0  0  0  0  0  0  0  0  0
  -27.2276  -23.3455   25.5346 N   0  3  0  0  0  0  0  0  0  0  0  0
  -19.7368  -28.2838   23.2987 O   0  0  0  0  0  0  0  0  0  0  0  0
  -28.1036  -25.8105   20.4375 O   0  0  0  0  0  0  0  0  0  0  0  0
  -26.4115  -17.4755   19.1902 O   0  0  0  0  0  0  0  0  0  0  0  0
  -25.1835  -18.1855   23.4260 O   0  0  0  0  0  0  0  0  0  0  0  0
  -26.1587  -22.8091   22.9879 O   0  0  0  0  0  0  0  0  0  0  0  0
  -17.7352  -23.6171   18.7446 O   0  0  0  0  0  0  0  0  0  0  0  0
  -30.0332  -21.7931   17.4826 O   0  0  0  0  0  0  0  0  0  1  0  0
  -17.0485  -18.5139   20.7170 F   0  0  0  0  0  0  0  0  0  0  0  0
  -18.0349  -21.4108   17.1059 F   0  0  0  0  0  0  0  0  0  0  0  0
  1  2  1  0  0  0  0
  1  5  2  0  0  0  0
  2  6  2  0  0  0  0
  3 10  2  0  0  0  0
  3 18  1  0  0  0  0
  4 11  1  0  0  0  0
  4 18  2  0  0  0  0
  5 20  1  0  0  0  0
  6 23  1  0  0  0  0
  7  9  2  0  0  0  0
  7 21  1  0  0  0  0
  8 12  2  0  0  0  0
  8 22  1  0  0  0  0
  9 26  1  0  0  0  0
 10 27  1  0  0  0  0
 11 27  2  0  0  0  0
 12 28  1  0  0  0  0
 13 14  2  0  0  0  0
 13 29  1  0  0  0  0
 14 30  1  0  0  0  0
 15 24  1  0  0  0  0
 15 26  2  0  0  0  0
 16 25  1  0  0  0  0
 16 28  2  0  0  0  0
 17 30  2  0  0  0  0
 17 31  1  0  0  0  0
 18 32  1  0  0  0  0
 19 32  1  0  0  0  0
 19 33  2  0  0  0  0
 19 34  1  0  0  0  0
 20 23  2  0  0  0  0
 20 39  1  0  0  0  0
 21 24  2  0  0  0  0
 21 40  1  0  0  0  0
 22 25  2  0  0  0  0
 22 41  1  0  0  0  0
 23 51  1  0  0  0  0
 24 50  1  0  0  0  0
 25 42  1  0  0  0  0
 26 61  1  0  0  0  0
 27 79  1  0  0  0  0
 28 80  1  0  0  0  0
 29 31  2  0  0  0  0
 29 79  1  0  0  0  0
 30 81  1  0  0  0  0
 31 82  1  0  0  0  0
 32 65  2  0  0  0  0
 33 66  1  0  0  0  0
 33 69  1  0  0  0  0
 34 70  1  0  0  0  0
 34 74  2  0  0  0  0
 35 50  1  0  0  0  0
 35 67  1  0  0  0  0
 35 75  2  0  0  0  0
 36 52  1  0  0  0  0
 36 71  1  0  0  0  0
 36 76  2  0  0  0  0
 37 62  1  0  0  0  0
 37 68  1  0  0  0  0
 37 77  2  0  0  0  0
 38 63  1  0  0  0  0
 38 72  1  0  0  0  0
 38 78  2  0  0  0  0
 39 43  1  0  0  0  0
 40 44  1  0  0  0  0
 41 52  1  0  0  0  0
 42 68  1  0  0  0  0
 43 46  1  0  0  0  0
 44 50  1  0  0  0  0
 45 47  1  0  0  0  0
 45 48  1  0  0  0  0
 46 51  1  0  0  0  0
 47 53  1  0  0  0  0
 48 67  1  0  0  0  0
 49 53  1  0  0  0  0
 49 67  1  0  0  0  0
 51 71  1  0  0  0  0
 52 68  1  0  0  0  0
 53 66  1  0  0  0  0
 54 61  1  0  0  0  0
 55 63  1  0  0  0  0
 56 64  1  0  0  0  0
 57 64  1  0  0  0  0
 58 64  1  0  0  0  0
 59 73  1  0  0  0  0
 60 61  1  0  0  0  0
 60 80  1  0  0  0  0
 62 64  1  0  0  0  0
 62 72  1  0  0  0  0
 63 73  1  0  0  0  0
 65 66  1  0  0  0  0
M  CHG  1  73   1
M  ISO  4  35 100  50 100  60 101  80 101
M  END
> <Batch ID>
0121

> <Smiles>
CNC(C)C(=O)NC(C(=O)N1Cc2cc([101O:1][101CH2:1]C(C)c3ccc4c(c3)[100CH:0]([100C:0](=O)N3CCCC(n5nc(-c6ccc(Oc7ccc(F)cc7F)cc6)c(C(N)=O)c5N)C3)CC4)ccc2CC1C(=O)NC1CCCc2ccccc21)C(C)(C)C

> <Shape>
0.209

> <Color>
0.068

> <Negative vol penalty>
0.000

$$$$

  -OEChem-04052320253D

 86 95  0     1  0  0  0  0  0999 V2000
  -26.6054  -11.4567   16.6231 C   0  0  0  0  0  0  0  0  0  0  0  0
  -25.6669  -11.4121   17.6480 C   0  0  0  0  0  0  0  0  0  0  0  0
  -20.8112  -25.7507   23.1642 C   0  0  0  0  0  0  0  0  0  0  0  0
  -21.7853  -26.3903   21.0478 C   0  0  0  0  0  0  0  0  0  0  0  0
  -27.9162  -11.8394   16.8998 C   0  0  0  0  0  0  0  0  0  0  0  0
  -26.0360  -11.7616   18.9474 C   0  0  0  0  0  0  0  0  0  0  0  0
  -27.4407  -17.9961   23.2385 C   0  0  0  0  0  0  0  0  0  0  0  0
  -19.7059  -26.5594   22.8999 C   0  0  0  0  0  0  0  0  0  0  0  0
  -20.6800  -27.1991   20.7835 C   0  0  0  0  0  0  0  0  0  0  0  0
  -27.9942  -19.2162   22.8529 C   0  0  0  0  0  0  0  0  0  0  0  0
  -18.9384  -29.8485   23.0309 C   0  0  0  0  0  0  0  0  0  0  0  0
  -18.4738  -30.6665   24.0608 C   0  0  0  0  0  0  0  0  0  0  0  0
  -26.6432  -19.1908   20.8546 C   0  0  0  0  0  0  0  0  0  0  0  0
  -29.7935  -22.8360   19.6872 C   0  0  0  0  0  0  0  0  0  0  0  0
  -16.3297  -29.5563   23.9752 C   0  0  0  0  0  0  0  0  0  0  0  0
  -21.8510  -25.6662   22.2381 C   0  0  0  0  0  0  0  0  0  0  0  0
  -23.1538  -23.4739   22.1743 C   0  0  0  0  0  0  0  0  0  0  0  0
  -28.3037  -12.1816   18.2058 C   0  0  0  0  0  0  0  0  0  0  0  0
  -26.4906  -17.3578   22.4283 C   0  0  0  0  0  0  0  0  0  0  0  0
  -27.3482  -12.1735   19.2423 C   0  0  0  0  0  0  0  0  0  0  0  0
  -26.0772  -17.9639   21.2334 C   0  0  0  0  0  0  0  0  0  0  0  0
  -30.4360  -24.0466   19.4527 C   0  0  0  0  0  0  0  0  0  0  0  0
  -29.6877  -25.2122   19.3310 C   0  0  0  0  0  0  0  0  0  0  0  0
  -19.6403  -27.2836   21.7096 C   0  0  0  0  0  0  0  0  0  0  0  0
  -27.5977  -19.8123   21.6594 C   0  0  0  0  0  0  0  0  0  0  0  0
  -18.0987  -28.8845   22.4731 C   0  0  0  0  0  0  0  0  0  0  0  0
  -17.1694  -30.5204   24.5329 C   0  0  0  0  0  0  0  0  0  0  0  0
  -16.7943  -28.7384   22.9452 C   0  0  0  0  0  0  0  0  0  0  0  0
  -22.9933  -24.8314   22.5108 C   0  0  0  0  0  0  0  0  0  0  0  0
  -28.4119  -22.8445   19.7912 C   0  0  0  0  0  0  0  0  0  0  0  0
  -28.3108  -25.1143   19.4508 C   0  0  0  0  0  0  0  0  0  0  0  0
  -24.4008  -23.1477   22.6486 C   0  0  0  0  0  0  0  0  0  0  0  0
  -22.2561  -22.5871   21.4936 C   0  0  0  0  0  0  0  0  0  0  0  0
  -26.3628  -14.5842   20.8809 C   0  0  0  0  0  0  0  0  0  0  0  0
  -23.3082  -15.5007   20.2879 C   0  0  0  0  0  0  0  0  0  0  0  0
  -21.0519  -18.0442   19.9932 C   0  0  0  0  0  0  0  0  0  0  0  0
  -29.3103  -26.3851   23.7746 C   0  0  0  0  0  0  0  0  0  0  0  0
  -29.7337  -12.5960   18.4476 C   0  0  0  0  0  0  0  0  0  0  0  0
  -25.8833  -16.0551   22.8715 C   0  0  0  0  0  0  0  0  0  0  0  0
  -25.0456  -17.3295   20.3380 C   0  0  0  0  0  0  0  0  0  0  0  0
  -30.1349  -12.5179   19.9171 C   0  0  0  0  0  0  0  0  0  0  0  0
  -27.5315  -24.3250   26.0698 C   0  0  0  0  0  0  0  0  0  0  0  0
  -29.0949  -13.2194   20.7778 C   0  0  0  0  0  0  0  0  0  0  0  0
  -31.2268  -28.5731   20.4329 C   0  0  0  0  0  0  0  0  0  0  0  0
  -26.1812  -24.0987   25.3876 C   0  0  0  0  0  0  0  0  0  0  0  0
  -30.9505  -28.4347   21.9445 C   0  0  0  0  0  0  0  0  0  0  0  0
  -28.0642  -25.7330   25.8138 C   0  0  0  0  0  0  0  0  0  0  0  0
  -26.7908  -25.8907   23.7096 C   0  0  0  0  0  0  0  0  0  0  0  0
  -27.7341  -12.5199   20.6690 C   0  0  1  0  0  0  0  0  0  0  0  0
  -25.3029  -15.2432   21.7176 C   0  0  1  0  0  0  0  0  0  0  0  0
  -30.1167  -27.5142   20.2065 C   0  0  2  0  0  0  0  0  0  0  0  0
  -26.2396  -24.4663   23.8927 C   0  0  2  0  0  0  0  0  0  0  0  0
  -30.4218  -27.0126   21.6462 C   0  0  2  0  0  0  0  0  0  0  0  0
  -31.9240  -24.0673   19.3333 C   0  0  0  0  0  0  0  0  0  0  0  0
  -27.4539  -26.3321   19.3310 C   0  0  0  0  0  0  0  0  0  0  0  0
  -29.9279  -27.1521   17.7394 C   0  0  0  0  0  0  0  0  0  0  0  0
  -18.6392  -18.4855   19.4628 C   0  0  0  0  0  0  0  0  0  0  0  0
  -23.8779  -15.0419   17.3257 C   0  0  0  0  0  0  0  0  0  0  0  0
  -21.8240  -16.3720   16.7961 C   0  0  0  0  0  0  0  0  0  0  0  0
  -21.6332  -14.2487   18.0914 C   0  0  0  0  0  0  0  0  0  0  0  0
  -20.5640  -19.2364   22.6577 C   0  0  0  0  0  0  0  0  0  0  0  0
  -27.6848  -21.5568   20.0454 C   0  0  0  0  0  0  0  0  0  1  0  0
  -30.3498  -26.5256   19.0818 C   0  0  2  0  0  0  0  0  0  0  0  0
  -22.6215  -16.2935   19.2021 C   0  0  1  0  0  0  0  0  0  0  0  0
  -19.6562  -18.2236   20.5627 C   0  0  2  0  0  0  0  0  0  0  0  0
  -22.5100  -15.5003   17.8695 C   0  0  0  0  0  0  0  0  0  0  0  0
  -24.0534  -25.3331   23.1498 N   0  0  0  0  0  0  0  0  0  0  0  0
  -27.6513  -23.9564   19.6786 N   0  0  0  0  0  0  0  0  0  0  0  0
  -24.8921  -24.2853   23.2187 N   0  0  0  0  0  0  0  0  0  0  0  0
  -24.4858  -16.0529   20.8116 N   0  0  0  0  0  0  0  0  0  0  0  0
  -28.0957  -26.0182   24.3772 N   0  0  0  0  0  0  0  0  0  0  0  0
  -25.1141  -22.0017   22.6297 N   0  0  0  0  0  0  0  0  0  0  0  0
  -21.0152  -23.0853   21.0738 N   0  0  0  0  0  0  0  0  0  0  0  0
  -26.7330  -13.3299   21.3273 N   0  0  0  0  0  0  0  0  0  0  0  0
  -21.3394  -16.7169   19.7545 N   0  0  0  0  0  0  0  0  0  0  0  0
  -29.2535  -26.6317   22.4083 N   0  0  0  0  0  0  0  0  0  0  0  0
  -19.6279  -19.3720   21.5121 N   0  3  0  0  0  0  0  0  0  0  0  0
  -22.5391  -21.3841   21.2789 O   0  0  0  0  0  0  0  0  0  0  0  0
  -26.8105  -15.1697   19.9019 O   0  0  0  0  0  0  0  0  0  0  0  0
  -22.8140  -14.4345   20.6628 O   0  0  0  0  0  0  0  0  0  0  0  0
  -21.8098  -18.9874   19.7778 O   0  0  0  0  0  0  0  0  0  0  0  0
  -30.3681  -26.4803   24.4062 O   0  0  0  0  0  0  0  0  0  0  0  0
  -18.5617  -28.0727   21.4513 O   0  0  0  0  0  0  0  0  0  0  0  0
  -28.1369  -21.0029   21.2803 O   0  0  0  0  0  0  0  0  0  1  0  0
  -16.7238  -31.3049   25.5230 F   0  0  0  0  0  0  0  0  0  0  0  0
  -15.9833  -27.8132   22.4141 F   0  0  0  0  0  0  0  0  0  0  0  0
  1  2  1  0  0  0  0
  1  5  2  0  0  0  0
  2  6  2  0  0  0  0
  3  8  2  0  0  0  0
  3 16  1  0  0  0  0
  4  9  1  0  0  0  0
  4 16  2  0  0  0  0
  5 18  1  0  0  0  0
  6 20  1  0  0  0  0
  7 10  2  0  0  0  0
  7 19  1  0  0  0  0
  8 24  1  0  0  0  0
  9 24  2  0  0  0  0
 10 25  1  0  0  0  0
 11 12  2  0  0  0  0
 11 26  1  0  0  0  0
 12 27  1  0  0  0  0
 13 21  1  0  0  0  0
 13 25  2  0  0  0  0
 14 22  2  0  0  0  0
 14 30  1  0  0  0  0
 15 27  2  0  0  0  0
 15 28  1  0  0  0  0
 16 29  1  0  0  0  0
 17 29  1  0  0  0  0
 17 32  2  0  0  0  0
 17 33  1  0  0  0  0
 18 20  2  0  0  0  0
 18 38  1  0  0  0  0
 19 21  2  0  0  0  0
 19 39  1  0  0  0  0
 20 49  1  0  0  0  0
 21 40  1  0  0  0  0
 22 23  1  0  0  0  0
 22 54  1  0  0  0  0
 23 31  2  0  0  0  0
 23 63  1  0  0  0  0
 24 83  1  0  0  0  0
 25 84  1  0  0  0  0
 26 28  2  0  0  0  0
 26 83  1  0  0  0  0
 27 85  1  0  0  0  0
 28 86  1  0  0  0  0
 29 67  2  0  0  0  0
 30 62  1  0  0  0  0
 30 68  2  0  0  0  0
 31 55  1  0  0  0  0
 31 68  1  0  0  0  0
 32 69  1  0  0  0  0
 32 72  1  0  0  0  0
 33 73  1  0  0  0  0
 33 78  2  0  0  0  0
 34 50  1  0  0  0  0
 34 74  1  0  0  0  0
 34 79  2  0  0  0  0
 35 64  1  0  0  0  0
 35 70  1  0  0  0  0
 35 80  2  0  0  0  0
 36 65  1  0  0  0  0
 36 75  1  0  0  0  0
 36 81  2  0  0  0  0
 37 71  1  0  0  0  0
 37 76  1  0  0  0  0
 37 82  2  0  0  0  0
 38 41  1  0  0  0  0
 39 50  1  0  0  0  0
 40 70  1  0  0  0  0
 41 43  1  0  0  0  0
 42 45  1  0  0  0  0
 42 47  1  0  0  0  0
 43 49  1  0  0  0  0
 44 46  1  0  0  0  0
 44 51  1  0  0  0  0
 45 52  1  0  0  0  0
 46 53  1  0  0  0  0
 47 71  1  0  0  0  0
 48 52  1  0  0  0  0
 48 71  1  0  0  0  0
 49 74  1  0  0  0  0
 50 70  1  0  0  0  0
 51 53  1  0  0  0  0
 51 63  1  0  0  0  0
 52 69  1  0  0  0  0
 53 76  1  0  0  0  0
 56 63  1  0  0  0  0
 57 65  1  0  0  0  0
 58 66  1  0  0  0  0
 59 66  1  0  0  0  0
 60 66  1  0  0  0  0
 61 77  1  0  0  0  0
 62 84  1  0  0  0  0
 64 66  1  0  0  0  0
 64 75  1  0  0  0  0
 65 77  1  0  0  0  0
 67 69  1  0  0  0  0
M  CHG  1  77   1
M  ISO  4  37 100  62 101  76 100  84 101
M  END
> <Batch ID>
0121

> <Smiles>
CNC(C)C(=O)NC(C(=O)N1Cc2cc([101O:1][101CH2:1]c3cc(C)c(C(C)C4CCC4[100NH:0][100C:0](=O)N4CCCC(n5nc(-c6ccc(Oc7ccc(F)cc7F)cc6)c(C(N)=O)c5N)C4)c(C)n3)ccc2CC1C(=O)NC1CCCc2ccccc21)C(C)(C)C

> <Shape>
0.213

> <Color>
0.051

> <Negative vol penalty>
0.000

$$$$

  -OEChem-04052320253D

 89 98  0     1  0  0  0  0  0999 V2000
  -15.0441  -29.3973   25.1283 C   0  0  0  0  0  0  0  0  0  0  0  0
  -15.9733  -28.3627   25.1672 C   0  0  0  0  0  0  0  0  0  0  0  0
  -22.8495  -10.1917   19.9861 C   0  0  0  0  0  0  0  0  0  0  0  0
  -23.8290   -9.8091   22.1612 C   0  0  0  0  0  0  0  0  0  0  0  0
  -15.2797  -30.5147   24.3285 C   0  0  0  0  0  0  0  0  0  0  0  0
  -17.1383  -28.4444   24.4053 C   0  0  0  0  0  0  0  0  0  0  0  0
  -22.6768  -26.3048   25.9066 C   0  0  0  0  0  0  0  0  0  0  0  0
  -22.0241   -9.0812   20.1624 C   0  0  0  0  0  0  0  0  0  0  0  0
  -23.0035   -8.6986   22.3376 C   0  0  0  0  0  0  0  0  0  0  0  0
  -23.3560  -25.1369   25.5626 C   0  0  0  0  0  0  0  0  0  0  0  0
  -22.9097   -5.4769   21.3165 C   0  0  0  0  0  0  0  0  0  0  0  0
  -23.4891   -4.3120   21.8194 C   0  0  0  0  0  0  0  0  0  0  0  0
  -24.4937  -26.3254   23.7984 C   0  0  0  0  0  0  0  0  0  0  0  0
  -21.9898   -4.3835   23.7125 C   0  0  0  0  0  0  0  0  0  0  0  0
  -26.8695  -21.7608   24.4358 C   0  0  0  0  0  0  0  0  0  0  0  0
  -24.9398  -20.5433   23.9354 C   0  0  0  0  0  0  0  0  0  0  0  0
  -23.7521  -10.5556   20.9855 C   0  0  0  0  0  0  0  0  0  0  0  0
  -24.3272  -13.0345   21.1635 C   0  0  0  0  0  0  0  0  0  0  0  0
  -16.4528  -30.6145   23.5638 C   0  0  0  0  0  0  0  0  0  0  0  0
  -22.8931  -27.4911   25.1909 C   0  0  0  0  0  0  0  0  0  0  0  0
  -17.3893  -29.5636   23.5934 C   0  0  0  0  0  0  0  0  0  0  0  0
  -23.8178  -27.5076   24.1369 C   0  0  0  0  0  0  0  0  0  0  0  0
  -25.4905  -21.7063   24.4337 C   0  0  0  0  0  0  0  0  0  0  0  0
  -22.1011   -8.3347   21.3382 C   0  0  0  0  0  0  0  0  0  0  0  0
  -24.2625  -25.1463   24.5065 C   0  0  0  0  0  0  0  0  0  0  0  0
  -21.8703   -6.0952   22.0116 C   0  0  0  0  0  0  0  0  0  0  0  0
  -23.0292   -3.7653   23.0174 C   0  0  0  0  0  0  0  0  0  0  0  0
  -21.4104   -5.5485   23.2096 C   0  0  0  0  0  0  0  0  0  0  0  0
  -24.6054  -11.7023   20.8037 C   0  0  0  0  0  0  0  0  0  0  0  0
  -25.4466  -13.7337   20.7834 C   0  0  0  0  0  0  0  0  0  0  0  0
  -27.0032  -19.6812   23.5276 C   0  0  0  0  0  0  0  0  0  0  0  0
  -23.1612  -13.5903   21.7858 C   0  0  0  0  0  0  0  0  0  0  0  0
  -21.0766  -29.4041   23.4176 C   0  0  0  0  0  0  0  0  0  0  0  0
  -23.7391  -31.2568   23.3849 C   0  0  0  0  0  0  0  0  0  0  0  0
  -27.1328  -31.4577   23.6836 C   0  0  0  0  0  0  0  0  0  0  0  0
  -30.9957  -14.2521   20.4935 C   0  0  0  0  0  0  0  0  0  0  0  0
  -16.6413  -31.8205   22.6779 C   0  0  0  0  0  0  0  0  0  0  0  0
  -22.1724  -28.7490   25.5916 C   0  0  0  0  0  0  0  0  0  0  0  0
  -24.1011  -28.7602   23.3500 C   0  0  0  0  0  0  0  0  0  0  0  0
  -18.0767  -31.9993   22.1899 C   0  0  0  0  0  0  0  0  0  0  0  0
  -29.3990  -12.3348   17.9536 C   0  0  0  0  0  0  0  0  0  0  0  0
  -18.6366  -30.6746   21.6815 C   0  0  0  0  0  0  0  0  0  0  0  0
  -28.7375  -18.0142   24.1457 C   0  0  0  0  0  0  0  0  0  0  0  0
  -29.6516  -16.9013   23.6400 C   0  0  0  0  0  0  0  0  0  0  0  0
  -27.9894  -12.1041   18.5011 C   0  0  0  0  0  0  0  0  0  0  0  0
  -28.6956  -19.0242   21.8288 C   0  0  0  0  0  0  0  0  0  0  0  0
  -30.4475  -12.3051   19.0635 C   0  0  0  0  0  0  0  0  0  0  0  0
  -28.7730  -12.9886   20.7377 C   0  0  0  0  0  0  0  0  0  0  0  0
  -18.6766  -29.6268   22.8003 C   0  0  1  0  0  0  0  0  0  0  0  0
  -27.8424  -18.5576   23.0213 C   0  0  2  0  0  0  0  0  0  0  0  0
  -22.0884  -29.7743   24.4650 C   0  0  1  0  0  0  0  0  0  0  0  0
  -30.5101  -17.3552   22.4471 C   0  0  2  0  0  0  0  0  0  0  0  0
  -29.6189  -17.9069   21.3073 C   0  0  2  0  0  0  0  0  0  0  0  0
  -27.6750  -13.0654   19.6631 C   0  0  2  0  0  0  0  0  0  0  0  0
  -29.0266  -33.1002   23.5692 C   0  0  0  0  0  0  0  0  0  0  0  0
  -32.3082  -15.7280   23.1124 C   0  0  0  0  0  0  0  0  0  0  0  0
  -23.5409  -31.2696   20.3401 C   0  0  0  0  0  0  0  0  0  0  0  0
  -25.9085  -32.0797   20.2590 C   0  0  0  0  0  0  0  0  0  0  0  0
  -24.1526  -33.4720   21.3550 C   0  0  0  0  0  0  0  0  0  0  0  0
  -30.1683  -19.3048   17.7994 C   0  0  0  0  0  0  0  0  0  0  0  0
  -27.9023  -30.9428   26.4945 C   0  0  0  0  0  0  0  0  0  0  0  0
  -24.6457  -22.8392   24.9379 C   0  0  0  0  0  0  0  0  0  1  0  0
  -30.4369  -18.4362   20.1259 C   0  0  0  0  0  0  0  0  0  0  0  0
  -24.9558  -31.3645   22.4977 C   0  0  1  0  0  0  0  0  0  0  0  0
  -28.0203  -32.4038   24.4720 C   0  0  2  0  0  0  0  0  0  0  0  0
  -31.3946  -16.1920   21.9891 C   0  0  1  0  0  0  0  0  0  0  0  0
  -24.6329  -32.0222   21.1263 C   0  0  0  0  0  0  0  0  0  0  0  0
  -27.6597  -20.7628   23.9887 N   0  0  0  0  0  0  0  0  0  0  0  0
  -25.6690  -19.5069   23.4722 N   0  0  0  0  0  0  0  0  0  0  0  0
  -25.8072  -11.5611   20.2382 N   0  0  0  0  0  0  0  0  0  0  0  0
  -26.2941  -12.8137   20.2398 N   0  0  0  0  0  0  0  0  0  0  0  0
  -23.3666  -29.9630   23.7761 N   0  0  0  0  0  0  0  0  0  0  0  0
  -30.0909  -13.2398   20.1336 N   0  0  0  0  0  0  0  0  0  0  0  0
  -25.7788  -15.0397   20.8643 N   0  0  0  0  0  0  0  0  0  0  0  0
  -22.1030  -12.7306   22.1103 N   0  0  0  0  0  0  0  0  0  0  0  0
  -19.8013  -29.8678   23.6786 N   0  0  0  0  0  0  0  0  0  0  0  0
  -25.9672  -32.0714   23.2760 N   0  0  0  0  0  0  0  0  0  0  0  0
  -30.5769  -15.0989   21.5125 N   0  0  0  0  0  0  0  0  0  0  0  0
  -29.5075  -18.8206   19.0460 N   0  3  0  0  0  0  0  0  0  0  0  0
  -28.7691  -31.6572   25.5222 N   0  3  0  0  0  0  0  0  0  0  0  0
  -23.0541  -14.8157   22.0315 O   0  0  0  0  0  0  0  0  0  0  0  0
  -21.4274  -28.7478   22.4440 O   0  0  0  0  0  0  0  0  0  0  0  0
  -23.1454  -32.2834   23.7243 O   0  0  0  0  0  0  0  0  0  0  0  0
  -27.4442  -30.2921   23.4492 O   0  0  0  0  0  0  0  0  0  0  0  0
  -32.0931  -14.3944   19.9435 O   0  0  0  0  0  0  0  0  0  0  0  0
  -21.2956   -7.2512   21.5107 O   0  0  0  0  0  0  0  0  0  0  0  0
  -24.9263  -24.0076   24.1682 O   0  0  0  0  0  0  0  0  0  1  0  0
  -23.5846   -2.6458   23.4994 F   0  0  0  0  0  0  0  0  0  0  0  0
  -20.4114   -6.1373   23.8813 F   0  0  0  0  0  0  0  0  0  0  0  0
  1  2  1  0  0  0  0
  1  5  2  0  0  0  0
  2  6  2  0  0  0  0
  3  8  2  0  0  0  0
  3 17  1  0  0  0  0
  4  9  1  0  0  0  0
  4 17  2  0  0  0  0
  5 19  1  0  0  0  0
  6 21  1  0  0  0  0
  7 10  2  0  0  0  0
  7 20  1  0  0  0  0
  8 24  1  0  0  0  0
  9 24  2  0  0  0  0
 10 25  1  0  0  0  0
 11 12  2  0  0  0  0
 11 26  1  0  0  0  0
 12 27  1  0  0  0  0
 13 22  1  0  0  0  0
 13 25  2  0  0  0  0
 14 27  2  0  0  0  0
 14 28  1  0  0  0  0
 15 23  1  0  0  0  0
 15 68  2  0  0  0  0
 16 23  2  0  0  0  0
 16 69  1  0  0  0  0
 17 29  1  0  0  0  0
 18 29  1  0  0  0  0
 18 30  2  0  0  0  0
 18 32  1  0  0  0  0
 19 21  2  0  0  0  0
 19 37  1  0  0  0  0
 20 22  2  0  0  0  0
 20 38  1  0  0  0  0
 21 49  1  0  0  0  0
 22 39  1  0  0  0  0
 23 62  1  0  0  0  0
 24 86  1  0  0  0  0
 25 87  1  0  0  0  0
 26 28  2  0  0  0  0
 26 86  1  0  0  0  0
 27 88  1  0  0  0  0
 28 89  1  0  0  0  0
 29 70  2  0  0  0  0
 30 71  1  0  0  0  0
 30 74  1  0  0  0  0
 31 50  1  0  0  0  0
 31 68  1  0  0  0  0
 31 69  2  0  0  0  0
 32 75  1  0  0  0  0
 32 81  2  0  0  0  0
 33 51  1  0  0  0  0
 33 76  1  0  0  0  0
 33 82  2  0  0  0  0
 34 64  1  0  0  0  0
 34 72  1  0  0  0  0
 34 83  2  0  0  0  0
 35 65  1  0  0  0  0
 35 77  1  0  0  0  0
 35 84  2  0  0  0  0
 36 73  1  0  0  0  0
 36 78  1  0  0  0  0
 36 85  2  0  0  0  0
 37 40  1  0  0  0  0
 38 51  1  0  0  0  0
 39 72  1  0  0  0  0
 40 42  1  0  0  0  0
 41 45  1  0  0  0  0
 41 47  1  0  0  0  0
 42 49  1  0  0  0  0
 43 44  1  0  0  0  0
 43 50  1  0  0  0  0
 44 52  1  0  0  0  0
 45 54  1  0  0  0  0
 46 50  1  0  0  0  0
 46 53  1  0  0  0  0
 47 73  1  0  0  0  0
 48 54  1  0  0  0  0
 48 73  1  0  0  0  0
 49 76  1  0  0  0  0
 51 72  1  0  0  0  0
 52 53  1  0  0  0  0
 52 66  1  0  0  0  0
 53 63  1  0  0  0  0
 54 71  1  0  0  0  0
 55 65  1  0  0  0  0
 56 66  1  0  0  0  0
 57 67  1  0  0  0  0
 58 67  1  0  0  0  0
 59 67  1  0  0  0  0
 60 79  1  0  0  0  0
 61 80  1  0  0  0  0
 62 87  1  0  0  0  0
 63 79  1  0  0  0  0
 64 67  1  0  0  0  0
 64 77  1  0  0  0  0
 65 80  1  0  0  0  0
 66 78  1  0  0  0  0
 70 71  1  0  0  0  0
M  CHG  2  79   1  80   1
M  ISO  4  36 100  62 101  78 100  87 101
M  END
> <Batch ID>
0121

> <Smiles>
CNCC1CC(c2ncc([101CH2:1][101O:1]c3ccc4c(c3)CN(C(=O)C(NC(=O)C(C)NC)C(C)(C)C)C(C(=O)NC3CCCc5ccccc53)C4)cn2)CCC1C(C)[100NH:0][100C:0](=O)N1CCCC(n2nc(-c3ccc(Oc4ccc(F)cc4F)cc3)c(C(N)=O)c2N)C1

> <Shape>
0.338

> <Color>
0.177

> <Negative vol penalty>
0.000

$$$$

  -OEChem-04052320253D

 87 96  0     1  0  0  0  0  0999 V2000
  -30.2969  -23.8569   17.3286 C   0  0  0  0  0  0  0  0  0  0  0  0
  -29.2572  -23.5465   18.1979 C   0  0  0  0  0  0  0  0  0  0  0  0
  -27.3186  -17.2011   19.0760 C   0  0  0  0  0  0  0  0  0  0  0  0
  -28.2670  -16.8867   21.2757 C   0  0  0  0  0  0  0  0  0  0  0  0
  -30.6659  -25.1865   17.1360 C   0  0  0  0  0  0  0  0  0  0  0  0
  -28.5785  -24.5664   18.8658 C   0  0  0  0  0  0  0  0  0  0  0  0
  -24.6113  -23.2761   21.4736 C   0  0  0  0  0  0  0  0  0  0  0  0
  -28.0301  -18.3930   18.9396 C   0  0  0  0  0  0  0  0  0  0  0  0
  -28.9786  -18.0786   21.1392 C   0  0  0  0  0  0  0  0  0  0  0  0
  -24.6948  -22.5729   22.6746 C   0  0  0  0  0  0  0  0  0  0  0  0
  -28.3586  -21.3928   21.3892 C   0  0  0  0  0  0  0  0  0  0  0  0
  -28.3622  -22.2729   22.4713 C   0  0  0  0  0  0  0  0  0  0  0  0
  -24.2539  -24.6093   23.8904 C   0  0  0  0  0  0  0  0  0  0  0  0
  -24.1173  -18.0381   26.3084 C   0  0  0  0  0  0  0  0  0  0  0  0
  -30.7687  -22.1030   22.6013 C   0  0  0  0  0  0  0  0  0  0  0  0
  -26.3312  -18.4349   26.4132 C   0  0  0  0  0  0  0  0  0  0  0  0
  -27.4370  -16.4479   20.2441 C   0  0  0  0  0  0  0  0  0  0  0  0
  -27.1265  -13.9260   20.0185 C   0  0  0  0  0  0  0  0  0  0  0  0
  -29.9990  -26.2217   17.8118 C   0  0  0  0  0  0  0  0  0  0  0  0
  -24.3589  -24.6555   21.4724 C   0  0  0  0  0  0  0  0  0  0  0  0
  -28.9203  -25.9162   18.6665 C   0  0  0  0  0  0  0  0  0  0  0  0
  -24.1652  -25.3271   22.6879 C   0  0  0  0  0  0  0  0  0  0  0  0
  -25.1021  -19.0548   26.3677 C   0  0  0  0  0  0  0  0  0  0  0  0
  -28.8601  -18.8318   19.9711 C   0  0  0  0  0  0  0  0  0  0  0  0
  -24.5190  -23.2400   23.8833 C   0  0  0  0  0  0  0  0  0  0  0  0
  -29.5600  -20.8677   20.9131 C   0  0  0  0  0  0  0  0  0  0  0  0
  -29.5673  -22.6280   23.0774 C   0  0  0  0  0  0  0  0  0  0  0  0
  -30.7651  -21.2228   21.5192 C   0  0  0  0  0  0  0  0  0  0  0  0
  -26.7018  -15.2169   20.3859 C   0  0  0  0  0  0  0  0  0  0  0  0
  -24.7747  -16.8276   26.3198 C   0  0  0  0  0  0  0  0  0  0  0  0
  -26.0749  -13.1095   20.3561 C   0  0  0  0  0  0  0  0  0  0  0  0
  -28.3612  -13.5027   19.4251 C   0  0  0  0  0  0  0  0  0  0  0  0
  -25.9483  -27.2258   20.4871 C   0  0  0  0  0  0  0  0  0  0  0  0
  -23.1990  -28.7515   21.2848 C   0  0  0  0  0  0  0  0  0  0  0  0
  -20.3337  -28.7789   23.1385 C   0  0  0  0  0  0  0  0  0  0  0  0
  -21.7275  -13.4387   24.2998 C   0  0  0  0  0  0  0  0  0  0  0  0
  -30.4344  -27.6438   17.5603 C   0  0  0  0  0  0  0  0  0  0  0  0
  -24.2454  -25.3945   20.1673 C   0  0  0  0  0  0  0  0  0  0  0  0
  -23.8719  -26.8035   22.7402 C   0  0  0  0  0  0  0  0  0  0  0  0
  -29.9583  -28.6110   18.6392 C   0  0  0  0  0  0  0  0  0  0  0  0
  -23.4154  -13.4218   27.5958 C   0  0  0  0  0  0  0  0  0  0  0  0
  -21.3228  -13.1250   20.8697 C   0  0  0  0  0  0  0  0  0  0  0  0
  -28.4708  -28.4161   18.8921 C   0  0  0  0  0  0  0  0  0  0  0  0
  -23.9924  -14.8342   27.6795 C   0  0  0  0  0  0  0  0  0  0  0  0
  -22.6929  -13.4999   20.3053 C   0  0  0  0  0  0  0  0  0  0  0  0
  -22.1600  -13.3715   26.7300 C   0  0  0  0  0  0  0  0  0  0  0  0
  -20.9409  -14.0383   22.0291 C   0  0  0  0  0  0  0  0  0  0  0  0
  -22.9238  -15.3450   25.4493 C   0  0  0  0  0  0  0  0  0  0  0  0
  -23.3186  -14.4265   22.5888 C   0  0  0  0  0  0  0  0  0  0  0  0
  -28.1878  -27.0067   19.4272 C   0  0  1  0  0  0  0  0  0  0  0  0
  -24.2179  -15.4172   26.2737 C   0  0  1  0  0  0  0  0  0  0  0  0
  -24.4943  -26.8932   20.3057 C   0  0  1  0  0  0  0  0  0  0  0  0
  -23.7575  -13.5278   21.4158 C   0  0  2  0  0  0  0  0  0  0  0  0
  -18.3023  -30.1766   23.6045 C   0  0  0  0  0  0  0  0  0  0  0  0
  -28.3663  -16.5431   27.2521 C   0  0  0  0  0  0  0  0  0  0  0  0
  -27.5944  -15.6570   25.0104 C   0  0  0  0  0  0  0  0  0  0  0  0
  -24.8841  -30.6210   23.0098 C   0  0  0  0  0  0  0  0  0  0  0  0
  -22.7798  -31.3470   24.1557 C   0  0  0  0  0  0  0  0  0  0  0  0
  -23.0701  -31.7514   21.7114 C   0  0  0  0  0  0  0  0  0  0  0  0
  -18.5106  -26.6639   22.1577 C   0  0  0  0  0  0  0  0  0  0  0  0
  -24.8691  -21.1568   24.9758 C   0  0  0  0  0  0  0  0  0  1  0  0
  -24.8576  -20.5097   26.3782 C   0  0  2  0  0  0  0  0  0  0  0  0
  -22.6599  -29.3977   22.5381 C   0  0  1  0  0  0  0  0  0  0  0  0
  -18.8908  -29.0583   22.7585 C   0  0  2  0  0  0  0  0  0  0  0  0
  -27.1693  -16.0860   26.4160 C   0  0  0  0  0  0  0  0  0  0  0  0
  -23.3559  -30.7518   22.8532 C   0  0  0  0  0  0  0  0  0  0  0  0
  -25.4759  -15.2250   20.9162 N   0  0  0  0  0  0  0  0  0  0  0  0
  -26.1200  -17.0811   26.3840 N   0  0  0  0  0  0  0  0  0  0  0  0
  -25.1213  -13.9291   20.8844 N   0  0  0  0  0  0  0  0  0  0  0  0
  -23.7768  -27.4832   21.4377 N   0  0  0  0  0  0  0  0  0  0  0  0
  -22.3884  -13.9754   25.4170 N   0  0  0  0  0  0  0  0  0  0  0  0
  -21.9787  -14.0459   23.0601 N   0  0  0  0  0  0  0  0  0  0  0  0
  -25.8821  -11.7776   20.2497 N   0  0  0  0  0  0  0  0  0  0  0  0
  -29.3338  -14.4717   19.1434 N   0  0  0  0  0  0  0  0  0  0  0  0
  -26.7580  -26.7907   19.4553 N   0  0  0  0  0  0  0  0  0  0  0  0
  -21.2155  -29.4959   22.3578 N   0  0  0  0  0  0  0  0  0  0  0  0
  -25.8473  -21.2815   27.2217 N   0  3  0  0  0  0  0  0  0  0  0  0
  -18.0589  -27.8367   22.9498 N   0  3  0  0  0  0  0  0  0  0  0  0
  -28.5884  -12.3030   19.1377 O   0  0  0  0  0  0  0  0  0  0  0  0
  -26.3087  -27.8336   21.4883 O   0  0  0  0  0  0  0  0  0  0  0  0
  -23.1044  -29.3469   20.2087 O   0  0  0  0  0  0  0  0  0  0  0  0
  -20.6471  -28.0049   24.0404 O   0  0  0  0  0  0  0  0  0  0  0  0
  -20.9618  -12.4723   24.4046 O   0  0  0  0  0  0  0  0  0  0  0  0
  -29.5548  -19.9947   19.8382 O   0  0  0  0  0  0  0  0  0  0  0  0
  -24.6011  -22.5518   25.0648 O   0  0  0  0  0  0  0  0  0  1  0  0
  -29.5708  -23.4744   24.1155 F   0  0  0  0  0  0  0  0  0  0  0  0
  -31.9225  -20.7226   21.0656 F   0  0  0  0  0  0  0  0  0  0  0  0
  1  2  1  0  0  0  0
  1  5  2  0  0  0  0
  2  6  2  0  0  0  0
  3  8  2  0  0  0  0
  3 17  1  0  0  0  0
  4  9  1  0  0  0  0
  4 17  2  0  0  0  0
  5 19  1  0  0  0  0
  6 21  1  0  0  0  0
  7 10  2  0  0  0  0
  7 20  1  0  0  0  0
  8 24  1  0  0  0  0
  9 24  2  0  0  0  0
 10 25  1  0  0  0  0
 11 12  2  0  0  0  0
 11 26  1  0  0  0  0
 12 27  1  0  0  0  0
 13 22  1  0  0  0  0
 13 25  2  0  0  0  0
 14 23  1  0  0  0  0
 14 30  2  0  0  0  0
 15 27  2  0  0  0  0
 15 28  1  0  0  0  0
 16 23  2  0  0  0  0
 16 68  1  0  0  0  0
 17 29  1  0  0  0  0
 18 29  1  0  0  0  0
 18 31  2  0  0  0  0
 18 32  1  0  0  0  0
 19 21  2  0  0  0  0
 19 37  1  0  0  0  0
 20 22  2  0  0  0  0
 20 38  1  0  0  0  0
 21 50  1  0  0  0  0
 22 39  1  0  0  0  0
 23 62  1  0  0  0  0
 24 84  1  0  0  0  0
 25 85  1  0  0  0  0
 26 28  2  0  0  0  0
 26 84  1  0  0  0  0
 27 86  1  0  0  0  0
 28 87  1  0  0  0  0
 29 67  2  0  0  0  0
 30 51  1  0  0  0  0
 30 68  1  0  0  0  0
 31 69  1  0  0  0  0
 31 73  1  0  0  0  0
 32 74  1  0  0  0  0
 32 79  2  0  0  0  0
 33 52  1  0  0  0  0
 33 75  1  0  0  0  0
 33 80  2  0  0  0  0
 34 63  1  0  0  0  0
 34 70  1  0  0  0  0
 34 81  2  0  0  0  0
 35 64  1  0  0  0  0
 35 76  1  0  0  0  0
 35 82  2  0  0  0  0
 36 71  1  0  0  0  0
 36 72  1  0  0  0  0
 36 83  2  0  0  0  0
 37 40  1  0  0  0  0
 38 52  1  0  0  0  0
 39 70  1  0  0  0  0
 40 43  1  0  0  0  0
 41 44  1  0  0  0  0
 41 46  1  0  0  0  0
 42 45  1  0  0  0  0
 42 47  1  0  0  0  0
 43 50  1  0  0  0  0
 44 51  1  0  0  0  0
 45 53  1  0  0  0  0
 46 71  1  0  0  0  0
 47 72  1  0  0  0  0
 48 51  1  0  0  0  0
 48 71  1  0  0  0  0
 49 53  1  0  0  0  0
 49 72  1  0  0  0  0
 50 75  1  0  0  0  0
 52 70  1  0  0  0  0
 53 69  1  0  0  0  0
 54 64  1  0  0  0  0
 55 65  1  0  0  0  0
 56 65  1  0  0  0  0
 57 66  1  0  0  0  0
 58 66  1  0  0  0  0
 59 66  1  0  0  0  0
 60 78  1  0  0  0  0
 61 62  1  0  0  0  0
 61 85  1  0  0  0  0
 62 77  1  0  0  0  0
 63 66  1  0  0  0  0
 63 76  1  0  0  0  0
 64 78  1  0  0  0  0
 65 68  1  0  0  0  0
 67 69  1  0  0  0  0
M  CHG  2  77   1  78   1
M  ISO  4  36 100  61 101  71 100  85 101
M  END
> <Batch ID>
0121

> <Smiles>
CNC(C)C(=O)NC(C(=O)N1Cc2cc([101O:1][101CH2:1]C(N)c3cc(C4CCC[100N:0]([100C:0](=O)N5CCCC(n6nc(-c7ccc(Oc8ccc(F)cc8F)cc7)c(C(N)=O)c6N)C5)C4)n(C(C)C)c3)ccc2CC1C(=O)NC1CCCc2ccccc21)C(C)(C)C

> <Shape>
0.247

> <Color>
0.064

> <Negative vol penalty>
0.000

$$$$

  -OEChem-04052320253D

 90 99  0     1  0  0  0  0  0999 V2000
  -18.1977  -16.0501   33.1074 C   0  0  0  0  0  0  0  0  0  0  0  0
  -19.0302  -16.6232   32.1514 C   0  0  0  0  0  0  0  0  0  0  0  0
  -23.0740   -9.8693   19.9427 C   0  0  0  0  0  0  0  0  0  0  0  0
  -23.8385   -9.8758   22.2345 C   0  0  0  0  0  0  0  0  0  0  0  0
  -17.4196  -16.8635   33.9301 C   0  0  0  0  0  0  0  0  0  0  0  0
  -19.0842  -18.0101   32.0168 C   0  0  0  0  0  0  0  0  0  0  0  0
  -26.4201  -18.5669   24.2886 C   0  0  0  0  0  0  0  0  0  0  0  0
  -23.8246  -19.7363   31.5775 C   0  0  0  0  0  0  0  0  0  0  0  0
  -25.8283  -18.5067   25.5502 C   0  0  0  0  0  0  0  0  0  0  0  0
  -22.3310   -8.7159   20.1937 C   0  0  0  0  0  0  0  0  0  0  0  0
  -23.0955   -8.7223   22.4856 C   0  0  0  0  0  0  0  0  0  0  0  0
  -24.4396  -19.5989   30.3338 C   0  0  0  0  0  0  0  0  0  0  0  0
  -19.8688   -7.9234   23.0944 C   0  0  0  0  0  0  0  0  0  0  0  0
  -19.1142   -7.8828   24.2668 C   0  0  0  0  0  0  0  0  0  0  0  0
  -23.9465  -21.9084   29.8416 C   0  0  0  0  0  0  0  0  0  0  0  0
  -27.3266  -20.2318   26.3353 C   0  0  0  0  0  0  0  0  0  0  0  0
  -20.3576   -5.9455   25.0001 C   0  0  0  0  0  0  0  0  0  0  0  0
  -23.8278  -10.4492   20.9630 C   0  0  0  0  0  0  0  0  0  0  0  0
  -24.1687  -12.9745   20.8432 C   0  0  0  0  0  0  0  0  0  0  0  0
  -17.4712  -18.2613   33.8120 C   0  0  0  0  0  0  0  0  0  0  0  0
  -23.2554  -20.9599   31.9588 C   0  0  0  0  0  0  0  0  0  0  0  0
  -18.3049  -18.8428   32.8378 C   0  0  0  0  0  0  0  0  0  0  0  0
  -27.4653  -19.4594   24.0504 C   0  0  0  0  0  0  0  0  0  0  0  0
  -23.3272  -22.0595   31.0917 C   0  0  0  0  0  0  0  0  0  0  0  0
  -26.2815  -19.3392   26.5736 C   0  0  0  0  0  0  0  0  0  0  0  0
  -27.9184  -20.2919   25.0737 C   0  0  0  0  0  0  0  0  0  0  0  0
  -22.3417   -8.1424   21.4652 C   0  0  0  0  0  0  0  0  0  0  0  0
  -24.4981  -20.6842   29.4645 C   0  0  0  0  0  0  0  0  0  0  0  0
  -20.8677   -6.9749   22.8748 C   0  0  0  0  0  0  0  0  0  0  0  0
  -19.3586   -6.8939   25.2197 C   0  0  0  0  0  0  0  0  0  0  0  0
  -21.1122   -5.9860   23.8276 C   0  0  0  0  0  0  0  0  0  0  0  0
  -24.5961  -11.6404   20.7041 C   0  0  0  0  0  0  0  0  0  0  0  0
  -25.2599  -13.7244   20.4779 C   0  0  0  0  0  0  0  0  0  0  0  0
  -22.8989  -13.4898   21.2648 C   0  0  0  0  0  0  0  0  0  0  0  0
  -20.3220  -21.9355   32.6986 C   0  0  0  0  0  0  0  0  0  0  0  0
  -21.8468  -24.7054   33.4232 C   0  0  0  0  0  0  0  0  0  0  0  0
  -24.5536  -26.7306   32.9556 C   0  0  0  0  0  0  0  0  0  0  0  0
  -30.7437  -14.7450   20.6555 C   0  0  0  0  0  0  0  0  0  0  0  0
  -16.5762  -19.0977   34.6917 C   0  0  0  0  0  0  0  0  0  0  0  0
  -22.6192  -21.0992   33.3146 C   0  0  0  0  0  0  0  0  0  0  0  0
  -22.7492  -23.4002   31.4617 C   0  0  0  0  0  0  0  0  0  0  0  0
  -16.9725  -20.5712   34.7383 C   0  0  0  0  0  0  0  0  0  0  0  0
  -29.6020  -12.3610   18.2702 C   0  0  0  0  0  0  0  0  0  0  0  0
  -17.2438  -21.0957   33.3319 C   0  0  0  0  0  0  0  0  0  0  0  0
  -28.1655  -12.0667   18.7060 C   0  0  0  0  0  0  0  0  0  0  0  0
  -28.7849  -18.4122   20.6849 C   0  0  0  0  0  0  0  0  0  0  0  0
  -30.5215  -12.5816   19.4693 C   0  0  0  0  0  0  0  0  0  0  0  0
  -28.6223  -13.3117   20.8600 C   0  0  0  0  0  0  0  0  0  0  0  0
  -27.4992  -19.1271   20.3178 C   0  0  0  0  0  0  0  0  0  0  0  0
  -18.4096  -20.3441   32.6781 C   0  0  1  0  0  0  0  0  0  0  0  0
  -28.0871  -19.5066   22.6832 C   0  0  1  0  0  0  0  0  0  0  0  0
  -21.6188  -22.2485   33.3900 C   0  0  1  0  0  0  0  0  0  0  0  0
  -28.6445  -18.1653   22.1813 C   0  0  2  0  0  0  0  0  0  0  0  0
  -27.6458  -13.1372   19.6843 C   0  0  2  0  0  0  0  0  0  0  0  0
  -29.0362  -21.2552   24.8422 C   0  0  0  0  0  0  0  0  0  0  0  0
  -26.0807  -21.7008   20.2269 C   0  0  0  0  0  0  0  0  0  0  0  0
  -25.4997  -28.9472   33.6551 C   0  0  0  0  0  0  0  0  0  0  0  0
  -19.8807  -26.1260   31.5721 C   0  0  0  0  0  0  0  0  0  0  0  0
  -21.4230  -28.0982   31.5619 C   0  0  0  0  0  0  0  0  0  0  0  0
  -20.3785  -27.3449   33.6983 C   0  0  0  0  0  0  0  0  0  0  0  0
  -26.9454  -25.4631   34.1521 C   0  0  0  0  0  0  0  0  0  0  0  0
  -25.6450  -19.2742   27.9308 C   0  0  0  0  0  0  0  0  0  1  0  0
  -30.8115  -16.8952   21.8930 C   0  0  0  0  0  0  0  0  0  0  0  0
  -27.0703  -21.4017   21.3317 C   0  0  0  0  0  0  0  0  0  0  0  0
  -29.7023  -17.1412   24.2063 C   0  0  0  0  0  0  0  0  0  0  0  0
  -22.2163  -25.9539   32.6591 C   0  0  1  0  0  0  0  0  0  0  0  0
  -25.4524  -27.4544   33.9419 C   0  0  2  0  0  0  0  0  0  0  0  0
  -29.9652  -17.7770   22.8317 C   0  0  2  0  0  0  0  0  0  0  0  0
  -20.9839  -26.8551   32.3648 C   0  0  0  0  0  0  0  0  0  0  0  0
  -25.8601  -11.5451   20.2832 N   0  0  0  0  0  0  0  0  0  0  0  0
  -26.2364  -12.8288   20.1546 N   0  0  0  0  0  0  0  0  0  0  0  0
  -22.1321  -23.4845   32.7957 N   0  0  0  0  0  0  0  0  0  0  0  0
  -29.9724  -13.6097   20.3568 N   0  0  0  0  0  0  0  0  0  0  0  0
  -25.4698  -15.0560   20.4049 N   0  0  0  0  0  0  0  0  0  0  0  0
  -21.8880  -12.5803   21.6038 N   0  0  0  0  0  0  0  0  0  0  0  0
  -19.6733  -20.8218   33.1968 N   0  0  0  0  0  0  0  0  0  0  0  0
  -23.2653  -26.6101   33.4320 N   0  0  0  0  0  0  0  0  0  0  0  0
  -30.1460  -15.6734   21.4991 N   0  0  0  0  0  0  0  0  0  0  0  0
  -27.1258  -19.9210   21.5569 N   0  3  1  0  0  0  0  0  0  0  0  0
  -30.9712  -16.7487   24.8650 N   0  3  0  0  0  0  0  0  0  0  0  0
  -26.8407  -26.9175   33.8681 N   0  3  0  0  0  0  0  0  0  0  0  0
  -22.6624  -14.7204   21.3230 O   0  0  0  0  0  0  0  0  0  0  0  0
  -19.9377  -22.6523   31.7819 O   0  0  0  0  0  0  0  0  0  0  0  0
  -21.3308  -24.8096   34.5388 O   0  0  0  0  0  0  0  0  0  0  0  0
  -24.9534  -26.3171   31.8695 O   0  0  0  0  0  0  0  0  0  0  0  0
  -31.8787  -14.9209   20.1996 O   0  0  0  0  0  0  0  0  0  0  0  0
  -21.6165   -7.0170   21.7106 O   0  0  0  0  0  0  0  0  0  0  0  0
  -25.0972  -20.5527   28.2497 O   0  0  0  0  0  0  0  0  0  1  0  0
  -18.6350   -6.8561   26.3462 F   0  0  0  0  0  0  0  0  0  0  0  0
  -22.0713   -5.0729   23.6227 F   0  0  0  0  0  0  0  0  0  0  0  0
  1  2  1  0  0  0  0
  1  5  2  0  0  0  0
  2  6  2  0  0  0  0
  3 10  2  0  0  0  0
  3 18  1  0  0  0  0
  4 11  1  0  0  0  0
  4 18  2  0  0  0  0
  5 20  1  0  0  0  0
  6 22  1  0  0  0  0
  7  9  2  0  0  0  0
  7 23  1  0  0  0  0
  8 12  2  0  0  0  0
  8 21  1  0  0  0  0
  9 25  1  0  0  0  0
 10 27  1  0  0  0  0
 11 27  2  0  0  0  0
 12 28  1  0  0  0  0
 13 14  2  0  0  0  0
 13 29  1  0  0  0  0
 14 30  1  0  0  0  0
 15 24  1  0  0  0  0
 15 28  2  0  0  0  0
 16 25  2  0  0  0  0
 16 26  1  0  0  0  0
 17 30  2  0  0  0  0
 17 31  1  0  0  0  0
 18 32  1  0  0  0  0
 19 32  1  0  0  0  0
 19 33  2  0  0  0  0
 19 34  1  0  0  0  0
 20 22  2  0  0  0  0
 20 39  1  0  0  0  0
 21 24  2  0  0  0  0
 21 40  1  0  0  0  0
 22 50  1  0  0  0  0
 23 26  2  0  0  0  0
 23 51  1  0  0  0  0
 24 41  1  0  0  0  0
 25 62  1  0  0  0  0
 26 55  1  0  0  0  0
 27 87  1  0  0  0  0
 28 88  1  0  0  0  0
 29 31  2  0  0  0  0
 29 87  1  0  0  0  0
 30 89  1  0  0  0  0
 31 90  1  0  0  0  0
 32 70  2  0  0  0  0
 33 71  1  0  0  0  0
 33 74  1  0  0  0  0
 34 75  1  0  0  0  0
 34 82  2  0  0  0  0
 35 52  1  0  0  0  0
 35 76  1  0  0  0  0
 35 83  2  0  0  0  0
 36 66  1  0  0  0  0
 36 72  1  0  0  0  0
 36 84  2  0  0  0  0
 37 67  1  0  0  0  0
 37 77  1  0  0  0  0
 37 85  2  0  0  0  0
 38 73  1  0  0  0  0
 38 78  1  0  0  0  0
 38 86  2  0  0  0  0
 39 42  1  0  0  0  0
 40 52  1  0  0  0  0
 41 72  1  0  0  0  0
 42 44  1  0  0  0  0
 43 45  1  0  0  0  0
 43 47  1  0  0  0  0
 44 50  1  0  0  0  0
 45 54  1  0  0  0  0
 46 49  1  0  0  0  0
 46 53  1  0  0  0  0
 47 73  1  0  0  0  0
 48 54  1  0  0  0  0
 48 73  1  0  0  0  0
 49 79  1  0  0  0  0
 50 76  1  0  0  0  0
 51 53  1  0  0  0  0
 51 79  1  0  0  0  0
 52 72  1  0  0  0  0
 53 68  1  0  0  0  0
 54 71  1  0  0  0  0
 56 64  1  0  0  0  0
 57 67  1  0  0  0  0
 58 69  1  0  0  0  0
 59 69  1  0  0  0  0
 60 69  1  0  0  0  0
 61 81  1  0  0  0  0
 62 88  1  0  0  0  0
 63 68  1  0  0  0  0
 63 78  1  0  0  0  0
 64 79  1  0  0  0  0
 65 68  1  0  0  0  0
 65 80  1  0  0  0  0
 66 69  1  0  0  0  0
 66 77  1  0  0  0  0
 67 81  1  0  0  0  0
 70 71  1  0  0  0  0
M  CHG  3  79   1  80   1  81   1
M  ISO  4  38 100  62 101  78 100  88 101
M  END
> <Batch ID>
0121

> <Smiles>
CCN1CCC(C(CN)C[100NH:0][100C:0](=O)N2CCCC(n3nc(-c4ccc(Oc5ccc(F)cc5F)cc4)c(C(N)=O)c3N)C2)C1c1ccc([101CH2:1][101O:1]c2ccc3c(c2)CN(C(=O)C(NC(=O)C(C)NC)C(C)(C)C)C(C(=O)NC2CCCc4ccccc42)C3)cc1C

> <Shape>
0.181

> <Color>
0.180

> <Negative vol penalty>
0.000

$$$$

  -OEChem-04052320253D

 83 91  0     1  0  0  0  0  0999 V2000
  -16.9330  -31.7386   20.9716 C   0  0  0  0  0  0  0  0  0  0  0  0
  -17.5073  -30.6645   20.2994 C   0  0  0  0  0  0  0  0  0  0  0  0
  -23.0015   -9.9687   19.9086 C   0  0  0  0  0  0  0  0  0  0  0  0
  -23.9048   -9.7439   22.1381 C   0  0  0  0  0  0  0  0  0  0  0  0
  -17.7161  -32.5387   21.8026 C   0  0  0  0  0  0  0  0  0  0  0  0
  -18.8655  -30.3905   20.4570 C   0  0  0  0  0  0  0  0  0  0  0  0
  -21.5267  -24.8750   20.5077 C   0  0  0  0  0  0  0  0  0  0  0  0
  -22.2471   -8.8108   20.0975 C   0  0  0  0  0  0  0  0  0  0  0  0
  -23.1504   -8.5860   22.3271 C   0  0  0  0  0  0  0  0  0  0  0  0
  -22.1995  -24.1491   19.5257 C   0  0  0  0  0  0  0  0  0  0  0  0
  -19.9483   -7.7938   23.0616 C   0  0  0  0  0  0  0  0  0  0  0  0
  -19.2661   -7.6566   24.2705 C   0  0  0  0  0  0  0  0  0  0  0  0
  -24.3047  -24.9715   20.3689 C   0  0  0  0  0  0  0  0  0  0  0  0
  -20.5041   -5.6356   24.7398 C   0  0  0  0  0  0  0  0  0  0  0  0
  -23.8305  -10.4352   20.9289 C   0  0  0  0  0  0  0  0  0  0  0  0
  -24.2254  -12.9537   21.0237 C   0  0  0  0  0  0  0  0  0  0  0  0
  -19.0824  -32.2686   21.9780 C   0  0  0  0  0  0  0  0  0  0  0  0
  -22.2384  -25.6646   21.4223 C   0  0  0  0  0  0  0  0  0  0  0  0
  -19.6679  -31.1886   21.2900 C   0  0  0  0  0  0  0  0  0  0  0  0
  -23.6388  -25.7045   21.3630 C   0  0  0  0  0  0  0  0  0  0  0  0
  -22.3214   -8.1195   21.3067 C   0  0  0  0  0  0  0  0  0  0  0  0
  -23.5886  -24.1996   19.4544 C   0  0  0  0  0  0  0  0  0  0  0  0
  -20.9083   -6.8518   22.6917 C   0  0  0  0  0  0  0  0  0  0  0  0
  -19.5440   -6.5776   25.1096 C   0  0  0  0  0  0  0  0  0  0  0  0
  -21.1862   -5.7727   23.5308 C   0  0  0  0  0  0  0  0  0  0  0  0
  -24.6105  -11.6310   20.7341 C   0  0  0  0  0  0  0  0  0  0  0  0
  -25.3104  -13.7142   20.6617 C   0  0  0  0  0  0  0  0  0  0  0  0
  -22.9969  -13.4505   21.5711 C   0  0  0  0  0  0  0  0  0  0  0  0
  -22.3366  -28.7671   22.1067 C   0  0  0  0  0  0  0  0  0  0  0  0
  -24.2712  -27.7768   24.5149 C   0  0  0  0  0  0  0  0  0  0  0  0
  -26.4084  -25.4079   25.7264 C   0  0  0  0  0  0  0  0  0  0  0  0
  -30.8183  -14.6103   20.5864 C   0  0  0  0  0  0  0  0  0  0  0  0
  -19.8986  -33.1899   22.8496 C   0  0  0  0  0  0  0  0  0  0  0  0
  -21.4994  -26.4205   22.4923 C   0  0  0  0  0  0  0  0  0  0  0  0
  -24.4506  -26.5208   22.3341 C   0  0  0  0  0  0  0  0  0  0  0  0
  -21.2495  -32.6064   23.2555 C   0  0  0  0  0  0  0  0  0  0  0  0
  -29.4743  -12.4845   18.0663 C   0  0  0  0  0  0  0  0  0  0  0  0
  -21.9526  -31.9968   22.0468 C   0  0  0  0  0  0  0  0  0  0  0  0
  -28.0603  -12.1773   18.5627 C   0  0  0  0  0  0  0  0  0  0  0  0
  -28.9850  -19.2778   19.1127 C   0  0  0  0  0  0  0  0  0  0  0  0
  -26.9690  -18.9825   20.5938 C   0  0  0  0  0  0  0  0  0  0  0  0
  -30.4706  -12.5734   19.2201 C   0  0  0  0  0  0  0  0  0  0  0  0
  -28.6787  -13.2042   20.7902 C   0  0  0  0  0  0  0  0  0  0  0  0
  -29.8927  -19.0248   20.3086 C   0  0  0  0  0  0  0  0  0  0  0  0
  -27.8871  -18.7312   21.7822 C   0  0  0  0  0  0  0  0  0  0  0  0
  -21.1323  -30.8444   21.4547 C   0  0  1  0  0  0  0  0  0  0  0  0
  -22.2940  -27.5977   23.0493 C   0  0  1  0  0  0  0  0  0  0  0  0
  -27.6368  -19.8711   19.5379 C   0  0  0  0  0  0  0  0  0  0  0  0
  -27.6281  -13.1601   19.6675 C   0  0  2  0  0  0  0  0  0  0  0  0
  -27.8627  -24.8945   27.7060 C   0  0  0  0  0  0  0  0  0  0  0  0
  -26.3325  -29.7950   23.5210 C   0  0  0  0  0  0  0  0  0  0  0  0
  -28.0582  -28.5991   24.8848 C   0  0  0  0  0  0  0  0  0  0  0  0
  -26.1073  -29.6730   26.0087 C   0  0  0  0  0  0  0  0  0  0  0  0
  -24.8913  -22.9441   26.3484 C   0  0  0  0  0  0  0  0  0  0  0  0
  -26.7218  -20.0582   18.3296 C   0  0  0  0  0  0  0  0  0  0  0  0
  -31.0146  -16.6321   22.0123 C   0  0  0  0  0  0  0  0  0  0  0  0
  -30.0813  -17.7487   22.4418 C   0  0  0  0  0  0  0  0  0  0  0  0
  -24.7116  -21.3262   17.5616 C   0  0  0  0  0  0  0  0  0  0  0  0
  -23.6402  -22.2810   18.0500 C   0  0  0  0  0  0  0  0  0  1  0  0
  -25.7565  -27.5564   24.6711 C   0  0  1  0  0  0  0  0  0  0  0  0
  -26.4889  -24.7203   27.0774 C   0  0  2  0  0  0  0  0  0  0  0  0
  -26.5485  -28.8919   24.7517 C   0  0  0  0  0  0  0  0  0  0  0  0
  -25.8437  -11.5522   20.2271 N   0  0  0  0  0  0  0  0  0  0  0  0
  -26.2429  -12.8350   20.1952 N   0  0  0  0  0  0  0  0  0  0  0  0
  -23.6818  -27.2473   23.3581 N   0  0  0  0  0  0  0  0  0  0  0  0
  -30.0024  -13.5231   20.2325 N   0  0  0  0  0  0  0  0  0  0  0  0
  -25.5481  -15.0425   20.7001 N   0  0  0  0  0  0  0  0  0  0  0  0
  -21.9865  -12.5321   21.8871 N   0  0  0  0  0  0  0  0  0  0  0  0
  -21.2848  -29.6504   22.2581 N   0  0  0  0  0  0  0  0  0  0  0  0
  -25.9207  -26.6930   25.8356 N   0  0  0  0  0  0  0  0  0  0  0  0
  -30.2963  -15.4657   21.5490 N   0  0  0  0  0  0  0  0  0  0  0  0
  -29.1841  -18.1306   21.2969 N   0  3  0  0  0  0  0  0  0  0  0  0
  -26.2196  -23.2617   26.9331 N   0  3  0  0  0  0  0  0  0  0  0  0
  -25.6372  -21.0147   18.6798 N   0  3  0  0  0  0  0  0  0  0  0  0
  -22.7948  -14.6743   21.7587 O   0  0  0  0  0  0  0  0  0  0  0  0
  -23.2565  -28.8617   21.3027 O   0  0  0  0  0  0  0  0  0  0  0  0
  -23.6554  -28.3897   25.3905 O   0  0  0  0  0  0  0  0  0  0  0  0
  -26.7480  -24.8611   24.6794 O   0  0  0  0  0  0  0  0  0  0  0  0
  -31.9272  -14.8073   20.0781 O   0  0  0  0  0  0  0  0  0  0  0  0
  -21.5852   -6.9897   21.4915 O   0  0  0  0  0  0  0  0  0  0  0  0
  -24.2477  -23.4926   18.4966 O   0  0  0  0  0  0  0  0  0  1  0  0
  -18.8900   -6.4469   26.2712 F   0  0  0  0  0  0  0  0  0  0  0  0
  -22.1082   -4.8652   23.1814 F   0  0  0  0  0  0  0  0  0  0  0  0
  1  2  1  0  0  0  0
  1  5  2  0  0  0  0
  2  6  2  0  0  0  0
  3  8  2  0  0  0  0
  3 15  1  0  0  0  0
  4  9  1  0  0  0  0
  4 15  2  0  0  0  0
  5 17  1  0  0  0  0
  6 19  1  0  0  0  0
  7 10  2  0  0  0  0
  7 18  1  0  0  0  0
  8 21  1  0  0  0  0
  9 21  2  0  0  0  0
 10 22  1  0  0  0  0
 11 12  2  0  0  0  0
 11 23  1  0  0  0  0
 12 24  1  0  0  0  0
 13 20  1  0  0  0  0
 13 22  2  0  0  0  0
 14 24  2  0  0  0  0
 14 25  1  0  0  0  0
 15 26  1  0  0  0  0
 16 26  1  0  0  0  0
 16 27  2  0  0  0  0
 16 28  1  0  0  0  0
 17 19  2  0  0  0  0
 17 33  1  0  0  0  0
 18 20  2  0  0  0  0
 18 34  1  0  0  0  0
 19 46  1  0  0  0  0
 20 35  1  0  0  0  0
 21 80  1  0  0  0  0
 22 81  1  0  0  0  0
 23 25  2  0  0  0  0
 23 80  1  0  0  0  0
 24 82  1  0  0  0  0
 25 83  1  0  0  0  0
 26 63  2  0  0  0  0
 27 64  1  0  0  0  0
 27 67  1  0  0  0  0
 28 68  1  0  0  0  0
 28 75  2  0  0  0  0
 29 47  1  0  0  0  0
 29 69  1  0  0  0  0
 29 76  2  0  0  0  0
 30 60  1  0  0  0  0
 30 65  1  0  0  0  0
 30 77  2  0  0  0  0
 31 61  1  0  0  0  0
 31 70  1  0  0  0  0
 31 78  2  0  0  0  0
 32 66  1  0  0  0  0
 32 71  1  0  0  0  0
 32 79  2  0  0  0  0
 33 36  1  0  0  0  0
 34 47  1  0  0  0  0
 35 65  1  0  0  0  0
 36 38  1  0  0  0  0
 37 39  1  0  0  0  0
 37 42  1  0  0  0  0
 38 46  1  0  0  0  0
 39 49  1  0  0  0  0
 40 44  1  0  0  0  0
 40 48  1  0  0  0  0
 41 45  1  0  0  0  0
 41 48  1  0  0  0  0
 42 66  1  0  0  0  0
 43 49  1  0  0  0  0
 43 66  1  0  0  0  0
 44 72  1  0  0  0  0
 45 72  1  0  0  0  0
 46 69  1  0  0  0  0
 47 65  1  0  0  0  0
 48 55  1  0  0  0  0
 49 64  1  0  0  0  0
 50 61  1  0  0  0  0
 51 62  1  0  0  0  0
 52 62  1  0  0  0  0
 53 62  1  0  0  0  0
 54 73  1  0  0  0  0
 55 74  1  0  0  0  0
 56 57  1  0  0  0  0
 56 71  1  0  0  0  0
 57 72  1  0  0  0  0
 58 59  1  0  0  0  0
 58 74  1  0  0  0  0
 59 81  1  0  0  0  0
 60 62  1  0  0  0  0
 60 70  1  0  0  0  0
 61 73  1  0  0  0  0
 63 64  1  0  0  0  0
M  CHG  3  72   1  73   1  74   1
M  ISO  4  32 100  59 101  71 100  81 101
M  END
> <Batch ID>
0121

> <Smiles>
CNC(C)C(=O)NC(C(=O)N1Cc2cc([101O:1][101CH2:1]CNCC3CCN(CC[100NH:0][100C:0](=O)N4CCCC(n5nc(-c6ccc(Oc7ccc(F)cc7F)cc6)c(C(N)=O)c5N)C4)CC3)ccc2CC1C(=O)NC1CCCc2ccccc21)C(C)(C)C

> <Shape>
0.263

> <Color>
0.198

> <Negative vol penalty>
0.000

$$$$

  -OEChem-04052320253D

 84 92  0     1  0  0  0  0  0999 V2000
  -16.3795  -29.1368   23.6822 C   0  0  0  0  0  0  0  0  0  0  0  0
  -16.9787  -29.0448   22.4300 C   0  0  0  0  0  0  0  0  0  0  0  0
  -27.2022  -12.7830   22.9049 C   0  0  0  0  0  0  0  0  0  0  0  0
  -27.8115  -12.3705   20.6037 C   0  0  0  0  0  0  0  0  0  0  0  0
  -16.9463  -29.9443   24.6673 C   0  0  0  0  0  0  0  0  0  0  0  0
  -18.1446  -29.7612   22.1619 C   0  0  0  0  0  0  0  0  0  0  0  0
  -25.1067  -27.2359   19.6763 C   0  0  0  0  0  0  0  0  0  0  0  0
  -28.3653  -12.1397   23.3282 C   0  0  0  0  0  0  0  0  0  0  0  0
  -28.9746  -11.7273   21.0269 C   0  0  0  0  0  0  0  0  0  0  0  0
  -26.4277  -26.8907   19.3902 C   0  0  0  0  0  0  0  0  0  0  0  0
  -29.4538   -8.9634   23.7167 C   0  0  0  0  0  0  0  0  0  0  0  0
  -29.3441   -8.0526   24.7673 C   0  0  0  0  0  0  0  0  0  0  0  0
  -27.2053  -28.8732   20.5361 C   0  0  0  0  0  0  0  0  0  0  0  0
  -30.8851   -9.3759   26.0755 C   0  0  0  0  0  0  0  0  0  0  0  0
  -26.9253  -12.8983   21.5427 C   0  0  0  0  0  0  0  0  0  0  0  0
  -24.3963  -13.2033   21.4062 C   0  0  0  0  0  0  0  0  0  0  0  0
  -18.1251  -30.6635   24.4143 C   0  0  0  0  0  0  0  0  0  0  0  0
  -24.8305  -28.3945   20.4075 C   0  0  0  0  0  0  0  0  0  0  0  0
  -18.7270  -30.5802   23.1442 C   0  0  0  0  0  0  0  0  0  0  0  0
  -25.8847  -29.2176   20.8364 C   0  0  0  0  0  0  0  0  0  0  0  0
  -29.2515  -11.6119   22.3891 C   0  0  0  0  0  0  0  0  0  0  0  0
  -27.4744  -27.7074   19.8188 C   0  0  0  0  0  0  0  0  0  0  0  0
  -30.2793  -10.0805   23.8454 C   0  0  0  0  0  0  0  0  0  0  0  0
  -30.0597   -8.2588   25.9468 C   0  0  0  0  0  0  0  0  0  0  0  0
  -30.9949  -10.2867   25.0249 C   0  0  0  0  0  0  0  0  0  0  0  0
  -25.7237  -13.5622   21.1049 C   0  0  0  0  0  0  0  0  0  0  0  0
  -23.6312  -14.1415   20.7573 C   0  0  0  0  0  0  0  0  0  0  0  0
  -28.2291  -23.0275   16.9783 C   0  0  0  0  0  0  0  0  0  0  0  0
  -23.8991  -12.1190   22.2016 C   0  0  0  0  0  0  0  0  0  0  0  0
  -22.2247  -30.6074   21.9532 C   0  0  0  0  0  0  0  0  0  0  0  0
  -24.5605  -30.4621   23.9364 C   0  0  0  0  0  0  0  0  0  0  0  0
  -27.1531  -29.7039   26.0198 C   0  0  0  0  0  0  0  0  0  0  0  0
  -25.0738  -19.7048   18.9622 C   0  0  0  0  0  0  0  0  0  0  0  0
  -18.6746  -31.5602   25.4953 C   0  0  0  0  0  0  0  0  0  0  0  0
  -23.4198  -28.8377   20.6857 C   0  0  0  0  0  0  0  0  0  0  0  0
  -25.5384  -30.4724   21.5903 C   0  0  0  0  0  0  0  0  0  0  0  0
  -29.0157  -23.0047   15.6956 C   0  0  0  0  0  0  0  0  0  0  0  0
  -28.9126  -23.5770   18.1994 C   0  0  0  0  0  0  0  0  0  0  0  0
  -20.1178  -31.9938   25.2518 C   0  0  0  0  0  0  0  0  0  0  0  0
  -29.6197  -24.3824   15.4563 C   0  0  0  0  0  0  0  0  0  0  0  0
  -24.9322  -16.4957   16.8501 C   0  0  0  0  0  0  0  0  0  0  0  0
  -20.2997  -32.4587   23.8104 C   0  0  0  0  0  0  0  0  0  0  0  0
  -23.9505  -15.8062   17.7928 C   0  0  0  0  0  0  0  0  0  0  0  0
  -24.9462  -18.0033   17.0837 C   0  0  0  0  0  0  0  0  0  0  0  0
  -25.2503  -17.2775   19.4508 C   0  0  0  0  0  0  0  0  0  0  0  0
  -30.4183  -24.8740   16.6597 C   0  0  0  0  0  0  0  0  0  0  0  0
  -20.0060  -31.3226   22.8231 C   0  0  1  0  0  0  0  0  0  0  0  0
  -23.2625  -29.5283   22.0523 C   0  0  1  0  0  0  0  0  0  0  0  0
  -24.1840  -16.1823   19.2723 C   0  0  2  0  0  0  0  0  0  0  0  0
  -28.0470  -30.1972   28.3122 C   0  0  0  0  0  0  0  0  0  0  0  0
  -24.0827  -22.8370   17.2703 C   0  0  0  0  0  0  0  0  0  0  0  0
  -29.7771  -26.3095   21.4565 C   0  0  0  0  0  0  0  0  0  0  0  0
  -25.5228  -33.1904   22.9699 C   0  0  0  0  0  0  0  0  0  0  0  0
  -27.1521  -33.2101   24.8707 C   0  0  0  0  0  0  0  0  0  0  0  0
  -24.7013  -33.1500   25.3317 C   0  0  0  0  0  0  0  0  0  0  0  0
  -26.9621  -26.8644   26.8320 C   0  0  0  0  0  0  0  0  0  0  0  0
  -26.3884  -22.6413   18.3211 C   0  0  0  0  0  0  0  0  0  0  0  0
  -30.2224  -25.5137   19.0664 C   0  0  0  0  0  0  0  0  0  0  0  0
  -25.8434  -31.0836   24.4275 C   0  0  1  0  0  0  0  0  0  0  0  0
  -27.1831  -29.2682   27.4737 C   0  0  2  0  0  0  0  0  0  0  0  0
  -24.9649  -22.0858   18.2621 C   0  0  2  0  0  0  0  0  0  0  0  0
  -29.2234  -26.1123   20.0514 C   0  0  2  0  0  0  0  0  0  1  0  0
  -25.8050  -32.6373   24.3811 C   0  0  0  0  0  0  0  0  0  0  0  0
  -25.8012  -14.6438   20.3251 N   0  0  0  0  0  0  0  0  0  0  0  0
  -27.0277  -22.5533   17.0167 N   0  0  0  0  0  0  0  0  0  0  0  0
  -24.5127  -14.9726   20.1308 N   0  0  0  0  0  0  0  0  0  0  0  0
  -24.4717  -30.1948   22.5648 N   0  0  0  0  0  0  0  0  0  0  0  0
  -25.0629  -18.3745   18.4996 N   0  0  0  0  0  0  0  0  0  0  0  0
  -22.2973  -14.3282   20.6670 N   0  0  0  0  0  0  0  0  0  0  0  0
  -23.6348  -10.8950   21.5721 N   0  0  0  0  0  0  0  0  0  0  0  0
  -21.1231  -30.4045   22.7623 N   0  0  0  0  0  0  0  0  0  0  0  0
  -26.0819  -30.5313   25.7566 N   0  0  0  0  0  0  0  0  0  0  0  0
  -24.9671  -20.6714   17.9654 N   0  0  0  0  0  0  0  0  0  0  0  0
  -29.5195  -24.9221   17.8766 N   0  3  2  0  0  0  0  0  0  0  0  0
  -27.7295  -27.8865   27.5892 N   0  3  0  0  0  0  0  0  0  0  0  0
  -23.6799  -12.2370   23.4311 O   0  0  0  0  0  0  0  0  0  0  0  0
  -22.4092  -31.5558   21.1994 O   0  0  0  0  0  0  0  0  0  0  0  0
  -23.6578  -30.2242   24.7437 O   0  0  0  0  0  0  0  0  0  0  0  0
  -27.9978  -29.3491   25.2006 O   0  0  0  0  0  0  0  0  0  0  0  0
  -25.1726  -20.0033   20.1562 O   0  0  0  0  0  0  0  0  0  0  0  0
  -30.3866  -10.9843   22.8017 O   0  0  0  0  0  0  0  0  0  0  0  0
  -28.7619  -27.3621   19.5400 O   0  0  0  0  0  0  0  0  0  1  0  0
  -29.9530   -7.3848   26.9562 F   0  0  0  0  0  0  0  0  0  0  0  0
  -31.7885  -11.3586   25.1548 F   0  0  0  0  0  0  0  0  0  0  0  0
  1  2  1  0  0  0  0
  1  5  2  0  0  0  0
  2  6  2  0  0  0  0
  3  8  2  0  0  0  0
  3 15  1  0  0  0  0
  4  9  1  0  0  0  0
  4 15  2  0  0  0  0
  5 17  1  0  0  0  0
  6 19  1  0  0  0  0
  7 10  2  0  0  0  0
  7 18  1  0  0  0  0
  8 21  1  0  0  0  0
  9 21  2  0  0  0  0
 10 22  1  0  0  0  0
 11 12  2  0  0  0  0
 11 23  1  0  0  0  0
 12 24  1  0  0  0  0
 13 20  1  0  0  0  0
 13 22  2  0  0  0  0
 14 24  2  0  0  0  0
 14 25  1  0  0  0  0
 15 26  1  0  0  0  0
 16 26  1  0  0  0  0
 16 27  2  0  0  0  0
 16 29  1  0  0  0  0
 17 19  2  0  0  0  0
 17 34  1  0  0  0  0
 18 20  2  0  0  0  0
 18 35  1  0  0  0  0
 19 47  1  0  0  0  0
 20 36  1  0  0  0  0
 21 81  1  0  0  0  0
 22 82  1  0  0  0  0
 23 25  2  0  0  0  0
 23 81  1  0  0  0  0
 24 83  1  0  0  0  0
 25 84  1  0  0  0  0
 26 64  2  0  0  0  0
 27 66  1  0  0  0  0
 27 69  1  0  0  0  0
 28 37  1  0  0  0  0
 28 38  1  0  0  0  0
 28 65  2  0  0  0  0
 29 70  1  0  0  0  0
 29 76  2  0  0  0  0
 30 48  1  0  0  0  0
 30 71  1  0  0  0  0
 30 77  2  0  0  0  0
 31 59  1  0  0  0  0
 31 67  1  0  0  0  0
 31 78  2  0  0  0  0
 32 60  1  0  0  0  0
 32 72  1  0  0  0  0
 32 79  2  0  0  0  0
 33 68  1  0  0  0  0
 33 73  1  0  0  0  0
 33 80  2  0  0  0  0
 34 39  1  0  0  0  0
 35 48  1  0  0  0  0
 36 67  1  0  0  0  0
 37 40  1  0  0  0  0
 38 74  1  0  0  0  0
 39 42  1  0  0  0  0
 40 46  1  0  0  0  0
 41 43  1  0  0  0  0
 41 44  1  0  0  0  0
 42 47  1  0  0  0  0
 43 49  1  0  0  0  0
 44 68  1  0  0  0  0
 45 49  1  0  0  0  0
 45 68  1  0  0  0  0
 46 74  1  0  0  0  0
 47 71  1  0  0  0  0
 48 67  1  0  0  0  0
 49 66  1  0  0  0  0
 50 60  1  0  0  0  0
 51 61  1  0  0  0  0
 52 62  1  0  0  0  0
 53 63  1  0  0  0  0
 54 63  1  0  0  0  0
 55 63  1  0  0  0  0
 56 75  1  0  0  0  0
 57 61  1  0  0  0  0
 57 65  1  0  0  0  0
 58 62  1  0  0  0  0
 58 74  1  0  0  0  0
 59 63  1  0  0  0  0
 59 72  1  0  0  0  0
 60 75  1  0  0  0  0
 61 73  1  0  0  0  0
 62 82  1  0  0  0  0
 64 66  1  0  0  0  0
M  CHG  2  74   1  75   1
M  ISO  4  33 100  62 101  73 100  82 101
M  END
> <Batch ID>
0121

> <Smiles>
CNC(C)C(=O)NC(C(=O)N1Cc2cc([101O:1][101CH:1](C)CN3CCC=C(NCC(C)[100NH:0][100C:0](=O)N4CCCC(n5nc(-c6ccc(Oc7ccc(F)cc7F)cc6)c(C(N)=O)c5N)C4)C3)ccc2CC1C(=O)NC1CCCc2ccccc21)C(C)(C)C

> <Shape>
0.257

> <Color>
0.090

> <Negative vol penalty>
0.000

$$$$

  -OEChem-04052320253D

 85 94  0     1  0  0  0  0  0999 V2000
  -27.1692  -25.1331   16.3521 C   0  0  0  0  0  0  0  0  0  0  0  0
  -26.0027  -25.4673   17.0325 C   0  0  0  0  0  0  0  0  0  0  0  0
  -24.8415  -13.3849   19.7447 C   0  0  0  0  0  0  0  0  0  0  0  0
  -24.3079  -12.1537   21.7538 C   0  0  0  0  0  0  0  0  0  0  0  0
  -28.4111  -25.4127   16.9209 C   0  0  0  0  0  0  0  0  0  0  0  0
  -26.0774  -26.0803   18.2827 C   0  0  0  0  0  0  0  0  0  0  0  0
  -22.8640  -29.9680   18.7352 C   0  0  0  0  0  0  0  0  0  0  0  0
  -21.5234  -25.2243   20.9830 C   0  0  0  0  0  0  0  0  0  0  0  0
  -25.8776  -12.4916   19.4724 C   0  0  0  0  0  0  0  0  0  0  0  0
  -25.3439  -11.2603   21.4814 C   0  0  0  0  0  0  0  0  0  0  0  0
  -21.5246  -29.6626   18.9730 C   0  0  0  0  0  0  0  0  0  0  0  0
  -28.8932  -10.7425   18.4377 C   0  0  0  0  0  0  0  0  0  0  0  0
  -30.1200  -11.2722   18.0379 C   0  0  0  0  0  0  0  0  0  0  0  0
  -20.8333  -26.1757   20.2403 C   0  0  0  0  0  0  0  0  0  0  0  0
  -21.8405  -30.1307   21.3182 C   0  0  0  0  0  0  0  0  0  0  0  0
  -30.2750  -12.4858   20.1212 C   0  0  0  0  0  0  0  0  0  0  0  0
  -24.0567  -13.2160   20.8855 C   0  0  0  0  0  0  0  0  0  0  0  0
  -21.6459  -14.0390   20.7505 C   0  0  0  0  0  0  0  0  0  0  0  0
  -28.5010  -26.0382   18.1743 C   0  0  0  0  0  0  0  0  0  0  0  0
  -23.7058  -30.3472   19.7906 C   0  0  0  0  0  0  0  0  0  0  0  0
  -27.3216  -26.3674   18.8694 C   0  0  0  0  0  0  0  0  0  0  0  0
  -21.3989  -25.2070   22.3677 C   0  0  0  0  0  0  0  0  0  0  0  0
  -23.1895  -30.4429   21.0908 C   0  0  0  0  0  0  0  0  0  0  0  0
  -26.1287  -11.4292   20.3407 C   0  0  0  0  0  0  0  0  0  0  0  0
  -21.0134  -29.7412   20.2651 C   0  0  0  0  0  0  0  0  0  0  0  0
  -28.3572  -11.0845   19.6793 C   0  0  0  0  0  0  0  0  0  0  0  0
  -30.8109  -12.1438   18.8796 C   0  0  0  0  0  0  0  0  0  0  0  0
  -29.0481  -11.9561   20.5210 C   0  0  0  0  0  0  0  0  0  0  0  0
  -22.9867  -14.1388   21.1676 C   0  0  0  0  0  0  0  0  0  0  0  0
  -20.0379  -27.0807   20.9245 C   0  0  0  0  0  0  0  0  0  0  0  0
  -20.5783  -26.1555   22.9568 C   0  0  0  0  0  0  0  0  0  0  0  0
  -21.0395  -15.1546   21.2742 C   0  0  0  0  0  0  0  0  0  0  0  0
  -21.0058  -13.0282   19.9605 C   0  0  0  0  0  0  0  0  0  0  0  0
  -26.3446  -29.1492   21.0964 C   0  0  0  0  0  0  0  0  0  0  0  0
  -26.2783  -31.9021   22.8109 C   0  0  0  0  0  0  0  0  0  0  0  0
  -24.4415  -34.4906   24.0651 C   0  0  0  0  0  0  0  0  0  0  0  0
  -23.6717  -20.3723   22.9401 C   0  0  0  0  0  0  0  0  0  0  0  0
  -29.8658  -26.2776   18.7699 C   0  0  0  0  0  0  0  0  0  0  0  0
  -25.1416  -30.6992   19.5133 C   0  0  0  0  0  0  0  0  0  0  0  0
  -24.0466  -30.8646   22.2553 C   0  0  0  0  0  0  0  0  0  0  0  0
  -29.8584  -27.2686   19.9310 C   0  0  0  0  0  0  0  0  0  0  0  0
  -21.3278  -18.2272   24.9189 C   0  0  0  0  0  0  0  0  0  0  0  0
  -28.7283  -26.9440   20.9027 C   0  0  0  0  0  0  0  0  0  0  0  0
  -21.4426  -16.9021   24.1673 C   0  0  0  0  0  0  0  0  0  0  0  0
  -21.3038  -22.9116   23.4364 C   0  0  0  0  0  0  0  0  0  0  0  0
  -23.4998  -23.7997   22.5432 C   0  0  0  0  0  0  0  0  0  0  0  0
  -22.6110  -19.0416   24.8041 C   0  0  0  0  0  0  0  0  0  0  0  0
  -22.0791  -21.8583   24.2326 C   0  0  0  0  0  0  0  0  0  0  0  0
  -24.2220  -22.7462   23.3783 C   0  0  0  0  0  0  0  0  0  0  0  0
  -23.1565  -17.9763   22.6380 C   0  0  0  0  0  0  0  0  0  0  0  0
  -22.1504  -24.1721   23.1837 C   0  0  0  0  0  0  0  0  0  0  0  0
  -27.3615  -27.0558   20.2165 C   0  0  1  0  0  0  0  0  0  0  0  0
  -26.0352  -30.5766   20.7437 C   0  0  1  0  0  0  0  0  0  0  0  0
  -21.8729  -17.1331   22.7089 C   0  0  1  0  0  0  0  0  0  0  0  0
  -20.4041  -26.1828   24.4399 C   0  0  0  0  0  0  0  0  0  0  0  0
  -17.7697  -28.0319   20.3828 C   0  0  0  0  0  0  0  0  0  0  0  0
  -24.6582  -36.5663   25.4586 C   0  0  0  0  0  0  0  0  0  0  0  0
  -26.4457  -30.1898   25.3309 C   0  0  0  0  0  0  0  0  0  0  0  0
  -25.7100  -32.1854   26.6517 C   0  0  0  0  0  0  0  0  0  0  0  0
  -27.8538  -32.2561   25.3782 C   0  0  0  0  0  0  0  0  0  0  0  0
  -23.5352  -36.2188   21.8400 C   0  0  0  0  0  0  0  0  0  0  0  0
  -19.2817  -28.1145   20.1587 C   0  0  1  0  0  0  0  0  0  1  0  0
  -25.6619  -32.3314   24.1204 C   0  0  1  0  0  0  0  0  0  0  0  0
  -24.6744  -35.9906   24.0511 C   0  0  2  0  0  0  0  0  0  0  0  0
  -26.4019  -31.7308   25.3489 C   0  0  0  0  0  0  0  0  0  0  0  0
  -23.2190  -15.2316   21.8997 N   0  0  0  0  0  0  0  0  0  0  0  0
  -19.8921  -27.0951   22.2685 N   0  0  0  0  0  0  0  0  0  0  0  0
  -22.0160  -15.8287   21.9466 N   0  0  0  0  0  0  0  0  0  0  0  0
  -25.4455  -31.1924   21.9342 N   0  0  0  0  0  0  0  0  0  0  0  0
  -23.0205  -19.2171   23.4040 N   0  0  0  0  0  0  0  0  0  0  0  0
  -23.3727  -21.5755   23.5968 N   0  0  0  0  0  0  0  0  0  0  0  0
  -19.7715  -15.6149   21.2203 N   0  0  0  0  0  0  0  0  0  0  0  0
  -21.7759  -11.9501   19.5034 N   0  0  0  0  0  0  0  0  0  0  0  0
  -26.9726  -28.4438   20.0877 N   0  0  0  0  0  0  0  0  0  0  0  0
  -25.6286  -33.7898   24.0972 N   0  0  0  0  0  0  0  0  0  0  0  0
  -23.6164  -36.6717   23.2526 N   0  3  0  0  0  0  0  0  0  0  0  0
  -19.7907  -13.0880   19.6547 O   0  0  0  0  0  0  0  0  0  0  0  0
  -26.0378  -28.7200   22.2025 O   0  0  0  0  0  0  0  0  0  0  0  0
  -27.4531  -32.1921   22.5717 O   0  0  0  0  0  0  0  0  0  0  0  0
  -23.3189  -33.9907   24.0527 O   0  0  0  0  0  0  0  0  0  0  0  0
  -24.4684  -20.3304   21.9943 O   0  0  0  0  0  0  0  0  0  0  0  0
  -27.1394  -10.5572   20.0751 O   0  0  0  0  0  0  0  0  0  0  0  0
  -19.7026  -29.4421   20.5008 O   0  0  0  0  0  0  0  0  0  1  0  0
  -31.9898  -12.6512   18.4962 F   0  0  0  0  0  0  0  0  0  0  0  0
  -28.5388  -12.2874   21.7155 F   0  0  0  0  0  0  0  0  0  0  0  0
  1  2  1  0  0  0  0
  1  5  2  0  0  0  0
  2  6  2  0  0  0  0
  3  9  2  0  0  0  0
  3 17  1  0  0  0  0
  4 10  1  0  0  0  0
  4 17  2  0  0  0  0
  5 19  1  0  0  0  0
  6 21  1  0  0  0  0
  7 11  2  0  0  0  0
  7 20  1  0  0  0  0
  8 14  2  0  0  0  0
  8 22  1  0  0  0  0
  9 24  1  0  0  0  0
 10 24  2  0  0  0  0
 11 25  1  0  0  0  0
 12 13  2  0  0  0  0
 12 26  1  0  0  0  0
 13 27  1  0  0  0  0
 14 30  1  0  0  0  0
 15 23  1  0  0  0  0
 15 25  2  0  0  0  0
 16 27  2  0  0  0  0
 16 28  1  0  0  0  0
 17 29  1  0  0  0  0
 18 29  1  0  0  0  0
 18 32  2  0  0  0  0
 18 33  1  0  0  0  0
 19 21  2  0  0  0  0
 19 38  1  0  0  0  0
 20 23  2  0  0  0  0
 20 39  1  0  0  0  0
 21 52  1  0  0  0  0
 22 31  2  0  0  0  0
 22 51  1  0  0  0  0
 23 40  1  0  0  0  0
 24 82  1  0  0  0  0
 25 83  1  0  0  0  0
 26 28  2  0  0  0  0
 26 82  1  0  0  0  0
 27 84  1  0  0  0  0
 28 85  1  0  0  0  0
 29 66  2  0  0  0  0
 30 62  1  0  0  0  0
 30 67  2  0  0  0  0
 31 55  1  0  0  0  0
 31 67  1  0  0  0  0
 32 68  1  0  0  0  0
 32 72  1  0  0  0  0
 33 73  1  0  0  0  0
 33 77  2  0  0  0  0
 34 53  1  0  0  0  0
 34 74  1  0  0  0  0
 34 78  2  0  0  0  0
 35 63  1  0  0  0  0
 35 69  1  0  0  0  0
 35 79  2  0  0  0  0
 36 64  1  0  0  0  0
 36 75  1  0  0  0  0
 36 80  2  0  0  0  0
 37 70  1  0  0  0  0
 37 71  1  0  0  0  0
 37 81  2  0  0  0  0
 38 41  1  0  0  0  0
 39 53  1  0  0  0  0
 40 69  1  0  0  0  0
 41 43  1  0  0  0  0
 42 44  1  0  0  0  0
 42 47  1  0  0  0  0
 43 52  1  0  0  0  0
 44 54  1  0  0  0  0
 45 48  1  0  0  0  0
 45 51  1  0  0  0  0
 46 49  1  0  0  0  0
 46 51  1  0  0  0  0
 47 70  1  0  0  0  0
 48 71  1  0  0  0  0
 49 71  1  0  0  0  0
 50 54  1  0  0  0  0
 50 70  1  0  0  0  0
 52 74  1  0  0  0  0
 53 69  1  0  0  0  0
 54 68  1  0  0  0  0
 56 62  1  0  0  0  0
 57 64  1  0  0  0  0
 58 65  1  0  0  0  0
 59 65  1  0  0  0  0
 60 65  1  0  0  0  0
 61 76  1  0  0  0  0
 62 83  1  0  0  0  0
 63 65  1  0  0  0  0
 63 75  1  0  0  0  0
 64 76  1  0  0  0  0
 66 68  1  0  0  0  0
M  CHG  1  76   1
M  ISO  4  37 100  62 101  71 100  83 101
M  END
> <Batch ID>
0121

> <Smiles>
CNC(C)C(=O)NC(C(=O)N1Cc2cc([101O:1][101CH:1](C)c3ccc(C4CC[100N:0]([100C:0](=O)N5CCCC(n6nc(-c7ccc(Oc8ccc(F)cc8F)cc7)c(C(N)=O)c6N)C5)CC4)c(C)n3)ccc2CC1C(=O)NC1CCCc2ccccc21)C(C)(C)C

> <Shape>
0.293

> <Color>
0.074

> <Negative vol penalty>
0.000

$$$$

  -OEChem-04052320253D

 82 90  0     1  0  0  0  0  0999 V2000
  -19.6469  -14.6484   17.1169 C   0  0  0  0  0  0  0  0  0  0  0  0
  -20.4821  -15.7500   17.2727 C   0  0  0  0  0  0  0  0  0  0  0  0
  -20.2366  -26.7166   23.2675 C   0  0  0  0  0  0  0  0  0  0  0  0
  -20.4919  -28.5543   21.7201 C   0  0  0  0  0  0  0  0  0  0  0  0
  -19.8885  -13.4835   17.8439 C   0  0  0  0  0  0  0  0  0  0  0  0
  -21.5587  -15.6878   18.1566 C   0  0  0  0  0  0  0  0  0  0  0  0
  -27.0236  -18.3722   17.4968 C   0  0  0  0  0  0  0  0  0  0  0  0
  -29.3771  -24.5708   21.5096 C   0  0  0  0  0  0  0  0  0  0  0  0
  -31.0315  -24.6479   19.7506 C   0  0  0  0  0  0  0  0  0  0  0  0
  -28.7415  -23.5094   20.8654 C   0  0  0  0  0  0  0  0  0  0  0  0
  -30.3959  -23.5865   19.1063 C   0  0  0  0  0  0  0  0  0  0  0  0
  -18.8512  -26.8729   23.2246 C   0  0  0  0  0  0  0  0  0  0  0  0
  -19.1064  -28.7106   21.6771 C   0  0  0  0  0  0  0  0  0  0  0  0
  -27.5575  -19.5520   18.0132 C   0  0  0  0  0  0  0  0  0  0  0  0
  -16.6932  -30.0829   23.6068 C   0  0  0  0  0  0  0  0  0  0  0  0
  -16.1840  -31.3782   23.6994 C   0  0  0  0  0  0  0  0  0  0  0  0
  -28.5922  -18.2969   19.7946 C   0  0  0  0  0  0  0  0  0  0  0  0
  -15.1455  -31.1248   21.5327 C   0  0  0  0  0  0  0  0  0  0  0  0
  -21.0569  -27.5573   22.5153 C   0  0  0  0  0  0  0  0  0  0  0  0
  -23.2787  -26.5843   21.7249 C   0  0  0  0  0  0  0  0  0  0  0  0
  -20.9743  -13.4037   18.7300 C   0  0  0  0  0  0  0  0  0  0  0  0
  -27.2613  -17.1452   18.1326 C   0  0  0  0  0  0  0  0  0  0  0  0
  -21.8143  -14.5212   18.8972 C   0  0  0  0  0  0  0  0  0  0  0  0
  -28.0622  -17.1026   19.2828 C   0  0  0  0  0  0  0  0  0  0  0  0
  -30.5221  -25.1401   20.9522 C   0  0  0  0  0  0  0  0  0  0  0  0
  -29.2509  -23.0172   19.6637 C   0  0  0  0  0  0  0  0  0  0  0  0
  -18.2861  -27.8699   22.4294 C   0  0  0  0  0  0  0  0  0  0  0  0
  -28.3396  -19.5149   19.1639 C   0  0  0  0  0  0  0  0  0  0  0  0
  -16.4287  -29.3086   22.4772 C   0  0  0  0  0  0  0  0  0  0  0  0
  -15.4101  -31.8991   22.6623 C   0  0  0  0  0  0  0  0  0  0  0  0
  -15.6548  -29.8295   21.4401 C   0  0  0  0  0  0  0  0  0  0  0  0
  -22.4881  -27.3967   22.5596 C   0  0  0  0  0  0  0  0  0  0  0  0
  -24.5630  -26.7817   22.1700 C   0  0  0  0  0  0  0  0  0  0  0  0
  -22.8871  -25.7277   20.6438 C   0  0  0  0  0  0  0  0  0  0  0  0
  -25.4323  -14.9446   19.5168 C   0  0  0  0  0  0  0  0  0  0  0  0
  -28.2247  -13.3052   19.7086 C   0  0  0  0  0  0  0  0  0  0  0  0
  -31.6353  -13.3919   19.7944 C   0  0  0  0  0  0  0  0  0  0  0  0
  -28.6506  -30.1693   23.8908 C   0  0  0  0  0  0  0  0  0  0  0  0
  -21.1675  -12.1394   19.5294 C   0  0  0  0  0  0  0  0  0  0  0  0
  -26.7002  -15.8781   17.5478 C   0  0  0  0  0  0  0  0  0  0  0  0
  -28.3640  -15.8083   19.9915 C   0  0  0  0  0  0  0  0  0  0  0  0
  -22.5504  -12.0265   20.1659 C   0  0  0  0  0  0  0  0  0  0  0  0
  -26.2885  -29.0906   26.3267 C   0  0  0  0  0  0  0  0  0  0  0  0
  -22.9346  -13.3378   20.8441 C   0  0  0  0  0  0  0  0  0  0  0  0
  -25.1523  -28.4928   25.4949 C   0  0  0  0  0  0  0  0  0  0  0  0
  -26.9066  -30.3090   25.6445 C   0  0  0  0  0  0  0  0  0  0  0  0
  -26.2194  -29.4835   23.4264 C   0  0  0  0  0  0  0  0  0  0  0  0
  -23.0070  -14.4839   19.8279 C   0  0  1  0  0  0  0  0  0  0  0  0
  -26.5813  -14.7504   18.5683 C   0  0  1  0  0  0  0  0  0  0  0  0
  -25.6016  -28.2188   24.0470 C   0  0  2  0  0  0  0  0  0  0  0  0
  -33.6395  -11.8951   19.9943 C   0  0  0  0  0  0  0  0  0  0  0  0
  -27.6942  -12.9979   22.6976 C   0  0  0  0  0  0  0  0  0  0  0  0
  -30.0994  -12.3667   22.9888 C   0  0  0  0  0  0  0  0  0  0  0  0
  -28.6016  -10.9511   21.5833 C   0  0  0  0  0  0  0  0  0  0  0  0
  -32.6624  -14.2198   17.1452 C   0  0  0  0  0  0  0  0  0  0  0  0
  -31.2023  -26.2749   21.6404 C   0  0  0  0  0  0  0  0  0  0  0  0
  -28.5676  -21.8743   18.9722 C   0  0  0  0  0  0  0  0  0  1  0  0
  -30.2866  -29.9595   22.0364 C   0  0  0  0  0  0  0  0  0  0  0  0
  -31.1112  -28.7005   22.2291 C   0  0  0  0  0  0  0  0  0  0  0  0
  -29.3410  -13.2096   20.7204 C   0  0  1  0  0  0  0  0  0  0  0  0
  -32.6825  -12.5927   19.0402 C   0  0  2  0  0  0  0  0  0  0  0  0
  -28.9269  -12.4061   21.9855 C   0  0  0  0  0  0  0  0  0  0  0  0
  -23.2098  -28.0607   23.4664 N   0  0  0  0  0  0  0  0  0  0  0  0
  -24.4673  -27.6657   23.2042 N   0  0  0  0  0  0  0  0  0  0  0  0
  -27.7874  -14.5973   19.3845 N   0  0  0  0  0  0  0  0  0  0  0  0
  -27.3127  -29.9818   24.2756 N   0  0  0  0  0  0  0  0  0  0  0  0
  -25.7534  -26.2836   21.7737 N   0  0  0  0  0  0  0  0  0  0  0  0
  -21.5265  -25.6419   20.3185 N   0  0  0  0  0  0  0  0  0  0  0  0
  -24.2382  -14.4110   19.0707 N   0  0  0  0  0  0  0  0  0  0  0  0
  -30.4892  -12.6564   20.0105 N   0  0  0  0  0  0  0  0  0  0  0  0
  -28.9523  -29.8285   22.5779 N   0  0  0  0  0  0  0  0  0  0  0  0
  -33.4752  -13.4874   18.1502 N   0  3  0  0  0  0  0  0  0  0  0  0
  -30.4788  -27.5690   21.5023 N   0  3  0  0  0  0  0  0  0  0  0  0
  -23.7173  -25.0458   19.9964 O   0  0  0  0  0  0  0  0  0  0  0  0
  -25.6157  -15.5337   20.5756 O   0  0  0  0  0  0  0  0  0  0  0  0
  -27.7627  -12.2718   19.2184 O   0  0  0  0  0  0  0  0  0  0  0  0
  -31.8172  -14.5514   20.1590 O   0  0  0  0  0  0  0  0  0  0  0  0
  -29.5134  -30.6029   24.6617 O   0  0  0  0  0  0  0  0  0  0  0  0
  -16.9343  -28.0225   22.3871 O   0  0  0  0  0  0  0  0  0  0  0  0
  -28.8615  -20.6650   19.6705 O   0  0  0  0  0  0  0  0  0  1  0  0
  -14.9199  -33.1424   22.7520 F   0  0  0  0  0  0  0  0  0  0  0  0
  -15.3963  -29.0899   20.3529 F   0  0  0  0  0  0  0  0  0  0  0  0
  1  2  1  0  0  0  0
  1  5  2  0  0  0  0
  2  6  2  0  0  0  0
  3 12  2  0  0  0  0
  3 19  1  0  0  0  0
  4 13  1  0  0  0  0
  4 19  2  0  0  0  0
  5 21  1  0  0  0  0
  6 23  1  0  0  0  0
  7 14  2  0  0  0  0
  7 22  1  0  0  0  0
  8 10  2  0  0  0  0
  8 25  1  0  0  0  0
  9 11  1  0  0  0  0
  9 25  2  0  0  0  0
 10 26  1  0  0  0  0
 11 26  2  0  0  0  0
 12 27  1  0  0  0  0
 13 27  2  0  0  0  0
 14 28  1  0  0  0  0
 15 16  2  0  0  0  0
 15 29  1  0  0  0  0
 16 30  1  0  0  0  0
 17 24  1  0  0  0  0
 17 28  2  0  0  0  0
 18 30  2  0  0  0  0
 18 31  1  0  0  0  0
 19 32  1  0  0  0  0
 20 32  1  0  0  0  0
 20 33  2  0  0  0  0
 20 34  1  0  0  0  0
 21 23  2  0  0  0  0
 21 39  1  0  0  0  0
 22 24  2  0  0  0  0
 22 40  1  0  0  0  0
 23 48  1  0  0  0  0
 24 41  1  0  0  0  0
 25 56  1  0  0  0  0
 26 57  1  0  0  0  0
 27 79  1  0  0  0  0
 28 80  1  0  0  0  0
 29 31  2  0  0  0  0
 29 79  1  0  0  0  0
 30 81  1  0  0  0  0
 31 82  1  0  0  0  0
 32 63  2  0  0  0  0
 33 64  1  0  0  0  0
 33 67  1  0  0  0  0
 34 68  1  0  0  0  0
 34 74  2  0  0  0  0
 35 49  1  0  0  0  0
 35 69  1  0  0  0  0
 35 75  2  0  0  0  0
 36 60  1  0  0  0  0
 36 65  1  0  0  0  0
 36 76  2  0  0  0  0
 37 61  1  0  0  0  0
 37 70  1  0  0  0  0
 37 77  2  0  0  0  0
 38 66  1  0  0  0  0
 38 71  1  0  0  0  0
 38 78  2  0  0  0  0
 39 42  1  0  0  0  0
 40 49  1  0  0  0  0
 41 65  1  0  0  0  0
 42 44  1  0  0  0  0
 43 45  1  0  0  0  0
 43 46  1  0  0  0  0
 44 48  1  0  0  0  0
 45 50  1  0  0  0  0
 46 66  1  0  0  0  0
 47 50  1  0  0  0  0
 47 66  1  0  0  0  0
 48 69  1  0  0  0  0
 49 65  1  0  0  0  0
 50 64  1  0  0  0  0
 51 61  1  0  0  0  0
 52 62  1  0  0  0  0
 53 62  1  0  0  0  0
 54 62  1  0  0  0  0
 55 72  1  0  0  0  0
 56 73  1  0  0  0  0
 57 80  1  0  0  0  0
 58 59  1  0  0  0  0
 58 71  1  0  0  0  0
 59 73  1  0  0  0  0
 60 62  1  0  0  0  0
 60 70  1  0  0  0  0
 61 72  1  0  0  0  0
 63 64  1  0  0  0  0
M  CHG  2  72   1  73   1
M  ISO  4  38 100  57 101  71 100  80 101
M  END
> <Batch ID>
0121

> <Smiles>
CNC(C)C(=O)NC(C(=O)N1Cc2cc([101O:1][101CH2:1]c3ccc(CNCC[100NH:0][100C:0](=O)N4CCCC(n5nc(-c6ccc(Oc7ccc(F)cc7F)cc6)c(C(N)=O)c5N)C4)cc3)ccc2CC1C(=O)NC1CCCc2ccccc21)C(C)(C)C

> <Shape>
0.238

> <Color>
0.075

> <Negative vol penalty>
0.000

$$$$

  -OEChem-04052320253D

 84 92  0     1  0  0  0  0  0999 V2000
  -26.1439  -23.9204   14.1100 C   0  0  0  0  0  0  0  0  0  0  0  0
  -25.5136  -23.9355   15.3501 C   0  0  0  0  0  0  0  0  0  0  0  0
  -24.7993  -14.9734   20.9180 C   0  0  0  0  0  0  0  0  0  0  0  0
  -26.4604  -14.8157   19.1706 C   0  0  0  0  0  0  0  0  0  0  0  0
  -27.4611  -24.3623   13.9935 C   0  0  0  0  0  0  0  0  0  0  0  0
  -26.2005  -24.3914   16.4747 C   0  0  0  0  0  0  0  0  0  0  0  0
  -23.4027  -27.4970   19.3335 C   0  0  0  0  0  0  0  0  0  0  0  0
  -24.9102  -13.6020   21.1472 C   0  0  0  0  0  0  0  0  0  0  0  0
  -26.5713  -13.4443   19.3999 C   0  0  0  0  0  0  0  0  0  0  0  0
  -22.4478  -26.9111   20.1634 C   0  0  0  0  0  0  0  0  0  0  0  0
  -23.7976  -10.7422   19.7301 C   0  0  0  0  0  0  0  0  0  0  0  0
  -22.6178  -10.0136   19.8813 C   0  0  0  0  0  0  0  0  0  0  0  0
  -23.9480  -27.1368   22.0389 C   0  0  0  0  0  0  0  0  0  0  0  0
  -24.3000  -22.3438   24.7922 C   0  0  0  0  0  0  0  0  0  0  0  0
  -23.3115   -9.3504   22.0985 C   0  0  0  0  0  0  0  0  0  0  0  0
  -25.5743  -15.5802   19.9297 C   0  0  0  0  0  0  0  0  0  0  0  0
  -24.3051  -17.7033   19.3056 C   0  0  0  0  0  0  0  0  0  0  0  0
  -28.1614  -24.8330   15.1154 C   0  0  0  0  0  0  0  0  0  0  0  0
  -24.6437  -27.8979   19.8489 C   0  0  0  0  0  0  0  0  0  0  0  0
  -27.5288  -24.8388   16.3733 C   0  0  0  0  0  0  0  0  0  0  0  0
  -24.9159  -27.7299   21.2141 C   0  0  0  0  0  0  0  0  0  0  0  0
  -24.2184  -22.7181   23.4282 C   0  0  0  0  0  0  0  0  0  0  0  0
  -25.7962  -12.8374   20.3882 C   0  0  0  0  0  0  0  0  0  0  0  0
  -22.7215  -26.7282   21.5157 C   0  0  0  0  0  0  0  0  0  0  0  0
  -24.7344  -10.7748   20.7631 C   0  0  0  0  0  0  0  0  0  0  0  0
  -22.3748   -9.3178   21.0655 C   0  0  0  0  0  0  0  0  0  0  0  0
  -24.4914  -10.0790   21.9473 C   0  0  0  0  0  0  0  0  0  0  0  0
  -25.4598  -16.9967   19.6920 C   0  0  0  0  0  0  0  0  0  0  0  0
  -25.5675  -22.6586   25.2299 C   0  0  0  0  0  0  0  0  0  0  0  0
  -25.4386  -23.2501   23.0739 C   0  0  0  0  0  0  0  0  0  0  0  0
  -24.7172  -19.0102   19.2129 C   0  0  0  0  0  0  0  0  0  0  0  0
  -22.9786  -17.2213   19.0531 C   0  0  0  0  0  0  0  0  0  0  0  0
  -27.6674  -27.0807   19.3071 C   0  0  0  0  0  0  0  0  0  0  0  0
  -28.2860  -29.5343   21.3368 C   0  0  0  0  0  0  0  0  0  0  0  0
  -27.1961  -31.5424   23.8718 C   0  0  0  0  0  0  0  0  0  0  0  0
  -29.1833  -22.0686   21.7723 C   0  0  0  0  0  0  0  0  0  0  0  0
  -29.5994  -25.2561   14.9487 C   0  0  0  0  0  0  0  0  0  0  0  0
  -25.6528  -28.5528   18.9459 C   0  0  0  0  0  0  0  0  0  0  0  0
  -26.2252  -28.1616   21.8207 C   0  0  0  0  0  0  0  0  0  0  0  0
  -30.1331  -26.0751   16.1211 C   0  0  0  0  0  0  0  0  0  0  0  0
  -28.5931  -21.6574   18.2853 C   0  0  0  0  0  0  0  0  0  0  0  0
  -29.7554  -25.4200   17.4458 C   0  0  0  0  0  0  0  0  0  0  0  0
  -27.6190  -20.4801   18.2155 C   0  0  0  0  0  0  0  0  0  0  0  0
  -29.6153  -21.4785   19.4056 C   0  0  0  0  0  0  0  0  0  0  0  0
  -28.0620  -20.0396   20.6667 C   0  0  0  0  0  0  0  0  0  0  0  0
  -28.2325  -25.3493   17.6119 C   0  0  1  0  0  0  0  0  0  0  0  0
  -27.0805  -28.4538   19.4743 C   0  0  1  0  0  0  0  0  0  0  0  0
  -26.9773  -20.2011   19.5880 C   0  0  2  0  0  0  0  0  0  0  0  0
  -26.1802  -22.4804   26.5624 C   0  0  0  0  0  0  0  0  0  0  0  0
  -25.9007  -23.7944   21.7792 C   0  0  0  0  0  0  0  0  0  0  0  0
  -27.2281  -33.4302   25.5248 C   0  0  0  0  0  0  0  0  0  0  0  0
  -21.0064  -24.4958   23.8728 C   0  0  0  0  0  0  0  0  0  0  0  0
  -29.9669  -27.5876   22.9785 C   0  0  0  0  0  0  0  0  0  0  0  0
  -29.8860  -29.2235   24.8721 C   0  0  0  0  0  0  0  0  0  0  0  0
  -30.9662  -29.8652   22.7171 C   0  0  0  0  0  0  0  0  0  0  0  0
  -25.9597  -33.4106   21.9378 C   0  0  0  0  0  0  0  0  0  0  0  0
  -23.0132  -22.5604   22.5358 C   0  0  0  0  0  0  0  0  0  0  0  0
  -22.5056  -23.8822   21.9415 C   0  0  0  0  0  0  0  0  0  0  0  0
  -27.6210  -23.6743   24.2235 C   0  0  0  0  0  0  0  0  0  0  0  0
  -28.6396  -22.5399   24.1475 C   0  0  0  0  0  0  0  0  0  0  0  0
  -28.4481  -29.6703   22.8315 C   0  0  1  0  0  0  0  0  0  0  0  0
  -27.2386  -33.0490   24.0526 C   0  0  2  0  0  0  0  0  0  0  0  0
  -22.1627  -24.9477   22.9899 C   0  0  1  0  0  0  0  0  0  1  0  0
  -29.7928  -29.0766   23.3383 C   0  0  0  0  0  0  0  0  0  0  0  0
  -26.5255  -17.7892   19.8348 N   0  0  0  0  0  0  0  0  0  0  0  0
  -26.2509  -23.2086   24.1769 N   0  0  0  0  0  0  0  0  0  0  0  0
  -26.0421  -19.0071   19.5364 N   0  0  0  0  0  0  0  0  0  0  0  0
  -27.1819  -28.7913   20.8956 N   0  0  0  0  0  0  0  0  0  0  0  0
  -28.9420  -21.2187   20.6803 N   0  0  0  0  0  0  0  0  0  0  0  0
  -24.0718  -20.1502   18.8868 N   0  0  0  0  0  0  0  0  0  0  0  0
  -22.6497  -16.8213   17.7507 N   0  0  0  0  0  0  0  0  0  0  0  0
  -27.7058  -26.6409   17.9977 N   0  0  0  0  0  0  0  0  0  0  0  0
  -28.2681  -31.0861   23.1344 N   0  0  0  0  0  0  0  0  0  0  0  0
  -28.5001  -21.7553   22.9409 N   0  0  0  0  0  0  0  0  0  0  0  0
  -26.0613  -33.6831   23.3946 N   0  3  0  0  0  0  0  0  0  0  0  0
  -22.1058  -17.1628   19.9521 O   0  0  0  0  0  0  0  0  0  0  0  0
  -28.0578  -26.4664   20.2929 O   0  0  0  0  0  0  0  0  0  0  0  0
  -29.1048  -30.0736   20.5882 O   0  0  0  0  0  0  0  0  0  0  0  0
  -26.3033  -30.8401   24.3411 O   0  0  0  0  0  0  0  0  0  0  0  0
  -29.9467  -23.0382   21.7088 O   0  0  0  0  0  0  0  0  0  0  0  0
  -25.9049  -11.4992   20.6117 O   0  0  0  0  0  0  0  0  0  0  0  0
  -21.7914  -26.1560   22.3277 O   0  0  0  0  0  0  0  0  0  1  0  0
  -21.2410   -8.6195   21.2112 F   0  0  0  0  0  0  0  0  0  0  0  0
  -25.3871  -10.1075   22.9436 F   0  0  0  0  0  0  0  0  0  0  0  0
  1  2  1  0  0  0  0
  1  5  2  0  0  0  0
  2  6  2  0  0  0  0
  3  8  2  0  0  0  0
  3 16  1  0  0  0  0
  4  9  1  0  0  0  0
  4 16  2  0  0  0  0
  5 18  1  0  0  0  0
  6 20  1  0  0  0  0
  7 10  2  0  0  0  0
  7 19  1  0  0  0  0
  8 23  1  0  0  0  0
  9 23  2  0  0  0  0
 10 24  1  0  0  0  0
 11 12  2  0  0  0  0
 11 25  1  0  0  0  0
 12 26  1  0  0  0  0
 13 21  1  0  0  0  0
 13 24  2  0  0  0  0
 14 22  1  0  0  0  0
 14 29  2  0  0  0  0
 15 26  2  0  0  0  0
 15 27  1  0  0  0  0
 16 28  1  0  0  0  0
 17 28  1  0  0  0  0
 17 31  2  0  0  0  0
 17 32  1  0  0  0  0
 18 20  2  0  0  0  0
 18 37  1  0  0  0  0
 19 21  2  0  0  0  0
 19 38  1  0  0  0  0
 20 46  1  0  0  0  0
 21 39  1  0  0  0  0
 22 30  2  0  0  0  0
 22 57  1  0  0  0  0
 23 81  1  0  0  0  0
 24 82  1  0  0  0  0
 25 27  2  0  0  0  0
 25 81  1  0  0  0  0
 26 83  1  0  0  0  0
 27 84  1  0  0  0  0
 28 65  2  0  0  0  0
 29 49  1  0  0  0  0
 29 66  1  0  0  0  0
 30 50  1  0  0  0  0
 30 66  1  0  0  0  0
 31 67  1  0  0  0  0
 31 70  1  0  0  0  0
 32 71  1  0  0  0  0
 32 76  2  0  0  0  0
 33 47  1  0  0  0  0
 33 72  1  0  0  0  0
 33 77  2  0  0  0  0
 34 61  1  0  0  0  0
 34 68  1  0  0  0  0
 34 78  2  0  0  0  0
 35 62  1  0  0  0  0
 35 73  1  0  0  0  0
 35 79  2  0  0  0  0
 36 69  1  0  0  0  0
 36 74  1  0  0  0  0
 36 80  2  0  0  0  0
 37 40  1  0  0  0  0
 38 47  1  0  0  0  0
 39 68  1  0  0  0  0
 40 42  1  0  0  0  0
 41 43  1  0  0  0  0
 41 44  1  0  0  0  0
 42 46  1  0  0  0  0
 43 48  1  0  0  0  0
 44 69  1  0  0  0  0
 45 48  1  0  0  0  0
 45 69  1  0  0  0  0
 46 72  1  0  0  0  0
 47 68  1  0  0  0  0
 48 67  1  0  0  0  0
 51 62  1  0  0  0  0
 52 63  1  0  0  0  0
 53 64  1  0  0  0  0
 54 64  1  0  0  0  0
 55 64  1  0  0  0  0
 56 75  1  0  0  0  0
 57 58  1  0  0  0  0
 58 63  1  0  0  0  0
 59 60  1  0  0  0  0
 59 66  1  0  0  0  0
 60 74  1  0  0  0  0
 61 64  1  0  0  0  0
 61 73  1  0  0  0  0
 62 75  1  0  0  0  0
 63 82  1  0  0  0  0
 65 67  1  0  0  0  0
M  CHG  1  75   1
M  ISO  4  36 100  63 101  74 100  82 101
M  END
> <Batch ID>
0121

> <Smiles>
CNC(C)C(=O)NC(C(=O)N1Cc2cc([101O:1][101CH:1](C)CCc3cc(C)n(CC[100NH:0][100C:0](=O)N4CCCC(n5nc(-c6ccc(Oc7ccc(F)cc7F)cc6)c(C(N)=O)c5N)C4)c3C)ccc2CC1C(=O)NC1CCCc2ccccc21)C(C)(C)C

> <Shape>
0.205

> <Color>
0.070

> <Negative vol penalty>
0.000

$$$$

  -OEChem-04052320253D

 87 96  0     1  0  0  0  0  0999 V2000
  -19.7849   -9.4253   19.3795 C   0  0  0  0  0  0  0  0  0  0  0  0
  -20.0046  -10.7319   19.8037 C   0  0  0  0  0  0  0  0  0  0  0  0
  -28.7387  -26.5183   19.5282 C   0  0  0  0  0  0  0  0  0  0  0  0
  -26.6858  -25.5412   18.7110 C   0  0  0  0  0  0  0  0  0  0  0  0
  -20.7018   -8.4255   19.7014 C   0  0  0  0  0  0  0  0  0  0  0  0
  -21.1409  -11.0393   20.5511 C   0  0  0  0  0  0  0  0  0  0  0  0
  -23.4257  -15.2700   18.9618 C   0  0  0  0  0  0  0  0  0  0  0  0
  -29.3753  -25.2833   19.4058 C   0  0  0  0  0  0  0  0  0  0  0  0
  -27.3224  -24.3061   18.5885 C   0  0  0  0  0  0  0  0  0  0  0  0
  -22.8552  -16.4836   19.3434 C   0  0  0  0  0  0  0  0  0  0  0  0
  -28.2476  -21.7678   20.6213 C   0  0  0  0  0  0  0  0  0  0  0  0
  -27.5714  -20.6410   21.0889 C   0  0  0  0  0  0  0  0  0  0  0  0
  -24.4972  -16.6968   21.0978 C   0  0  0  0  0  0  0  0  0  0  0  0
  -20.1364  -21.7800   23.2311 C   0  0  0  0  0  0  0  0  0  0  0  0
  -27.6324  -19.6842   18.8712 C   0  0  0  0  0  0  0  0  0  0  0  0
  -21.5738  -23.1282   21.8996 C   0  0  0  0  0  0  0  0  0  0  0  0
  -27.3939  -26.6473   19.1808 C   0  0  0  0  0  0  0  0  0  0  0  0
  -26.6433  -28.9325   18.3311 C   0  0  0  0  0  0  0  0  0  0  0  0
  -21.8549   -8.7227   20.4449 C   0  0  0  0  0  0  0  0  0  0  0  0
  -24.5314  -14.7546   19.6534 C   0  0  0  0  0  0  0  0  0  0  0  0
  -22.0735  -10.0423   20.8845 C   0  0  0  0  0  0  0  0  0  0  0  0
  -25.0814  -15.4778   20.7213 C   0  0  0  0  0  0  0  0  0  0  0  0
  -19.5965  -22.9421   23.7709 C   0  0  0  0  0  0  0  0  0  0  0  0
  -28.6672  -24.1772   18.9359 C   0  0  0  0  0  0  0  0  0  0  0  0
  -23.3892  -17.1958   20.4134 C   0  0  0  0  0  0  0  0  0  0  0  0
  -28.6161  -21.8529   19.2786 C   0  0  0  0  0  0  0  0  0  0  0  0
  -21.1442  -21.8661   22.2771 C   0  0  0  0  0  0  0  0  0  0  0  0
  -27.2638  -19.5992   20.2139 C   0  0  0  0  0  0  0  0  0  0  0  0
  -28.3086  -20.8111   18.4036 C   0  0  0  0  0  0  0  0  0  0  0  0
  -26.7355  -27.9226   19.3076 C   0  0  0  0  0  0  0  0  0  0  0  0
  -20.0955  -24.1560   23.3267 C   0  0  0  0  0  0  0  0  0  0  0  0
  -25.9244  -29.9328   18.9385 C   0  0  0  0  0  0  0  0  0  0  0  0
  -27.1612  -28.9635   16.9945 C   0  0  0  0  0  0  0  0  0  0  0  0
  -25.0882  -12.1268   21.3530 C   0  0  0  0  0  0  0  0  0  0  0  0
  -28.1269  -13.2614   21.3856 C   0  0  0  0  0  0  0  0  0  0  0  0
  -30.2202  -15.9453   21.1366 C   0  0  0  0  0  0  0  0  0  0  0  0
  -21.9525  -29.9561   23.4189 C   0  0  0  0  0  0  0  0  0  0  0  0
  -22.7934   -7.5996   20.8089 C   0  0  0  0  0  0  0  0  0  0  0  0
  -25.1516  -13.4572   19.2124 C   0  0  0  0  0  0  0  0  0  0  0  0
  -26.2803  -14.9778   21.4837 C   0  0  0  0  0  0  0  0  0  0  0  0
  -24.1621   -8.0796   21.2847 C   0  0  0  0  0  0  0  0  0  0  0  0
  -24.9987  -31.7914   23.2489 C   0  0  0  0  0  0  0  0  0  0  0  0
  -18.7082  -23.5448   26.1207 C   0  0  0  0  0  0  0  0  0  0  0  0
  -18.7505  -22.0506   26.0441 C   0  0  0  0  0  0  0  0  0  0  0  0
  -24.0089   -9.2078   22.2999 C   0  0  0  0  0  0  0  0  0  0  0  0
  -25.7809  -31.0991   22.1314 C   0  0  0  0  0  0  0  0  0  0  0  0
  -24.1901  -30.7928   24.0741 C   0  0  0  0  0  0  0  0  0  0  0  0
  -24.0771  -29.2299   22.1719 C   0  0  0  0  0  0  0  0  0  0  0  0
  -18.5162  -22.8578   24.7933 C   0  0  0  0  0  0  0  0  0  0  0  0
  -23.3069  -10.4199   21.6759 C   0  0  1  0  0  0  0  0  0  0  0  0
  -25.9579  -12.7756   20.3136 C   0  0  1  0  0  0  0  0  0  0  0  0
  -24.8641  -30.2029   21.2774 C   0  0  2  0  0  0  0  0  0  0  0  0
  -32.6495  -16.5653   21.2433 C   0  0  0  0  0  0  0  0  0  0  0  0
  -28.0546  -13.0113   24.4257 C   0  0  0  0  0  0  0  0  0  0  0  0
  -30.0687  -14.4952   24.5259 C   0  0  0  0  0  0  0  0  0  0  0  0
  -30.2037  -12.2886   23.3703 C   0  0  0  0  0  0  0  0  0  0  0  0
  -30.2070  -16.9444   18.3508 C   0  0  0  0  0  0  0  0  0  0  0  0
  -19.5542  -25.4382   23.8694 C   0  0  0  0  0  0  0  0  0  0  0  0
  -19.7817  -29.0431   22.6358 C   0  0  0  0  0  0  0  0  0  0  0  0
  -19.3531  -27.9066   23.5451 C   0  0  0  0  0  0  0  0  0  0  0  0
  -22.9287  -18.7343   22.1675 C   0  0  0  0  0  0  0  0  0  1  0  0
  -21.7255  -19.5759   22.5465 C   0  0  0  0  0  0  0  0  0  0  0  0
  -28.9165  -14.1772   22.2893 C   0  0  1  0  0  0  0  0  0  0  0  0
  -31.4954  -16.1577   20.3408 C   0  0  2  0  0  0  0  0  0  0  0  0
  -29.2871  -13.5019   23.6399 C   0  0  0  0  0  0  0  0  0  0  0  0
  -21.0736  -24.2795   22.4016 N   0  0  0  0  0  0  0  0  0  0  0  0
  -26.1242  -28.2514   20.4487 N   0  0  0  0  0  0  0  0  0  0  0  0
  -25.6410  -29.4792   20.1932 N   0  0  0  0  0  0  0  0  0  0  0  0
  -26.8472  -13.7012   21.0184 N   0  0  0  0  0  0  0  0  0  0  0  0
  -23.3406  -29.9751   23.2049 N   0  0  0  0  0  0  0  0  0  0  0  0
  -25.5134  -31.1475   18.5165 N   0  0  0  0  0  0  0  0  0  0  0  0
  -27.8765  -27.8517   16.5291 N   0  0  0  0  0  0  0  0  0  0  0  0
  -24.2296  -11.1683   20.8495 N   0  0  0  0  0  0  0  0  0  0  0  0
  -30.0656  -14.6273   21.5112 N   0  0  0  0  0  0  0  0  0  0  0  0
  -21.2201  -29.1604   22.5465 N   0  0  0  0  0  0  0  0  0  0  0  0
  -31.2972  -17.2254   19.3201 N   0  3  0  0  0  0  0  0  0  0  0  0
  -19.9282  -26.6264   23.0554 N   0  3  0  0  0  0  0  0  0  0  0  0
  -27.0086  -29.9547   16.2409 O   0  0  0  0  0  0  0  0  0  0  0  0
  -25.1897  -12.4693   22.5252 O   0  0  0  0  0  0  0  0  0  0  0  0
  -28.6299  -12.1984   21.0131 O   0  0  0  0  0  0  0  0  0  0  0  0
  -29.4412  -16.8579   21.4026 O   0  0  0  0  0  0  0  0  0  0  0  0
  -21.4057  -30.6047   24.3175 O   0  0  0  0  0  0  0  0  0  0  0  0
  -29.2881  -22.9719   18.8161 O   0  0  0  0  0  0  0  0  0  0  0  0
  -22.8339  -18.3802   20.7883 O   0  0  0  0  0  0  0  0  0  1  0  0
  -21.6952  -20.7385   21.7275 O   0  0  0  0  0  0  0  0  0  0  0  0
  -26.6159  -18.5165   20.6633 F   0  0  0  0  0  0  0  0  0  0  0  0
  -28.6611  -20.8866   17.1129 F   0  0  0  0  0  0  0  0  0  0  0  0
  1  2  1  0  0  0  0
  1  5  2  0  0  0  0
  2  6  2  0  0  0  0
  3  8  2  0  0  0  0
  3 17  1  0  0  0  0
  4  9  1  0  0  0  0
  4 17  2  0  0  0  0
  5 19  1  0  0  0  0
  6 21  1  0  0  0  0
  7 10  2  0  0  0  0
  7 20  1  0  0  0  0
  8 24  1  0  0  0  0
  9 24  2  0  0  0  0
 10 25  1  0  0  0  0
 11 12  2  0  0  0  0
 11 26  1  0  0  0  0
 12 28  1  0  0  0  0
 13 22  1  0  0  0  0
 13 25  2  0  0  0  0
 14 23  1  0  0  0  0
 14 27  2  0  0  0  0
 15 28  2  0  0  0  0
 15 29  1  0  0  0  0
 16 27  1  0  0  0  0
 16 66  2  0  0  0  0
 17 30  1  0  0  0  0
 18 30  1  0  0  0  0
 18 32  2  0  0  0  0
 18 33  1  0  0  0  0
 19 21  2  0  0  0  0
 19 38  1  0  0  0  0
 20 22  2  0  0  0  0
 20 39  1  0  0  0  0
 21 50  1  0  0  0  0
 22 40  1  0  0  0  0
 23 31  2  0  0  0  0
 23 49  1  0  0  0  0
 24 83  1  0  0  0  0
 25 84  1  0  0  0  0
 26 29  2  0  0  0  0
 26 83  1  0  0  0  0
 27 85  1  0  0  0  0
 28 86  1  0  0  0  0
 29 87  1  0  0  0  0
 30 67  2  0  0  0  0
 31 58  1  0  0  0  0
 31 66  1  0  0  0  0
 32 68  1  0  0  0  0
 32 71  1  0  0  0  0
 33 72  1  0  0  0  0
 33 78  2  0  0  0  0
 34 51  1  0  0  0  0
 34 73  1  0  0  0  0
 34 79  2  0  0  0  0
 35 63  1  0  0  0  0
 35 69  1  0  0  0  0
 35 80  2  0  0  0  0
 36 64  1  0  0  0  0
 36 74  1  0  0  0  0
 36 81  2  0  0  0  0
 37 70  1  0  0  0  0
 37 75  1  0  0  0  0
 37 82  2  0  0  0  0
 38 41  1  0  0  0  0
 39 51  1  0  0  0  0
 40 69  1  0  0  0  0
 41 45  1  0  0  0  0
 42 46  1  0  0  0  0
 42 47  1  0  0  0  0
 43 44  1  0  0  0  0
 43 49  1  0  0  0  0
 44 49  1  0  0  0  0
 45 50  1  0  0  0  0
 46 52  1  0  0  0  0
 47 70  1  0  0  0  0
 48 52  1  0  0  0  0
 48 70  1  0  0  0  0
 50 73  1  0  0  0  0
 51 69  1  0  0  0  0
 52 68  1  0  0  0  0
 53 64  1  0  0  0  0
 54 65  1  0  0  0  0
 55 65  1  0  0  0  0
 56 65  1  0  0  0  0
 57 76  1  0  0  0  0
 58 77  1  0  0  0  0
 59 60  1  0  0  0  0
 59 75  1  0  0  0  0
 60 77  1  0  0  0  0
 61 62  1  0  0  0  0
 61 84  1  0  0  0  0
 62 85  1  0  0  0  0
 63 65  1  0  0  0  0
 63 74  1  0  0  0  0
 64 76  1  0  0  0  0
 67 68  1  0  0  0  0
M  CHG  2  76   1  77   1
M  ISO  4  37 100  61 101  75 100  84 101
M  END
> <Batch ID>
0121

> <Smiles>
CNC(C)C(=O)NC(C(=O)N1Cc2cc([101O:1][101CH2:1]COc3cnc(CNCC[100NH:0][100C:0](=O)N4CCCC(n5nc(-c6ccc(Oc7ccc(F)cc7F)cc6)c(C(N)=O)c5N)C4)c(C4CC4)c3)ccc2CC1C(=O)NC1CCCc2ccccc21)C(C)(C)C

> <Shape>
0.268

> <Color>
0.060

> <Negative vol penalty>
0.000

$$$$

  -OEChem-04052320253D

 88 96  0     1  0  0  0  0  0999 V2000
  -28.0137  -31.6119   20.5747 C   0  0  0  0  0  0  0  0  0  0  0  0
  -28.2703  -30.2448   20.5514 C   0  0  0  0  0  0  0  0  0  0  0  0
  -29.4706  -23.1772   18.5641 C   0  0  0  0  0  0  0  0  0  0  0  0
  -28.6808  -23.1827   20.8473 C   0  0  0  0  0  0  0  0  0  0  0  0
  -26.7189  -32.0730   20.8087 C   0  0  0  0  0  0  0  0  0  0  0  0
  -27.2324  -29.3380   20.7631 C   0  0  0  0  0  0  0  0  0  0  0  0
  -25.0418  -22.8038   18.8079 C   0  0  0  0  0  0  0  0  0  0  0  0
  -29.3490  -24.5659   18.5186 C   0  0  0  0  0  0  0  0  0  0  0  0
  -28.5593  -24.5715   20.8019 C   0  0  0  0  0  0  0  0  0  0  0  0
  -24.6277  -21.5950   19.3656 C   0  0  0  0  0  0  0  0  0  0  0  0
  -29.5896  -28.1435   17.9200 C   0  0  0  0  0  0  0  0  0  0  0  0
  -30.6396  -28.8683   17.3563 C   0  0  0  0  0  0  0  0  0  0  0  0
  -22.4162  -22.5053   19.6814 C   0  0  0  0  0  0  0  0  0  0  0  0
  -32.1467  -27.9819   19.0237 C   0  0  0  0  0  0  0  0  0  0  0  0
  -29.1364  -22.4855   19.7284 C   0  0  0  0  0  0  0  0  0  0  0  0
  -30.3909  -20.3083   20.1686 C   0  0  0  0  0  0  0  0  0  0  0  0
  -25.6628  -31.1713   21.0138 C   0  0  0  0  0  0  0  0  0  0  0  0
  -24.1477  -23.8779   18.6926 C   0  0  0  0  0  0  0  0  0  0  0  0
  -25.9225  -29.7875   21.0014 C   0  0  0  0  0  0  0  0  0  0  0  0
  -22.8207  -23.7258   19.1196 C   0  0  0  0  0  0  0  0  0  0  0  0
  -28.8934  -25.2631   19.6376 C   0  0  0  0  0  0  0  0  0  0  0  0
  -23.3155  -21.4465   19.8051 C   0  0  0  0  0  0  0  0  0  0  0  0
  -29.8181  -27.3379   19.0356 C   0  0  0  0  0  0  0  0  0  0  0  0
  -31.9181  -28.7875   17.9081 C   0  0  0  0  0  0  0  0  0  0  0  0
  -31.0967  -27.2571   19.5874 C   0  0  0  0  0  0  0  0  0  0  0  0
  -29.2612  -21.0508   19.7758 C   0  0  0  0  0  0  0  0  0  0  0  0
  -30.0025  -18.9974   20.0382 C   0  0  0  0  0  0  0  0  0  0  0  0
  -31.6765  -20.7630   20.6117 C   0  0  0  0  0  0  0  0  0  0  0  0
  -23.0918  -13.5784   21.6222 C   0  0  0  0  0  0  0  0  0  0  0  0
  -24.0218  -26.8280   19.8692 C   0  0  0  0  0  0  0  0  0  0  0  0
  -21.4551  -27.0846   17.9023 C   0  0  0  0  0  0  0  0  0  0  0  0
  -18.9519  -25.5231   16.1870 C   0  0  0  0  0  0  0  0  0  0  0  0
  -25.9584  -15.2579   21.1930 C   0  0  0  0  0  0  0  0  0  0  0  0
  -24.2886  -31.7179   21.3098 C   0  0  0  0  0  0  0  0  0  0  0  0
  -24.6028  -25.1665   18.0643 C   0  0  0  0  0  0  0  0  0  0  0  0
  -21.8163  -24.8417   18.9996 C   0  0  0  0  0  0  0  0  0  0  0  0
  -23.1755  -30.6852   21.1527 C   0  0  0  0  0  0  0  0  0  0  0  0
  -25.6746  -12.1298   19.3761 C   0  0  0  0  0  0  0  0  0  0  0  0
  -25.9315  -16.9574   17.8578 C   0  0  0  0  0  0  0  0  0  0  0  0
  -23.5603  -29.3772   21.8366 C   0  0  0  0  0  0  0  0  0  0  0  0
  -24.8735  -11.2624   20.3394 C   0  0  0  0  0  0  0  0  0  0  0  0
  -26.8421  -18.1529   18.1339 C   0  0  0  0  0  0  0  0  0  0  0  0
  -25.2230  -16.4989   19.1267 C   0  0  0  0  0  0  0  0  0  0  0  0
  -25.2278  -13.5876   19.4242 C   0  0  0  0  0  0  0  0  0  0  0  0
  -27.0615  -17.3654   20.5349 C   0  0  0  0  0  0  0  0  0  0  0  0
  -24.8184  -28.7722   21.2020 C   0  0  1  0  0  0  0  0  0  0  0  0
  -24.5563  -13.3108   21.8234 C   0  0  1  0  0  0  0  0  0  0  0  0
  -23.7463  -26.3629   18.4673 C   0  0  1  0  0  0  0  0  0  0  0  0
  -24.9462  -11.8256   21.7633 C   0  0  1  0  0  0  0  0  0  0  0  0
  -27.8158  -17.8490   19.2853 C   0  0  2  0  0  0  0  0  0  0  0  0
  -16.9877  -26.0001   14.6998 C   0  0  0  0  0  0  0  0  0  0  0  0
  -26.0115   -9.3113   23.1641 C   0  0  0  0  0  0  0  0  0  0  0  0
  -23.6407   -8.7082   23.6921 C   0  0  0  0  0  0  0  0  0  0  0  0
  -19.8483  -28.0102   20.3254 C   0  0  0  0  0  0  0  0  0  0  0  0
  -17.7576  -27.5558   19.0252 C   0  0  0  0  0  0  0  0  0  0  0  0
  -19.3780  -29.2720   18.2180 C   0  0  0  0  0  0  0  0  0  0  0  0
  -20.1153  -23.9653   13.9557 C   0  0  0  0  0  0  0  0  0  0  0  0
  -22.3752  -14.2707   22.7698 C   0  0  0  0  0  0  0  0  0  0  0  0
  -24.1256  -10.9695   22.7293 C   0  0  0  0  0  0  0  0  0  0  0  0
  -22.3989  -15.7957   22.6817 C   0  0  0  0  0  0  0  0  0  0  0  0
  -21.8021  -16.3044   21.3753 C   0  0  0  0  0  0  0  0  0  0  0  0
  -21.4069  -18.4047   20.0826 C   0  0  0  0  0  0  0  0  0  0  0  0
  -21.5385  -19.9116   20.1822 C   0  0  0  0  0  0  0  0  0  1  0  0
  -19.9746  -26.8218   18.0368 C   0  0  1  0  0  0  0  0  0  0  0  0
  -18.4705  -25.6668   14.7545 C   0  0  2  0  0  0  0  0  0  0  0  0
  -24.5518   -9.4944   22.7464 C   0  0  0  0  0  0  0  0  0  0  0  0
  -19.2589  -27.8944   18.9055 C   0  0  0  0  0  0  0  0  0  0  0  0
  -28.2323  -20.2760   19.4223 N   0  0  0  0  0  0  0  0  0  0  0  0
  -28.7140  -19.0330   19.5924 N   0  0  0  0  0  0  0  0  0  0  0  0
  -22.3111  -26.0842   18.3842 N   0  0  0  0  0  0  0  0  0  0  0  0
  -26.1733  -16.2454   20.2175 N   0  0  0  0  0  0  0  0  0  0  0  0
  -25.2354  -14.1174   20.7987 N   0  0  0  0  0  0  0  0  0  0  0  0
  -30.6408  -17.8292   20.2626 N   0  0  0  0  0  0  0  0  0  0  0  0
  -31.9074  -22.1433   20.6874 N   0  0  0  0  0  0  0  0  0  0  0  0
  -24.4915  -28.1251   19.9495 N   0  0  0  0  0  0  0  0  0  0  0  0
  -19.4550  -26.7092   16.6782 N   0  0  0  0  0  0  0  0  0  0  0  0
  -18.6955  -24.3998   14.0029 N   0  3  0  0  0  0  0  0  0  0  0  0
  -21.9063  -17.7837   21.3397 N   0  3  0  0  0  0  0  0  0  0  0  0
  -32.5987  -19.9687   20.9153 O   0  0  0  0  0  0  0  0  0  0  0  0
  -22.5197  -13.2232   20.5931 O   0  0  0  0  0  0  0  0  0  0  0  0
  -23.8216  -26.0670   20.8086 O   0  0  0  0  0  0  0  0  0  0  0  0
  -21.8379  -28.1356   17.3822 O   0  0  0  0  0  0  0  0  0  0  0  0
  -18.8847  -24.4653   16.8093 O   0  0  0  0  0  0  0  0  0  0  0  0
  -26.4007  -15.3837   22.3419 O   0  0  0  0  0  0  0  0  0  0  0  0
  -28.7749  -26.6183   19.5937 O   0  0  0  0  0  0  0  0  0  0  0  0
  -22.9059  -20.2594   20.3543 O   0  0  0  0  0  0  0  0  0  1  0  0
  -32.9267  -29.4824   17.3657 F   0  0  0  0  0  0  0  0  0  0  0  0
  -31.3226  -26.4840   20.6584 F   0  0  0  0  0  0  0  0  0  0  0  0
  1  2  1  0  0  0  0
  1  5  2  0  0  0  0
  2  6  2  0  0  0  0
  3  8  2  0  0  0  0
  3 15  1  0  0  0  0
  4  9  1  0  0  0  0
  4 15  2  0  0  0  0
  5 17  1  0  0  0  0
  6 19  1  0  0  0  0
  7 10  2  0  0  0  0
  7 18  1  0  0  0  0
  8 21  1  0  0  0  0
  9 21  2  0  0  0  0
 10 22  1  0  0  0  0
 11 12  2  0  0  0  0
 11 23  1  0  0  0  0
 12 24  1  0  0  0  0
 13 20  1  0  0  0  0
 13 22  2  0  0  0  0
 14 24  2  0  0  0  0
 14 25  1  0  0  0  0
 15 26  1  0  0  0  0
 16 26  1  0  0  0  0
 16 27  2  0  0  0  0
 16 28  1  0  0  0  0
 17 19  2  0  0  0  0
 17 34  1  0  0  0  0
 18 20  2  0  0  0  0
 18 35  1  0  0  0  0
 19 46  1  0  0  0  0
 20 36  1  0  0  0  0
 21 85  1  0  0  0  0
 22 86  1  0  0  0  0
 23 25  2  0  0  0  0
 23 85  1  0  0  0  0
 24 87  1  0  0  0  0
 25 88  1  0  0  0  0
 26 68  2  0  0  0  0
 27 69  1  0  0  0  0
 27 73  1  0  0  0  0
 28 74  1  0  0  0  0
 28 79  2  0  0  0  0
 29 47  1  0  0  0  0
 29 58  1  0  0  0  0
 29 80  2  0  0  0  0
 30 48  1  0  0  0  0
 30 75  1  0  0  0  0
 30 81  2  0  0  0  0
 31 64  1  0  0  0  0
 31 70  1  0  0  0  0
 31 82  2  0  0  0  0
 32 65  1  0  0  0  0
 32 76  1  0  0  0  0
 32 83  2  0  0  0  0
 33 71  1  0  0  0  0
 33 72  1  0  0  0  0
 33 84  2  0  0  0  0
 34 37  1  0  0  0  0
 35 48  1  0  0  0  0
 36 70  1  0  0  0  0
 37 40  1  0  0  0  0
 38 41  1  0  0  0  0
 38 44  1  0  0  0  0
 39 42  1  0  0  0  0
 39 43  1  0  0  0  0
 40 46  1  0  0  0  0
 41 49  1  0  0  0  0
 42 50  1  0  0  0  0
 43 71  1  0  0  0  0
 44 72  1  0  0  0  0
 45 50  1  0  0  0  0
 45 71  1  0  0  0  0
 46 75  1  0  0  0  0
 47 49  1  0  0  0  0
 47 72  1  0  0  0  0
 48 70  1  0  0  0  0
 49 59  1  0  0  0  0
 50 69  1  0  0  0  0
 51 65  1  0  0  0  0
 52 66  1  0  0  0  0
 53 66  1  0  0  0  0
 54 67  1  0  0  0  0
 55 67  1  0  0  0  0
 56 67  1  0  0  0  0
 57 77  1  0  0  0  0
 58 60  1  0  0  0  0
 59 66  1  0  0  0  0
 60 61  1  0  0  0  0
 61 78  1  0  0  0  0
 62 63  1  0  0  0  0
 62 78  1  0  0  0  0
 63 86  1  0  0  0  0
 64 67  1  0  0  0  0
 64 76  1  0  0  0  0
 65 77  1  0  0  0  0
 68 69  1  0  0  0  0
M  CHG  2  77   1  78   1
M  ISO  4  33 100  63 101  72 100  86 101
M  END
> <Batch ID>
0121

> <Smiles>
CNC(C)C(=O)NC(C(=O)N1Cc2cc([101O:1][101CH2:1]CNCCCC(=O)C3C(CC(C)C)CCC[100N:0]3[100C:0](=O)N3CCCC(n4nc(-c5ccc(Oc6ccc(F)cc6F)cc5)c(C(N)=O)c4N)C3)ccc2CC1C(=O)NC1CCCc2ccccc21)C(C)(C)C

> <Shape>
0.211

> <Color>
0.071

> <Negative vol penalty>
0.000

$$$$

  -OEChem-04052320253D

 86 94  0     1  0  0  0  0  0999 V2000
  -16.5082  -29.4243   23.2360 C   0  0  0  0  0  0  0  0  0  0  0  0
  -17.4163  -29.8012   22.2518 C   0  0  0  0  0  0  0  0  0  0  0  0
  -26.3114  -24.7682   18.0935 C   0  0  0  0  0  0  0  0  0  0  0  0
  -26.8139  -25.6893   17.1745 C   0  0  0  0  0  0  0  0  0  0  0  0
  -24.4426  -12.8812   19.7405 C   0  0  0  0  0  0  0  0  0  0  0  0
  -25.8429  -13.3045   21.6632 C   0  0  0  0  0  0  0  0  0  0  0  0
  -16.9683  -29.0025   24.4827 C   0  0  0  0  0  0  0  0  0  0  0  0
  -18.7851  -29.7576   22.5141 C   0  0  0  0  0  0  0  0  0  0  0  0
  -25.0539  -28.5239   19.2741 C   0  0  0  0  0  0  0  0  0  0  0  0
  -27.1870  -24.0099   18.8708 C   0  0  0  0  0  0  0  0  0  0  0  0
  -28.1919  -25.8522   17.0326 C   0  0  0  0  0  0  0  0  0  0  0  0
  -24.7207  -11.5178   19.8380 C   0  0  0  0  0  0  0  0  0  0  0  0
  -26.1211  -11.9411   21.7608 C   0  0  0  0  0  0  0  0  0  0  0  0
  -26.3076  -29.1072   19.0964 C   0  0  0  0  0  0  0  0  0  0  0  0
  -24.7740   -7.8832   19.8000 C   0  0  0  0  0  0  0  0  0  0  0  0
  -23.7075   -6.9931   19.6741 C   0  0  0  0  0  0  0  0  0  0  0  0
  -26.9896  -28.2863   21.2597 C   0  0  0  0  0  0  0  0  0  0  0  0
  -22.6372   -8.0047   21.5894 C   0  0  0  0  0  0  0  0  0  0  0  0
  -25.0037  -13.7745   20.6530 C   0  0  0  0  0  0  0  0  0  0  0  0
  -23.6614  -15.8819   21.1678 C   0  0  0  0  0  0  0  0  0  0  0  0
  -18.3438  -28.9444   24.7572 C   0  0  0  0  0  0  0  0  0  0  0  0
  -24.7544  -27.8254   20.4527 C   0  0  0  0  0  0  0  0  0  0  0  0
  -19.2641  -29.3358   23.7661 C   0  0  0  0  0  0  0  0  0  0  0  0
  -25.7322  -27.6928   21.4489 C   0  0  0  0  0  0  0  0  0  0  0  0
  -28.5651  -24.1728   18.7290 C   0  0  0  0  0  0  0  0  0  0  0  0
  -29.0676  -25.0939   17.8099 C   0  0  0  0  0  0  0  0  0  0  0  0
  -25.5599  -11.0478   20.8482 C   0  0  0  0  0  0  0  0  0  0  0  0
  -27.2747  -28.9910   20.0905 C   0  0  0  0  0  0  0  0  0  0  0  0
  -24.7722   -8.8340   20.8206 C   0  0  0  0  0  0  0  0  0  0  0  0
  -22.6391   -7.0538   20.5687 C   0  0  0  0  0  0  0  0  0  0  0  0
  -23.7037   -8.8947   21.7153 C   0  0  0  0  0  0  0  0  0  0  0  0
  -24.7172  -15.1830   20.5525 C   0  0  0  0  0  0  0  0  0  0  0  0
  -23.8279  -17.1832   20.7612 C   0  0  0  0  0  0  0  0  0  0  0  0
  -22.6231  -15.3980   22.0301 C   0  0  0  0  0  0  0  0  0  0  0  0
  -22.6395  -28.1861   22.7980 C   0  0  0  0  0  0  0  0  0  0  0  0
  -23.8315  -25.3352   23.7851 C   0  0  0  0  0  0  0  0  0  0  0  0
  -26.4296  -23.1225   23.7777 C   0  0  0  0  0  0  0  0  0  0  0  0
  -28.6135  -20.1883   19.0516 C   0  0  0  0  0  0  0  0  0  0  0  0
  -18.7920  -28.5269   26.1354 C   0  0  0  0  0  0  0  0  0  0  0  0
  -23.4063  -27.1791   20.6177 C   0  0  0  0  0  0  0  0  0  0  0  0
  -25.4676  -26.9360   22.7239 C   0  0  0  0  0  0  0  0  0  0  0  0
  -20.2701  -28.1523   26.2078 C   0  0  0  0  0  0  0  0  0  0  0  0
  -25.5691  -19.7806   17.1377 C   0  0  0  0  0  0  0  0  0  0  0  0
  -21.1211  -29.1963   25.4917 C   0  0  0  0  0  0  0  0  0  0  0  0
  -24.9056  -18.6110   17.8672 C   0  0  0  0  0  0  0  0  0  0  0  0
  -27.0834  -19.6048   17.0739 C   0  0  0  0  0  0  0  0  0  0  0  0
  -27.0764  -18.2457   19.1298 C   0  0  0  0  0  0  0  0  0  0  0  0
  -20.7574  -29.2785   24.0043 C   0  0  1  0  0  0  0  0  0  0  0  0
  -23.0379  -26.9295   22.0769 C   0  0  1  0  0  0  0  0  0  0  0  0
  -25.5469  -18.3752   19.2475 C   0  0  2  0  0  0  0  0  0  0  0  0
  -27.6733  -20.9900   24.2288 C   0  0  0  0  0  0  0  0  0  0  0  0
  -31.0692  -31.0347   18.9316 C   0  0  0  0  0  0  0  0  0  0  0  0
  -24.3318  -26.6274   26.5035 C   0  0  0  0  0  0  0  0  0  0  0  0
  -25.8503  -24.7149   27.0552 C   0  0  0  0  0  0  0  0  0  0  0  0
  -23.4326  -24.2961   26.6063 C   0  0  0  0  0  0  0  0  0  0  0  0
  -25.4413  -21.8816   21.2792 C   0  0  0  0  0  0  0  0  0  0  0  0
  -29.4835  -23.3510   19.5727 C   0  0  0  0  0  0  0  0  0  0  0  0
  -30.5457  -25.2861   17.6391 C   0  0  0  0  0  0  0  0  0  0  0  0
  -31.1362  -28.5913   19.4902 C   0  0  0  0  0  0  0  0  0  0  0  0
  -30.1000  -22.1623   18.8272 C   0  0  0  0  0  0  0  0  0  0  0  0
  -30.6473  -27.1610   19.2863 C   0  0  0  0  0  0  0  0  0  0  0  0
  -28.9842  -29.6683   18.5822 C   0  0  0  0  0  0  0  0  0  1  0  0
  -24.9624  -24.9040   24.6874 C   0  0  1  0  0  0  0  0  0  0  0  0
  -26.4760  -21.6242   23.5380 C   0  0  2  0  0  0  0  0  0  0  0  0
  -30.5181  -29.6534   18.5555 C   0  0  1  0  0  0  0  0  0  0  0  0
  -24.6489  -25.1516   26.1900 C   0  0  0  0  0  0  0  0  0  0  0  0
  -25.4967  -15.9748   19.8111 N   0  0  0  0  0  0  0  0  0  0  0  0
  -24.9301  -17.1845   19.9579 N   0  0  0  0  0  0  0  0  0  0  0  0
  -24.1322  -26.3273   22.8411 N   0  0  0  0  0  0  0  0  0  0  0  0
  -27.6334  -19.4032   18.4219 N   0  0  0  0  0  0  0  0  0  0  0  0
  -23.1374  -18.3149   21.0158 N   0  0  0  0  0  0  0  0  0  0  0  0
  -22.5996  -14.0329   22.3467 N   0  0  0  0  0  0  0  0  0  0  0  0
  -21.3440  -28.1723   23.2786 N   0  0  0  0  0  0  0  0  0  0  0  0
  -25.2399  -23.5105   24.3566 N   0  0  0  0  0  0  0  0  0  0  0  0
  -29.0940  -21.2611   18.3108 N   0  0  0  0  0  0  0  0  0  0  0  0
  -26.5682  -21.3357   22.0788 N   0  3  0  0  0  0  0  0  0  0  0  0
  -30.9906  -26.6776   17.9290 N   0  3  0  0  0  0  0  0  0  0  0  0
  -21.7326  -16.1509   22.4924 O   0  0  0  0  0  0  0  0  0  0  0  0
  -23.4481  -29.0998   22.9114 O   0  0  0  0  0  0  0  0  0  0  0  0
  -22.7241  -24.8061   23.9083 O   0  0  0  0  0  0  0  0  0  0  0  0
  -27.3577  -23.8730   23.4845 O   0  0  0  0  0  0  0  0  0  0  0  0
  -29.0264  -19.9536   20.1925 O   0  0  0  0  0  0  0  0  0  0  0  0
  -25.8314   -9.7175   20.9438 O   0  0  0  0  0  0  0  0  0  0  0  0
  -28.4991  -29.5600   19.9198 O   0  0  0  0  0  0  0  0  0  1  0  0
  -21.6142   -6.2000   20.4468 F   0  0  0  0  0  0  0  0  0  0  0  0
  -23.6958   -9.8068   22.6971 F   0  0  0  0  0  0  0  0  0  0  0  0
  1  2  1  0  0  0  0
  1  7  2  0  0  0  0
  2  8  2  0  0  0  0
  3  4  1  0  0  0  0
  3 10  2  0  0  0  0
  4 11  2  0  0  0  0
  5 12  2  0  0  0  0
  5 19  1  0  0  0  0
  6 13  1  0  0  0  0
  6 19  2  0  0  0  0
  7 21  1  0  0  0  0
  8 23  1  0  0  0  0
  9 14  2  0  0  0  0
  9 22  1  0  0  0  0
 10 25  1  0  0  0  0
 11 26  1  0  0  0  0
 12 27  1  0  0  0  0
 13 27  2  0  0  0  0
 14 28  1  0  0  0  0
 15 16  2  0  0  0  0
 15 29  1  0  0  0  0
 16 30  1  0  0  0  0
 17 24  1  0  0  0  0
 17 28  2  0  0  0  0
 18 30  2  0  0  0  0
 18 31  1  0  0  0  0
 19 32  1  0  0  0  0
 20 32  1  0  0  0  0
 20 33  2  0  0  0  0
 20 34  1  0  0  0  0
 21 23  2  0  0  0  0
 21 39  1  0  0  0  0
 22 24  2  0  0  0  0
 22 40  1  0  0  0  0
 23 48  1  0  0  0  0
 24 41  1  0  0  0  0
 25 26  2  0  0  0  0
 25 57  1  0  0  0  0
 26 58  1  0  0  0  0
 27 83  1  0  0  0  0
 28 84  1  0  0  0  0
 29 31  2  0  0  0  0
 29 83  1  0  0  0  0
 30 85  1  0  0  0  0
 31 86  1  0  0  0  0
 32 67  2  0  0  0  0
 33 68  1  0  0  0  0
 33 71  1  0  0  0  0
 34 72  1  0  0  0  0
 34 78  2  0  0  0  0
 35 49  1  0  0  0  0
 35 73  1  0  0  0  0
 35 79  2  0  0  0  0
 36 63  1  0  0  0  0
 36 69  1  0  0  0  0
 36 80  2  0  0  0  0
 37 64  1  0  0  0  0
 37 74  1  0  0  0  0
 37 81  2  0  0  0  0
 38 70  1  0  0  0  0
 38 75  1  0  0  0  0
 38 82  2  0  0  0  0
 39 42  1  0  0  0  0
 40 49  1  0  0  0  0
 41 69  1  0  0  0  0
 42 44  1  0  0  0  0
 43 45  1  0  0  0  0
 43 46  1  0  0  0  0
 44 48  1  0  0  0  0
 45 50  1  0  0  0  0
 46 70  1  0  0  0  0
 47 50  1  0  0  0  0
 47 70  1  0  0  0  0
 48 73  1  0  0  0  0
 49 69  1  0  0  0  0
 50 68  1  0  0  0  0
 51 64  1  0  0  0  0
 52 65  1  0  0  0  0
 53 66  1  0  0  0  0
 54 66  1  0  0  0  0
 55 66  1  0  0  0  0
 56 76  1  0  0  0  0
 57 60  1  0  0  0  0
 58 77  1  0  0  0  0
 59 61  1  0  0  0  0
 59 65  1  0  0  0  0
 60 75  1  0  0  0  0
 61 77  1  0  0  0  0
 62 65  1  0  0  0  0
 62 84  1  0  0  0  0
 63 66  1  0  0  0  0
 63 74  1  0  0  0  0
 64 76  1  0  0  0  0
 67 68  1  0  0  0  0
M  CHG  2  76   1  77   1
M  ISO  4  38 100  62 101  75 100  84 101
M  END
> <Batch ID>
0121

> <Smiles>
CNC(C)C(=O)NC(C(=O)N1Cc2cc([101O:1][101CH2:1]C(C)CCNCc3ccccc3CC[100NH:0][100C:0](=O)N3CCCC(n4nc(-c5ccc(Oc6ccc(F)cc6F)cc5)c(C(N)=O)c4N)C3)ccc2CC1C(=O)NC1CCCc2ccccc21)C(C)(C)C

> <Shape>
0.206

> <Color>
0.099

> <Negative vol penalty>
0.000

$$$$

  -OEChem-04052320253D

 87 95  0     1  0  0  0  0  0999 V2000
  -28.4693  -21.3731   21.1061 C   0  0  0  0  0  0  0  0  0  0  0  0
  -27.7559  -22.4141   20.5228 C   0  0  0  0  0  0  0  0  0  0  0  0
  -26.6800  -12.3729   21.5189 C   0  0  0  0  0  0  0  0  0  0  0  0
  -26.0478  -13.5477   19.5047 C   0  0  0  0  0  0  0  0  0  0  0  0
  -28.9941  -21.5251   22.3878 C   0  0  0  0  0  0  0  0  0  0  0  0
  -27.5771  -23.6116   21.2162 C   0  0  0  0  0  0  0  0  0  0  0  0
  -25.4829  -27.3248   18.7605 C   0  0  0  0  0  0  0  0  0  0  0  0
  -26.0127  -11.2353   21.0649 C   0  0  0  0  0  0  0  0  0  0  0  0
  -25.3805  -12.4101   19.0506 C   0  0  0  0  0  0  0  0  0  0  0  0
  -24.1293  -27.3395   18.4272 C   0  0  0  0  0  0  0  0  0  0  0  0
  -24.1701   -8.1354   20.5970 C   0  0  0  0  0  0  0  0  0  0  0  0
  -23.3569   -7.4540   21.5026 C   0  0  0  0  0  0  0  0  0  0  0  0
  -23.7121  -28.9040   20.2153 C   0  0  0  0  0  0  0  0  0  0  0  0
  -22.0111   -9.4401   21.7883 C   0  0  0  0  0  0  0  0  0  0  0  0
  -26.6976  -13.5291   20.7388 C   0  0  0  0  0  0  0  0  0  0  0  0
  -28.7335  -15.0466   20.9838 C   0  0  0  0  0  0  0  0  0  0  0  0
  -28.8106  -22.7209   23.1014 C   0  0  0  0  0  0  0  0  0  0  0  0
  -25.9603  -28.0925   19.8325 C   0  0  0  0  0  0  0  0  0  0  0  0
  -28.1196  -23.7931   22.5013 C   0  0  0  0  0  0  0  0  0  0  0  0
  -25.0727  -28.8993   20.5586 C   0  0  0  0  0  0  0  0  0  0  0  0
  -25.3629  -11.2539   19.8308 C   0  0  0  0  0  0  0  0  0  0  0  0
  -23.2431  -28.1269   19.1564 C   0  0  0  0  0  0  0  0  0  0  0  0
  -23.9039   -9.4691   20.2872 C   0  0  0  0  0  0  0  0  0  0  0  0
  -22.2774   -8.1064   22.0982 C   0  0  0  0  0  0  0  0  0  0  0  0
  -22.8244  -10.1214   20.8827 C   0  0  0  0  0  0  0  0  0  0  0  0
  -27.3863  -14.7047   21.2075 C   0  0  0  0  0  0  0  0  0  0  0  0
  -28.8954  -16.2467   21.6319 C   0  0  0  0  0  0  0  0  0  0  0  0
  -29.7478  -14.3423   20.2552 C   0  0  0  0  0  0  0  0  0  0  0  0
  -27.3832  -27.4416   22.5993 C   0  0  0  0  0  0  0  0  0  0  0  0
  -27.6259  -30.6708   22.7882 C   0  0  0  0  0  0  0  0  0  0  0  0
  -26.4398  -33.7259   21.8364 C   0  0  0  0  0  0  0  0  0  0  0  0
  -25.0647  -20.5248   23.0027 C   0  0  0  0  0  0  0  0  0  0  0  0
  -29.4067  -22.8344   24.4824 C   0  0  0  0  0  0  0  0  0  0  0  0
  -27.4278  -28.0863   20.1625 C   0  0  0  0  0  0  0  0  0  0  0  0
  -25.5381  -29.7574   21.7056 C   0  0  0  0  0  0  0  0  0  0  0  0
  -28.7909  -23.9615   25.3050 C   0  0  0  0  0  0  0  0  0  0  0  0
  -27.1994  -18.7622   25.3337 C   0  0  0  0  0  0  0  0  0  0  0  0
  -28.7712  -25.2473   24.4921 C   0  0  0  0  0  0  0  0  0  0  0  0
  -17.9686  -26.6711   22.0056 C   0  0  0  0  0  0  0  0  0  0  0  0
  -27.6167  -17.5463   24.5044 C   0  0  0  0  0  0  0  0  0  0  0  0
  -18.6706  -25.4356   22.5633 C   0  0  0  0  0  0  0  0  0  0  0  0
  -20.3564  -25.5471   20.6868 C   0  0  0  0  0  0  0  0  0  0  0  0
  -25.7488  -19.1474   25.0587 C   0  0  0  0  0  0  0  0  0  0  0  0
  -25.8561  -18.1856   22.7922 C   0  0  0  0  0  0  0  0  0  0  0  0
  -27.8864  -25.0937   23.2485 C   0  0  1  0  0  0  0  0  0  0  0  0
  -27.7191  -28.5108   21.5985 C   0  0  1  0  0  0  0  0  0  0  0  0
  -18.1560  -26.8050   20.4836 C   0  0  2  0  0  0  0  0  0  0  0  0
  -19.6598  -26.7936   20.1092 C   0  0  2  0  0  0  0  0  0  0  0  0
  -27.3197  -17.7599   23.0083 C   0  0  2  0  0  0  0  0  0  0  0  0
  -20.1488  -25.4450   22.1947 C   0  0  2  0  0  0  0  0  0  0  0  0
  -26.8183  -36.1820   22.1852 C   0  0  0  0  0  0  0  0  0  0  0  0
  -15.9435  -27.9739   20.2777 C   0  0  0  0  0  0  0  0  0  0  0  0
  -18.0377  -29.3071   20.6529 C   0  0  0  0  0  0  0  0  0  0  0  0
  -19.2777  -25.6190   17.9234 C   0  0  0  0  0  0  0  0  0  0  0  0
  -26.2870  -30.4862   25.5237 C   0  0  0  0  0  0  0  0  0  0  0  0
  -25.8364  -32.9454   25.3917 C   0  0  0  0  0  0  0  0  0  0  0  0
  -28.1863  -32.1084   25.3992 C   0  0  0  0  0  0  0  0  0  0  0  0
  -27.0344  -34.1594   18.9698 C   0  0  0  0  0  0  0  0  0  0  0  0
  -22.7687  -22.9035   23.3020 C   0  0  0  0  0  0  0  0  0  0  0  0
  -24.2912  -22.8538   23.3696 C   0  0  0  0  0  0  0  0  0  0  0  0
  -22.2578  -24.2340   22.7640 C   0  0  0  0  0  0  0  0  0  0  0  0
  -21.3785  -26.9538   18.2604 C   0  0  0  0  0  0  0  0  0  1  0  0
  -26.7594  -31.7776   23.3385 C   0  0  1  0  0  0  0  0  0  0  0  0
  -27.1492  -34.9688   21.3300 C   0  0  2  0  0  0  0  0  0  0  0  0
  -17.4397  -28.0674   19.9951 C   0  0  0  0  0  0  0  0  0  0  0  0
  -19.8885  -26.8466   18.5959 C   0  0  2  0  0  0  0  0  0  0  0  0
  -26.7579  -31.8119   24.8930 C   0  0  0  0  0  0  0  0  0  0  0  0
  -26.7385  -15.6141   21.9406 N   0  0  0  0  0  0  0  0  0  0  0  0
  -27.6827  -16.5391   22.1832 N   0  0  0  0  0  0  0  0  0  0  0  0
  -26.9812  -29.7123   21.9935 N   0  0  0  0  0  0  0  0  0  0  0  0
  -25.5374  -19.3543   23.6191 N   0  0  0  0  0  0  0  0  0  0  0  0
  -29.9554  -17.0697   21.7783 N   0  0  0  0  0  0  0  0  0  0  0  0
  -29.4117  -13.1234   19.6506 N   0  0  0  0  0  0  0  0  0  0  0  0
  -28.0587  -26.2526   22.4005 N   0  0  0  0  0  0  0  0  0  0  0  0
  -27.2266  -33.0106   22.7142 N   0  0  0  0  0  0  0  0  0  0  0  0
  -24.7797  -21.5830   23.8569 N   0  0  0  0  0  0  0  0  0  0  0  0
  -20.7739  -24.1869   22.6828 N   0  3  0  0  0  0  0  0  0  0  0  0
  -26.7453  -35.2597   19.9253 N   0  3  0  0  0  0  0  0  0  0  0  0
  -30.9219  -14.7730   20.1574 O   0  0  0  0  0  0  0  0  0  0  0  0
  -26.5724  -27.6783   23.4872 O   0  0  0  0  0  0  0  0  0  0  0  0
  -28.8318  -30.6610   23.0478 O   0  0  0  0  0  0  0  0  0  0  0  0
  -25.3001  -33.4221   21.4909 O   0  0  0  0  0  0  0  0  0  0  0  0
  -24.9130  -20.6218   21.7801 O   0  0  0  0  0  0  0  0  0  0  0  0
  -24.7118  -10.1439   19.3874 O   0  0  0  0  0  0  0  0  0  0  0  0
  -21.9212  -28.1426   18.8335 O   0  0  0  0  0  0  0  0  0  1  0  0
  -21.4956   -7.4515   22.9665 F   0  0  0  0  0  0  0  0  0  0  0  0
  -22.5630  -11.4023   20.5881 F   0  0  0  0  0  0  0  0  0  0  0  0
  1  2  1  0  0  0  0
  1  5  2  0  0  0  0
  2  6  2  0  0  0  0
  3  8  2  0  0  0  0
  3 15  1  0  0  0  0
  4  9  1  0  0  0  0
  4 15  2  0  0  0  0
  5 17  1  0  0  0  0
  6 19  1  0  0  0  0
  7 10  2  0  0  0  0
  7 18  1  0  0  0  0
  8 21  1  0  0  0  0
  9 21  2  0  0  0  0
 10 22  1  0  0  0  0
 11 12  2  0  0  0  0
 11 23  1  0  0  0  0
 12 24  1  0  0  0  0
 13 20  1  0  0  0  0
 13 22  2  0  0  0  0
 14 24  2  0  0  0  0
 14 25  1  0  0  0  0
 15 26  1  0  0  0  0
 16 26  1  0  0  0  0
 16 27  2  0  0  0  0
 16 28  1  0  0  0  0
 17 19  2  0  0  0  0
 17 33  1  0  0  0  0
 18 20  2  0  0  0  0
 18 34  1  0  0  0  0
 19 45  1  0  0  0  0
 20 35  1  0  0  0  0
 21 84  1  0  0  0  0
 22 85  1  0  0  0  0
 23 25  2  0  0  0  0
 23 84  1  0  0  0  0
 24 86  1  0  0  0  0
 25 87  1  0  0  0  0
 26 68  2  0  0  0  0
 27 69  1  0  0  0  0
 27 72  1  0  0  0  0
 28 73  1  0  0  0  0
 28 79  2  0  0  0  0
 29 46  1  0  0  0  0
 29 74  1  0  0  0  0
 29 80  2  0  0  0  0
 30 63  1  0  0  0  0
 30 70  1  0  0  0  0
 30 81  2  0  0  0  0
 31 64  1  0  0  0  0
 31 75  1  0  0  0  0
 31 82  2  0  0  0  0
 32 71  1  0  0  0  0
 32 76  1  0  0  0  0
 32 83  2  0  0  0  0
 33 36  1  0  0  0  0
 34 46  1  0  0  0  0
 35 70  1  0  0  0  0
 36 38  1  0  0  0  0
 37 40  1  0  0  0  0
 37 43  1  0  0  0  0
 38 45  1  0  0  0  0
 39 41  1  0  0  0  0
 39 47  1  0  0  0  0
 40 49  1  0  0  0  0
 41 50  1  0  0  0  0
 42 48  1  0  0  0  0
 42 50  1  0  0  0  0
 43 71  1  0  0  0  0
 44 49  1  0  0  0  0
 44 71  1  0  0  0  0
 45 74  1  0  0  0  0
 46 70  1  0  0  0  0
 47 48  1  0  0  0  0
 47 65  1  0  0  0  0
 48 66  1  0  0  0  0
 49 69  1  0  0  0  0
 50 77  1  0  0  0  0
 51 64  1  0  0  0  0
 52 65  1  0  0  0  0
 53 65  1  0  0  0  0
 54 66  1  0  0  0  0
 55 67  1  0  0  0  0
 56 67  1  0  0  0  0
 57 67  1  0  0  0  0
 58 78  1  0  0  0  0
 59 60  1  0  0  0  0
 59 61  1  0  0  0  0
 60 76  1  0  0  0  0
 61 77  1  0  0  0  0
 62 66  1  0  0  0  0
 62 85  1  0  0  0  0
 63 67  1  0  0  0  0
 63 75  1  0  0  0  0
 64 78  1  0  0  0  0
 68 69  1  0  0  0  0
M  CHG  2  77   1  78   1
M  ISO  4  32 100  62 101  76 100  85 101
M  END
> <Batch ID>
0121

> <Smiles>
CNC(C)C(=O)NC(C(=O)N1Cc2cc([101O:1][101CH2:1]C(C)C3CC(NCCC[100NH:0][100C:0](=O)N4CCCC(n5nc(-c6ccc(Oc7ccc(F)cc7F)cc6)c(C(N)=O)c5N)C4)CCC3C(C)C)ccc2CC1C(=O)NC1CCCc2ccccc21)C(C)(C)C

> <Shape>
0.246

> <Color>
0.055

> <Negative vol penalty>
0.000

$$$$

  -OEChem-04052320253D

 87 96  0     1  0  0  0  0  0999 V2000
  -26.7539  -39.2397   19.4143 C   0  0  0  0  0  0  0  0  0  0  0  0
  -27.4661  -38.0996   19.0561 C   0  0  0  0  0  0  0  0  0  0  0  0
  -24.0254   -9.4491   20.0111 C   0  0  0  0  0  0  0  0  0  0  0  0
  -24.5518   -9.8376   22.3369 C   0  0  0  0  0  0  0  0  0  0  0  0
  -26.2064  -39.3455   20.6921 C   0  0  0  0  0  0  0  0  0  0  0  0
  -27.6321  -37.0649   19.9761 C   0  0  0  0  0  0  0  0  0  0  0  0
  -27.8356  -31.0640   18.7706 C   0  0  0  0  0  0  0  0  0  0  0  0
  -23.6293   -8.1474   20.3182 C   0  0  0  0  0  0  0  0  0  0  0  0
  -24.1557   -8.5359   22.6440 C   0  0  0  0  0  0  0  0  0  0  0  0
  -28.8974  -30.1733   18.6186 C   0  0  0  0  0  0  0  0  0  0  0  0
  -21.2584   -6.8617   23.1165 C   0  0  0  0  0  0  0  0  0  0  0  0
  -20.4485   -6.6798   24.2374 C   0  0  0  0  0  0  0  0  0  0  0  0
  -28.6694  -29.5167   20.9286 C   0  0  0  0  0  0  0  0  0  0  0  0
  -27.4448  -20.5677   21.9326 C   0  0  0  0  0  0  0  0  0  0  0  0
  -22.1307   -5.2517   25.2212 C   0  0  0  0  0  0  0  0  0  0  0  0
  -29.3880  -19.3434   20.4593 C   0  0  0  0  0  0  0  0  0  0  0  0
  -24.4867  -10.2942   21.0205 C   0  0  0  0  0  0  0  0  0  0  0  0
  -24.0906  -12.7930   20.6936 C   0  0  0  0  0  0  0  0  0  0  0  0
  -26.3575  -38.3075   21.6250 C   0  0  0  0  0  0  0  0  0  0  0  0
  -27.1888  -31.1959   20.0078 C   0  0  0  0  0  0  0  0  0  0  0  0
  -27.0872  -37.1575   21.2681 C   0  0  0  0  0  0  0  0  0  0  0  0
  -27.5981  -30.4079   21.0930 C   0  0  0  0  0  0  0  0  0  0  0  0
  -27.6485  -19.1997   22.0749 C   0  0  0  0  0  0  0  0  0  0  0  0
  -28.6366  -18.5682   21.3278 C   0  0  0  0  0  0  0  0  0  0  0  0
  -23.6944   -7.6908   21.6346 C   0  0  0  0  0  0  0  0  0  0  0  0
  -29.3163  -29.4016   19.6984 C   0  0  0  0  0  0  0  0  0  0  0  0
  -22.5045   -6.2385   23.0479 C   0  0  0  0  0  0  0  0  0  0  0  0
  -20.8846   -5.8748   25.2897 C   0  0  0  0  0  0  0  0  0  0  0  0
  -22.9406   -5.4336   24.1002 C   0  0  0  0  0  0  0  0  0  0  0  0
  -24.8965  -11.6388   20.7038 C   0  0  0  0  0  0  0  0  0  0  0  0
  -28.2497  -21.2535   21.0372 C   0  0  0  0  0  0  0  0  0  0  0  0
  -24.9454  -13.8054   20.3319 C   0  0  0  0  0  0  0  0  0  0  0  0
  -22.6942  -12.9371   20.9852 C   0  0  0  0  0  0  0  0  0  0  0  0
  -26.7836  -33.5669   22.0857 C   0  0  0  0  0  0  0  0  0  0  0  0
  -24.8669  -31.4144   23.5742 C   0  0  0  0  0  0  0  0  0  0  0  0
  -24.0534  -28.1438   24.1109 C   0  0  0  0  0  0  0  0  0  0  0  0
  -29.8378  -16.4312   20.7471 C   0  0  0  0  0  0  0  0  0  0  0  0
  -25.7880  -38.4875   23.0099 C   0  0  0  0  0  0  0  0  0  0  0  0
  -26.0277  -32.1418   20.1483 C   0  0  0  0  0  0  0  0  0  0  0  0
  -26.9237  -30.4972   22.4368 C   0  0  0  0  0  0  0  0  0  0  0  0
  -25.6894  -37.1862   23.8019 C   0  0  0  0  0  0  0  0  0  0  0  0
  -29.6776  -13.6396   18.5430 C   0  0  0  0  0  0  0  0  0  0  0  0
  -26.9863  -36.3915   23.6865 C   0  0  0  0  0  0  0  0  0  0  0  0
  -28.3532  -12.9651   18.9079 C   0  0  0  0  0  0  0  0  0  0  0  0
  -30.1867  -23.7056   20.6727 C   0  0  0  0  0  0  0  0  0  0  0  0
  -28.1922  -24.4501   19.3323 C   0  0  0  0  0  0  0  0  0  0  0  0
  -30.3810  -14.2106   19.7731 C   0  0  0  0  0  0  0  0  0  0  0  0
  -28.2352  -14.4311   20.9631 C   0  0  0  0  0  0  0  0  0  0  0  0
  -31.0964  -24.5210   19.7670 C   0  0  0  0  0  0  0  0  0  0  0  0
  -29.1064  -25.2639   18.4298 C   0  0  0  0  0  0  0  0  0  0  0  0
  -27.2677  -36.0032   22.2300 C   0  0  1  0  0  0  0  0  0  0  0  0
  -25.7757  -32.5683   21.5912 C   0  0  1  0  0  0  0  0  0  0  0  0
  -27.4587  -13.8975   19.7482 C   0  0  2  0  0  0  0  0  0  0  0  0
  -28.9208  -23.2581   19.9478 C   0  0  0  0  0  0  0  0  0  0  0  0
  -26.7954  -18.4352   23.0333 C   0  0  0  0  0  0  0  0  0  0  0  0
  -22.4663  -26.6959   25.4078 C   0  0  0  0  0  0  0  0  0  0  0  0
  -26.4908  -31.9095   26.1095 C   0  0  0  0  0  0  0  0  0  0  0  0
  -25.5152  -29.8092   27.0610 C   0  0  0  0  0  0  0  0  0  0  0  0
  -24.0236  -31.7198   26.4714 C   0  0  0  0  0  0  0  0  0  0  0  0
  -22.8910  -27.0038   21.6394 C   0  0  0  0  0  0  0  0  0  0  0  0
  -31.2098  -26.6037   18.3996 C   0  0  0  0  0  0  0  0  0  0  0  0
  -30.5422  -27.9576   18.2604 C   0  0  0  0  0  0  0  0  0  1  0  0
  -25.0699  -30.3480   24.6233 C   0  0  1  0  0  0  0  0  0  0  0  0
  -22.7178  -27.4225   24.0957 C   0  0  2  0  0  0  0  0  0  0  0  0
  -25.2890  -30.9461   26.0416 C   0  0  0  0  0  0  0  0  0  0  0  0
  -29.2194  -20.6745   20.2941 N   0  0  0  0  0  0  0  0  0  0  0  0
  -26.1657  -11.8932   20.3745 N   0  0  0  0  0  0  0  0  0  0  0  0
  -26.1637  -13.2189   20.1539 N   0  0  0  0  0  0  0  0  0  0  0  0
  -25.7974  -31.4411   22.5257 N   0  0  0  0  0  0  0  0  0  0  0  0
  -29.4743  -15.0874   20.5175 N   0  0  0  0  0  0  0  0  0  0  0  0
  -24.7661  -15.1312   20.1517 N   0  0  0  0  0  0  0  0  0  0  0  0
  -21.9644  -11.7945   21.3404 N   0  0  0  0  0  0  0  0  0  0  0  0
  -28.8825  -17.1770   21.4371 N   0  0  0  0  0  0  0  0  0  0  0  0
  -26.4410  -34.8823   21.8370 N   0  0  0  0  0  0  0  0  0  0  0  0
  -23.9221  -29.4531   24.5230 N   0  0  0  0  0  0  0  0  0  0  0  0
  -30.3262  -25.6955   19.2099 N   0  3  0  0  0  0  0  0  0  0  0  0
  -22.6813  -26.4232   22.9906 N   0  3  0  0  0  0  0  0  0  0  0  0
  -22.1073  -14.0436   20.9162 O   0  0  0  0  0  0  0  0  0  0  0  0
  -27.7963  -33.1733   22.6524 O   0  0  0  0  0  0  0  0  0  0  0  0
  -23.9136  -32.1905   23.6772 O   0  0  0  0  0  0  0  0  0  0  0  0
  -25.1083  -27.5992   23.7928 O   0  0  0  0  0  0  0  0  0  0  0  0
  -30.9050  -16.8941   20.3365 O   0  0  0  0  0  0  0  0  0  0  0  0
  -23.3078   -6.4207   21.9347 O   0  0  0  0  0  0  0  0  0  0  0  0
  -30.3528  -28.5319   19.5529 O   0  0  0  0  0  0  0  0  0  1  0  0
  -28.0684  -22.6021   20.8794 O   0  0  0  0  0  0  0  0  0  0  0  0
  -20.1073   -5.7015   26.3668 F   0  0  0  0  0  0  0  0  0  0  0  0
  -24.1372   -4.8333   24.0405 F   0  0  0  0  0  0  0  0  0  0  0  0
  1  2  1  0  0  0  0
  1  5  2  0  0  0  0
  2  6  2  0  0  0  0
  3  8  2  0  0  0  0
  3 17  1  0  0  0  0
  4  9  1  0  0  0  0
  4 17  2  0  0  0  0
  5 19  1  0  0  0  0
  6 21  1  0  0  0  0
  7 10  2  0  0  0  0
  7 20  1  0  0  0  0
  8 25  1  0  0  0  0
  9 25  2  0  0  0  0
 10 26  1  0  0  0  0
 11 12  2  0  0  0  0
 11 27  1  0  0  0  0
 12 28  1  0  0  0  0
 13 22  1  0  0  0  0
 13 26  2  0  0  0  0
 14 23  2  0  0  0  0
 14 31  1  0  0  0  0
 15 28  2  0  0  0  0
 15 29  1  0  0  0  0
 16 24  2  0  0  0  0
 16 66  1  0  0  0  0
 17 30  1  0  0  0  0
 18 30  1  0  0  0  0
 18 32  2  0  0  0  0
 18 33  1  0  0  0  0
 19 21  2  0  0  0  0
 19 38  1  0  0  0  0
 20 22  2  0  0  0  0
 20 39  1  0  0  0  0
 21 51  1  0  0  0  0
 22 40  1  0  0  0  0
 23 24  1  0  0  0  0
 23 55  1  0  0  0  0
 24 73  1  0  0  0  0
 25 83  1  0  0  0  0
 26 84  1  0  0  0  0
 27 29  2  0  0  0  0
 27 83  1  0  0  0  0
 28 86  1  0  0  0  0
 29 87  1  0  0  0  0
 30 67  2  0  0  0  0
 31 66  2  0  0  0  0
 31 85  1  0  0  0  0
 32 68  1  0  0  0  0
 32 71  1  0  0  0  0
 33 72  1  0  0  0  0
 33 78  2  0  0  0  0
 34 52  1  0  0  0  0
 34 74  1  0  0  0  0
 34 79  2  0  0  0  0
 35 63  1  0  0  0  0
 35 69  1  0  0  0  0
 35 80  2  0  0  0  0
 36 64  1  0  0  0  0
 36 75  1  0  0  0  0
 36 81  2  0  0  0  0
 37 70  1  0  0  0  0
 37 73  1  0  0  0  0
 37 82  2  0  0  0  0
 38 41  1  0  0  0  0
 39 52  1  0  0  0  0
 40 69  1  0  0  0  0
 41 43  1  0  0  0  0
 42 44  1  0  0  0  0
 42 47  1  0  0  0  0
 43 51  1  0  0  0  0
 44 53  1  0  0  0  0
 45 49  1  0  0  0  0
 45 54  1  0  0  0  0
 46 50  1  0  0  0  0
 46 54  1  0  0  0  0
 47 70  1  0  0  0  0
 48 53  1  0  0  0  0
 48 70  1  0  0  0  0
 49 76  1  0  0  0  0
 50 76  1  0  0  0  0
 51 74  1  0  0  0  0
 52 69  1  0  0  0  0
 53 68  1  0  0  0  0
 54 85  1  0  0  0  0
 56 64  1  0  0  0  0
 57 65  1  0  0  0  0
 58 65  1  0  0  0  0
 59 65  1  0  0  0  0
 60 77  1  0  0  0  0
 61 62  1  0  0  0  0
 61 76  1  0  0  0  0
 62 84  1  0  0  0  0
 63 65  1  0  0  0  0
 63 75  1  0  0  0  0
 64 77  1  0  0  0  0
 67 68  1  0  0  0  0
M  CHG  2  76   1  77   1
M  ISO  4  37 100  62 101  73 100  84 101
M  END
> <Batch ID>
0121

> <Smiles>
CNC(C)C(=O)NC(C(=O)N1Cc2cc([101O:1][101CH2:1]CN3CCC(Oc4cc(C)c([100NH:0][100C:0](=O)N5CCCC(n6nc(-c7ccc(Oc8ccc(F)cc8F)cc7)c(C(N)=O)c6N)C5)cn4)CC3)ccc2CC1C(=O)NC1CCCc2ccccc21)C(C)(C)C

> <Shape>
0.341

> <Color>
0.135

> <Negative vol penalty>
0.000

$$$$

  -OEChem-04052320253D

 91100  0     1  0  0  0  0  0999 V2000
  -29.1208  -32.3885   21.6195 C   0  0  0  0  0  0  0  0  0  0  0  0
  -28.5006  -31.3778   20.8938 C   0  0  0  0  0  0  0  0  0  0  0  0
  -27.7866  -18.1749   17.8123 C   0  0  0  0  0  0  0  0  0  0  0  0
  -29.8236  -17.7484   19.0394 C   0  0  0  0  0  0  0  0  0  0  0  0
  -28.6469  -32.7233   22.8861 C   0  0  0  0  0  0  0  0  0  0  0  0
  -27.3990  -30.7097   21.4294 C   0  0  0  0  0  0  0  0  0  0  0  0
  -24.2003  -25.9892   19.2817 C   0  0  0  0  0  0  0  0  0  0  0  0
  -27.6982  -16.8210   17.4886 C   0  0  0  0  0  0  0  0  0  0  0  0
  -29.7351  -16.3945   18.7158 C   0  0  0  0  0  0  0  0  0  0  0  0
  -24.2215  -24.5991   19.3859 C   0  0  0  0  0  0  0  0  0  0  0  0
  -28.0044  -13.6907   19.7715 C   0  0  0  0  0  0  0  0  0  0  0  0
  -28.2326  -12.7661   20.7905 C   0  0  0  0  0  0  0  0  0  0  0  0
  -22.5500  -24.7097   21.1217 C   0  0  0  0  0  0  0  0  0  0  0  0
  -30.0795  -11.8409   19.5374 C   0  0  0  0  0  0  0  0  0  0  0  0
  -28.8494  -18.6386   18.5877 C   0  0  0  0  0  0  0  0  0  0  0  0
  -29.0421  -21.1200   18.0280 C   0  0  0  0  0  0  0  0  0  0  0  0
  -27.5466  -32.0500   23.4420 C   0  0  0  0  0  0  0  0  0  0  0  0
  -23.3603  -26.7520   20.1057 C   0  0  0  0  0  0  0  0  0  0  0  0
  -26.8909  -31.0494   22.6963 C   0  0  0  0  0  0  0  0  0  0  0  0
  -22.5181  -26.1092   21.0242 C   0  0  0  0  0  0  0  0  0  0  0  0
  -28.6724  -15.9308   17.9403 C   0  0  0  0  0  0  0  0  0  0  0  0
  -23.3984  -23.9593   20.3080 C   0  0  0  0  0  0  0  0  0  0  0  0
  -28.8136  -13.6904   18.6353 C   0  0  0  0  0  0  0  0  0  0  0  0
  -29.2702  -11.8412   20.6735 C   0  0  0  0  0  0  0  0  0  0  0  0
  -29.8512  -12.7656   18.5183 C   0  0  0  0  0  0  0  0  0  0  0  0
  -28.9416  -20.0371   18.9219 C   0  0  0  0  0  0  0  0  0  0  0  0
  -29.1014  -22.2285   18.8368 C   0  0  0  0  0  0  0  0  0  0  0  0
  -29.0785  -21.1235   16.5947 C   0  0  0  0  0  0  0  0  0  0  0  0
  -24.6713  -20.3025   24.8006 C   0  0  0  0  0  0  0  0  0  0  0  0
  -23.8171  -28.9813   22.3250 C   0  0  0  0  0  0  0  0  0  0  0  0
  -20.5800  -29.1732   22.2424 C   0  0  0  0  0  0  0  0  0  0  0  0
  -17.2190  -28.6882   21.9030 C   0  0  0  0  0  0  0  0  0  0  0  0
  -27.1861  -23.3215   24.4035 C   0  0  0  0  0  0  0  0  0  0  0  0
  -27.0704  -32.4582   24.8138 C   0  0  0  0  0  0  0  0  0  0  0  0
  -23.3296  -28.2490   19.9623 C   0  0  0  0  0  0  0  0  0  0  0  0
  -21.5833  -26.8812   21.9178 C   0  0  0  0  0  0  0  0  0  0  0  0
  -26.1881  -31.4041   25.4748 C   0  0  0  0  0  0  0  0  0  0  0  0
  -30.5205  -23.6159   23.1902 C   0  0  0  0  0  0  0  0  0  0  0  0
  -25.3586  -12.4160   24.3538 C   0  0  0  0  0  0  0  0  0  0  0  0
  -25.1003  -30.9573   24.5096 C   0  0  0  0  0  0  0  0  0  0  0  0
  -30.5030  -22.8298   21.8780 C   0  0  0  0  0  0  0  0  0  0  0  0
  -26.1587  -13.7048   24.3802 C   0  0  0  0  0  0  0  0  0  0  0  0
  -29.6328  -22.9660   24.2493 C   0  0  0  0  0  0  0  0  0  0  0  0
  -24.2402  -17.6946   24.8798 C   0  0  0  0  0  0  0  0  0  0  0  0
  -28.2255  -21.9296   22.5117 C   0  0  0  0  0  0  0  0  0  0  0  0
  -24.3380  -12.6659   23.2614 C   0  0  0  0  0  0  0  0  0  0  0  0
  -25.7101  -30.2881   23.2713 C   0  0  1  0  0  0  0  0  0  0  0  0
  -24.1099  -19.0445   24.1326 C   0  0  2  0  0  0  0  0  0  0  0  0
  -22.8108  -28.9581   21.2094 C   0  0  1  0  0  0  0  0  0  0  0  0
  -29.0622  -22.5771   21.3949 C   0  0  2  0  0  0  0  0  0  0  0  0
  -24.9822  -18.3511   23.0464 C   0  0  2  0  0  0  0  0  0  0  0  0
  -25.0813  -14.7717   24.2524 C   0  0  1  0  0  0  0  0  0  0  0  0
  -15.0131  -29.4956   22.7859 C   0  0  0  0  0  0  0  0  0  0  0  0
  -25.5177  -17.8003   20.6914 C   0  0  0  0  0  0  0  0  0  0  0  0
  -21.0222  -27.5739   24.8030 C   0  0  0  0  0  0  0  0  0  0  0  0
  -18.5467  -27.6168   25.1746 C   0  0  0  0  0  0  0  0  0  0  0  0
  -19.8359  -29.7518   25.1250 C   0  0  0  0  0  0  0  0  0  0  0  0
  -14.3165  -30.3945   20.0921 C   0  0  0  0  0  0  0  0  0  0  0  0
  -25.5683  -16.0802   23.6641 C   0  0  0  0  0  0  0  0  0  0  0  0
  -24.2292  -20.4022   19.8327 C   0  0  0  0  0  0  0  0  0  0  0  0
  -24.6153  -20.0888   21.2796 C   0  0  0  0  0  0  0  0  0  0  0  0
  -24.1096  -22.6425   25.4259 C   0  0  0  0  0  0  0  0  0  0  0  0
  -24.7200  -23.5996   24.4152 C   0  0  0  0  0  0  0  0  0  0  0  0
  -24.3053  -21.8971   19.5458 C   0  0  0  0  0  0  0  0  0  1  0  0
  -19.4495  -28.4870   22.9703 C   0  0  1  0  0  0  0  0  0  0  0  0
  -16.0745  -29.6666   21.7103 C   0  0  2  0  0  0  0  0  0  0  0  0
  -24.5736  -18.5861   21.6043 C   0  0  2  0  0  0  0  0  0  0  0  0
  -19.7244  -28.3467   24.4942 C   0  0  0  0  0  0  0  0  0  0  0  0
  -28.9372  -20.4229   20.2007 N   0  0  0  0  0  0  0  0  0  0  0  0
  -29.0357  -21.7605   20.1161 N   0  0  0  0  0  0  0  0  0  0  0  0
  -21.5943  -28.3431   21.7444 N   0  0  0  0  0  0  0  0  0  0  0  0
  -28.2800  -22.7552   23.7284 N   0  0  0  0  0  0  0  0  0  0  0  0
  -24.4827  -17.0500   23.5667 N   0  0  1  0  0  0  0  0  0  0  0  0
  -29.2028  -23.5482   18.5712 N   0  0  0  0  0  0  0  0  0  0  0  0
  -27.8670  -21.2135   15.8958 N   0  0  0  0  0  0  0  0  0  0  0  0
  -24.6686  -30.0691   22.2920 N   0  0  0  0  0  0  0  0  0  0  0  0
  -23.7852  -21.3621   24.8392 N   0  0  0  0  0  0  0  0  0  0  0  0
  -18.2409  -29.2379   22.6478 N   0  0  0  0  0  0  0  0  0  0  0  0
  -25.9398  -23.0785   23.8394 N   0  0  0  0  0  0  0  0  0  0  0  0
  -24.0597  -14.1407   23.3416 N   0  3  0  0  0  0  0  0  0  0  0  0
  -15.4339  -29.4590   20.3808 N   0  3  0  0  0  0  0  0  0  0  0  0
  -30.1524  -21.0325   15.9527 O   0  0  0  0  0  0  0  0  0  0  0  0
  -25.8152  -20.2939   25.2402 O   0  0  0  0  0  0  0  0  0  0  0  0
  -23.8198  -28.0798   23.1550 O   0  0  0  0  0  0  0  0  0  0  0  0
  -20.5602  -30.3999   22.1139 O   0  0  0  0  0  0  0  0  0  0  0  0
  -17.2061  -27.5488   21.4424 O   0  0  0  0  0  0  0  0  0  0  0  0
  -27.3115  -23.9983   25.4297 O   0  0  0  0  0  0  0  0  0  0  0  0
  -28.5862  -14.6096   17.6248 O   0  0  0  0  0  0  0  0  0  0  0  0
  -23.4176  -22.6026   20.4122 O   0  0  0  0  0  0  0  0  0  1  0  0
  -29.4903  -10.9543   21.6529 F   0  0  0  0  0  0  0  0  0  0  0  0
  -30.6327  -12.7612   17.4297 F   0  0  0  0  0  0  0  0  0  0  0  0
  1  2  1  0  0  0  0
  1  5  2  0  0  0  0
  2  6  2  0  0  0  0
  3  8  2  0  0  0  0
  3 15  1  0  0  0  0
  4  9  1  0  0  0  0
  4 15  2  0  0  0  0
  5 17  1  0  0  0  0
  6 19  1  0  0  0  0
  7 10  2  0  0  0  0
  7 18  1  0  0  0  0
  8 21  1  0  0  0  0
  9 21  2  0  0  0  0
 10 22  1  0  0  0  0
 11 12  2  0  0  0  0
 11 23  1  0  0  0  0
 12 24  1  0  0  0  0
 13 20  1  0  0  0  0
 13 22  2  0  0  0  0
 14 24  2  0  0  0  0
 14 25  1  0  0  0  0
 15 26  1  0  0  0  0
 16 26  1  0  0  0  0
 16 27  2  0  0  0  0
 16 28  1  0  0  0  0
 17 19  2  0  0  0  0
 17 34  1  0  0  0  0
 18 20  2  0  0  0  0
 18 35  1  0  0  0  0
 19 47  1  0  0  0  0
 20 36  1  0  0  0  0
 21 88  1  0  0  0  0
 22 89  1  0  0  0  0
 23 25  2  0  0  0  0
 23 88  1  0  0  0  0
 24 90  1  0  0  0  0
 25 91  1  0  0  0  0
 26 69  2  0  0  0  0
 27 70  1  0  0  0  0
 27 74  1  0  0  0  0
 28 75  1  0  0  0  0
 28 82  2  0  0  0  0
 29 48  1  0  0  0  0
 29 77  1  0  0  0  0
 29 83  2  0  0  0  0
 30 49  1  0  0  0  0
 30 76  1  0  0  0  0
 30 84  2  0  0  0  0
 31 65  1  0  0  0  0
 31 71  1  0  0  0  0
 31 85  2  0  0  0  0
 32 66  1  0  0  0  0
 32 78  1  0  0  0  0
 32 86  2  0  0  0  0
 33 72  1  0  0  0  0
 33 79  1  0  0  0  0
 33 87  2  0  0  0  0
 34 37  1  0  0  0  0
 35 49  1  0  0  0  0
 36 71  1  0  0  0  0
 37 40  1  0  0  0  0
 38 41  1  0  0  0  0
 38 43  1  0  0  0  0
 39 42  1  0  0  0  0
 39 46  1  0  0  0  0
 40 47  1  0  0  0  0
 41 50  1  0  0  0  0
 42 52  1  0  0  0  0
 43 72  1  0  0  0  0
 44 48  1  0  0  0  0
 44 73  1  0  0  0  0
 45 50  1  0  0  0  0
 45 72  1  0  0  0  0
 46 80  1  0  0  0  0
 47 76  1  0  0  0  0
 48 51  1  0  0  0  0
 49 71  1  0  0  0  0
 50 70  1  0  0  0  0
 51 67  1  0  0  0  0
 51 73  1  0  0  0  0
 52 59  1  0  0  0  0
 52 80  1  0  0  0  0
 53 66  1  0  0  0  0
 54 67  1  0  0  0  0
 55 68  1  0  0  0  0
 56 68  1  0  0  0  0
 57 68  1  0  0  0  0
 58 81  1  0  0  0  0
 59 73  1  0  0  0  0
 60 61  1  0  0  0  0
 60 64  1  0  0  0  0
 61 67  1  0  0  0  0
 62 63  1  0  0  0  0
 62 77  1  0  0  0  0
 63 79  1  0  0  0  0
 64 89  1  0  0  0  0
 65 68  1  0  0  0  0
 65 78  1  0  0  0  0
 66 81  1  0  0  0  0
 69 70  1  0  0  0  0
M  CHG  2  80   1  81   1
M  ISO  4  33 100  64 101  79 100  89 101
M  END
> <Batch ID>
0121

> <Smiles>
CNC(C)C(=O)NC(C(=O)N1Cc2cc([101O:1][101CH2:1]CCC(C)C3C(C(=O)NCC[100NH:0][100C:0](=O)N4CCCC(n5nc(-c6ccc(Oc7ccc(F)cc7F)cc6)c(C(N)=O)c5N)C4)CN3CC3CCCN3)ccc2CC1C(=O)NC1CCCc2ccccc21)C(C)(C)C

> <Shape>
0.218

> <Color>
0.050

> <Negative vol penalty>
0.000

$$$$

  -OEChem-04052320253D

 89 98  0     1  0  0  0  0  0999 V2000
  -20.6372  -23.4261   23.1121 C   0  0  0  0  0  0  0  0  0  0  0  0
  -21.7741  -23.8760   22.4484 C   0  0  0  0  0  0  0  0  0  0  0  0
  -26.5079  -10.1722   18.9068 C   0  0  0  0  0  0  0  0  0  0  0  0
  -25.4440   -9.2254   20.8584 C   0  0  0  0  0  0  0  0  0  0  0  0
  -19.6136  -24.3201   23.4236 C   0  0  0  0  0  0  0  0  0  0  0  0
  -21.8876  -25.2201   22.0949 C   0  0  0  0  0  0  0  0  0  0  0  0
  -26.4590  -27.1269   23.1490 C   0  0  0  0  0  0  0  0  0  0  0  0
  -27.0963   -8.9384   18.6290 C   0  0  0  0  0  0  0  0  0  0  0  0
  -26.0324   -7.9915   20.5805 C   0  0  0  0  0  0  0  0  0  0  0  0
  -27.4965  -26.8158   22.2711 C   0  0  0  0  0  0  0  0  0  0  0  0
  -29.7265   -7.1277   19.7372 C   0  0  0  0  0  0  0  0  0  0  0  0
  -31.0769   -7.1184   19.3882 C   0  0  0  0  0  0  0  0  0  0  0  0
  -27.2468  -28.9733   21.2212 C   0  0  0  0  0  0  0  0  0  0  0  0
  -28.3720  -22.4805   18.7040 C   0  0  0  0  0  0  0  0  0  0  0  0
  -30.5200   -6.1207   17.2594 C   0  0  0  0  0  0  0  0  0  0  0  0
  -27.5502  -24.0614   17.3274 C   0  0  0  0  0  0  0  0  0  0  0  0
  -25.6818  -10.3157   20.0216 C   0  0  0  0  0  0  0  0  0  0  0  0
  -23.8263  -12.0585   19.8566 C   0  0  0  0  0  0  0  0  0  0  0  0
  -19.7189  -25.6776   23.0822 C   0  0  0  0  0  0  0  0  0  0  0  0
  -25.7992  -28.3613   23.0623 C   0  0  0  0  0  0  0  0  0  0  0  0
  -20.8638  -26.1328   22.4009 C   0  0  0  0  0  0  0  0  0  0  0  0
  -26.2030  -29.2986   22.1008 C   0  0  0  0  0  0  0  0  0  0  0  0
  -28.6562  -23.7164   18.0724 C   0  0  0  0  0  0  0  0  0  0  0  0
  -26.8586   -7.8481   19.4658 C   0  0  0  0  0  0  0  0  0  0  0  0
  -27.8886  -27.7379   21.3052 C   0  0  0  0  0  0  0  0  0  0  0  0
  -28.7728   -6.6334   18.8473 C   0  0  0  0  0  0  0  0  0  0  0  0
  -31.4737   -6.6150   18.1494 C   0  0  0  0  0  0  0  0  0  0  0  0
  -29.1696   -6.1299   17.6084 C   0  0  0  0  0  0  0  0  0  0  0  0
  -25.0742  -11.5900   20.3094 C   0  0  0  0  0  0  0  0  0  0  0  0
  -27.1011  -22.1077   18.3254 C   0  0  0  0  0  0  0  0  0  0  0  0
  -23.7113  -13.3130   20.4036 C   0  0  0  0  0  0  0  0  0  0  0  0
  -22.8575  -11.4168   19.0166 C   0  0  0  0  0  0  0  0  0  0  0  0
  -22.8127  -29.2714   22.4658 C   0  0  0  0  0  0  0  0  0  0  0  0
  -23.9767  -32.2108   23.1919 C   0  0  0  0  0  0  0  0  0  0  0  0
  -26.6783  -34.2848   23.4083 C   0  0  0  0  0  0  0  0  0  0  0  0
  -25.7213  -18.2224   21.7739 C   0  0  0  0  0  0  0  0  0  0  0  0
  -18.5657  -26.5970   23.3979 C   0  0  0  0  0  0  0  0  0  0  0  0
  -24.6998  -28.6921   24.0340 C   0  0  0  0  0  0  0  0  0  0  0  0
  -25.5405  -30.6457   21.9794 C   0  0  0  0  0  0  0  0  0  0  0  0
  -18.9287  -28.0778   23.3211 C   0  0  0  0  0  0  0  0  0  0  0  0
  -26.4646  -15.6364   23.9439 C   0  0  0  0  0  0  0  0  0  0  0  0
  -19.7154  -28.3693   22.0472 C   0  0  0  0  0  0  0  0  0  0  0  0
  -26.0687  -14.3827   23.1643 C   0  0  0  0  0  0  0  0  0  0  0  0
  -27.1894  -19.6464   18.9218 C   0  0  0  0  0  0  0  0  0  0  0  0
  -25.4025  -21.1288   19.9314 C   0  0  0  0  0  0  0  0  0  0  0  0
  -27.1556  -16.6477   23.0365 C   0  0  0  0  0  0  0  0  0  0  0  0
  -26.3719  -18.4184   19.3328 C   0  0  0  0  0  0  0  0  0  0  0  0
  -24.6174  -19.8715   20.2938 C   0  0  0  0  0  0  0  0  0  0  0  0
  -25.9402  -15.8002   21.0559 C   0  0  0  0  0  0  0  0  0  0  0  0
  -21.0347  -27.5881   22.0227 C   0  0  1  0  0  0  0  0  0  0  0  0
  -26.2944  -20.8793   18.7017 C   0  0  0  0  0  0  0  0  0  0  0  0
  -23.7555  -29.7753   23.5217 C   0  0  1  0  0  0  0  0  0  0  0  0
  -25.2292  -14.7437   21.9260 C   0  0  1  0  0  0  0  0  0  0  0  0
  -27.3108  -36.6410   23.9961 C   0  0  0  0  0  0  0  0  0  0  0  0
  -25.4041  -23.0166   15.3372 C   0  0  0  0  0  0  0  0  0  0  0  0
  -24.4484  -24.2528   17.3283 C   0  0  0  0  0  0  0  0  0  0  0  0
  -31.0194  -23.8691   19.1127 C   0  0  0  0  0  0  0  0  0  0  0  0
  -30.6037  -24.6304   16.7905 C   0  0  0  0  0  0  0  0  0  0  0  0
  -22.8675  -33.1732   20.5173 C   0  0  0  0  0  0  0  0  0  0  0  0
  -24.3176  -35.2034   20.7256 C   0  0  0  0  0  0  0  0  0  0  0  0
  -22.5373  -34.7655   22.4173 C   0  0  0  0  0  0  0  0  0  0  0  0
  -28.4300  -33.3864   25.6181 C   0  0  0  0  0  0  0  0  0  0  0  0
  -29.6805  -25.9706   18.7090 C   0  0  0  0  0  0  0  0  0  0  0  0
  -29.0786  -26.0607   20.1106 C   0  0  0  0  0  0  0  0  0  1  0  0
  -24.6185  -33.3301   22.4081 C   0  0  1  0  0  0  0  0  0  0  0  0
  -27.1451  -35.2193   24.5098 C   0  0  2  0  0  0  0  0  0  0  0  0
  -25.3071  -23.0753   16.8629 C   0  0  0  0  0  0  0  0  0  0  0  0
  -29.9055  -24.4921   18.1905 C   0  0  0  0  0  0  0  0  0  0  0  0
  -23.5966  -34.0920   21.5179 C   0  0  0  0  0  0  0  0  0  0  0  0
  -25.7069  -12.4751   21.0843 N   0  0  0  0  0  0  0  0  0  0  0  0
  -26.6114  -23.0761   17.4884 N   0  0  0  0  0  0  0  0  0  0  0  0
  -24.8531  -13.5122   21.1226 N   0  0  0  0  0  0  0  0  0  0  0  0
  -24.4664  -30.9199   22.9482 N   0  0  0  0  0  0  0  0  0  0  0  0
  -26.3289  -16.9615   21.8712 N   0  0  0  0  0  0  0  0  0  0  0  0
  -25.5110  -18.7290   20.4826 N   0  0  0  0  0  0  0  0  0  0  0  0
  -22.7461  -14.2543   20.3349 N   0  0  0  0  0  0  0  0  0  0  0  0
  -23.1345  -10.1278   18.5413 N   0  0  0  0  0  0  0  0  0  0  0  0
  -22.0137  -28.2225   22.8792 N   0  0  0  0  0  0  0  0  0  0  0  0
  -25.3044  -34.1705   23.3837 N   0  0  0  0  0  0  0  0  0  0  0  0
  -28.4536  -34.7618   25.0572 N   0  3  0  0  0  0  0  0  0  0  0  0
  -21.7855  -11.9767   18.6836 O   0  0  0  0  0  0  0  0  0  0  0  0
  -22.8092  -29.7964   21.3586 O   0  0  0  0  0  0  0  0  0  0  0  0
  -23.0789  -32.4732   23.9961 O   0  0  0  0  0  0  0  0  0  0  0  0
  -27.4545  -33.7162   22.6437 O   0  0  0  0  0  0  0  0  0  0  0  0
  -25.3855  -18.8583   22.7809 O   0  0  0  0  0  0  0  0  0  0  0  0
  -27.4323   -6.6440   19.1949 O   0  0  0  0  0  0  0  0  0  0  0  0
  -28.9072  -27.4346   20.4411 O   0  0  0  0  0  0  0  0  0  1  0  0
  -32.7704   -6.6076   17.8138 F   0  0  0  0  0  0  0  0  0  0  0  0
  -28.2578   -5.6548   16.7489 F   0  0  0  0  0  0  0  0  0  0  0  0
  1  2  1  0  0  0  0
  1  5  2  0  0  0  0
  2  6  2  0  0  0  0
  3  8  2  0  0  0  0
  3 17  1  0  0  0  0
  4  9  1  0  0  0  0
  4 17  2  0  0  0  0
  5 19  1  0  0  0  0
  6 21  1  0  0  0  0
  7 10  2  0  0  0  0
  7 20  1  0  0  0  0
  8 24  1  0  0  0  0
  9 24  2  0  0  0  0
 10 25  1  0  0  0  0
 11 12  2  0  0  0  0
 11 26  1  0  0  0  0
 12 27  1  0  0  0  0
 13 22  1  0  0  0  0
 13 25  2  0  0  0  0
 14 23  1  0  0  0  0
 14 30  2  0  0  0  0
 15 27  2  0  0  0  0
 15 28  1  0  0  0  0
 16 23  2  0  0  0  0
 16 71  1  0  0  0  0
 17 29  1  0  0  0  0
 18 29  1  0  0  0  0
 18 31  2  0  0  0  0
 18 32  1  0  0  0  0
 19 21  2  0  0  0  0
 19 37  1  0  0  0  0
 20 22  2  0  0  0  0
 20 38  1  0  0  0  0
 21 50  1  0  0  0  0
 22 39  1  0  0  0  0
 23 68  1  0  0  0  0
 24 86  1  0  0  0  0
 25 87  1  0  0  0  0
 26 28  2  0  0  0  0
 26 86  1  0  0  0  0
 27 88  1  0  0  0  0
 28 89  1  0  0  0  0
 29 70  2  0  0  0  0
 30 51  1  0  0  0  0
 30 71  1  0  0  0  0
 31 72  1  0  0  0  0
 31 76  1  0  0  0  0
 32 77  1  0  0  0  0
 32 81  2  0  0  0  0
 33 52  1  0  0  0  0
 33 78  1  0  0  0  0
 33 82  2  0  0  0  0
 34 65  1  0  0  0  0
 34 73  1  0  0  0  0
 34 83  2  0  0  0  0
 35 66  1  0  0  0  0
 35 79  1  0  0  0  0
 35 84  2  0  0  0  0
 36 74  1  0  0  0  0
 36 75  1  0  0  0  0
 36 85  2  0  0  0  0
 37 40  1  0  0  0  0
 38 52  1  0  0  0  0
 39 73  1  0  0  0  0
 40 42  1  0  0  0  0
 41 43  1  0  0  0  0
 41 46  1  0  0  0  0
 42 50  1  0  0  0  0
 43 53  1  0  0  0  0
 44 47  1  0  0  0  0
 44 51  1  0  0  0  0
 45 48  1  0  0  0  0
 45 51  1  0  0  0  0
 46 74  1  0  0  0  0
 47 75  1  0  0  0  0
 48 75  1  0  0  0  0
 49 53  1  0  0  0  0
 49 74  1  0  0  0  0
 50 78  1  0  0  0  0
 52 73  1  0  0  0  0
 53 72  1  0  0  0  0
 54 66  1  0  0  0  0
 55 67  1  0  0  0  0
 56 67  1  0  0  0  0
 57 68  1  0  0  0  0
 58 68  1  0  0  0  0
 59 69  1  0  0  0  0
 60 69  1  0  0  0  0
 61 69  1  0  0  0  0
 62 80  1  0  0  0  0
 63 64  1  0  0  0  0
 63 68  1  0  0  0  0
 64 87  1  0  0  0  0
 65 69  1  0  0  0  0
 65 79  1  0  0  0  0
 66 80  1  0  0  0  0
 67 71  1  0  0  0  0
 70 72  1  0  0  0  0
M  CHG  1  80   1
M  ISO  4  36 100  64 101  75 100  87 101
M  END
> <Batch ID>
0121

> <Smiles>
CNC(C)C(=O)NC(C(=O)N1Cc2cc([101O:1][101CH2:1]CC(C)(C)c3cc(C4CC[100N:0]([100C:0](=O)N5CCCC(n6nc(-c7ccc(Oc8ccc(F)cc8F)cc7)c(C(N)=O)c6N)C5)CC4)n(C(C)C)c3)ccc2CC1C(=O)NC1CCCc2ccccc21)C(C)(C)C

> <Shape>
0.216

> <Color>
0.081

> <Negative vol penalty>
0.000

$$$$

  -OEChem-04052320253D

 89 99  0     1  0  0  0  0  0999 V2000
  -30.1884  -23.6937   17.6871 C   0  0  0  0  0  0  0  0  0  0  0  0
  -28.9559  -23.7275   18.3315 C   0  0  0  0  0  0  0  0  0  0  0  0
  -24.7791  -14.3369   18.5636 C   0  0  0  0  0  0  0  0  0  0  0  0
  -23.9513  -14.3883   20.8328 C   0  0  0  0  0  0  0  0  0  0  0  0
  -31.2280  -24.5102   18.1303 C   0  0  0  0  0  0  0  0  0  0  0  0
  -28.7627  -24.5771   19.4202 C   0  0  0  0  0  0  0  0  0  0  0  0
  -24.3611  -27.0699   19.1819 C   0  0  0  0  0  0  0  0  0  0  0  0
  -24.1712  -13.0965   18.3699 C   0  0  0  0  0  0  0  0  0  0  0  0
  -23.3434  -13.1479   20.6391 C   0  0  0  0  0  0  0  0  0  0  0  0
  -23.2108  -26.3662   19.5361 C   0  0  0  0  0  0  0  0  0  0  0  0
  -21.8761   -9.8299   20.8579 C   0  0  0  0  0  0  0  0  0  0  0  0
  -22.0196   -8.8736   21.8631 C   0  0  0  0  0  0  0  0  0  0  0  0
  -23.2554  -27.4016   21.7144 C   0  0  0  0  0  0  0  0  0  0  0  0
  -25.4042  -23.2403   26.7123 C   0  0  0  0  0  0  0  0  0  0  0  0
  -26.4027  -22.7776   24.5738 C   0  0  0  0  0  0  0  0  0  0  0  0
  -24.4186   -8.9412   21.5851 C   0  0  0  0  0  0  0  0  0  0  0  0
  -24.6692  -14.9828   19.7951 C   0  0  0  0  0  0  0  0  0  0  0  0
  -24.7343  -17.5328   19.7621 C   0  0  0  0  0  0  0  0  0  0  0  0
  -31.0445  -25.3773   19.2189 C   0  0  0  0  0  0  0  0  0  0  0  0
  -24.9744  -27.9380   20.0966 C   0  0  0  0  0  0  0  0  0  0  0  0
  -29.8012  -25.4050   19.8792 C   0  0  0  0  0  0  0  0  0  0  0  0
  -24.4119  -28.1171   21.3685 C   0  0  0  0  0  0  0  0  0  0  0  0
  -25.2877  -23.1162   25.3323 C   0  0  0  0  0  0  0  0  0  0  0  0
  -23.4534  -12.5020   19.4077 C   0  0  0  0  0  0  0  0  0  0  0  0
  -22.6594  -26.5298   20.8035 C   0  0  0  0  0  0  0  0  0  0  0  0
  -23.0039  -10.3418   20.2162 C   0  0  0  0  0  0  0  0  0  0  0  0
  -23.2908   -8.4292   22.2268 C   0  0  0  0  0  0  0  0  0  0  0  0
  -24.2751   -9.8975   20.5798 C   0  0  0  0  0  0  0  0  0  0  0  0
  -25.2973  -16.2639   19.9960 C   0  0  0  0  0  0  0  0  0  0  0  0
  -26.6478  -23.0171   27.2809 C   0  0  0  0  0  0  0  0  0  0  0  0
  -27.6017  -22.5752   25.2381 C   0  0  0  0  0  0  0  0  0  0  0  0
  -25.7272  -18.4175   20.1051 C   0  0  0  0  0  0  0  0  0  0  0  0
  -23.4303  -17.8806   19.2780 C   0  0  0  0  0  0  0  0  0  0  0  0
  -27.8185  -28.0621   21.5106 C   0  0  0  0  0  0  0  0  0  0  0  0
  -26.7146  -30.9079   22.6083 C   0  0  0  0  0  0  0  0  0  0  0  0
  -24.0328  -32.8773   23.3672 C   0  0  0  0  0  0  0  0  0  0  0  0
  -29.7673  -20.0946   23.5707 C   0  0  0  0  0  0  0  0  0  0  0  0
  -32.2123  -26.2065   19.6914 C   0  0  0  0  0  0  0  0  0  0  0  0
  -26.1995  -28.7100   19.6899 C   0  0  0  0  0  0  0  0  0  0  0  0
  -25.0204  -29.0525   22.3801 C   0  0  0  0  0  0  0  0  0  0  0  0
  -31.8109  -27.3521   20.6170 C   0  0  0  0  0  0  0  0  0  0  0  0
  -30.6179  -17.6399   21.1361 C   0  0  0  0  0  0  0  0  0  0  0  0
  -30.8367  -26.8609   21.6830 C   0  0  0  0  0  0  0  0  0  0  0  0
  -29.2635  -17.1637   20.6081 C   0  0  0  0  0  0  0  0  0  0  0  0
  -21.4359  -23.2078   25.2133 C   0  0  0  0  0  0  0  0  0  0  0  0
  -30.5649  -17.9457   22.6313 C   0  0  0  0  0  0  0  0  0  0  0  0
  -28.1477  -18.4096   22.5059 C   0  0  0  0  0  0  0  0  0  0  0  0
  -20.6145  -23.0544   23.9387 C   0  0  0  0  0  0  0  0  0  0  0  0
  -22.6375  -22.5951   22.5503 C   0  0  0  0  0  0  0  0  0  0  0  0
  -23.9787  -23.3429   24.6722 C   0  0  2  0  0  0  0  0  0  0  0  0
  -29.5452  -26.3313   21.0481 C   0  0  1  0  0  0  0  0  0  0  0  0
  -27.0337  -29.1768   20.8788 C   0  0  1  0  0  0  0  0  0  0  0  0
  -22.7740  -22.5338   25.1295 C   0  0  2  0  0  0  0  0  0  0  0  0
  -23.3998  -22.2587   23.7903 C   0  0  1  0  0  0  0  0  0  0  0  0
  -28.1369  -18.1422   20.9910 C   0  0  2  0  0  0  0  0  0  0  0  0
  -26.8102  -23.1406   28.7592 C   0  0  0  0  0  0  0  0  0  0  0  0
  -29.2061  -23.2792   23.4237 C   0  0  0  0  0  0  0  0  0  0  0  0
  -23.4458  -35.1392   24.2818 C   0  0  0  0  0  0  0  0  0  0  0  0
  -27.3912  -29.9427   25.4226 C   0  0  0  0  0  0  0  0  0  0  0  0
  -25.9462  -31.7778   26.3241 C   0  0  0  0  0  0  0  0  0  0  0  0
  -27.9681  -32.3343   24.9732 C   0  0  0  0  0  0  0  0  0  0  0  0
  -22.6502  -33.6569   20.8692 C   0  0  0  0  0  0  0  0  0  0  0  0
  -20.6207  -23.6492   21.5088 C   0  0  0  0  0  0  0  0  0  0  0  0
  -21.3392  -24.5691   20.5415 C   0  0  0  0  0  0  0  0  0  1  0  0
  -28.8193  -22.2106   24.4558 C   0  0  2  0  0  0  0  0  0  0  0  0
  -25.9395  -31.3572   23.8233 C   0  0  1  0  0  0  0  0  0  0  0  0
  -23.7163  -34.3227   23.0277 C   0  0  2  0  0  0  0  0  0  0  0  0
  -26.8006  -31.3338   25.1176 C   0  0  0  0  0  0  0  0  0  0  0  0
  -26.5508  -16.3321   20.4522 N   0  0  0  0  0  0  0  0  0  0  0  0
  -27.7536  -22.6866   26.5768 N   0  0  0  0  0  0  0  0  0  0  0  0
  -26.7836  -17.6545   20.5076 N   0  0  0  0  0  0  0  0  0  0  0  0
  -26.2212  -29.7801   21.9372 N   0  0  0  0  0  0  0  0  0  0  0  0
  -29.4764  -18.8804   22.9273 N   0  0  0  0  0  0  0  0  0  0  0  0
  -25.7911  -19.7660   20.0986 N   0  0  0  0  0  0  0  0  0  0  0  0
  -22.5332  -16.8477   18.9734 N   0  0  0  0  0  0  0  0  0  0  0  0
  -28.6921  -27.4294   20.6469 N   0  0  0  0  0  0  0  0  0  0  0  0
  -25.3896  -32.6680   23.4950 N   0  0  0  0  0  0  0  0  0  0  0  0
  -28.6791  -20.9253   23.8082 N   0  0  0  0  0  0  0  0  0  0  0  0
  -21.4325  -23.5060   22.7436 N   0  3  1  0  0  0  0  0  0  0  0  0
  -22.5142  -34.3973   22.1500 N   0  3  0  0  0  0  0  0  0  0  0  0
  -23.0769  -19.0716   19.1048 O   0  0  0  0  0  0  0  0  0  0  0  0
  -27.6454  -27.7967   22.6943 O   0  0  0  0  0  0  0  0  0  0  0  0
  -27.7168  -31.5389   22.2630 O   0  0  0  0  0  0  0  0  0  0  0  0
  -23.1631  -32.0205   23.5087 O   0  0  0  0  0  0  0  0  0  0  0  0
  -30.9128  -20.4171   23.9037 O   0  0  0  0  0  0  0  0  0  0  0  0
  -22.8599  -11.2918   19.2190 O   0  0  0  0  0  0  0  0  0  0  0  0
  -21.5371  -25.8437   21.1520 O   0  0  0  0  0  0  0  0  0  1  0  0
  -23.4285   -7.5120   23.1932 F   0  0  0  0  0  0  0  0  0  0  0  0
  -25.3624  -10.3864   19.9678 F   0  0  0  0  0  0  0  0  0  0  0  0
  1  2  1  0  0  0  0
  1  5  2  0  0  0  0
  2  6  2  0  0  0  0
  3  8  2  0  0  0  0
  3 17  1  0  0  0  0
  4  9  1  0  0  0  0
  4 17  2  0  0  0  0
  5 19  1  0  0  0  0
  6 21  1  0  0  0  0
  7 10  2  0  0  0  0
  7 20  1  0  0  0  0
  8 24  1  0  0  0  0
  9 24  2  0  0  0  0
 10 25  1  0  0  0  0
 11 12  2  0  0  0  0
 11 26  1  0  0  0  0
 12 27  1  0  0  0  0
 13 22  1  0  0  0  0
 13 25  2  0  0  0  0
 14 23  1  0  0  0  0
 14 30  2  0  0  0  0
 15 23  2  0  0  0  0
 15 31  1  0  0  0  0
 16 27  2  0  0  0  0
 16 28  1  0  0  0  0
 17 29  1  0  0  0  0
 18 29  1  0  0  0  0
 18 32  2  0  0  0  0
 18 33  1  0  0  0  0
 19 21  2  0  0  0  0
 19 38  1  0  0  0  0
 20 22  2  0  0  0  0
 20 39  1  0  0  0  0
 21 51  1  0  0  0  0
 22 40  1  0  0  0  0
 23 50  1  0  0  0  0
 24 86  1  0  0  0  0
 25 87  1  0  0  0  0
 26 28  2  0  0  0  0
 26 86  1  0  0  0  0
 27 88  1  0  0  0  0
 28 89  1  0  0  0  0
 29 69  2  0  0  0  0
 30 56  1  0  0  0  0
 30 70  1  0  0  0  0
 31 65  1  0  0  0  0
 31 70  2  0  0  0  0
 32 71  1  0  0  0  0
 32 74  1  0  0  0  0
 33 75  1  0  0  0  0
 33 81  2  0  0  0  0
 34 52  1  0  0  0  0
 34 76  1  0  0  0  0
 34 82  2  0  0  0  0
 35 66  1  0  0  0  0
 35 72  1  0  0  0  0
 35 83  2  0  0  0  0
 36 67  1  0  0  0  0
 36 77  1  0  0  0  0
 36 84  2  0  0  0  0
 37 73  1  0  0  0  0
 37 78  1  0  0  0  0
 37 85  2  0  0  0  0
 38 41  1  0  0  0  0
 39 52  1  0  0  0  0
 40 72  1  0  0  0  0
 41 43  1  0  0  0  0
 42 44  1  0  0  0  0
 42 46  1  0  0  0  0
 43 51  1  0  0  0  0
 44 55  1  0  0  0  0
 45 48  1  0  0  0  0
 45 53  1  0  0  0  0
 46 73  1  0  0  0  0
 47 55  1  0  0  0  0
 47 73  1  0  0  0  0
 48 79  1  0  0  0  0
 49 54  1  0  0  0  0
 49 79  1  0  0  0  0
 50 53  1  0  0  0  0
 50 54  1  0  0  0  0
 51 76  1  0  0  0  0
 52 72  1  0  0  0  0
 53 54  1  0  0  0  0
 55 71  1  0  0  0  0
 57 65  1  0  0  0  0
 58 67  1  0  0  0  0
 59 68  1  0  0  0  0
 60 68  1  0  0  0  0
 61 68  1  0  0  0  0
 62 80  1  0  0  0  0
 63 64  1  0  0  0  0
 63 79  1  0  0  0  0
 64 87  1  0  0  0  0
 65 78  1  0  0  0  0
 66 68  1  0  0  0  0
 66 77  1  0  0  0  0
 67 80  1  0  0  0  0
 69 71  1  0  0  0  0
M  CHG  2  79   1  80   1
M  ISO  4  37 100  64 101  78 100  87 101
M  END
> <Batch ID>
0121

> <Smiles>
CNC(C)C(=O)NC(C(=O)N1Cc2cc([101O:1][101CH2:1]CN3CCC4C(C3)C4c3cc(C)nc(C(C)[100NH:0][100C:0](=O)N4CCCC(n5nc(-c6ccc(Oc7ccc(F)cc7F)cc6)c(C(N)=O)c5N)C4)c3)ccc2CC1C(=O)NC1CCCc2ccccc21)C(C)(C)C

> <Shape>
0.247

> <Color>
0.055

> <Negative vol penalty>
0.000

$$$$

  -OEChem-04052320253D

 90 99  0     1  0  0  0  0  0999 V2000
  -21.8792  -22.0540   15.4030 C   0  0  0  0  0  0  0  0  0  0  0  0
  -23.1201  -21.5958   15.8340 C   0  0  0  0  0  0  0  0  0  0  0  0
  -23.2777  -28.7918   20.9326 C   0  0  0  0  0  0  0  0  0  0  0  0
  -24.6370  -27.4902   22.4476 C   0  0  0  0  0  0  0  0  0  0  0  0
  -20.7442  -21.8231   16.1790 C   0  0  0  0  0  0  0  0  0  0  0  0
  -23.2267  -20.9074   17.0420 C   0  0  0  0  0  0  0  0  0  0  0  0
  -27.0590  -16.3079   18.3322 C   0  0  0  0  0  0  0  0  0  0  0  0
  -22.2401  -28.7933   21.8648 C   0  0  0  0  0  0  0  0  0  0  0  0
  -23.5994  -27.4917   23.3798 C   0  0  0  0  0  0  0  0  0  0  0  0
  -28.2857  -16.2666   18.9934 C   0  0  0  0  0  0  0  0  0  0  0  0
  -19.8304  -26.6672   22.9124 C   0  0  0  0  0  0  0  0  0  0  0  0
  -18.5423  -26.4015   22.4477 C   0  0  0  0  0  0  0  0  0  0  0  0
  -27.1571  -15.6583   21.0368 C   0  0  0  0  0  0  0  0  0  0  0  0
  -17.8120  -28.5658   23.2348 C   0  0  0  0  0  0  0  0  0  0  0  0
  -30.9152  -21.5936   22.0590 C   0  0  0  0  0  0  0  0  0  0  0  0
  -24.4761  -28.1402   21.2239 C   0  0  0  0  0  0  0  0  0  0  0  0
  -26.5855  -29.0818   20.1417 C   0  0  0  0  0  0  0  0  0  0  0  0
  -20.8355  -21.1231   17.3924 C   0  0  0  0  0  0  0  0  0  0  0  0
  -25.8690  -16.0350   19.0221 C   0  0  0  0  0  0  0  0  0  0  0  0
  -22.0920  -20.6681   17.8356 C   0  0  0  0  0  0  0  0  0  0  0  0
  -25.9168  -15.6943   20.3815 C   0  0  0  0  0  0  0  0  0  0  0  0
  -22.4009  -28.1433   23.0884 C   0  0  0  0  0  0  0  0  0  0  0  0
  -28.3347  -15.9446   20.3465 C   0  0  0  0  0  0  0  0  0  0  0  0
  -20.1093  -27.8821   23.5383 C   0  0  0  0  0  0  0  0  0  0  0  0
  -17.5331  -27.3508   22.6089 C   0  0  0  0  0  0  0  0  0  0  0  0
  -19.1001  -28.8315   23.6995 C   0  0  0  0  0  0  0  0  0  0  0  0
  -25.5481  -28.1378   20.2611 C   0  0  0  0  0  0  0  0  0  0  0  0
  -30.2594  -20.5439   21.4545 C   0  0  0  0  0  0  0  0  0  0  0  0
  -30.0796  -21.7650   19.5292 C   0  0  0  0  0  0  0  0  0  0  0  0
  -30.7348  -22.8150   20.1341 C   0  0  0  0  0  0  0  0  0  0  0  0
  -27.3374  -28.6336   19.0833 C   0  0  0  0  0  0  0  0  0  0  0  0
  -26.8463  -30.2587   20.9181 C   0  0  0  0  0  0  0  0  0  0  0  0
  -23.2347  -17.6836   19.6902 C   0  0  0  0  0  0  0  0  0  0  0  0
  -22.2216  -14.8375   20.8716 C   0  0  0  0  0  0  0  0  0  0  0  0
  -23.0301  -11.7810   22.1567 C   0  0  0  0  0  0  0  0  0  0  0  0
  -28.1440  -23.2189   16.6581 C   0  0  0  0  0  0  0  0  0  0  0  0
  -19.5880  -20.9389   18.2199 C   0  0  0  0  0  0  0  0  0  0  0  0
  -24.5563  -16.0576   18.2882 C   0  0  0  0  0  0  0  0  0  0  0  0
  -24.6698  -15.3731   21.1628 C   0  0  0  0  0  0  0  0  0  0  0  0
  -19.7286  -19.8746   19.3051 C   0  0  0  0  0  0  0  0  0  0  0  0
  -31.9217  -28.0854   20.2774 C   0  0  0  0  0  0  0  0  0  0  0  0
  -32.8746  -27.2959   19.3844 C   0  0  0  0  0  0  0  0  0  0  0  0
  -31.3511  -27.2192   21.3968 C   0  0  0  0  0  0  0  0  0  0  0  0
  -26.9651  -26.1478   15.0123 C   0  0  0  0  0  0  0  0  0  0  0  0
  -21.0398  -20.0553   20.0634 C   0  0  0  0  0  0  0  0  0  0  0  0
  -26.5619  -27.0751   16.1601 C   0  0  0  0  0  0  0  0  0  0  0  0
  -32.2152  -26.0320   18.8351 C   0  0  0  0  0  0  0  0  0  0  0  0
  -30.6894  -25.9557   20.8496 C   0  0  0  0  0  0  0  0  0  0  0  0
  -26.6541  -24.6871   15.3310 C   0  0  0  0  0  0  0  0  0  0  0  0
  -26.8137  -25.1247   17.7511 C   0  0  0  0  0  0  0  0  0  0  0  0
  -22.2445  -19.8959   19.1281 C   0  0  1  0  0  0  0  0  0  0  0  0
  -23.3593  -16.2650   19.2110 C   0  0  1  0  0  0  0  0  0  0  0  0
  -27.1591  -26.6024   17.4992 C   0  0  2  0  0  0  0  0  0  0  0  0
  -31.6536  -25.1597   19.9633 C   0  0  0  0  0  0  0  0  0  0  0  0
  -21.9866   -9.6876   23.0655 C   0  0  0  0  0  0  0  0  0  0  0  0
  -32.0217  -15.9271   22.5218 C   0  0  0  0  0  0  0  0  0  0  0  0
  -21.5951  -16.2864   23.4827 C   0  0  0  0  0  0  0  0  0  0  0  0
  -21.4743  -14.0546   24.6110 C   0  0  0  0  0  0  0  0  0  0  0  0
  -19.8750  -14.6126   22.7797 C   0  0  0  0  0  0  0  0  0  0  0  0
  -24.2459  -10.1149   20.0342 C   0  0  0  0  0  0  0  0  0  0  0  0
  -29.9976  -19.2668   22.2129 C   0  0  0  0  0  0  0  0  0  0  0  0
  -29.6057  -21.8427   18.1171 C   0  0  0  0  0  0  0  0  0  0  0  0
  -31.1178  -18.2250   22.0861 C   0  0  0  0  0  0  0  0  0  0  0  0
  -29.5272  -16.2244   22.3850 C   0  0  0  0  0  0  0  0  0  1  0  0
  -22.2952  -14.1498   22.2135 C   0  0  1  0  0  0  0  0  0  0  0  0
  -22.5296  -10.3860   21.8285 C   0  0  2  0  0  0  0  0  0  0  0  0
  -30.8518  -16.8801   22.7981 C   0  0  1  0  0  0  0  0  0  0  0  0
  -21.3334  -14.7838   23.2577 C   0  0  0  0  0  0  0  0  0  0  0  0
  -31.1646  -22.7481   21.4096 N   0  0  0  0  0  0  0  0  0  0  0  0
  -25.6302  -27.1635   19.3512 N   0  0  0  0  0  0  0  0  0  0  0  0
  -29.8298  -20.6108   20.1787 N   0  0  0  0  0  0  0  0  0  0  0  0
  -26.7282  -27.4930   18.6498 N   0  0  0  0  0  0  0  0  0  0  0  0
  -23.4100  -15.4148   20.4021 N   0  0  0  0  0  0  0  0  0  0  0  0
  -27.2502  -24.3016   16.6124 N   0  0  0  0  0  0  0  0  0  0  0  0
  -28.4537  -29.1079   18.4904 N   0  0  0  0  0  0  0  0  0  0  0  0
  -25.9739  -30.5725   21.9692 N   0  0  0  0  0  0  0  0  0  0  0  0
  -30.9668  -23.9994   19.3990 N   0  0  0  0  0  0  0  0  0  0  0  0
  -22.4911  -18.4961   18.8557 N   0  0  0  0  0  0  0  0  0  0  0  0
  -22.0528  -12.7336   21.9602 N   0  0  0  0  0  0  0  0  0  0  0  0
  -28.6683  -22.9241   17.9107 N   0  0  0  0  0  0  0  0  0  0  0  0
  -23.6345   -9.5577   21.2682 N   0  3  0  0  0  0  0  0  0  0  0  0
  -27.8145  -31.0186   20.6762 O   0  0  0  0  0  0  0  0  0  0  0  0
  -23.7722  -18.0160   20.7401 O   0  0  0  0  0  0  0  0  0  0  0  0
  -21.1511  -14.8553   20.2590 O   0  0  0  0  0  0  0  0  0  0  0  0
  -24.1726  -12.0031   22.5515 O   0  0  0  0  0  0  0  0  0  0  0  0
  -28.4561  -22.5670   15.6558 O   0  0  0  0  0  0  0  0  0  0  0  0
  -21.3888  -28.1447   23.9984 O   0  0  0  0  0  0  0  0  0  0  0  0
  -29.5307  -15.9041   20.9944 O   0  0  0  0  0  0  0  0  0  1  0  0
  -16.2966  -27.0962   22.1613 F   0  0  0  0  0  0  0  0  0  0  0  0
  -19.3623  -30.0010   24.2990 F   0  0  0  0  0  0  0  0  0  0  0  0
  1  2  1  0  0  0  0
  1  5  2  0  0  0  0
  2  6  2  0  0  0  0
  3  8  2  0  0  0  0
  3 16  1  0  0  0  0
  4  9  1  0  0  0  0
  4 16  2  0  0  0  0
  5 18  1  0  0  0  0
  6 20  1  0  0  0  0
  7 10  2  0  0  0  0
  7 19  1  0  0  0  0
  8 22  1  0  0  0  0
  9 22  2  0  0  0  0
 10 23  1  0  0  0  0
 11 12  2  0  0  0  0
 11 24  1  0  0  0  0
 12 25  1  0  0  0  0
 13 21  1  0  0  0  0
 13 23  2  0  0  0  0
 14 25  2  0  0  0  0
 14 26  1  0  0  0  0
 15 28  1  0  0  0  0
 15 69  2  0  0  0  0
 16 27  1  0  0  0  0
 17 27  1  0  0  0  0
 17 31  2  0  0  0  0
 17 32  1  0  0  0  0
 18 20  2  0  0  0  0
 18 37  1  0  0  0  0
 19 21  2  0  0  0  0
 19 38  1  0  0  0  0
 20 51  1  0  0  0  0
 21 39  1  0  0  0  0
 22 87  1  0  0  0  0
 23 88  1  0  0  0  0
 24 26  2  0  0  0  0
 24 87  1  0  0  0  0
 25 89  1  0  0  0  0
 26 90  1  0  0  0  0
 27 70  2  0  0  0  0
 28 61  1  0  0  0  0
 28 71  2  0  0  0  0
 29 30  2  0  0  0  0
 29 62  1  0  0  0  0
 29 71  1  0  0  0  0
 30 69  1  0  0  0  0
 30 77  1  0  0  0  0
 31 72  1  0  0  0  0
 31 75  1  0  0  0  0
 32 76  1  0  0  0  0
 32 82  2  0  0  0  0
 33 52  1  0  0  0  0
 33 78  1  0  0  0  0
 33 83  2  0  0  0  0
 34 65  1  0  0  0  0
 34 73  1  0  0  0  0
 34 84  2  0  0  0  0
 35 66  1  0  0  0  0
 35 79  1  0  0  0  0
 35 85  2  0  0  0  0
 36 74  1  0  0  0  0
 36 80  1  0  0  0  0
 36 86  2  0  0  0  0
 37 40  1  0  0  0  0
 38 52  1  0  0  0  0
 39 73  1  0  0  0  0
 40 45  1  0  0  0  0
 41 42  1  0  0  0  0
 41 43  1  0  0  0  0
 42 47  1  0  0  0  0
 43 48  1  0  0  0  0
 44 46  1  0  0  0  0
 44 49  1  0  0  0  0
 45 51  1  0  0  0  0
 46 53  1  0  0  0  0
 47 54  1  0  0  0  0
 48 54  1  0  0  0  0
 49 74  1  0  0  0  0
 50 53  1  0  0  0  0
 50 74  1  0  0  0  0
 51 78  1  0  0  0  0
 52 73  1  0  0  0  0
 53 72  1  0  0  0  0
 54 77  1  0  0  0  0
 55 66  1  0  0  0  0
 56 67  1  0  0  0  0
 57 68  1  0  0  0  0
 58 68  1  0  0  0  0
 59 68  1  0  0  0  0
 60 81  1  0  0  0  0
 61 63  1  0  0  0  0
 62 80  1  0  0  0  0
 63 67  1  0  0  0  0
 64 67  1  0  0  0  0
 64 88  1  0  0  0  0
 65 68  1  0  0  0  0
 65 79  1  0  0  0  0
 66 81  1  0  0  0  0
 70 72  1  0  0  0  0
M  CHG  1  81   1
M  ISO  4  36 100  64 101  80 100  88 101
M  END
> <Batch ID>
0121

> <Smiles>
CNC(C)C(=O)NC(C(=O)N1Cc2cc([101O:1][101CH2:1]C(C)CCc3cnc(NC4CCCCC4)c(C[100NH:0][100C:0](=O)N4CCCC(n5nc(-c6ccc(Oc7ccc(F)cc7F)cc6)c(C(N)=O)c5N)C4)n3)ccc2CC1C(=O)NC1CCCc2ccccc21)C(C)(C)C

> <Shape>
0.236

> <Color>
0.056

> <Negative vol penalty>
0.000

$$$$

  -OEChem-04052320253D

 86 95  0     1  0  0  0  0  0999 V2000
  -28.4132  -33.1764   20.9730 C   0  0  0  0  0  0  0  0  0  0  0  0
  -28.2218  -31.8022   20.8710 C   0  0  0  0  0  0  0  0  0  0  0  0
  -24.5703  -12.3509   20.1303 C   0  0  0  0  0  0  0  0  0  0  0  0
  -26.6352  -13.0615   21.1639 C   0  0  0  0  0  0  0  0  0  0  0  0
  -27.5742  -33.9375   21.7857 C   0  0  0  0  0  0  0  0  0  0  0  0
  -27.1918  -31.1882   21.5827 C   0  0  0  0  0  0  0  0  0  0  0  0
  -24.6067  -27.8592   18.7755 C   0  0  0  0  0  0  0  0  0  0  0  0
  -24.7769  -11.0566   20.6072 C   0  0  0  0  0  0  0  0  0  0  0  0
  -26.8418  -11.7671   21.6409 C   0  0  0  0  0  0  0  0  0  0  0  0
  -25.1942  -26.6126   18.5642 C   0  0  0  0  0  0  0  0  0  0  0  0
  -24.4132   -9.3900   23.5267 C   0  0  0  0  0  0  0  0  0  0  0  0
  -23.3289   -8.7323   24.1073 C   0  0  0  0  0  0  0  0  0  0  0  0
  -23.8042  -25.6708   20.2964 C   0  0  0  0  0  0  0  0  0  0  0  0
  -23.4931   -6.9905   22.4412 C   0  0  0  0  0  0  0  0  0  0  0  0
  -25.4995  -13.3534   20.4085 C   0  0  0  0  0  0  0  0  0  0  0  0
  -24.1982  -15.5374   20.1975 C   0  0  0  0  0  0  0  0  0  0  0  0
  -26.5273  -33.3340   22.5001 C   0  0  0  0  0  0  0  0  0  0  0  0
  -23.6197  -28.0236   19.7579 C   0  0  0  0  0  0  0  0  0  0  0  0
  -26.3387  -31.9418   22.4067 C   0  0  0  0  0  0  0  0  0  0  0  0
  -23.2040  -26.9200   20.5163 C   0  0  0  0  0  0  0  0  0  0  0  0
  -25.9127  -10.7646   21.3626 C   0  0  0  0  0  0  0  0  0  0  0  0
  -24.7950  -25.5188   19.3267 C   0  0  0  0  0  0  0  0  0  0  0  0
  -25.0375   -8.8480   22.4032 C   0  0  0  0  0  0  0  0  0  0  0  0
  -22.8688   -7.5326   23.5646 C   0  0  0  0  0  0  0  0  0  0  0  0
  -24.5775   -7.6482   21.8605 C   0  0  0  0  0  0  0  0  0  0  0  0
  -25.2869  -14.6905   19.9156 C   0  0  0  0  0  0  0  0  0  0  0  0
  -24.4657  -16.6862   19.4938 C   0  0  0  0  0  0  0  0  0  0  0  0
  -23.0480  -15.3062   21.0216 C   0  0  0  0  0  0  0  0  0  0  0  0
  -23.3666  -29.7465   22.4171 C   0  0  0  0  0  0  0  0  0  0  0  0
  -20.3342  -28.5946   22.4107 C   0  0  0  0  0  0  0  0  0  0  0  0
  -17.1740  -27.4325   22.9669 C   0  0  0  0  0  0  0  0  0  0  0  0
  -29.5434  -19.1665   17.5149 C   0  0  0  0  0  0  0  0  0  0  0  0
  -25.6756  -34.1911   23.4027 C   0  0  0  0  0  0  0  0  0  0  0  0
  -22.9768  -29.3691   19.9551 C   0  0  0  0  0  0  0  0  0  0  0  0
  -22.1339  -27.0393   21.5695 C   0  0  0  0  0  0  0  0  0  0  0  0
  -24.3739  -33.5185   23.8310 C   0  0  0  0  0  0  0  0  0  0  0  0
  -26.7150  -18.2325   15.5644 C   0  0  0  0  0  0  0  0  0  0  0  0
  -24.6374  -32.0865   24.2857 C   0  0  0  0  0  0  0  0  0  0  0  0
  -29.1976  -22.4731   19.8667 C   0  0  0  0  0  0  0  0  0  0  0  0
  -28.0056  -20.6359   21.1239 C   0  0  0  0  0  0  0  0  0  0  0  0
  -27.9574  -23.3574   19.9829 C   0  0  0  0  0  0  0  0  0  0  0  0
  -26.7653  -21.5202   21.2400 C   0  0  0  0  0  0  0  0  0  0  0  0
  -25.9300  -17.2952   16.4838 C   0  0  0  0  0  0  0  0  0  0  0  0
  -28.2225  -18.0591   15.7357 C   0  0  0  0  0  0  0  0  0  0  0  0
  -27.9215  -17.2463   18.0428 C   0  0  0  0  0  0  0  0  0  0  0  0
  -32.1987  -19.6303   19.4690 C   0  0  0  0  0  0  0  0  0  0  0  0
  -25.2169  -31.2429   23.1438 C   0  0  1  0  0  0  0  0  0  0  0  0
  -22.3466  -29.5337   21.3346 C   0  0  1  0  0  0  0  0  0  0  0  0
  -29.2890  -21.4700   21.0236 C   0  0  0  0  0  0  0  0  0  0  0  0
  -30.5045  -20.5685   20.8588 C   0  0  1  0  0  0  0  0  0  0  0  0
  -26.6740  -22.5233   20.0831 C   0  0  0  0  0  0  0  0  0  0  0  0
  -26.3965  -17.4240   17.9463 C   0  0  2  0  0  0  0  0  0  0  0  0
  -30.7859  -20.1851   19.4064 C   0  0  2  0  0  0  0  0  0  0  0  0
  -31.8136  -21.2532   21.2626 C   0  0  1  0  0  0  0  0  0  0  0  0
  -15.4894  -27.1048   24.7978 C   0  0  0  0  0  0  0  0  0  0  0  0
  -32.1693  -19.7906   23.2722 C   0  0  0  0  0  0  0  0  0  0  0  0
  -33.4103  -21.9633   23.0653 C   0  0  0  0  0  0  0  0  0  0  0  0
  -21.9001  -26.1762   23.4152 C   0  0  0  0  0  0  0  0  0  0  0  0
  -19.8060  -25.3686   24.5246 C   0  0  0  0  0  0  0  0  0  0  0  0
  -20.8218  -27.5407   25.2124 C   0  0  0  0  0  0  0  0  0  0  0  0
  -15.2230  -29.2278   21.6517 C   0  0  0  0  0  0  0  0  0  0  0  0
  -25.4542  -23.4279   20.2484 C   0  0  0  0  0  0  0  0  0  1  0  0
  -19.6540  -27.3714   22.9764 C   0  0  1  0  0  0  0  0  0  0  0  0
  -15.9944  -28.0366   23.7071 C   0  0  2  0  0  0  0  0  0  0  0  0
  -32.1050  -21.2285   22.7514 C   0  0  0  0  0  0  0  0  0  0  0  0
  -20.5460  -26.6194   24.0042 C   0  0  0  0  0  0  0  0  0  0  0  0
  -26.1794  -15.2533   19.0967 N   0  0  0  0  0  0  0  0  0  0  0  0
  -25.6520  -16.4661   18.8578 N   0  0  0  0  0  0  0  0  0  0  0  0
  -21.5401  -28.3770   21.7292 N   0  0  0  0  0  0  0  0  0  0  0  0
  -28.5994  -18.1944   17.1448 N   0  0  0  0  0  0  0  0  0  0  0  0
  -23.7996  -17.8531   19.3633 N   0  0  0  0  0  0  0  0  0  0  0  0
  -23.1172  -15.6531   22.3778 N   0  0  0  0  0  0  0  0  0  0  0  0
  -24.1712  -30.8529   22.2224 N   0  0  0  0  0  0  0  0  0  0  0  0
  -18.3766  -27.8267   23.5143 N   0  0  0  0  0  0  0  0  0  0  0  0
  -29.8391  -19.2323   18.8709 N   0  0  0  0  0  0  0  0  0  0  0  0
  -32.8707  -20.4668   20.5238 N   0  3  0  0  0  0  0  0  0  0  0  0
  -14.8732  -28.3060   22.7630 N   0  3  0  0  0  0  0  0  0  0  0  0
  -21.9958  -14.7917   20.5725 O   0  0  0  0  0  0  0  0  0  0  0  0
  -23.4189  -28.9655   23.3600 O   0  0  0  0  0  0  0  0  0  0  0  0
  -19.8112  -29.7015   22.5615 O   0  0  0  0  0  0  0  0  0  0  0  0
  -17.0418  -26.6828   22.0020 O   0  0  0  0  0  0  0  0  0  0  0  0
  -30.0787  -19.9236   16.6980 O   0  0  0  0  0  0  0  0  0  0  0  0
  -26.1145   -9.5018   21.8284 O   0  0  0  0  0  0  0  0  0  0  0  0
  -25.3672  -24.3010   19.1230 O   0  0  0  0  0  0  0  0  0  1  0  0
  -21.8285   -6.9003   24.1232 F   0  0  0  0  0  0  0  0  0  0  0  0
  -25.1740   -7.1220   20.7820 F   0  0  0  0  0  0  0  0  0  0  0  0
  1  2  1  0  0  0  0
  1  5  2  0  0  0  0
  2  6  2  0  0  0  0
  3  8  2  0  0  0  0
  3 15  1  0  0  0  0
  4  9  1  0  0  0  0
  4 15  2  0  0  0  0
  5 17  1  0  0  0  0
  6 19  1  0  0  0  0
  7 10  2  0  0  0  0
  7 18  1  0  0  0  0
  8 21  1  0  0  0  0
  9 21  2  0  0  0  0
 10 22  1  0  0  0  0
 11 12  2  0  0  0  0
 11 23  1  0  0  0  0
 12 24  1  0  0  0  0
 13 20  1  0  0  0  0
 13 22  2  0  0  0  0
 14 24  2  0  0  0  0
 14 25  1  0  0  0  0
 15 26  1  0  0  0  0
 16 26  1  0  0  0  0
 16 27  2  0  0  0  0
 16 28  1  0  0  0  0
 17 19  2  0  0  0  0
 17 33  1  0  0  0  0
 18 20  2  0  0  0  0
 18 34  1  0  0  0  0
 19 47  1  0  0  0  0
 20 35  1  0  0  0  0
 21 83  1  0  0  0  0
 22 84  1  0  0  0  0
 23 25  2  0  0  0  0
 23 83  1  0  0  0  0
 24 85  1  0  0  0  0
 25 86  1  0  0  0  0
 26 67  2  0  0  0  0
 27 68  1  0  0  0  0
 27 71  1  0  0  0  0
 28 72  1  0  0  0  0
 28 78  2  0  0  0  0
 29 48  1  0  0  0  0
 29 73  1  0  0  0  0
 29 79  2  0  0  0  0
 30 63  1  0  0  0  0
 30 69  1  0  0  0  0
 30 80  2  0  0  0  0
 31 64  1  0  0  0  0
 31 74  1  0  0  0  0
 31 81  2  0  0  0  0
 32 70  1  0  0  0  0
 32 75  1  0  0  0  0
 32 82  2  0  0  0  0
 33 36  1  0  0  0  0
 34 48  1  0  0  0  0
 35 69  1  0  0  0  0
 36 38  1  0  0  0  0
 37 43  1  0  0  0  0
 37 44  1  0  0  0  0
 38 47  1  0  0  0  0
 39 41  1  0  0  0  0
 39 49  1  0  0  0  0
 40 42  1  0  0  0  0
 40 49  1  0  0  0  0
 41 51  1  0  0  0  0
 42 51  1  0  0  0  0
 43 52  1  0  0  0  0
 44 70  1  0  0  0  0
 45 52  1  0  0  0  0
 45 70  1  0  0  0  0
 46 53  1  0  0  0  0
 46 76  1  0  0  0  0
 47 73  1  0  0  0  0
 48 69  1  0  0  0  0
 49 50  1  0  0  0  0
 50 53  1  0  0  0  0
 50 54  1  0  0  0  0
 51 62  1  0  0  0  0
 52 68  1  0  0  0  0
 53 75  1  0  0  0  0
 54 65  1  0  0  0  0
 54 76  1  0  0  0  0
 55 64  1  0  0  0  0
 56 65  1  0  0  0  0
 57 65  1  0  0  0  0
 58 66  1  0  0  0  0
 59 66  1  0  0  0  0
 60 66  1  0  0  0  0
 61 77  1  0  0  0  0
 62 84  1  0  0  0  0
 63 66  1  0  0  0  0
 63 74  1  0  0  0  0
 64 77  1  0  0  0  0
 67 68  1  0  0  0  0
M  CHG  2  76   1  77   1
M  ISO  4  32 100  62 101  75 100  84 101
M  END
> <Batch ID>
0121

> <Smiles>
CNC(C)C(=O)NC(C(=O)N1Cc2cc([101O:1][101CH2:1]C3CCC(C4C([100NH:0][100C:0](=O)N5CCCC(n6nc(-c7ccc(Oc8ccc(F)cc8F)cc7)c(C(N)=O)c6N)C5)CNC4C(C)C)CC3)ccc2CC1C(=O)NC1CCCc2ccccc21)C(C)(C)C

> <Shape>
0.258

> <Color>
0.044

> <Negative vol penalty>
0.000

$$$$

  -OEChem-04052320253D

 85 94  0     1  0  0  0  0  0999 V2000
  -30.9351  -24.7734   17.3877 C   0  0  0  0  0  0  0  0  0  0  0  0
  -30.0121  -24.1549   18.2250 C   0  0  0  0  0  0  0  0  0  0  0  0
  -27.0342  -17.2865   19.1947 C   0  0  0  0  0  0  0  0  0  0  0  0
  -28.1841  -16.9099   21.2858 C   0  0  0  0  0  0  0  0  0  0  0  0
  -31.1577  -26.1459   17.4906 C   0  0  0  0  0  0  0  0  0  0  0  0
  -29.3119  -24.9085   19.1664 C   0  0  0  0  0  0  0  0  0  0  0  0
  -24.3785  -23.7717   19.2846 C   0  0  0  0  0  0  0  0  0  0  0  0
  -27.6482  -18.5338   19.0816 C   0  0  0  0  0  0  0  0  0  0  0  0
  -28.7982  -18.1572   21.1728 C   0  0  0  0  0  0  0  0  0  0  0  0
  -24.0096  -22.6058   19.9542 C   0  0  0  0  0  0  0  0  0  0  0  0
  -30.3922  -21.3934   21.6158 C   0  0  0  0  0  0  0  0  0  0  0  0
  -30.4302  -22.2026   22.7512 C   0  0  0  0  0  0  0  0  0  0  0  0
  -23.3752  -23.9178   21.8766 C   0  0  0  0  0  0  0  0  0  0  0  0
  -25.2302  -18.0640   25.9166 C   0  0  0  0  0  0  0  0  0  0  0  0
  -28.0154  -22.2054   22.8300 C   0  0  0  0  0  0  0  0  0  0  0  0
  -22.8784  -17.7684   26.1115 C   0  0  0  0  0  0  0  0  0  0  0  0
  -27.3021  -16.4746   20.2968 C   0  0  0  0  0  0  0  0  0  0  0  0
  -27.1473  -13.9549   19.9291 C   0  0  0  0  0  0  0  0  0  0  0  0
  -30.4528  -26.9183   18.4271 C   0  0  0  0  0  0  0  0  0  0  0  0
  -24.2585  -25.0206   19.9110 C   0  0  0  0  0  0  0  0  0  0  0  0
  -29.5263  -26.2924   19.2828 C   0  0  0  0  0  0  0  0  0  0  0  0
  -23.7408  -25.0982   21.2119 C   0  0  0  0  0  0  0  0  0  0  0  0
  -23.9484  -18.5870   25.7880 C   0  0  0  0  0  0  0  0  0  0  0  0
  -25.4006  -16.7567   26.3585 C   0  0  0  0  0  0  0  0  0  0  0  0
  -28.5303  -18.9691   20.0706 C   0  0  0  0  0  0  0  0  0  0  0  0
  -23.5106  -22.6784   21.2514 C   0  0  0  0  0  0  0  0  0  0  0  0
  -29.1659  -20.9902   21.0874 C   0  0  0  0  0  0  0  0  0  0  0  0
  -29.2418  -22.6087   23.3583 C   0  0  0  0  0  0  0  0  0  0  0  0
  -27.9775  -21.3962   21.6945 C   0  0  0  0  0  0  0  0  0  0  0  0
  -26.6676  -15.1863   20.4145 C   0  0  0  0  0  0  0  0  0  0  0  0
  -24.2656  -16.0200   26.6567 C   0  0  0  0  0  0  0  0  0  0  0  0
  -26.1864  -13.0441   20.2945 C   0  0  0  0  0  0  0  0  0  0  0  0
  -28.3536  -13.6608   19.2123 C   0  0  0  0  0  0  0  0  0  0  0  0
  -24.3608  -14.6459   27.1263 C   0  0  0  0  0  0  0  0  0  0  0  0
  -26.2938  -27.3120   20.7539 C   0  0  0  0  0  0  0  0  0  0  0  0
  -23.5748  -28.9069   21.5192 C   0  0  0  0  0  0  0  0  0  0  0  0
  -20.2779  -28.7617   22.3889 C   0  0  0  0  0  0  0  0  0  0  0  0
  -22.0944  -13.0885   24.7029 C   0  0  0  0  0  0  0  0  0  0  0  0
  -30.7619  -28.3907   18.5335 C   0  0  0  0  0  0  0  0  0  0  0  0
  -24.6357  -26.2712   19.1654 C   0  0  0  0  0  0  0  0  0  0  0  0
  -23.5733  -26.4162   21.9213 C   0  0  0  0  0  0  0  0  0  0  0  0
  -29.7060  -29.1807   19.3025 C   0  0  0  0  0  0  0  0  0  0  0  0
  -21.5055  -12.6739   21.1758 C   0  0  0  0  0  0  0  0  0  0  0  0
  -29.3339  -28.4583   20.5934 C   0  0  0  0  0  0  0  0  0  0  0  0
  -22.7949  -13.1897   20.5373 C   0  0  0  0  0  0  0  0  0  0  0  0
  -21.1495  -13.4618   22.4326 C   0  0  0  0  0  0  0  0  0  0  0  0
  -23.5136  -12.2985   26.5751 C   0  0  0  0  0  0  0  0  0  0  0  0
  -23.5350  -14.0161   22.8158 C   0  0  0  0  0  0  0  0  0  0  0  0
  -28.7291  -27.0801   20.2997 C   0  0  1  0  0  0  0  0  0  0  0  0
  -23.2597  -13.7409   26.7941 C   0  0  2  0  0  0  0  0  0  0  0  0
  -24.9534  -27.4440   20.0879 C   0  0  1  0  0  0  0  0  0  0  0  0
  -23.9436  -13.2250   21.5611 C   0  0  2  0  0  0  0  0  0  0  0  0
  -26.7724  -16.1918   26.4973 C   0  0  0  0  0  0  0  0  0  0  0  0
  -18.3318  -30.2289   22.9864 C   0  0  0  0  0  0  0  0  0  0  0  0
  -24.7658  -29.3529   24.2928 C   0  0  0  0  0  0  0  0  0  0  0  0
  -22.4743  -29.9520   25.1041 C   0  0  0  0  0  0  0  0  0  0  0  0
  -23.5713  -31.3327   23.3397 C   0  0  0  0  0  0  0  0  0  0  0  0
  -18.6957  -27.8013   20.0795 C   0  0  0  0  0  0  0  0  0  0  0  0
  -23.7294  -20.0008   25.3117 C   0  0  0  0  0  0  0  0  0  0  0  0
  -23.5871  -20.1241   23.7931 C   0  0  0  0  0  0  0  0  0  0  0  0
  -23.2809  -21.5432   23.3286 C   0  0  0  0  0  0  0  0  0  1  0  0
  -22.7172  -29.0258   22.7559 C   0  0  1  0  0  0  0  0  0  0  0  0
  -19.0642  -29.5082   21.8653 C   0  0  2  0  0  0  0  0  0  0  0  0
  -23.3870  -29.8907   23.8607 C   0  0  0  0  0  0  0  0  0  0  0  0
  -23.0044  -16.4938   26.5441 N   0  0  0  0  0  0  0  0  0  0  0  0
  -25.4932  -15.0716   21.0402 N   0  0  0  0  0  0  0  0  0  0  0  0
  -25.2268  -13.7574   20.9505 N   0  0  0  0  0  0  0  0  0  0  0  0
  -23.9620  -27.6102   21.1527 N   0  0  0  0  0  0  0  0  0  0  0  0
  -22.2744  -13.4979   23.3674 N   0  0  0  0  0  0  0  0  0  0  0  0
  -23.2523  -13.1757   25.4747 N   0  0  0  0  0  0  0  0  0  0  0  0
  -26.0771  -11.7105   20.1152 N   0  0  0  0  0  0  0  0  0  0  0  0
  -29.2303  -14.7143   18.9191 N   0  0  0  0  0  0  0  0  0  0  0  0
  -27.3529  -27.2128   19.8720 N   0  0  0  0  0  0  0  0  0  0  0  0
  -21.4222  -29.5267   22.3080 N   0  0  0  0  0  0  0  0  0  0  0  0
  -18.1142  -28.5615   21.2157 N   0  3  0  0  0  0  0  0  0  0  0  0
  -28.6376  -12.5009   18.8283 O   0  0  0  0  0  0  0  0  0  0  0  0
  -25.2958  -14.1890   27.7862 O   0  0  0  0  0  0  0  0  0  0  0  0
  -26.3622  -27.3025   21.9774 O   0  0  0  0  0  0  0  0  0  0  0  0
  -23.8837  -29.9264   20.8972 O   0  0  0  0  0  0  0  0  0  0  0  0
  -20.2163  -27.6159   22.8292 O   0  0  0  0  0  0  0  0  0  0  0  0
  -21.0156  -12.6889   25.1496 O   0  0  0  0  0  0  0  0  0  0  0  0
  -29.1299  -20.1861   19.9605 O   0  0  0  0  0  0  0  0  0  0  0  0
  -23.1504  -21.5419   21.9075 O   0  0  0  0  0  0  0  0  0  1  0  0
  -29.2784  -23.3845   24.4496 F   0  0  0  0  0  0  0  0  0  0  0  0
  -26.7963  -21.0110   21.1921 F   0  0  0  0  0  0  0  0  0  0  0  0
  1  2  1  0  0  0  0
  1  5  2  0  0  0  0
  2  6  2  0  0  0  0
  3  8  2  0  0  0  0
  3 17  1  0  0  0  0
  4  9  1  0  0  0  0
  4 17  2  0  0  0  0
  5 19  1  0  0  0  0
  6 21  1  0  0  0  0
  7 10  2  0  0  0  0
  7 20  1  0  0  0  0
  8 25  1  0  0  0  0
  9 25  2  0  0  0  0
 10 26  1  0  0  0  0
 11 12  2  0  0  0  0
 11 27  1  0  0  0  0
 12 28  1  0  0  0  0
 13 22  1  0  0  0  0
 13 26  2  0  0  0  0
 14 23  2  0  0  0  0
 14 24  1  0  0  0  0
 15 28  2  0  0  0  0
 15 29  1  0  0  0  0
 16 23  1  0  0  0  0
 16 65  2  0  0  0  0
 17 30  1  0  0  0  0
 18 30  1  0  0  0  0
 18 32  2  0  0  0  0
 18 33  1  0  0  0  0
 19 21  2  0  0  0  0
 19 39  1  0  0  0  0
 20 22  2  0  0  0  0
 20 40  1  0  0  0  0
 21 49  1  0  0  0  0
 22 41  1  0  0  0  0
 23 59  1  0  0  0  0
 24 31  2  0  0  0  0
 24 53  1  0  0  0  0
 25 82  1  0  0  0  0
 26 83  1  0  0  0  0
 27 29  2  0  0  0  0
 27 82  1  0  0  0  0
 28 84  1  0  0  0  0
 29 85  1  0  0  0  0
 30 66  2  0  0  0  0
 31 34  1  0  0  0  0
 31 65  1  0  0  0  0
 32 67  1  0  0  0  0
 32 71  1  0  0  0  0
 33 72  1  0  0  0  0
 33 76  2  0  0  0  0
 34 50  1  0  0  0  0
 34 77  2  0  0  0  0
 35 51  1  0  0  0  0
 35 73  1  0  0  0  0
 35 78  2  0  0  0  0
 36 62  1  0  0  0  0
 36 68  1  0  0  0  0
 36 79  2  0  0  0  0
 37 63  1  0  0  0  0
 37 74  1  0  0  0  0
 37 80  2  0  0  0  0
 38 69  1  0  0  0  0
 38 70  1  0  0  0  0
 38 81  2  0  0  0  0
 39 42  1  0  0  0  0
 40 51  1  0  0  0  0
 41 68  1  0  0  0  0
 42 44  1  0  0  0  0
 43 45  1  0  0  0  0
 43 46  1  0  0  0  0
 44 49  1  0  0  0  0
 45 52  1  0  0  0  0
 46 69  1  0  0  0  0
 47 50  1  0  0  0  0
 47 70  1  0  0  0  0
 48 52  1  0  0  0  0
 48 69  1  0  0  0  0
 49 73  1  0  0  0  0
 50 70  1  0  0  0  0
 51 68  1  0  0  0  0
 52 67  1  0  0  0  0
 54 63  1  0  0  0  0
 55 64  1  0  0  0  0
 56 64  1  0  0  0  0
 57 64  1  0  0  0  0
 58 75  1  0  0  0  0
 59 60  1  0  0  0  0
 60 61  1  0  0  0  0
 61 83  1  0  0  0  0
 62 64  1  0  0  0  0
 62 74  1  0  0  0  0
 63 75  1  0  0  0  0
 66 67  1  0  0  0  0
M  CHG  1  75   1
M  ISO  4  38 100  61 101  70 100  83 101
M  END
> <Batch ID>
0121

> <Smiles>
CNC(C)C(=O)NC(C(=O)N1Cc2cc([101O:1][101CH2:1]CCc3cnc(C(=O)C4C[100N:0]4[100C:0](=O)N4CCCC(n5nc(-c6ccc(Oc7ccc(F)cc7F)cc6)c(C(N)=O)c5N)C4)c(C)c3)ccc2CC1C(=O)NC1CCCc2ccccc21)C(C)(C)C

> <Shape>
0.242

> <Color>
0.065

> <Negative vol penalty>
0.000

$$$$

  -OEChem-04052320253D

 87 96  0     1  0  0  0  0  0999 V2000
  -17.1472  -30.3118   24.1710 C   0  0  0  0  0  0  0  0  0  0  0  0
  -17.9926  -29.7234   25.1062 C   0  0  0  0  0  0  0  0  0  0  0  0
  -33.7543  -22.6995   23.1121 C   0  0  0  0  0  0  0  0  0  0  0  0
  -24.6078  -14.1700   21.1005 C   0  0  0  0  0  0  0  0  0  0  0  0
  -26.9561  -13.7265   20.7459 C   0  0  0  0  0  0  0  0  0  0  0  0
  -17.2090  -29.9211   22.8341 C   0  0  0  0  0  0  0  0  0  0  0  0
  -18.8996  -28.7432   24.7051 C   0  0  0  0  0  0  0  0  0  0  0  0
  -25.4361  -26.2314   26.2156 C   0  0  0  0  0  0  0  0  0  0  0  0
  -33.0006  -22.3493   24.2337 C   0  0  0  0  0  0  0  0  0  0  0  0
  -24.2967  -12.8905   20.6406 C   0  0  0  0  0  0  0  0  0  0  0  0
  -26.6450  -12.4469   20.2860 C   0  0  0  0  0  0  0  0  0  0  0  0
  -26.0881  -25.0356   26.5135 C   0  0  0  0  0  0  0  0  0  0  0  0
  -24.3427   -9.7312   21.8446 C   0  0  0  0  0  0  0  0  0  0  0  0
  -23.4156   -8.9876   22.5747 C   0  0  0  0  0  0  0  0  0  0  0  0
  -33.9982  -22.7928   20.6742 C   0  0  0  0  0  0  0  0  0  0  0  0
  -26.1610  -24.4969   24.1632 C   0  0  0  0  0  0  0  0  0  0  0  0
  -21.9834   -8.8664   20.6327 C   0  0  0  0  0  0  0  0  0  0  0  0
  -33.2666  -22.4535   21.8183 C   0  0  0  0  0  0  0  0  0  0  0  0
  -32.0028  -21.8467   21.6652 C   0  0  0  0  0  0  0  0  0  0  0  0
  -25.9376  -14.5881   21.1531 C   0  0  0  0  0  0  0  0  0  0  0  0
  -26.5327  -16.2939   22.9541 C   0  0  0  0  0  0  0  0  0  0  0  0
  -18.1239  -28.9425   22.4147 C   0  0  0  0  0  0  0  0  0  0  0  0
  -25.1313  -26.5643   24.8880 C   0  0  0  0  0  0  0  0  0  0  0  0
  -18.9728  -28.3381   23.3615 C   0  0  0  0  0  0  0  0  0  0  0  0
  -25.5073  -25.6986   23.8510 C   0  0  0  0  0  0  0  0  0  0  0  0
  -31.7527  -21.7502   24.0784 C   0  0  0  0  0  0  0  0  0  0  0  0
  -31.2529  -21.4986   22.8009 C   0  0  0  0  0  0  0  0  0  0  0  0
  -25.3152  -12.0289   20.2334 C   0  0  0  0  0  0  0  0  0  0  0  0
  -26.4481  -24.1668   25.4875 C   0  0  0  0  0  0  0  0  0  0  0  0
  -24.0902  -10.0425   20.5086 C   0  0  0  0  0  0  0  0  0  0  0  0
  -22.2360   -8.5552   21.9688 C   0  0  0  0  0  0  0  0  0  0  0  0
  -22.9106   -9.6101   19.9026 C   0  0  0  0  0  0  0  0  0  0  0  0
  -26.2596  -15.9099   21.6275 C   0  0  0  0  0  0  0  0  0  0  0  0
  -33.4478  -22.5173   19.4318 C   0  0  0  0  0  0  0  0  0  0  0  0
  -31.5512  -21.6180   20.3640 C   0  0  0  0  0  0  0  0  0  0  0  0
  -26.7769  -17.6434   22.8776 C   0  0  0  0  0  0  0  0  0  0  0  0
  -26.5629  -15.5016   24.1487 C   0  0  0  0  0  0  0  0  0  0  0  0
  -22.4483  -27.0873   23.2658 C   0  0  0  0  0  0  0  0  0  0  0  0
  -24.5027  -27.9040   20.8920 C   0  0  0  0  0  0  0  0  0  0  0  0
  -27.6205  -27.6201   19.5335 C   0  0  0  0  0  0  0  0  0  0  0  0
  -29.2217  -21.5594   19.4066 C   0  0  0  0  0  0  0  0  0  0  0  0
  -18.1212  -28.5191   20.9671 C   0  0  0  0  0  0  0  0  0  0  0  0
  -24.4515  -27.8705   24.5811 C   0  0  0  0  0  0  0  0  0  0  0  0
  -25.2211  -26.0191   22.4074 C   0  0  0  0  0  0  0  0  0  0  0  0
  -19.3694  -27.7415   20.5576 C   0  0  0  0  0  0  0  0  0  0  0  0
  -25.6855  -21.2031   19.6187 C   0  0  0  0  0  0  0  0  0  0  0  0
  -19.6916  -26.6665   21.5909 C   0  0  0  0  0  0  0  0  0  0  0  0
  -25.4979  -19.8396   20.2880 C   0  0  0  0  0  0  0  0  0  0  0  0
  -26.8771  -21.2066   18.6628 C   0  0  0  0  0  0  0  0  0  0  0  0
  -27.9549  -19.3796   19.9156 C   0  0  0  0  0  0  0  0  0  0  0  0
  -19.9872  -27.2890   22.9608 C   0  0  1  0  0  0  0  0  0  0  0  0
  -23.7318  -27.8679   23.2359 C   0  0  1  0  0  0  0  0  0  0  0  0
  -26.8059  -19.3456   20.9366 C   0  0  2  0  0  0  0  0  0  0  0  0
  -29.9015  -20.8501   22.7391 C   0  0  0  0  0  0  0  0  0  0  0  0
  -34.2130  -22.8727   18.2005 C   0  0  0  0  0  0  0  0  0  0  0  0
  -28.9899  -28.3733   17.5701 C   0  0  0  0  0  0  0  0  0  0  0  0
  -23.0370  -25.9095   19.1077 C   0  0  0  0  0  0  0  0  0  0  0  0
  -24.9796  -25.9988   17.5308 C   0  0  0  0  0  0  0  0  0  0  0  0
  -23.6490  -28.0592   17.9859 C   0  0  0  0  0  0  0  0  0  0  0  0
  -29.5791  -28.9913   21.2778 C   0  0  0  0  0  0  0  0  0  0  0  0
  -30.9752  -21.3906   25.3101 C   0  0  0  0  0  0  0  0  0  0  0  0
  -29.0153  -21.9515   26.7534 C   0  0  0  0  0  0  0  0  0  0  0  0
  -27.9176  -22.9814   26.9336 C   0  0  0  0  0  0  0  0  0  1  0  0
  -25.1944  -27.1616   19.7742 C   0  0  1  0  0  0  0  0  0  0  0  0
  -28.5892  -28.6641   19.0081 C   0  0  2  0  0  0  0  0  0  0  0  0
  -24.2188  -26.7750   18.6269 C   0  0  0  0  0  0  0  0  0  0  0  0
  -26.3240  -16.9328   20.7710 N   0  0  0  0  0  0  0  0  0  0  0  0
  -32.2423  -21.9383   19.2468 N   0  0  0  0  0  0  0  0  0  0  0  0
  -26.6402  -17.9728   21.5612 N   0  0  0  0  0  0  0  0  0  0  0  0
  -24.5489  -27.3051   22.1589 N   0  0  0  0  0  0  0  0  0  0  0  0
  -28.0812  -20.7309   19.3475 N   0  0  0  0  0  0  0  0  0  0  0  0
  -27.0929  -18.5684   23.8086 N   0  0  0  0  0  0  0  0  0  0  0  0
  -26.2882  -14.1309   24.0485 N   0  0  0  0  0  0  0  0  0  0  0  0
  -30.2944  -21.0142   20.1114 N   0  0  0  0  0  0  0  0  0  0  0  0
  -21.3245  -27.8415   22.9868 N   0  0  0  0  0  0  0  0  0  0  0  0
  -26.3085  -28.0039   19.3529 N   0  0  0  0  0  0  0  0  0  0  0  0
  -29.8232  -28.6926   19.8432 N   0  3  0  0  0  0  0  0  0  0  0  0
  -29.8404  -22.3160   25.5741 N   0  3  0  0  0  0  0  0  0  0  0  0
  -26.8098  -15.9976   25.2741 O   0  0  0  0  0  0  0  0  0  0  0  0
  -22.4756  -25.8892   23.5214 O   0  0  0  0  0  0  0  0  0  0  0  0
  -23.9482  -28.9793   20.6514 O   0  0  0  0  0  0  0  0  0  0  0  0
  -27.9906  -26.5675   20.0491 O   0  0  0  0  0  0  0  0  0  0  0  0
  -29.2358  -22.6818   18.8947 O   0  0  0  0  0  0  0  0  0  0  0  0
  -25.0120  -10.7801   19.7848 O   0  0  0  0  0  0  0  0  0  0  0  0
  -27.0840  -22.9987   25.7755 O   0  0  0  0  0  0  0  0  0  1  0  0
  -21.3464   -7.8398   22.6696 F   0  0  0  0  0  0  0  0  0  0  0  0
  -22.6630   -9.9050   18.6191 F   0  0  0  0  0  0  0  0  0  0  0  0
  1  2  1  0  0  0  0
  1  6  2  0  0  0  0
  2  7  2  0  0  0  0
  3  9  2  0  0  0  0
  3 18  1  0  0  0  0
  4 10  2  0  0  0  0
  4 20  1  0  0  0  0
  5 11  1  0  0  0  0
  5 20  2  0  0  0  0
  6 22  1  0  0  0  0
  7 24  1  0  0  0  0
  8 12  2  0  0  0  0
  8 23  1  0  0  0  0
  9 26  1  0  0  0  0
 10 28  1  0  0  0  0
 11 28  2  0  0  0  0
 12 29  1  0  0  0  0
 13 14  2  0  0  0  0
 13 30  1  0  0  0  0
 14 31  1  0  0  0  0
 15 18  1  0  0  0  0
 15 34  2  0  0  0  0
 16 25  1  0  0  0  0
 16 29  2  0  0  0  0
 17 31  2  0  0  0  0
 17 32  1  0  0  0  0
 18 19  2  0  0  0  0
 19 27  1  0  0  0  0
 19 35  1  0  0  0  0
 20 33  1  0  0  0  0
 21 33  1  0  0  0  0
 21 36  2  0  0  0  0
 21 37  1  0  0  0  0
 22 24  2  0  0  0  0
 22 42  1  0  0  0  0
 23 25  2  0  0  0  0
 23 43  1  0  0  0  0
 24 51  1  0  0  0  0
 25 44  1  0  0  0  0
 26 27  2  0  0  0  0
 26 61  1  0  0  0  0
 27 54  1  0  0  0  0
 28 84  1  0  0  0  0
 29 85  1  0  0  0  0
 30 32  2  0  0  0  0
 30 84  1  0  0  0  0
 31 86  1  0  0  0  0
 32 87  1  0  0  0  0
 33 67  2  0  0  0  0
 34 55  1  0  0  0  0
 34 68  1  0  0  0  0
 35 68  2  0  0  0  0
 35 74  1  0  0  0  0
 36 69  1  0  0  0  0
 36 72  1  0  0  0  0
 37 73  1  0  0  0  0
 37 79  2  0  0  0  0
 38 52  1  0  0  0  0
 38 75  1  0  0  0  0
 38 80  2  0  0  0  0
 39 64  1  0  0  0  0
 39 70  1  0  0  0  0
 39 81  2  0  0  0  0
 40 65  1  0  0  0  0
 40 76  1  0  0  0  0
 40 82  2  0  0  0  0
 41 71  1  0  0  0  0
 41 74  1  0  0  0  0
 41 83  2  0  0  0  0
 42 45  1  0  0  0  0
 43 52  1  0  0  0  0
 44 70  1  0  0  0  0
 45 47  1  0  0  0  0
 46 48  1  0  0  0  0
 46 49  1  0  0  0  0
 47 51  1  0  0  0  0
 48 53  1  0  0  0  0
 49 71  1  0  0  0  0
 50 53  1  0  0  0  0
 50 71  1  0  0  0  0
 51 75  1  0  0  0  0
 52 70  1  0  0  0  0
 53 69  1  0  0  0  0
 56 65  1  0  0  0  0
 57 66  1  0  0  0  0
 58 66  1  0  0  0  0
 59 66  1  0  0  0  0
 60 77  1  0  0  0  0
 61 78  1  0  0  0  0
 62 63  1  0  0  0  0
 62 78  1  0  0  0  0
 63 85  1  0  0  0  0
 64 66  1  0  0  0  0
 64 76  1  0  0  0  0
 65 77  1  0  0  0  0
 67 69  1  0  0  0  0
M  CHG  2  77   1  78   1
M  ISO  4  41 100  63 101  74 100  85 101
M  END
> <Batch ID>
0121

> <Smiles>
CNC(C)C(=O)NC(C(=O)N1Cc2cc([101O:1][101CH2:1]CNCc3ccc4cc(C)nc([100NH:0][100C:0](=O)N5CCCC(n6nc(-c7ccc(Oc8ccc(F)cc8F)cc7)c(C(N)=O)c6N)C5)c4c3C)ccc2CC1C(=O)NC1CCCc2ccccc21)C(C)(C)C

> <Shape>
0.207

> <Color>
0.092

> <Negative vol penalty>
0.000

$$$$

  -OEChem-04052320253D

 83 91  0     1  0  0  0  0  0999 V2000
  -28.9449  -10.2769   16.3440 C   0  0  0  0  0  0  0  0  0  0  0  0
  -27.6570  -10.8023   16.3202 C   0  0  0  0  0  0  0  0  0  0  0  0
  -27.0204  -32.4715   20.2874 C   0  0  0  0  0  0  0  0  0  0  0  0
  -26.4592  -31.7625   22.5278 C   0  0  0  0  0  0  0  0  0  0  0  0
  -29.7972  -10.5714   17.4073 C   0  0  0  0  0  0  0  0  0  0  0  0
  -27.2202  -11.6218   17.3605 C   0  0  0  0  0  0  0  0  0  0  0  0
  -22.9505  -17.2315   18.6322 C   0  0  0  0  0  0  0  0  0  0  0  0
  -26.8734  -33.8041   20.6722 C   0  0  0  0  0  0  0  0  0  0  0  0
  -26.3122  -33.0952   22.9127 C   0  0  0  0  0  0  0  0  0  0  0  0
  -21.9034  -17.6208   19.4663 C   0  0  0  0  0  0  0  0  0  0  0  0
  -23.9862  -35.5312   22.6187 C   0  0  0  0  0  0  0  0  0  0  0  0
  -22.8697  -35.8650   23.3852 C   0  0  0  0  0  0  0  0  0  0  0  0
  -23.4899  -18.1258   21.2121 C   0  0  0  0  0  0  0  0  0  0  0  0
  -21.4653  -23.1282   22.2812 C   0  0  0  0  0  0  0  0  0  0  0  0
  -24.3178  -36.6316   25.1608 C   0  0  0  0  0  0  0  0  0  0  0  0
  -26.8132  -31.4506   21.2152 C   0  0  0  0  0  0  0  0  0  0  0  0
  -28.1386  -29.2989   20.8673 C   0  0  0  0  0  0  0  0  0  0  0  0
  -29.3740  -11.4028   18.4563 C   0  0  0  0  0  0  0  0  0  0  0  0
  -24.2765  -17.2761   19.0862 C   0  0  0  0  0  0  0  0  0  0  0  0
  -28.0672  -11.9267   18.4395 C   0  0  0  0  0  0  0  0  0  0  0  0
  -24.5522  -17.7389   20.3808 C   0  0  0  0  0  0  0  0  0  0  0  0
  -21.4308  -22.3486   23.4637 C   0  0  0  0  0  0  0  0  0  0  0  0
  -26.5194  -34.1159   21.9849 C   0  0  0  0  0  0  0  0  0  0  0  0
  -22.1728  -18.0653   20.7575 C   0  0  0  0  0  0  0  0  0  0  0  0
  -25.2686  -35.7475   23.1233 C   0  0  0  0  0  0  0  0  0  0  0  0
  -23.0354  -36.4153   24.6562 C   0  0  0  0  0  0  0  0  0  0  0  0
  -25.4343  -36.2977   24.3943 C   0  0  0  0  0  0  0  0  0  0  0  0
  -26.9643  -30.0738   20.8181 C   0  0  0  0  0  0  0  0  0  0  0  0
  -22.5556  -22.6606   24.1949 C   0  0  0  0  0  0  0  0  0  0  0  0
  -22.6103  -23.8926   22.3257 C   0  0  0  0  0  0  0  0  0  0  0  0
  -27.7595  -28.0702   20.3844 C   0  0  0  0  0  0  0  0  0  0  0  0
  -29.4543  -29.6576   21.3099 C   0  0  0  0  0  0  0  0  0  0  0  0
  -26.5657  -15.1182   19.5407 C   0  0  0  0  0  0  0  0  0  0  0  0
  -28.3712  -17.7382   20.1717 C   0  0  0  0  0  0  0  0  0  0  0  0
  -28.4944  -21.0017   21.1624 C   0  0  0  0  0  0  0  0  0  0  0  0
  -22.5201  -25.2048   20.1771 C   0  0  0  0  0  0  0  0  0  0  0  0
  -30.3148  -11.6545   19.6079 C   0  0  0  0  0  0  0  0  0  0  0  0
  -25.3969  -16.8780   18.1650 C   0  0  0  0  0  0  0  0  0  0  0  0
  -25.9600  -17.8249   20.9093 C   0  0  0  0  0  0  0  0  0  0  0  0
  -29.9029  -12.8346   20.4842 C   0  0  0  0  0  0  0  0  0  0  0  0
  -24.6105  -26.0230   17.4135 C   0  0  0  0  0  0  0  0  0  0  0  0
  -28.4148  -12.7627   20.8115 C   0  0  0  0  0  0  0  0  0  0  0  0
  -25.5621  -27.0797   17.9791 C   0  0  0  0  0  0  0  0  0  0  0  0
  -23.2019  -26.1627   17.9879 C   0  0  0  0  0  0  0  0  0  0  0  0
  -24.0807  -27.2433   20.0200 C   0  0  0  0  0  0  0  0  0  0  0  0
  -27.5653  -12.8397   19.5371 C   0  0  1  0  0  0  0  0  0  0  0  0
  -26.6676  -16.4772   18.9079 C   0  0  1  0  0  0  0  0  0  0  0  0
  -25.5276  -27.1023   19.5198 C   0  0  2  0  0  0  0  0  0  0  0  0
  -23.0153  -22.1444   25.5022 C   0  0  0  0  0  0  0  0  0  0  0  0
  -30.1157  -22.8618   21.6189 C   0  0  0  0  0  0  0  0  0  0  0  0
  -24.3889  -25.6995   24.1462 C   0  0  0  0  0  0  0  0  0  0  0  0
  -25.6645  -23.8571   22.9695 C   0  0  0  0  0  0  0  0  0  0  0  0
  -29.1321  -16.4224   22.8174 C   0  0  0  0  0  0  0  0  0  0  0  0
  -29.9386  -18.6542   23.6154 C   0  0  0  0  0  0  0  0  0  0  0  0
  -31.0176  -17.5721   21.6438 C   0  0  0  0  0  0  0  0  0  0  0  0
  -27.3047  -22.7108   19.0594 C   0  0  0  0  0  0  0  0  0  0  0  0
  -20.3560  -21.3621   23.8447 C   0  0  0  0  0  0  0  0  0  0  0  0
  -20.1630  -20.2373   22.8253 C   0  0  0  0  0  0  0  0  0  0  0  0
  -21.4382  -19.4505   22.5456 C   0  0  0  0  0  0  0  0  0  1  0  0
  -28.6944  -18.5412   21.4085 C   0  0  1  0  0  0  0  0  0  0  0  0
  -29.2181  -22.2037   20.5827 C   0  0  2  0  0  0  0  0  0  0  0  0
  -24.5158  -24.1912   23.9231 C   0  0  0  0  0  0  0  0  0  0  0  0
  -29.6689  -17.7941   22.3623 C   0  0  0  0  0  0  0  0  0  0  0  0
  -25.9177  -29.3945   20.3415 N   0  0  0  0  0  0  0  0  0  0  0  0
  -23.2653  -23.6000   23.4934 N   0  0  0  0  0  0  0  0  0  0  0  0
  -26.4331  -28.1797   20.0867 N   0  0  0  0  0  0  0  0  0  0  0  0
  -27.0206  -17.4185   19.9726 N   0  0  0  0  0  0  0  0  0  0  0  0
  -23.2471  -26.1723   19.4517 N   0  0  0  0  0  0  0  0  0  0  0  0
  -28.4349  -26.9176   20.1897 N   0  0  0  0  0  0  0  0  0  0  0  0
  -29.6701  -30.9617   21.7758 N   0  0  0  0  0  0  0  0  0  0  0  0
  -23.1033  -24.8338   21.3883 N   0  0  0  0  0  0  0  0  0  0  0  0
  -27.4867  -14.2051   19.0638 N   0  0  0  0  0  0  0  0  0  0  0  0
  -29.1887  -19.8314   20.9399 N   0  0  0  0  0  0  0  0  0  0  0  0
  -28.2366  -23.2160   20.1001 N   0  3  0  0  0  0  0  0  0  0  0  0
  -30.4141  -28.8506   21.2773 O   0  0  0  0  0  0  0  0  0  0  0  0
  -25.7155  -14.9136   20.3992 O   0  0  0  0  0  0  0  0  0  0  0  0
  -29.2825  -17.4129   19.4066 O   0  0  0  0  0  0  0  0  0  0  0  0
  -27.4224  -21.0924   21.7565 O   0  0  0  0  0  0  0  0  0  0  0  0
  -21.4725  -24.7196   19.7423 O   0  0  0  0  0  0  0  0  0  0  0  0
  -26.3761  -35.4162   22.3608 O   0  0  0  0  0  0  0  0  0  0  0  0
  -21.1525  -18.4453   21.5739 O   0  0  0  0  0  0  0  0  0  1  0  0
  -21.9631  -36.7372   25.3915 F   0  0  0  0  0  0  0  0  0  0  0  0
  -26.6637  -36.5089   24.8839 F   0  0  0  0  0  0  0  0  0  0  0  0
  1  2  1  0  0  0  0
  1  5  2  0  0  0  0
  2  6  2  0  0  0  0
  3  8  2  0  0  0  0
  3 16  1  0  0  0  0
  4  9  1  0  0  0  0
  4 16  2  0  0  0  0
  5 18  1  0  0  0  0
  6 20  1  0  0  0  0
  7 10  2  0  0  0  0
  7 19  1  0  0  0  0
  8 23  1  0  0  0  0
  9 23  2  0  0  0  0
 10 24  1  0  0  0  0
 11 12  2  0  0  0  0
 11 25  1  0  0  0  0
 12 26  1  0  0  0  0
 13 21  1  0  0  0  0
 13 24  2  0  0  0  0
 14 22  1  0  0  0  0
 14 30  2  0  0  0  0
 15 26  2  0  0  0  0
 15 27  1  0  0  0  0
 16 28  1  0  0  0  0
 17 28  1  0  0  0  0
 17 31  2  0  0  0  0
 17 32  1  0  0  0  0
 18 20  2  0  0  0  0
 18 37  1  0  0  0  0
 19 21  2  0  0  0  0
 19 38  1  0  0  0  0
 20 46  1  0  0  0  0
 21 39  1  0  0  0  0
 22 29  2  0  0  0  0
 22 57  1  0  0  0  0
 23 80  1  0  0  0  0
 24 81  1  0  0  0  0
 25 27  2  0  0  0  0
 25 80  1  0  0  0  0
 26 82  1  0  0  0  0
 27 83  1  0  0  0  0
 28 64  2  0  0  0  0
 29 49  1  0  0  0  0
 29 65  1  0  0  0  0
 30 65  1  0  0  0  0
 30 71  1  0  0  0  0
 31 66  1  0  0  0  0
 31 69  1  0  0  0  0
 32 70  1  0  0  0  0
 32 75  2  0  0  0  0
 33 47  1  0  0  0  0
 33 72  1  0  0  0  0
 33 76  2  0  0  0  0
 34 60  1  0  0  0  0
 34 67  1  0  0  0  0
 34 77  2  0  0  0  0
 35 61  1  0  0  0  0
 35 73  1  0  0  0  0
 35 78  2  0  0  0  0
 36 68  1  0  0  0  0
 36 71  1  0  0  0  0
 36 79  2  0  0  0  0
 37 40  1  0  0  0  0
 38 47  1  0  0  0  0
 39 67  1  0  0  0  0
 40 42  1  0  0  0  0
 41 43  1  0  0  0  0
 41 44  1  0  0  0  0
 42 46  1  0  0  0  0
 43 48  1  0  0  0  0
 44 68  1  0  0  0  0
 45 48  1  0  0  0  0
 45 68  1  0  0  0  0
 46 72  1  0  0  0  0
 47 67  1  0  0  0  0
 48 66  1  0  0  0  0
 50 61  1  0  0  0  0
 51 62  1  0  0  0  0
 52 62  1  0  0  0  0
 53 63  1  0  0  0  0
 54 63  1  0  0  0  0
 55 63  1  0  0  0  0
 56 74  1  0  0  0  0
 57 58  1  0  0  0  0
 58 59  1  0  0  0  0
 59 81  1  0  0  0  0
 60 63  1  0  0  0  0
 60 73  1  0  0  0  0
 61 74  1  0  0  0  0
 62 65  1  0  0  0  0
 64 66  1  0  0  0  0
M  CHG  1  74   1
M  ISO  4  36 100  59 101  71 100  81 101
M  END
> <Batch ID>
0121

> <Smiles>
CNC(C)C(=O)NC(C(=O)N1Cc2cc([101O:1][101CH2:1]CCc3cc([100NH:0][100C:0](=O)N4CCCC(n5nc(-c6ccc(Oc7ccc(F)cc7F)cc6)c(C(N)=O)c5N)C4)n(C(C)C)c3C)ccc2CC1C(=O)NC1CCCc2ccccc21)C(C)(C)C

> <Shape>
0.231

> <Color>
0.071

> <Negative vol penalty>
0.000

$$$$

  -OEChem-04052320253D

 92102  0     1  0  0  0  0  0999 V2000
  -26.3029  -35.0674   21.6138 C   0  0  0  0  0  0  0  0  0  0  0  0
  -26.8658  -33.8433   21.9603 C   0  0  0  0  0  0  0  0  0  0  0  0
  -23.3677  -10.7967   23.1169 C   0  0  0  0  0  0  0  0  0  0  0  0
  -23.7819   -9.4185   21.1763 C   0  0  0  0  0  0  0  0  0  0  0  0
  -24.9278  -35.2611   21.7378 C   0  0  0  0  0  0  0  0  0  0  0  0
  -26.0539  -32.8124   22.4322 C   0  0  0  0  0  0  0  0  0  0  0  0
  -27.1580  -28.3461   20.3160 C   0  0  0  0  0  0  0  0  0  0  0  0
  -22.6700   -9.7467   23.7137 C   0  0  0  0  0  0  0  0  0  0  0  0
  -23.0842   -8.3684   21.7731 C   0  0  0  0  0  0  0  0  0  0  0  0
  -28.2800  -27.6733   20.7978 C   0  0  0  0  0  0  0  0  0  0  0  0
  -19.8588   -7.4843   22.2694 C   0  0  0  0  0  0  0  0  0  0  0  0
  -18.9419   -6.7861   21.4837 C   0  0  0  0  0  0  0  0  0  0  0  0
  -26.8524  -26.2665   22.1403 C   0  0  0  0  0  0  0  0  0  0  0  0
  -20.1841   -4.7460   21.8466 C   0  0  0  0  0  0  0  0  0  0  0  0
  -23.9236  -10.6326   21.8481 C   0  0  0  0  0  0  0  0  0  0  0  0
  -24.1479  -12.9960   20.9144 C   0  0  0  0  0  0  0  0  0  0  0  0
  -24.0973  -34.2290   22.2023 C   0  0  0  0  0  0  0  0  0  0  0  0
  -25.8733  -27.9908   20.7518 C   0  0  0  0  0  0  0  0  0  0  0  0
  -24.6665  -32.9930   22.5638 C   0  0  0  0  0  0  0  0  0  0  0  0
  -25.7155  -26.9347   21.6605 C   0  0  0  0  0  0  0  0  0  0  0  0
  -22.5282   -8.5326   23.0419 C   0  0  0  0  0  0  0  0  0  0  0  0
  -28.1275  -26.6352   21.7123 C   0  0  0  0  0  0  0  0  0  0  0  0
  -20.9386   -6.8133   22.8436 C   0  0  0  0  0  0  0  0  0  0  0  0
  -19.1045   -5.4170   21.2723 C   0  0  0  0  0  0  0  0  0  0  0  0
  -21.1012   -5.4442   22.6323 C   0  0  0  0  0  0  0  0  0  0  0  0
  -24.6440  -11.7171   21.2308 C   0  0  0  0  0  0  0  0  0  0  0  0
  -25.2162  -13.6485   20.3490 C   0  0  0  0  0  0  0  0  0  0  0  0
  -22.8386  -13.5452   21.1139 C   0  0  0  0  0  0  0  0  0  0  0  0
  -23.5453  -29.4806   22.3216 C   0  0  0  0  0  0  0  0  0  0  0  0
  -21.8945  -26.7672   21.6623 C   0  0  0  0  0  0  0  0  0  0  0  0
  -22.5538  -23.2200   21.6543 C   0  0  0  0  0  0  0  0  0  0  0  0
  -30.6328  -14.9915   20.3102 C   0  0  0  0  0  0  0  0  0  0  0  0
  -22.6227  -34.5010   22.3643 C   0  0  0  0  0  0  0  0  0  0  0  0
  -24.6714  -28.7088   20.2021 C   0  0  0  0  0  0  0  0  0  0  0  0
  -24.3567  -26.5012   22.1443 C   0  0  0  0  0  0  0  0  0  0  0  0
  -21.7831  -33.2353   22.5174 C   0  0  0  0  0  0  0  0  0  0  0  0
  -34.6430  -18.7452   20.6816 C   0  0  0  0  0  0  0  0  0  0  0  0
  -34.4093  -18.3379   22.1321 C   0  0  0  0  0  0  0  0  0  0  0  0
  -33.3621  -18.6739   19.8578 C   0  0  0  0  0  0  0  0  0  0  0  0
  -29.7061  -11.8969   18.8131 C   0  0  0  0  0  0  0  0  0  0  0  0
  -22.4252  -32.2875   23.5254 C   0  0  0  0  0  0  0  0  0  0  0  0
  -29.6403  -20.1904   21.8327 C   0  0  0  0  0  0  0  0  0  0  0  0
  -29.1633  -21.6426   21.9345 C   0  0  0  0  0  0  0  0  0  0  0  0
  -28.2685  -11.6770   19.2875 C   0  0  0  0  0  0  0  0  0  0  0  0
  -33.2838  -19.1500   22.7726 C   0  0  0  0  0  0  0  0  0  0  0  0
  -32.2349  -19.4866   20.4946 C   0  0  0  0  0  0  0  0  0  0  0  0
  -29.4380  -16.4989   23.2661 C   0  0  0  0  0  0  0  0  0  0  0  0
  -31.4942  -21.5672   22.5148 C   0  0  0  0  0  0  0  0  0  0  0  0
  -30.5636  -12.5504   19.8946 C   0  0  0  0  0  0  0  0  0  0  0  0
  -28.5758  -13.5813   20.9240 C   0  0  0  0  0  0  0  0  0  0  0  0
  -28.9722  -16.4169   24.7067 C   0  0  0  0  0  0  0  0  0  0  0  0
  -31.2005  -17.4041   24.5747 C   0  0  0  0  0  0  0  0  0  0  0  0
  -23.8156  -31.8424   23.0561 C   0  0  1  0  0  0  0  0  0  0  0  0
  -23.4470  -28.6029   21.1060 C   0  0  1  0  0  0  0  0  0  0  0  0
  -30.9802  -20.1310   22.5727 C   0  0  2  0  0  0  0  0  0  0  0  0
  -30.2246  -22.3788   22.7566 C   0  0  1  0  0  0  0  0  0  0  0  0
  -30.4255  -17.6577   23.2911 C   0  0  1  0  0  0  0  0  0  0  0  0
  -27.6582  -12.9757   19.8480 C   0  0  2  0  0  0  0  0  0  0  0  0
  -31.9638  -19.1109   21.9692 C   0  0  0  0  0  0  0  0  0  0  0  0
  -21.5005  -21.3678   20.3287 C   0  0  0  0  0  0  0  0  0  0  0  0
  -31.4715  -24.5108   23.2022 C   0  0  0  0  0  0  0  0  0  0  0  0
  -20.0784  -26.4509   24.0937 C   0  0  0  0  0  0  0  0  0  0  0  0
  -20.1844  -23.9714   23.7633 C   0  0  0  0  0  0  0  0  0  0  0  0
  -19.1959  -25.4228   21.9916 C   0  0  0  0  0  0  0  0  0  0  0  0
  -25.1720  -22.3273   20.6023 C   0  0  0  0  0  0  0  0  0  0  0  0
  -30.5464  -17.4278   20.7751 C   0  0  0  0  0  0  0  0  0  0  0  0
  -29.0490  -24.6074   22.5457 C   0  0  0  0  0  0  0  0  0  1  0  0
  -21.6978  -25.4404   22.3552 C   0  0  1  0  0  0  0  0  0  0  0  0
  -22.6798  -22.3218   20.4370 C   0  0  2  0  0  0  0  0  0  0  0  0
  -31.3151  -17.7162   22.0619 C   0  0  2  0  0  0  0  0  0  0  0  0
  -30.3702  -23.8531   22.3734 C   0  0  2  0  0  0  0  0  0  0  0  0
  -20.3129  -25.3366   23.0544 C   0  0  0  0  0  0  0  0  0  0  0  0
  -25.9275  -11.5641   20.8942 N   0  0  0  0  0  0  0  0  0  0  0  0
  -26.2469  -12.7554   20.3604 N   0  0  0  0  0  0  0  0  0  0  0  0
  -23.2127  -27.2382   21.5825 N   0  0  0  0  0  0  0  0  0  0  0  0
  -29.9297  -13.7776   20.3825 N   0  0  0  0  0  0  0  0  0  0  0  0
  -25.3649  -14.8932   19.8482 N   0  0  0  0  0  0  0  0  0  0  0  0
  -21.8592  -12.7382   21.7088 N   0  0  0  0  0  0  0  0  0  0  0  0
  -23.7021  -30.8232   22.0349 N   0  0  0  0  0  0  0  0  0  0  0  0
  -21.9363  -24.4138   21.3464 N   0  0  0  0  0  0  0  0  0  0  0  0
  -29.9570  -16.1075   20.7883 N   0  0  0  0  0  0  0  0  0  0  0  0
  -30.1744  -16.8267   25.5083 N   0  3  0  0  0  0  0  0  0  0  0  0
  -23.9308  -21.5157   20.5153 N   0  3  0  0  0  0  0  0  0  0  0  0
  -22.5413  -14.7112   20.7596 O   0  0  0  0  0  0  0  0  0  0  0  0
  -23.4819  -28.9771   23.4371 O   0  0  0  0  0  0  0  0  0  0  0  0
  -20.9155  -27.3602   21.2023 O   0  0  0  0  0  0  0  0  0  0  0  0
  -22.9589  -22.8935   22.7678 O   0  0  0  0  0  0  0  0  0  0  0  0
  -31.7760  -15.0754   19.8486 O   0  0  0  0  0  0  0  0  0  0  0  0
  -21.8477   -7.5077   23.6241 O   0  0  0  0  0  0  0  0  0  0  0  0
  -29.2210  -25.9772   22.1847 O   0  0  0  0  0  0  0  0  0  1  0  0
  -18.2229   -4.7464   20.5191 F   0  0  0  0  0  0  0  0  0  0  0  0
  -22.1358   -4.7939   23.1823 F   0  0  0  0  0  0  0  0  0  0  0  0
  1  2  1  0  0  0  0
  1  5  2  0  0  0  0
  2  6  2  0  0  0  0
  3  8  2  0  0  0  0
  3 15  1  0  0  0  0
  4  9  1  0  0  0  0
  4 15  2  0  0  0  0
  5 17  1  0  0  0  0
  6 19  1  0  0  0  0
  7 10  2  0  0  0  0
  7 18  1  0  0  0  0
  8 21  1  0  0  0  0
  9 21  2  0  0  0  0
 10 22  1  0  0  0  0
 11 12  2  0  0  0  0
 11 23  1  0  0  0  0
 12 24  1  0  0  0  0
 13 20  1  0  0  0  0
 13 22  2  0  0  0  0
 14 24  2  0  0  0  0
 14 25  1  0  0  0  0
 15 26  1  0  0  0  0
 16 26  1  0  0  0  0
 16 27  2  0  0  0  0
 16 28  1  0  0  0  0
 17 19  2  0  0  0  0
 17 33  1  0  0  0  0
 18 20  2  0  0  0  0
 18 34  1  0  0  0  0
 19 53  1  0  0  0  0
 20 35  1  0  0  0  0
 21 89  1  0  0  0  0
 22 90  1  0  0  0  0
 23 25  2  0  0  0  0
 23 89  1  0  0  0  0
 24 91  1  0  0  0  0
 25 92  1  0  0  0  0
 26 73  2  0  0  0  0
 27 74  1  0  0  0  0
 27 77  1  0  0  0  0
 28 78  1  0  0  0  0
 28 84  2  0  0  0  0
 29 54  1  0  0  0  0
 29 79  1  0  0  0  0
 29 85  2  0  0  0  0
 30 68  1  0  0  0  0
 30 75  1  0  0  0  0
 30 86  2  0  0  0  0
 31 69  1  0  0  0  0
 31 80  1  0  0  0  0
 31 87  2  0  0  0  0
 32 76  1  0  0  0  0
 32 81  1  0  0  0  0
 32 88  2  0  0  0  0
 33 36  1  0  0  0  0
 34 54  1  0  0  0  0
 35 75  1  0  0  0  0
 36 41  1  0  0  0  0
 37 38  1  0  0  0  0
 37 39  1  0  0  0  0
 38 45  1  0  0  0  0
 39 46  1  0  0  0  0
 40 44  1  0  0  0  0
 40 49  1  0  0  0  0
 41 53  1  0  0  0  0
 42 43  1  0  0  0  0
 42 55  1  0  0  0  0
 43 56  1  0  0  0  0
 44 58  1  0  0  0  0
 45 59  1  0  0  0  0
 46 59  1  0  0  0  0
 47 51  1  0  0  0  0
 47 57  1  0  0  0  0
 48 55  1  0  0  0  0
 48 56  1  0  0  0  0
 49 76  1  0  0  0  0
 50 58  1  0  0  0  0
 50 76  1  0  0  0  0
 51 82  1  0  0  0  0
 52 57  1  0  0  0  0
 52 82  1  0  0  0  0
 53 79  1  0  0  0  0
 54 75  1  0  0  0  0
 55 59  1  0  0  0  0
 56 71  1  0  0  0  0
 57 70  1  0  0  0  0
 58 74  1  0  0  0  0
 59 70  1  0  0  0  0
 60 69  1  0  0  0  0
 61 71  1  0  0  0  0
 62 72  1  0  0  0  0
 63 72  1  0  0  0  0
 64 72  1  0  0  0  0
 65 83  1  0  0  0  0
 66 70  1  0  0  0  0
 66 81  1  0  0  0  0
 67 71  1  0  0  0  0
 67 90  1  0  0  0  0
 68 72  1  0  0  0  0
 68 80  1  0  0  0  0
 69 83  1  0  0  0  0
 73 74  1  0  0  0  0
M  CHG  2  82   1  83   1
M  ISO  4  32 100  67 101  81 100  90 101
M  END
> <Batch ID>
0121

> <Smiles>
CNC(C)C(=O)NC(C(=O)N1Cc2cc([101O:1][101CH2:1]C(C)C3CCC(C4(C(C[100NH:0][100C:0](=O)N5CCCC(n6nc(-c7ccc(Oc8ccc(F)cc8F)cc7)c(C(N)=O)c6N)C5)C5CCNC5)CCCCC4)C3)ccc2CC1C(=O)NC1CCCc2ccccc21)C(C)(C)C

> <Shape>
0.268

> <Color>
0.157

> <Negative vol penalty>
0.000

$$$$

  -OEChem-04052320253D

 88 97  0     1  0  0  0  0  0999 V2000
  -23.7330  -38.3659   26.8238 C   0  0  0  0  0  0  0  0  0  0  0  0
  -23.0497  -37.4015   26.0900 C   0  0  0  0  0  0  0  0  0  0  0  0
  -22.7780  -10.0225   20.1475 C   0  0  0  0  0  0  0  0  0  0  0  0
  -24.2773   -9.4988   21.9682 C   0  0  0  0  0  0  0  0  0  0  0  0
  -25.1021  -38.5461   26.6314 C   0  0  0  0  0  0  0  0  0  0  0  0
  -23.7349  -36.6175   25.1626 C   0  0  0  0  0  0  0  0  0  0  0  0
  -23.8257  -29.4364   25.7247 C   0  0  0  0  0  0  0  0  0  0  0  0
  -22.0632   -8.8514   20.3993 C   0  0  0  0  0  0  0  0  0  0  0  0
  -23.5626   -8.3278   22.2200 C   0  0  0  0  0  0  0  0  0  0  0  0
  -23.7149  -28.0482   25.6434 C   0  0  0  0  0  0  0  0  0  0  0  0
  -20.6798   -7.4515   23.7505 C   0  0  0  0  0  0  0  0  0  0  0  0
  -20.3714   -7.1551   25.0781 C   0  0  0  0  0  0  0  0  0  0  0  0
  -25.1842  -28.0327   23.7227 C   0  0  0  0  0  0  0  0  0  0  0  0
  -21.6075   -5.0866   24.9036 C   0  0  0  0  0  0  0  0  0  0  0  0
  -23.8851  -10.3462   20.9319 C   0  0  0  0  0  0  0  0  0  0  0  0
  -24.1355  -12.8751   20.7097 C   0  0  0  0  0  0  0  0  0  0  0  0
  -25.8063  -37.7573   25.7081 C   0  0  0  0  0  0  0  0  0  0  0  0
  -24.6294  -30.1274   24.8136 C   0  0  0  0  0  0  0  0  0  0  0  0
  -25.1144  -36.7882   24.9567 C   0  0  0  0  0  0  0  0  0  0  0  0
  -25.3089  -29.4220   23.8069 C   0  0  0  0  0  0  0  0  0  0  0  0
  -22.4555   -8.0041   21.4355 C   0  0  0  0  0  0  0  0  0  0  0  0
  -24.3923  -27.3481   24.6448 C   0  0  0  0  0  0  0  0  0  0  0  0
  -21.4521   -6.5654   22.9994 C   0  0  0  0  0  0  0  0  0  0  0  0
  -20.8352   -5.9727   25.6547 C   0  0  0  0  0  0  0  0  0  0  0  0
  -21.9160   -5.3830   23.5759 C   0  0  0  0  0  0  0  0  0  0  0  0
  -24.6241  -11.5554   20.6719 C   0  0  0  0  0  0  0  0  0  0  0  0
  -25.2218  -13.6527   20.3910 C   0  0  0  0  0  0  0  0  0  0  0  0
  -22.8174  -13.3551   21.0064 C   0  0  0  0  0  0  0  0  0  0  0  0
  -25.9823  -33.4348   23.6706 C   0  0  0  0  0  0  0  0  0  0  0  0
  -28.2805  -31.4132   23.4661 C   0  0  0  0  0  0  0  0  0  0  0  0
  -30.6490  -28.9792   23.7875 C   0  0  0  0  0  0  0  0  0  0  0  0
  -30.5200  -14.9817   20.7577 C   0  0  0  0  0  0  0  0  0  0  0  0
  -27.2767  -38.0210   25.5006 C   0  0  0  0  0  0  0  0  0  0  0  0
  -24.7291  -31.6286   24.8256 C   0  0  0  0  0  0  0  0  0  0  0  0
  -26.1345  -30.2104   22.8273 C   0  0  0  0  0  0  0  0  0  0  0  0
  -28.0003  -36.8936   24.7686 C   0  0  0  0  0  0  0  0  0  0  0  0
  -29.7702  -12.3971   18.5871 C   0  0  0  0  0  0  0  0  0  0  0  0
  -27.1997  -36.4489   23.5488 C   0  0  0  0  0  0  0  0  0  0  0  0
  -24.1393  -23.1163   24.4071 C   0  0  0  0  0  0  0  0  0  0  0  0
  -26.6576  -23.1020   24.2208 C   0  0  0  0  0  0  0  0  0  0  0  0
  -24.1754  -21.7103   25.0032 C   0  0  0  0  0  0  0  0  0  0  0  0
  -26.6936  -21.6959   24.8169 C   0  0  0  0  0  0  0  0  0  0  0  0
  -28.3221  -12.0457   18.9277 C   0  0  0  0  0  0  0  0  0  0  0  0
  -28.6846  -18.1060   21.5300 C   0  0  0  0  0  0  0  0  0  0  0  0
  -28.1594  -16.3907   23.2993 C   0  0  0  0  0  0  0  0  0  0  0  0
  -30.5755  -12.6779   19.8506 C   0  0  0  0  0  0  0  0  0  0  0  0
  -29.9656  -17.3452   21.1990 C   0  0  0  0  0  0  0  0  0  0  0  0
  -29.4520  -15.6658   22.9391 C   0  0  0  0  0  0  0  0  0  0  0  0
  -28.5477  -13.4177   21.0574 C   0  0  0  0  0  0  0  0  0  0  0  0
  -25.8274  -35.9013   23.9592 C   0  0  1  0  0  0  0  0  0  0  0  0
  -26.1224  -32.1440   24.4227 C   0  0  1  0  0  0  0  0  0  0  0  0
  -25.4314  -23.8894   24.6997 C   0  0  0  0  0  0  0  0  0  0  0  0
  -25.4015  -20.9228   24.5242 C   0  0  0  0  0  0  0  0  0  0  0  0
  -28.2568  -17.8902   22.9874 C   0  0  0  0  0  0  0  0  0  0  0  0
  -27.6838  -13.1310   19.8128 C   0  0  2  0  0  0  0  0  0  0  0  0
  -24.0292  -17.4375   25.5675 C   0  0  0  0  0  0  0  0  0  0  0  0
  -33.0944  -28.5499   23.4229 C   0  0  0  0  0  0  0  0  0  0  0  0
  -27.7902  -31.1919   20.4637 C   0  0  0  0  0  0  0  0  0  0  0  0
  -29.9146  -29.8789   20.2854 C   0  0  0  0  0  0  0  0  0  0  0  0
  -29.9731  -32.2393   21.0902 C   0  0  0  0  0  0  0  0  0  0  0  0
  -31.0972  -28.4183   26.6587 C   0  0  0  0  0  0  0  0  0  0  0  0
  -26.9317  -18.5921   23.2750 C   0  0  0  0  0  0  0  0  0  0  0  0
  -25.3913  -25.2721   24.0517 C   0  0  0  0  0  0  0  0  0  1  0  0
  -24.1294  -18.7897   24.8765 C   0  0  0  0  0  0  0  0  0  0  0  0
  -26.7209  -18.7723   24.7790 C   0  0  0  0  0  0  0  0  0  0  0  0
  -29.0347  -30.4390   22.5969 C   0  0  1  0  0  0  0  0  0  0  0  0
  -32.0312  -28.9949   24.4150 C   0  0  2  0  0  0  0  0  0  0  0  0
  -25.4415  -19.5401   25.1721 C   0  0  1  0  0  0  0  0  0  0  0  0
  -29.1572  -30.9287   21.1264 C   0  0  0  0  0  0  0  0  0  0  0  0
  -25.9200  -11.4943   20.3542 N   0  0  0  0  0  0  0  0  0  0  0  0
  -26.2548  -12.7853   20.1893 N   0  0  0  0  0  0  0  0  0  0  0  0
  -26.8910  -31.2555   23.5346 N   0  0  0  0  0  0  0  0  0  0  0  0
  -29.9346  -13.7099   20.6655 N   0  0  0  0  0  0  0  0  0  0  0  0
  -29.8540  -15.9304   21.5512 N   0  0  0  0  0  0  0  0  0  0  0  0
  -25.3847  -14.9870   20.2664 N   0  0  0  0  0  0  0  0  0  0  0  0
  -21.8193  -12.4203   21.3132 N   0  0  0  0  0  0  0  0  0  0  0  0
  -25.9546  -34.5561   24.4776 N   0  0  0  0  0  0  0  0  0  0  0  0
  -30.3143  -30.2077   23.2583 N   0  0  0  0  0  0  0  0  0  0  0  0
  -32.0759  -28.0826   25.5926 N   0  3  0  0  0  0  0  0  0  0  0  0
  -22.5293  -14.5758   20.9835 O   0  0  0  0  0  0  0  0  0  0  0  0
  -25.9064  -33.4163   22.4476 O   0  0  0  0  0  0  0  0  0  0  0  0
  -28.9034  -32.2947   24.0648 O   0  0  0  0  0  0  0  0  0  0  0  0
  -29.9388  -27.9764   23.7655 O   0  0  0  0  0  0  0  0  0  0  0  0
  -31.5707  -15.2569   20.1650 O   0  0  0  0  0  0  0  0  0  0  0  0
  -21.7581   -6.8614   21.6817 O   0  0  0  0  0  0  0  0  0  0  0  0
  -24.2823  -25.9799   24.5733 O   0  0  0  0  0  0  0  0  0  1  0  0
  -20.5403   -5.6890   26.9301 F   0  0  0  0  0  0  0  0  0  0  0  0
  -22.6593   -4.5284   22.8597 F   0  0  0  0  0  0  0  0  0  0  0  0
  1  2  1  0  0  0  0
  1  5  2  0  0  0  0
  2  6  2  0  0  0  0
  3  8  2  0  0  0  0
  3 15  1  0  0  0  0
  4  9  1  0  0  0  0
  4 15  2  0  0  0  0
  5 17  1  0  0  0  0
  6 19  1  0  0  0  0
  7 10  2  0  0  0  0
  7 18  1  0  0  0  0
  8 21  1  0  0  0  0
  9 21  2  0  0  0  0
 10 22  1  0  0  0  0
 11 12  2  0  0  0  0
 11 23  1  0  0  0  0
 12 24  1  0  0  0  0
 13 20  1  0  0  0  0
 13 22  2  0  0  0  0
 14 24  2  0  0  0  0
 14 25  1  0  0  0  0
 15 26  1  0  0  0  0
 16 26  1  0  0  0  0
 16 27  2  0  0  0  0
 16 28  1  0  0  0  0
 17 19  2  0  0  0  0
 17 33  1  0  0  0  0
 18 20  2  0  0  0  0
 18 34  1  0  0  0  0
 19 50  1  0  0  0  0
 20 35  1  0  0  0  0
 21 85  1  0  0  0  0
 22 86  1  0  0  0  0
 23 25  2  0  0  0  0
 23 85  1  0  0  0  0
 24 87  1  0  0  0  0
 25 88  1  0  0  0  0
 26 70  2  0  0  0  0
 27 71  1  0  0  0  0
 27 75  1  0  0  0  0
 28 76  1  0  0  0  0
 28 80  2  0  0  0  0
 29 51  1  0  0  0  0
 29 77  1  0  0  0  0
 29 81  2  0  0  0  0
 30 66  1  0  0  0  0
 30 72  1  0  0  0  0
 30 82  2  0  0  0  0
 31 67  1  0  0  0  0
 31 78  1  0  0  0  0
 31 83  2  0  0  0  0
 32 73  1  0  0  0  0
 32 74  1  0  0  0  0
 32 84  2  0  0  0  0
 33 36  1  0  0  0  0
 34 51  1  0  0  0  0
 35 72  1  0  0  0  0
 36 38  1  0  0  0  0
 37 43  1  0  0  0  0
 37 46  1  0  0  0  0
 38 50  1  0  0  0  0
 39 41  1  0  0  0  0
 39 52  1  0  0  0  0
 40 42  1  0  0  0  0
 40 52  1  0  0  0  0
 41 53  1  0  0  0  0
 42 53  1  0  0  0  0
 43 55  1  0  0  0  0
 44 47  1  0  0  0  0
 44 54  1  0  0  0  0
 45 48  1  0  0  0  0
 45 54  1  0  0  0  0
 46 73  1  0  0  0  0
 47 74  1  0  0  0  0
 48 74  1  0  0  0  0
 49 55  1  0  0  0  0
 49 73  1  0  0  0  0
 50 77  1  0  0  0  0
 51 72  1  0  0  0  0
 52 63  1  0  0  0  0
 53 68  1  0  0  0  0
 54 62  1  0  0  0  0
 55 71  1  0  0  0  0
 56 64  1  0  0  0  0
 57 67  1  0  0  0  0
 58 69  1  0  0  0  0
 59 69  1  0  0  0  0
 60 69  1  0  0  0  0
 61 79  1  0  0  0  0
 62 65  1  0  0  0  0
 63 86  1  0  0  0  0
 64 68  1  0  0  0  0
 65 68  1  0  0  0  0
 66 69  1  0  0  0  0
 66 78  1  0  0  0  0
 67 79  1  0  0  0  0
 70 71  1  0  0  0  0
M  CHG  1  79   1
M  ISO  4  32 100  63 101  74 100  86 101
M  END
> <Batch ID>
0121

> <Smiles>
CCC(CCC1CC[100N:0]([100C:0](=O)N2CCCC(n3nc(-c4ccc(Oc5ccc(F)cc5F)cc4)c(C(N)=O)c3N)C2)CC1)C1CCC([101CH2:1][101O:1]c2ccc3c(c2)CN(C(=O)C(NC(=O)C(C)NC)C(C)(C)C)C(C(=O)NC2CCCc4ccccc42)C3)CC1

> <Shape>
0.294

> <Color>
0.201

> <Negative vol penalty>
0.000

$$$$

  -OEChem-04052320253D

 88 97  0     1  0  0  0  0  0999 V2000
  -20.7678  -33.8118   27.6771 C   0  0  0  0  0  0  0  0  0  0  0  0
  -21.9489  -33.0786   27.6244 C   0  0  0  0  0  0  0  0  0  0  0  0
  -23.2317   -9.6002   20.3908 C   0  0  0  0  0  0  0  0  0  0  0  0
  -23.8855  -10.0759   22.6675 C   0  0  0  0  0  0  0  0  0  0  0  0
  -19.7881  -33.6244   26.7029 C   0  0  0  0  0  0  0  0  0  0  0  0
  -22.1505  -32.1566   26.5978 C   0  0  0  0  0  0  0  0  0  0  0  0
  -30.8233  -23.1005   19.4912 C   0  0  0  0  0  0  0  0  0  0  0  0
  -28.9722  -22.0268   20.6127 C   0  0  0  0  0  0  0  0  0  0  0  0
  -27.3570  -29.3560   22.5525 C   0  0  0  0  0  0  0  0  0  0  0  0
  -30.4392  -24.3275   20.0319 C   0  0  0  0  0  0  0  0  0  0  0  0
  -28.5881  -23.2539   21.1534 C   0  0  0  0  0  0  0  0  0  0  0  0
  -22.5331   -8.4744   20.8266 C   0  0  0  0  0  0  0  0  0  0  0  0
  -23.1868   -8.9501   23.1034 C   0  0  0  0  0  0  0  0  0  0  0  0
  -27.8706  -28.1201   22.1618 C   0  0  0  0  0  0  0  0  0  0  0  0
  -19.9763   -8.1008   23.7297 C   0  0  0  0  0  0  0  0  0  0  0  0
  -19.1697   -8.2376   24.8594 C   0  0  0  0  0  0  0  0  0  0  0  0
  -26.1421  -27.9375   20.4890 C   0  0  0  0  0  0  0  0  0  0  0  0
  -20.4674   -6.5428   25.9912 C   0  0  0  0  0  0  0  0  0  0  0  0
  -23.9080  -10.4010   21.3113 C   0  0  0  0  0  0  0  0  0  0  0  0
  -24.1340  -12.8747   20.7304 C   0  0  0  0  0  0  0  0  0  0  0  0
  -30.0898  -21.9501   19.7816 C   0  0  0  0  0  0  0  0  0  0  0  0
  -19.9820  -32.7067   25.6585 C   0  0  0  0  0  0  0  0  0  0  0  0
  -26.2237  -29.8878   21.9206 C   0  0  0  0  0  0  0  0  0  0  0  0
  -21.1720  -31.9558   25.6095 C   0  0  0  0  0  0  0  0  0  0  0  0
  -25.6177  -29.1815   20.8718 C   0  0  0  0  0  0  0  0  0  0  0  0
  -29.3216  -24.4043   20.8630 C   0  0  0  0  0  0  0  0  0  0  0  0
  -22.5106   -8.1493   22.1829 C   0  0  0  0  0  0  0  0  0  0  0  0
  -27.2614  -27.4093   21.1318 C   0  0  0  0  0  0  0  0  0  0  0  0
  -21.0285   -7.1850   23.7307 C   0  0  0  0  0  0  0  0  0  0  0  0
  -19.4153   -7.4587   25.9902 C   0  0  0  0  0  0  0  0  0  0  0  0
  -21.2740   -6.4060   24.8614 C   0  0  0  0  0  0  0  0  0  0  0  0
  -24.6303  -11.5638   20.8616 C   0  0  0  0  0  0  0  0  0  0  0  0
  -25.2046  -13.6028   20.2718 C   0  0  0  0  0  0  0  0  0  0  0  0
  -22.8227  -13.3883   20.9992 C   0  0  0  0  0  0  0  0  0  0  0  0
  -23.2953  -30.6848   22.8656 C   0  0  0  0  0  0  0  0  0  0  0  0
  -23.0477  -31.8180   19.8363 C   0  0  0  0  0  0  0  0  0  0  0  0
  -24.1252  -31.6965   16.6004 C   0  0  0  0  0  0  0  0  0  0  0  0
  -30.6192  -14.9411   20.4606 C   0  0  0  0  0  0  0  0  0  0  0  0
  -18.8744  -32.5043   24.6550 C   0  0  0  0  0  0  0  0  0  0  0  0
  -25.6981  -31.2345   22.3359 C   0  0  0  0  0  0  0  0  0  0  0  0
  -24.4109  -29.7180   20.1476 C   0  0  0  0  0  0  0  0  0  0  0  0
  -19.3242  -31.7792   23.3892 C   0  0  0  0  0  0  0  0  0  0  0  0
  -29.7063  -12.0948   18.5262 C   0  0  0  0  0  0  0  0  0  0  0  0
  -20.1659  -30.5576   23.7444 C   0  0  0  0  0  0  0  0  0  0  0  0
  -28.2663  -11.8076   18.9551 C   0  0  0  0  0  0  0  0  0  0  0  0
  -28.7077  -18.3858   19.9216 C   0  0  0  0  0  0  0  0  0  0  0  0
  -30.9048  -19.5611   20.2565 C   0  0  0  0  0  0  0  0  0  0  0  0
  -30.5563  -12.5857   19.6960 C   0  0  0  0  0  0  0  0  0  0  0  0
  -28.5609  -13.4556   20.8515 C   0  0  0  0  0  0  0  0  0  0  0  0
  -28.3229  -19.3405   18.7950 C   0  0  0  0  0  0  0  0  0  0  0  0
  -21.4382  -30.9643   24.4976 C   0  0  1  0  0  0  0  0  0  0  0  0
  -30.5076  -20.6125   19.1928 C   0  0  1  0  0  0  0  0  0  0  0  0
  -24.2322  -31.4430   21.9683 C   0  0  1  0  0  0  0  0  0  0  0  0
  -30.2175  -18.1991   20.0870 C   0  0  1  0  0  0  0  0  0  0  0  0
  -27.6506  -13.0112   19.6937 C   0  0  2  0  0  0  0  0  0  0  0  0
  -23.7073  -32.7153   14.3454 C   0  0  0  0  0  0  0  0  0  0  0  0
  -28.0296  -20.2884   16.2645 C   0  0  0  0  0  0  0  0  0  0  0  0
  -30.3924  -21.1760   16.2086 C   0  0  0  0  0  0  0  0  0  0  0  0
  -20.5204  -30.1331   19.5461 C   0  0  0  0  0  0  0  0  0  0  0  0
  -20.6912  -30.4298   17.0660 C   0  0  0  0  0  0  0  0  0  0  0  0
  -20.3726  -32.4175   18.5391 C   0  0  0  0  0  0  0  0  0  0  0  0
  -26.8810  -32.7641   16.4434 C   0  0  0  0  0  0  0  0  0  0  0  0
  -28.9101  -25.7244   21.4456 C   0  0  0  0  0  0  0  0  0  1  0  0
  -30.5262  -17.2845   21.2722 C   0  0  0  0  0  0  0  0  0  0  0  0
  -22.6103  -31.2412   18.5115 C   0  0  1  0  0  0  0  0  0  0  0  0
  -24.5201  -32.7936   15.6283 C   0  0  2  0  0  0  0  0  0  0  0  0
  -29.1576  -20.9263   17.0594 C   0  0  0  0  0  0  0  0  0  0  0  0
  -21.0702  -31.0441   18.4304 C   0  0  0  0  0  0  0  0  0  0  0  0
  -25.9159  -11.4620   20.5143 N   0  0  0  0  0  0  0  0  0  0  0  0
  -26.2366  -12.7181   20.1602 N   0  0  0  0  0  0  0  0  0  0  0  0
  -23.9306  -31.0360   20.5944 N   0  0  0  0  0  0  0  0  0  0  0  0
  -29.9177  -13.7290   20.3524 N   0  0  0  0  0  0  0  0  0  0  0  0
  -25.3543  -14.9070   19.9571 N   0  0  0  0  0  0  0  0  0  0  0  0
  -21.8410  -12.5032   21.4652 N   0  0  0  0  0  0  0  0  0  0  0  0
  -22.4248  -31.4879   23.5774 N   0  0  0  0  0  0  0  0  0  0  0  0
  -23.1551  -32.1213   17.4833 N   0  0  0  0  0  0  0  0  0  0  0  0
  -29.9388  -15.9758   21.0908 N   0  0  0  0  0  0  0  0  0  0  0  0
  -29.5330  -19.9977   18.1859 N   0  3  2  0  0  0  0  0  0  0  0  0
  -25.9641  -32.6797   15.2775 N   0  3  0  0  0  0  0  0  0  0  0  0
  -22.5256  -14.5931   20.8154 O   0  0  0  0  0  0  0  0  0  0  0  0
  -23.3567  -29.4616   22.9078 O   0  0  0  0  0  0  0  0  0  0  0  0
  -22.6272  -32.9248   20.1823 O   0  0  0  0  0  0  0  0  0  0  0  0
  -24.6245  -30.5737   16.5762 O   0  0  0  0  0  0  0  0  0  0  0  0
  -31.7650  -15.0917   20.0229 O   0  0  0  0  0  0  0  0  0  0  0  0
  -21.8288   -7.0509   22.6086 O   0  0  0  0  0  0  0  0  0  0  0  0
  -27.7602  -26.2025   20.7489 O   0  0  0  0  0  0  0  0  0  1  0  0
  -18.6416   -7.5913   27.0755 F   0  0  0  0  0  0  0  0  0  0  0  0
  -22.2840   -5.5253   24.8687 F   0  0  0  0  0  0  0  0  0  0  0  0
  1  2  1  0  0  0  0
  1  5  2  0  0  0  0
  2  6  2  0  0  0  0
  3 12  2  0  0  0  0
  3 19  1  0  0  0  0
  4 13  1  0  0  0  0
  4 19  2  0  0  0  0
  5 22  1  0  0  0  0
  6 24  1  0  0  0  0
  7 10  2  0  0  0  0
  7 21  1  0  0  0  0
  8 11  1  0  0  0  0
  8 21  2  0  0  0  0
  9 14  2  0  0  0  0
  9 23  1  0  0  0  0
 10 26  1  0  0  0  0
 11 26  2  0  0  0  0
 12 27  1  0  0  0  0
 13 27  2  0  0  0  0
 14 28  1  0  0  0  0
 15 16  2  0  0  0  0
 15 29  1  0  0  0  0
 16 30  1  0  0  0  0
 17 25  1  0  0  0  0
 17 28  2  0  0  0  0
 18 30  2  0  0  0  0
 18 31  1  0  0  0  0
 19 32  1  0  0  0  0
 20 32  1  0  0  0  0
 20 33  2  0  0  0  0
 20 34  1  0  0  0  0
 21 52  1  0  0  0  0
 22 24  2  0  0  0  0
 22 39  1  0  0  0  0
 23 25  2  0  0  0  0
 23 40  1  0  0  0  0
 24 51  1  0  0  0  0
 25 41  1  0  0  0  0
 26 63  1  0  0  0  0
 27 85  1  0  0  0  0
 28 86  1  0  0  0  0
 29 31  2  0  0  0  0
 29 85  1  0  0  0  0
 30 87  1  0  0  0  0
 31 88  1  0  0  0  0
 32 69  2  0  0  0  0
 33 70  1  0  0  0  0
 33 73  1  0  0  0  0
 34 74  1  0  0  0  0
 34 80  2  0  0  0  0
 35 53  1  0  0  0  0
 35 75  1  0  0  0  0
 35 81  2  0  0  0  0
 36 65  1  0  0  0  0
 36 71  1  0  0  0  0
 36 82  2  0  0  0  0
 37 66  1  0  0  0  0
 37 76  1  0  0  0  0
 37 83  2  0  0  0  0
 38 72  1  0  0  0  0
 38 77  1  0  0  0  0
 38 84  2  0  0  0  0
 39 42  1  0  0  0  0
 40 53  1  0  0  0  0
 41 71  1  0  0  0  0
 42 44  1  0  0  0  0
 43 45  1  0  0  0  0
 43 48  1  0  0  0  0
 44 51  1  0  0  0  0
 45 55  1  0  0  0  0
 46 50  1  0  0  0  0
 46 54  1  0  0  0  0
 47 52  1  0  0  0  0
 47 54  1  0  0  0  0
 48 72  1  0  0  0  0
 49 55  1  0  0  0  0
 49 72  1  0  0  0  0
 50 78  1  0  0  0  0
 51 75  1  0  0  0  0
 52 78  1  0  0  0  0
 53 71  1  0  0  0  0
 54 64  1  0  0  0  0
 55 70  1  0  0  0  0
 56 66  1  0  0  0  0
 57 67  1  0  0  0  0
 58 67  1  0  0  0  0
 59 68  1  0  0  0  0
 60 68  1  0  0  0  0
 61 68  1  0  0  0  0
 62 79  1  0  0  0  0
 63 86  1  0  0  0  0
 64 77  1  0  0  0  0
 65 68  1  0  0  0  0
 65 76  1  0  0  0  0
 66 79  1  0  0  0  0
 67 78  1  0  0  0  0
 69 70  1  0  0  0  0
M  CHG  2  78   1  79   1
M  ISO  4  38 100  63 101  77 100  86 101
M  END
> <Batch ID>
0121

> <Smiles>
CNC(C)C(=O)NC(C(=O)N1Cc2cc([101O:1][101CH2:1]c3ccc(C4CC(C[100NH:0][100C:0](=O)N5CCCC(n6nc(-c7ccc(Oc8ccc(F)cc8F)cc7)c(C(N)=O)c6N)C5)CCN4C(C)C)cc3)ccc2CC1C(=O)NC1CCCc2ccccc21)C(C)(C)C

> <Shape>
0.313

> <Color>
0.196

> <Negative vol penalty>
0.000

$$$$

  -OEChem-04052320253D

 87 96  0     1  0  0  0  0  0999 V2000
  -30.6082  -12.3881   19.4702 C   0  0  0  0  0  0  0  0  0  0  0  0
  -30.1112  -13.6504   19.1620 C   0  0  0  0  0  0  0  0  0  0  0  0
  -29.7095  -26.1495   19.8578 C   0  0  0  0  0  0  0  0  0  0  0  0
  -27.8898  -24.8927   20.8305 C   0  0  0  0  0  0  0  0  0  0  0  0
  -29.7385  -11.3792   19.8818 C   0  0  0  0  0  0  0  0  0  0  0  0
  -28.7439  -13.9042   19.2642 C   0  0  0  0  0  0  0  0  0  0  0  0
  -20.6764  -26.0413   22.4012 C   0  0  0  0  0  0  0  0  0  0  0  0
  -20.9052  -26.9260   20.1647 C   0  0  0  0  0  0  0  0  0  0  0  0
  -26.0911  -19.1534   20.9713 C   0  0  0  0  0  0  0  0  0  0  0  0
  -30.6011  -25.1405   20.2220 C   0  0  0  0  0  0  0  0  0  0  0  0
  -28.7814  -23.8836   21.1946 C   0  0  0  0  0  0  0  0  0  0  0  0
  -21.2752  -24.8501   21.9913 C   0  0  0  0  0  0  0  0  0  0  0  0
  -21.5041  -25.7348   19.7547 C   0  0  0  0  0  0  0  0  0  0  0  0
  -25.5305  -20.2015   20.2425 C   0  0  0  0  0  0  0  0  0  0  0  0
  -30.3596  -21.2971   19.6981 C   0  0  0  0  0  0  0  0  0  0  0  0
  -29.9792  -19.9781   19.4511 C   0  0  0  0  0  0  0  0  0  0  0  0
  -23.3454  -19.2180   20.5206 C   0  0  0  0  0  0  0  0  0  0  0  0
  -30.1391  -19.4899   21.8119 C   0  0  0  0  0  0  0  0  0  0  0  0
  -28.3539  -26.0256   20.1621 C   0  0  0  0  0  0  0  0  0  0  0  0
  -26.7144  -27.1738   18.5806 C   0  0  0  0  0  0  0  0  0  0  0  0
  -20.4913  -27.0793   21.4879 C   0  0  0  0  0  0  0  0  0  0  0  0
  -28.3610  -11.6234   19.9983 C   0  0  0  0  0  0  0  0  0  0  0  0
  -25.2831  -18.1224   21.4718 C   0  0  0  0  0  0  0  0  0  0  0  0
  -27.8547  -12.8971   19.6764 C   0  0  0  0  0  0  0  0  0  0  0  0
  -23.8978  -18.1594   21.2576 C   0  0  0  0  0  0  0  0  0  0  0  0
  -30.1371  -24.0076   20.8903 C   0  0  0  0  0  0  0  0  0  0  0  0
  -21.6891  -24.6969   20.6681 C   0  0  0  0  0  0  0  0  0  0  0  0
  -24.1578  -20.2324   20.0146 C   0  0  0  0  0  0  0  0  0  0  0  0
  -30.6299  -21.7126   21.0020 C   0  0  0  0  0  0  0  0  0  0  0  0
  -29.8689  -19.0745   20.5080 C   0  0  0  0  0  0  0  0  0  0  0  0
  -30.5196  -20.8090   22.0589 C   0  0  0  0  0  0  0  0  0  0  0  0
  -27.4325  -27.0678   19.7867 C   0  0  0  0  0  0  0  0  0  0  0  0
  -25.9861  -28.3305   18.7150 C   0  0  0  0  0  0  0  0  0  0  0  0
  -26.7062  -26.3042   17.4406 C   0  0  0  0  0  0  0  0  0  0  0  0
  -25.1111  -14.9822   21.0099 C   0  0  0  0  0  0  0  0  0  0  0  0
  -22.9221  -15.1438   23.3983 C   0  0  0  0  0  0  0  0  0  0  0  0
  -20.6632  -17.0214   25.1358 C   0  0  0  0  0  0  0  0  0  0  0  0
  -23.9841  -31.3582   23.4770 C   0  0  0  0  0  0  0  0  0  0  0  0
  -27.4540  -10.4879   20.4017 C   0  0  0  0  0  0  0  0  0  0  0  0
  -25.8997  -17.0129   22.2788 C   0  0  0  0  0  0  0  0  0  0  0  0
  -22.9840  -17.0874   21.7909 C   0  0  0  0  0  0  0  0  0  0  0  0
  -26.0663  -10.9446   20.8444 C   0  0  0  0  0  0  0  0  0  0  0  0
  -26.0938  -32.5918   20.8878 C   0  0  0  0  0  0  0  0  0  0  0  0
  -25.5007  -11.9640   19.8606 C   0  0  0  0  0  0  0  0  0  0  0  0
  -26.6114  -31.3255   20.2032 C   0  0  0  0  0  0  0  0  0  0  0  0
  -18.4454  -28.3061   22.4784 C   0  0  0  0  0  0  0  0  0  0  0  0
  -18.6911  -28.8954   21.1233 C   0  0  0  0  0  0  0  0  0  0  0  0
  -25.9543  -32.4009   22.3965 C   0  0  0  0  0  0  0  0  0  0  0  0
  -25.6627  -29.9697   22.1165 C   0  0  0  0  0  0  0  0  0  0  0  0
  -26.3809  -13.2182   19.7988 C   0  0  1  0  0  0  0  0  0  0  0  0
  -25.0490  -15.7468   22.3019 C   0  0  1  0  0  0  0  0  0  0  0  0
  -25.7668  -30.0955   20.5869 C   0  0  2  0  0  0  0  0  0  0  0  0
  -19.8511  -28.3518   21.9252 C   0  0  0  0  0  0  0  0  0  0  0  0
  -18.9990  -16.8675   27.0078 C   0  0  0  0  0  0  0  0  0  0  0  0
  -22.3715  -30.0150   25.9712 C   0  0  0  0  0  0  0  0  0  0  0  0
  -20.9839  -13.6797   21.5517 C   0  0  0  0  0  0  0  0  0  0  0  0
  -19.1177  -14.3900   23.0619 C   0  0  0  0  0  0  0  0  0  0  0  0
  -20.9330  -12.9176   23.9331 C   0  0  0  0  0  0  0  0  0  0  0  0
  -22.1013  -19.0534   26.7363 C   0  0  0  0  0  0  0  0  0  0  0  0
  -21.0717  -29.1245   23.9628 C   0  0  0  0  0  0  0  0  0  0  0  0
  -23.2289  -23.6197   19.2105 C   0  0  0  0  0  0  0  0  0  0  0  0
  -24.2608  -22.5208   19.3755 C   0  0  0  0  0  0  0  0  0  1  0  0
  -21.4285  -15.3526   23.4673 C   0  0  1  0  0  0  0  0  0  0  0  0
  -20.4337  -17.1972   26.6261 C   0  0  2  0  0  0  0  0  0  0  0  0
  -22.0521  -30.1728   24.4877 C   0  0  2  0  0  0  0  0  0  0  0  0
  -20.6330  -14.1043   22.9917 C   0  0  0  0  0  0  0  0  0  0  0  0
  -27.1833  -28.0769   20.6256 N   0  0  0  0  0  0  0  0  0  0  0  0
  -26.3004  -28.8280   19.9454 N   0  0  0  0  0  0  0  0  0  0  0  0
  -23.6354  -16.0204   22.5685 N   0  0  0  0  0  0  0  0  0  0  0  0
  -25.1411  -31.2190   22.6928 N   0  0  0  0  0  0  0  0  0  0  0  0
  -25.1141  -28.9606   17.8995 N   0  0  0  0  0  0  0  0  0  0  0  0
  -27.5132  -25.1586   17.4683 N   0  0  0  0  0  0  0  0  0  0  0  0
  -26.1401  -14.0618   20.9498 N   0  0  0  0  0  0  0  0  0  0  0  0
  -21.1363  -15.7612   24.8370 N   0  0  0  0  0  0  0  0  0  0  0  0
  -23.2677  -30.1896   23.7048 N   0  0  0  0  0  0  0  0  0  0  0  0
  -20.7645  -29.3435   22.5185 N   0  3  0  0  0  0  0  0  0  0  0  0
  -20.7168  -18.6030   27.0315 N   0  3  0  0  0  0  0  0  0  0  0  0
  -26.0165  -26.5448   16.4208 O   0  0  0  0  0  0  0  0  0  0  0  0
  -24.2856  -15.2093   20.1332 O   0  0  0  0  0  0  0  0  0  0  0  0
  -23.4377  -14.2408   24.0619 O   0  0  0  0  0  0  0  0  0  0  0  0
  -20.4411  -17.9117   24.3181 O   0  0  0  0  0  0  0  0  0  0  0  0
  -23.6139  -32.4443   23.9353 O   0  0  0  0  0  0  0  0  0  0  0  0
  -31.0067  -23.0227   21.2456 O   0  0  0  0  0  0  0  0  0  0  0  0
  -22.2796  -23.5279   20.2660 O   0  0  0  0  0  0  0  0  0  0  0  0
  -23.6081  -21.2538   19.3030 O   0  0  0  0  0  0  0  0  0  1  0  0
  -29.5021  -17.8083   20.2709 F   0  0  0  0  0  0  0  0  0  0  0  0
  -30.7768  -21.2026   23.3138 F   0  0  0  0  0  0  0  0  0  0  0  0
  1  2  1  0  0  0  0
  1  5  2  0  0  0  0
  2  6  2  0  0  0  0
  3 10  2  0  0  0  0
  3 19  1  0  0  0  0
  4 11  1  0  0  0  0
  4 19  2  0  0  0  0
  5 22  1  0  0  0  0
  6 24  1  0  0  0  0
  7 12  2  0  0  0  0
  7 21  1  0  0  0  0
  8 13  1  0  0  0  0
  8 21  2  0  0  0  0
  9 14  2  0  0  0  0
  9 23  1  0  0  0  0
 10 26  1  0  0  0  0
 11 26  2  0  0  0  0
 12 27  1  0  0  0  0
 13 27  2  0  0  0  0
 14 28  1  0  0  0  0
 15 16  2  0  0  0  0
 15 29  1  0  0  0  0
 16 30  1  0  0  0  0
 17 25  1  0  0  0  0
 17 28  2  0  0  0  0
 18 30  2  0  0  0  0
 18 31  1  0  0  0  0
 19 32  1  0  0  0  0
 20 32  1  0  0  0  0
 20 33  2  0  0  0  0
 20 34  1  0  0  0  0
 21 53  1  0  0  0  0
 22 24  2  0  0  0  0
 22 39  1  0  0  0  0
 23 25  2  0  0  0  0
 23 40  1  0  0  0  0
 24 50  1  0  0  0  0
 25 41  1  0  0  0  0
 26 83  1  0  0  0  0
 27 84  1  0  0  0  0
 28 85  1  0  0  0  0
 29 31  2  0  0  0  0
 29 83  1  0  0  0  0
 30 86  1  0  0  0  0
 31 87  1  0  0  0  0
 32 67  2  0  0  0  0
 33 68  1  0  0  0  0
 33 71  1  0  0  0  0
 34 72  1  0  0  0  0
 34 78  2  0  0  0  0
 35 51  1  0  0  0  0
 35 73  1  0  0  0  0
 35 79  2  0  0  0  0
 36 63  1  0  0  0  0
 36 69  1  0  0  0  0
 36 80  2  0  0  0  0
 37 64  1  0  0  0  0
 37 74  1  0  0  0  0
 37 81  2  0  0  0  0
 38 70  1  0  0  0  0
 38 75  1  0  0  0  0
 38 82  2  0  0  0  0
 39 42  1  0  0  0  0
 40 51  1  0  0  0  0
 41 69  1  0  0  0  0
 42 44  1  0  0  0  0
 43 45  1  0  0  0  0
 43 48  1  0  0  0  0
 44 50  1  0  0  0  0
 45 52  1  0  0  0  0
 46 47  1  0  0  0  0
 46 53  1  0  0  0  0
 47 53  1  0  0  0  0
 48 70  1  0  0  0  0
 49 52  1  0  0  0  0
 49 70  1  0  0  0  0
 50 73  1  0  0  0  0
 51 69  1  0  0  0  0
 52 68  1  0  0  0  0
 53 76  1  0  0  0  0
 54 64  1  0  0  0  0
 55 65  1  0  0  0  0
 56 66  1  0  0  0  0
 57 66  1  0  0  0  0
 58 66  1  0  0  0  0
 59 77  1  0  0  0  0
 60 65  1  0  0  0  0
 60 76  1  0  0  0  0
 61 62  1  0  0  0  0
 61 84  1  0  0  0  0
 62 85  1  0  0  0  0
 63 66  1  0  0  0  0
 63 74  1  0  0  0  0
 64 77  1  0  0  0  0
 65 75  1  0  0  0  0
 67 68  1  0  0  0  0
M  CHG  2  76   1  77   1
M  ISO  4  38 100  62 101  75 100  85 101
M  END
> <Batch ID>
0121

> <Smiles>
CNC(C)C(=O)NC(C(=O)N1Cc2cc([101O:1][101CH2:1]COc3ccc(C4(NCC(C)[100NH:0][100C:0](=O)N5CCCC(n6nc(-c7ccc(Oc8ccc(F)cc8F)cc7)c(C(N)=O)c6N)C5)CC4)cc3)ccc2CC1C(=O)NC1CCCc2ccccc21)C(C)(C)C

> <Shape>
0.233

> <Color>
0.063

> <Negative vol penalty>
0.000

$$$$

  -OEChem-04052320253D

 91100  0     1  0  0  0  0  0999 V2000
  -16.5150  -29.4242   24.0684 C   0  0  0  0  0  0  0  0  0  0  0  0
  -17.5878  -29.6368   24.9281 C   0  0  0  0  0  0  0  0  0  0  0  0
  -22.3642  -10.6171   21.8196 C   0  0  0  0  0  0  0  0  0  0  0  0
  -23.4492   -9.7356   19.8491 C   0  0  0  0  0  0  0  0  0  0  0  0
  -16.7230  -28.8081   22.8350 C   0  0  0  0  0  0  0  0  0  0  0  0
  -18.8693  -29.2324   24.5554 C   0  0  0  0  0  0  0  0  0  0  0  0
  -24.1494  -32.0265   25.9042 C   0  0  0  0  0  0  0  0  0  0  0  0
  -21.8493   -9.3519   22.1021 C   0  0  0  0  0  0  0  0  0  0  0  0
  -22.9344   -8.4704   20.1317 C   0  0  0  0  0  0  0  0  0  0  0  0
  -25.1095  -31.7933   26.8878 C   0  0  0  0  0  0  0  0  0  0  0  0
  -22.9555   -6.4580   23.4565 C   0  0  0  0  0  0  0  0  0  0  0  0
  -23.0366   -6.0043   24.7730 C   0  0  0  0  0  0  0  0  0  0  0  0
  -26.4036  -30.5059   25.3109 C   0  0  0  0  0  0  0  0  0  0  0  0
  -20.6289   -5.8225   24.8586 C   0  0  0  0  0  0  0  0  0  0  0  0
  -21.8573  -21.2171   21.1681 C   0  0  0  0  0  0  0  0  0  0  0  0
  -23.5330  -20.5211   22.4102 C   0  0  0  0  0  0  0  0  0  0  0  0
  -23.1641  -10.8090   20.6931 C   0  0  0  0  0  0  0  0  0  0  0  0
  -24.9225  -12.6516   20.8360 C   0  0  0  0  0  0  0  0  0  0  0  0
  -18.0091  -28.4048   22.4429 C   0  0  0  0  0  0  0  0  0  0  0  0
  -24.3041  -31.4912   24.6174 C   0  0  0  0  0  0  0  0  0  0  0  0
  -19.0944  -28.6092   23.3162 C   0  0  0  0  0  0  0  0  0  0  0  0
  -25.4454  -30.7359   24.3119 C   0  0  0  0  0  0  0  0  0  0  0  0
  -22.7923  -20.1738   21.3069 C   0  0  0  0  0  0  0  0  0  0  0  0
  -22.1344   -8.2785   21.2582 C   0  0  0  0  0  0  0  0  0  0  0  0
  -26.2354  -31.0305   26.5921 C   0  0  0  0  0  0  0  0  0  0  0  0
  -21.7112   -6.5940   22.8411 C   0  0  0  0  0  0  0  0  0  0  0  0
  -21.8733   -5.6866   25.4741 C   0  0  0  0  0  0  0  0  0  0  0  0
  -20.5479   -6.2762   23.5421 C   0  0  0  0  0  0  0  0  0  0  0  0
  -23.6957  -12.1158   20.4004 C   0  0  0  0  0  0  0  0  0  0  0  0
  -24.9594  -13.9119   20.2914 C   0  0  0  0  0  0  0  0  0  0  0  0
  -25.9380  -12.0625   21.6592 C   0  0  0  0  0  0  0  0  0  0  0  0
  -22.6616  -29.4402   22.8287 C   0  0  0  0  0  0  0  0  0  0  0  0
  -24.8271  -30.2820   20.5649 C   0  0  0  0  0  0  0  0  0  0  0  0
  -27.9244  -31.5149   19.8347 C   0  0  0  0  0  0  0  0  0  0  0  0
  -22.1337  -18.7467   19.3770 C   0  0  0  0  0  0  0  0  0  0  0  0
  -18.1771  -27.7001   21.1201 C   0  0  0  0  0  0  0  0  0  0  0  0
  -23.2726  -31.7743   23.5599 C   0  0  0  0  0  0  0  0  0  0  0  0
  -25.6686  -30.1557   22.9401 C   0  0  0  0  0  0  0  0  0  0  0  0
  -19.6255  -27.6400   20.6416 C   0  0  0  0  0  0  0  0  0  0  0  0
  -22.0303  -16.0999   16.8091 C   0  0  0  0  0  0  0  0  0  0  0  0
  -20.5454  -27.2043   21.7778 C   0  0  0  0  0  0  0  0  0  0  0  0
  -22.4934  -14.8627   17.5765 C   0  0  0  0  0  0  0  0  0  0  0  0
  -25.5932  -26.4281   26.5028 C   0  0  0  0  0  0  0  0  0  0  0  0
  -28.0691  -26.1832   26.1087 C   0  0  0  0  0  0  0  0  0  0  0  0
  -21.3184  -17.0973   17.7182 C   0  0  0  0  0  0  0  0  0  0  0  0
  -22.5829  -16.2644   19.6772 C   0  0  0  0  0  0  0  0  0  0  0  0
  -25.8800  -27.1992   27.7840 C   0  0  0  0  0  0  0  0  0  0  0  0
  -28.3431  -26.9554   27.3920 C   0  0  0  0  0  0  0  0  0  0  0  0
  -20.5032  -28.2071   22.9371 C   0  0  1  0  0  0  0  0  0  0  0  0
  -23.2795  -30.7503   22.4291 C   0  0  1  0  0  0  0  0  0  0  0  0
  -26.7238  -25.4499   26.1631 C   0  0  0  0  0  0  0  0  0  0  0  0
  -23.3418  -15.2598   18.7970 C   0  0  1  0  0  0  0  0  0  0  0  0
  -26.4230  -30.4083   31.2267 C   0  0  0  0  0  0  0  0  0  0  0  0
  -29.4242  -32.0513   17.8956 C   0  0  0  0  0  0  0  0  0  0  0  0
  -25.4141  -27.3101   20.2000 C   0  0  0  0  0  0  0  0  0  0  0  0
  -27.5174  -27.9443   18.9991 C   0  0  0  0  0  0  0  0  0  0  0  0
  -25.3020  -28.6202   18.0727 C   0  0  0  0  0  0  0  0  0  0  0  0
  -24.1625  -18.1740   20.6906 C   0  0  0  0  0  0  0  0  0  0  0  0
  -28.0364  -34.3809   20.5646 C   0  0  0  0  0  0  0  0  0  0  0  0
  -26.4428  -24.7341   24.8437 C   0  0  0  0  0  0  0  0  0  0  0  0
  -26.9388  -31.0408   29.9396 C   0  0  0  0  0  0  0  0  0  0  0  0
  -23.4749  -22.4764   23.9987 C   0  0  0  0  0  0  0  0  0  0  0  0
  -27.4810  -28.7871   28.8468 C   0  0  0  0  0  0  0  0  0  0  0  0
  -24.7668  -23.2425   23.7461 C   0  0  0  0  0  0  0  0  0  0  0  0
  -26.1843  -29.7737   20.1423 C   0  0  1  0  0  0  0  0  0  0  0  0
  -28.3777  -32.5871   18.8603 C   0  0  2  0  0  0  0  0  0  0  0  0
  -26.7449  -30.1208   28.7296 C   0  0  2  0  0  0  0  0  0  1  0  0
  -26.0996  -28.4213   19.3800 C   0  0  0  0  0  0  0  0  0  0  0  0
  -21.9897  -22.1566   22.1082 N   0  0  0  0  0  0  0  0  0  0  0  0
  -23.0033  -12.9663   19.6380 N   0  0  0  0  0  0  0  0  0  0  0  0
  -23.0166  -21.7050   22.8483 N   0  0  0  0  0  0  0  0  0  0  0  0
  -23.7976  -14.0493   19.5904 N   0  0  0  0  0  0  0  0  0  0  0  0
  -24.6285  -30.4552   21.9420 N   0  0  0  0  0  0  0  0  0  0  0  0
  -22.1273  -17.4229   18.8935 N   0  0  0  0  0  0  0  0  0  0  0  0
  -25.8720  -14.9051   20.3488 N   0  0  0  0  0  0  0  0  0  0  0  0
  -25.7400  -10.7589   22.1343 N   0  0  0  0  0  0  0  0  0  0  0  0
  -21.2966  -29.3761   22.6233 N   0  0  0  0  0  0  0  0  0  0  0  0
  -26.8045  -30.8517   19.3796 N   0  0  0  0  0  0  0  0  0  0  0  0
  -22.9625  -18.9935   20.4928 N   0  0  0  0  0  0  0  0  0  0  0  0
  -27.2049  -27.9110   27.6561 N   0  3  0  0  0  0  0  0  0  0  0  0
  -28.9651  -33.7417   19.5971 N   0  3  0  0  0  0  0  0  0  0  0  0
  -25.1970  -23.9532   24.9843 N   0  3  0  0  0  0  0  0  0  0  0  0
  -26.9822  -12.6802   21.9779 O   0  0  0  0  0  0  0  0  0  0  0  0
  -23.3710  -28.5527   23.2878 O   0  0  0  0  0  0  0  0  0  0  0  0
  -23.9768  -30.5234   19.7044 O   0  0  0  0  0  0  0  0  0  0  0  0
  -28.5077  -31.2860   20.8920 O   0  0  0  0  0  0  0  0  0  0  0  0
  -21.4743  -19.6422   18.8356 O   0  0  0  0  0  0  0  0  0  0  0  0
  -21.6324   -7.0438   21.5337 O   0  0  0  0  0  0  0  0  0  0  0  0
  -27.1737  -30.8007   27.5506 O   0  0  0  0  0  0  0  0  0  1  0  0
  -21.9514   -5.2494   26.7378 F   0  0  0  0  0  0  0  0  0  0  0  0
  -19.3497   -6.4037   22.9557 F   0  0  0  0  0  0  0  0  0  0  0  0
  1  2  1  0  0  0  0
  1  5  2  0  0  0  0
  2  6  2  0  0  0  0
  3  8  2  0  0  0  0
  3 17  1  0  0  0  0
  4  9  1  0  0  0  0
  4 17  2  0  0  0  0
  5 19  1  0  0  0  0
  6 21  1  0  0  0  0
  7 10  2  0  0  0  0
  7 20  1  0  0  0  0
  8 24  1  0  0  0  0
  9 24  2  0  0  0  0
 10 25  1  0  0  0  0
 11 12  2  0  0  0  0
 11 26  1  0  0  0  0
 12 27  1  0  0  0  0
 13 22  1  0  0  0  0
 13 25  2  0  0  0  0
 14 27  2  0  0  0  0
 14 28  1  0  0  0  0
 15 23  1  0  0  0  0
 15 69  2  0  0  0  0
 16 23  2  0  0  0  0
 16 71  1  0  0  0  0
 17 29  1  0  0  0  0
 18 29  1  0  0  0  0
 18 30  2  0  0  0  0
 18 31  1  0  0  0  0
 19 21  2  0  0  0  0
 19 36  1  0  0  0  0
 20 22  2  0  0  0  0
 20 37  1  0  0  0  0
 21 49  1  0  0  0  0
 22 38  1  0  0  0  0
 23 79  1  0  0  0  0
 24 88  1  0  0  0  0
 25 89  1  0  0  0  0
 26 28  2  0  0  0  0
 26 88  1  0  0  0  0
 27 90  1  0  0  0  0
 28 91  1  0  0  0  0
 29 70  2  0  0  0  0
 30 72  1  0  0  0  0
 30 75  1  0  0  0  0
 31 76  1  0  0  0  0
 31 83  2  0  0  0  0
 32 50  1  0  0  0  0
 32 77  1  0  0  0  0
 32 84  2  0  0  0  0
 33 65  1  0  0  0  0
 33 73  1  0  0  0  0
 33 85  2  0  0  0  0
 34 66  1  0  0  0  0
 34 78  1  0  0  0  0
 34 86  2  0  0  0  0
 35 74  1  0  0  0  0
 35 79  1  0  0  0  0
 35 87  2  0  0  0  0
 36 39  1  0  0  0  0
 37 50  1  0  0  0  0
 38 73  1  0  0  0  0
 39 41  1  0  0  0  0
 40 42  1  0  0  0  0
 40 45  1  0  0  0  0
 41 49  1  0  0  0  0
 42 52  1  0  0  0  0
 43 47  1  0  0  0  0
 43 51  1  0  0  0  0
 44 48  1  0  0  0  0
 44 51  1  0  0  0  0
 45 74  1  0  0  0  0
 46 52  1  0  0  0  0
 46 74  1  0  0  0  0
 47 80  1  0  0  0  0
 48 80  1  0  0  0  0
 49 77  1  0  0  0  0
 50 73  1  0  0  0  0
 51 60  1  0  0  0  0
 52 72  1  0  0  0  0
 53 61  1  0  0  0  0
 54 66  1  0  0  0  0
 55 68  1  0  0  0  0
 56 68  1  0  0  0  0
 57 68  1  0  0  0  0
 58 79  1  0  0  0  0
 59 81  1  0  0  0  0
 60 82  1  0  0  0  0
 61 67  1  0  0  0  0
 62 64  1  0  0  0  0
 62 71  1  0  0  0  0
 63 67  1  0  0  0  0
 63 80  1  0  0  0  0
 64 82  1  0  0  0  0
 65 68  1  0  0  0  0
 65 78  1  0  0  0  0
 66 81  1  0  0  0  0
 67 89  1  0  0  0  0
 69 71  1  0  0  0  0
 70 72  1  0  0  0  0
M  CHG  3  80   1  81   1  82   1
M  ISO  4  35 100  67 101  79 100  89 101
M  END
> <Batch ID>
0121

> <Smiles>
CC[101CH:1](CN1CCC(CNCCn2cc([100N:0](C)[100C:0](=O)N3CCCC(n4nc(-c5ccc(Oc6ccc(F)cc6F)cc5)c(C(N)=O)c4N)C3)cn2)CC1)[101O:1]c1ccc2c(c1)CN(C(=O)C(NC(=O)C(C)NC)C(C)(C)C)C(C(=O)NC1CCCc3ccccc31)C2

> <Shape>
0.248

> <Color>
0.131

> <Negative vol penalty>
0.000

$$$$

  -OEChem-04052320253D

 86 95  0     1  0  0  0  0  0999 V2000
  -26.0321  -19.5709   25.5835 C   0  0  0  0  0  0  0  0  0  0  0  0
  -26.8648  -20.4273   24.8704 C   0  0  0  0  0  0  0  0  0  0  0  0
  -24.4814   -9.8095   21.7593 C   0  0  0  0  0  0  0  0  0  0  0  0
  -22.7699  -10.5962   20.2464 C   0  0  0  0  0  0  0  0  0  0  0  0
  -24.6486  -19.7306   25.5174 C   0  0  0  0  0  0  0  0  0  0  0  0
  -26.3144  -21.4433   24.0898 C   0  0  0  0  0  0  0  0  0  0  0  0
  -28.7092  -25.8653   24.6865 C   0  0  0  0  0  0  0  0  0  0  0  0
  -32.2618  -22.9083   20.0021 C   0  0  0  0  0  0  0  0  0  0  0  0
  -31.6573  -21.6512   20.0721 C   0  0  0  0  0  0  0  0  0  0  0  0
  -23.6846   -8.7138   22.0910 C   0  0  0  0  0  0  0  0  0  0  0  0
  -21.9731   -9.5004   20.5781 C   0  0  0  0  0  0  0  0  0  0  0  0
  -29.9255  -26.0252   24.0241 C   0  0  0  0  0  0  0  0  0  0  0  0
  -22.8736   -5.7231   20.7380 C   0  0  0  0  0  0  0  0  0  0  0  0
  -23.4836   -4.4697   20.7886 C   0  0  0  0  0  0  0  0  0  0  0  0
  -30.0913  -23.9309   19.8461 C   0  0  0  0  0  0  0  0  0  0  0  0
  -28.0975  -22.5173   19.8754 C   0  0  0  0  0  0  0  0  0  0  0  0
  -28.8111  -27.2841   22.2943 C   0  0  0  0  0  0  0  0  0  0  0  0
  -22.8632   -4.2616   23.1143 C   0  0  0  0  0  0  0  0  0  0  0  0
  -29.4840  -22.6656   19.9164 C   0  0  0  0  0  0  0  0  0  0  0  0
  -24.0240  -10.7508   20.8370 C   0  0  0  0  0  0  0  0  0  0  0  0
  -25.7971  -11.9611   19.4590 C   0  0  0  0  0  0  0  0  0  0  0  0
  -24.0813  -20.7551   24.7433 C   0  0  0  0  0  0  0  0  0  0  0  0
  -27.5309  -26.4052   24.1513 C   0  0  0  0  0  0  0  0  0  0  0  0
  -24.9220  -21.6160   24.0123 C   0  0  0  0  0  0  0  0  0  0  0  0
  -27.5815  -27.1318   22.9531 C   0  0  0  0  0  0  0  0  0  0  0  0
  -31.4779  -24.0501   19.8889 C   0  0  0  0  0  0  0  0  0  0  0  0
  -30.2729  -21.5081   20.0308 C   0  0  0  0  0  0  0  0  0  0  0  0
  -22.4305   -8.5592   21.5004 C   0  0  0  0  0  0  0  0  0  0  0  0
  -29.9761  -26.7321   22.8263 C   0  0  0  0  0  0  0  0  0  0  0  0
  -22.2586   -6.2458   21.8757 C   0  0  0  0  0  0  0  0  0  0  0  0
  -23.4783   -3.7389   21.9767 C   0  0  0  0  0  0  0  0  0  0  0  0
  -22.2534   -5.5150   23.0638 C   0  0  0  0  0  0  0  0  0  0  0  0
  -24.8464  -11.8832   20.4943 C   0  0  0  0  0  0  0  0  0  0  0  0
  -27.5717  -21.2459   19.9492 C   0  0  0  0  0  0  0  0  0  0  0  0
  -26.3008  -13.2357   19.5506 C   0  0  0  0  0  0  0  0  0  0  0  0
  -26.1898  -10.9701   18.5002 C   0  0  0  0  0  0  0  0  0  0  0  0
  -24.7774  -25.1984   23.1188 C   0  0  0  0  0  0  0  0  0  0  0  0
  -23.9485  -28.3247   22.8707 C   0  0  0  0  0  0  0  0  0  0  0  0
  -24.9496  -31.5685   22.5211 C   0  0  0  0  0  0  0  0  0  0  0  0
  -25.5306  -18.6289   20.0668 C   0  0  0  0  0  0  0  0  0  0  0  0
  -22.5787  -20.8590   24.6655 C   0  0  0  0  0  0  0  0  0  0  0  0
  -26.2312  -26.2468   24.8918 C   0  0  0  0  0  0  0  0  0  0  0  0
  -26.3483  -27.7485   22.3470 C   0  0  0  0  0  0  0  0  0  0  0  0
  -22.0883  -22.1946   24.1124 C   0  0  0  0  0  0  0  0  0  0  0  0
  -25.7463  -16.7466   23.1503 C   0  0  0  0  0  0  0  0  0  0  0  0
  -22.8725  -22.5742   22.8603 C   0  0  0  0  0  0  0  0  0  0  0  0
  -25.6086  -15.3108   22.6404 C   0  0  0  0  0  0  0  0  0  0  0  0
  -24.8531  -17.7008   22.3630 C   0  0  0  0  0  0  0  0  0  0  0  0
  -24.9367  -16.2429   20.3777 C   0  0  0  0  0  0  0  0  0  0  0  0
  -24.3637  -22.7456   23.1741 C   0  0  1  0  0  0  0  0  0  0  0  0
  -25.0086  -26.3991   23.9921 C   0  0  1  0  0  0  0  0  0  0  0  0
  -25.8319  -15.2329   21.1185 C   0  0  2  0  0  0  0  0  0  0  0  0
  -32.9890  -25.5362   18.5480 C   0  0  0  0  0  0  0  0  0  0  0  0
  -24.0418  -33.8986   22.3110 C   0  0  0  0  0  0  0  0  0  0  0  0
  -23.1817  -27.7620   19.9715 C   0  0  0  0  0  0  0  0  0  0  0  0
  -23.2005  -30.2315   19.5602 C   0  0  0  0  0  0  0  0  0  0  0  0
  -21.5944  -29.2541   21.1996 C   0  0  0  0  0  0  0  0  0  0  0  0
  -26.3118  -32.4470   24.9973 C   0  0  0  0  0  0  0  0  0  0  0  0
  -26.0970  -21.0396   19.9094 C   0  0  0  0  0  0  0  0  0  0  0  0
  -32.9640  -25.7633   21.0611 C   0  0  0  0  0  0  0  0  0  0  0  0
  -32.1313  -25.8540   22.3364 C   0  0  0  0  0  0  0  0  0  1  0  0
  -32.1290  -25.4203   19.8123 C   0  0  2  0  0  0  0  0  0  0  0  0
  -24.0495  -29.3751   21.7911 C   0  0  1  0  0  0  0  0  0  0  0  0
  -24.5533  -32.8308   23.2654 C   0  0  2  0  0  0  0  0  0  0  0  0
  -23.0296  -29.1425   20.6408 C   0  0  0  0  0  0  0  0  0  0  0  0
  -29.7038  -20.2925   20.0989 N   0  0  0  0  0  0  0  0  0  0  0  0
  -24.7501  -13.0178   21.1924 N   0  0  0  0  0  0  0  0  0  0  0  0
  -28.3433  -20.1511   20.0584 N   0  0  0  0  0  0  0  0  0  0  0  0
  -25.6468  -13.8208   20.5947 N   0  0  0  0  0  0  0  0  0  0  0  0
  -25.1005  -27.5607   23.1054 N   0  0  0  0  0  0  0  0  0  0  0  0
  -25.1285  -17.5907   20.9235 N   0  0  0  0  0  0  0  0  0  0  0  0
  -27.2348  -13.9018   18.8391 N   0  0  0  0  0  0  0  0  0  0  0  0
  -25.5717   -9.7131   18.5472 N   0  0  0  0  0  0  0  0  0  0  0  0
  -24.6015  -24.0196   23.8180 N   0  0  0  0  0  0  0  0  0  0  0  0
  -23.9110  -30.6637   22.4610 N   0  0  0  0  0  0  0  0  0  0  0  0
  -25.6826  -19.8758   20.6609 N   0  0  0  0  0  0  0  0  0  0  0  0
  -25.7222  -33.3838   24.0064 N   0  3  0  0  0  0  0  0  0  0  0  0
  -27.0748  -11.1872   17.6381 O   0  0  0  0  0  0  0  0  0  0  0  0
  -24.7585  -25.3319   21.9008 O   0  0  0  0  0  0  0  0  0  0  0  0
  -22.8889  -28.1920   23.4881 O   0  0  0  0  0  0  0  0  0  0  0  0
  -26.0675  -31.4034   22.0378 O   0  0  0  0  0  0  0  0  0  0  0  0
  -25.7437  -18.4564   18.8619 O   0  0  0  0  0  0  0  0  0  0  0  0
  -21.6528   -7.4900   21.8237 O   0  0  0  0  0  0  0  0  0  0  0  0
  -31.1619  -26.8891   22.1774 O   0  0  0  0  0  0  0  0  0  1  0  0
  -24.0627   -2.5346   22.0246 F   0  0  0  0  0  0  0  0  0  0  0  0
  -21.6630   -6.0115   24.1596 F   0  0  0  0  0  0  0  0  0  0  0  0
  1  2  1  0  0  0  0
  1  5  2  0  0  0  0
  2  6  2  0  0  0  0
  3 10  2  0  0  0  0
  3 20  1  0  0  0  0
  4 11  1  0  0  0  0
  4 20  2  0  0  0  0
  5 22  1  0  0  0  0
  6 24  1  0  0  0  0
  7 12  2  0  0  0  0
  7 23  1  0  0  0  0
  8  9  2  0  0  0  0
  8 26  1  0  0  0  0
  9 27  1  0  0  0  0
 10 28  1  0  0  0  0
 11 28  2  0  0  0  0
 12 29  1  0  0  0  0
 13 14  2  0  0  0  0
 13 30  1  0  0  0  0
 14 31  1  0  0  0  0
 15 19  1  0  0  0  0
 15 26  2  0  0  0  0
 16 19  1  0  0  0  0
 16 34  2  0  0  0  0
 17 25  1  0  0  0  0
 17 29  2  0  0  0  0
 18 31  2  0  0  0  0
 18 32  1  0  0  0  0
 19 27  2  0  0  0  0
 20 33  1  0  0  0  0
 21 33  1  0  0  0  0
 21 35  2  0  0  0  0
 21 36  1  0  0  0  0
 22 24  2  0  0  0  0
 22 41  1  0  0  0  0
 23 25  2  0  0  0  0
 23 42  1  0  0  0  0
 24 50  1  0  0  0  0
 25 43  1  0  0  0  0
 26 62  1  0  0  0  0
 27 66  1  0  0  0  0
 28 83  1  0  0  0  0
 29 84  1  0  0  0  0
 30 32  2  0  0  0  0
 30 83  1  0  0  0  0
 31 85  1  0  0  0  0
 32 86  1  0  0  0  0
 33 67  2  0  0  0  0
 34 59  1  0  0  0  0
 34 68  1  0  0  0  0
 35 69  1  0  0  0  0
 35 72  1  0  0  0  0
 36 73  1  0  0  0  0
 36 78  2  0  0  0  0
 37 51  1  0  0  0  0
 37 74  1  0  0  0  0
 37 79  2  0  0  0  0
 38 63  1  0  0  0  0
 38 70  1  0  0  0  0
 38 80  2  0  0  0  0
 39 64  1  0  0  0  0
 39 75  1  0  0  0  0
 39 81  2  0  0  0  0
 40 71  1  0  0  0  0
 40 76  1  0  0  0  0
 40 82  2  0  0  0  0
 41 44  1  0  0  0  0
 42 51  1  0  0  0  0
 43 70  1  0  0  0  0
 44 46  1  0  0  0  0
 45 47  1  0  0  0  0
 45 48  1  0  0  0  0
 46 50  1  0  0  0  0
 47 52  1  0  0  0  0
 48 71  1  0  0  0  0
 49 52  1  0  0  0  0
 49 71  1  0  0  0  0
 50 74  1  0  0  0  0
 51 70  1  0  0  0  0
 52 69  1  0  0  0  0
 53 62  1  0  0  0  0
 54 64  1  0  0  0  0
 55 65  1  0  0  0  0
 56 65  1  0  0  0  0
 57 65  1  0  0  0  0
 58 77  1  0  0  0  0
 59 76  1  0  0  0  0
 60 61  1  0  0  0  0
 60 62  1  0  0  0  0
 61 84  1  0  0  0  0
 63 65  1  0  0  0  0
 63 75  1  0  0  0  0
 64 77  1  0  0  0  0
 66 68  2  0  0  0  0
 67 69  1  0  0  0  0
M  CHG  1  77   1
M  ISO  4  40 100  61 101  76 100  84 101
M  END
> <Batch ID>
0121

> <Smiles>
CNC(C)C(=O)NC(C(=O)N1Cc2cc([101O:1][101CH2:1]CC(C)c3ccc4nnc(C[100NH:0][100C:0](=O)N5CCCC(n6nc(-c7ccc(Oc8ccc(F)cc8F)cc7)c(C(N)=O)c6N)C5)cc4c3)ccc2CC1C(=O)NC1CCCc2ccccc21)C(C)(C)C

> <Shape>
0.230

> <Color>
0.087

> <Negative vol penalty>
0.000

$$$$

  -OEChem-04052320253D

 87 96  0     1  0  0  0  0  0999 V2000
  -27.7448  -36.7067   22.0363 C   0  0  0  0  0  0  0  0  0  0  0  0
  -28.4677  -35.5938   21.6188 C   0  0  0  0  0  0  0  0  0  0  0  0
  -22.9119  -10.2009   20.1863 C   0  0  0  0  0  0  0  0  0  0  0  0
  -24.1571   -9.3616   22.0789 C   0  0  0  0  0  0  0  0  0  0  0  0
  -26.5421  -36.5384   22.7213 C   0  0  0  0  0  0  0  0  0  0  0  0
  -27.9889  -34.3119   21.8871 C   0  0  0  0  0  0  0  0  0  0  0  0
  -27.8634  -27.7063   19.1182 C   0  0  0  0  0  0  0  0  0  0  0  0
  -29.8993  -19.2025   22.1203 C   0  0  0  0  0  0  0  0  0  0  0  0
  -22.1229   -9.0507   20.1953 C   0  0  0  0  0  0  0  0  0  0  0  0
  -23.3682   -8.2113   22.0879 C   0  0  0  0  0  0  0  0  0  0  0  0
  -28.1544  -26.3876   19.4646 C   0  0  0  0  0  0  0  0  0  0  0  0
  -20.2873   -7.3142   23.1482 C   0  0  0  0  0  0  0  0  0  0  0  0
  -19.8087   -6.8681   24.3800 C   0  0  0  0  0  0  0  0  0  0  0  0
  -30.1615  -17.9089   22.5575 C   0  0  0  0  0  0  0  0  0  0  0  0
  -26.0251  -26.2186   20.5857 C   0  0  0  0  0  0  0  0  0  0  0  0
  -20.9680   -4.7710   24.0709 C   0  0  0  0  0  0  0  0  0  0  0  0
  -31.8516  -19.0851   20.7671 C   0  0  0  0  0  0  0  0  0  0  0  0
  -23.9290  -10.3564   21.1281 C   0  0  0  0  0  0  0  0  0  0  0  0
  -24.5037  -12.7462   21.8110 C   0  0  0  0  0  0  0  0  0  0  0  0
  -30.7556  -19.8090   21.2081 C   0  0  0  0  0  0  0  0  0  0  0  0
  -26.0435  -35.2539   22.9896 C   0  0  0  0  0  0  0  0  0  0  0  0
  -26.6537  -28.2956   19.5130 C   0  0  0  0  0  0  0  0  0  0  0  0
  -26.7791  -34.1264   22.5775 C   0  0  0  0  0  0  0  0  0  0  0  0
  -25.7201  -27.5442   20.2409 C   0  0  0  0  0  0  0  0  0  0  0  0
  -22.3510   -8.0559   21.1460 C   0  0  0  0  0  0  0  0  0  0  0  0
  -27.2364  -25.6444   20.2009 C   0  0  0  0  0  0  0  0  0  0  0  0
  -21.1062   -6.4888   22.3776 C   0  0  0  0  0  0  0  0  0  0  0  0
  -20.1490   -5.5965   24.8414 C   0  0  0  0  0  0  0  0  0  0  0  0
  -21.4466   -5.2172   22.8390 C   0  0  0  0  0  0  0  0  0  0  0  0
  -24.7447  -11.5441   21.1191 C   0  0  0  0  0  0  0  0  0  0  0  0
  -31.2839  -17.2699   22.0559 C   0  0  0  0  0  0  0  0  0  0  0  0
  -25.5620  -13.5543   21.4742 C   0  0  0  0  0  0  0  0  0  0  0  0
  -23.4202  -13.1005   22.6805 C   0  0  0  0  0  0  0  0  0  0  0  0
  -25.8555  -30.7678   21.3446 C   0  0  0  0  0  0  0  0  0  0  0  0
  -22.8663  -30.0902   20.2826 C   0  0  0  0  0  0  0  0  0  0  0  0
  -20.6988  -27.7843   19.0053 C   0  0  0  0  0  0  0  0  0  0  0  0
  -31.0279  -14.3260   20.6538 C   0  0  0  0  0  0  0  0  0  0  0  0
  -24.7625  -35.1218   23.7747 C   0  0  0  0  0  0  0  0  0  0  0  0
  -26.3434  -29.7107   19.1084 C   0  0  0  0  0  0  0  0  0  0  0  0
  -24.3984  -28.1239   20.6716 C   0  0  0  0  0  0  0  0  0  0  0  0
  -24.1370  -33.7319   23.6903 C   0  0  0  0  0  0  0  0  0  0  0  0
  -29.1417  -12.9911   17.9451 C   0  0  0  0  0  0  0  0  0  0  0  0
  -32.1999  -22.5448   19.5772 C   0  0  0  0  0  0  0  0  0  0  0  0
  -25.1956  -32.6559   23.9101 C   0  0  0  0  0  0  0  0  0  0  0  0
  -31.6525  -22.2038   20.9534 C   0  0  0  0  0  0  0  0  0  0  0  0
  -27.8129  -12.5894   18.5876 C   0  0  0  0  0  0  0  0  0  0  0  0
  -30.3203  -12.7436   18.8841 C   0  0  0  0  0  0  0  0  0  0  0  0
  -28.8622  -12.9607   20.8591 C   0  0  0  0  0  0  0  0  0  0  0  0
  -30.9735  -22.5037   18.6947 C   0  0  0  0  0  0  0  0  0  0  0  0
  -26.2801  -32.7198   22.8279 C   0  0  1  0  0  0  0  0  0  0  0  0
  -30.4989  -21.2136   20.7138 C   0  0  1  0  0  0  0  0  0  0  0  0
  -25.3018  -30.3736   20.0045 C   0  0  1  0  0  0  0  0  0  0  0  0
  -27.6385  -13.2441   19.9711 C   0  0  2  0  0  0  0  0  0  0  0  0
  -18.3127  -27.5157   18.2760 C   0  0  0  0  0  0  0  0  0  0  0  0
  -28.3382  -19.7921   18.8902 C   0  0  0  0  0  0  0  0  0  0  0  0
  -21.9884  -29.9828   23.2028 C   0  0  0  0  0  0  0  0  0  0  0  0
  -19.9070  -28.8055   22.4613 C   0  0  0  0  0  0  0  0  0  0  0  0
  -20.3755  -31.1243   21.6700 C   0  0  0  0  0  0  0  0  0  0  0  0
  -21.4990  -27.1144   16.2359 C   0  0  0  0  0  0  0  0  0  0  0  0
  -31.5956  -15.8808   22.5030 C   0  0  0  0  0  0  0  0  0  0  0  0
  -27.9829  -22.1423   19.7450 C   0  0  0  0  0  0  0  0  0  0  0  0
  -28.3535  -23.6183   19.6506 C   0  0  0  0  0  0  0  0  0  1  0  0
  -21.7397  -29.2028   20.7542 C   0  0  1  0  0  0  0  0  0  0  0  0
  -19.7301  -27.8504   17.8383 C   0  0  2  0  0  0  0  0  0  0  0  0
  -28.7991  -21.2417   18.8158 C   0  0  1  0  0  0  0  0  0  0  0  0
  -21.0283  -29.7682   22.0158 C   0  0  0  0  0  0  0  0  0  0  0  0
  -32.1389  -17.8266   21.1689 N   0  0  0  0  0  0  0  0  0  0  0  0
  -25.8678  -11.5810   20.3971 N   0  0  0  0  0  0  0  0  0  0  0  0
  -26.3419  -12.8161   20.6334 N   0  0  0  0  0  0  0  0  0  0  0  0
  -24.1440  -29.5135   20.2572 N   0  0  0  0  0  0  0  0  0  0  0  0
  -30.0928  -13.3922   20.1777 N   0  0  0  0  0  0  0  0  0  0  0  0
  -25.8921  -14.8173   21.8180 N   0  0  0  0  0  0  0  0  0  0  0  0
  -22.4168  -12.1514   22.9188 N   0  0  0  0  0  0  0  0  0  0  0  0
  -25.8025  -32.1252   21.5980 N   0  0  0  0  0  0  0  0  0  0  0  0
  -20.8598  -29.0151   19.6057 N   0  0  0  0  0  0  0  0  0  0  0  0
  -30.7330  -14.8986   21.8850 N   0  0  0  0  0  0  0  0  0  0  0  0
  -30.2429  -21.2868   19.2039 N   0  3  1  0  0  0  0  0  0  0  0  0
  -20.1335  -26.8873   16.7751 N   0  3  0  0  0  0  0  0  0  0  0  0
  -23.3354  -14.2313   23.2169 O   0  0  0  0  0  0  0  0  0  0  0  0
  -26.2966  -29.9043   22.0938 O   0  0  0  0  0  0  0  0  0  0  0  0
  -22.6205  -31.2501   19.9423 O   0  0  0  0  0  0  0  0  0  0  0  0
  -21.2539  -26.7441   19.3520 O   0  0  0  0  0  0  0  0  0  0  0  0
  -32.0473  -14.6311   20.0254 O   0  0  0  0  0  0  0  0  0  0  0  0
  -21.5812   -6.9335   21.1552 O   0  0  0  0  0  0  0  0  0  0  0  0
  -27.5182  -24.3572   20.5409 O   0  0  0  0  0  0  0  0  0  1  0  0
  -19.6906   -5.1688   26.0250 F   0  0  0  0  0  0  0  0  0  0  0  0
  -22.2339   -4.4201   22.1038 F   0  0  0  0  0  0  0  0  0  0  0  0
  1  2  1  0  0  0  0
  1  5  2  0  0  0  0
  2  6  2  0  0  0  0
  3  9  2  0  0  0  0
  3 18  1  0  0  0  0
  4 10  1  0  0  0  0
  4 18  2  0  0  0  0
  5 21  1  0  0  0  0
  6 23  1  0  0  0  0
  7 11  2  0  0  0  0
  7 22  1  0  0  0  0
  8 14  2  0  0  0  0
  8 20  1  0  0  0  0
  9 25  1  0  0  0  0
 10 25  2  0  0  0  0
 11 26  1  0  0  0  0
 12 13  2  0  0  0  0
 12 27  1  0  0  0  0
 13 28  1  0  0  0  0
 14 31  1  0  0  0  0
 15 24  1  0  0  0  0
 15 26  2  0  0  0  0
 16 28  2  0  0  0  0
 16 29  1  0  0  0  0
 17 20  2  0  0  0  0
 17 67  1  0  0  0  0
 18 30  1  0  0  0  0
 19 30  1  0  0  0  0
 19 32  2  0  0  0  0
 19 33  1  0  0  0  0
 20 51  1  0  0  0  0
 21 23  2  0  0  0  0
 21 38  1  0  0  0  0
 22 24  2  0  0  0  0
 22 39  1  0  0  0  0
 23 50  1  0  0  0  0
 24 40  1  0  0  0  0
 25 84  1  0  0  0  0
 26 85  1  0  0  0  0
 27 29  2  0  0  0  0
 27 84  1  0  0  0  0
 28 86  1  0  0  0  0
 29 87  1  0  0  0  0
 30 68  2  0  0  0  0
 31 60  1  0  0  0  0
 31 67  2  0  0  0  0
 32 69  1  0  0  0  0
 32 72  1  0  0  0  0
 33 73  1  0  0  0  0
 33 79  2  0  0  0  0
 34 52  1  0  0  0  0
 34 74  1  0  0  0  0
 34 80  2  0  0  0  0
 35 63  1  0  0  0  0
 35 70  1  0  0  0  0
 35 81  2  0  0  0  0
 36 64  1  0  0  0  0
 36 75  1  0  0  0  0
 36 82  2  0  0  0  0
 37 71  1  0  0  0  0
 37 76  1  0  0  0  0
 37 83  2  0  0  0  0
 38 41  1  0  0  0  0
 39 52  1  0  0  0  0
 40 70  1  0  0  0  0
 41 44  1  0  0  0  0
 42 46  1  0  0  0  0
 42 47  1  0  0  0  0
 43 45  1  0  0  0  0
 43 49  1  0  0  0  0
 44 50  1  0  0  0  0
 45 51  1  0  0  0  0
 46 53  1  0  0  0  0
 47 71  1  0  0  0  0
 48 53  1  0  0  0  0
 48 71  1  0  0  0  0
 49 77  1  0  0  0  0
 50 74  1  0  0  0  0
 51 77  1  0  0  0  0
 52 70  1  0  0  0  0
 53 69  1  0  0  0  0
 54 64  1  0  0  0  0
 55 65  1  0  0  0  0
 56 66  1  0  0  0  0
 57 66  1  0  0  0  0
 58 66  1  0  0  0  0
 59 78  1  0  0  0  0
 60 76  1  0  0  0  0
 61 62  1  0  0  0  0
 61 65  1  0  0  0  0
 62 85  1  0  0  0  0
 63 66  1  0  0  0  0
 63 75  1  0  0  0  0
 64 78  1  0  0  0  0
 65 77  1  0  0  0  0
 68 69  1  0  0  0  0
M  CHG  2  77   1  78   1
M  ISO  4  37 100  62 101  76 100  85 101
M  END
> <Batch ID>
0121

> <Smiles>
CNC(C)C(=O)NC(C(=O)N1Cc2cc([101O:1][101CH2:1]CC(C)N3CCCC3c3ccc(C[100NH:0][100C:0](=O)N4CCCC(n5nc(-c6ccc(Oc7ccc(F)cc7F)cc6)c(C(N)=O)c5N)C4)nc3)ccc2CC1C(=O)NC1CCCc2ccccc21)C(C)(C)C

> <Shape>
0.370

> <Color>
0.130

> <Negative vol penalty>
0.000

$$$$

  -OEChem-04052320253D

 82 90  0     1  0  0  0  0  0999 V2000
  -23.6695  -29.8495   21.8632 C   0  0  0  0  0  0  0  0  0  0  0  0
  -22.9996  -28.6473   22.0666 C   0  0  0  0  0  0  0  0  0  0  0  0
  -28.8506  -12.7199   20.9377 C   0  0  0  0  0  0  0  0  0  0  0  0
  -28.1926  -12.7188   18.6131 C   0  0  0  0  0  0  0  0  0  0  0  0
  -24.8468  -29.8726   21.1166 C   0  0  0  0  0  0  0  0  0  0  0  0
  -23.5062  -27.4675   21.5225 C   0  0  0  0  0  0  0  0  0  0  0  0
  -23.2329  -21.8651   23.9810 C   0  0  0  0  0  0  0  0  0  0  0  0
  -17.9893  -16.3989   22.1392 C   0  0  0  0  0  0  0  0  0  0  0  0
  -30.1925  -12.6971   20.5580 C   0  0  0  0  0  0  0  0  0  0  0  0
  -29.5346  -12.6961   18.2333 C   0  0  0  0  0  0  0  0  0  0  0  0
  -22.3773  -20.7861   23.7635 C   0  0  0  0  0  0  0  0  0  0  0  0
  -33.7969  -13.0038   20.1988 C   0  0  0  0  0  0  0  0  0  0  0  0
  -34.6725  -13.8657   20.8593 C   0  0  0  0  0  0  0  0  0  0  0  0
  -18.6658  -17.5740   22.4469 C   0  0  0  0  0  0  0  0  0  0  0  0
  -23.9760  -19.8359   22.2271 C   0  0  0  0  0  0  0  0  0  0  0  0
  -33.3796  -15.7605   20.1008 C   0  0  0  0  0  0  0  0  0  0  0  0
  -19.8316  -15.1719   23.0092 C   0  0  0  0  0  0  0  0  0  0  0  0
  -27.8506  -12.7307   19.9653 C   0  0  0  0  0  0  0  0  0  0  0  0
  -25.6633  -13.8890   20.5829 C   0  0  0  0  0  0  0  0  0  0  0  0
  -25.3731  -28.6910   20.5712 C   0  0  0  0  0  0  0  0  0  0  0  0
  -24.4638  -21.9432   23.3137 C   0  0  0  0  0  0  0  0  0  0  0  0
  -24.6909  -27.4750   20.7668 C   0  0  0  0  0  0  0  0  0  0  0  0
  -24.8465  -20.9157   22.4398 C   0  0  0  0  0  0  0  0  0  0  0  0
  -18.5764  -15.1707   22.4225 C   0  0  0  0  0  0  0  0  0  0  0  0
  -30.5345  -12.6853   19.2057 C   0  0  0  0  0  0  0  0  0  0  0  0
  -22.7474  -19.7727   22.8842 C   0  0  0  0  0  0  0  0  0  0  0  0
  -32.7127  -13.5203   19.4893 C   0  0  0  0  0  0  0  0  0  0  0  0
  -34.4639  -15.2440   20.8103 C   0  0  0  0  0  0  0  0  0  0  0  0
  -32.5041  -14.8986   19.4403 C   0  0  0  0  0  0  0  0  0  0  0  0
  -26.4642  -12.7536   20.3570 C   0  0  0  0  0  0  0  0  0  0  0  0
  -19.9170  -17.4676   23.0326 C   0  0  0  0  0  0  0  0  0  0  0  0
  -24.4357  -13.3799   20.9297 C   0  0  0  0  0  0  0  0  0  0  0  0
  -25.9989  -15.2797   20.4877 C   0  0  0  0  0  0  0  0  0  0  0  0
  -25.7693  -23.9735   21.2456 C   0  0  0  0  0  0  0  0  0  0  0  0
  -28.3963  -22.1213   21.6824 C   0  0  0  0  0  0  0  0  0  0  0  0
  -29.6895  -19.0921   22.5760 C   0  0  0  0  0  0  0  0  0  0  0  0
  -20.2675   -9.7561   20.1298 C   0  0  0  0  0  0  0  0  0  0  0  0
  -26.6233  -28.7731   19.7315 C   0  0  0  0  0  0  0  0  0  0  0  0
  -25.3871  -23.1004   23.5796 C   0  0  0  0  0  0  0  0  0  0  0  0
  -26.1661  -20.9421   21.7142 C   0  0  0  0  0  0  0  0  0  0  0  0
  -27.2946  -27.4210   19.5048 C   0  0  0  0  0  0  0  0  0  0  0  0
  -23.0360   -8.6572   22.0803 C   0  0  0  0  0  0  0  0  0  0  0  0
  -26.2615  -26.3725   19.1044 C   0  0  0  0  0  0  0  0  0  0  0  0
  -24.1100   -9.7148   21.8195 C   0  0  0  0  0  0  0  0  0  0  0  0
  -22.2032   -8.3785   20.8310 C   0  0  0  0  0  0  0  0  0  0  0  0
  -22.6757  -10.6303   19.9478 C   0  0  0  0  0  0  0  0  0  0  0  0
  -25.2221  -26.1705   20.2137 C   0  0  1  0  0  0  0  0  0  0  0  0
  -26.3911  -23.3344   22.4550 C   0  0  1  0  0  0  0  0  0  0  0  0
  -23.5050  -10.9859   21.1936 C   0  0  2  0  0  0  0  0  0  0  0  0
  -31.8692  -17.8685   22.7967 C   0  0  0  0  0  0  0  0  0  0  0  0
  -28.5210  -21.8016   18.6505 C   0  0  0  0  0  0  0  0  0  0  0  0
  -30.0711  -19.8648   18.9884 C   0  0  0  0  0  0  0  0  0  0  0  0
  -30.7384  -22.1427   19.7556 C   0  0  0  0  0  0  0  0  0  0  0  0
  -29.2943  -18.6748   25.4792 C   0  0  0  0  0  0  0  0  0  0  0  0
  -17.8786  -13.8960   22.1052 C   0  0  0  0  0  0  0  0  0  0  0  0
  -20.6755  -18.7151   23.3786 C   0  0  0  0  0  0  0  0  0  1  0  0
  -18.4324  -11.2592   19.4003 C   0  0  0  0  0  0  0  0  0  0  0  0
  -17.7833  -11.8925   20.6167 C   0  0  0  0  0  0  0  0  0  0  0  0
  -28.9517  -20.8815   21.0241 C   0  0  1  0  0  0  0  0  0  0  0  0
  -30.8278  -18.7183   23.5081 C   0  0  2  0  0  0  0  0  0  0  0  0
  -29.5448  -21.1728   19.6167 C   0  0  0  0  0  0  0  0  0  0  0  0
  -20.5195  -16.2926   23.3227 N   0  0  0  0  0  0  0  0  0  0  0  0
  -25.8012  -11.6093   20.5446 N   0  0  0  0  0  0  0  0  0  0  0  0
  -24.5707  -12.0232   20.8923 N   0  0  0  0  0  0  0  0  0  0  0  0
  -27.0315  -22.0977   22.0027 N   0  0  0  0  0  0  0  0  0  0  0  0
  -21.6570   -9.6245   20.2879 N   0  0  0  0  0  0  0  0  0  0  0  0
  -23.2647  -13.9648   21.2602 N   0  0  0  0  0  0  0  0  0  0  0  0
  -27.3054  -15.6280   20.1186 N   0  0  0  0  0  0  0  0  0  0  0  0
  -25.7694  -25.3550   21.2767 N   0  0  0  0  0  0  0  0  0  0  0  0
  -29.9062  -20.3108   21.9683 N   0  0  0  0  0  0  0  0  0  0  0  0
  -19.8331  -10.9712   19.6145 N   0  0  0  0  0  0  0  0  0  0  0  0
  -30.3105  -17.9487   24.6748 N   0  3  0  0  0  0  0  0  0  0  0  0
  -18.4331  -13.1953   20.9121 N   0  3  0  0  0  0  0  0  0  0  0  0
  -25.1696  -16.1867   20.7390 O   0  0  0  0  0  0  0  0  0  0  0  0
  -25.3239  -23.2657   20.3499 O   0  0  0  0  0  0  0  0  0  0  0  0
  -29.1473  -23.0729   21.9106 O   0  0  0  0  0  0  0  0  0  0  0  0
  -28.7080  -18.3732   22.4014 O   0  0  0  0  0  0  0  0  0  0  0  0
  -19.4726   -8.8592   20.4309 O   0  0  0  0  0  0  0  0  0  0  0  0
  -31.8439  -12.6634   18.8348 O   0  0  0  0  0  0  0  0  0  0  0  0
  -21.9139  -18.7186   22.6696 O   0  0  0  0  0  0  0  0  0  1  0  0
  -35.3039  -16.0713   21.4459 F   0  0  0  0  0  0  0  0  0  0  0  0
  -31.4635  -15.4006   18.7613 F   0  0  0  0  0  0  0  0  0  0  0  0
  1  2  1  0  0  0  0
  1  5  2  0  0  0  0
  2  6  2  0  0  0  0
  3  9  2  0  0  0  0
  3 18  1  0  0  0  0
  4 10  1  0  0  0  0
  4 18  2  0  0  0  0
  5 20  1  0  0  0  0
  6 22  1  0  0  0  0
  7 11  2  0  0  0  0
  7 21  1  0  0  0  0
  8 14  2  0  0  0  0
  8 24  1  0  0  0  0
  9 25  1  0  0  0  0
 10 25  2  0  0  0  0
 11 26  1  0  0  0  0
 12 13  2  0  0  0  0
 12 27  1  0  0  0  0
 13 28  1  0  0  0  0
 14 31  1  0  0  0  0
 15 23  1  0  0  0  0
 15 26  2  0  0  0  0
 16 28  2  0  0  0  0
 16 29  1  0  0  0  0
 17 24  2  0  0  0  0
 17 62  1  0  0  0  0
 18 30  1  0  0  0  0
 19 30  1  0  0  0  0
 19 32  2  0  0  0  0
 19 33  1  0  0  0  0
 20 22  2  0  0  0  0
 20 38  1  0  0  0  0
 21 23  2  0  0  0  0
 21 39  1  0  0  0  0
 22 47  1  0  0  0  0
 23 40  1  0  0  0  0
 24 55  1  0  0  0  0
 25 79  1  0  0  0  0
 26 80  1  0  0  0  0
 27 29  2  0  0  0  0
 27 79  1  0  0  0  0
 28 81  1  0  0  0  0
 29 82  1  0  0  0  0
 30 63  2  0  0  0  0
 31 56  1  0  0  0  0
 31 62  2  0  0  0  0
 32 64  1  0  0  0  0
 32 67  1  0  0  0  0
 33 68  1  0  0  0  0
 33 74  2  0  0  0  0
 34 48  1  0  0  0  0
 34 69  1  0  0  0  0
 34 75  2  0  0  0  0
 35 59  1  0  0  0  0
 35 65  1  0  0  0  0
 35 76  2  0  0  0  0
 36 60  1  0  0  0  0
 36 70  1  0  0  0  0
 36 77  2  0  0  0  0
 37 66  1  0  0  0  0
 37 71  1  0  0  0  0
 37 78  2  0  0  0  0
 38 41  1  0  0  0  0
 39 48  1  0  0  0  0
 40 65  1  0  0  0  0
 41 43  1  0  0  0  0
 42 44  1  0  0  0  0
 42 45  1  0  0  0  0
 43 47  1  0  0  0  0
 44 49  1  0  0  0  0
 45 66  1  0  0  0  0
 46 49  1  0  0  0  0
 46 66  1  0  0  0  0
 47 69  1  0  0  0  0
 48 65  1  0  0  0  0
 49 64  1  0  0  0  0
 50 60  1  0  0  0  0
 51 61  1  0  0  0  0
 52 61  1  0  0  0  0
 53 61  1  0  0  0  0
 54 72  1  0  0  0  0
 55 73  1  0  0  0  0
 56 80  1  0  0  0  0
 57 58  1  0  0  0  0
 57 71  1  0  0  0  0
 58 73  1  0  0  0  0
 59 61  1  0  0  0  0
 59 70  1  0  0  0  0
 60 72  1  0  0  0  0
 63 64  1  0  0  0  0
M  CHG  2  72   1  73   1
M  ISO  4  37 100  56 101  71 100  80 101
M  END
> <Batch ID>
0121

> <Smiles>
CNC(C)C(=O)NC(C(=O)N1Cc2cc([101O:1][101CH2:1]c3ccc(CNCC[100NH:0][100C:0](=O)N4CCCC(n5nc(-c6ccc(Oc7ccc(F)cc7F)cc6)c(C(N)=O)c5N)C4)cn3)ccc2CC1C(=O)NC1CCCc2ccccc21)C(C)(C)C

> <Shape>
0.215

> <Color>
0.094

> <Negative vol penalty>
0.000

$$$$

  -OEChem-04052320253D

 84 92  0     1  0  0  0  0  0999 V2000
  -24.9189  -31.9064   21.5394 C   0  0  0  0  0  0  0  0  0  0  0  0
  -25.6382  -31.1373   22.4484 C   0  0  0  0  0  0  0  0  0  0  0  0
  -25.3305  -11.5933   20.7907 C   0  0  0  0  0  0  0  0  0  0  0  0
  -25.4229  -12.5810   22.9936 C   0  0  0  0  0  0  0  0  0  0  0  0
  -24.6324  -31.3999   20.2724 C   0  0  0  0  0  0  0  0  0  0  0  0
  -26.0706  -29.8606   22.0913 C   0  0  0  0  0  0  0  0  0  0  0  0
  -31.2654  -27.1157   23.8189 C   0  0  0  0  0  0  0  0  0  0  0  0
  -25.6513  -10.3496   21.3348 C   0  0  0  0  0  0  0  0  0  0  0  0
  -25.7437  -11.3373   23.5378 C   0  0  0  0  0  0  0  0  0  0  0  0
  -31.5464  -26.1818   24.8153 C   0  0  0  0  0  0  0  0  0  0  0  0
  -24.0609   -7.8752   23.0024 C   0  0  0  0  0  0  0  0  0  0  0  0
  -23.3258   -6.7705   22.5724 C   0  0  0  0  0  0  0  0  0  0  0  0
  -27.8848  -22.0379   22.2512 C   0  0  0  0  0  0  0  0  0  0  0  0
  -31.3604  -24.4052   23.1941 C   0  0  0  0  0  0  0  0  0  0  0  0
  -25.3535   -5.7373   21.7610 C   0  0  0  0  0  0  0  0  0  0  0  0
  -27.5753  -22.7890   23.3635 C   0  0  0  0  0  0  0  0  0  0  0  0
  -25.2164  -12.7090   21.6201 C   0  0  0  0  0  0  0  0  0  0  0  0
  -23.5992  -14.5340   20.8706 C   0  0  0  0  0  0  0  0  0  0  0  0
  -25.0698  -30.1202   19.8962 C   0  0  0  0  0  0  0  0  0  0  0  0
  -31.0186  -26.6997   22.5027 C   0  0  0  0  0  0  0  0  0  0  0  0
  -25.7885  -29.3359   20.8186 C   0  0  0  0  0  0  0  0  0  0  0  0
  -31.0790  -25.3359   22.1824 C   0  0  0  0  0  0  0  0  0  0  0  0
  -27.8618  -20.6759   22.6404 C   0  0  0  0  0  0  0  0  0  0  0  0
  -25.8578  -10.2216   22.7084 C   0  0  0  0  0  0  0  0  0  0  0  0
  -31.5911  -24.8261   24.5035 C   0  0  0  0  0  0  0  0  0  0  0  0
  -25.4422   -7.9111   22.8116 C   0  0  0  0  0  0  0  0  0  0  0  0
  -23.9721   -5.7015   21.9518 C   0  0  0  0  0  0  0  0  0  0  0  0
  -26.0885   -6.8421   22.1909 C   0  0  0  0  0  0  0  0  0  0  0  0
  -24.8857  -13.9940   21.0585 C   0  0  0  0  0  0  0  0  0  0  0  0
  -23.8231  -15.7673   20.3091 C   0  0  0  0  0  0  0  0  0  0  0  0
  -27.5387  -20.6361   23.9789 C   0  0  0  0  0  0  0  0  0  0  0  0
  -22.3165  -13.9710   21.1763 C   0  0  0  0  0  0  0  0  0  0  0  0
  -28.5461  -26.8953   20.5148 C   0  0  0  0  0  0  0  0  0  0  0  0
  -30.6510  -25.6338   18.3934 C   0  0  0  0  0  0  0  0  0  0  0  0
  -33.4871  -23.8118   17.8608 C   0  0  0  0  0  0  0  0  0  0  0  0
  -28.4497  -19.5454   20.4673 C   0  0  0  0  0  0  0  0  0  0  0  0
  -24.6953  -29.5968   18.5322 C   0  0  0  0  0  0  0  0  0  0  0  0
  -30.7433  -27.7217   21.4340 C   0  0  0  0  0  0  0  0  0  0  0  0
  -30.8415  -24.8394   20.7804 C   0  0  0  0  0  0  0  0  0  0  0  0
  -25.5126  -28.3820   18.1004 C   0  0  0  0  0  0  0  0  0  0  0  0
  -26.9653  -18.1170   17.5632 C   0  0  0  0  0  0  0  0  0  0  0  0
  -25.5932  -27.3630   19.2326 C   0  0  0  0  0  0  0  0  0  0  0  0
  -26.1416  -16.9505   18.1136 C   0  0  0  0  0  0  0  0  0  0  0  0
  -28.2765  -18.2954   18.3266 C   0  0  0  0  0  0  0  0  0  0  0  0
  -27.3122  -17.2424   20.3343 C   0  0  0  0  0  0  0  0  0  0  0  0
  -26.2961  -27.9562   20.4596 C   0  0  1  0  0  0  0  0  0  0  0  0
  -30.0006  -27.1449   20.2327 C   0  0  1  0  0  0  0  0  0  0  0  0
  -25.9526  -17.0642   19.6390 C   0  0  2  0  0  0  0  0  0  0  0  0
  -34.9363  -22.9164   16.0181 C   0  0  0  0  0  0  0  0  0  0  0  0
  -32.6889  -24.3215   27.7024 C   0  0  0  0  0  0  0  0  0  0  0  0
  -28.5893  -23.4551   17.8339 C   0  0  0  0  0  0  0  0  0  0  0  0
  -30.4052  -22.1111   16.7547 C   0  0  0  0  0  0  0  0  0  0  0  0
  -29.7631  -24.3265   15.8047 C   0  0  0  0  0  0  0  0  0  0  0  0
  -35.8333  -25.3518   18.8002 C   0  0  0  0  0  0  0  0  0  0  0  0
  -26.0811  -19.0211   24.9395 C   0  0  0  0  0  0  0  0  0  0  0  0
  -27.0156  -22.3354   25.7636 C   0  0  0  0  0  0  0  0  0  0  0  0
  -28.1765  -22.2562   26.7462 C   0  0  0  0  0  0  0  0  0  0  0  0
  -30.4194  -23.2244   27.2665 C   0  0  0  0  0  0  0  0  0  0  0  0
  -31.0458  -24.2361   17.9815 C   0  0  1  0  0  0  0  0  0  0  0  0
  -34.6988  -24.0677   16.9829 C   0  0  2  0  0  0  0  0  0  0  0  0
  -31.4617  -24.2374   26.8041 C   0  0  2  0  0  0  0  0  0  1  0  0
  -29.9535  -23.5411   17.1206 C   0  0  0  0  0  0  0  0  0  0  0  0
  -25.8550  -14.8168   20.6495 N   0  0  0  0  0  0  0  0  0  0  0  0
  -27.3666  -21.9263   24.4078 N   0  0  0  0  0  0  0  0  0  0  0  0
  -25.1773  -15.8863   20.1989 N   0  0  0  0  0  0  0  0  0  0  0  0
  -30.5699  -25.8769   19.7718 N   0  0  0  0  0  0  0  0  0  0  0  0
  -28.0189  -18.4003   19.7645 N   0  0  0  0  0  0  0  0  0  0  0  0
  -22.9918  -16.7507   19.9039 N   0  0  0  0  0  0  0  0  0  0  0  0
  -22.2672  -12.6934   21.7504 N   0  0  0  0  0  0  0  0  0  0  0  0
  -28.1201  -19.5483   21.8222 N   0  0  0  0  0  0  0  0  0  0  0  0
  -27.7291  -27.9800   20.2588 N   0  0  0  0  0  0  0  0  0  0  0  0
  -32.3410  -24.3558   17.3207 N   0  0  0  0  0  0  0  0  0  0  0  0
  -35.9191  -24.2378   17.8211 N   0  3  0  0  0  0  0  0  0  0  0  0
  -29.2646  -23.1845   26.3352 N   0  3  0  0  0  0  0  0  0  0  0  0
  -21.2452  -14.5761   20.9321 O   0  0  0  0  0  0  0  0  0  0  0  0
  -28.1910  -25.7992   20.9322 O   0  0  0  0  0  0  0  0  0  0  0  0
  -30.4298  -26.4806   17.5241 O   0  0  0  0  0  0  0  0  0  0  0  0
  -33.5503  -23.1881   18.9180 O   0  0  0  0  0  0  0  0  0  0  0  0
  -29.0418  -20.4688   19.9026 O   0  0  0  0  0  0  0  0  0  0  0  0
  -26.1706   -9.0082   23.2397 O   0  0  0  0  0  0  0  0  0  0  0  0
  -31.8645  -23.9124   25.4743 O   0  0  0  0  0  0  0  0  0  1  0  0
  -27.3904  -19.6126   24.8109 O   0  0  0  0  0  0  0  0  0  0  0  0
  -23.2664   -4.6400   21.5403 F   0  0  0  0  0  0  0  0  0  0  0  0
  -27.4154   -6.8702   22.0060 F   0  0  0  0  0  0  0  0  0  0  0  0
  1  2  1  0  0  0  0
  1  5  2  0  0  0  0
  2  6  2  0  0  0  0
  3  8  2  0  0  0  0
  3 17  1  0  0  0  0
  4  9  1  0  0  0  0
  4 17  2  0  0  0  0
  5 19  1  0  0  0  0
  6 21  1  0  0  0  0
  7 10  2  0  0  0  0
  7 20  1  0  0  0  0
  8 24  1  0  0  0  0
  9 24  2  0  0  0  0
 10 25  1  0  0  0  0
 11 12  2  0  0  0  0
 11 26  1  0  0  0  0
 12 27  1  0  0  0  0
 13 16  2  0  0  0  0
 13 23  1  0  0  0  0
 14 22  1  0  0  0  0
 14 25  2  0  0  0  0
 15 27  2  0  0  0  0
 15 28  1  0  0  0  0
 16 64  1  0  0  0  0
 17 29  1  0  0  0  0
 18 29  1  0  0  0  0
 18 30  2  0  0  0  0
 18 32  1  0  0  0  0
 19 21  2  0  0  0  0
 19 37  1  0  0  0  0
 20 22  2  0  0  0  0
 20 38  1  0  0  0  0
 21 46  1  0  0  0  0
 22 39  1  0  0  0  0
 23 31  2  0  0  0  0
 23 70  1  0  0  0  0
 24 80  1  0  0  0  0
 25 81  1  0  0  0  0
 26 28  2  0  0  0  0
 26 80  1  0  0  0  0
 27 83  1  0  0  0  0
 28 84  1  0  0  0  0
 29 63  2  0  0  0  0
 30 65  1  0  0  0  0
 30 68  1  0  0  0  0
 31 64  1  0  0  0  0
 31 82  1  0  0  0  0
 32 69  1  0  0  0  0
 32 75  2  0  0  0  0
 33 47  1  0  0  0  0
 33 71  1  0  0  0  0
 33 76  2  0  0  0  0
 34 59  1  0  0  0  0
 34 66  1  0  0  0  0
 34 77  2  0  0  0  0
 35 60  1  0  0  0  0
 35 72  1  0  0  0  0
 35 78  2  0  0  0  0
 36 67  1  0  0  0  0
 36 70  1  0  0  0  0
 36 79  2  0  0  0  0
 37 40  1  0  0  0  0
 38 47  1  0  0  0  0
 39 66  1  0  0  0  0
 40 42  1  0  0  0  0
 41 43  1  0  0  0  0
 41 44  1  0  0  0  0
 42 46  1  0  0  0  0
 43 48  1  0  0  0  0
 44 67  1  0  0  0  0
 45 48  1  0  0  0  0
 45 67  1  0  0  0  0
 46 71  1  0  0  0  0
 47 66  1  0  0  0  0
 48 65  1  0  0  0  0
 49 60  1  0  0  0  0
 50 61  1  0  0  0  0
 51 62  1  0  0  0  0
 52 62  1  0  0  0  0
 53 62  1  0  0  0  0
 54 73  1  0  0  0  0
 55 82  1  0  0  0  0
 56 57  1  0  0  0  0
 56 64  1  0  0  0  0
 57 74  1  0  0  0  0
 58 61  1  0  0  0  0
 58 74  1  0  0  0  0
 59 62  1  0  0  0  0
 59 72  1  0  0  0  0
 60 73  1  0  0  0  0
 61 81  1  0  0  0  0
 63 65  1  0  0  0  0
M  CHG  2  73   1  74   1
M  ISO  4  36 100  61 101  70 100  81 101
M  END
> <Batch ID>
0121

> <Smiles>
CNC(C)C(=O)NC(C(=O)N1Cc2cc([101O:1][101CH:1](C)CNCCn3ccc([100NH:0][100C:0](=O)N4CCCC(n5nc(-c6ccc(Oc7ccc(F)cc7F)cc6)c(C(N)=O)c5N)C4)c3OC)ccc2CC1C(=O)NC1CCCc2ccccc21)C(C)(C)C

> <Shape>
0.208

> <Color>
0.072

> <Negative vol penalty>
0.000

$$$$
