
  -OEChem-04052320283D

 90 99  0     1  0  0  0  0  0999 V2000
  -30.6916  -25.8588   17.3272 C   0  0  0  0  0  0  0  0  0  0  0  0
  -29.3243  -25.6946   17.5248 C   0  0  0  0  0  0  0  0  0  0  0  0
  -29.5858  -20.2406   23.1170 C   0  0  0  0  0  0  0  0  0  0  0  0
  -30.6231  -18.5035   21.7966 C   0  0  0  0  0  0  0  0  0  0  0  0
  -31.4666  -26.4796   18.3059 C   0  0  0  0  0  0  0  0  0  0  0  0
  -28.7315  -26.1502   18.7019 C   0  0  0  0  0  0  0  0  0  0  0  0
  -23.1123  -28.5054   19.3215 C   0  0  0  0  0  0  0  0  0  0  0  0
  -30.4605  -21.1791   22.5697 C   0  0  0  0  0  0  0  0  0  0  0  0
  -31.4978  -19.4420   21.2491 C   0  0  0  0  0  0  0  0  0  0  0  0
  -21.9039  -27.9510   19.7413 C   0  0  0  0  0  0  0  0  0  0  0  0
  -31.4105  -21.8279   18.8574 C   0  0  0  0  0  0  0  0  0  0  0  0
  -31.6225  -21.7875   17.4794 C   0  0  0  0  0  0  0  0  0  0  0  0
  -22.3020  -28.7856   21.9693 C   0  0  0  0  0  0  0  0  0  0  0  0
  -17.7669  -22.5024   23.9243 C   0  0  0  0  0  0  0  0  0  0  0  0
  -33.9782  -21.4026   17.8531 C   0  0  0  0  0  0  0  0  0  0  0  0
  -29.6671  -18.9028   22.7305 C   0  0  0  0  0  0  0  0  0  0  0  0
  -28.6223  -17.5944   24.6551 C   0  0  0  0  0  0  0  0  0  0  0  0
  -30.8813  -26.9516   19.4914 C   0  0  0  0  0  0  0  0  0  0  0  0
  -23.9312  -29.1959   20.2266 C   0  0  0  0  0  0  0  0  0  0  0  0
  -29.4996  -26.7766   19.6980 C   0  0  0  0  0  0  0  0  0  0  0  0
  -23.5191  -29.3500   21.5579 C   0  0  0  0  0  0  0  0  0  0  0  0
  -17.8333  -21.1308   23.7064 C   0  0  0  0  0  0  0  0  0  0  0  0
  -17.6001  -20.6227   22.4333 C   0  0  0  0  0  0  0  0  0  0  0  0
  -31.4165  -20.7798   21.6357 C   0  0  0  0  0  0  0  0  0  0  0  0
  -21.5000  -28.0886   21.0660 C   0  0  0  0  0  0  0  0  0  0  0  0
  -32.4823  -21.6558   19.7333 C   0  0  0  0  0  0  0  0  0  0  0  0
  -32.9063  -21.5748   16.9772 C   0  0  0  0  0  0  0  0  0  0  0  0
  -33.7662  -21.4430   19.2312 C   0  0  0  0  0  0  0  0  0  0  0  0
  -28.7641  -17.9327   23.2960 C   0  0  0  0  0  0  0  0  0  0  0  0
  -17.4661  -23.3169   22.8445 C   0  0  0  0  0  0  0  0  0  0  0  0
  -17.3066  -21.5213   21.4203 C   0  0  0  0  0  0  0  0  0  0  0  0
  -27.6435  -16.6309   24.6688 C   0  0  0  0  0  0  0  0  0  0  0  0
  -29.3134  -18.1054   25.8027 C   0  0  0  0  0  0  0  0  0  0  0  0
  -26.8756  -28.7850   21.3514 C   0  0  0  0  0  0  0  0  0  0  0  0
  -26.3251  -31.6615   22.7460 C   0  0  0  0  0  0  0  0  0  0  0  0
  -24.0567  -33.9332   23.9039 C   0  0  0  0  0  0  0  0  0  0  0  0
  -23.1324  -15.3482   20.9464 C   0  0  0  0  0  0  0  0  0  0  0  0
  -31.7678  -27.5737   20.5410 C   0  0  0  0  0  0  0  0  0  0  0  0
  -25.2190  -29.8110   19.7517 C   0  0  0  0  0  0  0  0  0  0  0  0
  -24.3522  -30.0995   22.5642 C   0  0  0  0  0  0  0  0  0  0  0  0
  -30.9992  -28.3639   21.5970 C   0  0  0  0  0  0  0  0  0  0  0  0
  -25.7598  -13.1683   21.9571 C   0  0  0  0  0  0  0  0  0  0  0  0
  -29.7984  -27.5646   22.0929 C   0  0  0  0  0  0  0  0  0  0  0  0
  -26.8149  -14.1116   22.5375 C   0  0  0  0  0  0  0  0  0  0  0  0
  -20.5623  -16.6768   22.4887 C   0  0  0  0  0  0  0  0  0  0  0  0
  -21.2100  -18.5082   20.8804 C   0  0  0  0  0  0  0  0  0  0  0  0
  -25.0474  -13.7883   20.7571 C   0  0  0  0  0  0  0  0  0  0  0  0
  -25.5156  -16.0618   21.5850 C   0  0  0  0  0  0  0  0  0  0  0  0
  -19.1133  -17.1416   22.4243 C   0  0  0  0  0  0  0  0  0  0  0  0
  -19.7579  -18.9645   20.8254 C   0  0  0  0  0  0  0  0  0  0  0  0
  -28.8157  -27.2796   20.9507 C   0  0  1  0  0  0  0  0  0  0  0  0
  -26.2181  -30.0509   20.8794 C   0  0  1  0  0  0  0  0  0  0  0  0
  -26.2222  -15.5028   22.8318 C   0  0  2  0  0  0  0  0  0  0  0  0
  -21.3191  -17.0182   21.2046 C   0  0  0  0  0  0  0  0  0  0  0  0
  -18.1528  -20.2284   24.8522 C   0  0  0  0  0  0  0  0  0  0  0  0
  -17.0482  -21.0356   20.0314 C   0  0  0  0  0  0  0  0  0  0  0  0
  -23.9087  -36.1734   25.0249 C   0  0  0  0  0  0  0  0  0  0  0  0
  -27.0945  -30.3789   25.4054 C   0  0  0  0  0  0  0  0  0  0  0  0
  -26.0353  -32.3252   26.5709 C   0  0  0  0  0  0  0  0  0  0  0  0
  -27.9895  -32.6890   25.0638 C   0  0  0  0  0  0  0  0  0  0  0  0
  -22.5923  -35.1102   21.6171 C   0  0  0  0  0  0  0  0  0  0  0  0
  -17.6670  -19.1560   22.1692 C   0  0  0  0  0  0  0  0  0  0  0  0
  -17.3869  -24.8096   23.0431 C   0  0  0  0  0  0  0  0  0  0  0  0
  -18.7206  -25.5342   22.8297 C   0  0  0  0  0  0  0  0  0  0  0  0
  -18.6379  -27.0353   23.1104 C   0  0  0  0  0  0  0  0  0  0  0  0
  -19.9692  -27.7268   22.8498 C   0  0  0  0  0  0  0  0  0  1  0  0
  -25.7402  -32.1178   24.0608 C   0  0  1  0  0  0  0  0  0  0  0  0
  -23.9370  -35.4323   23.6972 C   0  0  2  0  0  0  0  0  0  0  0  0
  -26.6999  -31.8619   25.2570 C   0  0  0  0  0  0  0  0  0  0  0  0
  -27.9415  -17.2403   22.5037 N   0  0  0  0  0  0  0  0  0  0  0  0
  -17.2334  -22.8600   21.5936 N   0  0  0  0  0  0  0  0  0  0  0  0
  -27.2733  -16.4572   23.3676 N   0  0  0  0  0  0  0  0  0  0  0  0
  -25.6061  -30.6774   22.0530 N   0  0  0  0  0  0  0  0  0  0  0  0
  -24.5070  -15.1051   21.1031 N   0  0  0  0  0  0  0  0  0  0  0  0
  -27.0722  -15.9237   25.6667 N   0  0  0  0  0  0  0  0  0  0  0  0
  -30.4942  -17.4695   26.2095 N   0  0  0  0  0  0  0  0  0  0  0  0
  -28.0252  -28.4561   20.6587 N   0  0  0  0  0  0  0  0  0  0  0  0
  -25.3712  -33.5176   23.8796 N   0  0  0  0  0  0  0  0  0  0  0  0
  -22.7020  -16.6202   21.3034 N   0  0  0  0  0  0  0  0  0  0  0  0
  -19.0720  -18.6210   22.1256 N   0  3  0  0  0  0  0  0  0  0  0  0
  -22.6870  -35.7544   22.9524 N   0  3  0  0  0  0  0  0  0  0  0  0
  -28.8873  -19.0865   26.4580 O   0  0  0  0  0  0  0  0  0  0  0  0
  -26.3777  -28.1542   22.2765 O   0  0  0  0  0  0  0  0  0  0  0  0
  -27.3774  -32.1651   22.3450 O   0  0  0  0  0  0  0  0  0  0  0  0
  -23.0818  -33.2043   24.0739 O   0  0  0  0  0  0  0  0  0  0  0  0
  -22.3461  -14.4932   20.5250 O   0  0  0  0  0  0  0  0  0  0  0  0
  -32.2701  -21.6954   21.1012 O   0  0  0  0  0  0  0  0  0  0  0  0
  -20.3213  -27.5478   21.4786 O   0  0  0  0  0  0  0  0  0  1  0  0
  -33.1095  -21.5344   15.6539 F   0  0  0  0  0  0  0  0  0  0  0  0
  -34.7996  -21.2758   20.0677 F   0  0  0  0  0  0  0  0  0  0  0  0
  1  2  1  0  0  0  0
  1  5  2  0  0  0  0
  2  6  2  0  0  0  0
  3  8  2  0  0  0  0
  3 16  1  0  0  0  0
  4  9  1  0  0  0  0
  4 16  2  0  0  0  0
  5 18  1  0  0  0  0
  6 20  1  0  0  0  0
  7 10  2  0  0  0  0
  7 19  1  0  0  0  0
  8 24  1  0  0  0  0
  9 24  2  0  0  0  0
 10 25  1  0  0  0  0
 11 12  2  0  0  0  0
 11 26  1  0  0  0  0
 12 27  1  0  0  0  0
 13 21  1  0  0  0  0
 13 25  2  0  0  0  0
 14 22  2  0  0  0  0
 14 30  1  0  0  0  0
 15 27  2  0  0  0  0
 15 28  1  0  0  0  0
 16 29  1  0  0  0  0
 17 29  1  0  0  0  0
 17 32  2  0  0  0  0
 17 33  1  0  0  0  0
 18 20  2  0  0  0  0
 18 38  1  0  0  0  0
 19 21  2  0  0  0  0
 19 39  1  0  0  0  0
 20 51  1  0  0  0  0
 21 40  1  0  0  0  0
 22 23  1  0  0  0  0
 22 55  1  0  0  0  0
 23 31  2  0  0  0  0
 23 62  1  0  0  0  0
 24 87  1  0  0  0  0
 25 88  1  0  0  0  0
 26 28  2  0  0  0  0
 26 87  1  0  0  0  0
 27 89  1  0  0  0  0
 28 90  1  0  0  0  0
 29 70  2  0  0  0  0
 30 63  1  0  0  0  0
 30 71  2  0  0  0  0
 31 56  1  0  0  0  0
 31 71  1  0  0  0  0
 32 72  1  0  0  0  0
 32 75  1  0  0  0  0
 33 76  1  0  0  0  0
 33 82  2  0  0  0  0
 34 52  1  0  0  0  0
 34 77  1  0  0  0  0
 34 83  2  0  0  0  0
 35 67  1  0  0  0  0
 35 73  1  0  0  0  0
 35 84  2  0  0  0  0
 36 68  1  0  0  0  0
 36 78  1  0  0  0  0
 36 85  2  0  0  0  0
 37 74  1  0  0  0  0
 37 79  1  0  0  0  0
 37 86  2  0  0  0  0
 38 41  1  0  0  0  0
 39 52  1  0  0  0  0
 40 73  1  0  0  0  0
 41 43  1  0  0  0  0
 42 44  1  0  0  0  0
 42 47  1  0  0  0  0
 43 51  1  0  0  0  0
 44 53  1  0  0  0  0
 45 49  1  0  0  0  0
 45 54  1  0  0  0  0
 46 50  1  0  0  0  0
 46 54  1  0  0  0  0
 47 74  1  0  0  0  0
 48 53  1  0  0  0  0
 48 74  1  0  0  0  0
 49 80  1  0  0  0  0
 50 80  1  0  0  0  0
 51 77  1  0  0  0  0
 52 73  1  0  0  0  0
 53 72  1  0  0  0  0
 54 79  1  0  0  0  0
 57 68  1  0  0  0  0
 58 69  1  0  0  0  0
 59 69  1  0  0  0  0
 60 69  1  0  0  0  0
 61 81  1  0  0  0  0
 62 80  1  0  0  0  0
 63 64  1  0  0  0  0
 64 65  1  0  0  0  0
 65 66  1  0  0  0  0
 66 88  1  0  0  0  0
 67 69  1  0  0  0  0
 67 78  1  0  0  0  0
 68 81  1  0  0  0  0
 70 72  1  0  0  0  0
M  CHG  2  80   1  81   1
M  ISO  4  37 100  66 101  79 100  88 101
M  END
> <Batch ID>
0122

> <Smiles>
CNC(C)C(=O)NC(C(=O)N1Cc2cc([101O:1][101CH2:1]CCCc3cc(C)c(CN4CCC([100NH:0][100C:0](=O)N5CCCC(n6nc(-c7ccc(Oc8ccc(F)cc8F)cc7)c(C(N)=O)c6N)C5)CC4)c(C)n3)ccc2CC1C(=O)NC1CCCc2ccccc21)C(C)(C)C

> <Shape>
0.227

> <Color>
0.067

> <Negative vol penalty>
0.000

$$$$

  -OEChem-04052320283D

 84 92  0     1  0  0  0  0  0999 V2000
  -25.4899  -34.9342   24.1961 C   0  0  0  0  0  0  0  0  0  0  0  0
  -26.1306  -33.7696   23.7858 C   0  0  0  0  0  0  0  0  0  0  0  0
  -20.1335  -16.8762   22.1819 C   0  0  0  0  0  0  0  0  0  0  0  0
  -20.6148  -18.5428   20.5003 C   0  0  0  0  0  0  0  0  0  0  0  0
  -24.1917  -34.8735   24.7010 C   0  0  0  0  0  0  0  0  0  0  0  0
  -25.4738  -32.5432   23.8811 C   0  0  0  0  0  0  0  0  0  0  0  0
  -26.0248  -29.7155   19.7163 C   0  0  0  0  0  0  0  0  0  0  0  0
  -29.9343  -21.2518   21.3749 C   0  0  0  0  0  0  0  0  0  0  0  0
  -18.7980  -17.2785   22.1984 C   0  0  0  0  0  0  0  0  0  0  0  0
  -19.2793  -18.9451   20.5167 C   0  0  0  0  0  0  0  0  0  0  0  0
  -27.2371  -29.0456   19.5573 C   0  0  0  0  0  0  0  0  0  0  0  0
  -16.0340  -16.8171   20.3063 C   0  0  0  0  0  0  0  0  0  0  0  0
  -15.0569  -15.8218   20.2927 C   0  0  0  0  0  0  0  0  0  0  0  0
  -30.8341  -21.7651   20.4474 C   0  0  0  0  0  0  0  0  0  0  0  0
  -26.2115  -27.0127   20.3539 C   0  0  0  0  0  0  0  0  0  0  0  0
  -14.2070  -16.6272   22.4060 C   0  0  0  0  0  0  0  0  0  0  0  0
  -21.0419  -17.5084   21.3329 C   0  0  0  0  0  0  0  0  0  0  0  0
  -23.0017  -16.1036   20.5004 C   0  0  0  0  0  0  0  0  0  0  0  0
  -23.5151  -33.6470   24.7936 C   0  0  0  0  0  0  0  0  0  0  0  0
  -24.8976  -29.0405   20.2064 C   0  0  0  0  0  0  0  0  0  0  0  0
  -24.1658  -32.4658   24.3889 C   0  0  0  0  0  0  0  0  0  0  0  0
  -24.9853  -27.6756   20.5158 C   0  0  0  0  0  0  0  0  0  0  0  0
  -28.5676  -21.3604   21.1431 C   0  0  0  0  0  0  0  0  0  0  0  0
  -18.3709  -18.3130   21.3658 C   0  0  0  0  0  0  0  0  0  0  0  0
  -27.3314  -27.6948   19.8788 C   0  0  0  0  0  0  0  0  0  0  0  0
  -16.0977  -17.7175   21.3698 C   0  0  0  0  0  0  0  0  0  0  0  0
  -14.1434  -15.7268   21.3425 C   0  0  0  0  0  0  0  0  0  0  0  0
  -15.1842  -17.6225   22.4196 C   0  0  0  0  0  0  0  0  0  0  0  0
  -22.4217  -17.0937   21.3159 C   0  0  0  0  0  0  0  0  0  0  0  0
  -30.3204  -22.3727   19.3131 C   0  0  0  0  0  0  0  0  0  0  0  0
  -28.1554  -21.9863   19.9777 C   0  0  0  0  0  0  0  0  0  0  0  0
  -24.3258  -16.0905   20.8653 C   0  0  0  0  0  0  0  0  0  0  0  0
  -22.3977  -15.2702   19.5022 C   0  0  0  0  0  0  0  0  0  0  0  0
  -23.0421  -29.3404   22.7698 C   0  0  0  0  0  0  0  0  0  0  0  0
  -21.2943  -27.0416   21.2921 C   0  0  0  0  0  0  0  0  0  0  0  0
  -21.1983  -24.4592   19.0631 C   0  0  0  0  0  0  0  0  0  0  0  0
  -27.9342  -20.1935   23.2840 C   0  0  0  0  0  0  0  0  0  0  0  0
  -22.1300  -33.6253   25.3900 C   0  0  0  0  0  0  0  0  0  0  0  0
  -23.5902  -29.7708   20.3469 C   0  0  0  0  0  0  0  0  0  0  0  0
  -23.7993  -26.9004   21.0263 C   0  0  0  0  0  0  0  0  0  0  0  0
  -21.3660  -32.3340   25.1087 C   0  0  0  0  0  0  0  0  0  0  0  0
  -27.1894  -16.9707   24.6015 C   0  0  0  0  0  0  0  0  0  0  0  0
  -22.2515  -31.1209   25.3750 C   0  0  0  0  0  0  0  0  0  0  0  0
  -25.9385  -16.5438   23.8299 C   0  0  0  0  0  0  0  0  0  0  0  0
  -27.1841  -18.4676   24.9068 C   0  0  0  0  0  0  0  0  0  0  0  0
  -25.7268  -18.9111   22.9706 C   0  0  0  0  0  0  0  0  0  0  0  0
  -23.4773  -31.1198   24.4536 C   0  0  1  0  0  0  0  0  0  0  0  0
  -22.6401  -29.1095   21.3405 C   0  0  1  0  0  0  0  0  0  0  0  0
  -25.7178  -17.4232   22.5835 C   0  0  2  0  0  0  0  0  0  0  0  0
  -26.7000  -22.1336   19.6722 C   0  0  0  0  0  0  0  0  0  0  0  0
  -19.6374  -22.7485   18.0963 C   0  0  0  0  0  0  0  0  0  0  0  0
  -28.6601  -27.4367   17.3521 C   0  0  0  0  0  0  0  0  0  0  0  0
  -21.4775  -25.4207   23.8707 C   0  0  0  0  0  0  0  0  0  0  0  0
  -20.7619  -23.4037   22.5715 C   0  0  0  0  0  0  0  0  0  0  0  0
  -19.2362  -25.3681   22.7624 C   0  0  0  0  0  0  0  0  0  0  0  0
  -21.5522  -25.5162   16.3215 C   0  0  0  0  0  0  0  0  0  0  0  0
  -31.2628  -22.9382   18.2902 C   0  0  0  0  0  0  0  0  0  0  0  0
  -31.6347  -24.3972   18.5344 C   0  0  0  0  0  0  0  0  0  0  0  0
  -30.6777  -26.6953   18.7389 C   0  0  0  0  0  0  0  0  0  0  0  0
  -21.2907  -25.5320   21.2980 C   0  0  1  0  0  0  0  0  0  0  0  0
  -20.2348  -24.1377   17.9349 C   0  0  2  0  0  0  0  0  0  0  0  0
  -29.3827  -27.4996   18.6914 C   0  0  2  0  0  0  0  0  0  1  0  0
  -20.7146  -24.9459   22.6179 C   0  0  0  0  0  0  0  0  0  0  0  0
  -23.3049  -17.6679   22.1370 N   0  0  0  0  0  0  0  0  0  0  0  0
  -28.9995  -22.4970   19.0534 N   0  0  0  0  0  0  0  0  0  0  0  0
  -24.4533  -17.0365   21.8394 N   0  0  0  0  0  0  0  0  0  0  0  0
  -22.5447  -27.6604   21.1526 N   0  0  0  0  0  0  0  0  0  0  0  0
  -26.9745  -19.2375   23.6787 N   0  0  0  0  0  0  0  0  0  0  0  0
  -25.3818  -15.3622   20.4447 N   0  0  0  0  0  0  0  0  0  0  0  0
  -21.0260  -15.4137   19.2528 N   0  0  0  0  0  0  0  0  0  0  0  0
  -27.6438  -20.8401   22.0830 N   0  0  0  0  0  0  0  0  0  0  0  0
  -23.1115  -30.6736   23.1263 N   0  0  0  0  0  0  0  0  0  0  0  0
  -20.5709  -25.1209   20.0975 N   0  0  0  0  0  0  0  0  0  0  0  0
  -20.9365  -24.1978   16.6215 N   0  3  0  0  0  0  0  0  0  0  0  0
  -30.4254  -25.2607   18.4544 N   0  3  0  0  0  0  0  0  0  0  0  0
  -23.0516  -14.4120   18.8623 O   0  0  0  0  0  0  0  0  0  0  0  0
  -23.2708  -28.3800   23.4958 O   0  0  0  0  0  0  0  0  0  0  0  0
  -20.2263  -27.6494   21.4000 O   0  0  0  0  0  0  0  0  0  0  0  0
  -22.3875  -24.1507   19.0317 O   0  0  0  0  0  0  0  0  0  0  0  0
  -28.9530  -20.4025   23.9475 O   0  0  0  0  0  0  0  0  0  0  0  0
  -17.0678  -18.7056   21.3814 O   0  0  0  0  0  0  0  0  0  0  0  0
  -28.5137  -27.0387   19.7252 O   0  0  0  0  0  0  0  0  0  1  0  0
  -13.2042  -14.7719   21.3286 F   0  0  0  0  0  0  0  0  0  0  0  0
  -15.2396  -18.4854   23.4435 F   0  0  0  0  0  0  0  0  0  0  0  0
  1  2  1  0  0  0  0
  1  5  2  0  0  0  0
  2  6  2  0  0  0  0
  3  9  2  0  0  0  0
  3 17  1  0  0  0  0
  4 10  1  0  0  0  0
  4 17  2  0  0  0  0
  5 19  1  0  0  0  0
  6 21  1  0  0  0  0
  7 11  2  0  0  0  0
  7 20  1  0  0  0  0
  8 14  2  0  0  0  0
  8 23  1  0  0  0  0
  9 24  1  0  0  0  0
 10 24  2  0  0  0  0
 11 25  1  0  0  0  0
 12 13  2  0  0  0  0
 12 26  1  0  0  0  0
 13 27  1  0  0  0  0
 14 30  1  0  0  0  0
 15 22  1  0  0  0  0
 15 25  2  0  0  0  0
 16 27  2  0  0  0  0
 16 28  1  0  0  0  0
 17 29  1  0  0  0  0
 18 29  1  0  0  0  0
 18 32  2  0  0  0  0
 18 33  1  0  0  0  0
 19 21  2  0  0  0  0
 19 38  1  0  0  0  0
 20 22  2  0  0  0  0
 20 39  1  0  0  0  0
 21 47  1  0  0  0  0
 22 40  1  0  0  0  0
 23 31  2  0  0  0  0
 23 71  1  0  0  0  0
 24 81  1  0  0  0  0
 25 82  1  0  0  0  0
 26 28  2  0  0  0  0
 26 81  1  0  0  0  0
 27 83  1  0  0  0  0
 28 84  1  0  0  0  0
 29 64  2  0  0  0  0
 30 57  1  0  0  0  0
 30 65  2  0  0  0  0
 31 50  1  0  0  0  0
 31 65  1  0  0  0  0
 32 66  1  0  0  0  0
 32 69  1  0  0  0  0
 33 70  1  0  0  0  0
 33 76  2  0  0  0  0
 34 48  1  0  0  0  0
 34 72  1  0  0  0  0
 34 77  2  0  0  0  0
 35 60  1  0  0  0  0
 35 67  1  0  0  0  0
 35 78  2  0  0  0  0
 36 61  1  0  0  0  0
 36 73  1  0  0  0  0
 36 79  2  0  0  0  0
 37 68  1  0  0  0  0
 37 71  1  0  0  0  0
 37 80  2  0  0  0  0
 38 41  1  0  0  0  0
 39 48  1  0  0  0  0
 40 67  1  0  0  0  0
 41 43  1  0  0  0  0
 42 44  1  0  0  0  0
 42 45  1  0  0  0  0
 43 47  1  0  0  0  0
 44 49  1  0  0  0  0
 45 68  1  0  0  0  0
 46 49  1  0  0  0  0
 46 68  1  0  0  0  0
 47 72  1  0  0  0  0
 48 67  1  0  0  0  0
 49 66  1  0  0  0  0
 51 61  1  0  0  0  0
 52 62  1  0  0  0  0
 53 63  1  0  0  0  0
 54 63  1  0  0  0  0
 55 63  1  0  0  0  0
 56 74  1  0  0  0  0
 57 58  1  0  0  0  0
 58 75  1  0  0  0  0
 59 62  1  0  0  0  0
 59 75  1  0  0  0  0
 60 63  1  0  0  0  0
 60 73  1  0  0  0  0
 61 74  1  0  0  0  0
 62 82  1  0  0  0  0
 64 66  1  0  0  0  0
M  CHG  2  74   1  75   1
M  ISO  4  37 100  62 101  71 100  82 101
M  END
> <Batch ID>
0122

> <Smiles>
CNC(C)C(=O)NC(C(=O)N1Cc2cc([101O:1][101CH:1](C)CNCCc3ccc([100NH:0][100C:0](=O)N4CCCC(n5nc(-c6ccc(Oc7ccc(F)cc7F)cc6)c(C(N)=O)c5N)C4)c(C)n3)ccc2CC1C(=O)NC1CCCc2ccccc21)C(C)(C)C

> <Shape>
0.179

> <Color>
0.103

> <Negative vol penalty>
0.000

$$$$

  -OEChem-04052320283D

 88 97  0     1  0  0  0  0  0999 V2000
  -15.1814  -26.6229   24.1492 C   0  0  0  0  0  0  0  0  0  0  0  0
  -15.7699  -26.0424   23.0303 C   0  0  0  0  0  0  0  0  0  0  0  0
  -25.2529  -13.6170   21.5277 C   0  0  0  0  0  0  0  0  0  0  0  0
  -26.6399  -13.1966   19.5946 C   0  0  0  0  0  0  0  0  0  0  0  0
  -15.6487  -27.8472   24.6251 C   0  0  0  0  0  0  0  0  0  0  0  0
  -16.8255  -26.6865   22.3859 C   0  0  0  0  0  0  0  0  0  0  0  0
  -21.6283  -24.0489   19.6505 C   0  0  0  0  0  0  0  0  0  0  0  0
  -24.3758  -12.6134   21.1166 C   0  0  0  0  0  0  0  0  0  0  0  0
  -25.7628  -12.1929   19.1836 C   0  0  0  0  0  0  0  0  0  0  0  0
  -21.9017  -23.7529   18.3158 C   0  0  0  0  0  0  0  0  0  0  0  0
  -24.2424   -9.2357   21.1956 C   0  0  0  0  0  0  0  0  0  0  0  0
  -23.7930   -8.3329   22.1592 C   0  0  0  0  0  0  0  0  0  0  0  0
  -23.1508  -25.8075   18.1223 C   0  0  0  0  0  0  0  0  0  0  0  0
  -27.5857  -23.1502   15.6311 C   0  0  0  0  0  0  0  0  0  0  0  0
  -21.5139   -9.0113   21.7320 C   0  0  0  0  0  0  0  0  0  0  0  0
  -26.3850  -13.9087   20.7666 C   0  0  0  0  0  0  0  0  0  0  0  0
  -28.4144  -14.8034   22.0270 C   0  0  0  0  0  0  0  0  0  0  0  0
  -16.7169  -28.5020   23.9920 C   0  0  0  0  0  0  0  0  0  0  0  0
  -22.1058  -25.2337   20.2290 C   0  0  0  0  0  0  0  0  0  0  0  0
  -17.3067  -27.9214   22.8529 C   0  0  0  0  0  0  0  0  0  0  0  0
  -22.8843  -26.1150   19.4652 C   0  0  0  0  0  0  0  0  0  0  0  0
  -27.1065  -24.2979   14.9528 C   0  0  0  0  0  0  0  0  0  0  0  0
  -24.6307  -11.9014   19.9446 C   0  0  0  0  0  0  0  0  0  0  0  0
  -22.6605  -24.6336   17.5507 C   0  0  0  0  0  0  0  0  0  0  0  0
  -23.3275  -10.0265   20.5002 C   0  0  0  0  0  0  0  0  0  0  0  0
  -22.4288   -8.2206   22.4274 C   0  0  0  0  0  0  0  0  0  0  0  0
  -21.9633   -9.9142   20.7685 C   0  0  0  0  0  0  0  0  0  0  0  0
  -27.2911  -14.9457   21.1904 C   0  0  0  0  0  0  0  0  0  0  0  0
  -28.6298  -23.5529   16.4341 C   0  0  0  0  0  0  0  0  0  0  0  0
  -27.8726  -25.3671   15.3618 C   0  0  0  0  0  0  0  0  0  0  0  0
  -28.9338  -16.0713   22.1229 C   0  0  0  0  0  0  0  0  0  0  0  0
  -28.9411  -13.6302   22.6608 C   0  0  0  0  0  0  0  0  0  0  0  0
  -20.7522  -27.8019   21.5236 C   0  0  0  0  0  0  0  0  0  0  0  0
  -23.8198  -28.5782   22.2375 C   0  0  0  0  0  0  0  0  0  0  0  0
  -27.1382  -28.2320   21.5195 C   0  0  0  0  0  0  0  0  0  0  0  0
  -28.6613  -20.7186   18.4920 C   0  0  0  0  0  0  0  0  0  0  0  0
  -17.1564  -29.8467   24.5147 C   0  0  0  0  0  0  0  0  0  0  0  0
  -21.8247  -25.5254   21.6776 C   0  0  0  0  0  0  0  0  0  0  0  0
  -23.4374  -27.3904   20.0448 C   0  0  0  0  0  0  0  0  0  0  0  0
  -18.5251  -30.2832   23.9984 C   0  0  0  0  0  0  0  0  0  0  0  0
  -27.6313  -20.6740   21.9611 C   0  0  0  0  0  0  0  0  0  0  0  0
  -18.6229  -30.0623   22.4923 C   0  0  0  0  0  0  0  0  0  0  0  0
  -27.5358  -19.1712   22.2307 C   0  0  0  0  0  0  0  0  0  0  0  0
  -29.8247  -25.7445   18.4910 C   0  0  0  0  0  0  0  0  0  0  0  0
  -27.1566  -21.0140   20.5514 C   0  0  0  0  0  0  0  0  0  0  0  0
  -27.7674  -18.7701   19.7356 C   0  0  0  0  0  0  0  0  0  0  0  0
  -31.1514  -26.3778   18.8580 C   0  0  0  0  0  0  0  0  0  0  0  0
  -31.2773  -25.3226   16.6652 C   0  0  0  0  0  0  0  0  0  0  0  0
  -18.4702  -28.5773   22.1415 C   0  0  1  0  0  0  0  0  0  0  0  0
  -21.9282  -27.0087   22.0193 C   0  0  1  0  0  0  0  0  0  0  0  0
  -28.2544  -18.3589   21.1370 C   0  0  2  0  0  0  0  0  0  0  0  0
  -29.8382  -25.7491   16.9597 C   0  0  1  0  0  0  0  0  0  0  0  0
  -27.8049  -26.7919   14.9723 C   0  0  0  0  0  0  0  0  0  0  0  0
  -27.4921  -23.8882   11.9536 C   0  0  0  0  0  0  0  0  0  0  0  0
  -29.4050  -29.0199   22.2530 C   0  0  0  0  0  0  0  0  0  0  0  0
  -23.3276  -31.2606   20.8692 C   0  0  0  0  0  0  0  0  0  0  0  0
  -25.8075  -31.5943   20.7860 C   0  0  0  0  0  0  0  0  0  0  0  0
  -24.6504  -31.3971   22.9872 C   0  0  0  0  0  0  0  0  0  0  0  0
  -28.0051  -25.4827   22.1891 C   0  0  0  0  0  0  0  0  0  0  0  0
  -29.4798  -22.7630   17.3486 C   0  0  0  0  0  0  0  0  0  0  0  0
  -26.2391  -23.4650   12.7116 C   0  0  0  0  0  0  0  0  0  0  0  0
  -24.6200  -23.9063   14.6026 C   0  0  0  0  0  0  0  0  0  0  0  0
  -24.1536  -24.8453   15.7116 C   0  0  0  0  0  0  0  0  0  1  0  0
  -25.9567  -24.3342   13.9582 C   0  0  1  0  0  0  0  0  0  0  0  0
  -24.9195  -29.3417   21.5398 C   0  0  1  0  0  0  0  0  0  0  0  0
  -28.3366  -27.9487   22.4071 C   0  0  2  0  0  0  0  0  0  0  0  0
  -24.6644  -30.8754   21.5338 C   0  0  0  0  0  0  0  0  0  0  0  0
  -27.1071  -16.2046   20.7839 N   0  0  0  0  0  0  0  0  0  0  0  0
  -28.7955  -24.9024   16.2620 N   0  0  0  0  0  0  0  0  0  0  0  0
  -28.1216  -16.8650   21.3676 N   0  0  0  0  0  0  0  0  0  0  0  0
  -23.1299  -27.6342   21.4637 N   0  0  0  0  0  0  0  0  0  0  0  0
  -27.8927  -20.2205   19.5572 N   0  0  0  0  0  0  0  0  0  0  0  0
  -30.0015  -16.5735   22.7789 N   0  0  0  0  0  0  0  0  0  0  0  0
  -28.2849  -12.4087   22.4565 N   0  0  0  0  0  0  0  0  0  0  0  0
  -19.6992  -27.8642   22.4162 N   0  0  0  0  0  0  0  0  0  0  0  0
  -26.1655  -28.9458   22.1871 N   0  0  0  0  0  0  0  0  0  0  0  0
  -28.7232  -22.1029   18.3892 N   0  0  0  0  0  0  0  0  0  0  0  0
  -32.0852  -25.9245   17.7782 N   0  3  0  0  0  0  0  0  0  0  0  0
  -28.9389  -26.6307   22.0591 N   0  3  0  0  0  0  0  0  0  0  0  0
  -29.9540  -13.6668   23.3999 O   0  0  0  0  0  0  0  0  0  0  0  0
  -20.7976  -28.3203   20.4142 O   0  0  0  0  0  0  0  0  0  0  0  0
  -23.5865  -28.8058   23.4272 O   0  0  0  0  0  0  0  0  0  0  0  0
  -27.0731  -27.8608   20.3497 O   0  0  0  0  0  0  0  0  0  0  0  0
  -29.2535  -19.9838   17.6942 O   0  0  0  0  0  0  0  0  0  0  0  0
  -23.7751  -10.9218   19.5433 O   0  0  0  0  0  0  0  0  0  0  0  0
  -22.9283  -24.3474   16.2475 O   0  0  0  0  0  0  0  0  0  1  0  0
  -21.9973   -7.3525   23.3517 F   0  0  0  0  0  0  0  0  0  0  0  0
  -21.0795  -10.6704   20.1028 F   0  0  0  0  0  0  0  0  0  0  0  0
  1  2  1  0  0  0  0
  1  5  2  0  0  0  0
  2  6  2  0  0  0  0
  3  8  2  0  0  0  0
  3 16  1  0  0  0  0
  4  9  1  0  0  0  0
  4 16  2  0  0  0  0
  5 18  1  0  0  0  0
  6 20  1  0  0  0  0
  7 10  2  0  0  0  0
  7 19  1  0  0  0  0
  8 23  1  0  0  0  0
  9 23  2  0  0  0  0
 10 24  1  0  0  0  0
 11 12  2  0  0  0  0
 11 25  1  0  0  0  0
 12 26  1  0  0  0  0
 13 21  1  0  0  0  0
 13 24  2  0  0  0  0
 14 22  1  0  0  0  0
 14 29  2  0  0  0  0
 15 26  2  0  0  0  0
 15 27  1  0  0  0  0
 16 28  1  0  0  0  0
 17 28  1  0  0  0  0
 17 31  2  0  0  0  0
 17 32  1  0  0  0  0
 18 20  2  0  0  0  0
 18 37  1  0  0  0  0
 19 21  2  0  0  0  0
 19 38  1  0  0  0  0
 20 49  1  0  0  0  0
 21 39  1  0  0  0  0
 22 30  2  0  0  0  0
 22 64  1  0  0  0  0
 23 85  1  0  0  0  0
 24 86  1  0  0  0  0
 25 27  2  0  0  0  0
 25 85  1  0  0  0  0
 26 87  1  0  0  0  0
 27 88  1  0  0  0  0
 28 68  2  0  0  0  0
 29 60  1  0  0  0  0
 29 69  1  0  0  0  0
 30 53  1  0  0  0  0
 30 69  1  0  0  0  0
 31 70  1  0  0  0  0
 31 73  1  0  0  0  0
 32 74  1  0  0  0  0
 32 80  2  0  0  0  0
 33 50  1  0  0  0  0
 33 75  1  0  0  0  0
 33 81  2  0  0  0  0
 34 65  1  0  0  0  0
 34 71  1  0  0  0  0
 34 82  2  0  0  0  0
 35 66  1  0  0  0  0
 35 76  1  0  0  0  0
 35 83  2  0  0  0  0
 36 72  1  0  0  0  0
 36 77  1  0  0  0  0
 36 84  2  0  0  0  0
 37 40  1  0  0  0  0
 38 50  1  0  0  0  0
 39 71  1  0  0  0  0
 40 42  1  0  0  0  0
 41 43  1  0  0  0  0
 41 45  1  0  0  0  0
 42 49  1  0  0  0  0
 43 51  1  0  0  0  0
 44 47  1  0  0  0  0
 44 52  1  0  0  0  0
 45 72  1  0  0  0  0
 46 51  1  0  0  0  0
 46 72  1  0  0  0  0
 47 78  1  0  0  0  0
 48 52  1  0  0  0  0
 48 78  1  0  0  0  0
 49 75  1  0  0  0  0
 50 71  1  0  0  0  0
 51 70  1  0  0  0  0
 52 69  1  0  0  0  0
 54 61  1  0  0  0  0
 55 66  1  0  0  0  0
 56 67  1  0  0  0  0
 57 67  1  0  0  0  0
 58 67  1  0  0  0  0
 59 79  1  0  0  0  0
 60 77  1  0  0  0  0
 61 64  1  0  0  0  0
 62 63  1  0  0  0  0
 62 64  1  0  0  0  0
 63 86  1  0  0  0  0
 65 67  1  0  0  0  0
 65 76  1  0  0  0  0
 66 79  1  0  0  0  0
 68 70  1  0  0  0  0
M  CHG  2  78   1  79   1
M  ISO  4  36 100  63 101  77 100  86 101
M  END
> <Batch ID>
0122

> <Smiles>
CCC(C[101CH2:1][101O:1]c1ccc2c(c1)CN(C(=O)C(NC(=O)C(C)NC)C(C)(C)C)C(C(=O)NC1CCCc3ccccc31)C2)c1cc(C[100NH:0][100C:0](=O)N2CCCC(n3nc(-c4ccc(Oc5ccc(F)cc5F)cc4)c(C(N)=O)c3N)C2)n(C2CCNC2)c1C

> <Shape>
0.273

> <Color>
0.067

> <Negative vol penalty>
0.000

$$$$

  -OEChem-04052320283D

 85 94  0     1  0  0  0  0  0999 V2000
  -27.2829  -21.7152   18.9522 C   0  0  0  0  0  0  0  0  0  0  0  0
  -26.3412  -22.7384   18.9119 C   0  0  0  0  0  0  0  0  0  0  0  0
  -21.9545  -26.1836   22.4363 C   0  0  0  0  0  0  0  0  0  0  0  0
  -24.5198  -14.4766   22.8816 C   0  0  0  0  0  0  0  0  0  0  0  0
  -25.1975  -15.6468   20.8796 C   0  0  0  0  0  0  0  0  0  0  0  0
  -28.0714  -21.5393   20.0885 C   0  0  0  0  0  0  0  0  0  0  0  0
  -26.1867  -23.5857   20.0085 C   0  0  0  0  0  0  0  0  0  0  0  0
  -24.7922  -29.5478   19.8865 C   0  0  0  0  0  0  0  0  0  0  0  0
  -25.0811  -13.3005   22.3843 C   0  0  0  0  0  0  0  0  0  0  0  0
  -25.7589  -14.4708   20.3822 C   0  0  0  0  0  0  0  0  0  0  0  0
  -23.5911  -30.2340   20.0606 C   0  0  0  0  0  0  0  0  0  0  0  0
  -27.6880  -11.8618   18.7421 C   0  0  0  0  0  0  0  0  0  0  0  0
  -28.9543  -11.9412   18.1628 C   0  0  0  0  0  0  0  0  0  0  0  0
  -21.9109  -24.8045   22.2909 C   0  0  0  0  0  0  0  0  0  0  0  0
  -20.7786  -28.3277   22.5832 C   0  0  0  0  0  0  0  0  0  0  0  0
  -24.1415  -30.5962   22.3812 C   0  0  0  0  0  0  0  0  0  0  0  0
  -18.3800  -28.3697   22.4350 C   0  0  0  0  0  0  0  0  0  0  0  0
  -29.8577  -12.7577   20.2495 C   0  0  0  0  0  0  0  0  0  0  0  0
  -20.7684  -26.9300   22.4380 C   0  0  0  0  0  0  0  0  0  0  0  0
  -24.5779  -15.6498   22.1293 C   0  0  0  0  0  0  0  0  0  0  0  0
  -24.6330  -17.8439   23.4293 C   0  0  0  0  0  0  0  0  0  0  0  0
  -27.9331  -22.3910   21.1959 C   0  0  0  0  0  0  0  0  0  0  0  0
  -25.6735  -29.3710   20.9629 C   0  0  0  0  0  0  0  0  0  0  0  0
  -26.9731  -23.4203   21.1613 C   0  0  0  0  0  0  0  0  0  0  0  0
  -25.3543  -29.9097   22.2175 C   0  0  0  0  0  0  0  0  0  0  0  0
  -19.5855  -29.0446   22.5814 C   0  0  0  0  0  0  0  0  0  0  0  0
  -18.3702  -26.9801   22.2907 C   0  0  0  0  0  0  0  0  0  0  0  0
  -19.5482  -26.2381   22.2887 C   0  0  0  0  0  0  0  0  0  0  0  0
  -25.7007  -13.2976   21.1346 C   0  0  0  0  0  0  0  0  0  0  0  0
  -23.2642  -30.7558   21.3088 C   0  0  0  0  0  0  0  0  0  0  0  0
  -27.5064  -12.2304   20.0751 C   0  0  0  0  0  0  0  0  0  0  0  0
  -30.0392  -12.3891   18.9165 C   0  0  0  0  0  0  0  0  0  0  0  0
  -28.5913  -12.6783   20.8288 C   0  0  0  0  0  0  0  0  0  0  0  0
  -23.9978  -16.8648   22.6422 C   0  0  0  0  0  0  0  0  0  0  0  0
  -20.6702  -24.2164   22.1510 C   0  0  0  0  0  0  0  0  0  0  0  0
  -23.6616  -18.7890   23.6519 C   0  0  0  0  0  0  0  0  0  0  0  0
  -25.9808  -17.8946   23.9158 C   0  0  0  0  0  0  0  0  0  0  0  0
  -26.8411  -26.8554   22.5160 C   0  0  0  0  0  0  0  0  0  0  0  0
  -28.6305  -29.1049   24.0195 C   0  0  0  0  0  0  0  0  0  0  0  0
  -28.9910  -32.3642   24.9647 C   0  0  0  0  0  0  0  0  0  0  0  0
  -19.4943  -22.0096   21.8451 C   0  0  0  0  0  0  0  0  0  0  0  0
  -28.7751  -22.1323   22.4202 C   0  0  0  0  0  0  0  0  0  0  0  0
  -26.9775  -28.6516   20.7522 C   0  0  0  0  0  0  0  0  0  0  0  0
  -26.2754  -29.7648   23.4003 C   0  0  0  0  0  0  0  0  0  0  0  0
  -28.8096  -23.3066   23.3949 C   0  0  0  0  0  0  0  0  0  0  0  0
  -18.6806  -18.6662   22.7597 C   0  0  0  0  0  0  0  0  0  0  0  0
  -27.4031  -23.8499   23.6263 C   0  0  0  0  0  0  0  0  0  0  0  0
  -20.0436  -17.9800   22.8754 C   0  0  0  0  0  0  0  0  0  0  0  0
  -18.6522  -19.6826   21.6196 C   0  0  0  0  0  0  0  0  0  0  0  0
  -21.0915  -19.9951   21.7670 C   0  0  0  0  0  0  0  0  0  0  0  0
  -26.7931  -24.3754   22.3213 C   0  0  1  0  0  0  0  0  0  0  0  0
  -27.5627  -28.0853   22.0422 C   0  0  1  0  0  0  0  0  0  0  0  0
  -21.1888  -19.0094   22.9428 C   0  0  2  0  0  0  0  0  0  0  0  0
  -17.0461  -26.2978   22.1366 C   0  0  0  0  0  0  0  0  0  0  0  0
  -30.5390  -33.8928   26.2156 C   0  0  0  0  0  0  0  0  0  0  0  0
  -27.6156  -27.9662   26.6621 C   0  0  0  0  0  0  0  0  0  0  0  0
  -28.4007  -30.0610   27.7861 C   0  0  0  0  0  0  0  0  0  0  0  0
  -30.0431  -28.5672   26.6489 C   0  0  0  0  0  0  0  0  0  0  0  0
  -29.4666  -34.0338   22.5678 C   0  0  0  0  0  0  0  0  0  0  0  0
  -19.6024  -30.5442   22.7387 C   0  0  0  0  0  0  0  0  0  0  0  0
  -19.6972  -31.3015   21.4124 C   0  0  0  0  0  0  0  0  0  0  0  0
  -20.9943  -31.0365   20.6571 C   0  0  0  0  0  0  0  0  0  1  0  0
  -28.4594  -29.9582   25.2530 C   0  0  1  0  0  0  0  0  0  0  0  0
  -30.1654  -33.3202   24.8572 C   0  0  2  0  0  0  0  0  0  0  0  0
  -28.6112  -29.1394   26.5659 C   0  0  0  0  0  0  0  0  0  0  0  0
  -19.5028  -24.8999   22.1474 N   0  0  0  0  0  0  0  0  0  0  0  0
  -22.7214  -17.1605   22.3824 N   0  0  0  0  0  0  0  0  0  0  0  0
  -22.5468  -18.3360   23.0098 N   0  0  0  0  0  0  0  0  0  0  0  0
  -27.5357  -29.0478   23.1454 N   0  0  0  0  0  0  0  0  0  0  0  0
  -19.7632  -20.6277   21.7516 N   0  0  0  0  0  0  0  0  0  0  0  0
  -23.6607  -19.9550   24.3322 N   0  0  0  0  0  0  0  0  0  0  0  0
  -26.8473  -16.8410   23.5942 N   0  0  0  0  0  0  0  0  0  0  0  0
  -20.6269  -22.8082   22.0003 N   0  0  0  0  0  0  0  0  0  0  0  0
  -27.3386  -25.6758   21.9960 N   0  0  0  0  0  0  0  0  0  0  0  0
  -29.4076  -31.0592   25.1224 N   0  0  0  0  0  0  0  0  0  0  0  0
  -29.8308  -34.4512   23.9463 N   0  3  0  0  0  0  0  0  0  0  0  0
  -26.3996  -18.8380   24.6286 O   0  0  0  0  0  0  0  0  0  0  0  0
  -25.9033  -26.9683   23.2967 O   0  0  0  0  0  0  0  0  0  0  0  0
  -29.6988  -28.5165   23.8347 O   0  0  0  0  0  0  0  0  0  0  0  0
  -27.8212  -32.7382   24.9176 O   0  0  0  0  0  0  0  0  0  0  0  0
  -18.3421  -22.4498   21.8189 O   0  0  0  0  0  0  0  0  0  0  0  0
  -26.2487  -12.1502   20.6490 O   0  0  0  0  0  0  0  0  0  0  0  0
  -22.0922  -31.4254   21.4816 O   0  0  0  0  0  0  0  0  0  1  0  0
  -31.2555  -12.4638   18.3605 F   0  0  0  0  0  0  0  0  0  0  0  0
  -28.4233  -13.0327   22.1102 F   0  0  0  0  0  0  0  0  0  0  0  0
  1  2  1  0  0  0  0
  1  6  2  0  0  0  0
  2  7  2  0  0  0  0
  3 14  2  0  0  0  0
  3 19  1  0  0  0  0
  4  9  2  0  0  0  0
  4 20  1  0  0  0  0
  5 10  1  0  0  0  0
  5 20  2  0  0  0  0
  6 22  1  0  0  0  0
  7 24  1  0  0  0  0
  8 11  2  0  0  0  0
  8 23  1  0  0  0  0
  9 29  1  0  0  0  0
 10 29  2  0  0  0  0
 11 30  1  0  0  0  0
 12 13  2  0  0  0  0
 12 31  1  0  0  0  0
 13 32  1  0  0  0  0
 14 35  1  0  0  0  0
 15 19  1  0  0  0  0
 15 26  2  0  0  0  0
 16 25  1  0  0  0  0
 16 30  2  0  0  0  0
 17 26  1  0  0  0  0
 17 27  2  0  0  0  0
 18 32  2  0  0  0  0
 18 33  1  0  0  0  0
 19 28  2  0  0  0  0
 20 34  1  0  0  0  0
 21 34  1  0  0  0  0
 21 36  2  0  0  0  0
 21 37  1  0  0  0  0
 22 24  2  0  0  0  0
 22 42  1  0  0  0  0
 23 25  2  0  0  0  0
 23 43  1  0  0  0  0
 24 51  1  0  0  0  0
 25 44  1  0  0  0  0
 26 60  1  0  0  0  0
 27 28  1  0  0  0  0
 27 54  1  0  0  0  0
 28 66  1  0  0  0  0
 29 82  1  0  0  0  0
 30 83  1  0  0  0  0
 31 33  2  0  0  0  0
 31 82  1  0  0  0  0
 32 84  1  0  0  0  0
 33 85  1  0  0  0  0
 34 67  2  0  0  0  0
 35 66  2  0  0  0  0
 35 73  1  0  0  0  0
 36 68  1  0  0  0  0
 36 71  1  0  0  0  0
 37 72  1  0  0  0  0
 37 77  2  0  0  0  0
 38 52  1  0  0  0  0
 38 74  1  0  0  0  0
 38 78  2  0  0  0  0
 39 63  1  0  0  0  0
 39 69  1  0  0  0  0
 39 79  2  0  0  0  0
 40 64  1  0  0  0  0
 40 75  1  0  0  0  0
 40 80  2  0  0  0  0
 41 70  1  0  0  0  0
 41 73  1  0  0  0  0
 41 81  2  0  0  0  0
 42 45  1  0  0  0  0
 43 52  1  0  0  0  0
 44 69  1  0  0  0  0
 45 47  1  0  0  0  0
 46 48  1  0  0  0  0
 46 49  1  0  0  0  0
 47 51  1  0  0  0  0
 48 53  1  0  0  0  0
 49 70  1  0  0  0  0
 50 53  1  0  0  0  0
 50 70  1  0  0  0  0
 51 74  1  0  0  0  0
 52 69  1  0  0  0  0
 53 68  1  0  0  0  0
 55 64  1  0  0  0  0
 56 65  1  0  0  0  0
 57 65  1  0  0  0  0
 58 65  1  0  0  0  0
 59 76  1  0  0  0  0
 60 61  1  0  0  0  0
 61 62  1  0  0  0  0
 62 83  1  0  0  0  0
 63 65  1  0  0  0  0
 63 75  1  0  0  0  0
 64 76  1  0  0  0  0
 67 68  1  0  0  0  0
M  CHG  1  76   1
M  ISO  4  41 100  62 101  73 100  83 101
M  END
> <Batch ID>
0122

> <Smiles>
CNC(C)C(=O)NC(C(=O)N1Cc2cc([101O:1][101CH2:1]CCc3cc(C)c4nc([100NH:0][100C:0](=O)N5CCCC(n6nc(-c7ccc(Oc8ccc(F)cc8F)cc7)c(C(N)=O)c6N)C5)ccc4c3)ccc2CC1C(=O)NC1CCCc2ccccc21)C(C)(C)C

> <Shape>
0.217

> <Color>
0.063

> <Negative vol penalty>
0.000

$$$$

  -OEChem-04052320283D

 92102  0     1  0  0  0  0  0999 V2000
  -25.5532  -21.5488   19.9709 C   0  0  0  0  0  0  0  0  0  0  0  0
  -24.9237  -22.7619   19.7162 C   0  0  0  0  0  0  0  0  0  0  0  0
  -24.5311  -15.5390   21.1012 C   0  0  0  0  0  0  0  0  0  0  0  0
  -23.8938  -14.0193   22.8679 C   0  0  0  0  0  0  0  0  0  0  0  0
  -26.4232  -21.4330   21.0530 C   0  0  0  0  0  0  0  0  0  0  0  0
  -25.1730  -23.8629   20.5363 C   0  0  0  0  0  0  0  0  0  0  0  0
  -23.2515  -28.1710   19.1394 C   0  0  0  0  0  0  0  0  0  0  0  0
  -25.3098  -14.5379   20.5208 C   0  0  0  0  0  0  0  0  0  0  0  0
  -24.6726  -13.0181   22.2875 C   0  0  0  0  0  0  0  0  0  0  0  0
  -21.8874  -28.4483   19.2165 C   0  0  0  0  0  0  0  0  0  0  0  0
  -28.3453  -13.1385   21.0226 C   0  0  0  0  0  0  0  0  0  0  0  0
  -29.6247  -13.4840   20.5875 C   0  0  0  0  0  0  0  0  0  0  0  0
  -22.2777  -29.7916   21.1818 C   0  0  0  0  0  0  0  0  0  0  0  0
  -29.0339  -12.8366   18.3361 C   0  0  0  0  0  0  0  0  0  0  0  0
  -23.8231  -15.2798   22.2748 C   0  0  0  0  0  0  0  0  0  0  0  0
  -21.6617  -16.5893   22.6228 C   0  0  0  0  0  0  0  0  0  0  0  0
  -26.6732  -22.5302   21.8936 C   0  0  0  0  0  0  0  0  0  0  0  0
  -24.1390  -28.6940   20.0908 C   0  0  0  0  0  0  0  0  0  0  0  0
  -26.0663  -23.7727   21.6191 C   0  0  0  0  0  0  0  0  0  0  0  0
  -23.6530  -29.5216   21.1130 C   0  0  0  0  0  0  0  0  0  0  0  0
  -25.3805  -13.2774   21.1139 C   0  0  0  0  0  0  0  0  0  0  0  0
  -21.3998  -29.2563   20.2395 C   0  0  0  0  0  0  0  0  0  0  0  0
  -27.4102  -12.6419   20.1144 C   0  0  0  0  0  0  0  0  0  0  0  0
  -29.9690  -13.3331   19.2443 C   0  0  0  0  0  0  0  0  0  0  0  0
  -27.7545  -12.4911   18.7712 C   0  0  0  0  0  0  0  0  0  0  0  0
  -23.0190  -16.3137   22.8751 C   0  0  0  0  0  0  0  0  0  0  0  0
  -21.3708  -17.6564   23.4370 C   0  0  0  0  0  0  0  0  0  0  0  0
  -20.7457  -15.9386   21.7321 C   0  0  0  0  0  0  0  0  0  0  0  0
  -26.1019  -27.4412   22.2545 C   0  0  0  0  0  0  0  0  0  0  0  0
  -27.0047  -30.5311   22.6541 C   0  0  0  0  0  0  0  0  0  0  0  0
  -26.2184  -33.8395   22.3667 C   0  0  0  0  0  0  0  0  0  0  0  0
  -23.0964  -22.7725   25.2274 C   0  0  0  0  0  0  0  0  0  0  0  0
  -27.6298  -22.3514   23.0461 C   0  0  0  0  0  0  0  0  0  0  0  0
  -25.6113  -28.4073   19.9781 C   0  0  0  0  0  0  0  0  0  0  0  0
  -24.5669  -30.1242   22.1475 C   0  0  0  0  0  0  0  0  0  0  0  0
  -27.4880  -23.4351   24.1100 C   0  0  0  0  0  0  0  0  0  0  0  0
  -23.9966  -19.7656   27.1969 C   0  0  0  0  0  0  0  0  0  0  0  0
  -16.8407  -29.6098   24.0281 C   0  0  0  0  0  0  0  0  0  0  0  0
  -27.4983  -24.8091   23.4570 C   0  0  0  0  0  0  0  0  0  0  0  0
  -19.8819  -21.2056   27.1685 C   0  0  0  0  0  0  0  0  0  0  0  0
  -19.2130  -22.1329   28.1445 C   0  0  0  0  0  0  0  0  0  0  0  0
  -23.7796  -18.6354   26.1922 C   0  0  0  0  0  0  0  0  0  0  0  0
  -17.5796  -28.3191   24.3169 C   0  0  0  0  0  0  0  0  0  0  0  0
  -24.3545  -21.0771   26.5050 C   0  0  0  0  0  0  0  0  0  0  0  0
  -22.2520  -24.3043   23.4759 C   0  0  0  0  0  0  0  0  0  0  0  0
  -23.1517  -20.3670   24.4626 C   0  0  0  0  0  0  0  0  0  0  0  0
  -20.8763  -22.3489   24.0770 C   0  0  0  0  0  0  0  0  0  0  0  0
  -17.4258  -30.0653   22.7050 C   0  0  0  0  0  0  0  0  0  0  0  0
  -21.1233  -25.2588   23.8302 C   0  0  0  0  0  0  0  0  0  0  0  0
  -26.2986  -24.9754   22.5157 C   0  0  1  0  0  0  0  0  0  0  0  0
  -26.3552  -28.5733   21.2996 C   0  0  1  0  0  0  0  0  0  0  0  0
  -19.0026  -22.3176   26.6672 C   0  0  0  0  0  0  0  0  0  0  0  0
  -22.7477  -19.0415   25.1259 C   0  0  1  0  0  0  0  0  0  0  0  0
  -17.5917  -27.6318   22.9593 C   0  0  2  0  0  0  0  0  0  0  0  0
  -19.6898  -23.2497   24.4518 C   0  0  1  0  0  0  0  0  0  0  0  0
  -27.1434  -36.1298   22.8098 C   0  0  0  0  0  0  0  0  0  0  0  0
  -17.3544  -24.6596   23.7046 C   0  0  0  0  0  0  0  0  0  0  0  0
  -26.4435  -30.1790   25.6326 C   0  0  0  0  0  0  0  0  0  0  0  0
  -26.4572  -32.6723   25.8588 C   0  0  0  0  0  0  0  0  0  0  0  0
  -28.5147  -31.4785   25.1078 C   0  0  0  0  0  0  0  0  0  0  0  0
  -26.0902  -34.5721   19.5022 C   0  0  0  0  0  0  0  0  0  0  0  0
  -19.6068  -23.5026   25.9570 C   0  0  0  0  0  0  0  0  0  0  0  0
  -18.6973  -26.6033   22.8081 C   0  0  0  0  0  0  0  0  0  0  0  0
  -17.0929  -28.5995   20.6754 C   0  0  0  0  0  0  0  0  0  0  0  0
  -19.2297  -28.9506   19.3159 C   0  0  0  0  0  0  0  0  0  1  0  0
  -26.5491  -31.6733   23.5297 C   0  0  1  0  0  0  0  0  0  0  0  0
  -26.9910  -35.0121   21.7899 C   0  0  2  0  0  0  0  0  0  0  0  0
  -18.6317  -25.4771   23.8437 C   0  0  2  0  0  0  0  0  0  0  0  0
  -17.7876  -29.3813   19.5639 C   0  0  1  0  0  0  0  0  0  0  0  0
  -26.9734  -31.4880   25.0140 C   0  0  0  0  0  0  0  0  0  0  0  0
  -23.5534  -17.1394   23.7787 N   0  0  0  0  0  0  0  0  0  0  0  0
  -22.5267  -17.9443   24.1014 N   0  0  0  0  0  0  0  0  0  0  0  0
  -25.9973  -29.8094   21.9983 N   0  0  0  0  0  0  0  0  0  0  0  0
  -23.3843  -21.4184   25.4646 N   0  0  0  0  0  0  0  0  0  0  0  0
  -22.1545  -23.0555   24.2268 N   0  0  0  0  0  0  0  0  0  0  0  0
  -20.2418  -18.3674   23.6423 N   0  0  0  0  0  0  0  0  0  0  0  0
  -21.2092  -14.8583   20.9690 N   0  0  0  0  0  0  0  0  0  0  0  0
  -26.4562  -26.1997   21.7619 N   0  0  0  0  0  0  0  0  0  0  0  0
  -27.0594  -32.8914   22.9100 N   0  0  0  0  0  0  0  0  0  0  0  0
  -17.8018  -28.7818   21.9827 N   0  3  1  0  0  0  0  0  0  0  0  0
  -19.7998  -24.5467   23.6612 N   0  3  1  0  0  0  0  0  0  0  0  0
  -26.2873  -35.5586   20.5953 N   0  3  0  0  0  0  0  0  0  0  0  0
  -19.5559  -16.3148   21.6042 O   0  0  0  0  0  0  0  0  0  0  0  0
  -25.6219  -27.6767   23.3571 O   0  0  0  0  0  0  0  0  0  0  0  0
  -28.2105  -30.2926   22.5501 O   0  0  0  0  0  0  0  0  0  0  0  0
  -24.9914  -33.7732   22.3415 O   0  0  0  0  0  0  0  0  0  0  0  0
  -23.6433  -23.6730   25.8762 O   0  0  0  0  0  0  0  0  0  0  0  0
  -17.0558  -29.2324   18.3462 O   0  0  0  0  0  0  0  0  0  0  0  0
  -26.1401  -12.3001   20.5478 O   0  0  0  0  0  0  0  0  0  0  0  0
  -20.0606  -29.5297   20.3180 O   0  0  0  0  0  0  0  0  0  1  0  0
  -31.1972  -13.6663   18.8263 F   0  0  0  0  0  0  0  0  0  0  0  0
  -26.8600  -12.0157   17.8938 F   0  0  0  0  0  0  0  0  0  0  0  0
  1  2  1  0  0  0  0
  1  5  2  0  0  0  0
  2  6  2  0  0  0  0
  3  8  2  0  0  0  0
  3 15  1  0  0  0  0
  4  9  1  0  0  0  0
  4 15  2  0  0  0  0
  5 17  1  0  0  0  0
  6 19  1  0  0  0  0
  7 10  2  0  0  0  0
  7 18  1  0  0  0  0
  8 21  1  0  0  0  0
  9 21  2  0  0  0  0
 10 22  1  0  0  0  0
 11 12  2  0  0  0  0
 11 23  1  0  0  0  0
 12 24  1  0  0  0  0
 13 20  1  0  0  0  0
 13 22  2  0  0  0  0
 14 24  2  0  0  0  0
 14 25  1  0  0  0  0
 15 26  1  0  0  0  0
 16 26  1  0  0  0  0
 16 27  2  0  0  0  0
 16 28  1  0  0  0  0
 17 19  2  0  0  0  0
 17 33  1  0  0  0  0
 18 20  2  0  0  0  0
 18 34  1  0  0  0  0
 19 50  1  0  0  0  0
 20 35  1  0  0  0  0
 21 89  1  0  0  0  0
 22 90  1  0  0  0  0
 23 25  2  0  0  0  0
 23 89  1  0  0  0  0
 24 91  1  0  0  0  0
 25 92  1  0  0  0  0
 26 71  2  0  0  0  0
 27 72  1  0  0  0  0
 27 76  1  0  0  0  0
 28 77  1  0  0  0  0
 28 83  2  0  0  0  0
 29 51  1  0  0  0  0
 29 78  1  0  0  0  0
 29 84  2  0  0  0  0
 30 66  1  0  0  0  0
 30 73  1  0  0  0  0
 30 85  2  0  0  0  0
 31 67  1  0  0  0  0
 31 79  1  0  0  0  0
 31 86  2  0  0  0  0
 32 74  1  0  0  0  0
 32 75  1  0  0  0  0
 32 87  2  0  0  0  0
 33 36  1  0  0  0  0
 34 51  1  0  0  0  0
 35 73  1  0  0  0  0
 36 39  1  0  0  0  0
 37 42  1  0  0  0  0
 37 44  1  0  0  0  0
 38 43  1  0  0  0  0
 38 48  1  0  0  0  0
 39 50  1  0  0  0  0
 40 41  1  0  0  0  0
 40 52  1  0  0  0  0
 41 52  1  0  0  0  0
 42 53  1  0  0  0  0
 43 54  1  0  0  0  0
 44 74  1  0  0  0  0
 45 49  1  0  0  0  0
 45 75  1  0  0  0  0
 46 53  1  0  0  0  0
 46 74  1  0  0  0  0
 47 55  1  0  0  0  0
 47 75  1  0  0  0  0
 48 80  1  0  0  0  0
 49 81  1  0  0  0  0
 50 78  1  0  0  0  0
 51 73  1  0  0  0  0
 52 62  1  0  0  0  0
 53 72  1  0  0  0  0
 54 63  1  0  0  0  0
 54 80  1  0  0  0  0
 55 62  1  0  0  0  0
 55 81  1  0  0  0  0
 56 67  1  0  0  0  0
 57 68  1  0  0  0  0
 58 70  1  0  0  0  0
 59 70  1  0  0  0  0
 60 70  1  0  0  0  0
 61 82  1  0  0  0  0
 63 68  1  0  0  0  0
 64 69  1  0  0  0  0
 64 80  1  0  0  0  0
 65 69  1  0  0  0  0
 65 90  1  0  0  0  0
 66 70  1  0  0  0  0
 66 79  1  0  0  0  0
 67 82  1  0  0  0  0
 68 81  1  0  0  0  0
 69 88  1  0  0  0  0
 71 72  1  0  0  0  0
M  CHG  3  80   1  81   1  82   1
M  ISO  4  32 100  65 101  75 100  90 101
M  END
> <Batch ID>
0122

> <Smiles>
CNC(C)C(=O)NC(C(=O)N1Cc2cc([101O:1][101CH2:1]C(O)CN3CCCC3CC(C)N3CC[100N:0]([100C:0](=O)N4CCCC(n5nc(-c6ccc(Oc7ccc(F)cc7F)cc6)c(C(N)=O)c5N)C4)CC3CC3CC3)ccc2CC1C(=O)NC1CCCc2ccccc21)C(C)(C)C

> <Shape>
0.210

> <Color>
0.060

> <Negative vol penalty>
0.000

$$$$

  -OEChem-04052320283D

 86 95  0     1  0  0  0  0  0999 V2000
  -17.8022  -26.6686   22.4790 C   0  0  0  0  0  0  0  0  0  0  0  0
  -18.2782  -27.3865   21.3866 C   0  0  0  0  0  0  0  0  0  0  0  0
  -26.4337  -12.5036   21.7315 C   0  0  0  0  0  0  0  0  0  0  0  0
  -25.8803  -13.3515   19.5379 C   0  0  0  0  0  0  0  0  0  0  0  0
  -18.3168  -26.9145   23.7512 C   0  0  0  0  0  0  0  0  0  0  0  0
  -19.2685  -28.3517   21.5661 C   0  0  0  0  0  0  0  0  0  0  0  0
  -26.2753  -29.0187   18.1770 C   0  0  0  0  0  0  0  0  0  0  0  0
  -25.2859  -11.7112   21.7148 C   0  0  0  0  0  0  0  0  0  0  0  0
  -24.7326  -12.5591   19.5211 C   0  0  0  0  0  0  0  0  0  0  0  0
  -27.6004  -29.1552   17.7625 C   0  0  0  0  0  0  0  0  0  0  0  0
  -21.8460  -10.4883   18.7478 C   0  0  0  0  0  0  0  0  0  0  0  0
  -21.5651   -9.7770   17.5813 C   0  0  0  0  0  0  0  0  0  0  0  0
  -28.1334  -30.3195   19.8139 C   0  0  0  0  0  0  0  0  0  0  0  0
  -23.6689   -8.6071   17.7882 C   0  0  0  0  0  0  0  0  0  0  0  0
  -26.7309  -13.3238   20.6431 C   0  0  0  0  0  0  0  0  0  0  0  0
  -29.1993  -13.7913   20.2001 C   0  0  0  0  0  0  0  0  0  0  0  0
  -19.3208  -27.8764   23.9449 C   0  0  0  0  0  0  0  0  0  0  0  0
  -25.8774  -29.5191   19.4198 C   0  0  0  0  0  0  0  0  0  0  0  0
  -19.7961  -28.6117   22.8423 C   0  0  0  0  0  0  0  0  0  0  0  0
  -26.8104  -30.1747   20.2399 C   0  0  0  0  0  0  0  0  0  0  0  0
  -24.4354  -11.7389   20.6096 C   0  0  0  0  0  0  0  0  0  0  0  0
  -28.5270  -29.8042   18.5788 C   0  0  0  0  0  0  0  0  0  0  0  0
  -23.0384  -10.2591   19.4344 C   0  0  0  0  0  0  0  0  0  0  0  0
  -22.4765   -8.8363   17.1015 C   0  0  0  0  0  0  0  0  0  0  0  0
  -23.9498   -9.3185   18.9547 C   0  0  0  0  0  0  0  0  0  0  0  0
  -27.9161  -14.1430   20.6600 C   0  0  0  0  0  0  0  0  0  0  0  0
  -29.9662  -14.9059   20.4366 C   0  0  0  0  0  0  0  0  0  0  0  0
  -29.6570  -12.5665   19.6117 C   0  0  0  0  0  0  0  0  0  0  0  0
  -30.5973  -26.8914   20.0845 C   0  0  0  0  0  0  0  0  0  0  0  0
  -23.0967  -29.9771   21.8965 C   0  0  0  0  0  0  0  0  0  0  0  0
  -25.6110  -29.2619   23.5018 C   0  0  0  0  0  0  0  0  0  0  0  0
  -28.1083  -27.6734   24.5711 C   0  0  0  0  0  0  0  0  0  0  0  0
  -28.5664  -20.6254   20.8640 C   0  0  0  0  0  0  0  0  0  0  0  0
  -19.8126  -28.1404   25.3460 C   0  0  0  0  0  0  0  0  0  0  0  0
  -24.4467  -29.4490   19.8802 C   0  0  0  0  0  0  0  0  0  0  0  0
  -26.3293  -30.7277   21.5535 C   0  0  0  0  0  0  0  0  0  0  0  0
  -21.1263  -28.9165   25.3943 C   0  0  0  0  0  0  0  0  0  0  0  0
  -30.2949  -18.6715   23.3724 C   0  0  0  0  0  0  0  0  0  0  0  0
  -33.7534  -27.8157   20.5285 C   0  0  0  0  0  0  0  0  0  0  0  0
  -21.0774  -30.1084   24.4435 C   0  0  0  0  0  0  0  0  0  0  0  0
  -33.0799  -26.5327   20.0735 C   0  0  0  0  0  0  0  0  0  0  0  0
  -29.9958  -17.2455   22.9065 C   0  0  0  0  0  0  0  0  0  0  0  0
  -30.2085  -23.2769   19.8540 C   0  0  0  0  0  0  0  0  0  0  0  0
  -28.5524  -24.2835   21.4701 C   0  0  0  0  0  0  0  0  0  0  0  0
  -29.0950  -19.5881   23.1525 C   0  0  0  0  0  0  0  0  0  0  0  0
  -30.2107  -24.5910   19.0741 C   0  0  0  0  0  0  0  0  0  0  0  0
  -28.5838  -25.5753   20.6564 C   0  0  0  0  0  0  0  0  0  0  0  0
  -28.2949  -18.1976   21.2817 C   0  0  0  0  0  0  0  0  0  0  0  0
  -33.5522  -28.7395   19.3484 C   0  0  0  0  0  0  0  0  0  0  0  0
  -20.8873  -29.6494   22.9928 C   0  0  1  0  0  0  0  0  0  0  0  0
  -31.8552  -26.9878   19.2848 C   0  0  2  0  0  0  0  0  0  0  0  0
  -24.3110  -29.2487   21.4003 C   0  0  1  0  0  0  0  0  0  0  0  0
  -29.4770  -17.2269   21.4565 C   0  0  2  0  0  0  0  0  0  0  0  0
  -28.8852  -23.0715   20.5959 C   0  0  0  0  0  0  0  0  0  0  0  0
  -29.9544  -26.5075   25.8080 C   0  0  0  0  0  0  0  0  0  0  0  0
  -25.9812  -32.2093   24.1945 C   0  0  0  0  0  0  0  0  0  0  0  0
  -27.7664  -31.5314   25.8136 C   0  0  0  0  0  0  0  0  0  0  0  0
  -25.4229  -30.7419   26.1412 C   0  0  0  0  0  0  0  0  0  0  0  0
  -26.4533  -25.2574   24.9983 C   0  0  0  0  0  0  0  0  0  0  0  0
  -31.8352  -28.7975   17.5076 C   0  0  0  0  0  0  0  0  0  0  0  0
  -30.3345  -28.9045   17.3215 C   0  0  0  0  0  0  0  0  0  1  0  0
  -26.8094  -29.7649   24.2663 C   0  0  1  0  0  0  0  0  0  0  0  0
  -28.4506  -26.6250   25.6141 C   0  0  2  0  0  0  0  0  0  0  0  0
  -26.4968  -31.0546   25.0765 C   0  0  0  0  0  0  0  0  0  0  0  0
  -27.8668  -15.3840   21.1516 N   0  0  0  0  0  0  0  0  0  0  0  0
  -29.1285  -15.8217   21.0020 N   0  0  0  0  0  0  0  0  0  0  0  0
  -29.8538  -25.7194   19.9424 N   0  0  0  0  0  0  0  0  0  0  0  0
  -25.4315  -29.7622   22.2065 N   0  0  0  0  0  0  0  0  0  0  0  0
  -28.6624  -19.5385   21.7487 N   0  0  0  0  0  0  0  0  0  0  0  0
  -31.2688  -15.1821   20.2140 N   0  0  0  0  0  0  0  0  0  0  0  0
  -28.7374  -11.5227   19.4410 N   0  0  0  0  0  0  0  0  0  0  0  0
  -22.1350  -29.1547   22.4515 N   0  0  0  0  0  0  0  0  0  0  0  0
  -27.2738  -28.6462   25.0795 N   0  0  0  0  0  0  0  0  0  0  0  0
  -28.9262  -21.8616   21.3866 N   0  0  0  0  0  0  0  0  0  0  0  0
  -32.1321  -28.4420   18.9295 N   0  3  2  0  0  0  0  0  0  0  0  0
  -27.9244  -25.2930   25.2018 N   0  3  0  0  0  0  0  0  0  0  0  0
  -30.8500  -12.3969   19.2632 O   0  0  0  0  0  0  0  0  0  0  0  0
  -30.2786  -27.8286   20.8209 O   0  0  0  0  0  0  0  0  0  0  0  0
  -23.0362  -31.1961   21.7860 O   0  0  0  0  0  0  0  0  0  0  0  0
  -24.8500  -28.4517   24.0383 O   0  0  0  0  0  0  0  0  0  0  0  0
  -28.5412  -27.6355   23.4214 O   0  0  0  0  0  0  0  0  0  0  0  0
  -28.1925  -20.5026   19.6926 O   0  0  0  0  0  0  0  0  0  0  0  0
  -23.3154  -10.9656   20.5928 O   0  0  0  0  0  0  0  0  0  0  0  0
  -29.8200  -29.9300   18.1700 O   0  0  0  0  0  0  0  0  0  1  0  0
  -22.2060   -8.1522   15.9822 F   0  0  0  0  0  0  0  0  0  0  0  0
  -25.0963   -9.0931   19.6107 F   0  0  0  0  0  0  0  0  0  0  0  0
  1  2  1  0  0  0  0
  1  5  2  0  0  0  0
  2  6  2  0  0  0  0
  3  8  2  0  0  0  0
  3 15  1  0  0  0  0
  4  9  1  0  0  0  0
  4 15  2  0  0  0  0
  5 17  1  0  0  0  0
  6 19  1  0  0  0  0
  7 10  2  0  0  0  0
  7 18  1  0  0  0  0
  8 21  1  0  0  0  0
  9 21  2  0  0  0  0
 10 22  1  0  0  0  0
 11 12  2  0  0  0  0
 11 23  1  0  0  0  0
 12 24  1  0  0  0  0
 13 20  1  0  0  0  0
 13 22  2  0  0  0  0
 14 24  2  0  0  0  0
 14 25  1  0  0  0  0
 15 26  1  0  0  0  0
 16 26  1  0  0  0  0
 16 27  2  0  0  0  0
 16 28  1  0  0  0  0
 17 19  2  0  0  0  0
 17 34  1  0  0  0  0
 18 20  2  0  0  0  0
 18 35  1  0  0  0  0
 19 50  1  0  0  0  0
 20 36  1  0  0  0  0
 21 83  1  0  0  0  0
 22 84  1  0  0  0  0
 23 25  2  0  0  0  0
 23 83  1  0  0  0  0
 24 85  1  0  0  0  0
 25 86  1  0  0  0  0
 26 65  2  0  0  0  0
 27 66  1  0  0  0  0
 27 70  1  0  0  0  0
 28 71  1  0  0  0  0
 28 77  2  0  0  0  0
 29 51  1  0  0  0  0
 29 67  1  0  0  0  0
 29 78  2  0  0  0  0
 30 52  1  0  0  0  0
 30 72  1  0  0  0  0
 30 79  2  0  0  0  0
 31 62  1  0  0  0  0
 31 68  1  0  0  0  0
 31 80  2  0  0  0  0
 32 63  1  0  0  0  0
 32 73  1  0  0  0  0
 32 81  2  0  0  0  0
 33 69  1  0  0  0  0
 33 74  1  0  0  0  0
 33 82  2  0  0  0  0
 34 37  1  0  0  0  0
 35 52  1  0  0  0  0
 36 68  1  0  0  0  0
 37 40  1  0  0  0  0
 38 42  1  0  0  0  0
 38 45  1  0  0  0  0
 39 41  1  0  0  0  0
 39 49  1  0  0  0  0
 40 50  1  0  0  0  0
 41 51  1  0  0  0  0
 42 53  1  0  0  0  0
 43 46  1  0  0  0  0
 43 54  1  0  0  0  0
 44 47  1  0  0  0  0
 44 54  1  0  0  0  0
 45 69  1  0  0  0  0
 46 67  1  0  0  0  0
 47 67  1  0  0  0  0
 48 53  1  0  0  0  0
 48 69  1  0  0  0  0
 49 75  1  0  0  0  0
 50 72  1  0  0  0  0
 51 75  1  0  0  0  0
 52 68  1  0  0  0  0
 53 66  1  0  0  0  0
 54 74  1  0  0  0  0
 55 63  1  0  0  0  0
 56 64  1  0  0  0  0
 57 64  1  0  0  0  0
 58 64  1  0  0  0  0
 59 76  1  0  0  0  0
 60 61  1  0  0  0  0
 60 75  1  0  0  0  0
 61 84  1  0  0  0  0
 62 64  1  0  0  0  0
 62 73  1  0  0  0  0
 63 76  1  0  0  0  0
 65 66  1  0  0  0  0
M  CHG  2  75   1  76   1
M  ISO  4  33 100  61 101  74 100  84 101
M  END
> <Batch ID>
0122

> <Smiles>
CNC(C)C(=O)NC(C(=O)N1Cc2cc([101O:1][101CH2:1]CN3CCCC3C(=O)N3CCC([100NH:0][100C:0](=O)N4CCCC(n5nc(-c6ccc(Oc7ccc(F)cc7F)cc6)c(C(N)=O)c5N)C4)CC3)ccc2CC1C(=O)NC1CCCc2ccccc21)C(C)(C)C

> <Shape>
0.324

> <Color>
0.085

> <Negative vol penalty>
0.000

$$$$

  -OEChem-04052320283D

 85 94  0     1  0  0  0  0  0999 V2000
  -16.8520  -26.3294   22.0759 C   0  0  0  0  0  0  0  0  0  0  0  0
  -18.1117  -26.0133   21.5772 C   0  0  0  0  0  0  0  0  0  0  0  0
  -30.7997  -22.3420   20.2460 C   0  0  0  0  0  0  0  0  0  0  0  0
  -25.2608  -13.8448   21.3650 C   0  0  0  0  0  0  0  0  0  0  0  0
  -27.2886  -13.1113   20.2754 C   0  0  0  0  0  0  0  0  0  0  0  0
  -16.6853  -27.4537   22.8834 C   0  0  0  0  0  0  0  0  0  0  0  0
  -19.2052  -26.8220   21.8849 C   0  0  0  0  0  0  0  0  0  0  0  0
  -23.2992  -24.1406   23.1866 C   0  0  0  0  0  0  0  0  0  0  0  0
  -24.9417  -12.5200   21.6629 C   0  0  0  0  0  0  0  0  0  0  0  0
  -26.9695  -11.7865   20.5734 C   0  0  0  0  0  0  0  0  0  0  0  0
  -24.0316  -23.5553   22.1546 C   0  0  0  0  0  0  0  0  0  0  0  0
  -23.6415   -9.8487   20.0512 C   0  0  0  0  0  0  0  0  0  0  0  0
  -22.3295   -9.4324   19.8254 C   0  0  0  0  0  0  0  0  0  0  0  0
  -29.3846  -22.2940   20.2952 C   0  0  0  0  0  0  0  0  0  0  0  0
  -25.6299  -25.3581   22.2745 C   0  0  0  0  0  0  0  0  0  0  0  0
  -22.0997   -8.8862   22.1676 C   0  0  0  0  0  0  0  0  0  0  0  0
  -31.1595  -22.5290   18.9297 C   0  0  0  0  0  0  0  0  0  0  0  0
  -26.4343  -14.1404   20.6712 C   0  0  0  0  0  0  0  0  0  0  0  0
  -27.5122  -16.4018   21.1531 C   0  0  0  0  0  0  0  0  0  0  0  0
  -17.7791  -28.2712   23.2090 C   0  0  0  0  0  0  0  0  0  0  0  0
  -23.7216  -25.3468   23.7638 C   0  0  0  0  0  0  0  0  0  0  0  0
  -19.0527  -27.9590   22.6964 C   0  0  0  0  0  0  0  0  0  0  0  0
  -24.9026  -25.9553   23.3154 C   0  0  0  0  0  0  0  0  0  0  0  0
  -25.7961  -11.4909   21.2671 C   0  0  0  0  0  0  0  0  0  0  0  0
  -25.1956  -24.1655   21.6965 C   0  0  0  0  0  0  0  0  0  0  0  0
  -24.1827   -9.7837   21.3352 C   0  0  0  0  0  0  0  0  0  0  0  0
  -21.5586   -8.9511   20.8836 C   0  0  0  0  0  0  0  0  0  0  0  0
  -23.4118   -9.3024   22.3934 C   0  0  0  0  0  0  0  0  0  0  0  0
  -26.7642  -15.5087   20.3627 C   0  0  0  0  0  0  0  0  0  0  0  0
  -28.9227  -22.4530   19.0072 C   0  0  0  0  0  0  0  0  0  0  0  0
  -27.5415  -17.5647   20.4228 C   0  0  0  0  0  0  0  0  0  0  0  0
  -28.1257  -16.1983   22.4328 C   0  0  0  0  0  0  0  0  0  0  0  0
  -22.4943  -28.2690   24.0049 C   0  0  0  0  0  0  0  0  0  0  0  0
  -25.0858  -28.7797   25.8879 C   0  0  0  0  0  0  0  0  0  0  0  0
  -28.2657  -27.8852   26.7450 C   0  0  0  0  0  0  0  0  0  0  0  0
  -28.1787  -20.2512   15.5729 C   0  0  0  0  0  0  0  0  0  0  0  0
  -17.5411  -29.5025   24.0467 C   0  0  0  0  0  0  0  0  0  0  0  0
  -22.9348  -25.9514   24.8942 C   0  0  0  0  0  0  0  0  0  0  0  0
  -25.4098  -27.2403   23.9154 C   0  0  0  0  0  0  0  0  0  0  0  0
  -18.8192  -30.0969   24.6328 C   0  0  0  0  0  0  0  0  0  0  0  0
  -24.9538  -18.9265   16.2954 C   0  0  0  0  0  0  0  0  0  0  0  0
  -19.9044  -30.1875   23.5647 C   0  0  0  0  0  0  0  0  0  0  0  0
  -27.3908  -26.3326   17.6674 C   0  0  0  0  0  0  0  0  0  0  0  0
  -28.6867  -25.6806   18.0616 C   0  0  0  0  0  0  0  0  0  0  0  0
  -25.2003  -17.9887   17.4785 C   0  0  0  0  0  0  0  0  0  0  0  0
  -26.1168  -18.9045   15.3059 C   0  0  0  0  0  0  0  0  0  0  0  0
  -27.6868  -18.2328   17.0830 C   0  0  0  0  0  0  0  0  0  0  0  0
  -20.2679  -28.7978   23.0281 C   0  0  1  0  0  0  0  0  0  0  0  0
  -23.1805  -27.4480   25.0598 C   0  0  1  0  0  0  0  0  0  0  0  0
  -27.5651  -24.8479   17.5054 C   0  0  0  0  0  0  0  0  0  0  0  0
  -26.5661  -18.2628   18.1362 C   0  0  2  0  0  0  0  0  0  0  0  0
  -30.1387  -28.5115   28.2933 C   0  0  0  0  0  0  0  0  0  0  0  0
  -25.4083  -23.6479   17.8195 C   0  0  0  0  0  0  0  0  0  0  0  0
  -25.7405  -31.1797   24.1211 C   0  0  0  0  0  0  0  0  0  0  0  0
  -28.0483  -31.1766   25.0919 C   0  0  0  0  0  0  0  0  0  0  0  0
  -26.0761  -31.5642   26.5694 C   0  0  0  0  0  0  0  0  0  0  0  0
  -28.2180  -25.2352   28.0621 C   0  0  0  0  0  0  0  0  0  0  0  0
  -27.5067  -22.4819   18.4827 C   0  0  0  0  0  0  0  0  0  0  0  0
  -29.9711  -22.7856   16.7525 C   0  0  0  0  0  0  0  0  0  0  0  0
  -30.2797  -21.5105   15.9721 C   0  0  0  0  0  0  0  0  0  0  0  0
  -26.6427  -24.4759   19.8349 C   0  0  0  0  0  0  0  0  0  1  0  0
  -26.5022  -29.2465   25.6536 C   0  0  1  0  0  0  0  0  0  0  0  0
  -28.9122  -27.6344   28.0954 C   0  0  2  0  0  0  0  0  0  0  0  0
  -26.7969  -23.8711   18.4187 C   0  0  1  0  0  0  0  0  0  0  0  0
  -26.5814  -30.7685   25.3462 C   0  0  0  0  0  0  0  0  0  0  0  0
  -26.3482  -16.0572   19.2181 N   0  0  0  0  0  0  0  0  0  0  0  0
  -30.0104  -22.5947   18.1856 N   0  0  0  0  0  0  0  0  0  0  0  0
  -26.8364  -17.3076   19.2840 N   0  0  0  0  0  0  0  0  0  0  0  0
  -24.6022  -27.7958   25.0139 N   0  0  0  0  0  0  0  0  0  0  0  0
  -27.3824  -19.1731   15.9930 N   0  0  0  0  0  0  0  0  0  0  0  0
  -28.1012  -18.7719   20.6503 N   0  0  0  0  0  0  0  0  0  0  0  0
  -27.9985  -14.9429   23.0428 N   0  0  0  0  0  0  0  0  0  0  0  0
  -21.1232  -28.1019   23.9654 N   0  0  0  0  0  0  0  0  0  0  0  0
  -27.2674  -28.8328   26.8249 N   0  0  0  0  0  0  0  0  0  0  0  0
  -29.3588  -20.4396   16.2819 N   0  0  0  0  0  0  0  0  0  0  0  0
  -29.3301  -26.2087   28.2129 N   0  3  0  0  0  0  0  0  0  0  0  0
  -28.7539  -17.1080   23.0256 O   0  0  0  0  0  0  0  0  0  0  0  0
  -23.1594  -29.0011   23.2814 O   0  0  0  0  0  0  0  0  0  0  0  0
  -24.4350  -29.2649   26.8167 O   0  0  0  0  0  0  0  0  0  0  0  0
  -28.6143  -27.3017   25.7210 O   0  0  0  0  0  0  0  0  0  0  0  0
  -27.8589  -20.9944   14.6389 O   0  0  0  0  0  0  0  0  0  0  0  0
  -25.4851  -10.1981   21.5579 O   0  0  0  0  0  0  0  0  0  0  0  0
  -25.9119  -23.5967   20.6890 O   0  0  0  0  0  0  0  0  0  1  0  0
  -20.2982   -8.5528   20.6669 F   0  0  0  0  0  0  0  0  0  0  0  0
  -23.9258   -9.2387   23.6293 F   0  0  0  0  0  0  0  0  0  0  0  0
  1  2  1  0  0  0  0
  1  6  2  0  0  0  0
  2  7  2  0  0  0  0
  3 14  1  0  0  0  0
  3 17  2  0  0  0  0
  4  9  2  0  0  0  0
  4 18  1  0  0  0  0
  5 10  1  0  0  0  0
  5 18  2  0  0  0  0
  6 20  1  0  0  0  0
  7 22  1  0  0  0  0
  8 11  2  0  0  0  0
  8 21  1  0  0  0  0
  9 24  1  0  0  0  0
 10 24  2  0  0  0  0
 11 25  1  0  0  0  0
 12 13  2  0  0  0  0
 12 26  1  0  0  0  0
 13 27  1  0  0  0  0
 14 30  2  0  0  0  0
 15 23  1  0  0  0  0
 15 25  2  0  0  0  0
 16 27  2  0  0  0  0
 16 28  1  0  0  0  0
 17 67  1  0  0  0  0
 18 29  1  0  0  0  0
 19 29  1  0  0  0  0
 19 31  2  0  0  0  0
 19 32  1  0  0  0  0
 20 22  2  0  0  0  0
 20 37  1  0  0  0  0
 21 23  2  0  0  0  0
 21 38  1  0  0  0  0
 22 48  1  0  0  0  0
 23 39  1  0  0  0  0
 24 82  1  0  0  0  0
 25 83  1  0  0  0  0
 26 28  2  0  0  0  0
 26 82  1  0  0  0  0
 27 84  1  0  0  0  0
 28 85  1  0  0  0  0
 29 66  2  0  0  0  0
 30 58  1  0  0  0  0
 30 67  1  0  0  0  0
 31 68  1  0  0  0  0
 31 71  1  0  0  0  0
 32 72  1  0  0  0  0
 32 77  2  0  0  0  0
 33 49  1  0  0  0  0
 33 73  1  0  0  0  0
 33 78  2  0  0  0  0
 34 62  1  0  0  0  0
 34 69  1  0  0  0  0
 34 79  2  0  0  0  0
 35 63  1  0  0  0  0
 35 74  1  0  0  0  0
 35 80  2  0  0  0  0
 36 70  1  0  0  0  0
 36 75  1  0  0  0  0
 36 81  2  0  0  0  0
 37 40  1  0  0  0  0
 38 49  1  0  0  0  0
 39 69  1  0  0  0  0
 40 42  1  0  0  0  0
 41 45  1  0  0  0  0
 41 46  1  0  0  0  0
 42 48  1  0  0  0  0
 43 44  1  0  0  0  0
 43 50  1  0  0  0  0
 44 50  1  0  0  0  0
 45 51  1  0  0  0  0
 46 70  1  0  0  0  0
 47 51  1  0  0  0  0
 47 70  1  0  0  0  0
 48 73  1  0  0  0  0
 49 69  1  0  0  0  0
 50 64  1  0  0  0  0
 51 68  1  0  0  0  0
 52 63  1  0  0  0  0
 53 64  1  0  0  0  0
 54 65  1  0  0  0  0
 55 65  1  0  0  0  0
 56 65  1  0  0  0  0
 57 76  1  0  0  0  0
 58 64  1  0  0  0  0
 59 60  1  0  0  0  0
 59 67  1  0  0  0  0
 60 75  1  0  0  0  0
 61 64  1  0  0  0  0
 61 83  1  0  0  0  0
 62 65  1  0  0  0  0
 62 74  1  0  0  0  0
 63 76  1  0  0  0  0
 66 68  1  0  0  0  0
M  CHG  1  76   1
M  ISO  4  36 100  61 101  75 100  83 101
M  END
> <Batch ID>
0122

> <Smiles>
CNC(C)C(=O)NC(C(=O)N1Cc2cc([101O:1][101CH2:1]C(C)(Cc3cccn3CC[100NH:0][100C:0](=O)N3CCCC(n4nc(-c5ccc(Oc6ccc(F)cc6F)cc5)c(C(N)=O)c4N)C3)C3CC3)ccc2CC1C(=O)NC1CCCc2ccccc21)C(C)(C)C

> <Shape>
0.224

> <Color>
0.072

> <Negative vol penalty>
0.000

$$$$

  -OEChem-04052320283D

 86 95  0     1  0  0  0  0  0999 V2000
  -20.6057  -34.4567   24.0222 C   0  0  0  0  0  0  0  0  0  0  0  0
  -21.3655  -33.6841   23.1497 C   0  0  0  0  0  0  0  0  0  0  0  0
  -22.9271   -9.7767   20.2614 C   0  0  0  0  0  0  0  0  0  0  0  0
  -24.2977   -9.6966   22.2494 C   0  0  0  0  0  0  0  0  0  0  0  0
  -21.2223  -35.4312   24.8059 C   0  0  0  0  0  0  0  0  0  0  0  0
  -22.7423  -33.8863   23.0596 C   0  0  0  0  0  0  0  0  0  0  0  0
  -25.3463  -29.5431   23.0349 C   0  0  0  0  0  0  0  0  0  0  0  0
  -22.2833   -8.6046   20.6581 C   0  0  0  0  0  0  0  0  0  0  0  0
  -23.6539   -8.5245   22.6461 C   0  0  0  0  0  0  0  0  0  0  0  0
  -25.3803  -28.8279   21.8386 C   0  0  0  0  0  0  0  0  0  0  0  0
  -20.7232   -7.6608   24.0902 C   0  0  0  0  0  0  0  0  0  0  0  0
  -20.3237   -7.5618   25.4229 C   0  0  0  0  0  0  0  0  0  0  0  0
  -27.5748  -29.7167   21.3767 C   0  0  0  0  0  0  0  0  0  0  0  0
  -21.7224   -5.6110   25.6973 C   0  0  0  0  0  0  0  0  0  0  0  0
  -23.9344  -10.3227   21.0571 C   0  0  0  0  0  0  0  0  0  0  0  0
  -24.0122  -12.7922   20.4222 C   0  0  0  0  0  0  0  0  0  0  0  0
  -22.6087  -35.6388   24.7324 C   0  0  0  0  0  0  0  0  0  0  0  0
  -26.4235  -30.3604   23.4065 C   0  0  0  0  0  0  0  0  0  0  0  0
  -23.3777  -34.8654   23.8420 C   0  0  0  0  0  0  0  0  0  0  0  0
  -27.5531  -30.4392   22.5795 C   0  0  0  0  0  0  0  0  0  0  0  0
  -22.6466   -7.9785   21.8504 C   0  0  0  0  0  0  0  0  0  0  0  0
  -26.4935  -28.9169   21.0079 C   0  0  0  0  0  0  0  0  0  0  0  0
  -21.6222   -6.7348   23.5609 C   0  0  0  0  0  0  0  0  0  0  0  0
  -20.8233   -6.5369   26.2265 C   0  0  0  0  0  0  0  0  0  0  0  0
  -22.1218   -5.7100   24.3645 C   0  0  0  0  0  0  0  0  0  0  0  0
  -24.6002  -11.5331   20.6477 C   0  0  0  0  0  0  0  0  0  0  0  0
  -25.0606  -13.5998   20.0546 C   0  0  0  0  0  0  0  0  0  0  0  0
  -22.6411  -13.1956   20.5350 C   0  0  0  0  0  0  0  0  0  0  0  0
  -26.7976  -33.4703   23.9470 C   0  0  0  0  0  0  0  0  0  0  0  0
  -29.7712  -32.5560   24.8658 C   0  0  0  0  0  0  0  0  0  0  0  0
  -32.2970  -30.2578   23.7014 C   0  0  0  0  0  0  0  0  0  0  0  0
  -30.3773  -15.2036   21.2876 C   0  0  0  0  0  0  0  0  0  0  0  0
  -23.2234  -36.7362   25.5646 C   0  0  0  0  0  0  0  0  0  0  0  0
  -26.3826  -31.1045   24.7130 C   0  0  0  0  0  0  0  0  0  0  0  0
  -28.7441  -31.2866   22.9425 C   0  0  0  0  0  0  0  0  0  0  0  0
  -24.7418  -36.6323   25.6838 C   0  0  0  0  0  0  0  0  0  0  0  0
  -29.0366  -26.0975   17.9833 C   0  0  0  0  0  0  0  0  0  0  0  0
  -29.8285  -12.4843   18.8290 C   0  0  0  0  0  0  0  0  0  0  0  0
  -25.3677  -36.3685   24.3180 C   0  0  0  0  0  0  0  0  0  0  0  0
  -28.3930  -12.0551   19.1265 C   0  0  0  0  0  0  0  0  0  0  0  0
  -28.5974  -24.7444   18.5419 C   0  0  0  0  0  0  0  0  0  0  0  0
  -27.9757  -27.1693   18.2096 C   0  0  0  0  0  0  0  0  0  0  0  0
  -30.3827  -18.3955   22.6471 C   0  0  0  0  0  0  0  0  0  0  0  0
  -28.6657  -18.2442   20.8001 C   0  0  0  0  0  0  0  0  0  0  0  0
  -27.1395  -25.9163   20.2410 C   0  0  0  0  0  0  0  0  0  0  0  0
  -30.5132  -13.0657   20.0619 C   0  0  0  0  0  0  0  0  0  0  0  0
  -30.0644  -16.9492   23.0168 C   0  0  0  0  0  0  0  0  0  0  0  0
  -28.3997  -16.7874   21.1909 C   0  0  0  0  0  0  0  0  0  0  0  0
  -28.3270  -13.7597   20.9898 C   0  0  0  0  0  0  0  0  0  0  0  0
  -24.8773  -35.0380   23.7341 C   0  0  1  0  0  0  0  0  0  0  0  0
  -27.3190  -32.3085   24.7445 C   0  0  1  0  0  0  0  0  0  0  0  0
  -27.5955  -13.2104   19.7558 C   0  0  2  0  0  0  0  0  0  0  0  0
  -28.2134  -24.8465   20.0227 C   0  0  1  0  0  0  0  0  0  0  0  0
  -29.1673  -19.0518   21.9953 C   0  0  0  0  0  0  0  0  0  0  0  0
  -27.5823  -27.2696   19.6826 C   0  0  2  0  0  0  0  0  0  1  0  0
  -34.1092  -29.0544   24.9524 C   0  0  0  0  0  0  0  0  0  0  0  0
  -31.5108  -34.9247   24.0453 C   0  0  0  0  0  0  0  0  0  0  0  0
  -33.4037  -33.3240   23.6952 C   0  0  0  0  0  0  0  0  0  0  0  0
  -32.4019  -33.5911   25.9641 C   0  0  0  0  0  0  0  0  0  0  0  0
  -31.3839  -27.6198   22.7185 C   0  0  0  0  0  0  0  0  0  0  0  0
  -28.8754  -22.6717   20.8253 C   0  0  0  0  0  0  0  0  0  0  0  0
  -28.3799  -21.3074   21.2667 C   0  0  0  0  0  0  0  0  0  0  0  0
  -31.0985  -32.3790   24.1686 C   0  0  1  0  0  0  0  0  0  0  0  0
  -32.7124  -28.9543   24.3594 C   0  0  2  0  0  0  0  0  0  0  0  0
  -32.0791  -33.5512   24.4545 C   0  0  0  0  0  0  0  0  0  0  0  0
  -25.9197  -11.5356   20.4404 N   0  0  0  0  0  0  0  0  0  0  0  0
  -26.1695  -12.8062   20.0808 N   0  0  0  0  0  0  0  0  0  0  0  0
  -28.6537  -32.0001   24.2271 N   0  0  0  0  0  0  0  0  0  0  0  0
  -29.7143  -14.1297   20.6703 N   0  0  0  0  0  0  0  0  0  0  0  0
  -29.5737  -16.2034   21.8563 N   0  0  0  0  0  0  0  0  0  0  0  0
  -25.1329  -14.9042   19.7146 N   0  0  0  0  0  0  0  0  0  0  0  0
  -22.1869  -13.6815   21.7687 N   0  0  0  0  0  0  0  0  0  0  0  0
  -25.5615  -33.9279   24.3618 N   0  0  0  0  0  0  0  0  0  0  0  0
  -31.5994  -31.0692   24.5710 N   0  0  0  0  0  0  0  0  0  0  0  0
  -27.7310  -23.5524   20.5012 N   0  0  0  0  0  0  0  0  0  0  0  0
  -29.5391  -20.4157   21.5382 N   0  3  0  0  0  0  0  0  0  0  0  0
  -32.7028  -27.8454   23.3638 N   0  3  0  0  0  0  0  0  0  0  0  0
  -21.8381  -13.1119   19.5750 O   0  0  0  0  0  0  0  0  0  0  0  0
  -27.4679  -33.9193   23.0246 O   0  0  0  0  0  0  0  0  0  0  0  0
  -29.7287  -33.1590   25.9411 O   0  0  0  0  0  0  0  0  0  0  0  0
  -32.5677  -30.5305   22.5340 O   0  0  0  0  0  0  0  0  0  0  0  0
  -31.6126  -15.2650   21.3255 O   0  0  0  0  0  0  0  0  0  0  0  0
  -22.0185   -6.8349   22.2378 O   0  0  0  0  0  0  0  0  0  0  0  0
  -26.5292  -28.2159   19.8319 O   0  0  0  0  0  0  0  0  0  1  0  0
  -20.4408   -6.4429   27.5067 F   0  0  0  0  0  0  0  0  0  0  0  0
  -22.9867   -4.8182   23.8620 F   0  0  0  0  0  0  0  0  0  0  0  0
  1  2  1  0  0  0  0
  1  5  2  0  0  0  0
  2  6  2  0  0  0  0
  3  8  2  0  0  0  0
  3 15  1  0  0  0  0
  4  9  1  0  0  0  0
  4 15  2  0  0  0  0
  5 17  1  0  0  0  0
  6 19  1  0  0  0  0
  7 10  2  0  0  0  0
  7 18  1  0  0  0  0
  8 21  1  0  0  0  0
  9 21  2  0  0  0  0
 10 22  1  0  0  0  0
 11 12  2  0  0  0  0
 11 23  1  0  0  0  0
 12 24  1  0  0  0  0
 13 20  1  0  0  0  0
 13 22  2  0  0  0  0
 14 24  2  0  0  0  0
 14 25  1  0  0  0  0
 15 26  1  0  0  0  0
 16 26  1  0  0  0  0
 16 27  2  0  0  0  0
 16 28  1  0  0  0  0
 17 19  2  0  0  0  0
 17 33  1  0  0  0  0
 18 20  2  0  0  0  0
 18 34  1  0  0  0  0
 19 50  1  0  0  0  0
 20 35  1  0  0  0  0
 21 83  1  0  0  0  0
 22 84  1  0  0  0  0
 23 25  2  0  0  0  0
 23 83  1  0  0  0  0
 24 85  1  0  0  0  0
 25 86  1  0  0  0  0
 26 66  2  0  0  0  0
 27 67  1  0  0  0  0
 27 71  1  0  0  0  0
 28 72  1  0  0  0  0
 28 78  2  0  0  0  0
 29 51  1  0  0  0  0
 29 73  1  0  0  0  0
 29 79  2  0  0  0  0
 30 63  1  0  0  0  0
 30 68  1  0  0  0  0
 30 80  2  0  0  0  0
 31 64  1  0  0  0  0
 31 74  1  0  0  0  0
 31 81  2  0  0  0  0
 32 69  1  0  0  0  0
 32 70  1  0  0  0  0
 32 82  2  0  0  0  0
 33 36  1  0  0  0  0
 34 51  1  0  0  0  0
 35 68  1  0  0  0  0
 36 39  1  0  0  0  0
 37 41  1  0  0  0  0
 37 42  1  0  0  0  0
 38 40  1  0  0  0  0
 38 46  1  0  0  0  0
 39 50  1  0  0  0  0
 40 52  1  0  0  0  0
 41 53  1  0  0  0  0
 42 55  1  0  0  0  0
 43 47  1  0  0  0  0
 43 54  1  0  0  0  0
 44 48  1  0  0  0  0
 44 54  1  0  0  0  0
 45 53  1  0  0  0  0
 45 55  1  0  0  0  0
 46 69  1  0  0  0  0
 47 70  1  0  0  0  0
 48 70  1  0  0  0  0
 49 52  1  0  0  0  0
 49 69  1  0  0  0  0
 50 73  1  0  0  0  0
 51 68  1  0  0  0  0
 52 67  1  0  0  0  0
 53 75  1  0  0  0  0
 54 76  1  0  0  0  0
 55 84  1  0  0  0  0
 56 64  1  0  0  0  0
 57 65  1  0  0  0  0
 58 65  1  0  0  0  0
 59 65  1  0  0  0  0
 60 77  1  0  0  0  0
 61 62  1  0  0  0  0
 61 75  1  0  0  0  0
 62 76  1  0  0  0  0
 63 65  1  0  0  0  0
 63 74  1  0  0  0  0
 64 77  1  0  0  0  0
 66 67  1  0  0  0  0
M  CHG  2  76   1  77   1
M  ISO  4  32 100  55 101  70 100  84 101
M  END
> <Batch ID>
0122

> <Smiles>
CNC(C)C(=O)NC(C(=O)N1Cc2cc([101O:1][101CH:1]3CCCC(NCCNC4CC[100N:0]([100C:0](=O)N5CCCC(n6nc(-c7ccc(Oc8ccc(F)cc8F)cc7)c(C(N)=O)c6N)C5)CC4)C3)ccc2CC1C(=O)NC1CCCc2ccccc21)C(C)(C)C

> <Shape>
0.329

> <Color>
0.132

> <Negative vol penalty>
0.000

$$$$

  -OEChem-04052320283D

 86 94  0     1  0  0  0  0  0999 V2000
  -33.0727  -17.6243   26.6700 C   0  0  0  0  0  0  0  0  0  0  0  0
  -33.3385  -18.2878   25.4765 C   0  0  0  0  0  0  0  0  0  0  0  0
  -23.0747   -9.8677   19.9419 C   0  0  0  0  0  0  0  0  0  0  0  0
  -23.8341   -9.8748   22.2354 C   0  0  0  0  0  0  0  0  0  0  0  0
  -32.2902  -18.2373   27.6477 C   0  0  0  0  0  0  0  0  0  0  0  0
  -32.8211  -19.5644   25.2595 C   0  0  0  0  0  0  0  0  0  0  0  0
  -36.2440  -22.7411   23.3009 C   0  0  0  0  0  0  0  0  0  0  0  0
  -22.3304   -8.7149   20.1918 C   0  0  0  0  0  0  0  0  0  0  0  0
  -23.0897   -8.7219   22.4854 C   0  0  0  0  0  0  0  0  0  0  0  0
  -36.5126  -22.6262   21.9376 C   0  0  0  0  0  0  0  0  0  0  0  0
  -19.8611   -7.9253   23.0873 C   0  0  0  0  0  0  0  0  0  0  0  0
  -19.1039   -7.8858   24.2581 C   0  0  0  0  0  0  0  0  0  0  0  0
  -35.0639  -24.5047   21.4999 C   0  0  0  0  0  0  0  0  0  0  0  0
  -20.3445   -5.9481   24.9951 C   0  0  0  0  0  0  0  0  0  0  0  0
  -30.0794  -19.2905   21.9624 C   0  0  0  0  0  0  0  0  0  0  0  0
  -31.1101  -17.7913   20.6567 C   0  0  0  0  0  0  0  0  0  0  0  0
  -23.8266  -10.4477   20.9637 C   0  0  0  0  0  0  0  0  0  0  0  0
  -24.1693  -12.9727   20.8433 C   0  0  0  0  0  0  0  0  0  0  0  0
  -31.7709  -19.5259   27.4466 C   0  0  0  0  0  0  0  0  0  0  0  0
  -35.3733  -23.7335   23.7736 C   0  0  0  0  0  0  0  0  0  0  0  0
  -32.0298  -20.1946   26.2349 C   0  0  0  0  0  0  0  0  0  0  0  0
  -34.7879  -24.6317   22.8699 C   0  0  0  0  0  0  0  0  0  0  0  0
  -29.6000  -18.0461   22.3074 C   0  0  0  0  0  0  0  0  0  0  0  0
  -30.2520  -17.0976   21.4813 C   0  0  0  0  0  0  0  0  0  0  0  0
  -22.3378   -8.1420   21.4636 C   0  0  0  0  0  0  0  0  0  0  0  0
  -35.9203  -23.5062   21.0366 C   0  0  0  0  0  0  0  0  0  0  0  0
  -20.8600   -6.9761   22.8704 C   0  0  0  0  0  0  0  0  0  0  0  0
  -19.3456   -6.8972   25.2120 C   0  0  0  0  0  0  0  0  0  0  0  0
  -21.1017   -5.9875   23.8243 C   0  0  0  0  0  0  0  0  0  0  0  0
  -24.5961  -11.6382   20.7059 C   0  0  0  0  0  0  0  0  0  0  0  0
  -25.2618  -13.7217   20.4802 C   0  0  0  0  0  0  0  0  0  0  0  0
  -22.8989  -13.4890   21.2619 C   0  0  0  0  0  0  0  0  0  0  0  0
  -32.5982  -23.7300   25.3236 C   0  0  0  0  0  0  0  0  0  0  0  0
  -33.0821  -26.9366   25.4010 C   0  0  0  0  0  0  0  0  0  0  0  0
  -34.5824  -29.6743   24.0222 C   0  0  0  0  0  0  0  0  0  0  0  0
  -30.7283  -14.7656   20.6559 C   0  0  0  0  0  0  0  0  0  0  0  0
  -30.8911  -20.1286   28.5131 C   0  0  0  0  0  0  0  0  0  0  0  0
  -35.1148  -23.8612   25.2498 C   0  0  0  0  0  0  0  0  0  0  0  0
  -33.8617  -25.7274   23.3284 C   0  0  0  0  0  0  0  0  0  0  0  0
  -30.6916  -21.6342   28.3590 C   0  0  0  0  0  0  0  0  0  0  0  0
  -29.6137  -12.3516   18.2879 C   0  0  0  0  0  0  0  0  0  0  0  0
  -30.3601  -21.9834   26.9117 C   0  0  0  0  0  0  0  0  0  0  0  0
  -28.1738  -12.0606   18.7172 C   0  0  0  0  0  0  0  0  0  0  0  0
  -30.5285  -12.5804   19.4897 C   0  0  0  0  0  0  0  0  0  0  0  0
  -28.6215  -13.3058   20.8704 C   0  0  0  0  0  0  0  0  0  0  0  0
  -31.5069  -21.5903   25.9727 C   0  0  1  0  0  0  0  0  0  0  0  0
  -33.8098  -24.5846   25.5676 C   0  0  1  0  0  0  0  0  0  0  0  0
  -27.6489  -13.1326   19.6924 C   0  0  2  0  0  0  0  0  0  0  0  0
  -27.2189  -18.4146   23.0478 C   0  0  0  0  0  0  0  0  0  0  0  0
  -29.0512  -18.1842   24.7637 C   0  0  0  0  0  0  0  0  0  0  0  0
  -34.7584  -32.1641   24.2817 C   0  0  0  0  0  0  0  0  0  0  0  0
  -30.3093  -27.2587   24.1689 C   0  0  0  0  0  0  0  0  0  0  0  0
  -30.9193  -29.6154   23.5841 C   0  0  0  0  0  0  0  0  0  0  0  0
  -30.8463  -28.9042   25.9740 C   0  0  0  0  0  0  0  0  0  0  0  0
  -37.5008  -29.5353   24.4938 C   0  0  0  0  0  0  0  0  0  0  0  0
  -31.5120  -20.2831   18.7966 C   0  0  0  0  0  0  0  0  0  0  0  0
  -36.0243  -22.0104   17.7536 C   0  0  0  0  0  0  0  0  0  0  0  0
  -31.7385  -20.1985   20.3097 C   0  0  0  0  0  0  0  0  0  0  0  0
  -32.2582  -21.4070   18.0857 C   0  0  0  0  0  0  0  0  0  0  0  0
  -34.5394  -22.2761   17.5569 C   0  0  0  0  0  0  0  0  0  0  0  0
  -36.4744  -22.0914   19.2071 C   0  0  0  0  0  0  0  0  0  1  0  0
  -28.5903  -17.7669   23.3482 C   0  0  0  0  0  0  0  0  0  0  0  0
  -32.7306  -28.0930   24.4964 C   0  0  1  0  0  0  0  0  0  0  0  0
  -35.3625  -30.8171   24.6468 C   0  0  2  0  0  0  0  0  0  0  0  0
  -31.2173  -28.4461   24.5467 C   0  0  0  0  0  0  0  0  0  0  0  0
  -25.8611  -11.5419   20.2879 N   0  0  0  0  0  0  0  0  0  0  0  0
  -30.9969  -19.1234   20.9582 N   0  0  0  0  0  0  0  0  0  0  0  0
  -26.2384  -12.8253   20.1595 N   0  0  0  0  0  0  0  0  0  0  0  0
  -33.6353  -25.8073   24.7810 N   0  0  0  0  0  0  0  0  0  0  0  0
  -29.9697  -13.6116   20.3667 N   0  0  0  0  0  0  0  0  0  0  0  0
  -25.4727  -15.0531   20.4070 N   0  0  0  0  0  0  0  0  0  0  0  0
  -21.8866  -12.5802   21.5991 N   0  0  0  0  0  0  0  0  0  0  0  0
  -30.0810  -15.6911   21.4739 N   0  0  0  0  0  0  0  0  0  0  0  0
  -32.5807  -22.5571   26.0540 N   0  0  0  0  0  0  0  0  0  0  0  0
  -33.6133  -29.1909   24.8757 N   0  0  0  0  0  0  0  0  0  0  0  0
  -36.7775  -30.7944   24.1798 N   0  3  0  0  0  0  0  0  0  0  0  0
  -33.7287  -21.2604   18.2687 N   0  3  0  0  0  0  0  0  0  0  0  0
  -22.6631  -14.7197   21.3190 O   0  0  0  0  0  0  0  0  0  0  0  0
  -31.7420  -24.1076   24.5324 O   0  0  0  0  0  0  0  0  0  0  0  0
  -32.8801  -27.0346   26.6139 O   0  0  0  0  0  0  0  0  0  0  0  0
  -34.8075  -29.2551   22.8890 O   0  0  0  0  0  0  0  0  0  0  0  0
  -31.8575  -14.9339   20.1885 O   0  0  0  0  0  0  0  0  0  0  0  0
  -21.6114   -7.0172   21.7080 O   0  0  0  0  0  0  0  0  0  0  0  0
  -36.1802  -23.3958   19.7054 O   0  0  0  0  0  0  0  0  0  1  0  0
  -18.6194   -6.8603   26.3369 F   0  0  0  0  0  0  0  0  0  0  0  0
  -22.0607   -5.0737   23.6220 F   0  0  0  0  0  0  0  0  0  0  0  0
  1  2  1  0  0  0  0
  1  5  2  0  0  0  0
  2  6  2  0  0  0  0
  3  8  2  0  0  0  0
  3 17  1  0  0  0  0
  4  9  1  0  0  0  0
  4 17  2  0  0  0  0
  5 19  1  0  0  0  0
  6 21  1  0  0  0  0
  7 10  2  0  0  0  0
  7 20  1  0  0  0  0
  8 25  1  0  0  0  0
  9 25  2  0  0  0  0
 10 26  1  0  0  0  0
 11 12  2  0  0  0  0
 11 27  1  0  0  0  0
 12 28  1  0  0  0  0
 13 22  1  0  0  0  0
 13 26  2  0  0  0  0
 14 28  2  0  0  0  0
 14 29  1  0  0  0  0
 15 23  2  0  0  0  0
 15 67  1  0  0  0  0
 16 24  2  0  0  0  0
 16 67  1  0  0  0  0
 17 30  1  0  0  0  0
 18 30  1  0  0  0  0
 18 31  2  0  0  0  0
 18 32  1  0  0  0  0
 19 21  2  0  0  0  0
 19 37  1  0  0  0  0
 20 22  2  0  0  0  0
 20 38  1  0  0  0  0
 21 46  1  0  0  0  0
 22 39  1  0  0  0  0
 23 24  1  0  0  0  0
 23 62  1  0  0  0  0
 24 73  1  0  0  0  0
 25 83  1  0  0  0  0
 26 84  1  0  0  0  0
 27 29  2  0  0  0  0
 27 83  1  0  0  0  0
 28 85  1  0  0  0  0
 29 86  1  0  0  0  0
 30 66  2  0  0  0  0
 31 68  1  0  0  0  0
 31 71  1  0  0  0  0
 32 72  1  0  0  0  0
 32 78  2  0  0  0  0
 33 47  1  0  0  0  0
 33 74  1  0  0  0  0
 33 79  2  0  0  0  0
 34 63  1  0  0  0  0
 34 69  1  0  0  0  0
 34 80  2  0  0  0  0
 35 64  1  0  0  0  0
 35 75  1  0  0  0  0
 35 81  2  0  0  0  0
 36 70  1  0  0  0  0
 36 73  1  0  0  0  0
 36 82  2  0  0  0  0
 37 40  1  0  0  0  0
 38 47  1  0  0  0  0
 39 69  1  0  0  0  0
 40 42  1  0  0  0  0
 41 43  1  0  0  0  0
 41 44  1  0  0  0  0
 42 46  1  0  0  0  0
 43 48  1  0  0  0  0
 44 70  1  0  0  0  0
 45 48  1  0  0  0  0
 45 70  1  0  0  0  0
 46 74  1  0  0  0  0
 47 69  1  0  0  0  0
 48 68  1  0  0  0  0
 49 62  1  0  0  0  0
 50 62  1  0  0  0  0
 51 64  1  0  0  0  0
 52 65  1  0  0  0  0
 53 65  1  0  0  0  0
 54 65  1  0  0  0  0
 55 76  1  0  0  0  0
 56 58  1  0  0  0  0
 56 59  1  0  0  0  0
 57 60  1  0  0  0  0
 57 61  1  0  0  0  0
 58 67  1  0  0  0  0
 59 77  1  0  0  0  0
 60 77  1  0  0  0  0
 61 84  1  0  0  0  0
 63 65  1  0  0  0  0
 63 75  1  0  0  0  0
 64 76  1  0  0  0  0
 66 68  1  0  0  0  0
M  CHG  2  76   1  77   1
M  ISO  4  36 100  61 101  73 100  84 101
M  END
> <Batch ID>
0122

> <Smiles>
CNC(C)C(=O)NC(C(=O)N1Cc2cc([101O:1][101CH2:1]CCNCCCn3cc([100NH:0][100C:0](=O)N4CCCC(n5nc(-c6ccc(Oc7ccc(F)cc7F)cc6)c(C(N)=O)c5N)C4)c(C(C)C)c3)ccc2CC1C(=O)NC1CCCc2ccccc21)C(C)(C)C

> <Shape>
0.175

> <Color>
0.188

> <Negative vol penalty>
0.000

$$$$

  -OEChem-04052320283D

 84 92  0     1  0  0  0  0  0999 V2000
  -29.1221  -31.6317   26.7247 C   0  0  0  0  0  0  0  0  0  0  0  0
  -29.0925  -30.8832   25.5523 C   0  0  0  0  0  0  0  0  0  0  0  0
  -27.8567  -12.5521   22.7111 C   0  0  0  0  0  0  0  0  0  0  0  0
  -26.9095  -12.7844   20.5007 C   0  0  0  0  0  0  0  0  0  0  0  0
  -27.9661  -31.7690   27.4920 C   0  0  0  0  0  0  0  0  0  0  0  0
  -27.9071  -30.2707   25.1472 C   0  0  0  0  0  0  0  0  0  0  0  0
  -26.9898  -30.8916   20.2058 C   0  0  0  0  0  0  0  0  0  0  0  0
  -27.2686  -11.2929   22.8308 C   0  0  0  0  0  0  0  0  0  0  0  0
  -26.3214  -11.5252   20.6204 C   0  0  0  0  0  0  0  0  0  0  0  0
  -27.7014  -30.0840   19.3197 C   0  0  0  0  0  0  0  0  0  0  0  0
  -23.6136  -10.1733   22.1274 C   0  0  0  0  0  0  0  0  0  0  0  0
  -22.2833  -10.0389   21.7301 C   0  0  0  0  0  0  0  0  0  0  0  0
  -25.7864  -28.6314   19.1151 C   0  0  0  0  0  0  0  0  0  0  0  0
  -30.2746  -24.0452   17.0598 C   0  0  0  0  0  0  0  0  0  0  0  0
  -22.9398   -8.3914   20.0894 C   0  0  0  0  0  0  0  0  0  0  0  0
  -27.6771  -13.2978   21.5461 C   0  0  0  0  0  0  0  0  0  0  0  0
  -29.5595  -14.8962   20.9064 C   0  0  0  0  0  0  0  0  0  0  0  0
  -26.7635  -31.1659   27.0911 C   0  0  0  0  0  0  0  0  0  0  0  0
  -25.6726  -30.5685   20.5622 C   0  0  0  0  0  0  0  0  0  0  0  0
  -26.7343  -30.3990   25.9106 C   0  0  0  0  0  0  0  0  0  0  0  0
  -25.0593  -29.4379   20.0039 C   0  0  0  0  0  0  0  0  0  0  0  0
  -30.5476  -22.7058   16.8055 C   0  0  0  0  0  0  0  0  0  0  0  0
  -26.5010  -10.7795   21.7855 C   0  0  0  0  0  0  0  0  0  0  0  0
  -27.1007  -28.9521   18.7764 C   0  0  0  0  0  0  0  0  0  0  0  0
  -24.6071   -9.4168   21.5057 C   0  0  0  0  0  0  0  0  0  0  0  0
  -21.9464   -9.1479   20.7111 C   0  0  0  0  0  0  0  0  0  0  0  0
  -24.2701   -8.5258   20.4867 C   0  0  0  0  0  0  0  0  0  0  0  0
  -29.9314  -21.7195   17.5677 C   0  0  0  0  0  0  0  0  0  0  0  0
  -28.2838  -14.5988   21.4221 C   0  0  0  0  0  0  0  0  0  0  0  0
  -29.3850  -24.3435   18.0793 C   0  0  0  0  0  0  0  0  0  0  0  0
  -29.0573  -22.1219   18.5646 C   0  0  0  0  0  0  0  0  0  0  0  0
  -29.6602  -16.2624   21.0060 C   0  0  0  0  0  0  0  0  0  0  0  0
  -30.5637  -14.0162   20.3841 C   0  0  0  0  0  0  0  0  0  0  0  0
  -24.2019  -29.8283   23.2812 C   0  0  0  0  0  0  0  0  0  0  0  0
  -21.5453  -29.9514   21.4238 C   0  0  0  0  0  0  0  0  0  0  0  0
  -20.1786  -29.7330   18.3043 C   0  0  0  0  0  0  0  0  0  0  0  0
  -27.5084  -21.3620   20.4003 C   0  0  0  0  0  0  0  0  0  0  0  0
  -25.5515  -31.3033   27.9780 C   0  0  0  0  0  0  0  0  0  0  0  0
  -24.9094  -31.4647   21.4986 C   0  0  0  0  0  0  0  0  0  0  0  0
  -23.6407  -29.0586   20.3386 C   0  0  0  0  0  0  0  0  0  0  0  0
  -24.2434  -30.9333   27.2836 C   0  0  0  0  0  0  0  0  0  0  0  0
  -26.7216  -19.6159   23.4018 C   0  0  0  0  0  0  0  0  0  0  0  0
  -24.3962  -29.6206   26.5217 C   0  0  0  0  0  0  0  0  0  0  0  0
  -27.1629  -18.1795   23.1119 C   0  0  0  0  0  0  0  0  0  0  0  0
  -26.1277  -20.2874   22.1649 C   0  0  0  0  0  0  0  0  0  0  0  0
  -27.4169  -18.8065   20.6769 C   0  0  0  0  0  0  0  0  0  0  0  0
  -25.4615  -29.7400   25.4251 C   0  0  1  0  0  0  0  0  0  0  0  0
  -23.7485  -30.7565   22.1900 C   0  0  1  0  0  0  0  0  0  0  0  0
  -28.0813  -18.1106   21.8761 C   0  0  2  0  0  0  0  0  0  0  0  0
  -32.9163  -22.9383   15.9755 C   0  0  0  0  0  0  0  0  0  0  0  0
  -31.0066  -22.8607   14.3318 C   0  0  0  0  0  0  0  0  0  0  0  0
  -17.9758  -29.8396   17.1069 C   0  0  0  0  0  0  0  0  0  0  0  0
  -20.8695  -27.1485   22.4224 C   0  0  0  0  0  0  0  0  0  0  0  0
  -19.2453  -26.9409   20.5284 C   0  0  0  0  0  0  0  0  0  0  0  0
  -18.9142  -28.6998   22.2660 C   0  0  0  0  0  0  0  0  0  0  0  0
  -21.0358  -32.0624   16.6925 C   0  0  0  0  0  0  0  0  0  0  0  0
  -29.7222  -26.7634   17.5737 C   0  0  0  0  0  0  0  0  0  0  0  0
  -29.2093  -28.1016   18.0787 C   0  0  0  0  0  0  0  0  0  1  0  0
  -31.5069  -22.3813   15.7062 C   0  0  0  0  0  0  0  0  0  0  0  0
  -20.7824  -28.9572   20.5820 C   0  0  1  0  0  0  0  0  0  0  0  0
  -19.1923  -30.6249   17.5720 C   0  0  2  0  0  0  0  0  0  0  0  0
  -19.9802  -27.9424   21.4447 C   0  0  0  0  0  0  0  0  0  0  0  0
  -27.6216  -15.6884   21.8198 N   0  0  0  0  0  0  0  0  0  0  0  0
  -28.7671  -23.4130   18.8410 N   0  0  0  0  0  0  0  0  0  0  0  0
  -28.4846  -16.6838   21.5541 N   0  0  0  0  0  0  0  0  0  0  0  0
  -22.9382  -29.9630   21.2638 N   0  0  0  0  0  0  0  0  0  0  0  0
  -27.0548  -20.1867   21.0356 N   0  0  0  0  0  0  0  0  0  0  0  0
  -30.6388  -17.1323   20.6773 N   0  0  0  0  0  0  0  0  0  0  0  0
  -30.2969  -12.6406   20.3547 N   0  0  0  0  0  0  0  0  0  0  0  0
  -28.4118  -21.1435   19.3607 N   0  0  0  0  0  0  0  0  0  0  0  0
  -29.1227  -25.6818   18.3211 N   0  0  0  0  0  0  0  0  0  0  0  0
  -24.9303  -30.4468   24.2794 N   0  0  0  0  0  0  0  0  0  0  0  0
  -19.9621  -29.7424   19.6661 N   0  0  0  0  0  0  0  0  0  0  0  0
  -19.8382  -31.2412   16.3788 N   0  3  0  0  0  0  0  0  0  0  0  0
  -31.6715  -14.4356   19.9713 O   0  0  0  0  0  0  0  0  0  0  0  0
  -23.9110  -28.6394   23.2226 O   0  0  0  0  0  0  0  0  0  0  0  0
  -20.9275  -30.6952   22.1897 O   0  0  0  0  0  0  0  0  0  0  0  0
  -21.0512  -29.0893   17.7258 O   0  0  0  0  0  0  0  0  0  0  0  0
  -27.1449  -22.4813   20.7702 O   0  0  0  0  0  0  0  0  0  0  0  0
  -25.9272   -9.5508   21.9018 O   0  0  0  0  0  0  0  0  0  0  0  0
  -27.7933  -28.1617   17.9118 O   0  0  0  0  0  0  0  0  0  1  0  0
  -20.6687   -9.0178   20.3307 F   0  0  0  0  0  0  0  0  0  0  0  0
  -25.2200   -7.7955   19.8865 F   0  0  0  0  0  0  0  0  0  0  0  0
  -30.2918  -19.8827   17.2352 Br  0  0  0  0  0  0  0  0  0  0  0  0
  1  2  1  0  0  0  0
  1  5  2  0  0  0  0
  2  6  2  0  0  0  0
  3  8  2  0  0  0  0
  3 16  1  0  0  0  0
  4  9  1  0  0  0  0
  4 16  2  0  0  0  0
  5 18  1  0  0  0  0
  6 20  1  0  0  0  0
  7 10  2  0  0  0  0
  7 19  1  0  0  0  0
  8 23  1  0  0  0  0
  9 23  2  0  0  0  0
 10 24  1  0  0  0  0
 11 12  2  0  0  0  0
 11 25  1  0  0  0  0
 12 26  1  0  0  0  0
 13 21  1  0  0  0  0
 13 24  2  0  0  0  0
 14 22  2  0  0  0  0
 14 30  1  0  0  0  0
 15 26  2  0  0  0  0
 15 27  1  0  0  0  0
 16 29  1  0  0  0  0
 17 29  1  0  0  0  0
 17 32  2  0  0  0  0
 17 33  1  0  0  0  0
 18 20  2  0  0  0  0
 18 38  1  0  0  0  0
 19 21  2  0  0  0  0
 19 39  1  0  0  0  0
 20 47  1  0  0  0  0
 21 40  1  0  0  0  0
 22 28  1  0  0  0  0
 22 59  1  0  0  0  0
 23 80  1  0  0  0  0
 24 81  1  0  0  0  0
 25 27  2  0  0  0  0
 25 80  1  0  0  0  0
 26 82  1  0  0  0  0
 27 83  1  0  0  0  0
 28 31  2  0  0  0  0
 28 84  1  0  0  0  0
 29 63  2  0  0  0  0
 30 64  2  0  0  0  0
 30 71  1  0  0  0  0
 31 64  1  0  0  0  0
 31 70  1  0  0  0  0
 32 65  1  0  0  0  0
 32 68  1  0  0  0  0
 33 69  1  0  0  0  0
 33 75  2  0  0  0  0
 34 48  1  0  0  0  0
 34 72  1  0  0  0  0
 34 76  2  0  0  0  0
 35 60  1  0  0  0  0
 35 66  1  0  0  0  0
 35 77  2  0  0  0  0
 36 61  1  0  0  0  0
 36 73  1  0  0  0  0
 36 78  2  0  0  0  0
 37 67  1  0  0  0  0
 37 70  1  0  0  0  0
 37 79  2  0  0  0  0
 38 41  1  0  0  0  0
 39 48  1  0  0  0  0
 40 66  1  0  0  0  0
 41 43  1  0  0  0  0
 42 44  1  0  0  0  0
 42 45  1  0  0  0  0
 43 47  1  0  0  0  0
 44 49  1  0  0  0  0
 45 67  1  0  0  0  0
 46 49  1  0  0  0  0
 46 67  1  0  0  0  0
 47 72  1  0  0  0  0
 48 66  1  0  0  0  0
 49 65  1  0  0  0  0
 50 59  1  0  0  0  0
 51 59  1  0  0  0  0
 52 61  1  0  0  0  0
 53 62  1  0  0  0  0
 54 62  1  0  0  0  0
 55 62  1  0  0  0  0
 56 74  1  0  0  0  0
 57 58  1  0  0  0  0
 57 71  1  0  0  0  0
 58 81  1  0  0  0  0
 60 62  1  0  0  0  0
 60 73  1  0  0  0  0
 61 74  1  0  0  0  0
 63 65  1  0  0  0  0
M  CHG  1  74   1
M  ISO  4  37 100  58 101  70 100  81 101
M  END
> <Batch ID>
0122

> <Smiles>
CNC(C)C(=O)NC(C(=O)N1Cc2cc([101O:1][101CH2:1]CNc3cc(C(C)C)c(Br)c([100NH:0][100C:0](=O)N4CCCC(n5nc(-c6ccc(Oc7ccc(F)cc7F)cc6)c(C(N)=O)c5N)C4)n3)ccc2CC1C(=O)NC1CCCc2ccccc21)C(C)(C)C

> <Shape>
0.283

> <Color>
0.090

> <Negative vol penalty>
0.000

$$$$

  -OEChem-04052320283D

 86 95  0     1  0  0  0  0  0999 V2000
  -20.9378  -31.5428   23.9988 C   0  0  0  0  0  0  0  0  0  0  0  0
  -21.4221  -30.2454   23.8669 C   0  0  0  0  0  0  0  0  0  0  0  0
  -22.8559   -9.9094   20.0610 C   0  0  0  0  0  0  0  0  0  0  0  0
  -24.4457   -9.4389   21.8184 C   0  0  0  0  0  0  0  0  0  0  0  0
  -20.9446  -32.4031   22.9016 C   0  0  0  0  0  0  0  0  0  0  0  0
  -21.9125  -29.8070   22.6374 C   0  0  0  0  0  0  0  0  0  0  0  0
  -26.2670  -27.2598   23.0792 C   0  0  0  0  0  0  0  0  0  0  0  0
  -22.2472   -8.6738   20.2808 C   0  0  0  0  0  0  0  0  0  0  0  0
  -23.8369   -8.2033   22.0383 C   0  0  0  0  0  0  0  0  0  0  0  0
  -26.1896  -25.9367   23.5118 C   0  0  0  0  0  0  0  0  0  0  0  0
  -21.0816   -7.0293   23.6037 C   0  0  0  0  0  0  0  0  0  0  0  0
  -20.8373   -6.6549   24.9249 C   0  0  0  0  0  0  0  0  0  0  0  0
  -30.9043  -19.2660   22.0749 C   0  0  0  0  0  0  0  0  0  0  0  0
  -31.5817  -18.0232   22.1347 C   0  0  0  0  0  0  0  0  0  0  0  0
  -26.4094  -25.1842   21.2305 C   0  0  0  0  0  0  0  0  0  0  0  0
  -22.2332   -4.7051   24.6304 C   0  0  0  0  0  0  0  0  0  0  0  0
  -23.9552  -10.2920   20.8297 C   0  0  0  0  0  0  0  0  0  0  0  0
  -23.9910  -12.8399   20.7094 C   0  0  0  0  0  0  0  0  0  0  0  0
  -21.4444  -31.9782   21.6605 C   0  0  0  0  0  0  0  0  0  0  0  0
  -26.4055  -27.5558   21.7155 C   0  0  0  0  0  0  0  0  0  0  0  0
  -21.9249  -30.6620   21.5222 C   0  0  0  0  0  0  0  0  0  0  0  0
  -26.4909  -26.5118   20.7834 C   0  0  0  0  0  0  0  0  0  0  0  0
  -22.7377   -7.8208   21.2695 C   0  0  0  0  0  0  0  0  0  0  0  0
  -26.2579  -24.8988   22.5871 C   0  0  0  0  0  0  0  0  0  0  0  0
  -21.9016   -6.2416   22.7957 C   0  0  0  0  0  0  0  0  0  0  0  0
  -21.4131   -5.4928   25.4383 C   0  0  0  0  0  0  0  0  0  0  0  0
  -22.4774   -5.0795   23.3091 C   0  0  0  0  0  0  0  0  0  0  0  0
  -24.5848  -11.5680   20.6027 C   0  0  0  0  0  0  0  0  0  0  0  0
  -29.6892  -19.1028   22.7027 C   0  0  0  0  0  0  0  0  0  0  0  0
  -30.7599  -17.1382   22.7971 C   0  0  0  0  0  0  0  0  0  0  0  0
  -25.0002  -13.7174   20.3963 C   0  0  0  0  0  0  0  0  0  0  0  0
  -22.6472  -13.1963   21.0601 C   0  0  0  0  0  0  0  0  0  0  0  0
  -24.6550  -29.1168   19.5700 C   0  0  0  0  0  0  0  0  0  0  0  0
  -27.2332  -28.6045   17.6691 C   0  0  0  0  0  0  0  0  0  0  0  0
  -29.5246  -25.8959   17.0133 C   0  0  0  0  0  0  0  0  0  0  0  0
  -30.7134  -14.3781   21.0577 C   0  0  0  0  0  0  0  0  0  0  0  0
  -21.3876  -32.9290   20.4910 C   0  0  0  0  0  0  0  0  0  0  0  0
  -26.5143  -28.9876   21.2677 C   0  0  0  0  0  0  0  0  0  0  0  0
  -26.6599  -26.7759   19.3102 C   0  0  0  0  0  0  0  0  0  0  0  0
  -22.2704  -32.5068   19.3194 C   0  0  0  0  0  0  0  0  0  0  0  0
  -29.2855  -13.3715   17.9554 C   0  0  0  0  0  0  0  0  0  0  0  0
  -22.0795  -31.0245   19.0141 C   0  0  0  0  0  0  0  0  0  0  0  0
  -27.9720  -20.6025   21.6012 C   0  0  0  0  0  0  0  0  0  0  0  0
  -29.0224  -21.2798   23.8097 C   0  0  0  0  0  0  0  0  0  0  0  0
  -27.8726  -12.9220   18.3317 C   0  0  0  0  0  0  0  0  0  0  0  0
  -26.8418  -21.6004   21.8401 C   0  0  0  0  0  0  0  0  0  0  0  0
  -27.8864  -22.2737   24.0373 C   0  0  0  0  0  0  0  0  0  0  0  0
  -30.3005  -13.0067   19.0365 C   0  0  0  0  0  0  0  0  0  0  0  0
  -28.5464  -13.0303   20.7675 C   0  0  0  0  0  0  0  0  0  0  0  0
  -22.4880  -30.1576   20.2112 C   0  0  1  0  0  0  0  0  0  0  0  0
  -28.5693  -20.1020   22.9285 C   0  0  0  0  0  0  0  0  0  0  0  0
  -26.1379  -29.1858   19.8027 C   0  0  1  0  0  0  0  0  0  0  0  0
  -27.4786  -13.4258   19.7332 C   0  0  2  0  0  0  0  0  0  0  0  0
  -27.2938  -22.7654   22.7189 C   0  0  0  0  0  0  0  0  0  1  0  0
  -31.9020  -25.9283   16.2104 C   0  0  0  0  0  0  0  0  0  0  0  0
  -27.2168  -17.2244   22.9998 C   0  0  0  0  0  0  0  0  0  0  0  0
  -28.2635  -17.9006   25.2028 C   0  0  0  0  0  0  0  0  0  0  0  0
  -25.9979  -28.2650   14.8999 C   0  0  0  0  0  0  0  0  0  0  0  0
  -27.8917  -26.7338   14.3193 C   0  0  0  0  0  0  0  0  0  0  0  0
  -28.3491  -29.1172   14.8960 C   0  0  0  0  0  0  0  0  0  0  0  0
  -30.4517  -24.3090   19.3330 C   0  0  0  0  0  0  0  0  0  0  0  0
  -30.9755  -15.7154   23.1318 C   0  0  0  0  0  0  0  0  0  0  0  0
  -27.6630  -27.5096   16.7228 C   0  0  1  0  0  0  0  0  0  0  0  0
  -30.9855  -25.8229   17.4195 C   0  0  2  0  0  0  0  0  0  0  0  0
  -28.4904  -17.2281   23.8476 C   0  0  0  0  0  0  0  0  0  0  0  0
  -27.4588  -27.9010   15.2319 C   0  0  0  0  0  0  0  0  0  0  0  0
  -25.8715  -11.6276   20.2494 N   0  0  0  0  0  0  0  0  0  0  0  0
  -29.6121  -17.8054   23.1374 N   0  0  0  0  0  0  0  0  0  0  0  0
  -26.0945  -12.9476   20.1312 N   0  0  0  0  0  0  0  0  0  0  0  0
  -26.7551  -28.1926   18.9212 N   0  0  0  0  0  0  0  0  0  0  0  0
  -29.8684  -13.5149   20.3407 N   0  0  0  0  0  0  0  0  0  0  0  0
  -25.0494  -15.0645   20.3247 N   0  0  0  0  0  0  0  0  0  0  0  0
  -22.3448  -13.4140   22.4112 N   0  0  0  0  0  0  0  0  0  0  0  0
  -23.9290  -30.0481   20.2876 N   0  0  0  0  0  0  0  0  0  0  0  0
  -29.0420  -27.1862   17.0721 N   0  0  0  0  0  0  0  0  0  0  0  0
  -30.2248  -14.8185   22.2817 N   0  0  0  0  0  0  0  0  0  0  0  0
  -31.2670  -24.5335   18.1116 N   0  3  0  0  0  0  0  0  0  0  0  0
  -21.7378  -13.3022   20.2027 O   0  0  0  0  0  0  0  0  0  0  0  0
  -24.2032  -28.2814   18.7955 O   0  0  0  0  0  0  0  0  0  0  0  0
  -27.3251  -29.7820   17.3133 O   0  0  0  0  0  0  0  0  0  0  0  0
  -28.8775  -24.9077   16.6739 O   0  0  0  0  0  0  0  0  0  0  0  0
  -31.8188  -14.7344   20.6358 O   0  0  0  0  0  0  0  0  0  0  0  0
  -22.1438   -6.6151   21.4844 O   0  0  0  0  0  0  0  0  0  0  0  0
  -26.1820  -23.6064   23.0067 O   0  0  0  0  0  0  0  0  0  1  0  0
  -21.1797   -5.1342   26.7076 F   0  0  0  0  0  0  0  0  0  0  0  0
  -23.2670   -4.3193   22.5381 F   0  0  0  0  0  0  0  0  0  0  0  0
  1  2  1  0  0  0  0
  1  5  2  0  0  0  0
  2  6  2  0  0  0  0
  3  8  2  0  0  0  0
  3 17  1  0  0  0  0
  4  9  1  0  0  0  0
  4 17  2  0  0  0  0
  5 19  1  0  0  0  0
  6 21  1  0  0  0  0
  7 10  2  0  0  0  0
  7 20  1  0  0  0  0
  8 23  1  0  0  0  0
  9 23  2  0  0  0  0
 10 24  1  0  0  0  0
 11 12  2  0  0  0  0
 11 25  1  0  0  0  0
 12 26  1  0  0  0  0
 13 14  1  0  0  0  0
 13 29  2  0  0  0  0
 14 30  2  0  0  0  0
 15 22  1  0  0  0  0
 15 24  2  0  0  0  0
 16 26  2  0  0  0  0
 16 27  1  0  0  0  0
 17 28  1  0  0  0  0
 18 28  1  0  0  0  0
 18 31  2  0  0  0  0
 18 32  1  0  0  0  0
 19 21  2  0  0  0  0
 19 37  1  0  0  0  0
 20 22  2  0  0  0  0
 20 38  1  0  0  0  0
 21 50  1  0  0  0  0
 22 39  1  0  0  0  0
 23 83  1  0  0  0  0
 24 84  1  0  0  0  0
 25 27  2  0  0  0  0
 25 83  1  0  0  0  0
 26 85  1  0  0  0  0
 27 86  1  0  0  0  0
 28 67  2  0  0  0  0
 29 51  1  0  0  0  0
 29 68  1  0  0  0  0
 30 62  1  0  0  0  0
 30 68  1  0  0  0  0
 31 69  1  0  0  0  0
 31 72  1  0  0  0  0
 32 73  1  0  0  0  0
 32 78  2  0  0  0  0
 33 52  1  0  0  0  0
 33 74  1  0  0  0  0
 33 79  2  0  0  0  0
 34 63  1  0  0  0  0
 34 70  1  0  0  0  0
 34 80  2  0  0  0  0
 35 64  1  0  0  0  0
 35 75  1  0  0  0  0
 35 81  2  0  0  0  0
 36 71  1  0  0  0  0
 36 76  1  0  0  0  0
 36 82  2  0  0  0  0
 37 40  1  0  0  0  0
 38 52  1  0  0  0  0
 39 70  1  0  0  0  0
 40 42  1  0  0  0  0
 41 45  1  0  0  0  0
 41 48  1  0  0  0  0
 42 50  1  0  0  0  0
 43 46  1  0  0  0  0
 43 51  1  0  0  0  0
 44 47  1  0  0  0  0
 44 51  1  0  0  0  0
 45 53  1  0  0  0  0
 46 54  1  0  0  0  0
 47 54  1  0  0  0  0
 48 71  1  0  0  0  0
 49 53  1  0  0  0  0
 49 71  1  0  0  0  0
 50 74  1  0  0  0  0
 52 70  1  0  0  0  0
 53 69  1  0  0  0  0
 54 84  1  0  0  0  0
 55 64  1  0  0  0  0
 56 65  1  0  0  0  0
 57 65  1  0  0  0  0
 58 66  1  0  0  0  0
 59 66  1  0  0  0  0
 60 66  1  0  0  0  0
 61 77  1  0  0  0  0
 62 76  1  0  0  0  0
 63 66  1  0  0  0  0
 63 75  1  0  0  0  0
 64 77  1  0  0  0  0
 65 68  1  0  0  0  0
 67 69  1  0  0  0  0
M  CHG  1  77   1
M  ISO  4  36 100  54 101  76 100  84 101
M  END
> <Batch ID>
0122

> <Smiles>
CNC(C)C(=O)NC(C(=O)N1Cc2cc([101O:1][101CH:1]3CCC(c4ccc(C[100NH:0][100C:0](=O)N5CCCC(n6nc(-c7ccc(Oc8ccc(F)cc8F)cc7)c(C(N)=O)c6N)C5)n4C(C)C)CC3)ccc2CC1C(=O)NC1CCCc2ccccc21)C(C)(C)C

> <Shape>
0.293

> <Color>
0.178

> <Negative vol penalty>
0.000

$$$$

  -OEChem-04052320283D

 88 96  0     1  0  0  0  0  0999 V2000
  -32.2316  -23.5636   16.6889 C   0  0  0  0  0  0  0  0  0  0  0  0
  -31.2201  -23.1710   17.5595 C   0  0  0  0  0  0  0  0  0  0  0  0
  -24.3694   -8.9600   21.5291 C   0  0  0  0  0  0  0  0  0  0  0  0
  -24.5694  -10.3466   23.4975 C   0  0  0  0  0  0  0  0  0  0  0  0
  -32.8868  -24.7785   16.8859 C   0  0  0  0  0  0  0  0  0  0  0  0
  -30.8639  -23.9926   18.6284 C   0  0  0  0  0  0  0  0  0  0  0  0
  -25.8463  -24.4359   19.1499 C   0  0  0  0  0  0  0  0  0  0  0  0
  -24.0159   -7.8741   22.3300 C   0  0  0  0  0  0  0  0  0  0  0  0
  -24.2159   -9.2606   24.2984 C   0  0  0  0  0  0  0  0  0  0  0  0
  -25.1723  -23.3738   19.7511 C   0  0  0  0  0  0  0  0  0  0  0  0
  -22.7096   -4.8295   23.8264 C   0  0  0  0  0  0  0  0  0  0  0  0
  -21.6323   -4.0444   23.4158 C   0  0  0  0  0  0  0  0  0  0  0  0
  -25.1244  -24.5907   21.8334 C   0  0  0  0  0  0  0  0  0  0  0  0
  -27.3959  -21.3618   23.0195 C   0  0  0  0  0  0  0  0  0  0  0  0
  -20.1824   -5.9735   23.5311 C   0  0  0  0  0  0  0  0  0  0  0  0
  -24.6462  -10.1963   22.1129 C   0  0  0  0  0  0  0  0  0  0  0  0
  -24.1463  -12.2655   20.7072 C   0  0  0  0  0  0  0  0  0  0  0  0
  -32.5319  -25.6198   17.9520 C   0  0  0  0  0  0  0  0  0  0  0  0
  -26.1745  -25.5808   19.8901 C   0  0  0  0  0  0  0  0  0  0  0  0
  -31.5158  -25.2193   18.8406 C   0  0  0  0  0  0  0  0  0  0  0  0
  -25.8003  -25.6670   21.2386 C   0  0  0  0  0  0  0  0  0  0  0  0
  -26.6258  -20.2145   23.1746 C   0  0  0  0  0  0  0  0  0  0  0  0
  -27.2149  -18.9635   23.0287 C   0  0  0  0  0  0  0  0  0  0  0  0
  -23.9391   -8.0244   23.7146 C   0  0  0  0  0  0  0  0  0  0  0  0
  -24.8138  -23.4499   21.0938 C   0  0  0  0  0  0  0  0  0  0  0  0
  -22.5233   -6.1867   24.0895 C   0  0  0  0  0  0  0  0  0  0  0  0
  -20.3687   -4.6164   23.2681 C   0  0  0  0  0  0  0  0  0  0  0  0
  -21.2597   -6.7586   23.9418 C   0  0  0  0  0  0  0  0  0  0  0  0
  -25.0119  -11.3183   21.2862 C   0  0  0  0  0  0  0  0  0  0  0  0
  -28.7399  -21.2052   22.7211 C   0  0  0  0  0  0  0  0  0  0  0  0
  -28.5669  -18.9144   22.7297 C   0  0  0  0  0  0  0  0  0  0  0  0
  -24.9782  -13.1179   20.0232 C   0  0  0  0  0  0  0  0  0  0  0  0
  -22.7180  -12.3660   20.7810 C   0  0  0  0  0  0  0  0  0  0  0  0
  -28.8876  -27.0171   20.7149 C   0  0  0  0  0  0  0  0  0  0  0  0
  -26.8791  -29.2788   21.8867 C   0  0  0  0  0  0  0  0  0  0  0  0
  -23.7767  -30.0652   23.0715 C   0  0  0  0  0  0  0  0  0  0  0  0
  -30.7472  -14.5819   20.6766 C   0  0  0  0  0  0  0  0  0  0  0  0
  -33.3008  -26.9018   18.1522 C   0  0  0  0  0  0  0  0  0  0  0  0
  -26.8781  -26.7290   19.2199 C   0  0  0  0  0  0  0  0  0  0  0  0
  -26.1114  -26.8826   22.0718 C   0  0  0  0  0  0  0  0  0  0  0  0
  -32.6081  -27.8876   19.0895 C   0  0  0  0  0  0  0  0  0  0  0  0
  -29.1983  -13.2261   17.7716 C   0  0  0  0  0  0  0  0  0  0  0  0
  -32.1156  -27.1746   20.3449 C   0  0  0  0  0  0  0  0  0  0  0  0
  -27.8717  -12.6689   18.2907 C   0  0  0  0  0  0  0  0  0  0  0  0
  -30.3246  -13.0385   18.7856 C   0  0  0  0  0  0  0  0  0  0  0  0
  -28.7141  -13.0128   20.6509 C   0  0  0  0  0  0  0  0  0  0  0  0
  -31.0841  -26.0945   19.9972 C   0  0  1  0  0  0  0  0  0  0  0  0
  -27.6164  -27.6328   20.2025 C   0  0  1  0  0  0  0  0  0  0  0  0
  -27.5358  -13.2290   19.6859 C   0  0  2  0  0  0  0  0  0  0  0  0
  -29.5972  -22.4144   22.5483 C   0  0  0  0  0  0  0  0  0  0  0  0
  -26.8254  -17.4741   25.7069 C   0  0  0  0  0  0  0  0  0  0  0  0
  -26.3434  -16.9109   21.8806 C   0  0  0  0  0  0  0  0  0  0  0  0
  -22.4464  -31.9858   23.9875 C   0  0  0  0  0  0  0  0  0  0  0  0
  -28.3396  -29.0157   24.5527 C   0  0  0  0  0  0  0  0  0  0  0  0
  -26.4209  -30.1996   25.6413 C   0  0  0  0  0  0  0  0  0  0  0  0
  -27.7756  -31.3629   23.8994 C   0  0  0  0  0  0  0  0  0  0  0  0
  -21.8146  -29.9114   20.8612 C   0  0  0  0  0  0  0  0  0  0  0  0
  -25.1601  -20.3535   23.5003 C   0  0  0  0  0  0  0  0  0  0  0  0
  -26.8875  -16.7969   24.3431 C   0  0  0  0  0  0  0  0  0  0  0  0
  -24.2372  -20.0989   22.3066 C   0  0  0  0  0  0  0  0  0  0  0  0
  -30.5571  -17.4808   22.2718 C   0  0  0  0  0  0  0  0  0  0  0  0
  -31.0278  -16.0806   22.6348 C   0  0  0  0  0  0  0  0  0  0  0  0
  -24.4189  -21.1061   21.1771 C   0  0  0  0  0  0  0  0  0  1  0  0
  -26.4037  -17.7205   23.1926 C   0  0  1  0  0  0  0  0  0  0  0  0
  -26.1922  -29.5165   23.2098 C   0  0  1  0  0  0  0  0  0  0  0  0
  -22.8312  -31.2056   22.7401 C   0  0  2  0  0  0  0  0  0  0  0  0
  -27.1778  -29.9999   24.3109 C   0  0  0  0  0  0  0  0  0  0  0  0
  -26.2953  -11.5470   20.9953 N   0  0  0  0  0  0  0  0  0  0  0  0
  -29.3474  -20.0068   22.5717 N   0  0  0  0  0  0  0  0  0  0  0  0
  -26.2423  -12.6476   20.2260 N   0  0  0  0  0  0  0  0  0  0  0  0
  -26.8062  -27.9763   21.3729 N   0  0  0  0  0  0  0  0  0  0  0  0
  -29.9432  -13.5925   20.0870 N   0  0  0  0  0  0  0  0  0  0  0  0
  -24.7445  -14.2164   19.2741 N   0  0  0  0  0  0  0  0  0  0  0  0
  -22.0185  -11.4072   21.5265 N   0  0  0  0  0  0  0  0  0  0  0  0
  -29.1736  -17.6422   22.5792 N   0  0  0  0  0  0  0  0  0  0  0  0
  -29.7959  -26.6951   19.7246 N   0  0  0  0  0  0  0  0  0  0  0  0
  -25.0967  -30.4417   22.9406 N   0  0  0  0  0  0  0  0  0  0  0  0
  -30.3106  -15.0575   21.9071 N   0  0  0  0  0  0  0  0  0  0  0  0
  -21.5862  -30.6803   22.1117 N   0  3  0  0  0  0  0  0  0  0  0  0
  -22.0796  -13.2693   20.1895 O   0  0  0  0  0  0  0  0  0  0  0  0
  -29.0341  -26.8480   21.9198 O   0  0  0  0  0  0  0  0  0  0  0  0
  -27.4529  -30.2159   21.3263 O   0  0  0  0  0  0  0  0  0  0  0  0
  -23.3837  -28.9528   23.4160 O   0  0  0  0  0  0  0  0  0  0  0  0
  -31.7749  -15.0136   20.1434 O   0  0  0  0  0  0  0  0  0  0  0  0
  -23.5940   -6.9650   24.4963 O   0  0  0  0  0  0  0  0  0  0  0  0
  -24.1565  -22.4143   21.6832 O   0  0  0  0  0  0  0  0  0  1  0  0
  -19.3347   -3.8626   22.8723 F   0  0  0  0  0  0  0  0  0  0  0  0
  -21.0748   -8.0621   24.1919 F   0  0  0  0  0  0  0  0  0  0  0  0
  1  2  1  0  0  0  0
  1  5  2  0  0  0  0
  2  6  2  0  0  0  0
  3  8  2  0  0  0  0
  3 16  1  0  0  0  0
  4  9  1  0  0  0  0
  4 16  2  0  0  0  0
  5 18  1  0  0  0  0
  6 20  1  0  0  0  0
  7 10  2  0  0  0  0
  7 19  1  0  0  0  0
  8 24  1  0  0  0  0
  9 24  2  0  0  0  0
 10 25  1  0  0  0  0
 11 12  2  0  0  0  0
 11 26  1  0  0  0  0
 12 27  1  0  0  0  0
 13 21  1  0  0  0  0
 13 25  2  0  0  0  0
 14 22  2  0  0  0  0
 14 30  1  0  0  0  0
 15 27  2  0  0  0  0
 15 28  1  0  0  0  0
 16 29  1  0  0  0  0
 17 29  1  0  0  0  0
 17 32  2  0  0  0  0
 17 33  1  0  0  0  0
 18 20  2  0  0  0  0
 18 38  1  0  0  0  0
 19 21  2  0  0  0  0
 19 39  1  0  0  0  0
 20 47  1  0  0  0  0
 21 40  1  0  0  0  0
 22 23  1  0  0  0  0
 22 58  1  0  0  0  0
 23 31  2  0  0  0  0
 23 64  1  0  0  0  0
 24 85  1  0  0  0  0
 25 86  1  0  0  0  0
 26 28  2  0  0  0  0
 26 85  1  0  0  0  0
 27 87  1  0  0  0  0
 28 88  1  0  0  0  0
 29 68  2  0  0  0  0
 30 50  1  0  0  0  0
 30 69  2  0  0  0  0
 31 69  1  0  0  0  0
 31 75  1  0  0  0  0
 32 70  1  0  0  0  0
 32 73  1  0  0  0  0
 33 74  1  0  0  0  0
 33 80  2  0  0  0  0
 34 48  1  0  0  0  0
 34 76  1  0  0  0  0
 34 81  2  0  0  0  0
 35 65  1  0  0  0  0
 35 71  1  0  0  0  0
 35 82  2  0  0  0  0
 36 66  1  0  0  0  0
 36 77  1  0  0  0  0
 36 83  2  0  0  0  0
 37 72  1  0  0  0  0
 37 78  1  0  0  0  0
 37 84  2  0  0  0  0
 38 41  1  0  0  0  0
 39 48  1  0  0  0  0
 40 71  1  0  0  0  0
 41 43  1  0  0  0  0
 42 44  1  0  0  0  0
 42 45  1  0  0  0  0
 43 47  1  0  0  0  0
 44 49  1  0  0  0  0
 45 72  1  0  0  0  0
 46 49  1  0  0  0  0
 46 72  1  0  0  0  0
 47 76  1  0  0  0  0
 48 71  1  0  0  0  0
 49 70  1  0  0  0  0
 51 59  1  0  0  0  0
 52 64  1  0  0  0  0
 53 66  1  0  0  0  0
 54 67  1  0  0  0  0
 55 67  1  0  0  0  0
 56 67  1  0  0  0  0
 57 79  1  0  0  0  0
 58 60  1  0  0  0  0
 59 64  1  0  0  0  0
 60 63  1  0  0  0  0
 61 62  1  0  0  0  0
 61 75  1  0  0  0  0
 62 78  1  0  0  0  0
 63 86  1  0  0  0  0
 65 67  1  0  0  0  0
 65 77  1  0  0  0  0
 66 79  1  0  0  0  0
 68 70  1  0  0  0  0
M  CHG  1  79   1
M  ISO  4  37 100  63 101  78 100  86 101
M  END
> <Batch ID>
0122

> <Smiles>
CCC(C)c1c(CC[101CH2:1][101O:1]c2ccc3c(c2)CN(C(=O)C(NC(=O)C(C)NC)C(C)(C)C)C(C(=O)NC2CCCc4ccccc42)C3)cc(C)nc1NCC[100NH:0][100C:0](=O)N1CCCC(n2nc(-c3ccc(Oc4ccc(F)cc4F)cc3)c(C(N)=O)c2N)C1

> <Shape>
0.300

> <Color>
0.110

> <Negative vol penalty>
0.000

$$$$

  -OEChem-04052320283D

 90 99  0     1  0  0  0  0  0999 V2000
  -19.7649  -34.2731   21.0770 C   0  0  0  0  0  0  0  0  0  0  0  0
  -21.1055  -33.9024   21.0518 C   0  0  0  0  0  0  0  0  0  0  0  0
  -26.4490  -12.7839   21.4920 C   0  0  0  0  0  0  0  0  0  0  0  0
  -26.0210  -13.4347   19.2051 C   0  0  0  0  0  0  0  0  0  0  0  0
  -18.8364  -33.4813   21.7513 C   0  0  0  0  0  0  0  0  0  0  0  0
  -21.5186  -32.7401   21.7020 C   0  0  0  0  0  0  0  0  0  0  0  0
  -25.9608  -28.9131   19.9335 C   0  0  0  0  0  0  0  0  0  0  0  0
  -25.1939  -12.1785   21.5547 C   0  0  0  0  0  0  0  0  0  0  0  0
  -24.7659  -12.8293   19.2677 C   0  0  0  0  0  0  0  0  0  0  0  0
  -27.2932  -28.7794   20.3214 C   0  0  0  0  0  0  0  0  0  0  0  0
  -23.7673   -9.2905   20.5265 C   0  0  0  0  0  0  0  0  0  0  0  0
  -23.6874   -8.0222   21.1016 C   0  0  0  0  0  0  0  0  0  0  0  0
  -26.6618  -27.0410   21.8701 C   0  0  0  0  0  0  0  0  0  0  0  0
  -31.5619  -25.5005   16.8671 C   0  0  0  0  0  0  0  0  0  0  0  0
  -22.1685   -8.8767   22.7749 C   0  0  0  0  0  0  0  0  0  0  0  0
  -32.6284  -23.5248   18.4179 C   0  0  0  0  0  0  0  0  0  0  0  0
  -26.8625  -13.4121   20.3172 C   0  0  0  0  0  0  0  0  0  0  0  0
  -29.3712  -13.4430   19.8556 C   0  0  0  0  0  0  0  0  0  0  0  0
  -19.2367  -32.3035   22.4019 C   0  0  0  0  0  0  0  0  0  0  0  0
  -24.9656  -28.1179   20.5199 C   0  0  0  0  0  0  0  0  0  0  0  0
  -20.5948  -31.9324   22.3868 C   0  0  0  0  0  0  0  0  0  0  0  0
  -25.3178  -27.1647   21.4861 C   0  0  0  0  0  0  0  0  0  0  0  0
  -32.2148  -23.2014   17.1357 C   0  0  0  0  0  0  0  0  0  0  0  0
  -31.6725  -24.2137   16.3519 C   0  0  0  0  0  0  0  0  0  0  0  0
  -24.3524  -12.2011   20.4425 C   0  0  0  0  0  0  0  0  0  0  0  0
  -27.6435  -27.8453   21.2919 C   0  0  0  0  0  0  0  0  0  0  0  0
  -23.0479  -10.3519   21.0757 C   0  0  0  0  0  0  0  0  0  0  0  0
  -22.8879   -7.8153   22.2257 C   0  0  0  0  0  0  0  0  0  0  0  0
  -22.2485  -10.1450   22.1998 C   0  0  0  0  0  0  0  0  0  0  0  0
  -28.1586  -14.0381   20.2521 C   0  0  0  0  0  0  0  0  0  0  0  0
  -32.0045  -25.7210   18.1614 C   0  0  0  0  0  0  0  0  0  0  0  0
  -30.2999  -14.4487   19.9671 C   0  0  0  0  0  0  0  0  0  0  0  0
  -29.6345  -12.1010   19.4249 C   0  0  0  0  0  0  0  0  0  0  0  0
  -22.3710  -28.6947   22.2632 C   0  0  0  0  0  0  0  0  0  0  0  0
  -29.7712  -20.4329   19.8203 C   0  0  0  0  0  0  0  0  0  0  0  0
  -21.8972  -25.5057   21.9052 C   0  0  0  0  0  0  0  0  0  0  0  0
  -23.2404  -22.4267   21.3035 C   0  0  0  0  0  0  0  0  0  0  0  0
  -18.2045  -31.5049   23.1578 C   0  0  0  0  0  0  0  0  0  0  0  0
  -23.5366  -28.2557   20.0712 C   0  0  0  0  0  0  0  0  0  0  0  0
  -24.2901  -26.2727   22.1315 C   0  0  0  0  0  0  0  0  0  0  0  0
  -18.6626  -30.0907   23.5045 C   0  0  0  0  0  0  0  0  0  0  0  0
  -34.0896  -19.9981   16.1658 C   0  0  0  0  0  0  0  0  0  0  0  0
  -33.3166  -19.0210   17.0419 C   0  0  0  0  0  0  0  0  0  0  0  0
  -31.2304  -18.4420   22.4178 C   0  0  0  0  0  0  0  0  0  0  0  0
  -33.8566  -21.4403   16.6043 C   0  0  0  0  0  0  0  0  0  0  0  0
  -20.0753  -30.1131   24.0797 C   0  0  0  0  0  0  0  0  0  0  0  0
  -31.8272  -19.3477   17.0599 C   0  0  0  0  0  0  0  0  0  0  0  0
  -30.6955  -17.0383   22.1376 C   0  0  0  0  0  0  0  0  0  0  0  0
  -30.1982  -19.5116   22.0749 C   0  0  0  0  0  0  0  0  0  0  0  0
  -29.1516  -18.0324   20.3902 C   0  0  0  0  0  0  0  0  0  0  0  0
  -32.3565  -21.8063   16.6341 C   0  0  1  0  0  0  0  0  0  0  0  0
  -21.0777  -30.6656   23.0592 C   0  0  1  0  0  0  0  0  0  0  0  0
  -22.5345  -27.7514   21.1051 C   0  0  1  0  0  0  0  0  0  0  0  0
  -31.5556  -20.7958   17.5052 C   0  0  1  0  0  0  0  0  0  0  0  0
  -30.1743  -16.9233   20.6941 C   0  0  2  0  0  0  0  0  0  0  0  0
  -31.2045  -23.9424   14.9605 C   0  0  0  0  0  0  0  0  0  0  0  0
  -27.7575  -20.4787   18.4104 C   0  0  0  0  0  0  0  0  0  0  0  0
  -22.6091  -20.0056   21.1104 C   0  0  0  0  0  0  0  0  0  0  0  0
  -21.6688  -25.3255   24.9426 C   0  0  0  0  0  0  0  0  0  0  0  0
  -21.9944  -22.8506   24.7505 C   0  0  0  0  0  0  0  0  0  0  0  0
  -20.0139  -23.9324   23.6875 C   0  0  0  0  0  0  0  0  0  0  0  0
  -24.1623  -22.2905   18.4945 C   0  0  0  0  0  0  0  0  0  0  0  0
  -30.0476  -21.0674   17.4536 C   0  0  0  0  0  0  0  0  0  0  0  0
  -31.1793  -27.1694   20.9921 C   0  0  0  0  0  0  0  0  0  0  0  0
  -32.3037  -27.3939   19.9883 C   0  0  0  0  0  0  0  0  0  0  0  0
  -29.9398  -28.0046   20.6938 C   0  0  0  0  0  0  0  0  0  1  0  0
  -29.2547  -20.1934   18.4239 C   0  0  1  0  0  0  0  0  0  0  0  0
  -22.3048  -24.2715   22.6731 C   0  0  1  0  0  0  0  0  0  0  0  0
  -22.8225  -21.3120   20.3616 C   0  0  2  0  0  0  0  0  0  0  0  0
  -21.5148  -24.1130   24.0028 C   0  0  0  0  0  0  0  0  0  0  0  0
  -32.5369  -24.7630   18.9529 N   0  0  0  0  0  0  0  0  0  0  0  0
  -28.3009  -15.3224   20.5904 N   0  0  0  0  0  0  0  0  0  0  0  0
  -29.6139  -15.5424   20.4068 N   0  0  0  0  0  0  0  0  0  0  0  0
  -22.9054  -26.4497   21.6638 N   0  0  0  0  0  0  0  0  0  0  0  0
  -29.7114  -19.3545   20.7032 N   0  0  0  0  0  0  0  0  0  0  0  0
  -31.6282  -14.4953   19.7310 N   0  0  0  0  0  0  0  0  0  0  0  0
  -28.5660  -11.1957   19.3681 N   0  0  0  0  0  0  0  0  0  0  0  0
  -31.8880  -27.0086   18.6613 N   0  0  0  0  0  0  0  0  0  0  0  0
  -21.3998  -29.6586   22.0709 N   0  0  0  0  0  0  0  0  0  0  0  0
  -22.1555  -23.1500   21.7521 N   0  0  0  0  0  0  0  0  0  0  0  0
  -23.8679  -21.0926   19.3225 N   0  3  0  0  0  0  0  0  0  0  0  0
  -30.7862  -11.7116   19.1158 O   0  0  0  0  0  0  0  0  0  0  0  0
  -23.0731  -28.5572   23.2582 O   0  0  0  0  0  0  0  0  0  0  0  0
  -30.2168  -21.5451   20.1148 O   0  0  0  0  0  0  0  0  0  0  0  0
  -20.7290  -25.6245   21.5272 O   0  0  0  0  0  0  0  0  0  0  0  0
  -24.4117  -22.6327   21.6136 O   0  0  0  0  0  0  0  0  0  0  0  0
  -23.1278  -11.6103   20.5032 O   0  0  0  0  0  0  0  0  0  0  0  0
  -28.9433  -27.7133   21.6728 O   0  0  0  0  0  0  0  0  0  1  0  0
  -22.8100   -6.5970   22.7769 F   0  0  0  0  0  0  0  0  0  0  0  0
  -21.5541  -11.1605   22.7312 F   0  0  0  0  0  0  0  0  0  0  0  0
  1  2  1  0  0  0  0
  1  5  2  0  0  0  0
  2  6  2  0  0  0  0
  3  8  2  0  0  0  0
  3 17  1  0  0  0  0
  4  9  1  0  0  0  0
  4 17  2  0  0  0  0
  5 19  1  0  0  0  0
  6 21  1  0  0  0  0
  7 10  2  0  0  0  0
  7 20  1  0  0  0  0
  8 25  1  0  0  0  0
  9 25  2  0  0  0  0
 10 26  1  0  0  0  0
 11 12  2  0  0  0  0
 11 27  1  0  0  0  0
 12 28  1  0  0  0  0
 13 22  1  0  0  0  0
 13 26  2  0  0  0  0
 14 24  2  0  0  0  0
 14 31  1  0  0  0  0
 15 28  2  0  0  0  0
 15 29  1  0  0  0  0
 16 23  2  0  0  0  0
 16 71  1  0  0  0  0
 17 30  1  0  0  0  0
 18 30  1  0  0  0  0
 18 32  2  0  0  0  0
 18 33  1  0  0  0  0
 19 21  2  0  0  0  0
 19 38  1  0  0  0  0
 20 22  2  0  0  0  0
 20 39  1  0  0  0  0
 21 52  1  0  0  0  0
 22 40  1  0  0  0  0
 23 24  1  0  0  0  0
 23 51  1  0  0  0  0
 24 56  1  0  0  0  0
 25 87  1  0  0  0  0
 26 88  1  0  0  0  0
 27 29  2  0  0  0  0
 27 87  1  0  0  0  0
 28 89  1  0  0  0  0
 29 90  1  0  0  0  0
 30 72  2  0  0  0  0
 31 71  2  0  0  0  0
 31 78  1  0  0  0  0
 32 73  1  0  0  0  0
 32 76  1  0  0  0  0
 33 77  1  0  0  0  0
 33 82  2  0  0  0  0
 34 53  1  0  0  0  0
 34 79  1  0  0  0  0
 34 83  2  0  0  0  0
 35 67  1  0  0  0  0
 35 75  1  0  0  0  0
 35 84  2  0  0  0  0
 36 68  1  0  0  0  0
 36 74  1  0  0  0  0
 36 85  2  0  0  0  0
 37 69  1  0  0  0  0
 37 80  1  0  0  0  0
 37 86  2  0  0  0  0
 38 41  1  0  0  0  0
 39 53  1  0  0  0  0
 40 74  1  0  0  0  0
 41 46  1  0  0  0  0
 42 43  1  0  0  0  0
 42 45  1  0  0  0  0
 43 47  1  0  0  0  0
 44 48  1  0  0  0  0
 44 49  1  0  0  0  0
 45 51  1  0  0  0  0
 46 52  1  0  0  0  0
 47 54  1  0  0  0  0
 48 55  1  0  0  0  0
 49 75  1  0  0  0  0
 50 55  1  0  0  0  0
 50 75  1  0  0  0  0
 51 54  1  0  0  0  0
 52 79  1  0  0  0  0
 53 74  1  0  0  0  0
 54 63  1  0  0  0  0
 55 73  1  0  0  0  0
 57 67  1  0  0  0  0
 58 69  1  0  0  0  0
 59 70  1  0  0  0  0
 60 70  1  0  0  0  0
 61 70  1  0  0  0  0
 62 81  1  0  0  0  0
 63 67  1  0  0  0  0
 64 65  1  0  0  0  0
 64 66  1  0  0  0  0
 65 78  1  0  0  0  0
 66 88  1  0  0  0  0
 68 70  1  0  0  0  0
 68 80  1  0  0  0  0
 69 81  1  0  0  0  0
 72 73  1  0  0  0  0
M  CHG  1  81   1
M  ISO  4  35 100  66 101  67 100  88 101
M  END
> <Batch ID>
0122

> <Smiles>
CNC(C)C(=O)NC(C(=O)N1Cc2cc([101O:1][101CH2:1]CCNc3cc(C)c(C4CCCCC4C[100CH:0](C)[100C:0](=O)N4CCCC(n5nc(-c6ccc(Oc7ccc(F)cc7F)cc6)c(C(N)=O)c5N)C4)cn3)ccc2CC1C(=O)NC1CCCc2ccccc21)C(C)(C)C

> <Shape>
0.254

> <Color>
0.091

> <Negative vol penalty>
0.000

$$$$

  -OEChem-04052320283D

 86 95  0     1  0  0  0  0  0999 V2000
  -24.4225   -4.6824   22.9167 C   0  0  0  0  0  0  0  0  0  0  0  0
  -25.1155   -5.3487   21.9112 C   0  0  0  0  0  0  0  0  0  0  0  0
  -23.8263  -29.8915   24.1585 C   0  0  0  0  0  0  0  0  0  0  0  0
  -22.6438  -30.9131   22.3159 C   0  0  0  0  0  0  0  0  0  0  0  0
  -23.1652   -5.1359   23.3136 C   0  0  0  0  0  0  0  0  0  0  0  0
  -24.5511   -6.4684   21.3011 C   0  0  0  0  0  0  0  0  0  0  0  0
  -27.9045  -12.8426   21.4210 C   0  0  0  0  0  0  0  0  0  0  0  0
  -22.6101  -29.5661   24.7587 C   0  0  0  0  0  0  0  0  0  0  0  0
  -21.4274  -30.5876   22.9161 C   0  0  0  0  0  0  0  0  0  0  0  0
  -28.5817  -14.0454   21.2187 C   0  0  0  0  0  0  0  0  0  0  0  0
  -19.4661  -27.8553   23.2444 C   0  0  0  0  0  0  0  0  0  0  0  0
  -18.4714  -27.3078   22.4343 C   0  0  0  0  0  0  0  0  0  0  0  0
  -26.6544  -14.9500   20.0719 C   0  0  0  0  0  0  0  0  0  0  0  0
  -30.0456  -18.4034   18.8560 C   0  0  0  0  0  0  0  0  0  0  0  0
  -17.0138  -29.1575   22.9740 C   0  0  0  0  0  0  0  0  0  0  0  0
  -28.4788  -19.7217   20.0660 C   0  0  0  0  0  0  0  0  0  0  0  0
  -23.8432  -30.5651   22.9371 C   0  0  0  0  0  0  0  0  0  0  0  0
  -26.1188  -31.7148   22.8481 C   0  0  0  0  0  0  0  0  0  0  0  0
  -22.5893   -6.2674   22.7147 C   0  0  0  0  0  0  0  0  0  0  0  0
  -26.5926  -12.6942   20.9625 C   0  0  0  0  0  0  0  0  0  0  0  0
  -23.2843   -6.9366   21.6893 C   0  0  0  0  0  0  0  0  0  0  0  0
  -25.9666  -13.7519   20.2826 C   0  0  0  0  0  0  0  0  0  0  0  0
  -28.8308  -18.4951   19.5261 C   0  0  0  0  0  0  0  0  0  0  0  0
  -30.8599  -19.5253   18.7478 C   0  0  0  0  0  0  0  0  0  0  0  0
  -21.4106  -29.9141   24.1375 C   0  0  0  0  0  0  0  0  0  0  0  0
  -27.9582  -15.0964   20.5457 C   0  0  0  0  0  0  0  0  0  0  0  0
  -19.2347  -29.0538   23.9195 C   0  0  0  0  0  0  0  0  0  0  0  0
  -17.2452  -27.9589   22.2990 C   0  0  0  0  0  0  0  0  0  0  0  0
  -18.0086  -29.7049   23.7842 C   0  0  0  0  0  0  0  0  0  0  0  0
  -25.0993  -30.9021   22.3168 C   0  0  0  0  0  0  0  0  0  0  0  0
  -30.4170  -20.7058   19.3223 C   0  0  0  0  0  0  0  0  0  0  0  0
  -27.0924  -31.7215   21.8793 C   0  0  0  0  0  0  0  0  0  0  0  0
  -26.1801  -32.4021   24.1049 C   0  0  0  0  0  0  0  0  0  0  0  0
  -23.5797  -10.4771   20.6742 C   0  0  0  0  0  0  0  0  0  0  0  0
  -22.5533  -13.2973   21.3095 C   0  0  0  0  0  0  0  0  0  0  0  0
  -21.8605  -16.4449   22.4275 C   0  0  0  0  0  0  0  0  0  0  0  0
  -28.5170  -27.8906   17.5037 C   0  0  0  0  0  0  0  0  0  0  0  0
  -21.2073   -6.6919   23.1444 C   0  0  0  0  0  0  0  0  0  0  0  0
  -25.8467  -11.3951   21.1039 C   0  0  0  0  0  0  0  0  0  0  0  0
  -24.5667  -13.5350   19.7765 C   0  0  0  0  0  0  0  0  0  0  0  0
  -20.8418   -8.1082   22.7074 C   0  0  0  0  0  0  0  0  0  0  0  0
  -27.6675  -31.3296   17.1457 C   0  0  0  0  0  0  0  0  0  0  0  0
  -21.2068   -8.3258   21.2424 C   0  0  0  0  0  0  0  0  0  0  0  0
  -27.0049  -31.6833   18.4784 C   0  0  0  0  0  0  0  0  0  0  0  0
  -30.3430  -25.6182   19.7872 C   0  0  0  0  0  0  0  0  0  0  0  0
  -28.8937  -24.6704   17.9540 C   0  0  0  0  0  0  0  0  0  0  0  0
  -27.3237  -29.9087   16.7042 C   0  0  0  0  0  0  0  0  0  0  0  0
  -26.9423  -29.2174   19.0388 C   0  0  0  0  0  0  0  0  0  0  0  0
  -31.2430  -24.3924   19.7006 C   0  0  0  0  0  0  0  0  0  0  0  0
  -29.8003  -23.4488   17.8777 C   0  0  0  0  0  0  0  0  0  0  0  0
  -22.7160   -8.1696   21.0207 C   0  0  1  0  0  0  0  0  0  0  0  0
  -24.3379  -11.5882   21.3392 C   0  0  1  0  0  0  0  0  0  0  0  0
  -27.3048  -30.6211   19.5531 C   0  0  2  0  0  0  0  0  0  0  0  0
  -29.6500  -25.9013   18.4539 C   0  0  0  0  0  0  0  0  0  0  0  0
  -32.1636  -19.4335   18.0327 C   0  0  0  0  0  0  0  0  0  0  0  0
  -19.9419  -17.9283   23.0723 C   0  0  0  0  0  0  0  0  0  0  0  0
  -21.8708  -13.6894   18.3626 C   0  0  0  0  0  0  0  0  0  0  0  0
  -20.6781  -15.7986   18.9926 C   0  0  0  0  0  0  0  0  0  0  0  0
  -19.8923  -13.6078   19.8901 C   0  0  0  0  0  0  0  0  0  0  0  0
  -22.8747  -16.7508   25.1909 C   0  0  0  0  0  0  0  0  0  0  0  0
  -27.9287  -17.3036   19.6597 C   0  0  0  0  0  0  0  0  0  1  0  0
  -31.2497  -21.9431   19.2366 C   0  0  0  0  0  0  0  0  0  0  0  0
  -22.0412  -14.6085   20.7693 C   0  0  1  0  0  0  0  0  0  0  0  0
  -20.9872  -16.9402   23.5661 C   0  0  2  0  0  0  0  0  0  0  0  0
  -21.1480  -14.4224   19.5103 C   0  0  0  0  0  0  0  0  0  0  0  0
  -29.2434  -20.8333   19.9810 N   0  0  0  0  0  0  0  0  0  0  0  0
  -25.3976  -30.4271   21.1046 N   0  0  0  0  0  0  0  0  0  0  0  0
  -26.6154  -30.9430   20.8660 N   0  0  0  0  0  0  0  0  0  0  0  0
  -23.7685  -12.8316   20.7927 N   0  0  0  0  0  0  0  0  0  0  0  0
  -27.6333  -28.9500   17.7676 N   0  0  0  0  0  0  0  0  0  0  0  0
  -28.3014  -32.3173   21.8038 N   0  0  0  0  0  0  0  0  0  0  0  0
  -25.6883  -33.7126   24.1744 N   0  0  0  0  0  0  0  0  0  0  0  0
  -23.4174   -9.3552   21.4644 N   0  0  0  0  0  0  0  0  0  0  0  0
  -21.3740  -15.2757   21.8820 N   0  0  0  0  0  0  0  0  0  0  0  0
  -28.7610  -27.0314   18.5682 N   0  0  0  0  0  0  0  0  0  0  0  0
  -30.4361  -23.2081   19.2256 N   0  3  0  0  0  0  0  0  0  0  0  0
  -21.8197  -17.6150   24.6017 N   0  3  0  0  0  0  0  0  0  0  0  0
  -26.6721  -31.8757   25.1317 O   0  0  0  0  0  0  0  0  0  0  0  0
  -23.1702  -10.6261   19.5289 O   0  0  0  0  0  0  0  0  0  0  0  0
  -21.8931  -12.6972   22.1623 O   0  0  0  0  0  0  0  0  0  0  0  0
  -22.8710  -17.0380   22.0564 O   0  0  0  0  0  0  0  0  0  0  0  0
  -29.0534  -27.7258   16.4027 O   0  0  0  0  0  0  0  0  0  0  0  0
  -20.2235  -29.5964   24.7228 O   0  0  0  0  0  0  0  0  0  0  0  0
  -28.6234  -16.2694   20.3556 O   0  0  0  0  0  0  0  0  0  1  0  0
  -16.2906  -27.4338   21.5198 F   0  0  0  0  0  0  0  0  0  0  0  0
  -17.7808  -30.8572   24.4293 F   0  0  0  0  0  0  0  0  0  0  0  0
  1  2  1  0  0  0  0
  1  5  2  0  0  0  0
  2  6  2  0  0  0  0
  3  8  2  0  0  0  0
  3 17  1  0  0  0  0
  4  9  1  0  0  0  0
  4 17  2  0  0  0  0
  5 19  1  0  0  0  0
  6 21  1  0  0  0  0
  7 10  2  0  0  0  0
  7 20  1  0  0  0  0
  8 25  1  0  0  0  0
  9 25  2  0  0  0  0
 10 26  1  0  0  0  0
 11 12  2  0  0  0  0
 11 27  1  0  0  0  0
 12 28  1  0  0  0  0
 13 22  1  0  0  0  0
 13 26  2  0  0  0  0
 14 23  2  0  0  0  0
 14 24  1  0  0  0  0
 15 28  2  0  0  0  0
 15 29  1  0  0  0  0
 16 23  1  0  0  0  0
 16 66  2  0  0  0  0
 17 30  1  0  0  0  0
 18 30  1  0  0  0  0
 18 32  2  0  0  0  0
 18 33  1  0  0  0  0
 19 21  2  0  0  0  0
 19 38  1  0  0  0  0
 20 22  2  0  0  0  0
 20 39  1  0  0  0  0
 21 51  1  0  0  0  0
 22 40  1  0  0  0  0
 23 61  1  0  0  0  0
 24 31  2  0  0  0  0
 24 55  1  0  0  0  0
 25 83  1  0  0  0  0
 26 84  1  0  0  0  0
 27 29  2  0  0  0  0
 27 83  1  0  0  0  0
 28 85  1  0  0  0  0
 29 86  1  0  0  0  0
 30 67  2  0  0  0  0
 31 62  1  0  0  0  0
 31 66  1  0  0  0  0
 32 68  1  0  0  0  0
 32 71  1  0  0  0  0
 33 72  1  0  0  0  0
 33 78  2  0  0  0  0
 34 52  1  0  0  0  0
 34 73  1  0  0  0  0
 34 79  2  0  0  0  0
 35 63  1  0  0  0  0
 35 69  1  0  0  0  0
 35 80  2  0  0  0  0
 36 64  1  0  0  0  0
 36 74  1  0  0  0  0
 36 81  2  0  0  0  0
 37 70  1  0  0  0  0
 37 75  1  0  0  0  0
 37 82  2  0  0  0  0
 38 41  1  0  0  0  0
 39 52  1  0  0  0  0
 40 69  1  0  0  0  0
 41 43  1  0  0  0  0
 42 44  1  0  0  0  0
 42 47  1  0  0  0  0
 43 51  1  0  0  0  0
 44 53  1  0  0  0  0
 45 49  1  0  0  0  0
 45 54  1  0  0  0  0
 46 50  1  0  0  0  0
 46 54  1  0  0  0  0
 47 70  1  0  0  0  0
 48 53  1  0  0  0  0
 48 70  1  0  0  0  0
 49 76  1  0  0  0  0
 50 76  1  0  0  0  0
 51 73  1  0  0  0  0
 52 69  1  0  0  0  0
 53 68  1  0  0  0  0
 54 75  1  0  0  0  0
 56 64  1  0  0  0  0
 57 65  1  0  0  0  0
 58 65  1  0  0  0  0
 59 65  1  0  0  0  0
 60 77  1  0  0  0  0
 61 84  1  0  0  0  0
 62 76  1  0  0  0  0
 63 65  1  0  0  0  0
 63 74  1  0  0  0  0
 64 77  1  0  0  0  0
 67 68  1  0  0  0  0
M  CHG  2  76   1  77   1
M  ISO  4  37 100  61 101  75 100  84 101
M  END
> <Batch ID>
0122

> <Smiles>
CNC(C)C(=O)NC(C(=O)N1Cc2cc([101O:1][101CH2:1]c3cnc(CN4CCC([100NH:0][100C:0](=O)N5CCCC(n6nc(-c7ccc(Oc8ccc(F)cc8F)cc7)c(C(N)=O)c6N)C5)CC4)c(C)c3)ccc2CC1C(=O)NC1CCCc2ccccc21)C(C)(C)C

> <Shape>
0.327

> <Color>
0.060

> <Negative vol penalty>
0.000

$$$$

  -OEChem-04052320283D

 84 92  0     1  0  0  0  0  0999 V2000
  -26.7593  -33.5065   26.8354 C   0  0  0  0  0  0  0  0  0  0  0  0
  -27.5027  -32.4101   27.2605 C   0  0  0  0  0  0  0  0  0  0  0  0
  -23.1663   -9.8214   19.9402 C   0  0  0  0  0  0  0  0  0  0  0  0
  -23.5388  -10.0084   22.3200 C   0  0  0  0  0  0  0  0  0  0  0  0
  -25.7458  -33.3369   25.8931 C   0  0  0  0  0  0  0  0  0  0  0  0
  -27.2323  -31.1433   26.7443 C   0  0  0  0  0  0  0  0  0  0  0  0
  -30.4982  -25.0082   25.0090 C   0  0  0  0  0  0  0  0  0  0  0  0
  -30.5358  -14.9613   25.0623 C   0  0  0  0  0  0  0  0  0  0  0  0
  -32.6869  -15.1452   23.9777 C   0  0  0  0  0  0  0  0  0  0  0  0
  -30.5840  -16.3168   25.3876 C   0  0  0  0  0  0  0  0  0  0  0  0
  -32.7350  -16.5007   24.3030 C   0  0  0  0  0  0  0  0  0  0  0  0
  -22.3860   -8.6848   20.1516 C   0  0  0  0  0  0  0  0  0  0  0  0
  -22.7584   -8.8717   22.5314 C   0  0  0  0  0  0  0  0  0  0  0  0
  -30.4058  -23.6363   25.2393 C   0  0  0  0  0  0  0  0  0  0  0  0
  -23.1211   -5.5194   22.2840 C   0  0  0  0  0  0  0  0  0  0  0  0
  -23.6052   -4.5564   23.1693 C   0  0  0  0  0  0  0  0  0  0  0  0
  -28.6839  -23.4760   23.5574 C   0  0  0  0  0  0  0  0  0  0  0  0
  -21.6472   -4.8457   24.5548 C   0  0  0  0  0  0  0  0  0  0  0  0
  -23.7428  -10.4832   21.0244 C   0  0  0  0  0  0  0  0  0  0  0  0
  -24.1118  -12.9946   20.7702 C   0  0  0  0  0  0  0  0  0  0  0  0
  -25.4692  -32.0690   25.3579 C   0  0  0  0  0  0  0  0  0  0  0  0
  -29.6751  -25.6272   24.0572 C   0  0  0  0  0  0  0  0  0  0  0  0
  -26.2133  -30.9564   25.7949 C   0  0  0  0  0  0  0  0  0  0  0  0
  -28.7696  -24.8555   23.3151 C   0  0  0  0  0  0  0  0  0  0  0  0
  -31.5873  -14.3754   24.3574 C   0  0  0  0  0  0  0  0  0  0  0  0
  -31.6836  -17.0866   25.0079 C   0  0  0  0  0  0  0  0  0  0  0  0
  -22.1820   -8.2100   21.4472 C   0  0  0  0  0  0  0  0  0  0  0  0
  -29.4966  -22.8704   24.5156 C   0  0  0  0  0  0  0  0  0  0  0  0
  -21.9000   -6.1457   22.5341 C   0  0  0  0  0  0  0  0  0  0  0  0
  -22.8683   -4.2195   24.3047 C   0  0  0  0  0  0  0  0  0  0  0  0
  -21.1631   -5.8088   23.6695 C   0  0  0  0  0  0  0  0  0  0  0  0
  -24.5495  -11.6571   20.8066 C   0  0  0  0  0  0  0  0  0  0  0  0
  -25.2524  -13.7228   20.5354 C   0  0  0  0  0  0  0  0  0  0  0  0
  -22.7922  -13.5307   20.9342 C   0  0  0  0  0  0  0  0  0  0  0  0
  -27.4326  -27.8778   24.1553 C   0  0  0  0  0  0  0  0  0  0  0  0
  -27.5422  -27.5793   20.9271 C   0  0  0  0  0  0  0  0  0  0  0  0
  -28.2915  -25.6401   18.2206 C   0  0  0  0  0  0  0  0  0  0  0  0
  -31.0517  -12.6697   21.5889 C   0  0  0  0  0  0  0  0  0  0  0  0
  -24.3325  -31.9273   24.3768 C   0  0  0  0  0  0  0  0  0  0  0  0
  -29.8057  -27.1037   23.8017 C   0  0  0  0  0  0  0  0  0  0  0  0
  -27.8777  -25.4684   22.2677 C   0  0  0  0  0  0  0  0  0  0  0  0
  -24.3582  -30.6132   23.6005 C   0  0  0  0  0  0  0  0  0  0  0  0
  -29.5433  -13.3903   18.4453 C   0  0  0  0  0  0  0  0  0  0  0  0
  -24.6061  -29.4405   24.5440 C   0  0  0  0  0  0  0  0  0  0  0  0
  -28.0529  -13.1485   18.6907 C   0  0  0  0  0  0  0  0  0  0  0  0
  -30.4104  -12.3942   19.2120 C   0  0  0  0  0  0  0  0  0  0  0  0
  -28.6473  -12.0799   20.9051 C   0  0  0  0  0  0  0  0  0  0  0  0
  -25.9664  -29.5704   25.2399 C   0  0  1  0  0  0  0  0  0  0  0  0
  -28.5572  -27.7139   23.1723 C   0  0  1  0  0  0  0  0  0  0  0  0
  -27.7341  -13.0952   20.1970 C   0  0  2  0  0  0  0  0  0  0  0  0
  -31.7049  -19.7572   22.4309 C   0  0  0  0  0  0  0  0  0  0  0  0
  -31.8081  -18.7079   26.8915 C   0  0  0  0  0  0  0  0  0  0  0  0
  -28.2386  -25.6544   15.7118 C   0  0  0  0  0  0  0  0  0  0  0  0
  -24.5236  -27.1388   20.9906 C   0  0  0  0  0  0  0  0  0  0  0  0
  -24.6767  -26.2343   18.6611 C   0  0  0  0  0  0  0  0  0  0  0  0
  -25.3259  -28.5979   19.1247 C   0  0  0  0  0  0  0  0  0  0  0  0
  -31.2257  -25.2980   18.0412 C   0  0  0  0  0  0  0  0  0  0  0  0
  -31.5367  -12.9263   24.0092 C   0  0  0  0  0  0  0  0  0  0  0  0
  -30.4852  -19.2466   23.1863 C   0  0  0  0  0  0  0  0  0  0  0  0
  -30.5887  -20.8606   25.1666 C   0  0  0  0  0  0  0  0  0  1  0  0
  -31.7346  -18.5678   25.3622 C   0  0  2  0  0  0  0  0  0  0  0  0
  -26.8303  -26.7229   19.9079 C   0  0  1  0  0  0  0  0  0  0  0  0
  -29.0709  -25.9384   16.9525 C   0  0  2  0  0  0  0  0  0  0  0  0
  -30.5584  -19.3819   24.7318 C   0  0  2  0  0  0  0  0  0  0  0  0
  -25.3544  -27.1620   19.6921 C   0  0  0  0  0  0  0  0  0  0  0  0
  -25.8654  -11.5396   20.6104 N   0  0  0  0  0  0  0  0  0  0  0  0
  -26.2644  -12.8127   20.4484 N   0  0  0  0  0  0  0  0  0  0  0  0
  -28.0383  -26.9169   22.0589 N   0  0  0  0  0  0  0  0  0  0  0  0
  -30.0590  -12.3938   20.6342 N   0  0  0  0  0  0  0  0  0  0  0  0
  -25.4783  -15.0465   20.3968 N   0  0  0  0  0  0  0  0  0  0  0  0
  -21.7342  -12.6419   21.1688 N   0  0  0  0  0  0  0  0  0  0  0  0
  -27.0331  -29.1877   24.3398 N   0  0  0  0  0  0  0  0  0  0  0  0
  -27.6478  -26.7612   18.7001 N   0  0  0  0  0  0  0  0  0  0  0  0
  -30.6328  -12.6553   22.9136 N   0  0  0  0  0  0  0  0  0  0  0  0
  -30.3032  -25.1025   16.8933 N   0  3  0  0  0  0  0  0  0  0  0  0
  -22.5556  -14.7603   20.8580 O   0  0  0  0  0  0  0  0  0  0  0  0
  -26.9612  -26.8890   24.7044 O   0  0  0  0  0  0  0  0  0  0  0  0
  -27.6602  -28.7901   20.7230 O   0  0  0  0  0  0  0  0  0  0  0  0
  -28.2542  -24.5233   18.7324 O   0  0  0  0  0  0  0  0  0  0  0  0
  -32.2233  -12.9162   21.2830 O   0  0  0  0  0  0  0  0  0  0  0  0
  -21.4203   -7.1010   21.6538 O   0  0  0  0  0  0  0  0  0  0  0  0
  -29.4039  -21.5312   24.7389 O   0  0  0  0  0  0  0  0  0  1  0  0
  -23.3326   -3.2936   25.1540 F   0  0  0  0  0  0  0  0  0  0  0  0
  -19.9888   -6.4061   23.9144 F   0  0  0  0  0  0  0  0  0  0  0  0
  1  2  1  0  0  0  0
  1  5  2  0  0  0  0
  2  6  2  0  0  0  0
  3 12  2  0  0  0  0
  3 19  1  0  0  0  0
  4 13  1  0  0  0  0
  4 19  2  0  0  0  0
  5 21  1  0  0  0  0
  6 23  1  0  0  0  0
  7 14  2  0  0  0  0
  7 22  1  0  0  0  0
  8 10  2  0  0  0  0
  8 25  1  0  0  0  0
  9 11  1  0  0  0  0
  9 25  2  0  0  0  0
 10 26  1  0  0  0  0
 11 26  2  0  0  0  0
 12 27  1  0  0  0  0
 13 27  2  0  0  0  0
 14 28  1  0  0  0  0
 15 16  2  0  0  0  0
 15 29  1  0  0  0  0
 16 30  1  0  0  0  0
 17 24  1  0  0  0  0
 17 28  2  0  0  0  0
 18 30  2  0  0  0  0
 18 31  1  0  0  0  0
 19 32  1  0  0  0  0
 20 32  1  0  0  0  0
 20 33  2  0  0  0  0
 20 34  1  0  0  0  0
 21 23  2  0  0  0  0
 21 39  1  0  0  0  0
 22 24  2  0  0  0  0
 22 40  1  0  0  0  0
 23 48  1  0  0  0  0
 24 41  1  0  0  0  0
 25 58  1  0  0  0  0
 26 61  1  0  0  0  0
 27 81  1  0  0  0  0
 28 82  1  0  0  0  0
 29 31  2  0  0  0  0
 29 81  1  0  0  0  0
 30 83  1  0  0  0  0
 31 84  1  0  0  0  0
 32 66  2  0  0  0  0
 33 67  1  0  0  0  0
 33 70  1  0  0  0  0
 34 71  1  0  0  0  0
 34 76  2  0  0  0  0
 35 49  1  0  0  0  0
 35 72  1  0  0  0  0
 35 77  2  0  0  0  0
 36 62  1  0  0  0  0
 36 68  1  0  0  0  0
 36 78  2  0  0  0  0
 37 63  1  0  0  0  0
 37 73  1  0  0  0  0
 37 79  2  0  0  0  0
 38 69  1  0  0  0  0
 38 74  1  0  0  0  0
 38 80  2  0  0  0  0
 39 42  1  0  0  0  0
 40 49  1  0  0  0  0
 41 68  1  0  0  0  0
 42 44  1  0  0  0  0
 43 45  1  0  0  0  0
 43 46  1  0  0  0  0
 44 48  1  0  0  0  0
 45 50  1  0  0  0  0
 46 69  1  0  0  0  0
 47 50  1  0  0  0  0
 47 69  1  0  0  0  0
 48 72  1  0  0  0  0
 49 68  1  0  0  0  0
 50 67  1  0  0  0  0
 51 59  1  0  0  0  0
 52 61  1  0  0  0  0
 53 63  1  0  0  0  0
 54 65  1  0  0  0  0
 55 65  1  0  0  0  0
 56 65  1  0  0  0  0
 57 75  1  0  0  0  0
 58 74  1  0  0  0  0
 59 64  1  0  0  0  0
 60 64  1  0  0  0  0
 60 82  1  0  0  0  0
 61 64  1  0  0  0  0
 62 65  1  0  0  0  0
 62 73  1  0  0  0  0
 63 75  1  0  0  0  0
 66 67  1  0  0  0  0
M  CHG  1  75   1
M  ISO  4  38 100  60 101  74 100  82 101
M  END
> <Batch ID>
0122

> <Smiles>
CCC(C(C)c1ccc(C[100NH:0][100C:0](=O)N2CCCC(n3nc(-c4ccc(Oc5ccc(F)cc5F)cc4)c(C(N)=O)c3N)C2)cc1)[101CH2:1][101O:1]c1ccc2c(c1)CN(C(=O)C(NC(=O)C(C)NC)C(C)(C)C)C(C(=O)NC1CCCc3ccccc31)C2

> <Shape>
0.268

> <Color>
0.183

> <Negative vol penalty>
0.000

$$$$

  -OEChem-04052320283D

 84 93  0     1  0  0  0  0  0999 V2000
  -26.8795  -38.3927   22.8343 C   0  0  0  0  0  0  0  0  0  0  0  0
  -27.5159  -37.4524   22.0304 C   0  0  0  0  0  0  0  0  0  0  0  0
  -24.5886  -10.0603   23.1687 C   0  0  0  0  0  0  0  0  0  0  0  0
  -24.5642   -8.5336   21.2964 C   0  0  0  0  0  0  0  0  0  0  0  0
  -26.1253  -37.9751   23.9301 C   0  0  0  0  0  0  0  0  0  0  0  0
  -27.3994  -36.0939   22.3225 C   0  0  0  0  0  0  0  0  0  0  0  0
  -27.1157  -29.6972   19.1104 C   0  0  0  0  0  0  0  0  0  0  0  0
  -30.2975  -24.3207   20.4145 C   0  0  0  0  0  0  0  0  0  0  0  0
  -29.0673  -23.6386   18.4502 C   0  0  0  0  0  0  0  0  0  0  0  0
  -30.7691  -23.0175   20.5717 C   0  0  0  0  0  0  0  0  0  0  0  0
  -29.5390  -22.3353   18.6074 C   0  0  0  0  0  0  0  0  0  0  0  0
  -23.4316   -9.4641   23.6701 C   0  0  0  0  0  0  0  0  0  0  0  0
  -23.4072   -7.9373   21.7978 C   0  0  0  0  0  0  0  0  0  0  0  0
  -27.7243  -28.4435   19.1512 C   0  0  0  0  0  0  0  0  0  0  0  0
  -22.5988   -5.7056   24.2033 C   0  0  0  0  0  0  0  0  0  0  0  0
  -22.5420   -4.3119   24.2136 C   0  0  0  0  0  0  0  0  0  0  0  0
  -26.3302  -27.8344   21.0232 C   0  0  0  0  0  0  0  0  0  0  0  0
  -20.5954   -4.3806   22.7843 C   0  0  0  0  0  0  0  0  0  0  0  0
  -25.1549   -9.5951   21.9819 C   0  0  0  0  0  0  0  0  0  0  0  0
  -27.6818   -9.8493   21.7406 C   0  0  0  0  0  0  0  0  0  0  0  0
  -25.9915  -36.6103   24.2301 C   0  0  0  0  0  0  0  0  0  0  0  0
  -26.1157  -30.0333   20.0342 C   0  0  0  0  0  0  0  0  0  0  0  0
  -26.6437  -35.6577   23.4241 C   0  0  0  0  0  0  0  0  0  0  0  0
  -25.7087  -29.0920   20.9904 C   0  0  0  0  0  0  0  0  0  0  0  0
  -29.4466  -24.6313   19.3537 C   0  0  0  0  0  0  0  0  0  0  0  0
  -30.3899  -22.0248   19.6682 C   0  0  0  0  0  0  0  0  0  0  0  0
  -22.8409   -8.4025   22.9846 C   0  0  0  0  0  0  0  0  0  0  0  0
  -27.3336  -27.5129   20.1095 C   0  0  0  0  0  0  0  0  0  0  0  0
  -21.6538   -6.4368   23.4835 C   0  0  0  0  0  0  0  0  0  0  0  0
  -21.5404   -3.6494   23.5041 C   0  0  0  0  0  0  0  0  0  0  0  0
  -20.6521   -5.7743   22.7740 C   0  0  0  0  0  0  0  0  0  0  0  0
  -26.3498  -10.2110   21.4632 C   0  0  0  0  0  0  0  0  0  0  0  0
  -28.4370  -10.7330   21.0090 C   0  0  0  0  0  0  0  0  0  0  0  0
  -28.1908   -8.8075   22.5840 C   0  0  0  0  0  0  0  0  0  0  0  0
  -25.8076  -32.2374   22.3037 C   0  0  0  0  0  0  0  0  0  0  0  0
  -22.7934  -31.0549   22.4992 C   0  0  0  0  0  0  0  0  0  0  0  0
  -20.6686  -28.4366   21.9733 C   0  0  0  0  0  0  0  0  0  0  0  0
  -29.6442  -15.6461   19.2176 C   0  0  0  0  0  0  0  0  0  0  0  0
  -25.2046  -36.2095   25.4527 C   0  0  0  0  0  0  0  0  0  0  0  0
  -25.4503  -31.3802   19.9599 C   0  0  0  0  0  0  0  0  0  0  0  0
  -24.6256  -29.3963   21.9918 C   0  0  0  0  0  0  0  0  0  0  0  0
  -24.8233  -34.7315   25.4742 C   0  0  0  0  0  0  0  0  0  0  0  0
  -27.1130  -14.0191   17.4079 C   0  0  0  0  0  0  0  0  0  0  0  0
  -26.0252  -33.8649   25.1119 C   0  0  0  0  0  0  0  0  0  0  0  0
  -26.7896  -12.8430   18.3290 C   0  0  0  0  0  0  0  0  0  0  0  0
  -29.1160  -19.1254   19.2764 C   0  0  0  0  0  0  0  0  0  0  0  0
  -31.5574  -18.5298   19.0482 C   0  0  0  0  0  0  0  0  0  0  0  0
  -27.3513  -15.3115   18.1908 C   0  0  0  0  0  0  0  0  0  0  0  0
  -28.7548  -17.8909   18.4451 C   0  0  0  0  0  0  0  0  0  0  0  0
  -31.1511  -17.3274   18.2008 C   0  0  0  0  0  0  0  0  0  0  0  0
  -28.0487  -14.0122   20.1768 C   0  0  0  0  0  0  0  0  0  0  0  0
  -26.5207  -34.1738   23.6940 C   0  0  1  0  0  0  0  0  0  0  0  0
  -24.8027  -31.8002   21.2758 C   0  0  1  0  0  0  0  0  0  0  0  0
  -27.8615  -12.6868   19.4224 C   0  0  1  0  0  0  0  0  0  0  0  0
  -30.5144  -19.6446   18.9340 C   0  0  0  0  0  0  0  0  0  0  0  0
  -18.2715  -27.7551   22.2678 C   0  0  0  0  0  0  0  0  0  0  0  0
  -23.2728  -30.6688   25.4877 C   0  0  0  0  0  0  0  0  0  0  0  0
  -21.2809  -29.1530   25.5406 C   0  0  0  0  0  0  0  0  0  0  0  0
  -21.0067  -31.5482   24.8998 C   0  0  0  0  0  0  0  0  0  0  0  0
  -20.3030  -28.0391   19.0634 C   0  0  0  0  0  0  0  0  0  0  0  0
  -28.9415  -26.0243   19.1850 C   0  0  0  0  0  0  0  0  0  1  0  0
  -22.1258  -29.9542   23.2878 C   0  0  1  0  0  0  0  0  0  0  0  0
  -19.2972  -28.3665   21.3261 C   0  0  2  0  0  0  0  0  0  0  0  0
  -21.9434  -30.3257   24.7865 C   0  0  0  0  0  0  0  0  0  0  0  0
  -26.2607  -11.2441   20.6213 N   0  0  0  0  0  0  0  0  0  0  0  0
  -27.5462  -11.5391   20.3634 N   0  0  0  0  0  0  0  0  0  0  0  0
  -24.0097  -30.7291   21.8826 N   0  0  0  0  0  0  0  0  0  0  0  0
  -28.3511  -15.1029   19.2475 N   0  0  0  0  0  0  0  0  0  0  0  0
  -29.8058  -16.8683   18.5481 N   0  0  0  0  0  0  0  0  0  0  0  0
  -29.7695  -10.8914   20.8615 N   0  0  0  0  0  0  0  0  0  0  0  0
  -27.2763   -7.9908   23.2629 N   0  0  0  0  0  0  0  0  0  0  0  0
  -30.8590  -20.7323   19.8228 N   0  0  0  0  0  0  0  0  0  0  0  0
  -25.6611  -33.5497   22.7111 N   0  0  0  0  0  0  0  0  0  0  0  0
  -20.8803  -29.6508   22.5914 N   0  0  0  0  0  0  0  0  0  0  0  0
  -19.3504  -27.5390   20.0879 N   0  3  0  0  0  0  0  0  0  0  0  0
  -29.4203   -8.6174   22.7441 O   0  0  0  0  0  0  0  0  0  0  0  0
  -26.6524  -31.4426   22.6991 O   0  0  0  0  0  0  0  0  0  0  0  0
  -22.2519  -32.1609   22.4269 O   0  0  0  0  0  0  0  0  0  0  0  0
  -21.4703  -27.5057   21.9376 O   0  0  0  0  0  0  0  0  0  0  0  0
  -30.5987  -15.0729   19.7574 O   0  0  0  0  0  0  0  0  0  0  0  0
  -21.7120   -7.8203   23.4737 O   0  0  0  0  0  0  0  0  0  0  0  0
  -27.9306  -26.2804   20.1523 O   0  0  0  0  0  0  0  0  0  1  0  0
  -21.4869   -2.3111   23.5128 F   0  0  0  0  0  0  0  0  0  0  0  0
  -19.7422   -6.4713   22.0797 F   0  0  0  0  0  0  0  0  0  0  0  0
  1  2  1  0  0  0  0
  1  5  2  0  0  0  0
  2  6  2  0  0  0  0
  3 12  2  0  0  0  0
  3 19  1  0  0  0  0
  4 13  1  0  0  0  0
  4 19  2  0  0  0  0
  5 21  1  0  0  0  0
  6 23  1  0  0  0  0
  7 14  2  0  0  0  0
  7 22  1  0  0  0  0
  8 10  2  0  0  0  0
  8 25  1  0  0  0  0
  9 11  1  0  0  0  0
  9 25  2  0  0  0  0
 10 26  1  0  0  0  0
 11 26  2  0  0  0  0
 12 27  1  0  0  0  0
 13 27  2  0  0  0  0
 14 28  1  0  0  0  0
 15 16  2  0  0  0  0
 15 29  1  0  0  0  0
 16 30  1  0  0  0  0
 17 24  1  0  0  0  0
 17 28  2  0  0  0  0
 18 30  2  0  0  0  0
 18 31  1  0  0  0  0
 19 32  1  0  0  0  0
 20 32  1  0  0  0  0
 20 33  2  0  0  0  0
 20 34  1  0  0  0  0
 21 23  2  0  0  0  0
 21 39  1  0  0  0  0
 22 24  2  0  0  0  0
 22 40  1  0  0  0  0
 23 52  1  0  0  0  0
 24 41  1  0  0  0  0
 25 61  1  0  0  0  0
 26 72  1  0  0  0  0
 27 81  1  0  0  0  0
 28 82  1  0  0  0  0
 29 31  2  0  0  0  0
 29 81  1  0  0  0  0
 30 83  1  0  0  0  0
 31 84  1  0  0  0  0
 32 65  2  0  0  0  0
 33 66  1  0  0  0  0
 33 70  1  0  0  0  0
 34 71  1  0  0  0  0
 34 76  2  0  0  0  0
 35 53  1  0  0  0  0
 35 73  1  0  0  0  0
 35 77  2  0  0  0  0
 36 62  1  0  0  0  0
 36 67  1  0  0  0  0
 36 78  2  0  0  0  0
 37 63  1  0  0  0  0
 37 74  1  0  0  0  0
 37 79  2  0  0  0  0
 38 68  1  0  0  0  0
 38 69  1  0  0  0  0
 38 80  2  0  0  0  0
 39 42  1  0  0  0  0
 40 53  1  0  0  0  0
 41 67  1  0  0  0  0
 42 44  1  0  0  0  0
 43 45  1  0  0  0  0
 43 48  1  0  0  0  0
 44 52  1  0  0  0  0
 45 54  1  0  0  0  0
 46 49  1  0  0  0  0
 46 55  1  0  0  0  0
 47 50  1  0  0  0  0
 47 55  1  0  0  0  0
 48 68  1  0  0  0  0
 49 69  1  0  0  0  0
 50 69  1  0  0  0  0
 51 54  1  0  0  0  0
 51 68  1  0  0  0  0
 52 73  1  0  0  0  0
 53 67  1  0  0  0  0
 54 66  1  0  0  0  0
 55 72  1  0  0  0  0
 56 63  1  0  0  0  0
 57 64  1  0  0  0  0
 58 64  1  0  0  0  0
 59 64  1  0  0  0  0
 60 75  1  0  0  0  0
 61 82  1  0  0  0  0
 62 64  1  0  0  0  0
 62 74  1  0  0  0  0
 63 75  1  0  0  0  0
 65 66  1  0  0  0  0
M  CHG  1  75   1
M  ISO  4  38 100  61 101  69 100  82 101
M  END
> <Batch ID>
0122

> <Smiles>
CNC(C)C(=O)NC(C(=O)N1Cc2cc([101O:1][101CH2:1]c3ccc(NC4CC[100N:0]([100C:0](=O)N5CCCC(n6nc(-c7ccc(Oc8ccc(F)cc8F)cc7)c(C(N)=O)c6N)C5)CC4)cc3)ccc2CC1C(=O)NC1CCCc2ccccc21)C(C)(C)C

> <Shape>
0.326

> <Color>
0.093

> <Negative vol penalty>
0.000

$$$$

  -OEChem-04052320283D

 85 94  0     1  0  0  0  0  0999 V2000
  -22.5078   -8.0003   20.6168 C   0  0  0  0  0  0  0  0  0  0  0  0
  -22.0344   -9.2998   20.7673 C   0  0  0  0  0  0  0  0  0  0  0  0
  -24.6840  -30.1841   21.8153 C   0  0  0  0  0  0  0  0  0  0  0  0
  -24.1832  -28.3639   23.3229 C   0  0  0  0  0  0  0  0  0  0  0  0
  -23.8138   -7.6876   20.9916 C   0  0  0  0  0  0  0  0  0  0  0  0
  -22.8665  -10.2872   21.2938 C   0  0  0  0  0  0  0  0  0  0  0  0
  -22.9760  -16.2141   19.7558 C   0  0  0  0  0  0  0  0  0  0  0  0
  -23.4468  -30.0109   21.1950 C   0  0  0  0  0  0  0  0  0  0  0  0
  -22.9459  -28.1906   22.7026 C   0  0  0  0  0  0  0  0  0  0  0  0
  -22.4125  -17.3461   20.3431 C   0  0  0  0  0  0  0  0  0  0  0  0
  -19.9054  -29.6648   22.7580 C   0  0  0  0  0  0  0  0  0  0  0  0
  -18.7900  -29.4913   23.5774 C   0  0  0  0  0  0  0  0  0  0  0  0
  -24.4961  -17.7886   21.4754 C   0  0  0  0  0  0  0  0  0  0  0  0
  -18.3881  -27.3311   22.5728 C   0  0  0  0  0  0  0  0  0  0  0  0
  -25.0523  -29.3606   22.8792 C   0  0  0  0  0  0  0  0  0  0  0  0
  -26.6220  -30.3686   24.6192 C   0  0  0  0  0  0  0  0  0  0  0  0
  -24.6654   -8.6738   21.5139 C   0  0  0  0  0  0  0  0  0  0  0  0
  -24.3027  -15.8541   20.0330 C   0  0  0  0  0  0  0  0  0  0  0  0
  -24.1847   -9.9871   21.6772 C   0  0  0  0  0  0  0  0  0  0  0  0
  -25.0749  -16.6530   20.8884 C   0  0  0  0  0  0  0  0  0  0  0  0
  -22.5777  -29.0142   21.6386 C   0  0  0  0  0  0  0  0  0  0  0  0
  -23.1716  -18.1319   21.2052 C   0  0  0  0  0  0  0  0  0  0  0  0
  -20.2621  -28.6715   21.8460 C   0  0  0  0  0  0  0  0  0  0  0  0
  -18.0314  -28.3244   23.4848 C   0  0  0  0  0  0  0  0  0  0  0  0
  -19.5035  -27.5047   21.7534 C   0  0  0  0  0  0  0  0  0  0  0  0
  -26.3304  -29.5387   23.5200 C   0  0  0  0  0  0  0  0  0  0  0  0
  -27.9645  -30.1832   24.8427 C   0  0  0  0  0  0  0  0  0  0  0  0
  -25.7568  -31.2299   25.3709 C   0  0  0  0  0  0  0  0  0  0  0  0
  -25.7117  -13.3376   21.3692 C   0  0  0  0  0  0  0  0  0  0  0  0
  -28.4251  -14.8603   20.4519 C   0  0  0  0  0  0  0  0  0  0  0  0
  -29.9648  -17.7924   19.6282 C   0  0  0  0  0  0  0  0  0  0  0  0
  -28.9156  -26.2868   21.0515 C   0  0  0  0  0  0  0  0  0  0  0  0
  -26.0541   -8.2776   21.9491 C   0  0  0  0  0  0  0  0  0  0  0  0
  -24.9041  -14.6450   19.3706 C   0  0  0  0  0  0  0  0  0  0  0  0
  -26.5100  -16.3211   21.2026 C   0  0  0  0  0  0  0  0  0  0  0  0
  -26.9917   -9.4654   22.1496 C   0  0  0  0  0  0  0  0  0  0  0  0
  -30.4286  -29.5085   21.3653 C   0  0  0  0  0  0  0  0  0  0  0  0
  -29.2671  -22.8513   22.1575 C   0  0  0  0  0  0  0  0  0  0  0  0
  -26.3013  -10.5602   22.9568 C   0  0  0  0  0  0  0  0  0  0  0  0
  -30.6500  -29.6921   22.8626 C   0  0  0  0  0  0  0  0  0  0  0  0
  -27.7882  -22.8352   21.7970 C   0  0  0  0  0  0  0  0  0  0  0  0
  -20.5987  -22.2151   20.6664 C   0  0  0  0  0  0  0  0  0  0  0  0
  -21.2479  -23.5771   20.6519 C   0  0  0  0  0  0  0  0  0  0  0  0
  -30.6358  -28.0554   20.9671 C   0  0  0  0  0  0  0  0  0  0  0  0
  -29.5005  -24.3051   22.5381 C   0  0  0  0  0  0  0  0  0  0  0  0
  -29.8595  -27.2810   23.1996 C   0  0  0  0  0  0  0  0  0  0  0  0
  -25.0649  -11.0913   22.2214 C   0  0  1  0  0  0  0  0  0  0  0  0
  -26.1051  -14.0850   20.1265 C   0  0  1  0  0  0  0  0  0  0  0  0
  -29.7880  -28.7398   23.7069 C   0  0  2  0  0  0  0  0  0  0  0  0
  -27.5847  -24.1769   21.0879 C   0  0  1  0  0  0  0  0  0  0  0  0
  -21.6386  -21.3912   21.4075 C   0  0  1  0  0  0  0  0  0  0  0  0
  -22.7051  -23.2158   20.4171 C   0  0  1  0  0  0  0  0  0  0  0  0
  -32.1967  -18.7259   18.9614 C   0  0  0  0  0  0  0  0  0  0  0  0
  -23.3925  -25.6078   20.3324 C   0  0  0  0  0  0  0  0  0  0  0  0
  -29.3812  -14.6310   23.3404 C   0  0  0  0  0  0  0  0  0  0  0  0
  -31.1126  -16.3664   22.8317 C   0  0  0  0  0  0  0  0  0  0  0  0
  -31.1414  -14.1859   21.6204 C   0  0  0  0  0  0  0  0  0  0  0  0
  -28.9168  -18.7555   17.0333 C   0  0  0  0  0  0  0  0  0  0  0  0
  -26.1772  -24.7218   21.2942 C   0  0  0  0  0  0  0  0  0  0  0  0
  -21.6088  -19.9177   21.0499 C   0  0  0  0  0  0  0  0  0  1  0  0
  -25.1243  -23.7739   20.7168 C   0  0  0  0  0  0  0  0  0  0  0  0
  -29.3437  -15.8798   21.0809 C   0  0  1  0  0  0  0  0  0  0  0  0
  -30.8727  -18.1625   18.4692 C   0  0  2  0  0  0  0  0  0  0  0  0
  -23.6782  -24.2434   20.9615 C   0  0  2  0  0  0  0  0  0  0  0  0
  -30.2171  -15.2712   22.2142 C   0  0  0  0  0  0  0  0  0  0  0  0
  -27.4015  -28.8756   23.0761 N   0  0  0  0  0  0  0  0  0  0  0  0
  -28.3793  -29.2887   23.9004 N   0  0  0  0  0  0  0  0  0  0  0  0
  -27.0509  -15.1255   20.5353 N   0  0  0  0  0  0  0  0  0  0  0  0
  -29.7830  -27.1500   21.7374 N   0  0  0  0  0  0  0  0  0  0  0  0
  -28.6182  -25.0580   21.6451 N   0  0  0  0  0  0  0  0  0  0  0  0
  -28.8188  -30.6998   25.7514 N   0  0  0  0  0  0  0  0  0  0  0  0
  -24.4051  -31.3017   25.0073 N   0  0  0  0  0  0  0  0  0  0  0  0
  -25.4568  -11.9955   21.1616 N   0  0  0  0  0  0  0  0  0  0  0  0
  -30.1091  -16.4691   19.9877 N   0  0  0  0  0  0  0  0  0  0  0  0
  -30.2187  -19.1856   17.6051 N   0  3  0  0  0  0  0  0  0  0  0  0
  -26.1734  -31.9281   26.3262 O   0  0  0  0  0  0  0  0  0  0  0  0
  -25.6459  -13.9341   22.4376 O   0  0  0  0  0  0  0  0  0  0  0  0
  -28.9094  -13.8688   19.9004 O   0  0  0  0  0  0  0  0  0  0  0  0
  -29.2064  -18.5978   20.1637 O   0  0  0  0  0  0  0  0  0  0  0  0
  -28.4359  -26.5956   19.9526 O   0  0  0  0  0  0  0  0  0  0  0  0
  -22.9192  -21.9499   21.0655 O   0  0  0  0  0  0  0  0  0  0  0  0
  -21.3702  -28.8449   21.0337 O   0  0  0  0  0  0  0  0  0  0  0  0
  -22.6194  -19.2459   21.7849 O   0  0  0  0  0  0  0  0  0  1  0  0
  -16.9612  -28.1573   24.2728 F   0  0  0  0  0  0  0  0  0  0  0  0
  -19.8419  -26.5464   20.8799 F   0  0  0  0  0  0  0  0  0  0  0  0
  1  2  1  0  0  0  0
  1  5  2  0  0  0  0
  2  6  2  0  0  0  0
  3  8  2  0  0  0  0
  3 15  1  0  0  0  0
  4  9  1  0  0  0  0
  4 15  2  0  0  0  0
  5 17  1  0  0  0  0
  6 19  1  0  0  0  0
  7 10  2  0  0  0  0
  7 18  1  0  0  0  0
  8 21  1  0  0  0  0
  9 21  2  0  0  0  0
 10 22  1  0  0  0  0
 11 12  2  0  0  0  0
 11 23  1  0  0  0  0
 12 24  1  0  0  0  0
 13 20  1  0  0  0  0
 13 22  2  0  0  0  0
 14 24  2  0  0  0  0
 14 25  1  0  0  0  0
 15 26  1  0  0  0  0
 16 26  1  0  0  0  0
 16 27  2  0  0  0  0
 16 28  1  0  0  0  0
 17 19  2  0  0  0  0
 17 33  1  0  0  0  0
 18 20  2  0  0  0  0
 18 34  1  0  0  0  0
 19 47  1  0  0  0  0
 20 35  1  0  0  0  0
 21 82  1  0  0  0  0
 22 83  1  0  0  0  0
 23 25  2  0  0  0  0
 23 82  1  0  0  0  0
 24 84  1  0  0  0  0
 25 85  1  0  0  0  0
 26 66  2  0  0  0  0
 27 67  1  0  0  0  0
 27 71  1  0  0  0  0
 28 72  1  0  0  0  0
 28 76  2  0  0  0  0
 29 48  1  0  0  0  0
 29 73  1  0  0  0  0
 29 77  2  0  0  0  0
 30 62  1  0  0  0  0
 30 68  1  0  0  0  0
 30 78  2  0  0  0  0
 31 63  1  0  0  0  0
 31 74  1  0  0  0  0
 31 79  2  0  0  0  0
 32 69  1  0  0  0  0
 32 70  1  0  0  0  0
 32 80  2  0  0  0  0
 33 36  1  0  0  0  0
 34 48  1  0  0  0  0
 35 68  1  0  0  0  0
 36 39  1  0  0  0  0
 37 40  1  0  0  0  0
 37 44  1  0  0  0  0
 38 41  1  0  0  0  0
 38 45  1  0  0  0  0
 39 47  1  0  0  0  0
 40 49  1  0  0  0  0
 41 50  1  0  0  0  0
 42 43  1  0  0  0  0
 42 51  1  0  0  0  0
 43 52  1  0  0  0  0
 44 69  1  0  0  0  0
 45 70  1  0  0  0  0
 46 49  1  0  0  0  0
 46 69  1  0  0  0  0
 47 73  1  0  0  0  0
 48 68  1  0  0  0  0
 49 67  1  0  0  0  0
 50 59  1  0  0  0  0
 50 70  1  0  0  0  0
 51 60  1  0  0  0  0
 51 81  1  0  0  0  0
 52 64  1  0  0  0  0
 52 81  1  0  0  0  0
 53 63  1  0  0  0  0
 54 64  1  0  0  0  0
 55 65  1  0  0  0  0
 56 65  1  0  0  0  0
 57 65  1  0  0  0  0
 58 75  1  0  0  0  0
 59 61  1  0  0  0  0
 60 83  1  0  0  0  0
 61 64  1  0  0  0  0
 62 65  1  0  0  0  0
 62 74  1  0  0  0  0
 63 75  1  0  0  0  0
 66 67  1  0  0  0  0
M  CHG  1  75   1
M  ISO  4  32 100  60 101  70 100  83 101
M  END
> <Batch ID>
0122

> <Smiles>
CNC(C)C(=O)NC(C(=O)N1Cc2cc([101O:1][101CH2:1]C3CCC(C(C)CCC4CCC[100N:0]4[100C:0](=O)N4CCCC(n5nc(-c6ccc(Oc7ccc(F)cc7F)cc6)c(C(N)=O)c5N)C4)O3)ccc2CC1C(=O)NC1CCCc2ccccc21)C(C)(C)C

> <Shape>
0.276

> <Color>
0.048

> <Negative vol penalty>
0.000

$$$$

  -OEChem-04052320283D

 85 94  0     1  0  0  0  0  0999 V2000
  -17.2119  -29.9655   24.2405 C   0  0  0  0  0  0  0  0  0  0  0  0
  -18.0014  -29.1937   25.0869 C   0  0  0  0  0  0  0  0  0  0  0  0
  -21.7637  -14.7907   22.0098 C   0  0  0  0  0  0  0  0  0  0  0  0
  -24.0435  -14.1263   21.5643 C   0  0  0  0  0  0  0  0  0  0  0  0
  -17.3522  -29.8477   22.8584 C   0  0  0  0  0  0  0  0  0  0  0  0
  -18.9310  -28.3028   24.5516 C   0  0  0  0  0  0  0  0  0  0  0  0
  -25.3692  -25.4688   25.9057 C   0  0  0  0  0  0  0  0  0  0  0  0
  -21.3085  -13.5822   21.4826 C   0  0  0  0  0  0  0  0  0  0  0  0
  -23.5883  -12.9178   21.0372 C   0  0  0  0  0  0  0  0  0  0  0  0
  -26.0035  -24.2306   25.9966 C   0  0  0  0  0  0  0  0  0  0  0  0
  -22.4805   -9.9493   22.2126 C   0  0  0  0  0  0  0  0  0  0  0  0
  -23.1423   -8.7845   22.6007 C   0  0  0  0  0  0  0  0  0  0  0  0
  -26.2143  -24.1691   23.5943 C   0  0  0  0  0  0  0  0  0  0  0  0
  -23.7108   -8.3392   20.2951 C   0  0  0  0  0  0  0  0  0  0  0  0
  -30.8371  -23.0487   21.5246 C   0  0  0  0  0  0  0  0  0  0  0  0
  -30.3163  -20.8808   21.3159 C   0  0  0  0  0  0  0  0  0  0  0  0
  -23.1312  -15.0628   22.0506 C   0  0  0  0  0  0  0  0  0  0  0  0
  -23.9424  -16.5805   23.9337 C   0  0  0  0  0  0  0  0  0  0  0  0
  -18.2907  -28.9620   22.3059 C   0  0  0  0  0  0  0  0  0  0  0  0
  -25.1427  -26.0624   24.6556 C   0  0  0  0  0  0  0  0  0  0  0  0
  -19.0830  -28.1721   23.1607 C   0  0  0  0  0  0  0  0  0  0  0  0
  -25.5793  -25.4161   23.4905 C   0  0  0  0  0  0  0  0  0  0  0  0
  -30.0434  -22.9223   20.4060 C   0  0  0  0  0  0  0  0  0  0  0  0
  -29.7139  -21.5508   20.2738 C   0  0  0  0  0  0  0  0  0  0  0  0
  -22.2208  -12.6457   20.9963 C   0  0  0  0  0  0  0  0  0  0  0  0
  -26.4235  -23.5792   24.8406 C   0  0  0  0  0  0  0  0  0  0  0  0
  -22.4337  -10.3091   20.8657 C   0  0  0  0  0  0  0  0  0  0  0  0
  -23.7575   -7.9794   21.6420 C   0  0  0  0  0  0  0  0  0  0  0  0
  -23.0489   -9.5041   19.9070 C   0  0  0  0  0  0  0  0  0  0  0  0
  -23.6021  -16.3112   22.5945 C   0  0  0  0  0  0  0  0  0  0  0  0
  -24.3272  -17.8990   23.9317 C   0  0  0  0  0  0  0  0  0  0  0  0
  -23.9135  -15.7160   25.0772 C   0  0  0  0  0  0  0  0  0  0  0  0
  -22.5590  -26.9271   23.0183 C   0  0  0  0  0  0  0  0  0  0  0  0
  -24.7485  -28.1766   20.9769 C   0  0  0  0  0  0  0  0  0  0  0  0
  -27.9408  -28.1340   19.7710 C   0  0  0  0  0  0  0  0  0  0  0  0
  -26.5072  -21.5039   19.6769 C   0  0  0  0  0  0  0  0  0  0  0  0
  -18.3732  -28.8348   20.8053 C   0  0  0  0  0  0  0  0  0  0  0  0
  -24.4811  -27.4109   24.5763 C   0  0  0  0  0  0  0  0  0  0  0  0
  -25.3781  -26.0203   22.1256 C   0  0  0  0  0  0  0  0  0  0  0  0
  -19.6438  -28.1404   20.3218 C   0  0  0  0  0  0  0  0  0  0  0  0
  -23.5675  -22.0178   21.6189 C   0  0  0  0  0  0  0  0  0  0  0  0
  -29.9109  -23.9642   18.0042 C   0  0  0  0  0  0  0  0  0  0  0  0
  -30.6661  -24.9398   18.8516 C   0  0  0  0  0  0  0  0  0  0  0  0
  -19.9055  -26.8781   21.1372 C   0  0  0  0  0  0  0  0  0  0  0  0
  -23.2738  -20.6378   22.2100 C   0  0  0  0  0  0  0  0  0  0  0  0
  -24.1212  -21.9174   20.1993 C   0  0  0  0  0  0  0  0  0  0  0  0
  -25.0040  -19.6601   20.6451 C   0  0  0  0  0  0  0  0  0  0  0  0
  -29.6081  -24.0563   19.4897 C   0  0  0  0  0  0  0  0  0  0  0  0
  -20.1199  -27.2125   22.6183 C   0  0  1  0  0  0  0  0  0  0  0  0
  -23.8416  -27.6838   23.2184 C   0  0  1  0  0  0  0  0  0  0  0  0
  -24.4963  -19.7073   22.0964 C   0  0  2  0  0  0  0  0  0  0  0  0
  -29.4225  -29.2473   18.0791 C   0  0  0  0  0  0  0  0  0  0  0  0
  -23.3913  -26.5929   18.7499 C   0  0  0  0  0  0  0  0  0  0  0  0
  -25.4230  -26.9725   17.3369 C   0  0  0  0  0  0  0  0  0  0  0  0
  -24.0667  -28.9158   18.1157 C   0  0  0  0  0  0  0  0  0  0  0  0
  -29.7929  -29.1093   21.8632 C   0  0  0  0  0  0  0  0  0  0  0  0
  -28.8804  -20.9408   19.2190 C   0  0  0  0  0  0  0  0  0  0  0  0
  -31.7708  -21.4999   23.2689 C   0  0  0  0  0  0  0  0  0  0  0  0
  -30.9551  -20.8438   24.3752 C   0  0  0  0  0  0  0  0  0  0  0  0
  -28.9136  -21.1282   25.7858 C   0  0  0  0  0  0  0  0  0  0  0  0
  -27.8065  -22.1138   26.1040 C   0  0  0  0  0  0  0  0  0  1  0  0
  -25.5050  -27.6636   19.7755 C   0  0  1  0  0  0  0  0  0  0  0  0
  -28.9380  -29.2508   19.5206 C   0  0  2  0  0  0  0  0  0  0  0  0
  -24.5987  -27.5236   18.5199 C   0  0  0  0  0  0  0  0  0  0  0  0
  -23.7568  -17.3733   21.7996 N   0  0  0  0  0  0  0  0  0  0  0  0
  -30.9961  -21.8015   22.0698 N   0  0  0  0  0  0  0  0  0  0  0  0
  -24.1986  -18.3229   22.6418 N   0  0  0  0  0  0  0  0  0  0  0  0
  -24.7207  -27.3374   22.0998 N   0  0  0  0  0  0  0  0  0  0  0  0
  -25.2798  -21.0217   20.1607 N   0  0  0  0  0  0  0  0  0  0  0  0
  -24.7595  -18.7255   24.9076 N   0  0  0  0  0  0  0  0  0  0  0  0
  -23.4923  -14.3908   24.9024 N   0  0  0  0  0  0  0  0  0  0  0  0
  -21.4531  -27.7340   22.8308 N   0  0  0  0  0  0  0  0  0  0  0  0
  -26.6414  -28.5605   19.5951 N   0  0  0  0  0  0  0  0  0  0  0  0
  -27.5553  -20.5917   19.6805 N   0  0  0  0  0  0  0  0  0  0  0  0
  -30.1209  -29.0991   20.4143 N   0  3  0  0  0  0  0  0  0  0  0  0
  -29.8061  -21.7108   24.7523 N   0  3  0  0  0  0  0  0  0  0  0  0
  -24.2354  -16.1118   26.2232 O   0  0  0  0  0  0  0  0  0  0  0  0
  -22.5721  -25.7018   23.0314 O   0  0  0  0  0  0  0  0  0  0  0  0
  -24.2084  -29.2843   20.9237 O   0  0  0  0  0  0  0  0  0  0  0  0
  -28.2808  -26.9959   20.0871 O   0  0  0  0  0  0  0  0  0  0  0  0
  -26.6591  -22.6631   19.2768 O   0  0  0  0  0  0  0  0  0  0  0  0
  -21.7769  -11.4663   20.4820 O   0  0  0  0  0  0  0  0  0  0  0  0
  -27.0423  -22.3702   24.9265 O   0  0  0  0  0  0  0  0  0  1  0  0
  -24.3943   -6.8616   22.0151 F   0  0  0  0  0  0  0  0  0  0  0  0
  -23.0083   -9.8452   18.6117 F   0  0  0  0  0  0  0  0  0  0  0  0
  1  2  1  0  0  0  0
  1  5  2  0  0  0  0
  2  6  2  0  0  0  0
  3  8  2  0  0  0  0
  3 17  1  0  0  0  0
  4  9  1  0  0  0  0
  4 17  2  0  0  0  0
  5 19  1  0  0  0  0
  6 21  1  0  0  0  0
  7 10  2  0  0  0  0
  7 20  1  0  0  0  0
  8 25  1  0  0  0  0
  9 25  2  0  0  0  0
 10 26  1  0  0  0  0
 11 12  2  0  0  0  0
 11 27  1  0  0  0  0
 12 28  1  0  0  0  0
 13 22  1  0  0  0  0
 13 26  2  0  0  0  0
 14 28  2  0  0  0  0
 14 29  1  0  0  0  0
 15 23  2  0  0  0  0
 15 66  1  0  0  0  0
 16 24  2  0  0  0  0
 16 66  1  0  0  0  0
 17 30  1  0  0  0  0
 18 30  1  0  0  0  0
 18 31  2  0  0  0  0
 18 32  1  0  0  0  0
 19 21  2  0  0  0  0
 19 37  1  0  0  0  0
 20 22  2  0  0  0  0
 20 38  1  0  0  0  0
 21 49  1  0  0  0  0
 22 39  1  0  0  0  0
 23 24  1  0  0  0  0
 23 48  1  0  0  0  0
 24 57  1  0  0  0  0
 25 82  1  0  0  0  0
 26 83  1  0  0  0  0
 27 29  2  0  0  0  0
 27 82  1  0  0  0  0
 28 84  1  0  0  0  0
 29 85  1  0  0  0  0
 30 65  2  0  0  0  0
 31 67  1  0  0  0  0
 31 70  1  0  0  0  0
 32 71  1  0  0  0  0
 32 77  2  0  0  0  0
 33 50  1  0  0  0  0
 33 72  1  0  0  0  0
 33 78  2  0  0  0  0
 34 62  1  0  0  0  0
 34 68  1  0  0  0  0
 34 79  2  0  0  0  0
 35 63  1  0  0  0  0
 35 73  1  0  0  0  0
 35 80  2  0  0  0  0
 36 69  1  0  0  0  0
 36 74  1  0  0  0  0
 36 81  2  0  0  0  0
 37 40  1  0  0  0  0
 38 50  1  0  0  0  0
 39 68  1  0  0  0  0
 40 44  1  0  0  0  0
 41 45  1  0  0  0  0
 41 46  1  0  0  0  0
 42 43  1  0  0  0  0
 42 48  1  0  0  0  0
 43 48  1  0  0  0  0
 44 49  1  0  0  0  0
 45 51  1  0  0  0  0
 46 69  1  0  0  0  0
 47 51  1  0  0  0  0
 47 69  1  0  0  0  0
 49 72  1  0  0  0  0
 50 68  1  0  0  0  0
 51 67  1  0  0  0  0
 52 63  1  0  0  0  0
 53 64  1  0  0  0  0
 54 64  1  0  0  0  0
 55 64  1  0  0  0  0
 56 75  1  0  0  0  0
 57 74  1  0  0  0  0
 58 59  1  0  0  0  0
 58 66  1  0  0  0  0
 59 76  1  0  0  0  0
 60 61  1  0  0  0  0
 60 76  1  0  0  0  0
 61 83  1  0  0  0  0
 62 64  1  0  0  0  0
 62 73  1  0  0  0  0
 63 75  1  0  0  0  0
 65 67  1  0  0  0  0
M  CHG  2  75   1  76   1
M  ISO  4  36 100  61 101  74 100  83 101
M  END
> <Batch ID>
0122

> <Smiles>
CNC(C)C(=O)NC(C(=O)N1Cc2cc([101O:1][101CH2:1]CNCCn3cc(C[100NH:0][100C:0](=O)N4CCCC(n5nc(-c6ccc(Oc7ccc(F)cc7F)cc6)c(C(N)=O)c5N)C4)c(C4CC4)c3)ccc2CC1C(=O)NC1CCCc2ccccc21)C(C)(C)C

> <Shape>
0.198

> <Color>
0.060

> <Negative vol penalty>
0.000

$$$$

  -OEChem-04052320283D

 88 96  0     1  0  0  0  0  0999 V2000
  -17.8555  -27.0073   24.4072 C   0  0  0  0  0  0  0  0  0  0  0  0
  -18.6181  -26.5784   23.3256 C   0  0  0  0  0  0  0  0  0  0  0  0
  -31.1054  -16.6644   21.8573 C   0  0  0  0  0  0  0  0  0  0  0  0
  -29.4852  -16.3299   23.6181 C   0  0  0  0  0  0  0  0  0  0  0  0
  -17.7976  -28.3640   24.7235 C   0  0  0  0  0  0  0  0  0  0  0  0
  -19.3225  -27.5061   22.5590 C   0  0  0  0  0  0  0  0  0  0  0  0
  -26.9385  -27.8302   20.8510 C   0  0  0  0  0  0  0  0  0  0  0  0
  -32.1263  -16.2691   22.7216 C   0  0  0  0  0  0  0  0  0  0  0  0
  -30.5062  -15.9345   24.4824 C   0  0  0  0  0  0  0  0  0  0  0  0
  -28.2894  -28.0825   20.6110 C   0  0  0  0  0  0  0  0  0  0  0  0
  -32.3562  -13.1633   25.0466 C   0  0  0  0  0  0  0  0  0  0  0  0
  -32.1382  -12.0292   25.8288 C   0  0  0  0  0  0  0  0  0  0  0  0
  -27.8230  -30.4467   20.4089 C   0  0  0  0  0  0  0  0  0  0  0  0
  -32.4221  -13.3542   27.8290 C   0  0  0  0  0  0  0  0  0  0  0  0
  -29.7848  -16.6948   22.3056 C   0  0  0  0  0  0  0  0  0  0  0  0
  -27.9717  -16.2802   20.5596 C   0  0  0  0  0  0  0  0  0  0  0  0
  -18.5093  -29.3077   23.9662 C   0  0  0  0  0  0  0  0  0  0  0  0
  -26.0260  -28.8883   20.8861 C   0  0  0  0  0  0  0  0  0  0  0  0
  -19.2729  -28.8768   22.8646 C   0  0  0  0  0  0  0  0  0  0  0  0
  -26.4706  -30.2015   20.6612 C   0  0  0  0  0  0  0  0  0  0  0  0
  -31.8267  -15.9041   24.0341 C   0  0  0  0  0  0  0  0  0  0  0  0
  -28.7304  -29.3875   20.3903 C   0  0  0  0  0  0  0  0  0  0  0  0
  -32.6072  -14.3929   25.6556 C   0  0  0  0  0  0  0  0  0  0  0  0
  -32.1711  -12.1246   27.2200 C   0  0  0  0  0  0  0  0  0  0  0  0
  -32.6401  -14.4883   27.0468 C   0  0  0  0  0  0  0  0  0  0  0  0
  -28.7298  -17.1037   21.4134 C   0  0  0  0  0  0  0  0  0  0  0  0
  -27.1076  -17.1420   19.9295 C   0  0  0  0  0  0  0  0  0  0  0  0
  -28.0422  -14.8629   20.3546 C   0  0  0  0  0  0  0  0  0  0  0  0
  -22.4674  -29.9750   21.3673 C   0  0  0  0  0  0  0  0  0  0  0  0
  -24.2315  -32.0511   22.7773 C   0  0  0  0  0  0  0  0  0  0  0  0
  -26.4951  -33.8769   24.5605 C   0  0  0  0  0  0  0  0  0  0  0  0
  -27.6899  -23.0891   19.0307 C   0  0  0  0  0  0  0  0  0  0  0  0
  -18.3781  -30.7685   24.3177 C   0  0  0  0  0  0  0  0  0  0  0  0
  -24.5521  -28.6565   21.0800 C   0  0  0  0  0  0  0  0  0  0  0  0
  -25.4478  -31.3045   20.6740 C   0  0  0  0  0  0  0  0  0  0  0  0
  -19.4535  -31.6467   23.6831 C   0  0  0  0  0  0  0  0  0  0  0  0
  -24.8274  -21.2971   20.5636 C   0  0  0  0  0  0  0  0  0  0  0  0
  -19.6193  -31.3041   22.2060 C   0  0  0  0  0  0  0  0  0  0  0  0
  -25.4681  -19.9538   20.9156 C   0  0  0  0  0  0  0  0  0  0  0  0
  -25.3862  -25.0927   16.9837 C   0  0  0  0  0  0  0  0  0  0  0  0
  -25.8500  -22.4237   20.6341 C   0  0  0  0  0  0  0  0  0  0  0  0
  -25.5107  -24.1034   18.1382 C   0  0  0  0  0  0  0  0  0  0  0  0
  -27.6993  -20.8757   20.1232 C   0  0  0  0  0  0  0  0  0  0  0  0
  -27.5914  -25.2773   17.8696 C   0  0  0  0  0  0  0  0  0  0  0  0
  -20.0708  -29.8500   22.0242 C   0  0  1  0  0  0  0  0  0  0  0  0
  -23.8645  -29.7788   21.8781 C   0  0  1  0  0  0  0  0  0  0  0  0
  -26.7187  -19.6914   20.0570 C   0  0  1  0  0  0  0  0  0  0  0  0
  -26.4464  -26.1230   17.3431 C   0  0  1  0  0  0  0  0  0  0  0  0
  -26.6594  -35.8588   26.0909 C   0  0  0  0  0  0  0  0  0  0  0  0
  -29.2572  -27.3912   13.6713 C   0  0  0  0  0  0  0  0  0  0  0  0
  -27.1926  -30.0209   12.9487 C   0  0  0  0  0  0  0  0  0  0  0  0
  -23.9065  -33.9187   20.3876 C   0  0  0  0  0  0  0  0  0  0  0  0
  -24.9955  -35.7227   21.7395 C   0  0  0  0  0  0  0  0  0  0  0  0
  -22.8370  -34.7287   22.4982 C   0  0  0  0  0  0  0  0  0  0  0  0
  -27.5634  -32.2264   26.7727 C   0  0  0  0  0  0  0  0  0  0  0  0
  -31.6708  -30.4459   18.5867 C   0  0  0  0  0  0  0  0  0  0  0  0
  -31.5878  -29.2278   17.6791 C   0  0  0  0  0  0  0  0  0  0  0  0
  -27.4564  -28.2374   16.4784 C   0  0  0  0  0  0  0  0  0  0  0  0
  -30.3843  -28.2790   15.7068 C   0  0  0  0  0  0  0  0  0  0  0  0
  -30.3766  -30.7429   19.3341 C   0  0  0  0  0  0  0  0  0  1  0  0
  -24.9599  -33.3676   22.6795 C   0  0  1  0  0  0  0  0  0  0  0  0
  -26.4959  -34.3494   26.0031 C   0  0  2  0  0  0  0  0  0  0  0  0
  -29.3070  -28.5731   14.6477 C   0  0  2  0  0  0  0  0  0  0  0  0
  -27.9123  -29.0136   15.2213 C   0  0  1  0  0  0  0  0  0  0  0  0
  -26.8097  -29.1227   14.1239 C   0  0  1  0  0  0  0  0  0  0  0  0
  -24.1880  -34.4097   21.8217 C   0  0  0  0  0  0  0  0  0  0  0  0
  -28.3784  -18.3899   21.3351 N   0  0  0  0  0  0  0  0  0  0  0  0
  -27.3900  -18.3811   20.4246 N   0  0  0  0  0  0  0  0  0  0  0  0
  -24.5044  -31.1020   21.7847 N   0  0  0  0  0  0  0  0  0  0  0  0
  -27.0188  -22.1315   19.7995 N   0  0  0  0  0  0  0  0  0  0  0  0
  -26.9340  -24.1291   18.4916 N   0  0  0  0  0  0  0  0  0  0  0  0
  -26.1415  -16.9533   19.0057 N   0  0  0  0  0  0  0  0  0  0  0  0
  -28.9873  -14.1285   21.0837 N   0  0  0  0  0  0  0  0  0  0  0  0
  -21.4847  -29.7210   22.3049 N   0  0  0  0  0  0  0  0  0  0  0  0
  -25.2166  -33.7949   24.0506 N   0  0  0  0  0  0  0  0  0  0  0  0
  -25.5653  -29.7067   14.7191 N   0  3  0  0  0  0  0  0  0  0  0  0
  -26.8522  -26.9082   16.1659 N   0  3  0  0  0  0  0  0  0  0  0  0
  -27.6121  -33.7111   26.7566 N   0  3  0  0  0  0  0  0  0  0  0  0
  -30.4991  -29.3937   16.6771 N   0  3  0  0  0  0  0  0  0  0  0  0
  -27.3004  -14.2678   19.5366 O   0  0  0  0  0  0  0  0  0  0  0  0
  -22.2925  -30.3321   20.2081 O   0  0  0  0  0  0  0  0  0  0  0  0
  -23.4373  -31.8686   23.7043 O   0  0  0  0  0  0  0  0  0  0  0  0
  -27.5258  -33.6109   23.9461 O   0  0  0  0  0  0  0  0  0  0  0  0
  -28.9017  -22.9930   18.7956 O   0  0  0  0  0  0  0  0  0  0  0  0
  -32.8227  -15.5181   24.8777 O   0  0  0  0  0  0  0  0  0  0  0  0
  -30.0606  -29.6289   20.1595 O   0  0  0  0  0  0  0  0  0  1  0  0
  -31.9603  -11.0357   27.9710 F   0  0  0  0  0  0  0  0  0  0  0  0
  -32.8796  -15.6670   27.6376 F   0  0  0  0  0  0  0  0  0  0  0  0
  1  2  1  0  0  0  0
  1  5  2  0  0  0  0
  2  6  2  0  0  0  0
  3  8  2  0  0  0  0
  3 15  1  0  0  0  0
  4  9  1  0  0  0  0
  4 15  2  0  0  0  0
  5 17  1  0  0  0  0
  6 19  1  0  0  0  0
  7 10  2  0  0  0  0
  7 18  1  0  0  0  0
  8 21  1  0  0  0  0
  9 21  2  0  0  0  0
 10 22  1  0  0  0  0
 11 12  2  0  0  0  0
 11 23  1  0  0  0  0
 12 24  1  0  0  0  0
 13 20  1  0  0  0  0
 13 22  2  0  0  0  0
 14 24  2  0  0  0  0
 14 25  1  0  0  0  0
 15 26  1  0  0  0  0
 16 26  1  0  0  0  0
 16 27  2  0  0  0  0
 16 28  1  0  0  0  0
 17 19  2  0  0  0  0
 17 33  1  0  0  0  0
 18 20  2  0  0  0  0
 18 34  1  0  0  0  0
 19 45  1  0  0  0  0
 20 35  1  0  0  0  0
 21 85  1  0  0  0  0
 22 86  1  0  0  0  0
 23 25  2  0  0  0  0
 23 85  1  0  0  0  0
 24 87  1  0  0  0  0
 25 88  1  0  0  0  0
 26 67  2  0  0  0  0
 27 68  1  0  0  0  0
 27 72  1  0  0  0  0
 28 73  1  0  0  0  0
 28 80  2  0  0  0  0
 29 46  1  0  0  0  0
 29 74  1  0  0  0  0
 29 81  2  0  0  0  0
 30 61  1  0  0  0  0
 30 69  1  0  0  0  0
 30 82  2  0  0  0  0
 31 62  1  0  0  0  0
 31 75  1  0  0  0  0
 31 83  2  0  0  0  0
 32 70  1  0  0  0  0
 32 71  1  0  0  0  0
 32 84  2  0  0  0  0
 33 36  1  0  0  0  0
 34 46  1  0  0  0  0
 35 69  1  0  0  0  0
 36 38  1  0  0  0  0
 37 39  1  0  0  0  0
 37 41  1  0  0  0  0
 38 45  1  0  0  0  0
 39 47  1  0  0  0  0
 40 42  1  0  0  0  0
 40 48  1  0  0  0  0
 41 70  1  0  0  0  0
 42 71  1  0  0  0  0
 43 47  1  0  0  0  0
 43 70  1  0  0  0  0
 44 48  1  0  0  0  0
 44 71  1  0  0  0  0
 45 74  1  0  0  0  0
 46 69  1  0  0  0  0
 47 68  1  0  0  0  0
 48 77  1  0  0  0  0
 49 62  1  0  0  0  0
 50 63  1  0  0  0  0
 51 65  1  0  0  0  0
 52 66  1  0  0  0  0
 53 66  1  0  0  0  0
 54 66  1  0  0  0  0
 55 78  1  0  0  0  0
 56 57  1  0  0  0  0
 56 60  1  0  0  0  0
 57 79  1  0  0  0  0
 58 64  1  0  0  0  0
 58 77  1  0  0  0  0
 59 63  1  0  0  0  0
 59 79  1  0  0  0  0
 60 86  1  0  0  0  0
 61 66  1  0  0  0  0
 61 75  1  0  0  0  0
 62 78  1  0  0  0  0
 63 64  1  0  0  0  0
 64 65  1  0  0  0  0
 65 76  1  0  0  0  0
 67 68  1  0  0  0  0
M  CHG  4  76   1  77   1  78   1  79   1
M  ISO  4  32 100  60 101  71 100  86 101
M  END
> <Batch ID>
0122

> <Smiles>
CNC(C)C(=O)NC(C(=O)N1Cc2cc([101O:1][101CH2:1]CCNCC(C)C(CNC3CC[100N:0]([100C:0](=O)N4CCCC(n5nc(-c6ccc(Oc7ccc(F)cc7F)cc6)c(C(N)=O)c5N)C4)C3)C(C)N)ccc2CC1C(=O)NC1CCCc2ccccc21)C(C)(C)C

> <Shape>
0.220

> <Color>
0.087

> <Negative vol penalty>
0.000

$$$$

  -OEChem-04052320283D

 86 95  0     1  0  0  0  0  0999 V2000
  -19.6752   -8.4170   20.7453 C   0  0  0  0  0  0  0  0  0  0  0  0
  -19.1772   -9.5798   21.3245 C   0  0  0  0  0  0  0  0  0  0  0  0
  -26.7821  -25.7931   18.1239 C   0  0  0  0  0  0  0  0  0  0  0  0
  -28.5307  -26.3770   19.6854 C   0  0  0  0  0  0  0  0  0  0  0  0
  -21.0513   -8.1985   20.6956 C   0  0  0  0  0  0  0  0  0  0  0  0
  -20.0551  -10.5242   21.8553 C   0  0  0  0  0  0  0  0  0  0  0  0
  -20.1159  -17.3066   19.4291 C   0  0  0  0  0  0  0  0  0  0  0  0
  -19.1267  -28.8059   21.6467 C   0  0  0  0  0  0  0  0  0  0  0  0
  -27.2857  -24.4947   18.0454 C   0  0  0  0  0  0  0  0  0  0  0  0
  -29.0344  -25.0786   19.6069 C   0  0  0  0  0  0  0  0  0  0  0  0
  -20.0430  -18.6745   19.1653 C   0  0  0  0  0  0  0  0  0  0  0  0
  -30.5667  -21.8179   20.0951 C   0  0  0  0  0  0  0  0  0  0  0  0
  -30.9208  -21.1857   21.2869 C   0  0  0  0  0  0  0  0  0  0  0  0
  -18.4927  -27.6053   21.3471 C   0  0  0  0  0  0  0  0  0  0  0  0
  -21.8894  -19.0749   20.6749 C   0  0  0  0  0  0  0  0  0  0  0  0
  -28.6485  -21.4048   22.0781 C   0  0  0  0  0  0  0  0  0  0  0  0
  -27.4046  -26.7343   18.9439 C   0  0  0  0  0  0  0  0  0  0  0  0
  -26.7443  -28.9980   17.9708 C   0  0  0  0  0  0  0  0  0  0  0  0
  -21.9469   -9.1452   21.2175 C   0  0  0  0  0  0  0  0  0  0  0  0
  -21.0870  -16.8153   20.3060 C   0  0  0  0  0  0  0  0  0  0  0  0
  -21.4444  -10.3175   21.8138 C   0  0  0  0  0  0  0  0  0  0  0  0
  -21.9753  -17.7043   20.9333 C   0  0  0  0  0  0  0  0  0  0  0  0
  -19.9178  -28.9025   22.7861 C   0  0  0  0  0  0  0  0  0  0  0  0
  -28.4119  -24.1375   18.7869 C   0  0  0  0  0  0  0  0  0  0  0  0
  -20.9274  -19.5565   19.7869 C   0  0  0  0  0  0  0  0  0  0  0  0
  -29.2536  -22.2437   19.8948 C   0  0  0  0  0  0  0  0  0  0  0  0
  -29.9617  -20.9791   22.2784 C   0  0  0  0  0  0  0  0  0  0  0  0
  -28.2945  -22.0371   20.8863 C   0  0  0  0  0  0  0  0  0  0  0  0
  -26.8852  -28.0758   19.0250 C   0  0  0  0  0  0  0  0  0  0  0  0
  -18.6804  -26.5393   22.2121 C   0  0  0  0  0  0  0  0  0  0  0  0
  -20.0415  -27.7785   23.5868 C   0  0  0  0  0  0  0  0  0  0  0  0
  -26.2091  -30.1163   18.5621 C   0  0  0  0  0  0  0  0  0  0  0  0
  -27.0681  -28.8565   16.5813 C   0  0  0  0  0  0  0  0  0  0  0  0
  -22.6105  -13.8200   21.9742 C   0  0  0  0  0  0  0  0  0  0  0  0
  -24.9251  -15.6662   21.1714 C   0  0  0  0  0  0  0  0  0  0  0  0
  -27.9202  -16.9922   20.2183 C   0  0  0  0  0  0  0  0  0  0  0  0
  -22.9299  -30.9424   23.5033 C   0  0  0  0  0  0  0  0  0  0  0  0
  -23.4241   -8.8430   21.1833 C   0  0  0  0  0  0  0  0  0  0  0  0
  -21.1626  -15.3566   20.6669 C   0  0  0  0  0  0  0  0  0  0  0  0
  -22.9812  -17.1347   21.8960 C   0  0  0  0  0  0  0  0  0  0  0  0
  -24.3021  -10.0668   21.4321 C   0  0  0  0  0  0  0  0  0  0  0  0
  -26.0702  -32.4382   22.7430 C   0  0  0  0  0  0  0  0  0  0  0  0
  -23.7869  -10.8588   22.6296 C   0  0  0  0  0  0  0  0  0  0  0  0
  -19.9847  -23.6600   21.9072 C   0  0  0  0  0  0  0  0  0  0  0  0
  -18.0471  -23.2708   20.3291 C   0  0  0  0  0  0  0  0  0  0  0  0
  -26.6224  -31.5730   21.6088 C   0  0  0  0  0  0  0  0  0  0  0  0
  -20.8462  -22.7134   21.0768 C   0  0  0  0  0  0  0  0  0  0  0  0
  -18.9138  -22.3248   19.5035 C   0  0  0  0  0  0  0  0  0  0  0  0
  -25.3025  -31.6044   23.7664 C   0  0  0  0  0  0  0  0  0  0  0  0
  -24.7844  -29.8965   22.0669 C   0  0  0  0  0  0  0  0  0  0  0  0
  -22.3657  -11.3771   22.3782 C   0  0  1  0  0  0  0  0  0  0  0  0
  -22.6031  -14.8661   20.8985 C   0  0  1  0  0  0  0  0  0  0  0  0
  -18.8940  -24.3248   21.0559 C   0  0  0  0  0  0  0  0  0  0  0  0
  -25.5189  -30.7008   20.9806 C   0  0  2  0  0  0  0  0  0  0  0  0
  -20.0004  -21.6691   20.3531 C   0  0  0  0  0  0  0  0  0  1  0  0
  -20.8809  -27.8229   24.8214 C   0  0  0  0  0  0  0  0  0  0  0  0
  -30.4015  -17.3670   20.2030 C   0  0  0  0  0  0  0  0  0  0  0  0
  -24.2853  -17.5665   23.4699 C   0  0  0  0  0  0  0  0  0  0  0  0
  -26.6799  -18.2967   23.4391 C   0  0  0  0  0  0  0  0  0  0  0  0
  -26.1080  -15.9232   23.9511 C   0  0  0  0  0  0  0  0  0  0  0  0
  -28.3602  -14.7756   18.3072 C   0  0  0  0  0  0  0  0  0  0  0  0
  -20.5985  -30.1865   23.1130 C   0  0  0  0  0  0  0  0  0  0  0  0
  -18.0111  -25.2252   21.9179 C   0  0  0  0  0  0  0  0  0  0  0  0
  -25.8603  -16.7748   21.5835 C   0  0  1  0  0  0  0  0  0  0  0  0
  -29.2823  -16.3561   20.0074 C   0  0  2  0  0  0  0  0  0  0  0  0
  -25.7173  -17.1423   23.0875 C   0  0  0  0  0  0  0  0  0  0  0  0
  -26.4730  -28.5657   20.1973 N   0  0  0  0  0  0  0  0  0  0  0  0
  -19.4412  -26.5951   23.3282 N   0  0  0  0  0  0  0  0  0  0  0  0
  -26.0678  -29.8080   19.8831 N   0  0  0  0  0  0  0  0  0  0  0  0
  -23.5552  -15.8958   21.3480 N   0  0  0  0  0  0  0  0  0  0  0  0
  -24.2699  -30.8019   23.1062 N   0  0  0  0  0  0  0  0  0  0  0  0
  -25.8504  -31.3234   18.0757 N   0  0  0  0  0  0  0  0  0  0  0  0
  -28.3537  -29.2166   16.1548 N   0  0  0  0  0  0  0  0  0  0  0  0
  -22.3963  -12.5357   21.5115 N   0  0  0  0  0  0  0  0  0  0  0  0
  -27.1997  -16.3432   21.1985 N   0  0  0  0  0  0  0  0  0  0  0  0
  -22.0144  -30.1495   22.8221 N   0  0  0  0  0  0  0  0  0  0  0  0
  -29.3866  -15.8004   18.6285 N   0  3  0  0  0  0  0  0  0  0  0  0
  -26.2366  -28.4390   15.7399 O   0  0  0  0  0  0  0  0  0  0  0  0
  -22.7983  -14.1521   23.1387 O   0  0  0  0  0  0  0  0  0  0  0  0
  -25.3940  -14.6217   20.7103 O   0  0  0  0  0  0  0  0  0  0  0  0
  -27.5355  -17.9695   19.5800 O   0  0  0  0  0  0  0  0  0  0  0  0
  -22.5750  -31.7209   24.3949 O   0  0  0  0  0  0  0  0  0  0  0  0
  -28.9035  -22.8705   18.7106 O   0  0  0  0  0  0  0  0  0  0  0  0
  -20.8536  -20.8902   19.5214 O   0  0  0  0  0  0  0  0  0  1  0  0
  -30.3015  -20.3705   23.4223 F   0  0  0  0  0  0  0  0  0  0  0  0
  -27.0311  -22.4428   20.6991 F   0  0  0  0  0  0  0  0  0  0  0  0
  1  2  1  0  0  0  0
  1  5  2  0  0  0  0
  2  6  2  0  0  0  0
  3  9  2  0  0  0  0
  3 17  1  0  0  0  0
  4 10  1  0  0  0  0
  4 17  2  0  0  0  0
  5 19  1  0  0  0  0
  6 21  1  0  0  0  0
  7 11  2  0  0  0  0
  7 20  1  0  0  0  0
  8 14  2  0  0  0  0
  8 23  1  0  0  0  0
  9 24  1  0  0  0  0
 10 24  2  0  0  0  0
 11 25  1  0  0  0  0
 12 13  2  0  0  0  0
 12 26  1  0  0  0  0
 13 27  1  0  0  0  0
 14 30  1  0  0  0  0
 15 22  1  0  0  0  0
 15 25  2  0  0  0  0
 16 27  2  0  0  0  0
 16 28  1  0  0  0  0
 17 29  1  0  0  0  0
 18 29  1  0  0  0  0
 18 32  2  0  0  0  0
 18 33  1  0  0  0  0
 19 21  2  0  0  0  0
 19 38  1  0  0  0  0
 20 22  2  0  0  0  0
 20 39  1  0  0  0  0
 21 51  1  0  0  0  0
 22 40  1  0  0  0  0
 23 31  2  0  0  0  0
 23 62  1  0  0  0  0
 24 83  1  0  0  0  0
 25 84  1  0  0  0  0
 26 28  2  0  0  0  0
 26 83  1  0  0  0  0
 27 85  1  0  0  0  0
 28 86  1  0  0  0  0
 29 67  2  0  0  0  0
 30 63  1  0  0  0  0
 30 68  2  0  0  0  0
 31 56  1  0  0  0  0
 31 68  1  0  0  0  0
 32 69  1  0  0  0  0
 32 72  1  0  0  0  0
 33 73  1  0  0  0  0
 33 78  2  0  0  0  0
 34 52  1  0  0  0  0
 34 74  1  0  0  0  0
 34 79  2  0  0  0  0
 35 64  1  0  0  0  0
 35 70  1  0  0  0  0
 35 80  2  0  0  0  0
 36 65  1  0  0  0  0
 36 75  1  0  0  0  0
 36 81  2  0  0  0  0
 37 71  1  0  0  0  0
 37 76  1  0  0  0  0
 37 82  2  0  0  0  0
 38 41  1  0  0  0  0
 39 52  1  0  0  0  0
 40 70  1  0  0  0  0
 41 43  1  0  0  0  0
 42 46  1  0  0  0  0
 42 49  1  0  0  0  0
 43 51  1  0  0  0  0
 44 47  1  0  0  0  0
 44 53  1  0  0  0  0
 45 48  1  0  0  0  0
 45 53  1  0  0  0  0
 46 54  1  0  0  0  0
 47 55  1  0  0  0  0
 48 55  1  0  0  0  0
 49 71  1  0  0  0  0
 50 54  1  0  0  0  0
 50 71  1  0  0  0  0
 51 74  1  0  0  0  0
 52 70  1  0  0  0  0
 53 63  1  0  0  0  0
 54 69  1  0  0  0  0
 55 84  1  0  0  0  0
 57 65  1  0  0  0  0
 58 66  1  0  0  0  0
 59 66  1  0  0  0  0
 60 66  1  0  0  0  0
 61 77  1  0  0  0  0
 62 76  1  0  0  0  0
 64 66  1  0  0  0  0
 64 75  1  0  0  0  0
 65 77  1  0  0  0  0
 67 69  1  0  0  0  0
M  CHG  1  77   1
M  ISO  4  37 100  55 101  76 100  84 101
M  END
> <Batch ID>
0122

> <Smiles>
CNC(C)C(=O)NC(C(=O)N1Cc2cc([101O:1][101CH:1]3CCC(Cc4ccc(C[100NH:0][100C:0](=O)N5CCCC(n6nc(-c7ccc(Oc8ccc(F)cc8F)cc7)c(C(N)=O)c6N)C5)c(C)n4)CC3)ccc2CC1C(=O)NC1CCCc2ccccc21)C(C)(C)C

> <Shape>
0.234

> <Color>
0.083

> <Negative vol penalty>
0.000

$$$$

  -OEChem-04052320283D

 86 95  0     1  0  0  0  0  0999 V2000
  -24.4072  -33.0373   14.7375 C   0  0  0  0  0  0  0  0  0  0  0  0
  -25.1942  -31.9062   14.9289 C   0  0  0  0  0  0  0  0  0  0  0  0
  -23.2219   -9.6576   20.1079 C   0  0  0  0  0  0  0  0  0  0  0  0
  -23.7761  -10.0568   22.4253 C   0  0  0  0  0  0  0  0  0  0  0  0
  -24.2598  -33.9650   15.7678 C   0  0  0  0  0  0  0  0  0  0  0  0
  -25.8351  -31.7026   16.1505 C   0  0  0  0  0  0  0  0  0  0  0  0
  -26.8774  -26.3367   18.9120 C   0  0  0  0  0  0  0  0  0  0  0  0
  -29.5644  -19.5677   22.4328 C   0  0  0  0  0  0  0  0  0  0  0  0
  -22.5221   -8.5076   20.4733 C   0  0  0  0  0  0  0  0  0  0  0  0
  -23.0763   -8.9069   22.7908 C   0  0  0  0  0  0  0  0  0  0  0  0
  -28.0015  -25.5140   18.9694 C   0  0  0  0  0  0  0  0  0  0  0  0
  -23.5936   -5.5657   22.7765 C   0  0  0  0  0  0  0  0  0  0  0  0
  -24.1981   -4.7021   23.6900 C   0  0  0  0  0  0  0  0  0  0  0  0
  -29.1966  -18.2543   22.1622 C   0  0  0  0  0  0  0  0  0  0  0  0
  -28.6166  -26.5118   21.0777 C   0  0  0  0  0  0  0  0  0  0  0  0
  -22.3466   -5.0145   25.2104 C   0  0  0  0  0  0  0  0  0  0  0  0
  -23.8489  -10.4322   21.0839 C   0  0  0  0  0  0  0  0  0  0  0  0
  -24.0634  -12.9283   20.6034 C   0  0  0  0  0  0  0  0  0  0  0  0
  -24.8914  -33.7679   17.0058 C   0  0  0  0  0  0  0  0  0  0  0  0
  -26.6198  -27.2623   19.9334 C   0  0  0  0  0  0  0  0  0  0  0  0
  -25.6970  -32.6293   17.1979 C   0  0  0  0  0  0  0  0  0  0  0  0
  -27.4871  -27.3433   21.0322 C   0  0  0  0  0  0  0  0  0  0  0  0
  -30.8319  -20.0160   22.0783 C   0  0  0  0  0  0  0  0  0  0  0  0
  -22.4494   -8.1323   21.8148 C   0  0  0  0  0  0  0  0  0  0  0  0
  -28.8729  -25.6035   20.0509 C   0  0  0  0  0  0  0  0  0  0  0  0
  -22.3657   -6.1538   23.0800 C   0  0  0  0  0  0  0  0  0  0  0  0
  -23.5746   -4.4265   24.9069 C   0  0  0  0  0  0  0  0  0  0  0  0
  -21.7422   -5.8781   24.2970 C   0  0  0  0  0  0  0  0  0  0  0  0
  -24.5723  -11.6199   20.7069 C   0  0  0  0  0  0  0  0  0  0  0  0
  -31.6878  -19.1187   21.4602 C   0  0  0  0  0  0  0  0  0  0  0  0
  -30.1257  -17.4359   21.5402 C   0  0  0  0  0  0  0  0  0  0  0  0
  -25.1412  -13.6863   20.2159 C   0  0  0  0  0  0  0  0  0  0  0  0
  -22.7351  -13.4151   20.8368 C   0  0  0  0  0  0  0  0  0  0  0  0
  -26.3869  -30.4287   20.0848 C   0  0  0  0  0  0  0  0  0  0  0  0
  -25.4840  -29.8264   23.1417 C   0  0  0  0  0  0  0  0  0  0  0  0
  -25.5495  -27.7105   25.8185 C   0  0  0  0  0  0  0  0  0  0  0  0
  -30.5067  -15.1079   20.6561 C   0  0  0  0  0  0  0  0  0  0  0  0
  -24.7406  -34.8222   18.0737 C   0  0  0  0  0  0  0  0  0  0  0  0
  -25.3885  -28.1238   19.8698 C   0  0  0  0  0  0  0  0  0  0  0  0
  -27.2446  -28.3062   22.1646 C   0  0  0  0  0  0  0  0  0  0  0  0
  -25.1503  -34.3438   19.4642 C   0  0  0  0  0  0  0  0  0  0  0  0
  -29.7361  -12.2993   18.6080 C   0  0  0  0  0  0  0  0  0  0  0  0
  -26.4853  -33.6081   19.4038 C   0  0  0  0  0  0  0  0  0  0  0  0
  -31.8395  -20.9254   26.2208 C   0  0  0  0  0  0  0  0  0  0  0  0
  -31.6169  -19.7231   25.3464 C   0  0  0  0  0  0  0  0  0  0  0  0
  -28.2821  -11.9798   18.9629 C   0  0  0  0  0  0  0  0  0  0  0  0
  -30.5286  -12.7651   19.8281 C   0  0  0  0  0  0  0  0  0  0  0  0
  -28.4715  -13.5587   20.9272 C   0  0  0  0  0  0  0  0  0  0  0  0
  -26.3882  -32.3608   18.5171 C   0  0  1  0  0  0  0  0  0  0  0  0
  -25.5011  -29.3902   20.7129 C   0  0  1  0  0  0  0  0  0  0  0  0
  -32.0839  -21.0173   24.7401 C   0  0  0  0  0  0  0  0  0  0  0  0
  -27.6165  -13.1474   19.7174 C   0  0  2  0  0  0  0  0  0  0  0  0
  -33.0618  -19.5455   21.0587 C   0  0  0  0  0  0  0  0  0  0  0  0
  -24.7535  -27.5085   28.1898 C   0  0  0  0  0  0  0  0  0  0  0  0
  -27.6596  -31.7703   24.0350 C   0  0  0  0  0  0  0  0  0  0  0  0
  -27.4617  -30.8220   26.3436 C   0  0  0  0  0  0  0  0  0  0  0  0
  -25.5074  -31.9630   25.2941 C   0  0  0  0  0  0  0  0  0  0  0  0
  -23.9539  -25.2960   25.1995 C   0  0  0  0  0  0  0  0  0  0  0  0
  -31.1473  -21.8322   23.8563 C   0  0  0  0  0  0  0  0  0  0  0  0
  -30.8136  -22.5508   20.1731 C   0  0  0  0  0  0  0  0  0  0  0  0
  -29.8754  -23.5226   19.4849 C   0  0  0  0  0  0  0  0  0  1  0  0
  -31.2392  -21.4435   22.3711 C   0  0  2  0  0  0  0  0  0  0  0  0
  -26.2046  -29.6803   24.4602 C   0  0  1  0  0  0  0  0  0  0  0  0
  -24.4462  -27.2065   26.7313 C   0  0  2  0  0  0  0  0  0  0  0  0
  -26.7142  -31.0420   25.0111 C   0  0  0  0  0  0  0  0  0  0  0  0
  -25.8723  -11.5472   20.4090 N   0  0  0  0  0  0  0  0  0  0  0  0
  -31.3662  -17.8356   21.1810 N   0  0  0  0  0  0  0  0  0  0  0  0
  -26.1893  -12.8195   20.1145 N   0  0  0  0  0  0  0  0  0  0  0  0
  -26.0306  -29.1316   22.0534 N   0  0  0  0  0  0  0  0  0  0  0  0
  -29.8400  -13.8756   20.4895 N   0  0  0  0  0  0  0  0  0  0  0  0
  -25.2852  -15.0031   19.9553 N   0  0  0  0  0  0  0  0  0  0  0  0
  -21.7480  -12.5010   21.2296 N   0  0  0  0  0  0  0  0  0  0  0  0
  -29.7411  -16.0994   21.2688 N   0  0  0  0  0  0  0  0  0  0  0  0
  -25.7265  -31.2868   19.2263 N   0  0  0  0  0  0  0  0  0  0  0  0
  -25.2859  -28.9810   25.3521 N   0  0  0  0  0  0  0  0  0  0  0  0
  -24.2823  -25.7329   26.5809 N   0  3  0  0  0  0  0  0  0  0  0  0
  -30.4228  -22.4191   21.5993 N   0  3  0  0  0  0  0  0  0  0  0  0
  -22.4288  -14.6220   20.6851 O   0  0  0  0  0  0  0  0  0  0  0  0
  -27.5808  -30.4509   20.3599 O   0  0  0  0  0  0  0  0  0  0  0  0
  -24.4694  -30.5254   23.0812 O   0  0  0  0  0  0  0  0  0  0  0  0
  -26.5472  -27.0452   25.5493 O   0  0  0  0  0  0  0  0  0  0  0  0
  -31.6617  -15.2799   20.2582 O   0  0  0  0  0  0  0  0  0  0  0  0
  -21.7664   -7.0103   22.1718 O   0  0  0  0  0  0  0  0  0  0  0  0
  -29.9713  -24.8022   20.1091 O   0  0  0  0  0  0  0  0  0  1  0  0
  -24.1544   -3.5959   25.7834 F   0  0  0  0  0  0  0  0  0  0  0  0
  -20.5619   -6.4391   24.5936 F   0  0  0  0  0  0  0  0  0  0  0  0
  1  2  1  0  0  0  0
  1  5  2  0  0  0  0
  2  6  2  0  0  0  0
  3  9  2  0  0  0  0
  3 17  1  0  0  0  0
  4 10  1  0  0  0  0
  4 17  2  0  0  0  0
  5 19  1  0  0  0  0
  6 21  1  0  0  0  0
  7 11  2  0  0  0  0
  7 20  1  0  0  0  0
  8 14  2  0  0  0  0
  8 23  1  0  0  0  0
  9 24  1  0  0  0  0
 10 24  2  0  0  0  0
 11 25  1  0  0  0  0
 12 13  2  0  0  0  0
 12 26  1  0  0  0  0
 13 27  1  0  0  0  0
 14 31  1  0  0  0  0
 15 22  1  0  0  0  0
 15 25  2  0  0  0  0
 16 27  2  0  0  0  0
 16 28  1  0  0  0  0
 17 29  1  0  0  0  0
 18 29  1  0  0  0  0
 18 32  2  0  0  0  0
 18 33  1  0  0  0  0
 19 21  2  0  0  0  0
 19 38  1  0  0  0  0
 20 22  2  0  0  0  0
 20 39  1  0  0  0  0
 21 49  1  0  0  0  0
 22 40  1  0  0  0  0
 23 30  2  0  0  0  0
 23 62  1  0  0  0  0
 24 83  1  0  0  0  0
 25 84  1  0  0  0  0
 26 28  2  0  0  0  0
 26 83  1  0  0  0  0
 27 85  1  0  0  0  0
 28 86  1  0  0  0  0
 29 66  2  0  0  0  0
 30 53  1  0  0  0  0
 30 67  1  0  0  0  0
 31 67  2  0  0  0  0
 31 73  1  0  0  0  0
 32 68  1  0  0  0  0
 32 71  1  0  0  0  0
 33 72  1  0  0  0  0
 33 78  2  0  0  0  0
 34 50  1  0  0  0  0
 34 74  1  0  0  0  0
 34 79  2  0  0  0  0
 35 63  1  0  0  0  0
 35 69  1  0  0  0  0
 35 80  2  0  0  0  0
 36 64  1  0  0  0  0
 36 75  1  0  0  0  0
 36 81  2  0  0  0  0
 37 70  1  0  0  0  0
 37 73  1  0  0  0  0
 37 82  2  0  0  0  0
 38 41  1  0  0  0  0
 39 50  1  0  0  0  0
 40 69  1  0  0  0  0
 41 43  1  0  0  0  0
 42 46  1  0  0  0  0
 42 47  1  0  0  0  0
 43 49  1  0  0  0  0
 44 45  1  0  0  0  0
 44 51  1  0  0  0  0
 45 51  1  0  0  0  0
 46 52  1  0  0  0  0
 47 70  1  0  0  0  0
 48 52  1  0  0  0  0
 48 70  1  0  0  0  0
 49 74  1  0  0  0  0
 50 69  1  0  0  0  0
 51 59  1  0  0  0  0
 52 68  1  0  0  0  0
 54 64  1  0  0  0  0
 55 65  1  0  0  0  0
 56 65  1  0  0  0  0
 57 65  1  0  0  0  0
 58 76  1  0  0  0  0
 59 62  1  0  0  0  0
 60 61  1  0  0  0  0
 60 77  1  0  0  0  0
 61 84  1  0  0  0  0
 62 77  1  0  0  0  0
 63 65  1  0  0  0  0
 63 75  1  0  0  0  0
 64 76  1  0  0  0  0
 66 68  1  0  0  0  0
M  CHG  2  76   1  77   1
M  ISO  4  37 100  61 101  73 100  84 101
M  END
> <Batch ID>
0122

> <Smiles>
CNC(C)C(=O)NC(C(=O)N1Cc2cc([101O:1][101CH2:1]CNC(CC3CC3)c3ccc([100NH:0][100C:0](=O)N4CCCC(n5nc(-c6ccc(Oc7ccc(F)cc7F)cc6)c(C(N)=O)c5N)C4)nc3C)ccc2CC1C(=O)NC1CCCc2ccccc21)C(C)(C)C

> <Shape>
0.301

> <Color>
0.209

> <Negative vol penalty>
0.000

$$$$

  -OEChem-04052320283D

 88 97  0     1  0  0  0  0  0999 V2000
  -24.8932  -32.1713   27.3053 C   0  0  0  0  0  0  0  0  0  0  0  0
  -24.5093  -30.8346   27.3396 C   0  0  0  0  0  0  0  0  0  0  0  0
  -23.6429   -9.7250   20.5943 C   0  0  0  0  0  0  0  0  0  0  0  0
  -24.2652  -10.3031   22.8561 C   0  0  0  0  0  0  0  0  0  0  0  0
  -25.3698  -32.7282   26.1193 C   0  0  0  0  0  0  0  0  0  0  0  0
  -24.6006  -30.0543   26.1876 C   0  0  0  0  0  0  0  0  0  0  0  0
  -25.9018  -23.3301   24.0878 C   0  0  0  0  0  0  0  0  0  0  0  0
  -23.0889   -8.5297   21.0522 C   0  0  0  0  0  0  0  0  0  0  0  0
  -23.7111   -9.1077   23.3140 C   0  0  0  0  0  0  0  0  0  0  0  0
  -25.3487  -22.3217   23.2998 C   0  0  0  0  0  0  0  0  0  0  0  0
  -20.2399   -7.5254   22.5712 C   0  0  0  0  0  0  0  0  0  0  0  0
  -18.9873   -7.1605   22.0779 C   0  0  0  0  0  0  0  0  0  0  0  0
  -29.5950  -16.9771   22.3469 C   0  0  0  0  0  0  0  0  0  0  0  0
  -26.2613  -23.3700   21.3282 C   0  0  0  0  0  0  0  0  0  0  0  0
  -31.8354  -17.8687   22.4524 C   0  0  0  0  0  0  0  0  0  0  0  0
  -19.9337   -5.1277   21.1783 C   0  0  0  0  0  0  0  0  0  0  0  0
  -24.2311  -10.6118   21.4963 C   0  0  0  0  0  0  0  0  0  0  0  0
  -24.1539  -13.0874   20.8858 C   0  0  0  0  0  0  0  0  0  0  0  0
  -25.4762  -31.9518   24.9546 C   0  0  0  0  0  0  0  0  0  0  0  0
  -26.6309  -24.3737   23.4997 C   0  0  0  0  0  0  0  0  0  0  0  0
  -25.0778  -30.6017   24.9845 C   0  0  0  0  0  0  0  0  0  0  0  0
  -29.2102  -18.0142   21.4863 C   0  0  0  0  0  0  0  0  0  0  0  0
  -26.8248  -24.3890   22.1111 C   0  0  0  0  0  0  0  0  0  0  0  0
  -30.1575  -18.9740   21.0891 C   0  0  0  0  0  0  0  0  0  0  0  0
  -30.9017  -16.9067   22.8290 C   0  0  0  0  0  0  0  0  0  0  0  0
  -31.4652  -18.8998   21.5893 C   0  0  0  0  0  0  0  0  0  0  0  0
  -23.1230   -8.2210   22.4120 C   0  0  0  0  0  0  0  0  0  0  0  0
  -25.5259  -22.3431   21.9195 C   0  0  0  0  0  0  0  0  0  0  0  0
  -21.3395   -6.6914   22.3681 C   0  0  0  0  0  0  0  0  0  0  0  0
  -18.8342   -5.9617   21.3814 C   0  0  0  0  0  0  0  0  0  0  0  0
  -21.1864   -5.4926   21.6717 C   0  0  0  0  0  0  0  0  0  0  0  0
  -24.8041  -11.8465   21.0238 C   0  0  0  0  0  0  0  0  0  0  0  0
  -25.1241  -13.9318   20.4039 C   0  0  0  0  0  0  0  0  0  0  0  0
  -22.7944  -13.4450   21.1679 C   0  0  0  0  0  0  0  0  0  0  0  0
  -26.2897  -27.5293   23.3278 C   0  0  0  0  0  0  0  0  0  0  0  0
  -29.2050  -27.3764   21.9136 C   0  0  0  0  0  0  0  0  0  0  0  0
  -31.4892  -25.5291   20.1767 C   0  0  0  0  0  0  0  0  0  0  0  0
  -31.1018  -13.8906   20.7462 C   0  0  0  0  0  0  0  0  0  0  0  0
  -25.9526  -32.6104   23.6842 C   0  0  0  0  0  0  0  0  0  0  0  0
  -27.2438  -25.4395   24.3662 C   0  0  0  0  0  0  0  0  0  0  0  0
  -29.7692  -20.1174   20.1866 C   0  0  0  0  0  0  0  0  0  0  0  0
  -27.6164  -25.4762   21.4329 C   0  0  0  0  0  0  0  0  0  0  0  0
  -27.8027  -18.0534   20.9568 C   0  0  0  0  0  0  0  0  0  0  0  0
  -26.3713  -31.6171   22.6032 C   0  0  0  0  0  0  0  0  0  0  0  0
  -29.1272  -13.9274   17.7836 C   0  0  0  0  0  0  0  0  0  0  0  0
  -25.3283  -30.5133   22.4596 C   0  0  0  0  0  0  0  0  0  0  0  0
  -27.7367  -13.5102   18.2657 C   0  0  0  0  0  0  0  0  0  0  0  0
  -30.2309  -13.1875   18.5362 C   0  0  0  0  0  0  0  0  0  0  0  0
  -28.7603  -12.8674   20.4878 C   0  0  0  0  0  0  0  0  0  0  0  0
  -28.5088  -19.8426   19.3738 C   0  0  0  0  0  0  0  0  0  0  0  0
  -25.1856  -29.7164   23.7619 C   0  0  1  0  0  0  0  0  0  0  0  0
  -27.5320  -26.7324   23.6094 C   0  0  1  0  0  0  0  0  0  0  0  0
  -27.6154  -13.6278   19.7969 C   0  0  2  0  0  0  0  0  0  0  0  0
  -32.5002  -19.9177   21.2297 C   0  0  0  0  0  0  0  0  0  0  0  0
  -33.6702  -24.9628   19.0721 C   0  0  0  0  0  0  0  0  0  0  0  0
  -28.0201  -28.9544   19.5864 C   0  0  0  0  0  0  0  0  0  0  0  0
  -29.9926  -28.2663   18.2065 C   0  0  0  0  0  0  0  0  0  0  0  0
  -30.3271  -29.6528   20.2531 C   0  0  0  0  0  0  0  0  0  0  0  0
  -32.6164  -24.4516   22.6921 C   0  0  0  0  0  0  0  0  0  0  0  0
  -31.2983  -15.8018   23.7487 C   0  0  0  0  0  0  0  0  0  0  0  0
  -31.8279  -14.5589   23.0233 C   0  0  0  0  0  0  0  0  0  0  0  0
  -26.0820  -19.3032   19.6397 C   0  0  0  0  0  0  0  0  0  0  0  0
  -24.8469  -20.0707   21.7428 C   0  0  0  0  0  0  0  0  0  1  0  0
  -29.6984  -27.2160   20.4959 C   0  0  1  0  0  0  0  0  0  0  0  0
  -32.9793  -25.3207   20.3788 C   0  0  2  0  0  0  0  0  0  0  0  0
  -24.9800  -19.0105   20.6543 C   0  0  1  0  0  0  0  0  0  0  0  0
  -29.4929  -28.5028   19.6477 C   0  0  0  0  0  0  0  0  0  0  0  0
  -26.0881  -11.8938   20.6590 N   0  0  0  0  0  0  0  0  0  0  0  0
  -26.2525  -13.1747   20.2869 N   0  0  0  0  0  0  0  0  0  0  0  0
  -28.1905  -26.4992   22.3225 N   0  0  0  0  0  0  0  0  0  0  0  0
  -30.0589  -13.3400   19.9830 N   0  0  0  0  0  0  0  0  0  0  0  0
  -25.1136  -15.2405   20.0731 N   0  0  0  0  0  0  0  0  0  0  0  0
  -21.9311  -12.4554   21.6576 N   0  0  0  0  0  0  0  0  0  0  0  0
  -26.2829  -28.7840   23.9068 N   0  0  0  0  0  0  0  0  0  0  0  0
  -31.0873  -26.7804   20.5939 N   0  0  0  0  0  0  0  0  0  0  0  0
  -30.8541  -14.0058   22.1086 N   0  0  0  0  0  0  0  0  0  0  0  0
  -27.4249  -19.3702   20.3094 N   0  3  1  0  0  0  0  0  0  0  0  0
  -33.2208  -24.2207   21.3548 N   0  3  0  0  0  0  0  0  0  0  0  0
  -22.3538  -14.6036   20.9756 O   0  0  0  0  0  0  0  0  0  0  0  0
  -25.4036  -27.0426   22.6353 O   0  0  0  0  0  0  0  0  0  0  0  0
  -29.7063  -28.2432   22.6340 O   0  0  0  0  0  0  0  0  0  0  0  0
  -30.7559  -24.6694   19.6934 O   0  0  0  0  0  0  0  0  0  0  0  0
  -32.1720  -14.2576   20.2494 O   0  0  0  0  0  0  0  0  0  0  0  0
  -23.7267  -18.8970   19.9783 O   0  0  0  0  0  0  0  0  0  0  0  0
  -22.5823   -7.0547   22.8592 O   0  0  0  0  0  0  0  0  0  0  0  0
  -24.9865  -21.3604   21.1481 O   0  0  0  0  0  0  0  0  0  1  0  0
  -17.6309   -5.6107   20.9090 F   0  0  0  0  0  0  0  0  0  0  0  0
  -22.2388   -4.6868   21.4744 F   0  0  0  0  0  0  0  0  0  0  0  0
  1  2  1  0  0  0  0
  1  5  2  0  0  0  0
  2  6  2  0  0  0  0
  3  8  2  0  0  0  0
  3 17  1  0  0  0  0
  4  9  1  0  0  0  0
  4 17  2  0  0  0  0
  5 19  1  0  0  0  0
  6 21  1  0  0  0  0
  7 10  2  0  0  0  0
  7 20  1  0  0  0  0
  8 27  1  0  0  0  0
  9 27  2  0  0  0  0
 10 28  1  0  0  0  0
 11 12  2  0  0  0  0
 11 29  1  0  0  0  0
 12 30  1  0  0  0  0
 13 22  1  0  0  0  0
 13 25  2  0  0  0  0
 14 23  1  0  0  0  0
 14 28  2  0  0  0  0
 15 25  1  0  0  0  0
 15 26  2  0  0  0  0
 16 30  2  0  0  0  0
 16 31  1  0  0  0  0
 17 32  1  0  0  0  0
 18 32  1  0  0  0  0
 18 33  2  0  0  0  0
 18 34  1  0  0  0  0
 19 21  2  0  0  0  0
 19 39  1  0  0  0  0
 20 23  2  0  0  0  0
 20 40  1  0  0  0  0
 21 51  1  0  0  0  0
 22 24  2  0  0  0  0
 22 43  1  0  0  0  0
 23 42  1  0  0  0  0
 24 26  1  0  0  0  0
 24 41  1  0  0  0  0
 25 60  1  0  0  0  0
 26 54  1  0  0  0  0
 27 85  1  0  0  0  0
 28 86  1  0  0  0  0
 29 31  2  0  0  0  0
 29 85  1  0  0  0  0
 30 87  1  0  0  0  0
 31 88  1  0  0  0  0
 32 68  2  0  0  0  0
 33 69  1  0  0  0  0
 33 72  1  0  0  0  0
 34 73  1  0  0  0  0
 34 79  2  0  0  0  0
 35 52  1  0  0  0  0
 35 74  1  0  0  0  0
 35 80  2  0  0  0  0
 36 64  1  0  0  0  0
 36 70  1  0  0  0  0
 36 81  2  0  0  0  0
 37 65  1  0  0  0  0
 37 75  1  0  0  0  0
 37 82  2  0  0  0  0
 38 71  1  0  0  0  0
 38 76  1  0  0  0  0
 38 83  2  0  0  0  0
 39 44  1  0  0  0  0
 40 52  1  0  0  0  0
 41 50  1  0  0  0  0
 42 70  1  0  0  0  0
 43 77  1  0  0  0  0
 44 46  1  0  0  0  0
 45 47  1  0  0  0  0
 45 48  1  0  0  0  0
 46 51  1  0  0  0  0
 47 53  1  0  0  0  0
 48 71  1  0  0  0  0
 49 53  1  0  0  0  0
 49 71  1  0  0  0  0
 50 77  1  0  0  0  0
 51 74  1  0  0  0  0
 52 70  1  0  0  0  0
 53 69  1  0  0  0  0
 55 65  1  0  0  0  0
 56 67  1  0  0  0  0
 57 67  1  0  0  0  0
 58 67  1  0  0  0  0
 59 78  1  0  0  0  0
 60 61  1  0  0  0  0
 61 76  1  0  0  0  0
 62 66  1  0  0  0  0
 62 77  1  0  0  0  0
 63 66  1  0  0  0  0
 63 86  1  0  0  0  0
 64 67  1  0  0  0  0
 64 75  1  0  0  0  0
 65 78  1  0  0  0  0
 66 84  1  0  0  0  0
 68 69  1  0  0  0  0
M  CHG  2  77   1  78   1
M  ISO  4  38 100  63 101  76 100  86 101
M  END
> <Batch ID>
0122

> <Smiles>
CNC(C)C(=O)NC(C(=O)N1Cc2cc([101O:1][101CH2:1]C(O)CN3CCc4c(C)cc(CC[100NH:0][100C:0](=O)N5CCCC(n6nc(-c7ccc(Oc8ccc(F)cc8F)cc7)c(C(N)=O)c6N)C5)cc4C3)ccc2CC1C(=O)NC1CCCc2ccccc21)C(C)(C)C

> <Shape>
0.289

> <Color>
0.146

> <Negative vol penalty>
0.000

$$$$

  -OEChem-04052320283D

 84 92  0     1  0  0  0  0  0999 V2000
  -23.3826  -19.4764   19.8011 C   0  0  0  0  0  0  0  0  0  0  0  0
  -24.1886  -18.9354   20.7976 C   0  0  0  0  0  0  0  0  0  0  0  0
  -23.1974   -9.8535   19.9563 C   0  0  0  0  0  0  0  0  0  0  0  0
  -23.9044   -9.9367   22.2650 C   0  0  0  0  0  0  0  0  0  0  0  0
  -22.2076  -20.1446   20.1428 C   0  0  0  0  0  0  0  0  0  0  0  0
  -23.8206  -19.0632   22.1365 C   0  0  0  0  0  0  0  0  0  0  0  0
  -24.3683  -14.7439   24.7228 C   0  0  0  0  0  0  0  0  0  0  0  0
  -22.5039   -8.6704   20.2112 C   0  0  0  0  0  0  0  0  0  0  0  0
  -23.2109   -8.7537   22.5200 C   0  0  0  0  0  0  0  0  0  0  0  0
  -25.6597  -14.3979   25.1183 C   0  0  0  0  0  0  0  0  0  0  0  0
  -20.8439   -5.4353   20.1716 C   0  0  0  0  0  0  0  0  0  0  0  0
  -20.9773   -4.3930   19.2543 C   0  0  0  0  0  0  0  0  0  0  0  0
  -30.1609  -17.1052   24.5304 C   0  0  0  0  0  0  0  0  0  0  0  0
  -29.6206  -17.0355   25.8382 C   0  0  0  0  0  0  0  0  0  0  0  0
  -25.1986  -15.2339   27.3336 C   0  0  0  0  0  0  0  0  0  0  0  0
  -23.3591   -4.3438   19.6566 C   0  0  0  0  0  0  0  0  0  0  0  0
  -23.8977  -10.4867   20.9832 C   0  0  0  0  0  0  0  0  0  0  0  0
  -24.1213  -13.0229   20.8242 C   0  0  0  0  0  0  0  0  0  0  0  0
  -21.8200  -20.2723   21.4859 C   0  0  0  0  0  0  0  0  0  0  0  0
  -23.4845  -15.3484   25.6282 C   0  0  0  0  0  0  0  0  0  0  0  0
  -22.6399  -19.7349   22.4965 C   0  0  0  0  0  0  0  0  0  0  0  0
  -23.8957  -15.5842   26.9478 C   0  0  0  0  0  0  0  0  0  0  0  0
  -22.5106   -8.1205   21.4931 C   0  0  0  0  0  0  0  0  0  0  0  0
  -26.0760  -14.6456   26.4230 C   0  0  0  0  0  0  0  0  0  0  0  0
  -21.9681   -5.9319   20.8313 C   0  0  0  0  0  0  0  0  0  0  0  0
  -22.2348   -3.8472   18.9968 C   0  0  0  0  0  0  0  0  0  0  0  0
  -23.2256   -5.3862   20.5739 C   0  0  0  0  0  0  0  0  0  0  0  0
  -24.6147  -11.7085   20.7203 C   0  0  0  0  0  0  0  0  0  0  0  0
  -30.6882  -15.8670   24.2367 C   0  0  0  0  0  0  0  0  0  0  0  0
  -29.8343  -15.7569   26.3039 C   0  0  0  0  0  0  0  0  0  0  0  0
  -25.1844  -13.8176   20.4709 C   0  0  0  0  0  0  0  0  0  0  0  0
  -22.8186  -13.4842   21.2060 C   0  0  0  0  0  0  0  0  0  0  0  0
  -21.9783  -18.1442   25.7653 C   0  0  0  0  0  0  0  0  0  0  0  0
  -20.5600  -16.8114   28.3604 C   0  0  0  0  0  0  0  0  0  0  0  0
  -20.6967  -14.5049   30.8720 C   0  0  0  0  0  0  0  0  0  0  0  0
  -30.9474  -14.0535   20.9669 C   0  0  0  0  0  0  0  0  0  0  0  0
  -20.5654  -21.0443   21.8092 C   0  0  0  0  0  0  0  0  0  0  0  0
  -22.0860  -15.6911   25.1934 C   0  0  0  0  0  0  0  0  0  0  0  0
  -22.9786  -16.2125   27.9640 C   0  0  0  0  0  0  0  0  0  0  0  0
  -20.0550  -20.8104   23.2288 C   0  0  0  0  0  0  0  0  0  0  0  0
  -29.3611  -13.1182   17.9197 C   0  0  0  0  0  0  0  0  0  0  0  0
  -21.2015  -20.9052   24.2306 C   0  0  0  0  0  0  0  0  0  0  0  0
  -27.9296  -12.7815   18.3409 C   0  0  0  0  0  0  0  0  0  0  0  0
  -30.3759  -12.6916   18.9782 C   0  0  0  0  0  0  0  0  0  0  0  0
  -28.6780  -12.8696   20.7556 C   0  0  0  0  0  0  0  0  0  0  0  0
  -22.2618  -19.8314   23.9587 C   0  0  1  0  0  0  0  0  0  0  0  0
  -21.4401  -16.7716   26.0553 C   0  0  1  0  0  0  0  0  0  0  0  0
  -27.6142  -13.3313   19.7450 C   0  0  2  0  0  0  0  0  0  0  0  0
  -31.6582  -15.8264   28.7573 C   0  0  0  0  0  0  0  0  0  0  0  0
  -19.4076  -13.6788   32.8602 C   0  0  0  0  0  0  0  0  0  0  0  0
  -29.6951  -12.7294   25.5673 C   0  0  0  0  0  0  0  0  0  0  0  0
  -31.9234  -13.4515   26.5260 C   0  0  0  0  0  0  0  0  0  0  0  0
  -21.4294  -19.2710   29.9429 C   0  0  0  0  0  0  0  0  0  0  0  0
  -20.9767  -17.9913   32.0467 C   0  0  0  0  0  0  0  0  0  0  0  0
  -19.1172  -18.4660   30.4530 C   0  0  0  0  0  0  0  0  0  0  0  0
  -20.4421  -11.7888   29.7244 C   0  0  0  0  0  0  0  0  0  0  0  0
  -31.3676  -15.3935   23.0131 C   0  0  0  0  0  0  0  0  0  0  0  0
  -30.1362  -15.8381   28.8349 C   0  0  0  0  0  0  0  0  0  0  0  0
  -27.9357  -15.1070   27.8318 C   0  0  0  0  0  0  0  0  0  1  0  0
  -29.4615  -15.1309   27.6407 C   0  0  1  0  0  0  0  0  0  0  0  0
  -20.8710  -16.7525   29.8364 C   0  0  1  0  0  0  0  0  0  0  0  0
  -19.6751  -13.5004   31.3738 C   0  0  2  0  0  0  0  0  0  0  0  0
  -30.8925  -13.6698   25.4170 C   0  0  0  0  0  0  0  0  0  0  0  0
  -20.6168  -18.1101   30.5503 C   0  0  0  0  0  0  0  0  0  0  0  0
  -25.8917  -11.6664   20.3312 N   0  0  0  0  0  0  0  0  0  0  0  0
  -30.4842  -15.0556   25.3221 N   0  0  0  0  0  0  0  0  0  0  0  0
  -26.2098  -12.9642   20.1875 N   0  0  0  0  0  0  0  0  0  0  0  0
  -21.6230  -16.5354   27.4888 N   0  0  0  0  0  0  0  0  0  0  0  0
  -30.0201  -13.2476   20.2860 N   0  0  0  0  0  0  0  0  0  0  0  0
  -25.3326  -15.1562   20.3780 N   0  0  0  0  0  0  0  0  0  0  0  0
  -21.8439  -12.5334   21.5380 N   0  0  0  0  0  0  0  0  0  0  0  0
  -21.8175  -18.5457   24.4529 N   0  0  0  0  0  0  0  0  0  0  0  0
  -20.0941  -15.6404   30.3732 N   0  0  0  0  0  0  0  0  0  0  0  0
  -30.5280  -14.5450   22.1971 N   0  0  0  0  0  0  0  0  0  0  0  0
  -20.1613  -12.1100   31.1474 N   0  3  0  0  0  0  0  0  0  0  0  0
  -22.5227  -14.7028   21.2356 O   0  0  0  0  0  0  0  0  0  0  0  0
  -22.4993  -18.7916   26.6658 O   0  0  0  0  0  0  0  0  0  0  0  0
  -19.4142  -17.0850   27.9942 O   0  0  0  0  0  0  0  0  0  0  0  0
  -21.9082  -14.3040   30.9211 O   0  0  0  0  0  0  0  0  0  0  0  0
  -32.0641  -14.3200   20.5099 O   0  0  0  0  0  0  0  0  0  0  0  0
  -21.8339   -6.9662   21.7423 O   0  0  0  0  0  0  0  0  0  0  0  0
  -27.3361  -14.3095   26.8115 O   0  0  0  0  0  0  0  0  0  1  0  0
  -22.3626   -2.8453   18.1171 F   0  0  0  0  0  0  0  0  0  0  0  0
  -24.3091   -5.8583   21.2055 F   0  0  0  0  0  0  0  0  0  0  0  0
  1  2  1  0  0  0  0
  1  5  2  0  0  0  0
  2  6  2  0  0  0  0
  3  8  2  0  0  0  0
  3 17  1  0  0  0  0
  4  9  1  0  0  0  0
  4 17  2  0  0  0  0
  5 19  1  0  0  0  0
  6 21  1  0  0  0  0
  7 10  2  0  0  0  0
  7 20  1  0  0  0  0
  8 23  1  0  0  0  0
  9 23  2  0  0  0  0
 10 24  1  0  0  0  0
 11 12  2  0  0  0  0
 11 25  1  0  0  0  0
 12 26  1  0  0  0  0
 13 14  1  0  0  0  0
 13 29  2  0  0  0  0
 14 30  2  0  0  0  0
 15 22  1  0  0  0  0
 15 24  2  0  0  0  0
 16 26  2  0  0  0  0
 16 27  1  0  0  0  0
 17 28  1  0  0  0  0
 18 28  1  0  0  0  0
 18 31  2  0  0  0  0
 18 32  1  0  0  0  0
 19 21  2  0  0  0  0
 19 37  1  0  0  0  0
 20 22  2  0  0  0  0
 20 38  1  0  0  0  0
 21 46  1  0  0  0  0
 22 39  1  0  0  0  0
 23 81  1  0  0  0  0
 24 82  1  0  0  0  0
 25 27  2  0  0  0  0
 25 81  1  0  0  0  0
 26 83  1  0  0  0  0
 27 84  1  0  0  0  0
 28 65  2  0  0  0  0
 29 57  1  0  0  0  0
 29 66  1  0  0  0  0
 30 60  1  0  0  0  0
 30 66  1  0  0  0  0
 31 67  1  0  0  0  0
 31 70  1  0  0  0  0
 32 71  1  0  0  0  0
 32 76  2  0  0  0  0
 33 47  1  0  0  0  0
 33 72  1  0  0  0  0
 33 77  2  0  0  0  0
 34 61  1  0  0  0  0
 34 68  1  0  0  0  0
 34 78  2  0  0  0  0
 35 62  1  0  0  0  0
 35 73  1  0  0  0  0
 35 79  2  0  0  0  0
 36 69  1  0  0  0  0
 36 74  1  0  0  0  0
 36 80  2  0  0  0  0
 37 40  1  0  0  0  0
 38 47  1  0  0  0  0
 39 68  1  0  0  0  0
 40 42  1  0  0  0  0
 41 43  1  0  0  0  0
 41 44  1  0  0  0  0
 42 46  1  0  0  0  0
 43 48  1  0  0  0  0
 44 69  1  0  0  0  0
 45 48  1  0  0  0  0
 45 69  1  0  0  0  0
 46 72  1  0  0  0  0
 47 68  1  0  0  0  0
 48 67  1  0  0  0  0
 49 58  1  0  0  0  0
 50 62  1  0  0  0  0
 51 63  1  0  0  0  0
 52 63  1  0  0  0  0
 53 64  1  0  0  0  0
 54 64  1  0  0  0  0
 55 64  1  0  0  0  0
 56 75  1  0  0  0  0
 57 74  1  0  0  0  0
 58 60  1  0  0  0  0
 59 60  1  0  0  0  0
 59 82  1  0  0  0  0
 61 64  1  0  0  0  0
 61 73  1  0  0  0  0
 62 75  1  0  0  0  0
 63 66  1  0  0  0  0
 65 67  1  0  0  0  0
M  CHG  1  75   1
M  ISO  4  36 100  59 101  74 100  82 101
M  END
> <Batch ID>
0122

> <Smiles>
CCC(c1ccc(C[100NH:0][100C:0](=O)N2CCCC(n3nc(-c4ccc(Oc5ccc(F)cc5F)cc4)c(C(N)=O)c3N)C2)n1C(C)C)[101CH2:1][101O:1]c1ccc2c(c1)CN(C(=O)C(NC(=O)C(C)NC)C(C)(C)C)C(C(=O)NC1CCCc3ccccc31)C2

> <Shape>
0.137

> <Color>
0.184

> <Negative vol penalty>
0.000

$$$$

  -OEChem-04052320283D

 85 94  0     1  0  0  0  0  0999 V2000
  -27.5726  -23.8902   17.5676 C   0  0  0  0  0  0  0  0  0  0  0  0
  -26.5131  -24.7617   17.7930 C   0  0  0  0  0  0  0  0  0  0  0  0
  -26.8144  -12.9405   20.1638 C   0  0  0  0  0  0  0  0  0  0  0  0
  -24.4642  -13.5006   20.1756 C   0  0  0  0  0  0  0  0  0  0  0  0
  -28.6504  -23.8664   18.4501 C   0  0  0  0  0  0  0  0  0  0  0  0
  -26.5366  -25.6181   18.8943 C   0  0  0  0  0  0  0  0  0  0  0  0
  -22.9458  -28.9674   19.1980 C   0  0  0  0  0  0  0  0  0  0  0  0
  -26.5454  -11.7962   20.9147 C   0  0  0  0  0  0  0  0  0  0  0  0
  -24.1952  -12.3562   20.9264 C   0  0  0  0  0  0  0  0  0  0  0  0
  -21.6287  -28.6341   19.5111 C   0  0  0  0  0  0  0  0  0  0  0  0
  -22.8425   -9.3920   22.5394 C   0  0  0  0  0  0  0  0  0  0  0  0
  -21.7550   -8.6061   22.1582 C   0  0  0  0  0  0  0  0  0  0  0  0
  -21.9567  -29.4669   21.7511 C   0  0  0  0  0  0  0  0  0  0  0  0
  -19.4252  -23.8810   22.4815 C   0  0  0  0  0  0  0  0  0  0  0  0
  -22.7702   -8.2509   19.9947 C   0  0  0  0  0  0  0  0  0  0  0  0
  -22.0406  -24.6126   22.2169 C   0  0  0  0  0  0  0  0  0  0  0  0
  -25.7737  -13.7928   19.7943 C   0  0  0  0  0  0  0  0  0  0  0  0
  -26.0704  -15.0868   17.6159 C   0  0  0  0  0  0  0  0  0  0  0  0
  -28.6805  -24.7144   19.5694 C   0  0  0  0  0  0  0  0  0  0  0  0
  -23.7829  -29.5439   20.1641 C   0  0  0  0  0  0  0  0  0  0  0  0
  -27.6266  -25.6260   19.7833 C   0  0  0  0  0  0  0  0  0  0  0  0
  -23.2833  -29.8090   21.4471 C   0  0  0  0  0  0  0  0  0  0  0  0
  -20.3974  -22.8974   22.3377 C   0  0  0  0  0  0  0  0  0  0  0  0
  -21.7324  -23.2618   22.2023 C   0  0  0  0  0  0  0  0  0  0  0  0
  -25.2359  -11.5041   21.2960 C   0  0  0  0  0  0  0  0  0  0  0  0
  -21.1349  -28.8812   20.7886 C   0  0  0  0  0  0  0  0  0  0  0  0
  -23.8938   -9.6075   21.6482 C   0  0  0  0  0  0  0  0  0  0  0  0
  -21.7189   -8.0355   20.8859 C   0  0  0  0  0  0  0  0  0  0  0  0
  -23.8576   -9.0369   20.3759 C   0  0  0  0  0  0  0  0  0  0  0  0
  -26.0510  -14.9753   19.0191 C   0  0  0  0  0  0  0  0  0  0  0  0
  -19.8367  -25.2040   22.4838 C   0  0  0  0  0  0  0  0  0  0  0  0
  -26.3821  -16.4035   17.3804 C   0  0  0  0  0  0  0  0  0  0  0  0
  -25.8281  -14.0893   16.6149 C   0  0  0  0  0  0  0  0  0  0  0  0
  -26.5029  -28.6924   21.5713 C   0  0  0  0  0  0  0  0  0  0  0  0
  -26.3165  -31.6661   22.8539 C   0  0  0  0  0  0  0  0  0  0  0  0
  -24.3639  -34.3182   23.7487 C   0  0  0  0  0  0  0  0  0  0  0  0
  -25.6866  -21.3987   20.6076 C   0  0  0  0  0  0  0  0  0  0  0  0
  -29.8754  -24.6528   20.4879 C   0  0  0  0  0  0  0  0  0  0  0  0
  -25.1932  -29.9222   19.8027 C   0  0  0  0  0  0  0  0  0  0  0  0
  -24.1351  -30.4448   22.5141 C   0  0  0  0  0  0  0  0  0  0  0  0
  -29.6065  -25.2719   21.8557 C   0  0  0  0  0  0  0  0  0  0  0  0
  -28.7348  -20.0970   19.3074 C   0  0  0  0  0  0  0  0  0  0  0  0
  -19.7454  -20.7782   21.0118 C   0  0  0  0  0  0  0  0  0  0  0  0
  -18.5896  -21.1019   21.9059 C   0  0  0  0  0  0  0  0  0  0  0  0
  -28.9784  -26.6475   21.6891 C   0  0  0  0  0  0  0  0  0  0  0  0
  -28.3944  -18.6469   18.9594 C   0  0  0  0  0  0  0  0  0  0  0  0
  -28.0162  -20.5572   20.5738 C   0  0  0  0  0  0  0  0  0  0  0  0
  -26.2134  -18.9162   20.2122 C   0  0  0  0  0  0  0  0  0  0  0  0
  -19.9885  -21.4623   22.3310 C   0  0  0  0  0  0  0  0  0  0  0  0
  -27.6161  -26.5450   20.9915 C   0  0  1  0  0  0  0  0  0  0  0  0
  -26.1117  -30.0326   21.0157 C   0  0  1  0  0  0  0  0  0  0  0  0
  -26.8707  -18.4246   18.9112 C   0  0  2  0  0  0  0  0  0  0  0  0
  -24.4912  -36.5890   24.8090 C   0  0  0  0  0  0  0  0  0  0  0  0
  -26.6161  -30.3654   25.5978 C   0  0  0  0  0  0  0  0  0  0  0  0
  -25.7957  -32.4980   26.6211 C   0  0  0  0  0  0  0  0  0  0  0  0
  -27.9118  -32.4837   25.3003 C   0  0  0  0  0  0  0  0  0  0  0  0
  -23.3305  -35.6418   21.3117 C   0  0  0  0  0  0  0  0  0  0  0  0
  -22.8154  -22.2513   22.0448 C   0  0  0  0  0  0  0  0  0  0  0  0
  -18.8099  -26.2975   22.6372 C   0  0  0  0  0  0  0  0  0  0  0  0
  -18.2356  -26.7939   21.3085 C   0  0  0  0  0  0  0  0  0  0  0  0
  -23.3036  -22.0917   20.5992 C   0  0  0  0  0  0  0  0  0  0  0  0
  -19.2771  -27.4463   20.4068 C   0  0  0  0  0  0  0  0  0  1  0  0
  -25.6991  -32.2568   24.0985 C   0  0  1  0  0  0  0  0  0  0  0  0
  -24.5157  -35.8087   23.5040 C   0  0  2  0  0  0  0  0  0  0  0  0
  -26.4899  -31.8872   25.3851 C   0  0  0  0  0  0  0  0  0  0  0  0
  -21.1239  -25.5966   22.3546 N   0  0  0  0  0  0  0  0  0  0  0  0
  -26.3285  -16.1292   19.6319 N   0  0  0  0  0  0  0  0  0  0  0  0
  -26.5253  -16.9782   18.6089 N   0  0  0  0  0  0  0  0  0  0  0  0
  -25.5090  -30.7907   22.1139 N   0  0  0  0  0  0  0  0  0  0  0  0
  -26.5749  -20.3203   20.4628 N   0  0  0  0  0  0  0  0  0  0  0  0
  -26.5451  -17.1142   16.2442 N   0  0  0  0  0  0  0  0  0  0  0  0
  -25.5205  -12.7866   17.0305 N   0  0  0  0  0  0  0  0  0  0  0  0
  -27.1515  -27.8753   20.6653 N   0  0  0  0  0  0  0  0  0  0  0  0
  -25.5872  -33.6913   23.8572 N   0  0  0  0  0  0  0  0  0  0  0  0
  -24.3380  -21.0883   20.4817 N   0  0  0  0  0  0  0  0  0  0  0  0
  -23.4099  -36.3066   22.6378 N   0  3  0  0  0  0  0  0  0  0  0  0
  -25.8990  -14.3417   15.3882 O   0  0  0  0  0  0  0  0  0  0  0  0
  -26.2373  -28.4205   22.7363 O   0  0  0  0  0  0  0  0  0  0  0  0
  -27.4701  -31.9756   22.5457 O   0  0  0  0  0  0  0  0  0  0  0  0
  -23.2696  -33.7659   23.8385 O   0  0  0  0  0  0  0  0  0  0  0  0
  -26.0674  -22.5536   20.8272 O   0  0  0  0  0  0  0  0  0  0  0  0
  -24.9730  -10.3874   22.0285 O   0  0  0  0  0  0  0  0  0  0  0  0
  -19.8499  -28.5562   21.0970 O   0  0  0  0  0  0  0  0  0  1  0  0
  -20.6753   -7.2795   20.5205 F   0  0  0  0  0  0  0  0  0  0  0  0
  -24.8652   -9.2393   19.5159 F   0  0  0  0  0  0  0  0  0  0  0  0
  1  2  1  0  0  0  0
  1  5  2  0  0  0  0
  2  6  2  0  0  0  0
  3  8  2  0  0  0  0
  3 17  1  0  0  0  0
  4  9  1  0  0  0  0
  4 17  2  0  0  0  0
  5 19  1  0  0  0  0
  6 21  1  0  0  0  0
  7 10  2  0  0  0  0
  7 20  1  0  0  0  0
  8 25  1  0  0  0  0
  9 25  2  0  0  0  0
 10 26  1  0  0  0  0
 11 12  2  0  0  0  0
 11 27  1  0  0  0  0
 12 28  1  0  0  0  0
 13 22  1  0  0  0  0
 13 26  2  0  0  0  0
 14 23  2  0  0  0  0
 14 31  1  0  0  0  0
 15 28  2  0  0  0  0
 15 29  1  0  0  0  0
 16 24  2  0  0  0  0
 16 66  1  0  0  0  0
 17 30  1  0  0  0  0
 18 30  1  0  0  0  0
 18 32  2  0  0  0  0
 18 33  1  0  0  0  0
 19 21  2  0  0  0  0
 19 38  1  0  0  0  0
 20 22  2  0  0  0  0
 20 39  1  0  0  0  0
 21 50  1  0  0  0  0
 22 40  1  0  0  0  0
 23 24  1  0  0  0  0
 23 49  1  0  0  0  0
 24 58  1  0  0  0  0
 25 82  1  0  0  0  0
 26 83  1  0  0  0  0
 27 29  2  0  0  0  0
 27 82  1  0  0  0  0
 28 84  1  0  0  0  0
 29 85  1  0  0  0  0
 30 67  2  0  0  0  0
 31 59  1  0  0  0  0
 31 66  2  0  0  0  0
 32 68  1  0  0  0  0
 32 71  1  0  0  0  0
 33 72  1  0  0  0  0
 33 77  2  0  0  0  0
 34 51  1  0  0  0  0
 34 73  1  0  0  0  0
 34 78  2  0  0  0  0
 35 63  1  0  0  0  0
 35 69  1  0  0  0  0
 35 79  2  0  0  0  0
 36 64  1  0  0  0  0
 36 74  1  0  0  0  0
 36 80  2  0  0  0  0
 37 70  1  0  0  0  0
 37 75  1  0  0  0  0
 37 81  2  0  0  0  0
 38 41  1  0  0  0  0
 39 51  1  0  0  0  0
 40 69  1  0  0  0  0
 41 45  1  0  0  0  0
 42 46  1  0  0  0  0
 42 47  1  0  0  0  0
 43 44  1  0  0  0  0
 43 49  1  0  0  0  0
 44 49  1  0  0  0  0
 45 50  1  0  0  0  0
 46 52  1  0  0  0  0
 47 70  1  0  0  0  0
 48 52  1  0  0  0  0
 48 70  1  0  0  0  0
 50 73  1  0  0  0  0
 51 69  1  0  0  0  0
 52 68  1  0  0  0  0
 53 64  1  0  0  0  0
 54 65  1  0  0  0  0
 55 65  1  0  0  0  0
 56 65  1  0  0  0  0
 57 76  1  0  0  0  0
 58 61  1  0  0  0  0
 59 60  1  0  0  0  0
 60 62  1  0  0  0  0
 61 75  1  0  0  0  0
 62 83  1  0  0  0  0
 63 65  1  0  0  0  0
 63 74  1  0  0  0  0
 64 76  1  0  0  0  0
 67 68  1  0  0  0  0
M  CHG  1  76   1
M  ISO  4  37 100  62 101  75 100  83 101
M  END
> <Batch ID>
0122

> <Smiles>
CNC(C)C(=O)NC(C(=O)N1Cc2cc([101O:1][101CH2:1]CCc3cc(C4CC4)c(CC[100NH:0][100C:0](=O)N4CCCC(n5nc(-c6ccc(Oc7ccc(F)cc7F)cc6)c(C(N)=O)c5N)C4)cn3)ccc2CC1C(=O)NC1CCCc2ccccc21)C(C)(C)C

> <Shape>
0.297

> <Color>
0.087

> <Negative vol penalty>
0.000

$$$$

  -OEChem-04052320283D

 86 95  0     1  0  0  0  0  0999 V2000
  -18.7063  -23.8118   23.1161 C   0  0  0  0  0  0  0  0  0  0  0  0
  -20.0590  -23.4976   23.0325 C   0  0  0  0  0  0  0  0  0  0  0  0
  -22.7965  -11.3115   22.6673 C   0  0  0  0  0  0  0  0  0  0  0  0
  -23.3794   -9.7834   20.8890 C   0  0  0  0  0  0  0  0  0  0  0  0
  -18.2924  -25.1391   23.0121 C   0  0  0  0  0  0  0  0  0  0  0  0
  -20.9985  -24.5106   22.8439 C   0  0  0  0  0  0  0  0  0  0  0  0
  -25.0816  -24.0218   25.9393 C   0  0  0  0  0  0  0  0  0  0  0  0
  -21.9414  -10.3529   23.2107 C   0  0  0  0  0  0  0  0  0  0  0  0
  -22.5242   -8.8248   21.4325 C   0  0  0  0  0  0  0  0  0  0  0  0
  -26.0574  -23.0836   25.6055 C   0  0  0  0  0  0  0  0  0  0  0  0
  -20.7687   -5.8447   22.5531 C   0  0  0  0  0  0  0  0  0  0  0  0
  -21.2376   -4.5343   22.6457 C   0  0  0  0  0  0  0  0  0  0  0  0
  -27.3948  -24.8334   24.6219 C   0  0  0  0  0  0  0  0  0  0  0  0
  -23.0452   -5.2813   24.0640 C   0  0  0  0  0  0  0  0  0  0  0  0
  -23.5155  -11.0268   21.5063 C   0  0  0  0  0  0  0  0  0  0  0  0
  -24.0531  -13.3028   20.4873 C   0  0  0  0  0  0  0  0  0  0  0  0
  -19.2281  -26.1699   22.8319 C   0  0  0  0  0  0  0  0  0  0  0  0
  -25.2502  -25.3738   25.6072 C   0  0  0  0  0  0  0  0  0  0  0  0
  -20.5966  -25.8528   22.7362 C   0  0  0  0  0  0  0  0  0  0  0  0
  -26.4218  -25.7874   24.9569 C   0  0  0  0  0  0  0  0  0  0  0  0
  -21.8052   -9.1096   22.5934 C   0  0  0  0  0  0  0  0  0  0  0  0
  -27.2131  -23.4890   24.9447 C   0  0  0  0  0  0  0  0  0  0  0  0
  -21.4382   -6.8735   23.2159 C   0  0  0  0  0  0  0  0  0  0  0  0
  -22.3758   -4.2526   23.4011 C   0  0  0  0  0  0  0  0  0  0  0  0
  -22.5764   -6.5917   23.9713 C   0  0  0  0  0  0  0  0  0  0  0  0
  -24.3986  -12.0168   20.9441 C   0  0  0  0  0  0  0  0  0  0  0  0
  -25.2386  -13.8426   20.0519 C   0  0  0  0  0  0  0  0  0  0  0  0
  -22.7747  -13.9515   20.4591 C   0  0  0  0  0  0  0  0  0  0  0  0
  -23.7038  -27.5329   23.8205 C   0  0  0  0  0  0  0  0  0  0  0  0
  -26.0035  -29.5232   25.1633 C   0  0  0  0  0  0  0  0  0  0  0  0
  -24.2365  -32.2253   24.0605 C   0  0  0  0  0  0  0  0  0  0  0  0
  -30.6026  -14.8202   20.5453 C   0  0  0  0  0  0  0  0  0  0  0  0
  -18.7290  -27.5847   22.6777 C   0  0  0  0  0  0  0  0  0  0  0  0
  -24.1990  -26.3750   26.0034 C   0  0  0  0  0  0  0  0  0  0  0  0
  -26.6519  -27.2267   24.5822 C   0  0  0  0  0  0  0  0  0  0  0  0
  -19.8197  -28.6381   22.8538 C   0  0  0  0  0  0  0  0  0  0  0  0
  -27.0302  -22.2672   19.2040 C   0  0  0  0  0  0  0  0  0  0  0  0
  -25.7823  -22.0952   20.0495 C   0  0  0  0  0  0  0  0  0  0  0  0
  -29.7553  -11.7139   19.2856 C   0  0  0  0  0  0  0  0  0  0  0  0
  -21.0650  -28.2549   22.0605 C   0  0  0  0  0  0  0  0  0  0  0  0
  -28.2553  -11.6081   19.5597 C   0  0  0  0  0  0  0  0  0  0  0  0
  -27.8980  -21.0817   19.6077 C   0  0  0  0  0  0  0  0  0  0  0  0
  -26.3431  -21.6985   21.4076 C   0  0  0  0  0  0  0  0  0  0  0  0
  -29.0577  -18.1477   20.0278 C   0  0  0  0  0  0  0  0  0  0  0  0
  -28.2115  -17.1817   22.1957 C   0  0  0  0  0  0  0  0  0  0  0  0
  -30.4826  -12.3479   20.4659 C   0  0  0  0  0  0  0  0  0  0  0  0
  -30.2718  -17.2270   20.1130 C   0  0  0  0  0  0  0  0  0  0  0  0
  -29.4434  -16.2838   22.2428 C   0  0  0  0  0  0  0  0  0  0  0  0
  -28.4561  -13.6027   21.1249 C   0  0  0  0  0  0  0  0  0  0  0  0
  -21.6481  -26.9263   22.5567 C   0  0  1  0  0  0  0  0  0  0  0  0
  -24.2647  -27.6764   25.2069 C   0  0  1  0  0  0  0  0  0  0  0  0
  -28.4940  -18.4736   21.4170 C   0  0  0  0  0  0  0  0  0  0  0  0
  -27.6686  -12.9741   19.9577 C   0  0  2  0  0  0  0  0  0  0  0  0
  -27.5693  -20.8106   21.0954 C   0  0  0  0  0  0  0  0  0  0  0  0
  -24.1427  -34.7262   24.2447 C   0  0  0  0  0  0  0  0  0  0  0  0
  -30.0980  -20.4760   23.9695 C   0  0  0  0  0  0  0  0  0  0  0  0
  -24.7761  -29.2689   27.9444 C   0  0  0  0  0  0  0  0  0  0  0  0
  -23.8593  -31.5829   27.6742 C   0  0  0  0  0  0  0  0  0  0  0  0
  -26.3259  -31.2112   27.6614 C   0  0  0  0  0  0  0  0  0  0  0  0
  -24.6844  -32.5720   21.1557 C   0  0  0  0  0  0  0  0  0  0  0  0
  -27.2333  -19.3277   21.3060 C   0  0  0  0  0  0  0  0  0  0  0  0
  -28.7505  -21.1898   21.9970 C   0  0  0  0  0  0  0  0  0  0  0  0
  -27.7318  -21.2444   24.3541 C   0  0  0  0  0  0  0  0  0  1  0  0
  -24.9517  -30.4781   25.6700 C   0  0  1  0  0  0  0  0  0  0  0  0
  -24.6847  -33.5439   23.4566 C   0  0  2  0  0  0  0  0  0  0  0  0
  -28.6830  -20.5330   23.3825 C   0  0  2  0  0  0  0  0  0  0  0  0
  -24.9720  -30.6149   27.2186 C   0  0  0  0  0  0  0  0  0  0  0  0
  -25.7016  -11.7552   20.8111 N   0  0  0  0  0  0  0  0  0  0  0  0
  -26.1853  -12.8843   20.2658 N   0  0  0  0  0  0  0  0  0  0  0  0
  -25.6388  -28.1744   25.0645 N   0  0  0  0  0  0  0  0  0  0  0  0
  -29.8932  -13.6402   20.8154 N   0  0  0  0  0  0  0  0  0  0  0  0
  -29.9811  -16.0292   20.8997 N   0  0  0  0  0  0  0  0  0  0  0  0
  -25.5533  -15.0386   19.5108 N   0  0  0  0  0  0  0  0  0  0  0  0
  -21.9728  -13.7984   19.3199 N   0  0  0  0  0  0  0  0  0  0  0  0
  -22.3838  -27.1254   23.7870 N   0  0  0  0  0  0  0  0  0  0  0  0
  -25.1620  -31.7330   24.9564 N   0  0  0  0  0  0  0  0  0  0  0  0
  -24.2069  -33.6582   22.0496 N   0  3  0  0  0  0  0  0  0  0  0  0
  -22.3630  -14.6598   21.4090 O   0  0  0  0  0  0  0  0  0  0  0  0
  -24.4153  -27.7755   22.8527 O   0  0  0  0  0  0  0  0  0  0  0  0
  -27.1209  -29.9574   24.8699 O   0  0  0  0  0  0  0  0  0  0  0  0
  -23.1703  -31.6876   23.7697 O   0  0  0  0  0  0  0  0  0  0  0  0
  -31.7207  -14.7984   20.0159 O   0  0  0  0  0  0  0  0  0  0  0  0
  -20.9710   -8.1738   23.1236 O   0  0  0  0  0  0  0  0  0  0  0  0
  -28.1746  -22.5686   24.6158 O   0  0  0  0  0  0  0  0  0  1  0  0
  -22.8250   -2.9939   23.4912 F   0  0  0  0  0  0  0  0  0  0  0  0
  -23.2231   -7.5756   24.6113 F   0  0  0  0  0  0  0  0  0  0  0  0
  1  2  1  0  0  0  0
  1  5  2  0  0  0  0
  2  6  2  0  0  0  0
  3  8  2  0  0  0  0
  3 15  1  0  0  0  0
  4  9  1  0  0  0  0
  4 15  2  0  0  0  0
  5 17  1  0  0  0  0
  6 19  1  0  0  0  0
  7 10  2  0  0  0  0
  7 18  1  0  0  0  0
  8 21  1  0  0  0  0
  9 21  2  0  0  0  0
 10 22  1  0  0  0  0
 11 12  2  0  0  0  0
 11 23  1  0  0  0  0
 12 24  1  0  0  0  0
 13 20  1  0  0  0  0
 13 22  2  0  0  0  0
 14 24  2  0  0  0  0
 14 25  1  0  0  0  0
 15 26  1  0  0  0  0
 16 26  1  0  0  0  0
 16 27  2  0  0  0  0
 16 28  1  0  0  0  0
 17 19  2  0  0  0  0
 17 33  1  0  0  0  0
 18 20  2  0  0  0  0
 18 34  1  0  0  0  0
 19 50  1  0  0  0  0
 20 35  1  0  0  0  0
 21 83  1  0  0  0  0
 22 84  1  0  0  0  0
 23 25  2  0  0  0  0
 23 83  1  0  0  0  0
 24 85  1  0  0  0  0
 25 86  1  0  0  0  0
 26 68  2  0  0  0  0
 27 69  1  0  0  0  0
 27 73  1  0  0  0  0
 28 74  1  0  0  0  0
 28 78  2  0  0  0  0
 29 51  1  0  0  0  0
 29 75  1  0  0  0  0
 29 79  2  0  0  0  0
 30 64  1  0  0  0  0
 30 70  1  0  0  0  0
 30 80  2  0  0  0  0
 31 65  1  0  0  0  0
 31 76  1  0  0  0  0
 31 81  2  0  0  0  0
 32 71  1  0  0  0  0
 32 72  1  0  0  0  0
 32 82  2  0  0  0  0
 33 36  1  0  0  0  0
 34 51  1  0  0  0  0
 35 70  1  0  0  0  0
 36 40  1  0  0  0  0
 37 38  1  0  0  0  0
 37 42  1  0  0  0  0
 38 43  1  0  0  0  0
 39 41  1  0  0  0  0
 39 46  1  0  0  0  0
 40 50  1  0  0  0  0
 41 53  1  0  0  0  0
 42 54  1  0  0  0  0
 43 54  1  0  0  0  0
 44 47  1  0  0  0  0
 44 52  1  0  0  0  0
 45 48  1  0  0  0  0
 45 52  1  0  0  0  0
 46 71  1  0  0  0  0
 47 72  1  0  0  0  0
 48 72  1  0  0  0  0
 49 53  1  0  0  0  0
 49 71  1  0  0  0  0
 50 75  1  0  0  0  0
 51 70  1  0  0  0  0
 52 61  1  0  0  0  0
 53 69  1  0  0  0  0
 54 61  1  0  0  0  0
 54 62  1  0  0  0  0
 55 65  1  0  0  0  0
 56 66  1  0  0  0  0
 57 67  1  0  0  0  0
 58 67  1  0  0  0  0
 59 67  1  0  0  0  0
 60 77  1  0  0  0  0
 62 66  1  0  0  0  0
 63 66  1  0  0  0  0
 63 84  1  0  0  0  0
 64 67  1  0  0  0  0
 64 76  1  0  0  0  0
 65 77  1  0  0  0  0
 68 69  1  0  0  0  0
M  CHG  1  77   1
M  ISO  4  32 100  63 101  72 100  84 101
M  END
> <Batch ID>
0122

> <Smiles>
CNC(C)C(=O)NC(C(=O)N1Cc2cc([101O:1][101CH2:1]C(C)CC3(CC4CC[100N:0]([100C:0](=O)N5CCCC(n6nc(-c7ccc(Oc8ccc(F)cc8F)cc7)c(C(N)=O)c6N)C5)CC4)CCCC3)ccc2CC1C(=O)NC1CCCc2ccccc21)C(C)(C)C

> <Shape>
0.297

> <Color>
0.148

> <Negative vol penalty>
0.000

$$$$

  -OEChem-04052320283D

 84 92  0     1  0  0  0  0  0999 V2000
  -28.7951  -33.2476   23.4406 C   0  0  0  0  0  0  0  0  0  0  0  0
  -28.4388  -31.9118   23.2854 C   0  0  0  0  0  0  0  0  0  0  0  0
  -23.0875   -9.9167   19.9322 C   0  0  0  0  0  0  0  0  0  0  0  0
  -23.8570   -9.9029   22.2224 C   0  0  0  0  0  0  0  0  0  0  0  0
  -30.0578  -33.5786   23.9304 C   0  0  0  0  0  0  0  0  0  0  0  0
  -29.3455  -30.9062   23.6188 C   0  0  0  0  0  0  0  0  0  0  0  0
  -28.0442  -25.4214   26.0124 C   0  0  0  0  0  0  0  0  0  0  0  0
  -22.3431   -8.7624   20.1753 C   0  0  0  0  0  0  0  0  0  0  0  0
  -23.1126   -8.7485   22.4655 C   0  0  0  0  0  0  0  0  0  0  0  0
  -27.9085  -24.1569   25.4411 C   0  0  0  0  0  0  0  0  0  0  0  0
  -19.3999   -7.9571   21.6320 C   0  0  0  0  0  0  0  0  0  0  0  0
  -18.0910   -7.9168   21.1519 C   0  0  0  0  0  0  0  0  0  0  0  0
  -30.1992  -23.6601   26.0113 C   0  0  0  0  0  0  0  0  0  0  0  0
  -27.6959  -17.7492   22.8510 C   0  0  0  0  0  0  0  0  0  0  0  0
  -28.3094  -20.0608   22.5978 C   0  0  0  0  0  0  0  0  0  0  0  0
  -18.6425   -5.9845   19.8105 C   0  0  0  0  0  0  0  0  0  0  0  0
  -23.8445  -10.4869   20.9557 C   0  0  0  0  0  0  0  0  0  0  0  0
  -24.1891  -13.0126   20.8562 C   0  0  0  0  0  0  0  0  0  0  0  0
  -30.9769  -32.5765   24.2791 C   0  0  0  0  0  0  0  0  0  0  0  0
  -29.2638  -25.8194   26.5788 C   0  0  0  0  0  0  0  0  0  0  0  0
  -30.6222  -31.2242   24.1125 C   0  0  0  0  0  0  0  0  0  0  0  0
  -30.3470  -24.9292   26.5915 C   0  0  0  0  0  0  0  0  0  0  0  0
  -28.3346  -18.7518   22.1298 C   0  0  0  0  0  0  0  0  0  0  0  0
  -22.3556   -8.1783   21.4419 C   0  0  0  0  0  0  0  0  0  0  0  0
  -28.9869  -23.2771   25.4379 C   0  0  0  0  0  0  0  0  0  0  0  0
  -20.3303   -7.0112   21.2013 C   0  0  0  0  0  0  0  0  0  0  0  0
  -17.7122   -6.9305   20.2411 C   0  0  0  0  0  0  0  0  0  0  0  0
  -19.9516   -6.0249   20.2906 C   0  0  0  0  0  0  0  0  0  0  0  0
  -24.6140  -11.6790   20.7051 C   0  0  0  0  0  0  0  0  0  0  0  0
  -27.0513  -18.1047   24.0248 C   0  0  0  0  0  0  0  0  0  0  0  0
  -27.6372  -20.3130   23.7828 C   0  0  0  0  0  0  0  0  0  0  0  0
  -25.2807  -13.7638   20.4948 C   0  0  0  0  0  0  0  0  0  0  0  0
  -22.9211  -13.5264   21.2849 C   0  0  0  0  0  0  0  0  0  0  0  0
  -31.3689  -28.1244   25.9797 C   0  0  0  0  0  0  0  0  0  0  0  0
  -32.7630  -27.0210   28.6929 C   0  0  0  0  0  0  0  0  0  0  0  0
  -33.2193  -24.4323   30.8695 C   0  0  0  0  0  0  0  0  0  0  0  0
  -30.7666  -14.7741   20.6690 C   0  0  0  0  0  0  0  0  0  0  0  0
  -32.3472  -32.9837   24.7599 C   0  0  0  0  0  0  0  0  0  0  0  0
  -29.3859  -27.1769   27.2149 C   0  0  0  0  0  0  0  0  0  0  0  0
  -31.6715  -25.3006   27.2048 C   0  0  0  0  0  0  0  0  0  0  0  0
  -33.1136  -31.8541   25.4433 C   0  0  0  0  0  0  0  0  0  0  0  0
  -29.6158  -12.4118   18.2664 C   0  0  0  0  0  0  0  0  0  0  0  0
  -33.0231  -30.5732   24.6199 C   0  0  0  0  0  0  0  0  0  0  0  0
  -28.1798  -12.1162   18.7028 C   0  0  0  0  0  0  0  0  0  0  0  0
  -30.5383  -12.6210   19.4653 C   0  0  0  0  0  0  0  0  0  0  0  0
  -28.6433  -13.3425   20.8662 C   0  0  0  0  0  0  0  0  0  0  0  0
  -31.5691  -30.1046   24.4865 C   0  0  1  0  0  0  0  0  0  0  0  0
  -30.8278  -27.6671   27.3047 C   0  0  1  0  0  0  0  0  0  0  0  0
  -27.6640  -13.1794   19.6912 C   0  0  2  0  0  0  0  0  0  0  0  0
  -26.3566  -17.0547   24.8258 C   0  0  0  0  0  0  0  0  0  0  0  0
  -34.4437  -23.8193   32.9724 C   0  0  0  0  0  0  0  0  0  0  0  0
  -35.3534  -26.7512   27.1033 C   0  0  0  0  0  0  0  0  0  0  0  0
  -36.2395  -25.2853   28.9292 C   0  0  0  0  0  0  0  0  0  0  0  0
  -35.6387  -27.6568   29.4169 C   0  0  0  0  0  0  0  0  0  0  0  0
  -30.6953  -23.9202   32.3276 C   0  0  0  0  0  0  0  0  0  0  0  0
  -27.5882  -21.7145   24.3164 C   0  0  0  0  0  0  0  0  0  1  0  0
  -30.8405  -16.9137   21.9242 C   0  0  0  0  0  0  0  0  0  0  0  0
  -29.0445  -18.4242   20.8600 C   0  0  2  0  0  0  0  0  0  0  0  0
  -33.7992  -25.9704   29.0114 C   0  0  1  0  0  0  0  0  0  0  0  0
  -33.1522  -24.3664   32.3846 C   0  0  2  0  0  0  0  0  0  0  0  0
  -30.5531  -18.0729   20.9708 C   0  0  1  0  0  0  0  0  0  0  0  0
  -35.2334  -26.4093   28.6018 C   0  0  0  0  0  0  0  0  0  0  0  0
  -25.8770  -11.5852   20.2807 N   0  0  0  0  0  0  0  0  0  0  0  0
  -27.0053  -19.3653   24.5111 N   0  0  0  0  0  0  0  0  0  0  0  0
  -26.2551  -12.8693   20.1619 N   0  0  0  0  0  0  0  0  0  0  0  0
  -31.7432  -26.6413   27.8088 N   0  0  0  0  0  0  0  0  0  0  0  0
  -29.9928  -13.6426   20.3625 N   0  0  0  0  0  0  0  0  0  0  0  0
  -25.4926  -15.0956   20.4325 N   0  0  0  0  0  0  0  0  0  0  0  0
  -21.9094  -12.6156   21.6185 N   0  0  0  0  0  0  0  0  0  0  0  0
  -31.1327  -29.4580   25.7055 N   0  0  0  0  0  0  0  0  0  0  0  0
  -33.6497  -25.6665   30.4304 N   0  0  0  0  0  0  0  0  0  0  0  0
  -30.1722  -15.6963   21.5215 N   0  0  0  0  0  0  0  0  0  0  0  0
  -31.3200  -19.2695   21.4297 N   0  3  0  0  0  0  0  0  0  0  0  0
  -32.0297  -23.4861   32.8156 N   0  3  0  0  0  0  0  0  0  0  0  0
  -22.6867  -14.7568   21.3539 O   0  0  0  0  0  0  0  0  0  0  0  0
  -31.9586  -27.3268   25.2601 O   0  0  0  0  0  0  0  0  0  0  0  0
  -32.8510  -28.1351   29.2151 O   0  0  0  0  0  0  0  0  0  0  0  0
  -32.9233  -23.4826   30.1477 O   0  0  0  0  0  0  0  0  0  0  0  0
  -31.9008  -14.9520   20.2121 O   0  0  0  0  0  0  0  0  0  0  0  0
  -28.8914  -19.4924   19.9082 O   0  0  0  0  0  0  0  0  0  0  0  0
  -21.6292   -7.0521   21.6796 O   0  0  0  0  0  0  0  0  0  0  0  0
  -28.8573  -22.0425   24.8803 O   0  0  0  0  0  0  0  0  0  1  0  0
  -16.4548   -6.8909   19.7813 F   0  0  0  0  0  0  0  0  0  0  0  0
  -20.8406   -5.1127   19.8741 F   0  0  0  0  0  0  0  0  0  0  0  0
  1  2  1  0  0  0  0
  1  5  2  0  0  0  0
  2  6  2  0  0  0  0
  3  8  2  0  0  0  0
  3 17  1  0  0  0  0
  4  9  1  0  0  0  0
  4 17  2  0  0  0  0
  5 19  1  0  0  0  0
  6 21  1  0  0  0  0
  7 10  2  0  0  0  0
  7 20  1  0  0  0  0
  8 24  1  0  0  0  0
  9 24  2  0  0  0  0
 10 25  1  0  0  0  0
 11 12  2  0  0  0  0
 11 26  1  0  0  0  0
 12 27  1  0  0  0  0
 13 22  1  0  0  0  0
 13 25  2  0  0  0  0
 14 23  1  0  0  0  0
 14 30  2  0  0  0  0
 15 23  2  0  0  0  0
 15 31  1  0  0  0  0
 16 27  2  0  0  0  0
 16 28  1  0  0  0  0
 17 29  1  0  0  0  0
 18 29  1  0  0  0  0
 18 32  2  0  0  0  0
 18 33  1  0  0  0  0
 19 21  2  0  0  0  0
 19 38  1  0  0  0  0
 20 22  2  0  0  0  0
 20 39  1  0  0  0  0
 21 47  1  0  0  0  0
 22 40  1  0  0  0  0
 23 58  1  0  0  0  0
 24 81  1  0  0  0  0
 25 82  1  0  0  0  0
 26 28  2  0  0  0  0
 26 81  1  0  0  0  0
 27 83  1  0  0  0  0
 28 84  1  0  0  0  0
 29 63  2  0  0  0  0
 30 50  1  0  0  0  0
 30 64  1  0  0  0  0
 31 56  1  0  0  0  0
 31 64  2  0  0  0  0
 32 65  1  0  0  0  0
 32 68  1  0  0  0  0
 33 69  1  0  0  0  0
 33 75  2  0  0  0  0
 34 48  1  0  0  0  0
 34 70  1  0  0  0  0
 34 76  2  0  0  0  0
 35 59  1  0  0  0  0
 35 66  1  0  0  0  0
 35 77  2  0  0  0  0
 36 60  1  0  0  0  0
 36 71  1  0  0  0  0
 36 78  2  0  0  0  0
 37 67  1  0  0  0  0
 37 72  1  0  0  0  0
 37 79  2  0  0  0  0
 38 41  1  0  0  0  0
 39 48  1  0  0  0  0
 40 66  1  0  0  0  0
 41 43  1  0  0  0  0
 42 44  1  0  0  0  0
 42 45  1  0  0  0  0
 43 47  1  0  0  0  0
 44 49  1  0  0  0  0
 45 67  1  0  0  0  0
 46 49  1  0  0  0  0
 46 67  1  0  0  0  0
 47 70  1  0  0  0  0
 48 66  1  0  0  0  0
 49 65  1  0  0  0  0
 51 60  1  0  0  0  0
 52 62  1  0  0  0  0
 53 62  1  0  0  0  0
 54 62  1  0  0  0  0
 55 74  1  0  0  0  0
 56 82  1  0  0  0  0
 57 61  1  0  0  0  0
 57 72  1  0  0  0  0
 58 61  1  0  0  0  0
 58 80  1  0  0  0  0
 59 62  1  0  0  0  0
 59 71  1  0  0  0  0
 60 74  1  0  0  0  0
 61 73  1  0  0  0  0
 63 65  1  0  0  0  0
M  CHG  2  73   1  74   1
M  ISO  4  37 100  56 101  72 100  82 101
M  END
> <Batch ID>
0122

> <Smiles>
CNC(C)C(=O)NC(C(=O)N1Cc2cc([101O:1][101CH2:1]c3cc(C(O)C(N)C[100NH:0][100C:0](=O)N4CCCC(n5nc(-c6ccc(Oc7ccc(F)cc7F)cc6)c(C(N)=O)c5N)C4)cc(C)n3)ccc2CC1C(=O)NC1CCCc2ccccc21)C(C)(C)C

> <Shape>
0.170

> <Color>
0.188

> <Negative vol penalty>
0.000

$$$$

  -OEChem-04052320283D

 86 94  0     1  0  0  0  0  0999 V2000
  -30.1395  -33.1677   20.2355 C   0  0  0  0  0  0  0  0  0  0  0  0
  -29.9635  -31.9503   20.8856 C   0  0  0  0  0  0  0  0  0  0  0  0
  -26.7407  -12.4323   21.7659 C   0  0  0  0  0  0  0  0  0  0  0  0
  -25.8347  -14.1401   20.3168 C   0  0  0  0  0  0  0  0  0  0  0  0
  -29.1827  -34.1729   20.3698 C   0  0  0  0  0  0  0  0  0  0  0  0
  -28.8312  -31.7380   21.6711 C   0  0  0  0  0  0  0  0  0  0  0  0
  -26.7218  -27.2072   20.8542 C   0  0  0  0  0  0  0  0  0  0  0  0
  -25.4824  -11.8365   21.8505 C   0  0  0  0  0  0  0  0  0  0  0  0
  -24.5764  -13.5443   20.4014 C   0  0  0  0  0  0  0  0  0  0  0  0
  -27.3325  -26.1039   21.4489 C   0  0  0  0  0  0  0  0  0  0  0  0
  -22.5866   -9.6605   22.1572 C   0  0  0  0  0  0  0  0  0  0  0  0
  -22.5155   -8.2737   22.0252 C   0  0  0  0  0  0  0  0  0  0  0  0
  -25.6804  -26.1444   23.2063 C   0  0  0  0  0  0  0  0  0  0  0  0
  -23.4744   -8.4352   19.8135 C   0  0  0  0  0  0  0  0  0  0  0  0
  -26.9169  -13.5842   20.9991 C   0  0  0  0  0  0  0  0  0  0  0  0
  -29.4014  -13.6197   20.4215 C   0  0  0  0  0  0  0  0  0  0  0  0
  -28.0334  -33.9693   21.1496 C   0  0  0  0  0  0  0  0  0  0  0  0
  -25.5904  -27.7950   21.4379 C   0  0  0  0  0  0  0  0  0  0  0  0
  -27.8588  -32.7419   21.8170 C   0  0  0  0  0  0  0  0  0  0  0  0
  -25.0557  -27.2534   22.6156 C   0  0  0  0  0  0  0  0  0  0  0  0
  -24.4002  -12.3925   21.1682 C   0  0  0  0  0  0  0  0  0  0  0  0
  -26.8135  -25.5742   22.6267 C   0  0  0  0  0  0  0  0  0  0  0  0
  -23.1015  -10.4346   21.1174 C   0  0  0  0  0  0  0  0  0  0  0  0
  -22.9594   -7.6611   20.8533 C   0  0  0  0  0  0  0  0  0  0  0  0
  -23.5455   -9.8220   19.9456 C   0  0  0  0  0  0  0  0  0  0  0  0
  -28.2164  -14.2004   20.9117 C   0  0  0  0  0  0  0  0  0  0  0  0
  -30.3471  -14.6073   20.5515 C   0  0  0  0  0  0  0  0  0  0  0  0
  -29.6272  -12.3051   19.8956 C   0  0  0  0  0  0  0  0  0  0  0  0
  -24.9183  -30.6606   22.6380 C   0  0  0  0  0  0  0  0  0  0  0  0
  -29.8048  -20.5197   20.7104 C   0  0  0  0  0  0  0  0  0  0  0  0
  -21.9233  -29.4345   22.8602 C   0  0  0  0  0  0  0  0  0  0  0  0
  -32.3234  -24.6151   23.3477 C   0  0  0  0  0  0  0  0  0  0  0  0
  -20.4277  -26.2958   23.8242 C   0  0  0  0  0  0  0  0  0  0  0  0
  -27.0501  -35.1026   21.3030 C   0  0  0  0  0  0  0  0  0  0  0  0
  -24.9275  -28.9681   20.7695 C   0  0  0  0  0  0  0  0  0  0  0  0
  -23.8309  -27.8352   23.2712 C   0  0  0  0  0  0  0  0  0  0  0  0
  -25.6949  -34.6631   21.8513 C   0  0  0  0  0  0  0  0  0  0  0  0
  -31.4397  -18.4312   23.1988 C   0  0  0  0  0  0  0  0  0  0  0  0
  -25.8785  -33.7409   23.0524 C   0  0  0  0  0  0  0  0  0  0  0  0
  -30.8757  -17.0523   22.8588 C   0  0  0  0  0  0  0  0  0  0  0  0
  -34.0056  -23.2602   20.8941 C   0  0  0  0  0  0  0  0  0  0  0  0
  -30.4058  -19.5315   22.9740 C   0  0  0  0  0  0  0  0  0  0  0  0
  -29.2656  -18.1668   21.2530 C   0  0  0  0  0  0  0  0  0  0  0  0
  -34.1762  -23.0299   19.4010 C   0  0  0  0  0  0  0  0  0  0  0  0
  -32.0820  -21.6609   19.3505 C   0  0  0  0  0  0  0  0  0  0  0  0
  -26.6317  -32.4647   22.6580 C   0  0  1  0  0  0  0  0  0  0  0  0
  -24.0845  -29.8039   21.7277 C   0  0  1  0  0  0  0  0  0  0  0  0
  -31.8782  -21.8708   20.8535 C   0  0  1  0  0  0  0  0  0  0  0  0
  -30.2870  -17.0320   21.4373 C   0  0  2  0  0  0  0  0  0  0  0  0
  -32.5333  -23.1902   21.3138 C   0  0  1  0  0  0  0  0  0  0  0  0
  -29.6443  -22.9760   20.4990 C   0  0  0  0  0  0  0  0  0  0  0  0
  -18.2572  -25.2425   23.1337 C   0  0  0  0  0  0  0  0  0  0  0  0
  -20.8124  -30.7653   25.3710 C   0  0  0  0  0  0  0  0  0  0  0  0
  -19.4165  -28.7222   25.7520 C   0  0  0  0  0  0  0  0  0  0  0  0
  -19.0828  -30.0927   23.6946 C   0  0  0  0  0  0  0  0  0  0  0  0
  -21.7794  -23.8173   22.9360 C   0  0  0  0  0  0  0  0  0  0  0  0
  -32.2078  -24.4931   24.8592 C   0  0  0  0  0  0  0  0  0  0  0  0
  -30.9941  -23.7014   25.3192 C   0  0  0  0  0  0  0  0  0  0  0  0
  -28.5025  -23.6212   25.1632 C   0  0  0  0  0  0  0  0  0  0  0  0
  -27.3113  -24.3922   24.6295 C   0  0  0  0  0  0  0  0  0  1  0  0
  -30.3818  -21.8331   21.1751 C   0  0  1  0  0  0  0  0  0  0  0  0
  -21.1583  -28.6651   23.9098 C   0  0  1  0  0  0  0  0  0  0  0  0
  -19.7603  -25.2874   22.9066 C   0  0  2  0  0  0  0  0  0  0  0  0
  -20.1458  -29.5593   24.6796 C   0  0  0  0  0  0  0  0  0  0  0  0
  -28.3907  -15.4593   21.3227 N   0  0  0  0  0  0  0  0  0  0  0  0
  -29.6964  -15.6777   21.0910 N   0  0  0  0  0  0  0  0  0  0  0  0
  -23.2223  -28.9855   22.5828 N   0  0  0  0  0  0  0  0  0  0  0  0
  -29.8492  -19.4609   21.6177 N   0  0  0  0  0  0  0  0  0  0  0  0
  -31.6634  -14.6558   20.2559 N   0  0  0  0  0  0  0  0  0  0  0  0
  -29.4635  -12.0991   18.5190 N   0  0  0  0  0  0  0  0  0  0  0  0
  -25.7463  -31.5461   21.9748 N   0  0  0  0  0  0  0  0  0  0  0  0
  -32.4231  -23.3705   22.7429 N   0  0  0  0  0  0  0  0  0  0  0  0
  -20.5512  -27.5303   23.2226 N   0  0  0  0  0  0  0  0  0  0  0  0
  -33.5379  -21.7343   19.0294 N   0  3  0  0  0  0  0  0  0  0  0  0
  -20.3126  -23.9241   23.1462 N   0  3  0  0  0  0  0  0  0  0  0  0
  -29.7506  -24.3486   24.8204 N   0  3  0  0  0  0  0  0  0  0  0  0
  -29.9481  -11.3381   20.6273 O   0  0  0  0  0  0  0  0  0  0  0  0
  -24.8167  -30.5291   23.8521 O   0  0  0  0  0  0  0  0  0  0  0  0
  -29.3318  -20.4385   19.5738 O   0  0  0  0  0  0  0  0  0  0  0  0
  -21.3855  -30.3939   22.3016 O   0  0  0  0  0  0  0  0  0  0  0  0
  -32.3165  -25.6919   22.7574 O   0  0  0  0  0  0  0  0  0  0  0  0
  -20.7988  -26.0173   24.9623 O   0  0  0  0  0  0  0  0  0  0  0  0
  -23.1722  -11.8112   21.2504 O   0  0  0  0  0  0  0  0  0  0  0  0
  -27.4081  -24.4978   23.2097 O   0  0  0  0  0  0  0  0  0  1  0  0
  -22.8924   -6.3292   20.7272 F   0  0  0  0  0  0  0  0  0  0  0  0
  -24.0423  -10.5603   18.9437 F   0  0  0  0  0  0  0  0  0  0  0  0
  1  2  1  0  0  0  0
  1  5  2  0  0  0  0
  2  6  2  0  0  0  0
  3  8  2  0  0  0  0
  3 15  1  0  0  0  0
  4  9  1  0  0  0  0
  4 15  2  0  0  0  0
  5 17  1  0  0  0  0
  6 19  1  0  0  0  0
  7 10  2  0  0  0  0
  7 18  1  0  0  0  0
  8 21  1  0  0  0  0
  9 21  2  0  0  0  0
 10 22  1  0  0  0  0
 11 12  2  0  0  0  0
 11 23  1  0  0  0  0
 12 24  1  0  0  0  0
 13 20  1  0  0  0  0
 13 22  2  0  0  0  0
 14 24  2  0  0  0  0
 14 25  1  0  0  0  0
 15 26  1  0  0  0  0
 16 26  1  0  0  0  0
 16 27  2  0  0  0  0
 16 28  1  0  0  0  0
 17 19  2  0  0  0  0
 17 34  1  0  0  0  0
 18 20  2  0  0  0  0
 18 35  1  0  0  0  0
 19 46  1  0  0  0  0
 20 36  1  0  0  0  0
 21 83  1  0  0  0  0
 22 84  1  0  0  0  0
 23 25  2  0  0  0  0
 23 83  1  0  0  0  0
 24 85  1  0  0  0  0
 25 86  1  0  0  0  0
 26 65  2  0  0  0  0
 27 66  1  0  0  0  0
 27 69  1  0  0  0  0
 28 70  1  0  0  0  0
 28 77  2  0  0  0  0
 29 47  1  0  0  0  0
 29 71  1  0  0  0  0
 29 78  2  0  0  0  0
 30 61  1  0  0  0  0
 30 68  1  0  0  0  0
 30 79  2  0  0  0  0
 31 62  1  0  0  0  0
 31 67  1  0  0  0  0
 31 80  2  0  0  0  0
 32 57  1  0  0  0  0
 32 72  1  0  0  0  0
 32 81  2  0  0  0  0
 33 63  1  0  0  0  0
 33 73  1  0  0  0  0
 33 82  2  0  0  0  0
 34 37  1  0  0  0  0
 35 47  1  0  0  0  0
 36 67  1  0  0  0  0
 37 39  1  0  0  0  0
 38 40  1  0  0  0  0
 38 42  1  0  0  0  0
 39 46  1  0  0  0  0
 40 49  1  0  0  0  0
 41 44  1  0  0  0  0
 41 50  1  0  0  0  0
 42 68  1  0  0  0  0
 43 49  1  0  0  0  0
 43 68  1  0  0  0  0
 44 74  1  0  0  0  0
 45 48  1  0  0  0  0
 45 74  1  0  0  0  0
 46 71  1  0  0  0  0
 47 67  1  0  0  0  0
 48 50  1  0  0  0  0
 48 61  1  0  0  0  0
 49 66  1  0  0  0  0
 50 72  1  0  0  0  0
 51 61  1  0  0  0  0
 52 63  1  0  0  0  0
 53 64  1  0  0  0  0
 54 64  1  0  0  0  0
 55 64  1  0  0  0  0
 56 75  1  0  0  0  0
 57 58  1  0  0  0  0
 58 76  1  0  0  0  0
 59 60  1  0  0  0  0
 59 76  1  0  0  0  0
 60 84  1  0  0  0  0
 62 64  1  0  0  0  0
 62 73  1  0  0  0  0
 63 75  1  0  0  0  0
 65 66  1  0  0  0  0
M  CHG  3  74   1  75   1  76   1
M  ISO  4  30 100  60 101  61 100  84 101
M  END
> <Batch ID>
0122

> <Smiles>
CNC(C)C(=O)NC(C(=O)N1Cc2cc([101O:1][101CH2:1]CNCCC(=O)NC3CCNCC3[100CH:0](C)[100C:0](=O)N3CCCC(n4nc(-c5ccc(Oc6ccc(F)cc6F)cc5)c(C(N)=O)c4N)C3)ccc2CC1C(=O)NC1CCCc2ccccc21)C(C)(C)C

> <Shape>
0.262

> <Color>
0.060

> <Negative vol penalty>
0.000

$$$$

  -OEChem-04052320283D

 89 98  0     1  0  0  0  0  0999 V2000
  -26.7598  -34.6648   23.8255 C   0  0  0  0  0  0  0  0  0  0  0  0
  -26.7595  -33.7062   22.8172 C   0  0  0  0  0  0  0  0  0  0  0  0
  -26.7141  -12.5385   21.8374 C   0  0  0  0  0  0  0  0  0  0  0  0
  -25.9871  -14.1290   20.1704 C   0  0  0  0  0  0  0  0  0  0  0  0
  -26.1354  -34.3949   25.0425 C   0  0  0  0  0  0  0  0  0  0  0  0
  -26.1356  -32.4767   23.0258 C   0  0  0  0  0  0  0  0  0  0  0  0
  -23.1526  -29.1098   18.8700 C   0  0  0  0  0  0  0  0  0  0  0  0
  -25.4342  -11.9848   21.8674 C   0  0  0  0  0  0  0  0  0  0  0  0
  -24.7072  -13.5753   20.2004 C   0  0  0  0  0  0  0  0  0  0  0  0
  -23.5345  -28.0074   18.1068 C   0  0  0  0  0  0  0  0  0  0  0  0
  -22.4532   -9.9196   22.1192 C   0  0  0  0  0  0  0  0  0  0  0  0
  -22.3478   -8.5288   22.1054 C   0  0  0  0  0  0  0  0  0  0  0  0
  -29.3775  -22.7289   22.2583 C   0  0  0  0  0  0  0  0  0  0  0  0
  -22.5415  -26.5385   19.7426 C   0  0  0  0  0  0  0  0  0  0  0  0
  -28.6966  -21.7868   20.1115 C   0  0  0  0  0  0  0  0  0  0  0  0
  -23.4905   -8.4633   19.9777 C   0  0  0  0  0  0  0  0  0  0  0  0
  -26.9906  -13.6106   20.9890 C   0  0  0  0  0  0  0  0  0  0  0  0
  -28.1897  -24.0439   20.6260 C   0  0  0  0  0  0  0  0  0  0  0  0
  -29.3841  -13.8036   20.1280 C   0  0  0  0  0  0  0  0  0  0  0  0
  -25.4952  -33.1651   25.2627 C   0  0  0  0  0  0  0  0  0  0  0  0
  -22.4707  -28.9342   20.0827 C   0  0  0  0  0  0  0  0  0  0  0  0
  -25.5032  -32.1896   24.2475 C   0  0  0  0  0  0  0  0  0  0  0  0
  -28.8048  -23.9262   21.8731 C   0  0  0  0  0  0  0  0  0  0  0  0
  -22.1498  -27.6405   20.5180 C   0  0  0  0  0  0  0  0  0  0  0  0
  -28.1193  -22.9977   19.7268 C   0  0  0  0  0  0  0  0  0  0  0  0
  -29.3202  -21.6532   21.3659 C   0  0  0  0  0  0  0  0  0  0  0  0
  -24.4308  -12.5032   21.0489 C   0  0  0  0  0  0  0  0  0  0  0  0
  -23.2315  -26.7214   18.5444 C   0  0  0  0  0  0  0  0  0  0  0  0
  -23.0772  -10.5823   21.0622 C   0  0  0  0  0  0  0  0  0  0  0  0
  -22.8665   -7.8006   21.0347 C   0  0  0  0  0  0  0  0  0  0  0  0
  -23.5959   -9.8541   19.9915 C   0  0  0  0  0  0  0  0  0  0  0  0
  -28.3124  -14.1834   20.9580 C   0  0  0  0  0  0  0  0  0  0  0  0
  -30.4090  -14.6461   20.4836 C   0  0  0  0  0  0  0  0  0  0  0  0
  -27.6773  -25.4121   20.4911 C   0  0  0  0  0  0  0  0  0  0  0  0
  -29.4476  -12.7809   19.1252 C   0  0  0  0  0  0  0  0  0  0  0  0
  -23.0829  -29.6345   23.1222 C   0  0  0  0  0  0  0  0  0  0  0  0
  -20.0464  -28.5849   23.5696 C   0  0  0  0  0  0  0  0  0  0  0  0
  -17.4495  -26.6700   22.4578 C   0  0  0  0  0  0  0  0  0  0  0  0
  -30.5510  -20.0999   22.9211 C   0  0  0  0  0  0  0  0  0  0  0  0
  -24.8746  -32.9011   26.6117 C   0  0  0  0  0  0  0  0  0  0  0  0
  -22.0422  -30.1347   20.8811 C   0  0  0  0  0  0  0  0  0  0  0  0
  -28.7246  -25.2153   22.6172 C   0  0  0  0  0  0  0  0  0  0  0  0
  -21.4015  -27.3988   21.8026 C   0  0  0  0  0  0  0  0  0  0  0  0
  -23.9122  -31.7162   26.6179 C   0  0  0  0  0  0  0  0  0  0  0  0
  -32.0756  -17.1514   24.2092 C   0  0  0  0  0  0  0  0  0  0  0  0
  -24.5303  -30.5226   25.8968 C   0  0  0  0  0  0  0  0  0  0  0  0
  -31.3854  -16.0214   23.4417 C   0  0  0  0  0  0  0  0  0  0  0  0
  -31.1102  -18.2909   24.5305 C   0  0  0  0  0  0  0  0  0  0  0  0
  -29.6869  -17.6974   22.6093 C   0  0  0  0  0  0  0  0  0  0  0  0
  -24.8157  -30.8535   24.4269 C   0  0  1  0  0  0  0  0  0  0  0  0
  -21.8045  -29.8187   22.3545 C   0  0  1  0  0  0  0  0  0  0  0  0
  -30.6346  -16.5559   22.2063 C   0  0  2  0  0  0  0  0  0  0  0  0
  -15.1110  -25.9835   23.0557 C   0  0  0  0  0  0  0  0  0  0  0  0
  -26.1883  -27.6295   21.9765 C   0  0  0  0  0  0  0  0  0  0  0  0
  -28.3832  -28.3449   20.9682 C   0  0  0  0  0  0  0  0  0  0  0  0
  -21.1482  -26.6856   25.6882 C   0  0  0  0  0  0  0  0  0  0  0  0
  -19.0004  -25.4057   25.5579 C   0  0  0  0  0  0  0  0  0  0  0  0
  -18.9878  -27.7880   26.2977 C   0  0  0  0  0  0  0  0  0  0  0  0
  -16.3439  -27.8579   19.9829 C   0  0  0  0  0  0  0  0  0  0  0  0
  -27.4586  -23.1228   18.3856 C   0  0  0  0  0  0  0  0  0  0  0  0
  -23.7779  -23.2953   17.3446 C   0  0  0  0  0  0  0  0  0  0  0  0
  -25.2883  -23.3162   17.1645 C   0  0  0  0  0  0  0  0  0  0  0  0
  -23.2608  -24.3549   18.3099 C   0  0  0  0  0  0  0  0  0  1  0  0
  -19.4098  -27.2481   23.8641 C   0  0  1  0  0  0  0  0  0  0  0  0
  -15.9721  -26.9758   22.2899 C   0  0  2  0  0  0  0  0  0  0  0  0
  -27.6986  -27.4437   21.9854 C   0  0  0  0  0  0  0  0  0  0  0  0
  -19.6523  -26.7860   25.3287 C   0  0  0  0  0  0  0  0  0  0  0  0
  -28.6272  -15.1887   21.7791 N   0  0  0  0  0  0  0  0  0  0  0  0
  -29.9084  -15.4477   21.4669 N   0  0  0  0  0  0  0  0  0  0  0  0
  -28.0083  -26.0650   21.6733 N   0  0  0  0  0  0  0  0  0  0  0  0
  -21.0097  -28.6046   22.5510 N   0  0  0  0  0  0  0  0  0  0  0  0
  -30.4387  -18.7488   23.3121 N   0  0  0  0  0  0  0  0  0  0  0  0
  -31.6805  -14.7719   20.0480 N   0  0  0  0  0  0  0  0  0  0  0  0
  -28.3037  -12.0070   18.8868 N   0  0  0  0  0  0  0  0  0  0  0  0
  -29.8977  -20.4113   21.7291 N   0  0  0  0  0  0  0  0  0  0  0  0
  -23.5948  -30.8038   23.6514 N   0  0  0  0  0  0  0  0  0  0  0  0
  -18.0020  -27.3782   23.5039 N   0  0  0  0  0  0  0  0  0  0  0  0
  -15.5910  -26.9158   20.8504 N   0  3  0  0  0  0  0  0  0  0  0  0
  -25.9717  -23.1302   18.4660 N   0  3  0  0  0  0  0  0  0  0  0  0
  -27.0863  -25.8382   19.5158 O   0  0  0  0  0  0  0  0  0  0  0  0
  -30.4929  -12.5489   18.4716 O   0  0  0  0  0  0  0  0  0  0  0  0
  -23.5681  -28.5142   23.2279 O   0  0  0  0  0  0  0  0  0  0  0  0
  -19.6965  -29.5765   24.2145 O   0  0  0  0  0  0  0  0  0  0  0  0
  -18.0522  -25.8789   21.7358 O   0  0  0  0  0  0  0  0  0  0  0  0
  -31.2031  -20.9141   23.5797 O   0  0  0  0  0  0  0  0  0  0  0  0
  -23.1818  -11.9630   21.0777 O   0  0  0  0  0  0  0  0  0  0  0  0
  -23.6037  -25.6435   17.8017 O   0  0  0  0  0  0  0  0  0  1  0  0
  -22.7665   -6.4650   21.0223 F   0  0  0  0  0  0  0  0  0  0  0  0
  -24.1975  -10.4850   18.9737 F   0  0  0  0  0  0  0  0  0  0  0  0
  1  2  1  0  0  0  0
  1  5  2  0  0  0  0
  2  6  2  0  0  0  0
  3  8  2  0  0  0  0
  3 17  1  0  0  0  0
  4  9  1  0  0  0  0
  4 17  2  0  0  0  0
  5 20  1  0  0  0  0
  6 22  1  0  0  0  0
  7 10  2  0  0  0  0
  7 21  1  0  0  0  0
  8 27  1  0  0  0  0
  9 27  2  0  0  0  0
 10 28  1  0  0  0  0
 11 12  2  0  0  0  0
 11 29  1  0  0  0  0
 12 30  1  0  0  0  0
 13 23  2  0  0  0  0
 13 26  1  0  0  0  0
 14 24  1  0  0  0  0
 14 28  2  0  0  0  0
 15 25  1  0  0  0  0
 15 26  2  0  0  0  0
 16 30  2  0  0  0  0
 16 31  1  0  0  0  0
 17 32  1  0  0  0  0
 18 23  1  0  0  0  0
 18 25  2  0  0  0  0
 18 34  1  0  0  0  0
 19 32  1  0  0  0  0
 19 33  2  0  0  0  0
 19 35  1  0  0  0  0
 20 22  2  0  0  0  0
 20 40  1  0  0  0  0
 21 24  2  0  0  0  0
 21 41  1  0  0  0  0
 22 50  1  0  0  0  0
 23 42  1  0  0  0  0
 24 43  1  0  0  0  0
 25 60  1  0  0  0  0
 26 75  1  0  0  0  0
 27 86  1  0  0  0  0
 28 87  1  0  0  0  0
 29 31  2  0  0  0  0
 29 86  1  0  0  0  0
 30 88  1  0  0  0  0
 31 89  1  0  0  0  0
 32 68  2  0  0  0  0
 33 69  1  0  0  0  0
 33 73  1  0  0  0  0
 34 70  1  0  0  0  0
 34 80  2  0  0  0  0
 35 74  1  0  0  0  0
 35 81  2  0  0  0  0
 36 51  1  0  0  0  0
 36 76  1  0  0  0  0
 36 82  2  0  0  0  0
 37 64  1  0  0  0  0
 37 71  1  0  0  0  0
 37 83  2  0  0  0  0
 38 65  1  0  0  0  0
 38 77  1  0  0  0  0
 38 84  2  0  0  0  0
 39 72  1  0  0  0  0
 39 75  1  0  0  0  0
 39 85  2  0  0  0  0
 40 44  1  0  0  0  0
 41 51  1  0  0  0  0
 42 70  1  0  0  0  0
 43 71  1  0  0  0  0
 44 46  1  0  0  0  0
 45 47  1  0  0  0  0
 45 48  1  0  0  0  0
 46 50  1  0  0  0  0
 47 52  1  0  0  0  0
 48 72  1  0  0  0  0
 49 52  1  0  0  0  0
 49 72  1  0  0  0  0
 50 76  1  0  0  0  0
 51 71  1  0  0  0  0
 52 69  1  0  0  0  0
 53 65  1  0  0  0  0
 54 66  1  0  0  0  0
 55 66  1  0  0  0  0
 56 67  1  0  0  0  0
 57 67  1  0  0  0  0
 58 67  1  0  0  0  0
 59 78  1  0  0  0  0
 60 79  1  0  0  0  0
 61 62  1  0  0  0  0
 61 63  1  0  0  0  0
 62 79  1  0  0  0  0
 63 87  1  0  0  0  0
 64 67  1  0  0  0  0
 64 77  1  0  0  0  0
 65 78  1  0  0  0  0
 66 70  1  0  0  0  0
 68 69  1  0  0  0  0
M  CHG  2  78   1  79   1
M  ISO  4  39 100  63 101  75 100  87 101
M  END
> <Batch ID>
0122

> <Smiles>
CNC(C)C(=O)NC(C(=O)N1Cc2cc([101O:1][101CH2:1]CCNCc3cc([100NH:0][100C:0](=O)N4CCCC(n5nc(-c6ccc(Oc7ccc(F)cc7F)cc6)c(C(N)=O)c5N)C4)cc4c3C(=O)N(C(C)C)C4)ccc2CC1C(=O)NC1CCCc2ccccc21)C(C)(C)C

> <Shape>
0.322

> <Color>
0.063

> <Negative vol penalty>
0.000

$$$$

  -OEChem-04052320283D

 87 95  0     1  0  0  0  0  0999 V2000
  -30.8624  -25.8158   16.3019 C   0  0  0  0  0  0  0  0  0  0  0  0
  -29.5702  -26.2767   16.5270 C   0  0  0  0  0  0  0  0  0  0  0  0
  -24.3329   -9.6851   21.8721 C   0  0  0  0  0  0  0  0  0  0  0  0
  -22.7298  -10.2176   20.1447 C   0  0  0  0  0  0  0  0  0  0  0  0
  -31.8070  -25.8741   17.3244 C   0  0  0  0  0  0  0  0  0  0  0  0
  -29.2254  -26.8068   17.7708 C   0  0  0  0  0  0  0  0  0  0  0  0
  -24.7678  -28.8496   18.1717 C   0  0  0  0  0  0  0  0  0  0  0  0
  -23.6806   -8.4743   22.1042 C   0  0  0  0  0  0  0  0  0  0  0  0
  -22.0775   -9.0067   20.3769 C   0  0  0  0  0  0  0  0  0  0  0  0
  -23.5934  -28.0985   18.1891 C   0  0  0  0  0  0  0  0  0  0  0  0
  -20.9108   -7.4077   23.7214 C   0  0  0  0  0  0  0  0  0  0  0  0
  -20.6767   -7.0423   25.0470 C   0  0  0  0  0  0  0  0  0  0  0  0
  -23.4366  -28.4100   20.5761 C   0  0  0  0  0  0  0  0  0  0  0  0
  -21.9893   -5.0393   24.7267 C   0  0  0  0  0  0  0  0  0  0  0  0
  -23.8575  -10.5568   20.8924 C   0  0  0  0  0  0  0  0  0  0  0  0
  -25.5833  -12.0475   19.7490 C   0  0  0  0  0  0  0  0  0  0  0  0
  -31.4694  -26.3938   18.5849 C   0  0  0  0  0  0  0  0  0  0  0  0
  -25.2923  -29.3782   19.3600 C   0  0  0  0  0  0  0  0  0  0  0  0
  -30.1712  -26.8962   18.8081 C   0  0  0  0  0  0  0  0  0  0  0  0
  -24.6165  -29.1696   20.5707 C   0  0  0  0  0  0  0  0  0  0  0  0
  -22.5529   -8.1350   21.3566 C   0  0  0  0  0  0  0  0  0  0  0  0
  -22.9291  -27.8762   19.3918 C   0  0  0  0  0  0  0  0  0  0  0  0
  -21.6841   -6.5889   22.8983 C   0  0  0  0  0  0  0  0  0  0  0  0
  -21.2159   -5.8581   25.5496 C   0  0  0  0  0  0  0  0  0  0  0  0
  -22.2234   -5.4048   23.4010 C   0  0  0  0  0  0  0  0  0  0  0  0
  -24.5306  -11.8080   20.6525 C   0  0  0  0  0  0  0  0  0  0  0  0
  -25.8659  -13.3834   19.8974 C   0  0  0  0  0  0  0  0  0  0  0  0
  -26.2464  -11.1432   18.8555 C   0  0  0  0  0  0  0  0  0  0  0  0
  -27.9966  -28.9923   20.9853 C   0  0  0  0  0  0  0  0  0  0  0  0
  -26.7857  -31.3860   22.8090 C   0  0  0  0  0  0  0  0  0  0  0  0
  -18.4197  -22.7389   18.4926 C   0  0  0  0  0  0  0  0  0  0  0  0
  -24.0378  -33.0885   23.9032 C   0  0  0  0  0  0  0  0  0  0  0  0
  -22.6189  -18.0553   21.7632 C   0  0  0  0  0  0  0  0  0  0  0  0
  -32.5331  -26.4403   19.6534 C   0  0  0  0  0  0  0  0  0  0  0  0
  -26.5457  -30.2087   19.3206 C   0  0  0  0  0  0  0  0  0  0  0  0
  -25.1271  -29.7324   21.8711 C   0  0  0  0  0  0  0  0  0  0  0  0
  -31.9591  -26.6035   21.0570 C   0  0  0  0  0  0  0  0  0  0  0  0
  -25.7016  -16.9093   23.1272 C   0  0  0  0  0  0  0  0  0  0  0  0
  -30.9577  -27.7485   21.0792 C   0  0  0  0  0  0  0  0  0  0  0  0
  -25.8460  -15.4936   22.5661 C   0  0  0  0  0  0  0  0  0  0  0  0
  -24.2462  -17.2443   23.4457 C   0  0  0  0  0  0  0  0  0  0  0  0
  -22.1186  -20.2276   16.1579 C   0  0  0  0  0  0  0  0  0  0  0  0
  -23.4494  -15.6249   21.7675 C   0  0  0  0  0  0  0  0  0  0  0  0
  -22.9538  -19.1104   16.7607 C   0  0  0  0  0  0  0  0  0  0  0  0
  -29.7650  -27.4487   20.1623 C   0  0  1  0  0  0  0  0  0  0  0  0
  -27.2671  -30.2659   20.6636 C   0  0  1  0  0  0  0  0  0  0  0  0
  -24.8926  -15.2610   21.3786 C   0  0  2  0  0  0  0  0  0  0  0  0
  -20.9699  -20.6049   18.2590 C   0  0  1  0  0  0  0  0  0  0  0  0
  -21.7807  -19.4848   18.9411 C   0  0  1  0  0  0  0  0  0  0  0  0
  -17.7538  -21.5461   19.1318 C   0  0  0  0  0  0  0  0  0  0  0  0
  -23.3608  -34.9711   25.4180 C   0  0  0  0  0  0  0  0  0  0  0  0
  -19.7706  -18.0479   19.4086 C   0  0  0  0  0  0  0  0  0  0  0  0
  -27.2097  -29.5838   25.2344 C   0  0  0  0  0  0  0  0  0  0  0  0
  -25.6812  -31.0851   26.5298 C   0  0  0  0  0  0  0  0  0  0  0  0
  -27.8143  -31.9829   25.5990 C   0  0  0  0  0  0  0  0  0  0  0  0
  -22.8830  -34.6334   21.6585 C   0  0  0  0  0  0  0  0  0  0  0  0
  -20.5916  -21.7151   19.2420 C   0  0  0  0  0  0  0  0  0  0  0  0
  -20.8126  -24.9871   19.0001 C   0  0  0  0  0  0  0  0  0  0  0  0
  -20.5926  -23.8510   18.0103 C   0  0  0  0  0  0  0  0  0  0  0  0
  -21.6465  -26.1240   18.4219 C   0  0  0  0  0  0  0  0  0  1  0  0
  -25.9021  -31.4568   24.0310 C   0  0  1  0  0  0  0  0  0  0  0  0
  -23.7469  -34.5751   24.0014 C   0  0  2  0  0  0  0  0  0  0  0  0
  -20.9992  -18.7217   20.0049 C   0  0  1  0  0  0  0  0  0  0  0  0
  -26.6430  -31.0148   25.3245 C   0  0  0  0  0  0  0  0  0  0  0  0
  -24.1691  -12.9039   21.3251 N   0  0  0  0  0  0  0  0  0  0  0  0
  -24.9993  -13.8448   20.8440 N   0  0  0  0  0  0  0  0  0  0  0  0
  -21.7363  -21.2209   17.1624 N   0  0  0  0  0  0  0  0  0  0  0  0
  -26.3598  -30.5323   21.7816 N   0  0  0  0  0  0  0  0  0  0  0  0
  -23.3951  -17.0038   22.2780 N   0  0  0  0  0  0  0  0  0  0  0  0
  -26.7688  -14.1965   19.3091 N   0  0  0  0  0  0  0  0  0  0  0  0
  -25.8309   -9.8049   18.8295 N   0  0  0  0  0  0  0  0  0  0  0  0
  -28.9473  -28.6363   20.0479 N   0  0  0  0  0  0  0  0  0  0  0  0
  -25.3785  -32.8177   24.0778 N   0  0  0  0  0  0  0  0  0  0  0  0
  -21.8458  -17.7439   20.6514 N   0  0  0  0  0  0  0  0  0  0  0  0
  -19.8261  -22.7749   18.5748 N   0  0  0  0  0  0  0  0  0  0  0  0
  -22.1915  -18.4930   17.8852 N   0  3  0  0  0  0  0  0  0  0  0  0
  -22.6287  -34.9456   23.0885 N   0  3  0  0  0  0  0  0  0  0  0  0
  -27.1906  -11.5074   18.1143 O   0  0  0  0  0  0  0  0  0  0  0  0
  -27.7185  -28.3788   22.0090 O   0  0  0  0  0  0  0  0  0  0  0  0
  -27.8123  -32.0686   22.7647 O   0  0  0  0  0  0  0  0  0  0  0  0
  -17.7213  -23.5972   17.9465 O   0  0  0  0  0  0  0  0  0  0  0  0
  -23.1626  -32.2508   23.6963 O   0  0  0  0  0  0  0  0  0  0  0  0
  -22.6193  -19.1891   22.2545 O   0  0  0  0  0  0  0  0  0  0  0  0
  -21.9163   -6.9534   21.5827 O   0  0  0  0  0  0  0  0  0  0  0  0
  -21.7829  -27.1429   19.4116 O   0  0  0  0  0  0  0  0  0  1  0  0
  -20.9923   -5.5081   26.8231 F   0  0  0  0  0  0  0  0  0  0  0  0
  -22.9680   -4.6147   22.6155 F   0  0  0  0  0  0  0  0  0  0  0  0
  1  2  1  0  0  0  0
  1  5  2  0  0  0  0
  2  6  2  0  0  0  0
  3  8  2  0  0  0  0
  3 15  1  0  0  0  0
  4  9  1  0  0  0  0
  4 15  2  0  0  0  0
  5 17  1  0  0  0  0
  6 19  1  0  0  0  0
  7 10  2  0  0  0  0
  7 18  1  0  0  0  0
  8 21  1  0  0  0  0
  9 21  2  0  0  0  0
 10 22  1  0  0  0  0
 11 12  2  0  0  0  0
 11 23  1  0  0  0  0
 12 24  1  0  0  0  0
 13 20  1  0  0  0  0
 13 22  2  0  0  0  0
 14 24  2  0  0  0  0
 14 25  1  0  0  0  0
 15 26  1  0  0  0  0
 16 26  1  0  0  0  0
 16 27  2  0  0  0  0
 16 28  1  0  0  0  0
 17 19  2  0  0  0  0
 17 34  1  0  0  0  0
 18 20  2  0  0  0  0
 18 35  1  0  0  0  0
 19 45  1  0  0  0  0
 20 36  1  0  0  0  0
 21 84  1  0  0  0  0
 22 85  1  0  0  0  0
 23 25  2  0  0  0  0
 23 84  1  0  0  0  0
 24 86  1  0  0  0  0
 25 87  1  0  0  0  0
 26 65  2  0  0  0  0
 27 66  1  0  0  0  0
 27 70  1  0  0  0  0
 28 71  1  0  0  0  0
 28 78  2  0  0  0  0
 29 46  1  0  0  0  0
 29 72  1  0  0  0  0
 29 79  2  0  0  0  0
 30 61  1  0  0  0  0
 30 68  1  0  0  0  0
 30 80  2  0  0  0  0
 31 50  1  0  0  0  0
 31 75  1  0  0  0  0
 31 81  2  0  0  0  0
 32 62  1  0  0  0  0
 32 73  1  0  0  0  0
 32 82  2  0  0  0  0
 33 69  1  0  0  0  0
 33 74  1  0  0  0  0
 33 83  2  0  0  0  0
 34 37  1  0  0  0  0
 35 46  1  0  0  0  0
 36 68  1  0  0  0  0
 37 39  1  0  0  0  0
 38 40  1  0  0  0  0
 38 41  1  0  0  0  0
 39 45  1  0  0  0  0
 40 47  1  0  0  0  0
 41 69  1  0  0  0  0
 42 44  1  0  0  0  0
 42 67  1  0  0  0  0
 43 47  1  0  0  0  0
 43 69  1  0  0  0  0
 44 76  1  0  0  0  0
 45 72  1  0  0  0  0
 46 68  1  0  0  0  0
 47 66  1  0  0  0  0
 48 49  1  0  0  0  0
 48 57  1  0  0  0  0
 48 67  1  0  0  0  0
 49 63  1  0  0  0  0
 49 76  1  0  0  0  0
 51 62  1  0  0  0  0
 52 63  1  0  0  0  0
 53 64  1  0  0  0  0
 54 64  1  0  0  0  0
 55 64  1  0  0  0  0
 56 77  1  0  0  0  0
 57 75  1  0  0  0  0
 58 59  1  0  0  0  0
 58 60  1  0  0  0  0
 59 75  1  0  0  0  0
 60 85  1  0  0  0  0
 61 64  1  0  0  0  0
 61 73  1  0  0  0  0
 62 77  1  0  0  0  0
 63 74  1  0  0  0  0
 65 66  1  0  0  0  0
M  CHG  2  76   1  77   1
M  ISO  4  33 100  60 101  74 100  85 101
M  END
> <Batch ID>
0122

> <Smiles>
CNC(C)C(=O)NC(C(=O)N1Cc2cc([101O:1][101CH2:1]CCN(CC3NCCNC3C(C)[100NH:0][100C:0](=O)N3CCCC(n4nc(-c5ccc(Oc6ccc(F)cc6F)cc5)c(C(N)=O)c4N)C3)C(C)=O)ccc2CC1C(=O)NC1CCCc2ccccc21)C(C)(C)C

> <Shape>
0.267

> <Color>
0.097

> <Negative vol penalty>
0.000

$$$$

  -OEChem-04052320283D

 88 96  0     1  0  0  0  0  0999 V2000
  -21.9251  -12.6032   21.9940 C   0  0  0  0  0  0  0  0  0  0  0  0
  -22.2435  -13.8414   22.5424 C   0  0  0  0  0  0  0  0  0  0  0  0
  -31.7604  -25.1975   19.4685 C   0  0  0  0  0  0  0  0  0  0  0  0
  -31.5203  -27.6015   19.4753 C   0  0  0  0  0  0  0  0  0  0  0  0
  -22.8526  -11.9370   21.1942 C   0  0  0  0  0  0  0  0  0  0  0  0
  -23.4902  -14.4137   22.2921 C   0  0  0  0  0  0  0  0  0  0  0  0
  -23.1722  -19.3334   21.1341 C   0  0  0  0  0  0  0  0  0  0  0  0
  -32.9101  -25.3145   18.6875 C   0  0  0  0  0  0  0  0  0  0  0  0
  -32.6700  -27.7186   18.6943 C   0  0  0  0  0  0  0  0  0  0  0  0
  -22.9828  -20.2249   22.1892 C   0  0  0  0  0  0  0  0  0  0  0  0
  -33.6692  -25.8483   15.4374 C   0  0  0  0  0  0  0  0  0  0  0  0
  -33.8021  -24.9874   14.3480 C   0  0  0  0  0  0  0  0  0  0  0  0
  -25.3371  -20.7496   22.1606 C   0  0  0  0  0  0  0  0  0  0  0  0
  -35.8381  -24.0993   15.2983 C   0  0  0  0  0  0  0  0  0  0  0  0
  -31.0654  -26.3410   19.8624 C   0  0  0  0  0  0  0  0  0  0  0  0
  -29.8015  -26.2094   22.0744 C   0  0  0  0  0  0  0  0  0  0  0  0
  -24.1077  -12.5058   20.9261 C   0  0  0  0  0  0  0  0  0  0  0  0
  -24.4495  -19.1349   20.5907 C   0  0  0  0  0  0  0  0  0  0  0  0
  -24.4359  -13.7539   21.4890 C   0  0  0  0  0  0  0  0  0  0  0  0
  -25.5397  -19.8569   21.0970 C   0  0  0  0  0  0  0  0  0  0  0  0
  -33.3649  -26.5750   18.3004 C   0  0  0  0  0  0  0  0  0  0  0  0
  -24.0658  -20.9310   22.7045 C   0  0  0  0  0  0  0  0  0  0  0  0
  -34.6208  -25.8348   16.4572 C   0  0  0  0  0  0  0  0  0  0  0  0
  -34.8865  -24.1129   14.2785 C   0  0  0  0  0  0  0  0  0  0  0  0
  -35.7052  -24.9603   16.3877 C   0  0  0  0  0  0  0  0  0  0  0  0
  -29.8773  -26.2208   20.6687 C   0  0  0  0  0  0  0  0  0  0  0  0
  -28.4616  -26.0757   22.3449 C   0  0  0  0  0  0  0  0  0  0  0  0
  -30.8487  -26.3108   23.0485 C   0  0  0  0  0  0  0  0  0  0  0  0
  -26.4166  -16.6513   20.3335 C   0  0  0  0  0  0  0  0  0  0  0  0
  -28.1789  -18.7266   18.5701 C   0  0  0  0  0  0  0  0  0  0  0  0
  -28.9656  -21.9660   17.8393 C   0  0  0  0  0  0  0  0  0  0  0  0
  -23.4311  -27.8520   20.3573 C   0  0  0  0  0  0  0  0  0  0  0  0
  -25.0953  -11.7264   20.0944 C   0  0  0  0  0  0  0  0  0  0  0  0
  -24.6326  -18.1895   19.4351 C   0  0  0  0  0  0  0  0  0  0  0  0
  -26.9278  -19.6950   20.5354 C   0  0  0  0  0  0  0  0  0  0  0  0
  -26.2529  -12.5728   19.5712 C   0  0  0  0  0  0  0  0  0  0  0  0
  -24.5392  -24.4507   19.8096 C   0  0  0  0  0  0  0  0  0  0  0  0
  -26.8243  -13.4432   20.6860 C   0  0  0  0  0  0  0  0  0  0  0  0
  -18.7097  -28.5085   21.4594 C   0  0  0  0  0  0  0  0  0  0  0  0
  -17.7162  -27.8162   22.3872 C   0  0  0  0  0  0  0  0  0  0  0  0
  -26.0336  -24.5645   20.1162 C   0  0  0  0  0  0  0  0  0  0  0  0
  -20.6202  -27.5855   22.8189 C   0  0  0  0  0  0  0  0  0  0  0  0
  -24.0250  -25.6967   19.0947 C   0  0  0  0  0  0  0  0  0  0  0  0
  -25.7777  -27.0893   20.1254 C   0  0  0  0  0  0  0  0  0  0  0  0
  -25.7686  -14.4187   21.2203 C   0  0  1  0  0  0  0  0  0  0  0  0
  -26.0650  -17.6827   19.2990 C   0  0  1  0  0  0  0  0  0  0  0  0
  -20.0441  -27.7595   21.4085 C   0  0  2  0  0  0  0  0  0  0  0  0
  -18.2798  -27.6359   23.8065 C   0  0  2  0  0  0  0  0  0  0  0  0
  -19.6314  -26.8821   23.7661 C   0  0  2  0  0  0  0  0  0  0  0  0
  -26.3534  -25.8700   20.8684 C   0  0  2  0  0  0  0  0  0  0  0  0
  -30.4701  -23.3469   16.3808 C   0  0  0  0  0  0  0  0  0  0  0  0
  -14.9211  -27.0196   25.7349 C   0  0  0  0  0  0  0  0  0  0  0  0
  -16.2841  -29.1023   25.4747 C   0  0  0  0  0  0  0  0  0  0  0  0
  -22.1846  -26.0004   26.5656 C   0  0  0  0  0  0  0  0  0  0  0  0
  -30.5380  -18.0774   20.3932 C   0  0  0  0  0  0  0  0  0  0  0  0
  -31.6847  -20.1256   19.5224 C   0  0  0  0  0  0  0  0  0  0  0  0
  -31.1144  -18.2610   17.9666 C   0  0  0  0  0  0  0  0  0  0  0  0
  -26.6680  -23.2526   16.4884 C   0  0  0  0  0  0  0  0  0  0  0  0
  -17.2386  -26.9288   24.6788 C   0  0  0  0  0  0  0  0  0  0  0  0
  -20.2645  -26.7464   25.1440 C   0  0  0  0  0  0  0  0  0  0  0  0
  -21.0375  -28.4892   20.5059 C   0  0  0  0  0  0  0  0  0  0  0  0
  -22.8050  -23.8248   24.4451 C   0  0  0  0  0  0  0  0  0  0  0  0
  -21.4741  -24.5677   24.5824 C   0  0  0  0  0  0  0  0  0  0  0  0
  -22.6145  -22.4475   23.8225 C   0  0  0  0  0  0  0  0  0  1  0  0
  -29.2661  -19.7299   18.8709 C   0  0  1  0  0  0  0  0  0  0  0  0
  -29.1026  -22.6951   16.5148 C   0  0  2  0  0  0  0  0  0  0  0  0
  -15.9489  -27.7407   24.8616 C   0  0  0  0  0  0  0  0  0  0  0  0
  -21.6148  -25.9988   25.1422 C   0  0  2  0  0  0  0  0  0  0  0  0
  -30.6251  -19.0503   19.2003 C   0  0  0  0  0  0  0  0  0  0  0  0
  -28.6808  -26.1034   20.0868 N   0  0  0  0  0  0  0  0  0  0  0  0
  -27.8405  -26.0170   21.1321 N   0  0  0  0  0  0  0  0  0  0  0  0
  -27.0567  -18.7543   19.4102 N   0  0  0  0  0  0  0  0  0  0  0  0
  -24.3453  -26.9025   19.8716 N   0  0  0  0  0  0  0  0  0  0  0  0
  -27.7659  -26.0036   23.4995 N   0  0  0  0  0  0  0  0  0  0  0  0
  -32.1694  -26.4432   22.5984 N   0  0  0  0  0  0  0  0  0  0  0  0
  -25.6046  -15.5333   20.3120 N   0  0  0  0  0  0  0  0  0  0  0  0
  -29.3126  -20.6361   17.7284 N   0  0  0  0  0  0  0  0  0  0  0  0
  -22.0947  -27.6051   20.0680 N   0  0  0  0  0  0  0  0  0  0  0  0
  -28.0627  -23.7561   16.3977 N   0  3  0  0  0  0  0  0  0  0  0  0
  -30.6216  -26.2682   24.2814 O   0  0  0  0  0  0  0  0  0  0  0  0
  -27.3559  -16.8540   21.0940 O   0  0  0  0  0  0  0  0  0  0  0  0
  -28.3171  -17.9517   17.6203 O   0  0  0  0  0  0  0  0  0  0  0  0
  -28.5920  -22.5216   18.8699 O   0  0  0  0  0  0  0  0  0  0  0  0
  -23.7796  -28.8445   21.0060 O   0  0  0  0  0  0  0  0  0  0  0  0
  -34.4869  -26.6896   17.5384 O   0  0  0  0  0  0  0  0  0  0  0  0
  -23.8838  -21.8013   23.7347 O   0  0  0  0  0  0  0  0  0  1  0  0
  -35.0132  -23.2851   13.2331 F   0  0  0  0  0  0  0  0  0  0  0  0
  -36.6219  -24.9419   17.3650 F   0  0  0  0  0  0  0  0  0  0  0  0
  1  2  1  0  0  0  0
  1  5  2  0  0  0  0
  2  6  2  0  0  0  0
  3  8  2  0  0  0  0
  3 15  1  0  0  0  0
  4  9  1  0  0  0  0
  4 15  2  0  0  0  0
  5 17  1  0  0  0  0
  6 19  1  0  0  0  0
  7 10  2  0  0  0  0
  7 18  1  0  0  0  0
  8 21  1  0  0  0  0
  9 21  2  0  0  0  0
 10 22  1  0  0  0  0
 11 12  2  0  0  0  0
 11 23  1  0  0  0  0
 12 24  1  0  0  0  0
 13 20  1  0  0  0  0
 13 22  2  0  0  0  0
 14 24  2  0  0  0  0
 14 25  1  0  0  0  0
 15 26  1  0  0  0  0
 16 26  1  0  0  0  0
 16 27  2  0  0  0  0
 16 28  1  0  0  0  0
 17 19  2  0  0  0  0
 17 33  1  0  0  0  0
 18 20  2  0  0  0  0
 18 34  1  0  0  0  0
 19 45  1  0  0  0  0
 20 35  1  0  0  0  0
 21 85  1  0  0  0  0
 22 86  1  0  0  0  0
 23 25  2  0  0  0  0
 23 85  1  0  0  0  0
 24 87  1  0  0  0  0
 25 88  1  0  0  0  0
 26 70  2  0  0  0  0
 27 71  1  0  0  0  0
 27 74  1  0  0  0  0
 28 75  1  0  0  0  0
 28 80  2  0  0  0  0
 29 46  1  0  0  0  0
 29 76  1  0  0  0  0
 29 81  2  0  0  0  0
 30 65  1  0  0  0  0
 30 72  1  0  0  0  0
 30 82  2  0  0  0  0
 31 66  1  0  0  0  0
 31 77  1  0  0  0  0
 31 83  2  0  0  0  0
 32 73  1  0  0  0  0
 32 78  1  0  0  0  0
 32 84  2  0  0  0  0
 33 36  1  0  0  0  0
 34 46  1  0  0  0  0
 35 72  1  0  0  0  0
 36 38  1  0  0  0  0
 37 41  1  0  0  0  0
 37 43  1  0  0  0  0
 38 45  1  0  0  0  0
 39 40  1  0  0  0  0
 39 47  1  0  0  0  0
 40 48  1  0  0  0  0
 41 50  1  0  0  0  0
 42 47  1  0  0  0  0
 42 49  1  0  0  0  0
 43 73  1  0  0  0  0
 44 50  1  0  0  0  0
 44 73  1  0  0  0  0
 45 76  1  0  0  0  0
 46 72  1  0  0  0  0
 47 61  1  0  0  0  0
 48 49  1  0  0  0  0
 48 59  1  0  0  0  0
 49 60  1  0  0  0  0
 50 71  1  0  0  0  0
 51 66  1  0  0  0  0
 52 67  1  0  0  0  0
 53 67  1  0  0  0  0
 54 68  1  0  0  0  0
 55 69  1  0  0  0  0
 56 69  1  0  0  0  0
 57 69  1  0  0  0  0
 58 79  1  0  0  0  0
 59 67  1  0  0  0  0
 60 68  1  0  0  0  0
 61 78  1  0  0  0  0
 62 63  1  0  0  0  0
 62 64  1  0  0  0  0
 63 68  1  0  0  0  0
 64 86  1  0  0  0  0
 65 69  1  0  0  0  0
 65 77  1  0  0  0  0
 66 79  1  0  0  0  0
 70 71  1  0  0  0  0
M  CHG  1  79   1
M  ISO  4  32 100  64 101  78 100  86 101
M  END
> <Batch ID>
0122

> <Smiles>
CNC(C)C(=O)NC(C(=O)N1Cc2cc([101O:1][101CH2:1]CCC(C)CC3CC(C[100NH:0][100C:0](=O)N4CCCC(n5nc(-c6ccc(Oc7ccc(F)cc7F)cc6)c(C(N)=O)c5N)C4)CCC3CC(C)C)ccc2CC1C(=O)NC1CCCc2ccccc21)C(C)(C)C

> <Shape>
0.187

> <Color>
0.074

> <Negative vol penalty>
0.000

$$$$

  -OEChem-04052320283D

 89 97  0     1  0  0  0  0  0999 V2000
  -28.9885  -24.7465   16.8550 C   0  0  0  0  0  0  0  0  0  0  0  0
  -27.7861  -25.3806   17.1467 C   0  0  0  0  0  0  0  0  0  0  0  0
  -27.5582  -22.1717   20.5685 C   0  0  0  0  0  0  0  0  0  0  0  0
  -27.4377  -12.3093   21.6241 C   0  0  0  0  0  0  0  0  0  0  0  0
  -26.6822  -14.1182   20.2120 C   0  0  0  0  0  0  0  0  0  0  0  0
  -30.0585  -24.8478   17.7417 C   0  0  0  0  0  0  0  0  0  0  0  0
  -27.6570  -26.1260   18.3191 C   0  0  0  0  0  0  0  0  0  0  0  0
  -23.5041  -28.7024   18.8835 C   0  0  0  0  0  0  0  0  0  0  0  0
  -26.3144  -22.7207   20.2569 C   0  0  0  0  0  0  0  0  0  0  0  0
  -27.8699  -21.8567   21.8912 C   0  0  0  0  0  0  0  0  0  0  0  0
  -26.4625  -11.4752   21.0773 C   0  0  0  0  0  0  0  0  0  0  0  0
  -25.7071  -13.2841   19.6651 C   0  0  0  0  0  0  0  0  0  0  0  0
  -22.2754  -28.1017   19.1543 C   0  0  0  0  0  0  0  0  0  0  0  0
  -23.9372   -8.9736   20.3103 C   0  0  0  0  0  0  0  0  0  0  0  0
  -23.1952   -8.1803   21.1854 C   0  0  0  0  0  0  0  0  0  0  0  0
  -22.4586  -28.7812   21.4617 C   0  0  0  0  0  0  0  0  0  0  0  0
  -22.3970  -10.1653   22.3079 C   0  0  0  0  0  0  0  0  0  0  0  0
  -27.5475  -13.6308   21.1914 C   0  0  0  0  0  0  0  0  0  0  0  0
  -29.8702  -14.6809   21.2926 C   0  0  0  0  0  0  0  0  0  0  0  0
  -29.9376  -25.5847   18.9314 C   0  0  0  0  0  0  0  0  0  0  0  0
  -24.2256  -29.3385   19.9039 C   0  0  0  0  0  0  0  0  0  0  0  0
  -28.7330  -26.2600   19.2151 C   0  0  0  0  0  0  0  0  0  0  0  0
  -23.6950  -29.3913   21.2007 C   0  0  0  0  0  0  0  0  0  0  0  0
  -25.3824  -22.9550   21.2679 C   0  0  0  0  0  0  0  0  0  0  0  0
  -26.9379  -22.0910   22.9021 C   0  0  0  0  0  0  0  0  0  0  0  0
  -25.6941  -22.6401   22.5905 C   0  0  0  0  0  0  0  0  0  0  0  0
  -25.5972  -11.9626   20.0979 C   0  0  0  0  0  0  0  0  0  0  0  0
  -21.7538  -28.1386   20.4442 C   0  0  0  0  0  0  0  0  0  0  0  0
  -23.9091  -10.3627   20.4340 C   0  0  0  0  0  0  0  0  0  0  0  0
  -22.4251   -8.7762   22.1842 C   0  0  0  0  0  0  0  0  0  0  0  0
  -23.1390  -10.9585   21.4328 C   0  0  0  0  0  0  0  0  0  0  0  0
  -28.5543  -14.4931   21.7563 C   0  0  0  0  0  0  0  0  0  0  0  0
  -30.4151  -15.5908   22.1653 C   0  0  0  0  0  0  0  0  0  0  0  0
  -30.5400  -14.0861   20.1731 C   0  0  0  0  0  0  0  0  0  0  0  0
  -27.0678  -28.8920   21.2552 C   0  0  0  0  0  0  0  0  0  0  0  0
  -26.3367  -31.6534   22.7922 C   0  0  0  0  0  0  0  0  0  0  0  0
  -23.9281  -33.8031   23.8989 C   0  0  0  0  0  0  0  0  0  0  0  0
  -28.0232  -19.8068   25.6803 C   0  0  0  0  0  0  0  0  0  0  0  0
  -31.1299  -25.6678   19.8516 C   0  0  0  0  0  0  0  0  0  0  0  0
  -25.5370  -30.0049   19.5897 C   0  0  0  0  0  0  0  0  0  0  0  0
  -24.4206  -30.0794   22.3270 C   0  0  0  0  0  0  0  0  0  0  0  0
  -30.7601  -26.1028   21.2659 C   0  0  0  0  0  0  0  0  0  0  0  0
  -30.0901  -17.0917   26.6966 C   0  0  0  0  0  0  0  0  0  0  0  0
  -29.8839  -27.3454   21.2151 C   0  0  0  0  0  0  0  0  0  0  0  0
  -30.0496  -16.1348   25.5038 C   0  0  0  0  0  0  0  0  0  0  0  0
  -28.7452  -17.7824   26.9119 C   0  0  0  0  0  0  0  0  0  0  0  0
  -28.1650  -17.5140   24.5317 C   0  0  0  0  0  0  0  0  0  0  0  0
  -28.5596  -27.0509   20.4991 C   0  0  1  0  0  0  0  0  0  0  0  0
  -26.4278  -30.1785   20.8159 C   0  0  1  0  0  0  0  0  0  0  0  0
  -29.5146  -16.8356   24.2406 C   0  0  2  0  0  0  0  0  0  0  0  0
  -25.2000  -23.9108   24.7106 C   0  0  0  0  0  0  0  0  0  0  0  0
  -24.2598  -21.5952   24.3807 C   0  0  0  0  0  0  0  0  0  0  0  0
  -23.6353  -35.9554   25.1556 C   0  0  0  0  0  0  0  0  0  0  0  0
  -19.1882  -25.2503   23.3776 C   0  0  0  0  0  0  0  0  0  0  0  0
  -26.8962  -30.1960   25.4138 C   0  0  0  0  0  0  0  0  0  0  0  0
  -25.6981  -32.0385   26.6130 C   0  0  0  0  0  0  0  0  0  0  0  0
  -27.7691  -32.5375   25.3151 C   0  0  0  0  0  0  0  0  0  0  0  0
  -22.6459  -35.1184   21.5783 C   0  0  0  0  0  0  0  0  0  0  0  0
  -24.0451  -23.5491   20.9041 C   0  0  0  0  0  0  0  0  0  0  0  0
  -27.2965  -21.7445   24.3104 C   0  0  0  0  0  0  0  0  0  0  0  0
  -22.9113  -22.5190   20.8152 C   0  0  0  0  0  0  0  0  0  0  0  0
  -21.5540  -23.0740   20.3943 C   0  0  0  0  0  0  0  0  0  0  0  0
  -19.8264  -24.7872   20.9593 C   0  0  0  0  0  0  0  0  0  0  0  0
  -20.3639  -27.0354   22.0275 C   0  0  0  0  0  0  0  0  0  1  0  0
  -24.6947  -22.8913   23.6746 C   0  0  0  0  0  0  0  0  0  0  0  0
  -25.6290  -32.0061   24.0782 C   0  0  1  0  0  0  0  0  0  0  0  0
  -23.7957  -35.3112   23.7873 C   0  0  2  0  0  0  0  0  0  0  0  0
  -19.3962  -25.8463   21.9808 C   0  0  2  0  0  0  0  0  0  0  0  0
  -26.4851  -31.6798   25.3345 C   0  0  0  0  0  0  0  0  0  0  0  0
  -28.2799  -15.2247   22.8395 N   0  0  0  0  0  0  0  0  0  0  0  0
  -29.4310  -15.8811   23.0638 N   0  0  0  0  0  0  0  0  0  0  0  0
  -25.7021  -30.7107   21.9710 N   0  0  0  0  0  0  0  0  0  0  0  0
  -28.2949  -18.4287   25.6768 N   0  0  0  0  0  0  0  0  0  0  0  0
  -31.6353  -16.1629   22.2441 N   0  0  0  0  0  0  0  0  0  0  0  0
  -29.8333  -13.1713   19.3806 N   0  0  0  0  0  0  0  0  0  0  0  0
  -27.8512  -28.2939   20.2867 N   0  0  0  0  0  0  0  0  0  0  0  0
  -25.2481  -33.4097   23.9629 N   0  0  0  0  0  0  0  0  0  0  0  0
  -27.6075  -20.3410   24.4668 N   0  0  0  0  0  0  0  0  0  0  0  0
  -22.6094  -35.6671   22.9584 N   0  3  0  0  0  0  0  0  0  0  0  0
  -21.1105  -24.1454   21.3283 N   0  3  0  0  0  0  0  0  0  0  0  0
  -31.7351  -14.3454   19.8938 O   0  0  0  0  0  0  0  0  0  0  0  0
  -26.8669  -28.4738   22.3894 O   0  0  0  0  0  0  0  0  0  0  0  0
  -27.4093  -32.1997   22.5227 O   0  0  0  0  0  0  0  0  0  0  0  0
  -22.9576  -33.0497   23.9301 O   0  0  0  0  0  0  0  0  0  0  0  0
  -28.1474  -20.5102   26.6887 O   0  0  0  0  0  0  0  0  0  0  0  0
  -24.6457  -11.1489   19.5639 O   0  0  0  0  0  0  0  0  0  0  0  0
  -20.5550  -27.5525   20.7113 O   0  0  0  0  0  0  0  0  0  1  0  0
  -21.7114   -8.0143   23.0235 F   0  0  0  0  0  0  0  0  0  0  0  0
  -23.1071  -12.2926   21.5558 F   0  0  0  0  0  0  0  0  0  0  0  0
  1  2  1  0  0  0  0
  1  6  2  0  0  0  0
  2  7  2  0  0  0  0
  3  9  2  0  0  0  0
  3 10  1  0  0  0  0
  4 11  2  0  0  0  0
  4 18  1  0  0  0  0
  5 12  1  0  0  0  0
  5 18  2  0  0  0  0
  6 20  1  0  0  0  0
  7 22  1  0  0  0  0
  8 13  2  0  0  0  0
  8 21  1  0  0  0  0
  9 24  1  0  0  0  0
 10 25  2  0  0  0  0
 11 27  1  0  0  0  0
 12 27  2  0  0  0  0
 13 28  1  0  0  0  0
 14 15  2  0  0  0  0
 14 29  1  0  0  0  0
 15 30  1  0  0  0  0
 16 23  1  0  0  0  0
 16 28  2  0  0  0  0
 17 30  2  0  0  0  0
 17 31  1  0  0  0  0
 18 32  1  0  0  0  0
 19 32  1  0  0  0  0
 19 33  2  0  0  0  0
 19 34  1  0  0  0  0
 20 22  2  0  0  0  0
 20 39  1  0  0  0  0
 21 23  2  0  0  0  0
 21 40  1  0  0  0  0
 22 48  1  0  0  0  0
 23 41  1  0  0  0  0
 24 26  2  0  0  0  0
 24 59  1  0  0  0  0
 25 26  1  0  0  0  0
 25 60  1  0  0  0  0
 26 65  1  0  0  0  0
 27 86  1  0  0  0  0
 28 87  1  0  0  0  0
 29 31  2  0  0  0  0
 29 86  1  0  0  0  0
 30 88  1  0  0  0  0
 31 89  1  0  0  0  0
 32 70  2  0  0  0  0
 33 71  1  0  0  0  0
 33 74  1  0  0  0  0
 34 75  1  0  0  0  0
 34 81  2  0  0  0  0
 35 49  1  0  0  0  0
 35 76  1  0  0  0  0
 35 82  2  0  0  0  0
 36 66  1  0  0  0  0
 36 72  1  0  0  0  0
 36 83  2  0  0  0  0
 37 67  1  0  0  0  0
 37 77  1  0  0  0  0
 37 84  2  0  0  0  0
 38 73  1  0  0  0  0
 38 78  1  0  0  0  0
 38 85  2  0  0  0  0
 39 42  1  0  0  0  0
 40 49  1  0  0  0  0
 41 72  1  0  0  0  0
 42 44  1  0  0  0  0
 43 45  1  0  0  0  0
 43 46  1  0  0  0  0
 44 48  1  0  0  0  0
 45 50  1  0  0  0  0
 46 73  1  0  0  0  0
 47 50  1  0  0  0  0
 47 73  1  0  0  0  0
 48 76  1  0  0  0  0
 49 72  1  0  0  0  0
 50 71  1  0  0  0  0
 51 65  1  0  0  0  0
 52 65  1  0  0  0  0
 53 67  1  0  0  0  0
 54 68  1  0  0  0  0
 55 69  1  0  0  0  0
 56 69  1  0  0  0  0
 57 69  1  0  0  0  0
 58 79  1  0  0  0  0
 59 61  1  0  0  0  0
 60 78  1  0  0  0  0
 61 62  1  0  0  0  0
 62 80  1  0  0  0  0
 63 68  1  0  0  0  0
 63 80  1  0  0  0  0
 64 68  1  0  0  0  0
 64 87  1  0  0  0  0
 66 69  1  0  0  0  0
 66 77  1  0  0  0  0
 67 79  1  0  0  0  0
 70 71  1  0  0  0  0
M  CHG  2  79   1  80   1
M  ISO  4  38 100  64 101  78 100  87 101
M  END
> <Batch ID>
0122

> <Smiles>
CNC(C)C(=O)NC(C(=O)N1Cc2cc([101O:1][101CH2:1]C(C)CNCCCc3cccc(C[100NH:0][100C:0](=O)N4CCCC(n5nc(-c6ccc(Oc7ccc(F)cc7F)cc6)c(C(N)=O)c5N)C4)c3C(C)C)ccc2CC1C(=O)NC1CCCc2ccccc21)C(C)(C)C

> <Shape>
0.318

> <Color>
0.089

> <Negative vol penalty>
0.000

$$$$

  -OEChem-04052320283D

 83 91  0     1  0  0  0  0  0999 V2000
  -17.0582  -28.9302   24.5474 C   0  0  0  0  0  0  0  0  0  0  0  0
  -17.1447  -27.9548   23.5592 C   0  0  0  0  0  0  0  0  0  0  0  0
  -26.3522  -13.1823   21.3902 C   0  0  0  0  0  0  0  0  0  0  0  0
  -26.2772  -13.6017   19.0120 C   0  0  0  0  0  0  0  0  0  0  0  0
  -17.9493  -30.0025   24.5466 C   0  0  0  0  0  0  0  0  0  0  0  0
  -18.1217  -28.0518   22.5690 C   0  0  0  0  0  0  0  0  0  0  0  0
  -22.3265  -23.9632   18.4556 C   0  0  0  0  0  0  0  0  0  0  0  0
  -29.2584  -23.0878   16.0870 C   0  0  0  0  0  0  0  0  0  0  0  0
  -29.1630  -21.1295   14.6752 C   0  0  0  0  0  0  0  0  0  0  0  0
  -29.5954  -22.2855   17.1771 C   0  0  0  0  0  0  0  0  0  0  0  0
  -29.5001  -20.3272   15.7654 C   0  0  0  0  0  0  0  0  0  0  0  0
  -25.0789  -12.6160   21.3305 C   0  0  0  0  0  0  0  0  0  0  0  0
  -25.0039  -13.0354   18.9523 C   0  0  0  0  0  0  0  0  0  0  0  0
  -22.6718  -23.7772   17.1177 C   0  0  0  0  0  0  0  0  0  0  0  0
  -21.9968  -10.7329   21.7420 C   0  0  0  0  0  0  0  0  0  0  0  0
  -21.7869   -9.5354   22.4257 C   0  0  0  0  0  0  0  0  0  0  0  0
  -24.2075  -25.6319   17.2625 C   0  0  0  0  0  0  0  0  0  0  0  0
  -23.4931   -8.4716   21.0860 C   0  0  0  0  0  0  0  0  0  0  0  0
  -26.9514  -13.6753   20.2309 C   0  0  0  0  0  0  0  0  0  0  0  0
  -29.4995  -13.5998   20.1364 C   0  0  0  0  0  0  0  0  0  0  0  0
  -18.9439  -30.1076   23.5616 C   0  0  0  0  0  0  0  0  0  0  0  0
  -22.9121  -24.9936   19.2052 C   0  0  0  0  0  0  0  0  0  0  0  0
  -19.0261  -29.1272   22.5543 C   0  0  0  0  0  0  0  0  0  0  0  0
  -23.8698  -25.8272   18.6104 C   0  0  0  0  0  0  0  0  0  0  0  0
  -29.0422  -22.5098   14.8360 C   0  0  0  0  0  0  0  0  0  0  0  0
  -29.7163  -20.9052   17.0163 C   0  0  0  0  0  0  0  0  0  0  0  0
  -24.4048  -12.5425   20.1116 C   0  0  0  0  0  0  0  0  0  0  0  0
  -23.6103  -24.6134   16.5201 C   0  0  0  0  0  0  0  0  0  0  0  0
  -22.9547  -10.7998   20.7303 C   0  0  0  0  0  0  0  0  0  0  0  0
  -22.5351   -8.4047   22.0977 C   0  0  0  0  0  0  0  0  0  0  0  0
  -23.7028   -9.6692   20.4023 C   0  0  0  0  0  0  0  0  0  0  0  0
  -28.2664  -14.2609   20.2920 C   0  0  0  0  0  0  0  0  0  0  0  0
  -30.4405  -14.5898   20.2804 C   0  0  0  0  0  0  0  0  0  0  0  0
  -29.7701  -12.2146   19.8840 C   0  0  0  0  0  0  0  0  0  0  0  0
  -21.8220  -27.5778   20.7008 C   0  0  0  0  0  0  0  0  0  0  0  0
  -24.8934  -27.8066   21.7189 C   0  0  0  0  0  0  0  0  0  0  0  0
  -28.1810  -27.0511   21.2015 C   0  0  0  0  0  0  0  0  0  0  0  0
  -30.3071  -20.5032   19.4320 C   0  0  0  0  0  0  0  0  0  0  0  0
  -19.8544  -31.3099   23.5746 C   0  0  0  0  0  0  0  0  0  0  0  0
  -22.5486  -25.1642   20.6547 C   0  0  0  0  0  0  0  0  0  0  0  0
  -24.5426  -26.9353   19.3773 C   0  0  0  0  0  0  0  0  0  0  0  0
  -21.0991  -31.1407   22.7072 C   0  0  0  0  0  0  0  0  0  0  0  0
  -31.1421  -18.8028   22.4467 C   0  0  0  0  0  0  0  0  0  0  0  0
  -20.7251  -30.5725   21.3418 C   0  0  0  0  0  0  0  0  0  0  0  0
  -30.6171  -17.3833   22.2197 C   0  0  0  0  0  0  0  0  0  0  0  0
  -30.2213  -19.8536   21.8291 C   0  0  0  0  0  0  0  0  0  0  0  0
  -29.3792  -18.2251   20.1835 C   0  0  0  0  0  0  0  0  0  0  0  0
  -20.0880  -29.1843   21.4777 C   0  0  1  0  0  0  0  0  0  0  0  0
  -22.8277  -26.5692   21.1794 C   0  0  1  0  0  0  0  0  0  0  0  0
  -30.3069  -17.1284   20.7316 C   0  0  2  0  0  0  0  0  0  0  0  0
  -29.7599  -23.3217   12.5646 C   0  0  0  0  0  0  0  0  0  0  0  0
  -30.4625  -27.4083   22.1837 C   0  0  0  0  0  0  0  0  0  0  0  0
  -24.9022  -30.6655   20.6527 C   0  0  0  0  0  0  0  0  0  0  0  0
  -27.4020  -30.6336   20.7865 C   0  0  0  0  0  0  0  0  0  0  0  0
  -26.0404  -30.3719   22.8601 C   0  0  0  0  0  0  0  0  0  0  0  0
  -28.5937  -24.1469   21.5944 C   0  0  0  0  0  0  0  0  0  0  0  0
  -24.8645  -22.9459   13.5627 C   0  0  0  0  0  0  0  0  0  0  0  0
  -27.3066  -23.0328   13.0456 C   0  0  0  0  0  0  0  0  0  0  0  0
  -23.8757  -23.1051   14.7007 C   0  0  0  0  0  0  0  0  0  1  0  0
  -28.6739  -23.3864   13.6450 C   0  0  1  0  0  0  0  0  0  0  0  0
  -26.1457  -28.4696   21.1981 C   0  0  1  0  0  0  0  0  0  0  0  0
  -29.2457  -26.4975   22.1313 C   0  0  2  0  0  0  0  0  0  0  0  0
  -26.1086  -30.0156   21.3591 C   0  0  0  0  0  0  0  0  0  0  0  0
  -28.4080  -15.5697   20.5179 N   0  0  0  0  0  0  0  0  0  0  0  0
  -29.7411  -15.7390   20.5052 N   0  0  0  0  0  0  0  0  0  0  0  0
  -24.1490  -27.0659   20.7899 N   0  0  0  0  0  0  0  0  0  0  0  0
  -29.9755  -19.5496   20.4177 N   0  0  0  0  0  0  0  0  0  0  0  0
  -31.7897  -14.5808   20.2355 N   0  0  0  0  0  0  0  0  0  0  0  0
  -28.6869  -11.3334   19.7635 N   0  0  0  0  0  0  0  0  0  0  0  0
  -30.0589  -20.0900   18.1235 N   0  0  0  0  0  0  0  0  0  0  0  0
  -21.1050  -28.1826   21.7156 N   0  0  0  0  0  0  0  0  0  0  0  0
  -27.2627  -27.8245   21.8797 N   0  0  0  0  0  0  0  0  0  0  0  0
  -29.6863  -25.1505   21.6704 N   0  3  0  0  0  0  0  0  0  0  0  0
  -26.2385  -23.1894   14.0696 N   0  3  0  0  0  0  0  0  0  0  0  0
  -30.9383  -11.7685   19.7851 O   0  0  0  0  0  0  0  0  0  0  0  0
  -21.7061  -27.7926   19.5000 O   0  0  0  0  0  0  0  0  0  0  0  0
  -24.5907  -27.9352   22.9078 O   0  0  0  0  0  0  0  0  0  0  0  0
  -28.1675  -26.8235   19.9938 O   0  0  0  0  0  0  0  0  0  0  0  0
  -30.8020  -21.5945   19.7254 O   0  0  0  0  0  0  0  0  0  0  0  0
  -23.1624  -11.9897   20.0530 O   0  0  0  0  0  0  0  0  0  0  0  0
  -23.9486  -24.4345   15.2142 O   0  0  0  0  0  0  0  0  0  1  0  0
  -22.3346   -7.2552   22.7554 F   0  0  0  0  0  0  0  0  0  0  0  0
  -24.6254   -9.7277   19.4321 F   0  0  0  0  0  0  0  0  0  0  0  0
  1  2  1  0  0  0  0
  1  5  2  0  0  0  0
  2  6  2  0  0  0  0
  3 12  2  0  0  0  0
  3 19  1  0  0  0  0
  4 13  1  0  0  0  0
  4 19  2  0  0  0  0
  5 21  1  0  0  0  0
  6 23  1  0  0  0  0
  7 14  2  0  0  0  0
  7 22  1  0  0  0  0
  8 10  2  0  0  0  0
  8 25  1  0  0  0  0
  9 11  1  0  0  0  0
  9 25  2  0  0  0  0
 10 26  1  0  0  0  0
 11 26  2  0  0  0  0
 12 27  1  0  0  0  0
 13 27  2  0  0  0  0
 14 28  1  0  0  0  0
 15 16  2  0  0  0  0
 15 29  1  0  0  0  0
 16 30  1  0  0  0  0
 17 24  1  0  0  0  0
 17 28  2  0  0  0  0
 18 30  2  0  0  0  0
 18 31  1  0  0  0  0
 19 32  1  0  0  0  0
 20 32  1  0  0  0  0
 20 33  2  0  0  0  0
 20 34  1  0  0  0  0
 21 23  2  0  0  0  0
 21 39  1  0  0  0  0
 22 24  2  0  0  0  0
 22 40  1  0  0  0  0
 23 48  1  0  0  0  0
 24 41  1  0  0  0  0
 25 60  1  0  0  0  0
 26 70  1  0  0  0  0
 27 80  1  0  0  0  0
 28 81  1  0  0  0  0
 29 31  2  0  0  0  0
 29 80  1  0  0  0  0
 30 82  1  0  0  0  0
 31 83  1  0  0  0  0
 32 64  2  0  0  0  0
 33 65  1  0  0  0  0
 33 68  1  0  0  0  0
 34 69  1  0  0  0  0
 34 75  2  0  0  0  0
 35 49  1  0  0  0  0
 35 71  1  0  0  0  0
 35 76  2  0  0  0  0
 36 61  1  0  0  0  0
 36 66  1  0  0  0  0
 36 77  2  0  0  0  0
 37 62  1  0  0  0  0
 37 72  1  0  0  0  0
 37 78  2  0  0  0  0
 38 67  1  0  0  0  0
 38 70  1  0  0  0  0
 38 79  2  0  0  0  0
 39 42  1  0  0  0  0
 40 49  1  0  0  0  0
 41 66  1  0  0  0  0
 42 44  1  0  0  0  0
 43 45  1  0  0  0  0
 43 46  1  0  0  0  0
 44 48  1  0  0  0  0
 45 50  1  0  0  0  0
 46 67  1  0  0  0  0
 47 50  1  0  0  0  0
 47 67  1  0  0  0  0
 48 71  1  0  0  0  0
 49 66  1  0  0  0  0
 50 65  1  0  0  0  0
 51 60  1  0  0  0  0
 52 62  1  0  0  0  0
 53 63  1  0  0  0  0
 54 63  1  0  0  0  0
 55 63  1  0  0  0  0
 56 73  1  0  0  0  0
 57 59  1  0  0  0  0
 57 74  1  0  0  0  0
 58 60  1  0  0  0  0
 58 74  1  0  0  0  0
 59 81  1  0  0  0  0
 61 63  1  0  0  0  0
 61 72  1  0  0  0  0
 62 73  1  0  0  0  0
 64 65  1  0  0  0  0
M  CHG  2  73   1  74   1
M  ISO  4  38 100  59 101  70 100  81 101
M  END
> <Batch ID>
0122

> <Smiles>
CNC(C)C(=O)NC(C(=O)N1Cc2cc([101O:1][101CH2:1]CNCC(C)c3ccc([100NH:0][100C:0](=O)N4CCCC(n5nc(-c6ccc(Oc7ccc(F)cc7F)cc6)c(C(N)=O)c5N)C4)cc3)ccc2CC1C(=O)NC1CCCc2ccccc21)C(C)(C)C

> <Shape>
0.264

> <Color>
0.081

> <Negative vol penalty>
0.000

$$$$

  -OEChem-04052320283D

 82 90  0     1  0  0  0  0  0999 V2000
  -28.3345  -25.0229   24.1444 C   0  0  0  0  0  0  0  0  0  0  0  0
  -27.0592  -24.6830   23.7044 C   0  0  0  0  0  0  0  0  0  0  0  0
  -29.7242  -27.9487   18.9372 C   0  0  0  0  0  0  0  0  0  0  0  0
  -29.5423  -27.2168   21.2325 C   0  0  0  0  0  0  0  0  0  0  0  0
  -29.4459  -24.3419   23.6496 C   0  0  0  0  0  0  0  0  0  0  0  0
  -26.8948  -23.6626   22.7683 C   0  0  0  0  0  0  0  0  0  0  0  0
  -23.1193  -20.5103   23.9740 C   0  0  0  0  0  0  0  0  0  0  0  0
  -18.9671  -26.8204   20.7467 C   0  0  0  0  0  0  0  0  0  0  0  0
  -31.1059  -27.7645   18.9879 C   0  0  0  0  0  0  0  0  0  0  0  0
  -30.9240  -27.0325   21.2832 C   0  0  0  0  0  0  0  0  0  0  0  0
  -21.8199  -20.9455   23.7171 C   0  0  0  0  0  0  0  0  0  0  0  0
  -34.3617  -26.0253   21.9046 C   0  0  0  0  0  0  0  0  0  0  0  0
  -34.8391  -24.8518   22.4879 C   0  0  0  0  0  0  0  0  0  0  0  0
  -19.4768  -28.0141   21.2453 C   0  0  0  0  0  0  0  0  0  0  0  0
  -21.7833  -19.6254   21.6984 C   0  0  0  0  0  0  0  0  0  0  0  0
  -33.6466  -23.5476   20.8404 C   0  0  0  0  0  0  0  0  0  0  0  0
  -18.6715  -26.0722   22.9848 C   0  0  0  0  0  0  0  0  0  0  0  0
  -28.9424  -27.6750   20.0595 C   0  0  0  0  0  0  0  0  0  0  0  0
  -26.5442  -26.9192   19.6293 C   0  0  0  0  0  0  0  0  0  0  0  0
  -29.2943  -23.3061   22.7143 C   0  0  0  0  0  0  0  0  0  0  0  0
  -23.7655  -19.6365   23.0879 C   0  0  0  0  0  0  0  0  0  0  0  0
  -28.0054  -22.9680   22.2595 C   0  0  0  0  0  0  0  0  0  0  0  0
  -23.0899  -19.1786   21.9477 C   0  0  0  0  0  0  0  0  0  0  0  0
  -18.5545  -25.8259   21.6264 C   0  0  0  0  0  0  0  0  0  0  0  0
  -31.7058  -27.3063   20.1609 C   0  0  0  0  0  0  0  0  0  0  0  0
  -21.1527  -20.5053   22.5777 C   0  0  0  0  0  0  0  0  0  0  0  0
  -33.5266  -25.9601   20.7892 C   0  0  0  0  0  0  0  0  0  0  0  0
  -34.4816  -23.6129   21.9559 C   0  0  0  0  0  0  0  0  0  0  0  0
  -33.1691  -24.7213   20.2571 C   0  0  0  0  0  0  0  0  0  0  0  0
  -27.5151  -27.8657   20.0079 C   0  0  0  0  0  0  0  0  0  0  0  0
  -19.5523  -28.1626   22.6208 C   0  0  0  0  0  0  0  0  0  0  0  0
  -25.3496  -27.5865   19.7483 C   0  0  0  0  0  0  0  0  0  0  0  0
  -26.7075  -25.5586   19.2079 C   0  0  0  0  0  0  0  0  0  0  0  0
  -26.3763  -19.7988   21.2821 C   0  0  0  0  0  0  0  0  0  0  0  0
  -25.7069  -16.6755   20.7169 C   0  0  0  0  0  0  0  0  0  0  0  0
  -23.3772  -14.1836   20.6189 C   0  0  0  0  0  0  0  0  0  0  0  0
  -21.9298  -30.9794   22.5659 C   0  0  0  0  0  0  0  0  0  0  0  0
  -30.5292  -22.6305   22.1727 C   0  0  0  0  0  0  0  0  0  0  0  0
  -25.1575  -19.1553   23.3931 C   0  0  0  0  0  0  0  0  0  0  0  0
  -23.7319  -18.2242   20.9753 C   0  0  0  0  0  0  0  0  0  0  0  0
  -30.2397  -21.3097   21.4641 C   0  0  0  0  0  0  0  0  0  0  0  0
  -24.3798  -32.4974   20.4756 C   0  0  0  0  0  0  0  0  0  0  0  0
  -29.0614  -21.4640   20.5078 C   0  0  0  0  0  0  0  0  0  0  0  0
  -25.3366  -31.3515   20.1418 C   0  0  0  0  0  0  0  0  0  0  0  0
  -23.8528  -32.3943   21.9051 C   0  0  0  0  0  0  0  0  0  0  0  0
  -24.1915  -29.9532   21.9116 C   0  0  0  0  0  0  0  0  0  0  0  0
  -27.7843  -21.8502   21.2637 C   0  0  1  0  0  0  0  0  0  0  0  0
  -25.9067  -18.6702   22.1559 C   0  0  1  0  0  0  0  0  0  0  0  0
  -24.7059  -29.9830   20.4622 C   0  0  2  0  0  0  0  0  0  0  0  0
  -23.1224  -11.7451   20.0840 C   0  0  0  0  0  0  0  0  0  0  0  0
  -25.8209  -17.3199   17.7366 C   0  0  0  0  0  0  0  0  0  0  0  0
  -24.6509  -15.1511   17.2940 C   0  0  0  0  0  0  0  0  0  0  0  0
  -26.8977  -15.1557   18.3779 C   0  0  0  0  0  0  0  0  0  0  0  0
  -22.5002  -13.5518   23.3741 C   0  0  0  0  0  0  0  0  0  0  0  0
  -18.0005  -24.5268   21.1200 C   0  0  0  0  0  0  0  0  0  0  0  0
  -20.0938  -29.4309   23.1908 C   0  0  0  0  0  0  0  0  0  0  0  0
  -18.4183  -22.0840   20.8082 C   0  0  0  0  0  0  0  0  0  0  0  0
  -19.4934  -21.0254   20.9553 C   0  0  0  0  0  0  0  0  0  1  0  0
  -24.8833  -15.9262   19.6974 C   0  0  1  0  0  0  0  0  0  0  0  0
  -23.3894  -12.7709   21.1745 C   0  0  2  0  0  0  0  0  0  0  0  0
  -25.5515  -15.9078   18.2936 C   0  0  0  0  0  0  0  0  0  0  0  0
  -19.1615  -27.2190   23.5066 N   0  0  0  0  0  0  0  0  0  0  0  0
  -26.9834  -29.0445   20.3422 N   0  0  0  0  0  0  0  0  0  0  0  0
  -25.6653  -28.8432   20.1740 N   0  0  0  0  0  0  0  0  0  0  0  0
  -25.0964  -17.7874   21.3144 N   0  0  0  0  0  0  0  0  0  0  0  0
  -23.2661  -31.0734   22.1435 N   0  0  0  0  0  0  0  0  0  0  0  0
  -24.0703  -27.2151   19.5292 N   0  0  0  0  0  0  0  0  0  0  0  0
  -28.0041  -25.0307   19.1416 N   0  0  0  0  0  0  0  0  0  0  0  0
  -27.2157  -20.6923   21.9198 N   0  0  0  0  0  0  0  0  0  0  0  0
  -24.6412  -14.6027   20.2614 N   0  0  0  0  0  0  0  0  0  0  0  0
  -21.4504  -29.6901   22.7626 N   0  0  0  0  0  0  0  0  0  0  0  0
  -22.3460  -12.6195   22.2278 N   0  3  0  0  0  0  0  0  0  0  0  0
  -18.9590  -23.3957   21.2459 N   0  3  0  0  0  0  0  0  0  0  0  0
  -25.7337  -24.8374   18.8835 O   0  0  0  0  0  0  0  0  0  0  0  0
  -26.0059  -19.8540   20.1153 O   0  0  0  0  0  0  0  0  0  0  0  0
  -26.8471  -16.2844   20.9788 O   0  0  0  0  0  0  0  0  0  0  0  0
  -22.3487  -14.8474   20.5094 O   0  0  0  0  0  0  0  0  0  0  0  0
  -21.2152  -31.9708   22.7488 O   0  0  0  0  0  0  0  0  0  0  0  0
  -33.0540  -27.1262   20.2107 O   0  0  0  0  0  0  0  0  0  0  0  0
  -19.8846  -20.9290   22.3243 O   0  0  0  0  0  0  0  0  0  1  0  0
  -34.9415  -22.4860   22.5152 F   0  0  0  0  0  0  0  0  0  0  0  0
  -32.3681  -24.6523   19.1850 F   0  0  0  0  0  0  0  0  0  0  0  0
  1  2  1  0  0  0  0
  1  5  2  0  0  0  0
  2  6  2  0  0  0  0
  3  9  2  0  0  0  0
  3 18  1  0  0  0  0
  4 10  1  0  0  0  0
  4 18  2  0  0  0  0
  5 20  1  0  0  0  0
  6 22  1  0  0  0  0
  7 11  2  0  0  0  0
  7 21  1  0  0  0  0
  8 14  2  0  0  0  0
  8 24  1  0  0  0  0
  9 25  1  0  0  0  0
 10 25  2  0  0  0  0
 11 26  1  0  0  0  0
 12 13  2  0  0  0  0
 12 27  1  0  0  0  0
 13 28  1  0  0  0  0
 14 31  1  0  0  0  0
 15 23  1  0  0  0  0
 15 26  2  0  0  0  0
 16 28  2  0  0  0  0
 16 29  1  0  0  0  0
 17 24  2  0  0  0  0
 17 62  1  0  0  0  0
 18 30  1  0  0  0  0
 19 30  1  0  0  0  0
 19 32  2  0  0  0  0
 19 33  1  0  0  0  0
 20 22  2  0  0  0  0
 20 38  1  0  0  0  0
 21 23  2  0  0  0  0
 21 39  1  0  0  0  0
 22 47  1  0  0  0  0
 23 40  1  0  0  0  0
 24 55  1  0  0  0  0
 25 79  1  0  0  0  0
 26 80  1  0  0  0  0
 27 29  2  0  0  0  0
 27 79  1  0  0  0  0
 28 81  1  0  0  0  0
 29 82  1  0  0  0  0
 30 63  2  0  0  0  0
 31 56  1  0  0  0  0
 31 62  2  0  0  0  0
 32 64  1  0  0  0  0
 32 67  1  0  0  0  0
 33 68  1  0  0  0  0
 33 74  2  0  0  0  0
 34 48  1  0  0  0  0
 34 69  1  0  0  0  0
 34 75  2  0  0  0  0
 35 59  1  0  0  0  0
 35 65  1  0  0  0  0
 35 76  2  0  0  0  0
 36 60  1  0  0  0  0
 36 70  1  0  0  0  0
 36 77  2  0  0  0  0
 37 66  1  0  0  0  0
 37 71  1  0  0  0  0
 37 78  2  0  0  0  0
 38 41  1  0  0  0  0
 39 48  1  0  0  0  0
 40 65  1  0  0  0  0
 41 43  1  0  0  0  0
 42 44  1  0  0  0  0
 42 45  1  0  0  0  0
 43 47  1  0  0  0  0
 44 49  1  0  0  0  0
 45 66  1  0  0  0  0
 46 49  1  0  0  0  0
 46 66  1  0  0  0  0
 47 69  1  0  0  0  0
 48 65  1  0  0  0  0
 49 64  1  0  0  0  0
 50 60  1  0  0  0  0
 51 61  1  0  0  0  0
 52 61  1  0  0  0  0
 53 61  1  0  0  0  0
 54 72  1  0  0  0  0
 55 73  1  0  0  0  0
 56 71  1  0  0  0  0
 57 58  1  0  0  0  0
 57 73  1  0  0  0  0
 58 80  1  0  0  0  0
 59 61  1  0  0  0  0
 59 70  1  0  0  0  0
 60 72  1  0  0  0  0
 63 64  1  0  0  0  0
M  CHG  2  72   1  73   1
M  ISO  4  37 100  58 101  71 100  80 101
M  END
> <Batch ID>
0122

> <Smiles>
CNC(C)C(=O)NC(C(=O)N1Cc2cc([101O:1][101CH2:1]CNCc3ccc(C[100NH:0][100C:0](=O)N4CCCC(n5nc(-c6ccc(Oc7ccc(F)cc7F)cc6)c(C(N)=O)c5N)C4)nc3)ccc2CC1C(=O)NC1CCCc2ccccc21)C(C)(C)C

> <Shape>
0.205

> <Color>
0.086

> <Negative vol penalty>
0.000

$$$$

  -OEChem-04052320283D

 77 85  0     1  0  0  0  0  0999 V2000
  -25.2083  -20.1917   31.7237 C   0  0  0  0  0  0  0  0  0  0  0  0
  -25.7542  -19.8145   30.5010 C   0  0  0  0  0  0  0  0  0  0  0  0
  -23.1378   -9.8649   21.3923 C   0  0  0  0  0  0  0  0  0  0  0  0
  -23.9047  -10.7011   23.5253 C   0  0  0  0  0  0  0  0  0  0  0  0
  -23.8480  -20.0053   31.9657 C   0  0  0  0  0  0  0  0  0  0  0  0
  -24.9402  -19.2495   29.5199 C   0  0  0  0  0  0  0  0  0  0  0  0
  -25.8012  -21.1946   24.9242 C   0  0  0  0  0  0  0  0  0  0  0  0
  -22.4243   -8.8586   22.0433 C   0  0  0  0  0  0  0  0  0  0  0  0
  -23.1911   -9.6949   24.1763 C   0  0  0  0  0  0  0  0  0  0  0  0
  -26.9281  -20.7394   24.2411 C   0  0  0  0  0  0  0  0  0  0  0  0
  -20.6905   -5.8511   23.1263 C   0  0  0  0  0  0  0  0  0  0  0  0
  -20.7769   -4.5569   22.6134 C   0  0  0  0  0  0  0  0  0  0  0  0
  -25.5359  -19.2549   22.9460 C   0  0  0  0  0  0  0  0  0  0  0  0
  -23.1664   -4.5750   22.9702 C   0  0  0  0  0  0  0  0  0  0  0  0
  -23.8781  -10.7861   22.1332 C   0  0  0  0  0  0  0  0  0  0  0  0
  -24.1553  -13.1120   21.1227 C   0  0  0  0  0  0  0  0  0  0  0  0
  -23.0150  -19.4467   30.9836 C   0  0  0  0  0  0  0  0  0  0  0  0
  -24.5325  -20.6746   24.6304 C   0  0  0  0  0  0  0  0  0  0  0  0
  -23.5676  -19.0542   29.7495 C   0  0  0  0  0  0  0  0  0  0  0  0
  -24.3942  -19.7070   23.6250 C   0  0  0  0  0  0  0  0  0  0  0  0
  -22.4509   -8.7736   23.4353 C   0  0  0  0  0  0  0  0  0  0  0  0
  -26.7960  -19.7673   23.2538 C   0  0  0  0  0  0  0  0  0  0  0  0
  -21.8421   -6.5074   23.5612 C   0  0  0  0  0  0  0  0  0  0  0  0
  -22.0149   -3.9189   22.5353 C   0  0  0  0  0  0  0  0  0  0  0  0
  -23.0800   -5.8693   23.4831 C   0  0  0  0  0  0  0  0  0  0  0  0
  -24.6158  -11.8255   21.4613 C   0  0  0  0  0  0  0  0  0  0  0  0
  -25.2269  -13.7086   20.5045 C   0  0  0  0  0  0  0  0  0  0  0  0
  -22.8735  -13.7139   21.3470 C   0  0  0  0  0  0  0  0  0  0  0  0
  -22.3359  -19.0609   26.2659 C   0  0  0  0  0  0  0  0  0  0  0  0
  -20.5756  -19.4958   23.5761 C   0  0  0  0  0  0  0  0  0  0  0  0
  -20.5181  -20.0765   20.2136 C   0  0  0  0  0  0  0  0  0  0  0  0
  -30.5603  -14.8660   20.0735 C   0  0  0  0  0  0  0  0  0  0  0  0
  -21.5596  -19.2212   31.3086 C   0  0  0  0  0  0  0  0  0  0  0  0
  -23.3234  -21.1955   25.3578 C   0  0  0  0  0  0  0  0  0  0  0  0
  -23.0518  -19.1313   23.2577 C   0  0  0  0  0  0  0  0  0  0  0  0
  -20.6940  -18.9609   30.0785 C   0  0  0  0  0  0  0  0  0  0  0  0
  -29.5960  -11.7729   18.8665 C   0  0  0  0  0  0  0  0  0  0  0  0
  -21.3625  -17.9419   29.1611 C   0  0  0  0  0  0  0  0  0  0  0  0
  -28.1731  -11.6033   19.3988 C   0  0  0  0  0  0  0  0  0  0  0  0
  -30.2702  -18.3678   21.2480 C   0  0  0  0  0  0  0  0  0  0  0  0
  -29.3605  -16.8313   23.0257 C   0  0  0  0  0  0  0  0  0  0  0  0
  -30.5032  -12.3947   19.9221 C   0  0  0  0  0  0  0  0  0  0  0  0
  -31.0741  -17.2024   20.6783 C   0  0  0  0  0  0  0  0  0  0  0  0
  -30.1853  -15.6970   22.4264 C   0  0  0  0  0  0  0  0  0  0  0  0
  -28.5902  -13.5525   20.9784 C   0  0  0  0  0  0  0  0  0  0  0  0
  -22.7123  -18.4609   28.6510 C   0  0  1  0  0  0  0  0  0  0  0  0
  -22.1472  -20.2242   25.3337 C   0  0  1  0  0  0  0  0  0  0  0  0
  -30.0070  -18.1955   22.7495 C   0  0  0  0  0  0  0  0  0  0  0  0
  -27.6259  -12.9333   19.9467 C   0  0  2  0  0  0  0  0  0  0  0  0
  -18.9319  -20.3424   18.2873 C   0  0  0  0  0  0  0  0  0  0  0  0
  -20.1268  -16.4781   23.5323 C   0  0  0  0  0  0  0  0  0  0  0  0
  -19.3829  -16.6934   21.1514 C   0  0  0  0  0  0  0  0  0  0  0  0
  -18.1089  -17.8412   22.9631 C   0  0  0  0  0  0  0  0  0  0  0  0
  -21.4474  -22.8350   19.6786 C   0  0  0  0  0  0  0  0  0  0  0  0
  -29.1332  -19.3285   23.2823 C   0  0  0  0  0  0  0  0  0  1  0  0
  -20.3792  -18.7280   22.2912 C   0  0  1  0  0  0  0  0  0  0  0  0
  -19.7194  -21.0574   19.3743 C   0  0  2  0  0  0  0  0  0  0  0  0
  -19.5251  -17.4444   22.4925 C   0  0  0  0  0  0  0  0  0  0  0  0
  -25.8814  -11.6163   21.0889 N   0  0  0  0  0  0  0  0  0  0  0  0
  -26.2252  -12.7793   20.5098 N   0  0  0  0  0  0  0  0  0  0  0  0
  -21.9004  -19.6683   24.0017 N   0  0  0  0  0  0  0  0  0  0  0  0
  -29.9469  -13.6527   20.4201 N   0  0  0  0  0  0  0  0  0  0  0  0
  -30.4547  -15.9173   20.9992 N   0  0  0  0  0  0  0  0  0  0  0  0
  -25.4032  -14.9322   19.9622 N   0  0  0  0  0  0  0  0  0  0  0  0
  -21.8861  -12.9606   21.9965 N   0  0  0  0  0  0  0  0  0  0  0  0
  -22.5150  -19.4224   27.5875 N   0  0  0  0  0  0  0  0  0  0  0  0
  -19.8193  -19.6739   21.3320 N   0  0  0  0  0  0  0  0  0  0  0  0
  -20.6284  -22.0435   18.7247 N   0  3  0  0  0  0  0  0  0  0  0  0
  -22.6062  -14.8793   20.9677 O   0  0  0  0  0  0  0  0  0  0  0  0
  -22.3187  -17.9199   25.8193 O   0  0  0  0  0  0  0  0  0  0  0  0
  -19.5904  -19.9327   24.1762 O   0  0  0  0  0  0  0  0  0  0  0  0
  -21.6475  -19.7020   19.9058 O   0  0  0  0  0  0  0  0  0  0  0  0
  -31.1622  -15.0058   19.0015 O   0  0  0  0  0  0  0  0  0  0  0  0
  -21.7545   -7.7919   24.0709 O   0  0  0  0  0  0  0  0  0  0  0  0
  -27.9044  -19.3167   22.5798 O   0  0  0  0  0  0  0  0  0  1  0  0
  -22.0975   -2.6755   22.0441 F   0  0  0  0  0  0  0  0  0  0  0  0
  -24.1896   -6.4942   23.9004 F   0  0  0  0  0  0  0  0  0  0  0  0
  1  2  1  0  0  0  0
  1  5  2  0  0  0  0
  2  6  2  0  0  0  0
  3  8  2  0  0  0  0
  3 15  1  0  0  0  0
  4  9  1  0  0  0  0
  4 15  2  0  0  0  0
  5 17  1  0  0  0  0
  6 19  1  0  0  0  0
  7 10  2  0  0  0  0
  7 18  1  0  0  0  0
  8 21  1  0  0  0  0
  9 21  2  0  0  0  0
 10 22  1  0  0  0  0
 11 12  2  0  0  0  0
 11 23  1  0  0  0  0
 12 24  1  0  0  0  0
 13 20  1  0  0  0  0
 13 22  2  0  0  0  0
 14 24  2  0  0  0  0
 14 25  1  0  0  0  0
 15 26  1  0  0  0  0
 16 26  1  0  0  0  0
 16 27  2  0  0  0  0
 16 28  1  0  0  0  0
 17 19  2  0  0  0  0
 17 33  1  0  0  0  0
 18 20  2  0  0  0  0
 18 34  1  0  0  0  0
 19 46  1  0  0  0  0
 20 35  1  0  0  0  0
 21 74  1  0  0  0  0
 22 75  1  0  0  0  0
 23 25  2  0  0  0  0
 23 74  1  0  0  0  0
 24 76  1  0  0  0  0
 25 77  1  0  0  0  0
 26 59  2  0  0  0  0
 27 60  1  0  0  0  0
 27 64  1  0  0  0  0
 28 65  1  0  0  0  0
 28 69  2  0  0  0  0
 29 47  1  0  0  0  0
 29 66  1  0  0  0  0
 29 70  2  0  0  0  0
 30 56  1  0  0  0  0
 30 61  1  0  0  0  0
 30 71  2  0  0  0  0
 31 57  1  0  0  0  0
 31 67  1  0  0  0  0
 31 72  2  0  0  0  0
 32 62  1  0  0  0  0
 32 63  1  0  0  0  0
 32 73  2  0  0  0  0
 33 36  1  0  0  0  0
 34 47  1  0  0  0  0
 35 61  1  0  0  0  0
 36 38  1  0  0  0  0
 37 39  1  0  0  0  0
 37 42  1  0  0  0  0
 38 46  1  0  0  0  0
 39 49  1  0  0  0  0
 40 43  1  0  0  0  0
 40 48  1  0  0  0  0
 41 44  1  0  0  0  0
 41 48  1  0  0  0  0
 42 62  1  0  0  0  0
 43 63  1  0  0  0  0
 44 63  1  0  0  0  0
 45 49  1  0  0  0  0
 45 62  1  0  0  0  0
 46 66  1  0  0  0  0
 47 61  1  0  0  0  0
 48 55  1  0  0  0  0
 49 60  1  0  0  0  0
 50 57  1  0  0  0  0
 51 58  1  0  0  0  0
 52 58  1  0  0  0  0
 53 58  1  0  0  0  0
 54 68  1  0  0  0  0
 55 75  1  0  0  0  0
 56 58  1  0  0  0  0
 56 67  1  0  0  0  0
 57 68  1  0  0  0  0
 59 60  1  0  0  0  0
M  CHG  1  68   1
M  ISO  4  32 100  55 101  63 100  75 101
M  END
> <Batch ID>
0122

> <Smiles>
CNC(C)C(=O)NC(C(=O)N1Cc2cc([101O:1][101CH2:1]C3CC[100N:0]([100C:0](=O)N4CCCC(n5nc(-c6ccc(Oc7ccc(F)cc7F)cc6)c(C(N)=O)c5N)C4)CC3)ccc2CC1C(=O)NC1CCCc2ccccc21)C(C)(C)C

> <Shape>
0.164

> <Color>
0.146

> <Negative vol penalty>
0.000

$$$$

  -OEChem-04052320283D

 84 92  0     1  0  0  0  0  0999 V2000
  -26.1428  -35.7425   21.8804 C   0  0  0  0  0  0  0  0  0  0  0  0
  -26.6800  -34.4596   21.8507 C   0  0  0  0  0  0  0  0  0  0  0  0
  -26.4451  -13.4828   20.3397 C   0  0  0  0  0  0  0  0  0  0  0  0
  -24.1935  -13.6421   21.2010 C   0  0  0  0  0  0  0  0  0  0  0  0
  -24.8719  -35.9527   22.4139 C   0  0  0  0  0  0  0  0  0  0  0  0
  -25.9470  -33.3861   22.3554 C   0  0  0  0  0  0  0  0  0  0  0  0
  -26.0835  -29.3393   19.3141 C   0  0  0  0  0  0  0  0  0  0  0  0
  -26.1707  -12.2026   19.8589 C   0  0  0  0  0  0  0  0  0  0  0  0
  -23.9190  -12.3619   20.7200 C   0  0  0  0  0  0  0  0  0  0  0  0
  -27.2372  -28.5573   19.3463 C   0  0  0  0  0  0  0  0  0  0  0  0
  -24.5278   -9.1683   21.6482 C   0  0  0  0  0  0  0  0  0  0  0  0
  -23.8538   -8.2887   22.4952 C   0  0  0  0  0  0  0  0  0  0  0  0
  -26.1187  -26.9770   20.7853 C   0  0  0  0  0  0  0  0  0  0  0  0
  -22.0610   -8.1123   20.8852 C   0  0  0  0  0  0  0  0  0  0  0  0
  -25.4565  -14.2026   21.0108 C   0  0  0  0  0  0  0  0  0  0  0  0
  -26.1340  -16.6490   20.7582 C   0  0  0  0  0  0  0  0  0  0  0  0
  -24.1190  -34.8798   22.9166 C   0  0  0  0  0  0  0  0  0  0  0  0
  -24.9403  -28.9510   20.0273 C   0  0  0  0  0  0  0  0  0  0  0  0
  -24.6654  -33.5823   22.8974 C   0  0  0  0  0  0  0  0  0  0  0  0
  -24.9509  -27.7546   20.7585 C   0  0  0  0  0  0  0  0  0  0  0  0
  -24.9076  -11.6421   20.0490 C   0  0  0  0  0  0  0  0  0  0  0  0
  -27.2559  -27.3774   20.0843 C   0  0  0  0  0  0  0  0  0  0  0  0
  -23.9685   -9.5201   20.4197 C   0  0  0  0  0  0  0  0  0  0  0  0
  -22.6204   -7.7606   22.1137 C   0  0  0  0  0  0  0  0  0  0  0  0
  -22.7351   -8.9921   20.0382 C   0  0  0  0  0  0  0  0  0  0  0  0
  -25.7397  -15.5249   21.5083 C   0  0  0  0  0  0  0  0  0  0  0  0
  -26.2756  -17.6498   21.6881 C   0  0  0  0  0  0  0  0  0  0  0  0
  -26.3527  -16.7770   19.3470 C   0  0  0  0  0  0  0  0  0  0  0  0
  -23.2472  -30.2057   22.4070 C   0  0  0  0  0  0  0  0  0  0  0  0
  -21.2713  -27.7056   21.8008 C   0  0  0  0  0  0  0  0  0  0  0  0
  -21.6222  -24.1988   21.0287 C   0  0  0  0  0  0  0  0  0  0  0  0
  -24.4367  -20.4301   26.1640 C   0  0  0  0  0  0  0  0  0  0  0  0
  -22.7690  -35.1631   23.5265 C   0  0  0  0  0  0  0  0  0  0  0  0
  -23.6950  -29.7920   19.9607 C   0  0  0  0  0  0  0  0  0  0  0  0
  -23.7432  -27.2830   21.5251 C   0  0  0  0  0  0  0  0  0  0  0  0
  -21.9049  -33.9166   23.6990 C   0  0  0  0  0  0  0  0  0  0  0  0
  -29.5462  -22.9688   18.3000 C   0  0  0  0  0  0  0  0  0  0  0  0
  -28.5575  -23.8608   17.5568 C   0  0  0  0  0  0  0  0  0  0  0  0
  -26.3207  -17.4650   26.7428 C   0  0  0  0  0  0  0  0  0  0  0  0
  -22.7184  -32.7845   24.3181 C   0  0  0  0  0  0  0  0  0  0  0  0
  -29.2754  -22.9591   19.8023 C   0  0  0  0  0  0  0  0  0  0  0  0
  -26.3645  -16.7862   25.3728 C   0  0  0  0  0  0  0  0  0  0  0  0
  -28.5443  -25.2732   18.1282 C   0  0  0  0  0  0  0  0  0  0  0  0
  -24.9820  -18.1581   26.9867 C   0  0  0  0  0  0  0  0  0  0  0  0
  -24.6194  -18.4292   24.5642 C   0  0  0  0  0  0  0  0  0  0  0  0
  -23.8910  -32.3886   23.4127 C   0  0  1  0  0  0  0  0  0  0  0  0
  -22.7556  -29.5632   21.1409 C   0  0  1  0  0  0  0  0  0  0  0  0
  -29.2645  -24.3773   20.3897 C   0  0  1  0  0  0  0  0  0  0  0  0
  -25.9703  -17.7641   24.2496 C   0  0  2  0  0  0  0  0  0  0  0  0
  -28.2719  -25.2766   19.6333 C   0  0  1  0  0  0  0  0  0  1  0  0
  -20.1077  -22.6467   19.7659 C   0  0  0  0  0  0  0  0  0  0  0  0
  -20.1597  -27.0146   24.5571 C   0  0  0  0  0  0  0  0  0  0  0  0
  -19.9769  -24.6323   23.8092 C   0  0  0  0  0  0  0  0  0  0  0  0
  -18.6644  -26.4067   22.6468 C   0  0  0  0  0  0  0  0  0  0  0  0
  -23.7806  -23.4296   19.1555 C   0  0  0  0  0  0  0  0  0  0  0  0
  -27.5967  -23.6580   22.1370 C   0  0  0  0  0  0  0  0  0  0  0  0
  -23.8971  -22.6470   25.1876 C   0  0  0  0  0  0  0  0  0  0  0  0
  -27.0563  -23.9894   23.5233 C   0  0  0  0  0  0  0  0  0  0  0  0
  -25.1658  -23.4711   25.0713 C   0  0  0  0  0  0  0  0  0  0  0  0
  -21.1649  -26.2829   22.2943 C   0  0  1  0  0  0  0  0  0  0  0  0
  -21.3438  -23.5296   19.6948 C   0  0  2  0  0  0  0  0  0  0  0  0
  -28.9462  -24.3297   21.8865 C   0  0  1  0  0  0  0  0  0  0  0  0
  -20.0165  -26.0977   23.3259 C   0  0  0  0  0  0  0  0  0  0  0  0
  -25.6374  -15.7864   22.8141 N   0  0  0  0  0  0  0  0  0  0  0  0
  -25.9697  -17.0862   22.8918 N   0  0  0  0  0  0  0  0  0  0  0  0
  -22.5518  -28.1431   21.4339 N   0  0  0  0  0  0  0  0  0  0  0  0
  -24.6678  -19.0727   25.8864 N   0  0  0  0  0  0  0  0  0  0  0  0
  -26.6308  -18.9482   21.5854 N   0  0  0  0  0  0  0  0  0  0  0  0
  -25.2727  -17.1480   18.5345 N   0  0  0  0  0  0  0  0  0  0  0  0
  -23.4262  -31.5726   22.3116 N   0  0  0  0  0  0  0  0  0  0  0  0
  -21.0407  -25.4467   21.1053 N   0  0  0  0  0  0  0  0  0  0  0  0
  -24.1517  -21.2291   25.0634 N   0  0  0  0  0  0  0  0  0  0  0  0
  -22.5020  -22.6849   19.2874 N   0  3  0  0  0  0  0  0  0  0  0  0
  -25.7723  -23.2749   23.7262 N   0  3  0  0  0  0  0  0  0  0  0  0
  -27.4688  -16.5527   18.8201 O   0  0  0  0  0  0  0  0  0  0  0  0
  -23.4478  -29.5129   23.3977 O   0  0  0  0  0  0  0  0  0  0  0  0
  -20.2544  -28.4009   21.7363 O   0  0  0  0  0  0  0  0  0  0  0  0
  -22.2859  -23.6661   21.9155 O   0  0  0  0  0  0  0  0  0  0  0  0
  -24.4862  -20.8966   27.3072 O   0  0  0  0  0  0  0  0  0  0  0  0
  -29.9706  -23.5938   22.5434 O   0  0  0  0  0  0  0  0  0  0  0  0
  -24.6393  -10.3930   19.5797 O   0  0  0  0  0  0  0  0  0  0  0  0
  -28.3809  -26.6126   20.1179 O   0  0  0  0  0  0  0  0  0  1  0  0
  -21.9739   -6.9147   22.9264 F   0  0  0  0  0  0  0  0  0  0  0  0
  -22.1933   -9.3254   18.8588 F   0  0  0  0  0  0  0  0  0  0  0  0
  1  2  1  0  0  0  0
  1  5  2  0  0  0  0
  2  6  2  0  0  0  0
  3  8  2  0  0  0  0
  3 15  1  0  0  0  0
  4  9  1  0  0  0  0
  4 15  2  0  0  0  0
  5 17  1  0  0  0  0
  6 19  1  0  0  0  0
  7 10  2  0  0  0  0
  7 18  1  0  0  0  0
  8 21  1  0  0  0  0
  9 21  2  0  0  0  0
 10 22  1  0  0  0  0
 11 12  2  0  0  0  0
 11 23  1  0  0  0  0
 12 24  1  0  0  0  0
 13 20  1  0  0  0  0
 13 22  2  0  0  0  0
 14 24  2  0  0  0  0
 14 25  1  0  0  0  0
 15 26  1  0  0  0  0
 16 26  1  0  0  0  0
 16 27  2  0  0  0  0
 16 28  1  0  0  0  0
 17 19  2  0  0  0  0
 17 33  1  0  0  0  0
 18 20  2  0  0  0  0
 18 34  1  0  0  0  0
 19 46  1  0  0  0  0
 20 35  1  0  0  0  0
 21 81  1  0  0  0  0
 22 82  1  0  0  0  0
 23 25  2  0  0  0  0
 23 81  1  0  0  0  0
 24 83  1  0  0  0  0
 25 84  1  0  0  0  0
 26 64  2  0  0  0  0
 27 65  1  0  0  0  0
 27 68  1  0  0  0  0
 28 69  1  0  0  0  0
 28 75  2  0  0  0  0
 29 47  1  0  0  0  0
 29 70  1  0  0  0  0
 29 76  2  0  0  0  0
 30 60  1  0  0  0  0
 30 66  1  0  0  0  0
 30 77  2  0  0  0  0
 31 61  1  0  0  0  0
 31 71  1  0  0  0  0
 31 78  2  0  0  0  0
 32 67  1  0  0  0  0
 32 72  1  0  0  0  0
 32 79  2  0  0  0  0
 33 36  1  0  0  0  0
 34 47  1  0  0  0  0
 35 66  1  0  0  0  0
 36 40  1  0  0  0  0
 37 38  1  0  0  0  0
 37 41  1  0  0  0  0
 38 43  1  0  0  0  0
 39 42  1  0  0  0  0
 39 44  1  0  0  0  0
 40 46  1  0  0  0  0
 41 48  1  0  0  0  0
 42 49  1  0  0  0  0
 43 50  1  0  0  0  0
 44 67  1  0  0  0  0
 45 49  1  0  0  0  0
 45 67  1  0  0  0  0
 46 70  1  0  0  0  0
 47 66  1  0  0  0  0
 48 50  1  0  0  0  0
 48 62  1  0  0  0  0
 49 65  1  0  0  0  0
 50 82  1  0  0  0  0
 51 61  1  0  0  0  0
 52 63  1  0  0  0  0
 53 63  1  0  0  0  0
 54 63  1  0  0  0  0
 55 73  1  0  0  0  0
 56 58  1  0  0  0  0
 56 62  1  0  0  0  0
 57 59  1  0  0  0  0
 57 72  1  0  0  0  0
 58 74  1  0  0  0  0
 59 74  1  0  0  0  0
 60 63  1  0  0  0  0
 60 71  1  0  0  0  0
 61 73  1  0  0  0  0
 62 80  1  0  0  0  0
 64 65  1  0  0  0  0
M  CHG  2  73   1  74   1
M  ISO  4  32 100  50 101  72 100  82 101
M  END
> <Batch ID>
0122

> <Smiles>
CNC(C)C(=O)NC(C(=O)N1Cc2cc([101O:1][101CH:1]3CCCCC3C(O)CCNCC[100NH:0][100C:0](=O)N3CCCC(n4nc(-c5ccc(Oc6ccc(F)cc6F)cc5)c(C(N)=O)c4N)C3)ccc2CC1C(=O)NC1CCCc2ccccc21)C(C)(C)C

> <Shape>
0.240

> <Color>
0.079

> <Negative vol penalty>
0.000

$$$$

  -OEChem-04052320283D

 84 93  0     1  0  0  0  0  0999 V2000
  -30.3696  -31.4771   25.8626 C   0  0  0  0  0  0  0  0  0  0  0  0
  -29.8658  -30.4525   25.0679 C   0  0  0  0  0  0  0  0  0  0  0  0
  -24.3594  -10.5284   23.5057 C   0  0  0  0  0  0  0  0  0  0  0  0
  -24.2787  -12.4687   24.9429 C   0  0  0  0  0  0  0  0  0  0  0  0
  -29.4966  -32.3667   26.4874 C   0  0  0  0  0  0  0  0  0  0  0  0
  -28.4885  -30.3161   24.8983 C   0  0  0  0  0  0  0  0  0  0  0  0
  -27.1998  -29.4637   20.0757 C   0  0  0  0  0  0  0  0  0  0  0  0
  -30.0644  -19.9470   20.0672 C   0  0  0  0  0  0  0  0  0  0  0  0
  -23.8708   -9.7377   24.5456 C   0  0  0  0  0  0  0  0  0  0  0  0
  -23.7900  -11.6780   25.9829 C   0  0  0  0  0  0  0  0  0  0  0  0
  -27.3807  -28.1704   19.5873 C   0  0  0  0  0  0  0  0  0  0  0  0
  -20.8844   -9.0969   25.9961 C   0  0  0  0  0  0  0  0  0  0  0  0
  -19.8675   -8.1898   25.6981 C   0  0  0  0  0  0  0  0  0  0  0  0
  -30.0674  -21.3323   19.9482 C   0  0  0  0  0  0  0  0  0  0  0  0
  -25.0309  -27.7278   19.9066 C   0  0  0  0  0  0  0  0  0  0  0  0
  -21.2832   -6.3676   26.4142 C   0  0  0  0  0  0  0  0  0  0  0  0
  -24.5634  -11.8939   23.7043 C   0  0  0  0  0  0  0  0  0  0  0  0
  -24.3167  -13.3993   21.6597 C   0  0  0  0  0  0  0  0  0  0  0  0
  -28.1082  -32.2471   26.3176 C   0  0  0  0  0  0  0  0  0  0  0  0
  -25.9331  -29.8959   20.4940 C   0  0  0  0  0  0  0  0  0  0  0  0
  -27.5960  -31.2041   25.5224 C   0  0  0  0  0  0  0  0  0  0  0  0
  -24.8362  -29.0279   20.3974 C   0  0  0  0  0  0  0  0  0  0  0  0
  -28.8685  -19.2473   19.9503 C   0  0  0  0  0  0  0  0  0  0  0  0
  -23.5860  -10.3124   25.7843 C   0  0  0  0  0  0  0  0  0  0  0  0
  -26.2967  -27.3013   19.5054 C   0  0  0  0  0  0  0  0  0  0  0  0
  -22.1007   -8.6393   26.5031 C   0  0  0  0  0  0  0  0  0  0  0  0
  -20.0669   -6.8252   25.9072 C   0  0  0  0  0  0  0  0  0  0  0  0
  -22.3001   -7.2747   26.7122 C   0  0  0  0  0  0  0  0  0  0  0  0
  -25.0687  -12.7111   22.6306 C   0  0  0  0  0  0  0  0  0  0  0  0
  -27.7122  -19.9740   19.7163 C   0  0  0  0  0  0  0  0  0  0  0  0
  -28.8575  -21.9656   19.7141 C   0  0  0  0  0  0  0  0  0  0  0  0
  -25.2566  -14.0210   20.8745 C   0  0  0  0  0  0  0  0  0  0  0  0
  -22.8956  -13.4702   21.4833 C   0  0  0  0  0  0  0  0  0  0  0  0
  -24.7000  -30.8932   23.2488 C   0  0  0  0  0  0  0  0  0  0  0  0
  -22.0889  -31.4856   21.4175 C   0  0  0  0  0  0  0  0  0  0  0  0
  -20.3159  -30.7849   18.5869 C   0  0  0  0  0  0  0  0  0  0  0  0
  -29.9317  -16.9907   20.3019 C   0  0  0  0  0  0  0  0  0  0  0  0
  -27.2021  -33.2038   27.0512 C   0  0  0  0  0  0  0  0  0  0  0  0
  -25.7495  -31.3028   20.9934 C   0  0  0  0  0  0  0  0  0  0  0  0
  -23.4518  -29.4499   20.8146 C   0  0  0  0  0  0  0  0  0  0  0  0
  -25.7717  -33.2179   26.5182 C   0  0  0  0  0  0  0  0  0  0  0  0
  -24.2519  -19.1296   20.2312 C   0  0  0  0  0  0  0  0  0  0  0  0
  -30.2851  -13.4697   20.6952 C   0  0  0  0  0  0  0  0  0  0  0  0
  -25.2603  -31.7940   26.3239 C   0  0  0  0  0  0  0  0  0  0  0  0
  -25.6048  -18.6726   20.8093 C   0  0  0  0  0  0  0  0  0  0  0  0
  -25.0272  -20.2478   19.5083 C   0  0  0  0  0  0  0  0  0  0  0  0
  -28.8976  -13.0151   21.1539 C   0  0  0  0  0  0  0  0  0  0  0  0
  -30.6605  -14.8280   21.2849 C   0  0  0  0  0  0  0  0  0  0  0  0
  -28.2861  -15.4388   21.5263 C   0  0  0  0  0  0  0  0  0  0  0  0
  -26.1091  -31.0386   25.2942 C   0  0  1  0  0  0  0  0  0  0  0  0
  -26.2782  -19.3196   19.5613 C   0  0  0  0  0  0  0  0  0  0  0  0
  -24.5141  -31.4682   21.8730 C   0  0  1  0  0  0  0  0  0  0  0  0
  -27.8369  -14.1055   20.9064 C   0  0  2  0  0  0  0  0  0  0  0  0
  -18.2025  -31.4022   17.3828 C   0  0  0  0  0  0  0  0  0  0  0  0
  -20.4758  -29.8177   23.3988 C   0  0  0  0  0  0  0  0  0  0  0  0
  -18.6533  -29.6752   21.6882 C   0  0  0  0  0  0  0  0  0  0  0  0
  -19.3288  -31.8940   22.6064 C   0  0  0  0  0  0  0  0  0  0  0  0
  -21.8092  -31.7636   16.2266 C   0  0  0  0  0  0  0  0  0  0  0  0
  -27.7451  -25.4332   19.2442 C   0  0  0  0  0  0  0  0  0  1  0  0
  -27.5680  -23.9311   19.3535 C   0  0  0  0  0  0  0  0  0  0  0  0
  -20.8720  -30.6943   21.0029 C   0  0  1  0  0  0  0  0  0  0  0  0
  -19.6874  -31.6894   17.5422 C   0  0  2  0  0  0  0  0  0  0  0  0
  -19.8588  -30.5114   22.1679 C   0  0  0  0  0  0  0  0  0  0  0  0
  -26.3849  -12.8795   22.4781 N   0  0  0  0  0  0  0  0  0  0  0  0
  -27.6758  -21.3199   19.5948 N   0  0  0  0  0  0  0  0  0  0  0  0
  -26.4673  -13.6805   21.4021 N   0  0  0  0  0  0  0  0  0  0  0  0
  -23.3246  -30.8332   21.3021 N   0  0  0  0  0  0  0  0  0  0  0  0
  -29.6115  -15.8116   21.0076 N   0  0  0  0  0  0  0  0  0  0  0  0
  -25.1573  -14.8203   19.7911 N   0  0  0  0  0  0  0  0  0  0  0  0
  -22.0754  -12.7713   22.3795 N   0  0  0  0  0  0  0  0  0  0  0  0
  -28.8470  -17.8355   20.0686 N   0  0  0  0  0  0  0  0  0  0  0  0
  -25.7544  -31.4447   23.9512 N   0  0  0  0  0  0  0  0  0  0  0  0
  -20.3225  -31.3728   19.8341 N   0  0  0  0  0  0  0  0  0  0  0  0
  -20.3486  -31.4925   16.2212 N   0  3  0  0  0  0  0  0  0  0  0  0
  -22.3692  -14.1204   20.5486 O   0  0  0  0  0  0  0  0  0  0  0  0
  -23.9419  -30.0154   23.6442 O   0  0  0  0  0  0  0  0  0  0  0  0
  -21.9490  -32.6426   21.8219 O   0  0  0  0  0  0  0  0  0  0  0  0
  -20.7536  -29.6670   18.3236 O   0  0  0  0  0  0  0  0  0  0  0  0
  -31.0780  -17.2202   19.9079 O   0  0  0  0  0  0  0  0  0  0  0  0
  -23.1089   -9.5412   26.7992 O   0  0  0  0  0  0  0  0  0  0  0  0
  -26.4706  -26.0382   19.0298 O   0  0  0  0  0  0  0  0  0  1  0  0
  -28.8348  -23.3302   19.5932 O   0  0  0  0  0  0  0  0  0  0  0  0
  -19.0898   -5.9543   25.6224 F   0  0  0  0  0  0  0  0  0  0  0  0
  -23.4660   -6.8293   27.2001 F   0  0  0  0  0  0  0  0  0  0  0  0
  1  2  1  0  0  0  0
  1  5  2  0  0  0  0
  2  6  2  0  0  0  0
  3  9  2  0  0  0  0
  3 17  1  0  0  0  0
  4 10  1  0  0  0  0
  4 17  2  0  0  0  0
  5 19  1  0  0  0  0
  6 21  1  0  0  0  0
  7 11  2  0  0  0  0
  7 20  1  0  0  0  0
  8 14  2  0  0  0  0
  8 23  1  0  0  0  0
  9 24  1  0  0  0  0
 10 24  2  0  0  0  0
 11 25  1  0  0  0  0
 12 13  2  0  0  0  0
 12 26  1  0  0  0  0
 13 27  1  0  0  0  0
 14 31  1  0  0  0  0
 15 22  1  0  0  0  0
 15 25  2  0  0  0  0
 16 27  2  0  0  0  0
 16 28  1  0  0  0  0
 17 29  1  0  0  0  0
 18 29  1  0  0  0  0
 18 32  2  0  0  0  0
 18 33  1  0  0  0  0
 19 21  2  0  0  0  0
 19 38  1  0  0  0  0
 20 22  2  0  0  0  0
 20 39  1  0  0  0  0
 21 50  1  0  0  0  0
 22 40  1  0  0  0  0
 23 30  2  0  0  0  0
 23 71  1  0  0  0  0
 24 80  1  0  0  0  0
 25 81  1  0  0  0  0
 26 28  2  0  0  0  0
 26 80  1  0  0  0  0
 27 83  1  0  0  0  0
 28 84  1  0  0  0  0
 29 64  2  0  0  0  0
 30 51  1  0  0  0  0
 30 65  1  0  0  0  0
 31 65  2  0  0  0  0
 31 82  1  0  0  0  0
 32 66  1  0  0  0  0
 32 69  1  0  0  0  0
 33 70  1  0  0  0  0
 33 75  2  0  0  0  0
 34 52  1  0  0  0  0
 34 72  1  0  0  0  0
 34 76  2  0  0  0  0
 35 61  1  0  0  0  0
 35 67  1  0  0  0  0
 35 77  2  0  0  0  0
 36 62  1  0  0  0  0
 36 73  1  0  0  0  0
 36 78  2  0  0  0  0
 37 68  1  0  0  0  0
 37 71  1  0  0  0  0
 37 79  2  0  0  0  0
 38 41  1  0  0  0  0
 39 52  1  0  0  0  0
 40 67  1  0  0  0  0
 41 44  1  0  0  0  0
 42 45  1  0  0  0  0
 42 46  1  0  0  0  0
 43 47  1  0  0  0  0
 43 48  1  0  0  0  0
 44 50  1  0  0  0  0
 45 51  1  0  0  0  0
 46 51  1  0  0  0  0
 47 53  1  0  0  0  0
 48 68  1  0  0  0  0
 49 53  1  0  0  0  0
 49 68  1  0  0  0  0
 50 72  1  0  0  0  0
 52 67  1  0  0  0  0
 53 66  1  0  0  0  0
 54 62  1  0  0  0  0
 55 63  1  0  0  0  0
 56 63  1  0  0  0  0
 57 63  1  0  0  0  0
 58 74  1  0  0  0  0
 59 60  1  0  0  0  0
 59 81  1  0  0  0  0
 60 82  1  0  0  0  0
 61 63  1  0  0  0  0
 61 73  1  0  0  0  0
 62 74  1  0  0  0  0
 64 66  1  0  0  0  0
M  CHG  1  74   1
M  ISO  4  37 100  59 101  71 100  81 101
M  END
> <Batch ID>
0122

> <Smiles>
CNC(C)C(=O)NC(C(=O)N1Cc2cc([101O:1][101CH2:1]COc3ccc([100NH:0][100C:0](=O)N4CCCC(n5nc(-c6ccc(Oc7ccc(F)cc7F)cc6)c(C(N)=O)c5N)C4)c(C4CCC4)n3)ccc2CC1C(=O)NC1CCCc2ccccc21)C(C)(C)C

> <Shape>
0.275

> <Color>
0.117

> <Negative vol penalty>
0.000

$$$$

  -OEChem-04052320283D

 88 97  0     1  0  0  0  0  0999 V2000
  -14.7762  -29.0135   18.4679 C   0  0  0  0  0  0  0  0  0  0  0  0
  -15.4249  -27.8131   18.1967 C   0  0  0  0  0  0  0  0  0  0  0  0
  -23.0724   -9.8704   19.9438 C   0  0  0  0  0  0  0  0  0  0  0  0
  -23.8343   -9.8788   22.2366 C   0  0  0  0  0  0  0  0  0  0  0  0
  -15.5166  -30.1394   18.8256 C   0  0  0  0  0  0  0  0  0  0  0  0
  -16.8147  -27.7382   18.2819 C   0  0  0  0  0  0  0  0  0  0  0  0
  -22.0651  -23.1768   19.9974 C   0  0  0  0  0  0  0  0  0  0  0  0
  -22.3288   -8.7174   20.1952 C   0  0  0  0  0  0  0  0  0  0  0  0
  -23.0906   -8.7258   22.4879 C   0  0  0  0  0  0  0  0  0  0  0  0
  -23.2517  -22.6572   19.4818 C   0  0  0  0  0  0  0  0  0  0  0  0
  -19.3818   -7.9216   21.6495 C   0  0  0  0  0  0  0  0  0  0  0  0
  -18.0745   -7.8750   21.1654 C   0  0  0  0  0  0  0  0  0  0  0  0
  -24.4215  -24.6459   20.1862 C   0  0  0  0  0  0  0  0  0  0  0  0
  -18.6331   -5.9312   19.8439 C   0  0  0  0  0  0  0  0  0  0  0  0
  -23.8252  -10.4511   20.9645 C   0  0  0  0  0  0  0  0  0  0  0  0
  -24.1669  -12.9762   20.8427 C   0  0  0  0  0  0  0  0  0  0  0  0
  -16.9155  -30.0758   18.9247 C   0  0  0  0  0  0  0  0  0  0  0  0
  -22.0456  -24.4416   20.6026 C   0  0  0  0  0  0  0  0  0  0  0  0
  -17.5747  -28.8647   18.6399 C   0  0  0  0  0  0  0  0  0  0  0  0
  -23.2339  -25.1781   20.7110 C   0  0  0  0  0  0  0  0  0  0  0  0
  -22.3379   -8.1451   21.4672 C   0  0  0  0  0  0  0  0  0  0  0  0
  -24.4296  -23.3930   19.5736 C   0  0  0  0  0  0  0  0  0  0  0  0
  -20.3149   -6.9730   21.2307 C   0  0  0  0  0  0  0  0  0  0  0  0
  -17.7002   -6.8798   20.2626 C   0  0  0  0  0  0  0  0  0  0  0  0
  -19.9405   -5.9778   20.3280 C   0  0  0  0  0  0  0  0  0  0  0  0
  -24.5940  -11.6418   20.7054 C   0  0  0  0  0  0  0  0  0  0  0  0
  -25.2587  -13.7255   20.4780 C   0  0  0  0  0  0  0  0  0  0  0  0
  -22.8967  -13.4922   21.2624 C   0  0  0  0  0  0  0  0  0  0  0  0
  -20.5796  -27.1960   19.9961 C   0  0  0  0  0  0  0  0  0  0  0  0
  -27.4497  -18.9103   18.0144 C   0  0  0  0  0  0  0  0  0  0  0  0
  -21.9033  -28.0752   22.8240 C   0  0  0  0  0  0  0  0  0  0  0  0
  -24.3627  -27.6038   25.1426 C   0  0  0  0  0  0  0  0  0  0  0  0
  -30.7426  -14.7448   20.6609 C   0  0  0  0  0  0  0  0  0  0  0  0
  -17.6767  -31.3315   19.2688 C   0  0  0  0  0  0  0  0  0  0  0  0
  -20.7628  -24.9765   21.1777 C   0  0  0  0  0  0  0  0  0  0  0  0
  -23.2703  -26.5322   21.3694 C   0  0  0  0  0  0  0  0  0  0  0  0
  -19.1173  -31.0712   19.7013 C   0  0  0  0  0  0  0  0  0  0  0  0
  -25.7028  -15.5429   15.8412 C   0  0  0  0  0  0  0  0  0  0  0  0
  -29.6030  -12.3588   18.2766 C   0  0  0  0  0  0  0  0  0  0  0  0
  -19.7936  -30.0940   18.7448 C   0  0  0  0  0  0  0  0  0  0  0  0
  -28.1659  -12.0653   18.7110 C   0  0  0  0  0  0  0  0  0  0  0  0
  -26.9329  -16.3460   16.3079 C   0  0  0  0  0  0  0  0  0  0  0  0
  -24.8211  -16.5720   16.5753 C   0  0  0  0  0  0  0  0  0  0  0  0
  -27.8388  -21.6732   20.4660 C   0  0  0  0  0  0  0  0  0  0  0  0
  -30.5211  -12.5804   19.4766 C   0  0  0  0  0  0  0  0  0  0  0  0
  -28.6206  -13.3123   20.8644 C   0  0  0  0  0  0  0  0  0  0  0  0
  -29.1374  -20.8996   20.5906 C   0  0  0  0  0  0  0  0  0  0  0  0
  -19.0789  -28.7373   18.7458 C   0  0  1  0  0  0  0  0  0  0  0  0
  -20.7567  -26.4959   21.3138 C   0  0  1  0  0  0  0  0  0  0  0  0
  -27.4641  -19.6238   19.3253 C   0  0  2  0  0  0  0  0  0  0  0  0
  -27.2108  -21.1220   19.1935 C   0  0  1  0  0  0  0  0  0  0  0  0
  -27.6454  -13.1369   19.6877 C   0  0  2  0  0  0  0  0  0  0  0  0
  -26.0003  -17.5780   16.4706 C   0  0  0  0  0  0  0  0  0  0  0  0
  -25.9548  -18.5389   15.2934 C   0  0  0  0  0  0  0  0  0  0  0  0
  -25.2059  -28.4996   27.3298 C   0  0  0  0  0  0  0  0  0  0  0  0
  -23.0872  -30.4866   21.3772 C   0  0  0  0  0  0  0  0  0  0  0  0
  -24.6449  -30.7953   23.3128 C   0  0  0  0  0  0  0  0  0  0  0  0
  -22.1809  -30.9786   23.6556 C   0  0  0  0  0  0  0  0  0  0  0  0
  -23.9472  -25.0065   26.4992 C   0  0  0  0  0  0  0  0  0  0  0  0
  -25.7343  -21.4689   19.0723 C   0  0  0  0  0  0  0  0  0  1  0  0
  -30.5270  -18.0464   20.9360 C   0  0  0  0  0  0  0  0  0  0  0  0
  -30.8094  -16.8961   21.8964 C   0  0  0  0  0  0  0  0  0  0  0  0
  -29.0444  -18.3897   20.8666 C   0  0  0  0  0  0  0  0  0  0  0  0
  -23.2092  -28.7061   23.2429 C   0  0  1  0  0  0  0  0  0  0  0  0
  -24.3105  -27.4728   26.6541 C   0  0  2  0  0  0  0  0  0  0  0  0
  -23.2798  -30.2170   22.8829 C   0  0  0  0  0  0  0  0  0  0  0  0
  -25.8585  -11.5458   20.2861 N   0  0  0  0  0  0  0  0  0  0  0  0
  -26.2353  -12.8293   20.1566 N   0  0  0  0  0  0  0  0  0  0  0  0
  -21.9891  -27.0149   21.9107 N   0  0  0  0  0  0  0  0  0  0  0  0
  -29.9713  -13.6094   20.3624 N   0  0  0  0  0  0  0  0  0  0  0  0
  -25.4690  -15.0569   20.4039 N   0  0  0  0  0  0  0  0  0  0  0  0
  -21.8851  -12.5832   21.6011 N   0  0  0  0  0  0  0  0  0  0  0  0
  -19.4413  -27.9760   19.9220 N   0  0  0  0  0  0  0  0  0  0  0  0
  -26.2366  -18.3249   17.7057 N   0  0  0  0  0  0  0  0  0  0  0  0
  -23.3613  -28.4231   24.6660 N   0  0  0  0  0  0  0  0  0  0  0  0
  -30.1441  -15.6741   21.5029 N   0  0  0  0  0  0  0  0  0  0  0  0
  -28.8552  -19.5549   19.9447 N   0  3  2  0  0  0  0  0  0  0  0  0
  -24.7558  -26.1134   27.0719 N   0  3  0  0  0  0  0  0  0  0  0  0
  -22.6605  -14.7229   21.3191 O   0  0  0  0  0  0  0  0  0  0  0  0
  -21.4145  -27.0412   19.1126 O   0  0  0  0  0  0  0  0  0  0  0  0
  -28.4635  -18.8901   17.3264 O   0  0  0  0  0  0  0  0  0  0  0  0
  -20.8466  -28.5025   23.2955 O   0  0  0  0  0  0  0  0  0  0  0  0
  -25.2097  -27.0390   24.4540 O   0  0  0  0  0  0  0  0  0  0  0  0
  -31.8781  -14.9200   20.2062 O   0  0  0  0  0  0  0  0  0  0  0  0
  -21.6122   -7.0201   21.7128 O   0  0  0  0  0  0  0  0  0  0  0  0
  -25.5890  -22.8885   19.0706 O   0  0  0  0  0  0  0  0  0  1  0  0
  -16.4443   -6.8343   19.7990 F   0  0  0  0  0  0  0  0  0  0  0  0
  -20.8321   -5.0630   19.9229 F   0  0  0  0  0  0  0  0  0  0  0  0
  1  2  1  0  0  0  0
  1  5  2  0  0  0  0
  2  6  2  0  0  0  0
  3  8  2  0  0  0  0
  3 15  1  0  0  0  0
  4  9  1  0  0  0  0
  4 15  2  0  0  0  0
  5 17  1  0  0  0  0
  6 19  1  0  0  0  0
  7 10  2  0  0  0  0
  7 18  1  0  0  0  0
  8 21  1  0  0  0  0
  9 21  2  0  0  0  0
 10 22  1  0  0  0  0
 11 12  2  0  0  0  0
 11 23  1  0  0  0  0
 12 24  1  0  0  0  0
 13 20  1  0  0  0  0
 13 22  2  0  0  0  0
 14 24  2  0  0  0  0
 14 25  1  0  0  0  0
 15 26  1  0  0  0  0
 16 26  1  0  0  0  0
 16 27  2  0  0  0  0
 16 28  1  0  0  0  0
 17 19  2  0  0  0  0
 17 34  1  0  0  0  0
 18 20  2  0  0  0  0
 18 35  1  0  0  0  0
 19 48  1  0  0  0  0
 20 36  1  0  0  0  0
 21 85  1  0  0  0  0
 22 86  1  0  0  0  0
 23 25  2  0  0  0  0
 23 85  1  0  0  0  0
 24 87  1  0  0  0  0
 25 88  1  0  0  0  0
 26 67  2  0  0  0  0
 27 68  1  0  0  0  0
 27 71  1  0  0  0  0
 28 72  1  0  0  0  0
 28 79  2  0  0  0  0
 29 49  1  0  0  0  0
 29 73  1  0  0  0  0
 29 80  2  0  0  0  0
 30 50  1  0  0  0  0
 30 74  1  0  0  0  0
 30 81  2  0  0  0  0
 31 64  1  0  0  0  0
 31 69  1  0  0  0  0
 31 82  2  0  0  0  0
 32 65  1  0  0  0  0
 32 75  1  0  0  0  0
 32 83  2  0  0  0  0
 33 70  1  0  0  0  0
 33 76  1  0  0  0  0
 33 84  2  0  0  0  0
 34 37  1  0  0  0  0
 35 49  1  0  0  0  0
 36 69  1  0  0  0  0
 37 40  1  0  0  0  0
 38 42  1  0  0  0  0
 38 43  1  0  0  0  0
 39 41  1  0  0  0  0
 39 45  1  0  0  0  0
 40 48  1  0  0  0  0
 41 52  1  0  0  0  0
 42 53  1  0  0  0  0
 43 53  1  0  0  0  0
 44 47  1  0  0  0  0
 44 51  1  0  0  0  0
 45 70  1  0  0  0  0
 46 52  1  0  0  0  0
 46 70  1  0  0  0  0
 47 77  1  0  0  0  0
 48 73  1  0  0  0  0
 49 69  1  0  0  0  0
 50 51  1  0  0  0  0
 50 77  1  0  0  0  0
 51 60  1  0  0  0  0
 52 68  1  0  0  0  0
 53 54  1  0  0  0  0
 53 74  1  0  0  0  0
 55 65  1  0  0  0  0
 56 66  1  0  0  0  0
 57 66  1  0  0  0  0
 58 66  1  0  0  0  0
 59 78  1  0  0  0  0
 60 86  1  0  0  0  0
 61 62  1  0  0  0  0
 61 63  1  0  0  0  0
 62 76  1  0  0  0  0
 63 77  1  0  0  0  0
 64 66  1  0  0  0  0
 64 75  1  0  0  0  0
 65 78  1  0  0  0  0
 67 68  1  0  0  0  0
M  CHG  2  77   1  78   1
M  ISO  4  33 100  60 101  76 100  86 101
M  END
> <Batch ID>
0122

> <Smiles>
CNC(C)C(=O)NC(C(=O)N1Cc2cc([101O:1][101CH2:1]C3CCN(CCC[100NH:0][100C:0](=O)N4CCCC(n5nc(-c6ccc(Oc7ccc(F)cc7F)cc6)c(C(N)=O)c5N)C4)C3C(=O)NC3(C)CCC3)ccc2CC1C(=O)NC1CCCc2ccccc21)C(C)(C)C

> <Shape>
0.247

> <Color>
0.180

> <Negative vol penalty>
0.000

$$$$

  -OEChem-04052320283D

 84 92  0     1  0  0  0  0  0999 V2000
  -30.3893  -32.4715   25.2829 C   0  0  0  0  0  0  0  0  0  0  0  0
  -29.5453  -31.5505   24.6707 C   0  0  0  0  0  0  0  0  0  0  0  0
  -23.0865  -10.5601   21.5617 C   0  0  0  0  0  0  0  0  0  0  0  0
  -24.3860   -8.5616   21.1693 C   0  0  0  0  0  0  0  0  0  0  0  0
  -29.8517  -33.5650   25.9605 C   0  0  0  0  0  0  0  0  0  0  0  0
  -28.1630  -31.7219   24.7367 C   0  0  0  0  0  0  0  0  0  0  0  0
  -25.8946  -30.9515   20.2751 C   0  0  0  0  0  0  0  0  0  0  0  0
  -21.9193   -9.8620   21.2521 C   0  0  0  0  0  0  0  0  0  0  0  0
  -23.2188   -7.8634   20.8597 C   0  0  0  0  0  0  0  0  0  0  0  0
  -25.7043  -29.6289   19.8775 C   0  0  0  0  0  0  0  0  0  0  0  0
  -20.5443   -5.4615   20.3161 C   0  0  0  0  0  0  0  0  0  0  0  0
  -20.3818   -4.1910   20.8685 C   0  0  0  0  0  0  0  0  0  0  0  0
  -23.4078  -29.7464   20.6066 C   0  0  0  0  0  0  0  0  0  0  0  0
  -20.5030   -5.1402   23.0869 C   0  0  0  0  0  0  0  0  0  0  0  0
  -24.3199   -9.9100   21.5203 C   0  0  0  0  0  0  0  0  0  0  0  0
  -26.1230  -10.7699   23.1068 C   0  0  0  0  0  0  0  0  0  0  0  0
  -28.4624  -33.7551   26.0267 C   0  0  0  0  0  0  0  0  0  0  0  0
  -24.8442  -31.6794   20.8524 C   0  0  0  0  0  0  0  0  0  0  0  0
  -27.6063  -32.8183   25.4170 C   0  0  0  0  0  0  0  0  0  0  0  0
  -23.5867  -31.0790   21.0083 C   0  0  0  0  0  0  0  0  0  0  0  0
  -21.9855   -8.5137   20.9011 C   0  0  0  0  0  0  0  0  0  0  0  0
  -24.4616  -29.0252   20.0459 C   0  0  0  0  0  0  0  0  0  0  0  0
  -20.6862   -6.5713   21.1491 C   0  0  0  0  0  0  0  0  0  0  0  0
  -20.3611   -4.0304   22.2539 C   0  0  0  0  0  0  0  0  0  0  0  0
  -20.6655   -6.4106   22.5345 C   0  0  0  0  0  0  0  0  0  0  0  0
  -25.5260  -10.6307   21.8395 C   0  0  0  0  0  0  0  0  0  0  0  0
  -27.2380  -11.5387   22.8785 C   0  0  0  0  0  0  0  0  0  0  0  0
  -25.7069  -10.2505   24.3768 C   0  0  0  0  0  0  0  0  0  0  0  0
  -24.3580  -33.0624   23.6728 C   0  0  0  0  0  0  0  0  0  0  0  0
  -21.6555  -34.1420   22.2400 C   0  0  0  0  0  0  0  0  0  0  0  0
  -19.3043  -33.7254   19.8017 C   0  0  0  0  0  0  0  0  0  0  0  0
  -28.5159  -15.4978   18.5228 C   0  0  0  0  0  0  0  0  0  0  0  0
  -27.9266  -34.9267   26.8108 C   0  0  0  0  0  0  0  0  0  0  0  0
  -25.0582  -33.1137   21.2514 C   0  0  0  0  0  0  0  0  0  0  0  0
  -22.4209  -31.8235   21.6042 C   0  0  0  0  0  0  0  0  0  0  0  0
  -26.4619  -35.2390   26.5150 C   0  0  0  0  0  0  0  0  0  0  0  0
  -30.4375  -12.5908   19.4715 C   0  0  0  0  0  0  0  0  0  0  0  0
  -25.6302  -33.9604   26.5289 C   0  0  0  0  0  0  0  0  0  0  0  0
  -29.4439  -11.7578   20.2835 C   0  0  0  0  0  0  0  0  0  0  0  0
  -29.7499  -13.3646   18.3477 C   0  0  0  0  0  0  0  0  0  0  0  0
  -26.6934  -16.1327   20.2835 C   0  0  0  0  0  0  0  0  0  0  0  0
  -27.6216  -13.3547   19.5826 C   0  0  0  0  0  0  0  0  0  0  0  0
  -26.1022  -32.9833   25.4454 C   0  0  1  0  0  0  0  0  0  0  0  0
  -24.0615  -33.5972   22.3003 C   0  0  1  0  0  0  0  0  0  0  0  0
  -26.5937  -17.6678   20.2509 C   0  0  2  0  0  0  0  0  0  0  0  0
  -28.2613  -12.6177   20.7683 C   0  0  1  0  0  0  0  0  0  0  0  0
  -27.1302  -17.6233   18.8040 C   0  0  2  0  0  0  0  0  0  0  0  0
  -26.1170  -17.7555   17.6828 C   0  0  0  0  0  0  0  0  0  0  0  0
  -17.1954  -34.7468   18.9036 C   0  0  0  0  0  0  0  0  0  0  0  0
  -26.8527  -18.3208   22.6527 C   0  0  0  0  0  0  0  0  0  0  0  0
  -20.0949  -32.9811   24.5909 C   0  0  0  0  0  0  0  0  0  0  0  0
  -18.0130  -33.1729   23.2136 C   0  0  0  0  0  0  0  0  0  0  0  0
  -19.3007  -35.2225   23.8166 C   0  0  0  0  0  0  0  0  0  0  0  0
  -20.5349  -34.2246   17.1568 C   0  0  0  0  0  0  0  0  0  0  0  0
  -26.0963  -24.4668   20.0743 C   0  0  0  0  0  0  0  0  0  0  0  0
  -24.9294  -25.4493   20.0108 C   0  0  0  0  0  0  0  0  0  0  0  0
  -27.6952  -19.8834   20.8750 C   0  0  0  0  0  0  0  0  0  0  0  0
  -25.6042  -23.0493   20.3258 C   0  0  0  0  0  0  0  0  0  0  0  0
  -26.4335  -20.7289   20.7340 C   0  0  0  0  0  0  0  0  0  0  0  0
  -25.4025  -26.8659   19.7170 C   0  0  0  0  0  0  0  0  0  1  0  0
  -20.2434  -33.6280   22.0959 C   0  0  1  0  0  0  0  0  0  0  0  0
  -18.7116  -34.6972   18.7973 C   0  0  2  0  0  0  0  0  0  0  0  0
  -27.4730  -18.4025   21.2522 C   0  0  2  0  0  0  0  0  0  0  0  0
  -19.4353  -33.7362   23.4198 C   0  0  0  0  0  0  0  0  0  0  0  0
  -26.2053  -11.2608   20.8775 N   0  0  0  0  0  0  0  0  0  0  0  0
  -27.2407  -11.8034   21.5406 N   0  0  0  0  0  0  0  0  0  0  0  0
  -22.6819  -33.2216   21.9846 N   0  0  0  0  0  0  0  0  0  0  0  0
  -28.6280  -14.1488   18.8692 N   0  0  0  0  0  0  0  0  0  0  0  0
  -27.4717  -16.2211   19.0562 N   0  0  0  0  0  0  0  0  0  0  0  0
  -28.2065  -12.0076   23.6938 N   0  0  0  0  0  0  0  0  0  0  0  0
  -24.5375   -9.4800   24.4328 N   0  0  0  0  0  0  0  0  0  0  0  0
  -25.6130  -33.3938   24.1468 N   0  0  0  0  0  0  0  0  0  0  0  0
  -19.6562  -34.3561   20.9762 N   0  0  0  0  0  0  0  0  0  0  0  0
  -19.0724  -34.2919   17.4094 N   0  3  0  0  0  0  0  0  0  0  0  0
  -26.7766  -22.1362   20.4249 N   0  3  0  0  0  0  0  0  0  0  0  0
  -26.3440  -10.4771   25.4333 O   0  0  0  0  0  0  0  0  0  0  0  0
  -23.5104  -32.3994   24.2590 O   0  0  0  0  0  0  0  0  0  0  0  0
  -21.8410  -35.3187   22.5602 O   0  0  0  0  0  0  0  0  0  0  0  0
  -19.4380  -32.5260   19.5691 O   0  0  0  0  0  0  0  0  0  0  0  0
  -29.3408  -16.0524   17.7846 O   0  0  0  0  0  0  0  0  0  0  0  0
  -20.8467   -7.8320   20.5991 O   0  0  0  0  0  0  0  0  0  0  0  0
  -24.2720  -27.7246   19.6565 O   0  0  0  0  0  0  0  0  0  1  0  0
  -20.2034   -2.8105   22.7842 F   0  0  0  0  0  0  0  0  0  0  0  0
  -20.8002   -7.4732   23.3399 F   0  0  0  0  0  0  0  0  0  0  0  0
  1  2  1  0  0  0  0
  1  5  2  0  0  0  0
  2  6  2  0  0  0  0
  3  8  2  0  0  0  0
  3 15  1  0  0  0  0
  4  9  1  0  0  0  0
  4 15  2  0  0  0  0
  5 17  1  0  0  0  0
  6 19  1  0  0  0  0
  7 10  2  0  0  0  0
  7 18  1  0  0  0  0
  8 21  1  0  0  0  0
  9 21  2  0  0  0  0
 10 22  1  0  0  0  0
 11 12  2  0  0  0  0
 11 23  1  0  0  0  0
 12 24  1  0  0  0  0
 13 20  1  0  0  0  0
 13 22  2  0  0  0  0
 14 24  2  0  0  0  0
 14 25  1  0  0  0  0
 15 26  1  0  0  0  0
 16 26  1  0  0  0  0
 16 27  2  0  0  0  0
 16 28  1  0  0  0  0
 17 19  2  0  0  0  0
 17 33  1  0  0  0  0
 18 20  2  0  0  0  0
 18 34  1  0  0  0  0
 19 43  1  0  0  0  0
 20 35  1  0  0  0  0
 21 81  1  0  0  0  0
 22 82  1  0  0  0  0
 23 25  2  0  0  0  0
 23 81  1  0  0  0  0
 24 83  1  0  0  0  0
 25 84  1  0  0  0  0
 26 65  2  0  0  0  0
 27 66  1  0  0  0  0
 27 70  1  0  0  0  0
 28 71  1  0  0  0  0
 28 76  2  0  0  0  0
 29 44  1  0  0  0  0
 29 72  1  0  0  0  0
 29 77  2  0  0  0  0
 30 61  1  0  0  0  0
 30 67  1  0  0  0  0
 30 78  2  0  0  0  0
 31 62  1  0  0  0  0
 31 73  1  0  0  0  0
 31 79  2  0  0  0  0
 32 68  1  0  0  0  0
 32 69  1  0  0  0  0
 32 80  2  0  0  0  0
 33 36  1  0  0  0  0
 34 44  1  0  0  0  0
 35 67  1  0  0  0  0
 36 38  1  0  0  0  0
 37 39  1  0  0  0  0
 37 40  1  0  0  0  0
 38 43  1  0  0  0  0
 39 46  1  0  0  0  0
 40 68  1  0  0  0  0
 41 45  1  0  0  0  0
 41 69  1  0  0  0  0
 42 46  1  0  0  0  0
 42 68  1  0  0  0  0
 43 72  1  0  0  0  0
 44 67  1  0  0  0  0
 45 47  1  0  0  0  0
 45 63  1  0  0  0  0
 46 66  1  0  0  0  0
 47 48  1  0  0  0  0
 47 69  1  0  0  0  0
 49 62  1  0  0  0  0
 50 63  1  0  0  0  0
 51 64  1  0  0  0  0
 52 64  1  0  0  0  0
 53 64  1  0  0  0  0
 54 74  1  0  0  0  0
 55 56  1  0  0  0  0
 55 58  1  0  0  0  0
 56 60  1  0  0  0  0
 57 59  1  0  0  0  0
 57 63  1  0  0  0  0
 58 75  1  0  0  0  0
 59 75  1  0  0  0  0
 60 82  1  0  0  0  0
 61 64  1  0  0  0  0
 61 73  1  0  0  0  0
 62 74  1  0  0  0  0
 65 66  1  0  0  0  0
M  CHG  2  74   1  75   1
M  ISO  4  32 100  60 101  69 100  82 101
M  END
> <Batch ID>
0122

> <Smiles>
CNC(C)C(=O)NC(C(=O)N1Cc2cc([101O:1][101CH2:1]CCCNCCC(C)C3C[100N:0]([100C:0](=O)N4CCCC(n5nc(-c6ccc(Oc7ccc(F)cc7F)cc6)c(C(N)=O)c5N)C4)C3C)ccc2CC1C(=O)NC1CCCc2ccccc21)C(C)(C)C

> <Shape>
0.216

> <Color>
0.098

> <Negative vol penalty>
0.000

$$$$

  -OEChem-04052320283D

 83 91  0     1  0  0  0  0  0999 V2000
  -17.9166  -12.6838   24.7909 C   0  0  0  0  0  0  0  0  0  0  0  0
  -18.7911  -11.6019   24.8111 C   0  0  0  0  0  0  0  0  0  0  0  0
  -23.1909   -9.8191   19.9315 C   0  0  0  0  0  0  0  0  0  0  0  0
  -23.5684   -9.9994   22.3110 C   0  0  0  0  0  0  0  0  0  0  0  0
  -18.3698  -13.9518   25.1523 C   0  0  0  0  0  0  0  0  0  0  0  0
  -20.1196  -11.7878   25.1917 C   0  0  0  0  0  0  0  0  0  0  0  0
  -25.4995   -8.4186   28.5116 C   0  0  0  0  0  0  0  0  0  0  0  0
  -22.4247   -8.6723   20.1400 C   0  0  0  0  0  0  0  0  0  0  0  0
  -22.8022   -8.8527   22.5195 C   0  0  0  0  0  0  0  0  0  0  0  0
  -26.8387   -8.0801   28.3220 C   0  0  0  0  0  0  0  0  0  0  0  0
  -23.2038   -5.5061   22.2554 C   0  0  0  0  0  0  0  0  0  0  0  0
  -23.7020   -4.5448   23.1347 C   0  0  0  0  0  0  0  0  0  0  0  0
  -27.4900  -10.3010   29.0020 C   0  0  0  0  0  0  0  0  0  0  0  0
  -21.7450   -4.8044   24.5274 C   0  0  0  0  0  0  0  0  0  0  0  0
  -23.7628  -10.4827   21.0171 C   0  0  0  0  0  0  0  0  0  0  0  0
  -24.1013  -12.9994   20.7735 C   0  0  0  0  0  0  0  0  0  0  0  0
  -19.7022  -14.1515   25.5467 C   0  0  0  0  0  0  0  0  0  0  0  0
  -25.1444   -9.7064   28.9380 C   0  0  0  0  0  0  0  0  0  0  0  0
  -20.5914  -13.0599   25.5574 C   0  0  0  0  0  0  0  0  0  0  0  0
  -26.1458  -10.6526   29.1987 C   0  0  0  0  0  0  0  0  0  0  0  0
  -22.2303   -8.1891   21.4339 C   0  0  0  0  0  0  0  0  0  0  0  0
  -27.8340   -9.0223   28.5645 C   0  0  0  0  0  0  0  0  0  0  0  0
  -21.9762   -6.1166   22.5121 C   0  0  0  0  0  0  0  0  0  0  0  0
  -22.9726   -4.1939   24.2707 C   0  0  0  0  0  0  0  0  0  0  0  0
  -21.2468   -5.7658   23.6481 C   0  0  0  0  0  0  0  0  0  0  0  0
  -24.5549  -11.6670   20.8023 C   0  0  0  0  0  0  0  0  0  0  0  0
  -25.2324  -13.7422   20.5386 C   0  0  0  0  0  0  0  0  0  0  0  0
  -22.7759  -13.5191   20.9439 C   0  0  0  0  0  0  0  0  0  0  0  0
  -23.4371  -12.0867   27.7040 C   0  0  0  0  0  0  0  0  0  0  0  0
  -23.9321  -13.4319   30.6139 C   0  0  0  0  0  0  0  0  0  0  0  0
  -25.8470  -13.6159   33.4328 C   0  0  0  0  0  0  0  0  0  0  0  0
  -31.0470  -12.7530   21.5696 C   0  0  0  0  0  0  0  0  0  0  0  0
  -20.1579  -15.5493   25.8832 C   0  0  0  0  0  0  0  0  0  0  0  0
  -23.6969  -10.0475   29.1634 C   0  0  0  0  0  0  0  0  0  0  0  0
  -25.8183  -12.0426   29.6774 C   0  0  0  0  0  0  0  0  0  0  0  0
  -21.4862  -15.5926   26.6342 C   0  0  0  0  0  0  0  0  0  0  0  0
  -29.5205  -13.4703   18.4341 C   0  0  0  0  0  0  0  0  0  0  0  0
  -22.5066  -14.6754   25.9676 C   0  0  0  0  0  0  0  0  0  0  0  0
  -28.0339  -13.2097   18.6829 C   0  0  0  0  0  0  0  0  0  0  0  0
  -32.2238   -9.3521   25.2122 C   0  0  0  0  0  0  0  0  0  0  0  0
  -30.4017  -12.4810   19.1935 C   0  0  0  0  0  0  0  0  0  0  0  0
  -28.6477  -12.1379   20.8904 C   0  0  0  0  0  0  0  0  0  0  0  0
  -30.2460  -11.5014   25.5046 C   0  0  0  0  0  0  0  0  0  0  0  0
  -22.0336  -13.2169   25.9882 C   0  0  1  0  0  0  0  0  0  0  0  0
  -23.4204  -11.5467   29.1060 C   0  0  1  0  0  0  0  0  0  0  0  0
  -32.2387  -10.5564   24.2533 C   0  0  1  0  0  0  0  0  0  0  0  0
  -31.6360  -11.8069   24.9390 C   0  0  1  0  0  0  0  0  0  0  0  0
  -27.7203  -13.1456   20.1898 C   0  0  2  0  0  0  0  0  0  0  0  0
  -30.8282   -9.0784   25.7689 C   0  0  1  0  0  0  0  0  0  0  0  0
  -34.2218   -9.5764   23.0891 C   0  0  0  0  0  0  0  0  0  0  0  0
  -26.0221  -14.8350   35.6192 C   0  0  0  0  0  0  0  0  0  0  0  0
  -31.3866   -6.6702   26.2015 C   0  0  0  0  0  0  0  0  0  0  0  0
  -25.0161  -15.8839   29.1571 C   0  0  0  0  0  0  0  0  0  0  0  0
  -26.0276  -16.6357   31.3204 C   0  0  0  0  0  0  0  0  0  0  0  0
  -23.5526  -16.3983   31.1188 C   0  0  0  0  0  0  0  0  0  0  0  0
  -25.5513  -11.1132   34.9846 C   0  0  0  0  0  0  0  0  0  0  0  0
  -33.6668  -10.7916   23.7537 C   0  0  0  0  0  0  0  0  0  0  0  0
  -31.5364  -13.0041   23.9897 C   0  0  0  0  0  0  0  0  0  0  0  0
  -29.4319   -7.7188   27.3797 C   0  0  0  0  0  0  0  0  0  1  0  0
  -24.9932  -14.3228   31.2134 C   0  0  1  0  0  0  0  0  0  0  0  0
  -25.4761  -13.6085   34.9048 C   0  0  2  0  0  0  0  0  0  0  0  0
  -30.8329   -7.9569   26.8099 C   0  0  2  0  0  0  0  0  0  0  0  0
  -24.9038  -15.7847   30.6916 C   0  0  0  0  0  0  0  0  0  0  0  0
  -25.8715  -11.5661   20.6016 N   0  0  0  0  0  0  0  0  0  0  0  0
  -26.2549  -12.8445   20.4443 N   0  0  0  0  0  0  0  0  0  0  0  0
  -24.3882  -12.3299   29.8768 N   0  0  0  0  0  0  0  0  0  0  0  0
  -30.0547  -12.4697   20.6167 N   0  0  0  0  0  0  0  0  0  0  0  0
  -25.4422  -15.0691   20.4055 N   0  0  0  0  0  0  0  0  0  0  0  0
  -21.7293  -12.6167   21.1776 N   0  0  0  0  0  0  0  0  0  0  0  0
  -22.2365  -12.6382   27.2991 N   0  0  0  0  0  0  0  0  0  0  0  0
  -24.8627  -14.1959   32.6609 N   0  0  0  0  0  0  0  0  0  0  0  0
  -30.6324  -12.7275   22.8956 N   0  0  0  0  0  0  0  0  0  0  0  0
  -30.3238  -10.3280   26.4224 N   0  3  0  0  0  0  0  0  0  0  0  0
  -26.0244  -12.3935   35.5711 N   0  3  0  0  0  0  0  0  0  0  0  0
  -22.5246  -14.7461   20.8743 O   0  0  0  0  0  0  0  0  0  0  0  0
  -24.4638  -12.0102   27.0392 O   0  0  0  0  0  0  0  0  0  0  0  0
  -22.7423  -13.6998   30.7991 O   0  0  0  0  0  0  0  0  0  0  0  0
  -26.9059  -13.1566   33.0104 O   0  0  0  0  0  0  0  0  0  0  0  0
  -32.2147  -13.0148   21.2614 O   0  0  0  0  0  0  0  0  0  0  0  0
  -21.4825   -7.0703   21.6377 O   0  0  0  0  0  0  0  0  0  0  0  0
  -29.1418   -8.6947   28.3796 O   0  0  0  0  0  0  0  0  0  1  0  0
  -23.4505   -3.2696   25.1142 F   0  0  0  0  0  0  0  0  0  0  0  0
  -20.0663   -6.3480   23.8994 F   0  0  0  0  0  0  0  0  0  0  0  0
  1  2  1  0  0  0  0
  1  5  2  0  0  0  0
  2  6  2  0  0  0  0
  3  8  2  0  0  0  0
  3 15  1  0  0  0  0
  4  9  1  0  0  0  0
  4 15  2  0  0  0  0
  5 17  1  0  0  0  0
  6 19  1  0  0  0  0
  7 10  2  0  0  0  0
  7 18  1  0  0  0  0
  8 21  1  0  0  0  0
  9 21  2  0  0  0  0
 10 22  1  0  0  0  0
 11 12  2  0  0  0  0
 11 23  1  0  0  0  0
 12 24  1  0  0  0  0
 13 20  1  0  0  0  0
 13 22  2  0  0  0  0
 14 24  2  0  0  0  0
 14 25  1  0  0  0  0
 15 26  1  0  0  0  0
 16 26  1  0  0  0  0
 16 27  2  0  0  0  0
 16 28  1  0  0  0  0
 17 19  2  0  0  0  0
 17 33  1  0  0  0  0
 18 20  2  0  0  0  0
 18 34  1  0  0  0  0
 19 44  1  0  0  0  0
 20 35  1  0  0  0  0
 21 80  1  0  0  0  0
 22 81  1  0  0  0  0
 23 25  2  0  0  0  0
 23 80  1  0  0  0  0
 24 82  1  0  0  0  0
 25 83  1  0  0  0  0
 26 64  2  0  0  0  0
 27 65  1  0  0  0  0
 27 68  1  0  0  0  0
 28 69  1  0  0  0  0
 28 75  2  0  0  0  0
 29 45  1  0  0  0  0
 29 70  1  0  0  0  0
 29 76  2  0  0  0  0
 30 60  1  0  0  0  0
 30 66  1  0  0  0  0
 30 77  2  0  0  0  0
 31 61  1  0  0  0  0
 31 71  1  0  0  0  0
 31 78  2  0  0  0  0
 32 67  1  0  0  0  0
 32 72  1  0  0  0  0
 32 79  2  0  0  0  0
 33 36  1  0  0  0  0
 34 45  1  0  0  0  0
 35 66  1  0  0  0  0
 36 38  1  0  0  0  0
 37 39  1  0  0  0  0
 37 41  1  0  0  0  0
 38 44  1  0  0  0  0
 39 48  1  0  0  0  0
 40 46  1  0  0  0  0
 40 49  1  0  0  0  0
 41 67  1  0  0  0  0
 42 48  1  0  0  0  0
 42 67  1  0  0  0  0
 43 47  1  0  0  0  0
 43 73  1  0  0  0  0
 44 70  1  0  0  0  0
 45 66  1  0  0  0  0
 46 47  1  0  0  0  0
 46 57  1  0  0  0  0
 47 58  1  0  0  0  0
 48 65  1  0  0  0  0
 49 62  1  0  0  0  0
 49 73  1  0  0  0  0
 50 57  1  0  0  0  0
 51 61  1  0  0  0  0
 52 62  1  0  0  0  0
 53 63  1  0  0  0  0
 54 63  1  0  0  0  0
 55 63  1  0  0  0  0
 56 74  1  0  0  0  0
 58 72  1  0  0  0  0
 59 62  1  0  0  0  0
 59 81  1  0  0  0  0
 60 63  1  0  0  0  0
 60 71  1  0  0  0  0
 61 74  1  0  0  0  0
 64 65  1  0  0  0  0
M  CHG  2  73   1  74   1
M  ISO  4  32 100  59 101  72 100  81 101
M  END
> <Batch ID>
0122

> <Smiles>
CCC1CC(C(C)[101CH2:1][101O:1]c2ccc3c(c2)CN(C(=O)C(NC(=O)C(C)NC)C(C)(C)C)C(C(=O)NC2CCCc4ccccc42)C3)NCC1C[100NH:0][100C:0](=O)N1CCCC(n2nc(-c3ccc(Oc4ccc(F)cc4F)cc3)c(C(N)=O)c2N)C1

> <Shape>
0.141

> <Color>
0.175

> <Negative vol penalty>
0.000

$$$$

  -OEChem-04052320283D

 89 98  0     1  0  0  0  0  0999 V2000
  -16.6040  -28.4146   23.0272 C   0  0  0  0  0  0  0  0  0  0  0  0
  -17.7506  -28.1774   22.2759 C   0  0  0  0  0  0  0  0  0  0  0  0
  -26.5743  -12.3686   21.0822 C   0  0  0  0  0  0  0  0  0  0  0  0
  -25.3054  -13.9912   19.8196 C   0  0  0  0  0  0  0  0  0  0  0  0
  -16.6350  -29.3375   24.0719 C   0  0  0  0  0  0  0  0  0  0  0  0
  -18.9286  -28.8640   22.5681 C   0  0  0  0  0  0  0  0  0  0  0  0
  -22.9875  -25.8358   22.5899 C   0  0  0  0  0  0  0  0  0  0  0  0
  -30.3586  -23.3900   18.6620 C   0  0  0  0  0  0  0  0  0  0  0  0
  -30.3278  -22.3366   19.5758 C   0  0  0  0  0  0  0  0  0  0  0  0
  -25.3902  -11.7326   21.4550 C   0  0  0  0  0  0  0  0  0  0  0  0
  -24.1212  -13.3551   20.1924 C   0  0  0  0  0  0  0  0  0  0  0  0
  -23.5159  -25.4703   21.3525 C   0  0  0  0  0  0  0  0  0  0  0  0
  -23.1721   -9.5883   20.0712 C   0  0  0  0  0  0  0  0  0  0  0  0
  -23.1311   -8.1963   19.9918 C   0  0  0  0  0  0  0  0  0  0  0  0
  -28.1742  -22.7508   17.8515 C   0  0  0  0  0  0  0  0  0  0  0  0
  -25.2287  -27.1517   21.5941 C   0  0  0  0  0  0  0  0  0  0  0  0
  -22.6815   -8.0742   22.3625 C   0  0  0  0  0  0  0  0  0  0  0  0
  -26.5319  -13.4979   20.2646 C   0  0  0  0  0  0  0  0  0  0  0  0
  -28.5426  -13.8885   18.7440 C   0  0  0  0  0  0  0  0  0  0  0  0
  -17.8166  -30.0286   24.3832 C   0  0  0  0  0  0  0  0  0  0  0  0
  -23.5702  -26.8710   23.3349 C   0  0  0  0  0  0  0  0  0  0  0  0
  -18.9751  -29.7980   23.6170 C   0  0  0  0  0  0  0  0  0  0  0  0
  -28.1434  -21.6974   18.7653 C   0  0  0  0  0  0  0  0  0  0  0  0
  -24.7073  -27.5267   22.8418 C   0  0  0  0  0  0  0  0  0  0  0  0
  -29.2817  -23.5971   17.7999 C   0  0  0  0  0  0  0  0  0  0  0  0
  -29.2202  -21.4903   19.6275 C   0  0  0  0  0  0  0  0  0  0  0  0
  -24.1637  -12.2258   21.0101 C   0  0  0  0  0  0  0  0  0  0  0  0
  -24.6349  -26.1302   20.8531 C   0  0  0  0  0  0  0  0  0  0  0  0
  -22.9678  -10.2233   21.2963 C   0  0  0  0  0  0  0  0  0  0  0  0
  -22.8858   -7.4393   21.1374 C   0  0  0  0  0  0  0  0  0  0  0  0
  -22.7225   -9.4662   22.4419 C   0  0  0  0  0  0  0  0  0  0  0  0
  -27.7547  -14.1557   19.8796 C   0  0  0  0  0  0  0  0  0  0  0  0
  -29.5868  -14.7763   18.8339 C   0  0  0  0  0  0  0  0  0  0  0  0
  -28.3480  -12.9241   17.7011 C   0  0  0  0  0  0  0  0  0  0  0  0
  -22.5875  -29.7045   24.3882 C   0  0  0  0  0  0  0  0  0  0  0  0
  -25.4612  -29.7063   25.8929 C   0  0  0  0  0  0  0  0  0  0  0  0
  -28.6685  -28.5464   26.0147 C   0  0  0  0  0  0  0  0  0  0  0  0
  -30.2042  -20.0974   21.4816 C   0  0  0  0  0  0  0  0  0  0  0  0
  -17.7889  -31.0514   25.4912 C   0  0  0  0  0  0  0  0  0  0  0  0
  -23.0043  -27.2353   24.6801 C   0  0  0  0  0  0  0  0  0  0  0  0
  -25.3824  -28.6311   23.6119 C   0  0  0  0  0  0  0  0  0  0  0  0
  -19.1769  -31.4618   25.9762 C   0  0  0  0  0  0  0  0  0  0  0  0
  -32.1814  -17.1921   22.0536 C   0  0  0  0  0  0  0  0  0  0  0  0
  -20.0922  -31.7523   24.7910 C   0  0  0  0  0  0  0  0  0  0  0  0
  -31.3451  -16.0602   21.4523 C   0  0  0  0  0  0  0  0  0  0  0  0
  -25.6289  -21.5459   18.4551 C   0  0  0  0  0  0  0  0  0  0  0  0
  -27.0954  -19.5529   17.9021 C   0  0  0  0  0  0  0  0  0  0  0  0
  -31.3061  -18.2492   22.7246 C   0  0  0  0  0  0  0  0  0  0  0  0
  -29.3987  -17.6630   21.2798 C   0  0  0  0  0  0  0  0  0  0  0  0
  -24.4198  -20.6227   18.5020 C   0  0  0  0  0  0  0  0  0  0  0  0
  -25.8675  -18.6551   17.9562 C   0  0  0  0  0  0  0  0  0  0  0  0
  -26.9293  -20.7947   18.7985 C   0  0  0  0  0  0  0  0  0  0  0  0
  -20.2787  -30.5047   23.9191 C   0  0  1  0  0  0  0  0  0  0  0  0
  -23.3697  -28.6500   25.1188 C   0  0  1  0  0  0  0  0  0  0  0  0
  -30.2326  -16.6069   20.5362 C   0  0  2  0  0  0  0  0  0  0  0  0
  -30.7905  -28.7571   27.3376 C   0  0  0  0  0  0  0  0  0  0  0  0
  -24.3331  -26.3608   17.4549 C   0  0  0  0  0  0  0  0  0  0  0  0
  -25.9978  -32.4157   24.5962 C   0  0  0  0  0  0  0  0  0  0  0  0
  -28.4203  -32.1267   25.1583 C   0  0  0  0  0  0  0  0  0  0  0  0
  -26.7232  -32.2395   26.9830 C   0  0  0  0  0  0  0  0  0  0  0  0
  -28.6464  -25.6739   26.7268 C   0  0  0  0  0  0  0  0  0  0  0  0
  -29.3156  -24.7307   16.8161 C   0  0  0  0  0  0  0  0  0  0  0  0
  -28.7340  -26.0334   17.3561 C   0  0  0  0  0  0  0  0  0  0  0  0
  -26.6521  -27.0611   18.2770 C   0  0  0  0  0  0  0  0  0  0  0  0
  -26.8536  -30.1691   25.5379 C   0  0  1  0  0  0  0  0  0  0  0  0
  -29.4934  -27.9838   27.1581 C   0  0  2  0  0  0  0  0  0  0  0  0
  -25.1959  -26.7842   18.6365 C   0  0  2  0  0  0  0  0  0  1  0  0
  -26.9851  -31.7183   25.5532 C   0  0  0  0  0  0  0  0  0  0  0  0
  -28.2556  -15.1363   20.6356 N   0  0  0  0  0  0  0  0  0  0  0  0
  -29.3695  -15.4931   19.9737 N   0  0  0  0  0  0  0  0  0  0  0  0
  -24.7878  -28.9551   24.9192 N   0  0  0  0  0  0  0  0  0  0  0  0
  -30.2780  -18.7239   21.7959 N   0  0  0  0  0  0  0  0  0  0  0  0
  -30.6604  -15.0058   18.0485 N   0  0  0  0  0  0  0  0  0  0  0  0
  -27.2227  -12.0910   17.7629 N   0  0  0  0  0  0  0  0  0  0  0  0
  -29.2081  -20.4259   20.5627 N   0  0  0  0  0  0  0  0  0  0  0  0
  -21.2181  -29.5928   24.5359 N   0  0  0  0  0  0  0  0  0  0  0  0
  -27.7578  -29.4836   26.4548 N   0  0  0  0  0  0  0  0  0  0  0  0
  -24.6572  -19.4547   17.6031 N   0  3  0  0  0  0  0  0  0  0  0  0
  -29.8298  -26.5551   26.9000 N   0  3  0  0  0  0  0  0  0  0  0  0
  -27.2932  -25.8603   17.6859 N   0  3  0  0  0  0  0  0  0  0  0  0
  -29.1571  -12.7936   16.7514 O   0  0  0  0  0  0  0  0  0  0  0  0
  -23.1824  -30.5573   23.7396 O   0  0  0  0  0  0  0  0  0  0  0  0
  -24.9911  -29.9944   26.9964 O   0  0  0  0  0  0  0  0  0  0  0  0
  -28.8196  -28.1929   24.8474 O   0  0  0  0  0  0  0  0  0  0  0  0
  -30.9861  -20.9176   21.9693 O   0  0  0  0  0  0  0  0  0  0  0  0
  -23.0080  -11.6053   21.3734 O   0  0  0  0  0  0  0  0  0  0  0  0
  -25.1523  -25.7759   19.6454 O   0  0  0  0  0  0  0  0  0  1  0  0
  -22.8450   -6.1026   21.0606 F   0  0  0  0  0  0  0  0  0  0  0  0
  -22.5243  -10.0707   23.6214 F   0  0  0  0  0  0  0  0  0  0  0  0
  1  2  1  0  0  0  0
  1  5  2  0  0  0  0
  2  6  2  0  0  0  0
  3 10  2  0  0  0  0
  3 18  1  0  0  0  0
  4 11  1  0  0  0  0
  4 18  2  0  0  0  0
  5 20  1  0  0  0  0
  6 22  1  0  0  0  0
  7 12  2  0  0  0  0
  7 21  1  0  0  0  0
  8  9  2  0  0  0  0
  8 25  1  0  0  0  0
  9 26  1  0  0  0  0
 10 27  1  0  0  0  0
 11 27  2  0  0  0  0
 12 28  1  0  0  0  0
 13 14  2  0  0  0  0
 13 29  1  0  0  0  0
 14 30  1  0  0  0  0
 15 23  1  0  0  0  0
 15 25  2  0  0  0  0
 16 24  1  0  0  0  0
 16 28  2  0  0  0  0
 17 30  2  0  0  0  0
 17 31  1  0  0  0  0
 18 32  1  0  0  0  0
 19 32  1  0  0  0  0
 19 33  2  0  0  0  0
 19 34  1  0  0  0  0
 20 22  2  0  0  0  0
 20 39  1  0  0  0  0
 21 24  2  0  0  0  0
 21 40  1  0  0  0  0
 22 53  1  0  0  0  0
 23 26  2  0  0  0  0
 23 52  1  0  0  0  0
 24 41  1  0  0  0  0
 25 62  1  0  0  0  0
 26 75  1  0  0  0  0
 27 86  1  0  0  0  0
 28 87  1  0  0  0  0
 29 31  2  0  0  0  0
 29 86  1  0  0  0  0
 30 88  1  0  0  0  0
 31 89  1  0  0  0  0
 32 69  2  0  0  0  0
 33 70  1  0  0  0  0
 33 73  1  0  0  0  0
 34 74  1  0  0  0  0
 34 81  2  0  0  0  0
 35 54  1  0  0  0  0
 35 76  1  0  0  0  0
 35 82  2  0  0  0  0
 36 65  1  0  0  0  0
 36 71  1  0  0  0  0
 36 83  2  0  0  0  0
 37 66  1  0  0  0  0
 37 77  1  0  0  0  0
 37 84  2  0  0  0  0
 38 72  1  0  0  0  0
 38 75  1  0  0  0  0
 38 85  2  0  0  0  0
 39 42  1  0  0  0  0
 40 54  1  0  0  0  0
 41 71  1  0  0  0  0
 42 44  1  0  0  0  0
 43 45  1  0  0  0  0
 43 48  1  0  0  0  0
 44 53  1  0  0  0  0
 45 55  1  0  0  0  0
 46 50  1  0  0  0  0
 46 52  1  0  0  0  0
 47 51  1  0  0  0  0
 47 52  1  0  0  0  0
 48 72  1  0  0  0  0
 49 55  1  0  0  0  0
 49 72  1  0  0  0  0
 50 78  1  0  0  0  0
 51 78  1  0  0  0  0
 53 76  1  0  0  0  0
 54 71  1  0  0  0  0
 55 70  1  0  0  0  0
 56 66  1  0  0  0  0
 57 67  1  0  0  0  0
 58 68  1  0  0  0  0
 59 68  1  0  0  0  0
 60 68  1  0  0  0  0
 61 79  1  0  0  0  0
 62 63  1  0  0  0  0
 63 80  1  0  0  0  0
 64 67  1  0  0  0  0
 64 80  1  0  0  0  0
 65 68  1  0  0  0  0
 65 77  1  0  0  0  0
 66 79  1  0  0  0  0
 67 87  1  0  0  0  0
 69 70  1  0  0  0  0
M  CHG  3  78   1  79   1  80   1
M  ISO  4  38 100  67 101  75 100  87 101
M  END
> <Batch ID>
0122

> <Smiles>
CNC(C)C(=O)NC(C(=O)N1Cc2cc([101O:1][101CH:1](C)CNCCc3ccc([100NH:0][100C:0](=O)N4CCCC(n5nc(-c6ccc(Oc7ccc(F)cc7F)cc6)c(C(N)=O)c5N)C4)c(C4CCNCC4)c3)ccc2CC1C(=O)NC1CCCc2ccccc21)C(C)(C)C

> <Shape>
0.290

> <Color>
0.059

> <Negative vol penalty>
0.000

$$$$

  -OEChem-04052320283D

 84 92  0     1  0  0  0  0  0999 V2000
  -30.2639  -28.2596   16.6399 C   0  0  0  0  0  0  0  0  0  0  0  0
  -30.5853  -27.5404   17.7866 C   0  0  0  0  0  0  0  0  0  0  0  0
  -23.1634   -9.8892   19.9339 C   0  0  0  0  0  0  0  0  0  0  0  0
  -23.8615   -9.9362   22.2464 C   0  0  0  0  0  0  0  0  0  0  0  0
  -29.4975  -27.6658   15.6379 C   0  0  0  0  0  0  0  0  0  0  0  0
  -30.1396  -26.2272   17.9324 C   0  0  0  0  0  0  0  0  0  0  0  0
  -33.0916  -21.6219   20.6860 C   0  0  0  0  0  0  0  0  0  0  0  0
  -22.4610   -8.7076   20.1699 C   0  0  0  0  0  0  0  0  0  0  0  0
  -23.1590   -8.7545   22.4824 C   0  0  0  0  0  0  0  0  0  0  0  0
  -32.9861  -21.0698   21.9619 C   0  0  0  0  0  0  0  0  0  0  0  0
  -23.6000   -5.4451   21.9493 C   0  0  0  0  0  0  0  0  0  0  0  0
  -24.2377   -4.4486   22.6882 C   0  0  0  0  0  0  0  0  0  0  0  0
  -31.5124  -19.3671   21.0969 C   0  0  0  0  0  0  0  0  0  0  0  0
  -30.4670  -15.7651   24.3135 C   0  0  0  0  0  0  0  0  0  0  0  0
  -22.4861   -4.5589   24.3486 C   0  0  0  0  0  0  0  0  0  0  0  0
  -32.9850  -16.6333   23.7208 C   0  0  0  0  0  0  0  0  0  0  0  0
  -23.8637  -10.5036   20.9721 C   0  0  0  0  0  0  0  0  0  0  0  0
  -24.1051  -13.0401   20.8487 C   0  0  0  0  0  0  0  0  0  0  0  0
  -29.0503  -26.3414   15.7672 C   0  0  0  0  0  0  0  0  0  0  0  0
  -32.3984  -21.0562   19.6063 C   0  0  0  0  0  0  0  0  0  0  0  0
  -29.3654  -25.6156   16.9318 C   0  0  0  0  0  0  0  0  0  0  0  0
  -31.6128  -19.9124   19.8078 C   0  0  0  0  0  0  0  0  0  0  0  0
  -31.1253  -16.6069   25.2031 C   0  0  0  0  0  0  0  0  0  0  0  0
  -32.4086  -17.0538   24.9085 C   0  0  0  0  0  0  0  0  0  0  0  0
  -22.4587   -8.1402   21.4441 C   0  0  0  0  0  0  0  0  0  0  0  0
  -32.1942  -19.9440   22.1681 C   0  0  0  0  0  0  0  0  0  0  0  0
  -22.4054   -5.9986   22.4100 C   0  0  0  0  0  0  0  0  0  0  0  0
  -23.6808   -4.0055   23.8878 C   0  0  0  0  0  0  0  0  0  0  0  0
  -21.8484   -5.5555   23.6096 C   0  0  0  0  0  0  0  0  0  0  0  0
  -24.5901  -11.7240   20.7288 C   0  0  0  0  0  0  0  0  0  0  0  0
  -31.1303  -15.4025   23.1524 C   0  0  0  0  0  0  0  0  0  0  0  0
  -25.1750  -13.8323   20.5105 C   0  0  0  0  0  0  0  0  0  0  0  0
  -22.8040  -13.5050   21.2315 C   0  0  0  0  0  0  0  0  0  0  0  0
  -30.1350  -22.0671   17.6166 C   0  0  0  0  0  0  0  0  0  0  0  0
  -30.6884  -19.2213   16.1614 C   0  0  0  0  0  0  0  0  0  0  0  0
  -31.8252  -16.0130   16.4096 C   0  0  0  0  0  0  0  0  0  0  0  0
  -30.9227  -14.0535   21.0349 C   0  0  0  0  0  0  0  0  0  0  0  0
  -28.1847  -25.7580   14.6787 C   0  0  0  0  0  0  0  0  0  0  0  0
  -32.5438  -21.6477   18.2310 C   0  0  0  0  0  0  0  0  0  0  0  0
  -30.8645  -19.2550   18.6780 C   0  0  0  0  0  0  0  0  0  0  0  0
  -28.0674  -24.2373   14.7431 C   0  0  0  0  0  0  0  0  0  0  0  0
  -29.3628  -13.1341   17.9692 C   0  0  0  0  0  0  0  0  0  0  0  0
  -27.7803  -23.7840   16.1710 C   0  0  0  0  0  0  0  0  0  0  0  0
  -27.9252  -12.8051   18.3783 C   0  0  0  0  0  0  0  0  0  0  0  0
  -30.3694  -12.6932   19.0303 C   0  0  0  0  0  0  0  0  0  0  0  0
  -28.6592  -12.8556   20.7961 C   0  0  0  0  0  0  0  0  0  0  0  0
  -28.9213  -24.1806   17.1156 C   0  0  1  0  0  0  0  0  0  0  0  0
  -31.3853  -21.2950   17.3032 C   0  0  1  0  0  0  0  0  0  0  0  0
  -27.6041  -13.3394   19.7879 C   0  0  2  0  0  0  0  0  0  0  0  0
  -32.1155  -13.9162   15.0619 C   0  0  0  0  0  0  0  0  0  0  0  0
  -29.1258  -17.7744   26.1887 C   0  0  0  0  0  0  0  0  0  0  0  0
  -30.1586  -15.8189   27.3887 C   0  0  0  0  0  0  0  0  0  0  0  0
  -27.6954  -18.6699   16.3792 C   0  0  0  0  0  0  0  0  0  0  0  0
  -28.1769  -16.2571   15.9159 C   0  0  0  0  0  0  0  0  0  0  0  0
  -28.7263  -17.9875   14.2053 C   0  0  0  0  0  0  0  0  0  0  0  0
  -34.7606  -16.0388   16.7864 C   0  0  0  0  0  0  0  0  0  0  0  0
  -33.1641  -17.9628   25.8325 C   0  0  0  0  0  0  0  0  0  0  0  0
  -32.8178  -20.0404   24.4658 C   0  0  0  0  0  0  0  0  0  1  0  0
  -30.1335  -17.8242   16.2994 C   0  0  1  0  0  0  0  0  0  0  0  0
  -32.7667  -15.2073   15.5327 C   0  0  2  0  0  0  0  0  0  0  0  0
  -30.4382  -17.0173   26.4632 C   0  0  0  0  0  0  0  0  0  0  0  0
  -28.6954  -17.6980   15.7218 C   0  0  0  0  0  0  0  0  0  0  0  0
  -32.3768  -15.8163   22.8319 N   0  0  0  0  0  0  0  0  0  0  0  0
  -25.8684  -11.6784   20.3444 N   0  0  0  0  0  0  0  0  0  0  0  0
  -26.1958  -12.9759   20.2197 N   0  0  0  0  0  0  0  0  0  0  0  0
  -31.0337  -19.8744   17.3531 N   0  0  0  0  0  0  0  0  0  0  0  0
  -30.0036  -13.2404   20.3386 N   0  0  0  0  0  0  0  0  0  0  0  0
  -25.3326  -15.1710   20.4365 N   0  0  0  0  0  0  0  0  0  0  0  0
  -21.8215  -12.5564   21.5466 N   0  0  0  0  0  0  0  0  0  0  0  0
  -30.4520  -14.5431   22.2529 N   0  0  0  0  0  0  0  0  0  0  0  0
  -30.0429  -23.2793   16.9597 N   0  0  0  0  0  0  0  0  0  0  0  0
  -31.1077  -16.9346   15.6766 N   0  0  0  0  0  0  0  0  0  0  0  0
  -34.0062  -14.8616   16.2844 N   0  3  0  0  0  0  0  0  0  0  0  0
  -32.6755  -19.3666   25.7971 N   0  3  0  0  0  0  0  0  0  0  0  0
  -22.5162  -14.7251   21.2766 O   0  0  0  0  0  0  0  0  0  0  0  0
  -29.3139  -21.5971   18.3954 O   0  0  0  0  0  0  0  0  0  0  0  0
  -30.8178  -19.7123   15.0372 O   0  0  0  0  0  0  0  0  0  0  0  0
  -31.7327  -15.8395   17.6228 O   0  0  0  0  0  0  0  0  0  0  0  0
  -32.0345  -14.3198   20.5714 O   0  0  0  0  0  0  0  0  0  0  0  0
  -21.7731   -6.9872   21.6749 O   0  0  0  0  0  0  0  0  0  0  0  0
  -32.0890  -19.4036   23.4126 O   0  0  0  0  0  0  0  0  0  1  0  0
  -24.2924   -3.0475   24.5965 F   0  0  0  0  0  0  0  0  0  0  0  0
  -20.7004   -6.0825   24.0568 F   0  0  0  0  0  0  0  0  0  0  0  0
  -31.1956  -17.8866   27.2281 F   0  0  0  0  0  0  0  0  0  0  0  0
  1  2  1  0  0  0  0
  1  5  2  0  0  0  0
  2  6  2  0  0  0  0
  3  8  2  0  0  0  0
  3 17  1  0  0  0  0
  4  9  1  0  0  0  0
  4 17  2  0  0  0  0
  5 19  1  0  0  0  0
  6 21  1  0  0  0  0
  7 10  2  0  0  0  0
  7 20  1  0  0  0  0
  8 25  1  0  0  0  0
  9 25  2  0  0  0  0
 10 26  1  0  0  0  0
 11 12  2  0  0  0  0
 11 27  1  0  0  0  0
 12 28  1  0  0  0  0
 13 22  1  0  0  0  0
 13 26  2  0  0  0  0
 14 23  1  0  0  0  0
 14 31  2  0  0  0  0
 15 28  2  0  0  0  0
 15 29  1  0  0  0  0
 16 24  1  0  0  0  0
 16 63  2  0  0  0  0
 17 30  1  0  0  0  0
 18 30  1  0  0  0  0
 18 32  2  0  0  0  0
 18 33  1  0  0  0  0
 19 21  2  0  0  0  0
 19 38  1  0  0  0  0
 20 22  2  0  0  0  0
 20 39  1  0  0  0  0
 21 47  1  0  0  0  0
 22 40  1  0  0  0  0
 23 24  2  0  0  0  0
 23 61  1  0  0  0  0
 24 57  1  0  0  0  0
 25 80  1  0  0  0  0
 26 81  1  0  0  0  0
 27 29  2  0  0  0  0
 27 80  1  0  0  0  0
 28 82  1  0  0  0  0
 29 83  1  0  0  0  0
 30 64  2  0  0  0  0
 31 63  1  0  0  0  0
 31 70  1  0  0  0  0
 32 65  1  0  0  0  0
 32 68  1  0  0  0  0
 33 69  1  0  0  0  0
 33 75  2  0  0  0  0
 34 48  1  0  0  0  0
 34 71  1  0  0  0  0
 34 76  2  0  0  0  0
 35 59  1  0  0  0  0
 35 66  1  0  0  0  0
 35 77  2  0  0  0  0
 36 60  1  0  0  0  0
 36 72  1  0  0  0  0
 36 78  2  0  0  0  0
 37 67  1  0  0  0  0
 37 70  1  0  0  0  0
 37 79  2  0  0  0  0
 38 41  1  0  0  0  0
 39 48  1  0  0  0  0
 40 66  1  0  0  0  0
 41 43  1  0  0  0  0
 42 44  1  0  0  0  0
 42 45  1  0  0  0  0
 43 47  1  0  0  0  0
 44 49  1  0  0  0  0
 45 67  1  0  0  0  0
 46 49  1  0  0  0  0
 46 67  1  0  0  0  0
 47 71  1  0  0  0  0
 48 66  1  0  0  0  0
 49 65  1  0  0  0  0
 50 60  1  0  0  0  0
 51 61  1  0  0  0  0
 52 61  1  0  0  0  0
 53 62  1  0  0  0  0
 54 62  1  0  0  0  0
 55 62  1  0  0  0  0
 56 73  1  0  0  0  0
 57 74  1  0  0  0  0
 58 74  1  0  0  0  0
 58 81  1  0  0  0  0
 59 62  1  0  0  0  0
 59 72  1  0  0  0  0
 60 73  1  0  0  0  0
 61 84  1  0  0  0  0
 64 65  1  0  0  0  0
M  CHG  2  73   1  74   1
M  ISO  4  37 100  58 101  70 100  81 101
M  END
> <Batch ID>
0122

> <Smiles>
CNC(C)C(=O)NC(C(=O)N1Cc2cc([101O:1][101CH2:1]NCc3cnc([100NH:0][100C:0](=O)N4CCCC(n5nc(-c6ccc(Oc7ccc(F)cc7F)cc6)c(C(N)=O)c5N)C4)cc3C(C)(C)F)ccc2CC1C(=O)NC1CCCc2ccccc21)C(C)(C)C

> <Shape>
0.193

> <Color>
0.183

> <Negative vol penalty>
0.000

$$$$

  -OEChem-04052320283D

 86 94  0     1  0  0  0  0  0999 V2000
  -16.8560  -28.9698   24.0366 C   0  0  0  0  0  0  0  0  0  0  0  0
  -17.3086  -27.9008   23.2700 C   0  0  0  0  0  0  0  0  0  0  0  0
  -26.7989  -12.4770   21.6087 C   0  0  0  0  0  0  0  0  0  0  0  0
  -25.8933  -14.1234   20.0901 C   0  0  0  0  0  0  0  0  0  0  0  0
  -17.5499  -30.1790   24.0231 C   0  0  0  0  0  0  0  0  0  0  0  0
  -18.4548  -28.0408   22.4884 C   0  0  0  0  0  0  0  0  0  0  0  0
  -24.0449  -24.2807   20.0532 C   0  0  0  0  0  0  0  0  0  0  0  0
  -25.9234  -11.5208   21.0943 C   0  0  0  0  0  0  0  0  0  0  0  0
  -25.0177  -13.1672   19.5756 C   0  0  0  0  0  0  0  0  0  0  0  0
  -24.7036  -23.9796   18.8620 C   0  0  0  0  0  0  0  0  0  0  0  0
  -23.6776   -8.7393   20.4285 C   0  0  0  0  0  0  0  0  0  0  0  0
  -23.0022   -7.9220   21.3348 C   0  0  0  0  0  0  0  0  0  0  0  0
  -25.8661  -26.0902   18.9784 C   0  0  0  0  0  0  0  0  0  0  0  0
  -21.9868   -9.8720   22.3366 C   0  0  0  0  0  0  0  0  0  0  0  0
  -30.1423  -21.7664   18.0197 C   0  0  0  0  0  0  0  0  0  0  0  0
  -26.7839  -13.7784   21.1066 C   0  0  0  0  0  0  0  0  0  0  0  0
  -28.9868  -15.0624   21.1835 C   0  0  0  0  0  0  0  0  0  0  0  0
  -18.7107  -30.3308   23.2484 C   0  0  0  0  0  0  0  0  0  0  0  0
  -24.2841  -25.4956   20.7115 C   0  0  0  0  0  0  0  0  0  0  0  0
  -19.1642  -29.2536   22.4634 C   0  0  0  0  0  0  0  0  0  0  0  0
  -25.2110  -26.4032   20.1792 C   0  0  0  0  0  0  0  0  0  0  0  0
  -25.0328  -11.8659   20.0777 C   0  0  0  0  0  0  0  0  0  0  0  0
  -25.6123  -24.8857   18.3228 C   0  0  0  0  0  0  0  0  0  0  0  0
  -23.5077  -10.1230   20.4763 C   0  0  0  0  0  0  0  0  0  0  0  0
  -22.1568   -8.4883   22.2888 C   0  0  0  0  0  0  0  0  0  0  0  0
  -22.6623  -10.6893   21.4304 C   0  0  0  0  0  0  0  0  0  0  0  0
  -27.6877  -14.7667   21.6380 C   0  0  0  0  0  0  0  0  0  0  0  0
  -29.3311  -22.8798   18.0205 C   0  0  0  0  0  0  0  0  0  0  0  0
  -29.8972  -21.5863   20.2862 C   0  0  0  0  0  0  0  0  0  0  0  0
  -29.0866  -22.7001   20.2872 C   0  0  0  0  0  0  0  0  0  0  0  0
  -29.4205  -16.0674   22.0131 C   0  0  0  0  0  0  0  0  0  0  0  0
  -29.7347  -14.4806   20.1074 C   0  0  0  0  0  0  0  0  0  0  0  0
  -22.5059  -28.0124   21.4912 C   0  0  0  0  0  0  0  0  0  0  0  0
  -25.2014  -28.9484   23.0340 C   0  0  0  0  0  0  0  0  0  0  0  0
  -28.5976  -28.7555   23.3090 C   0  0  0  0  0  0  0  0  0  0  0  0
  -26.5490  -20.1980   25.2603 C   0  0  0  0  0  0  0  0  0  0  0  0
  -19.4004  -31.6720   23.2293 C   0  0  0  0  0  0  0  0  0  0  0  0
  -23.5853  -25.7938   22.0096 C   0  0  0  0  0  0  0  0  0  0  0  0
  -25.5184  -27.7123   20.8576 C   0  0  0  0  0  0  0  0  0  0  0  0
  -20.8179  -31.6199   22.6649 C   0  0  0  0  0  0  0  0  0  0  0  0
  -28.8580  -17.7635   26.4513 C   0  0  0  0  0  0  0  0  0  0  0  0
  -20.8487  -30.8091   21.3732 C   0  0  0  0  0  0  0  0  0  0  0  0
  -28.9371  -16.7461   25.3118 C   0  0  0  0  0  0  0  0  0  0  0  0
  -27.4466  -18.3247   26.6099 C   0  0  0  0  0  0  0  0  0  0  0  0
  -26.9428  -17.8742   24.2399 C   0  0  0  0  0  0  0  0  0  0  0  0
  -20.4176  -29.3587   21.6219 C   0  0  1  0  0  0  0  0  0  0  0  0
  -23.5221  -27.2849   22.3255 C   0  0  1  0  0  0  0  0  0  0  0  0
  -28.3591  -17.3218   24.0049 C   0  0  2  0  0  0  0  0  0  0  0  0
  -30.2188  -20.8579   21.5464 C   0  0  0  0  0  0  0  0  0  0  0  0
  -30.5209  -29.6641   24.6404 C   0  0  0  0  0  0  0  0  0  0  0  0
  -27.5818  -23.8231   14.6829 C   0  0  0  0  0  0  0  0  0  0  0  0
  -25.0096  -31.5838   21.5082 C   0  0  0  0  0  0  0  0  0  0  0  0
  -27.3916  -32.0376   22.1314 C   0  0  0  0  0  0  0  0  0  0  0  0
  -25.6590  -31.8151   23.9122 C   0  0  0  0  0  0  0  0  0  0  0  0
  -29.3521  -26.0618   24.2752 C   0  0  0  0  0  0  0  0  0  0  0  0
  -29.0188  -23.6007   16.7316 C   0  0  0  0  0  0  0  0  0  0  0  0
  -28.4936  -23.2285   21.5484 C   0  0  0  0  0  0  0  0  0  0  0  0
  -25.6581  -21.9773   23.7772 C   0  0  0  0  0  0  0  0  0  0  0  0
  -26.7908  -22.8892   23.3441 C   0  0  0  0  0  0  0  0  0  0  0  0
  -26.5038  -23.2170   16.8818 C   0  0  0  0  0  0  0  0  0  1  0  0
  -26.4216  -29.7550   22.6606 C   0  0  1  0  0  0  0  0  0  0  0  0
  -29.5005  -28.5439   24.5109 C   0  0  2  0  0  0  0  0  0  0  0  0
  -27.7605  -23.0765   16.0111 C   0  0  1  0  0  0  0  0  0  0  0  0
  -26.1134  -31.2742   22.5391 C   0  0  0  0  0  0  0  0  0  0  0  0
  -30.4398  -21.0996   19.1526 N   0  0  0  0  0  0  0  0  0  0  0  0
  -27.3201  -15.5227   22.6760 N   0  0  0  0  0  0  0  0  0  0  0  0
  -28.7888  -23.3666   19.1543 N   0  0  0  0  0  0  0  0  0  0  0  0
  -28.3948  -16.3032   22.8806 N   0  0  0  0  0  0  0  0  0  0  0  0
  -24.8049  -27.9608   22.1212 N   0  0  0  0  0  0  0  0  0  0  0  0
  -26.9577  -18.8562   25.3354 N   0  0  0  0  0  0  0  0  0  0  0  0
  -30.5753  -16.7636   22.0780 N   0  0  0  0  0  0  0  0  0  0  0  0
  -29.1391  -13.4585   19.3558 N   0  0  0  0  0  0  0  0  0  0  0  0
  -21.4972  -28.6068   22.2250 N   0  0  0  0  0  0  0  0  0  0  0  0
  -27.4441  -29.4300   23.6492 N   0  0  0  0  0  0  0  0  0  0  0  0
  -26.1054  -20.6228   24.0139 N   0  0  0  0  0  0  0  0  0  0  0  0
  -30.2336  -27.2523   24.3871 N   0  3  0  0  0  0  0  0  0  0  0  0
  -27.3581  -22.4098   22.0570 N   0  3  0  0  0  0  0  0  0  0  0  0
  -30.9030  -14.8447   19.8314 O   0  0  0  0  0  0  0  0  0  0  0  0
  -22.6289  -28.0340   20.2721 O   0  0  0  0  0  0  0  0  0  0  0  0
  -24.6257  -29.1811   24.0999 O   0  0  0  0  0  0  0  0  0  0  0  0
  -28.8884  -28.3650   22.1805 O   0  0  0  0  0  0  0  0  0  0  0  0
  -26.5822  -20.9623   26.2307 O   0  0  0  0  0  0  0  0  0  0  0  0
  -24.1784  -10.9330   19.5754 O   0  0  0  0  0  0  0  0  0  0  0  0
  -26.2561  -24.5945   17.1599 O   0  0  0  0  0  0  0  0  0  1  0  0
  -21.5070   -7.7032   23.1581 F   0  0  0  0  0  0  0  0  0  0  0  0
  -22.4942  -12.0179   21.4804 F   0  0  0  0  0  0  0  0  0  0  0  0
  1  2  1  0  0  0  0
  1  5  2  0  0  0  0
  2  6  2  0  0  0  0
  3  8  2  0  0  0  0
  3 16  1  0  0  0  0
  4  9  1  0  0  0  0
  4 16  2  0  0  0  0
  5 18  1  0  0  0  0
  6 20  1  0  0  0  0
  7 10  2  0  0  0  0
  7 19  1  0  0  0  0
  8 22  1  0  0  0  0
  9 22  2  0  0  0  0
 10 23  1  0  0  0  0
 11 12  2  0  0  0  0
 11 24  1  0  0  0  0
 12 25  1  0  0  0  0
 13 21  1  0  0  0  0
 13 23  2  0  0  0  0
 14 25  2  0  0  0  0
 14 26  1  0  0  0  0
 15 28  1  0  0  0  0
 15 65  2  0  0  0  0
 16 27  1  0  0  0  0
 17 27  1  0  0  0  0
 17 31  2  0  0  0  0
 17 32  1  0  0  0  0
 18 20  2  0  0  0  0
 18 37  1  0  0  0  0
 19 21  2  0  0  0  0
 19 38  1  0  0  0  0
 20 46  1  0  0  0  0
 21 39  1  0  0  0  0
 22 83  1  0  0  0  0
 23 84  1  0  0  0  0
 24 26  2  0  0  0  0
 24 83  1  0  0  0  0
 25 85  1  0  0  0  0
 26 86  1  0  0  0  0
 27 66  2  0  0  0  0
 28 56  1  0  0  0  0
 28 67  2  0  0  0  0
 29 30  2  0  0  0  0
 29 49  1  0  0  0  0
 29 65  1  0  0  0  0
 30 57  1  0  0  0  0
 30 67  1  0  0  0  0
 31 68  1  0  0  0  0
 31 71  1  0  0  0  0
 32 72  1  0  0  0  0
 32 78  2  0  0  0  0
 33 47  1  0  0  0  0
 33 73  1  0  0  0  0
 33 79  2  0  0  0  0
 34 61  1  0  0  0  0
 34 69  1  0  0  0  0
 34 80  2  0  0  0  0
 35 62  1  0  0  0  0
 35 74  1  0  0  0  0
 35 81  2  0  0  0  0
 36 70  1  0  0  0  0
 36 75  1  0  0  0  0
 36 82  2  0  0  0  0
 37 40  1  0  0  0  0
 38 47  1  0  0  0  0
 39 69  1  0  0  0  0
 40 42  1  0  0  0  0
 41 43  1  0  0  0  0
 41 44  1  0  0  0  0
 42 46  1  0  0  0  0
 43 48  1  0  0  0  0
 44 70  1  0  0  0  0
 45 48  1  0  0  0  0
 45 70  1  0  0  0  0
 46 73  1  0  0  0  0
 47 69  1  0  0  0  0
 48 68  1  0  0  0  0
 50 62  1  0  0  0  0
 51 63  1  0  0  0  0
 52 64  1  0  0  0  0
 53 64  1  0  0  0  0
 54 64  1  0  0  0  0
 55 76  1  0  0  0  0
 56 63  1  0  0  0  0
 57 77  1  0  0  0  0
 58 59  1  0  0  0  0
 58 75  1  0  0  0  0
 59 77  1  0  0  0  0
 60 63  1  0  0  0  0
 60 84  1  0  0  0  0
 61 64  1  0  0  0  0
 61 74  1  0  0  0  0
 62 76  1  0  0  0  0
 66 68  1  0  0  0  0
M  CHG  2  76   1  77   1
M  ISO  4  36 100  60 101  75 100  84 101
M  END
> <Batch ID>
0122

> <Smiles>
CNC(C)C(=O)NC(C(=O)N1Cc2cc([101O:1][101CH2:1]C(C)Cc3cnc(C)c(CNCC[100NH:0][100C:0](=O)N4CCCC(n5nc(-c6ccc(Oc7ccc(F)cc7F)cc6)c(C(N)=O)c5N)C4)n3)ccc2CC1C(=O)NC1CCCc2ccccc21)C(C)(C)C

> <Shape>
0.250

> <Color>
0.079

> <Negative vol penalty>
0.000

$$$$

  -OEChem-04052320283D

 86 94  0     1  0  0  0  0  0999 V2000
  -23.1651   -8.5907   20.9235 C   0  0  0  0  0  0  0  0  0  0  0  0
  -22.5765   -9.6653   20.2646 C   0  0  0  0  0  0  0  0  0  0  0  0
  -25.4153  -27.5095   22.1055 C   0  0  0  0  0  0  0  0  0  0  0  0
  -25.0879  -28.7548   20.0612 C   0  0  0  0  0  0  0  0  0  0  0  0
  -24.2321   -8.8081   21.7942 C   0  0  0  0  0  0  0  0  0  0  0  0
  -23.0538  -10.9582   20.4769 C   0  0  0  0  0  0  0  0  0  0  0  0
  -23.3304  -15.4999   16.3779 C   0  0  0  0  0  0  0  0  0  0  0  0
  -26.6241  -27.0181   21.6126 C   0  0  0  0  0  0  0  0  0  0  0  0
  -26.2967  -28.2634   19.5683 C   0  0  0  0  0  0  0  0  0  0  0  0
  -22.4975  -16.5896   16.1276 C   0  0  0  0  0  0  0  0  0  0  0  0
  -27.6455  -24.6202   19.4606 C   0  0  0  0  0  0  0  0  0  0  0  0
  -27.9049  -23.2592   19.6217 C   0  0  0  0  0  0  0  0  0  0  0  0
  -23.9170  -17.9810   17.4945 C   0  0  0  0  0  0  0  0  0  0  0  0
  -29.8807  -23.7880   20.9077 C   0  0  0  0  0  0  0  0  0  0  0  0
  -24.6472  -28.3778   21.3297 C   0  0  0  0  0  0  0  0  0  0  0  0
  -23.1997  -30.0613   22.5860 C   0  0  0  0  0  0  0  0  0  0  0  0
  -24.7291  -10.1032   22.0099 C   0  0  0  0  0  0  0  0  0  0  0  0
  -24.4588  -15.6403   17.1986 C   0  0  0  0  0  0  0  0  0  0  0  0
  -24.1276  -11.1932   21.3523 C   0  0  0  0  0  0  0  0  0  0  0  0
  -24.7641  -16.8922   17.7515 C   0  0  0  0  0  0  0  0  0  0  0  0
  -27.0648  -27.3951   20.3440 C   0  0  0  0  0  0  0  0  0  0  0  0
  -22.7891  -17.8296   16.6882 C   0  0  0  0  0  0  0  0  0  0  0  0
  -28.5037  -25.5651   20.0230 C   0  0  0  0  0  0  0  0  0  0  0  0
  -29.0224  -22.8431   20.3452 C   0  0  0  0  0  0  0  0  0  0  0  0
  -29.6213  -25.1490   20.7465 C   0  0  0  0  0  0  0  0  0  0  0  0
  -23.3981  -28.8853   21.8381 C   0  0  0  0  0  0  0  0  0  0  0  0
  -21.8470  -30.0942   22.8217 C   0  0  0  0  0  0  0  0  0  0  0  0
  -24.1529  -31.0369   23.0281 C   0  0  0  0  0  0  0  0  0  0  0  0
  -25.3988  -14.3694   19.9563 C   0  0  0  0  0  0  0  0  0  0  0  0
  -28.1323  -15.9989   19.3280 C   0  0  0  0  0  0  0  0  0  0  0  0
  -29.6519  -18.5969   17.7191 C   0  0  0  0  0  0  0  0  0  0  0  0
  -20.3794  -25.6442   19.9056 C   0  0  0  0  0  0  0  0  0  0  0  0
  -25.8536  -10.2942   22.9966 C   0  0  0  0  0  0  0  0  0  0  0  0
  -25.3621  -14.4615   17.4371 C   0  0  0  0  0  0  0  0  0  0  0  0
  -25.9746  -17.1002   18.6231 C   0  0  0  0  0  0  0  0  0  0  0  0
  -26.5428  -11.6512   22.8794 C   0  0  0  0  0  0  0  0  0  0  0  0
  -19.8895  -26.2903   23.3855 C   0  0  0  0  0  0  0  0  0  0  0  0
  -18.8249  -26.1382   16.6669 C   0  0  0  0  0  0  0  0  0  0  0  0
  -25.5088  -12.7688   22.7861 C   0  0  0  0  0  0  0  0  0  0  0  0
  -19.4959  -27.7614   23.4582 C   0  0  0  0  0  0  0  0  0  0  0  0
  -20.2664  -25.9547   16.2136 C   0  0  0  0  0  0  0  0  0  0  0  0
  -19.3168  -25.6435   22.1339 C   0  0  0  0  0  0  0  0  0  0  0  0
  -18.9870  -26.7164   18.0642 C   0  0  0  0  0  0  0  0  0  0  0  0
  -19.4494  -27.7985   20.8993 C   0  0  0  0  0  0  0  0  0  0  0  0
  -24.6332  -12.6075   21.5376 C   0  0  1  0  0  0  0  0  0  0  0  0
  -26.1992  -14.5972   18.7053 C   0  0  1  0  0  0  0  0  0  0  0  0
  -19.8789  -28.5374   22.1878 C   0  0  2  0  0  0  0  0  0  0  0  0
  -20.9804  -25.4979   17.4887 C   0  0  1  0  0  0  0  0  0  0  0  0
  -31.8889  -19.6964   17.4288 C   0  0  0  0  0  0  0  0  0  0  0  0
  -22.5687  -27.4568   17.3680 C   0  0  0  0  0  0  0  0  0  0  0  0
  -25.6239  -24.0191   15.2624 C   0  0  0  0  0  0  0  0  0  0  0  0
  -27.8700  -17.2579   22.0949 C   0  0  0  0  0  0  0  0  0  0  0  0
  -29.5272  -18.9951   21.3851 C   0  0  0  0  0  0  0  0  0  0  0  0
  -30.1980  -16.5938   21.4675 C   0  0  0  0  0  0  0  0  0  0  0  0
  -29.6589  -18.0771   14.8056 C   0  0  0  0  0  0  0  0  0  0  0  0
  -23.5352  -23.1703   14.1510 C   0  0  0  0  0  0  0  0  0  0  0  0
  -22.1707  -22.4919   14.2156 C   0  0  0  0  0  0  0  0  0  0  0  0
  -21.0152  -20.3528   14.7882 C   0  0  0  0  0  0  0  0  0  0  0  0
  -23.5047  -23.8712   16.6450 C   0  0  0  0  0  0  0  0  0  0  0  0
  -21.2914  -18.9191   15.1962 C   0  0  0  0  0  0  0  0  0  1  0  0
  -28.6455  -17.3849   19.6356 C   0  0  1  0  0  0  0  0  0  0  0  0
  -30.9169  -18.6621   16.8826 C   0  0  2  0  0  0  0  0  0  0  0  0
  -22.4343  -25.9513   17.5203 C   0  0  2  0  0  0  0  0  0  0  0  0
  -24.3066  -23.2648   15.4854 C   0  0  2  0  0  0  0  0  0  0  0  0
  -29.0362  -17.5539   21.1310 C   0  0  0  0  0  0  0  0  0  0  0  0
  -22.2624  -28.2192   21.6136 N   0  0  0  0  0  0  0  0  0  0  0  0
  -21.3373  -28.9792   22.2242 N   0  0  0  0  0  0  0  0  0  0  0  0
  -26.8236  -15.9157   18.8320 N   0  0  0  0  0  0  0  0  0  0  0  0
  -19.7174  -26.3533   20.9189 N   0  0  0  0  0  0  0  0  0  0  0  0
  -20.1887  -26.0643   18.5873 N   0  0  0  0  0  0  0  0  0  0  0  0
  -21.0557  -30.9679   23.4797 N   0  0  0  0  0  0  0  0  0  0  0  0
  -25.5023  -30.8496   22.6988 N   0  0  0  0  0  0  0  0  0  0  0  0
  -25.3478  -13.0485   20.3588 N   0  0  0  0  0  0  0  0  0  0  0  0
  -29.7379  -17.6325   18.7009 N   0  0  0  0  0  0  0  0  0  0  0  0
  -30.5887  -19.0232   15.4744 N   0  3  0  0  0  0  0  0  0  0  0  0
  -22.3067  -21.0799   14.6421 N   0  3  0  0  0  0  0  0  0  0  0  0
  -23.1548  -25.2946   16.3967 N   0  3  0  0  0  0  0  0  0  0  0  0
  -23.8202  -32.0362   23.7094 O   0  0  0  0  0  0  0  0  0  0  0  0
  -24.8681  -15.3218   20.5158 O   0  0  0  0  0  0  0  0  0  0  0  0
  -28.8682  -15.0265   19.5139 O   0  0  0  0  0  0  0  0  0  0  0  0
  -28.6855  -19.3308   17.5238 O   0  0  0  0  0  0  0  0  0  0  0  0
  -21.1012  -24.6724   20.1658 O   0  0  0  0  0  0  0  0  0  0  0  0
  -28.2444  -26.9160   19.8628 O   0  0  0  0  0  0  0  0  0  0  0  0
  -21.9715  -18.9023   16.4443 O   0  0  0  0  0  0  0  0  0  1  0  0
  -29.2705  -21.5361   20.5011 F   0  0  0  0  0  0  0  0  0  0  0  0
  -30.4488  -26.0521   21.2902 F   0  0  0  0  0  0  0  0  0  0  0  0
  1  2  1  0  0  0  0
  1  5  2  0  0  0  0
  2  6  2  0  0  0  0
  3  8  2  0  0  0  0
  3 15  1  0  0  0  0
  4  9  1  0  0  0  0
  4 15  2  0  0  0  0
  5 17  1  0  0  0  0
  6 19  1  0  0  0  0
  7 10  2  0  0  0  0
  7 18  1  0  0  0  0
  8 21  1  0  0  0  0
  9 21  2  0  0  0  0
 10 22  1  0  0  0  0
 11 12  2  0  0  0  0
 11 23  1  0  0  0  0
 12 24  1  0  0  0  0
 13 20  1  0  0  0  0
 13 22  2  0  0  0  0
 14 24  2  0  0  0  0
 14 25  1  0  0  0  0
 15 26  1  0  0  0  0
 16 26  1  0  0  0  0
 16 27  2  0  0  0  0
 16 28  1  0  0  0  0
 17 19  2  0  0  0  0
 17 33  1  0  0  0  0
 18 20  2  0  0  0  0
 18 34  1  0  0  0  0
 19 45  1  0  0  0  0
 20 35  1  0  0  0  0
 21 83  1  0  0  0  0
 22 84  1  0  0  0  0
 23 25  2  0  0  0  0
 23 83  1  0  0  0  0
 24 85  1  0  0  0  0
 25 86  1  0  0  0  0
 26 66  2  0  0  0  0
 27 67  1  0  0  0  0
 27 71  1  0  0  0  0
 28 72  1  0  0  0  0
 28 78  2  0  0  0  0
 29 46  1  0  0  0  0
 29 73  1  0  0  0  0
 29 79  2  0  0  0  0
 30 61  1  0  0  0  0
 30 68  1  0  0  0  0
 30 80  2  0  0  0  0
 31 62  1  0  0  0  0
 31 74  1  0  0  0  0
 31 81  2  0  0  0  0
 32 69  1  0  0  0  0
 32 70  1  0  0  0  0
 32 82  2  0  0  0  0
 33 36  1  0  0  0  0
 34 46  1  0  0  0  0
 35 68  1  0  0  0  0
 36 39  1  0  0  0  0
 37 40  1  0  0  0  0
 37 42  1  0  0  0  0
 38 41  1  0  0  0  0
 38 43  1  0  0  0  0
 39 45  1  0  0  0  0
 40 47  1  0  0  0  0
 41 48  1  0  0  0  0
 42 69  1  0  0  0  0
 43 70  1  0  0  0  0
 44 47  1  0  0  0  0
 44 69  1  0  0  0  0
 45 73  1  0  0  0  0
 46 68  1  0  0  0  0
 47 67  1  0  0  0  0
 48 63  1  0  0  0  0
 48 70  1  0  0  0  0
 49 62  1  0  0  0  0
 50 63  1  0  0  0  0
 51 64  1  0  0  0  0
 52 65  1  0  0  0  0
 53 65  1  0  0  0  0
 54 65  1  0  0  0  0
 55 75  1  0  0  0  0
 56 57  1  0  0  0  0
 56 64  1  0  0  0  0
 57 76  1  0  0  0  0
 58 60  1  0  0  0  0
 58 76  1  0  0  0  0
 59 64  1  0  0  0  0
 59 77  1  0  0  0  0
 60 84  1  0  0  0  0
 61 65  1  0  0  0  0
 61 74  1  0  0  0  0
 62 75  1  0  0  0  0
 63 77  1  0  0  0  0
 66 67  1  0  0  0  0
M  CHG  3  75   1  76   1  77   1
M  ISO  4  32 100  60 101  70 100  84 101
M  END
> <Batch ID>
0122

> <Smiles>
CNC(C)C(=O)NC(C(=O)N1Cc2cc([101O:1][101CH2:1]CNCCC(C)CNC(C)C3CCC[100N:0]3[100C:0](=O)N3CCCC(n4nc(-c5ccc(Oc6ccc(F)cc6F)cc5)c(C(N)=O)c4N)C3)ccc2CC1C(=O)NC1CCCc2ccccc21)C(C)(C)C

> <Shape>
0.242

> <Color>
0.078

> <Negative vol penalty>
0.000

$$$$

  -OEChem-04052320283D

 86 95  0     1  0  0  0  0  0999 V2000
  -21.5668  -13.1982   19.0178 C   0  0  0  0  0  0  0  0  0  0  0  0
  -21.6965  -14.4766   19.5510 C   0  0  0  0  0  0  0  0  0  0  0  0
  -30.3408  -25.4674   20.6552 C   0  0  0  0  0  0  0  0  0  0  0  0
  -30.6889  -27.4844   19.3715 C   0  0  0  0  0  0  0  0  0  0  0  0
  -22.5967  -12.2714   19.1734 C   0  0  0  0  0  0  0  0  0  0  0  0
  -22.8559  -14.8286   20.2411 C   0  0  0  0  0  0  0  0  0  0  0  0
  -21.0402  -24.8863   23.0686 C   0  0  0  0  0  0  0  0  0  0  0  0
  -21.7454  -26.2598   21.2103 C   0  0  0  0  0  0  0  0  0  0  0  0
  -24.5963  -19.3951   18.9133 C   0  0  0  0  0  0  0  0  0  0  0  0
  -21.5249  -23.7533   22.4152 C   0  0  0  0  0  0  0  0  0  0  0  0
  -22.2302  -25.1268   20.5569 C   0  0  0  0  0  0  0  0  0  0  0  0
  -31.7178  -25.3496   20.8435 C   0  0  0  0  0  0  0  0  0  0  0  0
  -32.0659  -27.3666   19.5599 C   0  0  0  0  0  0  0  0  0  0  0  0
  -23.9472  -20.5052   19.4521 C   0  0  0  0  0  0  0  0  0  0  0  0
  -34.6131  -25.5636   18.2591 C   0  0  0  0  0  0  0  0  0  0  0  0
  -35.4379  -25.7612   17.1518 C   0  0  0  0  0  0  0  0  0  0  0  0
  -25.6991  -20.7241   21.0959 C   0  0  0  0  0  0  0  0  0  0  0  0
  -36.5231  -27.5968   18.2877 C   0  0  0  0  0  0  0  0  0  0  0  0
  -29.8263  -26.5348   19.9191 C   0  0  0  0  0  0  0  0  0  0  0  0
  -27.5500  -25.7317   19.0937 C   0  0  0  0  0  0  0  0  0  0  0  0
  -21.1504  -26.1395   22.4662 C   0  0  0  0  0  0  0  0  0  0  0  0
  -23.7734  -12.6153   19.8574 C   0  0  0  0  0  0  0  0  0  0  0  0
  -25.7980  -18.9338   19.4696 C   0  0  0  0  0  0  0  0  0  0  0  0
  -23.9020  -13.9051   20.4072 C   0  0  0  0  0  0  0  0  0  0  0  0
  -26.3627  -19.6095   20.5608 C   0  0  0  0  0  0  0  0  0  0  0  0
  -22.1199  -23.8735   21.1593 C   0  0  0  0  0  0  0  0  0  0  0  0
  -32.5804  -26.2992   20.2959 C   0  0  0  0  0  0  0  0  0  0  0  0
  -24.4971  -21.1681   20.5453 C   0  0  0  0  0  0  0  0  0  0  0  0
  -34.7432  -26.3826   19.3808 C   0  0  0  0  0  0  0  0  0  0  0  0
  -36.3929  -26.7778   17.1660 C   0  0  0  0  0  0  0  0  0  0  0  0
  -35.6982  -27.3992   19.3950 C   0  0  0  0  0  0  0  0  0  0  0  0
  -28.4039  -26.6567   19.7237 C   0  0  0  0  0  0  0  0  0  0  0  0
  -26.3059  -26.3092   19.1648 C   0  0  0  0  0  0  0  0  0  0  0  0
  -27.8542  -24.4638   18.4974 C   0  0  0  0  0  0  0  0  0  0  0  0
  -26.7356  -16.2331   20.8591 C   0  0  0  0  0  0  0  0  0  0  0  0
  -29.6468  -17.6619   20.7836 C   0  0  0  0  0  0  0  0  0  0  0  0
  -31.4515  -20.5553   20.6484 C   0  0  0  0  0  0  0  0  0  0  0  0
  -23.0804  -29.5528   22.7130 C   0  0  0  0  0  0  0  0  0  0  0  0
  -24.8398  -11.5647   20.0411 C   0  0  0  0  0  0  0  0  0  0  0  0
  -26.4995  -17.7511   18.8601 C   0  0  0  0  0  0  0  0  0  0  0  0
  -27.6612  -19.1666   21.1821 C   0  0  0  0  0  0  0  0  0  0  0  0
  -26.1915  -12.1358   20.4618 C   0  0  0  0  0  0  0  0  0  0  0  0
  -18.1345  -26.7134   23.3391 C   0  0  0  0  0  0  0  0  0  0  0  0
  -24.6354  -30.9167   19.8150 C   0  0  0  0  0  0  0  0  0  0  0  0
  -26.0159  -13.1463   21.5909 C   0  0  0  0  0  0  0  0  0  0  0  0
  -25.6863  -29.8713   19.4375 C   0  0  0  0  0  0  0  0  0  0  0  0
  -17.7311  -27.8268   22.3765 C   0  0  0  0  0  0  0  0  0  0  0  0
  -19.4002  -27.0824   24.1167 C   0  0  0  0  0  0  0  0  0  0  0  0
  -20.1587  -28.5486   22.2416 C   0  0  0  0  0  0  0  0  0  0  0  0
  -24.4892  -31.0486   21.3294 C   0  0  0  0  0  0  0  0  0  0  0  0
  -25.2770  -28.7371   21.6612 C   0  0  0  0  0  0  0  0  0  0  0  0
  -25.1547  -14.3325   21.1408 C   0  0  1  0  0  0  0  0  0  0  0  0
  -27.4532  -17.0579   19.8283 C   0  0  1  0  0  0  0  0  0  0  0  0
  -25.4203  -28.5283   20.1439 C   0  0  2  0  0  0  0  0  0  0  0  0
  -18.8887  -28.2014   21.4568 C   0  0  2  0  0  0  0  0  0  0  0  0
  -20.6140  -27.3945   23.1890 C   0  0  2  0  0  0  0  0  0  0  0  0
  -33.8124  -21.4059   20.6401 C   0  0  0  0  0  0  0  0  0  0  0  0
  -29.8458  -17.1320   23.7818 C   0  0  0  0  0  0  0  0  0  0  0  0
  -31.7130  -18.7969   23.8816 C   0  0  0  0  0  0  0  0  0  0  0  0
  -31.9603  -16.7289   22.5086 C   0  0  0  0  0  0  0  0  0  0  0  0
  -31.1180  -21.7957   17.9821 C   0  0  0  0  0  0  0  0  0  0  0  0
  -22.6426  -22.6545   20.4579 C   0  0  0  0  0  0  0  0  0  1  0  0
  -21.7715  -27.9324   24.0621 C   0  0  0  0  0  0  0  0  0  0  0  0
  -30.4177  -18.5675   21.7135 C   0  0  1  0  0  0  0  0  0  0  0  0
  -32.6321  -20.9668   19.7875 C   0  0  2  0  0  0  0  0  0  0  0  0
  -30.9587  -17.8137   22.9611 C   0  0  0  0  0  0  0  0  0  0  0  0
  -27.7570  -27.7397   20.1627 N   0  0  0  0  0  0  0  0  0  0  0  0
  -26.4834  -27.4989   19.8078 N   0  0  0  0  0  0  0  0  0  0  0  0
  -28.3059  -18.0013   20.5544 N   0  0  0  0  0  0  0  0  0  0  0  0
  -24.2369  -29.7403   21.9381 N   0  0  0  0  0  0  0  0  0  0  0  0
  -25.0884  -25.9105   18.7394 N   0  0  0  0  0  0  0  0  0  0  0  0
  -27.7998  -23.3171   19.3015 N   0  0  0  0  0  0  0  0  0  0  0  0
  -25.9328  -15.2421   20.3273 N   0  0  0  0  0  0  0  0  0  0  0  0
  -31.4523  -19.2000   20.9024 N   0  0  0  0  0  0  0  0  0  0  0  0
  -22.9145  -28.2813   23.2481 N   0  0  0  0  0  0  0  0  0  0  0  0
  -18.4889  -29.3857   20.6475 N   0  3  0  0  0  0  0  0  0  0  0  0
  -32.2521  -22.0968   18.8932 N   0  3  0  0  0  0  0  0  0  0  0  0
  -28.1811  -24.3530   17.2914 O   0  0  0  0  0  0  0  0  0  0  0  0
  -26.8994  -16.4768   22.0489 O   0  0  0  0  0  0  0  0  0  0  0  0
  -30.2155  -16.6933   20.2736 O   0  0  0  0  0  0  0  0  0  0  0  0
  -30.6144  -21.3566   21.0580 O   0  0  0  0  0  0  0  0  0  0  0  0
  -22.2542  -30.4506   22.9089 O   0  0  0  0  0  0  0  0  0  0  0  0
  -33.9241  -26.1846   20.4797 O   0  0  0  0  0  0  0  0  0  0  0  0
  -23.8653  -22.2515   21.0735 O   0  0  0  0  0  0  0  0  0  1  0  0
  -37.1860  -26.9664   16.1032 F   0  0  0  0  0  0  0  0  0  0  0  0
  -35.8287  -28.1884   20.4701 F   0  0  0  0  0  0  0  0  0  0  0  0
  1  2  1  0  0  0  0
  1  5  2  0  0  0  0
  2  6  2  0  0  0  0
  3 12  2  0  0  0  0
  3 19  1  0  0  0  0
  4 13  1  0  0  0  0
  4 19  2  0  0  0  0
  5 22  1  0  0  0  0
  6 24  1  0  0  0  0
  7 10  2  0  0  0  0
  7 21  1  0  0  0  0
  8 11  1  0  0  0  0
  8 21  2  0  0  0  0
  9 14  2  0  0  0  0
  9 23  1  0  0  0  0
 10 26  1  0  0  0  0
 11 26  2  0  0  0  0
 12 27  1  0  0  0  0
 13 27  2  0  0  0  0
 14 28  1  0  0  0  0
 15 16  2  0  0  0  0
 15 29  1  0  0  0  0
 16 30  1  0  0  0  0
 17 25  1  0  0  0  0
 17 28  2  0  0  0  0
 18 30  2  0  0  0  0
 18 31  1  0  0  0  0
 19 32  1  0  0  0  0
 20 32  1  0  0  0  0
 20 33  2  0  0  0  0
 20 34  1  0  0  0  0
 21 56  1  0  0  0  0
 22 24  2  0  0  0  0
 22 39  1  0  0  0  0
 23 25  2  0  0  0  0
 23 40  1  0  0  0  0
 24 52  1  0  0  0  0
 25 41  1  0  0  0  0
 26 62  1  0  0  0  0
 27 83  1  0  0  0  0
 28 84  1  0  0  0  0
 29 31  2  0  0  0  0
 29 83  1  0  0  0  0
 30 85  1  0  0  0  0
 31 86  1  0  0  0  0
 32 67  2  0  0  0  0
 33 68  1  0  0  0  0
 33 71  1  0  0  0  0
 34 72  1  0  0  0  0
 34 78  2  0  0  0  0
 35 53  1  0  0  0  0
 35 73  1  0  0  0  0
 35 79  2  0  0  0  0
 36 64  1  0  0  0  0
 36 69  1  0  0  0  0
 36 80  2  0  0  0  0
 37 65  1  0  0  0  0
 37 74  1  0  0  0  0
 37 81  2  0  0  0  0
 38 70  1  0  0  0  0
 38 75  1  0  0  0  0
 38 82  2  0  0  0  0
 39 42  1  0  0  0  0
 40 53  1  0  0  0  0
 41 69  1  0  0  0  0
 42 45  1  0  0  0  0
 43 47  1  0  0  0  0
 43 48  1  0  0  0  0
 44 46  1  0  0  0  0
 44 50  1  0  0  0  0
 45 52  1  0  0  0  0
 46 54  1  0  0  0  0
 47 55  1  0  0  0  0
 48 56  1  0  0  0  0
 49 55  1  0  0  0  0
 49 56  1  0  0  0  0
 50 70  1  0  0  0  0
 51 54  1  0  0  0  0
 51 70  1  0  0  0  0
 52 73  1  0  0  0  0
 53 69  1  0  0  0  0
 54 68  1  0  0  0  0
 55 76  1  0  0  0  0
 56 63  1  0  0  0  0
 57 65  1  0  0  0  0
 58 66  1  0  0  0  0
 59 66  1  0  0  0  0
 60 66  1  0  0  0  0
 61 77  1  0  0  0  0
 62 84  1  0  0  0  0
 63 75  1  0  0  0  0
 64 66  1  0  0  0  0
 64 74  1  0  0  0  0
 65 77  1  0  0  0  0
 67 68  1  0  0  0  0
M  CHG  2  76   1  77   1
M  ISO  4  38 100  62 101  75 100  84 101
M  END
> <Batch ID>
0122

> <Smiles>
CNC(C)C(=O)NC(C(=O)N1Cc2cc([101O:1][101CH2:1]c3ccc(C4(C[100NH:0][100C:0](=O)N5CCCC(n6nc(-c7ccc(Oc8ccc(F)cc8F)cc7)c(C(N)=O)c6N)C5)CCCC(N)C4)cc3)ccc2CC1C(=O)NC1CCCc2ccccc21)C(C)(C)C

> <Shape>
0.232

> <Color>
0.075

> <Negative vol penalty>
0.000

$$$$

  -OEChem-04052320283D

 88 97  0     1  0  0  0  0  0999 V2000
  -26.9765  -19.6810   22.3888 C   0  0  0  0  0  0  0  0  0  0  0  0
  -23.4511  -31.2628   12.7062 C   0  0  0  0  0  0  0  0  0  0  0  0
  -24.6009  -30.8668   13.3819 C   0  0  0  0  0  0  0  0  0  0  0  0
  -27.0391  -18.7115   21.3880 C   0  0  0  0  0  0  0  0  0  0  0  0
  -28.1372  -20.0673   23.0592 C   0  0  0  0  0  0  0  0  0  0  0  0
  -23.0154  -10.0561   19.8520 C   0  0  0  0  0  0  0  0  0  0  0  0
  -23.8653   -9.8028   22.0993 C   0  0  0  0  0  0  0  0  0  0  0  0
  -22.2140  -30.7300   13.0661 C   0  0  0  0  0  0  0  0  0  0  0  0
  -24.5140  -29.9386   14.4189 C   0  0  0  0  0  0  0  0  0  0  0  0
  -28.6337  -25.6467   15.8727 C   0  0  0  0  0  0  0  0  0  0  0  0
  -28.2623  -18.1281   21.0576 C   0  0  0  0  0  0  0  0  0  0  0  0
  -29.3604  -19.4839   22.7289 C   0  0  0  0  0  0  0  0  0  0  0  0
  -22.2465   -8.9035   20.0128 C   0  0  0  0  0  0  0  0  0  0  0  0
  -23.0964   -8.6502   22.2602 C   0  0  0  0  0  0  0  0  0  0  0  0
  -29.6381  -25.5995   16.8385 C   0  0  0  0  0  0  0  0  0  0  0  0
  -19.8713   -7.8806   22.9140 C   0  0  0  0  0  0  0  0  0  0  0  0
  -19.1604   -7.7388   24.1056 C   0  0  0  0  0  0  0  0  0  0  0  0
  -28.1491  -24.4139   18.3205 C   0  0  0  0  0  0  0  0  0  0  0  0
  -20.3691   -5.7024   24.5843 C   0  0  0  0  0  0  0  0  0  0  0  0
  -23.8249  -10.5058   20.8952 C   0  0  0  0  0  0  0  0  0  0  0  0
  -24.2400  -13.0195   21.0225 C   0  0  0  0  0  0  0  0  0  0  0  0
  -22.1132  -29.7876   14.1016 C   0  0  0  0  0  0  0  0  0  0  0  0
  -27.3738  -25.0865   16.1282 C   0  0  0  0  0  0  0  0  0  0  0  0
  -23.2742  -29.3937   14.7939 C   0  0  0  0  0  0  0  0  0  0  0  0
  -27.1313  -24.4530   17.3554 C   0  0  0  0  0  0  0  0  0  0  0  0
  -29.4229  -18.5143   21.7281 C   0  0  0  0  0  0  0  0  0  0  0  0
  -22.2869   -8.2006   21.2169 C   0  0  0  0  0  0  0  0  0  0  0  0
  -29.3950  -24.9856   18.0637 C   0  0  0  0  0  0  0  0  0  0  0  0
  -20.8311   -6.9333   22.5574 C   0  0  0  0  0  0  0  0  0  0  0  0
  -19.4093   -6.6497   24.9408 C   0  0  0  0  0  0  0  0  0  0  0  0
  -21.0800   -5.8442   23.3926 C   0  0  0  0  0  0  0  0  0  0  0  0
  -24.6198  -11.6960   20.7295 C   0  0  0  0  0  0  0  0  0  0  0  0
  -25.3398  -13.7733   20.6925 C   0  0  0  0  0  0  0  0  0  0  0  0
  -23.0038  -13.5226   21.5462 C   0  0  0  0  0  0  0  0  0  0  0  0
  -24.4095  -26.2198   16.3072 C   0  0  0  0  0  0  0  0  0  0  0  0
  -23.6431  -23.0809   16.5946 C   0  0  0  0  0  0  0  0  0  0  0  0
  -24.6189  -19.9281   17.4634 C   0  0  0  0  0  0  0  0  0  0  0  0
  -30.8557  -14.6197   20.7515 C   0  0  0  0  0  0  0  0  0  0  0  0
  -20.7479  -29.2751   14.4864 C   0  0  0  0  0  0  0  0  0  0  0  0
  -26.3095  -25.1221   15.0659 C   0  0  0  0  0  0  0  0  0  0  0  0
  -25.8023  -23.8186   17.6713 C   0  0  0  0  0  0  0  0  0  0  0  0
  -20.7906  -28.0154   15.3476 C   0  0  0  0  0  0  0  0  0  0  0  0
  -29.5509  -12.5292   18.1816 C   0  0  0  0  0  0  0  0  0  0  0  0
  -21.8115  -28.1706   16.4703 C   0  0  0  0  0  0  0  0  0  0  0  0
  -28.1233  -12.2305   18.6426 C   0  0  0  0  0  0  0  0  0  0  0  0
  -34.4810  -22.7822   19.9031 C   0  0  0  0  0  0  0  0  0  0  0  0
  -34.0383  -24.0357   19.1690 C   0  0  0  0  0  0  0  0  0  0  0  0
  -30.5213  -12.5986   19.3587 C   0  0  0  0  0  0  0  0  0  0  0  0
  -28.6996  -13.2314   20.8932 C   0  0  0  0  0  0  0  0  0  0  0  0
  -23.2240  -28.3705   15.9078 C   0  0  1  0  0  0  0  0  0  0  0  0
  -24.8992  -24.9722   15.6278 C   0  0  1  0  0  0  0  0  0  0  0  0
  -27.6746  -13.2071   19.7464 C   0  0  2  0  0  0  0  0  0  0  0  0
  -33.3180  -21.8272   19.6771 C   0  0  1  0  0  0  0  0  0  0  0  0
  -32.5709  -24.1549   19.5541 C   0  0  1  0  0  0  0  0  0  0  0  0
  -23.7614  -17.5754   17.6267 C   0  0  0  0  0  0  0  0  0  0  0  0
  -22.1256  -23.8132   19.1384 C   0  0  0  0  0  0  0  0  0  0  0  0
  -22.1134  -21.3847   19.7470 C   0  0  0  0  0  0  0  0  0  0  0  0
  -20.9635  -22.1543   17.6714 C   0  0  0  0  0  0  0  0  0  0  0  0
  -26.6097  -18.9435   15.5073 C   0  0  0  0  0  0  0  0  0  0  0  0
  -33.1708  -20.7637   20.7463 C   0  0  0  0  0  0  0  0  0  0  0  0
  -31.7226  -24.9017   18.5448 C   0  0  0  0  0  0  0  0  0  1  0  0
  -31.0373  -16.6266   22.2001 C   0  0  0  0  0  0  0  0  0  0  0  0
  -32.0162  -19.8216   20.4365 C   0  0  0  0  0  0  0  0  0  0  0  0
  -30.7496  -17.8819   21.3705 C   0  0  2  0  0  0  0  0  0  0  0  0
  -23.4904  -22.1190   17.7480 C   0  0  1  0  0  0  0  0  0  0  0  0
  -24.4716  -18.5958   16.7509 C   0  0  2  0  0  0  0  0  0  0  0  0
  -22.1978  -22.3813   18.5713 C   0  0  0  0  0  0  0  0  0  0  0  0
  -25.8635  -11.6106   20.2501 N   0  0  0  0  0  0  0  0  0  0  0  0
  -26.2748  -12.8900   20.2392 N   0  0  0  0  0  0  0  0  0  0  0  0
  -24.7918  -23.8849   16.6027 N   0  0  0  0  0  0  0  0  0  0  0  0
  -30.0385  -13.5432   20.3689 N   0  0  0  0  0  0  0  0  0  0  0  0
  -25.5884  -15.0990   20.7486 N   0  0  0  0  0  0  0  0  0  0  0  0
  -21.9782  -12.6106   21.8305 N   0  0  0  0  0  0  0  0  0  0  0  0
  -23.7735  -27.1084   15.4614 N   0  0  0  0  0  0  0  0  0  0  0  0
  -23.5730  -20.7794   17.1761 N   0  0  0  0  0  0  0  0  0  0  0  0
  -30.3195  -15.4711   21.7098 N   0  0  0  0  0  0  0  0  0  0  0  0
  -32.1063  -22.7247   19.6666 N   0  3  0  0  0  0  0  0  0  0  0  0
  -25.8106  -18.0521   16.3871 N   0  3  0  0  0  0  0  0  0  0  0  0
  -31.8866  -18.8296   21.5307 N   0  3  0  0  0  0  0  0  0  0  0  0
  -22.8084  -14.7464   21.7405 O   0  0  0  0  0  0  0  0  0  0  0  0
  -24.5936  -26.3647   17.5100 O   0  0  0  0  0  0  0  0  0  0  0  0
  -22.7789  -23.1125   15.7150 O   0  0  0  0  0  0  0  0  0  0  0  0
  -25.5652  -20.1864   18.2040 O   0  0  0  0  0  0  0  0  0  0  0  0
  -31.9777  -14.8111   20.2705 O   0  0  0  0  0  0  0  0  0  0  0  0
  -21.5366   -7.0760   21.3743 O   0  0  0  0  0  0  0  0  0  0  0  0
  -30.3735  -24.9387   19.0083 O   0  0  0  0  0  0  0  0  0  1  0  0
  -18.7276   -6.5144   26.0859 F   0  0  0  0  0  0  0  0  0  0  0  0
  -22.0017   -4.9315   23.0559 F   0  0  0  0  0  0  0  0  0  0  0  0
  1  4  1  0  0  0  0
  1  5  2  0  0  0  0
  2  3  1  0  0  0  0
  2  8  2  0  0  0  0
  3  9  2  0  0  0  0
  4 11  2  0  0  0  0
  5 12  1  0  0  0  0
  6 13  2  0  0  0  0
  6 20  1  0  0  0  0
  7 14  1  0  0  0  0
  7 20  2  0  0  0  0
  8 22  1  0  0  0  0
  9 24  1  0  0  0  0
 10 15  2  0  0  0  0
 10 23  1  0  0  0  0
 11 26  1  0  0  0  0
 12 26  2  0  0  0  0
 13 27  1  0  0  0  0
 14 27  2  0  0  0  0
 15 28  1  0  0  0  0
 16 17  2  0  0  0  0
 16 29  1  0  0  0  0
 17 30  1  0  0  0  0
 18 25  1  0  0  0  0
 18 28  2  0  0  0  0
 19 30  2  0  0  0  0
 19 31  1  0  0  0  0
 20 32  1  0  0  0  0
 21 32  1  0  0  0  0
 21 33  2  0  0  0  0
 21 34  1  0  0  0  0
 22 24  2  0  0  0  0
 22 39  1  0  0  0  0
 23 25  2  0  0  0  0
 23 40  1  0  0  0  0
 24 50  1  0  0  0  0
 25 41  1  0  0  0  0
 26 64  1  0  0  0  0
 27 85  1  0  0  0  0
 28 86  1  0  0  0  0
 29 31  2  0  0  0  0
 29 85  1  0  0  0  0
 30 87  1  0  0  0  0
 31 88  1  0  0  0  0
 32 68  2  0  0  0  0
 33 69  1  0  0  0  0
 33 72  1  0  0  0  0
 34 73  1  0  0  0  0
 34 80  2  0  0  0  0
 35 51  1  0  0  0  0
 35 74  1  0  0  0  0
 35 81  2  0  0  0  0
 36 65  1  0  0  0  0
 36 70  1  0  0  0  0
 36 82  2  0  0  0  0
 37 66  1  0  0  0  0
 37 75  1  0  0  0  0
 37 83  2  0  0  0  0
 38 71  1  0  0  0  0
 38 76  1  0  0  0  0
 38 84  2  0  0  0  0
 39 42  1  0  0  0  0
 40 51  1  0  0  0  0
 41 70  1  0  0  0  0
 42 44  1  0  0  0  0
 43 45  1  0  0  0  0
 43 48  1  0  0  0  0
 44 50  1  0  0  0  0
 45 52  1  0  0  0  0
 46 47  1  0  0  0  0
 46 53  1  0  0  0  0
 47 54  1  0  0  0  0
 48 71  1  0  0  0  0
 49 52  1  0  0  0  0
 49 71  1  0  0  0  0
 50 74  1  0  0  0  0
 51 70  1  0  0  0  0
 52 69  1  0  0  0  0
 53 60  1  0  0  0  0
 53 77  1  0  0  0  0
 54 61  1  0  0  0  0
 54 77  1  0  0  0  0
 55 66  1  0  0  0  0
 56 67  1  0  0  0  0
 57 67  1  0  0  0  0
 58 67  1  0  0  0  0
 59 78  1  0  0  0  0
 60 63  1  0  0  0  0
 61 86  1  0  0  0  0
 62 64  1  0  0  0  0
 62 76  1  0  0  0  0
 63 79  1  0  0  0  0
 64 79  1  0  0  0  0
 65 67  1  0  0  0  0
 65 75  1  0  0  0  0
 66 78  1  0  0  0  0
 68 69  1  0  0  0  0
M  CHG  3  77   1  78   1  79   1
M  ISO  4  38 100  61 101  76 100  86 101
M  END
> <Batch ID>
0122

> <Smiles>
CNC(C)C(=O)NC(C(=O)N1Cc2cc([101O:1][101CH2:1]C3CCC(CCNC(C[100NH:0][100C:0](=O)N4CCCC(n5nc(-c6ccc(Oc7ccc(F)cc7F)cc6)c(C(N)=O)c5N)C4)c4ccccc4)N3)ccc2CC1C(=O)NC1CCCc2ccccc21)C(C)(C)C

> <Shape>
0.207

> <Color>
0.184

> <Negative vol penalty>
0.000

$$$$

  -OEChem-04052320283D

 82 90  0     1  0  0  0  0  0999 V2000
  -21.7591  -11.4379   21.1127 C   0  0  0  0  0  0  0  0  0  0  0  0
  -21.8617  -12.5580   21.9313 C   0  0  0  0  0  0  0  0  0  0  0  0
  -20.0861  -24.9707   21.3310 C   0  0  0  0  0  0  0  0  0  0  0  0
  -21.9461  -23.5963   22.0299 C   0  0  0  0  0  0  0  0  0  0  0  0
  -22.8574  -11.0222   20.3612 C   0  0  0  0  0  0  0  0  0  0  0  0
  -23.0632  -13.2625   21.9998 C   0  0  0  0  0  0  0  0  0  0  0  0
  -23.7518  -19.3068   22.7051 C   0  0  0  0  0  0  0  0  0  0  0  0
  -19.3176  -23.8252   21.1237 C   0  0  0  0  0  0  0  0  0  0  0  0
  -21.1776  -22.4508   21.8226 C   0  0  0  0  0  0  0  0  0  0  0  0
  -24.0229  -20.0960   23.8221 C   0  0  0  0  0  0  0  0  0  0  0  0
  -18.7410  -20.7611   23.4438 C   0  0  0  0  0  0  0  0  0  0  0  0
  -18.7754  -19.7727   24.4274 C   0  0  0  0  0  0  0  0  0  0  0  0
  -26.3682  -20.0781   23.2581 C   0  0  0  0  0  0  0  0  0  0  0  0
  -19.6233  -18.1917   22.8090 C   0  0  0  0  0  0  0  0  0  0  0  0
  -21.4004  -24.8562   21.7841 C   0  0  0  0  0  0  0  0  0  0  0  0
  -21.9190  -27.1004   22.8806 C   0  0  0  0  0  0  0  0  0  0  0  0
  -24.0700  -11.7275   20.4130 C   0  0  0  0  0  0  0  0  0  0  0  0
  -24.7901  -18.8876   21.8609 C   0  0  0  0  0  0  0  0  0  0  0  0
  -24.1791  -12.8550   21.2493 C   0  0  0  0  0  0  0  0  0  0  0  0
  -26.1074  -19.2858   22.1297 C   0  0  0  0  0  0  0  0  0  0  0  0
  -19.8634  -22.5653   21.3695 C   0  0  0  0  0  0  0  0  0  0  0  0
  -25.3316  -20.4793   24.1003 C   0  0  0  0  0  0  0  0  0  0  0  0
  -19.1477  -20.4648   22.1428 C   0  0  0  0  0  0  0  0  0  0  0  0
  -19.2166  -18.4880   24.1100 C   0  0  0  0  0  0  0  0  0  0  0  0
  -19.5888  -19.1802   21.8254 C   0  0  0  0  0  0  0  0  0  0  0  0
  -22.1950  -26.0390   21.9978 C   0  0  0  0  0  0  0  0  0  0  0  0
  -22.9693  -27.9692   22.7118 C   0  0  0  0  0  0  0  0  0  0  0  0
  -20.8123  -27.2844   23.7734 C   0  0  0  0  0  0  0  0  0  0  0  0
  -25.9845  -16.0695   21.0034 C   0  0  0  0  0  0  0  0  0  0  0  0
  -28.5986  -27.1328   20.7821 C   0  0  0  0  0  0  0  0  0  0  0  0
  -27.7680  -17.8774   18.9852 C   0  0  0  0  0  0  0  0  0  0  0  0
  -29.1414  -20.9176   18.2657 C   0  0  0  0  0  0  0  0  0  0  0  0
  -25.2440  -11.2123   19.6187 C   0  0  0  0  0  0  0  0  0  0  0  0
  -24.4778  -18.0588   20.6452 C   0  0  0  0  0  0  0  0  0  0  0  0
  -27.2553  -18.8791   21.2433 C   0  0  0  0  0  0  0  0  0  0  0  0
  -26.3677  -12.2334   19.4608 C   0  0  0  0  0  0  0  0  0  0  0  0
  -26.1640  -29.4084   19.4651 C   0  0  0  0  0  0  0  0  0  0  0  0
  -26.6773  -12.8977   20.7986 C   0  0  0  0  0  0  0  0  0  0  0  0
  -24.8421  -28.8819   20.0224 C   0  0  0  0  0  0  0  0  0  0  0  0
  -27.5514  -25.2930   27.1330 C   0  0  0  0  0  0  0  0  0  0  0  0
  -27.5891  -25.1153   24.6141 C   0  0  0  0  0  0  0  0  0  0  0  0
  -27.1299  -28.2704   19.1502 C   0  0  0  0  0  0  0  0  0  0  0  0
  -26.0737  -26.8329   20.8648 C   0  0  0  0  0  0  0  0  0  0  0  0
  -28.6551  -26.3373   27.0663 C   0  0  0  0  0  0  0  0  0  0  0  0
  -25.4580  -13.6599   21.3313 C   0  0  1  0  0  0  0  0  0  0  0  0
  -25.6769  -17.2613   20.1416 C   0  0  1  0  0  0  0  0  0  0  0  0
  -27.6069  -24.3335   25.9363 C   0  0  2  0  0  0  0  0  0  0  0  0
  -25.0805  -27.9518   21.2251 C   0  0  2  0  0  0  0  0  0  0  0  0
  -28.7026  -26.1628   24.5635 C   0  0  1  0  0  0  0  0  0  0  0  0
  -29.9835  -25.4003   21.8664 C   0  0  0  0  0  0  0  0  0  0  0  0
  -30.5787  -22.0776   16.5669 C   0  0  0  0  0  0  0  0  0  0  0  0
  -29.6916  -28.1254   23.3576 C   0  0  0  0  0  0  0  0  0  0  0  0
  -30.2384  -16.5176   20.1504 C   0  0  0  0  0  0  0  0  0  0  0  0
  -31.6301  -18.3390   19.1436 C   0  0  0  0  0  0  0  0  0  0  0  0
  -30.2938  -16.8337   17.6702 C   0  0  0  0  0  0  0  0  0  0  0  0
  -26.9887  -22.8287   17.5784 C   0  0  0  0  0  0  0  0  0  0  0  0
  -26.4602  -23.3401   25.9896 C   0  0  0  0  0  0  0  0  0  0  0  0
  -26.7179  -22.1304   25.1042 C   0  0  0  0  0  0  0  0  0  1  0  0
  -28.7061  -26.2275   21.9833 C   0  0  1  0  0  0  0  0  0  0  0  0
  -29.1059  -18.5714   19.0708 C   0  0  1  0  0  0  0  0  0  0  0  0
  -29.1575  -21.7390   16.9892 C   0  0  2  0  0  0  0  0  0  0  0  0
  -28.6229  -27.0231   23.3107 C   0  0  1  0  0  0  0  0  0  0  0  0
  -30.2959  -17.5716   19.0267 C   0  0  0  0  0  0  0  0  0  0  0  0
  -23.3314  -26.2155   21.3186 N   0  0  0  0  0  0  0  0  0  0  0  0
  -23.7788  -27.3979   21.7745 N   0  0  0  0  0  0  0  0  0  0  0  0
  -26.8997  -18.0637   20.0702 N   0  0  0  0  0  0  0  0  0  0  0  0
  -27.3124  -27.3970   20.3108 N   0  0  0  0  0  0  0  0  0  0  0  0
  -23.2701  -29.1586   23.2751 N   0  0  0  0  0  0  0  0  0  0  0  0
  -20.9193  -26.7907   25.0807 N   0  0  0  0  0  0  0  0  0  0  0  0
  -25.3080  -14.9213   20.6380 N   0  0  0  0  0  0  0  0  0  0  0  0
  -29.1198  -19.5644   18.0021 N   0  0  0  0  0  0  0  0  0  0  0  0
  -28.5737  -27.0580   25.7610 N   0  3  0  0  0  0  0  0  0  0  0  0
  -28.4089  -23.0128   17.1834 N   0  3  0  0  0  0  0  0  0  0  0  0
  -19.7534  -27.8548   23.4173 O   0  0  0  0  0  0  0  0  0  0  0  0
  -26.7782  -16.1828   21.9302 O   0  0  0  0  0  0  0  0  0  0  0  0
  -29.6278  -27.5928   20.2808 O   0  0  0  0  0  0  0  0  0  0  0  0
  -27.5001  -17.2011   17.9890 O   0  0  0  0  0  0  0  0  0  0  0  0
  -29.1511  -21.4256   19.3848 O   0  0  0  0  0  0  0  0  0  0  0  0
  -19.1137  -21.4474   21.1676 O   0  0  0  0  0  0  0  0  0  0  0  0
  -25.5990  -21.2490   25.1902 O   0  0  0  0  0  0  0  0  0  1  0  0
  -19.2510  -17.5394   25.0550 F   0  0  0  0  0  0  0  0  0  0  0  0
  -19.9819  -18.8899   20.5776 F   0  0  0  0  0  0  0  0  0  0  0  0
  1  2  1  0  0  0  0
  1  5  2  0  0  0  0
  2  6  2  0  0  0  0
  3  8  2  0  0  0  0
  3 15  1  0  0  0  0
  4  9  1  0  0  0  0
  4 15  2  0  0  0  0
  5 17  1  0  0  0  0
  6 19  1  0  0  0  0
  7 10  2  0  0  0  0
  7 18  1  0  0  0  0
  8 21  1  0  0  0  0
  9 21  2  0  0  0  0
 10 22  1  0  0  0  0
 11 12  2  0  0  0  0
 11 23  1  0  0  0  0
 12 24  1  0  0  0  0
 13 20  1  0  0  0  0
 13 22  2  0  0  0  0
 14 24  2  0  0  0  0
 14 25  1  0  0  0  0
 15 26  1  0  0  0  0
 16 26  1  0  0  0  0
 16 27  2  0  0  0  0
 16 28  1  0  0  0  0
 17 19  2  0  0  0  0
 17 33  1  0  0  0  0
 18 20  2  0  0  0  0
 18 34  1  0  0  0  0
 19 45  1  0  0  0  0
 20 35  1  0  0  0  0
 21 79  1  0  0  0  0
 22 80  1  0  0  0  0
 23 25  2  0  0  0  0
 23 79  1  0  0  0  0
 24 81  1  0  0  0  0
 25 82  1  0  0  0  0
 26 64  2  0  0  0  0
 27 65  1  0  0  0  0
 27 68  1  0  0  0  0
 28 69  1  0  0  0  0
 28 74  2  0  0  0  0
 29 46  1  0  0  0  0
 29 70  1  0  0  0  0
 29 75  2  0  0  0  0
 30 59  1  0  0  0  0
 30 67  1  0  0  0  0
 30 76  2  0  0  0  0
 31 60  1  0  0  0  0
 31 66  1  0  0  0  0
 31 77  2  0  0  0  0
 32 61  1  0  0  0  0
 32 71  1  0  0  0  0
 32 78  2  0  0  0  0
 33 36  1  0  0  0  0
 34 46  1  0  0  0  0
 35 66  1  0  0  0  0
 36 38  1  0  0  0  0
 37 39  1  0  0  0  0
 37 42  1  0  0  0  0
 38 45  1  0  0  0  0
 39 48  1  0  0  0  0
 40 44  1  0  0  0  0
 40 47  1  0  0  0  0
 41 47  1  0  0  0  0
 41 49  1  0  0  0  0
 42 67  1  0  0  0  0
 43 48  1  0  0  0  0
 43 67  1  0  0  0  0
 44 72  1  0  0  0  0
 45 70  1  0  0  0  0
 46 66  1  0  0  0  0
 47 57  1  0  0  0  0
 48 65  1  0  0  0  0
 49 62  1  0  0  0  0
 49 72  1  0  0  0  0
 50 59  1  0  0  0  0
 51 61  1  0  0  0  0
 52 62  1  0  0  0  0
 53 63  1  0  0  0  0
 54 63  1  0  0  0  0
 55 63  1  0  0  0  0
 56 73  1  0  0  0  0
 57 58  1  0  0  0  0
 58 80  1  0  0  0  0
 59 62  1  0  0  0  0
 60 63  1  0  0  0  0
 60 71  1  0  0  0  0
 61 73  1  0  0  0  0
 64 65  1  0  0  0  0
M  CHG  2  72   1  73   1
M  ISO  4  30 100  58 101  59 100  80 101
M  END
> <Batch ID>
0122

> <Smiles>
CNC(C)C(=O)NC(C(=O)N1Cc2cc([101O:1][101CH2:1]CC3CCNC(C(C)[100CH:0](C)[100C:0](=O)N4CCCC(n5nc(-c6ccc(Oc7ccc(F)cc7F)cc6)c(C(N)=O)c5N)C4)C3)ccc2CC1C(=O)NC1CCCc2ccccc21)C(C)(C)C

> <Shape>
0.175

> <Color>
0.077

> <Negative vol penalty>
0.000

$$$$

  -OEChem-04052320283D

 87 95  0     1  0  0  0  0  0999 V2000
  -28.1669  -10.2107   16.8032 C   0  0  0  0  0  0  0  0  0  0  0  0
  -27.5174  -11.3447   16.3262 C   0  0  0  0  0  0  0  0  0  0  0  0
  -24.6773  -30.2036   20.5023 C   0  0  0  0  0  0  0  0  0  0  0  0
  -24.4586  -28.6005   22.2965 C   0  0  0  0  0  0  0  0  0  0  0  0
  -28.7766  -10.2334   18.0569 C   0  0  0  0  0  0  0  0  0  0  0  0
  -27.4763  -12.5019   17.1031 C   0  0  0  0  0  0  0  0  0  0  0  0
  -28.4897  -16.6779   14.4238 C   0  0  0  0  0  0  0  0  0  0  0  0
  -24.2717  -31.2229   21.3636 C   0  0  0  0  0  0  0  0  0  0  0  0
  -24.0530  -29.6199   23.1579 C   0  0  0  0  0  0  0  0  0  0  0  0
  -27.4660  -17.1862   13.6254 C   0  0  0  0  0  0  0  0  0  0  0  0
  -23.6409  -34.3056   23.1842 C   0  0  0  0  0  0  0  0  0  0  0  0
  -24.3621  -35.4993   23.1613 C   0  0  0  0  0  0  0  0  0  0  0  0
  -26.9755  -18.8363   15.3153 C   0  0  0  0  0  0  0  0  0  0  0  0
  -22.2136  -16.5922   19.2361 C   0  0  0  0  0  0  0  0  0  0  0  0
  -26.3638  -34.3019   23.7912 C   0  0  0  0  0  0  0  0  0  0  0  0
  -24.7707  -28.8923   20.9687 C   0  0  0  0  0  0  0  0  0  0  0  0
  -26.5050  -27.3966   19.8450 C   0  0  0  0  0  0  0  0  0  0  0  0
  -28.7512  -11.3945   18.8455 C   0  0  0  0  0  0  0  0  0  0  0  0
  -28.7573  -17.2390   15.6808 C   0  0  0  0  0  0  0  0  0  0  0  0
  -28.0850  -12.5398   18.3691 C   0  0  0  0  0  0  0  0  0  0  0  0
  -28.0049  -18.3349   16.1267 C   0  0  0  0  0  0  0  0  0  0  0  0
  -22.5030  -17.7621   18.5425 C   0  0  0  0  0  0  0  0  0  0  0  0
  -21.5906  -18.2597   17.6188 C   0  0  0  0  0  0  0  0  0  0  0  0
  -23.9595  -30.9311   22.6914 C   0  0  0  0  0  0  0  0  0  0  0  0
  -26.7069  -18.2637   14.0724 C   0  0  0  0  0  0  0  0  0  0  0  0
  -24.2811  -33.1100   23.5107 C   0  0  0  0  0  0  0  0  0  0  0  0
  -25.7236  -35.4974   23.4648 C   0  0  0  0  0  0  0  0  0  0  0  0
  -25.6425  -33.1082   23.8142 C   0  0  0  0  0  0  0  0  0  0  0  0
  -25.1892  -27.8387   20.0793 C   0  0  0  0  0  0  0  0  0  0  0  0
  -21.0079  -15.9628   18.9717 C   0  0  0  0  0  0  0  0  0  0  0  0
  -20.4129  -17.5556   17.4267 C   0  0  0  0  0  0  0  0  0  0  0  0
  -26.3687  -26.3851   18.9258 C   0  0  0  0  0  0  0  0  0  0  0  0
  -27.7400  -27.8588   20.4079 C   0  0  0  0  0  0  0  0  0  0  0  0
  -28.6851  -16.1729   18.6745 C   0  0  0  0  0  0  0  0  0  0  0  0
  -29.9558  -19.0846   19.3298 C   0  0  0  0  0  0  0  0  0  0  0  0
  -30.3813  -22.3379   18.3908 C   0  0  0  0  0  0  0  0  0  0  0  0
  -21.8855  -22.7347   17.7299 C   0  0  0  0  0  0  0  0  0  0  0  0
  -29.3834  -11.3564   20.2142 C   0  0  0  0  0  0  0  0  0  0  0  0
  -29.8825  -16.6962   16.5185 C   0  0  0  0  0  0  0  0  0  0  0  0
  -28.2653  -18.9861   17.4595 C   0  0  0  0  0  0  0  0  0  0  0  0
  -29.6174  -12.7397   20.8159 C   0  0  0  0  0  0  0  0  0  0  0  0
  -23.5298  -24.9217   15.3612 C   0  0  0  0  0  0  0  0  0  0  0  0
  -28.3749  -13.6096   20.6532 C   0  0  0  0  0  0  0  0  0  0  0  0
  -24.2706  -25.8800   16.2956 C   0  0  0  0  0  0  0  0  0  0  0  0
  -22.1648  -24.5421   15.9277 C   0  0  0  0  0  0  0  0  0  0  0  0
  -22.9469  -24.9167   18.2346 C   0  0  0  0  0  0  0  0  0  0  0  0
  -28.0401  -13.8219   19.1719 C   0  0  1  0  0  0  0  0  0  0  0  0
  -29.7311  -17.0165   18.0023 C   0  0  1  0  0  0  0  0  0  0  0  0
  -24.3437  -25.3206   17.7287 C   0  0  2  0  0  0  0  0  0  0  0  0
  -23.7962  -18.4604   18.8049 C   0  0  0  0  0  0  0  0  0  0  0  0
  -20.6633  -14.7058   19.6984 C   0  0  0  0  0  0  0  0  0  0  0  0
  -19.3934  -18.0415   16.4488 C   0  0  0  0  0  0  0  0  0  0  0  0
  -31.4350  -24.4854   19.1492 C   0  0  0  0  0  0  0  0  0  0  0  0
  -24.6131  -17.7130   11.4335 C   0  0  0  0  0  0  0  0  0  0  0  0
  -27.7001  -19.4763   21.3468 C   0  0  0  0  0  0  0  0  0  0  0  0
  -28.2307  -21.9230   21.3600 C   0  0  0  0  0  0  0  0  0  0  0  0
  -29.9409  -20.2736   22.1198 C   0  0  0  0  0  0  0  0  0  0  0  0
  -32.1389  -22.4506   16.0123 C   0  0  0  0  0  0  0  0  0  0  0  0
  -23.3231  -18.4314   13.4760 C   0  0  0  0  0  0  0  0  0  0  0  0
  -20.8025  -20.6000   17.0761 C   0  0  0  0  0  0  0  0  0  0  0  0
  -23.3045  -18.6984   14.9786 C   0  0  0  0  0  0  0  0  0  0  0  0
  -21.8769  -19.5313   16.8513 C   0  0  2  0  0  0  0  0  0  0  0  0
  -29.3942  -20.4470   19.6575 C   0  0  1  0  0  0  0  0  0  0  0  0
  -31.6183  -23.2159   18.3323 C   0  0  2  0  0  0  0  0  0  0  0  0
  -24.6483  -17.8692   12.9487 C   0  0  2  0  0  0  0  0  0  1  0  0
  -28.8101  -20.5167   21.0967 C   0  0  0  0  0  0  0  0  0  0  0  0
  -24.2837  -27.1636   19.3664 N   0  0  0  0  0  0  0  0  0  0  0  0
  -20.0968  -16.4160   18.0817 N   0  0  0  0  0  0  0  0  0  0  0  0
  -25.0317  -26.2870   18.6750 N   0  0  0  0  0  0  0  0  0  0  0  0
  -29.3721  -18.4153   18.2448 N   0  0  0  0  0  0  0  0  0  0  0  0
  -22.3064  -23.9993   17.2862 N   0  0  0  0  0  0  0  0  0  0  0  0
  -27.2634  -25.5791   18.3156 N   0  0  0  0  0  0  0  0  0  0  0  0
  -27.6997  -28.9064   21.3380 N   0  0  0  0  0  0  0  0  0  0  0  0
  -28.9201  -14.8137   18.5919 N   0  0  0  0  0  0  0  0  0  0  0  0
  -30.4660  -21.4029   19.4007 N   0  0  0  0  0  0  0  0  0  0  0  0
  -21.2821  -21.9297   16.7714 N   0  0  0  0  0  0  0  0  0  0  0  0
  -31.9132  -23.6021   16.9234 N   0  3  0  0  0  0  0  0  0  0  0  0
  -22.0084  -19.2885   15.3880 N   0  3  0  0  0  0  0  0  0  0  0  0
  -28.8480  -27.3686   20.0830 O   0  0  0  0  0  0  0  0  0  0  0  0
  -27.7358  -16.7150   19.2283 O   0  0  0  0  0  0  0  0  0  0  0  0
  -30.8833  -18.6340   20.0069 O   0  0  0  0  0  0  0  0  0  0  0  0
  -29.4331  -22.4709   17.6203 O   0  0  0  0  0  0  0  0  0  0  0  0
  -22.0408  -22.3489   18.8935 O   0  0  0  0  0  0  0  0  0  0  0  0
  -23.5639  -31.9256   23.5322 O   0  0  0  0  0  0  0  0  0  0  0  0
  -25.7067  -18.7614   13.2953 O   0  0  0  0  0  0  0  0  0  1  0  0
  -26.4163  -36.6436   23.4413 F   0  0  0  0  0  0  0  0  0  0  0  0
  -26.2633  -31.9626   24.1274 F   0  0  0  0  0  0  0  0  0  0  0  0
  1  2  1  0  0  0  0
  1  5  2  0  0  0  0
  2  6  2  0  0  0  0
  3  8  2  0  0  0  0
  3 16  1  0  0  0  0
  4  9  1  0  0  0  0
  4 16  2  0  0  0  0
  5 18  1  0  0  0  0
  6 20  1  0  0  0  0
  7 10  2  0  0  0  0
  7 19  1  0  0  0  0
  8 24  1  0  0  0  0
  9 24  2  0  0  0  0
 10 25  1  0  0  0  0
 11 12  2  0  0  0  0
 11 26  1  0  0  0  0
 12 27  1  0  0  0  0
 13 21  1  0  0  0  0
 13 25  2  0  0  0  0
 14 22  2  0  0  0  0
 14 30  1  0  0  0  0
 15 27  2  0  0  0  0
 15 28  1  0  0  0  0
 16 29  1  0  0  0  0
 17 29  1  0  0  0  0
 17 32  2  0  0  0  0
 17 33  1  0  0  0  0
 18 20  2  0  0  0  0
 18 38  1  0  0  0  0
 19 21  2  0  0  0  0
 19 39  1  0  0  0  0
 20 47  1  0  0  0  0
 21 40  1  0  0  0  0
 22 23  1  0  0  0  0
 22 50  1  0  0  0  0
 23 31  2  0  0  0  0
 23 62  1  0  0  0  0
 24 84  1  0  0  0  0
 25 85  1  0  0  0  0
 26 28  2  0  0  0  0
 26 84  1  0  0  0  0
 27 86  1  0  0  0  0
 28 87  1  0  0  0  0
 29 67  2  0  0  0  0
 30 51  1  0  0  0  0
 30 68  2  0  0  0  0
 31 52  1  0  0  0  0
 31 68  1  0  0  0  0
 32 69  1  0  0  0  0
 32 72  1  0  0  0  0
 33 73  1  0  0  0  0
 33 79  2  0  0  0  0
 34 48  1  0  0  0  0
 34 74  1  0  0  0  0
 34 80  2  0  0  0  0
 35 63  1  0  0  0  0
 35 70  1  0  0  0  0
 35 81  2  0  0  0  0
 36 64  1  0  0  0  0
 36 75  1  0  0  0  0
 36 82  2  0  0  0  0
 37 71  1  0  0  0  0
 37 76  1  0  0  0  0
 37 83  2  0  0  0  0
 38 41  1  0  0  0  0
 39 48  1  0  0  0  0
 40 70  1  0  0  0  0
 41 43  1  0  0  0  0
 42 44  1  0  0  0  0
 42 45  1  0  0  0  0
 43 47  1  0  0  0  0
 44 49  1  0  0  0  0
 45 71  1  0  0  0  0
 46 49  1  0  0  0  0
 46 71  1  0  0  0  0
 47 74  1  0  0  0  0
 48 70  1  0  0  0  0
 49 69  1  0  0  0  0
 53 64  1  0  0  0  0
 54 65  1  0  0  0  0
 55 66  1  0  0  0  0
 56 66  1  0  0  0  0
 57 66  1  0  0  0  0
 58 77  1  0  0  0  0
 59 61  1  0  0  0  0
 59 65  1  0  0  0  0
 60 62  1  0  0  0  0
 60 76  1  0  0  0  0
 61 78  1  0  0  0  0
 62 78  1  0  0  0  0
 63 66  1  0  0  0  0
 63 75  1  0  0  0  0
 64 77  1  0  0  0  0
 65 85  1  0  0  0  0
 67 69  1  0  0  0  0
M  CHG  2  77   1  78   1
M  ISO  4  37 100  65 101  76 100  85 101
M  END
> <Batch ID>
0122

> <Smiles>
CNC(C)C(=O)NC(C(=O)N1Cc2cc([101O:1][101CH:1](C)CCNC(C[100NH:0][100C:0](=O)N3CCCC(n4nc(-c5ccc(Oc6ccc(F)cc6F)cc5)c(C(N)=O)c4N)C3)c3c(C)cc(C)nc3C)ccc2CC1C(=O)NC1CCCc2ccccc21)C(C)(C)C

> <Shape>
0.225

> <Color>
0.061

> <Negative vol penalty>
0.000

$$$$

  -OEChem-04052320283D

 83 91  0     1  0  0  0  0  0999 V2000
  -17.7693  -28.6102   19.6583 C   0  0  0  0  0  0  0  0  0  0  0  0
  -18.6561  -27.5701   19.9176 C   0  0  0  0  0  0  0  0  0  0  0  0
  -23.8855   -9.8275   22.1804 C   0  0  0  0  0  0  0  0  0  0  0  0
  -24.6378  -11.3871   23.8653 C   0  0  0  0  0  0  0  0  0  0  0  0
  -18.1621  -29.9302   19.8759 C   0  0  0  0  0  0  0  0  0  0  0  0
  -19.9366  -27.8494   20.3937 C   0  0  0  0  0  0  0  0  0  0  0  0
  -23.2142  -24.4929   24.3303 C   0  0  0  0  0  0  0  0  0  0  0  0
  -27.7256  -19.6597   18.9353 C   0  0  0  0  0  0  0  0  0  0  0  0
  -23.4797   -8.9434   23.1800 C   0  0  0  0  0  0  0  0  0  0  0  0
  -24.2320  -10.5030   24.8649 C   0  0  0  0  0  0  0  0  0  0  0  0
  -24.2343  -23.5608   24.1454 C   0  0  0  0  0  0  0  0  0  0  0  0
  -20.8661   -8.6090   25.2990 C   0  0  0  0  0  0  0  0  0  0  0  0
  -19.6146   -8.0080   25.1639 C   0  0  0  0  0  0  0  0  0  0  0  0
  -27.2507  -20.6715   19.7625 C   0  0  0  0  0  0  0  0  0  0  0  0
  -25.8738  -25.2871   24.5341 C   0  0  0  0  0  0  0  0  0  0  0  0
  -20.6610   -5.8304   25.1570 C   0  0  0  0  0  0  0  0  0  0  0  0
  -24.4646  -11.0494   22.5230 C   0  0  0  0  0  0  0  0  0  0  0  0
  -24.1173  -12.9800   20.8922 C   0  0  0  0  0  0  0  0  0  0  0  0
  -19.4448  -30.2253   20.3640 C   0  0  0  0  0  0  0  0  0  0  0  0
  -23.5168  -25.8336   24.6082 C   0  0  0  0  0  0  0  0  0  0  0  0
  -20.3474  -29.1747   20.6168 C   0  0  0  0  0  0  0  0  0  0  0  0
  -24.8556  -26.2337   24.7247 C   0  0  0  0  0  0  0  0  0  0  0  0
  -28.9647  -19.0836   19.1922 C   0  0  0  0  0  0  0  0  0  0  0  0
  -23.6529   -9.2811   24.5222 C   0  0  0  0  0  0  0  0  0  0  0  0
  -25.5644  -23.9584   24.2444 C   0  0  0  0  0  0  0  0  0  0  0  0
  -22.0151   -7.8206   25.3630 C   0  0  0  0  0  0  0  0  0  0  0  0
  -19.5121   -6.6188   25.0930 C   0  0  0  0  0  0  0  0  0  0  0  0
  -21.9125   -6.4313   25.2920 C   0  0  0  0  0  0  0  0  0  0  0  0
  -24.8846  -11.9629   21.4909 C   0  0  0  0  0  0  0  0  0  0  0  0
  -29.6844  -19.5511   20.2800 C   0  0  0  0  0  0  0  0  0  0  0  0
  -28.0470  -21.0678   20.8249 C   0  0  0  0  0  0  0  0  0  0  0  0
  -24.9656  -13.5580   19.9797 C   0  0  0  0  0  0  0  0  0  0  0  0
  -22.7592  -13.3678   21.1390 C   0  0  0  0  0  0  0  0  0  0  0  0
  -22.9811  -28.6040   23.1447 C   0  0  0  0  0  0  0  0  0  0  0  0
  -24.2637  -29.8389   25.8562 C   0  0  0  0  0  0  0  0  0  0  0  0
  -26.2732  -29.3873   28.5774 C   0  0  0  0  0  0  0  0  0  0  0  0
  -29.9784  -15.5853   18.5986 C   0  0  0  0  0  0  0  0  0  0  0  0
  -19.8403  -31.6702   20.5387 C   0  0  0  0  0  0  0  0  0  0  0  0
  -22.4045  -26.8212   24.8315 C   0  0  0  0  0  0  0  0  0  0  0  0
  -25.2333  -27.6569   25.0413 C   0  0  0  0  0  0  0  0  0  0  0  0
  -21.0861  -31.8608   21.4001 C   0  0  0  0  0  0  0  0  0  0  0  0
  -29.4973  -12.0706   18.2951 C   0  0  0  0  0  0  0  0  0  0  0  0
  -22.1837  -30.8912   20.9734 C   0  0  0  0  0  0  0  0  0  0  0  0
  -28.1951  -11.8127   19.0550 C   0  0  0  0  0  0  0  0  0  0  0  0
  -30.3334  -13.1608   18.9618 C   0  0  0  0  0  0  0  0  0  0  0  0
  -28.3188  -14.1726   19.9575 C   0  0  0  0  0  0  0  0  0  0  0  0
  -21.7364  -29.4360   21.1574 C   0  0  1  0  0  0  0  0  0  0  0  0
  -22.8340  -28.2669   24.6015 C   0  0  1  0  0  0  0  0  0  0  0  0
  -27.4156  -13.1203   19.2918 C   0  0  2  0  0  0  0  0  0  0  0  0
  -31.0215  -18.9690   20.6037 C   0  0  0  0  0  0  0  0  0  0  0  0
  -28.9871  -18.1244   16.8596 C   0  0  0  0  0  0  0  0  0  0  0  0
  -27.1566  -30.5896   30.5951 C   0  0  0  0  0  0  0  0  0  0  0  0
  -26.2207  -31.3691   24.0846 C   0  0  0  0  0  0  0  0  0  0  0  0
  -27.6329  -31.7722   26.1122 C   0  0  0  0  0  0  0  0  0  0  0  0
  -25.3119  -32.6807   26.0103 C   0  0  0  0  0  0  0  0  0  0  0  0
  -25.0008  -27.4591   30.4272 C   0  0  0  0  0  0  0  0  0  0  0  0
  -27.7936  -23.5367   23.5309 C   0  0  0  0  0  0  0  0  0  1  0  0
  -28.4557  -22.4333   22.7286 C   0  0  0  0  0  0  0  0  0  0  0  0
  -29.4784  -17.9990   18.3099 C   0  0  2  0  0  0  0  0  0  0  0  0
  -25.6576  -30.1946   26.3138 C   0  0  1  0  0  0  0  0  0  0  0  0
  -26.0586  -29.6900   30.0494 C   0  0  2  0  0  0  0  0  0  0  0  0
  -26.1990  -31.4776   25.6223 C   0  0  0  0  0  0  0  0  0  0  0  0
  -26.1249  -11.8958   20.9998 N   0  0  0  0  0  0  0  0  0  0  0  0
  -29.2559  -20.5319   21.1059 N   0  0  0  0  0  0  0  0  0  0  0  0
  -26.1434  -12.8782   20.0829 N   0  0  0  0  0  0  0  0  0  0  0  0
  -24.1100  -28.5866   25.2448 N   0  0  0  0  0  0  0  0  0  0  0  0
  -29.5363  -14.3743   19.1563 N   0  0  0  0  0  0  0  0  0  0  0  0
  -24.8114  -14.5763   19.1069 N   0  0  0  0  0  0  0  0  0  0  0  0
  -22.0307  -12.6683   22.1108 N   0  0  0  0  0  0  0  0  0  0  0  0
  -21.8175  -29.0548   22.5512 N   0  0  0  0  0  0  0  0  0  0  0  0
  -25.6004  -30.2791   27.7692 N   0  0  0  0  0  0  0  0  0  0  0  0
  -29.1607  -16.6858   18.8249 N   0  0  0  0  0  0  0  0  0  0  0  0
  -26.0481  -28.4278   30.8416 N   0  3  0  0  0  0  0  0  0  0  0  0
  -22.2029  -14.2961   20.5047 O   0  0  0  0  0  0  0  0  0  0  0  0
  -24.0702  -28.4667   22.5998 O   0  0  0  0  0  0  0  0  0  0  0  0
  -23.3437  -30.6396   26.0411 O   0  0  0  0  0  0  0  0  0  0  0  0
  -26.9711  -28.4553   28.1838 O   0  0  0  0  0  0  0  0  0  0  0  0
  -31.0216  -15.6779   17.9428 O   0  0  0  0  0  0  0  0  0  0  0  0
  -23.2568   -8.4187   25.4979 O   0  0  0  0  0  0  0  0  0  0  0  0
  -26.5622  -23.0508   24.0637 O   0  0  0  0  0  0  0  0  0  1  0  0
  -27.6010  -22.0636   21.6534 O   0  0  0  0  0  0  0  0  0  0  0  0
  -18.3101   -6.0418   24.9648 F   0  0  0  0  0  0  0  0  0  0  0  0
  -23.0127   -5.6687   25.3542 F   0  0  0  0  0  0  0  0  0  0  0  0
  1  2  1  0  0  0  0
  1  5  2  0  0  0  0
  2  6  2  0  0  0  0
  3  9  2  0  0  0  0
  3 17  1  0  0  0  0
  4 10  1  0  0  0  0
  4 17  2  0  0  0  0
  5 19  1  0  0  0  0
  6 21  1  0  0  0  0
  7 11  2  0  0  0  0
  7 20  1  0  0  0  0
  8 14  2  0  0  0  0
  8 23  1  0  0  0  0
  9 24  1  0  0  0  0
 10 24  2  0  0  0  0
 11 25  1  0  0  0  0
 12 13  2  0  0  0  0
 12 26  1  0  0  0  0
 13 27  1  0  0  0  0
 14 31  1  0  0  0  0
 15 22  1  0  0  0  0
 15 25  2  0  0  0  0
 16 27  2  0  0  0  0
 16 28  1  0  0  0  0
 17 29  1  0  0  0  0
 18 29  1  0  0  0  0
 18 32  2  0  0  0  0
 18 33  1  0  0  0  0
 19 21  2  0  0  0  0
 19 38  1  0  0  0  0
 20 22  2  0  0  0  0
 20 39  1  0  0  0  0
 21 47  1  0  0  0  0
 22 40  1  0  0  0  0
 23 30  2  0  0  0  0
 23 59  1  0  0  0  0
 24 79  1  0  0  0  0
 25 80  1  0  0  0  0
 26 28  2  0  0  0  0
 26 79  1  0  0  0  0
 27 82  1  0  0  0  0
 28 83  1  0  0  0  0
 29 63  2  0  0  0  0
 30 50  1  0  0  0  0
 30 64  1  0  0  0  0
 31 64  2  0  0  0  0
 31 81  1  0  0  0  0
 32 65  1  0  0  0  0
 32 68  1  0  0  0  0
 33 69  1  0  0  0  0
 33 74  2  0  0  0  0
 34 48  1  0  0  0  0
 34 70  1  0  0  0  0
 34 75  2  0  0  0  0
 35 60  1  0  0  0  0
 35 66  1  0  0  0  0
 35 76  2  0  0  0  0
 36 61  1  0  0  0  0
 36 71  1  0  0  0  0
 36 77  2  0  0  0  0
 37 67  1  0  0  0  0
 37 72  1  0  0  0  0
 37 78  2  0  0  0  0
 38 41  1  0  0  0  0
 39 48  1  0  0  0  0
 40 66  1  0  0  0  0
 41 43  1  0  0  0  0
 42 44  1  0  0  0  0
 42 45  1  0  0  0  0
 43 47  1  0  0  0  0
 44 49  1  0  0  0  0
 45 67  1  0  0  0  0
 46 49  1  0  0  0  0
 46 67  1  0  0  0  0
 47 70  1  0  0  0  0
 48 66  1  0  0  0  0
 49 65  1  0  0  0  0
 51 59  1  0  0  0  0
 52 61  1  0  0  0  0
 53 62  1  0  0  0  0
 54 62  1  0  0  0  0
 55 62  1  0  0  0  0
 56 73  1  0  0  0  0
 57 58  1  0  0  0  0
 57 80  1  0  0  0  0
 58 81  1  0  0  0  0
 59 72  1  0  0  0  0
 60 62  1  0  0  0  0
 60 71  1  0  0  0  0
 61 73  1  0  0  0  0
 63 65  1  0  0  0  0
M  CHG  1  73   1
M  ISO  4  37 100  57 101  72 100  80 101
M  END
> <Batch ID>
0122

> <Smiles>
CNC(C)C(=O)NC(C(=O)N1Cc2cc([101O:1][101CH2:1]COc3ccc(C(C)[100NH:0][100C:0](=O)N4CCCC(n5nc(-c6ccc(Oc7ccc(F)cc7F)cc6)c(C(N)=O)c5N)C4)c(C)n3)ccc2CC1C(=O)NC1CCCc2ccccc21)C(C)(C)C

> <Shape>
0.230

> <Color>
0.134

> <Negative vol penalty>
0.000

$$$$

  -OEChem-04052320283D

 81 89  0     1  0  0  0  0  0999 V2000
  -17.3800  -30.6072   24.2747 C   0  0  0  0  0  0  0  0  0  0  0  0
  -18.5330  -30.3429   25.0068 C   0  0  0  0  0  0  0  0  0  0  0  0
  -26.5157  -18.7370   19.5245 C   0  0  0  0  0  0  0  0  0  0  0  0
  -27.5011  -18.1043   21.6377 C   0  0  0  0  0  0  0  0  0  0  0  0
  -17.1222  -29.8982   23.1022 C   0  0  0  0  0  0  0  0  0  0  0  0
  -19.4286  -29.3685   24.5674 C   0  0  0  0  0  0  0  0  0  0  0  0
  -25.5266  -29.4524   25.1262 C   0  0  0  0  0  0  0  0  0  0  0  0
  -30.7738  -27.7375   25.5799 C   0  0  0  0  0  0  0  0  0  0  0  0
  -25.9817  -17.4555   19.3897 C   0  0  0  0  0  0  0  0  0  0  0  0
  -26.9671  -16.8228   21.5030 C   0  0  0  0  0  0  0  0  0  0  0  0
  -26.3931  -28.8536   26.0397 C   0  0  0  0  0  0  0  0  0  0  0  0
  -26.1657  -13.2780   21.5444 C   0  0  0  0  0  0  0  0  0  0  0  0
  -26.9970  -12.1956   21.8327 C   0  0  0  0  0  0  0  0  0  0  0  0
  -31.5940  -27.4258   24.5012 C   0  0  0  0  0  0  0  0  0  0  0  0
  -26.7410  -27.0269   24.5031 C   0  0  0  0  0  0  0  0  0  0  0  0
  -28.5214  -12.9041   20.0974 C   0  0  0  0  0  0  0  0  0  0  0  0
  -31.6074  -25.8137   26.7027 C   0  0  0  0  0  0  0  0  0  0  0  0
  -27.2755  -19.0614   20.6484 C   0  0  0  0  0  0  0  0  0  0  0  0
  -27.2236  -21.4977   21.4030 C   0  0  0  0  0  0  0  0  0  0  0  0
  -18.0198  -28.9214   22.6430 C   0  0  0  0  0  0  0  0  0  0  0  0
  -25.2518  -28.8365   23.8968 C   0  0  0  0  0  0  0  0  0  0  0  0
  -19.1819  -28.6448   23.3883 C   0  0  0  0  0  0  0  0  0  0  0  0
  -25.8726  -27.6212   23.5747 C   0  0  0  0  0  0  0  0  0  0  0  0
  -30.7747  -26.9212   26.7054 C   0  0  0  0  0  0  0  0  0  0  0  0
  -26.2074  -16.4984   20.3790 C   0  0  0  0  0  0  0  0  0  0  0  0
  -26.9982  -27.6393   25.7294 C   0  0  0  0  0  0  0  0  0  0  0  0
  -26.5122  -14.1734   20.5325 C   0  0  0  0  0  0  0  0  0  0  0  0
  -28.1748  -12.0087   21.1092 C   0  0  0  0  0  0  0  0  0  0  0  0
  -27.6900  -13.9865   19.8090 C   0  0  0  0  0  0  0  0  0  0  0  0
  -27.8278  -20.3849   20.7878 C   0  0  0  0  0  0  0  0  0  0  0  0
  -32.3901  -26.2959   24.5973 C   0  0  0  0  0  0  0  0  0  0  0  0
  -28.1483  -22.5052   21.2744 C   0  0  0  0  0  0  0  0  0  0  0  0
  -25.9413  -21.6107   22.0343 C   0  0  0  0  0  0  0  0  0  0  0  0
  -22.6384  -27.6910   22.4963 C   0  0  0  0  0  0  0  0  0  0  0  0
  -24.6353  -27.3013   19.9698 C   0  0  0  0  0  0  0  0  0  0  0  0
  -27.8299  -26.9079   18.8357 C   0  0  0  0  0  0  0  0  0  0  0  0
  -33.4090  -24.3473   21.5524 C   0  0  0  0  0  0  0  0  0  0  0  0
  -17.6749  -28.1478   21.3951 C   0  0  0  0  0  0  0  0  0  0  0  0
  -24.3356  -29.5085   22.9113 C   0  0  0  0  0  0  0  0  0  0  0  0
  -25.6267  -26.9291   22.2598 C   0  0  0  0  0  0  0  0  0  0  0  0
  -18.8606  -27.3939   20.7986 C   0  0  0  0  0  0  0  0  0  0  0  0
  -32.3959  -22.7458   18.5381 C   0  0  0  0  0  0  0  0  0  0  0  0
  -19.6192  -26.6435   21.8886 C   0  0  0  0  0  0  0  0  0  0  0  0
  -31.0711  -22.0759   18.9073 C   0  0  0  0  0  0  0  0  0  0  0  0
  -33.3902  -22.7066   19.6965 C   0  0  0  0  0  0  0  0  0  0  0  0
  -31.5560  -22.5818   21.3379 C   0  0  0  0  0  0  0  0  0  0  0  0
  -20.1898  -27.6128   22.9309 C   0  0  1  0  0  0  0  0  0  0  0  0
  -23.7280  -28.5384   21.9027 C   0  0  1  0  0  0  0  0  0  0  0  0
  -30.5012  -22.6460   20.2201 C   0  0  2  0  0  0  0  0  0  0  0  0
  -30.6372  -28.0833   28.9331 C   0  0  0  0  0  0  0  0  0  0  0  0
  -29.1436  -26.5764   16.7234 C   0  0  0  0  0  0  0  0  0  0  0  0
  -23.7495  -24.3829   19.8799 C   0  0  0  0  0  0  0  0  0  0  0  0
  -25.7348  -23.8975   18.4338 C   0  0  0  0  0  0  0  0  0  0  0  0
  -23.9725  -25.4749   17.6411 C   0  0  0  0  0  0  0  0  0  0  0  0
  -29.3302  -29.4274   19.2360 C   0  0  0  0  0  0  0  0  0  0  0  0
  -33.2831  -25.9315   23.4585 C   0  0  0  0  0  0  0  0  0  0  0  0
  -28.5798  -27.9172   27.4836 C   0  0  0  0  0  0  0  0  0  1  0  0
  -29.8892  -27.2342   27.9014 C   0  0  1  0  0  0  0  0  0  0  0  0
  -25.5437  -26.1972   19.4855 C   0  0  1  0  0  0  0  0  0  0  0  0
  -28.5917  -27.5900   17.7137 C   0  0  2  0  0  0  0  0  0  0  0  0
  -24.7535  -24.9999   18.8857 C   0  0  0  0  0  0  0  0  0  0  0  0
  -32.4180  -25.4788   25.6740 N   0  0  0  0  0  0  0  0  0  0  0  0
  -29.0422  -20.6593   20.3042 N   0  0  0  0  0  0  0  0  0  0  0  0
  -29.2087  -21.9560   20.6154 N   0  0  0  0  0  0  0  0  0  0  0  0
  -24.7180  -27.6228   21.3321 N   0  0  0  0  0  0  0  0  0  0  0  0
  -32.7883  -23.2629   20.9107 N   0  0  0  0  0  0  0  0  0  0  0  0
  -28.1496  -23.7984   21.6617 N   0  0  0  0  0  0  0  0  0  0  0  0
  -25.1166  -20.4784   22.0790 N   0  0  0  0  0  0  0  0  0  0  0  0
  -21.3807  -28.2586   22.4220 N   0  0  0  0  0  0  0  0  0  0  0  0
  -26.4824  -26.8184   18.5575 N   0  0  0  0  0  0  0  0  0  0  0  0
  -32.7696  -24.8176   22.6928 N   0  0  0  0  0  0  0  0  0  0  0  0
  -29.7309  -28.3771   18.2648 N   0  3  0  0  0  0  0  0  0  0  0  0
  -25.5320  -22.6882   22.5291 O   0  0  0  0  0  0  0  0  0  0  0  0
  -22.9178  -26.6022   22.9841 O   0  0  0  0  0  0  0  0  0  0  0  0
  -23.8852  -27.8630   19.1676 O   0  0  0  0  0  0  0  0  0  0  0  0
  -28.3763  -26.4924   19.8552 O   0  0  0  0  0  0  0  0  0  0  0  0
  -34.4527  -24.8619   21.1365 O   0  0  0  0  0  0  0  0  0  0  0  0
  -25.6863  -15.2479   20.2480 O   0  0  0  0  0  0  0  0  0  0  0  0
  -27.8439  -27.0523   26.6194 O   0  0  0  0  0  0  0  0  0  1  0  0
  -28.9737  -10.9702   21.3873 F   0  0  0  0  0  0  0  0  0  0  0  0
  -28.0288  -14.8440   18.8366 F   0  0  0  0  0  0  0  0  0  0  0  0
  1  2  1  0  0  0  0
  1  5  2  0  0  0  0
  2  6  2  0  0  0  0
  3  9  2  0  0  0  0
  3 18  1  0  0  0  0
  4 10  1  0  0  0  0
  4 18  2  0  0  0  0
  5 20  1  0  0  0  0
  6 22  1  0  0  0  0
  7 11  2  0  0  0  0
  7 21  1  0  0  0  0
  8 14  2  0  0  0  0
  8 24  1  0  0  0  0
  9 25  1  0  0  0  0
 10 25  2  0  0  0  0
 11 26  1  0  0  0  0
 12 13  2  0  0  0  0
 12 27  1  0  0  0  0
 13 28  1  0  0  0  0
 14 31  1  0  0  0  0
 15 23  1  0  0  0  0
 15 26  2  0  0  0  0
 16 28  2  0  0  0  0
 16 29  1  0  0  0  0
 17 24  2  0  0  0  0
 17 62  1  0  0  0  0
 18 30  1  0  0  0  0
 19 30  1  0  0  0  0
 19 32  2  0  0  0  0
 19 33  1  0  0  0  0
 20 22  2  0  0  0  0
 20 38  1  0  0  0  0
 21 23  2  0  0  0  0
 21 39  1  0  0  0  0
 22 47  1  0  0  0  0
 23 40  1  0  0  0  0
 24 58  1  0  0  0  0
 25 78  1  0  0  0  0
 26 79  1  0  0  0  0
 27 29  2  0  0  0  0
 27 78  1  0  0  0  0
 28 80  1  0  0  0  0
 29 81  1  0  0  0  0
 30 63  2  0  0  0  0
 31 56  1  0  0  0  0
 31 62  2  0  0  0  0
 32 64  1  0  0  0  0
 32 67  1  0  0  0  0
 33 68  1  0  0  0  0
 33 73  2  0  0  0  0
 34 48  1  0  0  0  0
 34 69  1  0  0  0  0
 34 74  2  0  0  0  0
 35 59  1  0  0  0  0
 35 65  1  0  0  0  0
 35 75  2  0  0  0  0
 36 60  1  0  0  0  0
 36 70  1  0  0  0  0
 36 76  2  0  0  0  0
 37 66  1  0  0  0  0
 37 71  1  0  0  0  0
 37 77  2  0  0  0  0
 38 41  1  0  0  0  0
 39 48  1  0  0  0  0
 40 65  1  0  0  0  0
 41 43  1  0  0  0  0
 42 44  1  0  0  0  0
 42 45  1  0  0  0  0
 43 47  1  0  0  0  0
 44 49  1  0  0  0  0
 45 66  1  0  0  0  0
 46 49  1  0  0  0  0
 46 66  1  0  0  0  0
 47 69  1  0  0  0  0
 48 65  1  0  0  0  0
 49 64  1  0  0  0  0
 50 58  1  0  0  0  0
 51 60  1  0  0  0  0
 52 61  1  0  0  0  0
 53 61  1  0  0  0  0
 54 61  1  0  0  0  0
 55 72  1  0  0  0  0
 56 71  1  0  0  0  0
 57 58  1  0  0  0  0
 57 79  1  0  0  0  0
 59 61  1  0  0  0  0
 59 70  1  0  0  0  0
 60 72  1  0  0  0  0
 63 64  1  0  0  0  0
M  CHG  1  72   1
M  ISO  4  37 100  57 101  71 100  79 101
M  END
> <Batch ID>
0122

> <Smiles>
CNC(C)C(=O)NC(C(=O)N1Cc2cc([101O:1][101CH2:1]C(C)c3ccc(C[100NH:0][100C:0](=O)N4CCCC(n5nc(-c6ccc(Oc7ccc(F)cc7F)cc6)c(C(N)=O)c5N)C4)nc3)ccc2CC1C(=O)NC1CCCc2ccccc21)C(C)(C)C

> <Shape>
0.199

> <Color>
0.082

> <Negative vol penalty>
0.000

$$$$

  -OEChem-04052320283D

 81 89  0     1  0  0  0  0  0999 V2000
  -17.1778  -23.9835   22.1374 C   0  0  0  0  0  0  0  0  0  0  0  0
  -17.4665  -24.2992   20.8136 C   0  0  0  0  0  0  0  0  0  0  0  0
  -26.7777  -14.2132   22.5300 C   0  0  0  0  0  0  0  0  0  0  0  0
  -24.9172  -14.8052   21.1069 C   0  0  0  0  0  0  0  0  0  0  0  0
  -17.8150  -24.6685   23.1711 C   0  0  0  0  0  0  0  0  0  0  0  0
  -18.3920  -25.3009   20.5228 C   0  0  0  0  0  0  0  0  0  0  0  0
  -24.2657  -23.8966   16.5962 C   0  0  0  0  0  0  0  0  0  0  0  0
  -26.6625  -12.8828   22.1270 C   0  0  0  0  0  0  0  0  0  0  0  0
  -24.8021  -13.4748   20.7038 C   0  0  0  0  0  0  0  0  0  0  0  0
  -25.3044  -23.7558   15.6756 C   0  0  0  0  0  0  0  0  0  0  0  0
  -23.5228  -10.5993   21.9391 C   0  0  0  0  0  0  0  0  0  0  0  0
  -22.2444  -10.0429   21.8982 C   0  0  0  0  0  0  0  0  0  0  0  0
  -25.9612  -26.0529   16.0492 C   0  0  0  0  0  0  0  0  0  0  0  0
  -22.5065   -9.6145   19.5350 C   0  0  0  0  0  0  0  0  0  0  0  0
  -25.9049  -15.1744   22.0199 C   0  0  0  0  0  0  0  0  0  0  0  0
  -25.9097  -17.0531   23.7457 C   0  0  0  0  0  0  0  0  0  0  0  0
  -18.7559  -25.6725   22.8929 C   0  0  0  0  0  0  0  0  0  0  0  0
  -24.0802  -25.1130   17.2590 C   0  0  0  0  0  0  0  0  0  0  0  0
  -19.0414  -26.0009   21.5538 C   0  0  0  0  0  0  0  0  0  0  0  0
  -24.9303  -26.1961   16.9816 C   0  0  0  0  0  0  0  0  0  0  0  0
  -25.6748  -12.5136   21.2140 C   0  0  0  0  0  0  0  0  0  0  0  0
  -26.1499  -24.8314   15.4026 C   0  0  0  0  0  0  0  0  0  0  0  0
  -24.2930  -10.6635   20.7779 C   0  0  0  0  0  0  0  0  0  0  0  0
  -21.7363   -9.5505   20.6962 C   0  0  0  0  0  0  0  0  0  0  0  0
  -23.7849  -10.1711   19.5759 C   0  0  0  0  0  0  0  0  0  0  0  0
  -26.0230  -16.5488   22.4362 C   0  0  0  0  0  0  0  0  0  0  0  0
  -26.1000  -18.4066   23.6100 C   0  0  0  0  0  0  0  0  0  0  0  0
  -25.6553  -16.3601   24.9748 C   0  0  0  0  0  0  0  0  0  0  0  0
  -22.0932  -27.0720   19.7670 C   0  0  0  0  0  0  0  0  0  0  0  0
  -25.0395  -27.8157   20.1874 C   0  0  0  0  0  0  0  0  0  0  0  0
  -28.1127  -27.5640   20.8159 C   0  0  0  0  0  0  0  0  0  0  0  0
  -29.0198  -21.5837   19.5805 C   0  0  0  0  0  0  0  0  0  0  0  0
  -19.3840  -26.4179   24.0437 C   0  0  0  0  0  0  0  0  0  0  0  0
  -22.9366  -25.3285   18.2128 C   0  0  0  0  0  0  0  0  0  0  0  0
  -24.6716  -27.4962   17.6928 C   0  0  0  0  0  0  0  0  0  0  0  0
  -20.6294  -27.2082   23.6504 C   0  0  0  0  0  0  0  0  0  0  0  0
  -30.7410  -24.4397   12.1635 C   0  0  0  0  0  0  0  0  0  0  0  0
  -31.5722  -25.1582   13.2209 C   0  0  0  0  0  0  0  0  0  0  0  0
  -25.5325  -21.9715   20.4672 C   0  0  0  0  0  0  0  0  0  0  0  0
  -20.3776  -27.9992   22.3707 C   0  0  0  0  0  0  0  0  0  0  0  0
  -29.2948  -24.2507   12.6151 C   0  0  0  0  0  0  0  0  0  0  0  0
  -25.2579  -20.6585   21.2027 C   0  0  0  0  0  0  0  0  0  0  0  0
  -31.4999  -24.4444   14.5680 C   0  0  0  0  0  0  0  0  0  0  0  0
  -26.4749  -21.7570   19.2865 C   0  0  0  0  0  0  0  0  0  0  0  0
  -27.4973  -19.7972   20.3763 C   0  0  0  0  0  0  0  0  0  0  0  0
  -20.0578  -27.0642   21.1981 C   0  0  1  0  0  0  0  0  0  0  0  0
  -23.2955  -26.2598   19.3846 C   0  0  1  0  0  0  0  0  0  0  0  0
  -29.2048  -23.5231   13.9681 C   0  0  1  0  0  0  0  0  0  0  0  0
  -26.5686  -19.9510   21.5945 C   0  0  2  0  0  0  0  0  0  0  0  0
  -30.0498  -24.2646   15.0203 C   0  0  1  0  0  0  0  0  0  0  0  0
  -30.3059  -28.3912   21.7118 C   0  0  0  0  0  0  0  0  0  0  0  0
  -24.5885  -30.3968   18.6259 C   0  0  0  0  0  0  0  0  0  0  0  0
  -26.8676  -31.1452   19.3428 C   0  0  0  0  0  0  0  0  0  0  0  0
  -25.1010  -30.7209   21.0522 C   0  0  0  0  0  0  0  0  0  0  0  0
  -28.3326  -25.2916   22.6992 C   0  0  0  0  0  0  0  0  0  0  0  0
  -27.7369  -23.3845   14.3801 C   0  0  0  0  0  0  0  0  0  1  0  0
  -30.4170  -23.4504   18.7319 C   0  0  0  0  0  0  0  0  0  0  0  0
  -30.4218  -24.3214   17.4896 C   0  0  0  0  0  0  0  0  0  0  0  0
  -26.1644  -28.7634   19.8566 C   0  0  1  0  0  0  0  0  0  0  0  0
  -29.0534  -27.5808   22.0072 C   0  0  2  0  0  0  0  0  0  0  0  0
  -25.6769  -30.2321   19.7053 C   0  0  0  0  0  0  0  0  0  0  0  0
  -26.2662  -17.5041   21.5350 N   0  0  0  0  0  0  0  0  0  0  0  0
  -26.3072  -18.6223   22.2793 N   0  0  0  0  0  0  0  0  0  0  0  0
  -24.3581  -27.2412   19.1075 N   0  0  0  0  0  0  0  0  0  0  0  0
  -27.7107  -21.0966   19.7302 N   0  0  0  0  0  0  0  0  0  0  0  0
  -26.1085  -19.4213   24.5003 N   0  0  0  0  0  0  0  0  0  0  0  0
  -24.3254  -16.1909   25.3835 N   0  0  0  0  0  0  0  0  0  0  0  0
  -21.2696  -26.4572   20.6907 N   0  0  0  0  0  0  0  0  0  0  0  0
  -27.1760  -28.5731   20.8905 N   0  0  0  0  0  0  0  0  0  0  0  0
  -29.1356  -22.8176   18.9523 N   0  0  0  0  0  0  0  0  0  0  0  0
  -30.0581  -23.5055   16.3022 N   0  3  0  0  0  0  0  0  0  0  0  0
  -29.4644  -26.1930   22.3622 N   0  3  0  0  0  0  0  0  0  0  0  0
  -26.5806  -15.9188   25.6976 O   0  0  0  0  0  0  0  0  0  0  0  0
  -21.9247  -28.1762   19.2630 O   0  0  0  0  0  0  0  0  0  0  0  0
  -24.7663  -27.5933   21.3703 O   0  0  0  0  0  0  0  0  0  0  0  0
  -28.2023  -26.7405   19.9079 O   0  0  0  0  0  0  0  0  0  0  0  0
  -30.0124  -20.9668   19.9821 O   0  0  0  0  0  0  0  0  0  0  0  0
  -25.5623  -11.2155   20.8203 O   0  0  0  0  0  0  0  0  0  0  0  0
  -27.1647  -24.6857   14.5061 O   0  0  0  0  0  0  0  0  0  1  0  0
  -20.5092   -9.0147   20.6573 F   0  0  0  0  0  0  0  0  0  0  0  0
  -24.5206  -10.2288   18.4573 F   0  0  0  0  0  0  0  0  0  0  0  0
  1  2  1  0  0  0  0
  1  5  2  0  0  0  0
  2  6  2  0  0  0  0
  3  8  2  0  0  0  0
  3 15  1  0  0  0  0
  4  9  1  0  0  0  0
  4 15  2  0  0  0  0
  5 17  1  0  0  0  0
  6 19  1  0  0  0  0
  7 10  2  0  0  0  0
  7 18  1  0  0  0  0
  8 21  1  0  0  0  0
  9 21  2  0  0  0  0
 10 22  1  0  0  0  0
 11 12  2  0  0  0  0
 11 23  1  0  0  0  0
 12 24  1  0  0  0  0
 13 20  1  0  0  0  0
 13 22  2  0  0  0  0
 14 24  2  0  0  0  0
 14 25  1  0  0  0  0
 15 26  1  0  0  0  0
 16 26  1  0  0  0  0
 16 27  2  0  0  0  0
 16 28  1  0  0  0  0
 17 19  2  0  0  0  0
 17 33  1  0  0  0  0
 18 20  2  0  0  0  0
 18 34  1  0  0  0  0
 19 46  1  0  0  0  0
 20 35  1  0  0  0  0
 21 78  1  0  0  0  0
 22 79  1  0  0  0  0
 23 25  2  0  0  0  0
 23 78  1  0  0  0  0
 24 80  1  0  0  0  0
 25 81  1  0  0  0  0
 26 62  2  0  0  0  0
 27 63  1  0  0  0  0
 27 66  1  0  0  0  0
 28 67  1  0  0  0  0
 28 73  2  0  0  0  0
 29 47  1  0  0  0  0
 29 68  1  0  0  0  0
 29 74  2  0  0  0  0
 30 59  1  0  0  0  0
 30 64  1  0  0  0  0
 30 75  2  0  0  0  0
 31 60  1  0  0  0  0
 31 69  1  0  0  0  0
 31 76  2  0  0  0  0
 32 65  1  0  0  0  0
 32 70  1  0  0  0  0
 32 77  2  0  0  0  0
 33 36  1  0  0  0  0
 34 47  1  0  0  0  0
 35 64  1  0  0  0  0
 36 40  1  0  0  0  0
 37 38  1  0  0  0  0
 37 41  1  0  0  0  0
 38 43  1  0  0  0  0
 39 42  1  0  0  0  0
 39 44  1  0  0  0  0
 40 46  1  0  0  0  0
 41 48  1  0  0  0  0
 42 49  1  0  0  0  0
 43 50  1  0  0  0  0
 44 65  1  0  0  0  0
 45 49  1  0  0  0  0
 45 65  1  0  0  0  0
 46 68  1  0  0  0  0
 47 64  1  0  0  0  0
 48 50  1  0  0  0  0
 48 56  1  0  0  0  0
 49 63  1  0  0  0  0
 50 71  1  0  0  0  0
 51 60  1  0  0  0  0
 52 61  1  0  0  0  0
 53 61  1  0  0  0  0
 54 61  1  0  0  0  0
 55 72  1  0  0  0  0
 56 79  1  0  0  0  0
 57 58  1  0  0  0  0
 57 70  1  0  0  0  0
 58 71  1  0  0  0  0
 59 61  1  0  0  0  0
 59 69  1  0  0  0  0
 60 72  1  0  0  0  0
 62 63  1  0  0  0  0
M  CHG  2  71   1  72   1
M  ISO  4  32 100  56 101  70 100  79 101
M  END
> <Batch ID>
0122

> <Smiles>
CNC(C)C(=O)NC(C(=O)N1Cc2cc([101O:1][101CH2:1]C3CCCCC3NCC[100NH:0][100C:0](=O)N3CCCC(n4nc(-c5ccc(Oc6ccc(F)cc6F)cc5)c(C(N)=O)c4N)C3)ccc2CC1C(=O)NC1CCCc2ccccc21)C(C)(C)C

> <Shape>
0.198

> <Color>
0.055

> <Negative vol penalty>
0.000

$$$$

  -OEChem-04052320283D

 87 96  0     1  0  0  0  0  0999 V2000
  -28.2038  -17.4236   27.2717 C   0  0  0  0  0  0  0  0  0  0  0  0
  -27.9078  -18.2297   26.1771 C   0  0  0  0  0  0  0  0  0  0  0  0
  -29.2187  -26.1186   20.5251 C   0  0  0  0  0  0  0  0  0  0  0  0
  -27.3168  -24.6307   20.6009 C   0  0  0  0  0  0  0  0  0  0  0  0
  -28.3228  -16.0441   27.1082 C   0  0  0  0  0  0  0  0  0  0  0  0
  -27.7319  -17.6567   24.9181 C   0  0  0  0  0  0  0  0  0  0  0  0
  -23.6156  -19.5219   22.4546 C   0  0  0  0  0  0  0  0  0  0  0  0
  -18.0287  -25.7839   22.4478 C   0  0  0  0  0  0  0  0  0  0  0  0
  -30.0338  -25.1021   21.0229 C   0  0  0  0  0  0  0  0  0  0  0  0
  -28.1319  -23.6141   21.0987 C   0  0  0  0  0  0  0  0  0  0  0  0
  -23.7173  -20.7730   21.8477 C   0  0  0  0  0  0  0  0  0  0  0  0
  -30.3789  -21.4036   19.8799 C   0  0  0  0  0  0  0  0  0  0  0  0
  -30.2415  -20.1328   19.3215 C   0  0  0  0  0  0  0  0  0  0  0  0
  -18.8565  -25.0363   21.6178 C   0  0  0  0  0  0  0  0  0  0  0  0
  -24.1242  -19.7033   19.7244 C   0  0  0  0  0  0  0  0  0  0  0  0
  -29.6453  -19.2453   21.4880 C   0  0  0  0  0  0  0  0  0  0  0  0
  -27.8601  -25.8829   20.3142 C   0  0  0  0  0  0  0  0  0  0  0  0
  -26.7411  -27.2168   18.4497 C   0  0  0  0  0  0  0  0  0  0  0  0
  -28.1387  -15.4529   25.8484 C   0  0  0  0  0  0  0  0  0  0  0  0
  -23.7779  -18.3498   21.7019 C   0  0  0  0  0  0  0  0  0  0  0  0
  -27.8499  -16.2681   24.7373 C   0  0  0  0  0  0  0  0  0  0  0  0
  -18.4095  -27.0659   22.8282 C   0  0  0  0  0  0  0  0  0  0  0  0
  -24.0192  -18.4387   20.3233 C   0  0  0  0  0  0  0  0  0  0  0  0
  -29.4905  -23.8498   21.3097 C   0  0  0  0  0  0  0  0  0  0  0  0
  -23.9739  -20.8638   20.4829 C   0  0  0  0  0  0  0  0  0  0  0  0
  -30.1496  -21.5952   21.2424 C   0  0  0  0  0  0  0  0  0  0  0  0
  -29.8747  -19.0537   20.1255 C   0  0  0  0  0  0  0  0  0  0  0  0
  -29.7828  -20.5161   22.0465 C   0  0  0  0  0  0  0  0  0  0  0  0
  -27.0174  -26.9328   19.8005 C   0  0  0  0  0  0  0  0  0  0  0  0
  -19.6183  -27.5506   22.3551 C   0  0  0  0  0  0  0  0  0  0  0  0
  -20.0452  -25.6119   21.1987 C   0  0  0  0  0  0  0  0  0  0  0  0
  -25.8956  -28.2984   18.4922 C   0  0  0  0  0  0  0  0  0  0  0  0
  -27.2070  -26.5615   17.2626 C   0  0  0  0  0  0  0  0  0  0  0  0
  -25.7701  -15.8445   21.7128 C   0  0  0  0  0  0  0  0  0  0  0  0
  -23.6587  -14.8174   19.3590 C   0  0  0  0  0  0  0  0  0  0  0  0
  -25.0229  -11.6973   19.5676 C   0  0  0  0  0  0  0  0  0  0  0  0
  -22.1059  -30.3502   22.6490 C   0  0  0  0  0  0  0  0  0  0  0  0
  -28.3241  -13.9624   25.7118 C   0  0  0  0  0  0  0  0  0  0  0  0
  -23.6342  -17.0093   22.3703 C   0  0  0  0  0  0  0  0  0  0  0  0
  -24.1972  -17.2110   19.4714 C   0  0  0  0  0  0  0  0  0  0  0  0
  -27.7530  -13.3938   24.4154 C   0  0  0  0  0  0  0  0  0  0  0  0
  -16.8979  -26.5529   25.6508 C   0  0  0  0  0  0  0  0  0  0  0  0
  -15.6192  -26.7767   24.8556 C   0  0  0  0  0  0  0  0  0  0  0  0
  -24.8266  -32.1122   21.1760 C   0  0  0  0  0  0  0  0  0  0  0  0
  -17.8177  -27.6841   25.2204 C   0  0  0  0  0  0  0  0  0  0  0  0
  -16.0098  -27.5851   23.6153 C   0  0  0  0  0  0  0  0  0  0  0  0
  -28.1701  -14.2533   23.2262 C   0  0  0  0  0  0  0  0  0  0  0  0
  -25.6716  -31.0102   20.5345 C   0  0  0  0  0  0  0  0  0  0  0  0
  -24.2070  -31.6532   22.4941 C   0  0  0  0  0  0  0  0  0  0  0  0
  -24.2780  -29.2985   21.7701 C   0  0  0  0  0  0  0  0  0  0  0  0
  -17.5120  -27.8848   23.7324 C   0  0  0  0  0  0  0  0  0  0  0  0
  -27.6275  -15.6813   23.3603 C   0  0  1  0  0  0  0  0  0  0  0  0
  -24.2731  -15.8649   21.5863 C   0  0  1  0  0  0  0  0  0  0  0  0
  -24.8782  -29.6956   20.4105 C   0  0  2  0  0  0  0  0  0  0  0  0
  -24.6828   -9.3415   18.7727 C   0  0  0  0  0  0  0  0  0  0  0  0
  -21.3926  -14.4691   21.3713 C   0  0  0  0  0  0  0  0  0  0  0  0
  -21.7427  -11.9941   21.2306 C   0  0  0  0  0  0  0  0  0  0  0  0
  -21.0547  -13.2720   19.2017 C   0  0  0  0  0  0  0  0  0  0  0  0
  -27.6301  -11.6702   18.1672 C   0  0  0  0  0  0  0  0  0  0  0  0
  -20.0787  -28.9209   22.7314 C   0  0  0  0  0  0  0  0  0  0  0  0
  -22.9616  -24.1425   19.3538 C   0  0  0  0  0  0  0  0  0  0  0  0
  -22.1254  -25.3144   19.8534 C   0  0  0  0  0  0  0  0  0  0  0  0
  -23.3083  -23.1469   20.4546 C   0  0  0  0  0  0  0  0  0  1  0  0
  -23.4135  -13.5147   20.0786 C   0  0  1  0  0  0  0  0  0  0  0  0
  -25.3641  -10.6735   18.5000 C   0  0  2  0  0  0  0  0  0  0  0  0
  -21.9223  -13.3297   20.4779 C   0  0  0  0  0  0  0  0  0  0  0  0
  -26.3979  -27.7667   20.6400 N   0  0  0  0  0  0  0  0  0  0  0  0
  -20.4489  -26.8541   21.5473 N   0  0  0  0  0  0  0  0  0  0  0  0
  -25.7239  -28.5855   19.8144 N   0  0  0  0  0  0  0  0  0  0  0  0
  -23.9643  -15.9307   20.1522 N   0  0  0  0  0  0  0  0  0  0  0  0
  -23.4673  -30.4026   22.3073 N   0  0  0  0  0  0  0  0  0  0  0  0
  -25.2898  -29.0224   17.5272 N   0  0  0  0  0  0  0  0  0  0  0  0
  -28.0705  -25.4660   17.3992 N   0  0  0  0  0  0  0  0  0  0  0  0
  -20.8596  -24.8544   20.3714 N   0  0  0  0  0  0  0  0  0  0  0  0
  -26.2233  -15.7231   23.0125 N   0  0  0  0  0  0  0  0  0  0  0  0
  -23.9343  -12.4644   19.2103 N   0  0  0  0  0  0  0  0  0  0  0  0
  -21.4785  -29.1290   22.4347 N   0  0  0  0  0  0  0  0  0  0  0  0
  -26.8363  -10.4470   18.4511 N   0  3  0  0  0  0  0  0  0  0  0  0
  -26.8808  -26.9465   16.1142 O   0  0  0  0  0  0  0  0  0  0  0  0
  -26.4627  -15.9309   20.7056 O   0  0  0  0  0  0  0  0  0  0  0  0
  -23.5745  -14.8513   18.1282 O   0  0  0  0  0  0  0  0  0  0  0  0
  -25.6563  -11.8032   20.6155 O   0  0  0  0  0  0  0  0  0  0  0  0
  -21.4934  -31.3214   23.1058 O   0  0  0  0  0  0  0  0  0  0  0  0
  -30.2857  -22.8576   21.7952 O   0  0  0  0  0  0  0  0  0  0  0  0
  -24.0731  -22.0837   19.8880 O   0  0  0  0  0  0  0  0  0  1  0  0
  -29.7413  -17.8337   19.5889 F   0  0  0  0  0  0  0  0  0  0  0  0
  -29.5600  -20.6942   23.3558 F   0  0  0  0  0  0  0  0  0  0  0  0
  1  2  1  0  0  0  0
  1  5  2  0  0  0  0
  2  6  2  0  0  0  0
  3  9  2  0  0  0  0
  3 17  1  0  0  0  0
  4 10  1  0  0  0  0
  4 17  2  0  0  0  0
  5 19  1  0  0  0  0
  6 21  1  0  0  0  0
  7 11  2  0  0  0  0
  7 20  1  0  0  0  0
  8 14  2  0  0  0  0
  8 22  1  0  0  0  0
  9 24  1  0  0  0  0
 10 24  2  0  0  0  0
 11 25  1  0  0  0  0
 12 13  2  0  0  0  0
 12 26  1  0  0  0  0
 13 27  1  0  0  0  0
 14 31  1  0  0  0  0
 15 23  1  0  0  0  0
 15 25  2  0  0  0  0
 16 27  2  0  0  0  0
 16 28  1  0  0  0  0
 17 29  1  0  0  0  0
 18 29  1  0  0  0  0
 18 32  2  0  0  0  0
 18 33  1  0  0  0  0
 19 21  2  0  0  0  0
 19 38  1  0  0  0  0
 20 23  2  0  0  0  0
 20 39  1  0  0  0  0
 21 52  1  0  0  0  0
 22 30  2  0  0  0  0
 22 51  1  0  0  0  0
 23 40  1  0  0  0  0
 24 84  1  0  0  0  0
 25 85  1  0  0  0  0
 26 28  2  0  0  0  0
 26 84  1  0  0  0  0
 27 86  1  0  0  0  0
 28 87  1  0  0  0  0
 29 67  2  0  0  0  0
 30 60  1  0  0  0  0
 30 68  1  0  0  0  0
 31 68  2  0  0  0  0
 31 74  1  0  0  0  0
 32 69  1  0  0  0  0
 32 72  1  0  0  0  0
 33 73  1  0  0  0  0
 33 79  2  0  0  0  0
 34 53  1  0  0  0  0
 34 75  1  0  0  0  0
 34 80  2  0  0  0  0
 35 64  1  0  0  0  0
 35 70  1  0  0  0  0
 35 81  2  0  0  0  0
 36 65  1  0  0  0  0
 36 76  1  0  0  0  0
 36 82  2  0  0  0  0
 37 71  1  0  0  0  0
 37 77  1  0  0  0  0
 37 83  2  0  0  0  0
 38 41  1  0  0  0  0
 39 53  1  0  0  0  0
 40 70  1  0  0  0  0
 41 47  1  0  0  0  0
 42 43  1  0  0  0  0
 42 45  1  0  0  0  0
 43 46  1  0  0  0  0
 44 48  1  0  0  0  0
 44 49  1  0  0  0  0
 45 51  1  0  0  0  0
 46 51  1  0  0  0  0
 47 52  1  0  0  0  0
 48 54  1  0  0  0  0
 49 71  1  0  0  0  0
 50 54  1  0  0  0  0
 50 71  1  0  0  0  0
 52 75  1  0  0  0  0
 53 70  1  0  0  0  0
 54 69  1  0  0  0  0
 55 65  1  0  0  0  0
 56 66  1  0  0  0  0
 57 66  1  0  0  0  0
 58 66  1  0  0  0  0
 59 78  1  0  0  0  0
 60 77  1  0  0  0  0
 61 62  1  0  0  0  0
 61 63  1  0  0  0  0
 62 74  1  0  0  0  0
 63 85  1  0  0  0  0
 64 66  1  0  0  0  0
 64 76  1  0  0  0  0
 65 78  1  0  0  0  0
 67 69  1  0  0  0  0
M  CHG  1  78   1
M  ISO  4  37 100  63 101  77 100  85 101
M  END
> <Batch ID>
0122

> <Smiles>
CNC(C)C(=O)NC(C(=O)N1Cc2cc([101O:1][101CH2:1]CCNc3ccc(C4CCCC4)c(C[100NH:0][100C:0](=O)N4CCCC(n5nc(-c6ccc(Oc7ccc(F)cc7F)cc6)c(C(N)=O)c5N)C4)n3)ccc2CC1C(=O)NC1CCCc2ccccc21)C(C)(C)C

> <Shape>
0.212

> <Color>
0.059

> <Negative vol penalty>
0.000

$$$$

  -OEChem-04052320283D

 83 91  0     1  0  0  0  0  0999 V2000
  -17.5543  -30.8587   23.4049 C   0  0  0  0  0  0  0  0  0  0  0  0
  -18.9136  -30.5793   23.3073 C   0  0  0  0  0  0  0  0  0  0  0  0
  -30.1498  -25.4807   16.7431 C   0  0  0  0  0  0  0  0  0  0  0  0
  -26.0750  -14.7333   20.1695 C   0  0  0  0  0  0  0  0  0  0  0  0
  -24.4049  -16.3683   19.5572 C   0  0  0  0  0  0  0  0  0  0  0  0
  -16.6357  -29.8157   23.5158 C   0  0  0  0  0  0  0  0  0  0  0  0
  -19.3552  -29.2567   23.3216 C   0  0  0  0  0  0  0  0  0  0  0  0
  -22.8514  -28.3374   19.7752 C   0  0  0  0  0  0  0  0  0  0  0  0
  -25.0704  -13.7934   20.3996 C   0  0  0  0  0  0  0  0  0  0  0  0
  -23.4004  -15.4283   19.7873 C   0  0  0  0  0  0  0  0  0  0  0  0
  -24.1518  -28.7668   20.0367 C   0  0  0  0  0  0  0  0  0  0  0  0
  -22.8356  -13.0820   22.8335 C   0  0  0  0  0  0  0  0  0  0  0  0
  -22.9211  -12.3143   23.9949 C   0  0  0  0  0  0  0  0  0  0  0  0
  -30.8717  -26.4913   17.3683 C   0  0  0  0  0  0  0  0  0  0  0  0
  -29.6520  -24.4223   17.4949 C   0  0  0  0  0  0  0  0  0  0  0  0
  -24.7554  -26.5236   20.6871 C   0  0  0  0  0  0  0  0  0  0  0  0
  -23.0091  -10.3031   22.6591 C   0  0  0  0  0  0  0  0  0  0  0  0
  -25.7422  -16.0209   19.7484 C   0  0  0  0  0  0  0  0  0  0  0  0
  -27.4582  -17.2331   18.3015 C   0  0  0  0  0  0  0  0  0  0  0  0
  -17.0654  -28.4793   23.5217 C   0  0  0  0  0  0  0  0  0  0  0  0
  -22.4898  -26.9979   19.9785 C   0  0  0  0  0  0  0  0  0  0  0  0
  -18.4416  -28.1949   23.4340 C   0  0  0  0  0  0  0  0  0  0  0  0
  -23.4504  -26.0792   20.4250 C   0  0  0  0  0  0  0  0  0  0  0  0
  -23.7331  -14.1408   20.2085 C   0  0  0  0  0  0  0  0  0  0  0  0
  -25.1033  -27.8605   20.4954 C   0  0  0  0  0  0  0  0  0  0  0  0
  -22.8368  -12.4602   21.5848 C   0  0  0  0  0  0  0  0  0  0  0  0
  -23.0079  -10.9249   23.9077 C   0  0  0  0  0  0  0  0  0  0  0  0
  -22.9236  -11.0708   21.4976 C   0  0  0  0  0  0  0  0  0  0  0  0
  -26.7794  -16.9925   19.5111 C   0  0  0  0  0  0  0  0  0  0  0  0
  -31.0667  -26.3976   18.7369 C   0  0  0  0  0  0  0  0  0  0  0  0
  -29.9017  -24.4211   18.8577 C   0  0  0  0  0  0  0  0  0  0  0  0
  -28.3389  -18.2447   18.5973 C   0  0  0  0  0  0  0  0  0  0  0  0
  -27.3062  -16.5990   17.0246 C   0  0  0  0  0  0  0  0  0  0  0  0
  -20.4105  -25.4958   21.8557 C   0  0  0  0  0  0  0  0  0  0  0  0
  -21.3461  -22.8968   20.1551 C   0  0  0  0  0  0  0  0  0  0  0  0
  -23.7402  -21.3939   18.2429 C   0  0  0  0  0  0  0  0  0  0  0  0
  -29.5167  -23.1333   20.9884 C   0  0  0  0  0  0  0  0  0  0  0  0
  -16.0389  -27.3874   23.6911 C   0  0  0  0  0  0  0  0  0  0  0  0
  -21.0899  -26.5449   19.6663 C   0  0  0  0  0  0  0  0  0  0  0  0
  -23.1182  -24.6259   20.6400 C   0  0  0  0  0  0  0  0  0  0  0  0
  -16.5585  -26.0004   23.3216 C   0  0  0  0  0  0  0  0  0  0  0  0
  -29.6935  -20.2356   23.0497 C   0  0  0  0  0  0  0  0  0  0  0  0
  -17.9304  -25.7609   23.9440 C   0  0  0  0  0  0  0  0  0  0  0  0
  -29.0070  -19.1533   22.2133 C   0  0  0  0  0  0  0  0  0  0  0  0
  -29.0217  -21.5967   22.8776 C   0  0  0  0  0  0  0  0  0  0  0  0
  -28.1830  -20.9602   20.6503 C   0  0  0  0  0  0  0  0  0  0  0  0
  -18.9575  -26.7723   23.4210 C   0  0  1  0  0  0  0  0  0  0  0  0
  -20.6984  -25.2654   20.3991 C   0  0  1  0  0  0  0  0  0  0  0  0
  -28.8643  -19.5850   20.7406 C   0  0  2  0  0  0  0  0  0  0  0  0
  -24.7912  -19.6558   16.7691 C   0  0  0  0  0  0  0  0  0  0  0  0
  -21.9530  -21.5304   22.8149 C   0  0  0  0  0  0  0  0  0  0  0  0
  -23.2970  -19.8335   21.5569 C   0  0  0  0  0  0  0  0  0  0  0  0
  -20.8526  -20.0626   21.1152 C   0  0  0  0  0  0  0  0  0  0  0  0
  -22.6513  -22.6463   15.7925 C   0  0  0  0  0  0  0  0  0  0  0  0
  -31.8413  -27.4709   19.4454 C   0  0  0  0  0  0  0  0  0  0  0  0
  -28.0615  -28.5555   22.4328 C   0  0  0  0  0  0  0  0  0  0  0  0
  -30.9779  -28.6214   19.9532 C   0  0  0  0  0  0  0  0  0  0  0  0
  -29.0678  -29.1647   21.4681 C   0  0  0  0  0  0  0  0  0  0  0  0
  -27.0901  -27.5845   21.7730 C   0  0  0  0  0  0  0  0  0  1  0  0
  -22.4332  -21.8593   20.2995 C   0  0  1  0  0  0  0  0  0  0  0  0
  -23.6554  -20.6559   16.9190 C   0  0  2  0  0  0  0  0  0  0  0  0
  -22.1400  -20.8492   21.4445 C   0  0  0  0  0  0  0  0  0  0  0  0
  -27.1935  -17.7871   20.5016 N   0  0  0  0  0  0  0  0  0  0  0  0
  -30.5986  -25.3849   19.5005 N   0  0  0  0  0  0  0  0  0  0  0  0
  -28.1420  -18.5369   19.9149 N   0  0  0  0  0  0  0  0  0  0  0  0
  -21.7344  -24.2331   20.3267 N   0  0  0  0  0  0  0  0  0  0  0  0
  -28.9250  -21.9414   21.4575 N   0  0  0  0  0  0  0  0  0  0  0  0
  -29.2548  -18.9039   17.8564 N   0  0  0  0  0  0  0  0  0  0  0  0
  -26.3551  -15.5778   16.8948 N   0  0  0  0  0  0  0  0  0  0  0  0
  -29.3885  -23.3391   19.6152 N   0  0  0  0  0  0  0  0  0  0  0  0
  -19.3971  -26.4050   22.0920 N   0  0  0  0  0  0  0  0  0  0  0  0
  -22.5880  -21.2446   18.9855 N   0  0  0  0  0  0  0  0  0  0  0  0
  -23.7244  -21.6191   15.7838 N   0  3  0  0  0  0  0  0  0  0  0  0
  -29.9216  -28.1114   20.8706 N   0  3  0  0  0  0  0  0  0  0  0  0
  -28.0048  -16.9170   16.0325 O   0  0  0  0  0  0  0  0  0  0  0  0
  -21.0587  -24.8922   22.7026 O   0  0  0  0  0  0  0  0  0  0  0  0
  -20.1963  -22.5354   19.8924 O   0  0  0  0  0  0  0  0  0  0  0  0
  -24.7310  -22.0352   18.5858 O   0  0  0  0  0  0  0  0  0  0  0  0
  -30.1182  -23.9005   21.7445 O   0  0  0  0  0  0  0  0  0  0  0  0
  -22.7527  -13.2238   20.4326 O   0  0  0  0  0  0  0  0  0  0  0  0
  -26.3731  -28.2772   20.7520 O   0  0  0  0  0  0  0  0  0  1  0  0
  -23.0916  -10.1879   25.0231 F   0  0  0  0  0  0  0  0  0  0  0  0
  -22.9264  -10.4679   20.3008 F   0  0  0  0  0  0  0  0  0  0  0  0
  1  2  1  0  0  0  0
  1  6  2  0  0  0  0
  2  7  2  0  0  0  0
  3 14  2  0  0  0  0
  3 15  1  0  0  0  0
  4  9  2  0  0  0  0
  4 18  1  0  0  0  0
  5 10  1  0  0  0  0
  5 18  2  0  0  0  0
  6 20  1  0  0  0  0
  7 22  1  0  0  0  0
  8 11  2  0  0  0  0
  8 21  1  0  0  0  0
  9 24  1  0  0  0  0
 10 24  2  0  0  0  0
 11 25  1  0  0  0  0
 12 13  2  0  0  0  0
 12 26  1  0  0  0  0
 13 27  1  0  0  0  0
 14 30  1  0  0  0  0
 15 31  2  0  0  0  0
 16 23  1  0  0  0  0
 16 25  2  0  0  0  0
 17 27  2  0  0  0  0
 17 28  1  0  0  0  0
 18 29  1  0  0  0  0
 19 29  1  0  0  0  0
 19 32  2  0  0  0  0
 19 33  1  0  0  0  0
 20 22  2  0  0  0  0
 20 38  1  0  0  0  0
 21 23  2  0  0  0  0
 21 39  1  0  0  0  0
 22 47  1  0  0  0  0
 23 40  1  0  0  0  0
 24 80  1  0  0  0  0
 25 81  1  0  0  0  0
 26 28  2  0  0  0  0
 26 80  1  0  0  0  0
 27 82  1  0  0  0  0
 28 83  1  0  0  0  0
 29 63  2  0  0  0  0
 30 55  1  0  0  0  0
 30 64  2  0  0  0  0
 31 64  1  0  0  0  0
 31 70  1  0  0  0  0
 32 65  1  0  0  0  0
 32 68  1  0  0  0  0
 33 69  1  0  0  0  0
 33 75  2  0  0  0  0
 34 48  1  0  0  0  0
 34 71  1  0  0  0  0
 34 76  2  0  0  0  0
 35 60  1  0  0  0  0
 35 66  1  0  0  0  0
 35 77  2  0  0  0  0
 36 61  1  0  0  0  0
 36 72  1  0  0  0  0
 36 78  2  0  0  0  0
 37 67  1  0  0  0  0
 37 70  1  0  0  0  0
 37 79  2  0  0  0  0
 38 41  1  0  0  0  0
 39 48  1  0  0  0  0
 40 66  1  0  0  0  0
 41 43  1  0  0  0  0
 42 44  1  0  0  0  0
 42 45  1  0  0  0  0
 43 47  1  0  0  0  0
 44 49  1  0  0  0  0
 45 67  1  0  0  0  0
 46 49  1  0  0  0  0
 46 67  1  0  0  0  0
 47 71  1  0  0  0  0
 48 66  1  0  0  0  0
 49 65  1  0  0  0  0
 50 61  1  0  0  0  0
 51 62  1  0  0  0  0
 52 62  1  0  0  0  0
 53 62  1  0  0  0  0
 54 73  1  0  0  0  0
 55 57  1  0  0  0  0
 56 58  1  0  0  0  0
 56 59  1  0  0  0  0
 57 74  1  0  0  0  0
 58 74  1  0  0  0  0
 59 81  1  0  0  0  0
 60 62  1  0  0  0  0
 60 72  1  0  0  0  0
 61 73  1  0  0  0  0
 63 65  1  0  0  0  0
M  CHG  2  73   1  74   1
M  ISO  4  37 100  59 101  70 100  81 101
M  END
> <Batch ID>
0122

> <Smiles>
CNC(C)C(=O)NC(C(=O)N1Cc2cc([101O:1][101CH2:1]CCNCCc3cccc([100NH:0][100C:0](=O)N4CCCC(n5nc(-c6ccc(Oc7ccc(F)cc7F)cc6)c(C(N)=O)c5N)C4)n3)ccc2CC1C(=O)NC1CCCc2ccccc21)C(C)(C)C

> <Shape>
0.242

> <Color>
0.038

> <Negative vol penalty>
0.000

$$$$

  -OEChem-04052320283D

 85 94  0     1  0  0  0  0  0999 V2000
  -28.4140  -36.2903   21.1227 C   0  0  0  0  0  0  0  0  0  0  0  0
  -28.6596  -34.9211   21.1444 C   0  0  0  0  0  0  0  0  0  0  0  0
  -22.6498  -10.2187   20.4670 C   0  0  0  0  0  0  0  0  0  0  0  0
  -24.5606   -8.8590   21.0477 C   0  0  0  0  0  0  0  0  0  0  0  0
  -27.3142  -36.8109   21.8032 C   0  0  0  0  0  0  0  0  0  0  0  0
  -27.8059  -34.0719   21.8477 C   0  0  0  0  0  0  0  0  0  0  0  0
  -26.6172  -29.9055   19.2259 C   0  0  0  0  0  0  0  0  0  0  0  0
  -21.8153   -9.3424   21.1608 C   0  0  0  0  0  0  0  0  0  0  0  0
  -23.7261   -7.9827   21.7415 C   0  0  0  0  0  0  0  0  0  0  0  0
  -27.5724  -28.8913   19.1748 C   0  0  0  0  0  0  0  0  0  0  0  0
  -21.5931   -5.4651   21.0048 C   0  0  0  0  0  0  0  0  0  0  0  0
  -21.7824   -4.0973   20.8077 C   0  0  0  0  0  0  0  0  0  0  0  0
  -26.3861  -27.6953   20.9015 C   0  0  0  0  0  0  0  0  0  0  0  0
  -30.5774  -20.0720   19.6834 C   0  0  0  0  0  0  0  0  0  0  0  0
  -22.2424   -3.8216   23.1634 C   0  0  0  0  0  0  0  0  0  0  0  0
  -28.7118  -19.5693   20.8396 C   0  0  0  0  0  0  0  0  0  0  0  0
  -24.0225   -9.9770   20.4104 C   0  0  0  0  0  0  0  0  0  0  0  0
  -24.8248  -11.2087   18.3256 C   0  0  0  0  0  0  0  0  0  0  0  0
  -26.4412  -35.9666   22.5072 C   0  0  0  0  0  0  0  0  0  0  0  0
  -25.5434  -29.8274   20.1244 C   0  0  0  0  0  0  0  0  0  0  0  0
  -26.6941  -34.5819   22.5394 C   0  0  0  0  0  0  0  0  0  0  0  0
  -25.4172  -28.7087   20.9603 C   0  0  0  0  0  0  0  0  0  0  0  0
  -29.1867  -20.3214   19.7878 C   0  0  0  0  0  0  0  0  0  0  0  0
  -22.3535   -8.2244   21.7980 C   0  0  0  0  0  0  0  0  0  0  0  0
  -27.4585  -27.7873   20.0147 C   0  0  0  0  0  0  0  0  0  0  0  0
  -21.7285   -6.0112   22.2812 C   0  0  0  0  0  0  0  0  0  0  0  0
  -22.1070   -3.2755   21.8870 C   0  0  0  0  0  0  0  0  0  0  0  0
  -22.0532   -5.1894   23.3605 C   0  0  0  0  0  0  0  0  0  0  0  0
  -24.8849  -10.8815   19.6935 C   0  0  0  0  0  0  0  0  0  0  0  0
  -30.9100  -19.1750   20.6744 C   0  0  0  0  0  0  0  0  0  0  0  0
  -25.8518  -12.1019   18.1408 C   0  0  0  0  0  0  0  0  0  0  0  0
  -23.9214  -10.7467   17.3126 C   0  0  0  0  0  0  0  0  0  0  0  0
  -24.5422  -31.5785   22.5810 C   0  0  0  0  0  0  0  0  0  0  0  0
  -22.0171  -29.5439   22.4998 C   0  0  0  0  0  0  0  0  0  0  0  0
  -21.5019  -26.0036   22.0324 C   0  0  0  0  0  0  0  0  0  0  0  0
  -28.5301  -15.8391   21.8431 C   0  0  0  0  0  0  0  0  0  0  0  0
  -25.2922  -36.5810   23.2669 C   0  0  0  0  0  0  0  0  0  0  0  0
  -24.5069  -30.9171   20.1485 C   0  0  0  0  0  0  0  0  0  0  0  0
  -24.2721  -28.5673   21.9284 C   0  0  0  0  0  0  0  0  0  0  0  0
  -24.2240  -35.5708   23.6776 C   0  0  0  0  0  0  0  0  0  0  0  0
  -30.1553  -13.2736   19.8799 C   0  0  0  0  0  0  0  0  0  0  0  0
  -24.8689  -34.3295   24.2861 C   0  0  0  0  0  0  0  0  0  0  0  0
  -28.9665  -12.3980   19.4788 C   0  0  0  0  0  0  0  0  0  0  0  0
  -28.6172  -25.0109   18.3600 C   0  0  0  0  0  0  0  0  0  0  0  0
  -28.2255  -24.5557   20.8039 C   0  0  0  0  0  0  0  0  0  0  0  0
  -29.9954  -13.8033   21.3017 C   0  0  0  0  0  0  0  0  0  0  0  0
  -27.5391  -13.6779   21.1421 C   0  0  0  0  0  0  0  0  0  0  0  0
  -28.2648  -23.5672   18.0375 C   0  0  0  0  0  0  0  0  0  0  0  0
  -27.8734  -23.1132   20.4764 C   0  0  0  0  0  0  0  0  0  0  0  0
  -25.7771  -33.6256   23.2705 C   0  0  1  0  0  0  0  0  0  0  0  0
  -23.7360  -30.9795   21.4635 C   0  0  1  0  0  0  0  0  0  0  0  0
  -27.6295  -13.1283   19.7069 C   0  0  2  0  0  0  0  0  0  0  0  0
  -27.9303  -25.4909   19.6356 C   0  0  0  0  0  0  0  0  0  1  0  0
  -32.2190  -18.5797   21.0139 C   0  0  0  0  0  0  0  0  0  0  0  0
  -19.5184  -24.7464   21.1480 C   0  0  0  0  0  0  0  0  0  0  0  0
  -21.2287  -29.2976   25.4371 C   0  0  0  0  0  0  0  0  0  0  0  0
  -20.4373  -26.9713   24.9575 C   0  0  0  0  0  0  0  0  0  0  0  0
  -19.3605  -28.9125   23.8197 C   0  0  0  0  0  0  0  0  0  0  0  0
  -23.1329  -24.6550   19.9635 C   0  0  0  0  0  0  0  0  0  0  0  0
  -28.3790  -21.2360   18.9149 C   0  0  0  0  0  0  0  0  0  0  0  0
  -29.6700  -17.9373   22.5391 C   0  0  0  0  0  0  0  0  0  0  0  0
  -21.6936  -28.2154   23.1396 C   0  0  1  0  0  0  0  0  0  0  0  0
  -20.8854  -25.3271   20.8213 C   0  0  2  0  0  0  0  0  0  0  0  0
  -20.7069  -28.3568   24.3328 C   0  0  0  0  0  0  0  0  0  0  0  0
  -25.8721  -11.5151   20.3323 N   0  0  0  0  0  0  0  0  0  0  0  0
  -29.7681  -18.8763   21.3708 N   0  0  0  0  0  0  0  0  0  0  0  0
  -26.4418  -12.2494   19.3615 N   0  0  0  0  0  0  0  0  0  0  0  0
  -23.2877  -29.6620   21.9189 N   0  0  0  0  0  0  0  0  0  0  0  0
  -28.7119  -14.5044   21.4450 N   0  0  0  0  0  0  0  0  0  0  0  0
  -26.2987  -12.7676   17.0547 N   0  0  0  0  0  0  0  0  0  0  0  0
  -22.9248   -9.8300   17.6739 N   0  0  0  0  0  0  0  0  0  0  0  0
  -24.9861  -32.8626   22.3289 N   0  0  0  0  0  0  0  0  0  0  0  0
  -21.2135  -27.3516   22.0664 N   0  0  0  0  0  0  0  0  0  0  0  0
  -29.6947  -16.5460   22.1195 N   0  0  0  0  0  0  0  0  0  0  0  0
  -28.6011  -22.6915   19.2216 N   0  3  0  0  0  0  0  0  0  0  0  0
  -21.7632  -24.2221   20.3424 N   0  3  0  0  0  0  0  0  0  0  0  0
  -24.0061  -11.1228   16.1189 O   0  0  0  0  0  0  0  0  0  0  0  0
  -24.7452  -30.9247   23.5974 O   0  0  0  0  0  0  0  0  0  0  0  0
  -21.1708  -30.4413   22.5086 O   0  0  0  0  0  0  0  0  0  0  0  0
  -22.1692  -25.3963   22.8669 O   0  0  0  0  0  0  0  0  0  0  0  0
  -27.4152  -16.3625   21.9414 O   0  0  0  0  0  0  0  0  0  0  0  0
  -21.5395   -7.3692   22.4753 O   0  0  0  0  0  0  0  0  0  0  0  0
  -28.3898  -26.7962   19.9674 O   0  0  0  0  0  0  0  0  0  1  0  0
  -22.2872   -1.9618   21.6979 F   0  0  0  0  0  0  0  0  0  0  0  0
  -22.1835   -5.7081   24.5892 F   0  0  0  0  0  0  0  0  0  0  0  0
  1  2  1  0  0  0  0
  1  5  2  0  0  0  0
  2  6  2  0  0  0  0
  3  8  2  0  0  0  0
  3 17  1  0  0  0  0
  4  9  1  0  0  0  0
  4 17  2  0  0  0  0
  5 19  1  0  0  0  0
  6 21  1  0  0  0  0
  7 10  2  0  0  0  0
  7 20  1  0  0  0  0
  8 24  1  0  0  0  0
  9 24  2  0  0  0  0
 10 25  1  0  0  0  0
 11 12  2  0  0  0  0
 11 26  1  0  0  0  0
 12 27  1  0  0  0  0
 13 22  1  0  0  0  0
 13 25  2  0  0  0  0
 14 23  1  0  0  0  0
 14 30  2  0  0  0  0
 15 27  2  0  0  0  0
 15 28  1  0  0  0  0
 16 23  2  0  0  0  0
 16 66  1  0  0  0  0
 17 29  1  0  0  0  0
 18 29  1  0  0  0  0
 18 31  2  0  0  0  0
 18 32  1  0  0  0  0
 19 21  2  0  0  0  0
 19 37  1  0  0  0  0
 20 22  2  0  0  0  0
 20 38  1  0  0  0  0
 21 50  1  0  0  0  0
 22 39  1  0  0  0  0
 23 60  1  0  0  0  0
 24 82  1  0  0  0  0
 25 83  1  0  0  0  0
 26 28  2  0  0  0  0
 26 82  1  0  0  0  0
 27 84  1  0  0  0  0
 28 85  1  0  0  0  0
 29 65  2  0  0  0  0
 30 54  1  0  0  0  0
 30 66  1  0  0  0  0
 31 67  1  0  0  0  0
 31 70  1  0  0  0  0
 32 71  1  0  0  0  0
 32 77  2  0  0  0  0
 33 51  1  0  0  0  0
 33 72  1  0  0  0  0
 33 78  2  0  0  0  0
 34 62  1  0  0  0  0
 34 68  1  0  0  0  0
 34 79  2  0  0  0  0
 35 63  1  0  0  0  0
 35 73  1  0  0  0  0
 35 80  2  0  0  0  0
 36 69  1  0  0  0  0
 36 74  1  0  0  0  0
 36 81  2  0  0  0  0
 37 40  1  0  0  0  0
 38 51  1  0  0  0  0
 39 68  1  0  0  0  0
 40 42  1  0  0  0  0
 41 43  1  0  0  0  0
 41 46  1  0  0  0  0
 42 50  1  0  0  0  0
 43 52  1  0  0  0  0
 44 48  1  0  0  0  0
 44 53  1  0  0  0  0
 45 49  1  0  0  0  0
 45 53  1  0  0  0  0
 46 69  1  0  0  0  0
 47 52  1  0  0  0  0
 47 69  1  0  0  0  0
 48 75  1  0  0  0  0
 49 75  1  0  0  0  0
 50 72  1  0  0  0  0
 51 68  1  0  0  0  0
 52 67  1  0  0  0  0
 53 83  1  0  0  0  0
 55 63  1  0  0  0  0
 56 64  1  0  0  0  0
 57 64  1  0  0  0  0
 58 64  1  0  0  0  0
 59 76  1  0  0  0  0
 60 75  1  0  0  0  0
 61 66  1  0  0  0  0
 61 74  1  0  0  0  0
 62 64  1  0  0  0  0
 62 73  1  0  0  0  0
 63 76  1  0  0  0  0
 65 67  1  0  0  0  0
M  CHG  2  75   1  76   1
M  ISO  4  36 100  53 101  74 100  83 101
M  END
> <Batch ID>
0122

> <Smiles>
CNC(C)C(=O)NC(C(=O)N1Cc2cc([101O:1][101CH:1]3CCN(Cc4cc(C)n(C[100NH:0][100C:0](=O)N5CCCC(n6nc(-c7ccc(Oc8ccc(F)cc8F)cc7)c(C(N)=O)c6N)C5)c4)CC3)ccc2CC1C(=O)NC1CCCc2ccccc21)C(C)(C)C

> <Shape>
0.348

> <Color>
0.096

> <Negative vol penalty>
0.000

$$$$

  -OEChem-04052320283D

 82 90  0     1  0  0  0  0  0999 V2000
  -39.6156  -28.7324   21.6859 C   0  0  0  0  0  0  0  0  0  0  0  0
  -38.5899  -28.0650   22.3478 C   0  0  0  0  0  0  0  0  0  0  0  0
  -23.0069   -9.8896   19.9659 C   0  0  0  0  0  0  0  0  0  0  0  0
  -23.7372   -9.9169   22.2687 C   0  0  0  0  0  0  0  0  0  0  0  0
  -39.4322  -29.1624   20.3724 C   0  0  0  0  0  0  0  0  0  0  0  0
  -37.3798  -27.8281   21.6967 C   0  0  0  0  0  0  0  0  0  0  0  0
  -35.6850  -23.1086   22.4029 C   0  0  0  0  0  0  0  0  0  0  0  0
  -22.2457   -8.7488   20.2208 C   0  0  0  0  0  0  0  0  0  0  0  0
  -22.9761   -8.7762   22.5236 C   0  0  0  0  0  0  0  0  0  0  0  0
  -35.0746  -22.8274   23.6244 C   0  0  0  0  0  0  0  0  0  0  0  0
  -23.2333   -5.4440   22.0124 C   0  0  0  0  0  0  0  0  0  0  0  0
  -23.8269   -4.4206   22.7513 C   0  0  0  0  0  0  0  0  0  0  0  0
  -32.9084  -23.0547   22.5875 C   0  0  0  0  0  0  0  0  0  0  0  0
  -30.5311  -18.3198   24.0547 C   0  0  0  0  0  0  0  0  0  0  0  0
  -22.1059   -4.6368   24.4332 C   0  0  0  0  0  0  0  0  0  0  0  0
  -32.0321  -16.5592   22.6081 C   0  0  0  0  0  0  0  0  0  0  0  0
  -23.7527  -10.4736   20.9898 C   0  0  0  0  0  0  0  0  0  0  0  0
  -24.1270  -12.9926   20.8421 C   0  0  0  0  0  0  0  0  0  0  0  0
  -38.2226  -28.9222   19.7017 C   0  0  0  0  0  0  0  0  0  0  0  0
  -34.9103  -23.3762   21.2650 C   0  0  0  0  0  0  0  0  0  0  0  0
  -37.1795  -28.2565   20.3734 C   0  0  0  0  0  0  0  0  0  0  0  0
  -33.5114  -23.3366   21.3521 C   0  0  0  0  0  0  0  0  0  0  0  0
  -29.9005  -17.4517   23.1703 C   0  0  0  0  0  0  0  0  0  0  0  0
  -30.6581  -16.5515   22.4295 C   0  0  0  0  0  0  0  0  0  0  0  0
  -22.2303   -8.1921   21.4997 C   0  0  0  0  0  0  0  0  0  0  0  0
  -33.6861  -22.8033   23.7175 C   0  0  0  0  0  0  0  0  0  0  0  0
  -22.0760   -6.0638   22.4840 C   0  0  0  0  0  0  0  0  0  0  0  0
  -23.2632   -4.0170   23.9617 C   0  0  0  0  0  0  0  0  0  0  0  0
  -21.5124   -5.6602   23.6943 C   0  0  0  0  0  0  0  0  0  0  0  0
  -24.5396  -11.6516   20.7270 C   0  0  0  0  0  0  0  0  0  0  0  0
  -31.9107  -18.2482   24.1608 C   0  0  0  0  0  0  0  0  0  0  0  0
  -25.2329  -13.7241   20.4836 C   0  0  0  0  0  0  0  0  0  0  0  0
  -22.8577  -13.5292   21.2379 C   0  0  0  0  0  0  0  0  0  0  0  0
  -34.5611  -25.8697   19.3248 C   0  0  0  0  0  0  0  0  0  0  0  0
  -32.7084  -23.8059   17.6422 C   0  0  0  0  0  0  0  0  0  0  0  0
  -30.7670  -20.9992   17.6369 C   0  0  0  0  0  0  0  0  0  0  0  0
  -30.7088  -14.7055   20.7160 C   0  0  0  0  0  0  0  0  0  0  0  0
  -38.0541  -29.4477   18.2981 C   0  0  0  0  0  0  0  0  0  0  0  0
  -35.5841  -23.6515   19.9487 C   0  0  0  0  0  0  0  0  0  0  0  0
  -32.6347  -23.5969   20.1555 C   0  0  0  0  0  0  0  0  0  0  0  0
  -36.8756  -28.8267   17.5526 C   0  0  0  0  0  0  0  0  0  0  0  0
  -29.5953  -12.2750   18.3644 C   0  0  0  0  0  0  0  0  0  0  0  0
  -35.6332  -28.8099   18.4374 C   0  0  0  0  0  0  0  0  0  0  0  0
  -28.1468  -12.0065   18.7789 C   0  0  0  0  0  0  0  0  0  0  0  0
  -30.4977  -12.5082   19.5748 C   0  0  0  0  0  0  0  0  0  0  0  0
  -28.5822  -13.2735   20.9218 C   0  0  0  0  0  0  0  0  0  0  0  0
  -35.8612  -27.9590   19.6925 C   0  0  1  0  0  0  0  0  0  0  0  0
  -34.6963  -24.4156   18.9713 C   0  0  1  0  0  0  0  0  0  0  0  0
  -27.6225  -13.0969   19.7338 C   0  0  2  0  0  0  0  0  0  0  0  0
  -28.4139  -17.5053   23.0364 C   0  0  0  0  0  0  0  0  0  0  0  0
  -29.3554  -19.5833   16.1204 C   0  0  0  0  0  0  0  0  0  0  0  0
  -30.4929  -25.9010   17.7525 C   0  0  0  0  0  0  0  0  0  0  0  0
  -28.8668  -24.1149   17.0936 C   0  0  0  0  0  0  0  0  0  0  0  0
  -30.7228  -24.7408   15.5490 C   0  0  0  0  0  0  0  0  0  0  0  0
  -32.4767  -18.6231   18.0727 C   0  0  0  0  0  0  0  0  0  0  0  0
  -32.7793  -20.9270   26.6681 C   0  0  0  0  0  0  0  0  0  0  0  0
  -31.8105  -20.0826   25.8491 C   0  0  0  0  0  0  0  0  0  0  0  0
  -33.7918  -21.6738   25.8078 C   0  0  0  0  0  0  0  0  0  1  0  0
  -31.2455  -23.4334   17.6489 C   0  0  1  0  0  0  0  0  0  0  0  0
  -30.7399  -19.7950   16.7130 C   0  0  2  0  0  0  0  0  0  0  0  0
  -30.3482  -24.5445   17.0342 C   0  0  0  0  0  0  0  0  0  0  0  0
  -32.6802  -17.3873   23.4577 N   0  0  0  0  0  0  0  0  0  0  0  0
  -25.8084  -11.5351   20.3264 N   0  0  0  0  0  0  0  0  0  0  0  0
  -26.2027  -12.8122   20.1867 N   0  0  0  0  0  0  0  0  0  0  0  0
  -33.3406  -23.8676   18.8922 N   0  0  0  0  0  0  0  0  0  0  0  0
  -29.9402  -13.5570   20.4317 N   0  0  0  0  0  0  0  0  0  0  0  0
  -25.4606  -15.0518   20.3964 N   0  0  0  0  0  0  0  0  0  0  0  0
  -21.8304  -12.6368   21.5735 N   0  0  0  0  0  0  0  0  0  0  0  0
  -30.0624  -15.6488   21.5141 N   0  0  0  0  0  0  0  0  0  0  0  0
  -32.5252  -19.1201   25.0460 N   0  0  0  0  0  0  0  0  0  0  0  0
  -35.7624  -26.5509   19.3733 N   0  0  0  0  0  0  0  0  0  0  0  0
  -31.1493  -22.1448   16.9716 N   0  0  0  0  0  0  0  0  0  0  0  0
  -31.1262  -18.5627   17.4568 N   0  3  0  0  0  0  0  0  0  0  0  0
  -22.6359  -14.7632   21.2765 O   0  0  0  0  0  0  0  0  0  0  0  0
  -33.4491  -26.3392   19.5364 O   0  0  0  0  0  0  0  0  0  0  0  0
  -33.2713  -24.0269   16.5671 O   0  0  0  0  0  0  0  0  0  0  0  0
  -30.4745  -20.9312   18.8287 O   0  0  0  0  0  0  0  0  0  0  0  0
  -31.8458  -14.8545   20.2610 O   0  0  0  0  0  0  0  0  0  0  0  0
  -21.4875   -7.0792   21.7488 O   0  0  0  0  0  0  0  0  0  0  0  0
  -33.0878  -22.5297   24.9087 O   0  0  0  0  0  0  0  0  0  1  0  0
  -23.8324   -3.0332   24.6704 F   0  0  0  0  0  0  0  0  0  0  0  0
  -20.4000   -6.2512   24.1519 F   0  0  0  0  0  0  0  0  0  0  0  0
  1  2  1  0  0  0  0
  1  5  2  0  0  0  0
  2  6  2  0  0  0  0
  3  8  2  0  0  0  0
  3 17  1  0  0  0  0
  4  9  1  0  0  0  0
  4 17  2  0  0  0  0
  5 19  1  0  0  0  0
  6 21  1  0  0  0  0
  7 10  2  0  0  0  0
  7 20  1  0  0  0  0
  8 25  1  0  0  0  0
  9 25  2  0  0  0  0
 10 26  1  0  0  0  0
 11 12  2  0  0  0  0
 11 27  1  0  0  0  0
 12 28  1  0  0  0  0
 13 22  1  0  0  0  0
 13 26  2  0  0  0  0
 14 23  2  0  0  0  0
 14 31  1  0  0  0  0
 15 28  2  0  0  0  0
 15 29  1  0  0  0  0
 16 24  2  0  0  0  0
 16 62  1  0  0  0  0
 17 30  1  0  0  0  0
 18 30  1  0  0  0  0
 18 32  2  0  0  0  0
 18 33  1  0  0  0  0
 19 21  2  0  0  0  0
 19 38  1  0  0  0  0
 20 22  2  0  0  0  0
 20 39  1  0  0  0  0
 21 47  1  0  0  0  0
 22 40  1  0  0  0  0
 23 24  1  0  0  0  0
 23 50  1  0  0  0  0
 24 69  1  0  0  0  0
 25 79  1  0  0  0  0
 26 80  1  0  0  0  0
 27 29  2  0  0  0  0
 27 79  1  0  0  0  0
 28 81  1  0  0  0  0
 29 82  1  0  0  0  0
 30 63  2  0  0  0  0
 31 62  2  0  0  0  0
 31 70  1  0  0  0  0
 32 64  1  0  0  0  0
 32 67  1  0  0  0  0
 33 68  1  0  0  0  0
 33 74  2  0  0  0  0
 34 48  1  0  0  0  0
 34 71  1  0  0  0  0
 34 75  2  0  0  0  0
 35 59  1  0  0  0  0
 35 65  1  0  0  0  0
 35 76  2  0  0  0  0
 36 60  1  0  0  0  0
 36 72  1  0  0  0  0
 36 77  2  0  0  0  0
 37 66  1  0  0  0  0
 37 69  1  0  0  0  0
 37 78  2  0  0  0  0
 38 41  1  0  0  0  0
 39 48  1  0  0  0  0
 40 65  1  0  0  0  0
 41 43  1  0  0  0  0
 42 44  1  0  0  0  0
 42 45  1  0  0  0  0
 43 47  1  0  0  0  0
 44 49  1  0  0  0  0
 45 66  1  0  0  0  0
 46 49  1  0  0  0  0
 46 66  1  0  0  0  0
 47 71  1  0  0  0  0
 48 65  1  0  0  0  0
 49 64  1  0  0  0  0
 51 60  1  0  0  0  0
 52 61  1  0  0  0  0
 53 61  1  0  0  0  0
 54 61  1  0  0  0  0
 55 73  1  0  0  0  0
 56 57  1  0  0  0  0
 56 58  1  0  0  0  0
 57 70  1  0  0  0  0
 58 80  1  0  0  0  0
 59 61  1  0  0  0  0
 59 72  1  0  0  0  0
 60 73  1  0  0  0  0
 63 64  1  0  0  0  0
M  CHG  1  73   1
M  ISO  4  37 100  58 101  69 100  80 101
M  END
> <Batch ID>
0122

> <Smiles>
CNC(C)C(=O)NC(C(=O)N1Cc2cc([101O:1][101CH2:1]CCNc3cc(C)c([100NH:0][100C:0](=O)N4CCCC(n5nc(-c6ccc(Oc7ccc(F)cc7F)cc6)c(C(N)=O)c5N)C4)cn3)ccc2CC1C(=O)NC1CCCc2ccccc21)C(C)(C)C

> <Shape>
0.205

> <Color>
0.199

> <Negative vol penalty>
0.000

$$$$

  -OEChem-04052320283D

 82 90  0     1  0  0  0  0  0999 V2000
  -19.7284  -28.5189   26.3910 C   0  0  0  0  0  0  0  0  0  0  0  0
  -20.1456  -27.1992   26.2501 C   0  0  0  0  0  0  0  0  0  0  0  0
  -22.2808  -12.2012   22.5500 C   0  0  0  0  0  0  0  0  0  0  0  0
  -29.4287  -23.4678   18.5375 C   0  0  0  0  0  0  0  0  0  0  0  0
  -28.1871  -23.4316   20.6097 C   0  0  0  0  0  0  0  0  0  0  0  0
  -19.1320  -29.1786   25.3172 C   0  0  0  0  0  0  0  0  0  0  0  0
  -19.9658  -26.5382   25.0355 C   0  0  0  0  0  0  0  0  0  0  0  0
  -23.6766  -22.3569   22.5350 C   0  0  0  0  0  0  0  0  0  0  0  0
  -29.4225  -24.8624   18.5580 C   0  0  0  0  0  0  0  0  0  0  0  0
  -28.1809  -24.8263   20.6303 C   0  0  0  0  0  0  0  0  0  0  0  0
  -23.6379  -20.9635   22.5104 C   0  0  0  0  0  0  0  0  0  0  0  0
  -26.4767  -27.3324   19.1316 C   0  0  0  0  0  0  0  0  0  0  0  0
  -25.2753  -27.9706   19.4397 C   0  0  0  0  0  0  0  0  0  0  0  0
  -21.2174  -13.0922   22.4575 C   0  0  0  0  0  0  0  0  0  0  0  0
  -23.2955  -12.2374   21.6000 C   0  0  0  0  0  0  0  0  0  0  0  0
  -22.5651  -21.0375   20.3510 C   0  0  0  0  0  0  0  0  0  0  0  0
  -26.3211  -29.0169   21.3499 C   0  0  0  0  0  0  0  0  0  0  0  0
  -28.8109  -22.7523   19.5633 C   0  0  0  0  0  0  0  0  0  0  0  0
  -29.7825  -20.4570   20.1064 C   0  0  0  0  0  0  0  0  0  0  0  0
  -18.9536  -28.5285   24.0859 C   0  0  0  0  0  0  0  0  0  0  0  0
  -23.1491  -23.1025   21.4709 C   0  0  0  0  0  0  0  0  0  0  0  0
  -19.3653  -27.1895   23.9447 C   0  0  0  0  0  0  0  0  0  0  0  0
  -22.6007  -22.4402   20.3634 C   0  0  0  0  0  0  0  0  0  0  0  0
  -28.7986  -25.5417   19.6044 C   0  0  0  0  0  0  0  0  0  0  0  0
  -23.0795  -20.3036   21.4196 C   0  0  0  0  0  0  0  0  0  0  0  0
  -27.6003  -27.5364   19.9327 C   0  0  0  0  0  0  0  0  0  0  0  0
  -25.1975  -28.8129   20.5489 C   0  0  0  0  0  0  0  0  0  0  0  0
  -27.5225  -28.3786   21.0418 C   0  0  0  0  0  0  0  0  0  0  0  0
  -28.8165  -21.3116   19.5423 C   0  0  0  0  0  0  0  0  0  0  0  0
  -21.2155  -13.9927   21.4044 C   0  0  0  0  0  0  0  0  0  0  0  0
  -23.2004  -13.1760   20.5852 C   0  0  0  0  0  0  0  0  0  0  0  0
  -29.3332  -19.1919   19.8161 C   0  0  0  0  0  0  0  0  0  0  0  0
  -30.9790  -20.7779   20.8283 C   0  0  0  0  0  0  0  0  0  0  0  0
  -20.8020  -25.2242   21.1651 C   0  0  0  0  0  0  0  0  0  0  0  0
  -21.9634  -25.4922   18.1481 C   0  0  0  0  0  0  0  0  0  0  0  0
  -23.7074  -24.0770   15.5787 C   0  0  0  0  0  0  0  0  0  0  0  0
  -25.2959  -15.5020   19.6392 C   0  0  0  0  0  0  0  0  0  0  0  0
  -18.2611  -29.2676   22.9684 C   0  0  0  0  0  0  0  0  0  0  0  0
  -23.2227  -24.6046   21.5007 C   0  0  0  0  0  0  0  0  0  0  0  0
  -22.0393  -23.1941   19.1866 C   0  0  0  0  0  0  0  0  0  0  0  0
  -18.4471  -28.6163   21.6004 C   0  0  0  0  0  0  0  0  0  0  0  0
  -25.6347  -17.6354   16.7355 C   0  0  0  0  0  0  0  0  0  0  0  0
  -18.2054  -27.1128   21.6876 C   0  0  0  0  0  0  0  0  0  0  0  0
  -26.5798  -18.7173   17.2616 C   0  0  0  0  0  0  0  0  0  0  0  0
  -24.6516  -17.1885   17.8134 C   0  0  0  0  0  0  0  0  0  0  0  0
  -26.2366  -17.7946   19.6006 C   0  0  0  0  0  0  0  0  0  0  0  0
  -19.2100  -26.4466   22.6355 C   0  0  1  0  0  0  0  0  0  0  0  0
  -22.1916  -25.2713   20.5953 C   0  0  1  0  0  0  0  0  0  0  0  0
  -27.2702  -18.2728   18.5647 C   0  0  2  0  0  0  0  0  0  0  0  0
  -24.4579  -24.5231   13.2259 C   0  0  0  0  0  0  0  0  0  0  0  0
  -19.1345  -24.9442   17.1445 C   0  0  0  0  0  0  0  0  0  0  0  0
  -20.1037  -24.4620   14.8870 C   0  0  0  0  0  0  0  0  0  0  0  0
  -20.3577  -26.7306   15.8928 C   0  0  0  0  0  0  0  0  0  0  0  0
  -26.5634  -23.8718   16.3274 C   0  0  0  0  0  0  0  0  0  0  0  0
  -20.0784  -14.9743   21.2727 C   0  0  0  0  0  0  0  0  0  0  0  0
  -24.2717  -13.2438   19.5482 C   0  0  0  0  0  0  0  0  0  0  0  0
  -20.4774  -16.2992   20.6133 C   0  0  0  0  0  0  0  0  0  0  0  0
  -21.6198  -17.0097   21.3405 C   0  0  0  0  0  0  0  0  0  0  0  0
  -21.9613  -18.3389   20.6809 C   0  0  0  0  0  0  0  0  0  1  0  0
  -21.6936  -24.8011   16.8334 C   0  0  1  0  0  0  0  0  0  0  0  0
  -24.8213  -24.6166   14.6997 C   0  0  2  0  0  0  0  0  0  0  0  0
  -20.3311  -25.2200   16.2123 C   0  0  0  0  0  0  0  0  0  0  0  0
  -27.8282  -20.6457   18.9391 N   0  0  0  0  0  0  0  0  0  0  0  0
  -22.1831  -14.0578   20.4626 N   0  0  0  0  0  0  0  0  0  0  0  0
  -28.1709  -19.3592   19.1224 N   0  0  0  0  0  0  0  0  0  0  0  0
  -22.1287  -24.6615   19.2655 N   0  0  0  0  0  0  0  0  0  0  0  0
  -25.3733  -16.7607   19.0201 N   0  0  0  0  0  0  0  0  0  0  0  0
  -29.8230  -17.9639   20.0889 N   0  0  0  0  0  0  0  0  0  0  0  0
  -31.2910  -22.1281   21.0380 N   0  0  0  0  0  0  0  0  0  0  0  0
  -20.4936  -26.2930   21.9848 N   0  0  0  0  0  0  0  0  0  0  0  0
  -22.8472  -25.0756   15.9836 N   0  0  0  0  0  0  0  0  0  0  0  0
  -24.4508  -14.5821   19.0307 N   0  0  0  0  0  0  0  0  0  0  0  0
  -26.0772  -23.8462   14.9238 N   0  3  0  0  0  0  0  0  0  0  0  0
  -31.7571  -19.8938   21.2601 O   0  0  0  0  0  0  0  0  0  0  0  0
  -20.0639  -24.2883   20.8807 O   0  0  0  0  0  0  0  0  0  0  0  0
  -22.0322  -26.7234   18.1812 O   0  0  0  0  0  0  0  0  0  0  0  0
  -23.6081  -22.8879   15.8733 O   0  0  0  0  0  0  0  0  0  0  0  0
  -25.9369  -15.2170   20.6565 O   0  0  0  0  0  0  0  0  0  0  0  0
  -28.7925  -26.9026   19.6250 O   0  0  0  0  0  0  0  0  0  0  0  0
  -23.0399  -18.9436   21.3933 O   0  0  0  0  0  0  0  0  0  1  0  0
  -24.0442  -29.4270   20.8438 F   0  0  0  0  0  0  0  0  0  0  0  0
  -28.5989  -28.5794   21.8144 F   0  0  0  0  0  0  0  0  0  0  0  0
  1  2  1  0  0  0  0
  1  6  2  0  0  0  0
  2  7  2  0  0  0  0
  3 14  2  0  0  0  0
  3 15  1  0  0  0  0
  4  9  2  0  0  0  0
  4 18  1  0  0  0  0
  5 10  1  0  0  0  0
  5 18  2  0  0  0  0
  6 20  1  0  0  0  0
  7 22  1  0  0  0  0
  8 11  2  0  0  0  0
  8 21  1  0  0  0  0
  9 24  1  0  0  0  0
 10 24  2  0  0  0  0
 11 25  1  0  0  0  0
 12 13  2  0  0  0  0
 12 26  1  0  0  0  0
 13 27  1  0  0  0  0
 14 30  1  0  0  0  0
 15 31  2  0  0  0  0
 16 23  1  0  0  0  0
 16 25  2  0  0  0  0
 17 27  2  0  0  0  0
 17 28  1  0  0  0  0
 18 29  1  0  0  0  0
 19 29  1  0  0  0  0
 19 32  2  0  0  0  0
 19 33  1  0  0  0  0
 20 22  2  0  0  0  0
 20 38  1  0  0  0  0
 21 23  2  0  0  0  0
 21 39  1  0  0  0  0
 22 47  1  0  0  0  0
 23 40  1  0  0  0  0
 24 79  1  0  0  0  0
 25 80  1  0  0  0  0
 26 28  2  0  0  0  0
 26 79  1  0  0  0  0
 27 81  1  0  0  0  0
 28 82  1  0  0  0  0
 29 63  2  0  0  0  0
 30 55  1  0  0  0  0
 30 64  2  0  0  0  0
 31 56  1  0  0  0  0
 31 64  1  0  0  0  0
 32 65  1  0  0  0  0
 32 68  1  0  0  0  0
 33 69  1  0  0  0  0
 33 74  2  0  0  0  0
 34 48  1  0  0  0  0
 34 70  1  0  0  0  0
 34 75  2  0  0  0  0
 35 60  1  0  0  0  0
 35 66  1  0  0  0  0
 35 76  2  0  0  0  0
 36 61  1  0  0  0  0
 36 71  1  0  0  0  0
 36 77  2  0  0  0  0
 37 67  1  0  0  0  0
 37 72  1  0  0  0  0
 37 78  2  0  0  0  0
 38 41  1  0  0  0  0
 39 48  1  0  0  0  0
 40 66  1  0  0  0  0
 41 43  1  0  0  0  0
 42 44  1  0  0  0  0
 42 45  1  0  0  0  0
 43 47  1  0  0  0  0
 44 49  1  0  0  0  0
 45 67  1  0  0  0  0
 46 49  1  0  0  0  0
 46 67  1  0  0  0  0
 47 70  1  0  0  0  0
 48 66  1  0  0  0  0
 49 65  1  0  0  0  0
 50 61  1  0  0  0  0
 51 62  1  0  0  0  0
 52 62  1  0  0  0  0
 53 62  1  0  0  0  0
 54 73  1  0  0  0  0
 55 57  1  0  0  0  0
 56 72  1  0  0  0  0
 57 58  1  0  0  0  0
 58 59  1  0  0  0  0
 59 80  1  0  0  0  0
 60 62  1  0  0  0  0
 60 71  1  0  0  0  0
 61 73  1  0  0  0  0
 63 65  1  0  0  0  0
M  CHG  1  73   1
M  ISO  4  37 100  59 101  72 100  80 101
M  END
> <Batch ID>
0122

> <Smiles>
CNC(C)C(=O)NC(C(=O)N1Cc2cc([101O:1][101CH2:1]CCCc3cccc(C[100NH:0][100C:0](=O)N4CCCC(n5nc(-c6ccc(Oc7ccc(F)cc7F)cc6)c(C(N)=O)c5N)C4)n3)ccc2CC1C(=O)NC1CCCc2ccccc21)C(C)(C)C

> <Shape>
0.198

> <Color>
0.087

> <Negative vol penalty>
0.000

$$$$

  -OEChem-04052320283D

 86 94  0     1  0  0  0  0  0999 V2000
  -28.7400  -10.5067   16.6683 C   0  0  0  0  0  0  0  0  0  0  0  0
  -27.5457  -11.2135   16.5709 C   0  0  0  0  0  0  0  0  0  0  0  0
  -25.2343  -28.2767   19.2867 C   0  0  0  0  0  0  0  0  0  0  0  0
  -25.8830  -28.0121   21.5989 C   0  0  0  0  0  0  0  0  0  0  0  0
  -29.5791  -10.7057   17.7639 C   0  0  0  0  0  0  0  0  0  0  0  0
  -27.1892  -12.1189   17.5696 C   0  0  0  0  0  0  0  0  0  0  0  0
  -23.7398  -18.3273   18.5046 C   0  0  0  0  0  0  0  0  0  0  0  0
  -26.3489  -29.0858   19.0665 C   0  0  0  0  0  0  0  0  0  0  0  0
  -26.9978  -28.8211   21.3787 C   0  0  0  0  0  0  0  0  0  0  0  0
  -22.7259  -18.8902   19.2785 C   0  0  0  0  0  0  0  0  0  0  0  0
  -30.2104  -30.5228   21.3372 C   0  0  0  0  0  0  0  0  0  0  0  0
  -31.4329  -30.0998   21.8587 C   0  0  0  0  0  0  0  0  0  0  0  0
  -19.3125  -19.9023   22.7935 C   0  0  0  0  0  0  0  0  0  0  0  0
  -24.2915  -19.2107   21.0856 C   0  0  0  0  0  0  0  0  0  0  0  0
  -31.2986  -28.0820   20.5366 C   0  0  0  0  0  0  0  0  0  0  0  0
  -18.6053  -22.4982   22.3386 C   0  0  0  0  0  0  0  0  0  0  0  0
  -25.0013  -27.7399   20.5529 C   0  0  0  0  0  0  0  0  0  0  0  0
  -18.4456  -20.5377   23.6757 C   0  0  0  0  0  0  0  0  0  0  0  0
  -23.7734  -25.5056   20.6427 C   0  0  0  0  0  0  0  0  0  0  0  0
  -29.2373  -11.6211   18.7717 C   0  0  0  0  0  0  0  0  0  0  0  0
  -25.0368  -18.1916   19.0202 C   0  0  0  0  0  0  0  0  0  0  0  0
  -28.0238  -12.3293   18.6804 C   0  0  0  0  0  0  0  0  0  0  0  0
  -25.3206  -18.6481   20.3153 C   0  0  0  0  0  0  0  0  0  0  0  0
  -18.0803  -21.8604   23.4510 C   0  0  0  0  0  0  0  0  0  0  0  0
  -27.2307  -29.3580   20.1125 C   0  0  0  0  0  0  0  0  0  0  0  0
  -23.0010  -19.3293   20.5702 C   0  0  0  0  0  0  0  0  0  0  0  0
  -29.5319  -29.7254   20.4154 C   0  0  0  0  0  0  0  0  0  0  0  0
  -31.9770  -28.8794   21.4585 C   0  0  0  0  0  0  0  0  0  0  0  0
  -30.0761  -28.5051   20.0151 C   0  0  0  0  0  0  0  0  0  0  0  0
  -23.8497  -26.9045   20.7812 C   0  0  0  0  0  0  0  0  0  0  0  0
  -19.7821  -20.6277   21.7105 C   0  0  0  0  0  0  0  0  0  0  0  0
  -22.4759  -25.1983   20.9724 C   0  0  0  0  0  0  0  0  0  0  0  0
  -17.9370  -19.7987   24.8230 C   0  0  0  0  0  0  0  0  0  0  0  0
  -24.7848  -24.5679   20.2511 C   0  0  0  0  0  0  0  0  0  0  0  0
  -26.9615  -15.7375   19.6337 C   0  0  0  0  0  0  0  0  0  0  0  0
  -29.1034  -18.0839   20.2885 C   0  0  0  0  0  0  0  0  0  0  0  0
  -29.6620  -21.3229   21.2072 C   0  0  0  0  0  0  0  0  0  0  0  0
  -18.0231  -25.7979   24.2827 C   0  0  0  0  0  0  0  0  0  0  0  0
  -30.1537  -11.7675   19.9606 C   0  0  0  0  0  0  0  0  0  0  0  0
  -26.1256  -17.6068   18.1629 C   0  0  0  0  0  0  0  0  0  0  0  0
  -26.7013  -18.5437   20.9080 C   0  0  0  0  0  0  0  0  0  0  0  0
  -29.8820  -13.0210   20.7884 C   0  0  0  0  0  0  0  0  0  0  0  0
  -18.4622  -28.1930   21.6851 C   0  0  0  0  0  0  0  0  0  0  0  0
  -28.3866  -13.1769   21.0460 C   0  0  0  0  0  0  0  0  0  0  0  0
  -19.8980  -27.9600   21.2117 C   0  0  0  0  0  0  0  0  0  0  0  0
  -18.3276  -28.0022   23.1943 C   0  0  0  0  0  0  0  0  0  0  0  0
  -20.2643  -26.4784   23.2290 C   0  0  0  0  0  0  0  0  0  0  0  0
  -27.6142  -13.3385   19.7311 C   0  0  1  0  0  0  0  0  0  0  0  0
  -27.2898  -17.0474   18.9748 C   0  0  1  0  0  0  0  0  0  0  0  0
  -20.4384  -26.6047   21.7058 C   0  0  2  0  0  0  0  0  0  0  0  0
  -17.9767  -15.7841   24.9294 C   0  0  0  0  0  0  0  0  0  0  0  0
  -30.9602  -23.4156   21.6895 C   0  0  0  0  0  0  0  0  0  0  0  0
  -29.5460  -16.7516   22.9976 C   0  0  0  0  0  0  0  0  0  0  0  0
  -30.6364  -18.8649   23.7806 C   0  0  0  0  0  0  0  0  0  0  0  0
  -31.6297  -17.5779   21.8886 C   0  0  0  0  0  0  0  0  0  0  0  0
  -29.5014  -22.2107   18.3885 C   0  0  0  0  0  0  0  0  0  0  0  0
  -17.1553  -22.5921   24.3614 C   0  0  0  0  0  0  0  0  0  0  0  0
  -20.7179  -19.9741   20.7366 C   0  0  0  0  0  0  0  0  0  1  0  0
  -17.5499  -16.7157   26.0548 C   0  0  0  0  0  0  0  0  0  0  0  0
  -17.8687  -23.5503   25.3237 C   0  0  0  0  0  0  0  0  0  0  0  0
  -16.6072  -17.8162   25.5828 C   0  0  0  0  0  0  0  0  0  0  0  0
  -29.4869  -18.8681   21.5202 C   0  0  1  0  0  0  0  0  0  0  0  0
  -30.5793  -22.3884   20.6347 C   0  0  2  0  0  0  0  0  0  0  0  0
  -30.2982  -18.0160   22.5366 C   0  0  0  0  0  0  0  0  0  0  0  0
  -19.4498  -21.9139   21.4594 N   0  0  0  0  0  0  0  0  0  0  0  0
  -22.6928  -27.4482   21.1685 N   0  0  0  0  0  0  0  0  0  0  0  0
  -21.8773  -26.3855   21.2762 N   0  0  0  0  0  0  0  0  0  0  0  0
  -27.7306  -17.9588   20.0328 N   0  0  0  0  0  0  0  0  0  0  0  0
  -18.8567  -26.6970   23.5974 N   0  0  0  0  0  0  0  0  0  0  0  0
  -21.8002  -24.0310   21.0292 N   0  0  0  0  0  0  0  0  0  0  0  0
  -26.0640  -25.0532   19.9469 N   0  0  0  0  0  0  0  0  0  0  0  0
  -17.1970  -18.6426   24.5542 N   0  0  0  0  0  0  0  0  0  0  0  0
  -27.7581  -14.6858   19.2227 N   0  0  0  0  0  0  0  0  0  0  0  0
  -30.1857  -20.0576   21.0456 N   0  0  0  0  0  0  0  0  0  0  0  0
  -18.6013  -24.5809   24.6222 N   0  0  0  0  0  0  0  0  0  0  0  0
  -29.9095  -23.0978   19.5082 N   0  3  0  0  0  0  0  0  0  0  0  0
  -18.1459  -20.2077   25.9778 O   0  0  0  0  0  0  0  0  0  0  0  0
  -24.5564  -23.3381   20.1573 O   0  0  0  0  0  0  0  0  0  0  0  0
  -26.0537  -15.6852   20.4552 O   0  0  0  0  0  0  0  0  0  0  0  0
  -29.9895  -17.6062   19.5756 O   0  0  0  0  0  0  0  0  0  0  0  0
  -28.5901  -21.5869   21.7473 O   0  0  0  0  0  0  0  0  0  0  0  0
  -16.8488  -26.0582   24.5659 O   0  0  0  0  0  0  0  0  0  0  0  0
  -28.3186  -30.1472   19.8979 O   0  0  0  0  0  0  0  0  0  0  0  0
  -22.0130  -19.8785   21.3280 O   0  0  0  0  0  0  0  0  0  1  0  0
  -33.1518  -28.4740   21.9582 F   0  0  0  0  0  0  0  0  0  0  0  0
  -29.4295  -27.7353   19.1290 F   0  0  0  0  0  0  0  0  0  0  0  0
  1  2  1  0  0  0  0
  1  5  2  0  0  0  0
  2  6  2  0  0  0  0
  3  8  2  0  0  0  0
  3 17  1  0  0  0  0
  4  9  1  0  0  0  0
  4 17  2  0  0  0  0
  5 20  1  0  0  0  0
  6 22  1  0  0  0  0
  7 10  2  0  0  0  0
  7 21  1  0  0  0  0
  8 25  1  0  0  0  0
  9 25  2  0  0  0  0
 10 26  1  0  0  0  0
 11 12  2  0  0  0  0
 11 27  1  0  0  0  0
 12 28  1  0  0  0  0
 13 18  1  0  0  0  0
 13 31  2  0  0  0  0
 14 23  1  0  0  0  0
 14 26  2  0  0  0  0
 15 28  2  0  0  0  0
 15 29  1  0  0  0  0
 16 24  1  0  0  0  0
 16 65  2  0  0  0  0
 17 30  1  0  0  0  0
 18 24  2  0  0  0  0
 18 33  1  0  0  0  0
 19 30  1  0  0  0  0
 19 32  2  0  0  0  0
 19 34  1  0  0  0  0
 20 22  2  0  0  0  0
 20 39  1  0  0  0  0
 21 23  2  0  0  0  0
 21 40  1  0  0  0  0
 22 48  1  0  0  0  0
 23 41  1  0  0  0  0
 24 57  1  0  0  0  0
 25 83  1  0  0  0  0
 26 84  1  0  0  0  0
 27 29  2  0  0  0  0
 27 83  1  0  0  0  0
 28 85  1  0  0  0  0
 29 86  1  0  0  0  0
 30 66  2  0  0  0  0
 31 58  1  0  0  0  0
 31 65  1  0  0  0  0
 32 67  1  0  0  0  0
 32 70  1  0  0  0  0
 33 72  1  0  0  0  0
 33 77  2  0  0  0  0
 34 71  1  0  0  0  0
 34 78  2  0  0  0  0
 35 49  1  0  0  0  0
 35 73  1  0  0  0  0
 35 79  2  0  0  0  0
 36 62  1  0  0  0  0
 36 68  1  0  0  0  0
 36 80  2  0  0  0  0
 37 63  1  0  0  0  0
 37 74  1  0  0  0  0
 37 81  2  0  0  0  0
 38 69  1  0  0  0  0
 38 75  1  0  0  0  0
 38 82  2  0  0  0  0
 39 42  1  0  0  0  0
 40 49  1  0  0  0  0
 41 68  1  0  0  0  0
 42 44  1  0  0  0  0
 43 45  1  0  0  0  0
 43 46  1  0  0  0  0
 44 48  1  0  0  0  0
 45 50  1  0  0  0  0
 46 69  1  0  0  0  0
 47 50  1  0  0  0  0
 47 69  1  0  0  0  0
 48 73  1  0  0  0  0
 49 68  1  0  0  0  0
 50 67  1  0  0  0  0
 51 59  1  0  0  0  0
 52 63  1  0  0  0  0
 53 64  1  0  0  0  0
 54 64  1  0  0  0  0
 55 64  1  0  0  0  0
 56 76  1  0  0  0  0
 57 60  1  0  0  0  0
 58 84  1  0  0  0  0
 59 61  1  0  0  0  0
 60 75  1  0  0  0  0
 61 72  1  0  0  0  0
 62 64  1  0  0  0  0
 62 74  1  0  0  0  0
 63 76  1  0  0  0  0
 66 67  1  0  0  0  0
M  CHG  1  76   1
M  ISO  4  38 100  58 101  75 100  84 101
M  END
> <Batch ID>
0122

> <Smiles>
CCCNC(=O)c1cc([101CH2:1][101O:1]c2ccc3c(c2)CN(C(=O)C(NC(=O)C(C)NC)C(C)(C)C)C(C(=O)NC2CCCc4ccccc42)C3)ncc1CC[100NH:0][100C:0](=O)N1CCCC(n2nc(-c3ccc(Oc4ccc(F)cc4F)cc3)c(C(N)=O)c2N)C1

> <Shape>
0.199

> <Color>
0.072

> <Negative vol penalty>
0.000

$$$$

  -OEChem-04052320283D

 81 89  0     1  0  0  0  0  0999 V2000
  -15.6855  -25.6246   15.2554 C   0  0  0  0  0  0  0  0  0  0  0  0
  -16.8660  -24.9163   15.4558 C   0  0  0  0  0  0  0  0  0  0  0  0
  -23.0575   -9.9086   19.9115 C   0  0  0  0  0  0  0  0  0  0  0  0
  -23.8379   -9.8423   22.1970 C   0  0  0  0  0  0  0  0  0  0  0  0
  -15.4585  -26.8104   15.9527 C   0  0  0  0  0  0  0  0  0  0  0  0
  -17.8207  -25.3940   16.3529 C   0  0  0  0  0  0  0  0  0  0  0  0
  -21.4941  -22.0581   19.9423 C   0  0  0  0  0  0  0  0  0  0  0  0
  -22.3072   -8.7541   20.1342 C   0  0  0  0  0  0  0  0  0  0  0  0
  -23.0875   -8.6877   22.4197 C   0  0  0  0  0  0  0  0  0  0  0  0
  -22.8227  -21.6567   19.8100 C   0  0  0  0  0  0  0  0  0  0  0  0
  -19.8589   -7.8961   23.0280 C   0  0  0  0  0  0  0  0  0  0  0  0
  -19.1121   -7.8272   24.2040 C   0  0  0  0  0  0  0  0  0  0  0  0
  -23.5177  -23.5356   21.1538 C   0  0  0  0  0  0  0  0  0  0  0  0
  -20.3453   -5.8598   24.8717 C   0  0  0  0  0  0  0  0  0  0  0  0
  -27.7141  -21.3115   18.7493 C   0  0  0  0  0  0  0  0  0  0  0  0
  -29.4870  -20.0799   19.5040 C   0  0  0  0  0  0  0  0  0  0  0  0
  -23.8229  -10.4527   20.9429 C   0  0  0  0  0  0  0  0  0  0  0  0
  -24.1828  -12.9777   20.8943 C   0  0  0  0  0  0  0  0  0  0  0  0
  -16.4066  -27.2978   16.8660 C   0  0  0  0  0  0  0  0  0  0  0  0
  -21.1677  -23.2092   20.6735 C   0  0  0  0  0  0  0  0  0  0  0  0
  -17.6067  -26.5881   17.0621 C   0  0  0  0  0  0  0  0  0  0  0  0
  -22.1840  -23.9479   21.2961 C   0  0  0  0  0  0  0  0  0  0  0  0
  -22.3221   -8.1436   21.3883 C   0  0  0  0  0  0  0  0  0  0  0  0
  -23.8350  -22.3971   20.4134 C   0  0  0  0  0  0  0  0  0  0  0  0
  -20.8488   -6.9469   22.7737 C   0  0  0  0  0  0  0  0  0  0  0  0
  -19.3553   -6.8090   25.1259 C   0  0  0  0  0  0  0  0  0  0  0  0
  -21.0920   -5.9287   23.6956 C   0  0  0  0  0  0  0  0  0  0  0  0
  -24.5987  -11.6450   20.7134 C   0  0  0  0  0  0  0  0  0  0  0  0
  -26.8597  -20.5535   19.5194 C   0  0  0  0  0  0  0  0  0  0  0  0
  -28.6328  -19.3223   20.2747 C   0  0  0  0  0  0  0  0  0  0  0  0
  -25.2773  -13.7296   20.5433 C   0  0  0  0  0  0  0  0  0  0  0  0
  -22.9201  -13.4902   21.3398 C   0  0  0  0  0  0  0  0  0  0  0  0
  -19.7874  -25.9883   19.9841 C   0  0  0  0  0  0  0  0  0  0  0  0
  -19.9833  -26.4370   23.1907 C   0  0  0  0  0  0  0  0  0  0  0  0
  -21.5236  -25.6622   26.1358 C   0  0  0  0  0  0  0  0  0  0  0  0
  -30.7701  -14.7025   20.7114 C   0  0  0  0  0  0  0  0  0  0  0  0
  -16.1376  -28.6088   17.5614 C   0  0  0  0  0  0  0  0  0  0  0  0
  -19.7274  -23.6138   20.8291 C   0  0  0  0  0  0  0  0  0  0  0  0
  -21.8846  -25.1801   22.1088 C   0  0  0  0  0  0  0  0  0  0  0  0
  -17.0343  -28.8510   18.7728 C   0  0  0  0  0  0  0  0  0  0  0  0
  -29.5932  -12.3979   18.2659 C   0  0  0  0  0  0  0  0  0  0  0  0
  -18.4874  -28.5351   18.4329 C   0  0  0  0  0  0  0  0  0  0  0  0
  -28.1575  -12.1020   18.7031 C   0  0  0  0  0  0  0  0  0  0  0  0
  -30.5227  -12.5764   19.4644 C   0  0  0  0  0  0  0  0  0  0  0  0
  -28.6390  -13.2801   20.8892 C   0  0  0  0  0  0  0  0  0  0  0  0
  -18.6554  -27.0610   18.0453 C   0  0  1  0  0  0  0  0  0  0  0  0
  -19.5549  -25.0914   21.1670 C   0  0  1  0  0  0  0  0  0  0  0  0
  -27.6530  -13.1475   19.7159 C   0  0  2  0  0  0  0  0  0  0  0  0
  -21.4891  -26.2179   28.5827 C   0  0  0  0  0  0  0  0  0  0  0  0
  -21.3985  -29.0768   22.6087 C   0  0  0  0  0  0  0  0  0  0  0  0
  -22.1655  -29.1108   24.9917 C   0  0  0  0  0  0  0  0  0  0  0  0
  -19.7277  -29.1764   24.4669 C   0  0  0  0  0  0  0  0  0  0  0  0
  -20.8730  -22.8723   26.8788 C   0  0  0  0  0  0  0  0  0  0  0  0
  -25.3852  -20.8312   19.5186 C   0  0  0  0  0  0  0  0  0  1  0  0
  -30.5797  -17.9898   21.0869 C   0  0  0  0  0  0  0  0  0  0  0  0
  -30.8633  -16.8150   22.0105 C   0  0  0  0  0  0  0  0  0  0  0  0
  -21.0112  -27.0249   24.1271 C   0  0  1  0  0  0  0  0  0  0  0  0
  -20.9649  -25.2904   27.4975 C   0  0  2  0  0  0  0  0  0  0  0  0
  -21.0819  -28.5751   24.0317 C   0  0  0  0  0  0  0  0  0  0  0  0
  -29.0431  -21.0882   18.7277 N   0  0  0  0  0  0  0  0  0  0  0  0
  -25.8590  -11.5523   20.2809 N   0  0  0  0  0  0  0  0  0  0  0  0
  -27.3038  -19.5454   20.2960 N   0  0  0  0  0  0  0  0  0  0  0  0
  -26.2445  -12.8363   20.1870 N   0  0  0  0  0  0  0  0  0  0  0  0
  -20.4615  -25.5385   22.2264 N   0  0  0  0  0  0  0  0  0  0  0  0
  -29.9878  -13.5823   20.3853 N   0  0  0  0  0  0  0  0  0  0  0  0
  -25.4972  -15.0611   20.5076 N   0  0  0  0  0  0  0  0  0  0  0  0
  -21.9043  -12.5789   21.6594 N   0  0  0  0  0  0  0  0  0  0  0  0
  -29.1817  -18.2841   21.0601 N   0  0  0  0  0  0  0  0  0  0  0  0
  -18.6562  -26.2247   19.2264 N   0  0  0  0  0  0  0  0  0  0  0  0
  -20.6861  -26.5223   25.4576 N   0  0  0  0  0  0  0  0  0  0  0  0
  -30.1856  -15.6104   21.5859 N   0  0  0  0  0  0  0  0  0  0  0  0
  -21.3450  -23.8931   27.8494 N   0  3  0  0  0  0  0  0  0  0  0  0
  -22.6937  -14.7203   21.4355 O   0  0  0  0  0  0  0  0  0  0  0  0
  -20.9096  -26.4340   19.7750 O   0  0  0  0  0  0  0  0  0  0  0  0
  -18.7986  -26.7576   23.3149 O   0  0  0  0  0  0  0  0  0  0  0  0
  -22.5976  -25.2355   25.7174 O   0  0  0  0  0  0  0  0  0  0  0  0
  -31.9033  -14.8829   20.2528 O   0  0  0  0  0  0  0  0  0  0  0  0
  -21.5899   -7.0171   21.6060 O   0  0  0  0  0  0  0  0  0  0  0  0
  -25.1327  -22.0080   20.2853 O   0  0  0  0  0  0  0  0  0  1  0  0
  -18.6392   -6.7438   26.2560 F   0  0  0  0  0  0  0  0  0  0  0  0
  -22.0426   -5.0146   23.4573 F   0  0  0  0  0  0  0  0  0  0  0  0
  1  2  1  0  0  0  0
  1  5  2  0  0  0  0
  2  6  2  0  0  0  0
  3  8  2  0  0  0  0
  3 17  1  0  0  0  0
  4  9  1  0  0  0  0
  4 17  2  0  0  0  0
  5 19  1  0  0  0  0
  6 21  1  0  0  0  0
  7 10  2  0  0  0  0
  7 20  1  0  0  0  0
  8 23  1  0  0  0  0
  9 23  2  0  0  0  0
 10 24  1  0  0  0  0
 11 12  2  0  0  0  0
 11 25  1  0  0  0  0
 12 26  1  0  0  0  0
 13 22  1  0  0  0  0
 13 24  2  0  0  0  0
 14 26  2  0  0  0  0
 14 27  1  0  0  0  0
 15 29  1  0  0  0  0
 15 60  2  0  0  0  0
 16 30  2  0  0  0  0
 16 60  1  0  0  0  0
 17 28  1  0  0  0  0
 18 28  1  0  0  0  0
 18 31  2  0  0  0  0
 18 32  1  0  0  0  0
 19 21  2  0  0  0  0
 19 37  1  0  0  0  0
 20 22  2  0  0  0  0
 20 38  1  0  0  0  0
 21 46  1  0  0  0  0
 22 39  1  0  0  0  0
 23 78  1  0  0  0  0
 24 79  1  0  0  0  0
 25 27  2  0  0  0  0
 25 78  1  0  0  0  0
 26 80  1  0  0  0  0
 27 81  1  0  0  0  0
 28 61  2  0  0  0  0
 29 54  1  0  0  0  0
 29 62  2  0  0  0  0
 30 62  1  0  0  0  0
 30 68  1  0  0  0  0
 31 63  1  0  0  0  0
 31 66  1  0  0  0  0
 32 67  1  0  0  0  0
 32 73  2  0  0  0  0
 33 47  1  0  0  0  0
 33 69  1  0  0  0  0
 33 74  2  0  0  0  0
 34 57  1  0  0  0  0
 34 64  1  0  0  0  0
 34 75  2  0  0  0  0
 35 58  1  0  0  0  0
 35 70  1  0  0  0  0
 35 76  2  0  0  0  0
 36 65  1  0  0  0  0
 36 71  1  0  0  0  0
 36 77  2  0  0  0  0
 37 40  1  0  0  0  0
 38 47  1  0  0  0  0
 39 64  1  0  0  0  0
 40 42  1  0  0  0  0
 41 43  1  0  0  0  0
 41 44  1  0  0  0  0
 42 46  1  0  0  0  0
 43 48  1  0  0  0  0
 44 65  1  0  0  0  0
 45 48  1  0  0  0  0
 45 65  1  0  0  0  0
 46 69  1  0  0  0  0
 47 64  1  0  0  0  0
 48 63  1  0  0  0  0
 49 58  1  0  0  0  0
 50 59  1  0  0  0  0
 51 59  1  0  0  0  0
 52 59  1  0  0  0  0
 53 72  1  0  0  0  0
 54 79  1  0  0  0  0
 55 56  1  0  0  0  0
 55 68  1  0  0  0  0
 56 71  1  0  0  0  0
 57 59  1  0  0  0  0
 57 70  1  0  0  0  0
 58 72  1  0  0  0  0
 61 63  1  0  0  0  0
M  CHG  1  72   1
M  ISO  4  36 100  54 101  71 100  79 101
M  END
> <Batch ID>
0122

> <Smiles>
CNC(C)C(=O)NC(C(=O)N1Cc2cc([101O:1][101CH2:1]c3cncc(NCC[100NH:0][100C:0](=O)N4CCCC(n5nc(-c6ccc(Oc7ccc(F)cc7F)cc6)c(C(N)=O)c5N)C4)n3)ccc2CC1C(=O)NC1CCCc2ccccc21)C(C)(C)C

> <Shape>
0.258

> <Color>
0.191

> <Negative vol penalty>
0.000

$$$$

  -OEChem-04052320283D

 86 95  0     1  0  0  0  0  0999 V2000
  -17.7605  -33.0238   17.9133 C   0  0  0  0  0  0  0  0  0  0  0  0
  -19.0814  -33.0378   17.4769 C   0  0  0  0  0  0  0  0  0  0  0  0
  -24.7867   -8.7358   20.7027 C   0  0  0  0  0  0  0  0  0  0  0  0
  -25.4150   -9.4804   22.9135 C   0  0  0  0  0  0  0  0  0  0  0  0
  -17.4743  -33.1683   19.2702 C   0  0  0  0  0  0  0  0  0  0  0  0
  -20.1169  -33.1974   18.3971 C   0  0  0  0  0  0  0  0  0  0  0  0
  -25.2769  -28.2167   19.0739 C   0  0  0  0  0  0  0  0  0  0  0  0
  -24.7705   -7.4154   21.1519 C   0  0  0  0  0  0  0  0  0  0  0  0
  -25.3987   -8.1599   23.3628 C   0  0  0  0  0  0  0  0  0  0  0  0
  -26.4151  -27.4111   19.1151 C   0  0  0  0  0  0  0  0  0  0  0  0
  -22.6931   -5.4072   22.9081 C   0  0  0  0  0  0  0  0  0  0  0  0
  -21.6141   -4.6075   22.5313 C   0  0  0  0  0  0  0  0  0  0  0  0
  -27.3135  -28.7539   20.9144 C   0  0  0  0  0  0  0  0  0  0  0  0
  -23.1294   -3.0825   21.4290 C   0  0  0  0  0  0  0  0  0  0  0  0
  -25.1090   -9.7683   21.5835 C   0  0  0  0  0  0  0  0  0  0  0  0
  -24.0534  -12.0436   21.1181 C   0  0  0  0  0  0  0  0  0  0  0  0
  -18.5073  -33.3200   20.2086 C   0  0  0  0  0  0  0  0  0  0  0  0
  -25.1457  -29.2860   19.9642 C   0  0  0  0  0  0  0  0  0  0  0  0
  -19.8442  -33.3454   19.7677 C   0  0  0  0  0  0  0  0  0  0  0  0
  -26.1701  -29.5568   20.8862 C   0  0  0  0  0  0  0  0  0  0  0  0
  -25.0764   -7.1275   22.4820 C   0  0  0  0  0  0  0  0  0  0  0  0
  -27.4310  -27.6792   20.0329 C   0  0  0  0  0  0  0  0  0  0  0  0
  -23.9902   -5.0446   22.5453 C   0  0  0  0  0  0  0  0  0  0  0  0
  -21.8323   -3.4451   21.7918 C   0  0  0  0  0  0  0  0  0  0  0  0
  -24.2084   -3.8822   21.8057 C   0  0  0  0  0  0  0  0  0  0  0  0
  -25.1266  -11.1324   21.1198 C   0  0  0  0  0  0  0  0  0  0  0  0
  -24.5800  -13.1933   20.5822 C   0  0  0  0  0  0  0  0  0  0  0  0
  -22.7015  -11.8665   21.5615 C   0  0  0  0  0  0  0  0  0  0  0  0
  -23.0381  -32.1409   21.1823 C   0  0  0  0  0  0  0  0  0  0  0  0
  -28.7353  -24.3060   21.2941 C   0  0  0  0  0  0  0  0  0  0  0  0
  -24.2719  -30.8227   23.6623 C   0  0  0  0  0  0  0  0  0  0  0  0
  -25.4888  -28.8329   26.1516 C   0  0  0  0  0  0  0  0  0  0  0  0
  -28.6766  -16.9669   20.2307 C   0  0  0  0  0  0  0  0  0  0  0  0
  -18.1465  -33.5201   21.6593 C   0  0  0  0  0  0  0  0  0  0  0  0
  -23.9650  -30.2174   19.9144 C   0  0  0  0  0  0  0  0  0  0  0  0
  -26.0013  -30.7386   21.8015 C   0  0  0  0  0  0  0  0  0  0  0  0
  -19.3193  -33.3088   22.6134 C   0  0  0  0  0  0  0  0  0  0  0  0
  -28.9960  -14.0203   18.2579 C   0  0  0  0  0  0  0  0  0  0  0  0
  -27.2077  -24.1820   24.6169 C   0  0  0  0  0  0  0  0  0  0  0  0
  -20.5597  -34.0358   22.1038 C   0  0  0  0  0  0  0  0  0  0  0  0
  -25.9476  -20.7713   22.0193 C   0  0  0  0  0  0  0  0  0  0  0  0
  -28.4162  -20.9582   22.5270 C   0  0  0  0  0  0  0  0  0  0  0  0
  -27.9340  -13.0799   18.8305 C   0  0  0  0  0  0  0  0  0  0  0  0
  -26.6503  -22.8962   24.0256 C   0  0  0  0  0  0  0  0  0  0  0  0
  -26.1172  -19.4269   21.3023 C   0  0  0  0  0  0  0  0  0  0  0  0
  -28.4051  -19.4324   22.3785 C   0  0  0  0  0  0  0  0  0  0  0  0
  -28.4787  -24.3950   23.8115 C   0  0  0  0  0  0  0  0  0  0  0  0
  -29.6486  -14.8658   19.3493 C   0  0  0  0  0  0  0  0  0  0  0  0
  -27.6431  -14.6782   20.7694 C   0  0  0  0  0  0  0  0  0  0  0  0
  -20.9961  -33.4914   20.7382 C   0  0  1  0  0  0  0  0  0  0  0  0
  -23.5447  -30.7337   21.3022 C   0  0  1  0  0  0  0  0  0  0  0  0
  -27.1941  -21.6506   21.8996 C   0  0  0  0  0  0  0  0  0  0  0  0
  -26.9174  -13.8447   19.6993 C   0  0  2  0  0  0  0  0  0  0  0  0
  -26.9668  -23.0232   22.5294 C   0  0  2  0  0  0  0  0  0  0  0  0
  -27.5805  -18.9831   21.1757 C   0  0  0  0  0  0  0  0  0  0  0  0
  -25.5677  -28.6321   28.6518 C   0  0  0  0  0  0  0  0  0  0  0  0
  -26.3673  -33.0368   23.7702 C   0  0  0  0  0  0  0  0  0  0  0  0
  -27.0741  -32.1614   26.0068 C   0  0  0  0  0  0  0  0  0  0  0  0
  -24.7577  -33.0290   25.6842 C   0  0  0  0  0  0  0  0  0  0  0  0
  -24.0830  -26.2290   26.1029 C   0  0  0  0  0  0  0  0  0  0  0  0
  -29.8070  -25.3592   21.4264 C   0  0  0  0  0  0  0  0  0  0  0  0
  -29.1903  -26.7435   21.3316 C   0  0  0  0  0  0  0  0  0  1  0  0
  -25.4048  -30.8113   24.6572 C   0  0  1  0  0  0  0  0  0  0  0  0
  -24.8267  -28.2409   27.3827 C   0  0  2  0  0  0  0  0  0  0  0  0
  -25.9011  -32.2427   25.0068 C   0  0  0  0  0  0  0  0  0  0  0  0
  -26.2500  -11.6580   20.6241 N   0  0  0  0  0  0  0  0  0  0  0  0
  -25.8856  -12.9118   20.3059 N   0  0  0  0  0  0  0  0  0  0  0  0
  -24.6204  -30.7897   22.3066 N   0  0  0  0  0  0  0  0  0  0  0  0
  -28.1439  -23.8979   22.4799 N   0  0  0  0  0  0  0  0  0  0  0  0
  -28.6304  -15.5663   20.1358 N   0  0  0  0  0  0  0  0  0  0  0  0
  -24.0490  -14.4075   20.3250 N   0  0  0  0  0  0  0  0  0  0  0  0
  -22.3280  -10.6216   22.0860 N   0  0  0  0  0  0  0  0  0  0  0  0
  -21.6895  -32.2308   20.8948 N   0  0  0  0  0  0  0  0  0  0  0  0
  -24.9317  -30.0458   25.8056 N   0  0  0  0  0  0  0  0  0  0  0  0
  -27.6706  -17.5519   20.9900 N   0  0  0  0  0  0  0  0  0  0  0  0
  -24.8015  -26.7535   27.2927 N   0  3  0  0  0  0  0  0  0  0  0  0
  -21.8456  -12.7798   21.4793 O   0  0  0  0  0  0  0  0  0  0  0  0
  -23.8125  -33.0774   21.3403 O   0  0  0  0  0  0  0  0  0  0  0  0
  -28.4345  -23.8705   20.1815 O   0  0  0  0  0  0  0  0  0  0  0  0
  -23.1089  -30.8655   24.0730 O   0  0  0  0  0  0  0  0  0  0  0  0
  -26.4106  -28.2768   25.5587 O   0  0  0  0  0  0  0  0  0  0  0  0
  -29.5465  -17.6463   19.6752 O   0  0  0  0  0  0  0  0  0  0  0  0
  -25.0604   -5.8391   22.9208 O   0  0  0  0  0  0  0  0  0  0  0  0
  -28.5374  -26.8860   20.0708 O   0  0  0  0  0  0  0  0  0  1  0  0
  -20.7962   -2.6765   21.4314 F   0  0  0  0  0  0  0  0  0  0  0  0
  -25.4524   -3.5280   21.4552 F   0  0  0  0  0  0  0  0  0  0  0  0
  1  2  1  0  0  0  0
  1  5  2  0  0  0  0
  2  6  2  0  0  0  0
  3  8  2  0  0  0  0
  3 15  1  0  0  0  0
  4  9  1  0  0  0  0
  4 15  2  0  0  0  0
  5 17  1  0  0  0  0
  6 19  1  0  0  0  0
  7 10  2  0  0  0  0
  7 18  1  0  0  0  0
  8 21  1  0  0  0  0
  9 21  2  0  0  0  0
 10 22  1  0  0  0  0
 11 12  2  0  0  0  0
 11 23  1  0  0  0  0
 12 24  1  0  0  0  0
 13 20  1  0  0  0  0
 13 22  2  0  0  0  0
 14 24  2  0  0  0  0
 14 25  1  0  0  0  0
 15 26  1  0  0  0  0
 16 26  1  0  0  0  0
 16 27  2  0  0  0  0
 16 28  1  0  0  0  0
 17 19  2  0  0  0  0
 17 34  1  0  0  0  0
 18 20  2  0  0  0  0
 18 35  1  0  0  0  0
 19 50  1  0  0  0  0
 20 36  1  0  0  0  0
 21 83  1  0  0  0  0
 22 84  1  0  0  0  0
 23 25  2  0  0  0  0
 23 83  1  0  0  0  0
 24 85  1  0  0  0  0
 25 86  1  0  0  0  0
 26 66  2  0  0  0  0
 27 67  1  0  0  0  0
 27 71  1  0  0  0  0
 28 72  1  0  0  0  0
 28 77  2  0  0  0  0
 29 51  1  0  0  0  0
 29 73  1  0  0  0  0
 29 78  2  0  0  0  0
 30 61  1  0  0  0  0
 30 69  1  0  0  0  0
 30 79  2  0  0  0  0
 31 63  1  0  0  0  0
 31 68  1  0  0  0  0
 31 80  2  0  0  0  0
 32 64  1  0  0  0  0
 32 74  1  0  0  0  0
 32 81  2  0  0  0  0
 33 70  1  0  0  0  0
 33 75  1  0  0  0  0
 33 82  2  0  0  0  0
 34 37  1  0  0  0  0
 35 51  1  0  0  0  0
 36 68  1  0  0  0  0
 37 40  1  0  0  0  0
 38 43  1  0  0  0  0
 38 48  1  0  0  0  0
 39 44  1  0  0  0  0
 39 47  1  0  0  0  0
 40 50  1  0  0  0  0
 41 45  1  0  0  0  0
 41 52  1  0  0  0  0
 42 46  1  0  0  0  0
 42 52  1  0  0  0  0
 43 53  1  0  0  0  0
 44 54  1  0  0  0  0
 45 55  1  0  0  0  0
 46 55  1  0  0  0  0
 47 69  1  0  0  0  0
 48 70  1  0  0  0  0
 49 53  1  0  0  0  0
 49 70  1  0  0  0  0
 50 73  1  0  0  0  0
 51 68  1  0  0  0  0
 52 54  1  0  0  0  0
 53 67  1  0  0  0  0
 54 69  1  0  0  0  0
 55 75  1  0  0  0  0
 56 64  1  0  0  0  0
 57 65  1  0  0  0  0
 58 65  1  0  0  0  0
 59 65  1  0  0  0  0
 60 76  1  0  0  0  0
 61 62  1  0  0  0  0
 62 84  1  0  0  0  0
 63 65  1  0  0  0  0
 63 74  1  0  0  0  0
 64 76  1  0  0  0  0
 66 67  1  0  0  0  0
M  CHG  1  76   1
M  ISO  4  33 100  62 101  75 100  84 101
M  END
> <Batch ID>
0122

> <Smiles>
CNC(C)C(=O)NC(C(=O)N1Cc2cc([101O:1][101CH2:1]CC(=O)N3CCCC3C3CCC([100NH:0][100C:0](=O)N4CCCC(n5nc(-c6ccc(Oc7ccc(F)cc7F)cc6)c(C(N)=O)c5N)C4)CC3)ccc2CC1C(=O)NC1CCCc2ccccc21)C(C)(C)C

> <Shape>
0.259

> <Color>
0.113

> <Negative vol penalty>
0.000

$$$$

  -OEChem-04052320283D

 85 94  0     1  0  0  0  0  0999 V2000
  -27.8698  -23.2722   17.6898 C   0  0  0  0  0  0  0  0  0  0  0  0
  -26.6522  -23.7211   18.1911 C   0  0  0  0  0  0  0  0  0  0  0  0
  -27.4837  -14.9955   21.9810 C   0  0  0  0  0  0  0  0  0  0  0  0
  -26.1007  -15.5591   20.0819 C   0  0  0  0  0  0  0  0  0  0  0  0
  -29.0599  -23.6521   18.3088 C   0  0  0  0  0  0  0  0  0  0  0  0
  -26.6240  -24.5494   19.3125 C   0  0  0  0  0  0  0  0  0  0  0  0
  -23.4390  -28.4487   18.7679 C   0  0  0  0  0  0  0  0  0  0  0  0
  -18.2691  -24.2319   19.0730 C   0  0  0  0  0  0  0  0  0  0  0  0
  -27.1353  -13.6527   21.8363 C   0  0  0  0  0  0  0  0  0  0  0  0
  -25.7523  -14.2162   19.9371 C   0  0  0  0  0  0  0  0  0  0  0  0
  -22.0795  -28.1885   18.9348 C   0  0  0  0  0  0  0  0  0  0  0  0
  -24.5072  -11.6663   22.5926 C   0  0  0  0  0  0  0  0  0  0  0  0
  -24.1623  -10.9593   23.7445 C   0  0  0  0  0  0  0  0  0  0  0  0
  -18.0051  -25.4484   19.6924 C   0  0  0  0  0  0  0  0  0  0  0  0
  -22.1918  -29.0719   21.1767 C   0  0  0  0  0  0  0  0  0  0  0  0
  -25.9790   -9.4181   23.3424 C   0  0  0  0  0  0  0  0  0  0  0  0
  -26.9664  -15.9487   21.1038 C   0  0  0  0  0  0  0  0  0  0  0  0
  -28.4139  -18.0014   20.6576 C   0  0  0  0  0  0  0  0  0  0  0  0
  -29.0468  -24.4933   19.4326 C   0  0  0  0  0  0  0  0  0  0  0  0
  -24.1888  -29.0134   19.8097 C   0  0  0  0  0  0  0  0  0  0  0  0
  -27.8150  -24.9399   19.9479 C   0  0  0  0  0  0  0  0  0  0  0  0
  -19.1993  -23.3617   19.6306 C   0  0  0  0  0  0  0  0  0  0  0  0
  -23.5601  -29.3406   21.0196 C   0  0  0  0  0  0  0  0  0  0  0  0
  -26.2696  -13.2630   20.8144 C   0  0  0  0  0  0  0  0  0  0  0  0
  -21.4563  -28.4974   20.1403 C   0  0  0  0  0  0  0  0  0  0  0  0
  -25.5879  -11.2492   21.8156 C   0  0  0  0  0  0  0  0  0  0  0  0
  -24.8983   -9.8352   24.1194 C   0  0  0  0  0  0  0  0  0  0  0  0
  -26.3239  -10.1252   22.1905 C   0  0  0  0  0  0  0  0  0  0  0  0
  -27.3255  -17.3361   21.2531 C   0  0  0  0  0  0  0  0  0  0  0  0
  -18.6923  -25.7452   20.8583 C   0  0  0  0  0  0  0  0  0  0  0  0
  -19.8332  -23.7520   20.7992 C   0  0  0  0  0  0  0  0  0  0  0  0
  -28.3162  -19.2941   21.1113 C   0  0  0  0  0  0  0  0  0  0  0  0
  -29.4230  -17.4960   19.7733 C   0  0  0  0  0  0  0  0  0  0  0  0
  -26.6833  -28.0753   21.5421 C   0  0  0  0  0  0  0  0  0  0  0  0
  -26.5038  -31.0918   22.7214 C   0  0  0  0  0  0  0  0  0  0  0  0
  -24.5999  -33.8602   23.3196 C   0  0  0  0  0  0  0  0  0  0  0  0
  -23.7202  -22.5872   23.0818 C   0  0  0  0  0  0  0  0  0  0  0  0
  -30.3564  -24.8387   20.0962 C   0  0  0  0  0  0  0  0  0  0  0  0
  -25.6485  -29.3125   19.6044 C   0  0  0  0  0  0  0  0  0  0  0  0
  -24.3159  -29.9668   22.1620 C   0  0  0  0  0  0  0  0  0  0  0  0
  -30.2597  -26.0226   21.0550 C   0  0  0  0  0  0  0  0  0  0  0  0
  -26.7294  -21.8458   24.8344 C   0  0  0  0  0  0  0  0  0  0  0  0
  -20.6523  -21.9581   18.0204 C   0  0  0  0  0  0  0  0  0  0  0  0
  -19.2533  -21.9147   17.4901 C   0  0  0  0  0  0  0  0  0  0  0  0
  -29.0430  -25.8761   21.9632 C   0  0  0  0  0  0  0  0  0  0  0  0
  -27.3216  -20.6660   24.0616 C   0  0  0  0  0  0  0  0  0  0  0  0
  -25.2050  -21.7753   24.8909 C   0  0  0  0  0  0  0  0  0  0  0  0
  -25.1345  -20.4609   22.8074 C   0  0  0  0  0  0  0  0  0  0  0  0
  -19.4879  -22.0570   18.9719 C   0  0  0  0  0  0  0  0  0  0  0  0
  -27.7445  -25.8597   21.1476 C   0  0  1  0  0  0  0  0  0  0  0  0
  -26.4270  -29.4153   20.9123 C   0  0  1  0  0  0  0  0  0  0  0  0
  -26.6660  -20.5179   22.6754 C   0  0  2  0  0  0  0  0  0  0  0  0
  -17.8537  -26.8386   22.9638 C   0  0  0  0  0  0  0  0  0  0  0  0
  -24.7211  -36.1533   24.3317 C   0  0  0  0  0  0  0  0  0  0  0  0
  -26.4216  -29.8617   25.5125 C   0  0  0  0  0  0  0  0  0  0  0  0
  -25.5997  -32.0610   26.3817 C   0  0  0  0  0  0  0  0  0  0  0  0
  -27.8492  -31.9055   25.3149 C   0  0  0  0  0  0  0  0  0  0  0  0
  -23.9203  -35.1577   20.7479 C   0  0  0  0  0  0  0  0  0  0  0  0
  -20.8433  -22.8599   21.4437 C   0  0  0  0  0  0  0  0  0  0  0  0
  -22.2919  -23.2813   21.1747 C   0  0  0  0  0  0  0  0  0  0  0  0
  -19.6861  -27.9438   21.6288 C   0  0  0  0  0  0  0  0  0  1  0  0
  -18.4284  -27.0667   21.5630 C   0  0  1  0  0  0  0  0  0  0  0  0
  -25.7794  -31.7487   23.8715 C   0  0  1  0  0  0  0  0  0  0  0  0
  -24.8545  -35.3337   23.0577 C   0  0  2  0  0  0  0  0  0  0  0  0
  -26.3984  -31.3806   25.2495 C   0  0  0  0  0  0  0  0  0  0  0  0
  -26.5904  -18.1398   22.0263 N   0  0  0  0  0  0  0  0  0  0  0  0
  -19.6028  -24.9254   21.4297 N   0  0  0  0  0  0  0  0  0  0  0  0
  -27.2181  -19.3233   21.9198 N   0  0  0  0  0  0  0  0  0  0  0  0
  -25.7425  -30.2342   21.9148 N   0  0  0  0  0  0  0  0  0  0  0  0
  -24.6458  -21.6371   23.5440 N   0  0  0  0  0  0  0  0  0  0  0  0
  -29.0633  -20.3972   20.8937 N   0  0  0  0  0  0  0  0  0  0  0  0
  -29.3750  -16.1437   19.4080 N   0  0  0  0  0  0  0  0  0  0  0  0
  -27.3885  -27.2011   20.7372 N   0  0  0  0  0  0  0  0  0  0  0  0
  -25.7692  -33.1790   23.5840 N   0  0  0  0  0  0  0  0  0  0  0  0
  -23.2443  -22.3854   21.7920 N   0  0  0  0  0  0  0  0  0  0  0  0
  -23.8817  -35.8577   22.0577 N   0  3  0  0  0  0  0  0  0  0  0  0
  -30.3497  -18.2181   19.3336 O   0  0  0  0  0  0  0  0  0  0  0  0
  -26.2730  -27.8517   22.6749 O   0  0  0  0  0  0  0  0  0  0  0  0
  -27.6994  -31.3363   22.5410 O   0  0  0  0  0  0  0  0  0  0  0  0
  -23.4757  -33.3640   23.2959 O   0  0  0  0  0  0  0  0  0  0  0  0
  -23.3496  -23.5473   23.7659 O   0  0  0  0  0  0  0  0  0  0  0  0
  -25.9295  -11.9527   20.6727 O   0  0  0  0  0  0  0  0  0  0  0  0
  -20.1297  -28.2438   20.3061 O   0  0  0  0  0  0  0  0  0  1  0  0
  -24.5679   -9.1573   25.2264 F   0  0  0  0  0  0  0  0  0  0  0  0
  -27.3639   -9.7204   21.4486 F   0  0  0  0  0  0  0  0  0  0  0  0
  1  2  1  0  0  0  0
  1  5  2  0  0  0  0
  2  6  2  0  0  0  0
  3  9  2  0  0  0  0
  3 17  1  0  0  0  0
  4 10  1  0  0  0  0
  4 17  2  0  0  0  0
  5 19  1  0  0  0  0
  6 21  1  0  0  0  0
  7 11  2  0  0  0  0
  7 20  1  0  0  0  0
  8 14  2  0  0  0  0
  8 22  1  0  0  0  0
  9 24  1  0  0  0  0
 10 24  2  0  0  0  0
 11 25  1  0  0  0  0
 12 13  2  0  0  0  0
 12 26  1  0  0  0  0
 13 27  1  0  0  0  0
 14 30  1  0  0  0  0
 15 23  1  0  0  0  0
 15 25  2  0  0  0  0
 16 27  2  0  0  0  0
 16 28  1  0  0  0  0
 17 29  1  0  0  0  0
 18 29  1  0  0  0  0
 18 32  2  0  0  0  0
 18 33  1  0  0  0  0
 19 21  2  0  0  0  0
 19 38  1  0  0  0  0
 20 23  2  0  0  0  0
 20 39  1  0  0  0  0
 21 50  1  0  0  0  0
 22 31  2  0  0  0  0
 22 49  1  0  0  0  0
 23 40  1  0  0  0  0
 24 82  1  0  0  0  0
 25 83  1  0  0  0  0
 26 28  2  0  0  0  0
 26 82  1  0  0  0  0
 27 84  1  0  0  0  0
 28 85  1  0  0  0  0
 29 66  2  0  0  0  0
 30 62  1  0  0  0  0
 30 67  2  0  0  0  0
 31 59  1  0  0  0  0
 31 67  1  0  0  0  0
 32 68  1  0  0  0  0
 32 71  1  0  0  0  0
 33 72  1  0  0  0  0
 33 77  2  0  0  0  0
 34 51  1  0  0  0  0
 34 73  1  0  0  0  0
 34 78  2  0  0  0  0
 35 63  1  0  0  0  0
 35 69  1  0  0  0  0
 35 79  2  0  0  0  0
 36 64  1  0  0  0  0
 36 74  1  0  0  0  0
 36 80  2  0  0  0  0
 37 70  1  0  0  0  0
 37 75  1  0  0  0  0
 37 81  2  0  0  0  0
 38 41  1  0  0  0  0
 39 51  1  0  0  0  0
 40 69  1  0  0  0  0
 41 45  1  0  0  0  0
 42 46  1  0  0  0  0
 42 47  1  0  0  0  0
 43 44  1  0  0  0  0
 43 49  1  0  0  0  0
 44 49  1  0  0  0  0
 45 50  1  0  0  0  0
 46 52  1  0  0  0  0
 47 70  1  0  0  0  0
 48 52  1  0  0  0  0
 48 70  1  0  0  0  0
 50 73  1  0  0  0  0
 51 69  1  0  0  0  0
 52 68  1  0  0  0  0
 53 62  1  0  0  0  0
 54 64  1  0  0  0  0
 55 65  1  0  0  0  0
 56 65  1  0  0  0  0
 57 65  1  0  0  0  0
 58 76  1  0  0  0  0
 59 60  1  0  0  0  0
 60 75  1  0  0  0  0
 61 62  1  0  0  0  0
 61 83  1  0  0  0  0
 63 65  1  0  0  0  0
 63 74  1  0  0  0  0
 64 76  1  0  0  0  0
 66 68  1  0  0  0  0
M  CHG  1  76   1
M  ISO  4  37 100  61 101  75 100  83 101
M  END
> <Batch ID>
0122

> <Smiles>
CNC(C)C(=O)NC(C(=O)N1Cc2cc([101O:1][101CH2:1]C(C)c3ccc(C4CC4)c(CC[100NH:0][100C:0](=O)N4CCCC(n5nc(-c6ccc(Oc7ccc(F)cc7F)cc6)c(C(N)=O)c5N)C4)n3)ccc2CC1C(=O)NC1CCCc2ccccc21)C(C)(C)C

> <Shape>
0.257

> <Color>
0.077

> <Negative vol penalty>
0.000

$$$$

  -OEChem-04052320283D

 89 97  0     1  0  0  0  0  0999 V2000
  -16.5976  -26.8558   22.2979 C   0  0  0  0  0  0  0  0  0  0  0  0
  -17.7602  -26.7161   21.5467 C   0  0  0  0  0  0  0  0  0  0  0  0
  -22.6617  -10.4535   20.9569 C   0  0  0  0  0  0  0  0  0  0  0  0
  -24.5056   -8.9804   21.4739 C   0  0  0  0  0  0  0  0  0  0  0  0
  -16.5694  -27.7352   23.3795 C   0  0  0  0  0  0  0  0  0  0  0  0
  -18.8949  -27.4565   21.8760 C   0  0  0  0  0  0  0  0  0  0  0  0
  -23.1217  -24.6682   21.8068 C   0  0  0  0  0  0  0  0  0  0  0  0
  -21.8394   -9.7262   21.8174 C   0  0  0  0  0  0  0  0  0  0  0  0
  -23.6833   -8.2532   22.3345 C   0  0  0  0  0  0  0  0  0  0  0  0
  -23.6772  -24.3850   20.5598 C   0  0  0  0  0  0  0  0  0  0  0  0
  -21.2803   -5.8887   22.0782 C   0  0  0  0  0  0  0  0  0  0  0  0
  -21.3325   -4.4969   22.0023 C   0  0  0  0  0  0  0  0  0  0  0  0
  -25.2887  -26.1507   20.8834 C   0  0  0  0  0  0  0  0  0  0  0  0
  -22.0263   -4.3968   24.3144 C   0  0  0  0  0  0  0  0  0  0  0  0
  -23.9948  -10.0806   20.7851 C   0  0  0  0  0  0  0  0  0  0  0  0
  -24.6606  -11.0356   18.5152 C   0  0  0  0  0  0  0  0  0  0  0  0
  -17.7073  -28.4796   23.7282 C   0  0  0  0  0  0  0  0  0  0  0  0
  -23.6395  -25.7037   22.5980 C   0  0  0  0  0  0  0  0  0  0  0  0
  -18.8815  -28.3477   22.9625 C   0  0  0  0  0  0  0  0  0  0  0  0
  -24.7396  -26.4434   22.1411 C   0  0  0  0  0  0  0  0  0  0  0  0
  -22.3502   -8.6261   22.5063 C   0  0  0  0  0  0  0  0  0  0  0  0
  -24.7591  -25.1281   20.0967 C   0  0  0  0  0  0  0  0  0  0  0  0
  -21.6012   -6.5346   23.2722 C   0  0  0  0  0  0  0  0  0  0  0  0
  -21.7054   -3.7509   23.1204 C   0  0  0  0  0  0  0  0  0  0  0  0
  -21.9741   -5.7886   24.3903 C   0  0  0  0  0  0  0  0  0  0  0  0
  -24.8445  -10.8311   19.8958 C   0  0  0  0  0  0  0  0  0  0  0  0
  -25.7312  -11.8083   18.1369 C   0  0  0  0  0  0  0  0  0  0  0  0
  -23.6153  -10.5688   17.6519 C   0  0  0  0  0  0  0  0  0  0  0  0
  -22.4889  -28.4303   23.7581 C   0  0  0  0  0  0  0  0  0  0  0  0
  -27.9437  -20.0236   20.6312 C   0  0  0  0  0  0  0  0  0  0  0  0
  -25.3492  -28.5353   25.2845 C   0  0  0  0  0  0  0  0  0  0  0  0
  -28.6173  -27.5576   25.3845 C   0  0  0  0  0  0  0  0  0  0  0  0
  -29.2701  -15.6106   21.1152 C   0  0  0  0  0  0  0  0  0  0  0  0
  -17.6143  -29.4527   24.8767 C   0  0  0  0  0  0  0  0  0  0  0  0
  -23.0459  -25.9792   23.9523 C   0  0  0  0  0  0  0  0  0  0  0  0
  -25.3454  -27.5521   22.9609 C   0  0  0  0  0  0  0  0  0  0  0  0
  -18.9736  -29.9218   25.3891 C   0  0  0  0  0  0  0  0  0  0  0  0
  -30.2826  -12.7239   19.2935 C   0  0  0  0  0  0  0  0  0  0  0  0
  -19.8773  -30.3130   24.2241 C   0  0  0  0  0  0  0  0  0  0  0  0
  -28.9871  -11.9299   19.1167 C   0  0  0  0  0  0  0  0  0  0  0  0
  -27.7782  -21.6513   17.3126 C   0  0  0  0  0  0  0  0  0  0  0  0
  -30.3354  -13.4231   20.6501 C   0  0  0  0  0  0  0  0  0  0  0  0
  -27.8530  -20.4126   18.1924 C   0  0  0  0  0  0  0  0  0  0  0  0
  -27.8748  -13.4810   20.7767 C   0  0  0  0  0  0  0  0  0  0  0  0
  -20.1404  -29.1151   23.3036 C   0  0  1  0  0  0  0  0  0  0  0  0
  -23.3265  -27.3933   24.4513 C   0  0  1  0  0  0  0  0  0  0  0  0
  -27.1332  -22.6936   18.2314 C   0  0  1  0  0  0  0  0  0  0  0  0
  -27.7507  -12.8037   19.4012 C   0  0  2  0  0  0  0  0  0  0  0  0
  -27.7494  -22.3715   19.6073 C   0  0  2  0  0  0  0  0  0  0  0  0
  -26.4827  -25.7691   14.2798 C   0  0  0  0  0  0  0  0  0  0  0  0
  -30.7162  -27.8352   26.7318 C   0  0  0  0  0  0  0  0  0  0  0  0
  -31.0245  -23.4348   21.4846 C   0  0  0  0  0  0  0  0  0  0  0  0
  -28.6697  -23.2506   22.3116 C   0  0  0  0  0  0  0  0  0  0  0  0
  -25.7357  -31.3221   24.1036 C   0  0  0  0  0  0  0  0  0  0  0  0
  -28.1677  -31.1499   24.6728 C   0  0  0  0  0  0  0  0  0  0  0  0
  -26.4567  -31.0898   26.4871 C   0  0  0  0  0  0  0  0  0  0  0  0
  -28.7571  -24.6617   25.9787 C   0  0  0  0  0  0  0  0  0  0  0  0
  -27.9934  -18.5560   20.2911 C   0  0  0  0  0  0  0  0  0  0  0  0
  -29.1072  -23.0335   19.8542 C   0  0  0  0  0  0  0  0  0  0  0  0
  -27.1842  -25.5778   15.6163 C   0  0  0  0  0  0  0  0  0  0  0  0
  -26.6849  -24.3208   16.3330 C   0  0  0  0  0  0  0  0  0  0  0  0
  -28.0578  -17.7300   21.5595 C   0  0  0  0  0  0  0  0  0  0  0  0
  -26.6958  -25.1176   18.7164 C   0  0  0  0  0  0  0  0  0  1  0  0
  -26.7145  -29.0916   24.9597 C   0  0  1  0  0  0  0  0  0  0  0  0
  -29.4669  -26.9966   26.5106 C   0  0  2  0  0  0  0  0  0  0  0  0
  -27.3083  -24.1165   17.7267 C   0  0  1  0  0  0  0  0  0  0  0  0
  -29.6684  -22.7651   21.2583 C   0  0  0  0  0  0  0  0  0  0  0  0
  -26.7562  -30.6438   25.0393 C   0  0  0  0  0  0  0  0  0  0  0  0
  -25.9455  -11.4257   20.3630 N   0  0  0  0  0  0  0  0  0  0  0  0
  -26.4631  -12.0114   19.2698 N   0  0  0  0  0  0  0  0  0  0  0  0
  -24.7258  -27.7874   24.2756 N   0  0  0  0  0  0  0  0  0  0  0  0
  -27.8822  -20.9054   19.5644 N   0  0  0  0  0  0  0  0  0  0  0  0
  -29.1348  -14.2365   20.8571 N   0  0  0  0  0  0  0  0  0  0  0  0
  -26.1087  -12.3269   16.9491 N   0  0  0  0  0  0  0  0  0  0  0  0
  -22.5922   -9.7861   18.2041 N   0  0  0  0  0  0  0  0  0  0  0  0
  -21.1274  -28.2341   23.8902 N   0  0  0  0  0  0  0  0  0  0  0  0
  -27.6516  -28.4219   25.8552 N   0  0  0  0  0  0  0  0  0  0  0  0
  -28.0821  -16.3091   21.2929 N   0  0  0  0  0  0  0  0  0  0  0  0
  -29.8868  -25.6015   26.1971 N   0  3  0  0  0  0  0  0  0  0  0  0
  -23.5981  -10.8242   16.4239 O   0  0  0  0  0  0  0  0  0  0  0  0
  -23.0371  -29.3418   23.1496 O   0  0  0  0  0  0  0  0  0  0  0  0
  -27.9709  -20.3815   21.8114 O   0  0  0  0  0  0  0  0  0  0  0  0
  -24.8571  -28.7502   26.3950 O   0  0  0  0  0  0  0  0  0  0  0  0
  -28.7952  -27.2617   24.2050 O   0  0  0  0  0  0  0  0  0  0  0  0
  -30.3680  -16.1743   21.1769 O   0  0  0  0  0  0  0  0  0  0  0  0
  -21.5481   -7.9164   23.3462 O   0  0  0  0  0  0  0  0  0  0  0  0
  -25.3028  -24.8541   18.8796 O   0  0  0  0  0  0  0  0  0  1  0  0
  -21.7540   -2.4143   23.0477 F   0  0  0  0  0  0  0  0  0  0  0  0
  -22.2823   -6.4034   25.5404 F   0  0  0  0  0  0  0  0  0  0  0  0
  1  2  1  0  0  0  0
  1  5  2  0  0  0  0
  2  6  2  0  0  0  0
  3  8  2  0  0  0  0
  3 15  1  0  0  0  0
  4  9  1  0  0  0  0
  4 15  2  0  0  0  0
  5 17  1  0  0  0  0
  6 19  1  0  0  0  0
  7 10  2  0  0  0  0
  7 18  1  0  0  0  0
  8 21  1  0  0  0  0
  9 21  2  0  0  0  0
 10 22  1  0  0  0  0
 11 12  2  0  0  0  0
 11 23  1  0  0  0  0
 12 24  1  0  0  0  0
 13 20  1  0  0  0  0
 13 22  2  0  0  0  0
 14 24  2  0  0  0  0
 14 25  1  0  0  0  0
 15 26  1  0  0  0  0
 16 26  1  0  0  0  0
 16 27  2  0  0  0  0
 16 28  1  0  0  0  0
 17 19  2  0  0  0  0
 17 34  1  0  0  0  0
 18 20  2  0  0  0  0
 18 35  1  0  0  0  0
 19 45  1  0  0  0  0
 20 36  1  0  0  0  0
 21 86  1  0  0  0  0
 22 87  1  0  0  0  0
 23 25  2  0  0  0  0
 23 86  1  0  0  0  0
 24 88  1  0  0  0  0
 25 89  1  0  0  0  0
 26 69  2  0  0  0  0
 27 70  1  0  0  0  0
 27 74  1  0  0  0  0
 28 75  1  0  0  0  0
 28 80  2  0  0  0  0
 29 46  1  0  0  0  0
 29 76  1  0  0  0  0
 29 81  2  0  0  0  0
 30 58  1  0  0  0  0
 30 72  1  0  0  0  0
 30 82  2  0  0  0  0
 31 64  1  0  0  0  0
 31 71  1  0  0  0  0
 31 83  2  0  0  0  0
 32 65  1  0  0  0  0
 32 77  1  0  0  0  0
 32 84  2  0  0  0  0
 33 73  1  0  0  0  0
 33 78  1  0  0  0  0
 33 85  2  0  0  0  0
 34 37  1  0  0  0  0
 35 46  1  0  0  0  0
 36 71  1  0  0  0  0
 37 39  1  0  0  0  0
 38 40  1  0  0  0  0
 38 42  1  0  0  0  0
 39 45  1  0  0  0  0
 40 48  1  0  0  0  0
 41 43  1  0  0  0  0
 41 47  1  0  0  0  0
 42 73  1  0  0  0  0
 43 72  1  0  0  0  0
 44 48  1  0  0  0  0
 44 73  1  0  0  0  0
 45 76  1  0  0  0  0
 46 71  1  0  0  0  0
 47 49  1  0  0  0  0
 47 66  1  0  0  0  0
 48 70  1  0  0  0  0
 49 59  1  0  0  0  0
 49 72  1  0  0  0  0
 50 60  1  0  0  0  0
 51 65  1  0  0  0  0
 52 67  1  0  0  0  0
 53 67  1  0  0  0  0
 54 68  1  0  0  0  0
 55 68  1  0  0  0  0
 56 68  1  0  0  0  0
 57 79  1  0  0  0  0
 58 62  1  0  0  0  0
 59 67  1  0  0  0  0
 60 61  1  0  0  0  0
 61 66  1  0  0  0  0
 62 78  1  0  0  0  0
 63 66  1  0  0  0  0
 63 87  1  0  0  0  0
 64 68  1  0  0  0  0
 64 77  1  0  0  0  0
 65 79  1  0  0  0  0
 69 70  1  0  0  0  0
M  CHG  1  79   1
M  ISO  4  33 100  63 101  78 100  87 101
M  END
> <Batch ID>
0122

> <Smiles>
CCCC(C1CCN(C(=O)CC[100NH:0][100C:0](=O)N2CCCC(n3nc(-c4ccc(Oc5ccc(F)cc5F)cc4)c(C(N)=O)c3N)C2)C1CC(C)C)[101CH2:1][101O:1]c1ccc2c(c1)CN(C(=O)C(NC(=O)C(C)NC)C(C)(C)C)C(C(=O)NC1CCCc3ccccc31)C2

> <Shape>
0.289

> <Color>
0.098

> <Negative vol penalty>
0.000

$$$$

  -OEChem-04052320283D

 86 95  0     1  0  0  0  0  0999 V2000
  -20.2945  -34.1923   23.1754 C   0  0  0  0  0  0  0  0  0  0  0  0
  -21.5052  -33.7536   22.6489 C   0  0  0  0  0  0  0  0  0  0  0  0
  -26.6663  -12.8565   21.6168 C   0  0  0  0  0  0  0  0  0  0  0  0
  -26.1367  -14.2342   19.7041 C   0  0  0  0  0  0  0  0  0  0  0  0
  -19.5362  -33.3420   23.9791 C   0  0  0  0  0  0  0  0  0  0  0  0
  -21.9589  -32.4647   22.9268 C   0  0  0  0  0  0  0  0  0  0  0  0
  -25.1314  -28.7930   19.1905 C   0  0  0  0  0  0  0  0  0  0  0  0
  -25.3624  -12.3612   21.6212 C   0  0  0  0  0  0  0  0  0  0  0  0
  -24.8327  -13.7389   19.7084 C   0  0  0  0  0  0  0  0  0  0  0  0
  -26.4922  -28.5070   19.0896 C   0  0  0  0  0  0  0  0  0  0  0  0
  -23.5619  -10.0713   19.9044 C   0  0  0  0  0  0  0  0  0  0  0  0
  -23.3914   -8.6959   20.0621 C   0  0  0  0  0  0  0  0  0  0  0  0
  -26.1744  -26.5427   20.4532 C   0  0  0  0  0  0  0  0  0  0  0  0
  -30.1032  -26.0016   18.4493 C   0  0  0  0  0  0  0  0  0  0  0  0
  -22.1044   -9.0857   22.0694 C   0  0  0  0  0  0  0  0  0  0  0  0
  -28.2186  -25.0866   16.7010 C   0  0  0  0  0  0  0  0  0  0  0  0
  -27.0535  -13.7930   20.6584 C   0  0  0  0  0  0  0  0  0  0  0  0
  -29.5402  -24.7292   16.4874 C   0  0  0  0  0  0  0  0  0  0  0  0
  -29.5897  -13.5682   20.5017 C   0  0  0  0  0  0  0  0  0  0  0  0
  -19.9762  -32.0387   24.2591 C   0  0  0  0  0  0  0  0  0  0  0  0
  -24.2824  -27.9605   19.9339 C   0  0  0  0  0  0  0  0  0  0  0  0
  -21.2065  -31.5966   23.7362 C   0  0  0  0  0  0  0  0  0  0  0  0
  -24.8027  -26.8189   20.5600 C   0  0  0  0  0  0  0  0  0  0  0  0
  -30.4943  -25.1997   17.3828 C   0  0  0  0  0  0  0  0  0  0  0  0
  -24.4456  -12.8023   20.6670 C   0  0  0  0  0  0  0  0  0  0  0  0
  -27.0144  -27.3833   19.7233 C   0  0  0  0  0  0  0  0  0  0  0  0
  -23.0037  -10.9539   20.8292 C   0  0  0  0  0  0  0  0  0  0  0  0
  -22.6626   -8.2031   21.1446 C   0  0  0  0  0  0  0  0  0  0  0  0
  -22.2749  -10.4610   21.9116 C   0  0  0  0  0  0  0  0  0  0  0  0
  -28.4001  -14.3054   20.6537 C   0  0  0  0  0  0  0  0  0  0  0  0
  -28.7566  -26.3021   18.5751 C   0  0  0  0  0  0  0  0  0  1  0  0
  -30.5878  -14.5094   20.5679 C   0  0  0  0  0  0  0  0  0  0  0  0
  -29.8885  -22.5438   15.3991 C   0  0  0  0  0  0  0  0  0  0  0  0
  -29.8864  -23.8849   15.3555 C   0  0  0  0  0  0  0  0  0  0  0  0
  -29.7758  -12.1586   20.3170 C   0  0  0  0  0  0  0  0  0  0  0  0
  -22.4534  -28.3435   22.5053 C   0  0  0  0  0  0  0  0  0  0  0  0
  -21.5130  -25.3185   21.8070 C   0  0  0  0  0  0  0  0  0  0  0  0
  -22.2212  -22.3393   20.3004 C   0  0  0  0  0  0  0  0  0  0  0  0
  -30.7335  -20.3853   19.4263 C   0  0  0  0  0  0  0  0  0  0  0  0
  -19.1450  -31.1722   25.1718 C   0  0  0  0  0  0  0  0  0  0  0  0
  -22.8120  -28.2681   20.0110 C   0  0  0  0  0  0  0  0  0  0  0  0
  -23.9300  -25.8821   21.3532 C   0  0  0  0  0  0  0  0  0  0  0  0
  -30.2553  -21.7099   14.1974 C   0  0  0  0  0  0  0  0  0  0  0  0
  -19.5159  -29.6927   25.1115 C   0  0  0  0  0  0  0  0  0  0  0  0
  -31.3700  -20.7219   14.5362 C   0  0  0  0  0  0  0  0  0  0  0  0
  -31.5891  -18.7769   22.4853 C   0  0  0  0  0  0  0  0  0  0  0  0
  -21.0296  -29.5184   25.1838 C   0  0  0  0  0  0  0  0  0  0  0  0
  -30.9762  -17.3820   22.3491 C   0  0  0  0  0  0  0  0  0  0  0  0
  -31.0410  -19.8845   15.7735 C   0  0  0  0  0  0  0  0  0  0  0  0
  -30.7073  -19.8460   21.8439 C   0  0  0  0  0  0  0  0  0  0  0  0
  -29.7279  -18.1906   20.3030 C   0  0  0  0  0  0  0  0  0  0  0  0
  -21.7204  -30.1969   23.9947 C   0  0  1  0  0  0  0  0  0  0  0  0
  -29.5606  -21.7788   16.6693 C   0  0  2  0  0  0  0  0  0  0  0  0
  -22.1315  -27.6343   21.2203 C   0  0  1  0  0  0  0  0  0  0  0  0
  -30.6081  -17.0718   20.8857 C   0  0  2  0  0  0  0  0  0  0  0  0
  -30.6990  -20.7767   16.9758 C   0  0  1  0  0  0  0  0  0  0  0  0
  -31.9423  -24.8638   17.2294 C   0  0  0  0  0  0  0  0  0  0  0  0
  -28.1773  -21.1241   16.5563 C   0  0  0  0  0  0  0  0  0  0  0  0
  -21.2760  -20.0439   19.9331 C   0  0  0  0  0  0  0  0  0  0  0  0
  -22.2279  -24.5675   24.6766 C   0  0  0  0  0  0  0  0  0  0  0  0
  -22.1781  -22.1616   23.9856 C   0  0  0  0  0  0  0  0  0  0  0  0
  -20.1088  -23.5458   23.8279 C   0  0  0  0  0  0  0  0  0  0  0  0
  -22.1932  -22.6947   17.3624 C   0  0  0  0  0  0  0  0  0  0  0  0
  -21.9898  -23.9368   22.1843 C   0  0  1  0  0  0  0  0  0  0  0  0
  -21.3989  -21.4553   19.3803 C   0  0  2  0  0  0  0  0  0  0  0  0
  -21.6432  -23.5715   23.6553 C   0  0  0  0  0  0  0  0  0  0  0  0
  -27.8008  -25.8636   17.7255 N   0  0  0  0  0  0  0  0  0  0  0  0
  -28.6204  -15.6141   20.8053 N   0  0  0  0  0  0  0  0  0  0  0  0
  -29.9599  -15.7065   20.7489 N   0  0  0  0  0  0  0  0  0  0  0  0
  -22.5002  -26.2291   21.4043 N   0  0  0  0  0  0  0  0  0  0  0  0
  -30.3961  -19.4924   20.4568 N   0  0  0  0  0  0  0  0  0  0  0  0
  -31.9326  -14.4215   20.4885 N   0  0  0  0  0  0  0  0  0  0  0  0
  -29.8006  -11.6535   19.0099 N   0  0  0  0  0  0  0  0  0  0  0  0
  -21.5936  -29.3830   22.8048 N   0  0  0  0  0  0  0  0  0  0  0  0
  -21.4263  -23.0259   21.1938 N   0  0  0  0  0  0  0  0  0  0  0  0
  -30.4094  -19.9702   18.1405 N   0  0  0  0  0  0  0  0  0  0  0  0
  -22.0319  -21.3790   18.0333 N   0  3  0  0  0  0  0  0  0  0  0  0
  -29.8996  -11.3681   21.2831 O   0  0  0  0  0  0  0  0  0  0  0  0
  -23.4100  -27.9740   23.1761 O   0  0  0  0  0  0  0  0  0  0  0  0
  -20.3083  -25.5782   21.8605 O   0  0  0  0  0  0  0  0  0  0  0  0
  -23.4464  -22.4107   20.2358 O   0  0  0  0  0  0  0  0  0  0  0  0
  -31.2878  -21.4696   19.6361 O   0  0  0  0  0  0  0  0  0  0  0  0
  -23.1732  -12.3191   20.6708 O   0  0  0  0  0  0  0  0  0  0  0  0
  -28.3424  -27.1022   19.6269 O   0  0  0  0  0  0  0  0  0  1  0  0
  -22.4977   -6.8824   21.2951 F   0  0  0  0  0  0  0  0  0  0  0  0
  -21.7353  -11.3041   22.8027 F   0  0  0  0  0  0  0  0  0  0  0  0
  1  2  1  0  0  0  0
  1  5  2  0  0  0  0
  2  6  2  0  0  0  0
  3  8  2  0  0  0  0
  3 17  1  0  0  0  0
  4  9  1  0  0  0  0
  4 17  2  0  0  0  0
  5 20  1  0  0  0  0
  6 22  1  0  0  0  0
  7 10  2  0  0  0  0
  7 21  1  0  0  0  0
  8 25  1  0  0  0  0
  9 25  2  0  0  0  0
 10 26  1  0  0  0  0
 11 12  2  0  0  0  0
 11 27  1  0  0  0  0
 12 28  1  0  0  0  0
 13 23  1  0  0  0  0
 13 26  2  0  0  0  0
 14 24  2  0  0  0  0
 14 31  1  0  0  0  0
 15 28  2  0  0  0  0
 15 29  1  0  0  0  0
 16 18  2  0  0  0  0
 16 67  1  0  0  0  0
 17 30  1  0  0  0  0
 18 24  1  0  0  0  0
 18 34  1  0  0  0  0
 19 30  1  0  0  0  0
 19 32  2  0  0  0  0
 19 35  1  0  0  0  0
 20 22  2  0  0  0  0
 20 40  1  0  0  0  0
 21 23  2  0  0  0  0
 21 41  1  0  0  0  0
 22 52  1  0  0  0  0
 23 42  1  0  0  0  0
 24 57  1  0  0  0  0
 25 83  1  0  0  0  0
 26 84  1  0  0  0  0
 27 29  2  0  0  0  0
 27 83  1  0  0  0  0
 28 85  1  0  0  0  0
 29 86  1  0  0  0  0
 30 68  2  0  0  0  0
 31 67  2  0  0  0  0
 31 84  1  0  0  0  0
 32 69  1  0  0  0  0
 32 72  1  0  0  0  0
 33 34  2  0  0  0  0
 33 43  1  0  0  0  0
 33 53  1  0  0  0  0
 35 73  1  0  0  0  0
 35 78  2  0  0  0  0
 36 54  1  0  0  0  0
 36 74  1  0  0  0  0
 36 79  2  0  0  0  0
 37 64  1  0  0  0  0
 37 70  1  0  0  0  0
 37 80  2  0  0  0  0
 38 65  1  0  0  0  0
 38 75  1  0  0  0  0
 38 81  2  0  0  0  0
 39 71  1  0  0  0  0
 39 76  1  0  0  0  0
 39 82  2  0  0  0  0
 40 44  1  0  0  0  0
 41 54  1  0  0  0  0
 42 70  1  0  0  0  0
 43 45  1  0  0  0  0
 44 47  1  0  0  0  0
 45 49  1  0  0  0  0
 46 48  1  0  0  0  0
 46 50  1  0  0  0  0
 47 52  1  0  0  0  0
 48 55  1  0  0  0  0
 49 56  1  0  0  0  0
 50 71  1  0  0  0  0
 51 55  1  0  0  0  0
 51 71  1  0  0  0  0
 52 74  1  0  0  0  0
 53 56  1  0  0  0  0
 53 58  1  0  0  0  0
 54 70  1  0  0  0  0
 55 69  1  0  0  0  0
 56 76  1  0  0  0  0
 59 65  1  0  0  0  0
 60 66  1  0  0  0  0
 61 66  1  0  0  0  0
 62 66  1  0  0  0  0
 63 77  1  0  0  0  0
 64 66  1  0  0  0  0
 64 75  1  0  0  0  0
 65 77  1  0  0  0  0
 68 69  1  0  0  0  0
M  CHG  1  77   1
M  ISO  4  31 101  39 100  76 100  84 101
M  END
> <Batch ID>
0122

> <Smiles>
CNC(C)C(=O)NC(C(=O)N1Cc2cc([101O:1][101c:1]3cc(C)c(C=C4CCCC([100NH:0][100C:0](=O)N5CCCC(n6nc(-c7ccc(Oc8ccc(F)cc8F)cc7)c(C(N)=O)c6N)C5)C4C)cn3)ccc2CC1C(=O)NC1CCCc2ccccc21)C(C)(C)C

> <Shape>
0.236

> <Color>
0.090

> <Negative vol penalty>
0.000

$$$$

  -OEChem-04052320283D

 89 98  0     1  0  0  0  0  0999 V2000
  -27.8660  -31.7060   21.1803 C   0  0  0  0  0  0  0  0  0  0  0  0
  -27.7178  -30.3527   20.8940 C   0  0  0  0  0  0  0  0  0  0  0  0
  -23.0768   -9.8634   19.9470 C   0  0  0  0  0  0  0  0  0  0  0  0
  -23.8383   -9.8796   22.2398 C   0  0  0  0  0  0  0  0  0  0  0  0
  -29.1333  -32.2290   21.4339 C   0  0  0  0  0  0  0  0  0  0  0  0
  -28.8371  -29.5218   20.8600 C   0  0  0  0  0  0  0  0  0  0  0  0
  -28.0753  -25.1367   23.2759 C   0  0  0  0  0  0  0  0  0  0  0  0
  -22.3348   -8.7101   20.2016 C   0  0  0  0  0  0  0  0  0  0  0  0
  -23.0962   -8.7263   22.4944 C   0  0  0  0  0  0  0  0  0  0  0  0
  -27.3391  -24.1604   22.6061 C   0  0  0  0  0  0  0  0  0  0  0  0
  -19.8696   -7.9262   23.1021 C   0  0  0  0  0  0  0  0  0  0  0  0
  -19.1136   -7.8893   24.2737 C   0  0  0  0  0  0  0  0  0  0  0  0
  -29.3879  -23.0427   21.9959 C   0  0  0  0  0  0  0  0  0  0  0  0
  -29.8441  -19.9911   19.9078 C   0  0  0  0  0  0  0  0  0  0  0  0
  -20.3582   -5.9562   25.0161 C   0  0  0  0  0  0  0  0  0  0  0  0
  -28.9247  -18.5358   22.0250 C   0  0  0  0  0  0  0  0  0  0  0  0
  -23.8287  -10.4482   20.9661 C   0  0  0  0  0  0  0  0  0  0  0  0
  -24.1669  -12.9733   20.8369 C   0  0  0  0  0  0  0  0  0  0  0  0
  -30.2675  -31.4022   21.4126 C   0  0  0  0  0  0  0  0  0  0  0  0
  -29.4762  -25.0793   23.3014 C   0  0  0  0  0  0  0  0  0  0  0  0
  -30.1209  -30.0345   21.1123 C   0  0  0  0  0  0  0  0  0  0  0  0
  -30.1395  -24.0182   22.6688 C   0  0  0  0  0  0  0  0  0  0  0  0
  -30.5493  -18.8657   20.3196 C   0  0  0  0  0  0  0  0  0  0  0  0
  -30.0875  -18.1187   21.3975 C   0  0  0  0  0  0  0  0  0  0  0  0
  -22.3444   -8.1416   21.4753 C   0  0  0  0  0  0  0  0  0  0  0  0
  -27.9955  -23.1147   21.9636 C   0  0  0  0  0  0  0  0  0  0  0  0
  -20.8699   -6.9780   22.8874 C   0  0  0  0  0  0  0  0  0  0  0  0
  -19.3578   -6.9044   25.2307 C   0  0  0  0  0  0  0  0  0  0  0  0
  -21.1142   -5.9931   23.8445 C   0  0  0  0  0  0  0  0  0  0  0  0
  -24.5959  -11.6392   20.7036 C   0  0  0  0  0  0  0  0  0  0  0  0
  -28.6921  -20.3243   20.6019 C   0  0  0  0  0  0  0  0  0  0  0  0
  -25.2577  -13.7231   20.4702 C   0  0  0  0  0  0  0  0  0  0  0  0
  -22.8960  -13.4889   21.2549 C   0  0  0  0  0  0  0  0  0  0  0  0
  -31.8176  -26.9579   22.2563 C   0  0  0  0  0  0  0  0  0  0  0  0
  -34.1771  -18.1152   20.2031 C   0  0  0  0  0  0  0  0  0  0  0  0
  -33.6986  -24.8233   23.8145 C   0  0  0  0  0  0  0  0  0  0  0  0
  -34.0883  -21.6663   25.0505 C   0  0  0  0  0  0  0  0  0  0  0  0
  -30.7402  -14.7504   20.6510 C   0  0  0  0  0  0  0  0  0  0  0  0
  -31.6223  -32.0223   21.6466 C   0  0  0  0  0  0  0  0  0  0  0  0
  -30.2546  -26.1257   24.0508 C   0  0  0  0  0  0  0  0  0  0  0  0
  -31.6409  -23.8998   22.6840 C   0  0  0  0  0  0  0  0  0  0  0  0
  -32.7133  -31.0016   21.9601 C   0  0  0  0  0  0  0  0  0  0  0  0
  -29.6042  -12.3559   18.2735 C   0  0  0  0  0  0  0  0  0  0  0  0
  -35.6784  -17.1239   22.8992 C   0  0  0  0  0  0  0  0  0  0  0  0
  -32.6484  -29.8332   20.9817 C   0  0  0  0  0  0  0  0  0  0  0  0
  -34.9933  -18.4346   22.5517 C   0  0  0  0  0  0  0  0  0  0  0  0
  -28.1675  -12.0617   18.7085 C   0  0  0  0  0  0  0  0  0  0  0  0
  -30.5219  -12.5822   19.4729 C   0  0  0  0  0  0  0  0  0  0  0  0
  -28.6201  -13.3156   20.8583 C   0  0  0  0  0  0  0  0  0  0  0  0
  -36.9596  -17.1868   22.0982 C   0  0  0  0  0  0  0  0  0  0  0  0
  -31.3081  -29.0962   21.0907 C   0  0  1  0  0  0  0  0  0  0  0  0
  -31.6991  -26.2498   23.5763 C   0  0  1  0  0  0  0  0  0  0  0  0
  -35.2804  -18.6276   21.0689 C   0  0  1  0  0  0  0  0  0  0  0  0
  -27.6453  -13.1354   19.6820 C   0  0  2  0  0  0  0  0  0  0  0  0
  -26.8214  -21.2017   19.1618 C   0  0  0  0  0  0  0  0  0  0  0  0
  -35.7487  -20.2068   26.2381 C   0  0  0  0  0  0  0  0  0  0  0  0
  -35.2686  -24.5009   21.2181 C   0  0  0  0  0  0  0  0  0  0  0  0
  -36.2585  -22.4025   22.1588 C   0  0  0  0  0  0  0  0  0  0  0  0
  -36.6755  -24.5896   23.2838 C   0  0  0  0  0  0  0  0  0  0  0  0
  -32.2773  -21.2866   27.3603 C   0  0  0  0  0  0  0  0  0  0  0  0
  -31.7944  -18.4795   19.5923 C   0  0  0  0  0  0  0  0  0  0  0  0
  -30.8039  -16.9055   21.8802 C   0  0  0  0  0  0  0  0  0  0  0  0
  -27.9000  -21.5415   20.1827 C   0  0  1  0  0  0  0  0  0  1  0  0
  -34.3848  -23.5314   23.4418 C   0  0  1  0  0  0  0  0  0  0  0  0
  -34.5786  -21.1651   26.3969 C   0  0  2  0  0  0  0  0  0  0  0  0
  -35.6186  -23.7591   22.5235 C   0  0  0  0  0  0  0  0  0  0  0  0
  -28.2126  -19.6233   21.6537 N   0  0  0  0  0  0  0  0  0  0  0  0
  -25.8606  -11.5436   20.2847 N   0  0  0  0  0  0  0  0  0  0  0  0
  -26.2356  -12.8273   20.1516 N   0  0  0  0  0  0  0  0  0  0  0  0
  -32.3579  -24.9509   23.4246 N   0  0  0  0  0  0  0  0  0  0  0  0
  -29.9705  -13.6131   20.3556 N   0  0  0  0  0  0  0  0  0  0  0  0
  -25.4662  -15.0545   20.3923 N   0  0  0  0  0  0  0  0  0  0  0  0
  -21.8856  -12.5795   21.5961 N   0  0  0  0  0  0  0  0  0  0  0  0
  -31.2966  -28.2377   22.2557 N   0  0  0  0  0  0  0  0  0  0  0  0
  -32.9846  -18.8063   20.3350 N   0  0  0  0  0  0  0  0  0  0  0  0
  -34.6914  -22.8550   24.6976 N   0  0  0  0  0  0  0  0  0  0  0  0
  -30.1403  -15.6814   21.4901 N   0  0  0  0  0  0  0  0  0  0  0  0
  -36.5407  -17.8412   20.8165 N   0  3  0  0  0  0  0  0  0  0  0  0
  -33.4832  -20.4543   27.1152 N   0  3  0  0  0  0  0  0  0  0  0  0
  -22.6580  -14.7193   21.3080 O   0  0  0  0  0  0  0  0  0  0  0  0
  -32.3442  -26.3860   21.3091 O   0  0  0  0  0  0  0  0  0  0  0  0
  -34.3837  -17.1610   19.4625 O   0  0  0  0  0  0  0  0  0  0  0  0
  -34.3268  -25.6846   24.4351 O   0  0  0  0  0  0  0  0  0  0  0  0
  -33.2566  -21.0617   24.3773 O   0  0  0  0  0  0  0  0  0  0  0  0
  -31.8755  -14.9259   20.1959 O   0  0  0  0  0  0  0  0  0  0  0  0
  -21.6202   -7.0164   21.7241 O   0  0  0  0  0  0  0  0  0  0  0  0
  -27.2794  -22.1608   21.3086 O   0  0  0  0  0  0  0  0  0  1  0  0
  -18.6328   -6.8701   26.3564 F   0  0  0  0  0  0  0  0  0  0  0  0
  -22.0747   -5.0802   23.6444 F   0  0  0  0  0  0  0  0  0  0  0  0
  1  2  1  0  0  0  0
  1  5  2  0  0  0  0
  2  6  2  0  0  0  0
  3  8  2  0  0  0  0
  3 17  1  0  0  0  0
  4  9  1  0  0  0  0
  4 17  2  0  0  0  0
  5 19  1  0  0  0  0
  6 21  1  0  0  0  0
  7 10  2  0  0  0  0
  7 20  1  0  0  0  0
  8 25  1  0  0  0  0
  9 25  2  0  0  0  0
 10 26  1  0  0  0  0
 11 12  2  0  0  0  0
 11 27  1  0  0  0  0
 12 28  1  0  0  0  0
 13 22  1  0  0  0  0
 13 26  2  0  0  0  0
 14 23  2  0  0  0  0
 14 31  1  0  0  0  0
 15 28  2  0  0  0  0
 15 29  1  0  0  0  0
 16 24  2  0  0  0  0
 16 67  1  0  0  0  0
 17 30  1  0  0  0  0
 18 30  1  0  0  0  0
 18 32  2  0  0  0  0
 18 33  1  0  0  0  0
 19 21  2  0  0  0  0
 19 39  1  0  0  0  0
 20 22  2  0  0  0  0
 20 40  1  0  0  0  0
 21 51  1  0  0  0  0
 22 41  1  0  0  0  0
 23 24  1  0  0  0  0
 23 61  1  0  0  0  0
 24 62  1  0  0  0  0
 25 86  1  0  0  0  0
 26 87  1  0  0  0  0
 27 29  2  0  0  0  0
 27 86  1  0  0  0  0
 28 88  1  0  0  0  0
 29 89  1  0  0  0  0
 30 68  2  0  0  0  0
 31 63  1  0  0  0  0
 31 67  2  0  0  0  0
 32 69  1  0  0  0  0
 32 72  1  0  0  0  0
 33 73  1  0  0  0  0
 33 80  2  0  0  0  0
 34 52  1  0  0  0  0
 34 74  1  0  0  0  0
 34 81  2  0  0  0  0
 35 53  1  0  0  0  0
 35 75  1  0  0  0  0
 35 82  2  0  0  0  0
 36 64  1  0  0  0  0
 36 70  1  0  0  0  0
 36 83  2  0  0  0  0
 37 65  1  0  0  0  0
 37 76  1  0  0  0  0
 37 84  2  0  0  0  0
 38 71  1  0  0  0  0
 38 77  1  0  0  0  0
 38 85  2  0  0  0  0
 39 42  1  0  0  0  0
 40 52  1  0  0  0  0
 41 70  1  0  0  0  0
 42 45  1  0  0  0  0
 43 47  1  0  0  0  0
 43 48  1  0  0  0  0
 44 46  1  0  0  0  0
 44 50  1  0  0  0  0
 45 51  1  0  0  0  0
 46 53  1  0  0  0  0
 47 54  1  0  0  0  0
 48 71  1  0  0  0  0
 49 54  1  0  0  0  0
 49 71  1  0  0  0  0
 50 78  1  0  0  0  0
 51 74  1  0  0  0  0
 52 70  1  0  0  0  0
 53 78  1  0  0  0  0
 54 69  1  0  0  0  0
 55 63  1  0  0  0  0
 56 65  1  0  0  0  0
 57 66  1  0  0  0  0
 58 66  1  0  0  0  0
 59 66  1  0  0  0  0
 60 79  1  0  0  0  0
 61 75  1  0  0  0  0
 62 77  1  0  0  0  0
 63 87  1  0  0  0  0
 64 66  1  0  0  0  0
 64 76  1  0  0  0  0
 65 79  1  0  0  0  0
 68 69  1  0  0  0  0
M  CHG  2  78   1  79   1
M  ISO  4  38 100  63 101  77 100  87 101
M  END
> <Batch ID>
0122

> <Smiles>
CNC(C)C(=O)NC(C(=O)N1Cc2cc([101O:1][101CH:1](C)c3cc(CNC(=O)C4CCCN4)c(C[100NH:0][100C:0](=O)N4CCCC(n5nc(-c6ccc(Oc7ccc(F)cc7F)cc6)c(C(N)=O)c5N)C4)cn3)ccc2CC1C(=O)NC1CCCc2ccccc21)C(C)(C)C

> <Shape>
0.220

> <Color>
0.177

> <Negative vol penalty>
0.000

$$$$

  -OEChem-04052320283D

 82 90  0     1  0  0  0  0  0999 V2000
  -20.9909  -11.3679   24.6059 C   0  0  0  0  0  0  0  0  0  0  0  0
  -22.3479  -11.6591   24.7015 C   0  0  0  0  0  0  0  0  0  0  0  0
  -21.4105  -28.2450   20.0207 C   0  0  0  0  0  0  0  0  0  0  0  0
  -21.8612  -26.9601   22.0164 C   0  0  0  0  0  0  0  0  0  0  0  0
  -20.2780  -11.7397   23.4669 C   0  0  0  0  0  0  0  0  0  0  0  0
  -22.9930  -12.3214   23.6577 C   0  0  0  0  0  0  0  0  0  0  0  0
  -28.2773  -17.0008   22.4345 C   0  0  0  0  0  0  0  0  0  0  0  0
  -20.1468  -27.6615   19.9304 C   0  0  0  0  0  0  0  0  0  0  0  0
  -20.5975  -26.3766   21.9262 C   0  0  0  0  0  0  0  0  0  0  0  0
  -29.4304  -17.1462   21.6643 C   0  0  0  0  0  0  0  0  0  0  0  0
  -17.4073  -27.2230   22.6521 C   0  0  0  0  0  0  0  0  0  0  0  0
  -16.6522  -27.1321   23.8213 C   0  0  0  0  0  0  0  0  0  0  0  0
  -28.3098  -21.4793   19.7949 C   0  0  0  0  0  0  0  0  0  0  0  0
  -28.0801  -17.8105   19.7790 C   0  0  0  0  0  0  0  0  0  0  0  0
  -16.5958  -24.7271   23.5978 C   0  0  0  0  0  0  0  0  0  0  0  0
  -28.1596  -22.2391   20.9340 C   0  0  0  0  0  0  0  0  0  0  0  0
  -30.3469  -21.8264   20.6890 C   0  0  0  0  0  0  0  0  0  0  0  0
  -22.2677  -27.8943   21.0637 C   0  0  0  0  0  0  0  0  0  0  0  0
  -23.9178  -29.6780   21.8404 C   0  0  0  0  0  0  0  0  0  0  0  0
  -20.9125  -12.4155   22.4126 C   0  0  0  0  0  0  0  0  0  0  0  0
  -27.0141  -17.2490   21.8786 C   0  0  0  0  0  0  0  0  0  0  0  0
  -22.2882  -12.7014   22.5029 C   0  0  0  0  0  0  0  0  0  0  0  0
  -26.9127  -17.6699   20.5449 C   0  0  0  0  0  0  0  0  0  0  0  0
  -29.6936  -21.2183   19.6398 C   0  0  0  0  0  0  0  0  0  0  0  0
  -19.7403  -26.7273   20.8831 C   0  0  0  0  0  0  0  0  0  0  0  0
  -29.3317  -17.5483   20.3356 C   0  0  0  0  0  0  0  0  0  0  0  0
  -17.7567  -26.0660   21.9557 C   0  0  0  0  0  0  0  0  0  0  0  0
  -16.2464  -25.8841   24.2942 C   0  0  0  0  0  0  0  0  0  0  0  0
  -17.3510  -24.8180   22.4286 C   0  0  0  0  0  0  0  0  0  0  0  0
  -23.5735  -28.4963   21.1572 C   0  0  0  0  0  0  0  0  0  0  0  0
  -25.2673  -29.8176   21.6265 C   0  0  0  0  0  0  0  0  0  0  0  0
  -23.0916  -30.5698   22.6006 C   0  0  0  0  0  0  0  0  0  0  0  0
  -24.4092  -15.5028   21.3599 C   0  0  0  0  0  0  0  0  0  0  0  0
  -23.1506  -18.3541   20.4608 C   0  0  0  0  0  0  0  0  0  0  0  0
  -23.6827  -21.5189   19.2998 C   0  0  0  0  0  0  0  0  0  0  0  0
  -29.6215  -25.9061   20.3644 C   0  0  0  0  0  0  0  0  0  0  0  0
  -20.1108  -12.7552   21.1812 C   0  0  0  0  0  0  0  0  0  0  0  0
  -25.7818  -17.1133   22.7303 C   0  0  0  0  0  0  0  0  0  0  0  0
  -25.5816  -17.9685   19.9066 C   0  0  0  0  0  0  0  0  0  0  0  0
  -20.7855  -13.7865   20.2804 C   0  0  0  0  0  0  0  0  0  0  0  0
  -28.6841  -28.7576   18.4496 C   0  0  0  0  0  0  0  0  0  0  0  0
  -22.2548  -13.4334   20.0721 C   0  0  0  0  0  0  0  0  0  0  0  0
  -27.2991  -29.1206   18.9880 C   0  0  0  0  0  0  0  0  0  0  0  0
  -28.8962  -27.2458   18.4111 C   0  0  0  0  0  0  0  0  0  0  0  0
  -27.2640  -26.9160   20.2279 C   0  0  0  0  0  0  0  0  0  0  0  0
  -23.0179  -13.4405   21.4022 C   0  0  1  0  0  0  0  0  0  0  0  0
  -24.5118  -16.8959   21.9135 C   0  0  1  0  0  0  0  0  0  0  0  0
  -27.0240  -28.4315   20.3381 C   0  0  2  0  0  0  0  0  0  0  0  0
  -23.1378  -23.8733   18.6236 C   0  0  0  0  0  0  0  0  0  0  0  0
  -32.7265  -17.9040   20.3276 C   0  0  0  0  0  0  0  0  0  0  0  0
  -22.3425  -17.0275   17.8346 C   0  0  0  0  0  0  0  0  0  0  0  0
  -22.0056  -19.3112   16.8653 C   0  0  0  0  0  0  0  0  0  0  0  0
  -20.6210  -18.5629   18.8007 C   0  0  0  0  0  0  0  0  0  0  0  0
  -24.0786  -22.5250   22.0548 C   0  0  0  0  0  0  0  0  0  0  0  0
  -30.3346  -20.4229   18.5308 C   0  0  0  0  0  0  0  0  0  0  0  0
  -31.6260  -19.7055   18.9499 C   0  0  0  0  0  0  0  0  0  0  0  0
  -29.6806  -23.1940   22.6730 C   0  0  0  0  0  0  0  0  0  0  0  0
  -30.2052  -24.5998   22.3923 C   0  0  0  0  0  0  0  0  0  0  0  0
  -23.0599  -19.1214   19.1639 C   0  0  1  0  0  0  0  0  0  0  0  0
  -23.1503  -22.8637   19.7608 C   0  0  2  0  0  0  0  0  0  0  0  0
  -31.4242  -18.6368   20.0313 C   0  0  1  0  0  0  0  0  0  1  0  0
  -22.0324  -18.4983   18.1773 C   0  0  0  0  0  0  0  0  0  0  0  0
  -24.6198  -27.9258   20.5541 N   0  0  0  0  0  0  0  0  0  0  0  0
  -29.4044  -22.4436   21.4694 N   0  0  0  0  0  0  0  0  0  0  0  0
  -25.6349  -28.7526   20.8577 N   0  0  0  0  0  0  0  0  0  0  0  0
  -24.4054  -17.8152   20.7787 N   0  0  0  0  0  0  0  0  0  0  0  0
  -28.6206  -26.6537   19.7224 N   0  0  0  0  0  0  0  0  0  0  0  0
  -26.1635  -30.7461   22.0227 N   0  0  0  0  0  0  0  0  0  0  0  0
  -21.7261  -30.2773   22.7199 N   0  0  0  0  0  0  0  0  0  0  0  0
  -23.3094  -14.7980   21.8105 N   0  0  0  0  0  0  0  0  0  0  0  0
  -22.7759  -20.5054   19.5274 N   0  0  0  0  0  0  0  0  0  0  0  0
  -29.2798  -25.3855   21.6066 N   0  0  0  0  0  0  0  0  0  0  0  0
  -23.9962  -23.4060   20.8614 N   0  3  0  0  0  0  0  0  0  0  0  0
  -23.5476  -31.6044   23.1440 O   0  0  0  0  0  0  0  0  0  0  0  0
  -25.2637  -15.0979   20.5805 O   0  0  0  0  0  0  0  0  0  0  0  0
  -22.1470  -18.2433   21.1693 O   0  0  0  0  0  0  0  0  0  0  0  0
  -24.7905  -21.3818   18.7856 O   0  0  0  0  0  0  0  0  0  0  0  0
  -30.7386  -25.7210   19.8699 O   0  0  0  0  0  0  0  0  0  0  0  0
  -18.5071  -26.1579   20.7955 O   0  0  0  0  0  0  0  0  0  0  0  0
  -30.4555  -17.6904   19.5814 O   0  0  0  0  0  0  0  0  0  1  0  0
  -15.5226  -25.7968   25.4178 F   0  0  0  0  0  0  0  0  0  0  0  0
  -17.6846  -23.7029   21.7645 F   0  0  0  0  0  0  0  0  0  0  0  0
  1  2  1  0  0  0  0
  1  5  2  0  0  0  0
  2  6  2  0  0  0  0
  3  8  2  0  0  0  0
  3 18  1  0  0  0  0
  4  9  1  0  0  0  0
  4 18  2  0  0  0  0
  5 20  1  0  0  0  0
  6 22  1  0  0  0  0
  7 10  2  0  0  0  0
  7 21  1  0  0  0  0
  8 25  1  0  0  0  0
  9 25  2  0  0  0  0
 10 26  1  0  0  0  0
 11 12  2  0  0  0  0
 11 27  1  0  0  0  0
 12 28  1  0  0  0  0
 13 16  2  0  0  0  0
 13 24  1  0  0  0  0
 14 23  1  0  0  0  0
 14 26  2  0  0  0  0
 15 28  2  0  0  0  0
 15 29  1  0  0  0  0
 16 64  1  0  0  0  0
 17 24  2  0  0  0  0
 17 64  1  0  0  0  0
 18 30  1  0  0  0  0
 19 30  1  0  0  0  0
 19 31  2  0  0  0  0
 19 32  1  0  0  0  0
 20 22  2  0  0  0  0
 20 37  1  0  0  0  0
 21 23  2  0  0  0  0
 21 38  1  0  0  0  0
 22 46  1  0  0  0  0
 23 39  1  0  0  0  0
 24 55  1  0  0  0  0
 25 79  1  0  0  0  0
 26 80  1  0  0  0  0
 27 29  2  0  0  0  0
 27 79  1  0  0  0  0
 28 81  1  0  0  0  0
 29 82  1  0  0  0  0
 30 63  2  0  0  0  0
 31 65  1  0  0  0  0
 31 68  1  0  0  0  0
 32 69  1  0  0  0  0
 32 74  2  0  0  0  0
 33 47  1  0  0  0  0
 33 70  1  0  0  0  0
 33 75  2  0  0  0  0
 34 59  1  0  0  0  0
 34 66  1  0  0  0  0
 34 76  2  0  0  0  0
 35 60  1  0  0  0  0
 35 71  1  0  0  0  0
 35 77  2  0  0  0  0
 36 67  1  0  0  0  0
 36 72  1  0  0  0  0
 36 78  2  0  0  0  0
 37 40  1  0  0  0  0
 38 47  1  0  0  0  0
 39 66  1  0  0  0  0
 40 42  1  0  0  0  0
 41 43  1  0  0  0  0
 41 44  1  0  0  0  0
 42 46  1  0  0  0  0
 43 48  1  0  0  0  0
 44 67  1  0  0  0  0
 45 48  1  0  0  0  0
 45 67  1  0  0  0  0
 46 70  1  0  0  0  0
 47 66  1  0  0  0  0
 48 65  1  0  0  0  0
 49 60  1  0  0  0  0
 50 61  1  0  0  0  0
 51 62  1  0  0  0  0
 52 62  1  0  0  0  0
 53 62  1  0  0  0  0
 54 73  1  0  0  0  0
 55 56  1  0  0  0  0
 56 61  1  0  0  0  0
 57 58  1  0  0  0  0
 57 64  1  0  0  0  0
 58 72  1  0  0  0  0
 59 62  1  0  0  0  0
 59 71  1  0  0  0  0
 60 73  1  0  0  0  0
 61 80  1  0  0  0  0
 63 65  1  0  0  0  0
M  CHG  1  73   1
M  ISO  4  36 100  61 101  72 100  80 101
M  END
> <Batch ID>
0122

> <Smiles>
CNC(C)C(=O)NC(C(=O)N1Cc2cc([101O:1][101CH:1](C)CCc3ccn(CC[100NH:0][100C:0](=O)N4CCCC(n5nc(-c6ccc(Oc7ccc(F)cc7F)cc6)c(C(N)=O)c5N)C4)c3)ccc2CC1C(=O)NC1CCCc2ccccc21)C(C)(C)C

> <Shape>
0.216

> <Color>
0.072

> <Negative vol penalty>
0.000

$$$$

  -OEChem-04052320283D

 82 91  0     1  0  0  0  0  0999 V2000
  -37.3314  -25.2229   19.5089 C   0  0  0  0  0  0  0  0  0  0  0  0
  -36.5296  -24.4094   20.3032 C   0  0  0  0  0  0  0  0  0  0  0  0
  -23.2208   -9.8077   19.9260 C   0  0  0  0  0  0  0  0  0  0  0  0
  -23.6005   -9.9906   22.3049 C   0  0  0  0  0  0  0  0  0  0  0  0
  -36.7538  -26.0123   18.5154 C   0  0  0  0  0  0  0  0  0  0  0  0
  -35.1496  -24.3856   20.1051 C   0  0  0  0  0  0  0  0  0  0  0  0
  -33.2637  -19.6859   20.1307 C   0  0  0  0  0  0  0  0  0  0  0  0
  -22.4720   -8.6495   20.1345 C   0  0  0  0  0  0  0  0  0  0  0  0
  -22.8517   -8.8324   22.5135 C   0  0  0  0  0  0  0  0  0  0  0  0
  -33.0887  -19.0768   21.3726 C   0  0  0  0  0  0  0  0  0  0  0  0
  -21.3422   -5.7243   23.6409 C   0  0  0  0  0  0  0  0  0  0  0  0
  -21.8543   -4.7708   24.5207 C   0  0  0  0  0  0  0  0  0  0  0  0
  -30.7398  -19.6219   21.3020 C   0  0  0  0  0  0  0  0  0  0  0  0
  -23.8142   -4.5377   23.1273 C   0  0  0  0  0  0  0  0  0  0  0  0
  -23.7851  -10.4782   21.0112 C   0  0  0  0  0  0  0  0  0  0  0  0
  -24.0859  -13.0000   20.7702 C   0  0  0  0  0  0  0  0  0  0  0  0
  -35.3670  -25.9909   18.2986 C   0  0  0  0  0  0  0  0  0  0  0  0
  -32.1784  -20.2781   19.4691 C   0  0  0  0  0  0  0  0  0  0  0  0
  -34.5527  -25.1765   19.1086 C   0  0  0  0  0  0  0  0  0  0  0  0
  -30.9033  -20.2356   20.0506 C   0  0  0  0  0  0  0  0  0  0  0  0
  -22.2874   -8.1619   21.4282 C   0  0  0  0  0  0  0  0  0  0  0  0
  -31.8271  -19.0473   21.9597 C   0  0  0  0  0  0  0  0  0  0  0  0
  -22.0660   -6.0845   22.5042 C   0  0  0  0  0  0  0  0  0  0  0  0
  -23.0903   -4.1775   24.2640 C   0  0  0  0  0  0  0  0  0  0  0  0
  -23.3020   -5.4912   22.2475 C   0  0  0  0  0  0  0  0  0  0  0  0
  -24.5592  -11.6744   20.7964 C   0  0  0  0  0  0  0  0  0  0  0  0
  -25.2056  -13.7596   20.5340 C   0  0  0  0  0  0  0  0  0  0  0  0
  -22.7534  -13.4999   20.9440 C   0  0  0  0  0  0  0  0  0  0  0  0
  -31.4713  -23.2261   18.5137 C   0  0  0  0  0  0  0  0  0  0  0  0
  -28.9191  -21.7552   17.1554 C   0  0  0  0  0  0  0  0  0  0  0  0
  -26.7814  -19.0950   17.1340 C   0  0  0  0  0  0  0  0  0  0  0  0
  -31.0362  -12.8548   21.5518 C   0  0  0  0  0  0  0  0  0  0  0  0
  -34.7831  -26.8973   17.2440 C   0  0  0  0  0  0  0  0  0  0  0  0
  -32.3787  -20.9076   18.1177 C   0  0  0  0  0  0  0  0  0  0  0  0
  -29.7017  -20.8391   19.3721 C   0  0  0  0  0  0  0  0  0  0  0  0
  -33.3543  -26.5318   16.8499 C   0  0  0  0  0  0  0  0  0  0  0  0
  -31.1321  -12.5986   26.9022 C   0  0  0  0  0  0  0  0  0  0  0  0
  -29.4928  -13.5536   18.4203 C   0  0  0  0  0  0  0  0  0  0  0  0
  -32.5053  -26.2815   18.0922 C   0  0  0  0  0  0  0  0  0  0  0  0
  -28.0107  -13.2708   18.6718 C   0  0  0  0  0  0  0  0  0  0  0  0
  -29.9345  -12.6118   25.9362 C   0  0  0  0  0  0  0  0  0  0  0  0
  -31.5011  -14.0017   26.3895 C   0  0  0  0  0  0  0  0  0  0  0  0
  -28.3416  -14.6139   24.2576 C   0  0  0  0  0  0  0  0  0  0  0  0
  -28.7146  -15.4407   25.4528 C   0  0  0  0  0  0  0  0  0  0  0  0
  -30.3901  -12.5764   19.1766 C   0  0  0  0  0  0  0  0  0  0  0  0
  -28.6448  -12.2054   20.8766 C   0  0  0  0  0  0  0  0  0  0  0  0
  -33.0545  -25.1047   18.9077 C   0  0  1  0  0  0  0  0  0  0  0  0
  -31.3025  -21.9314   17.7701 C   0  0  1  0  0  0  0  0  0  0  0  0
  -27.7013  -13.2002   20.1793 C   0  0  2  0  0  0  0  0  0  0  0  0
  -29.8018  -14.8568   24.5756 C   0  0  0  0  0  0  0  0  0  0  0  0
  -30.6646  -13.7150   25.0951 C   0  0  0  0  0  0  0  0  0  0  0  0
  -24.7735  -18.1911   15.9303 C   0  0  0  0  0  0  0  0  0  0  0  0
  -27.1441  -23.7637   18.6131 C   0  0  0  0  0  0  0  0  0  0  0  0
  -25.1920  -22.2635   18.1579 C   0  0  0  0  0  0  0  0  0  0  0  0
  -26.4534  -23.2769   16.2593 C   0  0  0  0  0  0  0  0  0  0  0  0
  -28.2432  -16.6687   16.2766 C   0  0  0  0  0  0  0  0  0  0  0  0
  -30.5498  -15.8032   23.6883 C   0  0  0  0  0  0  0  0  0  0  0  0
  -31.5268  -13.1101   23.9711 C   0  0  0  0  0  0  0  0  0  0  0  0
  -31.7892  -16.3670   24.3780 C   0  0  0  0  0  0  0  0  0  0  0  0
  -32.5207  -17.3672   23.4934 C   0  0  0  0  0  0  0  0  0  1  0  0
  -27.5172  -21.4175   17.6021 C   0  0  1  0  0  0  0  0  0  0  0  0
  -26.2924  -18.2048   16.0058 C   0  0  2  0  0  0  0  0  0  0  0  0
  -26.5995  -22.6706   17.6720 C   0  0  0  0  0  0  0  0  0  0  0  0
  -25.8767  -11.5931   20.5928 N   0  0  0  0  0  0  0  0  0  0  0  0
  -26.2410  -12.8773   20.4364 N   0  0  0  0  0  0  0  0  0  0  0  0
  -29.9498  -21.4485   18.0551 N   0  0  0  0  0  0  0  0  0  0  0  0
  -30.0462  -12.5582   20.6005 N   0  0  0  0  0  0  0  0  0  0  0  0
  -25.3955  -15.0897   20.4021 N   0  0  0  0  0  0  0  0  0  0  0  0
  -21.7207  -12.5819   21.1787 N   0  0  0  0  0  0  0  0  0  0  0  0
  -32.6855  -23.8477   18.2927 N   0  0  0  0  0  0  0  0  0  0  0  0
  -27.0400  -20.3771   16.6975 N   0  0  0  0  0  0  0  0  0  0  0  0
  -30.6247  -12.8216   22.8785 N   0  0  0  0  0  0  0  0  0  0  0  0
  -26.7656  -16.8061   16.2073 N   0  3  0  0  0  0  0  0  0  0  0  0
  -22.4839  -14.7231   20.8764 O   0  0  0  0  0  0  0  0  0  0  0  0
  -30.5663  -23.6319   19.2334 O   0  0  0  0  0  0  0  0  0  0  0  0
  -29.0940  -22.2654   16.0460 O   0  0  0  0  0  0  0  0  0  0  0  0
  -26.9166  -18.6942   18.2879 O   0  0  0  0  0  0  0  0  0  0  0  0
  -32.1992  -13.1342   21.2414 O   0  0  0  0  0  0  0  0  0  0  0  0
  -21.5566   -7.0319   21.6321 O   0  0  0  0  0  0  0  0  0  0  0  0
  -31.6536  -18.4541   23.1721 O   0  0  0  0  0  0  0  0  0  1  0  0
  -23.5827   -3.2630   25.1098 F   0  0  0  0  0  0  0  0  0  0  0  0
  -24.0026   -5.8341   21.1577 F   0  0  0  0  0  0  0  0  0  0  0  0
  1  2  1  0  0  0  0
  1  5  2  0  0  0  0
  2  6  2  0  0  0  0
  3  8  2  0  0  0  0
  3 15  1  0  0  0  0
  4  9  1  0  0  0  0
  4 15  2  0  0  0  0
  5 17  1  0  0  0  0
  6 19  1  0  0  0  0
  7 10  2  0  0  0  0
  7 18  1  0  0  0  0
  8 21  1  0  0  0  0
  9 21  2  0  0  0  0
 10 22  1  0  0  0  0
 11 12  2  0  0  0  0
 11 23  1  0  0  0  0
 12 24  1  0  0  0  0
 13 20  1  0  0  0  0
 13 22  2  0  0  0  0
 14 24  2  0  0  0  0
 14 25  1  0  0  0  0
 15 26  1  0  0  0  0
 16 26  1  0  0  0  0
 16 27  2  0  0  0  0
 16 28  1  0  0  0  0
 17 19  2  0  0  0  0
 17 33  1  0  0  0  0
 18 20  2  0  0  0  0
 18 34  1  0  0  0  0
 19 47  1  0  0  0  0
 20 35  1  0  0  0  0
 21 79  1  0  0  0  0
 22 80  1  0  0  0  0
 23 25  2  0  0  0  0
 23 79  1  0  0  0  0
 24 81  1  0  0  0  0
 25 82  1  0  0  0  0
 26 64  2  0  0  0  0
 27 65  1  0  0  0  0
 27 68  1  0  0  0  0
 28 69  1  0  0  0  0
 28 74  2  0  0  0  0
 29 48  1  0  0  0  0
 29 70  1  0  0  0  0
 29 75  2  0  0  0  0
 30 61  1  0  0  0  0
 30 66  1  0  0  0  0
 30 76  2  0  0  0  0
 31 62  1  0  0  0  0
 31 71  1  0  0  0  0
 31 77  2  0  0  0  0
 32 67  1  0  0  0  0
 32 72  1  0  0  0  0
 32 78  2  0  0  0  0
 33 36  1  0  0  0  0
 34 48  1  0  0  0  0
 35 66  1  0  0  0  0
 36 39  1  0  0  0  0
 37 41  1  0  0  0  0
 37 42  1  0  0  0  0
 38 40  1  0  0  0  0
 38 45  1  0  0  0  0
 39 47  1  0  0  0  0
 40 49  1  0  0  0  0
 41 51  1  0  0  0  0
 42 51  1  0  0  0  0
 43 44  1  0  0  0  0
 43 50  1  0  0  0  0
 44 50  1  0  0  0  0
 45 67  1  0  0  0  0
 46 49  1  0  0  0  0
 46 67  1  0  0  0  0
 47 70  1  0  0  0  0
 48 66  1  0  0  0  0
 49 65  1  0  0  0  0
 50 51  1  0  0  0  0
 50 57  1  0  0  0  0
 51 58  1  0  0  0  0
 52 62  1  0  0  0  0
 53 63  1  0  0  0  0
 54 63  1  0  0  0  0
 55 63  1  0  0  0  0
 56 73  1  0  0  0  0
 57 59  1  0  0  0  0
 58 72  1  0  0  0  0
 59 60  1  0  0  0  0
 60 80  1  0  0  0  0
 61 63  1  0  0  0  0
 61 71  1  0  0  0  0
 62 73  1  0  0  0  0
 64 65  1  0  0  0  0
M  CHG  1  73   1
M  ISO  4  32 100  60 101  72 100  80 101
M  END
> <Batch ID>
0122

> <Smiles>
CNC(C)C(=O)NC(C(=O)N1Cc2cc([101O:1][101CH2:1]CCC3(C4(C[100NH:0][100C:0](=O)N5CCCC(n6nc(-c7ccc(Oc8ccc(F)cc8F)cc7)c(C(N)=O)c6N)C5)CCC4)CC3)ccc2CC1C(=O)NC1CCCc2ccccc21)C(C)(C)C

> <Shape>
0.180

> <Color>
0.192

> <Negative vol penalty>
0.000

$$$$

  -OEChem-04052320283D

 87 96  0     1  0  0  0  0  0999 V2000
  -31.8673  -18.7199   22.6638 C   0  0  0  0  0  0  0  0  0  0  0  0
  -30.5886  -19.2249   22.4508 C   0  0  0  0  0  0  0  0  0  0  0  0
  -29.2722  -25.7358   18.7023 C   0  0  0  0  0  0  0  0  0  0  0  0
  -27.7131  -24.0262   19.3976 C   0  0  0  0  0  0  0  0  0  0  0  0
  -32.1793  -17.4223   22.2603 C   0  0  0  0  0  0  0  0  0  0  0  0
  -29.6214  -18.4328   21.8330 C   0  0  0  0  0  0  0  0  0  0  0  0
  -25.1357  -18.6665   24.1715 C   0  0  0  0  0  0  0  0  0  0  0  0
  -19.9130  -22.4544   22.6958 C   0  0  0  0  0  0  0  0  0  0  0  0
  -19.2582  -23.6793   22.5679 C   0  0  0  0  0  0  0  0  0  0  0  0
  -30.2413  -24.7591   18.4736 C   0  0  0  0  0  0  0  0  0  0  0  0
  -28.6822  -23.0494   19.1689 C   0  0  0  0  0  0  0  0  0  0  0  0
  -24.3522  -19.7952   23.9347 C   0  0  0  0  0  0  0  0  0  0  0  0
  -30.6298  -20.0710   18.4245 C   0  0  0  0  0  0  0  0  0  0  0  0
  -30.2401  -18.9159   17.7466 C   0  0  0  0  0  0  0  0  0  0  0  0
  -23.0412  -18.5438   22.3427 C   0  0  0  0  0  0  0  0  0  0  0  0
  -20.9965  -22.8111   20.5661 C   0  0  0  0  0  0  0  0  0  0  0  0
  -29.5981  -20.2521   15.8389 C   0  0  0  0  0  0  0  0  0  0  0  0
  -28.0081  -25.3694   19.1644 C   0  0  0  0  0  0  0  0  0  0  0  0
  -26.0594  -26.8678   18.4824 C   0  0  0  0  0  0  0  0  0  0  0  0
  -31.2127  -16.6105   21.6461 C   0  0  0  0  0  0  0  0  0  0  0  0
  -24.8842  -17.4690   23.4865 C   0  0  0  0  0  0  0  0  0  0  0  0
  -29.9212  -17.1236   21.4197 C   0  0  0  0  0  0  0  0  0  0  0  0
  -23.8213  -17.4006   22.5745 C   0  0  0  0  0  0  0  0  0  0  0  0
  -20.7822  -22.0203   21.6949 C   0  0  0  0  0  0  0  0  0  0  0  0
  -19.4724  -24.4701   21.4390 C   0  0  0  0  0  0  0  0  0  0  0  0
  -20.3416  -24.0360   20.4381 C   0  0  0  0  0  0  0  0  0  0  0  0
  -29.9463  -23.4159   18.7068 C   0  0  0  0  0  0  0  0  0  0  0  0
  -23.3067  -19.7348   23.0181 C   0  0  0  0  0  0  0  0  0  0  0  0
  -30.5036  -21.3167   17.8096 C   0  0  0  0  0  0  0  0  0  0  0  0
  -29.7243  -19.0064   16.4538 C   0  0  0  0  0  0  0  0  0  0  0  0
  -29.9878  -21.4072   16.5168 C   0  0  0  0  0  0  0  0  0  0  0  0
  -27.0067  -26.3780   19.4014 C   0  0  0  0  0  0  0  0  0  0  0  0
  -25.3467  -27.8045   19.1904 C   0  0  0  0  0  0  0  0  0  0  0  0
  -25.8429  -26.5083   17.1115 C   0  0  0  0  0  0  0  0  0  0  0  0
  -26.5308  -15.6550   21.4612 C   0  0  0  0  0  0  0  0  0  0  0  0
  -23.9949  -13.6600   21.7957 C   0  0  0  0  0  0  0  0  0  0  0  0
  -20.6941  -13.2752   22.5723 C   0  0  0  0  0  0  0  0  0  0  0  0
  -24.2703  -28.5480   25.0333 C   0  0  0  0  0  0  0  0  0  0  0  0
  -31.6103  -15.2309   21.1844 C   0  0  0  0  0  0  0  0  0  0  0  0
  -25.7216  -16.2528   23.7729 C   0  0  0  0  0  0  0  0  0  0  0  0
  -23.4972  -16.1332   21.8281 C   0  0  0  0  0  0  0  0  0  0  0  0
  -30.4207  -14.3256   20.8753 C   0  0  0  0  0  0  0  0  0  0  0  0
  -25.7903  -30.8879   22.8218 C   0  0  0  0  0  0  0  0  0  0  0  0
  -29.3915  -15.0671   20.0283 C   0  0  0  0  0  0  0  0  0  0  0  0
  -26.1890  -30.0416   21.6115 C   0  0  0  0  0  0  0  0  0  0  0  0
  -25.9601  -30.1178   24.1295 C   0  0  0  0  0  0  0  0  0  0  0  0
  -25.6737  -27.9661   22.9625 C   0  0  0  0  0  0  0  0  0  0  0  0
  -19.3849  -28.5003   23.2704 C   0  0  0  0  0  0  0  0  0  0  0  0
  -28.8376  -16.2865   20.7752 C   0  0  1  0  0  0  0  0  0  0  0  0
  -25.6999  -15.2319   22.6394 C   0  0  1  0  0  0  0  0  0  0  0  0
  -25.4666  -28.6810   21.6163 C   0  0  2  0  0  0  0  0  0  0  0  0
  -19.6028  -26.9898   23.4722 C   0  0  1  0  0  0  0  0  0  0  0  0
  -19.5510  -26.9191   21.9279 C   0  0  1  0  0  0  0  0  0  0  0  0
  -20.5863  -24.8656   19.2204 C   0  0  0  0  0  0  0  0  0  0  0  0
  -18.8949  -11.5319   22.7180 C   0  0  0  0  0  0  0  0  0  0  0  0
  -23.7585  -13.6533   18.7536 C   0  0  0  0  0  0  0  0  0  0  0  0
  -21.4508  -12.7155   19.0047 C   0  0  0  0  0  0  0  0  0  0  0  0
  -23.4173  -11.4225   19.8315 C   0  0  0  0  0  0  0  0  0  0  0  0
  -20.3055  -13.7519   25.4673 C   0  0  0  0  0  0  0  0  0  0  0  0
  -18.7592  -25.7772   21.3236 C   0  0  0  0  0  0  0  0  0  0  0  0
  -21.4862  -20.7024   21.8326 C   0  0  0  0  0  0  0  0  0  1  0  0
  -22.6072  -26.8781   25.8109 C   0  0  0  0  0  0  0  0  0  0  0  0
  -21.2218  -27.2913   25.3504 C   0  0  0  0  0  0  0  0  0  0  0  0
  -22.6721  -13.4849   21.0897 C   0  0  1  0  0  0  0  0  0  0  0  0
  -19.9802  -12.2835   23.4730 C   0  0  2  0  0  0  0  0  0  0  0  0
  -22.8317  -12.8436   19.6824 C   0  0  0  0  0  0  0  0  0  0  0  0
  -26.9076  -26.9558   20.6015 N   0  0  0  0  0  0  0  0  0  0  0  0
  -25.8896  -27.8184   20.4415 N   0  0  0  0  0  0  0  0  0  0  0  0
  -18.7727  -28.1841   21.9599 N   0  0  0  0  0  0  0  0  0  0  0  0
  -24.3487  -14.9729   22.1380 N   0  0  0  0  0  0  0  0  0  0  0  0
  -25.2497  -28.8381   24.0692 N   0  0  0  0  0  0  0  0  0  0  0  0
  -24.3150  -28.6094   18.8586 N   0  0  0  0  0  0  0  0  0  0  0  0
  -26.6650  -25.5273   16.5402 N   0  0  0  0  0  0  0  0  0  0  0  0
  -27.8617  -15.8748   21.7613 N   0  0  0  0  0  0  0  0  0  0  0  0
  -21.8213  -12.7253   21.9995 N   0  0  0  0  0  0  0  0  0  0  0  0
  -23.6407  -27.3165   24.8997 N   0  0  0  0  0  0  0  0  0  0  0  0
  -20.9147  -26.6522   24.0335 N   0  3  0  0  0  0  0  0  0  0  0  0
  -19.3491  -12.9899   24.6236 N   0  3  0  0  0  0  0  0  0  0  0  0
  -24.9578  -27.0528   16.4089 O   0  0  0  0  0  0  0  0  0  0  0  0
  -26.0039  -15.7718   20.3610 O   0  0  0  0  0  0  0  0  0  0  0  0
  -24.6855  -12.6678   22.0410 O   0  0  0  0  0  0  0  0  0  0  0  0
  -20.2900  -14.4218   22.3918 O   0  0  0  0  0  0  0  0  0  0  0  0
  -23.9747  -29.3310   25.9425 O   0  0  0  0  0  0  0  0  0  0  0  0
  -30.8917  -22.4624   18.4835 O   0  0  0  0  0  0  0  0  0  0  0  0
  -22.5408  -20.8352   22.7847 O   0  0  0  0  0  0  0  0  0  1  0  0
  -29.3515  -17.8970   15.8024 F   0  0  0  0  0  0  0  0  0  0  0  0
  -29.8652  -22.6010   15.9204 F   0  0  0  0  0  0  0  0  0  0  0  0
  1  2  1  0  0  0  0
  1  5  2  0  0  0  0
  2  6  2  0  0  0  0
  3 10  2  0  0  0  0
  3 18  1  0  0  0  0
  4 11  1  0  0  0  0
  4 18  2  0  0  0  0
  5 20  1  0  0  0  0
  6 22  1  0  0  0  0
  7 12  2  0  0  0  0
  7 21  1  0  0  0  0
  8  9  2  0  0  0  0
  8 24  1  0  0  0  0
  9 25  1  0  0  0  0
 10 27  1  0  0  0  0
 11 27  2  0  0  0  0
 12 28  1  0  0  0  0
 13 14  2  0  0  0  0
 13 29  1  0  0  0  0
 14 30  1  0  0  0  0
 15 23  1  0  0  0  0
 15 28  2  0  0  0  0
 16 24  2  0  0  0  0
 16 26  1  0  0  0  0
 17 30  2  0  0  0  0
 17 31  1  0  0  0  0
 18 32  1  0  0  0  0
 19 32  1  0  0  0  0
 19 33  2  0  0  0  0
 19 34  1  0  0  0  0
 20 22  2  0  0  0  0
 20 39  1  0  0  0  0
 21 23  2  0  0  0  0
 21 40  1  0  0  0  0
 22 49  1  0  0  0  0
 23 41  1  0  0  0  0
 24 61  1  0  0  0  0
 25 26  2  0  0  0  0
 25 60  1  0  0  0  0
 26 54  1  0  0  0  0
 27 84  1  0  0  0  0
 28 85  1  0  0  0  0
 29 31  2  0  0  0  0
 29 84  1  0  0  0  0
 30 86  1  0  0  0  0
 31 87  1  0  0  0  0
 32 67  2  0  0  0  0
 33 68  1  0  0  0  0
 33 72  1  0  0  0  0
 34 73  1  0  0  0  0
 34 79  2  0  0  0  0
 35 50  1  0  0  0  0
 35 74  1  0  0  0  0
 35 80  2  0  0  0  0
 36 64  1  0  0  0  0
 36 70  1  0  0  0  0
 36 81  2  0  0  0  0
 37 65  1  0  0  0  0
 37 75  1  0  0  0  0
 37 82  2  0  0  0  0
 38 71  1  0  0  0  0
 38 76  1  0  0  0  0
 38 83  2  0  0  0  0
 39 42  1  0  0  0  0
 40 50  1  0  0  0  0
 41 70  1  0  0  0  0
 42 44  1  0  0  0  0
 43 45  1  0  0  0  0
 43 46  1  0  0  0  0
 44 49  1  0  0  0  0
 45 51  1  0  0  0  0
 46 71  1  0  0  0  0
 47 51  1  0  0  0  0
 47 71  1  0  0  0  0
 48 52  1  0  0  0  0
 48 69  1  0  0  0  0
 49 74  1  0  0  0  0
 50 70  1  0  0  0  0
 51 68  1  0  0  0  0
 52 53  1  0  0  0  0
 52 77  1  0  0  0  0
 53 60  1  0  0  0  0
 53 69  1  0  0  0  0
 55 65  1  0  0  0  0
 56 66  1  0  0  0  0
 57 66  1  0  0  0  0
 58 66  1  0  0  0  0
 59 78  1  0  0  0  0
 61 85  1  0  0  0  0
 62 63  1  0  0  0  0
 62 76  1  0  0  0  0
 63 77  1  0  0  0  0
 64 66  1  0  0  0  0
 64 75  1  0  0  0  0
 65 78  1  0  0  0  0
 67 68  1  0  0  0  0
M  CHG  2  77   1  78   1
M  ISO  4  38 100  61 101  76 100  85 101
M  END
> <Batch ID>
0122

> <Smiles>
CNC(C)C(=O)NC(C(=O)N1Cc2cc([101O:1][101CH2:1]c3ccc(CC4NCC4NCC[100NH:0][100C:0](=O)N4CCCC(n5nc(-c6ccc(Oc7ccc(F)cc7F)cc6)c(C(N)=O)c5N)C4)c(C)c3)ccc2CC1C(=O)NC1CCCc2ccccc21)C(C)(C)C

> <Shape>
0.210

> <Color>
0.049

> <Negative vol penalty>
0.000

$$$$

  -OEChem-04052320283D

 81 89  0     1  0  0  0  0  0999 V2000
  -23.5081  -23.9952   21.0347 C   0  0  0  0  0  0  0  0  0  0  0  0
  -24.6296  -23.1752   21.1071 C   0  0  0  0  0  0  0  0  0  0  0  0
  -22.6731  -28.2406   19.4097 C   0  0  0  0  0  0  0  0  0  0  0  0
  -22.9630  -27.9370   21.7889 C   0  0  0  0  0  0  0  0  0  0  0  0
  -22.2780  -23.5347   21.5025 C   0  0  0  0  0  0  0  0  0  0  0  0
  -24.5219  -21.8946   21.6483 C   0  0  0  0  0  0  0  0  0  0  0  0
  -26.9248  -18.4049   18.8745 C   0  0  0  0  0  0  0  0  0  0  0  0
  -32.7872  -21.0303   20.7020 C   0  0  0  0  0  0  0  0  0  0  0  0
  -21.3053  -28.0039   19.5461 C   0  0  0  0  0  0  0  0  0  0  0  0
  -21.5952  -27.7003   21.9254 C   0  0  0  0  0  0  0  0  0  0  0  0
  -28.3113  -18.3343   19.0020 C   0  0  0  0  0  0  0  0  0  0  0  0
  -18.7537  -29.5253   22.0520 C   0  0  0  0  0  0  0  0  0  0  0  0
  -18.0891  -30.1607   23.1009 C   0  0  0  0  0  0  0  0  0  0  0  0
  -32.8322  -19.6450   20.5917 C   0  0  0  0  0  0  0  0  0  0  0  0
  -28.0725  -16.4516   20.4912 C   0  0  0  0  0  0  0  0  0  0  0  0
  -17.4585  -28.0104   24.0040 C   0  0  0  0  0  0  0  0  0  0  0  0
  -31.3650  -20.7817   22.5920 C   0  0  0  0  0  0  0  0  0  0  0  0
  -23.5020  -28.2071   20.5311 C   0  0  0  0  0  0  0  0  0  0  0  0
  -25.5755  -29.6917   20.4687 C   0  0  0  0  0  0  0  0  0  0  0  0
  -22.1531  -22.2443   22.0408 C   0  0  0  0  0  0  0  0  0  0  0  0
  -26.0998  -17.5047   19.5642 C   0  0  0  0  0  0  0  0  0  0  0  0
  -23.2893  -21.4169   22.1249 C   0  0  0  0  0  0  0  0  0  0  0  0
  -26.6759  -16.5113   20.3687 C   0  0  0  0  0  0  0  0  0  0  0  0
  -32.0420  -21.6174   21.7185 C   0  0  0  0  0  0  0  0  0  0  0  0
  -20.7663  -27.7338   20.8040 C   0  0  0  0  0  0  0  0  0  0  0  0
  -28.8853  -17.3594   19.8127 C   0  0  0  0  0  0  0  0  0  0  0  0
  -18.7707  -28.1324   21.9791 C   0  0  0  0  0  0  0  0  0  0  0  0
  -17.4415  -29.4033   24.0769 C   0  0  0  0  0  0  0  0  0  0  0  0
  -18.1231  -27.3750   22.9551 C   0  0  0  0  0  0  0  0  0  0  0  0
  -24.9151  -28.4509   20.3906 C   0  0  0  0  0  0  0  0  0  0  0  0
  -32.1201  -18.8975   21.5158 C   0  0  0  0  0  0  0  0  0  0  0  0
  -26.9003  -29.3887   20.2694 C   0  0  0  0  0  0  0  0  0  0  0  0
  -25.0395  -31.0011   20.7007 C   0  0  0  0  0  0  0  0  0  0  0  0
  -23.8479  -17.7798   21.7906 C   0  0  0  0  0  0  0  0  0  0  0  0
  -23.4863  -14.5996   21.2634 C   0  0  0  0  0  0  0  0  0  0  0  0
  -24.8563  -11.6688   20.1768 C   0  0  0  0  0  0  0  0  0  0  0  0
  -29.9944  -24.4536   21.2324 C   0  0  0  0  0  0  0  0  0  0  0  0
  -20.8127  -21.8080   22.5770 C   0  0  0  0  0  0  0  0  0  0  0  0
  -24.6070  -17.5773   19.3950 C   0  0  0  0  0  0  0  0  0  0  0  0
  -25.8352  -15.5083   21.1142 C   0  0  0  0  0  0  0  0  0  0  0  0
  -20.7041  -20.3006   22.7924 C   0  0  0  0  0  0  0  0  0  0  0  0
  -29.7255  -26.2070   18.0779 C   0  0  0  0  0  0  0  0  0  0  0  0
  -21.9409  -19.7740   23.5135 C   0  0  0  0  0  0  0  0  0  0  0  0
  -28.5126  -27.1042   18.3311 C   0  0  0  0  0  0  0  0  0  0  0  0
  -29.5487  -24.8406   18.7336 C   0  0  0  0  0  0  0  0  0  0  0  0
  -28.0565  -25.7869   20.4516 C   0  0  0  0  0  0  0  0  0  0  0  0
  -23.2074  -20.0125   22.6825 C   0  0  1  0  0  0  0  0  0  0  0  0
  -23.8431  -16.9343   20.5485 C   0  0  1  0  0  0  0  0  0  0  0  0
  -28.1836  -27.1910   19.8332 C   0  0  2  0  0  0  0  0  0  0  0  0
  -32.7749  -16.7649   22.6797 C   0  0  0  0  0  0  0  0  0  0  0  0
  -24.3299   -9.2305   19.9029 C   0  0  0  0  0  0  0  0  0  0  0  0
  -23.8369  -14.1890   24.2665 C   0  0  0  0  0  0  0  0  0  0  0  0
  -24.2524  -11.7616   23.8156 C   0  0  0  0  0  0  0  0  0  0  0  0
  -22.0540  -12.7801   23.2220 C   0  0  0  0  0  0  0  0  0  0  0  0
  -25.2454  -11.7951   17.2457 C   0  0  0  0  0  0  0  0  0  0  0  0
  -31.9735  -23.0962   21.8629 C   0  0  0  0  0  0  0  0  0  0  0  0
  -30.7499  -16.7945   21.1765 C   0  0  0  0  0  0  0  0  0  1  0  0
  -32.1466  -17.3798   21.4260 C   0  0  1  0  0  0  0  0  0  0  0  0
  -24.0948  -13.3442   21.8404 C   0  0  1  0  0  0  0  0  0  0  0  0
  -24.3304  -10.5981   19.2379 C   0  0  2  0  0  0  0  0  0  0  0  0
  -23.5756  -13.0387   23.2737 C   0  0  0  0  0  0  0  0  0  0  0  0
  -31.3849  -19.4320   22.5166 N   0  0  0  0  0  0  0  0  0  0  0  0
  -25.7513  -27.4353   20.1596 N   0  0  0  0  0  0  0  0  0  0  0  0
  -26.9508  -28.0375   20.0907 N   0  0  0  0  0  0  0  0  0  0  0  0
  -24.3803  -15.6242   20.9216 N   0  0  0  0  0  0  0  0  0  0  0  0
  -29.2563  -24.9931   20.1658 N   0  0  0  0  0  0  0  0  0  0  0  0
  -28.0152  -30.1489   20.2313 N   0  0  0  0  0  0  0  0  0  0  0  0
  -23.6565  -31.1338   20.8854 N   0  0  0  0  0  0  0  0  0  0  0  0
  -23.3037  -19.0380   21.6169 N   0  0  0  0  0  0  0  0  0  0  0  0
  -23.8368  -12.2835   20.8726 N   0  0  0  0  0  0  0  0  0  0  0  0
  -31.1122  -23.7091   20.8762 N   0  0  0  0  0  0  0  0  0  0  0  0
  -25.1744  -10.5243   18.0119 N   0  3  0  0  0  0  0  0  0  0  0  0
  -25.7633  -32.0252   20.7266 O   0  0  0  0  0  0  0  0  0  0  0  0
  -24.3098  -17.3237   22.8300 O   0  0  0  0  0  0  0  0  0  0  0  0
  -22.2636  -14.6657   21.1146 O   0  0  0  0  0  0  0  0  0  0  0  0
  -26.0521  -11.9308   20.2852 O   0  0  0  0  0  0  0  0  0  0  0  0
  -29.6833  -24.6272   22.4157 O   0  0  0  0  0  0  0  0  0  0  0  0
  -19.4316  -27.5030   20.9376 O   0  0  0  0  0  0  0  0  0  0  0  0
  -30.2384  -17.2887   19.9394 O   0  0  0  0  0  0  0  0  0  1  0  0
  -16.8046  -30.0136   25.0849 F   0  0  0  0  0  0  0  0  0  0  0  0
  -18.1369  -26.0365   22.8910 F   0  0  0  0  0  0  0  0  0  0  0  0
  1  2  1  0  0  0  0
  1  5  2  0  0  0  0
  2  6  2  0  0  0  0
  3  9  2  0  0  0  0
  3 18  1  0  0  0  0
  4 10  1  0  0  0  0
  4 18  2  0  0  0  0
  5 20  1  0  0  0  0
  6 22  1  0  0  0  0
  7 11  2  0  0  0  0
  7 21  1  0  0  0  0
  8 14  2  0  0  0  0
  8 24  1  0  0  0  0
  9 25  1  0  0  0  0
 10 25  2  0  0  0  0
 11 26  1  0  0  0  0
 12 13  2  0  0  0  0
 12 27  1  0  0  0  0
 13 28  1  0  0  0  0
 14 31  1  0  0  0  0
 15 23  1  0  0  0  0
 15 26  2  0  0  0  0
 16 28  2  0  0  0  0
 16 29  1  0  0  0  0
 17 24  2  0  0  0  0
 17 62  1  0  0  0  0
 18 30  1  0  0  0  0
 19 30  1  0  0  0  0
 19 32  2  0  0  0  0
 19 33  1  0  0  0  0
 20 22  2  0  0  0  0
 20 38  1  0  0  0  0
 21 23  2  0  0  0  0
 21 39  1  0  0  0  0
 22 47  1  0  0  0  0
 23 40  1  0  0  0  0
 24 56  1  0  0  0  0
 25 78  1  0  0  0  0
 26 79  1  0  0  0  0
 27 29  2  0  0  0  0
 27 78  1  0  0  0  0
 28 80  1  0  0  0  0
 29 81  1  0  0  0  0
 30 63  2  0  0  0  0
 31 58  1  0  0  0  0
 31 62  2  0  0  0  0
 32 64  1  0  0  0  0
 32 67  1  0  0  0  0
 33 68  1  0  0  0  0
 33 73  2  0  0  0  0
 34 48  1  0  0  0  0
 34 69  1  0  0  0  0
 34 74  2  0  0  0  0
 35 59  1  0  0  0  0
 35 65  1  0  0  0  0
 35 75  2  0  0  0  0
 36 60  1  0  0  0  0
 36 70  1  0  0  0  0
 36 76  2  0  0  0  0
 37 66  1  0  0  0  0
 37 71  1  0  0  0  0
 37 77  2  0  0  0  0
 38 41  1  0  0  0  0
 39 48  1  0  0  0  0
 40 65  1  0  0  0  0
 41 43  1  0  0  0  0
 42 44  1  0  0  0  0
 42 45  1  0  0  0  0
 43 47  1  0  0  0  0
 44 49  1  0  0  0  0
 45 66  1  0  0  0  0
 46 49  1  0  0  0  0
 46 66  1  0  0  0  0
 47 69  1  0  0  0  0
 48 65  1  0  0  0  0
 49 64  1  0  0  0  0
 50 58  1  0  0  0  0
 51 60  1  0  0  0  0
 52 61  1  0  0  0  0
 53 61  1  0  0  0  0
 54 61  1  0  0  0  0
 55 72  1  0  0  0  0
 56 71  1  0  0  0  0
 57 58  1  0  0  0  0
 57 79  1  0  0  0  0
 59 61  1  0  0  0  0
 59 70  1  0  0  0  0
 60 72  1  0  0  0  0
 63 64  1  0  0  0  0
M  CHG  1  72   1
M  ISO  4  37 100  57 101  71 100  79 101
M  END
> <Batch ID>
0122

> <Smiles>
CNC(C)C(=O)NC(C(=O)N1Cc2cc([101O:1][101CH2:1]C(C)c3ccc(C[100NH:0][100C:0](=O)N4CCCC(n5nc(-c6ccc(Oc7ccc(F)cc7F)cc6)c(C(N)=O)c5N)C4)cn3)ccc2CC1C(=O)NC1CCCc2ccccc21)C(C)(C)C

> <Shape>
0.222

> <Color>
0.075

> <Negative vol penalty>
0.000

$$$$

  -OEChem-04052320283D

 84 93  0     1  0  0  0  0  0999 V2000
  -27.8261  -12.0392   18.1590 C   0  0  0  0  0  0  0  0  0  0  0  0
  -28.5135  -13.0838   17.5513 C   0  0  0  0  0  0  0  0  0  0  0  0
  -20.8343  -20.8482   21.7845 C   0  0  0  0  0  0  0  0  0  0  0  0
  -23.1016  -21.5415   22.2490 C   0  0  0  0  0  0  0  0  0  0  0  0
  -26.8718  -12.3133   19.1364 C   0  0  0  0  0  0  0  0  0  0  0  0
  -28.2554  -14.4019   17.9292 C   0  0  0  0  0  0  0  0  0  0  0  0
  -28.9796  -22.3683   17.9270 C   0  0  0  0  0  0  0  0  0  0  0  0
  -24.6138  -28.5915   19.6383 C   0  0  0  0  0  0  0  0  0  0  0  0
  -25.2612  -27.4820   19.1029 C   0  0  0  0  0  0  0  0  0  0  0  0
  -21.3160  -19.7757   21.0340 C   0  0  0  0  0  0  0  0  0  0  0  0
  -23.5833  -20.4690   21.4986 C   0  0  0  0  0  0  0  0  0  0  0  0
  -28.3558  -23.5546   18.3110 C   0  0  0  0  0  0  0  0  0  0  0  0
  -21.9478  -17.0619   18.6973 C   0  0  0  0  0  0  0  0  0  0  0  0
  -21.3469  -16.8096   17.4641 C   0  0  0  0  0  0  0  0  0  0  0  0
  -28.1528  -22.7121   20.5621 C   0  0  0  0  0  0  0  0  0  0  0  0
  -21.9788  -19.0145   16.7050 C   0  0  0  0  0  0  0  0  0  0  0  0
  -21.7271  -21.7312   22.3919 C   0  0  0  0  0  0  0  0  0  0  0  0
  -20.9439  -22.8529   24.5451 C   0  0  0  0  0  0  0  0  0  0  0  0
  -26.5935  -13.6364   19.5171 C   0  0  0  0  0  0  0  0  0  0  0  0
  -29.1860  -21.3387   18.8566 C   0  0  0  0  0  0  0  0  0  0  0  0
  -27.3130  -14.6976   18.9308 C   0  0  0  0  0  0  0  0  0  0  0  0
  -28.7838  -21.5158   20.1884 C   0  0  0  0  0  0  0  0  0  0  0  0
  -26.4328  -28.8990   21.2206 C   0  0  0  0  0  0  0  0  0  0  0  0
  -27.0970  -27.7895   20.6658 C   0  0  0  0  0  0  0  0  0  0  0  0
  -25.1972  -29.2985   20.6893 C   0  0  0  0  0  0  0  0  0  0  0  0
  -26.4945  -27.0808   19.6152 C   0  0  0  0  0  0  0  0  0  0  0  0
  -22.6905  -19.5860   20.8911 C   0  0  0  0  0  0  0  0  0  0  0  0
  -27.9403  -23.7256   19.6282 C   0  0  0  0  0  0  0  0  0  0  0  0
  -22.5641  -18.2906   18.9345 C   0  0  0  0  0  0  0  0  0  0  0  0
  -21.3624  -17.7858   16.4680 C   0  0  0  0  0  0  0  0  0  0  0  0
  -22.5796  -19.2669   17.9383 C   0  0  0  0  0  0  0  0  0  0  0  0
  -21.2301  -22.8397   23.1668 C   0  0  0  0  0  0  0  0  0  0  0  0
  -20.5036  -24.1302   24.7921 C   0  0  0  0  0  0  0  0  0  0  0  0
  -21.0653  -21.8043   25.5153 C   0  0  0  0  0  0  0  0  0  0  0  0
  -28.2823  -18.2843   19.1723 C   0  0  0  0  0  0  0  0  0  0  0  0
  -30.3610  -18.4798   21.7596 C   0  0  0  0  0  0  0  0  0  0  0  0
  -31.5370  -15.2965   21.4083 C   0  0  0  0  0  0  0  0  0  0  0  0
  -21.4366  -29.3676   22.0442 C   0  0  0  0  0  0  0  0  0  0  0  0
  -25.5563  -13.8755   20.5858 C   0  0  0  0  0  0  0  0  0  0  0  0
  -29.8883  -20.0785   18.4288 C   0  0  0  0  0  0  0  0  0  0  0  0
  -27.0471  -29.7094   22.3346 C   0  0  0  0  0  0  0  0  0  0  0  0
  -28.4156  -27.3045   21.2146 C   0  0  0  0  0  0  0  0  0  0  0  0
  -28.9858  -20.4430   21.2243 C   0  0  0  0  0  0  0  0  0  0  0  0
  -25.0381  -15.3099   20.6010 C   0  0  0  0  0  0  0  0  0  0  0  0
  -28.1705  -28.9763   23.0655 C   0  0  0  0  0  0  0  0  0  0  0  0
  -29.1345  -28.3483   22.0674 C   0  0  0  0  0  0  0  0  0  0  0  0
  -18.2980  -27.8069   22.6688 C   0  0  0  0  0  0  0  0  0  0  0  0
  -26.2061  -16.2847   20.5917 C   0  0  0  0  0  0  0  0  0  0  0  0
  -18.6678  -26.3581   22.9916 C   0  0  0  0  0  0  0  0  0  0  0  0
  -19.2049  -28.3936   21.5892 C   0  0  0  0  0  0  0  0  0  0  0  0
  -21.0189  -26.8377   22.1910 C   0  0  0  0  0  0  0  0  0  0  0  0
  -27.0271  -16.1410   19.3040 C   0  0  1  0  0  0  0  0  0  0  0  0
  -29.6416  -18.8954   19.3626 C   0  0  1  0  0  0  0  0  0  0  0  0
  -20.1679  -26.2207   23.3141 C   0  0  2  0  0  0  0  0  0  0  0  0
  -32.6879  -13.1568   22.0365 C   0  0  0  0  0  0  0  0  0  0  0  0
  -32.8628  -19.9972   20.8968 C   0  0  0  0  0  0  0  0  0  0  0  0
  -34.1638  -17.8786   21.1918 C   0  0  0  0  0  0  0  0  0  0  0  0
  -33.0200  -18.9204   23.1486 C   0  0  0  0  0  0  0  0  0  0  0  0
  -29.0724  -14.1901   22.6167 C   0  0  0  0  0  0  0  0  0  0  0  0
  -24.4580  -30.4814   21.2296 C   0  0  0  0  0  0  0  0  0  0  0  0
  -27.1507  -25.8795   19.0007 C   0  0  0  0  0  0  0  0  0  1  0  0
  -23.7232  -30.1938   22.5423 C   0  0  0  0  0  0  0  0  0  0  0  0
  -31.6362  -17.7750   21.3695 C   0  0  1  0  0  0  0  0  0  0  0  0
  -31.5564  -14.1183   22.3653 C   0  0  2  0  0  0  0  0  0  0  0  0
  -32.8982  -18.6437   21.6342 C   0  0  0  0  0  0  0  0  0  0  0  0
  -20.9916  -24.0153   22.5793 N   0  0  0  0  0  0  0  0  0  0  0  0
  -20.5507  -24.7791   23.5934 N   0  0  0  0  0  0  0  0  0  0  0  0
  -29.7493  -19.2703   20.7783 N   0  0  0  0  0  0  0  0  0  0  0  0
  -20.6137  -28.2326   21.9569 N   0  0  0  0  0  0  0  0  0  0  0  0
  -20.0846  -24.7504   25.9155 N   0  0  0  0  0  0  0  0  0  0  0  0
  -21.5338  -20.5531   25.0919 N   0  0  0  0  0  0  0  0  0  0  0  0
  -28.2355  -16.9265   19.4244 N   0  0  0  0  0  0  0  0  0  0  0  0
  -31.6300  -16.4989   22.0766 N   0  0  0  0  0  0  0  0  0  0  0  0
  -22.7568  -29.1271   22.4048 N   0  0  0  0  0  0  0  0  0  0  0  0
  -30.2690  -13.3712   22.2932 N   0  3  0  0  0  0  0  0  0  0  0  0
  -20.7515  -21.9672   26.7189 O   0  0  0  0  0  0  0  0  0  0  0  0
  -27.3448  -18.9926   18.8241 O   0  0  0  0  0  0  0  0  0  0  0  0
  -29.9214  -18.3410   22.9044 O   0  0  0  0  0  0  0  0  0  0  0  0
  -31.4519  -15.1633   20.1894 O   0  0  0  0  0  0  0  0  0  0  0  0
  -21.0240  -30.5111   21.8228 O   0  0  0  0  0  0  0  0  0  0  0  0
  -23.1609  -18.5394   20.1591 O   0  0  0  0  0  0  0  0  0  0  0  0
  -27.3316  -24.8828   20.0058 O   0  0  0  0  0  0  0  0  0  1  0  0
  -20.7867  -17.5427   15.2832 F   0  0  0  0  0  0  0  0  0  0  0  0
  -23.1712  -20.4487   18.1598 F   0  0  0  0  0  0  0  0  0  0  0  0
  1  2  1  0  0  0  0
  1  5  2  0  0  0  0
  2  6  2  0  0  0  0
  3 10  2  0  0  0  0
  3 17  1  0  0  0  0
  4 11  1  0  0  0  0
  4 17  2  0  0  0  0
  5 19  1  0  0  0  0
  6 21  1  0  0  0  0
  7 12  2  0  0  0  0
  7 20  1  0  0  0  0
  8  9  2  0  0  0  0
  8 25  1  0  0  0  0
  9 26  1  0  0  0  0
 10 27  1  0  0  0  0
 11 27  2  0  0  0  0
 12 28  1  0  0  0  0
 13 14  2  0  0  0  0
 13 29  1  0  0  0  0
 14 30  1  0  0  0  0
 15 22  1  0  0  0  0
 15 28  2  0  0  0  0
 16 30  2  0  0  0  0
 16 31  1  0  0  0  0
 17 32  1  0  0  0  0
 18 32  1  0  0  0  0
 18 33  2  0  0  0  0
 18 34  1  0  0  0  0
 19 21  2  0  0  0  0
 19 39  1  0  0  0  0
 20 22  2  0  0  0  0
 20 40  1  0  0  0  0
 21 52  1  0  0  0  0
 22 43  1  0  0  0  0
 23 24  1  0  0  0  0
 23 25  2  0  0  0  0
 23 41  1  0  0  0  0
 24 26  2  0  0  0  0
 24 42  1  0  0  0  0
 25 60  1  0  0  0  0
 26 61  1  0  0  0  0
 27 81  1  0  0  0  0
 28 82  1  0  0  0  0
 29 31  2  0  0  0  0
 29 81  1  0  0  0  0
 30 83  1  0  0  0  0
 31 84  1  0  0  0  0
 32 66  2  0  0  0  0
 33 67  1  0  0  0  0
 33 70  1  0  0  0  0
 34 71  1  0  0  0  0
 34 76  2  0  0  0  0
 35 53  1  0  0  0  0
 35 72  1  0  0  0  0
 35 77  2  0  0  0  0
 36 63  1  0  0  0  0
 36 68  1  0  0  0  0
 36 78  2  0  0  0  0
 37 64  1  0  0  0  0
 37 73  1  0  0  0  0
 37 79  2  0  0  0  0
 38 69  1  0  0  0  0
 38 74  1  0  0  0  0
 38 80  2  0  0  0  0
 39 44  1  0  0  0  0
 40 53  1  0  0  0  0
 41 45  1  0  0  0  0
 42 46  1  0  0  0  0
 43 68  1  0  0  0  0
 44 48  1  0  0  0  0
 45 46  1  0  0  0  0
 47 49  1  0  0  0  0
 47 50  1  0  0  0  0
 48 52  1  0  0  0  0
 49 54  1  0  0  0  0
 50 69  1  0  0  0  0
 51 54  1  0  0  0  0
 51 69  1  0  0  0  0
 52 72  1  0  0  0  0
 53 68  1  0  0  0  0
 54 67  1  0  0  0  0
 55 64  1  0  0  0  0
 56 65  1  0  0  0  0
 57 65  1  0  0  0  0
 58 65  1  0  0  0  0
 59 75  1  0  0  0  0
 60 62  1  0  0  0  0
 61 82  1  0  0  0  0
 62 74  1  0  0  0  0
 63 65  1  0  0  0  0
 63 73  1  0  0  0  0
 64 75  1  0  0  0  0
 66 67  1  0  0  0  0
M  CHG  1  75   1
M  ISO  4  38 100  61 101  74 100  82 101
M  END
> <Batch ID>
0122

> <Smiles>
CNC(C)C(=O)NC(C(=O)N1Cc2cc([101O:1][101CH2:1]c3ccc(CC[100NH:0][100C:0](=O)N4CCCC(n5nc(-c6ccc(Oc7ccc(F)cc7F)cc6)c(C(N)=O)c5N)C4)c4c3CCCC4)ccc2CC1C(=O)NC1CCCc2ccccc21)C(C)(C)C

> <Shape>
0.250

> <Color>
0.051

> <Negative vol penalty>
0.000

$$$$

  -OEChem-04052320283D

 89 98  0     1  0  0  0  0  0999 V2000
  -28.2710  -39.0604   23.4386 C   0  0  0  0  0  0  0  0  0  0  0  0
  -29.0116  -37.9100   23.6906 C   0  0  0  0  0  0  0  0  0  0  0  0
  -23.8515   -8.9486   22.0112 C   0  0  0  0  0  0  0  0  0  0  0  0
  -25.8260   -7.8543   21.1506 C   0  0  0  0  0  0  0  0  0  0  0  0
  -26.9046  -39.0829   23.7149 C   0  0  0  0  0  0  0  0  0  0  0  0
  -28.3864  -36.7817   24.2201 C   0  0  0  0  0  0  0  0  0  0  0  0
  -28.5103  -30.4872   20.7193 C   0  0  0  0  0  0  0  0  0  0  0  0
  -23.5836   -7.8370   22.8101 C   0  0  0  0  0  0  0  0  0  0  0  0
  -25.5582   -6.7427   21.9496 C   0  0  0  0  0  0  0  0  0  0  0  0
  -28.6692  -29.1972   20.2127 C   0  0  0  0  0  0  0  0  0  0  0  0
  -22.2527   -4.7543   22.4227 C   0  0  0  0  0  0  0  0  0  0  0  0
  -20.9399   -4.2844   22.4589 C   0  0  0  0  0  0  0  0  0  0  0  0
  -27.2716  -28.3193   21.9802 C   0  0  0  0  0  0  0  0  0  0  0  0
  -27.7472  -19.0023   24.3345 C   0  0  0  0  0  0  0  0  0  0  0  0
  -26.9799  -16.8254   23.6586 C   0  0  0  0  0  0  0  0  0  0  0  0
  -20.8673   -4.6705   24.8427 C   0  0  0  0  0  0  0  0  0  0  0  0
  -24.9727   -8.9572   21.1814 C   0  0  0  0  0  0  0  0  0  0  0  0
  -24.4266  -10.6475   19.3505 C   0  0  0  0  0  0  0  0  0  0  0  0
  -26.2604  -37.9511   24.2390 C   0  0  0  0  0  0  0  0  0  0  0  0
  -27.7178  -30.7004   21.8507 C   0  0  0  0  0  0  0  0  0  0  0  0
  -27.0103  -36.7895   24.5049 C   0  0  0  0  0  0  0  0  0  0  0  0
  -27.0986  -29.6108   22.4849 C   0  0  0  0  0  0  0  0  0  0  0  0
  -26.8016  -17.9853   24.4043 C   0  0  0  0  0  0  0  0  0  0  0  0
  -24.4369   -6.7341   22.7793 C   0  0  0  0  0  0  0  0  0  0  0  0
  -28.0516  -28.1159   20.8417 C   0  0  0  0  0  0  0  0  0  0  0  0
  -22.8728   -5.1823   23.5966 C   0  0  0  0  0  0  0  0  0  0  0  0
  -20.2472   -4.2425   23.6688 C   0  0  0  0  0  0  0  0  0  0  0  0
  -22.1801   -5.1405   24.8066 C   0  0  0  0  0  0  0  0  0  0  0  0
  -25.2496  -10.1049   20.3555 C   0  0  0  0  0  0  0  0  0  0  0  0
  -28.8447  -18.8119   23.5105 C   0  0  0  0  0  0  0  0  0  0  0  0
  -28.1117  -16.7325   22.8647 C   0  0  0  0  0  0  0  0  0  0  0  0
  -25.1355  -11.7206   18.8684 C   0  0  0  0  0  0  0  0  0  0  0  0
  -23.1366  -10.2199   18.8937 C   0  0  0  0  0  0  0  0  0  0  0  0
  -26.2996  -33.1697   24.2935 C   0  0  0  0  0  0  0  0  0  0  0  0
  -24.0776  -31.1453   23.6814 C   0  0  0  0  0  0  0  0  0  0  0  0
  -21.7800  -28.9614   22.4208 C   0  0  0  0  0  0  0  0  0  0  0  0
  -29.3380  -15.2388   21.2487 C   0  0  0  0  0  0  0  0  0  0  0  0
  -24.7906  -38.0386   24.5657 C   0  0  0  0  0  0  0  0  0  0  0  0
  -27.5686  -32.0648   22.4672 C   0  0  0  0  0  0  0  0  0  0  0  0
  -26.2836  -29.8832   23.7196 C   0  0  0  0  0  0  0  0  0  0  0  0
  -24.1312  -36.6779   24.7753 C   0  0  0  0  0  0  0  0  0  0  0  0
  -29.6234  -13.2867   18.2848 C   0  0  0  0  0  0  0  0  0  0  0  0
  -24.9895  -35.8029   25.6833 C   0  0  0  0  0  0  0  0  0  0  0  0
  -28.4086  -23.6319   22.2520 C   0  0  0  0  0  0  0  0  0  0  0  0
  -30.7028  -24.2334   21.3740 C   0  0  0  0  0  0  0  0  0  0  0  0
  -28.4557  -12.3026   18.3850 C   0  0  0  0  0  0  0  0  0  0  0  0
  -27.8013  -24.7653   21.4308 C   0  0  0  0  0  0  0  0  0  0  0  0
  -30.0892  -25.3655   20.5557 C   0  0  0  0  0  0  0  0  0  0  0  0
  -30.2475  -13.5673   19.6507 C   0  0  0  0  0  0  0  0  0  0  0  0
  -28.1342  -13.0129   20.7890 C   0  0  0  0  0  0  0  0  0  0  0  0
  -26.3632  -35.5373   25.0558 C   0  0  1  0  0  0  0  0  0  0  0  0
  -26.1747  -32.3033   23.0749 C   0  0  1  0  0  0  0  0  0  0  0  0
  -29.6975  -23.0980   21.6117 C   0  0  0  0  0  0  0  0  0  0  0  0
  -27.4318  -12.7492   19.4470 C   0  0  2  0  0  0  0  0  0  0  0  0
  -28.8048  -25.8907   21.1937 C   0  0  0  0  0  0  0  0  0  1  0  0
  -24.7075  -19.3170   24.8457 C   0  0  0  0  0  0  0  0  0  0  0  0
  -25.9677  -18.2766   26.7652 C   0  0  0  0  0  0  0  0  0  0  0  0
  -19.3647  -28.3104   22.6204 C   0  0  0  0  0  0  0  0  0  0  0  0
  -24.6831  -29.7187   26.3085 C   0  0  0  0  0  0  0  0  0  0  0  0
  -22.6107  -28.3566   25.9645 C   0  0  0  0  0  0  0  0  0  0  0  0
  -22.4460  -30.8328   26.2175 C   0  0  0  0  0  0  0  0  0  0  0  0
  -21.2469  -29.6246   19.5862 C   0  0  0  0  0  0  0  0  0  0  0  0
  -29.8850  -19.8885   23.4097 C   0  0  0  0  0  0  0  0  0  0  0  0
  -30.3163  -22.0024   22.4780 C   0  0  0  0  0  0  0  0  0  0  0  0
  -25.6012  -18.1378   25.2753 C   0  0  0  0  0  0  0  0  0  0  0  0
  -23.3877  -29.8652   24.0800 C   0  0  1  0  0  0  0  0  0  0  0  0
  -20.3763  -29.1745   21.8836 C   0  0  2  0  0  0  0  0  0  0  0  0
  -23.3024  -29.6937   25.6230 C   0  0  0  0  0  0  0  0  0  0  0  0
  -26.3940  -10.7776   20.5039 N   0  0  0  0  0  0  0  0  0  0  0  0
  -29.0521  -17.6993   22.7712 N   0  0  0  0  0  0  0  0  0  0  0  0
  -26.2951  -11.7540   19.5857 N   0  0  0  0  0  0  0  0  0  0  0  0
  -25.4682  -31.0926   23.5267 N   0  0  0  0  0  0  0  0  0  0  0  0
  -29.2189  -13.9895   20.6039 N   0  0  0  0  0  0  0  0  0  0  0  0
  -24.8739  -12.6294   17.9050 N   0  0  0  0  0  0  0  0  0  0  0  0
  -23.0729   -9.2906   17.8465 N   0  0  0  0  0  0  0  0  0  0  0  0
  -28.2840  -15.5468   22.1082 N   0  0  0  0  0  0  0  0  0  0  0  0
  -26.2615  -34.5250   24.0266 N   0  0  0  0  0  0  0  0  0  0  0  0
  -22.0932  -29.8726   23.4071 N   0  0  0  0  0  0  0  0  0  0  0  0
  -20.3189  -28.8329   20.4342 N   0  3  0  0  0  0  0  0  0  0  0  0
  -22.0717  -10.6616   19.3882 O   0  0  0  0  0  0  0  0  0  0  0  0
  -26.4203  -32.6481   25.3958 O   0  0  0  0  0  0  0  0  0  0  0  0
  -23.4051  -32.1669   23.5165 O   0  0  0  0  0  0  0  0  0  0  0  0
  -22.5229  -28.0730   22.0094 O   0  0  0  0  0  0  0  0  0  0  0  0
  -30.2902  -15.9927   21.0321 O   0  0  0  0  0  0  0  0  0  0  0  0
  -24.1760   -5.6494   23.5589 O   0  0  0  0  0  0  0  0  0  0  0  0
  -28.2074  -26.8597   20.3392 O   0  0  0  0  0  0  0  0  0  1  0  0
  -29.3774  -20.9518   22.6112 O   0  0  0  0  0  0  0  0  0  0  0  0
  -18.9860   -3.7926   23.7031 F   0  0  0  0  0  0  0  0  0  0  0  0
  -22.7702   -5.5514   25.9374 F   0  0  0  0  0  0  0  0  0  0  0  0
  1  2  1  0  0  0  0
  1  5  2  0  0  0  0
  2  6  2  0  0  0  0
  3  8  2  0  0  0  0
  3 17  1  0  0  0  0
  4  9  1  0  0  0  0
  4 17  2  0  0  0  0
  5 19  1  0  0  0  0
  6 21  1  0  0  0  0
  7 10  2  0  0  0  0
  7 20  1  0  0  0  0
  8 24  1  0  0  0  0
  9 24  2  0  0  0  0
 10 25  1  0  0  0  0
 11 12  2  0  0  0  0
 11 26  1  0  0  0  0
 12 27  1  0  0  0  0
 13 22  1  0  0  0  0
 13 25  2  0  0  0  0
 14 23  2  0  0  0  0
 14 30  1  0  0  0  0
 15 23  1  0  0  0  0
 15 31  2  0  0  0  0
 16 27  2  0  0  0  0
 16 28  1  0  0  0  0
 17 29  1  0  0  0  0
 18 29  1  0  0  0  0
 18 32  2  0  0  0  0
 18 33  1  0  0  0  0
 19 21  2  0  0  0  0
 19 38  1  0  0  0  0
 20 22  2  0  0  0  0
 20 39  1  0  0  0  0
 21 51  1  0  0  0  0
 22 40  1  0  0  0  0
 23 65  1  0  0  0  0
 24 85  1  0  0  0  0
 25 86  1  0  0  0  0
 26 28  2  0  0  0  0
 26 85  1  0  0  0  0
 27 88  1  0  0  0  0
 28 89  1  0  0  0  0
 29 69  2  0  0  0  0
 30 63  1  0  0  0  0
 30 70  2  0  0  0  0
 31 70  1  0  0  0  0
 31 76  1  0  0  0  0
 32 71  1  0  0  0  0
 32 74  1  0  0  0  0
 33 75  1  0  0  0  0
 33 80  2  0  0  0  0
 34 52  1  0  0  0  0
 34 77  1  0  0  0  0
 34 81  2  0  0  0  0
 35 66  1  0  0  0  0
 35 72  1  0  0  0  0
 35 82  2  0  0  0  0
 36 67  1  0  0  0  0
 36 78  1  0  0  0  0
 36 83  2  0  0  0  0
 37 73  1  0  0  0  0
 37 76  1  0  0  0  0
 37 84  2  0  0  0  0
 38 41  1  0  0  0  0
 39 52  1  0  0  0  0
 40 72  1  0  0  0  0
 41 43  1  0  0  0  0
 42 46  1  0  0  0  0
 42 49  1  0  0  0  0
 43 51  1  0  0  0  0
 44 47  1  0  0  0  0
 44 53  1  0  0  0  0
 45 48  1  0  0  0  0
 45 53  1  0  0  0  0
 46 54  1  0  0  0  0
 47 55  1  0  0  0  0
 48 55  1  0  0  0  0
 49 73  1  0  0  0  0
 50 54  1  0  0  0  0
 50 73  1  0  0  0  0
 51 77  1  0  0  0  0
 52 72  1  0  0  0  0
 53 64  1  0  0  0  0
 54 71  1  0  0  0  0
 55 86  1  0  0  0  0
 56 65  1  0  0  0  0
 57 65  1  0  0  0  0
 58 67  1  0  0  0  0
 59 68  1  0  0  0  0
 60 68  1  0  0  0  0
 61 68  1  0  0  0  0
 62 79  1  0  0  0  0
 63 87  1  0  0  0  0
 64 87  1  0  0  0  0
 66 68  1  0  0  0  0
 66 78  1  0  0  0  0
 67 79  1  0  0  0  0
 69 71  1  0  0  0  0
M  CHG  1  79   1
M  ISO  4  37 100  55 101  76 100  86 101
M  END
> <Batch ID>
0122

> <Smiles>
CNC(C)C(=O)NC(C(=O)N1Cc2cc([101O:1][101CH:1]3CCC(COCc4cc(C(C)C)cc([100NH:0][100C:0](=O)N5CCCC(n6nc(-c7ccc(Oc8ccc(F)cc8F)cc7)c(C(N)=O)c6N)C5)n4)CC3)ccc2CC1C(=O)NC1CCCc2ccccc21)C(C)(C)C

> <Shape>
0.293

> <Color>
0.082

> <Negative vol penalty>
0.000

$$$$

  -OEChem-04052320283D

 88 96  0     1  0  0  0  0  0999 V2000
  -25.3788  -21.2269   25.3028 C   0  0  0  0  0  0  0  0  0  0  0  0
  -25.2263  -22.4344   24.6289 C   0  0  0  0  0  0  0  0  0  0  0  0
  -26.8225  -15.2300   21.5755 C   0  0  0  0  0  0  0  0  0  0  0  0
  -26.7399  -15.7037   19.2078 C   0  0  0  0  0  0  0  0  0  0  0  0
  -25.0065  -20.0335   24.6854 C   0  0  0  0  0  0  0  0  0  0  0  0
  -24.7024  -22.4491   23.3368 C   0  0  0  0  0  0  0  0  0  0  0  0
  -21.2368  -26.0840   22.6869 C   0  0  0  0  0  0  0  0  0  0  0  0
  -25.7016  -14.4094   21.4504 C   0  0  0  0  0  0  0  0  0  0  0  0
  -25.6190  -14.8831   19.0827 C   0  0  0  0  0  0  0  0  0  0  0  0
  -21.7048  -27.3845   22.5042 C   0  0  0  0  0  0  0  0  0  0  0  0
  -22.3534  -14.7900   21.1878 C   0  0  0  0  0  0  0  0  0  0  0  0
  -21.3435  -14.9240   22.1406 C   0  0  0  0  0  0  0  0  0  0  0  0
  -21.3785  -27.1613   20.1245 C   0  0  0  0  0  0  0  0  0  0  0  0
  -21.6334  -12.6103   22.7730 C   0  0  0  0  0  0  0  0  0  0  0  0
  -27.3417  -15.8772   20.4542 C   0  0  0  0  0  0  0  0  0  0  0  0
  -29.8493  -16.3459   20.4596 C   0  0  0  0  0  0  0  0  0  0  0  0
  -24.4688  -20.0345   23.3886 C   0  0  0  0  0  0  0  0  0  0  0  0
  -20.8458  -25.3072   21.5868 C   0  0  0  0  0  0  0  0  0  0  0  0
  -24.3238  -21.2545   22.7009 C   0  0  0  0  0  0  0  0  0  0  0  0
  -20.9035  -25.8520   20.2961 C   0  0  0  0  0  0  0  0  0  0  0  0
  -25.0998  -14.2359   20.2041 C   0  0  0  0  0  0  0  0  0  0  0  0
  -21.7784  -27.9224   21.2226 C   0  0  0  0  0  0  0  0  0  0  0  0
  -23.0032  -13.5662   21.0275 C   0  0  0  0  0  0  0  0  0  0  0  0
  -20.9835  -13.8342   22.9332 C   0  0  0  0  0  0  0  0  0  0  0  0
  -22.6432  -12.4763   21.8201 C   0  0  0  0  0  0  0  0  0  0  0  0
  -28.4993  -16.7255   20.5828 C   0  0  0  0  0  0  0  0  0  0  0  0
  -30.5528  -17.5072   20.6665 C   0  0  0  0  0  0  0  0  0  0  0  0
  -30.4167  -15.0586   20.1826 C   0  0  0  0  0  0  0  0  0  0  0  0
  -21.8381  -22.5726   20.3057 C   0  0  0  0  0  0  0  0  0  0  0  0
  -19.2430  -22.9743   18.4014 C   0  0  0  0  0  0  0  0  0  0  0  0
  -16.9722  -25.1092   17.0112 C   0  0  0  0  0  0  0  0  0  0  0  0
  -29.1077  -23.1761   19.8717 C   0  0  0  0  0  0  0  0  0  0  0  0
  -24.1248  -18.7149   22.7444 C   0  0  0  0  0  0  0  0  0  0  0  0
  -20.3181  -23.9154   21.8032 C   0  0  0  0  0  0  0  0  0  0  0  0
  -20.4766  -25.0666   19.0840 C   0  0  0  0  0  0  0  0  0  0  0  0
  -23.2287  -18.8520   21.5161 C   0  0  0  0  0  0  0  0  0  0  0  0
  -30.2717  -21.6971   22.9629 C   0  0  0  0  0  0  0  0  0  0  0  0
  -23.7466  -19.9545   20.5979 C   0  0  0  0  0  0  0  0  0  0  0  0
  -30.0728  -20.2068   22.6808 C   0  0  0  0  0  0  0  0  0  0  0  0
  -28.7853  -29.0719   23.0130 C   0  0  0  0  0  0  0  0  0  0  0  0
  -26.7675  -29.5297   21.5950 C   0  0  0  0  0  0  0  0  0  0  0  0
  -29.1459  -22.5296   22.3563 C   0  0  0  0  0  0  0  0  0  0  0  0
  -28.7496  -20.8372   20.6092 C   0  0  0  0  0  0  0  0  0  0  0  0
  -28.0856  -29.7049   24.2046 C   0  0  0  0  0  0  0  0  0  0  0  0
  -23.7361  -21.3138   21.3076 C   0  0  1  0  0  0  0  0  0  0  0  0
  -20.4315  -23.0339   20.5632 C   0  0  1  0  0  0  0  0  0  0  0  0
  -27.7802  -28.4674   22.0318 C   0  0  1  0  0  0  0  0  0  0  0  0
  -29.8672  -19.9436   21.1773 C   0  0  2  0  0  0  0  0  0  0  0  0
  -26.0562  -30.1828   22.7881 C   0  0  2  0  0  0  0  0  0  0  0  0
  -14.9935  -25.1487   15.4683 C   0  0  0  0  0  0  0  0  0  0  0  0
  -27.6567  -32.1671   25.6721 C   0  0  0  0  0  0  0  0  0  0  0  0
  -25.7811  -30.4806   25.7819 C   0  0  0  0  0  0  0  0  0  0  0  0
  -27.1062  -25.3037   18.3830 C   0  0  0  0  0  0  0  0  0  0  0  0
  -21.1070  -22.6576   16.0066 C   0  0  0  0  0  0  0  0  0  0  0  0
  -19.3074  -23.6333   14.5653 C   0  0  0  0  0  0  0  0  0  0  0  0
  -18.9071  -21.4904   15.7778 C   0  0  0  0  0  0  0  0  0  0  0  0
  -15.1956  -26.1666   19.1288 C   0  0  0  0  0  0  0  0  0  0  0  0
  -28.4959  -27.8695   20.8222 C   0  0  0  0  0  0  0  0  0  0  0  0
  -25.1200  -31.2739   22.2941 C   0  0  0  0  0  0  0  0  0  0  0  0
  -24.0819  -30.7222   21.3210 C   0  0  0  0  0  0  0  0  0  0  0  0
  -29.4810  -25.5580   19.2853 C   0  0  0  0  0  0  0  0  0  0  0  0
  -23.1924  -29.6774   21.9818 C   0  0  0  0  0  0  0  0  0  1  0  0
  -18.9818  -23.6561   17.0801 C   0  0  1  0  0  0  0  0  0  0  0  0
  -15.4587  -25.0453   16.9124 C   0  0  2  0  0  0  0  0  0  0  0  0
  -26.5244  -31.4876   24.9190 C   0  0  0  0  0  0  0  0  0  0  0  0
  -28.1574  -26.2447   18.9555 C   0  0  2  0  0  0  0  0  0  0  0  0
  -19.5858  -22.8737   15.8799 C   0  0  0  0  0  0  0  0  0  0  0  0
  -28.3515  -18.0263   20.8477 N   0  0  0  0  0  0  0  0  0  0  0  0
  -29.6178  -18.4741   20.8927 N   0  0  0  0  0  0  0  0  0  0  0  0
  -19.9737  -23.7081   19.3466 N   0  0  0  0  0  0  0  0  0  0  0  0
  -29.0150  -22.2458   20.9202 N   0  0  0  0  0  0  0  0  0  0  0  0
  -31.8737  -17.7855   20.6754 N   0  0  0  0  0  0  0  0  0  0  0  0
  -29.5504  -13.9727   19.9964 N   0  0  0  0  0  0  0  0  0  0  0  0
  -22.3938  -21.8533   21.3465 N   0  0  0  0  0  0  0  0  0  0  0  0
  -17.5383  -23.8519   17.0001 N   0  0  0  0  0  0  0  0  0  0  0  0
  -29.3537  -24.4898   20.2515 N   0  0  0  0  0  0  0  0  0  0  0  0
  -27.1078  -30.7615   23.7307 N   0  3  1  0  0  0  0  0  0  0  0  0
  -14.8417  -26.1597   17.6860 N   0  3  0  0  0  0  0  0  0  0  0  0
  -27.6072  -26.8730   20.1909 N   0  3  0  0  0  0  0  0  0  0  0  0
  -31.6557  -14.8735   20.1190 O   0  0  0  0  0  0  0  0  0  0  0  0
  -22.3787  -22.8476   19.2409 O   0  0  0  0  0  0  0  0  0  0  0  0
  -18.8084  -21.8355   18.5906 O   0  0  0  0  0  0  0  0  0  0  0  0
  -17.5907  -26.1686   17.0865 O   0  0  0  0  0  0  0  0  0  0  0  0
  -28.9857  -22.8585   18.6837 O   0  0  0  0  0  0  0  0  0  0  0  0
  -24.0061  -13.4350   20.0817 O   0  0  0  0  0  0  0  0  0  0  0  0
  -22.2353  -29.1913   21.0415 O   0  0  0  0  0  0  0  0  0  1  0  0
  -20.0148  -13.9634   23.8492 F   0  0  0  0  0  0  0  0  0  0  0  0
  -23.2647  -11.2984   21.6716 F   0  0  0  0  0  0  0  0  0  0  0  0
  1  2  1  0  0  0  0
  1  5  2  0  0  0  0
  2  6  2  0  0  0  0
  3  8  2  0  0  0  0
  3 15  1  0  0  0  0
  4  9  1  0  0  0  0
  4 15  2  0  0  0  0
  5 17  1  0  0  0  0
  6 19  1  0  0  0  0
  7 10  2  0  0  0  0
  7 18  1  0  0  0  0
  8 21  1  0  0  0  0
  9 21  2  0  0  0  0
 10 22  1  0  0  0  0
 11 12  2  0  0  0  0
 11 23  1  0  0  0  0
 12 24  1  0  0  0  0
 13 20  1  0  0  0  0
 13 22  2  0  0  0  0
 14 24  2  0  0  0  0
 14 25  1  0  0  0  0
 15 26  1  0  0  0  0
 16 26  1  0  0  0  0
 16 27  2  0  0  0  0
 16 28  1  0  0  0  0
 17 19  2  0  0  0  0
 17 33  1  0  0  0  0
 18 20  2  0  0  0  0
 18 34  1  0  0  0  0
 19 45  1  0  0  0  0
 20 35  1  0  0  0  0
 21 85  1  0  0  0  0
 22 86  1  0  0  0  0
 23 25  2  0  0  0  0
 23 85  1  0  0  0  0
 24 87  1  0  0  0  0
 25 88  1  0  0  0  0
 26 68  2  0  0  0  0
 27 69  1  0  0  0  0
 27 72  1  0  0  0  0
 28 73  1  0  0  0  0
 28 80  2  0  0  0  0
 29 46  1  0  0  0  0
 29 74  1  0  0  0  0
 29 81  2  0  0  0  0
 30 63  1  0  0  0  0
 30 70  1  0  0  0  0
 30 82  2  0  0  0  0
 31 64  1  0  0  0  0
 31 75  1  0  0  0  0
 31 83  2  0  0  0  0
 32 71  1  0  0  0  0
 32 76  1  0  0  0  0
 32 84  2  0  0  0  0
 33 36  1  0  0  0  0
 34 46  1  0  0  0  0
 35 70  1  0  0  0  0
 36 38  1  0  0  0  0
 37 39  1  0  0  0  0
 37 42  1  0  0  0  0
 38 45  1  0  0  0  0
 39 48  1  0  0  0  0
 40 44  1  0  0  0  0
 40 47  1  0  0  0  0
 41 47  1  0  0  0  0
 41 49  1  0  0  0  0
 42 71  1  0  0  0  0
 43 48  1  0  0  0  0
 43 71  1  0  0  0  0
 44 77  1  0  0  0  0
 45 74  1  0  0  0  0
 46 70  1  0  0  0  0
 47 58  1  0  0  0  0
 48 69  1  0  0  0  0
 49 59  1  0  0  0  0
 49 77  1  0  0  0  0
 50 64  1  0  0  0  0
 51 65  1  0  0  0  0
 52 65  1  0  0  0  0
 53 66  1  0  0  0  0
 54 67  1  0  0  0  0
 55 67  1  0  0  0  0
 56 67  1  0  0  0  0
 57 78  1  0  0  0  0
 58 79  1  0  0  0  0
 59 60  1  0  0  0  0
 60 62  1  0  0  0  0
 61 66  1  0  0  0  0
 61 76  1  0  0  0  0
 62 86  1  0  0  0  0
 63 67  1  0  0  0  0
 63 75  1  0  0  0  0
 64 78  1  0  0  0  0
 65 77  1  0  0  0  0
 66 79  1  0  0  0  0
 68 69  1  0  0  0  0
M  CHG  3  77   1  78   1  79   1
M  ISO  4  32 100  62 101  76 100  86 101
M  END
> <Batch ID>
0122

> <Smiles>
CNC(C)C(=O)NC(C(=O)N1Cc2cc([101O:1][101CH2:1]CCC3CC(CNC(C)C[100NH:0][100C:0](=O)N4CCCC(n5nc(-c6ccc(Oc7ccc(F)cc7F)cc6)c(C(N)=O)c5N)C4)CCN3C(C)C)ccc2CC1C(=O)NC1CCCc2ccccc21)C(C)(C)C

> <Shape>
0.239

> <Color>
0.053

> <Negative vol penalty>
0.000

$$$$

  -OEChem-04052320283D

 86 95  0     1  0  0  0  0  0999 V2000
  -27.8848  -31.0253   27.9254 C   0  0  0  0  0  0  0  0  0  0  0  0
  -27.9012  -30.1780   26.8221 C   0  0  0  0  0  0  0  0  0  0  0  0
  -23.0709   -9.8285   19.9636 C   0  0  0  0  0  0  0  0  0  0  0  0
  -23.6720   -9.9622   22.2998 C   0  0  0  0  0  0  0  0  0  0  0  0
  -29.0365  -31.1898   28.6938 C   0  0  0  0  0  0  0  0  0  0  0  0
  -29.0698  -29.4955   26.4860 C   0  0  0  0  0  0  0  0  0  0  0  0
  -28.2224  -24.6330   25.3535 C   0  0  0  0  0  0  0  0  0  0  0  0
  -28.9212  -17.6978   21.2085 C   0  0  0  0  0  0  0  0  0  0  0  0
  -22.3067   -8.6914   20.2252 C   0  0  0  0  0  0  0  0  0  0  0  0
  -22.9077   -8.8250   22.5615 C   0  0  0  0  0  0  0  0  0  0  0  0
  -27.7047  -24.3545   24.0893 C   0  0  0  0  0  0  0  0  0  0  0  0
  -23.2219   -5.4771   22.2098 C   0  0  0  0  0  0  0  0  0  0  0  0
  -23.7823   -4.4929   23.0238 C   0  0  0  0  0  0  0  0  0  0  0  0
  -28.2643  -18.6826   20.4791 C   0  0  0  0  0  0  0  0  0  0  0  0
  -29.9141  -23.7647   23.3211 C   0  0  0  0  0  0  0  0  0  0  0  0
  -21.9688   -4.7616   24.5974 C   0  0  0  0  0  0  0  0  0  0  0  0
  -23.7536  -10.4639   21.0008 C   0  0  0  0  0  0  0  0  0  0  0  0
  -24.1136  -12.9784   20.7653 C   0  0  0  0  0  0  0  0  0  0  0  0
  -30.2170  -30.5016   28.3726 C   0  0  0  0  0  0  0  0  0  0  0  0
  -29.5939  -24.4896   25.6084 C   0  0  0  0  0  0  0  0  0  0  0  0
  -30.2388  -29.6520   27.2500 C   0  0  0  0  0  0  0  0  0  0  0  0
  -30.2717  -17.8446   21.5051 C   0  0  0  0  0  0  0  0  0  0  0  0
  -30.4463  -24.0395   24.5901 C   0  0  0  0  0  0  0  0  0  0  0  0
  -22.2251   -8.1896   21.5242 C   0  0  0  0  0  0  0  0  0  0  0  0
  -28.5510  -23.9231   23.0721 C   0  0  0  0  0  0  0  0  0  0  0  0
  -22.0349   -6.1037   22.5895 C   0  0  0  0  0  0  0  0  0  0  0  0
  -23.1558   -4.1351   24.2176 C   0  0  0  0  0  0  0  0  0  0  0  0
  -21.4084   -5.7459   23.7833 C   0  0  0  0  0  0  0  0  0  0  0  0
  -24.5436  -11.6383   20.7311 C   0  0  0  0  0  0  0  0  0  0  0  0
  -28.9970  -19.7862   20.0729 C   0  0  0  0  0  0  0  0  0  0  0  0
  -30.9146  -18.9856   21.0527 C   0  0  0  0  0  0  0  0  0  0  0  0
  -25.2313  -13.7061   20.4369 C   0  0  0  0  0  0  0  0  0  0  0  0
  -22.8197  -13.5173   21.0669 C   0  0  0  0  0  0  0  0  0  0  0  0
  -31.9319  -26.4598   26.4778 C   0  0  0  0  0  0  0  0  0  0  0  0
  -33.6527  -23.7155   26.6497 C   0  0  0  0  0  0  0  0  0  0  0  0
  -34.0554  -20.4802   25.6409 C   0  0  0  0  0  0  0  0  0  0  0  0
  -30.6350  -14.7569   20.8733 C   0  0  0  0  0  0  0  0  0  0  0  0
  -31.4503  -30.7479   29.2050 C   0  0  0  0  0  0  0  0  0  0  0  0
  -30.1325  -24.7684   26.9849 C   0  0  0  0  0  0  0  0  0  0  0  0
  -31.9230  -23.8500   24.8180 C   0  0  0  0  0  0  0  0  0  0  0  0
  -32.5414  -29.6998   29.0023 C   0  0  0  0  0  0  0  0  0  0  0  0
  -30.9579  -15.6005   24.3852 C   0  0  0  0  0  0  0  0  0  0  0  0
  -29.7060  -12.2589   18.6092 C   0  0  0  0  0  0  0  0  0  0  0  0
  -30.9037  -17.0107   23.8113 C   0  0  0  0  0  0  0  0  0  0  0  0
  -32.7540  -29.4311   27.5158 C   0  0  0  0  0  0  0  0  0  0  0  0
  -28.2504  -11.9607   18.9633 C   0  0  0  0  0  0  0  0  0  0  0  0
  -30.5319  -12.5000   19.8666 C   0  0  0  0  0  0  0  0  0  0  0  0
  -30.1575  -14.7939   23.3745 C   0  0  0  0  0  0  0  0  0  0  0  0
  -28.5449  -13.3332   21.0875 C   0  0  0  0  0  0  0  0  0  0  0  0
  -30.9959  -16.7798   22.2972 C   0  0  1  0  0  0  0  0  0  0  0  0
  -31.4801  -28.8753   26.8680 C   0  0  1  0  0  0  0  0  0  0  0  0
  -31.6257  -25.0809   26.9902 C   0  0  1  0  0  0  0  0  0  0  0  0
  -27.6646  -13.0740   19.8476 C   0  0  2  0  0  0  0  0  0  0  0  0
  -35.0299  -18.1690   25.5650 C   0  0  0  0  0  0  0  0  0  0  0  0
  -35.7010  -25.0320   24.8108 C   0  0  0  0  0  0  0  0  0  0  0  0
  -36.6619  -22.7623   24.3713 C   0  0  0  0  0  0  0  0  0  0  0  0
  -36.6854  -23.6984   26.6834 C   0  0  0  0  0  0  0  0  0  0  0  0
  -32.2570  -19.5259   27.7889 C   0  0  0  0  0  0  0  0  0  0  0  0
  -32.8430  -20.3594   20.8301 C   0  0  0  0  0  0  0  0  0  0  0  0
  -28.3245  -20.8627   19.2885 C   0  0  0  0  0  0  0  0  0  0  0  0
  -27.7068  -21.9776   20.1467 C   0  0  0  0  0  0  0  0  0  0  0  0
  -28.7159  -22.6522   21.0687 C   0  0  0  0  0  0  0  0  0  1  0  0
  -34.4974  -22.9210   25.6832 C   0  0  1  0  0  0  0  0  0  0  0  0
  -34.3238  -19.2072   26.4230 C   0  0  2  0  0  0  0  0  0  0  0  0
  -35.8590  -23.6087   25.3820 C   0  0  0  0  0  0  0  0  0  0  0  0
  -25.8337  -11.5188   20.4065 N   0  0  0  0  0  0  0  0  0  0  0  0
  -30.3099  -19.9637   20.3418 N   0  0  0  0  0  0  0  0  0  0  0  0
  -26.2240  -12.7931   20.2336 N   0  0  0  0  0  0  0  0  0  0  0  0
  -32.4027  -24.1416   26.1790 N   0  0  0  0  0  0  0  0  0  0  0  0
  -29.9451  -13.5504   20.6995 N   0  0  0  0  0  0  0  0  0  0  0  0
  -30.4617  -15.4251   22.0889 N   0  0  0  0  0  0  0  0  0  0  0  0
  -25.4519  -15.0313   20.3051 N   0  0  0  0  0  0  0  0  0  0  0  0
  -21.7831  -12.6287   21.3837 N   0  0  0  0  0  0  0  0  0  0  0  0
  -31.3196  -27.4735   27.1899 N   0  0  0  0  0  0  0  0  0  0  0  0
  -34.6168  -21.5822   26.2505 N   0  0  0  0  0  0  0  0  0  0  0  0
  -33.0443  -18.6206   26.9128 N   0  3  0  0  0  0  0  0  0  0  0  0
  -22.5853  -14.7493   21.0398 O   0  0  0  0  0  0  0  0  0  0  0  0
  -32.6701  -26.5942   25.5090 O   0  0  0  0  0  0  0  0  0  0  0  0
  -34.0831  -23.9434   27.7831 O   0  0  0  0  0  0  0  0  0  0  0  0
  -33.4150  -20.4950   24.5919 O   0  0  0  0  0  0  0  0  0  0  0  0
  -31.3851  -15.2048   19.9966 O   0  0  0  0  0  0  0  0  0  0  0  0
  -21.4793   -7.0802   21.7799 O   0  0  0  0  0  0  0  0  0  0  0  0
  -28.0449  -23.6493   21.8283 O   0  0  0  0  0  0  0  0  0  1  0  0
  -32.2459  -19.1666   21.3240 O   0  0  0  0  0  0  0  0  0  0  0  0
  -23.6934   -3.1888   24.9984 F   0  0  0  0  0  0  0  0  0  0  0  0
  -20.2673   -6.3435   24.1529 F   0  0  0  0  0  0  0  0  0  0  0  0
  1  2  1  0  0  0  0
  1  5  2  0  0  0  0
  2  6  2  0  0  0  0
  3  9  2  0  0  0  0
  3 17  1  0  0  0  0
  4 10  1  0  0  0  0
  4 17  2  0  0  0  0
  5 19  1  0  0  0  0
  6 21  1  0  0  0  0
  7 11  2  0  0  0  0
  7 20  1  0  0  0  0
  8 14  2  0  0  0  0
  8 22  1  0  0  0  0
  9 24  1  0  0  0  0
 10 24  2  0  0  0  0
 11 25  1  0  0  0  0
 12 13  2  0  0  0  0
 12 26  1  0  0  0  0
 13 27  1  0  0  0  0
 14 30  1  0  0  0  0
 15 23  1  0  0  0  0
 15 25  2  0  0  0  0
 16 27  2  0  0  0  0
 16 28  1  0  0  0  0
 17 29  1  0  0  0  0
 18 29  1  0  0  0  0
 18 32  2  0  0  0  0
 18 33  1  0  0  0  0
 19 21  2  0  0  0  0
 19 38  1  0  0  0  0
 20 23  2  0  0  0  0
 20 39  1  0  0  0  0
 21 51  1  0  0  0  0
 22 31  2  0  0  0  0
 22 50  1  0  0  0  0
 23 40  1  0  0  0  0
 24 82  1  0  0  0  0
 25 83  1  0  0  0  0
 26 28  2  0  0  0  0
 26 82  1  0  0  0  0
 27 85  1  0  0  0  0
 28 86  1  0  0  0  0
 29 66  2  0  0  0  0
 30 60  1  0  0  0  0
 30 67  2  0  0  0  0
 31 67  1  0  0  0  0
 31 84  1  0  0  0  0
 32 68  1  0  0  0  0
 32 72  1  0  0  0  0
 33 73  1  0  0  0  0
 33 77  2  0  0  0  0
 34 52  1  0  0  0  0
 34 74  1  0  0  0  0
 34 78  2  0  0  0  0
 35 63  1  0  0  0  0
 35 69  1  0  0  0  0
 35 79  2  0  0  0  0
 36 64  1  0  0  0  0
 36 75  1  0  0  0  0
 36 80  2  0  0  0  0
 37 70  1  0  0  0  0
 37 71  1  0  0  0  0
 37 81  2  0  0  0  0
 38 41  1  0  0  0  0
 39 52  1  0  0  0  0
 40 69  1  0  0  0  0
 41 45  1  0  0  0  0
 42 44  1  0  0  0  0
 42 48  1  0  0  0  0
 43 46  1  0  0  0  0
 43 47  1  0  0  0  0
 44 50  1  0  0  0  0
 45 51  1  0  0  0  0
 46 53  1  0  0  0  0
 47 70  1  0  0  0  0
 48 71  1  0  0  0  0
 49 53  1  0  0  0  0
 49 70  1  0  0  0  0
 50 71  1  0  0  0  0
 51 74  1  0  0  0  0
 52 69  1  0  0  0  0
 53 68  1  0  0  0  0
 54 64  1  0  0  0  0
 55 65  1  0  0  0  0
 56 65  1  0  0  0  0
 57 65  1  0  0  0  0
 58 76  1  0  0  0  0
 59 84  1  0  0  0  0
 60 61  1  0  0  0  0
 61 62  1  0  0  0  0
 62 83  1  0  0  0  0
 63 65  1  0  0  0  0
 63 75  1  0  0  0  0
 64 76  1  0  0  0  0
 66 68  1  0  0  0  0
M  CHG  1  76   1
M  ISO  4  37 100  62 101  71 100  83 101
M  END
> <Batch ID>
0122

> <Smiles>
CNC(C)C(=O)NC(C(=O)N1Cc2cc([101O:1][101CH2:1]CCc3ccc(C4CCC[100N:0]4[100C:0](=O)N4CCCC(n5nc(-c6ccc(Oc7ccc(F)cc7F)cc6)c(C(N)=O)c5N)C4)c(OC)n3)ccc2CC1C(=O)NC1CCCc2ccccc21)C(C)(C)C

> <Shape>
0.224

> <Color>
0.198

> <Negative vol penalty>
0.000

$$$$

  -OEChem-04052320283D

 85 93  0     1  0  0  0  0  0999 V2000
  -18.0620  -30.0875   23.5021 C   0  0  0  0  0  0  0  0  0  0  0  0
  -19.4069  -29.7880   23.3100 C   0  0  0  0  0  0  0  0  0  0  0  0
  -29.4604  -17.6818   18.6513 C   0  0  0  0  0  0  0  0  0  0  0  0
  -27.1024  -18.1913   18.7824 C   0  0  0  0  0  0  0  0  0  0  0  0
  -17.1099  -29.0697   23.4628 C   0  0  0  0  0  0  0  0  0  0  0  0
  -19.8007  -28.4704   23.0797 C   0  0  0  0  0  0  0  0  0  0  0  0
  -23.1566  -28.0768   19.3076 C   0  0  0  0  0  0  0  0  0  0  0  0
  -29.1579  -16.3370   18.4377 C   0  0  0  0  0  0  0  0  0  0  0  0
  -26.7999  -16.8465   18.5688 C   0  0  0  0  0  0  0  0  0  0  0  0
  -24.4787  -28.4143   19.5938 C   0  0  0  0  0  0  0  0  0  0  0  0
  -29.0126  -12.7102   18.2161 C   0  0  0  0  0  0  0  0  0  0  0  0
  -29.7415  -11.7587   18.9294 C   0  0  0  0  0  0  0  0  0  0  0  0
  -25.0195  -26.0747   19.8244 C   0  0  0  0  0  0  0  0  0  0  0  0
  -28.9571  -12.7140   21.0053 C   0  0  0  0  0  0  0  0  0  0  0  0
  -28.4326  -18.6090   18.8237 C   0  0  0  0  0  0  0  0  0  0  0  0
  -28.9062  -20.9991   18.0684 C   0  0  0  0  0  0  0  0  0  0  0  0
  -17.4912  -27.7402   23.2222 C   0  0  0  0  0  0  0  0  0  0  0  0
  -22.7529  -26.7340   19.2884 C   0  0  0  0  0  0  0  0  0  0  0  0
  -18.8530  -27.4336   23.0385 C   0  0  0  0  0  0  0  0  0  0  0  0
  -23.6923  -25.7228   19.5352 C   0  0  0  0  0  0  0  0  0  0  0  0
  -27.8277  -15.9193   18.3964 C   0  0  0  0  0  0  0  0  0  0  0  0
  -25.4097  -27.4133   19.8551 C   0  0  0  0  0  0  0  0  0  0  0  0
  -28.2559  -13.6637   18.8974 C   0  0  0  0  0  0  0  0  0  0  0  0
  -29.7138  -11.7606   20.3240 C   0  0  0  0  0  0  0  0  0  0  0  0
  -28.2282  -13.6656   20.2919 C   0  0  0  0  0  0  0  0  0  0  0  0
  -28.7444  -19.9982   19.0450 C   0  0  0  0  0  0  0  0  0  0  0  0
  -29.1908  -22.1355   18.7853 C   0  0  0  0  0  0  0  0  0  0  0  0
  -31.6580  -28.6612   20.7798 C   0  0  0  0  0  0  0  0  0  0  0  0
  -28.8079  -20.9096   16.6408 C   0  0  0  0  0  0  0  0  0  0  0  0
  -20.6764  -24.9920   20.9488 C   0  0  0  0  0  0  0  0  0  0  0  0
  -21.4675  -22.7017   18.7921 C   0  0  0  0  0  0  0  0  0  0  0  0
  -23.8167  -20.9025   16.7278 C   0  0  0  0  0  0  0  0  0  0  0  0
  -27.8569  -23.7390   24.3085 C   0  0  0  0  0  0  0  0  0  0  0  0
  -16.4313  -26.6673   23.2358 C   0  0  0  0  0  0  0  0  0  0  0  0
  -21.3290  -26.3853   18.9516 C   0  0  0  0  0  0  0  0  0  0  0  0
  -23.3143  -24.2651   19.5068 C   0  0  0  0  0  0  0  0  0  0  0  0
  -31.4432  -27.9093   19.5033 C   0  0  0  0  0  0  0  0  0  0  0  0
  -16.8894  -25.3507   22.6137 C   0  0  0  0  0  0  0  0  0  0  0  0
  -30.1254  -27.2493   19.8351 C   0  0  0  0  0  0  0  0  0  0  0  0
  -31.1836  -23.5707   22.8935 C   0  0  0  0  0  0  0  0  0  0  0  0
  -18.2693  -24.9647   23.1368 C   0  0  0  0  0  0  0  0  0  0  0  0
  -30.9400  -22.7226   21.6438 C   0  0  0  0  0  0  0  0  0  0  0  0
  -30.3291  -23.0903   24.0627 C   0  0  0  0  0  0  0  0  0  0  0  0
  -28.6216  -22.1925   22.5291 C   0  0  0  0  0  0  0  0  0  0  0  0
  -19.3167  -26.0200   22.7613 C   0  0  1  0  0  0  0  0  0  0  0  0
  -20.9132  -25.0103   19.4651 C   0  0  1  0  0  0  0  0  0  0  0  0
  -29.4397  -22.6421   21.3050 C   0  0  2  0  0  0  0  0  0  0  0  0
  -29.4867  -28.2575   20.7823 C   0  0  1  0  0  0  0  0  0  0  0  0
  -33.0132  -29.1723   21.1423 C   0  0  0  0  0  0  0  0  0  0  0  0
  -23.4521  -19.0445   15.0808 C   0  0  0  0  0  0  0  0  0  0  0  0
  -26.3961  -29.3930   24.5664 C   0  0  0  0  0  0  0  0  0  0  0  0
  -22.1020  -20.8750   21.1523 C   0  0  0  0  0  0  0  0  0  0  0  0
  -23.3466  -19.3830   19.5732 C   0  0  0  0  0  0  0  0  0  0  0  0
  -20.9002  -19.7600   19.2637 C   0  0  0  0  0  0  0  0  0  0  0  0
  -25.1494  -22.4092   14.5569 C   0  0  0  0  0  0  0  0  0  0  0  0
  -27.9641  -28.7024   22.7082 C   0  0  0  0  0  0  0  0  0  0  0  0
  -27.2411  -25.2968   26.1390 C   0  0  0  0  0  0  0  0  0  0  0  0
  -26.5223  -26.3108   25.2687 C   0  0  0  0  0  0  0  0  0  0  0  0
  -27.4217  -26.8585   20.9954 C   0  0  0  0  0  0  0  0  0  1  0  0
  -22.5202  -21.6223   18.7166 C   0  0  1  0  0  0  0  0  0  0  0  0
  -23.6486  -20.5415   15.2629 C   0  0  2  0  0  0  0  0  0  0  0  0
  -28.5163  -27.6159   21.7581 C   0  0  1  0  0  0  0  0  0  0  0  0
  -26.9131  -28.2336   23.7232 C   0  0  1  0  0  0  0  0  0  0  0  0
  -22.2242  -20.4375   19.6790 C   0  0  0  0  0  0  0  0  0  0  0  0
  -28.9124  -20.4582   20.2876 N   0  0  0  0  0  0  0  0  0  0  0  0
  -30.6141  -28.8663   21.5256 N   0  0  0  0  0  0  0  0  0  0  0  0
  -29.1828  -21.7607   20.0967 N   0  0  0  0  0  0  0  0  0  0  0  0
  -21.9086  -23.9752   19.1788 N   0  0  0  0  0  0  0  0  0  0  0  0
  -28.9104  -23.0543   23.6802 N   0  0  0  0  0  0  0  0  0  0  0  0
  -29.4447  -23.4088   18.4157 N   0  0  0  0  0  0  0  0  0  0  0  0
  -28.5081  -19.6660   16.0683 N   0  0  0  0  0  0  0  0  0  0  0  0
  -19.7038  -25.8766   21.3742 N   0  0  0  0  0  0  0  0  0  0  0  0
  -22.6143  -21.2415   17.3114 N   0  0  0  0  0  0  0  0  0  0  0  0
  -28.2140  -24.5281   25.3950 N   0  0  0  0  0  0  0  0  0  0  0  0
  -24.8512  -20.9555   14.4861 N   0  3  0  0  0  0  0  0  0  0  0  0
  -27.5109  -27.2283   24.6447 N   0  3  0  0  0  0  0  0  0  0  0  0
  -28.9971  -21.8996   15.8940 O   0  0  0  0  0  0  0  0  0  0  0  0
  -21.3268  -24.2305   21.6551 O   0  0  0  0  0  0  0  0  0  0  0  0
  -20.2983  -22.4269   18.5112 O   0  0  0  0  0  0  0  0  0  0  0  0
  -24.9051  -20.8818   17.2983 O   0  0  0  0  0  0  0  0  0  0  0  0
  -26.6846  -23.6574   23.9260 O   0  0  0  0  0  0  0  0  0  0  0  0
  -27.5321  -14.6072   18.1877 O   0  0  0  0  0  0  0  0  0  0  0  0
  -26.7007  -27.7400   20.1354 O   0  0  0  0  0  0  0  0  0  1  0  0
  -30.4126  -10.8458   21.0088 F   0  0  0  0  0  0  0  0  0  0  0  0
  -27.5022  -14.5784   20.9519 F   0  0  0  0  0  0  0  0  0  0  0  0
  1  2  1  0  0  0  0
  1  5  2  0  0  0  0
  2  6  2  0  0  0  0
  3  8  2  0  0  0  0
  3 15  1  0  0  0  0
  4  9  1  0  0  0  0
  4 15  2  0  0  0  0
  5 17  1  0  0  0  0
  6 19  1  0  0  0  0
  7 10  2  0  0  0  0
  7 18  1  0  0  0  0
  8 21  1  0  0  0  0
  9 21  2  0  0  0  0
 10 22  1  0  0  0  0
 11 12  2  0  0  0  0
 11 23  1  0  0  0  0
 12 24  1  0  0  0  0
 13 20  1  0  0  0  0
 13 22  2  0  0  0  0
 14 24  2  0  0  0  0
 14 25  1  0  0  0  0
 15 26  1  0  0  0  0
 16 26  1  0  0  0  0
 16 27  2  0  0  0  0
 16 29  1  0  0  0  0
 17 19  2  0  0  0  0
 17 34  1  0  0  0  0
 18 20  2  0  0  0  0
 18 35  1  0  0  0  0
 19 45  1  0  0  0  0
 20 36  1  0  0  0  0
 21 82  1  0  0  0  0
 22 83  1  0  0  0  0
 23 25  2  0  0  0  0
 23 82  1  0  0  0  0
 24 84  1  0  0  0  0
 25 85  1  0  0  0  0
 26 65  2  0  0  0  0
 27 67  1  0  0  0  0
 27 70  1  0  0  0  0
 28 37  1  0  0  0  0
 28 49  1  0  0  0  0
 28 66  2  0  0  0  0
 29 71  1  0  0  0  0
 29 77  2  0  0  0  0
 30 46  1  0  0  0  0
 30 72  1  0  0  0  0
 30 78  2  0  0  0  0
 31 60  1  0  0  0  0
 31 68  1  0  0  0  0
 31 79  2  0  0  0  0
 32 61  1  0  0  0  0
 32 73  1  0  0  0  0
 32 80  2  0  0  0  0
 33 69  1  0  0  0  0
 33 74  1  0  0  0  0
 33 81  2  0  0  0  0
 34 38  1  0  0  0  0
 35 46  1  0  0  0  0
 36 68  1  0  0  0  0
 37 39  1  0  0  0  0
 38 41  1  0  0  0  0
 39 48  1  0  0  0  0
 40 42  1  0  0  0  0
 40 43  1  0  0  0  0
 41 45  1  0  0  0  0
 42 47  1  0  0  0  0
 43 69  1  0  0  0  0
 44 47  1  0  0  0  0
 44 69  1  0  0  0  0
 45 72  1  0  0  0  0
 46 68  1  0  0  0  0
 47 67  1  0  0  0  0
 48 62  1  0  0  0  0
 48 66  1  0  0  0  0
 50 61  1  0  0  0  0
 51 63  1  0  0  0  0
 52 64  1  0  0  0  0
 53 64  1  0  0  0  0
 54 64  1  0  0  0  0
 55 75  1  0  0  0  0
 56 62  1  0  0  0  0
 56 63  1  0  0  0  0
 57 58  1  0  0  0  0
 57 74  1  0  0  0  0
 58 76  1  0  0  0  0
 59 62  1  0  0  0  0
 59 83  1  0  0  0  0
 60 64  1  0  0  0  0
 60 73  1  0  0  0  0
 61 75  1  0  0  0  0
 63 76  1  0  0  0  0
 65 67  1  0  0  0  0
M  CHG  2  75   1  76   1
M  ISO  4  33 100  59 101  74 100  83 101
M  END
> <Batch ID>
0122

> <Smiles>
CNC(C)C(=O)NC(C(=O)N1Cc2cc([101O:1][101CH2:1]C(CC(C)NCC[100NH:0][100C:0](=O)N3CCCC(n4nc(-c5ccc(Oc6ccc(F)cc6F)cc5)c(C(N)=O)c4N)C3)C3CCC(C)=N3)ccc2CC1C(=O)NC1CCCc2ccccc21)C(C)(C)C

> <Shape>
0.219

> <Color>
0.052

> <Negative vol penalty>
0.000

$$$$

  -OEChem-04052320283D

 79 87  0     1  0  0  0  0  0999 V2000
  -14.7966  -27.7488   22.0626 C   0  0  0  0  0  0  0  0  0  0  0  0
  -15.5522  -27.7831   20.8950 C   0  0  0  0  0  0  0  0  0  0  0  0
  -26.4764  -13.4297   19.2418 C   0  0  0  0  0  0  0  0  0  0  0  0
  -26.6142  -12.8873   21.5921 C   0  0  0  0  0  0  0  0  0  0  0  0
  -15.3039  -28.3045   23.2364 C   0  0  0  0  0  0  0  0  0  0  0  0
  -16.8151  -28.3741   20.9002 C   0  0  0  0  0  0  0  0  0  0  0  0
  -22.6768  -24.6138   19.0585 C   0  0  0  0  0  0  0  0  0  0  0  0
  -25.1583  -12.9742   19.2139 C   0  0  0  0  0  0  0  0  0  0  0  0
  -25.2961  -12.4318   21.5643 C   0  0  0  0  0  0  0  0  0  0  0  0
  -23.8178  -24.0212   18.5169 C   0  0  0  0  0  0  0  0  0  0  0  0
  -23.6385   -9.6607   20.5624 C   0  0  0  0  0  0  0  0  0  0  0  0
  -23.3576   -8.4503   21.1960 C   0  0  0  0  0  0  0  0  0  0  0  0
  -25.1092  -25.9949   19.0505 C   0  0  0  0  0  0  0  0  0  0  0  0
  -21.8047   -9.5787   22.6631 C   0  0  0  0  0  0  0  0  0  0  0  0
  -27.2044  -13.3862   20.4309 C   0  0  0  0  0  0  0  0  0  0  0  0
  -29.6506  -13.3668   19.7075 C   0  0  0  0  0  0  0  0  0  0  0  0
  -16.5777  -28.8941   23.2583 C   0  0  0  0  0  0  0  0  0  0  0  0
  -22.7513  -25.8947   19.6127 C   0  0  0  0  0  0  0  0  0  0  0  0
  -17.3394  -28.9394   22.0751 C   0  0  0  0  0  0  0  0  0  0  0  0
  -23.9725  -26.5886   19.6057 C   0  0  0  0  0  0  0  0  0  0  0  0
  -24.5681  -12.4753   20.3752 C   0  0  0  0  0  0  0  0  0  0  0  0
  -25.0308  -24.7102   18.5127 C   0  0  0  0  0  0  0  0  0  0  0  0
  -23.0025  -10.8302   20.9791 C   0  0  0  0  0  0  0  0  0  0  0  0
  -22.4407   -8.4093   22.2464 C   0  0  0  0  0  0  0  0  0  0  0  0
  -22.0856  -10.7892   22.0294 C   0  0  0  0  0  0  0  0  0  0  0  0
  -28.5662  -13.8560   20.4601 C   0  0  0  0  0  0  0  0  0  0  0  0
  -30.7158  -14.1418   20.0964 C   0  0  0  0  0  0  0  0  0  0  0  0
  -29.6914  -12.3067   18.7431 C   0  0  0  0  0  0  0  0  0  0  0  0
  -20.9517  -28.6998   21.3356 C   0  0  0  0  0  0  0  0  0  0  0  0
  -23.7087  -28.4635   22.6597 C   0  0  0  0  0  0  0  0  0  0  0  0
  -26.3601  -28.4902   24.8060 C   0  0  0  0  0  0  0  0  0  0  0  0
  -31.1229  -19.6562   22.3933 C   0  0  0  0  0  0  0  0  0  0  0  0
  -17.0641  -29.5238   24.5395 C   0  0  0  0  0  0  0  0  0  0  0  0
  -21.5342  -26.5962   20.1515 C   0  0  0  0  0  0  0  0  0  0  0  0
  -23.9977  -27.9781   20.1816 C   0  0  0  0  0  0  0  0  0  0  0  0
  -18.5658  -29.7978   24.5518 C   0  0  0  0  0  0  0  0  0  0  0  0
  -32.3622  -16.6426   23.8281 C   0  0  0  0  0  0  0  0  0  0  0  0
  -18.9978  -30.4622   23.2484 C   0  0  0  0  0  0  0  0  0  0  0  0
  -30.8213  -22.6970   18.4929 C   0  0  0  0  0  0  0  0  0  0  0  0
  -29.7030  -23.6686   20.5407 C   0  0  0  0  0  0  0  0  0  0  0  0
  -31.6277  -15.5425   23.0597 C   0  0  0  0  0  0  0  0  0  0  0  0
  -30.7162  -21.2964   19.0973 C   0  0  0  0  0  0  0  0  0  0  0  0
  -29.5966  -22.2698   21.1490 C   0  0  0  0  0  0  0  0  0  0  0  0
  -31.4698  -17.8593   24.0628 C   0  0  0  0  0  0  0  0  0  0  0  0
  -30.1140  -17.3155   22.0780 C   0  0  0  0  0  0  0  0  0  0  0  0
  -18.7239  -29.5496   22.0468 C   0  0  1  0  0  0  0  0  0  0  0  0
  -21.8417  -27.4921   21.3647 C   0  0  1  0  0  0  0  0  0  0  0  0
  -29.7387  -23.6575   19.0057 C   0  0  0  0  0  0  0  0  0  0  0  0
  -30.9909  -16.0901   21.7683 C   0  0  2  0  0  0  0  0  0  0  0  0
  -30.6990  -21.3468   20.6266 C   0  0  0  0  0  0  0  0  0  0  0  0
  -27.6299  -30.0079   26.3493 C   0  0  0  0  0  0  0  0  0  0  0  0
  -25.0424  -29.7857   20.2562 C   0  0  0  0  0  0  0  0  0  0  0  0
  -26.8834  -30.5340   21.7790 C   0  0  0  0  0  0  0  0  0  0  0  0
  -24.5509  -31.3326   22.1587 C   0  0  0  0  0  0  0  0  0  0  0  0
  -25.7341  -26.8105   27.1610 C   0  0  0  0  0  0  0  0  0  0  0  0
  -28.3660  -23.3325   18.4103 C   0  0  0  0  0  0  0  0  0  0  0  0
  -27.3998  -24.4994   18.5459 C   0  0  0  0  0  0  0  0  0  1  0  0
  -25.1413  -28.9326   22.6910 C   0  0  1  0  0  0  0  0  0  0  0  0
  -26.4988  -28.9984   26.2298 C   0  0  2  0  0  0  0  0  0  0  0  0
  -25.3979  -30.1186   21.7190 C   0  0  0  0  0  0  0  0  0  0  0  0
  -28.9109  -14.8637   21.2663 N   0  0  0  0  0  0  0  0  0  0  0  0
  -30.2239  -15.0139   21.0224 N   0  0  0  0  0  0  0  0  0  0  0  0
  -23.2151  -28.0201   21.4268 N   0  0  0  0  0  0  0  0  0  0  0  0
  -30.8985  -18.3302   22.7988 N   0  0  0  0  0  0  0  0  0  0  0  0
  -32.0159  -14.1554   19.7331 N   0  0  0  0  0  0  0  0  0  0  0  0
  -29.9689  -11.0075   19.1896 N   0  0  0  0  0  0  0  0  0  0  0  0
  -19.7318  -28.5149   21.9579 N   0  0  0  0  0  0  0  0  0  0  0  0
  -25.4436  -29.2283   24.0873 N   0  0  0  0  0  0  0  0  0  0  0  0
  -30.5514  -20.0191   21.1799 N   0  0  0  0  0  0  0  0  0  0  0  0
  -26.7784  -27.8671   27.1586 N   0  3  0  0  0  0  0  0  0  0  0  0
  -29.5039  -12.5083   17.5192 O   0  0  0  0  0  0  0  0  0  0  0  0
  -21.3424  -29.7253   20.7903 O   0  0  0  0  0  0  0  0  0  0  0  0
  -23.0414  -28.4937   23.6975 O   0  0  0  0  0  0  0  0  0  0  0  0
  -27.0034  -27.5365   24.3736 O   0  0  0  0  0  0  0  0  0  0  0  0
  -31.7881  -20.4558   23.0605 O   0  0  0  0  0  0  0  0  0  0  0  0
  -23.2819  -12.0310   20.3484 O   0  0  0  0  0  0  0  0  0  0  0  0
  -26.1418  -24.1241   17.9865 O   0  0  0  0  0  0  0  0  0  1  0  0
  -22.1698   -7.2466   22.8538 F   0  0  0  0  0  0  0  0  0  0  0  0
  -21.4706  -11.9092   22.4334 F   0  0  0  0  0  0  0  0  0  0  0  0
  1  2  1  0  0  0  0
  1  5  2  0  0  0  0
  2  6  2  0  0  0  0
  3  8  2  0  0  0  0
  3 15  1  0  0  0  0
  4  9  1  0  0  0  0
  4 15  2  0  0  0  0
  5 17  1  0  0  0  0
  6 19  1  0  0  0  0
  7 10  2  0  0  0  0
  7 18  1  0  0  0  0
  8 21  1  0  0  0  0
  9 21  2  0  0  0  0
 10 22  1  0  0  0  0
 11 12  2  0  0  0  0
 11 23  1  0  0  0  0
 12 24  1  0  0  0  0
 13 20  1  0  0  0  0
 13 22  2  0  0  0  0
 14 24  2  0  0  0  0
 14 25  1  0  0  0  0
 15 26  1  0  0  0  0
 16 26  1  0  0  0  0
 16 27  2  0  0  0  0
 16 28  1  0  0  0  0
 17 19  2  0  0  0  0
 17 33  1  0  0  0  0
 18 20  2  0  0  0  0
 18 34  1  0  0  0  0
 19 46  1  0  0  0  0
 20 35  1  0  0  0  0
 21 76  1  0  0  0  0
 22 77  1  0  0  0  0
 23 25  2  0  0  0  0
 23 76  1  0  0  0  0
 24 78  1  0  0  0  0
 25 79  1  0  0  0  0
 26 61  2  0  0  0  0
 27 62  1  0  0  0  0
 27 65  1  0  0  0  0
 28 66  1  0  0  0  0
 28 71  2  0  0  0  0
 29 47  1  0  0  0  0
 29 67  1  0  0  0  0
 29 72  2  0  0  0  0
 30 58  1  0  0  0  0
 30 63  1  0  0  0  0
 30 73  2  0  0  0  0
 31 59  1  0  0  0  0
 31 68  1  0  0  0  0
 31 74  2  0  0  0  0
 32 64  1  0  0  0  0
 32 69  1  0  0  0  0
 32 75  2  0  0  0  0
 33 36  1  0  0  0  0
 34 47  1  0  0  0  0
 35 63  1  0  0  0  0
 36 38  1  0  0  0  0
 37 41  1  0  0  0  0
 37 44  1  0  0  0  0
 38 46  1  0  0  0  0
 39 42  1  0  0  0  0
 39 48  1  0  0  0  0
 40 43  1  0  0  0  0
 40 48  1  0  0  0  0
 41 49  1  0  0  0  0
 42 50  1  0  0  0  0
 43 50  1  0  0  0  0
 44 64  1  0  0  0  0
 45 49  1  0  0  0  0
 45 64  1  0  0  0  0
 46 67  1  0  0  0  0
 47 63  1  0  0  0  0
 48 56  1  0  0  0  0
 49 62  1  0  0  0  0
 50 69  1  0  0  0  0
 51 59  1  0  0  0  0
 52 60  1  0  0  0  0
 53 60  1  0  0  0  0
 54 60  1  0  0  0  0
 55 70  1  0  0  0  0
 56 57  1  0  0  0  0
 57 77  1  0  0  0  0
 58 60  1  0  0  0  0
 58 68  1  0  0  0  0
 59 70  1  0  0  0  0
 61 62  1  0  0  0  0
M  CHG  1  70   1
M  ISO  4  32 100  57 101  69 100  77 101
M  END
> <Batch ID>
0122

> <Smiles>
CNC(C)C(=O)NC(C(=O)N1Cc2cc([101O:1][101CH2:1]CC3CCC([100NH:0][100C:0](=O)N4CCCC(n5nc(-c6ccc(Oc7ccc(F)cc7F)cc6)c(C(N)=O)c5N)C4)CC3)ccc2CC1C(=O)NC1CCCc2ccccc21)C(C)(C)C

> <Shape>
0.296

> <Color>
0.069

> <Negative vol penalty>
0.000

$$$$

  -OEChem-04052320283D

 84 92  0     1  0  0  0  0  0999 V2000
  -19.7577  -24.9181   24.2556 C   0  0  0  0  0  0  0  0  0  0  0  0
  -20.8779  -24.9143   23.4306 C   0  0  0  0  0  0  0  0  0  0  0  0
  -27.7447  -15.6369   21.1561 C   0  0  0  0  0  0  0  0  0  0  0  0
  -25.8295  -15.7673   19.6893 C   0  0  0  0  0  0  0  0  0  0  0  0
  -18.8581  -25.9819   24.2026 C   0  0  0  0  0  0  0  0  0  0  0  0
  -21.0985  -25.9738   22.5513 C   0  0  0  0  0  0  0  0  0  0  0  0
  -25.9089  -27.5561   22.5838 C   0  0  0  0  0  0  0  0  0  0  0  0
  -27.5248  -14.2695   21.3217 C   0  0  0  0  0  0  0  0  0  0  0  0
  -25.6096  -14.3999   19.8548 C   0  0  0  0  0  0  0  0  0  0  0  0
  -26.8363  -26.7888   21.8803 C   0  0  0  0  0  0  0  0  0  0  0  0
  -24.2515  -12.3588   22.1830 C   0  0  0  0  0  0  0  0  0  0  0  0
  -22.9429  -11.9366   22.4175 C   0  0  0  0  0  0  0  0  0  0  0  0
  -26.7237  -28.3479   20.0430 C   0  0  0  0  0  0  0  0  0  0  0  0
  -23.0179  -10.5907   20.4125 C   0  0  0  0  0  0  0  0  0  0  0  0
  -26.8970  -16.3859   20.3400 C   0  0  0  0  0  0  0  0  0  0  0  0
  -28.2739  -18.4179   19.6454 C   0  0  0  0  0  0  0  0  0  0  0  0
  -19.0728  -27.0597   23.3292 C   0  0  0  0  0  0  0  0  0  0  0  0
  -25.3728  -28.7212   22.0167 C   0  0  0  0  0  0  0  0  0  0  0  0
  -20.2001  -27.0524   22.4856 C   0  0  0  0  0  0  0  0  0  0  0  0
  -25.7916  -29.1296   20.7423 C   0  0  0  0  0  0  0  0  0  0  0  0
  -26.4573  -13.6510   20.6710 C   0  0  0  0  0  0  0  0  0  0  0  0
  -27.2417  -27.1830   20.6086 C   0  0  0  0  0  0  0  0  0  0  0  0
  -24.9432  -11.8971   21.0631 C   0  0  0  0  0  0  0  0  0  0  0  0
  -22.3261  -11.0525   21.5323 C   0  0  0  0  0  0  0  0  0  0  0  0
  -24.3264  -11.0130   20.1779 C   0  0  0  0  0  0  0  0  0  0  0  0
  -27.1233  -17.7985   20.1690 C   0  0  0  0  0  0  0  0  0  0  0  0
  -27.9931  -19.7615   19.6943 C   0  0  0  0  0  0  0  0  0  0  0  0
  -29.4881  -17.8312   19.1583 C   0  0  0  0  0  0  0  0  0  0  0  0
  -22.4558  -29.6770   21.1911 C   0  0  0  0  0  0  0  0  0  0  0  0
  -23.9657  -32.4876   20.6051 C   0  0  0  0  0  0  0  0  0  0  0  0
  -27.0763  -33.5448   19.1138 C   0  0  0  0  0  0  0  0  0  0  0  0
  -23.5620  -23.4281   19.0338 C   0  0  0  0  0  0  0  0  0  0  0  0
  -18.0475  -28.1644   23.2735 C   0  0  0  0  0  0  0  0  0  0  0  0
  -24.3934  -29.5523   22.7993 C   0  0  0  0  0  0  0  0  0  0  0  0
  -25.2614  -30.3831   20.0972 C   0  0  0  0  0  0  0  0  0  0  0  0
  -18.5514  -29.4287   22.5822 C   0  0  0  0  0  0  0  0  0  0  0  0
  -24.8250  -22.5679   22.2497 C   0  0  0  0  0  0  0  0  0  0  0  0
  -19.2597  -29.0778   21.2777 C   0  0  0  0  0  0  0  0  0  0  0  0
  -25.6534  -21.3079   21.9923 C   0  0  0  0  0  0  0  0  0  0  0  0
  -27.5227  -25.2804   13.4613 C   0  0  0  0  0  0  0  0  0  0  0  0
  -23.5758  -22.6110   21.3723 C   0  0  0  0  0  0  0  0  0  0  0  0
  -27.1423  -26.1229   14.6825 C   0  0  0  0  0  0  0  0  0  0  0  0
  -24.6562  -21.1934   19.6703 C   0  0  0  0  0  0  0  0  0  0  0  0
  -29.0023  -23.7102   15.9579 C   0  0  0  0  0  0  0  0  0  0  0  0
  -20.4869  -28.1955   21.5363 C   0  0  1  0  0  0  0  0  0  0  0  0
  -23.5259  -30.4435   21.9157 C   0  0  1  0  0  0  0  0  0  0  0  0
  -25.9553  -21.1322   20.4919 C   0  0  2  0  0  0  0  0  0  0  0  0
  -28.4690  -25.0642   16.4394 C   0  0  2  0  0  0  0  0  0  0  0  0
  -28.8891  -24.5903   13.5393 C   0  0  2  0  0  0  0  0  0  0  0  0
  -29.2783  -24.0166   12.1779 C   0  0  0  0  0  0  0  0  0  0  0  0
  -28.4579  -35.6024   19.5072 C   0  0  0  0  0  0  0  0  0  0  0  0
  -22.4130  -33.6303   18.2400 C   0  0  0  0  0  0  0  0  0  0  0  0
  -24.5219  -34.7490   17.4855 C   0  0  0  0  0  0  0  0  0  0  0  0
  -23.5162  -35.3438   19.6895 C   0  0  0  0  0  0  0  0  0  0  0  0
  -29.4902  -31.9472   19.7298 C   0  0  0  0  0  0  0  0  0  0  0  0
  -28.5269  -25.1103   17.9751 C   0  0  0  0  0  0  0  0  0  0  0  0
  -24.7540  -25.1456   16.4771 C   0  0  0  0  0  0  0  0  0  0  0  0
  -26.0795  -24.4711   16.1318 C   0  0  0  0  0  0  0  0  0  0  0  0
  -23.6416  -24.1185   16.6513 C   0  0  0  0  0  0  0  0  0  0  0  0
  -28.0539  -26.4492   18.4973 C   0  0  0  0  0  0  0  0  0  1  0  0
  -24.6532  -33.1030   19.4102 C   0  0  1  0  0  0  0  0  0  0  0  0
  -28.2778  -34.1284   19.8351 C   0  0  2  0  0  0  0  0  0  0  0  0
  -23.7752  -34.1783   18.7101 C   0  0  0  0  0  0  0  0  0  0  0  0
  -26.1816  -18.6765   20.5246 N   0  0  0  0  0  0  0  0  0  0  0  0
  -26.7402  -19.8613   20.2240 N   0  0  0  0  0  0  0  0  0  0  0  0
  -24.3012  -31.1585   20.8999 N   0  0  0  0  0  0  0  0  0  0  0  0
  -23.9314  -22.4402   19.9615 N   0  0  0  0  0  0  0  0  0  0  0  0
  -27.1323  -25.4672   15.9899 N   0  0  2  0  0  0  0  0  0  0  0  0
  -28.6981  -20.8554   19.3356 N   0  0  0  0  0  0  0  0  0  0  0  0
  -29.5710  -17.4981   17.7994 N   0  0  0  0  0  0  0  0  0  0  0  0
  -21.5902  -28.9948   22.0245 N   0  0  0  0  0  0  0  0  0  0  0  0
  -25.9380  -33.6004   19.8900 N   0  0  0  0  0  0  0  0  0  0  0  0
  -23.9436  -23.1912   17.7189 N   0  0  0  0  0  0  0  0  0  0  0  0
  -28.8072  -23.4427   14.5034 N   0  3  0  0  0  0  0  0  0  0  0  0
  -29.5198  -33.4044   19.4422 N   0  3  0  0  0  0  0  0  0  0  0  0
  -30.4645  -17.5938   19.9092 O   0  0  0  0  0  0  0  0  0  0  0  0
  -22.4174  -29.7039   19.9666 O   0  0  0  0  0  0  0  0  0  0  0  0
  -23.1660  -33.1635   21.2571 O   0  0  0  0  0  0  0  0  0  0  0  0
  -27.1402  -33.0888   17.9743 O   0  0  0  0  0  0  0  0  0  0  0  0
  -22.9431  -24.4484   19.3545 O   0  0  0  0  0  0  0  0  0  0  0  0
  -26.2426  -12.3166   20.8321 O   0  0  0  0  0  0  0  0  0  0  0  0
  -28.1530  -26.4300   19.9145 O   0  0  0  0  0  0  0  0  0  1  0  0
  -21.0701  -10.6459   21.7585 F   0  0  0  0  0  0  0  0  0  0  0  0
  -24.9863  -10.5650   19.1011 F   0  0  0  0  0  0  0  0  0  0  0  0
  1  2  1  0  0  0  0
  1  5  2  0  0  0  0
  2  6  2  0  0  0  0
  3  8  2  0  0  0  0
  3 15  1  0  0  0  0
  4  9  1  0  0  0  0
  4 15  2  0  0  0  0
  5 17  1  0  0  0  0
  6 19  1  0  0  0  0
  7 10  2  0  0  0  0
  7 18  1  0  0  0  0
  8 21  1  0  0  0  0
  9 21  2  0  0  0  0
 10 22  1  0  0  0  0
 11 12  2  0  0  0  0
 11 23  1  0  0  0  0
 12 24  1  0  0  0  0
 13 20  1  0  0  0  0
 13 22  2  0  0  0  0
 14 24  2  0  0  0  0
 14 25  1  0  0  0  0
 15 26  1  0  0  0  0
 16 26  1  0  0  0  0
 16 27  2  0  0  0  0
 16 28  1  0  0  0  0
 17 19  2  0  0  0  0
 17 33  1  0  0  0  0
 18 20  2  0  0  0  0
 18 34  1  0  0  0  0
 19 45  1  0  0  0  0
 20 35  1  0  0  0  0
 21 81  1  0  0  0  0
 22 82  1  0  0  0  0
 23 25  2  0  0  0  0
 23 81  1  0  0  0  0
 24 83  1  0  0  0  0
 25 84  1  0  0  0  0
 26 64  2  0  0  0  0
 27 65  1  0  0  0  0
 27 69  1  0  0  0  0
 28 70  1  0  0  0  0
 28 76  2  0  0  0  0
 29 46  1  0  0  0  0
 29 71  1  0  0  0  0
 29 77  2  0  0  0  0
 30 61  1  0  0  0  0
 30 66  1  0  0  0  0
 30 78  2  0  0  0  0
 31 62  1  0  0  0  0
 31 72  1  0  0  0  0
 31 79  2  0  0  0  0
 32 67  1  0  0  0  0
 32 73  1  0  0  0  0
 32 80  2  0  0  0  0
 33 36  1  0  0  0  0
 34 46  1  0  0  0  0
 35 66  1  0  0  0  0
 36 38  1  0  0  0  0
 37 39  1  0  0  0  0
 37 41  1  0  0  0  0
 38 45  1  0  0  0  0
 39 47  1  0  0  0  0
 40 42  1  0  0  0  0
 40 49  1  0  0  0  0
 41 67  1  0  0  0  0
 42 68  1  0  0  0  0
 43 47  1  0  0  0  0
 43 67  1  0  0  0  0
 44 48  1  0  0  0  0
 44 74  1  0  0  0  0
 45 71  1  0  0  0  0
 46 66  1  0  0  0  0
 47 65  1  0  0  0  0
 48 56  1  0  0  0  0
 48 68  1  0  0  0  0
 49 50  1  0  0  0  0
 49 74  1  0  0  0  0
 51 62  1  0  0  0  0
 52 63  1  0  0  0  0
 53 63  1  0  0  0  0
 54 63  1  0  0  0  0
 55 75  1  0  0  0  0
 56 60  1  0  0  0  0
 57 58  1  0  0  0  0
 57 59  1  0  0  0  0
 58 68  1  0  0  0  0
 59 73  1  0  0  0  0
 60 82  1  0  0  0  0
 61 63  1  0  0  0  0
 61 72  1  0  0  0  0
 62 75  1  0  0  0  0
 64 65  1  0  0  0  0
M  CHG  2  74   1  75   1
M  ISO  4  32 100  60 101  73 100  82 101
M  END
> <Batch ID>
0122

> <Smiles>
CNC(C)C(=O)NC(C(=O)N1Cc2cc([101O:1][101CH2:1]CC3CNC(C)CCN3CCC[100NH:0][100C:0](=O)N3CCCC(n4nc(-c5ccc(Oc6ccc(F)cc6F)cc5)c(C(N)=O)c4N)C3)ccc2CC1C(=O)NC1CCCc2ccccc21)C(C)(C)C

> <Shape>
0.209

> <Color>
0.103

> <Negative vol penalty>
0.000

$$$$

  -OEChem-04052320283D

 86 95  0     1  0  0  0  0  0999 V2000
  -25.2587  -33.8254   22.3687 C   0  0  0  0  0  0  0  0  0  0  0  0
  -24.9739  -33.1928   23.5745 C   0  0  0  0  0  0  0  0  0  0  0  0
  -22.6048  -10.2104   20.4733 C   0  0  0  0  0  0  0  0  0  0  0  0
  -24.0985   -9.8265   22.3330 C   0  0  0  0  0  0  0  0  0  0  0  0
  -25.2900  -33.0876   21.1861 C   0  0  0  0  0  0  0  0  0  0  0  0
  -24.7190  -31.8221   23.5983 C   0  0  0  0  0  0  0  0  0  0  0  0
  -28.2141  -26.1550   27.6844 C   0  0  0  0  0  0  0  0  0  0  0  0
  -21.8343   -9.1160   20.8662 C   0  0  0  0  0  0  0  0  0  0  0  0
  -23.3280   -8.7322   22.7260 C   0  0  0  0  0  0  0  0  0  0  0  0
  -28.8572  -25.0459   28.2343 C   0  0  0  0  0  0  0  0  0  0  0  0
  -22.9288   -5.5052   21.7996 C   0  0  0  0  0  0  0  0  0  0  0  0
  -23.5991   -4.3340   22.1525 C   0  0  0  0  0  0  0  0  0  0  0  0
  -28.1056  -23.6801   26.3855 C   0  0  0  0  0  0  0  0  0  0  0  0
  -30.7451  -21.1065   26.2110 C   0  0  0  0  0  0  0  0  0  0  0  0
  -22.6309   -4.4460   24.3632 C   0  0  0  0  0  0  0  0  0  0  0  0
  -28.6647  -20.0329   25.7914 C   0  0  0  0  0  0  0  0  0  0  0  0
  -23.7369  -10.5656   21.2066 C   0  0  0  0  0  0  0  0  0  0  0  0
  -24.1136  -13.0343   20.6860 C   0  0  0  0  0  0  0  0  0  0  0  0
  -25.0449  -31.7054   21.1967 C   0  0  0  0  0  0  0  0  0  0  0  0
  -27.5264  -26.0344   26.4736 C   0  0  0  0  0  0  0  0  0  0  0  0
  -24.7457  -31.0653   22.4146 C   0  0  0  0  0  0  0  0  0  0  0  0
  -27.4701  -24.7906   25.8235 C   0  0  0  0  0  0  0  0  0  0  0  0
  -29.4349  -20.8524   26.6008 C   0  0  0  0  0  0  0  0  0  0  0  0
  -31.2383  -20.5413   25.0402 C   0  0  0  0  0  0  0  0  0  0  0  0
  -22.1959   -8.3769   21.9925 C   0  0  0  0  0  0  0  0  0  0  0  0
  -28.8028  -23.8115   27.5865 C   0  0  0  0  0  0  0  0  0  0  0  0
  -22.1096   -6.1469   22.7285 C   0  0  0  0  0  0  0  0  0  0  0  0
  -23.4502   -3.8044   23.4343 C   0  0  0  0  0  0  0  0  0  0  0  0
  -21.9607   -5.6173   24.0103 C   0  0  0  0  0  0  0  0  0  0  0  0
  -24.5335  -11.6956   20.8009 C   0  0  0  0  0  0  0  0  0  0  0  0
  -30.3875  -19.7356   24.3008 C   0  0  0  0  0  0  0  0  0  0  0  0
  -25.2341  -13.7113   20.2705 C   0  0  0  0  0  0  0  0  0  0  0  0
  -22.8257  -13.6142   20.9327 C   0  0  0  0  0  0  0  0  0  0  0  0
  -25.4941  -27.7283   23.8135 C   0  0  0  0  0  0  0  0  0  0  0  0
  -27.4241  -25.8216   22.3816 C   0  0  0  0  0  0  0  0  0  0  0  0
  -30.0903  -24.4829   21.3805 C   0  0  0  0  0  0  0  0  0  0  0  0
  -30.7072  -14.7435   20.6251 C   0  0  0  0  0  0  0  0  0  0  0  0
  -25.0431  -30.9583   19.8865 C   0  0  0  0  0  0  0  0  0  0  0  0
  -26.7675  -27.1878   25.8758 C   0  0  0  0  0  0  0  0  0  0  0  0
  -26.6895  -24.6996   24.5408 C   0  0  0  0  0  0  0  0  0  0  0  0
  -25.1308  -29.4430   20.0493 C   0  0  0  0  0  0  0  0  0  0  0  0
  -31.1722  -19.3623   20.5147 C   0  0  0  0  0  0  0  0  0  0  0  0
  -29.6909  -11.9924   18.6065 C   0  0  0  0  0  0  0  0  0  0  0  0
  -24.1545  -28.9636   21.1187 C   0  0  0  0  0  0  0  0  0  0  0  0
  -30.6707  -20.0150   21.8010 C   0  0  0  0  0  0  0  0  0  0  0  0
  -28.2265  -11.7767   18.9925 C   0  0  0  0  0  0  0  0  0  0  0  0
  -30.5233  -17.9993   20.2835 C   0  0  0  0  0  0  0  0  0  0  0  0
  -30.2116  -17.7191   22.7779 C   0  0  0  0  0  0  0  0  0  0  0  0
  -30.5354  -12.4114   19.8078 C   0  0  0  0  0  0  0  0  0  0  0  0
  -28.5608  -13.3666   20.9313 C   0  0  0  0  0  0  0  0  0  0  0  0
  -24.4882  -29.5757   22.4846 C   0  0  1  0  0  0  0  0  0  0  0  0
  -30.8708  -19.0908   23.0142 C   0  0  2  0  0  0  0  0  0  0  0  0
  -26.7957  -27.1959   24.3368 C   0  0  1  0  0  0  0  0  0  0  0  0
  -27.6585  -12.9971   19.7415 C   0  0  2  0  0  0  0  0  0  0  0  0
  -30.7214  -17.0714   21.4852 C   0  0  1  0  0  0  0  0  0  0  0  0
  -32.6406  -20.8109   24.6158 C   0  0  0  0  0  0  0  0  0  0  0  0
  -29.1100  -20.5612   29.0813 C   0  0  0  0  0  0  0  0  0  0  0  0
  -31.5157  -23.2739   19.7060 C   0  0  0  0  0  0  0  0  0  0  0  0
  -25.1592  -23.8037   22.0615 C   0  0  0  0  0  0  0  0  0  0  0  0
  -26.6509  -22.4758   20.5517 C   0  0  0  0  0  0  0  0  0  0  0  0
  -25.9844  -24.7948   19.9188 C   0  0  0  0  0  0  0  0  0  0  0  0
  -32.0790  -26.6738   21.3184 C   0  0  0  0  0  0  0  0  0  0  0  0
  -28.8685  -21.4506   27.8682 C   0  0  1  0  0  0  0  0  0  1  0  0
  -27.6444  -24.4505   21.7944 C   0  0  1  0  0  0  0  0  0  0  0  0
  -31.1076  -24.6288   20.2633 C   0  0  2  0  0  0  0  0  0  0  0  0
  -26.3679  -23.8875   21.1081 C   0  0  0  0  0  0  0  0  0  0  0  0
  -29.1089  -19.4659   24.6473 N   0  0  0  0  0  0  0  0  0  0  0  0
  -25.8204  -11.5299   20.4840 N   0  0  0  0  0  0  0  0  0  0  0  0
  -26.2187  -12.7733   20.1657 N   0  0  0  0  0  0  0  0  0  0  0  0
  -26.9622  -25.8774   23.7022 N   0  0  0  0  0  0  0  0  0  0  0  0
  -29.9433  -13.5746   20.4727 N   0  0  0  0  0  0  0  0  0  0  0  0
  -25.4634  -15.0113   19.9883 N   0  0  0  0  0  0  0  0  0  0  0  0
  -22.5404  -14.0840   22.2220 N   0  0  0  0  0  0  0  0  0  0  0  0
  -25.6165  -28.8941   23.0818 N   0  0  0  0  0  0  0  0  0  0  0  0
  -28.7975  -24.5664   20.9082 N   0  0  0  0  0  0  0  0  0  0  0  0
  -30.0681  -15.8012   21.2605 N   0  0  0  0  0  0  0  0  0  0  0  0
  -32.3303  -25.3190   20.7630 N   0  3  0  0  0  0  0  0  0  0  0  0
  -21.9478  -13.6978   20.0406 O   0  0  0  0  0  0  0  0  0  0  0  0
  -24.4545  -27.1256   24.0538 O   0  0  0  0  0  0  0  0  0  0  0  0
  -27.6491  -26.8178   21.6886 O   0  0  0  0  0  0  0  0  0  0  0  0
  -30.4103  -24.3082   22.5543 O   0  0  0  0  0  0  0  0  0  0  0  0
  -31.8706  -14.8394   20.2198 O   0  0  0  0  0  0  0  0  0  0  0  0
  -21.4442   -7.3092   22.3764 O   0  0  0  0  0  0  0  0  0  0  0  0
  -29.4367  -22.7338   28.1266 O   0  0  0  0  0  0  0  0  0  1  0  0
  -24.0927   -2.6788   23.7726 F   0  0  0  0  0  0  0  0  0  0  0  0
  -21.1741   -6.2286   24.9066 F   0  0  0  0  0  0  0  0  0  0  0  0
  1  2  1  0  0  0  0
  1  5  2  0  0  0  0
  2  6  2  0  0  0  0
  3  8  2  0  0  0  0
  3 17  1  0  0  0  0
  4  9  1  0  0  0  0
  4 17  2  0  0  0  0
  5 19  1  0  0  0  0
  6 21  1  0  0  0  0
  7 10  2  0  0  0  0
  7 20  1  0  0  0  0
  8 25  1  0  0  0  0
  9 25  2  0  0  0  0
 10 26  1  0  0  0  0
 11 12  2  0  0  0  0
 11 27  1  0  0  0  0
 12 28  1  0  0  0  0
 13 22  1  0  0  0  0
 13 26  2  0  0  0  0
 14 23  2  0  0  0  0
 14 24  1  0  0  0  0
 15 28  2  0  0  0  0
 15 29  1  0  0  0  0
 16 23  1  0  0  0  0
 16 67  2  0  0  0  0
 17 30  1  0  0  0  0
 18 30  1  0  0  0  0
 18 32  2  0  0  0  0
 18 33  1  0  0  0  0
 19 21  2  0  0  0  0
 19 38  1  0  0  0  0
 20 22  2  0  0  0  0
 20 39  1  0  0  0  0
 21 51  1  0  0  0  0
 22 40  1  0  0  0  0
 23 63  1  0  0  0  0
 24 31  2  0  0  0  0
 24 56  1  0  0  0  0
 25 83  1  0  0  0  0
 26 84  1  0  0  0  0
 27 29  2  0  0  0  0
 27 83  1  0  0  0  0
 28 85  1  0  0  0  0
 29 86  1  0  0  0  0
 30 68  2  0  0  0  0
 31 52  1  0  0  0  0
 31 67  1  0  0  0  0
 32 69  1  0  0  0  0
 32 72  1  0  0  0  0
 33 73  1  0  0  0  0
 33 78  2  0  0  0  0
 34 53  1  0  0  0  0
 34 74  1  0  0  0  0
 34 79  2  0  0  0  0
 35 64  1  0  0  0  0
 35 70  1  0  0  0  0
 35 80  2  0  0  0  0
 36 65  1  0  0  0  0
 36 75  1  0  0  0  0
 36 81  2  0  0  0  0
 37 71  1  0  0  0  0
 37 76  1  0  0  0  0
 37 82  2  0  0  0  0
 38 41  1  0  0  0  0
 39 53  1  0  0  0  0
 40 70  1  0  0  0  0
 41 44  1  0  0  0  0
 42 45  1  0  0  0  0
 42 47  1  0  0  0  0
 43 46  1  0  0  0  0
 43 49  1  0  0  0  0
 44 51  1  0  0  0  0
 45 52  1  0  0  0  0
 46 54  1  0  0  0  0
 47 55  1  0  0  0  0
 48 52  1  0  0  0  0
 48 55  1  0  0  0  0
 49 71  1  0  0  0  0
 50 54  1  0  0  0  0
 50 71  1  0  0  0  0
 51 74  1  0  0  0  0
 53 70  1  0  0  0  0
 54 69  1  0  0  0  0
 55 76  1  0  0  0  0
 57 63  1  0  0  0  0
 58 65  1  0  0  0  0
 59 66  1  0  0  0  0
 60 66  1  0  0  0  0
 61 66  1  0  0  0  0
 62 77  1  0  0  0  0
 63 84  1  0  0  0  0
 64 66  1  0  0  0  0
 64 75  1  0  0  0  0
 65 77  1  0  0  0  0
 68 69  1  0  0  0  0
M  CHG  1  77   1
M  ISO  4  37 100  63 101  76 100  84 101
M  END
> <Batch ID>
0122

> <Smiles>
CNC(C)C(=O)NC(C(=O)N1Cc2cc([101O:1][101CH:1](C)c3cnc(C4CCCC([100NH:0][100C:0](=O)N5CCCC(n6nc(-c7ccc(Oc8ccc(F)cc8F)cc7)c(C(N)=O)c6N)C5)C4)c(C)c3)ccc2CC1C(=O)NC1CCCc2ccccc21)C(C)(C)C

> <Shape>
0.256

> <Color>
0.170

> <Negative vol penalty>
0.000

$$$$

  -OEChem-04052320283D

 84 92  0     1  0  0  0  0  0999 V2000
  -19.9950  -34.3107   21.2567 C   0  0  0  0  0  0  0  0  0  0  0  0
  -21.2091  -33.7769   20.8367 C   0  0  0  0  0  0  0  0  0  0  0  0
  -24.3828  -13.8342   21.0128 C   0  0  0  0  0  0  0  0  0  0  0  0
  -26.7498  -13.4817   20.6810 C   0  0  0  0  0  0  0  0  0  0  0  0
  -19.3282  -33.7509   22.3457 C   0  0  0  0  0  0  0  0  0  0  0  0
  -21.7576  -32.6835   21.5061 C   0  0  0  0  0  0  0  0  0  0  0  0
  -25.0071  -28.1123   19.0463 C   0  0  0  0  0  0  0  0  0  0  0  0
  -24.1261  -12.5419   20.5549 C   0  0  0  0  0  0  0  0  0  0  0  0
  -26.4932  -12.1894   20.2230 C   0  0  0  0  0  0  0  0  0  0  0  0
  -26.3784  -27.8742   18.9649 C   0  0  0  0  0  0  0  0  0  0  0  0
  -22.8766   -9.2095   19.8139 C   0  0  0  0  0  0  0  0  0  0  0  0
  -21.9699   -8.4337   20.5360 C   0  0  0  0  0  0  0  0  0  0  0  0
  -26.2470  -26.4809   20.9297 C   0  0  0  0  0  0  0  0  0  0  0  0
  -23.3747   -8.6141   22.4934 C   0  0  0  0  0  0  0  0  0  0  0  0
  -30.8025  -22.0482   23.3852 C   0  0  0  0  0  0  0  0  0  0  0  0
  -25.6946  -14.3041   21.0758 C   0  0  0  0  0  0  0  0  0  0  0  0
  -26.2061  -16.0380   22.8758 C   0  0  0  0  0  0  0  0  0  0  0  0
  -19.8640  -32.6441   23.0228 C   0  0  0  0  0  0  0  0  0  0  0  0
  -24.2460  -27.5443   20.0781 C   0  0  0  0  0  0  0  0  0  0  0  0
  -21.0980  -32.1092   22.6060 C   0  0  0  0  0  0  0  0  0  0  0  0
  -24.8657  -26.7112   21.0205 C   0  0  0  0  0  0  0  0  0  0  0  0
  -25.1813  -11.7195   20.1600 C   0  0  0  0  0  0  0  0  0  0  0  0
  -26.9990  -27.0608   19.9083 C   0  0  0  0  0  0  0  0  0  0  0  0
  -24.0324   -9.6876   20.4314 C   0  0  0  0  0  0  0  0  0  0  0  0
  -22.2189   -8.1360   21.8758 C   0  0  0  0  0  0  0  0  0  0  0  0
  -24.2814   -9.3899   21.7712 C   0  0  0  0  0  0  0  0  0  0  0  0
  -25.9604  -15.6392   21.5483 C   0  0  0  0  0  0  0  0  0  0  0  0
  -31.1148  -24.5649   22.5511 C   0  0  0  0  0  0  0  0  0  0  0  0
  -31.7395  -24.1115   23.6920 C   0  0  0  0  0  0  0  0  0  0  0  0
  -30.1771  -22.5017   22.2447 C   0  0  0  0  0  0  0  0  0  0  0  0
  -26.3980  -17.3957   22.7965 C   0  0  0  0  0  0  0  0  0  0  0  0
  -26.2564  -15.2514   24.0735 C   0  0  0  0  0  0  0  0  0  0  0  0
  -22.5038  -28.6947   22.4750 C   0  0  0  0  0  0  0  0  0  0  0  0
  -21.7361  -25.5719   22.9008 C   0  0  0  0  0  0  0  0  0  0  0  0
  -22.5755  -22.2947   22.4512 C   0  0  0  0  0  0  0  0  0  0  0  0
  -28.6470  -21.8623   20.3483 C   0  0  0  0  0  0  0  0  0  0  0  0
  -19.1300  -32.1028   24.2240 C   0  0  0  0  0  0  0  0  0  0  0  0
  -22.7631  -27.7892   20.1364 C   0  0  0  0  0  0  0  0  0  0  0  0
  -24.0900  -26.0611   22.1359 C   0  0  0  0  0  0  0  0  0  0  0  0
  -19.5945  -30.7111   24.6455 C   0  0  0  0  0  0  0  0  0  0  0  0
  -25.6090  -20.6161   18.9719 C   0  0  0  0  0  0  0  0  0  0  0  0
  -21.1180  -30.6444   24.6796 C   0  0  0  0  0  0  0  0  0  0  0  0
  -25.4498  -19.2430   19.6287 C   0  0  0  0  0  0  0  0  0  0  0  0
  -27.0720  -20.9324   18.6662 C   0  0  0  0  0  0  0  0  0  0  0  0
  -27.8280  -19.4269   20.4637 C   0  0  0  0  0  0  0  0  0  0  0  0
  -21.7129  -30.9081   23.2910 C   0  0  1  0  0  0  0  0  0  0  0  0
  -22.1764  -27.5748   21.5282 C   0  0  1  0  0  0  0  0  0  0  0  0
  -26.3782  -19.0913   20.8496 C   0  0  2  0  0  0  0  0  0  0  0  0
  -34.0709  -24.5084   24.5640 C   0  0  0  0  0  0  0  0  0  0  0  0
  -32.0757  -25.2108   25.9354 C   0  0  0  0  0  0  0  0  0  0  0  0
  -22.3155  -19.7990   22.4833 C   0  0  0  0  0  0  0  0  0  0  0  0
  -31.1623  -27.5038   20.0740 C   0  0  0  0  0  0  0  0  0  0  0  0
  -22.6169  -25.8810   25.8057 C   0  0  0  0  0  0  0  0  0  0  0  0
  -22.6967  -23.3843   25.9743 C   0  0  0  0  0  0  0  0  0  0  0  0
  -20.5362  -24.5311   25.4845 C   0  0  0  0  0  0  0  0  0  0  0  0
  -21.3060  -22.2764   19.7778 C   0  0  0  0  0  0  0  0  0  0  0  0
  -31.2856  -25.9862   22.0723 C   0  0  0  0  0  0  0  0  0  0  0  0
  -29.0268  -26.5899   21.0583 C   0  0  0  0  0  0  0  0  0  1  0  0
  -32.6131  -25.0035   24.5064 C   0  0  0  0  0  0  0  0  0  0  0  0
  -22.3178  -24.4265   23.6936 C   0  0  1  0  0  0  0  0  0  0  0  0
  -21.7756  -21.1115   21.9368 C   0  0  2  0  0  0  0  0  0  0  0  0
  -30.5099  -26.3078   20.7792 C   0  0  1  0  0  0  0  0  0  0  0  0
  -22.0571  -24.5694   25.2197 C   0  0  0  0  0  0  0  0  0  0  0  0
  -31.5948  -22.8449   24.1294 N   0  0  0  0  0  0  0  0  0  0  0  0
  -25.9925  -16.6609   20.6886 N   0  0  0  0  0  0  0  0  0  0  0  0
  -30.3222  -23.7682   21.8071 N   0  0  0  0  0  0  0  0  0  0  0  0
  -26.2606  -17.7152   21.4777 N   0  0  0  0  0  0  0  0  0  0  0  0
  -22.6438  -26.3362   22.1539 N   0  0  0  0  0  0  0  0  0  0  0  0
  -27.8905  -20.7716   19.8700 N   0  0  0  0  0  0  0  0  0  0  0  0
  -26.6691  -18.3355   23.7270 N   0  0  0  0  0  0  0  0  0  0  0  0
  -26.0364  -13.8707   23.9759 N   0  0  0  0  0  0  0  0  0  0  0  0
  -29.3599  -21.6007   21.5179 N   0  0  0  0  0  0  0  0  0  0  0  0
  -21.5907  -29.7317   22.4571 N   0  0  0  0  0  0  0  0  0  0  0  0
  -21.7749  -23.2063   23.1064 N   0  0  0  0  0  0  0  0  0  0  0  0
  -21.8287  -21.0581   20.4484 N   0  3  0  0  0  0  0  0  0  0  0  0
  -26.4734  -15.7604   25.1993 O   0  0  0  0  0  0  0  0  0  0  0  0
  -23.5096  -28.6225   23.1713 O   0  0  0  0  0  0  0  0  0  0  0  0
  -20.5202  -25.7765   22.9370 O   0  0  0  0  0  0  0  0  0  0  0  0
  -23.7897  -22.3980   22.2913 O   0  0  0  0  0  0  0  0  0  0  0  0
  -28.6400  -22.9566   19.7786 O   0  0  0  0  0  0  0  0  0  0  0  0
  -24.9312  -10.4584   19.7133 O   0  0  0  0  0  0  0  0  0  0  0  0
  -28.3375  -26.8273   19.8316 O   0  0  0  0  0  0  0  0  0  1  0  0
  -21.3474   -7.3923   22.5697 F   0  0  0  0  0  0  0  0  0  0  0  0
  -25.3894   -9.8473   22.3702 F   0  0  0  0  0  0  0  0  0  0  0  0
  1  2  1  0  0  0  0
  1  5  2  0  0  0  0
  2  6  2  0  0  0  0
  3  8  2  0  0  0  0
  3 16  1  0  0  0  0
  4  9  1  0  0  0  0
  4 16  2  0  0  0  0
  5 18  1  0  0  0  0
  6 20  1  0  0  0  0
  7 10  2  0  0  0  0
  7 19  1  0  0  0  0
  8 22  1  0  0  0  0
  9 22  2  0  0  0  0
 10 23  1  0  0  0  0
 11 12  2  0  0  0  0
 11 24  1  0  0  0  0
 12 25  1  0  0  0  0
 13 21  1  0  0  0  0
 13 23  2  0  0  0  0
 14 25  2  0  0  0  0
 14 26  1  0  0  0  0
 15 30  1  0  0  0  0
 15 64  2  0  0  0  0
 16 27  1  0  0  0  0
 17 27  1  0  0  0  0
 17 31  2  0  0  0  0
 17 32  1  0  0  0  0
 18 20  2  0  0  0  0
 18 37  1  0  0  0  0
 19 21  2  0  0  0  0
 19 38  1  0  0  0  0
 20 46  1  0  0  0  0
 21 39  1  0  0  0  0
 22 81  1  0  0  0  0
 23 82  1  0  0  0  0
 24 26  2  0  0  0  0
 24 81  1  0  0  0  0
 25 83  1  0  0  0  0
 26 84  1  0  0  0  0
 27 65  2  0  0  0  0
 28 29  2  0  0  0  0
 28 57  1  0  0  0  0
 28 66  1  0  0  0  0
 29 59  1  0  0  0  0
 29 64  1  0  0  0  0
 30 66  2  0  0  0  0
 30 72  1  0  0  0  0
 31 67  1  0  0  0  0
 31 70  1  0  0  0  0
 32 71  1  0  0  0  0
 32 76  2  0  0  0  0
 33 47  1  0  0  0  0
 33 73  1  0  0  0  0
 33 77  2  0  0  0  0
 34 60  1  0  0  0  0
 34 68  1  0  0  0  0
 34 78  2  0  0  0  0
 35 61  1  0  0  0  0
 35 74  1  0  0  0  0
 35 79  2  0  0  0  0
 36 69  1  0  0  0  0
 36 72  1  0  0  0  0
 36 80  2  0  0  0  0
 37 40  1  0  0  0  0
 38 47  1  0  0  0  0
 39 68  1  0  0  0  0
 40 42  1  0  0  0  0
 41 43  1  0  0  0  0
 41 44  1  0  0  0  0
 42 46  1  0  0  0  0
 43 48  1  0  0  0  0
 44 69  1  0  0  0  0
 45 48  1  0  0  0  0
 45 69  1  0  0  0  0
 46 73  1  0  0  0  0
 47 68  1  0  0  0  0
 48 67  1  0  0  0  0
 49 59  1  0  0  0  0
 50 59  1  0  0  0  0
 51 61  1  0  0  0  0
 52 62  1  0  0  0  0
 53 63  1  0  0  0  0
 54 63  1  0  0  0  0
 55 63  1  0  0  0  0
 56 75  1  0  0  0  0
 57 62  1  0  0  0  0
 58 62  1  0  0  0  0
 58 82  1  0  0  0  0
 60 63  1  0  0  0  0
 60 74  1  0  0  0  0
 61 75  1  0  0  0  0
 65 67  1  0  0  0  0
M  CHG  1  75   1
M  ISO  4  36 100  58 101  72 100  82 101
M  END
> <Batch ID>
0122

> <Smiles>
CNC(C)C(=O)NC(C(=O)N1Cc2cc([101O:1][101CH2:1]C(C)Cc3nc([100NH:0][100C:0](=O)N4CCCC(n5nc(-c6ccc(Oc7ccc(F)cc7F)cc6)c(C(N)=O)c5N)C4)cnc3C(C)C)ccc2CC1C(=O)NC1CCCc2ccccc21)C(C)(C)C

> <Shape>
0.198

> <Color>
0.101

> <Negative vol penalty>
0.000

$$$$

  -OEChem-04052320283D

 88 97  0     1  0  0  0  0  0999 V2000
  -20.0511  -24.0168   23.0769 C   0  0  0  0  0  0  0  0  0  0  0  0
  -21.2175  -24.4053   22.4257 C   0  0  0  0  0  0  0  0  0  0  0  0
  -24.2853  -16.2315   23.2395 C   0  0  0  0  0  0  0  0  0  0  0  0
  -25.5696  -14.5654   24.4275 C   0  0  0  0  0  0  0  0  0  0  0  0
  -19.0318  -24.9437   23.2911 C   0  0  0  0  0  0  0  0  0  0  0  0
  -21.3649  -25.7208   21.9874 C   0  0  0  0  0  0  0  0  0  0  0  0
  -25.9270  -27.6313   23.0746 C   0  0  0  0  0  0  0  0  0  0  0  0
  -29.4142  -21.0068   15.7519 C   0  0  0  0  0  0  0  0  0  0  0  0
  -24.0633  -16.9135   24.4358 C   0  0  0  0  0  0  0  0  0  0  0  0
  -25.3477  -15.2474   25.6239 C   0  0  0  0  0  0  0  0  0  0  0  0
  -26.9892  -27.2476   22.2572 C   0  0  0  0  0  0  0  0  0  0  0  0
  -26.5797  -17.9694   27.2029 C   0  0  0  0  0  0  0  0  0  0  0  0
  -27.6687  -18.1505   28.0555 C   0  0  0  0  0  0  0  0  0  0  0  0
  -29.2625  -22.3499   16.0779 C   0  0  0  0  0  0  0  0  0  0  0  0
  -26.8111  -29.3326   21.0571 C   0  0  0  0  0  0  0  0  0  0  0  0
  -26.5149  -16.9257   29.7892 C   0  0  0  0  0  0  0  0  0  0  0  0
  -25.0384  -15.0574   23.2353 C   0  0  0  0  0  0  0  0  0  0  0  0
  -24.2961  -13.8037   21.1414 C   0  0  0  0  0  0  0  0  0  0  0  0
  -19.1708  -26.2736   22.8637 C   0  0  0  0  0  0  0  0  0  0  0  0
  -25.2906  -28.8659   22.8821 C   0  0  0  0  0  0  0  0  0  0  0  0
  -20.3460  -26.6661   22.1949 C   0  0  0  0  0  0  0  0  0  0  0  0
  -30.5623  -20.3274   16.1439 C   0  0  0  0  0  0  0  0  0  0  0  0
  -25.7427  -29.7307   21.8751 C   0  0  0  0  0  0  0  0  0  0  0  0
  -24.5945  -16.4215   25.6280 C   0  0  0  0  0  0  0  0  0  0  0  0
  -27.4296  -28.0970   21.2464 C   0  0  0  0  0  0  0  0  0  0  0  0
  -25.4583  -17.2665   27.6434 C   0  0  0  0  0  0  0  0  0  0  0  0
  -27.6363  -17.6286   29.3486 C   0  0  0  0  0  0  0  0  0  0  0  0
  -25.4260  -16.7446   28.9366 C   0  0  0  0  0  0  0  0  0  0  0  0
  -25.2676  -14.3521   22.0000 C   0  0  0  0  0  0  0  0  0  0  0  0
  -30.2797  -22.9630   16.7914 C   0  0  0  0  0  0  0  0  0  0  0  0
  -31.5215  -21.0311   16.8543 C   0  0  0  0  0  0  0  0  0  0  0  0
  -25.0197  -13.2459   20.1159 C   0  0  0  0  0  0  0  0  0  0  0  0
  -22.8672  -13.7989   21.2601 C   0  0  0  0  0  0  0  0  0  0  0  0
  -22.3417  -29.7748   22.1196 C   0  0  0  0  0  0  0  0  0  0  0  0
  -23.5270  -32.7402   22.6887 C   0  0  0  0  0  0  0  0  0  0  0  0
  -26.2525  -34.7867   22.8626 C   0  0  0  0  0  0  0  0  0  0  0  0
  -30.4607  -14.3694   17.8833 C   0  0  0  0  0  0  0  0  0  0  0  0
  -18.0223  -27.2280   23.0757 C   0  0  0  0  0  0  0  0  0  0  0  0
  -24.1636  -29.2766   23.7895 C   0  0  0  0  0  0  0  0  0  0  0  0
  -25.1066  -31.0756   21.6403 C   0  0  0  0  0  0  0  0  0  0  0  0
  -18.4115  -28.6951   22.9132 C   0  0  0  0  0  0  0  0  0  0  0  0
  -30.2637  -17.0427   14.0918 C   0  0  0  0  0  0  0  0  0  0  0  0
  -29.2758  -11.2716   19.1780 C   0  0  0  0  0  0  0  0  0  0  0  0
  -30.0733  -18.5163   14.4445 C   0  0  0  0  0  0  0  0  0  0  0  0
  -19.2467  -28.8892   21.6516 C   0  0  0  0  0  0  0  0  0  0  0  0
  -28.0265  -11.6604   19.9706 C   0  0  0  0  0  0  0  0  0  0  0  0
  -29.7605  -16.1265   15.2051 C   0  0  0  0  0  0  0  0  0  0  0  0
  -30.2210  -17.9373   16.9101 C   0  0  0  0  0  0  0  0  0  0  0  0
  -30.3682  -12.3327   19.2904 C   0  0  0  0  0  0  0  0  0  0  0  0
  -28.6941  -14.0880   19.7262 C   0  0  0  0  0  0  0  0  0  0  0  0
  -30.7344  -18.8612   15.7899 C   0  0  2  0  0  0  0  0  0  0  0  0
  -20.5534  -28.0901   21.7266 C   0  0  1  0  0  0  0  0  0  0  0  0
  -23.2552  -30.3357   23.1724 C   0  0  1  0  0  0  0  0  0  0  0  0
  -27.5436  -13.0750   19.5978 C   0  0  2  0  0  0  0  0  0  0  0  0
  -30.4167  -16.4606   16.5475 C   0  0  1  0  0  0  0  0  0  0  0  0
  -32.7735  -20.3521   17.3040 C   0  0  0  0  0  0  0  0  0  0  0  0
  -26.9021  -37.1682   23.3137 C   0  0  0  0  0  0  0  0  0  0  0  0
  -22.5272  -33.5353   19.9178 C   0  0  0  0  0  0  0  0  0  0  0  0
  -24.0017  -35.5549   20.0417 C   0  0  0  0  0  0  0  0  0  0  0  0
  -22.1568  -35.2565   21.6940 C   0  0  0  0  0  0  0  0  0  0  0  0
  -27.9116  -34.0153   25.1888 C   0  0  0  0  0  0  0  0  0  0  0  0
  -30.1477  -24.4184   17.1635 C   0  0  0  0  0  0  0  0  0  0  0  0
  -29.4683  -24.6521   18.5174 C   0  0  0  0  0  0  0  0  0  0  0  0
  -29.2742  -26.1340   18.8419 C   0  0  0  0  0  0  0  0  0  0  0  0
  -28.6337  -26.3275   20.2097 C   0  0  0  0  0  0  0  0  0  1  0  0
  -24.2137  -33.7951   21.8554 C   0  0  1  0  0  0  0  0  0  0  0  0
  -26.6957  -35.7867   23.9151 C   0  0  2  0  0  0  0  0  0  0  0  0
  -23.2358  -34.5093   20.8801 C   0  0  0  0  0  0  0  0  0  0  0  0
  -26.5134  -14.1600   21.5584 N   0  0  0  0  0  0  0  0  0  0  0  0
  -31.4093  -22.3360   17.1894 N   0  0  0  0  0  0  0  0  0  0  0  0
  -26.3297  -13.4845   20.4112 N   0  0  0  0  0  0  0  0  0  0  0  0
  -24.0040  -31.4291   22.5496 N   0  0  0  0  0  0  0  0  0  0  0  0
  -29.8457  -13.6507   18.9216 N   0  0  0  0  0  0  0  0  0  0  0  0
  -24.6570  -12.5794   18.9993 N   0  0  0  0  0  0  0  0  0  0  0  0
  -22.2563  -12.7322   21.9333 N   0  0  0  0  0  0  0  0  0  0  0  0
  -21.5120  -28.7672   22.5733 N   0  0  0  0  0  0  0  0  0  0  0  0
  -24.8786  -34.6899   22.7965 N   0  0  0  0  0  0  0  0  0  0  0  0
  -29.8991  -15.6068   17.5935 N   0  0  0  0  0  0  0  0  0  0  0  0
  -27.9768  -35.3493   24.5384 N   0  3  0  0  0  0  0  0  0  0  0  0
  -22.1523  -14.7052   20.7691 O   0  0  0  0  0  0  0  0  0  0  0  0
  -22.3852  -30.2240   20.9803 O   0  0  0  0  0  0  0  0  0  0  0  0
  -22.6061  -33.0685   23.4410 O   0  0  0  0  0  0  0  0  0  0  0  0
  -27.0456  -34.1572   22.1659 O   0  0  0  0  0  0  0  0  0  0  0  0
  -31.4347  -13.9379   17.2572 O   0  0  0  0  0  0  0  0  0  0  0  0
  -24.3783  -17.0868   26.7955 O   0  0  0  0  0  0  0  0  0  0  0  0
  -28.4658  -27.7246   20.4468 O   0  0  0  0  0  0  0  0  0  1  0  0
  -28.6827  -17.8013   30.1668 F   0  0  0  0  0  0  0  0  0  0  0  0
  -24.3519  -16.0673   29.3651 F   0  0  0  0  0  0  0  0  0  0  0  0
  1  2  1  0  0  0  0
  1  5  2  0  0  0  0
  2  6  2  0  0  0  0
  3  9  2  0  0  0  0
  3 17  1  0  0  0  0
  4 10  1  0  0  0  0
  4 17  2  0  0  0  0
  5 19  1  0  0  0  0
  6 21  1  0  0  0  0
  7 11  2  0  0  0  0
  7 20  1  0  0  0  0
  8 14  2  0  0  0  0
  8 22  1  0  0  0  0
  9 24  1  0  0  0  0
 10 24  2  0  0  0  0
 11 25  1  0  0  0  0
 12 13  2  0  0  0  0
 12 26  1  0  0  0  0
 13 27  1  0  0  0  0
 14 30  1  0  0  0  0
 15 23  1  0  0  0  0
 15 25  2  0  0  0  0
 16 27  2  0  0  0  0
 16 28  1  0  0  0  0
 17 29  1  0  0  0  0
 18 29  1  0  0  0  0
 18 32  2  0  0  0  0
 18 33  1  0  0  0  0
 19 21  2  0  0  0  0
 19 38  1  0  0  0  0
 20 23  2  0  0  0  0
 20 39  1  0  0  0  0
 21 52  1  0  0  0  0
 22 31  2  0  0  0  0
 22 51  1  0  0  0  0
 23 40  1  0  0  0  0
 24 85  1  0  0  0  0
 25 86  1  0  0  0  0
 26 28  2  0  0  0  0
 26 85  1  0  0  0  0
 27 87  1  0  0  0  0
 28 88  1  0  0  0  0
 29 69  2  0  0  0  0
 30 62  1  0  0  0  0
 30 70  2  0  0  0  0
 31 56  1  0  0  0  0
 31 70  1  0  0  0  0
 32 71  1  0  0  0  0
 32 74  1  0  0  0  0
 33 75  1  0  0  0  0
 33 80  2  0  0  0  0
 34 53  1  0  0  0  0
 34 76  1  0  0  0  0
 34 81  2  0  0  0  0
 35 66  1  0  0  0  0
 35 72  1  0  0  0  0
 35 82  2  0  0  0  0
 36 67  1  0  0  0  0
 36 77  1  0  0  0  0
 36 83  2  0  0  0  0
 37 73  1  0  0  0  0
 37 78  1  0  0  0  0
 37 84  2  0  0  0  0
 38 41  1  0  0  0  0
 39 53  1  0  0  0  0
 40 72  1  0  0  0  0
 41 45  1  0  0  0  0
 42 44  1  0  0  0  0
 42 47  1  0  0  0  0
 43 46  1  0  0  0  0
 43 49  1  0  0  0  0
 44 51  1  0  0  0  0
 45 52  1  0  0  0  0
 46 54  1  0  0  0  0
 47 55  1  0  0  0  0
 48 51  1  0  0  0  0
 48 55  1  0  0  0  0
 49 73  1  0  0  0  0
 50 54  1  0  0  0  0
 50 73  1  0  0  0  0
 52 76  1  0  0  0  0
 53 72  1  0  0  0  0
 54 71  1  0  0  0  0
 55 78  1  0  0  0  0
 57 67  1  0  0  0  0
 58 68  1  0  0  0  0
 59 68  1  0  0  0  0
 60 68  1  0  0  0  0
 61 79  1  0  0  0  0
 62 63  1  0  0  0  0
 63 64  1  0  0  0  0
 64 65  1  0  0  0  0
 65 86  1  0  0  0  0
 66 68  1  0  0  0  0
 66 77  1  0  0  0  0
 67 79  1  0  0  0  0
 69 71  1  0  0  0  0
M  CHG  1  79   1
M  ISO  4  37 100  65 101  78 100  86 101
M  END
> <Batch ID>
0122

> <Smiles>
CNC(C)C(=O)NC(C(=O)N1Cc2cc([101O:1][101CH2:1]CCCc3ccc(C4CCCC([100NH:0][100C:0](=O)N5CCCC(n6nc(-c7ccc(Oc8ccc(F)cc8F)cc7)c(C(N)=O)c6N)C5)C4)c(C)n3)ccc2CC1C(=O)NC1CCCc2ccccc21)C(C)(C)C

> <Shape>
0.244

> <Color>
0.114

> <Negative vol penalty>
0.000

$$$$

  -OEChem-04052320283D

 88 97  0     1  0  0  0  0  0999 V2000
  -29.8816  -24.2315   19.0245 C   0  0  0  0  0  0  0  0  0  0  0  0
  -28.7999  -25.0137   18.6356 C   0  0  0  0  0  0  0  0  0  0  0  0
  -27.6202  -15.7486   21.4111 C   0  0  0  0  0  0  0  0  0  0  0  0
  -26.1533  -16.2796   19.5663 C   0  0  0  0  0  0  0  0  0  0  0  0
  -30.2734  -24.2057   20.3613 C   0  0  0  0  0  0  0  0  0  0  0  0
  -28.1172  -25.7795   19.5813 C   0  0  0  0  0  0  0  0  0  0  0  0
  -23.1300  -29.2359   19.0262 C   0  0  0  0  0  0  0  0  0  0  0  0
  -27.7509  -14.4451   20.9319 C   0  0  0  0  0  0  0  0  0  0  0  0
  -26.2840  -14.9762   19.0872 C   0  0  0  0  0  0  0  0  0  0  0  0
  -21.7516  -29.0842   19.1703 C   0  0  0  0  0  0  0  0  0  0  0  0
  -28.7584  -11.0802   19.9953 C   0  0  0  0  0  0  0  0  0  0  0  0
  -30.0381  -10.5263   19.9633 C   0  0  0  0  0  0  0  0  0  0  0  0
  -19.8296  -24.2494   20.4275 C   0  0  0  0  0  0  0  0  0  0  0  0
  -21.8947  -29.9677   21.4105 C   0  0  0  0  0  0  0  0  0  0  0  0
  -30.7635  -12.2882   18.4778 C   0  0  0  0  0  0  0  0  0  0  0  0
  -18.2469  -23.0439   21.7306 C   0  0  0  0  0  0  0  0  0  0  0  0
  -26.8213  -16.6658   20.7283 C   0  0  0  0  0  0  0  0  0  0  0  0
  -27.4908  -19.1213   20.9017 C   0  0  0  0  0  0  0  0  0  0  0  0
  -29.5868  -24.9623   21.3252 C   0  0  0  0  0  0  0  0  0  0  0  0
  -23.9039  -29.7452   20.0788 C   0  0  0  0  0  0  0  0  0  0  0  0
  -28.5124  -25.7855   20.9313 C   0  0  0  0  0  0  0  0  0  0  0  0
  -20.8404  -23.4945   21.0121 C   0  0  0  0  0  0  0  0  0  0  0  0
  -23.2824  -30.1272   21.2763 C   0  0  0  0  0  0  0  0  0  0  0  0
  -18.5055  -24.0260   20.7881 C   0  0  0  0  0  0  0  0  0  0  0  0
  -27.0828  -14.0589   19.7700 C   0  0  0  0  0  0  0  0  0  0  0  0
  -21.1341  -29.4474   20.3636 C   0  0  0  0  0  0  0  0  0  0  0  0
  -28.4812  -12.2381   19.2686 C   0  0  0  0  0  0  0  0  0  0  0  0
  -31.0407  -11.1303   19.2046 C   0  0  0  0  0  0  0  0  0  0  0  0
  -29.4837  -12.8421   18.5099 C   0  0  0  0  0  0  0  0  0  0  0  0
  -26.6855  -18.0122   21.2230 C   0  0  0  0  0  0  0  0  0  0  0  0
  -20.4773  -22.5363   21.9448 C   0  0  0  0  0  0  0  0  0  0  0  0
  -26.9534  -20.1572   21.6261 C   0  0  0  0  0  0  0  0  0  0  0  0
  -28.6232  -19.2075   20.0266 C   0  0  0  0  0  0  0  0  0  0  0  0
  -26.2869  -28.6230   21.8581 C   0  0  0  0  0  0  0  0  0  0  0  0
  -26.3252  -31.6503   23.0226 C   0  0  0  0  0  0  0  0  0  0  0  0
  -24.6351  -34.5629   23.5768 C   0  0  0  0  0  0  0  0  0  0  0  0
  -21.4959  -21.2023   23.8234 C   0  0  0  0  0  0  0  0  0  0  0  0
  -30.0582  -24.9033   22.7569 C   0  0  0  0  0  0  0  0  0  0  0  0
  -25.3860  -29.9276   19.8979 C   0  0  0  0  0  0  0  0  0  0  0  0
  -24.0655  -30.6979   22.4293 C   0  0  0  0  0  0  0  0  0  0  0  0
  -29.0086  -25.3935   23.7490 C   0  0  0  0  0  0  0  0  0  0  0  0
  -24.5389  -21.0453   25.6653 C   0  0  0  0  0  0  0  0  0  0  0  0
  -28.4528  -26.7356   23.2970 C   0  0  0  0  0  0  0  0  0  0  0  0
  -25.5096  -20.3561   24.7037 C   0  0  0  0  0  0  0  0  0  0  0  0
  -22.7418  -22.8210   19.4717 C   0  0  0  0  0  0  0  0  0  0  0  0
  -22.5512  -25.2184   20.2749 C   0  0  0  0  0  0  0  0  0  0  0  0
  -23.1266  -20.4743   25.5514 C   0  0  0  0  0  0  0  0  0  0  0  0
  -23.5440  -19.7641   23.2297 C   0  0  0  0  0  0  0  0  0  0  0  0
  -24.1939  -23.0794   19.0962 C   0  0  0  0  0  0  0  0  0  0  0  0
  -24.0059  -25.4460   19.8892 C   0  0  0  0  0  0  0  0  0  0  0  0
  -22.2804  -23.7412   20.6179 C   0  0  0  0  0  0  0  0  0  0  0  0
  -27.7356  -26.6031   21.9475 C   0  0  1  0  0  0  0  0  0  0  0  0
  -26.1477  -29.9756   21.2188 C   0  0  1  0  0  0  0  0  0  0  0  0
  -24.9651  -20.3497   23.2618 C   0  0  2  0  0  0  0  0  0  0  0  0
  -24.9192  -36.8446   24.5821 C   0  0  0  0  0  0  0  0  0  0  0  0
  -26.0986  -30.4449   25.8164 C   0  0  0  0  0  0  0  0  0  0  0  0
  -25.4377  -32.7065   26.6628 C   0  0  0  0  0  0  0  0  0  0  0  0
  -27.6859  -32.3691   25.6360 C   0  0  0  0  0  0  0  0  0  0  0  0
  -24.1039  -35.8965   20.9887 C   0  0  0  0  0  0  0  0  0  0  0  0
  -17.3911  -24.8235   20.1746 C   0  0  0  0  0  0  0  0  0  0  0  0
  -17.0502  -26.0975   20.9409 C   0  0  0  0  0  0  0  0  0  0  0  0
  -18.0023  -28.2643   21.7393 C   0  0  0  0  0  0  0  0  0  0  0  0
  -19.3006  -29.0425   21.8231 C   0  0  0  0  0  0  0  0  0  1  0  0
  -25.6352  -32.3681   24.1573 C   0  0  1  0  0  0  0  0  0  0  0  0
  -25.0094  -36.0104   23.3137 C   0  0  2  0  0  0  0  0  0  0  0  0
  -26.1996  -31.9596   25.5473 C   0  0  0  0  0  0  0  0  0  0  0  0
  -19.2020  -22.2906   22.3204 N   0  0  0  0  0  0  0  0  0  0  0  0
  -25.7108  -18.3151   22.0846 N   0  0  0  0  0  0  0  0  0  0  0  0
  -25.9002  -19.6262   22.3109 N   0  0  0  0  0  0  0  0  0  0  0  0
  -25.5126  -30.8511   22.2060 N   0  0  0  0  0  0  0  0  0  0  0  0
  -22.6755  -20.5043   24.1584 N   0  0  0  0  0  0  0  0  0  0  0  0
  -27.2839  -21.4613   21.7378 N   0  0  0  0  0  0  0  0  0  0  0  0
  -29.0425  -18.0479   19.3603 N   0  0  0  0  0  0  0  0  0  0  0  0
  -21.4992  -21.7600   22.5453 N   0  0  0  0  0  0  0  0  0  0  0  0
  -27.4082  -27.9230   21.4553 N   0  0  0  0  0  0  0  0  0  0  0  0
  -25.7425  -33.7932   23.8642 N   0  0  0  0  0  0  0  0  0  0  0  0
  -24.3683  -24.5259   18.7708 N   0  3  0  0  0  0  0  0  0  0  0  0
  -24.0981  -36.6041   22.2949 N   0  3  0  0  0  0  0  0  0  0  0  0
  -18.2507  -26.9687   21.0581 N   0  3  0  0  0  0  0  0  0  0  0  0
  -29.2549  -20.2773   19.8536 O   0  0  0  0  0  0  0  0  0  0  0  0
  -25.4404  -28.2430   22.6586 O   0  0  0  0  0  0  0  0  0  0  0  0
  -27.5392  -31.7991   22.8622 O   0  0  0  0  0  0  0  0  0  0  0  0
  -23.4760  -34.1565   23.5354 O   0  0  0  0  0  0  0  0  0  0  0  0
  -20.5633  -21.3215   24.6222 O   0  0  0  0  0  0  0  0  0  0  0  0
  -27.2103  -12.7872   19.3020 O   0  0  0  0  0  0  0  0  0  0  0  0
  -19.7889  -29.2999   20.5072 O   0  0  0  0  0  0  0  0  0  1  0  0
  -32.2700  -10.5992   19.1751 F   0  0  0  0  0  0  0  0  0  0  0  0
  -29.2237  -13.9553   17.8105 F   0  0  0  0  0  0  0  0  0  0  0  0
  1  2  1  0  0  0  0
  1  5  2  0  0  0  0
  2  6  2  0  0  0  0
  3  8  2  0  0  0  0
  3 17  1  0  0  0  0
  4  9  1  0  0  0  0
  4 17  2  0  0  0  0
  5 19  1  0  0  0  0
  6 21  1  0  0  0  0
  7 10  2  0  0  0  0
  7 20  1  0  0  0  0
  8 25  1  0  0  0  0
  9 25  2  0  0  0  0
 10 26  1  0  0  0  0
 11 12  2  0  0  0  0
 11 27  1  0  0  0  0
 12 28  1  0  0  0  0
 13 22  1  0  0  0  0
 13 24  2  0  0  0  0
 14 23  1  0  0  0  0
 14 26  2  0  0  0  0
 15 28  2  0  0  0  0
 15 29  1  0  0  0  0
 16 24  1  0  0  0  0
 16 67  2  0  0  0  0
 17 30  1  0  0  0  0
 18 30  1  0  0  0  0
 18 32  2  0  0  0  0
 18 33  1  0  0  0  0
 19 21  2  0  0  0  0
 19 38  1  0  0  0  0
 20 23  2  0  0  0  0
 20 39  1  0  0  0  0
 21 52  1  0  0  0  0
 22 31  2  0  0  0  0
 22 51  1  0  0  0  0
 23 40  1  0  0  0  0
 24 60  1  0  0  0  0
 25 85  1  0  0  0  0
 26 86  1  0  0  0  0
 27 29  2  0  0  0  0
 27 85  1  0  0  0  0
 28 87  1  0  0  0  0
 29 88  1  0  0  0  0
 30 68  2  0  0  0  0
 31 67  1  0  0  0  0
 31 74  1  0  0  0  0
 32 69  1  0  0  0  0
 32 72  1  0  0  0  0
 33 73  1  0  0  0  0
 33 80  2  0  0  0  0
 34 53  1  0  0  0  0
 34 75  1  0  0  0  0
 34 81  2  0  0  0  0
 35 64  1  0  0  0  0
 35 70  1  0  0  0  0
 35 82  2  0  0  0  0
 36 65  1  0  0  0  0
 36 76  1  0  0  0  0
 36 83  2  0  0  0  0
 37 71  1  0  0  0  0
 37 74  1  0  0  0  0
 37 84  2  0  0  0  0
 38 41  1  0  0  0  0
 39 53  1  0  0  0  0
 40 70  1  0  0  0  0
 41 43  1  0  0  0  0
 42 44  1  0  0  0  0
 42 47  1  0  0  0  0
 43 52  1  0  0  0  0
 44 54  1  0  0  0  0
 45 49  1  0  0  0  0
 45 51  1  0  0  0  0
 46 50  1  0  0  0  0
 46 51  1  0  0  0  0
 47 71  1  0  0  0  0
 48 54  1  0  0  0  0
 48 71  1  0  0  0  0
 49 77  1  0  0  0  0
 50 77  1  0  0  0  0
 52 75  1  0  0  0  0
 53 70  1  0  0  0  0
 54 69  1  0  0  0  0
 55 65  1  0  0  0  0
 56 66  1  0  0  0  0
 57 66  1  0  0  0  0
 58 66  1  0  0  0  0
 59 78  1  0  0  0  0
 60 61  1  0  0  0  0
 61 79  1  0  0  0  0
 62 63  1  0  0  0  0
 62 79  1  0  0  0  0
 63 86  1  0  0  0  0
 64 66  1  0  0  0  0
 64 76  1  0  0  0  0
 65 78  1  0  0  0  0
 68 69  1  0  0  0  0
M  CHG  3  77   1  78   1  79   1
M  ISO  4  37 100  63 101  74 100  86 101
M  END
> <Batch ID>
0122

> <Smiles>
CNC(C)C(=O)NC(C(=O)N1Cc2cc([101O:1][101CH2:1]CNCCc3cnc([100NH:0][100C:0](=O)N4CCCC(n5nc(-c6ccc(Oc7ccc(F)cc7F)cc6)c(C(N)=O)c5N)C4)c(C4CCNCC4)c3)ccc2CC1C(=O)NC1CCCc2ccccc21)C(C)(C)C

> <Shape>
0.272

> <Color>
0.063

> <Negative vol penalty>
0.000

$$$$

  -OEChem-04052320283D

 86 95  0     1  0  0  0  0  0999 V2000
  -22.2708  -11.7682   18.5061 C   0  0  0  0  0  0  0  0  0  0  0  0
  -21.8559  -13.0235   18.9393 C   0  0  0  0  0  0  0  0  0  0  0  0
  -22.0083  -25.4650   22.6937 C   0  0  0  0  0  0  0  0  0  0  0  0
  -21.0640  -26.7108   20.8517 C   0  0  0  0  0  0  0  0  0  0  0  0
  -23.4944  -11.2540   18.9328 C   0  0  0  0  0  0  0  0  0  0  0  0
  -22.6642  -13.7649   19.8004 C   0  0  0  0  0  0  0  0  0  0  0  0
  -24.4511  -20.5290   21.3399 C   0  0  0  0  0  0  0  0  0  0  0  0
  -20.8367  -25.6587   23.4254 C   0  0  0  0  0  0  0  0  0  0  0  0
  -19.8923  -26.9045   21.5833 C   0  0  0  0  0  0  0  0  0  0  0  0
  -24.5293  -21.4023   22.4239 C   0  0  0  0  0  0  0  0  0  0  0  0
  -16.7898  -28.0349   23.1020 C   0  0  0  0  0  0  0  0  0  0  0  0
  -16.2315  -29.3131   23.1055 C   0  0  0  0  0  0  0  0  0  0  0  0
  -26.6590  -20.4467   23.0324 C   0  0  0  0  0  0  0  0  0  0  0  0
  -18.2575  -30.1954   24.0822 C   0  0  0  0  0  0  0  0  0  0  0  0
  -22.1220  -25.9911   21.4069 C   0  0  0  0  0  0  0  0  0  0  0  0
  -23.6244  -24.7254   19.7795 C   0  0  0  0  0  0  0  0  0  0  0  0
  -24.3225  -11.9936   19.7919 C   0  0  0  0  0  0  0  0  0  0  0  0
  -25.4729  -19.5990   21.1000 C   0  0  0  0  0  0  0  0  0  0  0  0
  -23.8995  -13.2595   20.2401 C   0  0  0  0  0  0  0  0  0  0  0  0
  -26.5926  -19.5645   21.9432 C   0  0  0  0  0  0  0  0  0  0  0  0
  -19.7787  -26.3784   22.8702 C   0  0  0  0  0  0  0  0  0  0  0  0
  -25.6320  -21.3593   23.2720 C   0  0  0  0  0  0  0  0  0  0  0  0
  -18.0820  -27.8369   23.5887 C   0  0  0  0  0  0  0  0  0  0  0  0
  -16.9653  -30.3933   23.5956 C   0  0  0  0  0  0  0  0  0  0  0  0
  -18.8158  -28.9171   24.0788 C   0  0  0  0  0  0  0  0  0  0  0  0
  -23.3323  -25.7918   20.6508 C   0  0  0  0  0  0  0  0  0  0  0  0
  -24.8879  -24.9978   19.3149 C   0  0  0  0  0  0  0  0  0  0  0  0
  -22.8252  -23.5900   19.4220 C   0  0  0  0  0  0  0  0  0  0  0  0
  -25.6419  -16.4262   21.0073 C   0  0  0  0  0  0  0  0  0  0  0  0
  -28.6718  -17.0060   20.0043 C   0  0  0  0  0  0  0  0  0  0  0  0
  -31.3338  -19.1394   19.9089 C   0  0  0  0  0  0  0  0  0  0  0  0
  -25.6673  -29.3479   22.2585 C   0  0  0  0  0  0  0  0  0  0  0  0
  -25.6150  -11.3761   20.2639 C   0  0  0  0  0  0  0  0  0  0  0  0
  -25.3862  -18.6820   19.9109 C   0  0  0  0  0  0  0  0  0  0  0  0
  -27.7260  -18.5986   21.7173 C   0  0  0  0  0  0  0  0  0  0  0  0
  -26.5830  -12.3840   20.8781 C   0  0  0  0  0  0  0  0  0  0  0  0
  -22.6569  -28.2533   29.3101 C   0  0  0  0  0  0  0  0  0  0  0  0
  -23.3774  -26.9577   28.9505 C   0  0  0  0  0  0  0  0  0  0  0  0
  -22.2350  -29.0252   28.0638 C   0  0  0  0  0  0  0  0  0  0  0  0
  -26.0351  -29.2407   18.7957 C   0  0  0  0  0  0  0  0  0  0  0  0
  -25.8534  -13.2944   21.8608 C   0  0  0  0  0  0  0  0  0  0  0  0
  -24.5622  -27.2112   28.0212 C   0  0  0  0  0  0  0  0  0  0  0  0
  -23.4179  -29.2821   27.1329 C   0  0  0  0  0  0  0  0  0  0  0  0
  -26.5877  -27.8446   18.5167 C   0  0  0  0  0  0  0  0  0  0  0  0
  -26.6588  -29.8412   20.0477 C   0  0  0  0  0  0  0  0  0  0  0  0
  -27.3358  -28.5712   23.9982 C   0  0  0  0  0  0  0  0  0  0  0  0
  -27.0581  -27.6081   21.0306 C   0  0  0  0  0  0  0  0  0  0  0  0
  -24.9829  -29.0275   24.5993 C   0  0  0  0  0  0  0  0  0  0  0  0
  -27.4125  -27.2967   24.8367 C   0  0  0  0  0  0  0  0  0  0  0  0
  -24.7596  -14.1045   21.1546 C   0  0  1  0  0  0  0  0  0  0  0  0
  -26.2410  -17.4273   20.0603 C   0  0  1  0  0  0  0  0  0  0  0  0
  -24.1401  -27.9799   26.7618 C   0  0  0  0  0  0  0  0  0  0  0  0
  -26.5792  -26.9091   19.7398 C   0  0  1  0  0  0  0  0  0  0  0  0
  -25.3463  -28.2670   25.8773 C   0  0  1  0  0  0  0  0  0  0  0  0
  -33.6838  -19.3198   19.0473 C   0  0  0  0  0  0  0  0  0  0  0  0
  -25.7759  -24.1583   26.5253 C   0  0  0  0  0  0  0  0  0  0  0  0
  -29.6312  -15.1687   22.2435 C   0  0  0  0  0  0  0  0  0  0  0  0
  -31.9274  -16.1215   21.9469 C   0  0  0  0  0  0  0  0  0  0  0  0
  -30.8398  -14.8862   20.0723 C   0  0  0  0  0  0  0  0  0  0  0  0
  -30.6591  -21.4749   18.2209 C   0  0  0  0  0  0  0  0  0  0  0  0
  -25.2861  -25.9476   24.7851 C   0  0  0  0  0  0  0  0  0  0  0  0
  -25.0749  -23.4801   24.1928 C   0  0  0  0  0  0  0  0  0  1  0  0
  -30.0061  -17.1930   20.6853 C   0  0  1  0  0  0  0  0  0  0  0  0
  -32.2162  -19.5984   18.7621 C   0  0  2  0  0  0  0  0  0  0  0  0
  -25.8085  -24.5288   25.0382 C   0  0  2  0  0  0  0  0  0  0  0  0
  -30.5790  -15.8594   21.2427 C   0  0  0  0  0  0  0  0  0  0  0  0
  -24.3299  -26.6758   20.7365 N   0  0  0  0  0  0  0  0  0  0  0  0
  -25.2614  -26.1652   19.9132 N   0  0  0  0  0  0  0  0  0  0  0  0
  -27.5919  -17.7182   20.5449 N   0  0  0  0  0  0  0  0  0  0  0  0
  -26.4986  -28.9555   21.1994 N   0  0  0  0  0  0  0  0  0  0  0  0
  -25.9784  -28.8675   23.5383 N   0  0  0  0  0  0  0  0  0  0  0  0
  -25.7049  -24.3503   18.4572 N   0  0  0  0  0  0  0  0  0  0  0  0
  -21.5506  -23.4643   19.9913 N   0  0  0  0  0  0  0  0  0  0  0  0
  -25.3415  -15.2100   20.4241 N   0  0  0  0  0  0  0  0  0  0  0  0
  -30.8706  -17.8553   19.7146 N   0  0  0  0  0  0  0  0  0  0  0  0
  -26.0905  -26.9898   25.5245 N   0  3  1  0  0  0  0  0  0  0  0  0
  -32.0512  -21.0620   18.5352 N   0  3  0  0  0  0  0  0  0  0  0  0
  -23.2357  -22.7045   18.6340 O   0  0  0  0  0  0  0  0  0  0  0  0
  -25.4667  -16.7340   22.1804 O   0  0  0  0  0  0  0  0  0  0  0  0
  -28.5923  -16.2612   19.0242 O   0  0  0  0  0  0  0  0  0  0  0  0
  -31.0837  -19.8478   20.8816 O   0  0  0  0  0  0  0  0  0  0  0  0
  -24.6833  -30.0759   22.0719 O   0  0  0  0  0  0  0  0  0  0  0  0
  -18.6352  -26.5674   23.5838 O   0  0  0  0  0  0  0  0  0  0  0  0
  -25.7110  -22.2159   24.3384 O   0  0  0  0  0  0  0  0  0  1  0  0
  -16.4296  -31.6210   23.5975 F   0  0  0  0  0  0  0  0  0  0  0  0
  -20.0581  -28.7333   24.5465 F   0  0  0  0  0  0  0  0  0  0  0  0
  1  2  1  0  0  0  0
  1  5  2  0  0  0  0
  2  6  2  0  0  0  0
  3  8  2  0  0  0  0
  3 15  1  0  0  0  0
  4  9  1  0  0  0  0
  4 15  2  0  0  0  0
  5 17  1  0  0  0  0
  6 19  1  0  0  0  0
  7 10  2  0  0  0  0
  7 18  1  0  0  0  0
  8 21  1  0  0  0  0
  9 21  2  0  0  0  0
 10 22  1  0  0  0  0
 11 12  2  0  0  0  0
 11 23  1  0  0  0  0
 12 24  1  0  0  0  0
 13 20  1  0  0  0  0
 13 22  2  0  0  0  0
 14 24  2  0  0  0  0
 14 25  1  0  0  0  0
 15 26  1  0  0  0  0
 16 26  1  0  0  0  0
 16 27  2  0  0  0  0
 16 28  1  0  0  0  0
 17 19  2  0  0  0  0
 17 33  1  0  0  0  0
 18 20  2  0  0  0  0
 18 34  1  0  0  0  0
 19 50  1  0  0  0  0
 20 35  1  0  0  0  0
 21 83  1  0  0  0  0
 22 84  1  0  0  0  0
 23 25  2  0  0  0  0
 23 83  1  0  0  0  0
 24 85  1  0  0  0  0
 25 86  1  0  0  0  0
 26 67  2  0  0  0  0
 27 68  1  0  0  0  0
 27 72  1  0  0  0  0
 28 73  1  0  0  0  0
 28 78  2  0  0  0  0
 29 51  1  0  0  0  0
 29 74  1  0  0  0  0
 29 79  2  0  0  0  0
 30 63  1  0  0  0  0
 30 69  1  0  0  0  0
 30 80  2  0  0  0  0
 31 64  1  0  0  0  0
 31 75  1  0  0  0  0
 31 81  2  0  0  0  0
 32 70  1  0  0  0  0
 32 71  1  0  0  0  0
 32 82  2  0  0  0  0
 33 36  1  0  0  0  0
 34 51  1  0  0  0  0
 35 69  1  0  0  0  0
 36 41  1  0  0  0  0
 37 38  1  0  0  0  0
 37 39  1  0  0  0  0
 38 42  1  0  0  0  0
 39 43  1  0  0  0  0
 40 44  1  0  0  0  0
 40 45  1  0  0  0  0
 41 50  1  0  0  0  0
 42 52  1  0  0  0  0
 43 52  1  0  0  0  0
 44 53  1  0  0  0  0
 45 70  1  0  0  0  0
 46 49  1  0  0  0  0
 46 71  1  0  0  0  0
 47 53  1  0  0  0  0
 47 70  1  0  0  0  0
 48 54  1  0  0  0  0
 48 71  1  0  0  0  0
 49 76  1  0  0  0  0
 50 74  1  0  0  0  0
 51 69  1  0  0  0  0
 52 54  1  0  0  0  0
 53 68  1  0  0  0  0
 54 76  1  0  0  0  0
 55 64  1  0  0  0  0
 56 65  1  0  0  0  0
 57 66  1  0  0  0  0
 58 66  1  0  0  0  0
 59 66  1  0  0  0  0
 60 77  1  0  0  0  0
 61 65  1  0  0  0  0
 61 76  1  0  0  0  0
 62 65  1  0  0  0  0
 62 84  1  0  0  0  0
 63 66  1  0  0  0  0
 63 75  1  0  0  0  0
 64 77  1  0  0  0  0
 67 68  1  0  0  0  0
M  CHG  2  76   1  77   1
M  ISO  4  32 100  62 101  71 100  84 101
M  END
> <Batch ID>
0122

> <Smiles>
CNC(C)C(=O)NC(C(=O)N1Cc2cc([101O:1][101CH2:1]C(C)CN3CC[100N:0]([100C:0](=O)N4CCCC(n5nc(-c6ccc(Oc7ccc(F)cc7F)cc6)c(C(N)=O)c5N)C4)CC3C3CCCCC3)ccc2CC1C(=O)NC1CCCc2ccccc21)C(C)(C)C

> <Shape>
0.200

> <Color>
0.066

> <Negative vol penalty>
0.000

$$$$

  -OEChem-04052320283D

 80 88  0     1  0  0  0  0  0999 V2000
  -28.2111  -18.7657   17.4445 C   0  0  0  0  0  0  0  0  0  0  0  0
  -27.2365  -19.7529   17.3394 C   0  0  0  0  0  0  0  0  0  0  0  0
  -25.2585  -16.5152   23.8647 C   0  0  0  0  0  0  0  0  0  0  0  0
  -25.5398  -18.2261   22.1822 C   0  0  0  0  0  0  0  0  0  0  0  0
  -29.1664  -18.8359   18.4576 C   0  0  0  0  0  0  0  0  0  0  0  0
  -27.2159  -20.8102   18.2483 C   0  0  0  0  0  0  0  0  0  0  0  0
  -25.5862  -27.7728   18.6766 C   0  0  0  0  0  0  0  0  0  0  0  0
  -24.8209  -15.6239   22.8851 C   0  0  0  0  0  0  0  0  0  0  0  0
  -25.1023  -17.3347   21.2026 C   0  0  0  0  0  0  0  0  0  0  0  0
  -24.8248  -28.6557   19.4412 C   0  0  0  0  0  0  0  0  0  0  0  0
  -23.9734  -12.7885   20.7738 C   0  0  0  0  0  0  0  0  0  0  0  0
  -24.4899  -11.4931   20.7984 C   0  0  0  0  0  0  0  0  0  0  0  0
  -26.5731  -28.7155   21.1022 C   0  0  0  0  0  0  0  0  0  0  0  0
  -26.7208  -12.3774   20.5183 C   0  0  0  0  0  0  0  0  0  0  0  0
  -25.6179  -17.8164   23.5132 C   0  0  0  0  0  0  0  0  0  0  0  0
  -27.3933  -18.9447   24.9562 C   0  0  0  0  0  0  0  0  0  0  0  0
  -29.1633  -19.8998   19.3735 C   0  0  0  0  0  0  0  0  0  0  0  0
  -26.8442  -27.3454   19.1251 C   0  0  0  0  0  0  0  0  0  0  0  0
  -28.1712  -20.8940   19.2755 C   0  0  0  0  0  0  0  0  0  0  0  0
  -27.3496  -27.8292   20.3403 C   0  0  0  0  0  0  0  0  0  0  0  0
  -24.7428  -16.0336   21.5541 C   0  0  0  0  0  0  0  0  0  0  0  0
  -25.3170  -29.1250   20.6555 C   0  0  0  0  0  0  0  0  0  0  0  0
  -24.8305  -13.8784   20.6213 C   0  0  0  0  0  0  0  0  0  0  0  0
  -25.8636  -11.2875   20.6707 C   0  0  0  0  0  0  0  0  0  0  0  0
  -26.2042  -13.6729   20.4936 C   0  0  0  0  0  0  0  0  0  0  0  0
  -26.0694  -18.7379   24.5247 C   0  0  0  0  0  0  0  0  0  0  0  0
  -27.2916  -19.9142   25.9238 C   0  0  0  0  0  0  0  0  0  0  0  0
  -28.6067  -18.3168   24.5212 C   0  0  0  0  0  0  0  0  0  0  0  0
  -28.1150  -24.5359   19.8968 C   0  0  0  0  0  0  0  0  0  0  0  0
  -30.8401  -26.2772   20.1497 C   0  0  0  0  0  0  0  0  0  0  0  0
  -32.2963  -29.3215   20.6582 C   0  0  0  0  0  0  0  0  0  0  0  0
  -23.2665  -24.2209   26.9734 C   0  0  0  0  0  0  0  0  0  0  0  0
  -30.1876  -19.9076   20.4805 C   0  0  0  0  0  0  0  0  0  0  0  0
  -27.6646  -26.4136   18.2759 C   0  0  0  0  0  0  0  0  0  0  0  0
  -28.7030  -27.4167   20.8567 C   0  0  0  0  0  0  0  0  0  0  0  0
  -30.3235  -21.2601   21.1750 C   0  0  0  0  0  0  0  0  0  0  0  0
  -24.2582  -21.6280   29.2028 C   0  0  0  0  0  0  0  0  0  0  0  0
  -28.9480  -21.8324   21.5029 C   0  0  0  0  0  0  0  0  0  0  0  0
  -24.9543  -20.6120   28.2956 C   0  0  0  0  0  0  0  0  0  0  0  0
  -23.1734  -28.2409   23.2608 C   0  0  0  0  0  0  0  0  0  0  0  0
  -23.0686  -22.2848   28.5060 C   0  0  0  0  0  0  0  0  0  0  0  0
  -24.0723  -21.8793   26.2920 C   0  0  0  0  0  0  0  0  0  0  0  0
  -20.8106  -28.0147   23.3647 C   0  0  0  0  0  0  0  0  0  0  0  0
  -28.1309  -22.0698   20.2272 C   0  0  1  0  0  0  0  0  0  0  0  0
  -28.7114  -25.6430   19.0745 C   0  0  1  0  0  0  0  0  0  0  0  0
  -22.0623  -27.7769   24.1948 C   0  0  1  0  0  0  0  0  0  0  0  0
  -25.3123  -21.2313   26.9312 C   0  0  2  0  0  0  0  0  0  0  0  0
  -22.6045  -29.5258   22.6729 C   0  0  1  0  0  0  0  0  0  0  0  0
  -34.5428  -30.4236   20.8477 C   0  0  0  0  0  0  0  0  0  0  0  0
  -22.5883  -31.1962   20.7927 C   0  0  0  0  0  0  0  0  0  0  0  0
  -31.1602  -25.1357   22.9612 C   0  0  0  0  0  0  0  0  0  0  0  0
  -32.8248  -26.9457   23.4313 C   0  0  0  0  0  0  0  0  0  0  0  0
  -33.2805  -25.2687   21.6416 C   0  0  0  0  0  0  0  0  0  0  0  0
  -31.7675  -31.0638   18.3250 C   0  0  0  0  0  0  0  0  0  0  0  0
  -22.2146  -26.3327   24.6384 C   0  0  0  0  0  0  0  0  0  0  0  0
  -23.5452  -26.0633   25.3341 C   0  0  0  0  0  0  0  0  0  0  0  0
  -31.5205  -27.0429   21.2587 C   0  0  1  0  0  0  0  0  0  0  0  0
  -33.4037  -30.0453   19.9138 C   0  0  2  0  0  0  0  0  0  0  0  0
  -23.1562  -29.8800   21.3013 C   0  0  1  0  0  0  0  0  0  1  0  0
  -32.1701  -26.1047   22.3147 C   0  0  0  0  0  0  0  0  0  0  0  0
  -25.1910  -19.5134   25.1658 N   0  0  0  0  0  0  0  0  0  0  0  0
  -25.9646  -20.2170   26.0100 N   0  0  0  0  0  0  0  0  0  0  0  0
  -29.4646  -26.4992   19.9932 N   0  0  0  0  0  0  0  0  0  0  0  0
  -23.4757  -22.8538   27.2190 N   0  0  0  0  0  0  0  0  0  0  0  0
  -28.2087  -20.5286   26.7009 N   0  0  0  0  0  0  0  0  0  0  0  0
  -28.5315  -17.3412   23.5177 N   0  0  0  0  0  0  0  0  0  0  0  0
  -28.5729  -23.2762   19.5610 N   0  0  0  0  0  0  0  0  0  0  0  0
  -32.4585  -27.9531   20.6105 N   0  0  0  0  0  0  0  0  0  0  0  0
  -23.6871  -24.6802   25.7313 N   0  0  0  0  0  0  0  0  0  0  0  0
  -21.1227  -29.2610   22.5842 N   0  3  0  0  0  0  0  0  0  0  0  0
  -32.8779  -31.2903   19.2857 N   0  3  0  0  0  0  0  0  0  0  0  0
  -29.7224  -18.6003   25.0195 O   0  0  0  0  0  0  0  0  0  0  0  0
  -27.3007  -24.8048   20.7722 O   0  0  0  0  0  0  0  0  0  0  0  0
  -31.5060  -25.5158   19.4437 O   0  0  0  0  0  0  0  0  0  0  0  0
  -31.3811  -29.9112   21.2285 O   0  0  0  0  0  0  0  0  0  0  0  0
  -22.7484  -24.9773   27.8019 O   0  0  0  0  0  0  0  0  0  0  0  0
  -24.3161  -15.1639   20.5979 O   0  0  0  0  0  0  0  0  0  0  0  0
  -24.5756  -29.9863   21.4041 O   0  0  0  0  0  0  0  0  0  1  0  0
  -26.3597  -10.0436   20.6959 F   0  0  0  0  0  0  0  0  0  0  0  0
  -27.0327  -14.7160   20.3481 F   0  0  0  0  0  0  0  0  0  0  0  0
  1  2  1  0  0  0  0
  1  5  2  0  0  0  0
  2  6  2  0  0  0  0
  3  8  2  0  0  0  0
  3 15  1  0  0  0  0
  4  9  1  0  0  0  0
  4 15  2  0  0  0  0
  5 17  1  0  0  0  0
  6 19  1  0  0  0  0
  7 10  2  0  0  0  0
  7 18  1  0  0  0  0
  8 21  1  0  0  0  0
  9 21  2  0  0  0  0
 10 22  1  0  0  0  0
 11 12  2  0  0  0  0
 11 23  1  0  0  0  0
 12 24  1  0  0  0  0
 13 20  1  0  0  0  0
 13 22  2  0  0  0  0
 14 24  2  0  0  0  0
 14 25  1  0  0  0  0
 15 26  1  0  0  0  0
 16 26  1  0  0  0  0
 16 27  2  0  0  0  0
 16 28  1  0  0  0  0
 17 19  2  0  0  0  0
 17 33  1  0  0  0  0
 18 20  2  0  0  0  0
 18 34  1  0  0  0  0
 19 44  1  0  0  0  0
 20 35  1  0  0  0  0
 21 77  1  0  0  0  0
 22 78  1  0  0  0  0
 23 25  2  0  0  0  0
 23 77  1  0  0  0  0
 24 79  1  0  0  0  0
 25 80  1  0  0  0  0
 26 61  2  0  0  0  0
 27 62  1  0  0  0  0
 27 65  1  0  0  0  0
 28 66  1  0  0  0  0
 28 72  2  0  0  0  0
 29 45  1  0  0  0  0
 29 67  1  0  0  0  0
 29 73  2  0  0  0  0
 30 57  1  0  0  0  0
 30 63  1  0  0  0  0
 30 74  2  0  0  0  0
 31 58  1  0  0  0  0
 31 68  1  0  0  0  0
 31 75  2  0  0  0  0
 32 64  1  0  0  0  0
 32 69  1  0  0  0  0
 32 76  2  0  0  0  0
 33 36  1  0  0  0  0
 34 45  1  0  0  0  0
 35 63  1  0  0  0  0
 36 38  1  0  0  0  0
 37 39  1  0  0  0  0
 37 41  1  0  0  0  0
 38 44  1  0  0  0  0
 39 47  1  0  0  0  0
 40 46  1  0  0  0  0
 40 48  1  0  0  0  0
 41 64  1  0  0  0  0
 42 47  1  0  0  0  0
 42 64  1  0  0  0  0
 43 46  1  0  0  0  0
 43 70  1  0  0  0  0
 44 67  1  0  0  0  0
 45 63  1  0  0  0  0
 46 55  1  0  0  0  0
 47 62  1  0  0  0  0
 48 59  1  0  0  0  0
 48 70  1  0  0  0  0
 49 58  1  0  0  0  0
 50 59  1  0  0  0  0
 51 60  1  0  0  0  0
 52 60  1  0  0  0  0
 53 60  1  0  0  0  0
 54 71  1  0  0  0  0
 55 56  1  0  0  0  0
 56 69  1  0  0  0  0
 57 60  1  0  0  0  0
 57 68  1  0  0  0  0
 58 71  1  0  0  0  0
 59 78  1  0  0  0  0
 61 62  1  0  0  0  0
M  CHG  2  70   1  71   1
M  ISO  4  32 100  59 101  69 100  78 101
M  END
> <Batch ID>
0122

> <Smiles>
CNC(C)C(=O)NC(C(=O)N1Cc2cc([101O:1][101CH:1](C)C3CC(CC[100NH:0][100C:0](=O)N4CCCC(n5nc(-c6ccc(Oc7ccc(F)cc7F)cc6)c(C(N)=O)c5N)C4)CN3)ccc2CC1C(=O)NC1CCCc2ccccc21)C(C)(C)C

> <Shape>
0.202

> <Color>
0.070

> <Negative vol penalty>
0.000

$$$$

  -OEChem-04052320283D

 87 96  0     1  0  0  0  0  0999 V2000
  -30.0390  -33.5467   15.9917 C   0  0  0  0  0  0  0  0  0  0  0  0
  -30.1685  -32.2308   16.4242 C   0  0  0  0  0  0  0  0  0  0  0  0
  -24.2071  -16.0258   22.3621 C   0  0  0  0  0  0  0  0  0  0  0  0
  -23.5807  -16.0086   20.0287 C   0  0  0  0  0  0  0  0  0  0  0  0
  -29.3112  -34.4609   16.7522 C   0  0  0  0  0  0  0  0  0  0  0  0
  -29.5710  -31.8287   17.6183 C   0  0  0  0  0  0  0  0  0  0  0  0
  -27.1179  -26.3531   18.8458 C   0  0  0  0  0  0  0  0  0  0  0  0
  -23.5647  -17.2530   22.5255 C   0  0  0  0  0  0  0  0  0  0  0  0
  -22.9382  -17.2359   20.1922 C   0  0  0  0  0  0  0  0  0  0  0  0
  -27.6093  -25.2344   19.5171 C   0  0  0  0  0  0  0  0  0  0  0  0
  -20.3978  -18.3760   22.9035 C   0  0  0  0  0  0  0  0  0  0  0  0
  -19.5827  -18.5368   24.0239 C   0  0  0  0  0  0  0  0  0  0  0  0
  -26.5168  -25.9740   21.5367 C   0  0  0  0  0  0  0  0  0  0  0  0
  -28.3857  -20.6507   21.4822 C   0  0  0  0  0  0  0  0  0  0  0  0
  -20.9619  -20.3775   24.7632 C   0  0  0  0  0  0  0  0  0  0  0  0
  -29.9710  -22.0319   22.5937 C   0  0  0  0  0  0  0  0  0  0  0  0
  -24.2152  -15.4036   21.1136 C   0  0  0  0  0  0  0  0  0  0  0  0
  -24.3185  -12.8547   21.1037 C   0  0  0  0  0  0  0  0  0  0  0  0
  -28.6963  -34.0673   17.9512 C   0  0  0  0  0  0  0  0  0  0  0  0
  -26.3300  -27.2979   19.5188 C   0  0  0  0  0  0  0  0  0  0  0  0
  -28.8353  -32.7388   18.3962 C   0  0  0  0  0  0  0  0  0  0  0  0
  -26.0146  -27.1025   20.8710 C   0  0  0  0  0  0  0  0  0  0  0  0
  -28.9889  -21.8952   21.6260 C   0  0  0  0  0  0  0  0  0  0  0  0
  -22.9302  -17.8581   21.4406 C   0  0  0  0  0  0  0  0  0  0  0  0
  -27.3112  -25.0461   20.8635 C   0  0  0  0  0  0  0  0  0  0  0  0
  -21.4951  -19.2159   22.7130 C   0  0  0  0  0  0  0  0  0  0  0  0
  -28.7776  -19.5958   22.2988 C   0  0  0  0  0  0  0  0  0  0  0  0
  -19.8646  -19.5376   24.9537 C   0  0  0  0  0  0  0  0  0  0  0  0
  -21.7771  -20.2167   23.6429 C   0  0  0  0  0  0  0  0  0  0  0  0
  -24.8791  -14.1361   20.9440 C   0  0  0  0  0  0  0  0  0  0  0  0
  -29.7693  -19.8354   23.2363 C   0  0  0  0  0  0  0  0  0  0  0  0
  -25.3518  -11.9916   20.8318 C   0  0  0  0  0  0  0  0  0  0  0  0
  -22.9832  -12.4782   21.4654 C   0  0  0  0  0  0  0  0  0  0  0  0
  -26.6244  -30.3893   20.1975 C   0  0  0  0  0  0  0  0  0  0  0  0
  -23.5977  -30.0343   21.3089 C   0  0  0  0  0  0  0  0  0  0  0  0
  -21.1874  -27.9532   22.5362 C   0  0  0  0  0  0  0  0  0  0  0  0
  -31.2991  -12.5755   21.1177 C   0  0  0  0  0  0  0  0  0  0  0  0
  -27.9594  -35.1029   18.7632 C   0  0  0  0  0  0  0  0  0  0  0  0
  -25.7855  -28.4855   18.7735 C   0  0  0  0  0  0  0  0  0  0  0  0
  -25.1560  -28.0769   21.6338 C   0  0  0  0  0  0  0  0  0  0  0  0
  -27.0429  -34.5038   19.8268 C   0  0  0  0  0  0  0  0  0  0  0  0
  -29.3794  -11.6273   18.3082 C   0  0  0  0  0  0  0  0  0  0  0  0
  -27.7684  -33.4077   20.6007 C   0  0  0  0  0  0  0  0  0  0  0  0
  -27.9605  -12.0696   18.6548 C   0  0  0  0  0  0  0  0  0  0  0  0
  -32.5193  -14.2434   24.1880 C   0  0  0  0  0  0  0  0  0  0  0  0
  -30.3999  -12.6358   18.8183 C   0  0  0  0  0  0  0  0  0  0  0  0
  -32.5824  -13.1215   23.1634 C   0  0  0  0  0  0  0  0  0  0  0  0
  -30.8696  -14.6772   22.5265 C   0  0  0  0  0  0  0  0  0  0  0  0
  -28.9011  -13.2979   20.6796 C   0  0  0  0  0  0  0  0  0  0  0  0
  -28.1810  -32.2582   19.6734 C   0  0  1  0  0  0  0  0  0  0  0  0
  -25.4194  -29.6493   19.6894 C   0  0  1  0  0  0  0  0  0  0  0  0
  -31.9084  -15.3948   23.3883 C   0  0  1  0  0  0  0  0  0  0  0  0
  -27.8250  -12.3197   20.1648 C   0  0  1  0  0  0  0  0  0  0  0  0
  -18.8280  -27.9595   23.3909 C   0  0  0  0  0  0  0  0  0  0  0  0
  -24.5581  -31.2351   23.9443 C   0  0  0  0  0  0  0  0  0  0  0  0
  -22.4787  -30.3528   25.0238 C   0  0  0  0  0  0  0  0  0  0  0  0
  -22.3121  -32.0358   23.1902 C   0  0  0  0  0  0  0  0  0  0  0  0
  -20.2822  -26.1273   20.3901 C   0  0  0  0  0  0  0  0  0  0  0  0
  -27.1822  -18.2415   21.1692 C   0  0  0  0  0  0  0  0  0  0  0  0
  -28.5919  -23.0444   20.7694 C   0  0  0  0  0  0  0  0  0  1  0  0
  -30.2306  -18.7307   24.1407 C   0  0  0  0  0  0  0  0  0  0  0  0
  -31.3165  -16.4847   24.2638 C   0  0  0  0  0  0  0  0  0  0  0  0
  -22.9831  -29.6620   22.6365 C   0  0  1  0  0  0  0  0  0  0  0  0
  -19.7230  -27.7838   22.1740 C   0  0  2  0  0  0  0  0  0  0  0  0
  -23.1008  -30.8039   23.6851 C   0  0  0  0  0  0  0  0  0  0  0  0
  -30.3783  -21.0305   23.4055 N   0  0  0  0  0  0  0  0  0  0  0  0
  -26.1685  -14.0953   20.5977 N   0  0  0  0  0  0  0  0  0  0  0  0
  -26.4267  -12.7778   20.5376 N   0  0  0  0  0  0  0  0  0  0  0  0
  -24.6526  -29.2256   20.8627 N   0  0  0  0  0  0  0  0  0  0  0  0
  -30.2452  -12.8884   20.2521 N   0  0  0  0  0  0  0  0  0  0  0  0
  -31.4712  -13.3702   22.2503 N   0  0  0  0  0  0  0  0  0  0  0  0
  -25.4367  -10.6443   20.8182 N   0  0  0  0  0  0  0  0  0  0  0  0
  -22.0464  -13.4916   21.7102 N   0  0  0  0  0  0  0  0  0  0  0  0
  -27.0422  -31.4170   19.3737 N   0  0  0  0  0  0  0  0  0  0  0  0
  -21.6124  -29.2518   22.3511 N   0  0  0  0  0  0  0  0  0  0  0  0
  -19.4834  -26.4268   21.6063 N   0  3  0  0  0  0  0  0  0  0  0  0
  -30.7914  -17.5659   23.4003 N   0  3  0  0  0  0  0  0  0  0  0  0
  -22.6354  -11.2789   21.5845 O   0  0  0  0  0  0  0  0  0  0  0  0
  -27.1363  -30.0536   21.2591 O   0  0  0  0  0  0  0  0  0  0  0  0
  -23.1534  -31.0026   20.6871 O   0  0  0  0  0  0  0  0  0  0  0  0
  -21.8836  -27.0270   22.9462 O   0  0  0  0  0  0  0  0  0  0  0  0
  -32.0824  -11.6492   20.8682 O   0  0  0  0  0  0  0  0  0  0  0  0
  -22.3030  -19.0555   21.5998 O   0  0  0  0  0  0  0  0  0  0  0  0
  -28.1941  -18.3772   22.1682 O   0  0  0  0  0  0  0  0  0  0  0  0
  -27.7932  -23.9484   21.5256 O   0  0  0  0  0  0  0  0  0  1  0  0
  -19.0808  -19.6929   26.0287 F   0  0  0  0  0  0  0  0  0  0  0  0
  -22.8292  -21.0274   23.4646 F   0  0  0  0  0  0  0  0  0  0  0  0
  1  2  1  0  0  0  0
  1  5  2  0  0  0  0
  2  6  2  0  0  0  0
  3  8  2  0  0  0  0
  3 17  1  0  0  0  0
  4  9  1  0  0  0  0
  4 17  2  0  0  0  0
  5 19  1  0  0  0  0
  6 21  1  0  0  0  0
  7 10  2  0  0  0  0
  7 20  1  0  0  0  0
  8 24  1  0  0  0  0
  9 24  2  0  0  0  0
 10 25  1  0  0  0  0
 11 12  2  0  0  0  0
 11 26  1  0  0  0  0
 12 28  1  0  0  0  0
 13 22  1  0  0  0  0
 13 25  2  0  0  0  0
 14 23  2  0  0  0  0
 14 27  1  0  0  0  0
 15 28  2  0  0  0  0
 15 29  1  0  0  0  0
 16 23  1  0  0  0  0
 16 66  2  0  0  0  0
 17 30  1  0  0  0  0
 18 30  1  0  0  0  0
 18 32  2  0  0  0  0
 18 33  1  0  0  0  0
 19 21  2  0  0  0  0
 19 38  1  0  0  0  0
 20 22  2  0  0  0  0
 20 39  1  0  0  0  0
 21 50  1  0  0  0  0
 22 40  1  0  0  0  0
 23 60  1  0  0  0  0
 24 83  1  0  0  0  0
 25 85  1  0  0  0  0
 26 29  2  0  0  0  0
 26 83  1  0  0  0  0
 27 31  2  0  0  0  0
 27 84  1  0  0  0  0
 28 86  1  0  0  0  0
 29 87  1  0  0  0  0
 30 67  2  0  0  0  0
 31 61  1  0  0  0  0
 31 66  1  0  0  0  0
 32 68  1  0  0  0  0
 32 72  1  0  0  0  0
 33 73  1  0  0  0  0
 33 78  2  0  0  0  0
 34 51  1  0  0  0  0
 34 74  1  0  0  0  0
 34 79  2  0  0  0  0
 35 63  1  0  0  0  0
 35 69  1  0  0  0  0
 35 80  2  0  0  0  0
 36 64  1  0  0  0  0
 36 75  1  0  0  0  0
 36 81  2  0  0  0  0
 37 70  1  0  0  0  0
 37 71  1  0  0  0  0
 37 82  2  0  0  0  0
 38 41  1  0  0  0  0
 39 51  1  0  0  0  0
 40 69  1  0  0  0  0
 41 43  1  0  0  0  0
 42 44  1  0  0  0  0
 42 46  1  0  0  0  0
 43 50  1  0  0  0  0
 44 53  1  0  0  0  0
 45 47  1  0  0  0  0
 45 52  1  0  0  0  0
 46 70  1  0  0  0  0
 47 71  1  0  0  0  0
 48 52  1  0  0  0  0
 48 71  1  0  0  0  0
 49 53  1  0  0  0  0
 49 70  1  0  0  0  0
 50 74  1  0  0  0  0
 51 69  1  0  0  0  0
 52 62  1  0  0  0  0
 53 68  1  0  0  0  0
 54 64  1  0  0  0  0
 55 65  1  0  0  0  0
 56 65  1  0  0  0  0
 57 65  1  0  0  0  0
 58 76  1  0  0  0  0
 59 84  1  0  0  0  0
 60 85  1  0  0  0  0
 61 77  1  0  0  0  0
 62 77  1  0  0  0  0
 63 65  1  0  0  0  0
 63 75  1  0  0  0  0
 64 76  1  0  0  0  0
 67 68  1  0  0  0  0
M  CHG  2  76   1  77   1
M  ISO  4  37 100  60 101  71 100  85 101
M  END
> <Batch ID>
0122

> <Smiles>
CNC(C)C(=O)NC(C(=O)N1Cc2cc([101O:1][101CH2:1]c3cnc(CNCC4CC[100N:0]([100C:0](=O)N5CCCC(n6nc(-c7ccc(Oc8ccc(F)cc8F)cc7)c(C(N)=O)c6N)C5)C4)c(OC)c3)ccc2CC1C(=O)NC1CCCc2ccccc21)C(C)(C)C

> <Shape>
0.246

> <Color>
0.081

> <Negative vol penalty>
0.000

$$$$

  -OEChem-04052320283D

 83 91  0     1  0  0  0  0  0999 V2000
  -21.9970  -21.3363   23.2423 C   0  0  0  0  0  0  0  0  0  0  0  0
  -23.2299  -21.8921   22.9161 C   0  0  0  0  0  0  0  0  0  0  0  0
  -24.2344   -9.6137   22.0425 C   0  0  0  0  0  0  0  0  0  0  0  0
  -22.9317  -10.2379   20.1059 C   0  0  0  0  0  0  0  0  0  0  0  0
  -20.8403  -22.1100   23.1568 C   0  0  0  0  0  0  0  0  0  0  0  0
  -23.3067  -23.2217   22.5031 C   0  0  0  0  0  0  0  0  0  0  0  0
  -27.1072  -25.7284   24.7205 C   0  0  0  0  0  0  0  0  0  0  0  0
  -23.3818   -8.5331   22.2678 C   0  0  0  0  0  0  0  0  0  0  0  0
  -22.0791   -9.1572   20.3312 C   0  0  0  0  0  0  0  0  0  0  0  0
  -28.3911  -25.5076   24.2238 C   0  0  0  0  0  0  0  0  0  0  0  0
  -22.9165   -5.4250   21.0202 C   0  0  0  0  0  0  0  0  0  0  0  0
  -23.4971   -4.1928   21.3201 C   0  0  0  0  0  0  0  0  0  0  0  0
  -29.4304  -21.3175   19.3426 C   0  0  0  0  0  0  0  0  0  0  0  0
  -28.2546  -27.5655   22.9727 C   0  0  0  0  0  0  0  0  0  0  0  0
  -22.3415   -4.1645   23.4416 C   0  0  0  0  0  0  0  0  0  0  0  0
  -28.2741  -20.8157   18.7871 C   0  0  0  0  0  0  0  0  0  0  0  0
  -27.7156  -21.7979   20.7205 C   0  0  0  0  0  0  0  0  0  0  0  0
  -24.0094  -10.4662   20.9616 C   0  0  0  0  0  0  0  0  0  0  0  0
  -26.0591  -11.5947   19.9454 C   0  0  0  0  0  0  0  0  0  0  0  0
  -20.9041  -23.4526   22.7518 C   0  0  0  0  0  0  0  0  0  0  0  0
  -26.3820  -26.8659   24.3378 C   0  0  0  0  0  0  0  0  0  0  0  0
  -22.1496  -24.0138   22.4108 C   0  0  0  0  0  0  0  0  0  0  0  0
  -26.9627  -27.7998   23.4680 C   0  0  0  0  0  0  0  0  0  0  0  0
  -29.0771  -21.9389   20.5657 C   0  0  0  0  0  0  0  0  0  0  0  0
  -22.3042   -8.3047   21.4121 C   0  0  0  0  0  0  0  0  0  0  0  0
  -28.9639  -26.4247   23.3476 C   0  0  0  0  0  0  0  0  0  0  0  0
  -22.0484   -6.0271   21.9310 C   0  0  0  0  0  0  0  0  0  0  0  0
  -23.2096   -3.5625   22.5307 C   0  0  0  0  0  0  0  0  0  0  0  0
  -21.7609   -5.3968   23.1417 C   0  0  0  0  0  0  0  0  0  0  0  0
  -24.8894  -11.5830   20.7287 C   0  0  0  0  0  0  0  0  0  0  0  0
  -26.5262  -12.8825   20.0452 C   0  0  0  0  0  0  0  0  0  0  0  0
  -26.6688  -10.5362   19.1947 C   0  0  0  0  0  0  0  0  0  0  0  0
  -23.6469  -27.3694   22.7985 C   0  0  0  0  0  0  0  0  0  0  0  0
  -24.2190  -30.4614   23.5950 C   0  0  0  0  0  0  0  0  0  0  0  0
  -26.4920  -32.8624   24.4409 C   0  0  0  0  0  0  0  0  0  0  0  0
  -25.4801  -18.2939   19.7859 C   0  0  0  0  0  0  0  0  0  0  0  0
  -19.6209  -24.2357   22.6292 C   0  0  0  0  0  0  0  0  0  0  0  0
  -25.0086  -27.1032   24.9034 C   0  0  0  0  0  0  0  0  0  0  0  0
  -26.2338  -29.0472   23.0422 C   0  0  0  0  0  0  0  0  0  0  0  0
  -19.8342  -25.7447   22.5429 C   0  0  0  0  0  0  0  0  0  0  0  0
  -25.1796  -16.6623   23.0923 C   0  0  0  0  0  0  0  0  0  0  0  0
  -20.9404  -26.0713   21.5447 C   0  0  0  0  0  0  0  0  0  0  0  0
  -25.1127  -15.1930   22.6878 C   0  0  0  0  0  0  0  0  0  0  0  0
  -24.5250  -17.5743   22.0556 C   0  0  0  0  0  0  0  0  0  0  0  0
  -24.9989  -15.9158   20.2725 C   0  0  0  0  0  0  0  0  0  0  0  0
  -22.2767  -25.4596   21.9824 C   0  0  1  0  0  0  0  0  0  0  0  0
  -24.1610  -28.0355   24.0433 C   0  0  1  0  0  0  0  0  0  0  0  0
  -25.6975  -14.9925   21.2819 C   0  0  2  0  0  0  0  0  0  0  0  0
  -33.0373  -25.5575   23.1098 C   0  0  0  0  0  0  0  0  0  0  0  0
  -30.0541  -21.8984   22.8749 C   0  0  0  0  0  0  0  0  0  0  0  0
  -26.6647  -35.3039   24.9945 C   0  0  0  0  0  0  0  0  0  0  0  0
  -23.8942  -31.1519   20.6407 C   0  0  0  0  0  0  0  0  0  0  0  0
  -24.9907  -33.3539   21.1065 C   0  0  0  0  0  0  0  0  0  0  0  0
  -22.8314  -32.7785   22.2152 C   0  0  0  0  0  0  0  0  0  0  0  0
  -27.5611  -32.2933   27.1413 C   0  0  0  0  0  0  0  0  0  0  0  0
  -32.0753  -24.8142   22.1926 C   0  0  0  0  0  0  0  0  0  0  0  0
  -29.6808  -24.1269   21.7431 C   0  0  0  0  0  0  0  0  0  0  0  0
  -25.7978  -20.7441   19.4048 C   0  0  0  0  0  0  0  0  0  0  0  0
  -30.0235  -22.6341   21.5291 C   0  0  2  0  0  0  0  0  0  0  0  0
  -24.9513  -31.6135   22.9506 C   0  0  1  0  0  0  0  0  0  0  0  0
  -26.4972  -33.8984   25.5505 C   0  0  2  0  0  0  0  0  0  0  0  0
  -30.6318  -24.8544   22.7085 C   0  0  2  0  0  0  0  0  0  1  0  0
  -24.1802  -32.2001   21.7345 C   0  0  0  0  0  0  0  0  0  0  0  0
  -24.6296  -12.7692   21.2851 N   0  0  0  0  0  0  0  0  0  0  0  0
  -27.2382  -21.1134   19.6335 N   0  0  0  0  0  0  0  0  0  0  0  0
  -25.6426  -13.5382   20.8510 N   0  0  0  0  0  0  0  0  0  0  0  0
  -24.8912  -29.2312   23.6174 N   0  0  0  0  0  0  0  0  0  0  0  0
  -25.0420  -17.3190   20.7017 N   0  0  0  0  0  0  0  0  0  0  0  0
  -27.6026  -13.5066   19.5213 N   0  0  0  0  0  0  0  0  0  0  0  0
  -26.0574   -9.2751   19.2004 N   0  0  0  0  0  0  0  0  0  0  0  0
  -22.8728  -26.2501   23.0380 N   0  0  0  0  0  0  0  0  0  0  0  0
  -25.2122  -32.5775   24.0141 N   0  0  0  0  0  0  0  0  0  0  0  0
  -25.3974  -19.6110   20.2241 N   0  0  0  0  0  0  0  0  0  0  0  0
  -27.6134  -33.6331   26.5016 N   0  3  0  0  0  0  0  0  0  0  0  0
  -27.7333  -10.6995   18.5516 O   0  0  0  0  0  0  0  0  0  0  0  0
  -23.9303  -27.8373   21.7019 O   0  0  0  0  0  0  0  0  0  0  0  0
  -23.0950  -30.6479   24.0677 O   0  0  0  0  0  0  0  0  0  0  0  0
  -27.5207  -32.3592   23.9946 O   0  0  0  0  0  0  0  0  0  0  0  0
  -25.9041  -18.0096   18.6607 O   0  0  0  0  0  0  0  0  0  0  0  0
  -21.4721   -7.2502   21.6315 O   0  0  0  0  0  0  0  0  0  0  0  0
  -30.2166  -26.2112   22.8608 O   0  0  0  0  0  0  0  0  0  1  0  0
  -23.7661   -2.3784   22.8179 F   0  0  0  0  0  0  0  0  0  0  0  0
  -20.9267   -5.9698   24.0202 F   0  0  0  0  0  0  0  0  0  0  0  0
  1  2  1  0  0  0  0
  1  5  2  0  0  0  0
  2  6  2  0  0  0  0
  3  8  2  0  0  0  0
  3 18  1  0  0  0  0
  4  9  1  0  0  0  0
  4 18  2  0  0  0  0
  5 20  1  0  0  0  0
  6 22  1  0  0  0  0
  7 10  2  0  0  0  0
  7 21  1  0  0  0  0
  8 25  1  0  0  0  0
  9 25  2  0  0  0  0
 10 26  1  0  0  0  0
 11 12  2  0  0  0  0
 11 27  1  0  0  0  0
 12 28  1  0  0  0  0
 13 16  2  0  0  0  0
 13 24  1  0  0  0  0
 14 23  1  0  0  0  0
 14 26  2  0  0  0  0
 15 28  2  0  0  0  0
 15 29  1  0  0  0  0
 16 65  1  0  0  0  0
 17 24  2  0  0  0  0
 17 65  1  0  0  0  0
 18 30  1  0  0  0  0
 19 30  1  0  0  0  0
 19 31  2  0  0  0  0
 19 32  1  0  0  0  0
 20 22  2  0  0  0  0
 20 37  1  0  0  0  0
 21 23  2  0  0  0  0
 21 38  1  0  0  0  0
 22 46  1  0  0  0  0
 23 39  1  0  0  0  0
 24 59  1  0  0  0  0
 25 80  1  0  0  0  0
 26 81  1  0  0  0  0
 27 29  2  0  0  0  0
 27 80  1  0  0  0  0
 28 82  1  0  0  0  0
 29 83  1  0  0  0  0
 30 64  2  0  0  0  0
 31 66  1  0  0  0  0
 31 69  1  0  0  0  0
 32 70  1  0  0  0  0
 32 75  2  0  0  0  0
 33 47  1  0  0  0  0
 33 71  1  0  0  0  0
 33 76  2  0  0  0  0
 34 60  1  0  0  0  0
 34 67  1  0  0  0  0
 34 77  2  0  0  0  0
 35 61  1  0  0  0  0
 35 72  1  0  0  0  0
 35 78  2  0  0  0  0
 36 68  1  0  0  0  0
 36 73  1  0  0  0  0
 36 79  2  0  0  0  0
 37 40  1  0  0  0  0
 38 47  1  0  0  0  0
 39 67  1  0  0  0  0
 40 42  1  0  0  0  0
 41 43  1  0  0  0  0
 41 44  1  0  0  0  0
 42 46  1  0  0  0  0
 43 48  1  0  0  0  0
 44 68  1  0  0  0  0
 45 48  1  0  0  0  0
 45 68  1  0  0  0  0
 46 71  1  0  0  0  0
 47 67  1  0  0  0  0
 48 66  1  0  0  0  0
 49 56  1  0  0  0  0
 50 59  1  0  0  0  0
 51 61  1  0  0  0  0
 52 63  1  0  0  0  0
 53 63  1  0  0  0  0
 54 63  1  0  0  0  0
 55 74  1  0  0  0  0
 56 62  1  0  0  0  0
 57 59  1  0  0  0  0
 57 62  1  0  0  0  0
 58 65  1  0  0  0  0
 58 73  1  0  0  0  0
 60 63  1  0  0  0  0
 60 72  1  0  0  0  0
 61 74  1  0  0  0  0
 62 81  1  0  0  0  0
 64 66  1  0  0  0  0
M  CHG  1  74   1
M  ISO  4  36 100  62 101  73 100  81 101
M  END
> <Batch ID>
0122

> <Smiles>
CC[101CH:1](CC(C)c1ccn(C[100NH:0][100C:0](=O)N2CCCC(n3nc(-c4ccc(Oc5ccc(F)cc5F)cc4)c(C(N)=O)c3N)C2)c1)[101O:1]c1ccc2c(c1)CN(C(=O)C(NC(=O)C(C)NC)C(C)(C)C)C(C(=O)NC1CCCc3ccccc31)C2

> <Shape>
0.236

> <Color>
0.058

> <Negative vol penalty>
0.000

$$$$

  -OEChem-04052320283D

 83 91  0     1  0  0  0  0  0999 V2000
  -17.5194  -29.1797   19.6070 C   0  0  0  0  0  0  0  0  0  0  0  0
  -18.8719  -29.1930   19.2816 C   0  0  0  0  0  0  0  0  0  0  0  0
  -26.6837  -12.6561   21.7124 C   0  0  0  0  0  0  0  0  0  0  0  0
  -26.1655  -13.9473   19.7372 C   0  0  0  0  0  0  0  0  0  0  0  0
  -17.1073  -28.7011   20.8500 C   0  0  0  0  0  0  0  0  0  0  0  0
  -19.8133  -28.7287   20.1995 C   0  0  0  0  0  0  0  0  0  0  0  0
  -25.0264  -25.7682   18.9484 C   0  0  0  0  0  0  0  0  0  0  0  0
  -25.3937  -12.1254   21.7039 C   0  0  0  0  0  0  0  0  0  0  0  0
  -24.8755  -13.4166   19.7287 C   0  0  0  0  0  0  0  0  0  0  0  0
  -26.3492  -26.1978   18.8525 C   0  0  0  0  0  0  0  0  0  0  0  0
  -23.6986   -9.7250   20.0313 C   0  0  0  0  0  0  0  0  0  0  0  0
  -23.5611   -8.3522   20.2364 C   0  0  0  0  0  0  0  0  0  0  0  0
  -26.7275  -25.5234   21.1376 C   0  0  0  0  0  0  0  0  0  0  0  0
  -30.6274  -22.7561   19.9956 C   0  0  0  0  0  0  0  0  0  0  0  0
  -22.2143   -8.7798   22.1961 C   0  0  0  0  0  0  0  0  0  0  0  0
  -27.0695  -13.5671   20.7290 C   0  0  0  0  0  0  0  0  0  0  0  0
  -29.5408  -13.5930   20.0966 C   0  0  0  0  0  0  0  0  0  0  0  0
  -18.0433  -28.2218   21.7799 C   0  0  0  0  0  0  0  0  0  0  0  0
  -24.5403  -25.2221   20.1450 C   0  0  0  0  0  0  0  0  0  0  0  0
  -19.4135  -28.2445   21.4567 C   0  0  0  0  0  0  0  0  0  0  0  0
  -25.3987  -25.0853   21.2452 C   0  0  0  0  0  0  0  0  0  0  0  0
  -30.3946  -23.5359   18.8359 C   0  0  0  0  0  0  0  0  0  0  0  0
  -24.4897  -12.5057   20.7121 C   0  0  0  0  0  0  0  0  0  0  0  0
  -27.1992  -26.0781   19.9481 C   0  0  0  0  0  0  0  0  0  0  0  0
  -23.0941  -10.6253   20.9087 C   0  0  0  0  0  0  0  0  0  0  0  0
  -22.8189   -7.8796   21.3187 C   0  0  0  0  0  0  0  0  0  0  0  0
  -22.3519  -10.1527   21.9911 C   0  0  0  0  0  0  0  0  0  0  0  0
  -28.4017  -14.1160   20.7376 C   0  0  0  0  0  0  0  0  0  0  0  0
  -29.7202  -22.7419   17.9348 C   0  0  0  0  0  0  0  0  0  0  0  0
  -30.0884  -21.5091   19.7677 C   0  0  0  0  0  0  0  0  0  0  0  0
  -30.5459  -14.4754   20.4087 C   0  0  0  0  0  0  0  0  0  0  0  0
  -29.6780  -12.4149   19.2910 C   0  0  0  0  0  0  0  0  0  0  0  0
  -22.2688  -26.0264   22.2180 C   0  0  0  0  0  0  0  0  0  0  0  0
  -23.0320  -23.1757   23.5648 C   0  0  0  0  0  0  0  0  0  0  0  0
  -25.3518  -20.7140   24.0178 C   0  0  0  0  0  0  0  0  0  0  0  0
  -30.5810  -20.2616   21.9001 C   0  0  0  0  0  0  0  0  0  0  0  0
  -17.5541  -27.7582   23.1292 C   0  0  0  0  0  0  0  0  0  0  0  0
  -23.1181  -24.7388   20.2238 C   0  0  0  0  0  0  0  0  0  0  0  0
  -24.9314  -24.4871   22.5461 C   0  0  0  0  0  0  0  0  0  0  0  0
  -18.5831  -26.9357   23.9005 C   0  0  0  0  0  0  0  0  0  0  0  0
  -31.8965  -17.5617   23.8124 C   0  0  0  0  0  0  0  0  0  0  0  0
  -19.9493  -27.6128   23.8566 C   0  0  0  0  0  0  0  0  0  0  0  0
  -31.2580  -16.3236   23.1787 C   0  0  0  0  0  0  0  0  0  0  0  0
  -30.9327  -18.7466   23.8382 C   0  0  0  0  0  0  0  0  0  0  0  0
  -29.6926  -17.8478   21.9086 C   0  0  0  0  0  0  0  0  0  0  0  0
  -20.4628  -27.7263   22.4161 C   0  0  1  0  0  0  0  0  0  0  0  0
  -22.5882  -24.6713   21.6528 C   0  0  1  0  0  0  0  0  0  0  0  0
  -30.6469  -16.6472   21.8012 C   0  0  2  0  0  0  0  0  0  0  0  0
  -29.2319  -23.0495   16.5733 C   0  0  0  0  0  0  0  0  0  0  0  0
  -32.1658  -25.0204   17.8997 C   0  0  0  0  0  0  0  0  0  0  0  0
  -25.6993  -18.5282   25.2007 C   0  0  0  0  0  0  0  0  0  0  0  0
  -31.2985  -27.2420   19.7426 C   0  0  0  0  0  0  0  0  0  0  0  0
  -23.4177  -24.6656   26.1995 C   0  0  0  0  0  0  0  0  0  0  0  0
  -24.6511  -22.6677   27.0684 C   0  0  0  0  0  0  0  0  0  0  0  0
  -22.2544  -22.4616   26.4080 C   0  0  0  0  0  0  0  0  0  0  0  0
  -28.8711  -20.3891   17.8874 C   0  0  0  0  0  0  0  0  0  0  0  0
  -25.7560  -19.2660   21.4686 C   0  0  0  0  0  0  0  0  0  0  0  0
  -29.4532  -25.8138   20.6593 C   0  0  0  0  0  0  0  0  0  1  0  0
  -30.8149  -24.9859   18.6318 C   0  0  2  0  0  0  0  0  0  0  0  0
  -24.0168  -22.7183   24.6136 C   0  0  1  0  0  0  0  0  0  0  0  0
  -25.2504  -19.2029   23.9138 C   0  0  2  0  0  0  0  0  0  0  0  0
  -30.8298  -25.7960   19.9662 C   0  0  1  0  0  0  0  0  0  0  0  0
  -23.5936  -23.1414   26.0486 C   0  0  0  0  0  0  0  0  0  0  0  0
  -28.6584  -15.2432   21.4065 N   0  0  0  0  0  0  0  0  0  0  0  0
  -29.5398  -21.5119   18.5118 N   0  0  0  0  0  0  0  0  0  0  0  0
  -29.9703  -15.4357   21.1876 N   0  0  0  0  0  0  0  0  0  0  0  0
  -23.5306  -24.0351   22.5755 N   0  0  0  0  0  0  0  0  0  0  0  0
  -30.3970  -18.9971   22.4984 N   0  0  0  0  0  0  0  0  0  0  0  0
  -31.8572  -14.5158   20.0903 N   0  0  0  0  0  0  0  0  0  0  0  0
  -28.5444  -11.6208   19.0701 N   0  0  0  0  0  0  0  0  0  0  0  0
  -30.0571  -20.3720   20.6126 N   0  0  0  0  0  0  0  0  0  0  0  0
  -20.9797  -26.4531   21.9621 N   0  0  0  0  0  0  0  0  0  0  0  0
  -24.1645  -21.2780   24.4343 N   0  0  0  0  0  0  0  0  0  0  0  0
  -26.1027  -18.7021   22.7986 N   0  3  0  0  0  0  0  0  0  0  0  0
  -30.7768  -12.0676   18.7956 O   0  0  0  0  0  0  0  0  0  0  0  0
  -23.1278  -26.6387   22.8415 O   0  0  0  0  0  0  0  0  0  0  0  0
  -21.8651  -22.7793   23.6172 O   0  0  0  0  0  0  0  0  0  0  0  0
  -26.3823  -21.3318   23.7593 O   0  0  0  0  0  0  0  0  0  0  0  0
  -31.1846  -21.1704   22.4762 O   0  0  0  0  0  0  0  0  0  0  0  0
  -23.2309  -11.9879   20.7034 O   0  0  0  0  0  0  0  0  0  0  0  0
  -28.4907  -26.4973   19.8575 O   0  0  0  0  0  0  0  0  0  1  0  0
  -22.6856   -6.5612   21.5146 F   0  0  0  0  0  0  0  0  0  0  0  0
  -21.7678  -11.0127   22.8366 F   0  0  0  0  0  0  0  0  0  0  0  0
  1  2  1  0  0  0  0
  1  5  2  0  0  0  0
  2  6  2  0  0  0  0
  3  8  2  0  0  0  0
  3 16  1  0  0  0  0
  4  9  1  0  0  0  0
  4 16  2  0  0  0  0
  5 18  1  0  0  0  0
  6 20  1  0  0  0  0
  7 10  2  0  0  0  0
  7 19  1  0  0  0  0
  8 23  1  0  0  0  0
  9 23  2  0  0  0  0
 10 24  1  0  0  0  0
 11 12  2  0  0  0  0
 11 25  1  0  0  0  0
 12 26  1  0  0  0  0
 13 21  1  0  0  0  0
 13 24  2  0  0  0  0
 14 22  1  0  0  0  0
 14 30  2  0  0  0  0
 15 26  2  0  0  0  0
 15 27  1  0  0  0  0
 16 28  1  0  0  0  0
 17 28  1  0  0  0  0
 17 31  2  0  0  0  0
 17 32  1  0  0  0  0
 18 20  2  0  0  0  0
 18 37  1  0  0  0  0
 19 21  2  0  0  0  0
 19 38  1  0  0  0  0
 20 46  1  0  0  0  0
 21 39  1  0  0  0  0
 22 29  2  0  0  0  0
 22 59  1  0  0  0  0
 23 80  1  0  0  0  0
 24 81  1  0  0  0  0
 25 27  2  0  0  0  0
 25 80  1  0  0  0  0
 26 82  1  0  0  0  0
 27 83  1  0  0  0  0
 28 64  2  0  0  0  0
 29 49  1  0  0  0  0
 29 65  1  0  0  0  0
 30 65  1  0  0  0  0
 30 71  1  0  0  0  0
 31 66  1  0  0  0  0
 31 69  1  0  0  0  0
 32 70  1  0  0  0  0
 32 75  2  0  0  0  0
 33 47  1  0  0  0  0
 33 72  1  0  0  0  0
 33 76  2  0  0  0  0
 34 60  1  0  0  0  0
 34 67  1  0  0  0  0
 34 77  2  0  0  0  0
 35 61  1  0  0  0  0
 35 73  1  0  0  0  0
 35 78  2  0  0  0  0
 36 68  1  0  0  0  0
 36 71  1  0  0  0  0
 36 79  2  0  0  0  0
 37 40  1  0  0  0  0
 38 47  1  0  0  0  0
 39 67  1  0  0  0  0
 40 42  1  0  0  0  0
 41 43  1  0  0  0  0
 41 44  1  0  0  0  0
 42 46  1  0  0  0  0
 43 48  1  0  0  0  0
 44 68  1  0  0  0  0
 45 48  1  0  0  0  0
 45 68  1  0  0  0  0
 46 72  1  0  0  0  0
 47 67  1  0  0  0  0
 48 66  1  0  0  0  0
 50 59  1  0  0  0  0
 51 61  1  0  0  0  0
 52 62  1  0  0  0  0
 53 63  1  0  0  0  0
 54 63  1  0  0  0  0
 55 63  1  0  0  0  0
 56 65  1  0  0  0  0
 57 74  1  0  0  0  0
 58 62  1  0  0  0  0
 58 81  1  0  0  0  0
 59 62  1  0  0  0  0
 60 63  1  0  0  0  0
 60 73  1  0  0  0  0
 61 74  1  0  0  0  0
 64 66  1  0  0  0  0
M  CHG  1  74   1
M  ISO  4  36 100  58 101  71 100  81 101
M  END
> <Batch ID>
0122

> <Smiles>
CNC(C)C(=O)NC(C(=O)N1Cc2cc([101O:1][101CH2:1]C(C)C(C)c3cc([100NH:0][100C:0](=O)N4CCCC(n5nc(-c6ccc(Oc7ccc(F)cc7F)cc6)c(C(N)=O)c5N)C4)n(C)c3C)ccc2CC1C(=O)NC1CCCc2ccccc21)C(C)(C)C

> <Shape>
0.257

> <Color>
0.084

> <Negative vol penalty>
0.000

$$$$

  -OEChem-04052320283D

 84 93  0     1  0  0  0  0  0999 V2000
  -21.0983  -30.5757   24.5964 C   0  0  0  0  0  0  0  0  0  0  0  0
  -21.3879  -29.4764   23.7945 C   0  0  0  0  0  0  0  0  0  0  0  0
  -23.0776   -9.8647   19.9420 C   0  0  0  0  0  0  0  0  0  0  0  0
  -23.8331   -9.8775   22.2368 C   0  0  0  0  0  0  0  0  0  0  0  0
  -21.5460  -30.6115   25.9164 C   0  0  0  0  0  0  0  0  0  0  0  0
  -22.1263  -28.4126   24.3119 C   0  0  0  0  0  0  0  0  0  0  0  0
  -21.4692  -22.4750   22.9634 C   0  0  0  0  0  0  0  0  0  0  0  0
  -22.3335   -8.7120   20.1934 C   0  0  0  0  0  0  0  0  0  0  0  0
  -23.0890   -8.7248   22.4882 C   0  0  0  0  0  0  0  0  0  0  0  0
  -22.1565  -21.6288   22.0943 C   0  0  0  0  0  0  0  0  0  0  0  0
  -19.8599   -7.9277   23.0866 C   0  0  0  0  0  0  0  0  0  0  0  0
  -19.1007   -7.8904   24.2561 C   0  0  0  0  0  0  0  0  0  0  0  0
  -31.9510  -17.0734   22.1179 C   0  0  0  0  0  0  0  0  0  0  0  0
  -23.5317  -20.8737   23.9267 C   0  0  0  0  0  0  0  0  0  0  0  0
  -20.3412   -5.9551   24.9997 C   0  0  0  0  0  0  0  0  0  0  0  0
  -32.4236  -18.2901   22.5752 C   0  0  0  0  0  0  0  0  0  0  0  0
  -23.8274  -10.4474   20.9637 C   0  0  0  0  0  0  0  0  0  0  0  0
  -24.1689  -12.9724   20.8381 C   0  0  0  0  0  0  0  0  0  0  0  0
  -22.2819  -29.5434   26.4531 C   0  0  0  0  0  0  0  0  0  0  0  0
  -21.8158  -22.5349   24.3209 C   0  0  0  0  0  0  0  0  0  0  0  0
  -22.5853  -28.4347   25.6399 C   0  0  0  0  0  0  0  0  0  0  0  0
  -22.8455  -21.7195   24.8115 C   0  0  0  0  0  0  0  0  0  0  0  0
  -29.7303  -18.0152   22.1901 C   0  0  0  0  0  0  0  0  0  0  0  0
  -30.5813  -16.9395   21.9275 C   0  0  0  0  0  0  0  0  0  0  0  0
  -22.3392   -8.1420   21.4665 C   0  0  0  0  0  0  0  0  0  0  0  0
  -23.1899  -20.8301   22.5753 C   0  0  0  0  0  0  0  0  0  0  0  0
  -20.8597   -6.9786   22.8735 C   0  0  0  0  0  0  0  0  0  0  0  0
  -19.3414   -6.9042   25.2127 C   0  0  0  0  0  0  0  0  0  0  0  0
  -21.1004   -5.9923   23.8301 C   0  0  0  0  0  0  0  0  0  0  0  0
  -24.5967  -11.6379   20.7045 C   0  0  0  0  0  0  0  0  0  0  0  0
  -30.3014  -19.1994   22.6626 C   0  0  0  0  0  0  0  0  0  0  0  0
  -25.2615  -13.7212   20.4751 C   0  0  0  0  0  0  0  0  0  0  0  0
  -22.8975  -13.4889   21.2533 C   0  0  0  0  0  0  0  0  0  0  0  0
  -22.9050  -24.8062   26.2596 C   0  0  0  0  0  0  0  0  0  0  0  0
  -22.4748  -22.5304   28.5308 C   0  0  0  0  0  0  0  0  0  0  0  0
  -22.2277  -19.2146   29.2994 C   0  0  0  0  0  0  0  0  0  0  0  0
  -30.7271  -14.7686   20.6576 C   0  0  0  0  0  0  0  0  0  0  0  0
  -22.7848  -29.6483   27.8711 C   0  0  0  0  0  0  0  0  0  0  0  0
  -21.0469  -23.4331   25.2506 C   0  0  0  0  0  0  0  0  0  0  0  0
  -23.2429  -21.7317   26.2642 C   0  0  0  0  0  0  0  0  0  0  0  0
  -28.2460  -17.8694   22.0256 C   0  0  0  0  0  0  0  0  0  0  0  0
  -29.4430  -20.4069   22.9319 C   0  0  0  0  0  0  0  0  0  0  0  0
  -23.2407  -28.3140   28.4560 C   0  0  0  0  0  0  0  0  0  0  0  0
  -29.6178  -12.3487   18.2932 C   0  0  0  0  0  0  0  0  0  0  0  0
  -24.1274  -27.5705   27.4622 C   0  0  0  0  0  0  0  0  0  0  0  0
  -28.1774  -12.0578   18.7207 C   0  0  0  0  0  0  0  0  0  0  0  0
  -30.5306  -12.5807   19.4960 C   0  0  0  0  0  0  0  0  0  0  0  0
  -28.6208  -13.3081   20.8718 C   0  0  0  0  0  0  0  0  0  0  0  0
  -27.9810  -20.0604   23.1879 C   0  0  0  0  0  0  0  0  0  0  0  0
  -23.3624  -27.2504   26.1723 C   0  0  1  0  0  0  0  0  0  0  0  0
  -21.8246  -23.7931   26.5127 C   0  0  1  0  0  0  0  0  0  0  0  0
  -27.6503  -13.1317   19.6926 C   0  0  2  0  0  0  0  0  0  0  0  0
  -21.9146  -17.6616   31.2456 C   0  0  0  0  0  0  0  0  0  0  0  0
  -25.5921  -20.5874   20.1539 C   0  0  0  0  0  0  0  0  0  0  0  0
  -25.3779  -22.9814   29.3546 C   0  0  0  0  0  0  0  0  0  0  0  0
  -25.2881  -20.8122   30.6014 C   0  0  0  0  0  0  0  0  0  0  0  0
  -23.7855  -22.6910   31.2611 C   0  0  0  0  0  0  0  0  0  0  0  0
  -19.7103  -18.1332   28.1805 C   0  0  0  0  0  0  0  0  0  0  0  0
  -26.0045  -18.9795   22.1004 C   0  0  0  0  0  0  0  0  0  0  0  0
  -23.3269  -21.4311   29.1176 C   0  0  1  0  0  0  0  0  0  0  0  0
  -21.2244  -18.4479   30.1420 C   0  0  2  0  0  0  0  0  0  0  0  0
  -25.2677  -20.2157   21.5949 C   0  0  2  0  0  0  0  0  0  1  0  0
  -24.4387  -21.9799   30.0559 C   0  0  0  0  0  0  0  0  0  0  0  0
  -31.6359  -19.3537   22.8484 N   0  0  0  0  0  0  0  0  0  0  0  0
  -25.8624  -11.5413   20.2889 N   0  0  0  0  0  0  0  0  0  0  0  0
  -26.2392  -12.8247   20.1581 N   0  0  0  0  0  0  0  0  0  0  0  0
  -22.4654  -22.6313   27.1324 N   0  0  0  0  0  0  0  0  0  0  0  0
  -29.9697  -13.6136   20.3697 N   0  0  0  0  0  0  0  0  0  0  0  0
  -25.4717  -15.0526   20.3991 N   0  0  0  0  0  0  0  0  0  0  0  0
  -21.8851  -12.5803   21.5909 N   0  0  0  0  0  0  0  0  0  0  0  0
  -30.0779  -15.6955   21.4725 N   0  0  0  0  0  0  0  0  0  0  0  0
  -22.4845  -26.1175   26.3734 N   0  0  0  0  0  0  0  0  0  0  0  0
  -22.4062  -20.5010   29.7623 N   0  0  0  0  0  0  0  0  0  0  0  0
  -27.4920  -19.1840   22.0611 N   0  3  2  0  0  0  0  0  0  0  0  0
  -20.4578  -17.4925   29.2931 N   0  3  0  0  0  0  0  0  0  0  0  0
  -22.6608  -14.7196   21.3072 O   0  0  0  0  0  0  0  0  0  0  0  0
  -24.0368  -24.4262   25.9831 O   0  0  0  0  0  0  0  0  0  0  0  0
  -21.8353  -23.2678   29.2850 O   0  0  0  0  0  0  0  0  0  0  0  0
  -22.7990  -18.7203   28.3299 O   0  0  0  0  0  0  0  0  0  0  0  0
  -31.8570  -14.9365   20.1917 O   0  0  0  0  0  0  0  0  0  0  0  0
  -21.6131   -7.0174   21.7122 O   0  0  0  0  0  0  0  0  0  0  0  0
  -23.8629  -20.0039   21.7290 O   0  0  0  0  0  0  0  0  0  1  0  0
  -18.6133   -6.8695   26.3365 F   0  0  0  0  0  0  0  0  0  0  0  0
  -22.0603   -5.0786   23.6316 F   0  0  0  0  0  0  0  0  0  0  0  0
  1  2  1  0  0  0  0
  1  5  2  0  0  0  0
  2  6  2  0  0  0  0
  3  8  2  0  0  0  0
  3 17  1  0  0  0  0
  4  9  1  0  0  0  0
  4 17  2  0  0  0  0
  5 19  1  0  0  0  0
  6 21  1  0  0  0  0
  7 10  2  0  0  0  0
  7 20  1  0  0  0  0
  8 25  1  0  0  0  0
  9 25  2  0  0  0  0
 10 26  1  0  0  0  0
 11 12  2  0  0  0  0
 11 27  1  0  0  0  0
 12 28  1  0  0  0  0
 13 16  1  0  0  0  0
 13 24  2  0  0  0  0
 14 22  1  0  0  0  0
 14 26  2  0  0  0  0
 15 28  2  0  0  0  0
 15 29  1  0  0  0  0
 16 64  2  0  0  0  0
 17 30  1  0  0  0  0
 18 30  1  0  0  0  0
 18 32  2  0  0  0  0
 18 33  1  0  0  0  0
 19 21  2  0  0  0  0
 19 38  1  0  0  0  0
 20 22  2  0  0  0  0
 20 39  1  0  0  0  0
 21 50  1  0  0  0  0
 22 40  1  0  0  0  0
 23 24  1  0  0  0  0
 23 31  2  0  0  0  0
 23 41  1  0  0  0  0
 24 71  1  0  0  0  0
 25 81  1  0  0  0  0
 26 82  1  0  0  0  0
 27 29  2  0  0  0  0
 27 81  1  0  0  0  0
 28 83  1  0  0  0  0
 29 84  1  0  0  0  0
 30 65  2  0  0  0  0
 31 42  1  0  0  0  0
 31 64  1  0  0  0  0
 32 66  1  0  0  0  0
 32 69  1  0  0  0  0
 33 70  1  0  0  0  0
 33 76  2  0  0  0  0
 34 51  1  0  0  0  0
 34 72  1  0  0  0  0
 34 77  2  0  0  0  0
 35 60  1  0  0  0  0
 35 67  1  0  0  0  0
 35 78  2  0  0  0  0
 36 61  1  0  0  0  0
 36 73  1  0  0  0  0
 36 79  2  0  0  0  0
 37 68  1  0  0  0  0
 37 71  1  0  0  0  0
 37 80  2  0  0  0  0
 38 43  1  0  0  0  0
 39 51  1  0  0  0  0
 40 67  1  0  0  0  0
 41 74  1  0  0  0  0
 42 49  1  0  0  0  0
 43 45  1  0  0  0  0
 44 46  1  0  0  0  0
 44 47  1  0  0  0  0
 45 50  1  0  0  0  0
 46 52  1  0  0  0  0
 47 68  1  0  0  0  0
 48 52  1  0  0  0  0
 48 68  1  0  0  0  0
 49 74  1  0  0  0  0
 50 72  1  0  0  0  0
 51 67  1  0  0  0  0
 52 66  1  0  0  0  0
 53 61  1  0  0  0  0
 54 62  1  0  0  0  0
 55 63  1  0  0  0  0
 56 63  1  0  0  0  0
 57 63  1  0  0  0  0
 58 75  1  0  0  0  0
 59 62  1  0  0  0  0
 59 74  1  0  0  0  0
 60 63  1  0  0  0  0
 60 73  1  0  0  0  0
 61 75  1  0  0  0  0
 62 82  1  0  0  0  0
 65 66  1  0  0  0  0
M  CHG  2  74   1  75   1
M  ISO  4  37 100  62 101  71 100  82 101
M  END
> <Batch ID>
0122

> <Smiles>
CNC(C)C(=O)NC(C(=O)N1Cc2cc([101O:1][101CH:1](C)CN3CCc4nccc([100NH:0][100C:0](=O)N5CCCC(n6nc(-c7ccc(Oc8ccc(F)cc8F)cc7)c(C(N)=O)c6N)C5)c4C3)ccc2CC1C(=O)NC1CCCc2ccccc21)C(C)(C)C

> <Shape>
0.189

> <Color>
0.184

> <Negative vol penalty>
0.000

$$$$

  -OEChem-04052320283D

 87 96  0     1  0  0  0  0  0999 V2000
  -21.7971  -37.2505   20.5802 C   0  0  0  0  0  0  0  0  0  0  0  0
  -22.3804  -36.3432   19.7016 C   0  0  0  0  0  0  0  0  0  0  0  0
  -23.0078  -10.3598   21.8263 C   0  0  0  0  0  0  0  0  0  0  0  0
  -24.4892   -9.0621   20.4267 C   0  0  0  0  0  0  0  0  0  0  0  0
  -22.0932  -37.1900   21.9413 C   0  0  0  0  0  0  0  0  0  0  0  0
  -23.2612  -35.3755   20.1835 C   0  0  0  0  0  0  0  0  0  0  0  0
  -25.3681  -28.6391   18.9596 C   0  0  0  0  0  0  0  0  0  0  0  0
  -21.9113   -9.6808   21.2953 C   0  0  0  0  0  0  0  0  0  0  0  0
  -23.3926   -8.3830   19.8957 C   0  0  0  0  0  0  0  0  0  0  0  0
  -26.5285  -27.8940   18.7543 C   0  0  0  0  0  0  0  0  0  0  0  0
  -21.0116   -6.0565   18.4340 C   0  0  0  0  0  0  0  0  0  0  0  0
  -21.1046   -4.6704   18.3092 C   0  0  0  0  0  0  0  0  0  0  0  0
  -26.9044  -27.8342   21.1364 C   0  0  0  0  0  0  0  0  0  0  0  0
  -21.4282   -4.4773   20.6957 C   0  0  0  0  0  0  0  0  0  0  0  0
  -24.2968  -10.0505   21.3920 C   0  0  0  0  0  0  0  0  0  0  0  0
  -26.1857  -10.3933   23.0719 C   0  0  0  0  0  0  0  0  0  0  0  0
  -22.9705  -36.2150   22.4415 C   0  0  0  0  0  0  0  0  0  0  0  0
  -24.9724  -28.9973   20.2564 C   0  0  0  0  0  0  0  0  0  0  0  0
  -23.5703  -35.3027   21.5524 C   0  0  0  0  0  0  0  0  0  0  0  0
  -25.7373  -28.5818   21.3557 C   0  0  0  0  0  0  0  0  0  0  0  0
  -22.1036   -8.6923   20.3300 C   0  0  0  0  0  0  0  0  0  0  0  0
  -27.2984  -27.4939   19.8426 C   0  0  0  0  0  0  0  0  0  0  0  0
  -21.1271   -6.6531   19.6896 C   0  0  0  0  0  0  0  0  0  0  0  0
  -21.3128   -3.8808   19.4401 C   0  0  0  0  0  0  0  0  0  0  0  0
  -21.3353   -5.8635   20.8204 C   0  0  0  0  0  0  0  0  0  0  0  0
  -25.4300  -10.7520   21.9397 C   0  0  0  0  0  0  0  0  0  0  0  0
  -27.1413  -11.3748   23.1719 C   0  0  0  0  0  0  0  0  0  0  0  0
  -26.0372   -9.2730   23.9543 C   0  0  0  0  0  0  0  0  0  0  0  0
  -24.5471  -31.7473   21.7927 C   0  0  0  0  0  0  0  0  0  0  0  0
  -23.4239  -29.8126   24.1416 C   0  0  0  0  0  0  0  0  0  0  0  0
  -23.3825  -26.7136   25.5703 C   0  0  0  0  0  0  0  0  0  0  0  0
  -27.0005  -17.0183   21.0165 C   0  0  0  0  0  0  0  0  0  0  0  0
  -23.2968  -36.2188   23.9140 C   0  0  0  0  0  0  0  0  0  0  0  0
  -23.7038  -29.7785   20.4628 C   0  0  0  0  0  0  0  0  0  0  0  0
  -25.3450  -28.9231   22.7692 C   0  0  0  0  0  0  0  0  0  0  0  0
  -23.9497  -34.9261   24.3965 C   0  0  0  0  0  0  0  0  0  0  0  0
  -29.6397  -14.4625   20.5091 C   0  0  0  0  0  0  0  0  0  0  0  0
  -25.0630  -34.5023   23.4437 C   0  0  0  0  0  0  0  0  0  0  0  0
  -28.8931  -13.1815   20.8843 C   0  0  0  0  0  0  0  0  0  0  0  0
  -29.5525  -19.5609   21.7475 C   0  0  0  0  0  0  0  0  0  0  0  0
  -28.6893  -15.4924   19.9126 C   0  0  0  0  0  0  0  0  0  0  0  0
  -29.2922  -18.1465   21.2386 C   0  0  0  0  0  0  0  0  0  0  0  0
  -29.9603  -23.1953   20.5632 C   0  0  0  0  0  0  0  0  0  0  0  0
  -26.7800  -14.5643   21.1659 C   0  0  0  0  0  0  0  0  0  0  0  0
  -27.3124  -19.4764   20.9372 C   0  0  0  0  0  0  0  0  0  0  0  0
  -27.7187  -23.1802   19.6658 C   0  0  0  0  0  0  0  0  0  0  0  0
  -29.5008  -22.5135   21.8466 C   0  0  0  0  0  0  0  0  0  0  0  0
  -24.5115  -34.2228   22.0404 C   0  0  1  0  0  0  0  0  0  0  0  0
  -23.6719  -30.5260   21.7923 C   0  0  1  0  0  0  0  0  0  0  0  0
  -27.6846  -13.4860   21.7883 C   0  0  1  0  0  0  0  0  0  0  0  0
  -28.5403  -20.3684   20.9488 C   0  0  1  0  0  0  0  0  0  0  0  0
  -27.1526  -22.4792   20.9080 C   0  0  2  0  0  0  0  0  0  0  0  0
  -22.4009  -25.4480   27.5021 C   0  0  0  0  0  0  0  0  0  0  0  0
  -25.3766  -24.2249   21.2394 C   0  0  0  0  0  0  0  0  0  0  0  0
  -25.9992  -22.6939   23.1293 C   0  0  0  0  0  0  0  0  0  0  0  0
  -29.4023  -23.7394   17.5980 C   0  0  0  0  0  0  0  0  0  0  0  0
  -25.4013  -31.1666   26.0302 C   0  0  0  0  0  0  0  0  0  0  0  0
  -25.0625  -29.2717   27.6312 C   0  0  0  0  0  0  0  0  0  0  0  0
  -23.1425  -30.7403   27.0154 C   0  0  0  0  0  0  0  0  0  0  0  0
  -21.9856  -24.8230   23.7721 C   0  0  0  0  0  0  0  0  0  0  0  0
  -28.4632  -25.9088   18.5059 C   0  0  0  0  0  0  0  0  0  1  0  0
  -24.0371  -29.0932   25.3187 C   0  0  1  0  0  0  0  0  0  0  0  0
  -22.2363  -25.8367   26.0411 C   0  0  2  0  0  0  0  0  0  0  0  0
  -26.5102  -23.4466   21.9032 C   0  0  0  0  0  0  0  0  0  0  0  0
  -29.3636  -24.7042   18.7834 C   0  0  1  0  0  0  0  0  0  0  0  0
  -24.4195  -30.0630   26.4722 C   0  0  0  0  0  0  0  0  0  0  0  0
  -25.8676  -11.8739   21.3619 N   0  0  0  0  0  0  0  0  0  0  0  0
  -26.9087  -12.2286   22.1341 N   0  0  0  0  0  0  0  0  0  0  0  0
  -24.0996  -29.6939   22.9189 N   0  0  0  0  0  0  0  0  0  0  0  0
  -27.5590  -15.7520   20.8087 N   0  0  0  0  0  0  0  0  0  0  0  0
  -27.8542  -18.1186   20.9516 N   0  0  0  0  0  0  0  0  0  0  0  0
  -28.8882  -24.0110   19.9803 N   0  0  2  0  0  0  0  0  0  0  0  0
  -28.1495  -11.5821   24.0455 N   0  0  0  0  0  0  0  0  0  0  0  0
  -25.0028   -8.3603   23.7071 N   0  0  0  0  0  0  0  0  0  0  0  0
  -23.8629  -32.9297   22.0006 N   0  0  0  0  0  0  0  0  0  0  0  0
  -23.0874  -28.0541   25.7018 N   0  0  0  0  0  0  0  0  0  0  0  0
  -28.2539  -21.6950   21.6063 N   0  3  2  0  0  0  0  0  0  0  0  0
  -22.1701  -24.5898   25.2276 N   0  3  0  0  0  0  0  0  0  0  0  0
  -26.7891   -9.0959   24.9426 O   0  0  0  0  0  0  0  0  0  0  0  0
  -25.7540  -31.6258   21.6187 O   0  0  0  0  0  0  0  0  0  0  0  0
  -22.3798  -30.4503   24.2996 O   0  0  0  0  0  0  0  0  0  0  0  0
  -24.4359  -26.2553   25.1333 O   0  0  0  0  0  0  0  0  0  0  0  0
  -25.8022  -17.1563   21.2958 O   0  0  0  0  0  0  0  0  0  0  0  0
  -21.0338   -8.0294   19.8118 O   0  0  0  0  0  0  0  0  0  0  0  0
  -28.4396  -26.7620   19.6435 O   0  0  0  0  0  0  0  0  0  1  0  0
  -21.4005   -2.5496   19.3203 F   0  0  0  0  0  0  0  0  0  0  0  0
  -21.4458   -6.4308   22.0294 F   0  0  0  0  0  0  0  0  0  0  0  0
  1  2  1  0  0  0  0
  1  5  2  0  0  0  0
  2  6  2  0  0  0  0
  3  8  2  0  0  0  0
  3 15  1  0  0  0  0
  4  9  1  0  0  0  0
  4 15  2  0  0  0  0
  5 17  1  0  0  0  0
  6 19  1  0  0  0  0
  7 10  2  0  0  0  0
  7 18  1  0  0  0  0
  8 21  1  0  0  0  0
  9 21  2  0  0  0  0
 10 22  1  0  0  0  0
 11 12  2  0  0  0  0
 11 23  1  0  0  0  0
 12 24  1  0  0  0  0
 13 20  1  0  0  0  0
 13 22  2  0  0  0  0
 14 24  2  0  0  0  0
 14 25  1  0  0  0  0
 15 26  1  0  0  0  0
 16 26  1  0  0  0  0
 16 27  2  0  0  0  0
 16 28  1  0  0  0  0
 17 19  2  0  0  0  0
 17 33  1  0  0  0  0
 18 20  2  0  0  0  0
 18 34  1  0  0  0  0
 19 48  1  0  0  0  0
 20 35  1  0  0  0  0
 21 84  1  0  0  0  0
 22 85  1  0  0  0  0
 23 25  2  0  0  0  0
 23 84  1  0  0  0  0
 24 86  1  0  0  0  0
 25 87  1  0  0  0  0
 26 67  2  0  0  0  0
 27 68  1  0  0  0  0
 27 73  1  0  0  0  0
 28 74  1  0  0  0  0
 28 79  2  0  0  0  0
 29 49  1  0  0  0  0
 29 75  1  0  0  0  0
 29 80  2  0  0  0  0
 30 62  1  0  0  0  0
 30 69  1  0  0  0  0
 30 81  2  0  0  0  0
 31 63  1  0  0  0  0
 31 76  1  0  0  0  0
 31 82  2  0  0  0  0
 32 70  1  0  0  0  0
 32 71  1  0  0  0  0
 32 83  2  0  0  0  0
 33 36  1  0  0  0  0
 34 49  1  0  0  0  0
 35 69  1  0  0  0  0
 36 38  1  0  0  0  0
 37 39  1  0  0  0  0
 37 41  1  0  0  0  0
 38 48  1  0  0  0  0
 39 50  1  0  0  0  0
 40 42  1  0  0  0  0
 40 51  1  0  0  0  0
 41 70  1  0  0  0  0
 42 71  1  0  0  0  0
 43 47  1  0  0  0  0
 43 72  1  0  0  0  0
 44 50  1  0  0  0  0
 44 70  1  0  0  0  0
 45 51  1  0  0  0  0
 45 71  1  0  0  0  0
 46 52  1  0  0  0  0
 46 72  1  0  0  0  0
 47 77  1  0  0  0  0
 48 75  1  0  0  0  0
 49 69  1  0  0  0  0
 50 68  1  0  0  0  0
 51 77  1  0  0  0  0
 52 64  1  0  0  0  0
 52 77  1  0  0  0  0
 53 63  1  0  0  0  0
 54 64  1  0  0  0  0
 55 64  1  0  0  0  0
 56 65  1  0  0  0  0
 57 66  1  0  0  0  0
 58 66  1  0  0  0  0
 59 66  1  0  0  0  0
 60 78  1  0  0  0  0
 61 65  1  0  0  0  0
 61 85  1  0  0  0  0
 62 66  1  0  0  0  0
 62 76  1  0  0  0  0
 63 78  1  0  0  0  0
 65 72  1  0  0  0  0
 67 68  1  0  0  0  0
M  CHG  2  77   1  78   1
M  ISO  4  32 100  61 101  71 100  85 101
M  END
> <Batch ID>
0122

> <Smiles>
CNC(C)C(=O)NC(C(=O)N1Cc2cc([101O:1][101CH2:1]C(C)N3CCN(C4CC[100N:0]([100C:0](=O)N5CCCC(n6nc(-c7ccc(Oc8ccc(F)cc8F)cc7)c(C(N)=O)c6N)C5)C4)C(C(C)C)C3)ccc2CC1C(=O)NC1CCCc2ccccc21)C(C)(C)C

> <Shape>
0.245

> <Color>
0.069

> <Negative vol penalty>
0.000

$$$$

  -OEChem-04052320283D

 88 97  0     1  0  0  0  0  0999 V2000
  -20.9320  -28.7961   13.4861 C   0  0  0  0  0  0  0  0  0  0  0  0
  -21.5646  -27.9702   14.4098 C   0  0  0  0  0  0  0  0  0  0  0  0
  -22.6301  -10.2829   20.2337 C   0  0  0  0  0  0  0  0  0  0  0  0
  -24.2535   -9.5342   21.8588 C   0  0  0  0  0  0  0  0  0  0  0  0
  -19.7750  -29.4855   13.8467 C   0  0  0  0  0  0  0  0  0  0  0  0
  -21.0411  -27.8342   15.6950 C   0  0  0  0  0  0  0  0  0  0  0  0
  -26.9830  -18.8569   19.8063 C   0  0  0  0  0  0  0  0  0  0  0  0
  -20.9432  -23.0167   17.2529 C   0  0  0  0  0  0  0  0  0  0  0  0
  -25.8652  -19.4187   19.1895 C   0  0  0  0  0  0  0  0  0  0  0  0
  -21.8749   -9.1318   20.4578 C   0  0  0  0  0  0  0  0  0  0  0  0
  -23.4983   -8.3831   22.0830 C   0  0  0  0  0  0  0  0  0  0  0  0
  -22.1459  -22.4649   17.6921 C   0  0  0  0  0  0  0  0  0  0  0  0
  -19.6943   -7.9960   22.7790 C   0  0  0  0  0  0  0  0  0  0  0  0
  -18.3154   -8.1442   22.9286 C   0  0  0  0  0  0  0  0  0  0  0  0
  -27.7876  -21.0665   20.3606 C   0  0  0  0  0  0  0  0  0  0  0  0
  -21.4716  -22.8309   19.9791 C   0  0  0  0  0  0  0  0  0  0  0  0
  -17.9539   -6.7115   21.0171 C   0  0  0  0  0  0  0  0  0  0  0  0
  -23.8195  -10.4841   20.9342 C   0  0  0  0  0  0  0  0  0  0  0  0
  -24.1933  -13.0071   20.8904 C   0  0  0  0  0  0  0  0  0  0  0  0
  -27.9442  -19.6808   20.3920 C   0  0  0  0  0  0  0  0  0  0  0  0
  -19.2317  -29.3503   15.1340 C   0  0  0  0  0  0  0  0  0  0  0  0
  -19.9988  -23.4904   18.1748 C   0  0  0  0  0  0  0  0  0  0  0  0
  -19.8766  -28.5235   16.0736 C   0  0  0  0  0  0  0  0  0  0  0  0
  -20.2566  -23.3859   19.5491 C   0  0  0  0  0  0  0  0  0  0  0  0
  -25.7086  -20.8044   19.1581 C   0  0  0  0  0  0  0  0  0  0  0  0
  -26.6698  -21.6283   19.7437 C   0  0  0  0  0  0  0  0  0  0  0  0
  -22.3089   -8.1819   21.3825 C   0  0  0  0  0  0  0  0  0  0  0  0
  -22.4115  -22.3746   19.0553 C   0  0  0  0  0  0  0  0  0  0  0  0
  -20.2030   -7.2055   21.7484 C   0  0  0  0  0  0  0  0  0  0  0  0
  -17.4453   -7.5020   22.0477 C   0  0  0  0  0  0  0  0  0  0  0  0
  -19.3328   -6.5633   20.8675 C   0  0  0  0  0  0  0  0  0  0  0  0
  -24.6003  -11.6726   20.7027 C   0  0  0  0  0  0  0  0  0  0  0  0
  -25.2896  -13.7539   20.5339 C   0  0  0  0  0  0  0  0  0  0  0  0
  -22.9366  -13.5254   21.3462 C   0  0  0  0  0  0  0  0  0  0  0  0
  -18.6946  -26.3219   18.7956 C   0  0  0  0  0  0  0  0  0  0  0  0
  -16.8677  -24.5952   20.8457 C   0  0  0  0  0  0  0  0  0  0  0  0
  -16.5190  -21.7876   22.7543 C   0  0  0  0  0  0  0  0  0  0  0  0
  -30.7888  -14.6953   20.6666 C   0  0  0  0  0  0  0  0  0  0  0  0
  -18.0058  -30.1524   15.4925 C   0  0  0  0  0  0  0  0  0  0  0  0
  -18.6948  -24.0584   17.6855 C   0  0  0  0  0  0  0  0  0  0  0  0
  -19.2669  -23.8614   20.5801 C   0  0  0  0  0  0  0  0  0  0  0  0
  -17.3051  -29.6618   16.7569 C   0  0  0  0  0  0  0  0  0  0  0  0
  -29.5819  -12.4046   18.2226 C   0  0  0  0  0  0  0  0  0  0  0  0
  -28.7717  -18.1927   22.2645 C   0  0  0  0  0  0  0  0  0  0  0  0
  -30.0308  -18.2886   20.0642 C   0  0  0  0  0  0  0  0  0  0  0  0
  -18.3201  -29.4177   17.8691 C   0  0  0  0  0  0  0  0  0  0  0  0
  -28.1476  -12.1155   18.6690 C   0  0  0  0  0  0  0  0  0  0  0  0
  -30.0068  -17.5963   22.9429 C   0  0  0  0  0  0  0  0  0  0  0  0
  -31.2552  -17.6722   20.7453 C   0  0  0  0  0  0  0  0  0  0  0  0
  -30.5207  -12.5743   19.4151 C   0  0  0  0  0  0  0  0  0  0  0  0
  -28.6509  -13.2844   20.8551 C   0  0  0  0  0  0  0  0  0  0  0  0
  -29.1608  -19.0692   21.0628 C   0  0  0  0  0  0  0  0  0  0  0  0
  -19.3254  -28.3307   17.4698 C   0  0  1  0  0  0  0  0  0  0  0  0
  -18.0259  -24.9798   18.7009 C   0  0  1  0  0  0  0  0  0  0  0  0
  -27.6561  -13.1609   19.6883 C   0  0  2  0  0  0  0  0  0  0  0  0
  -30.9030  -16.8034   21.9711 C   0  0  0  0  0  0  0  0  0  0  0  0
  -26.5235  -23.1145   19.7221 C   0  0  0  0  0  0  0  0  0  0  0  0
  -33.1720  -15.1157   24.6135 C   0  0  0  0  0  0  0  0  0  0  0  0
  -14.9331  -20.6740   24.3488 C   0  0  0  0  0  0  0  0  0  0  0  0
  -17.7075  -26.5439   23.0383 C   0  0  0  0  0  0  0  0  0  0  0  0
  -16.9016  -24.8815   24.7280 C   0  0  0  0  0  0  0  0  0  0  0  0
  -15.2971  -25.8801   23.0998 C   0  0  0  0  0  0  0  0  0  0  0  0
  -16.2141  -19.4325   20.9882 C   0  0  0  0  0  0  0  0  0  0  0  0
  -24.4985  -21.3856   18.4878 C   0  0  0  0  0  0  0  0  0  1  0  0
  -32.1967  -16.3888   22.6878 C   0  0  0  0  0  0  0  0  0  0  0  0
  -31.8908  -15.5461   23.9173 C   0  0  0  0  0  0  0  0  0  0  0  0
  -16.9853  -24.1800   22.2924 C   0  0  1  0  0  0  0  0  0  0  0  0
  -15.3720  -20.8037   22.8985 C   0  0  2  0  0  0  0  0  0  0  0  0
  -16.7426  -25.3641   23.2704 C   0  0  0  0  0  0  0  0  0  0  0  0
  -25.8571  -11.5741   20.2612 N   0  0  0  0  0  0  0  0  0  0  0  0
  -26.2491  -12.8562   20.1683 N   0  0  0  0  0  0  0  0  0  0  0  0
  -18.0091  -24.4148   20.0518 N   0  0  0  0  0  0  0  0  0  0  0  0
  -29.9980  -13.5805   20.3426 N   0  0  0  0  0  0  0  0  0  0  0  0
  -25.5167  -15.0842   20.5006 N   0  0  0  0  0  0  0  0  0  0  0  0
  -22.7563  -13.7271   22.7214 N   0  0  0  0  0  0  0  0  0  0  0  0
  -18.7300  -27.0183   17.6026 N   0  0  0  0  0  0  0  0  0  0  0  0
  -16.0682  -23.0596   22.4714 N   0  0  0  0  0  0  0  0  0  0  0  0
  -30.2155  -15.6039   21.5477 N   0  0  0  0  0  0  0  0  0  0  0  0
  -15.7804  -19.4567   22.4088 N   0  3  0  0  0  0  0  0  0  0  0  0
  -21.9955  -13.7861   20.5589 O   0  0  0  0  0  0  0  0  0  0  0  0
  -19.1438  -26.6986   19.8717 O   0  0  0  0  0  0  0  0  0  0  0  0
  -15.8001  -25.0557   20.4336 O   0  0  0  0  0  0  0  0  0  0  0  0
  -17.6968  -21.4613   22.8838 O   0  0  0  0  0  0  0  0  0  0  0  0
  -31.9197  -14.8707   20.2006 O   0  0  0  0  0  0  0  0  0  0  0  0
  -21.5721   -7.0587   21.6016 O   0  0  0  0  0  0  0  0  0  0  0  0
  -23.5849  -21.8371   19.4867 O   0  0  0  0  0  0  0  0  0  1  0  0
  -16.1211   -7.6432   22.1925 F   0  0  0  0  0  0  0  0  0  0  0  0
  -19.8156   -5.8017   19.8762 F   0  0  0  0  0  0  0  0  0  0  0  0
  1  2  1  0  0  0  0
  1  5  2  0  0  0  0
  2  6  2  0  0  0  0
  3 10  2  0  0  0  0
  3 18  1  0  0  0  0
  4 11  1  0  0  0  0
  4 18  2  0  0  0  0
  5 21  1  0  0  0  0
  6 23  1  0  0  0  0
  7  9  2  0  0  0  0
  7 20  1  0  0  0  0
  8 12  2  0  0  0  0
  8 22  1  0  0  0  0
  9 25  1  0  0  0  0
 10 27  1  0  0  0  0
 11 27  2  0  0  0  0
 12 28  1  0  0  0  0
 13 14  2  0  0  0  0
 13 29  1  0  0  0  0
 14 30  1  0  0  0  0
 15 20  2  0  0  0  0
 15 26  1  0  0  0  0
 16 24  1  0  0  0  0
 16 28  2  0  0  0  0
 17 30  2  0  0  0  0
 17 31  1  0  0  0  0
 18 32  1  0  0  0  0
 19 32  1  0  0  0  0
 19 33  2  0  0  0  0
 19 34  1  0  0  0  0
 20 52  1  0  0  0  0
 21 23  2  0  0  0  0
 21 39  1  0  0  0  0
 22 24  2  0  0  0  0
 22 40  1  0  0  0  0
 23 53  1  0  0  0  0
 24 41  1  0  0  0  0
 25 26  2  0  0  0  0
 25 64  1  0  0  0  0
 26 57  1  0  0  0  0
 27 85  1  0  0  0  0
 28 86  1  0  0  0  0
 29 31  2  0  0  0  0
 29 85  1  0  0  0  0
 30 87  1  0  0  0  0
 31 88  1  0  0  0  0
 32 70  2  0  0  0  0
 33 71  1  0  0  0  0
 33 74  1  0  0  0  0
 34 75  1  0  0  0  0
 34 80  2  0  0  0  0
 35 54  1  0  0  0  0
 35 76  1  0  0  0  0
 35 81  2  0  0  0  0
 36 67  1  0  0  0  0
 36 72  1  0  0  0  0
 36 82  2  0  0  0  0
 37 68  1  0  0  0  0
 37 77  1  0  0  0  0
 37 83  2  0  0  0  0
 38 73  1  0  0  0  0
 38 78  1  0  0  0  0
 38 84  2  0  0  0  0
 39 42  1  0  0  0  0
 40 54  1  0  0  0  0
 41 72  1  0  0  0  0
 42 46  1  0  0  0  0
 43 47  1  0  0  0  0
 43 50  1  0  0  0  0
 44 48  1  0  0  0  0
 44 52  1  0  0  0  0
 45 49  1  0  0  0  0
 45 52  1  0  0  0  0
 46 53  1  0  0  0  0
 47 55  1  0  0  0  0
 48 56  1  0  0  0  0
 49 56  1  0  0  0  0
 50 73  1  0  0  0  0
 51 55  1  0  0  0  0
 51 73  1  0  0  0  0
 53 76  1  0  0  0  0
 54 72  1  0  0  0  0
 55 71  1  0  0  0  0
 56 65  1  0  0  0  0
 56 78  1  0  0  0  0
 58 66  1  0  0  0  0
 59 68  1  0  0  0  0
 60 69  1  0  0  0  0
 61 69  1  0  0  0  0
 62 69  1  0  0  0  0
 63 79  1  0  0  0  0
 64 86  1  0  0  0  0
 65 66  1  0  0  0  0
 67 69  1  0  0  0  0
 67 77  1  0  0  0  0
 68 79  1  0  0  0  0
 70 71  1  0  0  0  0
M  CHG  1  79   1
M  ISO  4  38 100  64 101  78 100  86 101
M  END
> <Batch ID>
0122

> <Smiles>
CCCC1([100NH:0][100C:0](=O)N2CCCC(n3nc(-c4ccc(Oc5ccc(F)cc5F)cc4)c(C(N)=O)c3N)C2)CCC(c2ccc([101CH2:1][101O:1]c3ccc4c(c3)CN(C(=O)C(NC(=O)C(C)NC)C(C)(C)C)C(C(=O)NC3CCCc5ccccc53)C4)c(C)c2)CC1

> <Shape>
0.197

> <Color>
0.173

> <Negative vol penalty>
0.000

$$$$

  -OEChem-04052320283D

 89 98  0     1  0  0  0  0  0999 V2000
  -29.5111  -24.0417   16.9096 C   0  0  0  0  0  0  0  0  0  0  0  0
  -28.6659  -24.0508   18.0146 C   0  0  0  0  0  0  0  0  0  0  0  0
  -24.6947   -8.5820   21.7028 C   0  0  0  0  0  0  0  0  0  0  0  0
  -23.0270  -10.0846   20.8095 C   0  0  0  0  0  0  0  0  0  0  0  0
  -30.4095  -25.0895   16.7119 C   0  0  0  0  0  0  0  0  0  0  0  0
  -28.7193  -25.1072   18.9232 C   0  0  0  0  0  0  0  0  0  0  0  0
  -24.1214  -26.7720   20.2393 C   0  0  0  0  0  0  0  0  0  0  0  0
  -23.7204   -7.9688   22.4904 C   0  0  0  0  0  0  0  0  0  0  0  0
  -22.0526   -9.4713   21.5971 C   0  0  0  0  0  0  0  0  0  0  0  0
  -23.4131  -26.0154   21.1717 C   0  0  0  0  0  0  0  0  0  0  0  0
  -21.2482   -5.6994   22.0767 C   0  0  0  0  0  0  0  0  0  0  0  0
  -21.2322   -4.3053   22.1195 C   0  0  0  0  0  0  0  0  0  0  0  0
  -24.0630  -27.5582   22.9085 C   0  0  0  0  0  0  0  0  0  0  0  0
  -21.5864   -4.3745   24.5084 C   0  0  0  0  0  0  0  0  0  0  0  0
  -24.3480   -9.6399   20.8624 C   0  0  0  0  0  0  0  0  0  0  0  0
  -25.7365   -9.9213   18.7410 C   0  0  0  0  0  0  0  0  0  0  0  0
  -30.4672  -26.1641   17.6133 C   0  0  0  0  0  0  0  0  0  0  0  0
  -24.8160  -27.9234   20.6370 C   0  0  0  0  0  0  0  0  0  0  0  0
  -29.6202  -26.1697   18.7381 C   0  0  0  0  0  0  0  0  0  0  0  0
  -24.7773  -28.3292   21.9787 C   0  0  0  0  0  0  0  0  0  0  0  0
  -22.3993   -8.4134   22.4375 C   0  0  0  0  0  0  0  0  0  0  0  0
  -23.3862  -26.4068   22.5071 C   0  0  0  0  0  0  0  0  0  0  0  0
  -21.4334   -6.4311   23.2497 C   0  0  0  0  0  0  0  0  0  0  0  0
  -21.4013   -3.6429   23.3353 C   0  0  0  0  0  0  0  0  0  0  0  0
  -21.6025   -5.7687   24.4655 C   0  0  0  0  0  0  0  0  0  0  0  0
  -25.3541  -10.2742   20.0491 C   0  0  0  0  0  0  0  0  0  0  0  0
  -26.7210  -10.8223   18.4162 C   0  0  0  0  0  0  0  0  0  0  0  0
  -25.2457   -8.8729   17.8951 C   0  0  0  0  0  0  0  0  0  0  0  0
  -29.0751  -20.2675   20.2861 C   0  0  0  0  0  0  0  0  0  0  0  0
  -27.8647  -28.8227   20.6176 C   0  0  0  0  0  0  0  0  0  0  0  0
  -26.6310  -31.6542   21.6091 C   0  0  0  0  0  0  0  0  0  0  0  0
  -24.0778  -33.3260   23.1366 C   0  0  0  0  0  0  0  0  0  0  0  0
  -28.7825  -15.7789   18.1997 C   0  0  0  0  0  0  0  0  0  0  0  0
  -31.4876  -27.2506   17.3832 C   0  0  0  0  0  0  0  0  0  0  0  0
  -25.5533  -28.7435   19.6142 C   0  0  0  0  0  0  0  0  0  0  0  0
  -25.4897  -29.5685   22.4532 C   0  0  0  0  0  0  0  0  0  0  0  0
  -31.2203  -28.5181   18.1909 C   0  0  0  0  0  0  0  0  0  0  0  0
  -31.6052  -18.1769   18.2969 C   0  0  0  0  0  0  0  0  0  0  0  0
  -29.2354  -14.1407   21.2754 C   0  0  0  0  0  0  0  0  0  0  0  0
  -30.8980  -28.1694   19.6405 C   0  0  0  0  0  0  0  0  0  0  0  0
  -30.9641  -19.4120   18.9236 C   0  0  0  0  0  0  0  0  0  0  0  0
  -28.2882  -12.9503   21.1283 C   0  0  0  0  0  0  0  0  0  0  0  0
  -26.2979  -21.1997   21.7599 C   0  0  0  0  0  0  0  0  0  0  0  0
  -27.9046  -21.0525   23.7107 C   0  0  0  0  0  0  0  0  0  0  0  0
  -25.5107  -22.2859   22.4906 C   0  0  0  0  0  0  0  0  0  0  0  0
  -27.1179  -22.1397   24.4407 C   0  0  0  0  0  0  0  0  0  0  0  0
  -30.5853  -17.3305   17.5424 C   0  0  0  0  0  0  0  0  0  0  0  0
  -28.6332  -15.4256   20.7047 C   0  0  0  0  0  0  0  0  0  0  0  0
  -28.7686  -18.1759   18.9915 C   0  0  0  0  0  0  0  0  0  0  0  0
  -27.2221  -14.1097   19.1568 C   0  0  0  0  0  0  0  0  0  0  0  0
  -29.6311  -27.3102   19.7326 C   0  0  1  0  0  0  0  0  0  0  0  0
  -29.7574  -19.0306   19.7835 C   0  0  2  0  0  0  0  0  0  0  0  0
  -26.6493  -29.6129   20.2226 C   0  0  1  0  0  0  0  0  0  0  0  0
  -27.8233  -12.7919   19.6698 C   0  0  2  0  0  0  0  0  0  0  0  0
  -27.7673  -21.1812   22.1906 C   0  0  0  0  0  0  0  0  0  0  0  0
  -25.6551  -22.1429   24.0036 C   0  0  0  0  0  0  0  0  0  0  0  0
  -23.3713  -35.6306   23.8344 C   0  0  0  0  0  0  0  0  0  0  0  0
  -28.5775  -31.5377   23.9559 C   0  0  0  0  0  0  0  0  0  0  0  0
  -27.2090  -33.3022   25.0883 C   0  0  0  0  0  0  0  0  0  0  0  0
  -28.3309  -33.7989   22.9164 C   0  0  0  0  0  0  0  0  0  0  0  0
  -21.6761  -33.2384   21.4095 C   0  0  0  0  0  0  0  0  0  0  0  0
  -22.8520  -24.3346   25.4106 C   0  0  0  0  0  0  0  0  0  0  0  0
  -23.4812  -23.1400   24.7096 C   0  0  0  0  0  0  0  0  0  0  0  0
  -23.1836  -25.6719   24.7598 C   0  0  0  0  0  0  0  0  0  1  0  0
  -26.3159  -32.2722   22.9499 C   0  0  1  0  0  0  0  0  0  0  0  0
  -23.3128  -34.5758   22.7404 C   0  0  2  0  0  0  0  0  0  0  0  0
  -27.5964  -32.7032   23.7193 C   0  0  0  0  0  0  0  0  0  0  0  0
  -26.0399  -11.3178   20.5229 N   0  0  0  0  0  0  0  0  0  0  0  0
  -26.8632  -11.6284   19.5072 N   0  0  0  0  0  0  0  0  0  0  0  0
  -26.2019  -30.3334   21.4163 N   0  0  0  0  0  0  0  0  0  0  0  0
  -29.4274  -17.0141   18.3784 N   0  0  0  0  0  0  0  0  0  0  0  0
  -28.1670  -15.2155   19.3275 N   0  0  0  0  0  0  0  0  0  0  0  0
  -27.4704  -10.9956   17.3068 N   0  0  0  0  0  0  0  0  0  0  0  0
  -24.2321   -8.0382   18.3853 N   0  0  0  0  0  0  0  0  0  0  0  0
  -28.4505  -28.1321   19.5739 N   0  0  0  0  0  0  0  0  0  0  0  0
  -28.4763  -20.1168   21.5223 N   0  0  0  0  0  0  0  0  0  0  0  0
  -25.3812  -33.3612   22.6879 N   0  0  0  0  0  0  0  0  0  0  0  0
  -24.9588  -23.2797   24.6627 N   0  3  0  0  0  0  0  0  0  0  0  0
  -21.8827  -34.2472   22.4804 N   0  3  0  0  0  0  0  0  0  0  0  0
  -25.7041   -8.6716   16.7449 O   0  0  0  0  0  0  0  0  0  0  0  0
  -29.0910  -21.2857   19.6044 O   0  0  0  0  0  0  0  0  0  0  0  0
  -28.2439  -28.8396   21.7828 O   0  0  0  0  0  0  0  0  0  0  0  0
  -27.2293  -32.3213   20.7613 O   0  0  0  0  0  0  0  0  0  0  0  0
  -23.5711  -32.4116   23.7829 O   0  0  0  0  0  0  0  0  0  0  0  0
  -28.7615  -15.2134   17.0993 O   0  0  0  0  0  0  0  0  0  0  0  0
  -21.4483   -7.8151   23.2057 O   0  0  0  0  0  0  0  0  0  0  0  0
  -22.6913  -25.6645   23.4258 O   0  0  0  0  0  0  0  0  0  1  0  0
  -21.3843   -2.3041   23.3765 F   0  0  0  0  0  0  0  0  0  0  0  0
  -21.7796   -6.4662   25.5960 F   0  0  0  0  0  0  0  0  0  0  0  0
  1  2  1  0  0  0  0
  1  5  2  0  0  0  0
  2  6  2  0  0  0  0
  3  8  2  0  0  0  0
  3 15  1  0  0  0  0
  4  9  1  0  0  0  0
  4 15  2  0  0  0  0
  5 17  1  0  0  0  0
  6 19  1  0  0  0  0
  7 10  2  0  0  0  0
  7 18  1  0  0  0  0
  8 21  1  0  0  0  0
  9 21  2  0  0  0  0
 10 22  1  0  0  0  0
 11 12  2  0  0  0  0
 11 23  1  0  0  0  0
 12 24  1  0  0  0  0
 13 20  1  0  0  0  0
 13 22  2  0  0  0  0
 14 24  2  0  0  0  0
 14 25  1  0  0  0  0
 15 26  1  0  0  0  0
 16 26  1  0  0  0  0
 16 27  2  0  0  0  0
 16 28  1  0  0  0  0
 17 19  2  0  0  0  0
 17 34  1  0  0  0  0
 18 20  2  0  0  0  0
 18 35  1  0  0  0  0
 19 51  1  0  0  0  0
 20 36  1  0  0  0  0
 21 86  1  0  0  0  0
 22 87  1  0  0  0  0
 23 25  2  0  0  0  0
 23 86  1  0  0  0  0
 24 88  1  0  0  0  0
 25 89  1  0  0  0  0
 26 68  2  0  0  0  0
 27 69  1  0  0  0  0
 27 73  1  0  0  0  0
 28 74  1  0  0  0  0
 28 80  2  0  0  0  0
 29 52  1  0  0  0  0
 29 76  1  0  0  0  0
 29 81  2  0  0  0  0
 30 53  1  0  0  0  0
 30 75  1  0  0  0  0
 30 82  2  0  0  0  0
 31 65  1  0  0  0  0
 31 70  1  0  0  0  0
 31 83  2  0  0  0  0
 32 66  1  0  0  0  0
 32 77  1  0  0  0  0
 32 84  2  0  0  0  0
 33 71  1  0  0  0  0
 33 72  1  0  0  0  0
 33 85  2  0  0  0  0
 34 37  1  0  0  0  0
 35 53  1  0  0  0  0
 36 70  1  0  0  0  0
 37 40  1  0  0  0  0
 38 41  1  0  0  0  0
 38 47  1  0  0  0  0
 39 42  1  0  0  0  0
 39 48  1  0  0  0  0
 40 51  1  0  0  0  0
 41 52  1  0  0  0  0
 42 54  1  0  0  0  0
 43 45  1  0  0  0  0
 43 55  1  0  0  0  0
 44 46  1  0  0  0  0
 44 55  1  0  0  0  0
 45 56  1  0  0  0  0
 46 56  1  0  0  0  0
 47 71  1  0  0  0  0
 48 72  1  0  0  0  0
 49 52  1  0  0  0  0
 49 71  1  0  0  0  0
 50 54  1  0  0  0  0
 50 72  1  0  0  0  0
 51 75  1  0  0  0  0
 53 70  1  0  0  0  0
 54 69  1  0  0  0  0
 55 76  1  0  0  0  0
 56 78  1  0  0  0  0
 57 66  1  0  0  0  0
 58 67  1  0  0  0  0
 59 67  1  0  0  0  0
 60 67  1  0  0  0  0
 61 79  1  0  0  0  0
 62 63  1  0  0  0  0
 62 64  1  0  0  0  0
 63 78  1  0  0  0  0
 64 87  1  0  0  0  0
 65 67  1  0  0  0  0
 65 77  1  0  0  0  0
 66 79  1  0  0  0  0
 68 69  1  0  0  0  0
M  CHG  2  78   1  79   1
M  ISO  4  33 100  64 101  71 100  87 101
M  END
> <Batch ID>
0122

> <Smiles>
CNC(C)C(=O)NC(C(=O)N1Cc2cc([101O:1][101CH2:1]CCNC3CCC(NC(=O)C4CCC[100N:0]([100C:0](=O)N5CCCC(n6nc(-c7ccc(Oc8ccc(F)cc8F)cc7)c(C(N)=O)c6N)C5)C4)CC3)ccc2CC1C(=O)NC1CCCc2ccccc21)C(C)(C)C

> <Shape>
0.291

> <Color>
0.080

> <Negative vol penalty>
0.000

$$$$

  -OEChem-04052320283D

 89 98  0     1  0  0  0  0  0999 V2000
  -21.7328  -11.1739   20.5105 C   0  0  0  0  0  0  0  0  0  0  0  0
  -21.5904  -12.5018   20.9001 C   0  0  0  0  0  0  0  0  0  0  0  0
  -28.5280  -24.0511   24.0973 C   0  0  0  0  0  0  0  0  0  0  0  0
  -26.7303  -23.8015   22.5026 C   0  0  0  0  0  0  0  0  0  0  0  0
  -23.0055  -10.6352   20.3265 C   0  0  0  0  0  0  0  0  0  0  0  0
  -22.7209  -13.2916   21.1070 C   0  0  0  0  0  0  0  0  0  0  0  0
  -22.2866  -17.8883   19.0269 C   0  0  0  0  0  0  0  0  0  0  0  0
  -28.3418  -22.7329   24.5135 C   0  0  0  0  0  0  0  0  0  0  0  0
  -26.5442  -22.4832   22.9187 C   0  0  0  0  0  0  0  0  0  0  0  0
  -21.5149  -18.8264   19.7111 C   0  0  0  0  0  0  0  0  0  0  0  0
  -25.0771  -20.8699   25.5025 C   0  0  0  0  0  0  0  0  0  0  0  0
  -23.7691  -20.4385   25.7231 C   0  0  0  0  0  0  0  0  0  0  0  0
  -23.5244  -19.8236   20.5982 C   0  0  0  0  0  0  0  0  0  0  0  0
  -20.8512  -23.2154   23.0096 C   0  0  0  0  0  0  0  0  0  0  0  0
  -24.0462  -18.7341   24.0333 C   0  0  0  0  0  0  0  0  0  0  0  0
  -27.7221  -24.5854   23.0919 C   0  0  0  0  0  0  0  0  0  0  0  0
  -28.7612  -26.4033   21.6347 C   0  0  0  0  0  0  0  0  0  0  0  0
  -24.1519  -11.4215   20.5218 C   0  0  0  0  0  0  0  0  0  0  0  0
  -23.6849  -17.9040   19.1321 C   0  0  0  0  0  0  0  0  0  0  0  0
  -24.0102  -12.7625   20.9267 C   0  0  0  0  0  0  0  0  0  0  0  0
  -24.3117  -18.8861   19.9123 C   0  0  0  0  0  0  0  0  0  0  0  0
  -19.5987  -25.2106   22.5250 C   0  0  0  0  0  0  0  0  0  0  0  0
  -20.7946  -24.5990   22.8845 C   0  0  0  0  0  0  0  0  0  0  0  0
  -27.3500  -21.9489   23.9242 C   0  0  0  0  0  0  0  0  0  0  0  0
  -22.1336  -19.7925   20.4992 C   0  0  0  0  0  0  0  0  0  0  0  0
  -25.8696  -20.2335   24.5472 C   0  0  0  0  0  0  0  0  0  0  0  0
  -23.2537  -19.3706   24.9886 C   0  0  0  0  0  0  0  0  0  0  0  0
  -25.3542  -19.1656   23.8126 C   0  0  0  0  0  0  0  0  0  0  0  0
  -27.9135  -25.9473   22.6620 C   0  0  0  0  0  0  0  0  0  0  0  0
  -19.6933  -22.4943   22.7665 C   0  0  0  0  0  0  0  0  0  0  0  0
  -18.4970  -24.4002   22.3034 C   0  0  0  0  0  0  0  0  0  0  0  0
  -28.5828  -27.7651   21.6214 C   0  0  0  0  0  0  0  0  0  0  0  0
  -29.6320  -25.6621   20.7698 C   0  0  0  0  0  0  0  0  0  0  0  0
  -25.8760  -15.8711   20.2137 C   0  0  0  0  0  0  0  0  0  0  0  0
  -27.9414  -18.0712   19.0237 C   0  0  0  0  0  0  0  0  0  0  0  0
  -28.5164  -21.3085   18.1095 C   0  0  0  0  0  0  0  0  0  0  0  0
  -24.0722  -31.3034   23.3494 C   0  0  0  0  0  0  0  0  0  0  0  0
  -25.5077  -10.7817   20.3566 C   0  0  0  0  0  0  0  0  0  0  0  0
  -24.5043  -16.9017   18.3664 C   0  0  0  0  0  0  0  0  0  0  0  0
  -25.8105  -18.9586   20.0421 C   0  0  0  0  0  0  0  0  0  0  0  0
  -26.6464  -11.7909   20.2328 C   0  0  0  0  0  0  0  0  0  0  0  0
  -27.4428  -31.4203   24.4903 C   0  0  0  0  0  0  0  0  0  0  0  0
  -26.5190  -12.8731   21.3003 C   0  0  0  0  0  0  0  0  0  0  0  0
  -28.0222  -30.0720   24.0584 C   0  0  0  0  0  0  0  0  0  0  0  0
  -19.8286  -27.3770   23.7255 C   0  0  0  0  0  0  0  0  0  0  0  0
  -20.4645  -27.1867   21.2870 C   0  0  0  0  0  0  0  0  0  0  0  0
  -25.9841  -31.2948   24.9244 C   0  0  0  0  0  0  0  0  0  0  0  0
  -25.6765  -29.3038   23.5049 C   0  0  0  0  0  0  0  0  0  0  0  0
  -19.8252  -28.8949   23.5961 C   0  0  0  0  0  0  0  0  0  0  0  0
  -20.4559  -28.7060   21.1762 C   0  0  0  0  0  0  0  0  0  0  0  0
  -19.5076  -26.6931   22.3856 C   0  0  0  0  0  0  0  0  0  0  0  0
  -25.2118  -13.6581   21.1369 C   0  0  1  0  0  0  0  0  0  0  0  0
  -25.8959  -16.6926   18.9557 C   0  0  1  0  0  0  0  0  0  0  0  0
  -27.1289  -29.3894   23.0052 C   0  0  2  0  0  0  0  0  0  0  0  0
  -22.0277  -25.4017   23.1377 C   0  0  0  0  0  0  0  0  0  0  0  0
  -17.1844  -24.9994   21.9163 C   0  0  0  0  0  0  0  0  0  0  0  0
  -29.7458  -23.2728   17.1463 C   0  0  0  0  0  0  0  0  0  0  0  0
  -29.2731  -18.1219   21.7685 C   0  0  0  0  0  0  0  0  0  0  0  0
  -30.3939  -20.2610   21.1081 C   0  0  0  0  0  0  0  0  0  0  0  0
  -30.8615  -18.1660   19.8374 C   0  0  0  0  0  0  0  0  0  0  0  0
  -27.4519  -20.7922   15.3968 C   0  0  0  0  0  0  0  0  0  0  0  0
  -19.7168  -20.9905   22.8941 C   0  0  0  0  0  0  0  0  0  0  0  0
  -22.2114  -31.1697   21.7127 C   0  0  0  0  0  0  0  0  0  0  0  0
  -20.9276  -30.8056   22.4348 C   0  0  0  0  0  0  0  0  0  0  0  0
  -20.0787  -20.3028   21.5822 C   0  0  0  0  0  0  0  0  0  1  0  0
  -28.6203  -19.3047   19.5683 C   0  0  1  0  0  0  0  0  0  0  0  0
  -29.1399  -21.9072   16.8616 C   0  0  2  0  0  0  0  0  0  0  0  0
  -29.7589  -18.9611   20.5699 C   0  0  0  0  0  0  0  0  0  0  0  0
  -27.2463  -26.9389   23.2582 N   0  0  0  0  0  0  0  0  0  0  0  0
  -18.5134  -23.0531   22.4154 N   0  0  0  0  0  0  0  0  0  0  0  0
  -27.6747  -28.0316   22.6035 N   0  0  0  0  0  0  0  0  0  0  0  0
  -26.5679  -17.9527   19.2792 N   0  0  0  0  0  0  0  0  0  0  0  0
  -25.1909  -30.6408   23.8809 N   0  0  0  0  0  0  0  0  0  0  0  0
  -29.1157  -28.7485   20.8657 N   0  0  0  0  0  0  0  0  0  0  0  0
  -29.6946  -24.2699   20.9182 N   0  0  0  0  0  0  0  0  0  0  0  0
  -25.3274  -14.6127   20.0553 N   0  0  0  0  0  0  0  0  0  0  0  0
  -29.0566  -20.0758   18.4093 N   0  0  0  0  0  0  0  0  0  0  0  0
  -23.3798  -30.6160   22.3600 N   0  0  0  0  0  0  0  0  0  0  0  0
  -20.7970  -29.3095   22.5176 N   0  3  0  0  0  0  0  0  0  0  0  0
  -28.1131  -22.0623   15.7928 N   0  3  0  0  0  0  0  0  0  0  0  0
  -30.3461  -26.2198   19.9022 O   0  0  0  0  0  0  0  0  0  0  0  0
  -26.3264  -16.3434   21.2509 O   0  0  0  0  0  0  0  0  0  0  0  0
  -28.6038  -17.2468   18.3887 O   0  0  0  0  0  0  0  0  0  0  0  0
  -27.6406  -21.8791   18.7560 O   0  0  0  0  0  0  0  0  0  0  0  0
  -23.7199  -32.4268   23.7247 O   0  0  0  0  0  0  0  0  0  0  0  0
  -27.1682  -20.6624   24.3298 O   0  0  0  0  0  0  0  0  0  0  0  0
  -21.3827  -20.7089   21.1686 O   0  0  0  0  0  0  0  0  0  1  0  0
  -21.9981  -18.9554   25.2017 F   0  0  0  0  0  0  0  0  0  0  0  0
  -26.1112  -18.5494   22.8944 F   0  0  0  0  0  0  0  0  0  0  0  0
  1  2  1  0  0  0  0
  1  5  2  0  0  0  0
  2  6  2  0  0  0  0
  3  8  2  0  0  0  0
  3 16  1  0  0  0  0
  4  9  1  0  0  0  0
  4 16  2  0  0  0  0
  5 18  1  0  0  0  0
  6 20  1  0  0  0  0
  7 10  2  0  0  0  0
  7 19  1  0  0  0  0
  8 24  1  0  0  0  0
  9 24  2  0  0  0  0
 10 25  1  0  0  0  0
 11 12  2  0  0  0  0
 11 26  1  0  0  0  0
 12 27  1  0  0  0  0
 13 21  1  0  0  0  0
 13 25  2  0  0  0  0
 14 23  2  0  0  0  0
 14 30  1  0  0  0  0
 15 27  2  0  0  0  0
 15 28  1  0  0  0  0
 16 29  1  0  0  0  0
 17 29  1  0  0  0  0
 17 32  2  0  0  0  0
 17 33  1  0  0  0  0
 18 20  2  0  0  0  0
 18 38  1  0  0  0  0
 19 21  2  0  0  0  0
 19 39  1  0  0  0  0
 20 52  1  0  0  0  0
 21 40  1  0  0  0  0
 22 23  1  0  0  0  0
 22 31  2  0  0  0  0
 22 51  1  0  0  0  0
 23 55  1  0  0  0  0
 24 86  1  0  0  0  0
 25 87  1  0  0  0  0
 26 28  2  0  0  0  0
 26 86  1  0  0  0  0
 27 88  1  0  0  0  0
 28 89  1  0  0  0  0
 29 69  2  0  0  0  0
 30 62  1  0  0  0  0
 30 70  2  0  0  0  0
 31 56  1  0  0  0  0
 31 70  1  0  0  0  0
 32 71  1  0  0  0  0
 32 74  1  0  0  0  0
 33 75  1  0  0  0  0
 33 81  2  0  0  0  0
 34 53  1  0  0  0  0
 34 76  1  0  0  0  0
 34 82  2  0  0  0  0
 35 66  1  0  0  0  0
 35 72  1  0  0  0  0
 35 83  2  0  0  0  0
 36 67  1  0  0  0  0
 36 77  1  0  0  0  0
 36 84  2  0  0  0  0
 37 73  1  0  0  0  0
 37 78  1  0  0  0  0
 37 85  2  0  0  0  0
 38 41  1  0  0  0  0
 39 53  1  0  0  0  0
 40 72  1  0  0  0  0
 41 43  1  0  0  0  0
 42 44  1  0  0  0  0
 42 47  1  0  0  0  0
 43 52  1  0  0  0  0
 44 54  1  0  0  0  0
 45 49  1  0  0  0  0
 45 51  1  0  0  0  0
 46 50  1  0  0  0  0
 46 51  1  0  0  0  0
 47 73  1  0  0  0  0
 48 54  1  0  0  0  0
 48 73  1  0  0  0  0
 49 79  1  0  0  0  0
 50 79  1  0  0  0  0
 52 76  1  0  0  0  0
 53 72  1  0  0  0  0
 54 71  1  0  0  0  0
 57 67  1  0  0  0  0
 58 68  1  0  0  0  0
 59 68  1  0  0  0  0
 60 68  1  0  0  0  0
 61 80  1  0  0  0  0
 62 65  1  0  0  0  0
 63 64  1  0  0  0  0
 63 78  1  0  0  0  0
 64 79  1  0  0  0  0
 65 87  1  0  0  0  0
 66 68  1  0  0  0  0
 66 77  1  0  0  0  0
 67 80  1  0  0  0  0
 69 71  1  0  0  0  0
M  CHG  2  79   1  80   1
M  ISO  4  37 100  65 101  78 100  87 101
M  END
> <Batch ID>
0122

> <Smiles>
CNC(C)C(=O)NC(C(=O)N1Cc2cc([101O:1][101CH2:1]Cc3cc(C)c(C4CCN(CC[100NH:0][100C:0](=O)N5CCCC(n6nc(-c7ccc(Oc8ccc(F)cc8F)cc7)c(C(N)=O)c6N)C5)CC4)c(C)n3)ccc2CC1C(=O)NC1CCCc2ccccc21)C(C)(C)C

> <Shape>
0.230

> <Color>
0.072

> <Negative vol penalty>
0.000

$$$$

  -OEChem-04052320283D

 82 90  0     1  0  0  0  0  0999 V2000
  -21.7445  -12.0093   21.0174 C   0  0  0  0  0  0  0  0  0  0  0  0
  -21.7248  -13.2927   21.5539 C   0  0  0  0  0  0  0  0  0  0  0  0
  -28.6823  -25.4544   24.8802 C   0  0  0  0  0  0  0  0  0  0  0  0
  -26.8485  -24.1044   24.0730 C   0  0  0  0  0  0  0  0  0  0  0  0
  -22.9455  -11.4604   20.5699 C   0  0  0  0  0  0  0  0  0  0  0  0
  -22.9064  -14.0276   21.6443 C   0  0  0  0  0  0  0  0  0  0  0  0
  -22.3311  -18.8252   20.1289 C   0  0  0  0  0  0  0  0  0  0  0  0
  -29.0134  -24.4566   25.7969 C   0  0  0  0  0  0  0  0  0  0  0  0
  -27.1796  -23.1065   24.9897 C   0  0  0  0  0  0  0  0  0  0  0  0
  -21.7232  -19.7065   21.0220 C   0  0  0  0  0  0  0  0  0  0  0  0
  -27.3202  -20.3561   27.3615 C   0  0  0  0  0  0  0  0  0  0  0  0
  -26.2816  -19.7693   28.0844 C   0  0  0  0  0  0  0  0  0  0  0  0
  -23.8919  -20.5545   21.6521 C   0  0  0  0  0  0  0  0  0  0  0  0
  -25.7104  -21.9251   29.0137 C   0  0  0  0  0  0  0  0  0  0  0  0
  -27.5998  -25.2783   24.0183 C   0  0  0  0  0  0  0  0  0  0  0  0
  -27.7350  -26.4467   21.7546 C   0  0  0  0  0  0  0  0  0  0  0  0
  -24.1408  -12.1926   20.6460 C   0  0  0  0  0  0  0  0  0  0  0  0
  -23.7270  -18.7943   19.9985 C   0  0  0  0  0  0  0  0  0  0  0  0
  -24.1248  -13.4875   21.1987 C   0  0  0  0  0  0  0  0  0  0  0  0
  -24.5149  -19.6737   20.7548 C   0  0  0  0  0  0  0  0  0  0  0  0
  -28.2621  -23.2826   25.8516 C   0  0  0  0  0  0  0  0  0  0  0  0
  -22.5037  -20.5693   21.7859 C   0  0  0  0  0  0  0  0  0  0  0  0
  -27.5540  -21.7274   27.4648 C   0  0  0  0  0  0  0  0  0  0  0  0
  -25.4767  -20.5538   28.9105 C   0  0  0  0  0  0  0  0  0  0  0  0
  -26.7491  -22.5119   28.2909 C   0  0  0  0  0  0  0  0  0  0  0  0
  -27.2569  -26.3090   23.0715 C   0  0  0  0  0  0  0  0  0  0  0  0
  -27.1123  -27.5750   21.2795 C   0  0  0  0  0  0  0  0  0  0  0  0
  -19.7640  -27.6359   21.4910 C   0  0  0  0  0  0  0  0  0  0  0  0
  -18.7879  -26.9075   22.0536 C   0  0  0  0  0  0  0  0  0  0  0  0
  -28.6592  -25.6279   21.0259 C   0  0  0  0  0  0  0  0  0  0  0  0
  -25.9780  -16.6048   20.4911 C   0  0  0  0  0  0  0  0  0  0  0  0
  -27.9107  -18.8634   19.1928 C   0  0  0  0  0  0  0  0  0  0  0  0
  -28.4644  -22.1625   18.5175 C   0  0  0  0  0  0  0  0  0  0  0  0
  -22.0020  -30.3328   22.7391 C   0  0  0  0  0  0  0  0  0  0  0  0
  -25.4224  -11.5392   20.1930 C   0  0  0  0  0  0  0  0  0  0  0  0
  -24.3658  -17.8565   19.0112 C   0  0  0  0  0  0  0  0  0  0  0  0
  -26.0163  -19.6941   20.6372 C   0  0  0  0  0  0  0  0  0  0  0  0
  -26.5670  -12.5265   19.9793 C   0  0  0  0  0  0  0  0  0  0  0  0
  -25.2731  -31.7386   22.7534 C   0  0  0  0  0  0  0  0  0  0  0  0
  -26.6632  -13.4947   21.1541 C   0  0  0  0  0  0  0  0  0  0  0  0
  -26.1956  -30.5189   22.7178 C   0  0  0  0  0  0  0  0  0  0  0  0
  -19.4046  -23.0731   21.9849 C   0  0  0  0  0  0  0  0  0  0  0  0
  -24.0252  -31.4780   23.5942 C   0  0  0  0  0  0  0  0  0  0  0  0
  -24.1855  -29.0541   23.1790 C   0  0  0  0  0  0  0  0  0  0  0  0
  -25.3816  -14.3254   21.2907 C   0  0  1  0  0  0  0  0  0  0  0  0
  -25.8253  -17.5518   19.3346 C   0  0  1  0  0  0  0  0  0  0  0  0
  -19.1658  -24.4604   22.5204 C   0  0  1  0  0  0  0  0  0  0  0  0
  -20.5640  -24.0148   22.1785 C   0  0  1  0  0  0  0  0  0  0  0  0
  -25.4307  -29.2495   22.2972 C   0  0  2  0  0  0  0  0  0  0  0  0
  -30.1496  -23.7049   17.4791 C   0  0  0  0  0  0  0  0  0  0  0  0
  -22.2895  -25.0404   23.6650 C   0  0  0  0  0  0  0  0  0  0  0  0
  -29.6773  -18.5944   21.6660 C   0  0  0  0  0  0  0  0  0  0  0  0
  -30.7638  -20.7614   21.0400 C   0  0  0  0  0  0  0  0  0  0  0  0
  -30.9264  -18.7986   19.5091 C   0  0  0  0  0  0  0  0  0  0  0  0
  -26.5339  -23.0824   16.4715 C   0  0  0  0  0  0  0  0  0  0  0  0
  -20.0644  -29.0492   21.8688 C   0  0  0  0  0  0  0  0  0  0  0  0
  -22.5831  -22.6652   22.9070 C   0  0  0  0  0  0  0  0  0  1  0  0
  -18.4797  -25.4799   21.6785 C   0  0  1  0  0  0  0  0  0  0  0  0
  -28.7219  -20.0158   19.7340 C   0  0  1  0  0  0  0  0  0  0  0  0
  -28.8987  -22.8717   17.2475 C   0  0  2  0  0  0  0  0  0  0  0  0
  -21.5826  -23.7617   23.2912 C   0  0  2  0  0  0  0  0  0  0  0  0
  -29.9942  -19.5411   20.4911 C   0  0  0  0  0  0  0  0  0  0  0  0
  -26.3970  -27.2728   23.4114 N   0  0  0  0  0  0  0  0  0  0  0  0
  -26.3299  -28.0271   22.3011 N   0  0  0  0  0  0  0  0  0  0  0  0
  -26.5943  -18.7540   19.6627 N   0  0  0  0  0  0  0  0  0  0  0  0
  -23.3454  -30.2614   23.1432 N   0  0  0  0  0  0  0  0  0  0  0  0
  -27.1633  -28.2147   20.0918 N   0  0  0  0  0  0  0  0  0  0  0  0
  -29.2051  -24.5060   21.6643 N   0  0  0  0  0  0  0  0  0  0  0  0
  -25.3579  -15.3841   20.3043 N   0  0  0  0  0  0  0  0  0  0  0  0
  -28.9937  -20.8920   18.5996 N   0  0  0  0  0  0  0  0  0  0  0  0
  -21.4354  -29.1352   22.3201 N   0  0  0  0  0  0  0  0  0  0  0  0
  -27.8164  -23.7738   16.7619 N   0  3  0  0  0  0  0  0  0  0  0  0
  -29.0037  -25.8928   19.8491 O   0  0  0  0  0  0  0  0  0  0  0  0
  -26.6127  -16.9551   21.4791 O   0  0  0  0  0  0  0  0  0  0  0  0
  -28.4239  -18.0929   18.3775 O   0  0  0  0  0  0  0  0  0  0  0  0
  -27.7320  -22.6849   19.3550 O   0  0  0  0  0  0  0  0  0  0  0  0
  -21.3570  -31.3868   22.7457 O   0  0  0  0  0  0  0  0  0  0  0  0
  -17.0606  -25.3169   21.7878 O   0  0  0  0  0  0  0  0  0  0  0  0
  -28.5850  -22.3087   26.7458 O   0  0  0  0  0  0  0  0  0  0  0  0
  -21.9129  -21.4300   22.6588 O   0  0  0  0  0  0  0  0  0  1  0  0
  -24.4784  -19.9904   29.6034 F   0  0  0  0  0  0  0  0  0  0  0  0
  -26.9681  -23.8300   28.3932 F   0  0  0  0  0  0  0  0  0  0  0  0
  1  2  1  0  0  0  0
  1  5  2  0  0  0  0
  2  6  2  0  0  0  0
  3  8  2  0  0  0  0
  3 15  1  0  0  0  0
  4  9  1  0  0  0  0
  4 15  2  0  0  0  0
  5 17  1  0  0  0  0
  6 19  1  0  0  0  0
  7 10  2  0  0  0  0
  7 18  1  0  0  0  0
  8 21  1  0  0  0  0
  9 21  2  0  0  0  0
 10 22  1  0  0  0  0
 11 12  2  0  0  0  0
 11 23  1  0  0  0  0
 12 24  1  0  0  0  0
 13 20  1  0  0  0  0
 13 22  2  0  0  0  0
 14 24  2  0  0  0  0
 14 25  1  0  0  0  0
 15 26  1  0  0  0  0
 16 26  1  0  0  0  0
 16 27  2  0  0  0  0
 16 30  1  0  0  0  0
 17 19  2  0  0  0  0
 17 35  1  0  0  0  0
 18 20  2  0  0  0  0
 18 36  1  0  0  0  0
 19 45  1  0  0  0  0
 20 37  1  0  0  0  0
 21 79  1  0  0  0  0
 22 80  1  0  0  0  0
 23 25  2  0  0  0  0
 23 79  1  0  0  0  0
 24 81  1  0  0  0  0
 25 82  1  0  0  0  0
 26 63  2  0  0  0  0
 27 64  1  0  0  0  0
 27 67  1  0  0  0  0
 28 29  2  0  0  0  0
 28 56  1  0  0  0  0
 29 58  1  0  0  0  0
 30 68  1  0  0  0  0
 30 73  2  0  0  0  0
 31 46  1  0  0  0  0
 31 69  1  0  0  0  0
 31 74  2  0  0  0  0
 32 59  1  0  0  0  0
 32 65  1  0  0  0  0
 32 75  2  0  0  0  0
 33 60  1  0  0  0  0
 33 70  1  0  0  0  0
 33 76  2  0  0  0  0
 34 66  1  0  0  0  0
 34 71  1  0  0  0  0
 34 77  2  0  0  0  0
 35 38  1  0  0  0  0
 36 46  1  0  0  0  0
 37 65  1  0  0  0  0
 38 40  1  0  0  0  0
 39 41  1  0  0  0  0
 39 43  1  0  0  0  0
 40 45  1  0  0  0  0
 41 49  1  0  0  0  0
 42 47  1  0  0  0  0
 42 48  1  0  0  0  0
 43 66  1  0  0  0  0
 44 49  1  0  0  0  0
 44 66  1  0  0  0  0
 45 69  1  0  0  0  0
 46 65  1  0  0  0  0
 47 48  1  0  0  0  0
 47 58  1  0  0  0  0
 48 61  1  0  0  0  0
 49 64  1  0  0  0  0
 50 60  1  0  0  0  0
 51 61  1  0  0  0  0
 52 62  1  0  0  0  0
 53 62  1  0  0  0  0
 54 62  1  0  0  0  0
 55 72  1  0  0  0  0
 56 71  1  0  0  0  0
 57 61  1  0  0  0  0
 57 80  1  0  0  0  0
 58 78  1  0  0  0  0
 59 62  1  0  0  0  0
 59 70  1  0  0  0  0
 60 72  1  0  0  0  0
 63 64  1  0  0  0  0
M  CHG  1  72   1
M  ISO  4  34 100  57 101  71 100  80 101
M  END
> <Batch ID>
0122

> <Smiles>
CNC(C)C(=O)NC(C(=O)N1Cc2cc([101O:1][101CH2:1]C(C)C3CC3C(O)C=CC[100NH:0][100C:0](=O)N3CCCC(n4nc(-c5ccc(Oc6ccc(F)cc6F)cc5)c(C(N)=O)c4N)C3)ccc2CC1C(=O)NC1CCCc2ccccc21)C(C)(C)C

> <Shape>
0.200

> <Color>
0.064

> <Negative vol penalty>
0.000

$$$$

  -OEChem-04052320283D

 88 97  0     1  0  0  0  0  0999 V2000
  -31.7043  -26.8192   12.6720 C   0  0  0  0  0  0  0  0  0  0  0  0
  -31.0615  -26.1361   13.6994 C   0  0  0  0  0  0  0  0  0  0  0  0
  -23.2873   -9.7902   19.9298 C   0  0  0  0  0  0  0  0  0  0  0  0
  -23.7437   -9.9520   22.2968 C   0  0  0  0  0  0  0  0  0  0  0  0
  -32.6540  -26.1647   11.8887 C   0  0  0  0  0  0  0  0  0  0  0  0
  -31.3674  -24.7977   13.9435 C   0  0  0  0  0  0  0  0  0  0  0  0
  -31.9667  -23.8099   18.8741 C   0  0  0  0  0  0  0  0  0  0  0  0
  -22.5618   -8.6194   20.1497 C   0  0  0  0  0  0  0  0  0  0  0  0
  -23.0182   -8.7812   22.5167 C   0  0  0  0  0  0  0  0  0  0  0  0
  -30.8106  -23.6783   19.6422 C   0  0  0  0  0  0  0  0  0  0  0  0
  -20.9829   -6.0311   23.7468 C   0  0  0  0  0  0  0  0  0  0  0  0
  -20.0839   -6.0150   24.8131 C   0  0  0  0  0  0  0  0  0  0  0  0
  -31.0071  -21.2774   19.5157 C   0  0  0  0  0  0  0  0  0  0  0  0
  -18.8714   -7.8529   23.8186 C   0  0  0  0  0  0  0  0  0  0  0  0
  -23.8782  -10.4566   21.0034 C   0  0  0  0  0  0  0  0  0  0  0  0
  -24.1362  -12.9848   20.7817 C   0  0  0  0  0  0  0  0  0  0  0  0
  -32.9787  -24.8203   12.1295 C   0  0  0  0  0  0  0  0  0  0  0  0
  -32.6467  -22.6743   18.4110 C   0  0  0  0  0  0  0  0  0  0  0  0
  -32.3214  -24.1242   13.1619 C   0  0  0  0  0  0  0  0  0  0  0  0
  -32.1730  -21.3972   18.7440 C   0  0  0  0  0  0  0  0  0  0  0  0
  -22.4272   -8.1148   21.4431 C   0  0  0  0  0  0  0  0  0  0  0  0
  -30.3290  -22.4119   19.9607 C   0  0  0  0  0  0  0  0  0  0  0  0
  -20.8263   -6.9582   22.7164 C   0  0  0  0  0  0  0  0  0  0  0  0
  -19.0281   -6.9258   24.8490 C   0  0  0  0  0  0  0  0  0  0  0  0
  -19.7705   -7.8690   22.7523 C   0  0  0  0  0  0  0  0  0  0  0  0
  -24.6282  -11.6658   20.7768 C   0  0  0  0  0  0  0  0  0  0  0  0
  -25.2368  -13.7628   20.5172 C   0  0  0  0  0  0  0  0  0  0  0  0
  -22.8036  -13.4639   21.0054 C   0  0  0  0  0  0  0  0  0  0  0  0
  -27.8298  -19.6352   21.4469 C   0  0  0  0  0  0  0  0  0  0  0  0
  -33.3488  -21.4936   15.5446 C   0  0  0  0  0  0  0  0  0  0  0  0
  -35.0435  -19.3383   17.2780 C   0  0  0  0  0  0  0  0  0  0  0  0
  -34.5790  -17.4580   20.3220 C   0  0  0  0  0  0  0  0  0  0  0  0
  -31.1101  -12.9291   21.3302 C   0  0  0  0  0  0  0  0  0  0  0  0
  -33.9776  -24.1417   11.2260 C   0  0  0  0  0  0  0  0  0  0  0  0
  -33.9073  -22.8332   17.6060 C   0  0  0  0  0  0  0  0  0  0  0  0
  -32.8776  -20.1464   18.2886 C   0  0  0  0  0  0  0  0  0  0  0  0
  -34.5164  -22.8297   11.7905 C   0  0  0  0  0  0  0  0  0  0  0  0
  -29.4536  -13.6407   18.2600 C   0  0  0  0  0  0  0  0  0  0  0  0
  -29.8365  -15.9688   26.7837 C   0  0  0  0  0  0  0  0  0  0  0  0
  -33.3756  -21.9708   12.3269 C   0  0  0  0  0  0  0  0  0  0  0  0
  -25.9568  -18.9112   19.8496 C   0  0  0  0  0  0  0  0  0  0  0  0
  -25.7898  -20.3824   20.0837 C   0  0  0  0  0  0  0  0  0  0  0  0
  -27.9847  -13.3343   18.5573 C   0  0  0  0  0  0  0  0  0  0  0  0
  -29.1902  -16.8251   25.7140 C   0  0  0  0  0  0  0  0  0  0  0  0
  -30.3889  -12.6679   18.9748 C   0  0  0  0  0  0  0  0  0  0  0  0
  -28.7066  -12.2535   20.7274 C   0  0  0  0  0  0  0  0  0  0  0  0
  -30.0946  -14.6521   26.0764 C   0  0  0  0  0  0  0  0  0  0  0  0
  -32.6440  -22.6789   13.4735 C   0  0  1  0  0  0  0  0  0  0  0  0
  -27.1486  -19.7662   20.1258 C   0  0  0  0  0  0  0  0  0  0  0  0
  -34.2312  -21.6090   16.7552 C   0  0  1  0  0  0  0  0  0  0  0  0
  -27.7267  -13.2426   20.0733 C   0  0  2  0  0  0  0  0  0  0  0  0
  -30.0358  -16.5183   24.4866 C   0  0  2  0  0  0  0  0  0  0  0  0
  -36.2585  -16.5397   21.9448 C   0  0  0  0  0  0  0  0  0  0  0  0
  -29.6926  -22.5877   23.0338 C   0  0  0  0  0  0  0  0  0  0  0  0
  -34.8054  -16.7809   15.6308 C   0  0  0  0  0  0  0  0  0  0  0  0
  -34.9616  -15.4765   17.7621 C   0  0  0  0  0  0  0  0  0  0  0  0
  -36.8631  -16.9231   17.0450 C   0  0  0  0  0  0  0  0  0  0  0  0
  -33.3128  -18.8562   22.6025 C   0  0  0  0  0  0  0  0  0  0  0  0
  -27.9880  -20.9026   22.2614 C   0  0  0  0  0  0  0  0  0  0  0  0
  -29.3262  -16.7968   23.1743 C   0  0  0  0  0  0  0  0  0  0  0  0
  -28.9268  -18.2592   23.0226 C   0  0  0  0  0  0  0  0  0  0  0  0
  -31.6776  -13.1643   23.7347 C   0  0  0  0  0  0  0  0  0  0  0  0
  -31.6820  -14.6339   24.1122 C   0  0  0  0  0  0  0  0  0  0  0  0
  -34.7435  -17.9989   17.9065 C   0  0  1  0  0  0  0  0  0  0  0  0
  -35.2942  -17.6763   21.6431 C   0  0  2  0  0  0  0  0  0  0  0  0
  -29.3213  -21.5848   21.9497 C   0  0  1  0  0  0  0  0  0  1  0  0
  -35.3231  -16.8145   17.0826 C   0  0  0  0  0  0  0  0  0  0  0  0
  -25.9393  -11.6054   20.5287 N   0  0  0  0  0  0  0  0  0  0  0  0
  -28.2434  -18.4552   21.7545 N   0  0  0  0  0  0  0  0  0  0  0  0
  -26.2804  -12.8962   20.3751 N   0  0  0  0  0  0  0  0  0  0  0  0
  -34.1025  -20.3540   17.4986 N   0  0  0  0  0  0  0  0  0  0  0  0
  -30.0930  -12.6291   20.4089 N   0  0  0  0  0  0  0  0  0  0  0  0
  -25.4040  -15.0967   20.3945 N   0  0  0  0  0  0  0  0  0  0  0  0
  -21.7919  -12.5289   21.2636 N   0  0  0  0  0  0  0  0  0  0  0  0
  -33.4105  -22.5835   14.6974 N   0  0  0  0  0  0  0  0  0  0  0  0
  -35.2374  -18.0715   19.2773 N   0  0  0  0  0  0  0  0  0  0  0  0
  -30.7436  -12.8753   22.6694 N   0  0  0  0  0  0  0  0  0  0  0  0
  -30.3305  -15.0301   24.6232 N   0  3  1  0  0  0  0  0  0  0  0  0
  -34.3085  -17.7647   22.7574 N   0  3  0  0  0  0  0  0  0  0  0  0
  -22.5151  -14.6839   20.9610 O   0  0  0  0  0  0  0  0  0  0  0  0
  -32.6638  -20.4894   15.3897 O   0  0  0  0  0  0  0  0  0  0  0  0
  -36.0783  -19.4801   16.6216 O   0  0  0  0  0  0  0  0  0  0  0  0
  -33.5421  -16.8053   20.2259 O   0  0  0  0  0  0  0  0  0  0  0  0
  -32.2581  -13.2282   20.9847 O   0  0  0  0  0  0  0  0  0  0  0  0
  -21.7192   -6.9724   21.6581 O   0  0  0  0  0  0  0  0  0  0  0  0
  -29.2005  -22.2806   20.7097 O   0  0  0  0  0  0  0  0  0  1  0  0
  -18.1639   -6.9092   25.8723 F   0  0  0  0  0  0  0  0  0  0  0  0
  -19.6141   -8.7612   21.7647 F   0  0  0  0  0  0  0  0  0  0  0  0
  1  2  1  0  0  0  0
  1  5  2  0  0  0  0
  2  6  2  0  0  0  0
  3  8  2  0  0  0  0
  3 15  1  0  0  0  0
  4  9  1  0  0  0  0
  4 15  2  0  0  0  0
  5 17  1  0  0  0  0
  6 19  1  0  0  0  0
  7 10  2  0  0  0  0
  7 18  1  0  0  0  0
  8 21  1  0  0  0  0
  9 21  2  0  0  0  0
 10 22  1  0  0  0  0
 11 12  2  0  0  0  0
 11 23  1  0  0  0  0
 12 24  1  0  0  0  0
 13 20  1  0  0  0  0
 13 22  2  0  0  0  0
 14 24  2  0  0  0  0
 14 25  1  0  0  0  0
 15 26  1  0  0  0  0
 16 26  1  0  0  0  0
 16 27  2  0  0  0  0
 16 28  1  0  0  0  0
 17 19  2  0  0  0  0
 17 34  1  0  0  0  0
 18 20  2  0  0  0  0
 18 35  1  0  0  0  0
 19 48  1  0  0  0  0
 20 36  1  0  0  0  0
 21 85  1  0  0  0  0
 22 86  1  0  0  0  0
 23 25  2  0  0  0  0
 23 85  1  0  0  0  0
 24 87  1  0  0  0  0
 25 88  1  0  0  0  0
 26 68  2  0  0  0  0
 27 70  1  0  0  0  0
 27 73  1  0  0  0  0
 28 74  1  0  0  0  0
 28 80  2  0  0  0  0
 29 49  1  0  0  0  0
 29 59  1  0  0  0  0
 29 69  2  0  0  0  0
 30 50  1  0  0  0  0
 30 75  1  0  0  0  0
 30 81  2  0  0  0  0
 31 64  1  0  0  0  0
 31 71  1  0  0  0  0
 31 82  2  0  0  0  0
 32 65  1  0  0  0  0
 32 76  1  0  0  0  0
 32 83  2  0  0  0  0
 33 72  1  0  0  0  0
 33 77  1  0  0  0  0
 33 84  2  0  0  0  0
 34 37  1  0  0  0  0
 35 50  1  0  0  0  0
 36 71  1  0  0  0  0
 37 40  1  0  0  0  0
 38 43  1  0  0  0  0
 38 45  1  0  0  0  0
 39 44  1  0  0  0  0
 39 47  1  0  0  0  0
 40 48  1  0  0  0  0
 41 42  1  0  0  0  0
 41 49  1  0  0  0  0
 42 49  1  0  0  0  0
 43 51  1  0  0  0  0
 44 52  1  0  0  0  0
 45 72  1  0  0  0  0
 46 51  1  0  0  0  0
 46 72  1  0  0  0  0
 47 78  1  0  0  0  0
 48 75  1  0  0  0  0
 50 71  1  0  0  0  0
 51 70  1  0  0  0  0
 52 60  1  0  0  0  0
 52 78  1  0  0  0  0
 53 65  1  0  0  0  0
 54 66  1  0  0  0  0
 55 67  1  0  0  0  0
 56 67  1  0  0  0  0
 57 67  1  0  0  0  0
 58 79  1  0  0  0  0
 59 66  1  0  0  0  0
 60 61  1  0  0  0  0
 61 69  1  0  0  0  0
 62 63  1  0  0  0  0
 62 77  1  0  0  0  0
 63 78  1  0  0  0  0
 64 67  1  0  0  0  0
 64 76  1  0  0  0  0
 65 79  1  0  0  0  0
 66 86  1  0  0  0  0
 68 70  1  0  0  0  0
M  CHG  2  78   1  79   1
M  ISO  4  33 100  66 101  77 100  86 101
M  END
> <Batch ID>
0122

> <Smiles>
CNC(C)C(=O)NC(C(=O)N1Cc2cc([101O:1][101CH:1](C)CC(NCCC3CCCN3CC[100NH:0][100C:0](=O)N3CCCC(n4nc(-c5ccc(Oc6ccc(F)cc6F)cc5)c(C(N)=O)c4N)C3)=C3CC3)ccc2CC1C(=O)NC1CCCc2ccccc21)C(C)(C)C

> <Shape>
0.176

> <Color>
0.171

> <Negative vol penalty>
0.000

$$$$

  -OEChem-04052320283D

 87 95  0     1  0  0  0  0  0999 V2000
  -28.8408  -32.5051   26.9758 C   0  0  0  0  0  0  0  0  0  0  0  0
  -28.8626  -31.3122   26.2604 C   0  0  0  0  0  0  0  0  0  0  0  0
  -24.3253   -9.2059   21.5467 C   0  0  0  0  0  0  0  0  0  0  0  0
  -24.4884  -10.6426   23.4822 C   0  0  0  0  0  0  0  0  0  0  0  0
  -27.6326  -33.1680   27.1871 C   0  0  0  0  0  0  0  0  0  0  0  0
  -27.6758  -30.7809   25.7567 C   0  0  0  0  0  0  0  0  0  0  0  0
  -26.9569  -27.6907   20.5184 C   0  0  0  0  0  0  0  0  0  0  0  0
  -23.9646   -8.1387   22.3692 C   0  0  0  0  0  0  0  0  0  0  0  0
  -24.1276   -9.5754   24.3048 C   0  0  0  0  0  0  0  0  0  0  0  0
  -26.8796  -26.3275   20.2366 C   0  0  0  0  0  0  0  0  0  0  0  0
  -21.1900   -7.0531   23.9680 C   0  0  0  0  0  0  0  0  0  0  0  0
  -20.1206   -6.2547   23.5624 C   0  0  0  0  0  0  0  0  0  0  0  0
  -24.4714  -26.4620   20.2760 C   0  0  0  0  0  0  0  0  0  0  0  0
  -21.5767   -4.3274   23.5165 C   0  0  0  0  0  0  0  0  0  0  0  0
  -24.5873  -10.4578   22.1032 C   0  0  0  0  0  0  0  0  0  0  0  0
  -24.0995  -12.4884   20.6381 C   0  0  0  0  0  0  0  0  0  0  0  0
  -26.4317  -32.6495   26.6775 C   0  0  0  0  0  0  0  0  0  0  0  0
  -25.7901  -28.4488   20.6922 C   0  0  0  0  0  0  0  0  0  0  0  0
  -26.4502  -31.4367   25.9625 C   0  0  0  0  0  0  0  0  0  0  0  0
  -24.5365  -27.8352   20.5574 C   0  0  0  0  0  0  0  0  0  0  0  0
  -23.8657   -8.3234   23.7482 C   0  0  0  0  0  0  0  0  0  0  0  0
  -25.6368  -25.7123   20.1182 C   0  0  0  0  0  0  0  0  0  0  0  0
  -22.4529   -6.4886   24.1477 C   0  0  0  0  0  0  0  0  0  0  0  0
  -20.3139   -4.8919   23.3367 C   0  0  0  0  0  0  0  0  0  0  0  0
  -22.6462   -5.1257   23.9220 C   0  0  0  0  0  0  0  0  0  0  0  0
  -24.9605  -11.5605   21.2541 C   0  0  0  0  0  0  0  0  0  0  0  0
  -24.9379  -13.3275   19.9457 C   0  0  0  0  0  0  0  0  0  0  0  0
  -22.6698  -12.5834   20.6875 C   0  0  0  0  0  0  0  0  0  0  0  0
  -30.7281  -14.7416   20.7108 C   0  0  0  0  0  0  0  0  0  0  0  0
  -24.5377  -30.1211   23.0877 C   0  0  0  0  0  0  0  0  0  0  0  0
  -22.3518  -30.9614   20.8431 C   0  0  0  0  0  0  0  0  0  0  0  0
  -20.7785  -30.2138   17.9084 C   0  0  0  0  0  0  0  0  0  0  0  0
  -25.1439  -33.3772   26.9720 C   0  0  0  0  0  0  0  0  0  0  0  0
  -25.8903  -29.9238   20.9693 C   0  0  0  0  0  0  0  0  0  0  0  0
  -23.2539  -28.6087   20.7147 C   0  0  0  0  0  0  0  0  0  0  0  0
  -23.9813  -32.9416   26.0839 C   0  0  0  0  0  0  0  0  0  0  0  0
  -29.1836  -13.4227   17.7587 C   0  0  0  0  0  0  0  0  0  0  0  0
  -23.9117  -31.4199   26.0038 C   0  0  0  0  0  0  0  0  0  0  0  0
  -29.9455  -16.3445   24.8203 C   0  0  0  0  0  0  0  0  0  0  0  0
  -27.8601  -12.8546   18.2693 C   0  0  0  0  0  0  0  0  0  0  0  0
  -31.2501  -16.5674   24.0570 C   0  0  0  0  0  0  0  0  0  0  0  0
  -29.3292  -16.4612   21.7924 C   0  0  0  0  0  0  0  0  0  0  0  0
  -30.2984  -13.2504   18.7857 C   0  0  0  0  0  0  0  0  0  0  0  0
  -28.6600  -13.2620   20.6397 C   0  0  0  0  0  0  0  0  0  0  0  0
  -25.1871  -30.8415   25.3790 C   0  0  1  0  0  0  0  0  0  0  0  0
  -30.2588  -15.2667   22.0442 C   0  0  2  0  0  0  0  0  0  0  0  0
  -24.6413  -30.4928   21.6355 C   0  0  1  0  0  0  0  0  0  0  0  0
  -28.7538  -17.1378   24.2437 C   0  0  1  0  0  0  0  0  0  0  0  0
  -28.2352  -16.6195   22.8724 C   0  0  1  0  0  0  0  0  0  0  0  0
  -27.4999  -13.4431   19.6449 C   0  0  2  0  0  0  0  0  0  0  0  0
  -31.4886  -15.6092   22.8915 C   0  0  2  0  0  0  0  0  0  0  0  0
  -19.0118  -31.0716   16.3462 C   0  0  0  0  0  0  0  0  0  0  0  0
  -27.5154  -15.7633   25.9410 C   0  0  0  0  0  0  0  0  0  0  0  0
  -27.8933  -18.2126   26.3431 C   0  0  0  0  0  0  0  0  0  0  0  0
  -20.1880  -30.0251   22.7799 C   0  0  0  0  0  0  0  0  0  0  0  0
  -18.5779  -30.0065   20.8627 C   0  0  0  0  0  0  0  0  0  0  0  0
  -19.6541  -32.1447   21.5646 C   0  0  0  0  0  0  0  0  0  0  0  0
  -22.7050  -30.4513   15.6744 C   0  0  0  0  0  0  0  0  0  0  0  0
  -27.1427  -17.5469   22.3104 C   0  0  0  0  0  0  0  0  0  0  0  0
  -27.7098  -18.9245   22.0001 C   0  0  0  0  0  0  0  0  0  0  0  0
  -26.6155  -19.8520   21.4691 C   0  0  0  0  0  0  0  0  0  0  0  0
  -27.1764  -21.2317   21.1207 C   0  0  0  0  0  0  0  0  0  0  0  0
  -26.0784  -22.1686   20.6221 C   0  0  0  0  0  0  0  0  0  0  0  0
  -26.6217  -23.5564   20.3132 C   0  0  0  0  0  0  0  0  0  1  0  0
  -21.0346  -30.3962   20.3692 C   0  0  1  0  0  0  0  0  0  0  0  0
  -20.4966  -31.0521   16.6746 C   0  0  2  0  0  0  0  0  0  0  0  0
  -27.6310  -17.1382   25.2963 C   0  0  0  0  0  0  0  0  0  0  0  0
  -19.8876  -30.6279   21.3930 C   0  0  0  0  0  0  0  0  0  0  0  0
  -26.2472  -11.7883   20.9773 N   0  0  0  0  0  0  0  0  0  0  0  0
  -26.2009  -12.8689   20.1796 N   0  0  0  0  0  0  0  0  0  0  0  0
  -29.9089  -13.8021   20.0846 N   0  0  0  0  0  0  0  0  0  0  0  0
  -23.4042  -30.0469   20.9913 N   0  0  0  0  0  0  0  0  0  0  0  0
  -24.7106  -14.4056   19.1655 N   0  0  0  0  0  0  0  0  0  0  0  0
  -21.9633  -11.6402   21.4462 N   0  0  0  0  0  0  0  0  0  0  0  0
  -25.1659  -31.0075   23.9415 N   0  0  0  0  0  0  0  0  0  0  0  0
  -20.7893  -30.9799   19.0548 N   0  0  0  0  0  0  0  0  0  0  0  0
  -32.0412  -14.3268   23.4404 N   0  3  0  0  0  0  0  0  0  0  0  0
  -21.2309  -30.5059   15.4984 N   0  3  0  0  0  0  0  0  0  0  0  0
  -22.0363  -13.4683   20.0636 O   0  0  0  0  0  0  0  0  0  0  0  0
  -31.7900  -15.1576   20.2400 O   0  0  0  0  0  0  0  0  0  0  0  0
  -23.9312  -29.1062   23.4098 O   0  0  0  0  0  0  0  0  0  0  0  0
  -22.4455  -32.1710   21.0665 O   0  0  0  0  0  0  0  0  0  0  0  0
  -20.9664  -29.0001   17.8604 O   0  0  0  0  0  0  0  0  0  0  0  0
  -23.5135   -7.2823   24.5511 O   0  0  0  0  0  0  0  0  0  0  0  0
  -25.5579  -24.3719   19.8418 O   0  0  0  0  0  0  0  0  0  1  0  0
  -19.2864   -4.1251   22.9487 F   0  0  0  0  0  0  0  0  0  0  0  0
  -23.8568   -4.5775   24.0941 F   0  0  0  0  0  0  0  0  0  0  0  0
  1  2  1  0  0  0  0
  1  5  2  0  0  0  0
  2  6  2  0  0  0  0
  3  8  2  0  0  0  0
  3 15  1  0  0  0  0
  4  9  1  0  0  0  0
  4 15  2  0  0  0  0
  5 17  1  0  0  0  0
  6 19  1  0  0  0  0
  7 10  2  0  0  0  0
  7 18  1  0  0  0  0
  8 21  1  0  0  0  0
  9 21  2  0  0  0  0
 10 22  1  0  0  0  0
 11 12  2  0  0  0  0
 11 23  1  0  0  0  0
 12 24  1  0  0  0  0
 13 20  1  0  0  0  0
 13 22  2  0  0  0  0
 14 24  2  0  0  0  0
 14 25  1  0  0  0  0
 15 26  1  0  0  0  0
 16 26  1  0  0  0  0
 16 27  2  0  0  0  0
 16 28  1  0  0  0  0
 17 19  2  0  0  0  0
 17 33  1  0  0  0  0
 18 20  2  0  0  0  0
 18 34  1  0  0  0  0
 19 45  1  0  0  0  0
 20 35  1  0  0  0  0
 21 84  1  0  0  0  0
 22 85  1  0  0  0  0
 23 25  2  0  0  0  0
 23 84  1  0  0  0  0
 24 86  1  0  0  0  0
 25 87  1  0  0  0  0
 26 69  2  0  0  0  0
 27 70  1  0  0  0  0
 27 73  1  0  0  0  0
 28 74  1  0  0  0  0
 28 79  2  0  0  0  0
 29 46  1  0  0  0  0
 29 71  1  0  0  0  0
 29 80  2  0  0  0  0
 30 47  1  0  0  0  0
 30 75  1  0  0  0  0
 30 81  2  0  0  0  0
 31 65  1  0  0  0  0
 31 72  1  0  0  0  0
 31 82  2  0  0  0  0
 32 66  1  0  0  0  0
 32 76  1  0  0  0  0
 32 83  2  0  0  0  0
 33 36  1  0  0  0  0
 34 47  1  0  0  0  0
 35 72  1  0  0  0  0
 36 38  1  0  0  0  0
 37 40  1  0  0  0  0
 37 43  1  0  0  0  0
 38 45  1  0  0  0  0
 39 41  1  0  0  0  0
 39 48  1  0  0  0  0
 40 50  1  0  0  0  0
 41 51  1  0  0  0  0
 42 46  1  0  0  0  0
 42 49  1  0  0  0  0
 43 71  1  0  0  0  0
 44 50  1  0  0  0  0
 44 71  1  0  0  0  0
 45 75  1  0  0  0  0
 46 51  1  0  0  0  0
 47 72  1  0  0  0  0
 48 49  1  0  0  0  0
 48 67  1  0  0  0  0
 49 59  1  0  0  0  0
 50 70  1  0  0  0  0
 51 77  1  0  0  0  0
 52 66  1  0  0  0  0
 53 67  1  0  0  0  0
 54 67  1  0  0  0  0
 55 68  1  0  0  0  0
 56 68  1  0  0  0  0
 57 68  1  0  0  0  0
 58 78  1  0  0  0  0
 59 60  1  0  0  0  0
 60 61  1  0  0  0  0
 61 62  1  0  0  0  0
 62 63  1  0  0  0  0
 63 64  1  0  0  0  0
 64 85  1  0  0  0  0
 65 68  1  0  0  0  0
 65 76  1  0  0  0  0
 66 78  1  0  0  0  0
 69 70  1  0  0  0  0
M  CHG  2  77   1  78   1
M  ISO  4  29 100  46 100  64 101  85 101
M  END
> <Batch ID>
0122

> <Smiles>
CNC(C)C(=O)NC(C(=O)N1Cc2cc([101O:1][101CH2:1]CCCCCC3C[100CH:0]([100C:0](=O)N4CCCC(n5nc(-c6ccc(Oc7ccc(F)cc7F)cc6)c(C(N)=O)c5N)C4)C(N)CCC3C(C)C)ccc2CC1C(=O)NC1CCCc2ccccc21)C(C)(C)C

> <Shape>
0.286

> <Color>
0.111

> <Negative vol penalty>
0.000

$$$$

  -OEChem-04052320283D

 82 90  0     1  0  0  0  0  0999 V2000
  -25.7860  -29.4993   10.3936 C   0  0  0  0  0  0  0  0  0  0  0  0
  -26.1434  -28.1968   10.7273 C   0  0  0  0  0  0  0  0  0  0  0  0
  -23.0722   -9.8723   19.9427 C   0  0  0  0  0  0  0  0  0  0  0  0
  -23.8344   -9.8793   22.2353 C   0  0  0  0  0  0  0  0  0  0  0  0
  -25.8248  -30.5015   11.3621 C   0  0  0  0  0  0  0  0  0  0  0  0
  -26.5409  -27.8961   12.0296 C   0  0  0  0  0  0  0  0  0  0  0  0
  -25.4920  -22.6966   15.0908 C   0  0  0  0  0  0  0  0  0  0  0  0
  -22.3282   -8.7194   20.1936 C   0  0  0  0  0  0  0  0  0  0  0  0
  -23.0903   -8.7265   22.4862 C   0  0  0  0  0  0  0  0  0  0  0  0
  -26.2804  -21.5711   15.3258 C   0  0  0  0  0  0  0  0  0  0  0  0
  -19.3811   -7.9240   21.6480 C   0  0  0  0  0  0  0  0  0  0  0  0
  -18.0738   -7.8781   21.1640 C   0  0  0  0  0  0  0  0  0  0  0  0
  -26.9351  -22.4828   17.4610 C   0  0  0  0  0  0  0  0  0  0  0  0
  -18.6315   -5.9347   19.8415 C   0  0  0  0  0  0  0  0  0  0  0  0
  -27.0565  -18.8081   20.0389 C   0  0  0  0  0  0  0  0  0  0  0  0
  -27.0333  -19.0173   21.3890 C   0  0  0  0  0  0  0  0  0  0  0  0
  -23.8253  -10.4522   20.9636 C   0  0  0  0  0  0  0  0  0  0  0  0
  -24.1679  -12.9772   20.8428 C   0  0  0  0  0  0  0  0  0  0  0  0
  -26.2138  -30.2109   12.6793 C   0  0  0  0  0  0  0  0  0  0  0  0
  -25.4276  -23.7305   16.0361 C   0  0  0  0  0  0  0  0  0  0  0  0
  -26.5863  -28.8956   13.0163 C   0  0  0  0  0  0  0  0  0  0  0  0
  -26.1431  -23.6193   17.2368 C   0  0  0  0  0  0  0  0  0  0  0  0
  -22.3372   -8.1465   21.4653 C   0  0  0  0  0  0  0  0  0  0  0  0
  -27.0044  -21.4653   16.5097 C   0  0  0  0  0  0  0  0  0  0  0  0
  -20.3138   -6.9753   21.2286 C   0  0  0  0  0  0  0  0  0  0  0  0
  -17.6989   -6.8835   20.2608 C   0  0  0  0  0  0  0  0  0  0  0  0
  -19.9389   -5.9806   20.3254 C   0  0  0  0  0  0  0  0  0  0  0  0
  -24.5945  -11.6428   20.7049 C   0  0  0  0  0  0  0  0  0  0  0  0
  -25.2599  -13.7263   20.4784 C   0  0  0  0  0  0  0  0  0  0  0  0
  -29.0851  -18.4047   20.8277 C   0  0  0  0  0  0  0  0  0  0  0  0
  -22.8980  -13.4935   21.2630 C   0  0  0  0  0  0  0  0  0  0  0  0
  -26.2013  -26.8135   16.0445 C   0  0  0  0  0  0  0  0  0  0  0  0
  -24.8084  -26.7548   18.9734 C   0  0  0  0  0  0  0  0  0  0  0  0
  -23.8872  -24.9318   21.7074 C   0  0  0  0  0  0  0  0  0  0  0  0
  -30.7442  -14.7436   20.6610 C   0  0  0  0  0  0  0  0  0  0  0  0
  -26.2856  -31.3368   13.6802 C   0  0  0  0  0  0  0  0  0  0  0  0
  -24.5514  -24.9258   15.7793 C   0  0  0  0  0  0  0  0  0  0  0  0
  -26.0920  -24.6922   18.2927 C   0  0  0  0  0  0  0  0  0  0  0  0
  -26.3586  -30.8605   15.1286 C   0  0  0  0  0  0  0  0  0  0  0  0
  -29.6034  -12.3591   18.2758 C   0  0  0  0  0  0  0  0  0  0  0  0
  -27.3866  -29.7427   15.2719 C   0  0  0  0  0  0  0  0  0  0  0  0
  -28.1663  -12.0659   18.7102 C   0  0  0  0  0  0  0  0  0  0  0  0
  -30.5218  -12.5798   19.4757 C   0  0  0  0  0  0  0  0  0  0  0  0
  -28.6217  -13.3117   20.8641 C   0  0  0  0  0  0  0  0  0  0  0  0
  -26.9992  -28.5250   14.4242 C   0  0  1  0  0  0  0  0  0  0  0  0
  -24.9645  -26.1535   16.5852 C   0  0  1  0  0  0  0  0  0  0  0  0
  -27.6463  -13.1373   19.6875 C   0  0  2  0  0  0  0  0  0  0  0  0
  -22.8014  -25.1673   23.9575 C   0  0  0  0  0  0  0  0  0  0  0  0
  -29.8316  -21.5960   16.8949 C   0  0  0  0  0  0  0  0  0  0  0  0
  -27.3726  -27.9842   20.0794 C   0  0  0  0  0  0  0  0  0  0  0  0
  -26.6185  -27.3216   22.3730 C   0  0  0  0  0  0  0  0  0  0  0  0
  -25.2647  -28.9330   21.0338 C   0  0  0  0  0  0  0  0  0  0  0  0
  -21.6870  -23.0963   20.9667 C   0  0  0  0  0  0  0  0  0  0  0  0
  -30.5224  -18.0481   20.9253 C   0  0  0  0  0  0  0  0  0  0  0  0
  -29.6696  -19.2092   17.6893 C   0  0  0  0  0  0  0  0  0  0  0  0
  -28.8242  -18.0993   18.3306 C   0  0  0  0  0  0  0  0  0  0  0  0
  -30.8120  -16.8943   21.8975 C   0  0  0  0  0  0  0  0  0  0  0  0
  -25.2881  -26.4908   20.3802 C   0  0  1  0  0  0  0  0  0  0  0  0
  -22.5836  -24.8674   22.4826 C   0  0  2  0  0  0  0  0  0  0  0  0
  -28.9379  -20.5497   17.5486 C   0  0  2  0  0  0  0  0  0  1  0  0
  -26.1387  -27.6629   20.9461 C   0  0  0  0  0  0  0  0  0  0  0  0
  -25.8589  -11.5465   20.2853 N   0  0  0  0  0  0  0  0  0  0  0  0
  -28.3384  -18.4306   19.7190 N   0  0  0  0  0  0  0  0  0  0  0  0
  -26.2361  -12.8299   20.1564 N   0  0  0  0  0  0  0  0  0  0  0  0
  -28.3015  -18.7601   21.8510 N   0  3  0  0  0  0  0  0  0  0  0  0
  -25.2260  -25.8443   17.9924 N   0  0  0  0  0  0  0  0  0  0  0  0
  -29.9725  -13.6086   20.3621 N   0  0  0  0  0  0  0  0  0  0  0  0
  -25.4707  -15.0577   20.4049 N   0  0  0  0  0  0  0  0  0  0  0  0
  -21.8861  -12.5847   21.6014 N   0  0  0  0  0  0  0  0  0  0  0  0
  -25.9525  -27.7676   15.0763 N   0  0  0  0  0  0  0  0  0  0  0  0
  -24.0983  -26.1823   21.1661 N   0  0  0  0  0  0  0  0  0  0  0  0
  -30.1462  -15.6727   21.5035 N   0  0  0  0  0  0  0  0  0  0  0  0
  -21.9765  -23.5117   22.3634 N   0  3  0  0  0  0  0  0  0  0  0  0
  -22.6622  -14.7242   21.3204 O   0  0  0  0  0  0  0  0  0  0  0  0
  -27.3000  -26.4827   16.4748 O   0  0  0  0  0  0  0  0  0  0  0  0
  -24.0839  -27.7288   18.7543 O   0  0  0  0  0  0  0  0  0  0  0  0
  -24.6445  -23.9702   21.5966 O   0  0  0  0  0  0  0  0  0  0  0  0
  -31.8797  -14.9186   20.2062 O   0  0  0  0  0  0  0  0  0  0  0  0
  -21.6112   -7.0217   21.7106 O   0  0  0  0  0  0  0  0  0  0  0  0
  -27.7753  -20.3681   16.7413 O   0  0  0  0  0  0  0  0  0  1  0  0
  -16.4430   -6.8386   19.7974 F   0  0  0  0  0  0  0  0  0  0  0  0
  -20.8301   -5.0657   19.9198 F   0  0  0  0  0  0  0  0  0  0  0  0
  1  2  1  0  0  0  0
  1  5  2  0  0  0  0
  2  6  2  0  0  0  0
  3  8  2  0  0  0  0
  3 17  1  0  0  0  0
  4  9  1  0  0  0  0
  4 17  2  0  0  0  0
  5 19  1  0  0  0  0
  6 21  1  0  0  0  0
  7 10  2  0  0  0  0
  7 20  1  0  0  0  0
  8 23  1  0  0  0  0
  9 23  2  0  0  0  0
 10 24  1  0  0  0  0
 11 12  2  0  0  0  0
 11 25  1  0  0  0  0
 12 26  1  0  0  0  0
 13 22  1  0  0  0  0
 13 24  2  0  0  0  0
 14 26  2  0  0  0  0
 14 27  1  0  0  0  0
 15 16  2  0  0  0  0
 15 63  1  0  0  0  0
 16 65  1  0  0  0  0
 17 28  1  0  0  0  0
 18 28  1  0  0  0  0
 18 29  2  0  0  0  0
 18 31  1  0  0  0  0
 19 21  2  0  0  0  0
 19 36  1  0  0  0  0
 20 22  2  0  0  0  0
 20 37  1  0  0  0  0
 21 45  1  0  0  0  0
 22 38  1  0  0  0  0
 23 79  1  0  0  0  0
 24 80  1  0  0  0  0
 25 27  2  0  0  0  0
 25 79  1  0  0  0  0
 26 81  1  0  0  0  0
 27 82  1  0  0  0  0
 28 62  2  0  0  0  0
 29 64  1  0  0  0  0
 29 68  1  0  0  0  0
 30 54  1  0  0  0  0
 30 63  1  0  0  0  0
 30 65  2  0  0  0  0
 31 69  1  0  0  0  0
 31 74  2  0  0  0  0
 32 46  1  0  0  0  0
 32 70  1  0  0  0  0
 32 75  2  0  0  0  0
 33 58  1  0  0  0  0
 33 66  1  0  0  0  0
 33 76  2  0  0  0  0
 34 59  1  0  0  0  0
 34 71  1  0  0  0  0
 34 77  2  0  0  0  0
 35 67  1  0  0  0  0
 35 72  1  0  0  0  0
 35 78  2  0  0  0  0
 36 39  1  0  0  0  0
 37 46  1  0  0  0  0
 38 66  1  0  0  0  0
 39 41  1  0  0  0  0
 40 42  1  0  0  0  0
 40 43  1  0  0  0  0
 41 45  1  0  0  0  0
 42 47  1  0  0  0  0
 43 67  1  0  0  0  0
 44 47  1  0  0  0  0
 44 67  1  0  0  0  0
 45 70  1  0  0  0  0
 46 66  1  0  0  0  0
 47 64  1  0  0  0  0
 48 59  1  0  0  0  0
 49 60  1  0  0  0  0
 50 61  1  0  0  0  0
 51 61  1  0  0  0  0
 52 61  1  0  0  0  0
 53 73  1  0  0  0  0
 54 57  1  0  0  0  0
 55 56  1  0  0  0  0
 55 60  1  0  0  0  0
 56 63  1  0  0  0  0
 57 72  1  0  0  0  0
 58 61  1  0  0  0  0
 58 71  1  0  0  0  0
 59 73  1  0  0  0  0
 60 80  1  0  0  0  0
 62 64  1  0  0  0  0
M  CHG  2  65   1  73   1
M  ISO  4  35 100  60 101  72 100  80 101
M  END
> <Batch ID>
0122

> <Smiles>
CNC(C)C(=O)NC(C(=O)N1Cc2cc([101O:1][101CH:1](C)CCn3ccnc3CC[100NH:0][100C:0](=O)N3CCCC(n4nc(-c5ccc(Oc6ccc(F)cc6F)cc5)c(C(N)=O)c4N)C3)ccc2CC1C(=O)NC1CCCc2ccccc21)C(C)(C)C

> <Shape>
0.217

> <Color>
0.191

> <Negative vol penalty>
0.000

$$$$

  -OEChem-04052320283D

 76 84  0     1  0  0  0  0  0999 V2000
  -29.0762  -30.3164   20.7834 C   0  0  0  0  0  0  0  0  0  0  0  0
  -29.1879  -28.9397   20.9502 C   0  0  0  0  0  0  0  0  0  0  0  0
  -22.7542  -15.2346   20.3735 C   0  0  0  0  0  0  0  0  0  0  0  0
  -22.4235  -13.4129   18.8214 C   0  0  0  0  0  0  0  0  0  0  0  0
  -27.8196  -30.8979   20.6203 C   0  0  0  0  0  0  0  0  0  0  0  0
  -28.0428  -28.1440   20.9552 C   0  0  0  0  0  0  0  0  0  0  0  0
  -28.5743  -23.9574   18.1561 C   0  0  0  0  0  0  0  0  0  0  0  0
  -21.6284  -15.8775   19.8588 C   0  0  0  0  0  0  0  0  0  0  0  0
  -21.2977  -14.0558   18.3067 C   0  0  0  0  0  0  0  0  0  0  0  0
  -29.2989  -22.9056   18.7150 C   0  0  0  0  0  0  0  0  0  0  0  0
  -18.2689  -15.6384   20.1577 C   0  0  0  0  0  0  0  0  0  0  0  0
  -17.3626  -16.1851   21.0662 C   0  0  0  0  0  0  0  0  0  0  0  0
  -27.2350  -21.8043   19.3036 C   0  0  0  0  0  0  0  0  0  0  0  0
  -17.7233  -18.3738   20.1089 C   0  0  0  0  0  0  0  0  0  0  0  0
  -23.1518  -14.0023   19.8548 C   0  0  0  0  0  0  0  0  0  0  0  0
  -24.3571  -12.4208   21.4528 C   0  0  0  0  0  0  0  0  0  0  0  0
  -26.6593  -30.1078   20.6136 C   0  0  0  0  0  0  0  0  0  0  0  0
  -27.1722  -23.9458   18.1765 C   0  0  0  0  0  0  0  0  0  0  0  0
  -26.7694  -28.7157   20.7932 C   0  0  0  0  0  0  0  0  0  0  0  0
  -26.4949  -22.8560   18.7420 C   0  0  0  0  0  0  0  0  0  0  0  0
  -20.9002  -15.2881   18.8254 C   0  0  0  0  0  0  0  0  0  0  0  0
  -28.6293  -21.8302   19.2914 C   0  0  0  0  0  0  0  0  0  0  0  0
  -18.9025  -16.4594   19.2249 C   0  0  0  0  0  0  0  0  0  0  0  0
  -17.0897  -17.5528   21.0418 C   0  0  0  0  0  0  0  0  0  0  0  0
  -18.6296  -17.8271   19.2005 C   0  0  0  0  0  0  0  0  0  0  0  0
  -24.3150  -13.3380   20.3856 C   0  0  0  0  0  0  0  0  0  0  0  0
  -25.6841  -12.0842   21.5639 C   0  0  0  0  0  0  0  0  0  0  0  0
  -23.2921  -11.9181   22.2704 C   0  0  0  0  0  0  0  0  0  0  0  0
  -24.9321  -25.8009   19.4587 C   0  0  0  0  0  0  0  0  0  0  0  0
  -22.9287  -23.8650   17.7970 C   0  0  0  0  0  0  0  0  0  0  0  0
  -22.3911  -20.8373   16.3168 C   0  0  0  0  0  0  0  0  0  0  0  0
  -30.7236  -14.9096   20.0106 C   0  0  0  0  0  0  0  0  0  0  0  0
  -25.3192  -30.7871   20.4813 C   0  0  0  0  0  0  0  0  0  0  0  0
  -26.4051  -25.0753   17.5456 C   0  0  0  0  0  0  0  0  0  0  0  0
  -24.9906  -22.7858   18.7713 C   0  0  0  0  0  0  0  0  0  0  0  0
  -24.1844  -29.8309   20.1233 C   0  0  0  0  0  0  0  0  0  0  0  0
  -29.6873  -11.6853   19.0069 C   0  0  0  0  0  0  0  0  0  0  0  0
  -24.2423  -28.5825   20.9979 C   0  0  0  0  0  0  0  0  0  0  0  0
  -28.1917  -11.6591   19.3096 C   0  0  0  0  0  0  0  0  0  0  0  0
  -30.7952  -18.4994   20.9086 C   0  0  0  0  0  0  0  0  0  0  0  0
  -30.1119  -13.0561   18.4974 C   0  0  0  0  0  0  0  0  0  0  0  0
  -31.4388  -17.1224   20.8604 C   0  0  0  0  0  0  0  0  0  0  0  0
  -29.2882  -17.0266   19.7995 C   0  0  0  0  0  0  0  0  0  0  0  0
  -28.3045  -14.1594   19.7880 C   0  0  0  0  0  0  0  0  0  0  0  0
  -25.5525  -27.8162   20.7794 C   0  0  1  0  0  0  0  0  0  0  0  0
  -24.9823  -25.2036   18.0808 C   0  0  1  0  0  0  0  0  0  0  0  0
  -29.8226  -18.4571   19.7294 C   0  0  1  0  0  0  0  0  0  0  0  0
  -27.8174  -12.7835   20.2877 C   0  0  1  0  0  0  0  0  0  0  0  0
  -20.6434  -19.5355   15.0725 C   0  0  0  0  0  0  0  0  0  0  0  0
  -21.4364  -23.3730   20.4125 C   0  0  0  0  0  0  0  0  0  0  0  0
  -20.3450  -21.3933   19.3365 C   0  0  0  0  0  0  0  0  0  0  0  0
  -19.9650  -23.6795   18.4136 C   0  0  0  0  0  0  0  0  0  0  0  0
  -24.1099  -20.5984   13.9194 C   0  0  0  0  0  0  0  0  0  0  0  0
  -28.7340  -19.5121   19.8124 C   0  0  0  0  0  0  0  0  0  1  0  0
  -22.2119  -22.5680   18.0851 C   0  0  1  0  0  0  0  0  0  0  0  0
  -21.8393  -20.4671   14.9519 C   0  0  2  0  0  0  0  0  0  0  0  0
  -21.0180  -22.7554   19.0633 C   0  0  0  0  0  0  0  0  0  0  0  0
  -25.5194  -13.5694   19.8567 N   0  0  0  0  0  0  0  0  0  0  0  0
  -26.3309  -12.7928   20.5946 N   0  0  0  0  0  0  0  0  0  0  0  0
  -24.2853  -23.9175   18.1473 N   0  0  0  0  0  0  0  0  0  0  0  0
  -29.7266  -14.1234   19.4225 N   0  0  0  0  0  0  0  0  0  0  0  0
  -30.4230  -16.2417   20.2920 N   0  0  0  0  0  0  0  0  0  0  0  0
  -26.3490  -11.2541   22.3954 N   0  0  0  0  0  0  0  0  0  0  0  0
  -21.9885  -12.3683   22.0208 N   0  0  0  0  0  0  0  0  0  0  0  0
  -25.4959  -27.0593   19.5472 N   0  0  0  0  0  0  0  0  0  0  0  0
  -21.8409  -22.0100   16.7892 N   0  0  0  0  0  0  0  0  0  0  0  0
  -22.8853  -19.7861   14.1377 N   0  3  0  0  0  0  0  0  0  0  0  0
  -23.4927  -11.1065   23.2056 O   0  0  0  0  0  0  0  0  0  0  0  0
  -24.4184  -25.1676   20.3734 O   0  0  0  0  0  0  0  0  0  0  0  0
  -22.3097  -24.7947   17.2735 O   0  0  0  0  0  0  0  0  0  0  0  0
  -23.2239  -20.1525   16.9067 O   0  0  0  0  0  0  0  0  0  0  0  0
  -31.8523  -14.4529   20.2369 O   0  0  0  0  0  0  0  0  0  0  0  0
  -19.8014  -15.9151   18.3231 O   0  0  0  0  0  0  0  0  0  0  0  0
  -29.3400  -20.7941   19.8427 O   0  0  0  0  0  0  0  0  0  1  0  0
  -16.2182  -18.0774   21.9132 F   0  0  0  0  0  0  0  0  0  0  0  0
  -19.2343  -18.6207   18.3058 F   0  0  0  0  0  0  0  0  0  0  0  0
  1  2  1  0  0  0  0
  1  5  2  0  0  0  0
  2  6  2  0  0  0  0
  3  8  2  0  0  0  0
  3 15  1  0  0  0  0
  4  9  1  0  0  0  0
  4 15  2  0  0  0  0
  5 17  1  0  0  0  0
  6 19  1  0  0  0  0
  7 10  2  0  0  0  0
  7 18  1  0  0  0  0
  8 21  1  0  0  0  0
  9 21  2  0  0  0  0
 10 22  1  0  0  0  0
 11 12  2  0  0  0  0
 11 23  1  0  0  0  0
 12 24  1  0  0  0  0
 13 20  1  0  0  0  0
 13 22  2  0  0  0  0
 14 24  2  0  0  0  0
 14 25  1  0  0  0  0
 15 26  1  0  0  0  0
 16 26  1  0  0  0  0
 16 27  2  0  0  0  0
 16 28  1  0  0  0  0
 17 19  2  0  0  0  0
 17 33  1  0  0  0  0
 18 20  2  0  0  0  0
 18 34  1  0  0  0  0
 19 45  1  0  0  0  0
 20 35  1  0  0  0  0
 21 73  1  0  0  0  0
 22 74  1  0  0  0  0
 23 25  2  0  0  0  0
 23 73  1  0  0  0  0
 24 75  1  0  0  0  0
 25 76  1  0  0  0  0
 26 58  2  0  0  0  0
 27 59  1  0  0  0  0
 27 63  1  0  0  0  0
 28 64  1  0  0  0  0
 28 68  2  0  0  0  0
 29 46  1  0  0  0  0
 29 65  1  0  0  0  0
 29 69  2  0  0  0  0
 30 55  1  0  0  0  0
 30 60  1  0  0  0  0
 30 70  2  0  0  0  0
 31 56  1  0  0  0  0
 31 66  1  0  0  0  0
 31 71  2  0  0  0  0
 32 61  1  0  0  0  0
 32 62  1  0  0  0  0
 32 72  2  0  0  0  0
 33 36  1  0  0  0  0
 34 46  1  0  0  0  0
 35 60  1  0  0  0  0
 36 38  1  0  0  0  0
 37 39  1  0  0  0  0
 37 41  1  0  0  0  0
 38 45  1  0  0  0  0
 39 48  1  0  0  0  0
 40 42  1  0  0  0  0
 40 47  1  0  0  0  0
 41 61  1  0  0  0  0
 42 62  1  0  0  0  0
 43 47  1  0  0  0  0
 43 62  1  0  0  0  0
 44 48  1  0  0  0  0
 44 61  1  0  0  0  0
 45 65  1  0  0  0  0
 46 60  1  0  0  0  0
 47 54  1  0  0  0  0
 48 59  1  0  0  0  0
 49 56  1  0  0  0  0
 50 57  1  0  0  0  0
 51 57  1  0  0  0  0
 52 57  1  0  0  0  0
 53 67  1  0  0  0  0
 54 74  1  0  0  0  0
 55 57  1  0  0  0  0
 55 66  1  0  0  0  0
 56 67  1  0  0  0  0
 58 59  1  0  0  0  0
M  CHG  1  67   1
M  ISO  4  32 100  54 101  62 100  74 101
M  END
> <Batch ID>
0122

> <Smiles>
CNC(C)C(=O)NC(C(=O)N1Cc2cc([101O:1][101CH2:1]C3CC[100N:0]([100C:0](=O)N4CCCC(n5nc(-c6ccc(Oc7ccc(F)cc7F)cc6)c(C(N)=O)c5N)C4)C3)ccc2CC1C(=O)NC1CCCc2ccccc21)C(C)(C)C

> <Shape>
0.198

> <Color>
0.105

> <Negative vol penalty>
0.000

$$$$

  -OEChem-04052320283D

 91100  0     1  0  0  0  0  0999 V2000
  -23.4961   -7.9574   25.0753 C   0  0  0  0  0  0  0  0  0  0  0  0
  -24.7058   -8.6287   24.9286 C   0  0  0  0  0  0  0  0  0  0  0  0
  -24.4981  -30.7529   18.9983 C   0  0  0  0  0  0  0  0  0  0  0  0
  -24.0819  -30.2677   21.3282 C   0  0  0  0  0  0  0  0  0  0  0  0
  -22.5811   -7.9342   24.0236 C   0  0  0  0  0  0  0  0  0  0  0  0
  -25.0015   -9.2763   23.7295 C   0  0  0  0  0  0  0  0  0  0  0  0
  -28.4725  -15.0033   21.1860 C   0  0  0  0  0  0  0  0  0  0  0  0
  -23.6476  -31.8557   19.0760 C   0  0  0  0  0  0  0  0  0  0  0  0
  -23.2314  -31.3706   21.4059 C   0  0  0  0  0  0  0  0  0  0  0  0
  -29.4349  -15.3458   20.2372 C   0  0  0  0  0  0  0  0  0  0  0  0
  -23.5249  -34.7248   21.6946 C   0  0  0  0  0  0  0  0  0  0  0  0
  -23.6569  -35.5665   22.7990 C   0  0  0  0  0  0  0  0  0  0  0  0
  -27.7444  -15.3058   18.5168 C   0  0  0  0  0  0  0  0  0  0  0  0
  -21.3665  -35.1120   23.4192 C   0  0  0  0  0  0  0  0  0  0  0  0
  -24.7152  -29.9588   20.1244 C   0  0  0  0  0  0  0  0  0  0  0  0
  -26.9796  -28.7955   20.2876 C   0  0  0  0  0  0  0  0  0  0  0  0
  -22.8616   -8.5899   22.8145 C   0  0  0  0  0  0  0  0  0  0  0  0
  -27.1387  -14.7984   20.8049 C   0  0  0  0  0  0  0  0  0  0  0  0
  -24.0899   -9.2606   22.6602 C   0  0  0  0  0  0  0  0  0  0  0  0
  -26.7665  -14.9633   19.4631 C   0  0  0  0  0  0  0  0  0  0  0  0
  -23.0143  -32.1646   20.2798 C   0  0  0  0  0  0  0  0  0  0  0  0
  -29.0715  -15.4943   18.9019 C   0  0  0  0  0  0  0  0  0  0  0  0
  -22.3137  -34.0767   21.4524 C   0  0  0  0  0  0  0  0  0  0  0  0
  -22.5777  -35.7601   23.6613 C   0  0  0  0  0  0  0  0  0  0  0  0
  -21.2345  -34.2703   22.3147 C   0  0  0  0  0  0  0  0  0  0  0  0
  -25.5932  -28.8191   20.0447 C   0  0  0  0  0  0  0  0  0  0  0  0
  -27.3422  -27.4870   20.0808 C   0  0  0  0  0  0  0  0  0  0  0  0
  -30.2837  -19.4338   22.8461 C   0  0  0  0  0  0  0  0  0  0  0  0
  -30.6078  -20.4153   21.9978 C   0  0  0  0  0  0  0  0  0  0  0  0
  -27.8610  -29.8610   20.6665 C   0  0  0  0  0  0  0  0  0  0  0  0
  -25.1337  -12.3335   20.8936 C   0  0  0  0  0  0  0  0  0  0  0  0
  -22.9875  -14.5432   19.8770 C   0  0  0  0  0  0  0  0  0  0  0  0
  -22.4150  -17.5118   18.2940 C   0  0  0  0  0  0  0  0  0  0  0  0
  -26.4397  -22.0215   20.7585 C   0  0  0  0  0  0  0  0  0  0  0  0
  -21.8616   -8.4971   21.6893 C   0  0  0  0  0  0  0  0  0  0  0  0
  -26.1074  -14.4555   21.8448 C   0  0  0  0  0  0  0  0  0  0  0  0
  -25.3440  -14.7744   19.0057 C   0  0  0  0  0  0  0  0  0  0  0  0
  -31.0669  -18.1637   23.0210 C   0  0  0  0  0  0  0  0  0  0  0  0
  -29.0870  -19.4509   23.7543 C   0  0  0  0  0  0  0  0  0  0  0  0
  -22.0913   -9.5246   20.5840 C   0  0  0  0  0  0  0  0  0  0  0  0
  -30.1249  -17.2898   23.8407 C   0  0  0  0  0  0  0  0  0  0  0  0
  -29.3568  -18.2856   24.6991 C   0  0  0  0  0  0  0  0  0  0  0  0
  -24.7577  -23.6336   18.0662 C   0  0  0  0  0  0  0  0  0  0  0  0
  -23.5657   -9.5701   20.1954 C   0  0  0  0  0  0  0  0  0  0  0  0
  -24.9341  -25.1236   18.3644 C   0  0  0  0  0  0  0  0  0  0  0  0
  -30.3469  -22.7519   22.8241 C   0  0  0  0  0  0  0  0  0  0  0  0
  -24.5689  -22.8206   19.3450 C   0  0  0  0  0  0  0  0  0  0  0  0
  -25.7943  -24.5055   20.6615 C   0  0  0  0  0  0  0  0  0  0  0  0
  -31.7229  -23.2869   22.4512 C   0  0  0  0  0  0  0  0  0  0  0  0
  -31.2729  -22.8164   20.0342 C   0  0  0  0  0  0  0  0  0  0  0  0
  -24.4365   -9.9958   21.3837 C   0  0  1  0  0  0  0  0  0  0  0  0
  -24.8769  -13.7674   21.2619 C   0  0  1  0  0  0  0  0  0  0  0  0
  -29.8844  -22.2585   20.3768 C   0  0  2  0  0  0  0  0  0  0  0  0
  -26.0440  -25.3592   19.4065 C   0  0  2  0  0  0  0  0  0  0  0  0
  -29.8093  -21.6890   21.8323 C   0  0  1  0  0  0  0  0  0  0  0  0
  -21.1188  -19.4853   17.4440 C   0  0  0  0  0  0  0  0  0  0  0  0
  -28.8496  -21.9980   18.0982 C   0  0  0  0  0  0  0  0  0  0  0  0
  -22.3224  -12.6549   17.5744 C   0  0  0  0  0  0  0  0  0  0  0  0
  -21.2114  -14.5746   16.4131 C   0  0  0  0  0  0  0  0  0  0  0  0
  -20.3410  -13.7756   18.6101 C   0  0  0  0  0  0  0  0  0  0  0  0
  -22.7998  -19.0007   20.8227 C   0  0  0  0  0  0  0  0  0  0  0  0
  -28.3465  -21.3769   22.2103 C   0  0  0  0  0  0  0  0  0  0  0  0
  -30.7205  -17.4481   16.3543 C   0  0  0  0  0  0  0  0  0  0  0  0
  -31.2499  -18.4156   17.4021 C   0  0  0  0  0  0  0  0  0  0  0  0
  -30.6062  -20.3270   18.8756 C   0  0  0  0  0  0  0  0  0  0  0  0
  -29.5668  -16.5826   16.8461 C   0  0  0  0  0  0  0  0  0  1  0  0
  -22.5262  -15.0448   18.5300 C   0  0  1  0  0  0  0  0  0  0  0  0
  -21.5605  -18.7076   18.6740 C   0  0  2  0  0  0  0  0  0  0  0  0
  -29.4631  -21.2605   19.2896 C   0  0  1  0  0  0  0  0  0  0  0  0
  -21.6275  -14.0142   17.7899 C   0  0  0  0  0  0  0  0  0  0  0  0
  -25.1080  -27.6208   19.7090 N   0  0  0  0  0  0  0  0  0  0  0  0
  -26.1956  -26.8320   19.7395 N   0  0  0  0  0  0  0  0  0  0  0  0
  -24.3734  -14.4336   20.0590 N   0  0  0  0  0  0  0  0  0  0  0  0
  -25.6552  -23.0886   20.2905 N   0  0  0  0  0  0  0  0  0  0  0  0
  -28.5267  -26.8442   20.1593 N   0  0  0  0  0  0  0  0  0  0  0  0
  -27.3234  -31.1441   20.8368 N   0  0  0  0  0  0  0  0  0  0  0  0
  -24.3529  -11.4266   21.5846 N   0  0  0  0  0  0  0  0  0  0  0  0
  -21.8842  -16.3323   18.7719 N   0  0  0  0  0  0  0  0  0  0  0  0
  -27.4520  -22.3634   21.6467 N   0  0  0  0  0  0  0  0  0  0  0  0
  -31.6776  -23.8195   21.0609 N   0  3  0  0  0  0  0  0  0  0  0  0
  -22.3239  -19.6283   19.5630 N   0  3  0  0  0  0  0  0  0  0  0  0
  -30.1950  -19.3737   17.8081 N   0  3  0  0  0  0  0  0  0  0  0  0
  -29.0917  -29.6840   20.8325 O   0  0  0  0  0  0  0  0  0  0  0  0
  -25.9767  -12.0694   20.0442 O   0  0  0  0  0  0  0  0  0  0  0  0
  -22.1494  -14.2658   20.7386 O   0  0  0  0  0  0  0  0  0  0  0  0
  -23.4478  -17.6135   17.6357 O   0  0  0  0  0  0  0  0  0  0  0  0
  -26.2551  -20.8514   20.4064 O   0  0  0  0  0  0  0  0  0  0  0  0
  -22.1845  -33.2408   20.3560 O   0  0  0  0  0  0  0  0  0  0  0  0
  -30.0090  -15.8280   17.9737 O   0  0  0  0  0  0  0  0  0  1  0  0
  -22.7051  -36.5672   24.7227 F   0  0  0  0  0  0  0  0  0  0  0  0
  -20.0688  -33.6494   22.0879 F   0  0  0  0  0  0  0  0  0  0  0  0
  1  2  1  0  0  0  0
  1  5  2  0  0  0  0
  2  6  2  0  0  0  0
  3  8  2  0  0  0  0
  3 15  1  0  0  0  0
  4  9  1  0  0  0  0
  4 15  2  0  0  0  0
  5 17  1  0  0  0  0
  6 19  1  0  0  0  0
  7 10  2  0  0  0  0
  7 18  1  0  0  0  0
  8 21  1  0  0  0  0
  9 21  2  0  0  0  0
 10 22  1  0  0  0  0
 11 12  2  0  0  0  0
 11 23  1  0  0  0  0
 12 24  1  0  0  0  0
 13 20  1  0  0  0  0
 13 22  2  0  0  0  0
 14 24  2  0  0  0  0
 14 25  1  0  0  0  0
 15 26  1  0  0  0  0
 16 26  1  0  0  0  0
 16 27  2  0  0  0  0
 16 30  1  0  0  0  0
 17 19  2  0  0  0  0
 17 35  1  0  0  0  0
 18 20  2  0  0  0  0
 18 36  1  0  0  0  0
 19 51  1  0  0  0  0
 20 37  1  0  0  0  0
 21 88  1  0  0  0  0
 22 89  1  0  0  0  0
 23 25  2  0  0  0  0
 23 88  1  0  0  0  0
 24 90  1  0  0  0  0
 25 91  1  0  0  0  0
 26 71  2  0  0  0  0
 27 72  1  0  0  0  0
 27 75  1  0  0  0  0
 28 29  2  0  0  0  0
 28 38  1  0  0  0  0
 28 39  1  0  0  0  0
 29 55  1  0  0  0  0
 30 76  1  0  0  0  0
 30 83  2  0  0  0  0
 31 52  1  0  0  0  0
 31 77  1  0  0  0  0
 31 84  2  0  0  0  0
 32 67  1  0  0  0  0
 32 73  1  0  0  0  0
 32 85  2  0  0  0  0
 33 68  1  0  0  0  0
 33 78  1  0  0  0  0
 33 86  2  0  0  0  0
 34 74  1  0  0  0  0
 34 79  1  0  0  0  0
 34 87  2  0  0  0  0
 35 40  1  0  0  0  0
 36 52  1  0  0  0  0
 37 73  1  0  0  0  0
 38 41  1  0  0  0  0
 39 42  1  0  0  0  0
 40 44  1  0  0  0  0
 41 42  1  0  0  0  0
 43 45  1  0  0  0  0
 43 47  1  0  0  0  0
 44 51  1  0  0  0  0
 45 54  1  0  0  0  0
 46 49  1  0  0  0  0
 46 55  1  0  0  0  0
 47 74  1  0  0  0  0
 48 54  1  0  0  0  0
 48 74  1  0  0  0  0
 49 80  1  0  0  0  0
 50 53  1  0  0  0  0
 50 80  1  0  0  0  0
 51 77  1  0  0  0  0
 52 73  1  0  0  0  0
 53 55  1  0  0  0  0
 53 69  1  0  0  0  0
 54 72  1  0  0  0  0
 55 62  1  0  0  0  0
 56 68  1  0  0  0  0
 57 69  1  0  0  0  0
 58 70  1  0  0  0  0
 59 70  1  0  0  0  0
 60 70  1  0  0  0  0
 61 81  1  0  0  0  0
 62 79  1  0  0  0  0
 63 64  1  0  0  0  0
 63 66  1  0  0  0  0
 64 82  1  0  0  0  0
 65 69  1  0  0  0  0
 65 82  1  0  0  0  0
 66 89  1  0  0  0  0
 67 70  1  0  0  0  0
 67 78  1  0  0  0  0
 68 81  1  0  0  0  0
 71 72  1  0  0  0  0
M  CHG  3  80   1  81   1  82   1
M  ISO  4  34 100  66 101  79 100  89 101
M  END
> <Batch ID>
0122

> <Smiles>
CNC(C)C(=O)NC(C(=O)N1Cc2cc([101O:1][101CH2:1]CCNCC(C)C3CNCCC3(C=C3CCCC3)C[100NH:0][100C:0](=O)N3CCCC(n4nc(-c5ccc(Oc6ccc(F)cc6F)cc5)c(C(N)=O)c4N)C3)ccc2CC1C(=O)NC1CCCc2ccccc21)C(C)(C)C

> <Shape>
0.206

> <Color>
0.077

> <Negative vol penalty>
0.000

$$$$

  -OEChem-04052320283D

 87 96  0     1  0  0  0  0  0999 V2000
  -23.8571  -33.3841   14.5619 C   0  0  0  0  0  0  0  0  0  0  0  0
  -24.7998  -32.5640   15.1736 C   0  0  0  0  0  0  0  0  0  0  0  0
  -28.2594  -13.0930   21.1396 C   0  0  0  0  0  0  0  0  0  0  0  0
  -27.6342  -12.9348   18.8113 C   0  0  0  0  0  0  0  0  0  0  0  0
  -23.1984  -34.3623   15.3056 C   0  0  0  0  0  0  0  0  0  0  0  0
  -25.0851  -32.7225   16.5293 C   0  0  0  0  0  0  0  0  0  0  0  0
  -25.3241  -28.3048   18.9935 C   0  0  0  0  0  0  0  0  0  0  0  0
  -27.2902  -22.1133   22.7959 C   0  0  0  0  0  0  0  0  0  0  0  0
  -29.6024  -12.9569   20.7883 C   0  0  0  0  0  0  0  0  0  0  0  0
  -28.9772  -12.7988   18.4599 C   0  0  0  0  0  0  0  0  0  0  0  0
  -26.4894  -27.5542   18.8434 C   0  0  0  0  0  0  0  0  0  0  0  0
  -31.3179  -10.3590   18.4611 C   0  0  0  0  0  0  0  0  0  0  0  0
  -31.6483   -9.3702   17.5345 C   0  0  0  0  0  0  0  0  0  0  0  0
  -28.2790  -22.4993   21.8977 C   0  0  0  0  0  0  0  0  0  0  0  0
  -27.2780  -28.3634   20.9748 C   0  0  0  0  0  0  0  0  0  0  0  0
  -32.5428  -11.0566   16.0537 C   0  0  0  0  0  0  0  0  0  0  0  0
  -25.8789  -23.7973   21.8855 C   0  0  0  0  0  0  0  0  0  0  0  0
  -27.2753  -13.0819   20.1511 C   0  0  0  0  0  0  0  0  0  0  0  0
  -25.1391  -12.3760   21.3535 C   0  0  0  0  0  0  0  0  0  0  0  0
  -23.4687  -34.5264   16.6733 C   0  0  0  0  0  0  0  0  0  0  0  0
  -25.1315  -29.1002   20.1323 C   0  0  0  0  0  0  0  0  0  0  0  0
  -24.4303  -33.7047   17.2917 C   0  0  0  0  0  0  0  0  0  0  0  0
  -26.1082  -29.1212   21.1381 C   0  0  0  0  0  0  0  0  0  0  0  0
  -26.0644  -22.7696   22.7961 C   0  0  0  0  0  0  0  0  0  0  0  0
  -29.9613  -12.8098   19.4484 C   0  0  0  0  0  0  0  0  0  0  0  0
  -27.4678  -27.5857   19.8328 C   0  0  0  0  0  0  0  0  0  0  0  0
  -31.5998  -11.6967   18.1839 C   0  0  0  0  0  0  0  0  0  0  0  0
  -32.2608   -9.7189   16.3308 C   0  0  0  0  0  0  0  0  0  0  0  0
  -32.2122  -12.0455   16.9803 C   0  0  0  0  0  0  0  0  0  0  0  0
  -25.8878  -13.2219   20.5135 C   0  0  0  0  0  0  0  0  0  0  0  0
  -27.9942  -23.5389   21.0272 C   0  0  0  0  0  0  0  0  0  0  0  0
  -23.8857  -12.9372   21.3769 C   0  0  0  0  0  0  0  0  0  0  0  0
  -25.5407  -11.1891   22.0505 C   0  0  0  0  0  0  0  0  0  0  0  0
  -24.7508  -32.2121   20.6566 C   0  0  0  0  0  0  0  0  0  0  0  0
  -24.2201  -31.2370   23.7045 C   0  0  0  0  0  0  0  0  0  0  0  0
  -24.6884  -28.8613   26.1095 C   0  0  0  0  0  0  0  0  0  0  0  0
  -21.8034  -18.3851   20.5637 C   0  0  0  0  0  0  0  0  0  0  0  0
  -22.7658  -35.6288   17.4250 C   0  0  0  0  0  0  0  0  0  0  0  0
  -23.8571  -29.8831   20.2915 C   0  0  0  0  0  0  0  0  0  0  0  0
  -25.9407  -29.9430   22.3891 C   0  0  0  0  0  0  0  0  0  0  0  0
  -22.8532  -35.4834   18.9421 C   0  0  0  0  0  0  0  0  0  0  0  0
  -20.9041  -15.5760   18.7397 C   0  0  0  0  0  0  0  0  0  0  0  0
  -24.2826  -35.1612   19.3660 C   0  0  0  0  0  0  0  0  0  0  0  0
  -22.0032  -14.5634   19.0586 C   0  0  0  0  0  0  0  0  0  0  0  0
  -22.1701  -20.1734   23.6105 C   0  0  0  0  0  0  0  0  0  0  0  0
  -21.4870  -16.9722   18.5561 C   0  0  0  0  0  0  0  0  0  0  0  0
  -23.3754  -16.4541   20.0682 C   0  0  0  0  0  0  0  0  0  0  0  0
  -22.6023  -21.5727   24.0199 C   0  0  0  0  0  0  0  0  0  0  0  0
  -23.9274  -20.7569   22.1325 C   0  0  0  0  0  0  0  0  0  0  0  0
  -24.7492  -33.8294   18.7658 C   0  0  1  0  0  0  0  0  0  0  0  0
  -23.9946  -31.0591   21.2536 C   0  0  1  0  0  0  0  0  0  0  0  0
  -22.8406  -15.0208   20.2658 C   0  0  2  0  0  0  0  0  0  0  0  0
  -22.5686  -20.0848   22.1474 C   0  0  1  0  0  0  0  0  0  0  0  0
  -24.1679  -28.3621   28.5130 C   0  0  0  0  0  0  0  0  0  0  0  0
  -26.3753  -33.2119   24.5790 C   0  0  0  0  0  0  0  0  0  0  0  0
  -26.4807  -32.0167   26.7764 C   0  0  0  0  0  0  0  0  0  0  0  0
  -24.3663  -33.1339   26.0664 C   0  0  0  0  0  0  0  0  0  0  0  0
  -23.6956  -17.9114   22.1762 C   0  0  0  0  0  0  0  0  0  0  0  0
  -23.1635  -26.4277   25.3944 C   0  0  0  0  0  0  0  0  0  0  0  0
  -24.9867  -22.3807   23.7446 C   0  0  0  0  0  0  0  0  0  0  0  0
  -29.0429  -23.9837   20.0392 C   0  0  0  0  0  0  0  0  0  0  0  0
  -29.9634  -25.0840   20.5716 C   0  0  0  0  0  0  0  0  0  0  0  0
  -29.2325  -26.3851   20.8818 C   0  0  0  0  0  0  0  0  0  1  0  0
  -25.0870  -31.0002   24.9175 C   0  0  1  0  0  0  0  0  0  0  0  0
  -23.7194  -28.1952   27.0695 C   0  0  2  0  0  0  0  0  0  0  0  0
  -25.5816  -32.3266   25.5605 C   0  0  0  0  0  0  0  0  0  0  0  0
  -26.8155  -24.2003   20.9979 N   0  0  0  0  0  0  0  0  0  0  0  0
  -25.1699  -14.2427   20.0375 N   0  0  0  0  0  0  0  0  0  0  0  0
  -23.9570  -14.0419   20.5802 N   0  0  0  0  0  0  0  0  0  0  0  0
  -24.6802  -30.6961   22.4956 N   0  0  0  0  0  0  0  0  0  0  0  0
  -22.2803  -17.3720   19.7187 N   0  0  0  0  0  0  0  0  0  0  0  0
  -22.7405  -12.5885   22.0010 N   0  0  0  0  0  0  0  0  0  0  0  0
  -25.4046   -9.9546   21.4011 N   0  0  0  0  0  0  0  0  0  0  0  0
  -24.1853  -32.7182   19.5018 N   0  0  0  0  0  0  0  0  0  0  0  0
  -24.3092  -30.1542   25.8163 N   0  0  0  0  0  0  0  0  0  0  0  0
  -22.6057  -18.7372   21.6595 N   0  0  0  0  0  0  0  0  0  0  0  0
  -23.7311  -21.9312   23.0692 N   0  3  2  0  0  0  0  0  0  0  0  0
  -23.6175  -26.7379   26.7745 N   0  3  0  0  0  0  0  0  0  0  0  0
  -25.9911  -11.2208   23.2208 O   0  0  0  0  0  0  0  0  0  0  0  0
  -25.7710  -32.6138   21.2040 O   0  0  0  0  0  0  0  0  0  0  0  0
  -23.1697  -31.8721   23.8266 O   0  0  0  0  0  0  0  0  0  0  0  0
  -25.6843  -28.2930   25.6670 O   0  0  0  0  0  0  0  0  0  0  0  0
  -20.7236  -18.9503   20.3476 O   0  0  0  0  0  0  0  0  0  0  0  0
  -31.2717  -12.6772   19.1052 O   0  0  0  0  0  0  0  0  0  0  0  0
  -28.6065  -26.8546   19.6885 O   0  0  0  0  0  0  0  0  0  1  0  0
  -32.5795   -8.7691   15.4418 F   0  0  0  0  0  0  0  0  0  0  0  0
  -32.4866  -13.3288   16.7089 F   0  0  0  0  0  0  0  0  0  0  0  0
  1  2  1  0  0  0  0
  1  5  2  0  0  0  0
  2  6  2  0  0  0  0
  3  9  2  0  0  0  0
  3 18  1  0  0  0  0
  4 10  1  0  0  0  0
  4 18  2  0  0  0  0
  5 20  1  0  0  0  0
  6 22  1  0  0  0  0
  7 11  2  0  0  0  0
  7 21  1  0  0  0  0
  8 14  2  0  0  0  0
  8 24  1  0  0  0  0
  9 25  1  0  0  0  0
 10 25  2  0  0  0  0
 11 26  1  0  0  0  0
 12 13  2  0  0  0  0
 12 27  1  0  0  0  0
 13 28  1  0  0  0  0
 14 31  1  0  0  0  0
 15 23  1  0  0  0  0
 15 26  2  0  0  0  0
 16 28  2  0  0  0  0
 16 29  1  0  0  0  0
 17 24  2  0  0  0  0
 17 67  1  0  0  0  0
 18 30  1  0  0  0  0
 19 30  1  0  0  0  0
 19 32  2  0  0  0  0
 19 33  1  0  0  0  0
 20 22  2  0  0  0  0
 20 38  1  0  0  0  0
 21 23  2  0  0  0  0
 21 39  1  0  0  0  0
 22 50  1  0  0  0  0
 23 40  1  0  0  0  0
 24 60  1  0  0  0  0
 25 84  1  0  0  0  0
 26 85  1  0  0  0  0
 27 29  2  0  0  0  0
 27 84  1  0  0  0  0
 28 86  1  0  0  0  0
 29 87  1  0  0  0  0
 30 68  2  0  0  0  0
 31 61  1  0  0  0  0
 31 67  2  0  0  0  0
 32 69  1  0  0  0  0
 32 72  1  0  0  0  0
 33 73  1  0  0  0  0
 33 79  2  0  0  0  0
 34 51  1  0  0  0  0
 34 74  1  0  0  0  0
 34 80  2  0  0  0  0
 35 64  1  0  0  0  0
 35 70  1  0  0  0  0
 35 81  2  0  0  0  0
 36 65  1  0  0  0  0
 36 75  1  0  0  0  0
 36 82  2  0  0  0  0
 37 71  1  0  0  0  0
 37 76  1  0  0  0  0
 37 83  2  0  0  0  0
 38 41  1  0  0  0  0
 39 51  1  0  0  0  0
 40 70  1  0  0  0  0
 41 43  1  0  0  0  0
 42 44  1  0  0  0  0
 42 46  1  0  0  0  0
 43 50  1  0  0  0  0
 44 52  1  0  0  0  0
 45 48  1  0  0  0  0
 45 53  1  0  0  0  0
 46 71  1  0  0  0  0
 47 52  1  0  0  0  0
 47 71  1  0  0  0  0
 48 77  1  0  0  0  0
 49 53  1  0  0  0  0
 49 77  1  0  0  0  0
 50 74  1  0  0  0  0
 51 70  1  0  0  0  0
 52 69  1  0  0  0  0
 53 76  1  0  0  0  0
 54 65  1  0  0  0  0
 55 66  1  0  0  0  0
 56 66  1  0  0  0  0
 57 66  1  0  0  0  0
 58 76  1  0  0  0  0
 59 78  1  0  0  0  0
 60 77  1  0  0  0  0
 61 62  1  0  0  0  0
 62 63  1  0  0  0  0
 63 85  1  0  0  0  0
 64 66  1  0  0  0  0
 64 75  1  0  0  0  0
 65 78  1  0  0  0  0
 68 69  1  0  0  0  0
M  CHG  2  77   1  78   1
M  ISO  4  37 100  63 101  76 100  85 101
M  END
> <Batch ID>
0122

> <Smiles>
CNC(C)C(=O)NC(C(=O)N1Cc2cc([101O:1][101CH2:1]CCc3ccc(CN4CCC([100N:0](C)[100C:0](=O)N5CCCC(n6nc(-c7ccc(Oc8ccc(F)cc8F)cc7)c(C(N)=O)c6N)C5)C4)cn3)ccc2CC1C(=O)NC1CCCc2ccccc21)C(C)(C)C

> <Shape>
0.219

> <Color>
0.112

> <Negative vol penalty>
0.000

$$$$

  -OEChem-04052320283D

 89 97  0     1  0  0  0  0  0999 V2000
  -19.0010  -25.9416   22.0684 C   0  0  0  0  0  0  0  0  0  0  0  0
  -20.2537  -26.1130   21.4880 C   0  0  0  0  0  0  0  0  0  0  0  0
  -24.5389   -9.7870   21.5330 C   0  0  0  0  0  0  0  0  0  0  0  0
  -24.8027  -10.9124   23.6546 C   0  0  0  0  0  0  0  0  0  0  0  0
  -18.5183  -26.8858   22.9735 C   0  0  0  0  0  0  0  0  0  0  0  0
  -21.0240  -27.2293   21.8116 C   0  0  0  0  0  0  0  0  0  0  0  0
  -25.8700  -26.0556   22.6968 C   0  0  0  0  0  0  0  0  0  0  0  0
  -24.2402   -8.5991   22.2003 C   0  0  0  0  0  0  0  0  0  0  0  0
  -24.5039   -9.7244   24.3219 C   0  0  0  0  0  0  0  0  0  0  0  0
  -26.6824  -25.8258   21.5872 C   0  0  0  0  0  0  0  0  0  0  0  0
  -23.0544   -5.3580   23.3423 C   0  0  0  0  0  0  0  0  0  0  0  0
  -21.9735   -4.6081   22.8789 C   0  0  0  0  0  0  0  0  0  0  0  0
  -27.5724  -28.0592   21.7838 C   0  0  0  0  0  0  0  0  0  0  0  0
  -28.9989  -20.5407   18.3831 C   0  0  0  0  0  0  0  0  0  0  0  0
  -20.4972   -6.4727   23.3045 C   0  0  0  0  0  0  0  0  0  0  0  0
  -26.8375  -20.6382   17.7597 C   0  0  0  0  0  0  0  0  0  0  0  0
  -24.8202  -10.9437   22.2602 C   0  0  0  0  0  0  0  0  0  0  0  0
  -24.2227  -13.1650   21.1573 C   0  0  0  0  0  0  0  0  0  0  0  0
  -19.2872  -28.0094   23.3158 C   0  0  0  0  0  0  0  0  0  0  0  0
  -25.8948  -27.2948   23.3526 C   0  0  0  0  0  0  0  0  0  0  0  0
  -20.5506  -28.1902   22.7212 C   0  0  0  0  0  0  0  0  0  0  0  0
  -26.7613  -28.3014   22.9029 C   0  0  0  0  0  0  0  0  0  0  0  0
  -28.1203  -20.8992   17.3312 C   0  0  0  0  0  0  0  0  0  0  0  0
  -24.2227   -8.5678   23.5947 C   0  0  0  0  0  0  0  0  0  0  0  0
  -27.5316  -26.8286   21.1288 C   0  0  0  0  0  0  0  0  0  0  0  0
  -22.8567   -6.6653   23.7870 C   0  0  0  0  0  0  0  0  0  0  0  0
  -20.6949   -5.1654   22.8599 C   0  0  0  0  0  0  0  0  0  0  0  0
  -21.5782   -7.2226   23.7680 C   0  0  0  0  0  0  0  0  0  0  0  0
  -25.1294  -12.1709   21.5716 C   0  0  0  0  0  0  0  0  0  0  0  0
  -28.2263  -20.0715   19.4225 C   0  0  0  0  0  0  0  0  0  0  0  0
  -25.0086  -14.1172   20.5554 C   0  0  0  0  0  0  0  0  0  0  0  0
  -22.7976  -13.2225   21.3035 C   0  0  0  0  0  0  0  0  0  0  0  0
  -23.7632  -29.5902   23.8923 C   0  0  0  0  0  0  0  0  0  0  0  0
  -26.1519  -30.8479   25.6908 C   0  0  0  0  0  0  0  0  0  0  0  0
  -29.4988  -31.0580   26.3242 C   0  0  0  0  0  0  0  0  0  0  0  0
  -29.5925  -17.2992   20.4687 C   0  0  0  0  0  0  0  0  0  0  0  0
  -18.7033  -29.0273   24.2632 C   0  0  0  0  0  0  0  0  0  0  0  0
  -25.0319  -27.5178   24.5643 C   0  0  0  0  0  0  0  0  0  0  0  0
  -26.8404  -29.6424   23.5842 C   0  0  0  0  0  0  0  0  0  0  0  0
  -19.7397  -29.9895   24.8378 C   0  0  0  0  0  0  0  0  0  0  0  0
  -29.8787  -13.9869   19.1947 C   0  0  0  0  0  0  0  0  0  0  0  0
  -20.6491  -30.5169   23.7324 C   0  0  0  0  0  0  0  0  0  0  0  0
  -28.5974  -13.3000   19.6705 C   0  0  0  0  0  0  0  0  0  0  0  0
  -30.4096  -14.9726   20.2332 C   0  0  0  0  0  0  0  0  0  0  0  0
  -28.1505  -15.2912   21.1652 C   0  0  0  0  0  0  0  0  0  0  0  0
  -21.4263  -29.3753   23.0658 C   0  0  1  0  0  0  0  0  0  0  0  0
  -24.7625  -28.9934   24.8426 C   0  0  1  0  0  0  0  0  0  0  0  0
  -27.5462  -14.3291   20.1282 C   0  0  2  0  0  0  0  0  0  0  0  0
  -28.1284  -20.5095   14.8448 C   0  0  0  0  0  0  0  0  0  0  0  0
  -31.1507  -32.1961   27.8320 C   0  0  0  0  0  0  0  0  0  0  0  0
  -23.6080  -20.4987   20.9770 C   0  0  0  0  0  0  0  0  0  0  0  0
  -25.5209  -22.0870   20.8058 C   0  0  0  0  0  0  0  0  0  0  0  0
  -25.0806  -18.5434   19.1534 C   0  0  0  0  0  0  0  0  0  0  0  0
  -25.8184  -33.4315   24.1022 C   0  0  0  0  0  0  0  0  0  0  0  0
  -28.0515  -34.1670   24.9629 C   0  0  0  0  0  0  0  0  0  0  0  0
  -26.1769  -33.7546   26.5561 C   0  0  0  0  0  0  0  0  0  0  0  0
  -30.4543  -28.4787   27.4166 C   0  0  0  0  0  0  0  0  0  0  0  0
  -28.6299  -19.5691   20.7521 C   0  0  0  0  0  0  0  0  0  0  0  0
  -28.4013  -26.1014   17.7023 C   0  0  0  0  0  0  0  0  0  0  0  0
  -27.9356  -25.2137   16.5580 C   0  0  0  0  0  0  0  0  0  0  0  0
  -27.9296  -22.8616   15.7175 C   0  0  0  0  0  0  0  0  0  0  0  0
  -27.8390  -25.6974   19.0596 C   0  0  0  0  0  0  0  0  0  1  0  0
  -28.5194  -21.4689   15.9751 C   0  0  1  0  0  0  0  0  0  0  0  0
  -27.3028  -31.7899   25.4318 C   0  0  1  0  0  0  0  0  0  0  0  0
  -30.2871  -30.9627   27.6180 C   0  0  2  0  0  0  0  0  0  0  0  0
  -24.8006  -20.9222   20.1105 C   0  0  0  0  0  0  0  0  0  0  0  0
  -25.7731  -19.7376   19.8275 C   0  0  2  0  0  0  0  0  0  0  0  0
  -26.8347  -33.2613   25.2490 C   0  0  0  0  0  0  0  0  0  0  0  0
  -26.3945  -12.4644   21.2592 N   0  0  0  0  0  0  0  0  0  0  0  0
  -26.9141  -20.1351   19.0322 N   0  0  0  0  0  0  0  0  0  0  0  0
  -26.2883  -13.6536   20.6421 N   0  0  0  0  0  0  0  0  0  0  0  0
  -25.9724  -29.8141   24.7609 N   0  0  0  0  0  0  0  0  0  0  0  0
  -29.3645  -15.9219   20.6235 N   0  0  0  0  0  0  0  0  0  0  0  0
  -24.7228  -15.2975   19.9657 N   0  0  0  0  0  0  0  0  0  0  0  0
  -22.1486  -12.1599   21.9470 N   0  0  0  0  0  0  0  0  0  0  0  0
  -22.5327  -28.9615   23.9018 N   0  0  0  0  0  0  0  0  0  0  0  0
  -28.2451  -31.5944   26.5283 N   0  0  0  0  0  0  0  0  0  0  0  0
  -28.5480  -18.1293   20.8570 N   0  0  0  0  0  0  0  0  0  0  0  0
  -31.1744  -29.7655   27.5970 N   0  3  0  0  0  0  0  0  0  0  0  0
  -28.3885  -23.8178   16.7628 N   0  3  0  0  0  0  0  0  0  0  0  0
  -22.1180  -14.1798   20.8616 O   0  0  0  0  0  0  0  0  0  0  0  0
  -24.0844  -30.5510   23.2028 O   0  0  0  0  0  0  0  0  0  0  0  0
  -25.4429  -31.0187   26.6857 O   0  0  0  0  0  0  0  0  0  0  0  0
  -29.9515  -30.6965   25.2402 O   0  0  0  0  0  0  0  0  0  0  0  0
  -30.6466  -17.7552   20.0128 O   0  0  0  0  0  0  0  0  0  0  0  0
  -23.9310   -7.4089   24.2461 O   0  0  0  0  0  0  0  0  0  0  0  0
  -28.3251  -26.6071   20.0457 O   0  0  0  0  0  0  0  0  0  1  0  0
  -19.6573   -4.4456   22.4134 F   0  0  0  0  0  0  0  0  0  0  0  0
  -21.3823   -8.4784   24.1928 F   0  0  0  0  0  0  0  0  0  0  0  0
  1  2  1  0  0  0  0
  1  5  2  0  0  0  0
  2  6  2  0  0  0  0
  3  8  2  0  0  0  0
  3 17  1  0  0  0  0
  4  9  1  0  0  0  0
  4 17  2  0  0  0  0
  5 19  1  0  0  0  0
  6 21  1  0  0  0  0
  7 10  2  0  0  0  0
  7 20  1  0  0  0  0
  8 24  1  0  0  0  0
  9 24  2  0  0  0  0
 10 25  1  0  0  0  0
 11 12  2  0  0  0  0
 11 26  1  0  0  0  0
 12 27  1  0  0  0  0
 13 22  1  0  0  0  0
 13 25  2  0  0  0  0
 14 23  1  0  0  0  0
 14 30  2  0  0  0  0
 15 27  2  0  0  0  0
 15 28  1  0  0  0  0
 16 23  2  0  0  0  0
 16 70  1  0  0  0  0
 17 29  1  0  0  0  0
 18 29  1  0  0  0  0
 18 31  2  0  0  0  0
 18 32  1  0  0  0  0
 19 21  2  0  0  0  0
 19 37  1  0  0  0  0
 20 22  2  0  0  0  0
 20 38  1  0  0  0  0
 21 46  1  0  0  0  0
 22 39  1  0  0  0  0
 23 63  1  0  0  0  0
 24 86  1  0  0  0  0
 25 87  1  0  0  0  0
 26 28  2  0  0  0  0
 26 86  1  0  0  0  0
 27 88  1  0  0  0  0
 28 89  1  0  0  0  0
 29 69  2  0  0  0  0
 30 58  1  0  0  0  0
 30 70  1  0  0  0  0
 31 71  1  0  0  0  0
 31 74  1  0  0  0  0
 32 75  1  0  0  0  0
 32 81  2  0  0  0  0
 33 47  1  0  0  0  0
 33 76  1  0  0  0  0
 33 82  2  0  0  0  0
 34 64  1  0  0  0  0
 34 72  1  0  0  0  0
 34 83  2  0  0  0  0
 35 65  1  0  0  0  0
 35 77  1  0  0  0  0
 35 84  2  0  0  0  0
 36 73  1  0  0  0  0
 36 78  1  0  0  0  0
 36 85  2  0  0  0  0
 37 40  1  0  0  0  0
 38 47  1  0  0  0  0
 39 72  1  0  0  0  0
 40 42  1  0  0  0  0
 41 43  1  0  0  0  0
 41 44  1  0  0  0  0
 42 46  1  0  0  0  0
 43 48  1  0  0  0  0
 44 73  1  0  0  0  0
 45 48  1  0  0  0  0
 45 73  1  0  0  0  0
 46 76  1  0  0  0  0
 47 72  1  0  0  0  0
 48 71  1  0  0  0  0
 49 63  1  0  0  0  0
 50 65  1  0  0  0  0
 51 66  1  0  0  0  0
 52 66  1  0  0  0  0
 53 67  1  0  0  0  0
 54 68  1  0  0  0  0
 55 68  1  0  0  0  0
 56 68  1  0  0  0  0
 57 79  1  0  0  0  0
 58 78  1  0  0  0  0
 59 60  1  0  0  0  0
 59 62  1  0  0  0  0
 60 80  1  0  0  0  0
 61 63  1  0  0  0  0
 61 80  1  0  0  0  0
 62 87  1  0  0  0  0
 64 68  1  0  0  0  0
 64 77  1  0  0  0  0
 65 79  1  0  0  0  0
 66 67  1  0  0  0  0
 67 70  1  0  0  0  0
 69 71  1  0  0  0  0
M  CHG  2  79   1  80   1
M  ISO  4  36 100  62 101  78 100  87 101
M  END
> <Batch ID>
0122

> <Smiles>
CNC(C)C(=O)NC(C(=O)N1Cc2cc([101O:1][101CH2:1]CCNCC(C)c3cc(C[100NH:0][100C:0](=O)N4CCCC(n5nc(-c6ccc(Oc7ccc(F)cc7F)cc6)c(C(N)=O)c5N)C4)n(C(C)C(C)C)c3)ccc2CC1C(=O)NC1CCCc2ccccc21)C(C)(C)C

> <Shape>
0.315

> <Color>
0.127

> <Negative vol penalty>
0.000

$$$$

  -OEChem-04052320283D

 87 95  0     1  0  0  0  0  0999 V2000
  -16.4818  -28.9824   23.4396 C   0  0  0  0  0  0  0  0  0  0  0  0
  -17.3551  -28.0020   22.9796 C   0  0  0  0  0  0  0  0  0  0  0  0
  -28.8636  -15.0416   19.9626 C   0  0  0  0  0  0  0  0  0  0  0  0
  -27.1903  -16.7808   20.0748 C   0  0  0  0  0  0  0  0  0  0  0  0
  -16.9735  -30.2320   23.8147 C   0  0  0  0  0  0  0  0  0  0  0  0
  -18.7206  -28.2711   22.8932 C   0  0  0  0  0  0  0  0  0  0  0  0
  -23.3159  -24.3411   23.8653 C   0  0  0  0  0  0  0  0  0  0  0  0
  -27.9596  -14.1360   20.5178 C   0  0  0  0  0  0  0  0  0  0  0  0
  -26.2863  -15.8752   20.6299 C   0  0  0  0  0  0  0  0  0  0  0  0
  -24.1099  -23.5932   22.9971 C   0  0  0  0  0  0  0  0  0  0  0  0
  -23.4222  -13.9320   21.7430 C   0  0  0  0  0  0  0  0  0  0  0  0
  -22.1201  -13.9253   21.2430 C   0  0  0  0  0  0  0  0  0  0  0  0
  -25.8028  -25.3099   23.0761 C   0  0  0  0  0  0  0  0  0  0  0  0
  -22.9664  -13.3804   19.0466 C   0  0  0  0  0  0  0  0  0  0  0  0
  -28.4790  -16.3640   19.7411 C   0  0  0  0  0  0  0  0  0  0  0  0
  -29.6085  -17.5770   17.8019 C   0  0  0  0  0  0  0  0  0  0  0  0
  -18.3469  -30.5133   23.7421 C   0  0  0  0  0  0  0  0  0  0  0  0
  -23.7553  -25.5862   24.3376 C   0  0  0  0  0  0  0  0  0  0  0  0
  -19.2310  -29.5261   23.2664 C   0  0  0  0  0  0  0  0  0  0  0  0
  -25.0135  -26.0705   23.9522 C   0  0  0  0  0  0  0  0  0  0  0  0
  -26.6710  -14.5528   20.8515 C   0  0  0  0  0  0  0  0  0  0  0  0
  -25.3523  -24.0788   22.6001 C   0  0  0  0  0  0  0  0  0  0  0  0
  -24.4964  -13.6630   20.8949 C   0  0  0  0  0  0  0  0  0  0  0  0
  -21.8922  -13.6494   19.8948 C   0  0  0  0  0  0  0  0  0  0  0  0
  -24.2685  -13.3872   19.5467 C   0  0  0  0  0  0  0  0  0  0  0  0
  -29.4126  -17.3001   19.1682 C   0  0  0  0  0  0  0  0  0  0  0  0
  -30.5970  -18.5304   17.7830 C   0  0  0  0  0  0  0  0  0  0  0  0
  -28.9553  -17.0220   16.6525 C   0  0  0  0  0  0  0  0  0  0  0  0
  -22.7049  -28.5763   24.0928 C   0  0  0  0  0  0  0  0  0  0  0  0
  -25.1179  -29.1817   26.1744 C   0  0  0  0  0  0  0  0  0  0  0  0
  -28.1274  -28.2352   27.4758 C   0  0  0  0  0  0  0  0  0  0  0  0
  -32.4183  -22.5951   21.7846 C   0  0  0  0  0  0  0  0  0  0  0  0
  -18.8257  -31.8943   24.1138 C   0  0  0  0  0  0  0  0  0  0  0  0
  -22.8985  -26.3686   25.2947 C   0  0  0  0  0  0  0  0  0  0  0  0
  -25.5401  -27.3921   24.4469 C   0  0  0  0  0  0  0  0  0  0  0  0
  -20.3322  -31.9745   24.3469 C   0  0  0  0  0  0  0  0  0  0  0  0
  -34.3896  -20.0418   20.2775 C   0  0  0  0  0  0  0  0  0  0  0  0
  -21.0842  -31.2609   23.2278 C   0  0  0  0  0  0  0  0  0  0  0  0
  -26.7549  -25.9054   18.0925 C   0  0  0  0  0  0  0  0  0  0  0  0
  -33.3553  -19.0746   19.6990 C   0  0  0  0  0  0  0  0  0  0  0  0
  -27.9872  -25.9045   18.9979 C   0  0  0  0  0  0  0  0  0  0  0  0
  -27.0715  -23.4242   17.6660 C   0  0  0  0  0  0  0  0  0  0  0  0
  -33.9252  -20.6372   21.6048 C   0  0  0  0  0  0  0  0  0  0  0  0
  -31.5620  -20.3086   20.9874 C   0  0  0  0  0  0  0  0  0  0  0  0
  -20.7219  -29.7716   23.1820 C   0  0  1  0  0  0  0  0  0  0  0  0
  -23.2239  -27.8590   25.3068 C   0  0  1  0  0  0  0  0  0  0  0  0
  -26.0718  -24.5305   18.0507 C   0  0  2  0  0  0  0  0  0  0  0  0
  -31.9611  -19.7253   19.6211 C   0  0  2  0  0  0  0  0  0  0  0  0
  -28.9601  -24.8037   18.5789 C   0  0  2  0  0  0  0  0  0  0  0  0
  -28.3061  -23.4189   18.5743 C   0  0  1  0  0  0  0  0  0  0  0  0
  -24.8904  -24.5468   17.0817 C   0  0  0  0  0  0  0  0  0  0  0  0
  -29.8691  -28.9511   29.1345 C   0  0  0  0  0  0  0  0  0  0  0  0
  -30.4344  -24.6370   23.3722 C   0  0  0  0  0  0  0  0  0  0  0  0
  -26.1066  -31.3032   24.2170 C   0  0  0  0  0  0  0  0  0  0  0  0
  -28.2976  -31.3001   25.4286 C   0  0  0  0  0  0  0  0  0  0  0  0
  -26.2142  -31.9735   26.6239 C   0  0  0  0  0  0  0  0  0  0  0  0
  -27.7707  -25.7777   29.0859 C   0  0  0  0  0  0  0  0  0  0  0  0
  -31.1609  -25.8350   19.1207 C   0  0  0  0  0  0  0  0  0  0  0  0
  -27.3130  -21.2766   21.4106 C   0  0  0  0  0  0  0  0  0  0  0  0
  -29.7064  -24.9730   20.9488 C   0  0  0  0  0  0  0  0  0  0  0  0
  -25.9999  -21.9311   21.8102 C   0  0  0  0  0  0  0  0  0  1  0  0
  -27.7196  -21.6376   19.9905 C   0  0  0  0  0  0  0  0  0  0  0  0
  -26.5785  -29.5400   26.0431 C   0  0  1  0  0  0  0  0  0  0  0  0
  -28.6143  -28.1221   28.9092 C   0  0  2  0  0  0  0  0  0  0  0  0
  -30.7905  -24.4649   21.8987 C   0  0  2  0  0  0  0  0  0  0  0  0
  -26.7888  -31.0052   25.5671 C   0  0  0  0  0  0  0  0  0  0  0  0
  -30.2125  -18.0194   19.9599 N   0  0  0  0  0  0  0  0  0  0  0  0
  -30.9207  -18.7576   19.0883 N   0  0  0  0  0  0  0  0  0  0  0  0
  -24.6626  -28.1228   25.3761 N   0  0  0  0  0  0  0  0  0  0  0  0
  -32.5976  -21.2397   21.4623 N   0  0  0  0  0  0  0  0  0  0  0  0
  -31.2122  -19.1882   16.7774 N   0  0  0  0  0  0  0  0  0  0  0  0
  -27.9625  -16.0529   16.8513 N   0  0  0  0  0  0  0  0  0  0  0  0
  -21.4141  -29.0505   24.2285 N   0  0  0  0  0  0  0  0  0  0  0  0
  -27.1907  -29.2368   27.3321 N   0  0  0  0  0  0  0  0  0  0  0  0
  -31.1304  -23.0884   21.6151 N   0  0  0  0  0  0  0  0  0  0  0  0
  -28.9231  -26.7024   29.2408 N   0  3  0  0  0  0  0  0  0  0  0  0
  -30.1213  -24.8140   19.5080 N   0  3  1  0  0  0  0  0  0  0  0  0
  -29.2550  -17.3630   15.4832 O   0  0  0  0  0  0  0  0  0  0  0  0
  -23.4229  -28.6922   23.1065 O   0  0  0  0  0  0  0  0  0  0  0  0
  -24.4087  -29.8132   26.9618 O   0  0  0  0  0  0  0  0  0  0  0  0
  -28.5398  -27.5103   26.5731 O   0  0  0  0  0  0  0  0  0  0  0  0
  -33.3390  -23.3137   22.1881 O   0  0  0  0  0  0  0  0  0  0  0  0
  -25.7885  -13.6693   21.3930 O   0  0  0  0  0  0  0  0  0  0  0  0
  -26.1291  -23.3511   21.7522 O   0  0  0  0  0  0  0  0  0  1  0  0
  -27.8824  -23.0449   19.8783 O   0  0  0  0  0  0  0  0  0  0  0  0
  -20.6416  -13.6415   19.4151 F   0  0  0  0  0  0  0  0  0  0  0  0
  -25.2964  -13.1268   18.7273 F   0  0  0  0  0  0  0  0  0  0  0  0
  1  2  1  0  0  0  0
  1  5  2  0  0  0  0
  2  6  2  0  0  0  0
  3  8  2  0  0  0  0
  3 15  1  0  0  0  0
  4  9  1  0  0  0  0
  4 15  2  0  0  0  0
  5 17  1  0  0  0  0
  6 19  1  0  0  0  0
  7 10  2  0  0  0  0
  7 18  1  0  0  0  0
  8 21  1  0  0  0  0
  9 21  2  0  0  0  0
 10 22  1  0  0  0  0
 11 12  2  0  0  0  0
 11 23  1  0  0  0  0
 12 24  1  0  0  0  0
 13 20  1  0  0  0  0
 13 22  2  0  0  0  0
 14 24  2  0  0  0  0
 14 25  1  0  0  0  0
 15 26  1  0  0  0  0
 16 26  1  0  0  0  0
 16 27  2  0  0  0  0
 16 28  1  0  0  0  0
 17 19  2  0  0  0  0
 17 33  1  0  0  0  0
 18 20  2  0  0  0  0
 18 34  1  0  0  0  0
 19 45  1  0  0  0  0
 20 35  1  0  0  0  0
 21 83  1  0  0  0  0
 22 84  1  0  0  0  0
 23 25  2  0  0  0  0
 23 83  1  0  0  0  0
 24 86  1  0  0  0  0
 25 87  1  0  0  0  0
 26 67  2  0  0  0  0
 27 68  1  0  0  0  0
 27 71  1  0  0  0  0
 28 72  1  0  0  0  0
 28 78  2  0  0  0  0
 29 46  1  0  0  0  0
 29 73  1  0  0  0  0
 29 79  2  0  0  0  0
 30 63  1  0  0  0  0
 30 69  1  0  0  0  0
 30 80  2  0  0  0  0
 31 64  1  0  0  0  0
 31 74  1  0  0  0  0
 31 81  2  0  0  0  0
 32 70  1  0  0  0  0
 32 75  1  0  0  0  0
 32 82  2  0  0  0  0
 33 36  1  0  0  0  0
 34 46  1  0  0  0  0
 35 69  1  0  0  0  0
 36 38  1  0  0  0  0
 37 40  1  0  0  0  0
 37 43  1  0  0  0  0
 38 45  1  0  0  0  0
 39 41  1  0  0  0  0
 39 47  1  0  0  0  0
 40 48  1  0  0  0  0
 41 49  1  0  0  0  0
 42 47  1  0  0  0  0
 42 50  1  0  0  0  0
 43 70  1  0  0  0  0
 44 48  1  0  0  0  0
 44 70  1  0  0  0  0
 45 73  1  0  0  0  0
 46 69  1  0  0  0  0
 47 51  1  0  0  0  0
 48 68  1  0  0  0  0
 49 50  1  0  0  0  0
 49 77  1  0  0  0  0
 50 85  1  0  0  0  0
 52 64  1  0  0  0  0
 53 65  1  0  0  0  0
 54 66  1  0  0  0  0
 55 66  1  0  0  0  0
 56 66  1  0  0  0  0
 57 76  1  0  0  0  0
 58 77  1  0  0  0  0
 59 61  1  0  0  0  0
 59 62  1  0  0  0  0
 60 65  1  0  0  0  0
 60 77  1  0  0  0  0
 61 84  1  0  0  0  0
 62 85  1  0  0  0  0
 63 66  1  0  0  0  0
 63 74  1  0  0  0  0
 64 76  1  0  0  0  0
 65 75  1  0  0  0  0
 67 68  1  0  0  0  0
M  CHG  2  76   1  77   1
M  ISO  4  32 100  61 101  75 100  84 101
M  END
> <Batch ID>
0122

> <Smiles>
CNC(C)C(=O)NC(C(=O)N1Cc2cc([101O:1][101CH2:1]CCOC3CC(C)CCC3N(C)CC(C)[100NH:0][100C:0](=O)N3CCCC(n4nc(-c5ccc(Oc6ccc(F)cc6F)cc5)c(C(N)=O)c4N)C3)ccc2CC1C(=O)NC1CCCc2ccccc21)C(C)(C)C

> <Shape>
0.198

> <Color>
0.074

> <Negative vol penalty>
0.000

$$$$

  -OEChem-04052320283D

 83 91  0     1  0  0  0  0  0999 V2000
  -21.6714  -34.1310   26.9312 C   0  0  0  0  0  0  0  0  0  0  0  0
  -21.4473  -33.2353   25.8906 C   0  0  0  0  0  0  0  0  0  0  0  0
  -30.3633  -12.8232   18.5321 C   0  0  0  0  0  0  0  0  0  0  0  0
  -30.7721  -13.0081   20.9060 C   0  0  0  0  0  0  0  0  0  0  0  0
  -22.8727  -34.8358   26.9962 C   0  0  0  0  0  0  0  0  0  0  0  0
  -22.4239  -33.0446   24.9137 C   0  0  0  0  0  0  0  0  0  0  0  0
  -23.1498  -28.1535   23.8209 C   0  0  0  0  0  0  0  0  0  0  0  0
  -31.4883  -12.0090   18.4017 C   0  0  0  0  0  0  0  0  0  0  0  0
  -31.8971  -12.1938   20.7757 C   0  0  0  0  0  0  0  0  0  0  0  0
  -22.2114  -27.5401   22.9921 C   0  0  0  0  0  0  0  0  0  0  0  0
  -32.5595   -8.8946   20.4651 C   0  0  0  0  0  0  0  0  0  0  0  0
  -32.7334   -7.8770   21.4031 C   0  0  0  0  0  0  0  0  0  0  0  0
  -23.7067  -27.7996   21.1170 C   0  0  0  0  0  0  0  0  0  0  0  0
  -34.8429   -8.8497   22.0671 C   0  0  0  0  0  0  0  0  0  0  0  0
  -22.7927  -21.7016   22.5411 C   0  0  0  0  0  0  0  0  0  0  0  0
  -30.0052  -13.3228   19.7842 C   0  0  0  0  0  0  0  0  0  0  0  0
  -27.5221  -13.7541   20.1792 C   0  0  0  0  0  0  0  0  0  0  0  0
  -23.8684  -34.6465   26.0250 C   0  0  0  0  0  0  0  0  0  0  0  0
  -24.3713  -28.6050   23.3009 C   0  0  0  0  0  0  0  0  0  0  0  0
  -23.6390  -33.7486   24.9651 C   0  0  0  0  0  0  0  0  0  0  0  0
  -24.6600  -28.4160   21.9418 C   0  0  0  0  0  0  0  0  0  0  0  0
  -21.7772  -22.1580   21.7301 C   0  0  0  0  0  0  0  0  0  0  0  0
  -22.3181  -23.1767   20.9075 C   0  0  0  0  0  0  0  0  0  0  0  0
  -32.2552  -11.6943   19.5235 C   0  0  0  0  0  0  0  0  0  0  0  0
  -22.4885  -27.3657   21.6394 C   0  0  0  0  0  0  0  0  0  0  0  0
  -33.5274   -9.8896   20.3279 C   0  0  0  0  0  0  0  0  0  0  0  0
  -33.8750   -7.8546   22.2042 C   0  0  0  0  0  0  0  0  0  0  0  0
  -34.6690   -9.8672   21.1290 C   0  0  0  0  0  0  0  0  0  0  0  0
  -28.8435  -14.1644   19.9195 C   0  0  0  0  0  0  0  0  0  0  0  0
  -23.6479  -23.3117   21.2407 C   0  0  0  0  0  0  0  0  0  0  0  0
  -26.8004  -14.9222   20.2134 C   0  0  0  0  0  0  0  0  0  0  0  0
  -26.9943  -12.4351   20.3724 C   0  0  0  0  0  0  0  0  0  0  0  0
  -25.7907  -31.4377   23.0459 C   0  0  0  0  0  0  0  0  0  0  0  0
  -28.2772  -29.6586   21.9621 C   0  0  0  0  0  0  0  0  0  0  0  0
  -29.3527  -26.7617   20.5136 C   0  0  0  0  0  0  0  0  0  0  0  0
  -26.2955  -20.0802   22.1068 C   0  0  0  0  0  0  0  0  0  0  0  0
  -25.1316  -35.4661   26.1111 C   0  0  0  0  0  0  0  0  0  0  0  0
  -25.3841  -29.2406   24.2134 C   0  0  0  0  0  0  0  0  0  0  0  0
  -25.9650  -28.8647   21.3384 C   0  0  0  0  0  0  0  0  0  0  0  0
  -26.2668  -34.9284   25.2436 C   0  0  0  0  0  0  0  0  0  0  0  0
  -28.0449  -19.6189   18.8801 C   0  0  0  0  0  0  0  0  0  0  0  0
  -25.7568  -34.5906   23.8463 C   0  0  0  0  0  0  0  0  0  0  0  0
  -28.3499  -18.1250   18.9244 C   0  0  0  0  0  0  0  0  0  0  0  0
  -28.0778  -20.2537   20.2697 C   0  0  0  0  0  0  0  0  0  0  0  0
  -27.4954  -18.0725   21.2985 C   0  0  0  0  0  0  0  0  0  0  0  0
  -24.6842  -33.4960   23.9001 C   0  0  1  0  0  0  0  0  0  0  0  0
  -26.3832  -30.1249   23.4737 C   0  0  1  0  0  0  0  0  0  0  0  0
  -27.4165  -17.4120   19.9139 C   0  0  2  0  0  0  0  0  0  0  0  0
  -20.3843  -21.6681   21.7281 C   0  0  0  0  0  0  0  0  0  0  0  0
  -24.6795  -24.2212   20.6987 C   0  0  0  0  0  0  0  0  0  0  0  0
  -31.4371  -25.6122   19.7191 C   0  0  0  0  0  0  0  0  0  0  0  0
  -28.3247  -31.4546   19.4959 C   0  0  0  0  0  0  0  0  0  0  0  0
  -29.7294  -29.7272   18.3509 C   0  0  0  0  0  0  0  0  0  0  0  0
  -30.5804  -30.8655   20.4010 C   0  0  0  0  0  0  0  0  0  0  0  0
  -28.9775  -24.5194   22.4084 C   0  0  0  0  0  0  0  0  0  0  0  0
  -20.3507  -24.7306   20.3917 C   0  0  0  0  0  0  0  0  0  0  0  0
  -20.7151  -25.7959   21.4229 C   0  0  0  0  0  0  0  0  0  1  0  0
  -25.2603  -22.2130   22.8997 C   0  0  0  0  0  0  0  0  0  0  0  0
  -21.5748  -23.9714   19.8563 C   0  0  2  0  0  0  0  0  0  0  0  0
  -28.7256  -29.1601   20.6096 C   0  0  1  0  0  0  0  0  0  0  0  0
  -30.4755  -25.8083   20.8809 C   0  0  2  0  0  0  0  0  0  0  0  0
  -29.3145  -30.2950   19.7250 C   0  0  0  0  0  0  0  0  0  0  0  0
  -28.9573  -15.4896   19.7971 N   0  0  0  0  0  0  0  0  0  0  0  0
  -23.9253  -22.4098   22.2346 N   0  0  0  0  0  0  0  0  0  0  0  0
  -27.6983  -15.9221   19.9807 N   0  0  0  0  0  0  0  0  0  0  0  0
  -26.9202  -29.4864   22.2703 N   0  0  0  0  0  0  0  0  0  0  0  0
  -27.2369  -19.5158   21.2257 N   0  0  0  0  0  0  0  0  0  0  0  0
  -25.4916  -15.1812   20.4193 N   0  0  0  0  0  0  0  0  0  0  0  0
  -27.8747  -11.3467   20.3048 N   0  0  0  0  0  0  0  0  0  0  0  0
  -25.2956  -32.1979   24.0882 N   0  0  0  0  0  0  0  0  0  0  0  0
  -29.6505  -28.0612   20.8657 N   0  0  0  0  0  0  0  0  0  0  0  0
  -26.1765  -21.4645   22.0536 N   0  0  0  0  0  0  0  0  0  0  0  0
  -21.1111  -23.1009   18.7271 N   0  3  0  0  0  0  0  0  0  0  0  0
  -29.9218  -24.4784   21.2623 N   0  3  0  0  0  0  0  0  0  0  0  0
  -25.7753  -12.2266   20.5820 O   0  0  0  0  0  0  0  0  0  0  0  0
  -25.7845  -31.7394   21.8581 O   0  0  0  0  0  0  0  0  0  0  0  0
  -29.1019  -30.1751   22.7201 O   0  0  0  0  0  0  0  0  0  0  0  0
  -28.3168  -26.3913   19.9657 O   0  0  0  0  0  0  0  0  0  0  0  0
  -25.6201  -19.4001   22.8865 O   0  0  0  0  0  0  0  0  0  0  0  0
  -33.3529  -10.8996   19.3967 O   0  0  0  0  0  0  0  0  0  0  0  0
  -21.5740  -26.7679   20.8281 O   0  0  0  0  0  0  0  0  0  1  0  0
  -34.0411   -6.8782   23.1060 F   0  0  0  0  0  0  0  0  0  0  0  0
  -35.6018  -10.8211   21.0027 F   0  0  0  0  0  0  0  0  0  0  0  0
  1  2  1  0  0  0  0
  1  5  2  0  0  0  0
  2  6  2  0  0  0  0
  3  8  2  0  0  0  0
  3 16  1  0  0  0  0
  4  9  1  0  0  0  0
  4 16  2  0  0  0  0
  5 18  1  0  0  0  0
  6 20  1  0  0  0  0
  7 10  2  0  0  0  0
  7 19  1  0  0  0  0
  8 24  1  0  0  0  0
  9 24  2  0  0  0  0
 10 25  1  0  0  0  0
 11 12  2  0  0  0  0
 11 26  1  0  0  0  0
 12 27  1  0  0  0  0
 13 21  1  0  0  0  0
 13 25  2  0  0  0  0
 14 27  2  0  0  0  0
 14 28  1  0  0  0  0
 15 22  2  0  0  0  0
 15 64  1  0  0  0  0
 16 29  1  0  0  0  0
 17 29  1  0  0  0  0
 17 31  2  0  0  0  0
 17 32  1  0  0  0  0
 18 20  2  0  0  0  0
 18 37  1  0  0  0  0
 19 21  2  0  0  0  0
 19 38  1  0  0  0  0
 20 46  1  0  0  0  0
 21 39  1  0  0  0  0
 22 23  1  0  0  0  0
 22 49  1  0  0  0  0
 23 30  2  0  0  0  0
 23 59  1  0  0  0  0
 24 80  1  0  0  0  0
 25 81  1  0  0  0  0
 26 28  2  0  0  0  0
 26 80  1  0  0  0  0
 27 82  1  0  0  0  0
 28 83  1  0  0  0  0
 29 63  2  0  0  0  0
 30 50  1  0  0  0  0
 30 64  1  0  0  0  0
 31 65  1  0  0  0  0
 31 68  1  0  0  0  0
 32 69  1  0  0  0  0
 32 75  2  0  0  0  0
 33 47  1  0  0  0  0
 33 70  1  0  0  0  0
 33 76  2  0  0  0  0
 34 60  1  0  0  0  0
 34 66  1  0  0  0  0
 34 77  2  0  0  0  0
 35 61  1  0  0  0  0
 35 71  1  0  0  0  0
 35 78  2  0  0  0  0
 36 67  1  0  0  0  0
 36 72  1  0  0  0  0
 36 79  2  0  0  0  0
 37 40  1  0  0  0  0
 38 47  1  0  0  0  0
 39 66  1  0  0  0  0
 40 42  1  0  0  0  0
 41 43  1  0  0  0  0
 41 44  1  0  0  0  0
 42 46  1  0  0  0  0
 43 48  1  0  0  0  0
 44 67  1  0  0  0  0
 45 48  1  0  0  0  0
 45 67  1  0  0  0  0
 46 70  1  0  0  0  0
 47 66  1  0  0  0  0
 48 65  1  0  0  0  0
 51 61  1  0  0  0  0
 52 62  1  0  0  0  0
 53 62  1  0  0  0  0
 54 62  1  0  0  0  0
 55 74  1  0  0  0  0
 56 57  1  0  0  0  0
 56 59  1  0  0  0  0
 57 81  1  0  0  0  0
 58 64  1  0  0  0  0
 58 72  1  0  0  0  0
 59 73  1  0  0  0  0
 60 62  1  0  0  0  0
 60 71  1  0  0  0  0
 61 74  1  0  0  0  0
 63 65  1  0  0  0  0
M  CHG  2  73   1  74   1
M  ISO  4  36 100  57 101  72 100  81 101
M  END
> <Batch ID>
0122

> <Smiles>
CNC(C)C(=O)NC(C(=O)N1Cc2cc([101O:1][101CH2:1]CC(N)c3c(C)cn(C[100NH:0][100C:0](=O)N4CCCC(n5nc(-c6ccc(Oc7ccc(F)cc7F)cc6)c(C(N)=O)c5N)C4)c3C)ccc2CC1C(=O)NC1CCCc2ccccc21)C(C)(C)C

> <Shape>
0.209

> <Color>
0.070

> <Negative vol penalty>
0.000

$$$$

  -OEChem-04052320283D

 88 98  0     1  0  0  0  0  0999 V2000
  -22.4226  -30.6653   13.6941 C   0  0  0  0  0  0  0  0  0  0  0  0
  -23.4062  -29.9757   14.3958 C   0  0  0  0  0  0  0  0  0  0  0  0
  -24.7719  -13.3931   23.9860 C   0  0  0  0  0  0  0  0  0  0  0  0
  -23.8916  -15.3511   22.8776 C   0  0  0  0  0  0  0  0  0  0  0  0
  -22.1473  -31.9957   14.0076 C   0  0  0  0  0  0  0  0  0  0  0  0
  -24.1159  -30.6165   15.4107 C   0  0  0  0  0  0  0  0  0  0  0  0
  -24.5921  -27.7486   19.5572 C   0  0  0  0  0  0  0  0  0  0  0  0
  -24.3639  -13.9066   25.2170 C   0  0  0  0  0  0  0  0  0  0  0  0
  -23.4836  -15.8645   24.1087 C   0  0  0  0  0  0  0  0  0  0  0  0
  -25.5566  -26.7423   19.5281 C   0  0  0  0  0  0  0  0  0  0  0  0
  -20.9357  -15.3977   26.2792 C   0  0  0  0  0  0  0  0  0  0  0  0
  -19.6551  -15.9448   26.3591 C   0  0  0  0  0  0  0  0  0  0  0  0
  -27.0585  -28.1536   20.7817 C   0  0  0  0  0  0  0  0  0  0  0  0
  -29.6632  -23.9568   18.7691 C   0  0  0  0  0  0  0  0  0  0  0  0
  -28.4376  -22.7067   20.4182 C   0  0  0  0  0  0  0  0  0  0  0  0
  -20.6040  -18.0721   27.0006 C   0  0  0  0  0  0  0  0  0  0  0  0
  -24.5358  -14.1154   22.8162 C   0  0  0  0  0  0  0  0  0  0  0  0
  -24.2146  -12.7616   20.6781 C   0  0  0  0  0  0  0  0  0  0  0  0
  -22.8473  -32.6501   15.0335 C   0  0  0  0  0  0  0  0  0  0  0  0
  -24.8580  -28.9712   20.1905 C   0  0  0  0  0  0  0  0  0  0  0  0
  -23.8506  -31.9572   15.7374 C   0  0  0  0  0  0  0  0  0  0  0  0
  -26.0948  -29.1729   20.8197 C   0  0  0  0  0  0  0  0  0  0  0  0
  -28.5218  -23.7849   19.5442 C   0  0  0  0  0  0  0  0  0  0  0  0
  -23.7197  -15.1422   25.2784 C   0  0  0  0  0  0  0  0  0  0  0  0
  -26.7910  -26.9457   20.1378 C   0  0  0  0  0  0  0  0  0  0  0  0
  -22.0505  -16.1878   26.5600 C   0  0  0  0  0  0  0  0  0  0  0  0
  -19.4893  -17.2820   26.7198 C   0  0  0  0  0  0  0  0  0  0  0  0
  -21.8846  -17.5250   26.9207 C   0  0  0  0  0  0  0  0  0  0  0  0
  -24.9576  -13.5858   21.5443 C   0  0  0  0  0  0  0  0  0  0  0  0
  -30.6844  -23.0301   18.9039 C   0  0  0  0  0  0  0  0  0  0  0  0
  -29.5136  -21.8358   20.4790 C   0  0  0  0  0  0  0  0  0  0  0  0
  -25.0534  -12.5374   19.6139 C   0  0  0  0  0  0  0  0  0  0  0  0
  -22.8849  -12.2450   20.8225 C   0  0  0  0  0  0  0  0  0  0  0  0
  -25.0261  -31.9998   19.2402 C   0  0  0  0  0  0  0  0  0  0  0  0
  -25.3606  -32.5702   22.4159 C   0  0  0  0  0  0  0  0  0  0  0  0
  -26.2734  -31.4005   25.4892 C   0  0  0  0  0  0  0  0  0  0  0  0
  -29.2533  -15.7623   21.1650 C   0  0  0  0  0  0  0  0  0  0  0  0
  -22.5473  -34.1031   15.3046 C   0  0  0  0  0  0  0  0  0  0  0  0
  -23.7973  -30.0366   20.2363 C   0  0  0  0  0  0  0  0  0  0  0  0
  -26.4224  -30.4598   21.5304 C   0  0  0  0  0  0  0  0  0  0  0  0
  -23.0851  -34.5962   16.6454 C   0  0  0  0  0  0  0  0  0  0  0  0
  -29.2664  -12.2521   20.5000 C   0  0  0  0  0  0  0  0  0  0  0  0
  -24.5275  -34.1406   16.8422 C   0  0  0  0  0  0  0  0  0  0  0  0
  -28.3068  -17.5884   24.9492 C   0  0  0  0  0  0  0  0  0  0  0  0
  -26.8646  -17.1818   24.8282 C   0  0  0  0  0  0  0  0  0  0  0  0
  -28.3776  -12.0836   19.2727 C   0  0  0  0  0  0  0  0  0  0  0  0
  -29.6660  -18.9698   19.5283 C   0  0  0  0  0  0  0  0  0  0  0  0
  -30.0545  -13.5501   20.4171 C   0  0  0  0  0  0  0  0  0  0  0  0
  -29.1909  -17.5363   19.3431 C   0  0  0  0  0  0  0  0  0  0  0  0
  -28.2283  -14.6343   19.1229 C   0  0  0  0  0  0  0  0  0  0  0  0
  -24.6249  -32.6103   16.8617 C   0  0  1  0  0  0  0  0  0  0  0  0
  -24.3640  -31.4345   20.4648 C   0  0  1  0  0  0  0  0  0  0  0  0
  -27.7666  -17.1190   23.6269 C   0  0  0  0  0  0  0  0  0  0  0  0
  -28.8575  -19.4302   20.7414 C   0  0  1  0  0  0  0  0  0  0  0  0
  -27.4606  -13.2948   19.0386 C   0  0  2  0  0  0  0  0  0  0  0  0
  -28.8493  -18.1802   21.6393 C   0  0  1  0  0  0  0  0  0  0  0  0
  -31.9250  -23.1838   18.0891 C   0  0  0  0  0  0  0  0  0  0  0  0
  -26.4725  -32.1107   27.8878 C   0  0  0  0  0  0  0  0  0  0  0  0
  -27.8963  -34.1277   21.7417 C   0  0  0  0  0  0  0  0  0  0  0  0
  -28.5402  -33.9890   24.1571 C   0  0  0  0  0  0  0  0  0  0  0  0
  -26.4558  -35.1863   23.4905 C   0  0  0  0  0  0  0  0  0  0  0  0
  -24.3281  -29.3545   26.3774 C   0  0  0  0  0  0  0  0  0  0  0  0
  -27.3929  -24.7535   19.4395 C   0  0  0  0  0  0  0  0  0  1  0  0
  -29.4560  -20.6557   21.4135 C   0  0  0  0  0  0  0  0  0  0  0  0
  -27.5860  -18.0943   22.4897 C   0  0  0  0  0  0  0  0  0  0  0  0
  -26.5282  -32.6621   23.3684 C   0  0  1  0  0  0  0  0  0  0  0  0
  -25.5806  -31.4658   26.8383 C   0  0  2  0  0  0  0  0  0  0  0  0
  -27.3500  -33.9676   23.1744 C   0  0  0  0  0  0  0  0  0  0  0  0
  -26.1749  -13.8661   21.0715 N   0  0  0  0  0  0  0  0  0  0  0  0
  -30.6389  -21.9702   19.7419 N   0  0  0  0  0  0  0  0  0  0  0  0
  -26.2033  -13.2143   19.8965 N   0  0  0  0  0  0  0  0  0  0  0  0
  -25.3548  -31.4735   21.5423 N   0  0  0  0  0  0  0  0  0  0  0  0
  -29.1810  -14.7101   20.2399 N   0  0  0  0  0  0  0  0  0  0  0  0
  -28.9685  -17.0508   20.7061 N   0  0  0  0  0  0  0  0  0  0  0  0
  -24.9123  -11.8291   18.4733 N   0  0  0  0  0  0  0  0  0  0  0  0
  -22.1624  -12.5732   21.9777 N   0  0  0  0  0  0  0  0  0  0  0  0
  -24.1924  -32.0927   18.1421 N   0  0  0  0  0  0  0  0  0  0  0  0
  -25.9756  -32.4973   24.7085 N   0  0  0  0  0  0  0  0  0  0  0  0
  -25.2223  -30.0961   27.3035 N   0  3  0  0  0  0  0  0  0  0  0  0
  -22.3594  -11.5005   19.9604 O   0  0  0  0  0  0  0  0  0  0  0  0
  -26.2056  -32.3287   19.2883 O   0  0  0  0  0  0  0  0  0  0  0  0
  -24.4823  -33.4356   22.4506 O   0  0  0  0  0  0  0  0  0  0  0  0
  -27.0083  -30.4713   25.1621 O   0  0  0  0  0  0  0  0  0  0  0  0
  -29.5667  -15.5613   22.3458 O   0  0  0  0  0  0  0  0  0  0  0  0
  -23.3212  -15.6434   26.4795 O   0  0  0  0  0  0  0  0  0  0  0  0
  -27.7409  -25.9586   20.1101 O   0  0  0  0  0  0  0  0  0  1  0  0
  -18.2595  -17.8076   26.7950 F   0  0  0  0  0  0  0  0  0  0  0  0
  -22.9518  -18.2893   27.1905 F   0  0  0  0  0  0  0  0  0  0  0  0
  1  2  1  0  0  0  0
  1  5  2  0  0  0  0
  2  6  2  0  0  0  0
  3  8  2  0  0  0  0
  3 17  1  0  0  0  0
  4  9  1  0  0  0  0
  4 17  2  0  0  0  0
  5 19  1  0  0  0  0
  6 21  1  0  0  0  0
  7 10  2  0  0  0  0
  7 20  1  0  0  0  0
  8 24  1  0  0  0  0
  9 24  2  0  0  0  0
 10 25  1  0  0  0  0
 11 12  2  0  0  0  0
 11 26  1  0  0  0  0
 12 27  1  0  0  0  0
 13 22  1  0  0  0  0
 13 25  2  0  0  0  0
 14 23  1  0  0  0  0
 14 30  2  0  0  0  0
 15 23  2  0  0  0  0
 15 31  1  0  0  0  0
 16 27  2  0  0  0  0
 16 28  1  0  0  0  0
 17 29  1  0  0  0  0
 18 29  1  0  0  0  0
 18 32  2  0  0  0  0
 18 33  1  0  0  0  0
 19 21  2  0  0  0  0
 19 38  1  0  0  0  0
 20 22  2  0  0  0  0
 20 39  1  0  0  0  0
 21 51  1  0  0  0  0
 22 40  1  0  0  0  0
 23 63  1  0  0  0  0
 24 85  1  0  0  0  0
 25 86  1  0  0  0  0
 26 28  2  0  0  0  0
 26 85  1  0  0  0  0
 27 87  1  0  0  0  0
 28 88  1  0  0  0  0
 29 69  2  0  0  0  0
 30 57  1  0  0  0  0
 30 70  1  0  0  0  0
 31 64  1  0  0  0  0
 31 70  2  0  0  0  0
 32 71  1  0  0  0  0
 32 75  1  0  0  0  0
 33 76  1  0  0  0  0
 33 80  2  0  0  0  0
 34 52  1  0  0  0  0
 34 77  1  0  0  0  0
 34 81  2  0  0  0  0
 35 66  1  0  0  0  0
 35 72  1  0  0  0  0
 35 82  2  0  0  0  0
 36 67  1  0  0  0  0
 36 78  1  0  0  0  0
 36 83  2  0  0  0  0
 37 73  1  0  0  0  0
 37 74  1  0  0  0  0
 37 84  2  0  0  0  0
 38 41  1  0  0  0  0
 39 52  1  0  0  0  0
 40 72  1  0  0  0  0
 41 43  1  0  0  0  0
 42 46  1  0  0  0  0
 42 48  1  0  0  0  0
 43 51  1  0  0  0  0
 44 45  1  0  0  0  0
 44 53  1  0  0  0  0
 45 53  1  0  0  0  0
 46 55  1  0  0  0  0
 47 49  1  0  0  0  0
 47 54  1  0  0  0  0
 48 73  1  0  0  0  0
 49 74  1  0  0  0  0
 50 55  1  0  0  0  0
 50 73  1  0  0  0  0
 51 77  1  0  0  0  0
 52 72  1  0  0  0  0
 53 65  1  0  0  0  0
 54 56  1  0  0  0  0
 54 64  1  0  0  0  0
 55 71  1  0  0  0  0
 56 65  1  0  0  0  0
 56 74  1  0  0  0  0
 58 67  1  0  0  0  0
 59 68  1  0  0  0  0
 60 68  1  0  0  0  0
 61 68  1  0  0  0  0
 62 79  1  0  0  0  0
 63 86  1  0  0  0  0
 66 68  1  0  0  0  0
 66 78  1  0  0  0  0
 67 79  1  0  0  0  0
 69 71  1  0  0  0  0
M  CHG  1  79   1
M  ISO  4  37 100  63 101  74 100  86 101
M  END
> <Batch ID>
0122

> <Smiles>
CNC(C)C(=O)NC(C(=O)N1Cc2cc([101O:1][101CH2:1]c3cc(C)nc(CC4CC[100N:0]([100C:0](=O)N5CCCC(n6nc(-c7ccc(Oc8ccc(F)cc8F)cc7)c(C(N)=O)c6N)C5)C4CC4CC4)c3)ccc2CC1C(=O)NC1CCCc2ccccc21)C(C)(C)C

> <Shape>
0.277

> <Color>
0.089

> <Negative vol penalty>
0.000

$$$$
