
  -OEChem-04052320303D

 85 93  0     1  0  0  0  0  0999 V2000
  -27.4301  -24.5329   16.6187 C   0  0  0  0  0  0  0  0  0  0  0  0
  -26.2522  -24.8590   17.2832 C   0  0  0  0  0  0  0  0  0  0  0  0
  -26.7931  -13.2933   19.5695 C   0  0  0  0  0  0  0  0  0  0  0  0
  -24.5520  -13.9100   20.2285 C   0  0  0  0  0  0  0  0  0  0  0  0
  -28.6614  -24.8736   17.1771 C   0  0  0  0  0  0  0  0  0  0  0  0
  -26.3049  -25.5251   18.5071 C   0  0  0  0  0  0  0  0  0  0  0  0
  -22.9732  -29.3280   18.7943 C   0  0  0  0  0  0  0  0  0  0  0  0
  -21.4740  -22.6725   21.8349 C   0  0  0  0  0  0  0  0  0  0  0  0
  -26.6774  -12.1040   20.2890 C   0  0  0  0  0  0  0  0  0  0  0  0
  -24.4363  -12.7207   20.9480 C   0  0  0  0  0  0  0  0  0  0  0  0
  -21.6431  -28.9919   19.0428 C   0  0  0  0  0  0  0  0  0  0  0  0
  -23.4178   -9.6808   22.6627 C   0  0  0  0  0  0  0  0  0  0  0  0
  -22.2357   -8.9527   22.5277 C   0  0  0  0  0  0  0  0  0  0  0  0
  -22.4954  -21.8063   21.4610 C   0  0  0  0  0  0  0  0  0  0  0  0
  -21.9386  -29.5658   21.3671 C   0  0  0  0  0  0  0  0  0  0  0  0
  -22.6423   -8.7322   20.1564 C   0  0  0  0  0  0  0  0  0  0  0  0
  -25.7304  -14.1964   19.5392 C   0  0  0  0  0  0  0  0  0  0  0  0
  -25.5113  -15.6392   17.4469 C   0  0  0  0  0  0  0  0  0  0  0  0
  -28.7290  -25.5528   18.4038 C   0  0  0  0  0  0  0  0  0  0  0  0
  -23.8003  -29.7760   19.8343 C   0  0  0  0  0  0  0  0  0  0  0  0
  -27.5383  -25.8741   19.0831 C   0  0  0  0  0  0  0  0  0  0  0  0
  -23.2780  -29.9094   21.1287 C   0  0  0  0  0  0  0  0  0  0  0  0
  -21.7619  -24.0086   22.0907 C   0  0  0  0  0  0  0  0  0  0  0  0
  -25.4990  -11.8176   20.9782 C   0  0  0  0  0  0  0  0  0  0  0  0
  -21.1264  -29.1080   20.3299 C   0  0  0  0  0  0  0  0  0  0  0  0
  -24.2121   -9.9347   21.5445 C   0  0  0  0  0  0  0  0  0  0  0  0
  -21.8480   -8.4784   21.2746 C   0  0  0  0  0  0  0  0  0  0  0  0
  -23.8244   -9.4604   20.2914 C   0  0  0  0  0  0  0  0  0  0  0  0
  -25.8495  -15.4254   18.7966 C   0  0  0  0  0  0  0  0  0  0  0  0
  -23.0767  -24.4254   21.9594 C   0  0  0  0  0  0  0  0  0  0  0  0
  -23.7774  -22.3217   21.3578 C   0  0  0  0  0  0  0  0  0  0  0  0
  -25.8086  -16.9615   17.2238 C   0  0  0  0  0  0  0  0  0  0  0  0
  -24.9761  -14.7245   16.4813 C   0  0  0  0  0  0  0  0  0  0  0  0
  -26.4711  -28.7142   21.1920 C   0  0  0  0  0  0  0  0  0  0  0  0
  -26.3163  -31.5322   22.7912 C   0  0  0  0  0  0  0  0  0  0  0  0
  -24.3983  -34.1128   23.9349 C   0  0  0  0  0  0  0  0  0  0  0  0
  -26.1636  -21.7273   20.8107 C   0  0  0  0  0  0  0  0  0  0  0  0
  -30.0843  -25.8582   18.9907 C   0  0  0  0  0  0  0  0  0  0  0  0
  -25.2255  -30.1600   19.5446 C   0  0  0  0  0  0  0  0  0  0  0  0
  -24.1188  -30.4049   22.2759 C   0  0  0  0  0  0  0  0  0  0  0  0
  -30.0437  -26.8956   20.1099 C   0  0  0  0  0  0  0  0  0  0  0  0
  -28.7390  -20.4438   18.7138 C   0  0  0  0  0  0  0  0  0  0  0  0
  -28.9215  -26.5769   21.0927 C   0  0  0  0  0  0  0  0  0  0  0  0
  -28.2566  -19.0329   18.3693 C   0  0  0  0  0  0  0  0  0  0  0  0
  -28.3843  -20.8300   20.1487 C   0  0  0  0  0  0  0  0  0  0  0  0
  -26.4854  -19.2604   20.1576 C   0  0  0  0  0  0  0  0  0  0  0  0
  -27.5537  -26.6184   20.4006 C   0  0  1  0  0  0  0  0  0  0  0  0
  -26.1192  -30.1157   20.7801 C   0  0  1  0  0  0  0  0  0  0  0  0
  -26.7626  -18.8513   18.7018 C   0  0  2  0  0  0  0  0  0  0  0  0
  -23.4436  -25.8492   22.2230 C   0  0  0  0  0  0  0  0  0  0  0  0
  -24.5478  -36.2499   25.2418 C   0  0  0  0  0  0  0  0  0  0  0  0
  -17.0404  -28.0251   20.9474 C   0  0  0  0  0  0  0  0  0  0  0  0
  -17.5830  -25.3700   22.4098 C   0  0  0  0  0  0  0  0  0  0  0  0
  -26.5295  -29.9313   25.3799 C   0  0  0  0  0  0  0  0  0  0  0  0
  -25.7298  -31.9562   26.6162 C   0  0  0  0  0  0  0  0  0  0  0  0
  -27.8737  -32.0399   25.3436 C   0  0  0  0  0  0  0  0  0  0  0  0
  -23.4454  -35.7192   21.6391 C   0  0  0  0  0  0  0  0  0  0  0  0
  -20.6648  -24.9484   22.4960 C   0  0  0  0  0  0  0  0  0  0  0  0
  -19.2490  -27.7657   19.7556 C   0  0  0  0  0  0  0  0  0  1  0  0
  -25.6838  -31.9961   24.0810 C   0  0  1  0  0  0  0  0  0  0  0  0
  -24.5853  -35.6174   23.8592 C   0  0  2  0  0  0  0  0  0  0  0  0
  -18.1435  -27.0374   20.5356 C   0  0  1  0  0  0  0  0  0  0  0  0
  -18.6551  -26.2304   21.7503 C   0  0  2  0  0  0  0  0  0  0  0  0
  -26.4387  -31.4697   25.3342 C   0  0  0  0  0  0  0  0  0  0  0  0
  -26.3255  -16.5237   19.3892 N   0  0  0  0  0  0  0  0  0  0  0  0
  -24.0956  -23.6135   21.5983 N   0  0  0  0  0  0  0  0  0  0  0  0
  -26.2885  -17.4404   18.4072 N   0  0  0  0  0  0  0  0  0  0  0  0
  -25.5079  -30.7618   21.9434 N   0  0  0  0  0  0  0  0  0  0  0  0
  -26.9527  -20.6362   20.3895 N   0  0  0  0  0  0  0  0  0  0  0  0
  -25.7038  -17.7495   16.1327 N   0  0  0  0  0  0  0  0  0  0  0  0
  -24.7297  -13.4029   16.8776 N   0  0  0  0  0  0  0  0  0  0  0  0
  -24.8110  -21.4308   20.9761 N   0  0  0  0  0  0  0  0  0  0  0  0
  -27.1229  -27.9873   20.2141 N   0  0  0  0  0  0  0  0  0  0  0  0
  -25.6060  -33.4506   23.9975 N   0  0  0  0  0  0  0  0  0  0  0  0
  -23.5090  -36.2322   23.0319 N   0  3  0  0  0  0  0  0  0  0  0  0
  -19.7850  -25.3386   21.3643 N   0  3  0  0  0  0  0  0  0  0  0  0
  -24.7391  -15.0647   15.2973 O   0  0  0  0  0  0  0  0  0  0  0  0
  -26.1746  -28.3218   22.3144 O   0  0  0  0  0  0  0  0  0  0  0  0
  -27.4824  -31.8479   22.5417 O   0  0  0  0  0  0  0  0  0  0  0  0
  -23.2914  -33.5787   23.9417 O   0  0  0  0  0  0  0  0  0  0  0  0
  -26.6468  -22.8492   20.9836 O   0  0  0  0  0  0  0  0  0  0  0  0
  -25.3857  -10.6571   21.6802 O   0  0  0  0  0  0  0  0  0  0  0  0
  -19.8287  -28.7799   20.5753 O   0  0  0  0  0  0  0  0  0  1  0  0
  -20.7137   -7.7778   21.1454 F   0  0  0  0  0  0  0  0  0  0  0  0
  -24.5839   -9.7001   19.2137 F   0  0  0  0  0  0  0  0  0  0  0  0
  1  2  1  0  0  0  0
  1  5  2  0  0  0  0
  2  6  2  0  0  0  0
  3  9  2  0  0  0  0
  3 17  1  0  0  0  0
  4 10  1  0  0  0  0
  4 17  2  0  0  0  0
  5 19  1  0  0  0  0
  6 21  1  0  0  0  0
  7 11  2  0  0  0  0
  7 20  1  0  0  0  0
  8 14  2  0  0  0  0
  8 23  1  0  0  0  0
  9 24  1  0  0  0  0
 10 24  2  0  0  0  0
 11 25  1  0  0  0  0
 12 13  2  0  0  0  0
 12 26  1  0  0  0  0
 13 27  1  0  0  0  0
 14 31  1  0  0  0  0
 15 22  1  0  0  0  0
 15 25  2  0  0  0  0
 16 27  2  0  0  0  0
 16 28  1  0  0  0  0
 17 29  1  0  0  0  0
 18 29  1  0  0  0  0
 18 32  2  0  0  0  0
 18 33  1  0  0  0  0
 19 21  2  0  0  0  0
 19 38  1  0  0  0  0
 20 22  2  0  0  0  0
 20 39  1  0  0  0  0
 21 47  1  0  0  0  0
 22 40  1  0  0  0  0
 23 30  2  0  0  0  0
 23 58  1  0  0  0  0
 24 82  1  0  0  0  0
 25 83  1  0  0  0  0
 26 28  2  0  0  0  0
 26 82  1  0  0  0  0
 27 84  1  0  0  0  0
 28 85  1  0  0  0  0
 29 65  2  0  0  0  0
 30 50  1  0  0  0  0
 30 66  1  0  0  0  0
 31 66  2  0  0  0  0
 31 72  1  0  0  0  0
 32 67  1  0  0  0  0
 32 70  1  0  0  0  0
 33 71  1  0  0  0  0
 33 77  2  0  0  0  0
 34 48  1  0  0  0  0
 34 73  1  0  0  0  0
 34 78  2  0  0  0  0
 35 60  1  0  0  0  0
 35 68  1  0  0  0  0
 35 79  2  0  0  0  0
 36 61  1  0  0  0  0
 36 74  1  0  0  0  0
 36 80  2  0  0  0  0
 37 69  1  0  0  0  0
 37 72  1  0  0  0  0
 37 81  2  0  0  0  0
 38 41  1  0  0  0  0
 39 48  1  0  0  0  0
 40 68  1  0  0  0  0
 41 43  1  0  0  0  0
 42 44  1  0  0  0  0
 42 45  1  0  0  0  0
 43 47  1  0  0  0  0
 44 49  1  0  0  0  0
 45 69  1  0  0  0  0
 46 49  1  0  0  0  0
 46 69  1  0  0  0  0
 47 73  1  0  0  0  0
 48 68  1  0  0  0  0
 49 67  1  0  0  0  0
 51 61  1  0  0  0  0
 52 62  1  0  0  0  0
 53 63  1  0  0  0  0
 54 64  1  0  0  0  0
 55 64  1  0  0  0  0
 56 64  1  0  0  0  0
 57 75  1  0  0  0  0
 58 76  1  0  0  0  0
 59 62  1  0  0  0  0
 59 83  1  0  0  0  0
 60 64  1  0  0  0  0
 60 74  1  0  0  0  0
 61 75  1  0  0  0  0
 62 63  1  0  0  0  0
 63 76  1  0  0  0  0
 65 67  1  0  0  0  0
M  CHG  2  75   1  76   1
M  ISO  4  37 100  59 101  72 100  83 101
M  END
> <Batch ID>
0123

> <Smiles>
CNC(C)C(=O)NC(C(=O)N1Cc2cc([101O:1][101CH2:1]C(C)C(C)NCc3ccc([100NH:0][100C:0](=O)N4CCCC(n5nc(-c6ccc(Oc7ccc(F)cc7F)cc6)c(C(N)=O)c5N)C4)nc3C)ccc2CC1C(=O)NC1CCCc2ccccc21)C(C)(C)C

> <Shape>
0.305

> <Color>
0.084

> <Negative vol penalty>
0.000

$$$$

  -OEChem-04052320303D

 90 99  0     1  0  0  0  0  0999 V2000
  -16.7377  -31.0593   20.3130 C   0  0  0  0  0  0  0  0  0  0  0  0
  -18.0218  -31.5881   20.2295 C   0  0  0  0  0  0  0  0  0  0  0  0
  -25.8069  -12.5265   21.5471 C   0  0  0  0  0  0  0  0  0  0  0  0
  -24.2694  -13.6147   20.0342 C   0  0  0  0  0  0  0  0  0  0  0  0
  -16.4133  -30.1789   21.3443 C   0  0  0  0  0  0  0  0  0  0  0  0
  -18.9820  -31.2375   21.1780 C   0  0  0  0  0  0  0  0  0  0  0  0
  -25.1661  -28.1092   19.2128 C   0  0  0  0  0  0  0  0  0  0  0  0
  -25.5659  -11.3068   20.9147 C   0  0  0  0  0  0  0  0  0  0  0  0
  -24.0285  -12.3950   19.4017 C   0  0  0  0  0  0  0  0  0  0  0  0
  -26.4619  -27.7003   18.8968 C   0  0  0  0  0  0  0  0  0  0  0  0
  -23.1667   -8.9262   20.9274 C   0  0  0  0  0  0  0  0  0  0  0  0
  -22.9530   -7.8093   21.7352 C   0  0  0  0  0  0  0  0  0  0  0  0
  -27.0016  -27.5561   21.2496 C   0  0  0  0  0  0  0  0  0  0  0  0
  -31.4440  -25.7120   20.3950 C   0  0  0  0  0  0  0  0  0  0  0  0
  -31.9012  -23.4931   21.2137 C   0  0  0  0  0  0  0  0  0  0  0  0
  -24.8669   -6.7225   20.7386 C   0  0  0  0  0  0  0  0  0  0  0  0
  -25.1585  -13.6805   21.1069 C   0  0  0  0  0  0  0  0  0  0  0  0
  -25.1791  -15.2560   23.1131 C   0  0  0  0  0  0  0  0  0  0  0  0
  -17.3728  -29.8098   22.3002 C   0  0  0  0  0  0  0  0  0  0  0  0
  -24.7780  -28.2283   20.5502 C   0  0  0  0  0  0  0  0  0  0  0  0
  -18.6698  -30.3523   22.2237 C   0  0  0  0  0  0  0  0  0  0  0  0
  -25.7012  -27.9531   21.5723 C   0  0  0  0  0  0  0  0  0  0  0  0
  -31.9654  -24.8737   21.3757 C   0  0  0  0  0  0  0  0  0  0  0  0
  -24.6768  -11.2411   19.8420 C   0  0  0  0  0  0  0  0  0  0  0  0
  -27.3774  -27.4247   19.9127 C   0  0  0  0  0  0  0  0  0  0  0  0
  -24.2304   -8.9412   20.0252 C   0  0  0  0  0  0  0  0  0  0  0  0
  -23.8031   -6.7074   21.6408 C   0  0  0  0  0  0  0  0  0  0  0  0
  -25.0805   -7.8394   19.9308 C   0  0  0  0  0  0  0  0  0  0  0  0
  -25.4065  -14.9406   21.7601 C   0  0  0  0  0  0  0  0  0  0  0  0
  -30.8669  -25.1441   19.2681 C   0  0  0  0  0  0  0  0  0  0  0  0
  -31.3124  -22.9813   20.0662 C   0  0  0  0  0  0  0  0  0  0  0  0
  -25.5737  -16.5663   23.2312 C   0  0  0  0  0  0  0  0  0  0  0  0
  -24.6579  -14.4378   24.1688 C   0  0  0  0  0  0  0  0  0  0  0  0
  -22.0450  -29.0551   22.9839 C   0  0  0  0  0  0  0  0  0  0  0  0
  -23.5330  -26.6197   24.1086 C   0  0  0  0  0  0  0  0  0  0  0  0
  -25.1630  -23.7011   24.7885 C   0  0  0  0  0  0  0  0  0  0  0  0
  -29.4527  -19.7971   20.1701 C   0  0  0  0  0  0  0  0  0  0  0  0
  -16.9620  -28.8916   23.4240 C   0  0  0  0  0  0  0  0  0  0  0  0
  -23.4113  -28.7248   20.9367 C   0  0  0  0  0  0  0  0  0  0  0  0
  -25.2499  -28.1283   22.9966 C   0  0  0  0  0  0  0  0  0  0  0  0
  -18.1429  -28.2787   24.1724 C   0  0  0  0  0  0  0  0  0  0  0  0
  -25.9632  -20.6035   20.6902 C   0  0  0  0  0  0  0  0  0  0  0  0
  -19.1810  -29.3476   24.4986 C   0  0  0  0  0  0  0  0  0  0  0  0
  -25.4061  -19.2571   21.1559 C   0  0  0  0  0  0  0  0  0  0  0  0
  -34.2488  -26.8761   23.5605 C   0  0  0  0  0  0  0  0  0  0  0  0
  -32.9953  -25.2004   24.9394 C   0  0  0  0  0  0  0  0  0  0  0  0
  -27.0252  -20.4186   19.6103 C   0  0  0  0  0  0  0  0  0  0  0  0
  -33.2150  -26.7265   22.4437 C   0  0  0  0  0  0  0  0  0  0  0  0
  -31.9624  -25.0608   23.8217 C   0  0  0  0  0  0  0  0  0  0  0  0
  -27.5982  -18.1801   20.4671 C   0  0  0  0  0  0  0  0  0  0  0  0
  -19.7459  -29.9767   23.2193 C   0  0  1  0  0  0  0  0  0  0  0  0
  -22.8685  -28.0632   22.2162 C   0  0  1  0  0  0  0  0  0  0  0  0
  -26.5359  -18.2979   21.5751 C   0  0  2  0  0  0  0  0  0  0  0  0
  -33.6271  -26.5878   24.9220 C   0  0  0  0  0  0  0  0  0  0  0  0
  -31.9345  -21.0680   18.5450 C   0  0  0  0  0  0  0  0  0  0  0  0
  -25.6886  -21.5466   25.9630 C   0  0  0  0  0  0  0  0  0  0  0  0
  -25.0451  -28.4534   26.0204 C   0  0  0  0  0  0  0  0  0  0  0  0
  -25.9187  -26.4111   27.1756 C   0  0  0  0  0  0  0  0  0  0  0  0
  -23.4658  -26.8630   27.1299 C   0  0  0  0  0  0  0  0  0  0  0  0
  -23.2712  -22.1814   23.0942 C   0  0  0  0  0  0  0  0  0  0  0  0
  -35.4050  -27.9755   25.9697 C   0  0  0  0  0  0  0  0  0  0  0  0
  -34.1685  -26.2974   27.3320 C   0  0  0  0  0  0  0  0  0  0  0  0
  -30.2788  -25.9832   18.1597 C   0  0  0  0  0  0  0  0  0  0  0  0
  -28.8016  -26.2875   18.3843 C   0  0  0  0  0  0  0  0  0  1  0  0
  -31.2033  -21.5205   19.8201 C   0  0  2  0  0  0  0  0  0  0  0  0
  -24.6276  -26.1130   25.0134 C   0  0  1  0  0  0  0  0  0  0  0  0
  -24.6485  -22.3257   25.1729 C   0  0  2  0  0  0  0  0  0  0  0  0
  -24.7686  -26.9640   26.3070 C   0  0  0  0  0  0  0  0  0  0  0  0
  -25.9067  -15.9678   21.0682 N   0  0  0  0  0  0  0  0  0  0  0  0
  -25.9967  -16.9415   21.9901 N   0  0  0  0  0  0  0  0  0  0  0  0
  -30.8182  -23.8114   19.1375 N   0  3  0  0  0  0  0  0  0  0  0  0
  -32.5542  -25.4179   22.5236 N   0  0  0  0  0  0  0  0  0  0  0  0
  -23.8916  -27.5883   23.1632 N   0  0  0  0  0  0  0  0  0  0  0  0
  -28.0806  -19.5098   20.0794 N   0  0  0  0  0  0  0  0  0  0  0  0
  -25.5966  -17.4226   24.2746 N   0  0  0  0  0  0  0  0  0  0  0  0
  -23.2728  -14.4254   24.3827 N   0  0  0  0  0  0  0  0  0  0  0  0
  -20.7160  -29.0940   22.6076 N   0  0  0  0  0  0  0  0  0  0  0  0
  -24.3384  -24.7034   25.2540 N   0  0  0  0  0  0  0  0  0  0  0  0
  -29.8279  -21.0760   19.7773 N   0  0  0  0  0  0  0  0  0  0  0  0
  -24.3014  -21.5429   23.9532 N   0  3  0  0  0  0  0  0  0  0  0  0
  -34.6865  -26.6511   25.9621 N   0  3  0  0  0  0  0  0  0  0  0  0
  -25.3999  -13.7510   24.9112 O   0  0  0  0  0  0  0  0  0  0  0  0
  -22.5749  -29.7348   23.8550 O   0  0  0  0  0  0  0  0  0  0  0  0
  -22.3891  -26.1747   24.2382 O   0  0  0  0  0  0  0  0  0  0  0  0
  -26.1954  -23.8697   24.1431 O   0  0  0  0  0  0  0  0  0  0  0  0
  -30.2821  -18.9760   20.5765 O   0  0  0  0  0  0  0  0  0  0  0  0
  -24.4416  -10.0511   19.2245 O   0  0  0  0  0  0  0  0  0  0  0  0
  -28.6395  -27.0217   19.5972 O   0  0  0  0  0  0  0  0  0  1  0  0
  -23.5987   -5.6355   22.4176 F   0  0  0  0  0  0  0  0  0  0  0  0
  -26.1048   -7.8485   19.0668 F   0  0  0  0  0  0  0  0  0  0  0  0
  1  2  1  0  0  0  0
  1  5  2  0  0  0  0
  2  6  2  0  0  0  0
  3  8  2  0  0  0  0
  3 17  1  0  0  0  0
  4  9  1  0  0  0  0
  4 17  2  0  0  0  0
  5 19  1  0  0  0  0
  6 21  1  0  0  0  0
  7 10  2  0  0  0  0
  7 20  1  0  0  0  0
  8 24  1  0  0  0  0
  9 24  2  0  0  0  0
 10 25  1  0  0  0  0
 11 12  2  0  0  0  0
 11 26  1  0  0  0  0
 12 27  1  0  0  0  0
 13 22  1  0  0  0  0
 13 25  2  0  0  0  0
 14 23  2  0  0  0  0
 14 30  1  0  0  0  0
 15 23  1  0  0  0  0
 15 31  2  0  0  0  0
 16 27  2  0  0  0  0
 16 28  1  0  0  0  0
 17 29  1  0  0  0  0
 18 29  1  0  0  0  0
 18 32  2  0  0  0  0
 18 33  1  0  0  0  0
 19 21  2  0  0  0  0
 19 38  1  0  0  0  0
 20 22  2  0  0  0  0
 20 39  1  0  0  0  0
 21 51  1  0  0  0  0
 22 40  1  0  0  0  0
 23 72  1  0  0  0  0
 24 87  1  0  0  0  0
 25 88  1  0  0  0  0
 26 28  2  0  0  0  0
 26 87  1  0  0  0  0
 27 89  1  0  0  0  0
 28 90  1  0  0  0  0
 29 69  2  0  0  0  0
 30 63  1  0  0  0  0
 30 71  2  0  0  0  0
 31 65  1  0  0  0  0
 31 71  1  0  0  0  0
 32 70  1  0  0  0  0
 32 75  1  0  0  0  0
 33 76  1  0  0  0  0
 33 82  2  0  0  0  0
 34 52  1  0  0  0  0
 34 77  1  0  0  0  0
 34 83  2  0  0  0  0
 35 66  1  0  0  0  0
 35 73  1  0  0  0  0
 35 84  2  0  0  0  0
 36 67  1  0  0  0  0
 36 78  1  0  0  0  0
 36 85  2  0  0  0  0
 37 74  1  0  0  0  0
 37 79  1  0  0  0  0
 37 86  2  0  0  0  0
 38 41  1  0  0  0  0
 39 52  1  0  0  0  0
 40 73  1  0  0  0  0
 41 43  1  0  0  0  0
 42 44  1  0  0  0  0
 42 47  1  0  0  0  0
 43 51  1  0  0  0  0
 44 53  1  0  0  0  0
 45 48  1  0  0  0  0
 45 54  1  0  0  0  0
 46 49  1  0  0  0  0
 46 54  1  0  0  0  0
 47 74  1  0  0  0  0
 48 72  1  0  0  0  0
 49 72  1  0  0  0  0
 50 53  1  0  0  0  0
 50 74  1  0  0  0  0
 51 77  1  0  0  0  0
 52 73  1  0  0  0  0
 53 70  1  0  0  0  0
 54 81  1  0  0  0  0
 55 65  1  0  0  0  0
 56 67  1  0  0  0  0
 57 68  1  0  0  0  0
 58 68  1  0  0  0  0
 59 68  1  0  0  0  0
 60 80  1  0  0  0  0
 61 81  1  0  0  0  0
 62 81  1  0  0  0  0
 63 64  1  0  0  0  0
 64 88  1  0  0  0  0
 65 79  1  0  0  0  0
 66 68  1  0  0  0  0
 66 78  1  0  0  0  0
 67 80  1  0  0  0  0
 69 70  1  0  0  0  0
M  CHG  3  71   1  80   1  81   1
M  ISO  4  37 100  64 101  79 100  88 101
M  END
> <Batch ID>
0123

> <Smiles>
CNC(C)C(=O)NC(C(=O)N1Cc2cc([101O:1][101CH2:1]Cc3cc(N4CCC(N(C)C)CC4)cc(C(C)[100NH:0][100C:0](=O)N4CCCC(n5nc(-c6ccc(Oc7ccc(F)cc7F)cc6)c(C(N)=O)c5N)C4)n3)ccc2CC1C(=O)NC1CCCc2ccccc21)C(C)(C)C

> <Shape>
0.188

> <Color>
0.081

> <Negative vol penalty>
0.000

$$$$

  -OEChem-04052320303D

 86 95  0     1  0  0  0  0  0999 V2000
  -37.3428  -34.5238   27.1714 C   0  0  0  0  0  0  0  0  0  0  0  0
  -37.1669  -33.3257   26.4865 C   0  0  0  0  0  0  0  0  0  0  0  0
  -23.1651   -9.7019   19.9778 C   0  0  0  0  0  0  0  0  0  0  0  0
  -23.8181   -9.8883   22.2964 C   0  0  0  0  0  0  0  0  0  0  0  0
  -36.2657  -35.1117   27.8333 C   0  0  0  0  0  0  0  0  0  0  0  0
  -35.9138  -32.7143   26.4641 C   0  0  0  0  0  0  0  0  0  0  0  0
  -33.4586  -29.5193   21.8521 C   0  0  0  0  0  0  0  0  0  0  0  0
  -32.6309  -23.5421   19.6312 C   0  0  0  0  0  0  0  0  0  0  0  0
  -22.4470   -8.5432   20.2731 C   0  0  0  0  0  0  0  0  0  0  0  0
  -23.0999   -8.7295   22.5918 C   0  0  0  0  0  0  0  0  0  0  0  0
  -33.3665  -28.1505   21.6039 C   0  0  0  0  0  0  0  0  0  0  0  0
  -19.8740   -7.8634   23.1055 C   0  0  0  0  0  0  0  0  0  0  0  0
  -19.0656   -7.8758   24.2421 C   0  0  0  0  0  0  0  0  0  0  0  0
  -32.3526  -22.1893   19.4710 C   0  0  0  0  0  0  0  0  0  0  0  0
  -31.1498  -28.1333   22.5553 C   0  0  0  0  0  0  0  0  0  0  0  0
  -20.3319   -6.0357   25.1628 C   0  0  0  0  0  0  0  0  0  0  0  0
  -32.9547  -23.1470   21.9541 C   0  0  0  0  0  0  0  0  0  0  0  0
  -23.8507  -10.3745   20.9894 C   0  0  0  0  0  0  0  0  0  0  0  0
  -24.1185  -12.8962   20.7123 C   0  0  0  0  0  0  0  0  0  0  0  0
  -34.9966  -34.5122   27.8109 C   0  0  0  0  0  0  0  0  0  0  0  0
  -32.3996  -30.2044   22.4648 C   0  0  0  0  0  0  0  0  0  0  0  0
  -34.8190  -33.2941   27.1274 C   0  0  0  0  0  0  0  0  0  0  0  0
  -31.2300  -29.5113   22.8079 C   0  0  0  0  0  0  0  0  0  0  0  0
  -32.9386  -24.0381   20.8932 C   0  0  0  0  0  0  0  0  0  0  0  0
  -22.4144   -8.0570   21.5801 C   0  0  0  0  0  0  0  0  0  0  0  0
  -32.2131  -27.4567   21.9581 C   0  0  0  0  0  0  0  0  0  0  0  0
  -20.9113   -6.9370   22.9975 C   0  0  0  0  0  0  0  0  0  0  0  0
  -19.2946   -6.9620   25.2708 C   0  0  0  0  0  0  0  0  0  0  0  0
  -21.1403   -6.0233   24.0262 C   0  0  0  0  0  0  0  0  0  0  0  0
  -24.5932  -11.5712   20.6849 C   0  0  0  0  0  0  0  0  0  0  0  0
  -32.3950  -21.3809   20.5955 C   0  0  0  0  0  0  0  0  0  0  0  0
  -25.2022  -13.6568   20.3468 C   0  0  0  0  0  0  0  0  0  0  0  0
  -22.8145  -13.3949   21.0389 C   0  0  0  0  0  0  0  0  0  0  0  0
  -32.0463  -31.8244   25.1767 C   0  0  0  0  0  0  0  0  0  0  0  0
  -29.1242  -32.4969   23.9393 C   0  0  0  0  0  0  0  0  0  0  0  0
  -26.6060  -31.6146   21.8116 C   0  0  0  0  0  0  0  0  0  0  0  0
  -30.6368  -14.8739   20.7051 C   0  0  0  0  0  0  0  0  0  0  0  0
  -33.8736  -35.1609   28.5807 C   0  0  0  0  0  0  0  0  0  0  0  0
  -32.5041  -31.6862   22.7014 C   0  0  0  0  0  0  0  0  0  0  0  0
  -30.0568  -30.2043   23.4495 C   0  0  0  0  0  0  0  0  0  0  0  0
  -32.4909  -34.6417   28.1945 C   0  0  0  0  0  0  0  0  0  0  0  0
  -29.6855  -12.2976   18.4393 C   0  0  0  0  0  0  0  0  0  0  0  0
  -28.5256  -19.6652   21.3974 C   0  0  0  0  0  0  0  0  0  0  0  0
  -32.4924  -33.1177   28.1281 C   0  0  0  0  0  0  0  0  0  0  0  0
  -28.2396  -11.9842   18.8279 C   0  0  0  0  0  0  0  0  0  0  0  0
  -28.8042  -18.4401   20.5471 C   0  0  0  0  0  0  0  0  0  0  0  0
  -30.5390  -12.6295   19.6613 C   0  0  0  0  0  0  0  0  0  0  0  0
  -28.5535  -13.3859   20.9101 C   0  0  0  0  0  0  0  0  0  0  0  0
  -29.7607  -20.5099   21.1781 C   0  0  0  0  0  0  0  0  0  0  0  0
  -33.4693  -32.6130   27.0593 C   0  0  1  0  0  0  0  0  0  0  0  0
  -31.5678  -32.1836   23.7984 C   0  0  1  0  0  0  0  0  0  0  0  0
  -27.6405  -13.0996   19.7056 C   0  0  2  0  0  0  0  0  0  0  0  0
  -30.2951  -18.1615   20.7372 C   0  0  2  0  0  0  0  0  0  0  0  0
  -33.2577  -19.0267   20.9216 C   0  0  0  0  0  0  0  0  0  0  0  0
  -24.3286  -32.3396   21.0468 C   0  0  0  0  0  0  0  0  0  0  0  0
  -27.9203  -31.4504   26.5404 C   0  0  0  0  0  0  0  0  0  0  0  0
  -25.7081  -31.3061   25.3770 C   0  0  0  0  0  0  0  0  0  0  0  0
  -26.8328  -33.5166   25.6446 C   0  0  0  0  0  0  0  0  0  0  0  0
  -27.5223  -31.9450   19.0169 C   0  0  0  0  0  0  0  0  0  0  0  0
  -33.2433  -25.4928   21.0993 C   0  0  0  0  0  0  0  0  0  1  0  0
  -30.5783  -17.1034   21.7939 C   0  0  0  0  0  0  0  0  0  0  0  0
  -32.1021  -19.9240   20.4603 C   0  0  1  0  0  0  0  0  0  0  0  0
  -27.7642  -31.8438   23.9934 C   0  0  1  0  0  0  0  0  0  0  0  0
  -25.8250  -32.4179   20.7873 C   0  0  2  0  0  0  0  0  0  0  0  0
  -27.0790  -32.0155   25.3785 C   0  0  0  0  0  0  0  0  0  0  0  0
  -32.6898  -21.8265   21.8374 N   0  0  0  0  0  0  0  0  0  0  0  0
  -25.8783  -11.4911   20.3299 N   0  0  0  0  0  0  0  0  0  0  0  0
  -26.2203  -12.7754   20.1308 N   0  0  0  0  0  0  0  0  0  0  0  0
  -30.2096  -31.6525   23.6661 N   0  0  0  0  0  0  0  0  0  0  0  0
  -29.9163  -13.6955   20.4500 N   0  0  0  0  0  0  0  0  0  0  0  0
  -25.3739  -14.9868   20.1923 N   0  0  0  0  0  0  0  0  0  0  0  0
  -21.8171  -12.4761   21.3929 N   0  0  0  0  0  0  0  0  0  0  0  0
  -32.8942  -32.7593   25.7393 N   0  0  0  0  0  0  0  0  0  0  0  0
  -27.0024  -32.3942   22.8776 N   0  0  0  0  0  0  0  0  0  0  0  0
  -29.9708  -15.8358   21.4547 N   0  0  0  0  0  0  0  0  0  0  0  0
  -30.8786  -19.4931   21.2053 N   0  3  1  0  0  0  0  0  0  0  0  0
  -26.0913  -31.9044   19.4139 N   0  3  0  0  0  0  0  0  0  0  0  0
  -22.5375  -14.6178   21.0016 O   0  0  0  0  0  0  0  0  0  0  0  0
  -31.6728  -30.7773   25.6922 O   0  0  0  0  0  0  0  0  0  0  0  0
  -29.2190  -33.7126   24.1254 O   0  0  0  0  0  0  0  0  0  0  0  0
  -26.8379  -30.4148   21.6810 O   0  0  0  0  0  0  0  0  0  0  0  0
  -31.7864  -15.0576   20.2907 O   0  0  0  0  0  0  0  0  0  0  0  0
  -21.7135   -6.9265   21.8687 O   0  0  0  0  0  0  0  0  0  0  0  0
  -32.1208  -26.1205   21.7176 O   0  0  0  0  0  0  0  0  0  1  0  0
  -18.5191   -6.9751   26.3629 F   0  0  0  0  0  0  0  0  0  0  0  0
  -22.1360   -5.1318   23.9286 F   0  0  0  0  0  0  0  0  0  0  0  0
  1  2  1  0  0  0  0
  1  5  2  0  0  0  0
  2  6  2  0  0  0  0
  3  9  2  0  0  0  0
  3 18  1  0  0  0  0
  4 10  1  0  0  0  0
  4 18  2  0  0  0  0
  5 20  1  0  0  0  0
  6 22  1  0  0  0  0
  7 11  2  0  0  0  0
  7 21  1  0  0  0  0
  8 14  2  0  0  0  0
  8 24  1  0  0  0  0
  9 25  1  0  0  0  0
 10 25  2  0  0  0  0
 11 26  1  0  0  0  0
 12 13  2  0  0  0  0
 12 27  1  0  0  0  0
 13 28  1  0  0  0  0
 14 31  1  0  0  0  0
 15 23  1  0  0  0  0
 15 26  2  0  0  0  0
 16 28  2  0  0  0  0
 16 29  1  0  0  0  0
 17 24  2  0  0  0  0
 17 66  1  0  0  0  0
 18 30  1  0  0  0  0
 19 30  1  0  0  0  0
 19 32  2  0  0  0  0
 19 33  1  0  0  0  0
 20 22  2  0  0  0  0
 20 38  1  0  0  0  0
 21 23  2  0  0  0  0
 21 39  1  0  0  0  0
 22 50  1  0  0  0  0
 23 40  1  0  0  0  0
 24 60  1  0  0  0  0
 25 83  1  0  0  0  0
 26 84  1  0  0  0  0
 27 29  2  0  0  0  0
 27 83  1  0  0  0  0
 28 85  1  0  0  0  0
 29 86  1  0  0  0  0
 30 67  2  0  0  0  0
 31 62  1  0  0  0  0
 31 66  2  0  0  0  0
 32 68  1  0  0  0  0
 32 71  1  0  0  0  0
 33 72  1  0  0  0  0
 33 78  2  0  0  0  0
 34 51  1  0  0  0  0
 34 73  1  0  0  0  0
 34 79  2  0  0  0  0
 35 63  1  0  0  0  0
 35 69  1  0  0  0  0
 35 80  2  0  0  0  0
 36 64  1  0  0  0  0
 36 74  1  0  0  0  0
 36 81  2  0  0  0  0
 37 70  1  0  0  0  0
 37 75  1  0  0  0  0
 37 82  2  0  0  0  0
 38 41  1  0  0  0  0
 39 51  1  0  0  0  0
 40 69  1  0  0  0  0
 41 44  1  0  0  0  0
 42 45  1  0  0  0  0
 42 47  1  0  0  0  0
 43 46  1  0  0  0  0
 43 49  1  0  0  0  0
 44 50  1  0  0  0  0
 45 52  1  0  0  0  0
 46 53  1  0  0  0  0
 47 70  1  0  0  0  0
 48 52  1  0  0  0  0
 48 70  1  0  0  0  0
 49 76  1  0  0  0  0
 50 73  1  0  0  0  0
 51 69  1  0  0  0  0
 52 68  1  0  0  0  0
 53 61  1  0  0  0  0
 53 76  1  0  0  0  0
 54 62  1  0  0  0  0
 55 64  1  0  0  0  0
 56 65  1  0  0  0  0
 57 65  1  0  0  0  0
 58 65  1  0  0  0  0
 59 77  1  0  0  0  0
 60 84  1  0  0  0  0
 61 75  1  0  0  0  0
 62 76  1  0  0  0  0
 63 65  1  0  0  0  0
 63 74  1  0  0  0  0
 64 77  1  0  0  0  0
 67 68  1  0  0  0  0
M  CHG  2  76   1  77   1
M  ISO  4  37 100  60 101  75 100  84 101
M  END
> <Batch ID>
0123

> <Smiles>
CNC(C)C(=O)NC(C(=O)N1Cc2cc([101O:1][101CH2:1]c3ccc(C(C)N4CCCC4C[100NH:0][100C:0](=O)N4CCCC(n5nc(-c6ccc(Oc7ccc(F)cc7F)cc6)c(C(N)=O)c5N)C4)nc3)ccc2CC1C(=O)NC1CCCc2ccccc21)C(C)(C)C

> <Shape>
0.251

> <Color>
0.191

> <Negative vol penalty>
0.000

$$$$

  -OEChem-04052320303D

 92103  0     1  0  0  0  0  0999 V2000
  -25.9029  -30.7558   22.4285 C   0  0  0  0  0  0  0  0  0  0  0  0
  -25.5159  -29.6225   23.1364 C   0  0  0  0  0  0  0  0  0  0  0  0
  -20.5291  -23.4288   20.4624 C   0  0  0  0  0  0  0  0  0  0  0  0
  -22.3622  -22.9794   21.9707 C   0  0  0  0  0  0  0  0  0  0  0  0
  -26.2832  -30.6452   21.0917 C   0  0  0  0  0  0  0  0  0  0  0  0
  -25.5079  -28.3780   22.5076 C   0  0  0  0  0  0  0  0  0  0  0  0
  -26.5958  -21.4291   23.8666 C   0  0  0  0  0  0  0  0  0  0  0  0
  -22.8036  -16.2342   23.1806 C   0  0  0  0  0  0  0  0  0  0  0  0
  -22.2739  -14.9872   22.8463 C   0  0  0  0  0  0  0  0  0  0  0  0
  -19.9643  -24.2879   21.4049 C   0  0  0  0  0  0  0  0  0  0  0  0
  -21.7974  -23.8386   22.9132 C   0  0  0  0  0  0  0  0  0  0  0  0
  -25.9742  -20.1910   23.7106 C   0  0  0  0  0  0  0  0  0  0  0  0
  -18.2256  -26.8785   23.2707 C   0  0  0  0  0  0  0  0  0  0  0  0
  -17.7446  -28.1081   22.8212 C   0  0  0  0  0  0  0  0  0  0  0  0
  -25.0175  -15.4178   22.6960 C   0  0  0  0  0  0  0  0  0  0  0  0
  -26.7270  -20.1085   21.4202 C   0  0  0  0  0  0  0  0  0  0  0  0
  -19.9557  -28.6868   22.0380 C   0  0  0  0  0  0  0  0  0  0  0  0
  -21.7281  -22.7744   20.7453 C   0  0  0  0  0  0  0  0  0  0  0  0
  -23.2288  -22.2211   18.7580 C   0  0  0  0  0  0  0  0  0  0  0  0
  -26.2891  -29.3973   20.4489 C   0  0  0  0  0  0  0  0  0  0  0  0
  -27.2795  -22.0224   22.7957 C   0  0  0  0  0  0  0  0  0  0  0  0
  -25.8874  -28.2507   21.1605 C   0  0  0  0  0  0  0  0  0  0  0  0
  -24.4937  -14.1591   22.3565 C   0  0  0  0  0  0  0  0  0  0  0  0
  -27.3586  -21.3531   21.5660 C   0  0  0  0  0  0  0  0  0  0  0  0
  -24.1754  -16.4498   23.1042 C   0  0  0  0  0  0  0  0  0  0  0  0
  -23.1038  -13.9384   22.4204 C   0  0  0  0  0  0  0  0  0  0  0  0
  -20.5984  -24.4929   22.6303 C   0  0  0  0  0  0  0  0  0  0  0  0
  -26.0373  -19.5318   22.4864 C   0  0  0  0  0  0  0  0  0  0  0  0
  -19.5717  -26.5529   23.1040 C   0  0  0  0  0  0  0  0  0  0  0  0
  -18.6096  -29.0123   22.2048 C   0  0  0  0  0  0  0  0  0  0  0  0
  -20.4367  -27.4571   22.4876 C   0  0  0  0  0  0  0  0  0  0  0  0
  -22.3118  -21.8863   19.7723 C   0  0  0  0  0  0  0  0  0  0  0  0
  -23.4722  -21.0348   18.1100 C   0  0  0  0  0  0  0  0  0  0  0  0
  -23.8087  -23.4909   18.4307 C   0  0  0  0  0  0  0  0  0  0  0  0
  -26.9423  -24.7097   21.1318 C   0  0  0  0  0  0  0  0  0  0  0  0
  -29.7304  -23.7592   19.7733 C   0  0  0  0  0  0  0  0  0  0  0  0
  -31.8539  -21.2009   19.0035 C   0  0  0  0  0  0  0  0  0  0  0  0
  -24.0425  -15.3789   19.2055 C   0  0  0  0  0  0  0  0  0  0  0  0
  -26.6629  -29.3344   18.9891 C   0  0  0  0  0  0  0  0  0  0  0  0
  -27.9674  -23.3461   22.9881 C   0  0  0  0  0  0  0  0  0  0  0  0
  -28.0975  -21.9378   20.3910 C   0  0  0  0  0  0  0  0  0  0  0  0
  -26.9858  -27.9238   18.5032 C   0  0  0  0  0  0  0  0  0  0  0  0
  -25.3535   -9.6431   24.8696 C   0  0  0  0  0  0  0  0  0  0  0  0
  -21.0910  -16.7186   17.7322 C   0  0  0  0  0  0  0  0  0  0  0  0
  -25.9287  -26.9369   18.9884 C   0  0  0  0  0  0  0  0  0  0  0  0
  -26.1730  -10.6533   24.0400 C   0  0  0  0  0  0  0  0  0  0  0  0
  -24.2274   -9.8093   23.8284 C   0  0  0  0  0  0  0  0  0  0  0  0
  -21.1902  -18.2189   18.0138 C   0  0  0  0  0  0  0  0  0  0  0  0
  -21.6389  -15.8894   18.8916 C   0  0  0  0  0  0  0  0  0  0  0  0
  -23.3469  -11.6413   21.5436 C   0  0  0  0  0  0  0  0  0  0  0  0
  -23.1081  -17.7399   19.5919 C   0  0  0  0  0  0  0  0  0  0  0  0
  -27.1606  -12.5420   20.1317 C   0  0  0  0  0  0  0  0  0  0  0  0
  -26.9690  -14.6250   18.8539 C   0  0  0  0  0  0  0  0  0  0  0  0
  -25.4336  -13.0500   21.9158 C   0  0  1  0  0  0  0  0  0  0  0  0
  -25.8893  -26.8795   20.5203 C   0  0  1  0  0  0  0  0  0  0  0  0
  -28.1992  -24.0948   21.6792 C   0  0  1  0  0  0  0  0  0  0  0  0
  -24.8217  -11.2077   23.5181 C   0  0  0  0  0  0  0  0  0  0  0  0
  -24.7846  -11.6545   22.0715 C   0  0  1  0  0  0  0  0  0  0  0  0
  -25.8801  -13.2905   20.4675 C   0  0  1  0  0  0  0  0  0  0  0  0
  -22.6192  -18.6184   18.4277 C   0  0  2  0  0  0  0  0  0  0  0  0
  -26.2350  -14.7402   20.1772 C   0  0  2  0  0  0  0  0  0  0  0  0
  -34.0354  -20.7291   17.8564 C   0  0  0  0  0  0  0  0  0  0  0  0
  -28.3664  -24.0607   17.0606 C   0  0  0  0  0  0  0  0  0  0  0  0
  -30.2149  -22.7018   16.0582 C   0  0  0  0  0  0  0  0  0  0  0  0
  -30.7242  -24.8908   17.1408 C   0  0  0  0  0  0  0  0  0  0  0  0
  -28.0224  -12.6169   17.7510 C   0  0  0  0  0  0  0  0  0  0  0  0
  -33.0676  -20.1514   21.4904 C   0  0  0  0  0  0  0  0  0  0  0  0
  -24.7476  -17.7894   23.4643 C   0  0  0  0  0  0  0  0  0  1  0  0
  -30.1045  -22.9090   18.5833 C   0  0  1  0  0  0  0  0  0  0  0  0
  -33.3544  -21.0503   19.1777 C   0  0  2  0  0  0  0  0  0  0  0  0
  -29.8368  -23.6302   17.2321 C   0  0  0  0  0  0  0  0  0  0  0  0
  -21.9942  -20.5890   19.7726 N   0  0  0  0  0  0  0  0  0  0  0  0
  -22.7155  -20.0981   18.7504 N   0  0  0  0  0  0  0  0  0  0  0  0
  -22.5487  -12.7007   22.1283 N   0  0  0  0  0  0  0  0  0  0  0  0
  -28.7483  -23.2371   20.6270 N   0  0  0  0  0  0  0  0  0  0  0  0
  -22.9975  -16.3172   19.2336 N   0  0  0  0  0  0  0  0  0  0  0  0
  -24.2575  -20.7119   17.0605 N   0  0  0  0  0  0  0  0  0  0  0  0
  -23.4497  -24.6071   19.1985 N   0  0  0  0  0  0  0  0  0  0  0  0
  -26.9899  -26.0865   21.0248 N   0  0  0  0  0  0  0  0  0  0  0  0
  -31.4944  -22.5140   18.7847 N   0  0  0  0  0  0  0  0  0  0  0  0
  -25.0856  -15.6135   20.0930 N   0  0  0  0  0  0  0  0  0  0  0  0
  -27.7986  -13.3668   19.0254 N   0  3  2  0  0  0  0  0  0  0  0  0
  -33.6565  -19.9540   20.1409 N   0  3  0  0  0  0  0  0  0  0  0  0
  -24.6086  -23.6345   17.4752 O   0  0  0  0  0  0  0  0  0  0  0  0
  -25.9996  -23.9882   20.8276 O   0  0  0  0  0  0  0  0  0  0  0  0
  -30.2939  -24.8433   19.9432 O   0  0  0  0  0  0  0  0  0  0  0  0
  -31.0787  -20.2485   19.0526 O   0  0  0  0  0  0  0  0  0  0  0  0
  -24.0481  -14.4073   18.4420 O   0  0  0  0  0  0  0  0  0  0  0  0
  -20.0476  -25.3314   23.5501 O   0  0  0  0  0  0  0  0  0  0  0  0
  -25.4310  -18.3235   22.3311 O   0  0  0  0  0  0  0  0  0  1  0  0
  -18.1472  -30.1925   21.7718 F   0  0  0  0  0  0  0  0  0  0  0  0
  -21.7306  -27.1495   22.3235 F   0  0  0  0  0  0  0  0  0  0  0  0
  1  2  1  0  0  0  0
  1  5  2  0  0  0  0
  2  6  2  0  0  0  0
  3 10  2  0  0  0  0
  3 18  1  0  0  0  0
  4 11  1  0  0  0  0
  4 18  2  0  0  0  0
  5 20  1  0  0  0  0
  6 22  1  0  0  0  0
  7 12  2  0  0  0  0
  7 21  1  0  0  0  0
  8  9  2  0  0  0  0
  8 25  1  0  0  0  0
  9 26  1  0  0  0  0
 10 27  1  0  0  0  0
 11 27  2  0  0  0  0
 12 28  1  0  0  0  0
 13 14  2  0  0  0  0
 13 29  1  0  0  0  0
 14 30  1  0  0  0  0
 15 23  1  0  0  0  0
 15 25  2  0  0  0  0
 16 24  1  0  0  0  0
 16 28  2  0  0  0  0
 17 30  2  0  0  0  0
 17 31  1  0  0  0  0
 18 32  1  0  0  0  0
 19 32  1  0  0  0  0
 19 33  2  0  0  0  0
 19 34  1  0  0  0  0
 20 22  2  0  0  0  0
 20 39  1  0  0  0  0
 21 24  2  0  0  0  0
 21 40  1  0  0  0  0
 22 55  1  0  0  0  0
 23 26  2  0  0  0  0
 23 54  1  0  0  0  0
 24 41  1  0  0  0  0
 25 68  1  0  0  0  0
 26 74  1  0  0  0  0
 27 89  1  0  0  0  0
 28 90  1  0  0  0  0
 29 31  2  0  0  0  0
 29 89  1  0  0  0  0
 30 91  1  0  0  0  0
 31 92  1  0  0  0  0
 32 72  2  0  0  0  0
 33 73  1  0  0  0  0
 33 77  1  0  0  0  0
 34 78  1  0  0  0  0
 34 84  2  0  0  0  0
 35 56  1  0  0  0  0
 35 79  1  0  0  0  0
 35 85  2  0  0  0  0
 36 69  1  0  0  0  0
 36 75  1  0  0  0  0
 36 86  2  0  0  0  0
 37 70  1  0  0  0  0
 37 80  1  0  0  0  0
 37 87  2  0  0  0  0
 38 76  1  0  0  0  0
 38 81  1  0  0  0  0
 38 88  2  0  0  0  0
 39 42  1  0  0  0  0
 40 56  1  0  0  0  0
 41 75  1  0  0  0  0
 42 45  1  0  0  0  0
 43 46  1  0  0  0  0
 43 47  1  0  0  0  0
 44 48  1  0  0  0  0
 44 49  1  0  0  0  0
 45 55  1  0  0  0  0
 46 57  1  0  0  0  0
 47 57  1  0  0  0  0
 48 60  1  0  0  0  0
 49 76  1  0  0  0  0
 50 58  1  0  0  0  0
 50 74  1  0  0  0  0
 51 60  1  0  0  0  0
 51 76  1  0  0  0  0
 52 59  1  0  0  0  0
 52 82  1  0  0  0  0
 53 61  1  0  0  0  0
 53 82  1  0  0  0  0
 54 58  1  0  0  0  0
 54 59  1  0  0  0  0
 55 79  1  0  0  0  0
 56 75  1  0  0  0  0
 57 58  1  0  0  0  0
 59 61  1  0  0  0  0
 60 73  1  0  0  0  0
 61 81  1  0  0  0  0
 62 70  1  0  0  0  0
 63 71  1  0  0  0  0
 64 71  1  0  0  0  0
 65 71  1  0  0  0  0
 66 82  1  0  0  0  0
 67 83  1  0  0  0  0
 68 90  1  0  0  0  0
 69 71  1  0  0  0  0
 69 80  1  0  0  0  0
 70 83  1  0  0  0  0
 72 73  1  0  0  0  0
M  CHG  2  82   1  83   1
M  ISO  4  38 100  68 101  81 100  90 101
M  END
> <Batch ID>
0123

> <Smiles>
CNC(C)C(=O)NC(C(=O)N1Cc2cc([101O:1][101CH2:1]c3ccc4c(c3)C(C3CN(C)CC3[100NH:0][100C:0](=O)N3CCCC(n5nc(-c6ccc(Oc7ccc(F)cc7F)cc6)c(C(N)=O)c5N)C3)C(C3CCC3)CN4)ccc2CC1C(=O)NC1CCCc2ccccc21)C(C)(C)C

> <Shape>
0.199

> <Color>
0.069

> <Negative vol penalty>
0.000

$$$$

  -OEChem-04052320303D

 84 92  0     1  0  0  0  0  0999 V2000
  -16.8855  -29.3570   24.3820 C   0  0  0  0  0  0  0  0  0  0  0  0
  -17.2932  -28.3830   23.4762 C   0  0  0  0  0  0  0  0  0  0  0  0
  -24.4743   -9.4012   21.4321 C   0  0  0  0  0  0  0  0  0  0  0  0
  -24.8363  -10.4633   23.5718 C   0  0  0  0  0  0  0  0  0  0  0  0
  -17.5634  -30.5735   24.4479 C   0  0  0  0  0  0  0  0  0  0  0  0
  -18.3785  -28.6255   22.6349 C   0  0  0  0  0  0  0  0  0  0  0  0
  -22.5131  -24.5470   20.6915 C   0  0  0  0  0  0  0  0  0  0  0  0
  -24.1799   -8.2004   22.0779 C   0  0  0  0  0  0  0  0  0  0  0  0
  -24.5419   -9.2624   24.2176 C   0  0  0  0  0  0  0  0  0  0  0  0
  -22.6351  -23.8284   19.5030 C   0  0  0  0  0  0  0  0  0  0  0  0
  -21.5557   -6.8275   23.7092 C   0  0  0  0  0  0  0  0  0  0  0  0
  -20.4432   -6.1105   23.2690 C   0  0  0  0  0  0  0  0  0  0  0  0
  -24.1538  -25.5000   18.6553 C   0  0  0  0  0  0  0  0  0  0  0  0
  -21.8653   -4.2314   22.7362 C   0  0  0  0  0  0  0  0  0  0  0  0
  -24.8025  -10.5327   22.1790 C   0  0  0  0  0  0  0  0  0  0  0  0
  -24.2031  -12.7930   21.1595 C   0  0  0  0  0  0  0  0  0  0  0  0
  -18.6637  -30.8273   23.6138 C   0  0  0  0  0  0  0  0  0  0  0  0
  -23.2033  -25.7550   20.8669 C   0  0  0  0  0  0  0  0  0  0  0  0
  -19.0710  -29.8470   22.6888 C   0  0  0  0  0  0  0  0  0  0  0  0
  -24.0409  -26.2306   19.8480 C   0  0  0  0  0  0  0  0  0  0  0  0
  -24.2137   -8.1310   23.4706 C   0  0  0  0  0  0  0  0  0  0  0  0
  -23.4532  -24.3064   18.4835 C   0  0  0  0  0  0  0  0  0  0  0  0
  -22.8230   -6.2466   23.6629 C   0  0  0  0  0  0  0  0  0  0  0  0
  -20.5980   -4.8124   22.7825 C   0  0  0  0  0  0  0  0  0  0  0  0
  -22.9778   -4.9485   23.1765 C   0  0  0  0  0  0  0  0  0  0  0  0
  -25.1072  -11.7732   21.5125 C   0  0  0  0  0  0  0  0  0  0  0  0
  -24.9825  -13.7484   20.5544 C   0  0  0  0  0  0  0  0  0  0  0  0
  -22.7856  -12.8697   21.3607 C   0  0  0  0  0  0  0  0  0  0  0  0
  -22.3472  -28.7767   21.3570 C   0  0  0  0  0  0  0  0  0  0  0  0
  -25.5418  -29.2163   21.7084 C   0  0  0  0  0  0  0  0  0  0  0  0
  -28.7070  -28.1346   21.0313 C   0  0  0  0  0  0  0  0  0  0  0  0
  -29.6147  -16.8562   20.3809 C   0  0  0  0  0  0  0  0  0  0  0  0
  -19.3355  -32.1755   23.6884 C   0  0  0  0  0  0  0  0  0  0  0  0
  -23.0820  -26.5046   22.1653 C   0  0  0  0  0  0  0  0  0  0  0  0
  -24.8190  -27.5119   19.9944 C   0  0  0  0  0  0  0  0  0  0  0  0
  -20.7090  -32.2092   23.0231 C   0  0  0  0  0  0  0  0  0  0  0  0
  -29.7957  -13.5759   19.0084 C   0  0  0  0  0  0  0  0  0  0  0  0
  -20.6555  -31.5393   21.6537 C   0  0  0  0  0  0  0  0  0  0  0  0
  -26.6769  -19.2925   19.2823 C   0  0  0  0  0  0  0  0  0  0  0  0
  -28.5212  -12.8973   19.5134 C   0  0  0  0  0  0  0  0  0  0  0  0
  -26.1087  -19.8589   17.9873 C   0  0  0  0  0  0  0  0  0  0  0  0
  -30.3819  -14.5238   20.0523 C   0  0  0  0  0  0  0  0  0  0  0  0
  -28.1649  -14.8536   21.0769 C   0  0  0  0  0  0  0  0  0  0  0  0
  -28.3370  -21.1781   19.3557 C   0  0  0  0  0  0  0  0  0  0  0  0
  -20.2592  -30.0631   21.7769 C   0  0  1  0  0  0  0  0  0  0  0  0
  -23.4288  -27.9845   22.0355 C   0  0  1  0  0  0  0  0  0  0  0  0
  -28.1519  -19.6643   19.4393 C   0  0  1  0  0  0  0  0  0  0  0  0
  -27.5059  -13.9304   20.0378 C   0  0  2  0  0  0  0  0  0  0  0  0
  -26.2968  -21.3771   17.8844 C   0  0  2  0  0  0  0  0  0  0  0  0
  -31.1153  -28.7221   21.4218 C   0  0  0  0  0  0  0  0  0  0  0  0
  -29.6124  -23.3319   17.8926 C   0  0  0  0  0  0  0  0  0  0  0  0
  -27.4444  -23.9192   19.0455 C   0  0  0  0  0  0  0  0  0  0  0  0
  -25.3442  -31.4159   19.6029 C   0  0  0  0  0  0  0  0  0  0  0  0
  -27.8321  -31.2992   19.3481 C   0  0  0  0  0  0  0  0  0  0  0  0
  -26.8338  -31.9550   21.5381 C   0  0  0  0  0  0  0  0  0  0  0  0
  -29.2098  -25.6038   22.4809 C   0  0  0  0  0  0  0  0  0  0  0  0
  -28.7029  -19.1328   20.7613 C   0  0  0  0  0  0  0  0  0  0  0  0
  -25.7812  -21.8691   16.5416 C   0  0  0  0  0  0  0  0  0  0  0  0
  -24.3075  -21.5235   16.3473 C   0  0  0  0  0  0  0  0  0  0  0  0
  -23.4311  -22.1895   17.3998 C   0  0  0  0  0  0  0  0  0  1  0  0
  -26.6840  -29.5481   20.7787 C   0  0  1  0  0  0  0  0  0  0  0  0
  -29.9163  -27.9346   21.9269 C   0  0  2  0  0  0  0  0  0  0  0  0
  -28.1011  -23.1672   17.8990 C   0  0  0  0  0  0  0  0  0  0  0  0
  -26.6575  -31.0314   20.3131 C   0  0  0  0  0  0  0  0  0  0  0  0
  -26.3647  -12.0544   21.1607 N   0  0  0  0  0  0  0  0  0  0  0  0
  -26.2563  -13.2617   20.5803 N   0  0  0  0  0  0  0  0  0  0  0  0
  -24.6624  -28.2119   21.2801 N   0  0  0  0  0  0  0  0  0  0  0  0
  -29.3686  -15.4790   20.5071 N   0  0  0  0  0  0  0  0  0  0  0  0
  -24.6956  -14.9490   20.0078 N   0  0  0  0  0  0  0  0  0  0  0  0
  -22.1426  -11.8006   21.9993 N   0  0  0  0  0  0  0  0  0  0  0  0
  -21.3876  -29.2721   22.2191 N   0  0  0  0  0  0  0  0  0  0  0  0
  -27.9049  -29.1632   21.4784 N   0  0  0  0  0  0  0  0  0  0  0  0
  -28.5999  -17.6922   20.8304 N   0  0  0  0  0  0  0  0  0  0  0  0
  -27.7802  -21.6988   18.0434 N   0  3  1  0  0  0  0  0  0  0  0  0
  -30.2893  -26.4927   21.9793 N   0  3  0  0  0  0  0  0  0  0  0  0
  -22.1068  -13.8498   20.9707 O   0  0  0  0  0  0  0  0  0  0  0  0
  -22.3817  -28.9286   20.1415 O   0  0  0  0  0  0  0  0  0  0  0  0
  -25.4380  -29.8210   22.7786 O   0  0  0  0  0  0  0  0  0  0  0  0
  -28.4970  -27.4495   20.0328 O   0  0  0  0  0  0  0  0  0  0  0  0
  -30.6589  -17.3072   19.8981 O   0  0  0  0  0  0  0  0  0  0  0  0
  -23.9263   -6.9595   24.1011 O   0  0  0  0  0  0  0  0  0  0  0  0
  -23.5735  -23.6073   17.3222 O   0  0  0  0  0  0  0  0  0  1  0  0
  -19.5295   -4.1233   22.3612 F   0  0  0  0  0  0  0  0  0  0  0  0
  -24.1926   -4.3847   23.1307 F   0  0  0  0  0  0  0  0  0  0  0  0
  1  2  1  0  0  0  0
  1  5  2  0  0  0  0
  2  6  2  0  0  0  0
  3  8  2  0  0  0  0
  3 15  1  0  0  0  0
  4  9  1  0  0  0  0
  4 15  2  0  0  0  0
  5 17  1  0  0  0  0
  6 19  1  0  0  0  0
  7 10  2  0  0  0  0
  7 18  1  0  0  0  0
  8 21  1  0  0  0  0
  9 21  2  0  0  0  0
 10 22  1  0  0  0  0
 11 12  2  0  0  0  0
 11 23  1  0  0  0  0
 12 24  1  0  0  0  0
 13 20  1  0  0  0  0
 13 22  2  0  0  0  0
 14 24  2  0  0  0  0
 14 25  1  0  0  0  0
 15 26  1  0  0  0  0
 16 26  1  0  0  0  0
 16 27  2  0  0  0  0
 16 28  1  0  0  0  0
 17 19  2  0  0  0  0
 17 33  1  0  0  0  0
 18 20  2  0  0  0  0
 18 34  1  0  0  0  0
 19 45  1  0  0  0  0
 20 35  1  0  0  0  0
 21 81  1  0  0  0  0
 22 82  1  0  0  0  0
 23 25  2  0  0  0  0
 23 81  1  0  0  0  0
 24 83  1  0  0  0  0
 25 84  1  0  0  0  0
 26 65  2  0  0  0  0
 27 66  1  0  0  0  0
 27 69  1  0  0  0  0
 28 70  1  0  0  0  0
 28 76  2  0  0  0  0
 29 46  1  0  0  0  0
 29 71  1  0  0  0  0
 29 77  2  0  0  0  0
 30 61  1  0  0  0  0
 30 67  1  0  0  0  0
 30 78  2  0  0  0  0
 31 62  1  0  0  0  0
 31 72  1  0  0  0  0
 31 79  2  0  0  0  0
 32 68  1  0  0  0  0
 32 73  1  0  0  0  0
 32 80  2  0  0  0  0
 33 36  1  0  0  0  0
 34 46  1  0  0  0  0
 35 67  1  0  0  0  0
 36 38  1  0  0  0  0
 37 40  1  0  0  0  0
 37 42  1  0  0  0  0
 38 45  1  0  0  0  0
 39 41  1  0  0  0  0
 39 47  1  0  0  0  0
 40 48  1  0  0  0  0
 41 49  1  0  0  0  0
 42 68  1  0  0  0  0
 43 48  1  0  0  0  0
 43 68  1  0  0  0  0
 44 47  1  0  0  0  0
 44 74  1  0  0  0  0
 45 71  1  0  0  0  0
 46 67  1  0  0  0  0
 47 57  1  0  0  0  0
 48 66  1  0  0  0  0
 49 58  1  0  0  0  0
 49 74  1  0  0  0  0
 50 62  1  0  0  0  0
 51 63  1  0  0  0  0
 52 63  1  0  0  0  0
 53 64  1  0  0  0  0
 54 64  1  0  0  0  0
 55 64  1  0  0  0  0
 56 75  1  0  0  0  0
 57 73  1  0  0  0  0
 58 59  1  0  0  0  0
 59 60  1  0  0  0  0
 60 82  1  0  0  0  0
 61 64  1  0  0  0  0
 61 72  1  0  0  0  0
 62 75  1  0  0  0  0
 63 74  1  0  0  0  0
 65 66  1  0  0  0  0
M  CHG  2  74   1  75   1
M  ISO  4  32 100  60 101  73 100  82 101
M  END
> <Batch ID>
0123

> <Smiles>
CNC(C)C(=O)NC(C(=O)N1Cc2cc([101O:1][101CH2:1]CCC3CCC(C[100NH:0][100C:0](=O)N4CCCC(n5nc(-c6ccc(Oc7ccc(F)cc7F)cc6)c(C(N)=O)c5N)C4)CN3C(C)C)ccc2CC1C(=O)NC1CCCc2ccccc21)C(C)(C)C

> <Shape>
0.304

> <Color>
0.149

> <Negative vol penalty>
0.000

$$$$

  -OEChem-04052320303D

 92101  0     1  0  0  0  0  0999 V2000
  -16.7217  -29.8085   24.4761 C   0  0  0  0  0  0  0  0  0  0  0  0
  -17.1384  -28.4883   24.6138 C   0  0  0  0  0  0  0  0  0  0  0  0
  -30.4182  -23.0560   20.0900 C   0  0  0  0  0  0  0  0  0  0  0  0
  -29.3364  -21.7135   18.3975 C   0  0  0  0  0  0  0  0  0  0  0  0
  -17.2385  -30.5980   23.4496 C   0  0  0  0  0  0  0  0  0  0  0  0
  -18.0714  -27.9565   23.7243 C   0  0  0  0  0  0  0  0  0  0  0  0
  -22.4315  -23.8447   24.9846 C   0  0  0  0  0  0  0  0  0  0  0  0
  -30.7519  -24.0051   19.1238 C   0  0  0  0  0  0  0  0  0  0  0  0
  -29.6700  -22.6627   17.4313 C   0  0  0  0  0  0  0  0  0  0  0  0
  -22.4990  -22.4639   24.8040 C   0  0  0  0  0  0  0  0  0  0  0  0
  -33.0786  -24.3808   16.7011 C   0  0  0  0  0  0  0  0  0  0  0  0
  -34.3777  -24.8886   16.7141 C   0  0  0  0  0  0  0  0  0  0  0  0
  -23.6715  -22.7995   22.7227 C   0  0  0  0  0  0  0  0  0  0  0  0
  -33.5038  -27.1154   17.0528 C   0  0  0  0  0  0  0  0  0  0  0  0
  -29.7105  -21.9101   19.7268 C   0  0  0  0  0  0  0  0  0  0  0  0
  -28.5767  -21.1258   21.8732 C   0  0  0  0  0  0  0  0  0  0  0  0
  -18.1855  -30.0784   22.5530 C   0  0  0  0  0  0  0  0  0  0  0  0
  -22.9748  -24.7150   24.0286 C   0  0  0  0  0  0  0  0  0  0  0  0
  -18.6003  -28.7393   22.6840 C   0  0  0  0  0  0  0  0  0  0  0  0
  -23.6118  -24.1909   22.8947 C   0  0  0  0  0  0  0  0  0  0  0  0
  -30.3778  -23.8085   17.7945 C   0  0  0  0  0  0  0  0  0  0  0  0
  -23.1165  -21.9411   23.6715 C   0  0  0  0  0  0  0  0  0  0  0  0
  -31.9921  -25.2403   16.8639 C   0  0  0  0  0  0  0  0  0  0  0  0
  -34.5903  -26.2559   16.8900 C   0  0  0  0  0  0  0  0  0  0  0  0
  -32.2047  -26.6076   17.0398 C   0  0  0  0  0  0  0  0  0  0  0  0
  -29.3660  -20.9290   20.7242 C   0  0  0  0  0  0  0  0  0  0  0  0
  -28.5500  -19.8969   22.4860 C   0  0  0  0  0  0  0  0  0  0  0  0
  -27.9258  -22.3133   22.3443 C   0  0  0  0  0  0  0  0  0  0  0  0
  -20.9582  -12.3803   21.5900 C   0  0  0  0  0  0  0  0  0  0  0  0
  -21.7994  -26.9758   22.1284 C   0  0  0  0  0  0  0  0  0  0  0  0
  -24.9283  -27.4694   21.4296 C   0  0  0  0  0  0  0  0  0  0  0  0
  -28.0181  -27.9403   19.6271 C   0  0  0  0  0  0  0  0  0  0  0  0
  -29.2408  -14.3090   20.4491 C   0  0  0  0  0  0  0  0  0  0  0  0
  -18.6802  -30.9559   21.4305 C   0  0  0  0  0  0  0  0  0  0  0  0
  -22.9173  -26.2014   24.2512 C   0  0  0  0  0  0  0  0  0  0  0  0
  -24.2286  -25.0819   21.8487 C   0  0  0  0  0  0  0  0  0  0  0  0
  -19.9454  -30.4293   20.7581 C   0  0  0  0  0  0  0  0  0  0  0  0
  -31.1451  -15.9099   22.9961 C   0  0  0  0  0  0  0  0  0  0  0  0
  -18.0223  -10.7434   23.4431 C   0  0  0  0  0  0  0  0  0  0  0  0
  -19.8118  -28.9390   20.4618 C   0  0  0  0  0  0  0  0  0  0  0  0
  -19.0592  -10.9773   22.3464 C   0  0  0  0  0  0  0  0  0  0  0  0
  -25.1764  -12.1904   19.6821 C   0  0  0  0  0  0  0  0  0  0  0  0
  -30.8339  -17.3956   22.8063 C   0  0  0  0  0  0  0  0  0  0  0  0
  -24.0479  -11.8820   20.6628 C   0  0  0  0  0  0  0  0  0  0  0  0
  -25.3215  -14.5418   20.5860 C   0  0  0  0  0  0  0  0  0  0  0  0
  -31.2211  -15.1741   21.6601 C   0  0  0  0  0  0  0  0  0  0  0  0
  -29.7281  -16.8260   20.6037 C   0  0  0  0  0  0  0  0  0  0  0  0
  -17.3087  -12.0313   23.8235 C   0  0  0  0  0  0  0  0  0  0  0  0
  -19.3077  -13.3669   23.1226 C   0  0  0  0  0  0  0  0  0  0  0  0
  -19.6292  -28.1338   21.7541 C   0  0  1  0  0  0  0  0  0  0  0  0
  -20.0381  -12.0875   22.7344 C   0  0  2  0  0  0  0  0  0  0  0  0
  -23.0499  -27.0044   22.9609 C   0  0  1  0  0  0  0  0  0  0  0  0
  -26.1109  -13.2766   20.2251 C   0  0  2  0  0  0  0  0  0  0  0  0
  -24.1831  -14.2479   21.5787 C   0  0  2  0  0  0  0  0  0  0  0  0
  -29.5861  -17.5991   21.9260 C   0  0  2  0  0  0  0  0  0  0  0  0
  -23.2582  -13.1418   21.0310 C   0  0  2  0  0  0  0  0  0  0  0  0
  -28.5465  -29.3856   17.6449 C   0  0  0  0  0  0  0  0  0  0  0  0
  -24.3323  -24.9569   19.8043 C   0  0  0  0  0  0  0  0  0  0  0  0
  -26.2181  -25.5799   18.2799 C   0  0  0  0  0  0  0  0  0  0  0  0
  -24.2438  -27.0887   18.4997 C   0  0  0  0  0  0  0  0  0  0  0  0
  -30.2316  -29.2898   21.0548 C   0  0  0  0  0  0  0  0  0  0  0  0
  -23.4183  -15.5399   21.8814 C   0  0  0  0  0  0  0  0  0  0  0  0
  -27.2098  -13.5972   19.2132 C   0  0  0  0  0  0  0  0  0  0  0  0
  -24.0741  -16.3989   22.9645 C   0  0  0  0  0  0  0  0  0  0  0  0
  -23.3205  -17.7007   23.2451 C   0  0  0  0  0  0  0  0  0  0  0  0
  -24.0026  -18.5076   24.3489 C   0  0  0  0  0  0  0  0  0  0  0  0
  -23.2373  -19.7845   24.6666 C   0  0  0  0  0  0  0  0  0  1  0  0
  -25.8947  -26.9219   20.4072 C   0  0  1  0  0  0  0  0  0  0  0  0
  -28.6053  -29.2597   19.1593 C   0  0  2  0  0  0  0  0  0  0  0  0
  -25.1766  -26.1336   19.2757 C   0  0  0  0  0  0  0  0  0  0  0  0
  -29.8088  -19.6740   20.6116 N   0  0  0  0  0  0  0  0  0  0  0  0
  -29.2961  -19.0710   21.6977 N   0  0  0  0  0  0  0  0  0  0  0  0
  -24.1413  -26.5284   22.1085 N   0  0  0  0  0  0  0  0  0  0  0  0
  -30.0068  -15.4069   20.8744 N   0  0  0  0  0  0  0  0  0  0  0  0
  -27.9614  -19.4531   23.6169 N   0  0  0  0  0  0  0  0  0  0  0  0
  -28.0560  -23.4894   21.5932 N   0  0  0  0  0  0  0  0  0  0  0  0
  -20.8966  -27.9762   22.4347 N   0  0  0  0  0  0  0  0  0  0  0  0
  -22.2155  -12.8071   21.9736 N   0  0  0  0  0  0  0  0  0  0  0  0
  -26.6800  -28.0584   19.9381 N   0  0  0  0  0  0  0  0  0  0  0  0
  -28.1023  -14.6182   19.7150 N   0  0  0  0  0  0  0  0  0  0  0  0
  -18.3215  -13.0616   24.2021 N   0  3  0  0  0  0  0  0  0  0  0  0
  -30.0288  -29.3733   19.5855 N   0  3  0  0  0  0  0  0  0  0  0  0
  -27.2624  -22.3349   23.4087 O   0  0  0  0  0  0  0  0  0  0  0  0
  -20.5602  -12.2295   20.4409 O   0  0  0  0  0  0  0  0  0  0  0  0
  -21.6642  -26.1111   21.2707 O   0  0  0  0  0  0  0  0  0  0  0  0
  -24.8789  -28.6865   21.6241 O   0  0  0  0  0  0  0  0  0  0  0  0
  -28.6794  -26.9073   19.7051 O   0  0  0  0  0  0  0  0  0  0  0  0
  -29.5459  -13.1401   20.7092 O   0  0  0  0  0  0  0  0  0  0  0  0
  -30.7031  -24.7345   16.8516 O   0  0  0  0  0  0  0  0  0  0  0  0
  -23.1832  -20.5938   23.4925 O   0  0  0  0  0  0  0  0  0  1  0  0
  -35.8379  -26.7432   16.9040 F   0  0  0  0  0  0  0  0  0  0  0  0
  -31.1650  -27.4381   17.1979 F   0  0  0  0  0  0  0  0  0  0  0  0
  1  2  1  0  0  0  0
  1  5  2  0  0  0  0
  2  6  2  0  0  0  0
  3  8  2  0  0  0  0
  3 15  1  0  0  0  0
  4  9  1  0  0  0  0
  4 15  2  0  0  0  0
  5 17  1  0  0  0  0
  6 19  1  0  0  0  0
  7 10  2  0  0  0  0
  7 18  1  0  0  0  0
  8 21  1  0  0  0  0
  9 21  2  0  0  0  0
 10 22  1  0  0  0  0
 11 12  2  0  0  0  0
 11 23  1  0  0  0  0
 12 24  1  0  0  0  0
 13 20  1  0  0  0  0
 13 22  2  0  0  0  0
 14 24  2  0  0  0  0
 14 25  1  0  0  0  0
 15 26  1  0  0  0  0
 16 26  1  0  0  0  0
 16 27  2  0  0  0  0
 16 28  1  0  0  0  0
 17 19  2  0  0  0  0
 17 34  1  0  0  0  0
 18 20  2  0  0  0  0
 18 35  1  0  0  0  0
 19 50  1  0  0  0  0
 20 36  1  0  0  0  0
 21 89  1  0  0  0  0
 22 90  1  0  0  0  0
 23 25  2  0  0  0  0
 23 89  1  0  0  0  0
 24 91  1  0  0  0  0
 25 92  1  0  0  0  0
 26 71  2  0  0  0  0
 27 72  1  0  0  0  0
 27 75  1  0  0  0  0
 28 76  1  0  0  0  0
 28 83  2  0  0  0  0
 29 51  1  0  0  0  0
 29 78  1  0  0  0  0
 29 84  2  0  0  0  0
 30 52  1  0  0  0  0
 30 77  1  0  0  0  0
 30 85  2  0  0  0  0
 31 68  1  0  0  0  0
 31 73  1  0  0  0  0
 31 86  2  0  0  0  0
 32 69  1  0  0  0  0
 32 79  1  0  0  0  0
 32 87  2  0  0  0  0
 33 74  1  0  0  0  0
 33 80  1  0  0  0  0
 33 88  2  0  0  0  0
 34 37  1  0  0  0  0
 35 52  1  0  0  0  0
 36 73  1  0  0  0  0
 37 40  1  0  0  0  0
 38 43  1  0  0  0  0
 38 46  1  0  0  0  0
 39 41  1  0  0  0  0
 39 48  1  0  0  0  0
 40 50  1  0  0  0  0
 41 51  1  0  0  0  0
 42 44  1  0  0  0  0
 42 53  1  0  0  0  0
 43 55  1  0  0  0  0
 44 56  1  0  0  0  0
 45 53  1  0  0  0  0
 45 54  1  0  0  0  0
 46 74  1  0  0  0  0
 47 55  1  0  0  0  0
 47 74  1  0  0  0  0
 48 81  1  0  0  0  0
 49 51  1  0  0  0  0
 49 81  1  0  0  0  0
 50 77  1  0  0  0  0
 52 73  1  0  0  0  0
 53 63  1  0  0  0  0
 54 56  1  0  0  0  0
 54 62  1  0  0  0  0
 55 72  1  0  0  0  0
 56 78  1  0  0  0  0
 57 69  1  0  0  0  0
 58 70  1  0  0  0  0
 59 70  1  0  0  0  0
 60 70  1  0  0  0  0
 61 82  1  0  0  0  0
 62 64  1  0  0  0  0
 63 80  1  0  0  0  0
 64 65  1  0  0  0  0
 65 66  1  0  0  0  0
 66 67  1  0  0  0  0
 67 90  1  0  0  0  0
 68 70  1  0  0  0  0
 68 79  1  0  0  0  0
 69 82  1  0  0  0  0
 71 72  1  0  0  0  0
M  CHG  2  81   1  82   1
M  ISO  4  33 100  67 101  80 100  90 101
M  END
> <Batch ID>
0123

> <Smiles>
CNC(C)C(=O)NC(C(=O)N1Cc2cc([101O:1][101CH2:1]CCCCC3CC(C[100NH:0][100C:0](=O)N4CCCC(n5nc(-c6ccc(Oc7ccc(F)cc7F)cc6)c(C(N)=O)c5N)C4)CCC3NC(=O)C3CCCNC3)ccc2CC1C(=O)NC1CCCc2ccccc21)C(C)(C)C

> <Shape>
0.244

> <Color>
0.066

> <Negative vol penalty>
0.000

$$$$

  -OEChem-04052320303D

 87 96  0     1  0  0  0  0  0999 V2000
  -23.9619  -29.8541   12.6072 C   0  0  0  0  0  0  0  0  0  0  0  0
  -23.7177  -28.6577   13.2739 C   0  0  0  0  0  0  0  0  0  0  0  0
  -22.9691   -9.9493   19.9937 C   0  0  0  0  0  0  0  0  0  0  0  0
  -23.7099   -9.9810   22.2931 C   0  0  0  0  0  0  0  0  0  0  0  0
  -25.0341  -30.6584   12.9911 C   0  0  0  0  0  0  0  0  0  0  0  0
  -24.5463  -28.2645   14.3242 C   0  0  0  0  0  0  0  0  0  0  0  0
  -22.8962  -25.2127   19.3710 C   0  0  0  0  0  0  0  0  0  0  0  0
  -22.1880   -8.8250   20.2608 C   0  0  0  0  0  0  0  0  0  0  0  0
  -22.9287   -8.8567   22.5602 C   0  0  0  0  0  0  0  0  0  0  0  0
  -22.9717  -23.8647   19.7188 C   0  0  0  0  0  0  0  0  0  0  0  0
  -23.1215   -5.5164   22.0743 C   0  0  0  0  0  0  0  0  0  0  0  0
  -23.6991   -4.4879   22.8187 C   0  0  0  0  0  0  0  0  0  0  0  0
  -25.0487  -24.2846   20.8716 C   0  0  0  0  0  0  0  0  0  0  0  0
  -29.2098  -18.3436   20.9619 C   0  0  0  0  0  0  0  0  0  0  0  0
  -21.9898   -4.7493   24.5060 C   0  0  0  0  0  0  0  0  0  0  0  0
  -23.7301  -10.5273   21.0098 C   0  0  0  0  0  0  0  0  0  0  0  0
  -24.1507  -13.0377   20.8407 C   0  0  0  0  0  0  0  0  0  0  0  0
  -25.8705  -30.2795   14.0529 C   0  0  0  0  0  0  0  0  0  0  0  0
  -23.9037  -26.1062   19.7623 C   0  0  0  0  0  0  0  0  0  0  0  0
  -25.6315  -29.0638   14.7217 C   0  0  0  0  0  0  0  0  0  0  0  0
  -24.9824  -25.6440   20.5297 C   0  0  0  0  0  0  0  0  0  0  0  0
  -28.3072  -20.0643   22.3793 C   0  0  0  0  0  0  0  0  0  0  0  0
  -22.1677   -8.2787   21.5440 C   0  0  0  0  0  0  0  0  0  0  0  0
  -24.0495  -23.3999   20.4667 C   0  0  0  0  0  0  0  0  0  0  0  0
  -21.9781   -6.1614   22.5457 C   0  0  0  0  0  0  0  0  0  0  0  0
  -28.3606  -19.4295   21.1433 C   0  0  0  0  0  0  0  0  0  0  0  0
  -23.1332   -4.1044   24.0346 C   0  0  0  0  0  0  0  0  0  0  0  0
  -21.4122   -5.7779   23.7616 C   0  0  0  0  0  0  0  0  0  0  0  0
  -24.5377  -11.6883   20.7344 C   0  0  0  0  0  0  0  0  0  0  0  0
  -29.9788  -17.9345   22.0394 C   0  0  0  0  0  0  0  0  0  0  0  0
  -29.1164  -19.5780   23.3934 C   0  0  0  0  0  0  0  0  0  0  0  0
  -25.2685  -13.7455   20.4718 C   0  0  0  0  0  0  0  0  0  0  0  0
  -22.8934  -13.6009   21.2376 C   0  0  0  0  0  0  0  0  0  0  0  0
  -25.9904  -27.9468   18.2255 C   0  0  0  0  0  0  0  0  0  0  0  0
  -26.6621  -29.0110   21.2152 C   0  0  0  0  0  0  0  0  0  0  0  0
  -26.6372  -28.4168   24.5758 C   0  0  0  0  0  0  0  0  0  0  0  0
  -30.7793  -14.5995   20.6880 C   0  0  0  0  0  0  0  0  0  0  0  0
  -27.0454  -31.1588   14.4009 C   0  0  0  0  0  0  0  0  0  0  0  0
  -23.7940  -27.5624   19.4018 C   0  0  0  0  0  0  0  0  0  0  0  0
  -26.0796  -26.5664   20.9919 C   0  0  0  0  0  0  0  0  0  0  0  0
  -27.6515  -30.8526   15.7681 C   0  0  0  0  0  0  0  0  0  0  0  0
  -29.5885  -12.2016   18.3409 C   0  0  0  0  0  0  0  0  0  0  0  0
  -27.8381  -29.3490   15.9447 C   0  0  0  0  0  0  0  0  0  0  0  0
  -28.1391  -11.9613   18.7670 C   0  0  0  0  0  0  0  0  0  0  0  0
  -24.1673  -18.8631   18.8465 C   0  0  0  0  0  0  0  0  0  0  0  0
  -30.5020  -12.4193   19.5451 C   0  0  0  0  0  0  0  0  0  0  0  0
  -28.6123  -13.2372   20.8993 C   0  0  0  0  0  0  0  0  0  0  0  0
  -26.4931  -28.6151   15.8821 C   0  0  1  0  0  0  0  0  0  0  0  0
  -25.1378  -28.2843   19.4158 C   0  0  1  0  0  0  0  0  0  0  0  0
  -24.2806  -19.8583   19.9714 C   0  0  1  0  0  0  0  0  0  0  0  0
  -25.4529  -19.6198   19.0551 C   0  0  1  0  0  0  0  0  0  0  0  0
  -27.6430  -13.0680   19.7169 C   0  0  2  0  0  0  0  0  0  0  0  0
  -29.1009  -20.2188   24.7429 C   0  0  0  0  0  0  0  0  0  0  0  0
  -26.1476  -20.8577   23.3759 C   0  0  0  0  0  0  0  0  0  0  0  0
  -27.2859  -29.4576   26.7651 C   0  0  0  0  0  0  0  0  0  0  0  0
  -29.5903  -28.3637   20.6525 C   0  0  0  0  0  0  0  0  0  0  0  0
  -30.0236  -28.5111   23.1140 C   0  0  0  0  0  0  0  0  0  0  0  0
  -29.2129  -30.5155   21.8699 C   0  0  0  0  0  0  0  0  0  0  0  0
  -23.8417  -28.3944   25.5472 C   0  0  0  0  0  0  0  0  0  0  0  0
  -27.4059  -21.2323   22.5969 C   0  0  0  0  0  0  0  0  0  0  0  0
  -30.9013  -16.7725   21.8807 C   0  0  0  0  0  0  0  0  0  0  0  0
  -23.5337  -21.1461   19.9098 C   0  0  0  0  0  0  0  0  0  1  0  0
  -26.6638  -18.9140   19.5588 C   0  0  0  0  0  0  0  0  0  0  0  0
  -27.6215  -28.5999   22.3060 C   0  0  1  0  0  0  0  0  0  0  0  0
  -26.1739  -29.2663   25.7455 C   0  0  2  0  0  0  0  0  0  0  0  0
  -29.0926  -28.9795   21.9754 C   0  0  0  0  0  0  0  0  0  0  0  0
  -25.8024  -11.5450   20.3295 N   0  0  0  0  0  0  0  0  0  0  0  0
  -29.9539  -18.5259   23.2549 N   0  0  0  0  0  0  0  0  0  0  0  0
  -26.2198  -12.8134   20.1781 N   0  0  0  0  0  0  0  0  0  0  0  0
  -25.9305  -27.9801   20.6088 N   0  0  0  0  0  0  0  0  0  0  0  0
  -29.9761  -13.4825   20.4047 N   0  0  0  0  0  0  0  0  0  0  0  0
  -25.5205  -15.0681   20.3732 N   0  0  0  0  0  0  0  0  0  0  0  0
  -21.8511  -12.7305   21.5845 N   0  0  0  0  0  0  0  0  0  0  0  0
  -25.7777  -28.7635   17.1313 N   0  0  0  0  0  0  0  0  0  0  0  0
  -27.1146  -29.1912   23.5396 N   0  0  0  0  0  0  0  0  0  0  0  0
  -30.2022  -15.5637   21.5053 N   0  0  0  0  0  0  0  0  0  0  0  0
  -25.0165  -28.6214   26.4277 N   0  3  0  0  0  0  0  0  0  0  0  0
  -22.6947  -14.8391   21.2673 O   0  0  0  0  0  0  0  0  0  0  0  0
  -26.7836  -27.0153   18.2951 O   0  0  0  0  0  0  0  0  0  0  0  0
  -26.5603  -30.2037   20.9173 O   0  0  0  0  0  0  0  0  0  0  0  0
  -26.5845  -27.1889   24.5822 O   0  0  0  0  0  0  0  0  0  0  0  0
  -31.9239  -14.7305   20.2410 O   0  0  0  0  0  0  0  0  0  0  0  0
  -21.4054   -7.1818   21.8051 O   0  0  0  0  0  0  0  0  0  0  0  0
  -24.1259  -22.0845   20.8070 O   0  0  0  0  0  0  0  0  0  1  0  0
  -27.5882  -19.8584   20.0993 O   0  0  0  0  0  0  0  0  0  0  0  0
  -23.6871   -3.1157   24.7486 F   0  0  0  0  0  0  0  0  0  0  0  0
  -20.3131   -6.3930   24.2191 F   0  0  0  0  0  0  0  0  0  0  0  0
  1  2  1  0  0  0  0
  1  5  2  0  0  0  0
  2  6  2  0  0  0  0
  3  8  2  0  0  0  0
  3 16  1  0  0  0  0
  4  9  1  0  0  0  0
  4 16  2  0  0  0  0
  5 18  1  0  0  0  0
  6 20  1  0  0  0  0
  7 10  2  0  0  0  0
  7 19  1  0  0  0  0
  8 23  1  0  0  0  0
  9 23  2  0  0  0  0
 10 24  1  0  0  0  0
 11 12  2  0  0  0  0
 11 25  1  0  0  0  0
 12 27  1  0  0  0  0
 13 21  1  0  0  0  0
 13 24  2  0  0  0  0
 14 26  2  0  0  0  0
 14 30  1  0  0  0  0
 15 27  2  0  0  0  0
 15 28  1  0  0  0  0
 16 29  1  0  0  0  0
 17 29  1  0  0  0  0
 17 32  2  0  0  0  0
 17 33  1  0  0  0  0
 18 20  2  0  0  0  0
 18 38  1  0  0  0  0
 19 21  2  0  0  0  0
 19 39  1  0  0  0  0
 20 48  1  0  0  0  0
 21 40  1  0  0  0  0
 22 26  1  0  0  0  0
 22 31  2  0  0  0  0
 22 60  1  0  0  0  0
 23 83  1  0  0  0  0
 24 84  1  0  0  0  0
 25 28  2  0  0  0  0
 25 83  1  0  0  0  0
 26 85  1  0  0  0  0
 27 86  1  0  0  0  0
 28 87  1  0  0  0  0
 29 67  2  0  0  0  0
 30 61  1  0  0  0  0
 30 68  2  0  0  0  0
 31 53  1  0  0  0  0
 31 68  1  0  0  0  0
 32 69  1  0  0  0  0
 32 72  1  0  0  0  0
 33 73  1  0  0  0  0
 33 78  2  0  0  0  0
 34 49  1  0  0  0  0
 34 74  1  0  0  0  0
 34 79  2  0  0  0  0
 35 64  1  0  0  0  0
 35 70  1  0  0  0  0
 35 80  2  0  0  0  0
 36 65  1  0  0  0  0
 36 75  1  0  0  0  0
 36 81  2  0  0  0  0
 37 71  1  0  0  0  0
 37 76  1  0  0  0  0
 37 82  2  0  0  0  0
 38 41  1  0  0  0  0
 39 49  1  0  0  0  0
 40 70  1  0  0  0  0
 41 43  1  0  0  0  0
 42 44  1  0  0  0  0
 42 46  1  0  0  0  0
 43 48  1  0  0  0  0
 44 52  1  0  0  0  0
 45 50  1  0  0  0  0
 45 51  1  0  0  0  0
 46 71  1  0  0  0  0
 47 52  1  0  0  0  0
 47 71  1  0  0  0  0
 48 74  1  0  0  0  0
 49 70  1  0  0  0  0
 50 51  1  0  0  0  0
 50 62  1  0  0  0  0
 51 63  1  0  0  0  0
 52 69  1  0  0  0  0
 54 60  1  0  0  0  0
 55 65  1  0  0  0  0
 56 66  1  0  0  0  0
 57 66  1  0  0  0  0
 58 66  1  0  0  0  0
 59 77  1  0  0  0  0
 61 76  1  0  0  0  0
 62 84  1  0  0  0  0
 63 85  1  0  0  0  0
 64 66  1  0  0  0  0
 64 75  1  0  0  0  0
 65 77  1  0  0  0  0
 67 69  1  0  0  0  0
M  CHG  1  77   1
M  ISO  4  37 100  62 101  76 100  84 101
M  END
> <Batch ID>
0123

> <Smiles>
CCc1c(OCC2CC2[101CH2:1][101O:1]c2ccc3c(c2)CN(C(=O)C(NC(=O)C(C)NC)C(C)(C)C)C(C(=O)NC2CCCc4ccccc42)C3)cc(C[100NH:0][100C:0](=O)N2CCCC(n3nc(-c4ccc(Oc5ccc(F)cc5F)cc4)c(C(N)=O)c3N)C2)nc1C

> <Shape>
0.267

> <Color>
0.195

> <Negative vol penalty>
0.000

$$$$

  -OEChem-04052320303D

 90 99  0     1  0  0  0  0  0999 V2000
  -30.4226  -32.2633   25.5589 C   0  0  0  0  0  0  0  0  0  0  0  0
  -29.6931  -31.2720   24.9104 C   0  0  0  0  0  0  0  0  0  0  0  0
  -23.4518   -9.4379   21.7396 C   0  0  0  0  0  0  0  0  0  0  0  0
  -24.2328  -11.0187   23.3914 C   0  0  0  0  0  0  0  0  0  0  0  0
  -29.7623  -33.3419   26.1458 C   0  0  0  0  0  0  0  0  0  0  0  0
  -28.3027  -31.3582   24.8494 C   0  0  0  0  0  0  0  0  0  0  0  0
  -26.4913  -30.3046   20.2392 C   0  0  0  0  0  0  0  0  0  0  0  0
  -22.9246   -8.6386   22.7539 C   0  0  0  0  0  0  0  0  0  0  0  0
  -23.7056  -10.2193   24.4057 C   0  0  0  0  0  0  0  0  0  0  0  0
  -26.4166  -28.9606   19.8763 C   0  0  0  0  0  0  0  0  0  0  0  0
  -20.1828   -8.6107   24.7324 C   0  0  0  0  0  0  0  0  0  0  0  0
  -18.8970   -8.1005   24.5535 C   0  0  0  0  0  0  0  0  0  0  0  0
  -24.0614  -28.9567   20.3978 C   0  0  0  0  0  0  0  0  0  0  0  0
  -19.7678   -5.8521   24.7069 C   0  0  0  0  0  0  0  0  0  0  0  0
  -24.1060  -10.6280   22.0584 C   0  0  0  0  0  0  0  0  0  0  0  0
  -23.9488  -12.0538   19.9489 C   0  0  0  0  0  0  0  0  0  0  0  0
  -28.3637  -33.4464   26.0836 C   0  0  0  0  0  0  0  0  0  0  0  0
  -25.3519  -30.9830   20.6953 C   0  0  0  0  0  0  0  0  0  0  0  0
  -27.6229  -32.4385   25.4372 C   0  0  0  0  0  0  0  0  0  0  0  0
  -24.1236  -30.3101   20.7635 C   0  0  0  0  0  0  0  0  0  0  0  0
  -23.0515   -9.0293   24.0869 C   0  0  0  0  0  0  0  0  0  0  0  0
  -25.2022  -28.2856   19.9583 C   0  0  0  0  0  0  0  0  0  0  0  0
  -21.2612   -7.7416   24.8985 C   0  0  0  0  0  0  0  0  0  0  0  0
  -18.6895   -6.7212   24.5408 C   0  0  0  0  0  0  0  0  0  0  0  0
  -21.0537   -6.3623   24.8858 C   0  0  0  0  0  0  0  0  0  0  0  0
  -24.6512  -11.4538   21.0111 C   0  0  0  0  0  0  0  0  0  0  0  0
  -24.9116  -12.7272   19.2375 C   0  0  0  0  0  0  0  0  0  0  0  0
  -22.5510  -12.0066   19.6334 C   0  0  0  0  0  0  0  0  0  0  0  0
  -24.5343  -32.4221   23.4091 C   0  0  0  0  0  0  0  0  0  0  0  0
  -21.9106  -33.2833   21.7072 C   0  0  0  0  0  0  0  0  0  0  0  0
  -19.8153  -32.6420   19.0908 C   0  0  0  0  0  0  0  0  0  0  0  0
  -30.2539  -14.9820   20.7297 C   0  0  0  0  0  0  0  0  0  0  0  0
  -27.6910  -34.6064   26.7739 C   0  0  0  0  0  0  0  0  0  0  0  0
  -25.4433  -32.4400   21.0576 C   0  0  0  0  0  0  0  0  0  0  0  0
  -22.8669  -30.9984   21.2275 C   0  0  0  0  0  0  0  0  0  0  0  0
  -26.2425  -34.8163   26.3402 C   0  0  0  0  0  0  0  0  0  0  0  0
  -29.5770  -12.5839   18.1865 C   0  0  0  0  0  0  0  0  0  0  0  0
  -25.4908  -33.4890   26.3295 C   0  0  0  0  0  0  0  0  0  0  0  0
  -27.1512  -24.1114   20.9574 C   0  0  0  0  0  0  0  0  0  0  0  0
  -27.9342  -24.6634   18.6168 C   0  0  0  0  0  0  0  0  0  0  0  0
  -28.1744  -12.0765   18.5262 C   0  0  0  0  0  0  0  0  0  0  0  0
  -25.9753  -25.0683   20.7856 C   0  0  0  0  0  0  0  0  0  0  0  0
  -26.7565  -25.6193   18.4518 C   0  0  0  0  0  0  0  0  0  0  0  0
  -30.3941  -12.8688   19.4447 C   0  0  0  0  0  0  0  0  0  0  0  0
  -28.3433  -13.2657   20.7524 C   0  0  0  0  0  0  0  0  0  0  0  0
  -30.7157  -21.3145   21.8938 C   0  0  0  0  0  0  0  0  0  0  0  0
  -26.1152  -32.5094   25.3285 C   0  0  1  0  0  0  0  0  0  0  0  0
  -24.3299  -32.8931   21.9970 C   0  0  1  0  0  0  0  0  0  0  0  0
  -27.6146  -23.5382   19.6108 C   0  0  0  0  0  0  0  0  0  0  0  0
  -30.9923  -19.9107   22.4750 C   0  0  2  0  0  0  0  0  0  0  0  0
  -27.4621  -13.0177   19.5161 C   0  0  2  0  0  0  0  0  0  0  0  0
  -26.2957  -26.1836   19.7940 C   0  0  0  0  0  0  0  0  0  1  0  0
  -29.6277  -19.5254   21.8457 C   0  0  2  0  0  0  0  0  0  0  0  0
  -32.3476  -20.4580   24.5029 C   0  0  0  0  0  0  0  0  0  0  0  0
  -27.8008  -19.9844   18.7726 C   0  0  0  0  0  0  0  0  0  0  0  0
  -17.7375  -33.4996   17.9751 C   0  0  0  0  0  0  0  0  0  0  0  0
  -20.2189  -32.1022   23.9551 C   0  0  0  0  0  0  0  0  0  0  0  0
  -18.2603  -32.1186   22.3956 C   0  0  0  0  0  0  0  0  0  0  0  0
  -19.3642  -34.2634   23.0314 C   0  0  0  0  0  0  0  0  0  0  0  0
  -21.2447  -33.1329   16.5463 C   0  0  0  0  0  0  0  0  0  0  0  0
  -28.8254  -22.6265   19.8009 C   0  0  0  0  0  0  0  0  0  0  0  0
  -31.1026  -19.8073   23.9820 C   0  0  0  0  0  0  0  0  0  0  0  0
  -27.4762  -20.5221   20.1600 C   0  0  0  0  0  0  0  0  0  0  0  0
  -29.9599  -17.0586   22.0565 C   0  0  0  0  0  0  0  0  0  0  0  0
  -20.5502  -32.6772   21.4600 C   0  0  1  0  0  0  0  0  0  0  0  0
  -19.2575  -33.5420   18.0030 C   0  0  2  0  0  0  0  0  0  0  0  0
  -29.5615  -18.1963   21.1198 C   0  0  2  0  0  0  0  0  0  0  0  0
  -28.5612  -21.4415   20.7366 C   0  0  1  0  0  0  0  0  0  0  0  0
  -19.6223  -32.7766   22.7036 C   0  0  0  0  0  0  0  0  0  0  0  0
  -25.9593  -11.7223   20.9811 N   0  0  0  0  0  0  0  0  0  0  0  0
  -26.0865  -12.4983   19.8912 N   0  0  0  0  0  0  0  0  0  0  0  0
  -23.0089  -32.4216   21.5766 N   0  0  0  0  0  0  0  0  0  0  0  0
  -29.6633  -13.7684   20.3406 N   0  0  0  0  0  0  0  0  0  0  0  0
  -24.8593  -13.4867   18.1227 N   0  0  0  0  0  0  0  0  0  0  0  0
  -21.7018  -11.2688   20.4695 N   0  0  0  0  0  0  0  0  0  0  0  0
  -25.7200  -32.8467   23.9777 N   0  0  0  0  0  0  0  0  0  0  0  0
  -20.0228  -33.3308   20.2671 N   0  0  0  0  0  0  0  0  0  0  0  0
  -29.4909  -15.7785   21.5749 N   0  0  0  0  0  0  0  0  0  0  0  0
  -29.8204  -20.6644   20.9195 N   0  3  1  0  0  0  0  0  0  0  0  0
  -19.7642  -33.1161   16.6679 N   0  3  0  0  0  0  0  0  0  0  0  0
  -22.0717  -12.5876   18.6302 O   0  0  0  0  0  0  0  0  0  0  0  0
  -23.6790  -31.7262   23.9437 O   0  0  0  0  0  0  0  0  0  0  0  0
  -21.9961  -34.4790   21.9982 O   0  0  0  0  0  0  0  0  0  0  0  0
  -20.0407  -31.4466   18.9157 O   0  0  0  0  0  0  0  0  0  0  0  0
  -31.3756  -15.3324   20.3477 O   0  0  0  0  0  0  0  0  0  0  0  0
  -30.4767  -18.2239   20.0242 O   0  0  0  0  0  0  0  0  0  0  0  0
  -22.5370   -8.2496   25.0768 O   0  0  0  0  0  0  0  0  0  0  0  0
  -25.1267  -26.9735   19.6053 O   0  0  0  0  0  0  0  0  0  1  0  0
  -17.4545   -6.2314   24.3705 F   0  0  0  0  0  0  0  0  0  0  0  0
  -22.0855   -5.5224   25.0460 F   0  0  0  0  0  0  0  0  0  0  0  0
  1  2  1  0  0  0  0
  1  5  2  0  0  0  0
  2  6  2  0  0  0  0
  3  8  2  0  0  0  0
  3 15  1  0  0  0  0
  4  9  1  0  0  0  0
  4 15  2  0  0  0  0
  5 17  1  0  0  0  0
  6 19  1  0  0  0  0
  7 10  2  0  0  0  0
  7 18  1  0  0  0  0
  8 21  1  0  0  0  0
  9 21  2  0  0  0  0
 10 22  1  0  0  0  0
 11 12  2  0  0  0  0
 11 23  1  0  0  0  0
 12 24  1  0  0  0  0
 13 20  1  0  0  0  0
 13 22  2  0  0  0  0
 14 24  2  0  0  0  0
 14 25  1  0  0  0  0
 15 26  1  0  0  0  0
 16 26  1  0  0  0  0
 16 27  2  0  0  0  0
 16 28  1  0  0  0  0
 17 19  2  0  0  0  0
 17 33  1  0  0  0  0
 18 20  2  0  0  0  0
 18 34  1  0  0  0  0
 19 47  1  0  0  0  0
 20 35  1  0  0  0  0
 21 87  1  0  0  0  0
 22 88  1  0  0  0  0
 23 25  2  0  0  0  0
 23 87  1  0  0  0  0
 24 89  1  0  0  0  0
 25 90  1  0  0  0  0
 26 70  2  0  0  0  0
 27 71  1  0  0  0  0
 27 74  1  0  0  0  0
 28 75  1  0  0  0  0
 28 81  2  0  0  0  0
 29 48  1  0  0  0  0
 29 76  1  0  0  0  0
 29 82  2  0  0  0  0
 30 65  1  0  0  0  0
 30 72  1  0  0  0  0
 30 83  2  0  0  0  0
 31 66  1  0  0  0  0
 31 77  1  0  0  0  0
 31 84  2  0  0  0  0
 32 73  1  0  0  0  0
 32 78  1  0  0  0  0
 32 85  2  0  0  0  0
 33 36  1  0  0  0  0
 34 48  1  0  0  0  0
 35 72  1  0  0  0  0
 36 38  1  0  0  0  0
 37 41  1  0  0  0  0
 37 44  1  0  0  0  0
 38 47  1  0  0  0  0
 39 42  1  0  0  0  0
 39 49  1  0  0  0  0
 40 43  1  0  0  0  0
 40 49  1  0  0  0  0
 41 51  1  0  0  0  0
 42 52  1  0  0  0  0
 43 52  1  0  0  0  0
 44 73  1  0  0  0  0
 45 51  1  0  0  0  0
 45 73  1  0  0  0  0
 46 50  1  0  0  0  0
 46 79  1  0  0  0  0
 47 76  1  0  0  0  0
 48 72  1  0  0  0  0
 49 61  1  0  0  0  0
 50 53  1  0  0  0  0
 50 62  1  0  0  0  0
 51 71  1  0  0  0  0
 52 88  1  0  0  0  0
 53 67  1  0  0  0  0
 53 79  1  0  0  0  0
 54 62  1  0  0  0  0
 55 63  1  0  0  0  0
 56 66  1  0  0  0  0
 57 69  1  0  0  0  0
 58 69  1  0  0  0  0
 59 69  1  0  0  0  0
 60 80  1  0  0  0  0
 61 68  1  0  0  0  0
 63 68  1  0  0  0  0
 64 67  1  0  0  0  0
 64 78  1  0  0  0  0
 65 69  1  0  0  0  0
 65 77  1  0  0  0  0
 66 80  1  0  0  0  0
 67 86  1  0  0  0  0
 68 79  1  0  0  0  0
 70 71  1  0  0  0  0
M  CHG  2  79   1  80   1
M  ISO  4  32 100  52 101  78 100  88 101
M  END
> <Batch ID>
0123

> <Smiles>
CCC1CN(C(CC)CC2CC[101CH:1]([101O:1]c3ccc4c(c3)CN(C(=O)C(NC(=O)C(C)NC)C(C)(C)C)C(C(=O)NC3CCCc5ccccc53)C4)CC2)C1C(O)C[100NH:0][100C:0](=O)N1CCCC(n2nc(-c3ccc(Oc4ccc(F)cc4F)cc3)c(C(N)=O)c2N)C1

> <Shape>
0.291

> <Color>
0.095

> <Negative vol penalty>
0.000

$$$$

  -OEChem-04052320303D

 89 98  0     1  0  0  0  0  0999 V2000
  -16.2468  -29.5111   20.1917 C   0  0  0  0  0  0  0  0  0  0  0  0
  -16.9906  -28.4288   20.6509 C   0  0  0  0  0  0  0  0  0  0  0  0
  -23.1941   -9.8947   19.8985 C   0  0  0  0  0  0  0  0  0  0  0  0
  -23.8465   -9.8275   22.2238 C   0  0  0  0  0  0  0  0  0  0  0  0
  -16.8933  -30.6783   19.7871 C   0  0  0  0  0  0  0  0  0  0  0  0
  -18.3814  -28.5126   20.7048 C   0  0  0  0  0  0  0  0  0  0  0  0
  -22.0645  -25.9604   24.8793 C   0  0  0  0  0  0  0  0  0  0  0  0
  -25.7285  -20.8201   26.0163 C   0  0  0  0  0  0  0  0  0  0  0  0
  -22.4595   -8.7216   20.0707 C   0  0  0  0  0  0  0  0  0  0  0  0
  -23.1119   -8.6543   22.3960 C   0  0  0  0  0  0  0  0  0  0  0  0
  -22.8241  -24.7913   24.8704 C   0  0  0  0  0  0  0  0  0  0  0  0
  -26.6450  -19.7693   25.9788 C   0  0  0  0  0  0  0  0  0  0  0  0
  -19.8736   -7.7843   22.8164 C   0  0  0  0  0  0  0  0  0  0  0  0
  -19.0639   -7.6886   23.9481 C   0  0  0  0  0  0  0  0  0  0  0  0
  -24.7625  -26.0630   24.2034 C   0  0  0  0  0  0  0  0  0  0  0  0
  -25.6627  -20.8491   23.6014 C   0  0  0  0  0  0  0  0  0  0  0  0
  -20.3032   -5.7445   24.6704 C   0  0  0  0  0  0  0  0  0  0  0  0
  -23.8876  -10.4477   20.9751 C   0  0  0  0  0  0  0  0  0  0  0  0
  -24.1909  -12.9806   20.9641 C   0  0  0  0  0  0  0  0  0  0  0  0
  -18.2923  -30.7799   19.8451 C   0  0  0  0  0  0  0  0  0  0  0  0
  -22.6466  -27.1900   24.5391 C   0  0  0  0  0  0  0  0  0  0  0  0
  -19.0473  -29.6818   20.2993 C   0  0  0  0  0  0  0  0  0  0  0  0
  -24.0087  -27.2466   24.2112 C   0  0  0  0  0  0  0  0  0  0  0  0
  -25.2373  -21.3600   24.8276 C   0  0  0  0  0  0  0  0  0  0  0  0
  -26.5792  -19.7983   23.5638 C   0  0  0  0  0  0  0  0  0  0  0  0
  -22.4184   -8.1014   21.3194 C   0  0  0  0  0  0  0  0  0  0  0  0
  -24.1726  -24.8420   24.5297 C   0  0  0  0  0  0  0  0  0  0  0  0
  -27.0704  -19.2584   24.7525 C   0  0  0  0  0  0  0  0  0  0  0  0
  -20.8980   -6.8600   22.6115 C   0  0  0  0  0  0  0  0  0  0  0  0
  -19.2788   -6.6688   24.8752 C   0  0  0  0  0  0  0  0  0  0  0  0
  -21.1128   -5.8401   23.5386 C   0  0  0  0  0  0  0  0  0  0  0  0
  -24.6471  -11.6592   20.7977 C   0  0  0  0  0  0  0  0  0  0  0  0
  -25.2856  -13.7601   20.6804 C   0  0  0  0  0  0  0  0  0  0  0  0
  -22.8936  -13.4605   21.3416 C   0  0  0  0  0  0  0  0  0  0  0  0
  -22.1679  -29.3410   22.2484 C   0  0  0  0  0  0  0  0  0  0  0  0
  -24.3570  -31.0449   23.9296 C   0  0  0  0  0  0  0  0  0  0  0  0
  -26.9629  -31.0381   26.1333 C   0  0  0  0  0  0  0  0  0  0  0  0
  -31.1825  -12.7501   20.9189 C   0  0  0  0  0  0  0  0  0  0  0  0
  -18.9492  -32.0450   19.3524 C   0  0  0  0  0  0  0  0  0  0  0  0
  -21.8200  -28.4460   24.5794 C   0  0  0  0  0  0  0  0  0  0  0  0
  -24.6861  -28.5446   23.8579 C   0  0  0  0  0  0  0  0  0  0  0  0
  -20.4036  -32.1877   19.7936 C   0  0  0  0  0  0  0  0  0  0  0  0
  -29.2990  -13.7735   18.0760 C   0  0  0  0  0  0  0  0  0  0  0  0
  -21.1607  -30.8830   19.5669 C   0  0  0  0  0  0  0  0  0  0  0  0
  -27.8521  -13.4670   18.4662 C   0  0  0  0  0  0  0  0  0  0  0  0
  -30.4779  -16.8957   23.7892 C   0  0  0  0  0  0  0  0  0  0  0  0
  -29.5941  -16.0436   26.0042 C   0  0  0  0  0  0  0  0  0  0  0  0
  -30.3240  -18.3362   24.2820 C   0  0  0  0  0  0  0  0  0  0  0  0
  -29.4432  -17.4837   26.4984 C   0  0  0  0  0  0  0  0  0  0  0  0
  -30.2647  -12.7220   18.6182 C   0  0  0  0  0  0  0  0  0  0  0  0
  -28.7214  -12.1763   20.4605 C   0  0  0  0  0  0  0  0  0  0  0  0
  -20.5563  -29.7432   20.3958 C   0  0  1  0  0  0  0  0  0  0  0  0
  -22.3929  -29.5663   23.7168 C   0  0  1  0  0  0  0  0  0  0  0  0
  -27.7168  -13.2392   19.9838 C   0  0  2  0  0  0  0  0  0  0  0  0
  -30.7008  -15.9386   24.9577 C   0  0  0  0  0  0  0  0  0  0  0  0
  -29.2338  -18.4688   25.3463 C   0  0  0  0  0  0  0  0  0  0  0  0
  -27.0228  -19.2627   22.2424 C   0  0  0  0  0  0  0  0  0  0  0  0
  -28.5707  -32.5809   27.2875 C   0  0  0  0  0  0  0  0  0  0  0  0
  -25.9430  -31.3270   21.3383 C   0  0  0  0  0  0  0  0  0  0  0  0
  -27.9238  -32.0134   22.7070 C   0  0  0  0  0  0  0  0  0  0  0  0
  -25.8499  -33.3993   22.7352 C   0  0  0  0  0  0  0  0  0  0  0  0
  -25.9815  -30.2459   28.8106 C   0  0  0  0  0  0  0  0  0  0  0  0
  -24.2503  -22.4894   24.8687 C   0  0  0  0  0  0  0  0  0  1  0  0
  -31.9507  -12.7505   23.2788 C   0  0  0  0  0  0  0  0  0  0  0  0
  -32.0233  -14.1783   23.7870 C   0  0  0  0  0  0  0  0  0  0  0  0
  -25.8620  -31.1625   23.9136 C   0  0  1  0  0  0  0  0  0  0  0  0
  -27.2320  -31.8650   27.3776 C   0  0  2  0  0  0  0  0  0  0  0  0
  -26.3818  -31.9506   22.6783 C   0  0  0  0  0  0  0  0  0  0  0  0
  -25.9315  -11.5989   20.4361 N   0  0  0  0  0  0  0  0  0  0  0  0
  -26.2916  -12.8921   20.3729 N   0  0  0  0  0  0  0  0  0  0  0  0
  -23.8341  -29.7443   23.9055 N   0  0  0  0  0  0  0  0  0  0  0  0
  -30.0862  -12.5553   20.0626 N   0  0  0  0  0  0  0  0  0  0  0  0
  -25.4760  -15.0965   20.6663 N   0  0  0  0  0  0  0  0  0  0  0  0
  -21.8830  -12.5236   21.5972 N   0  0  0  0  0  0  0  0  0  0  0  0
  -20.9716  -29.8483   21.7782 N   0  0  0  0  0  0  0  0  0  0  0  0
  -26.2396  -31.7456   25.1965 N   0  0  0  0  0  0  0  0  0  0  0  0
  -30.9256  -12.5785   22.2736 N   0  0  0  0  0  0  0  0  0  0  0  0
  -30.7402  -14.5459   24.4376 N   0  3  0  0  0  0  0  0  0  0  0  0
  -27.2458  -30.9930   28.5860 N   0  3  0  0  0  0  0  0  0  0  0  0
  -22.6337  -14.6842   21.4329 O   0  0  0  0  0  0  0  0  0  0  0  0
  -23.0174  -28.7520   21.5903 O   0  0  0  0  0  0  0  0  0  0  0  0
  -23.6708  -32.0692   23.9695 O   0  0  0  0  0  0  0  0  0  0  0  0
  -27.3584  -29.8817   26.0036 O   0  0  0  0  0  0  0  0  0  0  0  0
  -32.3057  -13.0596   20.5070 O   0  0  0  0  0  0  0  0  0  0  0  0
  -21.7015   -6.9567   21.4878 O   0  0  0  0  0  0  0  0  0  0  0  0
  -27.9673  -18.2328   24.7344 O   0  0  0  0  0  0  0  0  0  0  0  0
  -24.9161  -23.7023   24.5196 O   0  0  0  0  0  0  0  0  0  1  0  0
  -18.5022   -6.5780   25.9628 F   0  0  0  0  0  0  0  0  0  0  0  0
  -22.0962   -4.9499   23.3478 F   0  0  0  0  0  0  0  0  0  0  0  0
  1  2  1  0  0  0  0
  1  5  2  0  0  0  0
  2  6  2  0  0  0  0
  3  9  2  0  0  0  0
  3 18  1  0  0  0  0
  4 10  1  0  0  0  0
  4 18  2  0  0  0  0
  5 20  1  0  0  0  0
  6 22  1  0  0  0  0
  7 11  2  0  0  0  0
  7 21  1  0  0  0  0
  8 12  2  0  0  0  0
  8 24  1  0  0  0  0
  9 26  1  0  0  0  0
 10 26  2  0  0  0  0
 11 27  1  0  0  0  0
 12 28  1  0  0  0  0
 13 14  2  0  0  0  0
 13 29  1  0  0  0  0
 14 30  1  0  0  0  0
 15 23  1  0  0  0  0
 15 27  2  0  0  0  0
 16 24  2  0  0  0  0
 16 25  1  0  0  0  0
 17 30  2  0  0  0  0
 17 31  1  0  0  0  0
 18 32  1  0  0  0  0
 19 32  1  0  0  0  0
 19 33  2  0  0  0  0
 19 34  1  0  0  0  0
 20 22  2  0  0  0  0
 20 39  1  0  0  0  0
 21 23  2  0  0  0  0
 21 40  1  0  0  0  0
 22 52  1  0  0  0  0
 23 41  1  0  0  0  0
 24 63  1  0  0  0  0
 25 28  2  0  0  0  0
 25 57  1  0  0  0  0
 26 85  1  0  0  0  0
 27 87  1  0  0  0  0
 28 86  1  0  0  0  0
 29 31  2  0  0  0  0
 29 85  1  0  0  0  0
 30 88  1  0  0  0  0
 31 89  1  0  0  0  0
 32 69  2  0  0  0  0
 33 70  1  0  0  0  0
 33 73  1  0  0  0  0
 34 74  1  0  0  0  0
 34 80  2  0  0  0  0
 35 53  1  0  0  0  0
 35 75  1  0  0  0  0
 35 81  2  0  0  0  0
 36 66  1  0  0  0  0
 36 71  1  0  0  0  0
 36 82  2  0  0  0  0
 37 67  1  0  0  0  0
 37 76  1  0  0  0  0
 37 83  2  0  0  0  0
 38 72  1  0  0  0  0
 38 77  1  0  0  0  0
 38 84  2  0  0  0  0
 39 42  1  0  0  0  0
 40 53  1  0  0  0  0
 41 71  1  0  0  0  0
 42 44  1  0  0  0  0
 43 45  1  0  0  0  0
 43 50  1  0  0  0  0
 44 52  1  0  0  0  0
 45 54  1  0  0  0  0
 46 48  1  0  0  0  0
 46 55  1  0  0  0  0
 47 49  1  0  0  0  0
 47 55  1  0  0  0  0
 48 56  1  0  0  0  0
 49 56  1  0  0  0  0
 50 72  1  0  0  0  0
 51 54  1  0  0  0  0
 51 72  1  0  0  0  0
 52 75  1  0  0  0  0
 53 71  1  0  0  0  0
 54 70  1  0  0  0  0
 55 78  1  0  0  0  0
 56 86  1  0  0  0  0
 58 67  1  0  0  0  0
 59 68  1  0  0  0  0
 60 68  1  0  0  0  0
 61 68  1  0  0  0  0
 62 79  1  0  0  0  0
 63 87  1  0  0  0  0
 64 65  1  0  0  0  0
 64 77  1  0  0  0  0
 65 78  1  0  0  0  0
 66 68  1  0  0  0  0
 66 76  1  0  0  0  0
 67 79  1  0  0  0  0
 69 70  1  0  0  0  0
M  CHG  2  78   1  79   1
M  ISO  4  38 100  63 101  77 100  87 101
M  END
> <Batch ID>
0123

> <Smiles>
CNC(C)C(=O)NC(C(=O)N1Cc2cc([101O:1][101CH2:1]c3ccc(OC4CCC(NCC[100NH:0][100C:0](=O)N5CCCC(n6nc(-c7ccc(Oc8ccc(F)cc8F)cc7)c(C(N)=O)c6N)C5)CC4)c(C)c3)ccc2CC1C(=O)NC1CCCc2ccccc21)C(C)(C)C

> <Shape>
0.246

> <Color>
0.194

> <Negative vol penalty>
0.000

$$$$

  -OEChem-04052320303D

 86 95  0     1  0  0  0  0  0999 V2000
  -26.0674  -38.2541   19.3139 C   0  0  0  0  0  0  0  0  0  0  0  0
  -26.2489  -37.0856   18.5810 C   0  0  0  0  0  0  0  0  0  0  0  0
  -30.9184  -23.0629   20.9478 C   0  0  0  0  0  0  0  0  0  0  0  0
  -24.6346   -8.9972   21.9097 C   0  0  0  0  0  0  0  0  0  0  0  0
  -23.1076   -9.8340   20.2349 C   0  0  0  0  0  0  0  0  0  0  0  0
  -26.2284  -38.2390   20.6988 C   0  0  0  0  0  0  0  0  0  0  0  0
  -26.5925  -35.9016   19.2325 C   0  0  0  0  0  0  0  0  0  0  0  0
  -25.6327  -28.8153   18.8088 C   0  0  0  0  0  0  0  0  0  0  0  0
  -30.1530  -24.2126   21.1429 C   0  0  0  0  0  0  0  0  0  0  0  0
  -30.2963  -21.8584   20.6192 C   0  0  0  0  0  0  0  0  0  0  0  0
  -23.5821   -8.3299   22.5361 C   0  0  0  0  0  0  0  0  0  0  0  0
  -22.0550   -9.1666   20.8613 C   0  0  0  0  0  0  0  0  0  0  0  0
  -26.3642  -27.6285   18.7898 C   0  0  0  0  0  0  0  0  0  0  0  0
  -21.8139   -5.4841   22.0800 C   0  0  0  0  0  0  0  0  0  0  0  0
  -22.0298   -4.1661   22.4823 C   0  0  0  0  0  0  0  0  0  0  0  0
  -26.5379  -27.7041   21.1947 C   0  0  0  0  0  0  0  0  0  0  0  0
  -21.5772   -4.7907   24.7719 C   0  0  0  0  0  0  0  0  0  0  0  0
  -24.3974   -9.7493   20.7591 C   0  0  0  0  0  0  0  0  0  0  0  0
  -26.3235   -9.9411   19.0975 C   0  0  0  0  0  0  0  0  0  0  0  0
  -26.5646  -37.0521   21.3686 C   0  0  0  0  0  0  0  0  0  0  0  0
  -25.3572  -29.4622   20.0221 C   0  0  0  0  0  0  0  0  0  0  0  0
  -26.7594  -35.8709   20.6274 C   0  0  0  0  0  0  0  0  0  0  0  0
  -25.8006  -28.8976   21.2266 C   0  0  0  0  0  0  0  0  0  0  0  0
  -28.7656  -24.1578   21.0096 C   0  0  0  0  0  0  0  0  0  0  0  0
  -28.1436  -22.9532   20.6811 C   0  0  0  0  0  0  0  0  0  0  0  0
  -28.9089  -21.8036   20.4859 C   0  0  0  0  0  0  0  0  0  0  0  0
  -22.2922   -8.4146   22.0119 C   0  0  0  0  0  0  0  0  0  0  0  0
  -26.8194  -27.0743   19.9826 C   0  0  0  0  0  0  0  0  0  0  0  0
  -21.4797   -6.4554   23.0237 C   0  0  0  0  0  0  0  0  0  0  0  0
  -21.9114   -3.8193   23.8282 C   0  0  0  0  0  0  0  0  0  0  0  0
  -21.3613   -6.1087   24.3696 C   0  0  0  0  0  0  0  0  0  0  0  0
  -25.4842  -10.4393   20.1120 C   0  0  0  0  0  0  0  0  0  0  0  0
  -27.1859  -10.9752   18.8266 C   0  0  0  0  0  0  0  0  0  0  0  0
  -26.3235   -8.6582   18.4572 C   0  0  0  0  0  0  0  0  0  0  0  0
  -26.0798  -32.2959   21.2678 C   0  0  0  0  0  0  0  0  0  0  0  0
  -24.0936  -31.3235   23.6410 C   0  0  0  0  0  0  0  0  0  0  0  0
  -22.6279  -28.7351   25.3139 C   0  0  0  0  0  0  0  0  0  0  0  0
  -26.8143  -16.7282   19.2653 C   0  0  0  0  0  0  0  0  0  0  0  0
  -26.7741  -37.0954   22.8616 C   0  0  0  0  0  0  0  0  0  0  0  0
  -24.5440  -30.7275   20.0278 C   0  0  0  0  0  0  0  0  0  0  0  0
  -25.5140  -29.5421   22.5574 C   0  0  0  0  0  0  0  0  0  0  0  0
  -26.7717  -35.7169   23.5172 C   0  0  0  0  0  0  0  0  0  0  0  0
  -29.2520  -14.7705   20.8667 C   0  0  0  0  0  0  0  0  0  0  0  0
  -27.6438  -34.7476   22.7255 C   0  0  0  0  0  0  0  0  0  0  0  0
  -28.6402  -13.3742   20.7573 C   0  0  0  0  0  0  0  0  0  0  0  0
  -28.2002  -15.8334   21.1885 C   0  0  0  0  0  0  0  0  0  0  0  0
  -28.6602  -19.9231   18.8953 C   0  0  0  0  0  0  0  0  0  0  0  0
  -27.8736  -19.7144   21.2583 C   0  0  0  0  0  0  0  0  0  0  0  0
  -27.5802  -18.9329   18.4676 C   0  0  0  0  0  0  0  0  0  0  0  0
  -26.8007  -18.7389   20.7874 C   0  0  0  0  0  0  0  0  0  0  0  0
  -26.4377  -14.4444   20.1481 C   0  0  0  0  0  0  0  0  0  0  0  0
  -27.1082  -34.5613   21.3007 C   0  0  1  0  0  0  0  0  0  0  0  0
  -24.7627  -31.5727   21.2789 C   0  0  1  0  0  0  0  0  0  0  0  0
  -27.4616  -13.3635   19.7677 C   0  0  2  0  0  0  0  0  0  0  0  0
  -21.0838  -28.2519   27.2321 C   0  0  0  0  0  0  0  0  0  0  0  0
  -26.3494  -31.9259   25.6053 C   0  0  0  0  0  0  0  0  0  0  0  0
  -25.1292  -30.5648   27.3162 C   0  0  0  0  0  0  0  0  0  0  0  0
  -24.0766  -32.6240   26.3809 C   0  0  0  0  0  0  0  0  0  0  0  0
  -20.6557  -27.4155   23.5452 C   0  0  0  0  0  0  0  0  0  0  0  0
  -24.6425  -22.8813   21.7530 C   0  0  0  0  0  0  0  0  0  0  0  0
  -27.9698  -25.4035   21.2240 C   0  0  0  0  0  0  0  0  0  1  0  0
  -26.6547  -22.8988   20.5392 C   0  0  0  0  0  0  0  0  0  0  0  0
  -24.2641  -30.5603   24.9323 C   0  0  1  0  0  0  0  0  0  0  0  0
  -21.1894  -28.4933   25.7343 C   0  0  2  0  0  0  0  0  0  0  0  0
  -24.9620  -31.4074   26.0336 C   0  0  0  0  0  0  0  0  0  0  0  0
  -25.7863  -11.6924   20.4620 N   0  0  0  0  0  0  0  0  0  0  0  0
  -26.8251  -11.9903   19.6630 N   0  0  0  0  0  0  0  0  0  0  0  0
  -28.3034  -20.5846   20.1551 N   0  0  0  0  0  0  0  0  0  0  0  0
  -24.7205  -30.7813   22.5102 N   0  0  0  0  0  0  0  0  0  0  0  0
  -27.0778  -15.7580   20.2437 N   0  0  0  0  0  0  0  0  0  0  0  0
  -27.1971  -18.0462   19.5596 N   0  0  0  0  0  0  0  0  0  0  0  0
  -28.2102  -11.1060   17.9571 N   0  0  0  0  0  0  0  0  0  0  0  0
  -25.3691   -7.7125   18.8559 N   0  0  0  0  0  0  0  0  0  0  0  0
  -25.9660  -33.6726   21.3024 N   0  0  0  0  0  0  0  0  0  0  0  0
  -22.9370  -30.0788   25.3001 N   0  0  0  0  0  0  0  0  0  0  0  0
  -20.6357  -27.3044   25.0265 N   0  3  0  0  0  0  0  0  0  0  0  0
  -27.1560   -8.3537   17.5696 O   0  0  0  0  0  0  0  0  0  0  0  0
  -27.1221  -31.6524   21.2321 O   0  0  0  0  0  0  0  0  0  0  0  0
  -23.4228  -32.3587   23.6344 O   0  0  0  0  0  0  0  0  0  0  0  0
  -23.4012  -27.8229   25.0298 O   0  0  0  0  0  0  0  0  0  0  0  0
  -26.2728  -16.4363   18.1917 O   0  0  0  0  0  0  0  0  0  0  0  0
  -21.2649   -7.7634   22.6227 O   0  0  0  0  0  0  0  0  0  0  0  0
  -27.5393  -25.9081   19.9667 O   0  0  0  0  0  0  0  0  0  1  0  0
  -26.0610  -22.9308   21.8294 O   0  0  0  0  0  0  0  0  0  0  0  0
  -22.1173   -2.5533   24.2141 F   0  0  0  0  0  0  0  0  0  0  0  0
  -21.0393   -7.0373   25.2806 F   0  0  0  0  0  0  0  0  0  0  0  0
  1  2  1  0  0  0  0
  1  6  2  0  0  0  0
  2  7  2  0  0  0  0
  3  9  2  0  0  0  0
  3 10  1  0  0  0  0
  4 11  2  0  0  0  0
  4 18  1  0  0  0  0
  5 12  1  0  0  0  0
  5 18  2  0  0  0  0
  6 20  1  0  0  0  0
  7 22  1  0  0  0  0
  8 13  2  0  0  0  0
  8 21  1  0  0  0  0
  9 24  1  0  0  0  0
 10 26  2  0  0  0  0
 11 27  1  0  0  0  0
 12 27  2  0  0  0  0
 13 28  1  0  0  0  0
 14 15  2  0  0  0  0
 14 29  1  0  0  0  0
 15 30  1  0  0  0  0
 16 23  1  0  0  0  0
 16 28  2  0  0  0  0
 17 30  2  0  0  0  0
 17 31  1  0  0  0  0
 18 32  1  0  0  0  0
 19 32  1  0  0  0  0
 19 33  2  0  0  0  0
 19 34  1  0  0  0  0
 20 22  2  0  0  0  0
 20 39  1  0  0  0  0
 21 23  2  0  0  0  0
 21 40  1  0  0  0  0
 22 52  1  0  0  0  0
 23 41  1  0  0  0  0
 24 25  2  0  0  0  0
 24 61  1  0  0  0  0
 25 26  1  0  0  0  0
 25 62  1  0  0  0  0
 26 68  1  0  0  0  0
 27 82  1  0  0  0  0
 28 83  1  0  0  0  0
 29 31  2  0  0  0  0
 29 82  1  0  0  0  0
 30 85  1  0  0  0  0
 31 86  1  0  0  0  0
 32 66  2  0  0  0  0
 33 67  1  0  0  0  0
 33 72  1  0  0  0  0
 34 73  1  0  0  0  0
 34 77  2  0  0  0  0
 35 53  1  0  0  0  0
 35 74  1  0  0  0  0
 35 78  2  0  0  0  0
 36 63  1  0  0  0  0
 36 69  1  0  0  0  0
 36 79  2  0  0  0  0
 37 64  1  0  0  0  0
 37 75  1  0  0  0  0
 37 80  2  0  0  0  0
 38 70  1  0  0  0  0
 38 71  1  0  0  0  0
 38 81  2  0  0  0  0
 39 42  1  0  0  0  0
 40 53  1  0  0  0  0
 41 69  1  0  0  0  0
 42 44  1  0  0  0  0
 43 45  1  0  0  0  0
 43 46  1  0  0  0  0
 44 52  1  0  0  0  0
 45 54  1  0  0  0  0
 46 70  1  0  0  0  0
 47 49  1  0  0  0  0
 47 68  1  0  0  0  0
 48 50  1  0  0  0  0
 48 68  1  0  0  0  0
 49 71  1  0  0  0  0
 50 71  1  0  0  0  0
 51 54  1  0  0  0  0
 51 70  1  0  0  0  0
 52 74  1  0  0  0  0
 53 69  1  0  0  0  0
 54 67  1  0  0  0  0
 55 64  1  0  0  0  0
 56 65  1  0  0  0  0
 57 65  1  0  0  0  0
 58 65  1  0  0  0  0
 59 76  1  0  0  0  0
 60 84  1  0  0  0  0
 61 83  1  0  0  0  0
 62 84  1  0  0  0  0
 63 65  1  0  0  0  0
 63 75  1  0  0  0  0
 64 76  1  0  0  0  0
 66 67  1  0  0  0  0
M  CHG  1  76   1
M  ISO  4  38 100  61 101  71 100  83 101
M  END
> <Batch ID>
0123

> <Smiles>
CNC(C)C(=O)NC(C(=O)N1Cc2cc([101O:1][101CH2:1]c3cccc(N4CC[100N:0]([100C:0](=O)N5CCCC(n6nc(-c7ccc(Oc8ccc(F)cc8F)cc7)c(C(N)=O)c6N)C5)CC4)c3COC)ccc2CC1C(=O)NC1CCCc2ccccc21)C(C)(C)C

> <Shape>
0.309

> <Color>
0.122

> <Negative vol penalty>
0.000

$$$$

  -OEChem-04052320303D

 86 94  0     1  0  0  0  0  0999 V2000
  -17.3770  -30.8756   23.5922 C   0  0  0  0  0  0  0  0  0  0  0  0
  -18.6146  -30.6049   23.0173 C   0  0  0  0  0  0  0  0  0  0  0  0
  -23.0253   -9.9360   19.9207 C   0  0  0  0  0  0  0  0  0  0  0  0
  -23.8852   -9.7946   22.1740 C   0  0  0  0  0  0  0  0  0  0  0  0
  -16.5366  -29.8261   23.9611 C   0  0  0  0  0  0  0  0  0  0  0  0
  -19.0130  -29.2844   22.8121 C   0  0  0  0  0  0  0  0  0  0  0  0
  -22.3813  -27.1342   18.1714 C   0  0  0  0  0  0  0  0  0  0  0  0
  -22.2768   -8.7785   20.1336 C   0  0  0  0  0  0  0  0  0  0  0  0
  -23.1365   -8.6371   22.3871 C   0  0  0  0  0  0  0  0  0  0  0  0
  -23.7384  -26.8359   18.0568 C   0  0  0  0  0  0  0  0  0  0  0  0
  -19.3840   -7.9294   21.6645 C   0  0  0  0  0  0  0  0  0  0  0  0
  -18.0565   -7.9279   21.2362 C   0  0  0  0  0  0  0  0  0  0  0  0
  -27.6098  -21.4663   18.0803 C   0  0  0  0  0  0  0  0  0  0  0  0
  -27.2227  -22.8047   17.8233 C   0  0  0  0  0  0  0  0  0  0  0  0
  -23.2649  -24.5217   18.5463 C   0  0  0  0  0  0  0  0  0  0  0  0
  -18.5298   -6.0625   19.7756 C   0  0  0  0  0  0  0  0  0  0  0  0
  -23.8296  -10.4441   20.9408 C   0  0  0  0  0  0  0  0  0  0  0  0
  -24.2019  -12.9677   20.9580 C   0  0  0  0  0  0  0  0  0  0  0  0
  -16.9207  -28.4923   23.7515 C   0  0  0  0  0  0  0  0  0  0  0  0
  -21.4557  -26.1288   18.4856 C   0  0  0  0  0  0  0  0  0  0  0  0
  -18.1774  -28.2161   23.1798 C   0  0  0  0  0  0  0  0  0  0  0  0
  -21.8963  -24.8094   18.6618 C   0  0  0  0  0  0  0  0  0  0  0  0
  -22.3323   -8.1291   21.3668 C   0  0  0  0  0  0  0  0  0  0  0  0
  -24.1808  -25.5300   18.2471 C   0  0  0  0  0  0  0  0  0  0  0  0
  -20.2844   -6.9974   21.1483 C   0  0  0  0  0  0  0  0  0  0  0  0
  -17.6294   -6.9945   20.2918 C   0  0  0  0  0  0  0  0  0  0  0  0
  -19.8573   -6.0640   20.2039 C   0  0  0  0  0  0  0  0  0  0  0  0
  -24.6036  -11.6394   20.7212 C   0  0  0  0  0  0  0  0  0  0  0  0
  -27.3181  -21.1999   19.3998 C   0  0  0  0  0  0  0  0  0  0  0  0
  -26.7063  -23.3155   18.9937 C   0  0  0  0  0  0  0  0  0  0  0  0
  -25.2877  -13.7251   20.5922 C   0  0  0  0  0  0  0  0  0  0  0  0
  -22.9585  -13.4718   21.4636 C   0  0  0  0  0  0  0  0  0  0  0  0
  -19.4379  -25.6081   20.8858 C   0  0  0  0  0  0  0  0  0  0  0  0
  -18.4819  -23.1256   19.0295 C   0  0  0  0  0  0  0  0  0  0  0  0
  -19.2342  -20.9036   16.5509 C   0  0  0  0  0  0  0  0  0  0  0  0
  -30.7884  -14.6671   20.5964 C   0  0  0  0  0  0  0  0  0  0  0  0
  -15.9984  -27.3905   24.2100 C   0  0  0  0  0  0  0  0  0  0  0  0
  -19.9919  -26.4619   18.5793 C   0  0  0  0  0  0  0  0  0  0  0  0
  -20.9405  -23.6899   18.9807 C   0  0  0  0  0  0  0  0  0  0  0  0
  -16.3364  -26.0260   23.6149 C   0  0  0  0  0  0  0  0  0  0  0  0
  -29.5132  -12.4456   18.1235 C   0  0  0  0  0  0  0  0  0  0  0  0
  -17.8348  -25.7575   23.7125 C   0  0  0  0  0  0  0  0  0  0  0  0
  -28.0921  -12.1428   18.6017 C   0  0  0  0  0  0  0  0  0  0  0  0
  -30.4852  -12.5823   19.2934 C   0  0  0  0  0  0  0  0  0  0  0  0
  -28.6568  -13.2497   20.8051 C   0  0  0  0  0  0  0  0  0  0  0  0
  -18.6345  -26.7973   22.9183 C   0  0  1  0  0  0  0  0  0  0  0  0
  -19.2020  -25.4551   19.4098 C   0  0  1  0  0  0  0  0  0  0  0  0
  -27.6295  -13.1584   19.6637 C   0  0  2  0  0  0  0  0  0  0  0  0
  -27.2248  -25.6616   19.7487 C   0  0  0  0  0  0  0  0  0  0  0  0
  -18.2651  -18.9707   15.2773 C   0  0  0  0  0  0  0  0  0  0  0  0
  -27.4782  -22.3112   22.3099 C   0  0  0  0  0  0  0  0  0  0  0  0
  -25.1707  -21.5155   21.6399 C   0  0  0  0  0  0  0  0  0  0  0  0
  -18.9475  -21.3092   21.4365 C   0  0  0  0  0  0  0  0  0  0  0  0
  -18.8938  -19.3491   19.8798 C   0  0  0  0  0  0  0  0  0  0  0  0
  -16.8783  -20.7978   20.1285 C   0  0  0  0  0  0  0  0  0  0  0  0
  -19.4489  -22.3437   13.9743 C   0  0  0  0  0  0  0  0  0  0  0  0
  -27.5172  -19.9625   20.1822 C   0  0  0  0  0  0  0  0  0  0  0  0
  -30.6323  -17.9478   21.0812 C   0  0  0  0  0  0  0  0  0  0  0  0
  -30.9392  -16.7375   21.9565 C   0  0  0  0  0  0  0  0  0  0  0  0
  -29.1532  -18.3120   21.0978 C   0  0  0  0  0  0  0  0  0  0  0  0
  -26.1471  -24.6888   19.2872 C   0  0  1  0  0  0  0  0  0  1  0  0
  -18.8930  -21.6806   18.8821 C   0  0  1  0  0  0  0  0  0  0  0  0
  -18.4662  -20.4777   15.3127 C   0  0  2  0  0  0  0  0  0  0  0  0
  -26.3250  -22.4660   21.3165 C   0  0  0  0  0  0  0  0  0  0  0  0
  -18.4217  -20.8054   20.0776 C   0  0  0  0  0  0  0  0  0  0  0  0
  -25.8474  -11.5545   20.2418 N   0  0  0  0  0  0  0  0  0  0  0  0
  -26.7696  -22.3313   19.9453 N   0  0  0  0  0  0  0  0  0  0  0  0
  -26.2366  -12.8390   20.1744 N   0  0  0  0  0  0  0  0  0  0  0  0
  -19.5201  -24.0672   19.0681 N   0  0  0  0  0  0  0  0  0  0  0  0
  -29.9888  -13.5613   20.2634 N   0  0  0  0  0  0  0  0  0  0  0  0
  -25.5137  -15.0561   20.5902 N   0  0  0  0  0  0  0  0  0  0  0  0
  -21.9495  -12.5556   21.7904 N   0  0  0  0  0  0  0  0  0  0  0  0
  -18.5828  -26.5013   21.5027 N   0  0  0  0  0  0  0  0  0  0  0  0
  -18.3879  -21.2427   17.5853 N   0  0  0  0  0  0  0  0  0  0  0  0
  -30.2401  -15.5499   21.5188 N   0  0  0  0  0  0  0  0  0  0  0  0
  -19.2024  -20.8826   14.0818 N   0  3  0  0  0  0  0  0  0  0  0  0
  -28.9432  -19.5225   20.2656 N   0  3  0  0  0  0  0  0  0  0  0  0
  -22.7426  -14.6993   21.6055 O   0  0  0  0  0  0  0  0  0  0  0  0
  -20.3287  -24.9624   21.4254 O   0  0  0  0  0  0  0  0  0  0  0  0
  -17.2835  -23.4092   19.1003 O   0  0  0  0  0  0  0  0  0  0  0  0
  -20.4621  -20.9290   16.5972 O   0  0  0  0  0  0  0  0  0  0  0  0
  -31.9057  -14.8567   20.1039 O   0  0  0  0  0  0  0  0  0  0  0  0
  -21.6018   -6.9997   21.5751 O   0  0  0  0  0  0  0  0  0  0  0  0
  -25.5049  -25.2363   18.1364 O   0  0  0  0  0  0  0  0  0  1  0  0
  -16.3543   -6.9922   19.8818 F   0  0  0  0  0  0  0  0  0  0  0  0
  -20.7175   -5.1655   19.7053 F   0  0  0  0  0  0  0  0  0  0  0  0
  1  2  1  0  0  0  0
  1  5  2  0  0  0  0
  2  6  2  0  0  0  0
  3  8  2  0  0  0  0
  3 17  1  0  0  0  0
  4  9  1  0  0  0  0
  4 17  2  0  0  0  0
  5 19  1  0  0  0  0
  6 21  1  0  0  0  0
  7 10  2  0  0  0  0
  7 20  1  0  0  0  0
  8 23  1  0  0  0  0
  9 23  2  0  0  0  0
 10 24  1  0  0  0  0
 11 12  2  0  0  0  0
 11 25  1  0  0  0  0
 12 26  1  0  0  0  0
 13 14  1  0  0  0  0
 13 29  2  0  0  0  0
 14 30  2  0  0  0  0
 15 22  1  0  0  0  0
 15 24  2  0  0  0  0
 16 26  2  0  0  0  0
 16 27  1  0  0  0  0
 17 28  1  0  0  0  0
 18 28  1  0  0  0  0
 18 31  2  0  0  0  0
 18 32  1  0  0  0  0
 19 21  2  0  0  0  0
 19 37  1  0  0  0  0
 20 22  2  0  0  0  0
 20 38  1  0  0  0  0
 21 46  1  0  0  0  0
 22 39  1  0  0  0  0
 23 83  1  0  0  0  0
 24 84  1  0  0  0  0
 25 27  2  0  0  0  0
 25 83  1  0  0  0  0
 26 85  1  0  0  0  0
 27 86  1  0  0  0  0
 28 66  2  0  0  0  0
 29 57  1  0  0  0  0
 29 67  1  0  0  0  0
 30 61  1  0  0  0  0
 30 67  1  0  0  0  0
 31 68  1  0  0  0  0
 31 71  1  0  0  0  0
 32 72  1  0  0  0  0
 32 78  2  0  0  0  0
 33 47  1  0  0  0  0
 33 73  1  0  0  0  0
 33 79  2  0  0  0  0
 34 62  1  0  0  0  0
 34 69  1  0  0  0  0
 34 80  2  0  0  0  0
 35 63  1  0  0  0  0
 35 74  1  0  0  0  0
 35 81  2  0  0  0  0
 36 70  1  0  0  0  0
 36 75  1  0  0  0  0
 36 82  2  0  0  0  0
 37 40  1  0  0  0  0
 38 47  1  0  0  0  0
 39 69  1  0  0  0  0
 40 42  1  0  0  0  0
 41 43  1  0  0  0  0
 41 44  1  0  0  0  0
 42 46  1  0  0  0  0
 43 48  1  0  0  0  0
 44 70  1  0  0  0  0
 45 48  1  0  0  0  0
 45 70  1  0  0  0  0
 46 73  1  0  0  0  0
 47 69  1  0  0  0  0
 48 68  1  0  0  0  0
 49 61  1  0  0  0  0
 50 63  1  0  0  0  0
 51 64  1  0  0  0  0
 52 64  1  0  0  0  0
 53 65  1  0  0  0  0
 54 65  1  0  0  0  0
 55 65  1  0  0  0  0
 56 76  1  0  0  0  0
 57 77  1  0  0  0  0
 58 59  1  0  0  0  0
 58 60  1  0  0  0  0
 59 75  1  0  0  0  0
 60 77  1  0  0  0  0
 61 84  1  0  0  0  0
 62 65  1  0  0  0  0
 62 74  1  0  0  0  0
 63 76  1  0  0  0  0
 64 67  1  0  0  0  0
 66 68  1  0  0  0  0
M  CHG  2  76   1  77   1
M  ISO  4  36 100  61 101  75 100  84 101
M  END
> <Batch ID>
0123

> <Smiles>
CNC(C)C(=O)NC(C(=O)N1Cc2cc([101O:1][101CH:1](C)c3ccc(CNCCC[100NH:0][100C:0](=O)N4CCCC(n5nc(-c6ccc(Oc7ccc(F)cc7F)cc6)c(C(N)=O)c5N)C4)n3C(C)C)ccc2CC1C(=O)NC1CCCc2ccccc21)C(C)(C)C

> <Shape>
0.248

> <Color>
0.208

> <Negative vol penalty>
0.000

$$$$

  -OEChem-04052320303D

 89 98  0     1  0  0  0  0  0999 V2000
  -19.0950  -28.6079   22.9320 C   0  0  0  0  0  0  0  0  0  0  0  0
  -20.4632  -28.3812   22.8221 C   0  0  0  0  0  0  0  0  0  0  0  0
  -28.1109  -17.7117   20.5164 C   0  0  0  0  0  0  0  0  0  0  0  0
  -29.9921  -17.9201   22.0179 C   0  0  0  0  0  0  0  0  0  0  0  0
  -18.1941  -27.5877   22.6297 C   0  0  0  0  0  0  0  0  0  0  0  0
  -20.9313  -27.1338   22.4109 C   0  0  0  0  0  0  0  0  0  0  0  0
  -24.6271  -27.4845   18.9665 C   0  0  0  0  0  0  0  0  0  0  0  0
  -33.9375  -26.6509   19.7214 C   0  0  0  0  0  0  0  0  0  0  0  0
  -28.0786  -16.3366   20.7477 C   0  0  0  0  0  0  0  0  0  0  0  0
  -29.9598  -16.5449   22.2492 C   0  0  0  0  0  0  0  0  0  0  0  0
  -25.9026  -27.8018   19.4314 C   0  0  0  0  0  0  0  0  0  0  0  0
  -32.7451  -27.3889   19.7916 C   0  0  0  0  0  0  0  0  0  0  0  0
  -27.7293  -12.7179   20.6654 C   0  0  0  0  0  0  0  0  0  0  0  0
  -27.5809  -11.8766   19.5628 C   0  0  0  0  0  0  0  0  0  0  0  0
  -26.5185  -25.4725   19.3134 C   0  0  0  0  0  0  0  0  0  0  0  0
  -29.6242  -12.7540   18.6182 C   0  0  0  0  0  0  0  0  0  0  0  0
  -29.0677  -18.5035   21.1515 C   0  0  0  0  0  0  0  0  0  0  0  0
  -28.4184  -20.9235   21.6307 C   0  0  0  0  0  0  0  0  0  0  0  0
  -18.6511  -26.3301   22.2053 C   0  0  0  0  0  0  0  0  0  0  0  0
  -24.2837  -26.1551   18.6815 C   0  0  0  0  0  0  0  0  0  0  0  0
  -20.0357  -26.0954   22.1039 C   0  0  0  0  0  0  0  0  0  0  0  0
  -25.2388  -25.1412   18.8426 C   0  0  0  0  0  0  0  0  0  0  0  0
  -33.2985  -25.4370   21.6753 C   0  0  0  0  0  0  0  0  0  0  0  0
  -32.1095  -26.1724   21.7450 C   0  0  0  0  0  0  0  0  0  0  0  0
  -34.2189  -25.6608   20.6652 C   0  0  0  0  0  0  0  0  0  0  0  0
  -29.0030  -15.7532   21.6141 C   0  0  0  0  0  0  0  0  0  0  0  0
  -26.8477  -26.7954   19.6076 C   0  0  0  0  0  0  0  0  0  0  0  0
  -31.8166  -27.1473   20.8065 C   0  0  0  0  0  0  0  0  0  0  0  0
  -28.8252  -13.5773   20.7444 C   0  0  0  0  0  0  0  0  0  0  0  0
  -28.5283  -11.8946   18.5392 C   0  0  0  0  0  0  0  0  0  0  0  0
  -29.7727  -13.5953   19.7209 C   0  0  0  0  0  0  0  0  0  0  0  0
  -29.1019  -19.9240   20.9126 C   0  0  0  0  0  0  0  0  0  0  0  0
  -28.7806  -22.0968   21.0154 C   0  0  0  0  0  0  0  0  0  0  0  0
  -27.5351  -20.8022   22.7535 C   0  0  0  0  0  0  0  0  0  0  0  0
  -22.1412  -24.0992   19.8158 C   0  0  0  0  0  0  0  0  0  0  0  0
  -23.2193  -22.2368   17.3886 C   0  0  0  0  0  0  0  0  0  0  0  0
  -25.7414  -21.4799   15.2177 C   0  0  0  0  0  0  0  0  0  0  0  0
  -33.5591  -23.6996   17.7830 C   0  0  0  0  0  0  0  0  0  0  0  0
  -17.6405  -25.2436   21.9351 C   0  0  0  0  0  0  0  0  0  0  0  0
  -22.9119  -25.8327   18.1555 C   0  0  0  0  0  0  0  0  0  0  0  0
  -33.3586  -24.4165   22.7676 C   0  0  0  0  0  0  0  0  0  0  0  0
  -31.2637  -25.7110   22.8895 C   0  0  0  0  0  0  0  0  0  0  0  0
  -24.9266  -23.7010   18.5316 C   0  0  0  0  0  0  0  0  0  0  0  0
  -18.2078  -24.0665   21.1460 C   0  0  0  0  0  0  0  0  0  0  0  0
  -32.2986  -24.9578   23.7388 C   0  0  0  0  0  0  0  0  0  0  0  0
  -30.1479  -23.8326   16.7717 C   0  0  0  0  0  0  0  0  0  0  0  0
  -19.5500  -23.6322   21.7263 C   0  0  0  0  0  0  0  0  0  0  0  0
  -29.4313  -22.9361   17.7831 C   0  0  0  0  0  0  0  0  0  0  0  0
  -31.5318  -23.2917   16.4191 C   0  0  0  0  0  0  0  0  0  0  0  0
  -31.6906  -22.1320   18.5880 C   0  0  0  0  0  0  0  0  0  0  0  0
  -20.5815  -24.7633   21.6372 C   0  0  1  0  0  0  0  0  0  0  0  0
  -22.5098  -24.3793   18.3864 C   0  0  1  0  0  0  0  0  0  0  0  0
  -30.3134  -22.6664   19.0170 C   0  0  2  0  0  0  0  0  0  0  0  0
  -26.3444  -19.8829   13.3783 C   0  0  0  0  0  0  0  0  0  0  0  0
  -36.7459  -26.5587   22.0292 C   0  0  0  0  0  0  0  0  0  0  0  0
  -23.7148  -20.0474   19.4552 C   0  0  0  0  0  0  0  0  0  0  0  0
  -25.1584  -18.8832   17.7733 C   0  0  0  0  0  0  0  0  0  0  0  0
  -22.7362  -19.2440   17.2985 C   0  0  0  0  0  0  0  0  0  0  0  0
  -26.0351  -23.6730   13.2523 C   0  0  0  0  0  0  0  0  0  0  0  0
  -35.5221  -24.0184   19.2676 C   0  0  0  0  0  0  0  0  0  0  0  0
  -38.1193  -25.0248   20.5767 C   0  0  0  0  0  0  0  0  0  0  0  0
  -28.6051  -28.3929   19.7319 C   0  0  0  0  0  0  0  0  0  1  0  0
  -30.1155  -28.3133   19.6223 C   0  0  0  0  0  0  0  0  0  0  0  0
  -35.4785  -24.8723   20.5702 C   0  0  1  0  0  0  0  0  0  0  0  0
  -24.3190  -21.2144   17.2328 C   0  0  1  0  0  0  0  0  0  0  0  0
  -25.7417  -21.2369   13.7193 C   0  0  2  0  0  0  0  0  0  0  0  0
  -36.7752  -25.7644   20.7104 C   0  0  1  0  0  0  0  0  0  0  0  0
  -23.9877  -19.8740   17.9478 C   0  0  0  0  0  0  0  0  0  0  0  0
  -29.8422  -20.4191   19.9172 N   0  0  0  0  0  0  0  0  0  0  0  0
  -29.6259  -21.7426   20.0053 N   0  0  0  0  0  0  0  0  0  0  0  0
  -23.5697  -23.4355   18.0259 N   0  0  0  0  0  0  0  0  0  0  0  0
  -32.3181  -23.0589   17.6330 N   0  0  0  0  0  0  0  0  0  0  0  0
  -28.4553  -23.3867   21.2451 N   0  0  0  0  0  0  0  0  0  0  0  0
  -27.2710  -19.5226   23.2607 N   0  0  0  0  0  0  0  0  0  0  0  0
  -21.0978  -24.8715   20.2895 N   0  0  0  0  0  0  0  0  0  0  0  0
  -24.5553  -21.0843   15.7991 N   0  0  0  0  0  0  0  0  0  0  0  0
  -34.2366  -23.4293   18.9656 N   0  0  0  0  0  0  0  0  0  0  0  0
  -38.3473  -24.0792   21.6950 N   0  3  0  0  0  0  0  0  0  0  0  0
  -26.5319  -22.2917   13.0236 N   0  3  0  0  0  0  0  0  0  0  0  0
  -26.9830  -21.7976   23.2808 O   0  0  0  0  0  0  0  0  0  0  0  0
  -22.7568  -23.2445   20.4422 O   0  0  0  0  0  0  0  0  0  0  0  0
  -22.0927  -21.9841   16.9543 O   0  0  0  0  0  0  0  0  0  0  0  0
  -26.6991  -21.9681   15.8135 O   0  0  0  0  0  0  0  0  0  0  0  0
  -34.0261  -24.4606   16.9287 O   0  0  0  0  0  0  0  0  0  0  0  0
  -28.9716  -14.4113   21.8401 O   0  0  0  0  0  0  0  0  0  0  0  0
  -28.0932  -27.1024   20.0618 O   0  0  0  0  0  0  0  0  0  1  0  0
  -30.6480  -27.8604   20.8611 O   0  0  0  0  0  0  0  0  0  0  0  0
  -28.3864  -11.0856   17.4812 F   0  0  0  0  0  0  0  0  0  0  0  0
  -30.8282  -14.4179   19.7918 F   0  0  0  0  0  0  0  0  0  0  0  0
  1  2  1  0  0  0  0
  1  5  2  0  0  0  0
  2  6  2  0  0  0  0
  3  9  2  0  0  0  0
  3 17  1  0  0  0  0
  4 10  1  0  0  0  0
  4 17  2  0  0  0  0
  5 19  1  0  0  0  0
  6 21  1  0  0  0  0
  7 11  2  0  0  0  0
  7 20  1  0  0  0  0
  8 12  2  0  0  0  0
  8 25  1  0  0  0  0
  9 26  1  0  0  0  0
 10 26  2  0  0  0  0
 11 27  1  0  0  0  0
 12 28  1  0  0  0  0
 13 14  2  0  0  0  0
 13 29  1  0  0  0  0
 14 30  1  0  0  0  0
 15 22  1  0  0  0  0
 15 27  2  0  0  0  0
 16 30  2  0  0  0  0
 16 31  1  0  0  0  0
 17 32  1  0  0  0  0
 18 32  1  0  0  0  0
 18 33  2  0  0  0  0
 18 34  1  0  0  0  0
 19 21  2  0  0  0  0
 19 39  1  0  0  0  0
 20 22  2  0  0  0  0
 20 40  1  0  0  0  0
 21 51  1  0  0  0  0
 22 43  1  0  0  0  0
 23 24  1  0  0  0  0
 23 25  2  0  0  0  0
 23 41  1  0  0  0  0
 24 28  2  0  0  0  0
 24 42  1  0  0  0  0
 25 64  1  0  0  0  0
 26 85  1  0  0  0  0
 27 86  1  0  0  0  0
 28 87  1  0  0  0  0
 29 31  2  0  0  0  0
 29 85  1  0  0  0  0
 30 88  1  0  0  0  0
 31 89  1  0  0  0  0
 32 69  2  0  0  0  0
 33 70  1  0  0  0  0
 33 73  1  0  0  0  0
 34 74  1  0  0  0  0
 34 80  2  0  0  0  0
 35 52  1  0  0  0  0
 35 75  1  0  0  0  0
 35 81  2  0  0  0  0
 36 65  1  0  0  0  0
 36 71  1  0  0  0  0
 36 82  2  0  0  0  0
 37 66  1  0  0  0  0
 37 76  1  0  0  0  0
 37 83  2  0  0  0  0
 38 72  1  0  0  0  0
 38 77  1  0  0  0  0
 38 84  2  0  0  0  0
 39 44  1  0  0  0  0
 40 52  1  0  0  0  0
 41 45  1  0  0  0  0
 42 45  1  0  0  0  0
 43 71  1  0  0  0  0
 44 47  1  0  0  0  0
 46 48  1  0  0  0  0
 46 49  1  0  0  0  0
 47 51  1  0  0  0  0
 48 53  1  0  0  0  0
 49 72  1  0  0  0  0
 50 53  1  0  0  0  0
 50 72  1  0  0  0  0
 51 75  1  0  0  0  0
 52 71  1  0  0  0  0
 53 70  1  0  0  0  0
 54 66  1  0  0  0  0
 55 67  1  0  0  0  0
 56 68  1  0  0  0  0
 57 68  1  0  0  0  0
 58 68  1  0  0  0  0
 59 79  1  0  0  0  0
 60 64  1  0  0  0  0
 60 77  1  0  0  0  0
 61 67  1  0  0  0  0
 61 78  1  0  0  0  0
 62 63  1  0  0  0  0
 62 86  1  0  0  0  0
 63 87  1  0  0  0  0
 64 67  1  0  0  0  0
 65 68  1  0  0  0  0
 65 76  1  0  0  0  0
 66 79  1  0  0  0  0
 69 70  1  0  0  0  0
M  CHG  2  78   1  79   1
M  ISO  4  38 100  62 101  77 100  86 101
M  END
> <Batch ID>
0123

> <Smiles>
CNC(C)C(=O)NC(C(=O)N1Cc2cc([101O:1][101CH2:1]COc3ccc(C(C[100NH:0][100C:0](=O)N4CCCC(n5nc(-c6ccc(Oc7ccc(F)cc7F)cc6)c(C(N)=O)c5N)C4)C(C)CN)c4c3CCC4)ccc2CC1C(=O)NC1CCCc2ccccc21)C(C)(C)C

> <Shape>
0.213

> <Color>
0.060

> <Negative vol penalty>
0.000

$$$$

  -OEChem-04052320303D

 82 90  0     1  0  0  0  0  0999 V2000
  -28.6645  -33.3145   14.4919 C   0  0  0  0  0  0  0  0  0  0  0  0
  -28.7820  -31.9660   14.8131 C   0  0  0  0  0  0  0  0  0  0  0  0
  -22.9133  -10.1121   19.9184 C   0  0  0  0  0  0  0  0  0  0  0  0
  -23.8220   -9.7798   22.1322 C   0  0  0  0  0  0  0  0  0  0  0  0
  -28.1876  -34.2171   15.4415 C   0  0  0  0  0  0  0  0  0  0  0  0
  -28.4237  -31.5195   16.0846 C   0  0  0  0  0  0  0  0  0  0  0  0
  -25.8766  -26.1367   17.5141 C   0  0  0  0  0  0  0  0  0  0  0  0
  -22.1213   -8.9744   20.0727 C   0  0  0  0  0  0  0  0  0  0  0  0
  -23.0299   -8.6420   22.2865 C   0  0  0  0  0  0  0  0  0  0  0  0
  -26.4126  -24.9450   18.0002 C   0  0  0  0  0  0  0  0  0  0  0  0
  -23.0883   -5.4119   21.2896 C   0  0  0  0  0  0  0  0  0  0  0  0
  -23.6888   -4.2719   21.8238 C   0  0  0  0  0  0  0  0  0  0  0  0
  -25.8355  -25.6086   20.2465 C   0  0  0  0  0  0  0  0  0  0  0  0
  -27.5990  -19.4897   20.9823 C   0  0  0  0  0  0  0  0  0  0  0  0
  -22.1168   -4.3036   23.6582 C   0  0  0  0  0  0  0  0  0  0  0  0
  -29.7423  -20.0254   20.1014 C   0  0  0  0  0  0  0  0  0  0  0  0
  -23.7637  -10.5148   20.9482 C   0  0  0  0  0  0  0  0  0  0  0  0
  -24.2442  -13.0138   21.1270 C   0  0  0  0  0  0  0  0  0  0  0  0
  -27.8142  -33.7800   16.7221 C   0  0  0  0  0  0  0  0  0  0  0  0
  -25.3249  -27.0798   18.3932 C   0  0  0  0  0  0  0  0  0  0  0  0
  -27.9426  -32.4174   17.0527 C   0  0  0  0  0  0  0  0  0  0  0  0
  -25.2908  -26.8103   19.7688 C   0  0  0  0  0  0  0  0  0  0  0  0
  -27.0884  -20.6129   20.3413 C   0  0  0  0  0  0  0  0  0  0  0  0
  -28.9502  -19.1834   20.8651 C   0  0  0  0  0  0  0  0  0  0  0  0
  -22.1795   -8.2394   21.2567 C   0  0  0  0  0  0  0  0  0  0  0  0
  -26.3947  -24.6820   19.3668 C   0  0  0  0  0  0  0  0  0  0  0  0
  -22.0022   -5.9979   21.9397 C   0  0  0  0  0  0  0  0  0  0  0  0
  -23.2030   -3.7177   23.0081 C   0  0  0  0  0  0  0  0  0  0  0  0
  -21.5164   -5.4437   23.1240 C   0  0  0  0  0  0  0  0  0  0  0  0
  -24.5825  -11.6897   20.7892 C   0  0  0  0  0  0  0  0  0  0  0  0
  -27.9638  -21.3911   19.6011 C   0  0  0  0  0  0  0  0  0  0  0  0
  -25.3520  -13.7495   20.7837 C   0  0  0  0  0  0  0  0  0  0  0  0
  -23.0365  -13.5323   21.7001 C   0  0  0  0  0  0  0  0  0  0  0  0
  -25.9931  -30.0913   19.1601 C   0  0  0  0  0  0  0  0  0  0  0  0
  -23.2546  -29.8506   20.8820 C   0  0  0  0  0  0  0  0  0  0  0  0
  -21.0090  -27.8444   22.4883 C   0  0  0  0  0  0  0  0  0  0  0  0
  -30.8864  -14.4622   20.6996 C   0  0  0  0  0  0  0  0  0  0  0  0
  -27.3487  -34.8004   17.7304 C   0  0  0  0  0  0  0  0  0  0  0  0
  -24.7266  -28.3486   17.8505 C   0  0  0  0  0  0  0  0  0  0  0  0
  -24.6917  -27.7810   20.7524 C   0  0  0  0  0  0  0  0  0  0  0  0
  -26.6367  -34.1871   18.9335 C   0  0  0  0  0  0  0  0  0  0  0  0
  -29.4561  -12.4716   18.1173 C   0  0  0  0  0  0  0  0  0  0  0  0
  -27.4244  -32.9960   19.4698 C   0  0  0  0  0  0  0  0  0  0  0  0
  -28.0356  -12.1950   18.6130 C   0  0  0  0  0  0  0  0  0  0  0  0
  -30.4618  -12.4869   19.2663 C   0  0  0  0  0  0  0  0  0  0  0  0
  -28.7018  -13.1225   20.8701 C   0  0  0  0  0  0  0  0  0  0  0  0
  -27.5407  -31.8907   18.4133 C   0  0  1  0  0  0  0  0  0  0  0  0
  -24.6544  -29.4661   18.8865 C   0  0  1  0  0  0  0  0  0  0  0  0
  -27.6435  -13.1528   19.7542 C   0  0  2  0  0  0  0  0  0  0  0  0
  -25.6418  -20.9465   20.4629 C   0  0  0  0  0  0  0  0  0  0  0  0
  -18.8935  -27.9393   23.8347 C   0  0  0  0  0  0  0  0  0  0  0  0
  -24.8436  -30.8009   23.3072 C   0  0  0  0  0  0  0  0  0  0  0  0
  -22.9806  -29.9777   24.7632 C   0  0  0  0  0  0  0  0  0  0  0  0
  -22.5566  -31.7923   23.1048 C   0  0  0  0  0  0  0  0  0  0  0  0
  -19.5302  -26.2341   20.4936 C   0  0  0  0  0  0  0  0  0  0  0  0
  -27.4688  -22.6149   18.8879 C   0  0  0  0  0  0  0  0  0  1  0  0
  -30.8807  -17.6994   21.4100 C   0  0  0  0  0  0  0  0  0  0  0  0
  -31.1596  -16.4255   22.1929 C   0  0  0  0  0  0  0  0  0  0  0  0
  -22.9103  -29.4255   22.2891 C   0  0  1  0  0  0  0  0  0  0  0  0
  -19.4925  -27.7934   22.4445 C   0  0  2  0  0  0  0  0  0  0  0  0
  -23.3359  -30.4815   23.3480 C   0  0  0  0  0  0  0  0  0  0  0  0
  -29.2822  -21.1254   19.4641 N   0  0  0  0  0  0  0  0  0  0  0  0
  -25.8092  -11.5872   20.2708 N   0  0  0  0  0  0  0  0  0  0  0  0
  -26.2514  -12.8563   20.2803 N   0  0  0  0  0  0  0  0  0  0  0  0
  -24.1250  -29.0103   20.1735 N   0  0  0  0  0  0  0  0  0  0  0  0
  -30.0321  -13.4160   20.3143 N   0  0  0  0  0  0  0  0  0  0  0  0
  -25.6347  -15.0670   20.8662 N   0  0  0  0  0  0  0  0  0  0  0  0
  -21.9975  -12.6379   21.9915 N   0  0  0  0  0  0  0  0  0  0  0  0
  -29.4953  -18.0561   21.5012 N   0  0  0  0  0  0  0  0  0  0  0  0
  -26.3032  -31.1458   18.3227 N   0  0  0  0  0  0  0  0  0  0  0  0
  -21.4830  -29.1235   22.2866 N   0  0  0  0  0  0  0  0  0  0  0  0
  -30.3996  -15.3008   21.6949 N   0  0  0  0  0  0  0  0  0  0  0  0
  -19.0342  -26.4973   21.8690 N   0  3  0  0  0  0  0  0  0  0  0  0
  -22.8770  -14.7548   21.9313 O   0  0  0  0  0  0  0  0  0  0  0  0
  -26.6922  -29.6505   20.0649 O   0  0  0  0  0  0  0  0  0  0  0  0
  -22.7634  -30.8861   20.4259 O   0  0  0  0  0  0  0  0  0  0  0  0
  -21.7036  -26.8498   22.6855 O   0  0  0  0  0  0  0  0  0  0  0  0
  -31.9983  -14.6394   20.1903 O   0  0  0  0  0  0  0  0  0  0  0  0
  -21.4067   -7.1292   21.4077 O   0  0  0  0  0  0  0  0  0  0  0  0
  -26.9178  -23.5199   19.8439 O   0  0  0  0  0  0  0  0  0  1  0  0
  -23.7787   -2.6220   23.5201 F   0  0  0  0  0  0  0  0  0  0  0  0
  -20.4725   -6.0014   23.7525 F   0  0  0  0  0  0  0  0  0  0  0  0
  1  2  1  0  0  0  0
  1  5  2  0  0  0  0
  2  6  2  0  0  0  0
  3  8  2  0  0  0  0
  3 17  1  0  0  0  0
  4  9  1  0  0  0  0
  4 17  2  0  0  0  0
  5 19  1  0  0  0  0
  6 21  1  0  0  0  0
  7 10  2  0  0  0  0
  7 20  1  0  0  0  0
  8 25  1  0  0  0  0
  9 25  2  0  0  0  0
 10 26  1  0  0  0  0
 11 12  2  0  0  0  0
 11 27  1  0  0  0  0
 12 28  1  0  0  0  0
 13 22  1  0  0  0  0
 13 26  2  0  0  0  0
 14 23  1  0  0  0  0
 14 24  2  0  0  0  0
 15 28  2  0  0  0  0
 15 29  1  0  0  0  0
 16 24  1  0  0  0  0
 16 62  2  0  0  0  0
 17 30  1  0  0  0  0
 18 30  1  0  0  0  0
 18 32  2  0  0  0  0
 18 33  1  0  0  0  0
 19 21  2  0  0  0  0
 19 38  1  0  0  0  0
 20 22  2  0  0  0  0
 20 39  1  0  0  0  0
 21 47  1  0  0  0  0
 22 40  1  0  0  0  0
 23 31  2  0  0  0  0
 23 50  1  0  0  0  0
 24 69  1  0  0  0  0
 25 79  1  0  0  0  0
 26 80  1  0  0  0  0
 27 29  2  0  0  0  0
 27 79  1  0  0  0  0
 28 81  1  0  0  0  0
 29 82  1  0  0  0  0
 30 63  2  0  0  0  0
 31 56  1  0  0  0  0
 31 62  1  0  0  0  0
 32 64  1  0  0  0  0
 32 67  1  0  0  0  0
 33 68  1  0  0  0  0
 33 74  2  0  0  0  0
 34 48  1  0  0  0  0
 34 70  1  0  0  0  0
 34 75  2  0  0  0  0
 35 59  1  0  0  0  0
 35 65  1  0  0  0  0
 35 76  2  0  0  0  0
 36 60  1  0  0  0  0
 36 71  1  0  0  0  0
 36 77  2  0  0  0  0
 37 66  1  0  0  0  0
 37 72  1  0  0  0  0
 37 78  2  0  0  0  0
 38 41  1  0  0  0  0
 39 48  1  0  0  0  0
 40 65  1  0  0  0  0
 41 43  1  0  0  0  0
 42 44  1  0  0  0  0
 42 45  1  0  0  0  0
 43 47  1  0  0  0  0
 44 49  1  0  0  0  0
 45 66  1  0  0  0  0
 46 49  1  0  0  0  0
 46 66  1  0  0  0  0
 47 70  1  0  0  0  0
 48 65  1  0  0  0  0
 49 64  1  0  0  0  0
 51 60  1  0  0  0  0
 52 61  1  0  0  0  0
 53 61  1  0  0  0  0
 54 61  1  0  0  0  0
 55 73  1  0  0  0  0
 56 80  1  0  0  0  0
 57 58  1  0  0  0  0
 57 69  1  0  0  0  0
 58 72  1  0  0  0  0
 59 61  1  0  0  0  0
 59 71  1  0  0  0  0
 60 73  1  0  0  0  0
 63 64  1  0  0  0  0
M  CHG  1  73   1
M  ISO  4  37 100  56 101  72 100  80 101
M  END
> <Batch ID>
0123

> <Smiles>
CNC(C)C(=O)NC(C(=O)N1Cc2cc([101O:1][101CH2:1]c3ncc(NCC[100NH:0][100C:0](=O)N4CCCC(n5nc(-c6ccc(Oc7ccc(F)cc7F)cc6)c(C(N)=O)c5N)C4)cc3C)ccc2CC1C(=O)NC1CCCc2ccccc21)C(C)(C)C

> <Shape>
0.356

> <Color>
0.215

> <Negative vol penalty>
0.000

$$$$

  -OEChem-04052320303D

 86 95  0     1  0  0  0  0  0999 V2000
  -25.1719  -20.3017   10.4593 C   0  0  0  0  0  0  0  0  0  0  0  0
  -25.3094  -19.2986   11.4133 C   0  0  0  0  0  0  0  0  0  0  0  0
  -26.5656  -28.4689   19.0182 C   0  0  0  0  0  0  0  0  0  0  0  0
  -26.4706  -27.3822   21.1739 C   0  0  0  0  0  0  0  0  0  0  0  0
  -25.2469  -21.6405   10.8414 C   0  0  0  0  0  0  0  0  0  0  0  0
  -25.5231  -19.6337   12.7499 C   0  0  0  0  0  0  0  0  0  0  0  0
  -23.4527  -16.6368   17.6731 C   0  0  0  0  0  0  0  0  0  0  0  0
  -25.3298  -29.0668   19.2651 C   0  0  0  0  0  0  0  0  0  0  0  0
  -25.2349  -27.9802   21.4209 C   0  0  0  0  0  0  0  0  0  0  0  0
  -24.0495  -15.7101   18.5268 C   0  0  0  0  0  0  0  0  0  0  0  0
  -24.0833  -31.0043   22.3951 C   0  0  0  0  0  0  0  0  0  0  0  0
  -23.8804  -31.5740   23.6520 C   0  0  0  0  0  0  0  0  0  0  0  0
  -24.5964  -17.4870   20.0638 C   0  0  0  0  0  0  0  0  0  0  0  0
  -22.0221  -30.0771   24.0305 C   0  0  0  0  0  0  0  0  0  0  0  0
  -27.1360  -27.6265   19.9725 C   0  0  0  0  0  0  0  0  0  0  0  0
  -29.6841  -27.5223   20.0332 C   0  0  0  0  0  0  0  0  0  0  0  0
  -25.4521  -21.9923   12.1848 C   0  0  0  0  0  0  0  0  0  0  0  0
  -23.4329  -17.9994   18.0039 C   0  0  0  0  0  0  0  0  0  0  0  0
  -25.6023  -20.9784   13.1501 C   0  0  0  0  0  0  0  0  0  0  0  0
  -23.9965  -18.4287   19.2139 C   0  0  0  0  0  0  0  0  0  0  0  0
  -24.6645  -28.8225   20.4665 C   0  0  0  0  0  0  0  0  0  0  0  0
  -24.6240  -16.1355   19.7209 C   0  0  0  0  0  0  0  0  0  0  0  0
  -23.2556  -29.9711   21.9558 C   0  0  0  0  0  0  0  0  0  0  0  0
  -22.8499  -31.1104   24.4697 C   0  0  0  0  0  0  0  0  0  0  0  0
  -22.2250  -29.5075   22.7735 C   0  0  0  0  0  0  0  0  0  0  0  0
  -28.4122  -27.0080   19.7177 C   0  0  0  0  0  0  0  0  0  0  0  0
  -30.5618  -26.5635   19.5895 C   0  0  0  0  0  0  0  0  0  0  0  0
  -30.0404  -28.7563   20.6704 C   0  0  0  0  0  0  0  0  0  0  0  0
  -24.6191  -20.6425   16.6960 C   0  0  0  0  0  0  0  0  0  0  0  0
  -22.9326  -22.0990   19.0533 C   0  0  0  0  0  0  0  0  0  0  0  0
  -21.4878  -21.8863   22.1378 C   0  0  0  0  0  0  0  0  0  0  0  0
  -29.9614  -20.7431   18.8032 C   0  0  0  0  0  0  0  0  0  0  0  0
  -25.5733  -23.4524   12.5425 C   0  0  0  0  0  0  0  0  0  0  0  0
  -22.7616  -18.9830   17.0849 C   0  0  0  0  0  0  0  0  0  0  0  0
  -23.9836  -19.8777   19.6247 C   0  0  0  0  0  0  0  0  0  0  0  0
  -25.4278  -23.7276   14.0370 C   0  0  0  0  0  0  0  0  0  0  0  0
  -23.9088  -11.7030   20.3972 C   0  0  0  0  0  0  0  0  0  0  0  0
  -25.1536  -11.0273   20.9645 C   0  0  0  0  0  0  0  0  0  0  0  0
  -30.9988  -23.1277   16.2862 C   0  0  0  0  0  0  0  0  0  0  0  0
  -26.2712  -22.7464   14.8449 C   0  0  0  0  0  0  0  0  0  0  0  0
  -30.5673  -24.4497   16.9235 C   0  0  0  0  0  0  0  0  0  0  0  0
  -23.9197  -13.2037   20.6637 C   0  0  0  0  0  0  0  0  0  0  0  0
  -26.4281  -11.6755   20.4368 C   0  0  0  0  0  0  0  0  0  0  0  0
  -29.8146  -15.6426   19.8081 C   0  0  0  0  0  0  0  0  0  0  0  0
  -29.9906  -22.0195   16.5755 C   0  0  0  0  0  0  0  0  0  0  0  0
  -29.2811  -23.1222   18.6622 C   0  0  0  0  0  0  0  0  0  0  0  0
  -30.3048  -14.6406   17.7105 C   0  0  0  0  0  0  0  0  0  0  0  0
  -25.8105  -21.3022   14.6136 C   0  0  1  0  0  0  0  0  0  0  0  0
  -23.2534  -20.4140   17.2792 C   0  0  1  0  0  0  0  0  0  0  0  0
  -30.6803  -15.8378   18.5694 C   0  0  1  0  0  0  0  0  0  0  0  0
  -30.2706  -24.2774   18.4250 C   0  0  2  0  0  0  0  0  0  0  0  0
  -25.1957  -13.8665   20.1454 C   0  0  2  0  0  0  0  0  0  1  0  0
  -26.4503  -13.1822   20.6916 C   0  0  2  0  0  0  0  0  0  0  0  0
  -29.9462  -14.1495   20.0791 C   0  0  1  0  0  0  0  0  0  0  0  0
  -20.2152  -23.2515   23.8153 C   0  0  0  0  0  0  0  0  0  0  0  0
  -25.5118  -23.5226   19.8475 C   0  0  0  0  0  0  0  0  0  0  0  0
  -24.4376  -24.1002   22.0340 C   0  0  0  0  0  0  0  0  0  0  0  0
  -23.4666  -24.9608   19.9035 C   0  0  0  0  0  0  0  0  0  0  0  0
  -19.1452  -20.0828   22.0014 C   0  0  0  0  0  0  0  0  0  0  0  0
  -30.4417  -17.1660   17.8730 C   0  0  0  0  0  0  0  0  0  0  0  0
  -28.7688  -13.5475   20.8160 C   0  0  0  0  0  0  0  0  0  0  0  0
  -30.6687  -18.3648   18.7886 C   0  0  0  0  0  0  0  0  0  0  0  0
  -23.2214  -22.5107   20.4767 C   0  0  1  0  0  0  0  0  0  0  0  0
  -20.1138  -22.2957   22.6369 C   0  0  2  0  0  0  0  0  0  0  0  0
  -24.1615  -23.7465   20.5570 C   0  0  0  0  0  0  0  0  0  0  0  0
  -28.4720  -25.8153   19.1197 N   0  0  0  0  0  0  0  0  0  0  0  0
  -29.7922  -25.5721   19.0557 N   0  0  0  0  0  0  0  0  0  0  0  0
  -23.3210  -20.8018   18.6896 N   0  0  0  0  0  0  0  0  0  0  0  0
  -29.7669  -21.8949   18.0227 N   0  0  0  0  0  0  0  0  0  0  0  0
  -31.9091  -26.4803   19.6076 N   0  0  0  0  0  0  0  0  0  0  0  0
  -29.0140  -29.6262   21.0629 N   0  0  0  0  0  0  0  0  0  0  0  0
  -24.6070  -21.0285   15.3692 N   0  0  0  0  0  0  0  0  0  0  0  0
  -21.9247  -22.7037   21.1168 N   0  0  0  0  0  0  0  0  0  0  0  0
  -30.4164  -19.6219   18.1201 N   0  0  0  0  0  0  0  0  0  0  0  0
  -30.0662  -13.5392   18.7054 N   0  3  0  0  0  0  0  0  0  0  0  0
  -19.3414  -21.0968   23.0693 N   0  3  0  0  0  0  0  0  0  0  0  0
  -31.2342  -29.0854   20.8705 O   0  0  0  0  0  0  0  0  0  0  0  0
  -25.6105  -20.4822   17.3982 O   0  0  0  0  0  0  0  0  0  0  0  0
  -22.3762  -22.8964   18.2941 O   0  0  0  0  0  0  0  0  0  0  0  0
  -22.1126  -20.9387   22.6091 O   0  0  0  0  0  0  0  0  0  0  0  0
  -29.7504  -20.7172   20.0205 O   0  0  0  0  0  0  0  0  0  0  0  0
  -23.4588  -29.4060   20.7080 O   0  0  0  0  0  0  0  0  0  0  0  0
  -25.2078  -15.2330   20.5556 O   0  0  0  0  0  0  0  0  0  1  0  0
  -27.5923  -13.7448   20.0471 O   0  0  0  0  0  0  0  0  0  0  0  0
  -22.6561  -31.6565   25.6774 F   0  0  0  0  0  0  0  0  0  0  0  0
  -21.4273  -28.5144   22.3574 F   0  0  0  0  0  0  0  0  0  0  0  0
  1  2  1  0  0  0  0
  1  5  2  0  0  0  0
  2  6  2  0  0  0  0
  3  8  2  0  0  0  0
  3 15  1  0  0  0  0
  4  9  1  0  0  0  0
  4 15  2  0  0  0  0
  5 17  1  0  0  0  0
  6 19  1  0  0  0  0
  7 10  2  0  0  0  0
  7 18  1  0  0  0  0
  8 21  1  0  0  0  0
  9 21  2  0  0  0  0
 10 22  1  0  0  0  0
 11 12  2  0  0  0  0
 11 23  1  0  0  0  0
 12 24  1  0  0  0  0
 13 20  1  0  0  0  0
 13 22  2  0  0  0  0
 14 24  2  0  0  0  0
 14 25  1  0  0  0  0
 15 26  1  0  0  0  0
 16 26  1  0  0  0  0
 16 27  2  0  0  0  0
 16 28  1  0  0  0  0
 17 19  2  0  0  0  0
 17 33  1  0  0  0  0
 18 20  2  0  0  0  0
 18 34  1  0  0  0  0
 19 48  1  0  0  0  0
 20 35  1  0  0  0  0
 21 82  1  0  0  0  0
 22 83  1  0  0  0  0
 23 25  2  0  0  0  0
 23 82  1  0  0  0  0
 24 85  1  0  0  0  0
 25 86  1  0  0  0  0
 26 66  2  0  0  0  0
 27 67  1  0  0  0  0
 27 70  1  0  0  0  0
 28 71  1  0  0  0  0
 28 77  2  0  0  0  0
 29 49  1  0  0  0  0
 29 72  1  0  0  0  0
 29 78  2  0  0  0  0
 30 63  1  0  0  0  0
 30 68  1  0  0  0  0
 30 79  2  0  0  0  0
 31 64  1  0  0  0  0
 31 73  1  0  0  0  0
 31 80  2  0  0  0  0
 32 69  1  0  0  0  0
 32 74  1  0  0  0  0
 32 81  2  0  0  0  0
 33 36  1  0  0  0  0
 34 49  1  0  0  0  0
 35 68  1  0  0  0  0
 36 40  1  0  0  0  0
 37 38  1  0  0  0  0
 37 42  1  0  0  0  0
 38 43  1  0  0  0  0
 39 41  1  0  0  0  0
 39 45  1  0  0  0  0
 40 48  1  0  0  0  0
 41 51  1  0  0  0  0
 42 52  1  0  0  0  0
 43 53  1  0  0  0  0
 44 50  1  0  0  0  0
 44 54  1  0  0  0  0
 45 69  1  0  0  0  0
 46 51  1  0  0  0  0
 46 69  1  0  0  0  0
 47 50  1  0  0  0  0
 47 75  1  0  0  0  0
 48 72  1  0  0  0  0
 49 68  1  0  0  0  0
 50 60  1  0  0  0  0
 51 67  1  0  0  0  0
 52 53  1  0  0  0  0
 52 83  1  0  0  0  0
 53 84  1  0  0  0  0
 54 61  1  0  0  0  0
 54 75  1  0  0  0  0
 55 64  1  0  0  0  0
 56 65  1  0  0  0  0
 57 65  1  0  0  0  0
 58 65  1  0  0  0  0
 59 76  1  0  0  0  0
 60 62  1  0  0  0  0
 61 84  1  0  0  0  0
 62 74  1  0  0  0  0
 63 65  1  0  0  0  0
 63 73  1  0  0  0  0
 64 76  1  0  0  0  0
 66 67  1  0  0  0  0
M  CHG  2  75   1  76   1
M  ISO  4  32 100  52 101  74 100  83 101
M  END
> <Batch ID>
0123

> <Smiles>
CNC(C)C(=O)NC(C(=O)N1Cc2cc([101O:1][101CH:1]3CCCCC3OCC3CC(CC[100NH:0][100C:0](=O)N4CCCC(n5nc(-c6ccc(Oc7ccc(F)cc7F)cc6)c(C(N)=O)c5N)C4)CN3)ccc2CC1C(=O)NC1CCCc2ccccc21)C(C)(C)C

> <Shape>
0.210

> <Color>
0.072

> <Negative vol penalty>
0.000

$$$$

  -OEChem-04052320303D

 86 95  0     1  0  0  0  0  0999 V2000
  -23.7095  -33.3806   25.0425 C   0  0  0  0  0  0  0  0  0  0  0  0
  -24.4827  -32.3202   24.5809 C   0  0  0  0  0  0  0  0  0  0  0  0
  -24.2943  -12.4253   20.8088 C   0  0  0  0  0  0  0  0  0  0  0  0
  -22.9914  -14.1867   21.8271 C   0  0  0  0  0  0  0  0  0  0  0  0
  -22.3269  -33.2379   25.1518 C   0  0  0  0  0  0  0  0  0  0  0  0
  -23.8738  -31.1160   24.2292 C   0  0  0  0  0  0  0  0  0  0  0  0
  -25.7026  -22.8206   23.3800 C   0  0  0  0  0  0  0  0  0  0  0  0
  -25.6353  -29.2507   19.8631 C   0  0  0  0  0  0  0  0  0  0  0  0
  -26.8373  -23.4493   23.8925 C   0  0  0  0  0  0  0  0  0  0  0  0
  -23.8041  -11.5191   21.7491 C   0  0  0  0  0  0  0  0  0  0  0  0
  -22.5012  -13.2805   22.7673 C   0  0  0  0  0  0  0  0  0  0  0  0
  -26.8714  -28.6069   19.8983 C   0  0  0  0  0  0  0  0  0  0  0  0
  -20.9711   -9.7445   22.2570 C   0  0  0  0  0  0  0  0  0  0  0  0
  -20.5439   -8.4994   21.7959 C   0  0  0  0  0  0  0  0  0  0  0  0
  -25.7513  -26.4707   19.9317 C   0  0  0  0  0  0  0  0  0  0  0  0
  -28.2386  -22.0410   22.5177 C   0  0  0  0  0  0  0  0  0  0  0  0
  -22.1870   -7.4166   23.1977 C   0  0  0  0  0  0  0  0  0  0  0  0
  -23.8880  -13.7591   20.8478 C   0  0  0  0  0  0  0  0  0  0  0  0
  -23.8348  -15.0069   18.6234 C   0  0  0  0  0  0  0  0  0  0  0  0
  -21.6997  -32.0346   24.7921 C   0  0  0  0  0  0  0  0  0  0  0  0
  -24.4456  -28.5083   19.8729 C   0  0  0  0  0  0  0  0  0  0  0  0
  -22.4817  -30.9567   24.3350 C   0  0  0  0  0  0  0  0  0  0  0  0
  -25.8358  -21.8020   22.4364 C   0  0  0  0  0  0  0  0  0  0  0  0
  -24.5013  -27.1074   19.8940 C   0  0  0  0  0  0  0  0  0  0  0  0
  -28.1053  -23.0596   23.4614 C   0  0  0  0  0  0  0  0  0  0  0  0
  -27.1038  -21.4123   22.0052 C   0  0  0  0  0  0  0  0  0  0  0  0
  -22.9075  -11.9467   22.7283 C   0  0  0  0  0  0  0  0  0  0  0  0
  -26.9296  -27.2169   19.9356 C   0  0  0  0  0  0  0  0  0  0  0  0
  -22.0063   -9.8258   23.1884 C   0  0  0  0  0  0  0  0  0  0  0  0
  -21.1519   -7.3354   22.2662 C   0  0  0  0  0  0  0  0  0  0  0  0
  -22.6143   -8.6618   23.6587 C   0  0  0  0  0  0  0  0  0  0  0  0
  -24.3945  -14.6958   19.8771 C   0  0  0  0  0  0  0  0  0  0  0  0
  -24.6852  -15.9449   18.0910 C   0  0  0  0  0  0  0  0  0  0  0  0
  -22.6520  -14.4939   17.9962 C   0  0  0  0  0  0  0  0  0  0  0  0
  -21.9594  -28.2814   21.8404 C   0  0  0  0  0  0  0  0  0  0  0  0
  -20.7657  -26.3948   19.4870 C   0  0  0  0  0  0  0  0  0  0  0  0
  -21.3747  -24.3612   16.8149 C   0  0  0  0  0  0  0  0  0  0  0  0
  -28.4583  -19.8854   20.5286 C   0  0  0  0  0  0  0  0  0  0  0  0
  -20.2073  -31.9118   24.9721 C   0  0  0  0  0  0  0  0  0  0  0  0
  -23.1206  -29.2171   19.8076 C   0  0  0  0  0  0  0  0  0  0  0  0
  -23.2535  -26.2639   19.8855 C   0  0  0  0  0  0  0  0  0  0  0  0
  -19.5989  -30.7284   24.2241 C   0  0  0  0  0  0  0  0  0  0  0  0
  -29.2693  -17.3275   18.1883 C   0  0  0  0  0  0  0  0  0  0  0  0
  -24.3807  -21.1141   20.4157 C   0  0  0  0  0  0  0  0  0  0  0  0
  -23.5344  -21.9981   21.2774 C   0  0  0  0  0  0  0  0  0  0  0  0
  -20.4280  -29.4687   24.4533 C   0  0  0  0  0  0  0  0  0  0  0  0
  -28.0576  -16.3939   18.2372 C   0  0  0  0  0  0  0  0  0  0  0  0
  -29.6004  -17.8996   19.5656 C   0  0  0  0  0  0  0  0  0  0  0  0
  -27.2666  -17.6172   20.3024 C   0  0  0  0  0  0  0  0  0  0  0  0
  -24.6048  -21.1452   21.9037 C   0  0  0  0  0  0  0  0  0  0  0  0
  -21.8552  -29.6430   23.9203 C   0  0  1  0  0  0  0  0  0  0  0  0
  -21.9656  -28.3750   20.3407 C   0  0  1  0  0  0  0  0  0  0  0  0
  -26.8549  -17.0672   18.9270 C   0  0  2  0  0  0  0  0  0  0  0  0
  -20.2003  -22.9337   15.1178 C   0  0  0  0  0  0  0  0  0  0  0  0
  -20.3139  -24.2488   21.6084 C   0  0  0  0  0  0  0  0  0  0  0  0
  -20.0544  -22.5774   19.7625 C   0  0  0  0  0  0  0  0  0  0  0  0
  -18.4566  -24.4838   19.9502 C   0  0  0  0  0  0  0  0  0  0  0  0
  -22.4097  -25.9815   14.5649 C   0  0  0  0  0  0  0  0  0  0  0  0
  -30.1396  -26.2738   21.2614 C   0  0  0  0  0  0  0  0  0  0  0  0
  -30.1802  -24.4385   22.9551 C   0  0  0  0  0  0  0  0  0  0  0  0
  -29.2109  -27.2761   20.6049 C   0  0  0  0  0  0  0  0  0  1  0  0
  -29.3334  -23.7410   24.0154 C   0  0  1  0  0  0  0  0  0  0  0  0
  -20.8207  -24.9204   19.1675 C   0  0  1  0  0  0  0  0  0  0  0  0
  -20.7633  -24.3123   15.4263 C   0  0  2  0  0  0  0  0  0  0  0  0
  -19.9351  -24.0733   20.1243 C   0  0  0  0  0  0  0  0  0  0  0  0
  -25.5140  -15.3805   20.1263 N   0  0  0  0  0  0  0  0  0  0  0  0
  -25.6646  -16.1311   19.0217 N   0  0  0  0  0  0  0  0  0  0  0  0
  -21.9819  -27.0036   19.8274 N   0  0  0  0  0  0  0  0  0  0  0  0
  -28.4151  -18.5252   20.1560 N   0  0  0  0  0  0  0  0  0  0  0  0
  -24.6834  -16.6202   16.9221 N   0  0  0  0  0  0  0  0  0  0  0  0
  -21.8939  -13.5355   18.6825 N   0  0  0  0  0  0  0  0  0  0  0  0
  -27.2622  -20.3789   21.0487 N   0  0  0  0  0  0  0  0  0  0  0  0
  -21.8774  -29.5036   22.4800 N   0  0  0  0  0  0  0  0  0  0  0  0
  -20.4668  -24.7948   17.7577 N   0  0  0  0  0  0  0  0  0  0  0  0
  -21.7890  -24.6423   14.3967 N   0  3  0  0  0  0  0  0  0  0  0  0
  -29.3786  -25.4818   22.2603 N   0  3  0  0  0  0  0  0  0  0  0  0
  -22.2873  -14.8622   16.8539 O   0  0  0  0  0  0  0  0  0  0  0  0
  -22.0227  -27.1817   22.3774 O   0  0  0  0  0  0  0  0  0  0  0  0
  -19.6846  -26.9862   19.4295 O   0  0  0  0  0  0  0  0  0  0  0  0
  -22.5400  -24.0428   17.0412 O   0  0  0  0  0  0  0  0  0  0  0  0
  -29.4726  -20.5696   20.3707 O   0  0  0  0  0  0  0  0  0  0  0  0
  -22.4288  -11.0627   23.6458 O   0  0  0  0  0  0  0  0  0  0  0  0
  -28.1348  -26.5860   19.9707 O   0  0  0  0  0  0  0  0  0  1  0  0
  -20.7405   -6.1396   21.8245 F   0  0  0  0  0  0  0  0  0  0  0  0
  -23.6084   -8.7334   24.5545 F   0  0  0  0  0  0  0  0  0  0  0  0
  -29.0443  -24.6561   24.9891 F   0  0  0  0  0  0  0  0  0  0  0  0
  1  2  1  0  0  0  0
  1  5  2  0  0  0  0
  2  6  2  0  0  0  0
  3 10  2  0  0  0  0
  3 18  1  0  0  0  0
  4 11  1  0  0  0  0
  4 18  2  0  0  0  0
  5 20  1  0  0  0  0
  6 22  1  0  0  0  0
  7  9  2  0  0  0  0
  7 23  1  0  0  0  0
  8 12  2  0  0  0  0
  8 21  1  0  0  0  0
  9 25  1  0  0  0  0
 10 27  1  0  0  0  0
 11 27  2  0  0  0  0
 12 28  1  0  0  0  0
 13 14  2  0  0  0  0
 13 29  1  0  0  0  0
 14 30  1  0  0  0  0
 15 24  1  0  0  0  0
 15 28  2  0  0  0  0
 16 25  2  0  0  0  0
 16 26  1  0  0  0  0
 17 30  2  0  0  0  0
 17 31  1  0  0  0  0
 18 32  1  0  0  0  0
 19 32  1  0  0  0  0
 19 33  2  0  0  0  0
 19 34  1  0  0  0  0
 20 22  2  0  0  0  0
 20 39  1  0  0  0  0
 21 24  2  0  0  0  0
 21 40  1  0  0  0  0
 22 51  1  0  0  0  0
 23 26  2  0  0  0  0
 23 50  1  0  0  0  0
 24 41  1  0  0  0  0
 25 62  1  0  0  0  0
 26 72  1  0  0  0  0
 27 82  1  0  0  0  0
 28 83  1  0  0  0  0
 29 31  2  0  0  0  0
 29 82  1  0  0  0  0
 30 84  1  0  0  0  0
 31 85  1  0  0  0  0
 32 66  2  0  0  0  0
 33 67  1  0  0  0  0
 33 70  1  0  0  0  0
 34 71  1  0  0  0  0
 34 77  2  0  0  0  0
 35 52  1  0  0  0  0
 35 73  1  0  0  0  0
 35 78  2  0  0  0  0
 36 63  1  0  0  0  0
 36 68  1  0  0  0  0
 36 79  2  0  0  0  0
 37 64  1  0  0  0  0
 37 74  1  0  0  0  0
 37 80  2  0  0  0  0
 38 69  1  0  0  0  0
 38 72  1  0  0  0  0
 38 81  2  0  0  0  0
 39 42  1  0  0  0  0
 40 52  1  0  0  0  0
 41 68  1  0  0  0  0
 42 46  1  0  0  0  0
 43 47  1  0  0  0  0
 43 48  1  0  0  0  0
 44 45  1  0  0  0  0
 44 50  1  0  0  0  0
 45 50  1  0  0  0  0
 46 51  1  0  0  0  0
 47 53  1  0  0  0  0
 48 69  1  0  0  0  0
 49 53  1  0  0  0  0
 49 69  1  0  0  0  0
 51 73  1  0  0  0  0
 52 68  1  0  0  0  0
 53 67  1  0  0  0  0
 54 64  1  0  0  0  0
 55 65  1  0  0  0  0
 56 65  1  0  0  0  0
 57 65  1  0  0  0  0
 58 75  1  0  0  0  0
 59 61  1  0  0  0  0
 59 76  1  0  0  0  0
 60 62  1  0  0  0  0
 60 76  1  0  0  0  0
 61 83  1  0  0  0  0
 62 86  1  0  0  0  0
 63 65  1  0  0  0  0
 63 74  1  0  0  0  0
 64 75  1  0  0  0  0
 66 67  1  0  0  0  0
M  CHG  2  75   1  76   1
M  ISO  4  38 100  61 101  72 100  83 101
M  END
> <Batch ID>
0123

> <Smiles>
CNC(C)C(=O)NC(C(=O)N1Cc2cc([101O:1][101CH2:1]CNCC(F)c3ccc(C4CC4)c([100NH:0][100C:0](=O)N4CCCC(n5nc(-c6ccc(Oc7ccc(F)cc7F)cc6)c(C(N)=O)c5N)C4)c3)ccc2CC1C(=O)NC1CCCc2ccccc21)C(C)(C)C

> <Shape>
0.200

> <Color>
0.079

> <Negative vol penalty>
0.000

$$$$

  -OEChem-04052320303D

 89 98  0     1  0  0  0  0  0999 V2000
  -27.8317  -24.3566   16.9540 C   0  0  0  0  0  0  0  0  0  0  0  0
  -26.6515  -24.6232   17.6407 C   0  0  0  0  0  0  0  0  0  0  0  0
  -26.1525  -13.8877   19.2891 C   0  0  0  0  0  0  0  0  0  0  0  0
  -24.1663  -14.1350   20.6422 C   0  0  0  0  0  0  0  0  0  0  0  0
  -29.0471  -24.8255   17.4507 C   0  0  0  0  0  0  0  0  0  0  0  0
  -26.6863  -25.3580   18.8253 C   0  0  0  0  0  0  0  0  0  0  0  0
  -23.0635  -28.8907   19.0269 C   0  0  0  0  0  0  0  0  0  0  0  0
  -26.3102  -12.5838   19.7588 C   0  0  0  0  0  0  0  0  0  0  0  0
  -24.3239  -12.8311   21.1118 C   0  0  0  0  0  0  0  0  0  0  0  0
  -21.7737  -28.4630   19.3386 C   0  0  0  0  0  0  0  0  0  0  0  0
  -23.7206   -9.6961   20.0034 C   0  0  0  0  0  0  0  0  0  0  0  0
  -22.5877   -8.8837   20.0481 C   0  0  0  0  0  0  0  0  0  0  0  0
  -22.0910  -29.1864   21.6178 C   0  0  0  0  0  0  0  0  0  0  0  0
  -20.9862  -22.5548   21.5779 C   0  0  0  0  0  0  0  0  0  0  0  0
  -22.8636   -8.6304   22.4349 C   0  0  0  0  0  0  0  0  0  0  0  0
  -21.5674  -25.1276   22.2769 C   0  0  0  0  0  0  0  0  0  0  0  0
  -25.0806  -14.6633   19.7308 C   0  0  0  0  0  0  0  0  0  0  0  0
  -24.1954  -16.4241   18.1110 C   0  0  0  0  0  0  0  0  0  0  0  0
  -29.0956  -25.5748   18.6369 C   0  0  0  0  0  0  0  0  0  0  0  0
  -23.8821  -29.4606   20.0126 C   0  0  0  0  0  0  0  0  0  0  0  0
  -27.9036  -25.8363   19.3391 C   0  0  0  0  0  0  0  0  0  0  0  0
  -23.3899  -29.6230   21.3155 C   0  0  0  0  0  0  0  0  0  0  0  0
  -19.9484  -23.4582   21.7785 C   0  0  0  0  0  0  0  0  0  0  0  0
  -20.2360  -24.7710   22.1349 C   0  0  0  0  0  0  0  0  0  0  0  0
  -25.3958  -12.0555   20.6701 C   0  0  0  0  0  0  0  0  0  0  0  0
  -21.2883  -28.6081   20.6349 C   0  0  0  0  0  0  0  0  0  0  0  0
  -24.4251   -9.9757   21.1744 C   0  0  0  0  0  0  0  0  0  0  0  0
  -22.1592   -8.3508   21.2639 C   0  0  0  0  0  0  0  0  0  0  0  0
  -23.9966   -9.4428   22.3902 C   0  0  0  0  0  0  0  0  0  0  0  0
  -24.9176  -16.0105   19.2465 C   0  0  0  0  0  0  0  0  0  0  0  0
  -22.2839  -23.0107   21.7447 C   0  0  0  0  0  0  0  0  0  0  0  0
  -24.3472  -17.7889   18.0859 C   0  0  0  0  0  0  0  0  0  0  0  0
  -23.4536  -15.6443   17.1638 C   0  0  0  0  0  0  0  0  0  0  0  0
  -26.6708  -28.6937   21.3312 C   0  0  0  0  0  0  0  0  0  0  0  0
  -26.3334  -31.5742   22.7842 C   0  0  0  0  0  0  0  0  0  0  0  0
  -24.2451  -34.0515   23.8560 C   0  0  0  0  0  0  0  0  0  0  0  0
  -24.7044  -22.3187   21.6516 C   0  0  0  0  0  0  0  0  0  0  0  0
  -30.4384  -26.0201   19.1597 C   0  0  0  0  0  0  0  0  0  0  0  0
  -25.2614  -29.9414   19.6540 C   0  0  0  0  0  0  0  0  0  0  0  0
  -24.2214  -30.2471   22.4053 C   0  0  0  0  0  0  0  0  0  0  0  0
  -30.3464  -27.1112   20.2234 C   0  0  0  0  0  0  0  0  0  0  0  0
  -27.5859  -20.9719   20.0515 C   0  0  0  0  0  0  0  0  0  0  0  0
  -29.2844  -26.7582   21.2599 C   0  0  0  0  0  0  0  0  0  0  0  0
  -27.1225  -19.5954   19.5690 C   0  0  0  0  0  0  0  0  0  0  0  0
  -15.2744  -19.4709   23.2701 C   0  0  0  0  0  0  0  0  0  0  0  0
  -26.9728  -21.3351   21.4028 C   0  0  0  0  0  0  0  0  0  0  0  0
  -25.0459  -19.8580   20.9853 C   0  0  0  0  0  0  0  0  0  0  0  0
  -27.8976  -26.6512   20.6143 C   0  0  1  0  0  0  0  0  0  0  0  0
  -26.1927  -30.0375   20.8585 C   0  0  1  0  0  0  0  0  0  0  0  0
  -16.4725  -20.3703   23.4263 C   0  0  1  0  0  0  0  0  0  0  0  0
  -16.6605  -18.9219   23.0555 C   0  0  1  0  0  0  0  0  0  0  0  0
  -25.5862  -19.4760   19.5975 C   0  0  2  0  0  0  0  0  0  0  0  0
  -24.2580  -36.2627   25.0426 C   0  0  0  0  0  0  0  0  0  0  0  0
  -16.7021  -16.5409   23.8511 C   0  0  0  0  0  0  0  0  0  0  0  0
  -18.7869  -17.9361   23.9555 C   0  0  0  0  0  0  0  0  0  0  0  0
  -26.7554  -30.1412   25.4447 C   0  0  0  0  0  0  0  0  0  0  0  0
  -25.8297  -32.1606   26.5996 C   0  0  0  0  0  0  0  0  0  0  0  0
  -27.9201  -32.3459   25.2510 C   0  0  0  0  0  0  0  0  0  0  0  0
  -23.0946  -35.4467   21.5132 C   0  0  0  0  0  0  0  0  0  0  0  0
  -19.1500  -25.7914   22.3647 C   0  0  0  0  0  0  0  0  0  0  0  0
  -18.5384  -22.9993   21.6059 C   0  0  0  0  0  0  0  0  0  0  0  0
  -16.7460  -21.4559   22.4085 C   0  0  0  0  0  0  0  0  0  0  0  0
  -18.5250  -26.3270   21.0746 C   0  0  0  0  0  0  0  0  0  0  0  0
  -19.5110  -27.0896   20.1974 C   0  0  0  0  0  0  0  0  0  1  0  0
  -25.7041  -32.0564   24.0689 C   0  0  1  0  0  0  0  0  0  0  0  0
  -24.3055  -35.5598   23.6949 C   0  0  2  0  0  0  0  0  0  0  0  0
  -17.2488  -17.9693   24.0377 C   0  0  0  0  0  0  0  0  0  0  0  0
  -26.5371  -31.6624   25.3212 C   0  0  0  0  0  0  0  0  0  0  0  0
  -22.6024  -24.2783   22.0904 N   0  0  0  0  0  0  0  0  0  0  0  0
  -25.4861  -17.0301   19.8955 N   0  0  0  0  0  0  0  0  0  0  0  0
  -25.1212  -18.0978   19.1656 N   0  0  0  0  0  0  0  0  0  0  0  0
  -25.5658  -30.6956   22.0066 N   0  0  0  0  0  0  0  0  0  0  0  0
  -25.5151  -21.2031   21.3532 N   0  0  0  0  0  0  0  0  0  0  0  0
  -23.8928  -18.7430   17.2458 N   0  0  0  0  0  0  0  0  0  0  0  0
  -23.4003  -14.2546   17.3382 N   0  0  0  0  0  0  0  0  0  0  0  0
  -23.3346  -22.0824   21.5397 N   0  0  0  0  0  0  0  0  0  0  0  0
  -27.3503  -27.9687   20.3710 N   0  0  0  0  0  0  0  0  0  0  0  0
  -25.5046  -33.4930   23.9116 N   0  0  0  0  0  0  0  0  0  0  0  0
  -23.1579  -36.0394   22.8740 N   0  3  0  0  0  0  0  0  0  0  0  0
  -18.1629  -21.8898   22.5245 N   0  3  0  0  0  0  0  0  0  0  0  0
  -22.8693  -16.1626   16.1822 O   0  0  0  0  0  0  0  0  0  0  0  0
  -26.4416  -28.3414   22.4823 O   0  0  0  0  0  0  0  0  0  0  0  0
  -27.4615  -31.9684   22.4782 O   0  0  0  0  0  0  0  0  0  0  0  0
  -23.1866  -33.4313   23.9293 O   0  0  0  0  0  0  0  0  0  0  0  0
  -25.1902  -23.4111   21.9557 O   0  0  0  0  0  0  0  0  0  0  0  0
  -25.5492  -10.7831   21.1285 O   0  0  0  0  0  0  0  0  0  0  0  0
  -20.0299  -28.1909   20.9419 O   0  0  0  0  0  0  0  0  0  1  0  0
  -21.0703   -7.5719   21.3069 F   0  0  0  0  0  0  0  0  0  0  0  0
  -24.6686   -9.7088   23.5187 F   0  0  0  0  0  0  0  0  0  0  0  0
  1  2  1  0  0  0  0
  1  5  2  0  0  0  0
  2  6  2  0  0  0  0
  3  8  2  0  0  0  0
  3 17  1  0  0  0  0
  4  9  1  0  0  0  0
  4 17  2  0  0  0  0
  5 19  1  0  0  0  0
  6 21  1  0  0  0  0
  7 10  2  0  0  0  0
  7 20  1  0  0  0  0
  8 25  1  0  0  0  0
  9 25  2  0  0  0  0
 10 26  1  0  0  0  0
 11 12  2  0  0  0  0
 11 27  1  0  0  0  0
 12 28  1  0  0  0  0
 13 22  1  0  0  0  0
 13 26  2  0  0  0  0
 14 23  1  0  0  0  0
 14 31  2  0  0  0  0
 15 28  2  0  0  0  0
 15 29  1  0  0  0  0
 16 24  1  0  0  0  0
 16 69  2  0  0  0  0
 17 30  1  0  0  0  0
 18 30  1  0  0  0  0
 18 32  2  0  0  0  0
 18 33  1  0  0  0  0
 19 21  2  0  0  0  0
 19 38  1  0  0  0  0
 20 22  2  0  0  0  0
 20 39  1  0  0  0  0
 21 48  1  0  0  0  0
 22 40  1  0  0  0  0
 23 24  2  0  0  0  0
 23 61  1  0  0  0  0
 24 60  1  0  0  0  0
 25 86  1  0  0  0  0
 26 87  1  0  0  0  0
 27 29  2  0  0  0  0
 27 86  1  0  0  0  0
 28 88  1  0  0  0  0
 29 89  1  0  0  0  0
 30 70  2  0  0  0  0
 31 69  1  0  0  0  0
 31 76  1  0  0  0  0
 32 71  1  0  0  0  0
 32 74  1  0  0  0  0
 33 75  1  0  0  0  0
 33 81  2  0  0  0  0
 34 49  1  0  0  0  0
 34 77  1  0  0  0  0
 34 82  2  0  0  0  0
 35 65  1  0  0  0  0
 35 72  1  0  0  0  0
 35 83  2  0  0  0  0
 36 66  1  0  0  0  0
 36 78  1  0  0  0  0
 36 84  2  0  0  0  0
 37 73  1  0  0  0  0
 37 76  1  0  0  0  0
 37 85  2  0  0  0  0
 38 41  1  0  0  0  0
 39 49  1  0  0  0  0
 40 72  1  0  0  0  0
 41 43  1  0  0  0  0
 42 44  1  0  0  0  0
 42 46  1  0  0  0  0
 43 48  1  0  0  0  0
 44 52  1  0  0  0  0
 45 50  1  0  0  0  0
 45 51  1  0  0  0  0
 46 73  1  0  0  0  0
 47 52  1  0  0  0  0
 47 73  1  0  0  0  0
 48 77  1  0  0  0  0
 49 72  1  0  0  0  0
 50 51  1  0  0  0  0
 50 62  1  0  0  0  0
 51 67  1  0  0  0  0
 52 71  1  0  0  0  0
 53 66  1  0  0  0  0
 54 67  1  0  0  0  0
 55 67  1  0  0  0  0
 56 68  1  0  0  0  0
 57 68  1  0  0  0  0
 58 68  1  0  0  0  0
 59 79  1  0  0  0  0
 60 63  1  0  0  0  0
 61 80  1  0  0  0  0
 62 80  1  0  0  0  0
 63 64  1  0  0  0  0
 64 87  1  0  0  0  0
 65 68  1  0  0  0  0
 65 78  1  0  0  0  0
 66 79  1  0  0  0  0
 70 71  1  0  0  0  0
M  CHG  2  79   1  80   1
M  ISO  4  37 100  64 101  76 100  87 101
M  END
> <Batch ID>
0123

> <Smiles>
CNC(C)C(=O)NC(C(=O)N1Cc2cc([101O:1][101CH2:1]CCc3cnc([100NH:0][100C:0](=O)N4CCCC(n5nc(-c6ccc(Oc7ccc(F)cc7F)cc6)c(C(N)=O)c5N)C4)cc3CNCC3CC3C(C)C)ccc2CC1C(=O)NC1CCCc2ccccc21)C(C)(C)C

> <Shape>
0.286

> <Color>
0.086

> <Negative vol penalty>
0.000

$$$$

  -OEChem-04052320303D

 85 93  0     1  0  0  0  0  0999 V2000
  -34.9332  -19.6046   28.2698 C   0  0  0  0  0  0  0  0  0  0  0  0
  -34.0903  -20.0109   27.2403 C   0  0  0  0  0  0  0  0  0  0  0  0
  -23.0768   -9.8627   19.9445 C   0  0  0  0  0  0  0  0  0  0  0  0
  -23.8387   -9.8757   22.2372 C   0  0  0  0  0  0  0  0  0  0  0  0
  -35.9269  -20.4643   28.7359 C   0  0  0  0  0  0  0  0  0  0  0  0
  -34.2400  -21.2778   26.6771 C   0  0  0  0  0  0  0  0  0  0  0  0
  -34.0237  -21.1928   21.6184 C   0  0  0  0  0  0  0  0  0  0  0  0
  -22.3356   -8.7084   20.1974 C   0  0  0  0  0  0  0  0  0  0  0  0
  -23.0975   -8.7215   22.4901 C   0  0  0  0  0  0  0  0  0  0  0  0
  -32.7607  -21.0913   21.0367 C   0  0  0  0  0  0  0  0  0  0  0  0
  -21.1197   -5.9827   23.8338 C   0  0  0  0  0  0  0  0  0  0  0  0
  -20.3646   -5.9397   25.0058 C   0  0  0  0  0  0  0  0  0  0  0  0
  -27.5479  -17.8019   22.6776 C   0  0  0  0  0  0  0  0  0  0  0  0
  -32.7648  -23.4687   20.6277 C   0  0  0  0  0  0  0  0  0  0  0  0
  -19.1152   -7.8729   24.2716 C   0  0  0  0  0  0  0  0  0  0  0  0
  -26.9197  -18.1573   23.8604 C   0  0  0  0  0  0  0  0  0  0  0  0
  -23.8284  -10.4463   20.9644 C   0  0  0  0  0  0  0  0  0  0  0  0
  -24.1647  -12.9720   20.8392 C   0  0  0  0  0  0  0  0  0  0  0  0
  -36.0951  -21.7386   28.1716 C   0  0  0  0  0  0  0  0  0  0  0  0
  -34.6631  -22.4367   21.7191 C   0  0  0  0  0  0  0  0  0  0  0  0
  -35.2360  -22.1558   27.1371 C   0  0  0  0  0  0  0  0  0  0  0  0
  -34.0369  -23.5829   21.2088 C   0  0  0  0  0  0  0  0  0  0  0  0
  -28.3329  -18.7591   22.0445 C   0  0  0  0  0  0  0  0  0  0  0  0
  -28.4638  -20.0245   22.6055 C   0  0  0  0  0  0  0  0  0  0  0  0
  -22.3460   -8.1378   21.4702 C   0  0  0  0  0  0  0  0  0  0  0  0
  -32.1298  -22.2298   20.5439 C   0  0  0  0  0  0  0  0  0  0  0  0
  -20.8727   -6.9708   22.8807 C   0  0  0  0  0  0  0  0  0  0  0  0
  -19.3623   -6.8848   25.2247 C   0  0  0  0  0  0  0  0  0  0  0  0
  -19.8704   -7.9159   23.0996 C   0  0  0  0  0  0  0  0  0  0  0  0
  -24.5947  -11.6383   20.7037 C   0  0  0  0  0  0  0  0  0  0  0  0
  -27.7945  -20.2806   23.7913 C   0  0  0  0  0  0  0  0  0  0  0  0
  -25.2549  -13.7231   20.4735 C   0  0  0  0  0  0  0  0  0  0  0  0
  -22.8934  -13.4858   21.2583 C   0  0  0  0  0  0  0  0  0  0  0  0
  -35.6719  -24.2519   24.1256 C   0  0  0  0  0  0  0  0  0  0  0  0
  -36.9016  -26.0626   21.7314 C   0  0  0  0  0  0  0  0  0  0  0  0
  -36.7781  -27.0016   18.4528 C   0  0  0  0  0  0  0  0  0  0  0  0
  -30.7366  -14.7543   20.6549 C   0  0  0  0  0  0  0  0  0  0  0  0
  -37.1528  -22.6507   28.7408 C   0  0  0  0  0  0  0  0  0  0  0  0
  -36.0369  -22.5252   22.3252 C   0  0  0  0  0  0  0  0  0  0  0  0
  -34.6895  -24.9387   21.2743 C   0  0  0  0  0  0  0  0  0  0  0  0
  -37.4874  -23.8341   27.8365 C   0  0  0  0  0  0  0  0  0  0  0  0
  -29.6020  -12.3627   18.2738 C   0  0  0  0  0  0  0  0  0  0  0  0
  -36.2103  -24.4928   27.3247 C   0  0  0  0  0  0  0  0  0  0  0  0
  -28.1655  -12.0668   18.7086 C   0  0  0  0  0  0  0  0  0  0  0  0
  -30.5197  -12.5879   19.4734 C   0  0  0  0  0  0  0  0  0  0  0  0
  -28.6176  -13.3175   20.8603 C   0  0  0  0  0  0  0  0  0  0  0  0
  -35.3831  -23.5129   26.4838 C   0  0  1  0  0  0  0  0  0  0  0  0
  -36.3744  -23.9214   22.8391 C   0  0  1  0  0  0  0  0  0  0  0  0
  -27.6428  -13.1386   19.6839 C   0  0  2  0  0  0  0  0  0  0  0  0
  -27.8967  -21.6199   24.4462 C   0  0  0  0  0  0  0  0  0  0  0  0
  -37.8872  -28.5272   16.7975 C   0  0  0  0  0  0  0  0  0  0  0  0
  -29.3395  -23.8843   19.5535 C   0  0  0  0  0  0  0  0  0  0  0  0
  -35.4377  -28.4458   22.9509 C   0  0  0  0  0  0  0  0  0  0  0  0
  -35.7850  -29.6728   20.7963 C   0  0  0  0  0  0  0  0  0  0  0  0
  -37.7524  -28.9440   22.1458 C   0  0  0  0  0  0  0  0  0  0  0  0
  -37.6203  -24.7322   16.7500 C   0  0  0  0  0  0  0  0  0  0  0  0
  -29.0212  -18.4010   20.7681 C   0  0  0  0  0  0  0  0  0  0  0  0
  -30.5150  -18.0591   20.9256 C   0  0  0  0  0  0  0  0  0  0  0  0
  -30.7989  -16.9074   21.8876 C   0  0  0  0  0  0  0  0  0  0  0  0
  -28.7295  -21.9338   21.0212 C   0  0  0  0  0  0  0  0  0  0  0  0
  -36.3979  -27.2140   20.8950 C   0  0  1  0  0  0  0  0  0  0  0  0
  -37.8646  -27.1313   17.4005 C   0  0  2  0  0  0  0  0  0  0  0  0
  -29.8430  -22.8816   20.5816 C   0  0  1  0  0  0  0  0  0  1  0  0
  -36.3299  -28.5441   21.6974 C   0  0  0  0  0  0  0  0  0  0  0  0
  -27.0232  -19.3763   24.4356 N   0  0  0  0  0  0  0  0  0  0  0  0
  -25.8594  -11.5444   20.2845 N   0  0  0  0  0  0  0  0  0  0  0  0
  -26.2334  -12.8286   20.1533 N   0  0  0  0  0  0  0  0  0  0  0  0
  -36.0301  -24.9746   21.8818 N   0  0  0  0  0  0  0  0  0  0  0  0
  -29.9677  -13.6169   20.3579 N   0  0  0  0  0  0  0  0  0  0  0  0
  -25.4623  -15.0549   20.3977 N   0  0  0  0  0  0  0  0  0  0  0  0
  -21.8838  -12.5751   21.5982 N   0  0  0  0  0  0  0  0  0  0  0  0
  -29.2396  -20.9965   21.9960 N   0  0  0  0  0  0  0  0  0  0  0  0
  -35.9512  -23.3788   25.1595 N   0  0  0  0  0  0  0  0  0  0  0  0
  -37.2574  -27.2698   19.7175 N   0  0  0  0  0  0  0  0  0  0  0  0
  -30.1362  -15.6835   21.4957 N   0  0  0  0  0  0  0  0  0  0  0  0
  -37.6422  -26.1486   16.3025 N   0  3  0  0  0  0  0  0  0  0  0  0
  -22.6546  -14.7161   21.3135 O   0  0  0  0  0  0  0  0  0  0  0  0
  -34.9325  -25.2278   24.1767 O   0  0  0  0  0  0  0  0  0  0  0  0
  -38.0296  -26.1231   22.2270 O   0  0  0  0  0  0  0  0  0  0  0  0
  -35.6193  -26.6968   18.1796 O   0  0  0  0  0  0  0  0  0  0  0  0
  -31.8717  -14.9314   20.1999 O   0  0  0  0  0  0  0  0  0  0  0  0
  -21.6227   -7.0116   21.7174 O   0  0  0  0  0  0  0  0  0  0  0  0
  -30.8968  -22.1337   19.9762 O   0  0  0  0  0  0  0  0  0  1  0  0
  -18.6362   -6.8425   26.3495 F   0  0  0  0  0  0  0  0  0  0  0  0
  -19.6276   -8.8668   22.1871 F   0  0  0  0  0  0  0  0  0  0  0  0
  1  2  1  0  0  0  0
  1  5  2  0  0  0  0
  2  6  2  0  0  0  0
  3  8  2  0  0  0  0
  3 17  1  0  0  0  0
  4  9  1  0  0  0  0
  4 17  2  0  0  0  0
  5 19  1  0  0  0  0
  6 21  1  0  0  0  0
  7 10  2  0  0  0  0
  7 20  1  0  0  0  0
  8 25  1  0  0  0  0
  9 25  2  0  0  0  0
 10 26  1  0  0  0  0
 11 12  2  0  0  0  0
 11 27  1  0  0  0  0
 12 28  1  0  0  0  0
 13 16  1  0  0  0  0
 13 23  2  0  0  0  0
 14 22  1  0  0  0  0
 14 26  2  0  0  0  0
 15 28  2  0  0  0  0
 15 29  1  0  0  0  0
 16 65  2  0  0  0  0
 17 30  1  0  0  0  0
 18 30  1  0  0  0  0
 18 32  2  0  0  0  0
 18 33  1  0  0  0  0
 19 21  2  0  0  0  0
 19 38  1  0  0  0  0
 20 22  2  0  0  0  0
 20 39  1  0  0  0  0
 21 47  1  0  0  0  0
 22 40  1  0  0  0  0
 23 24  1  0  0  0  0
 23 57  1  0  0  0  0
 24 31  2  0  0  0  0
 24 72  1  0  0  0  0
 25 82  1  0  0  0  0
 26 83  1  0  0  0  0
 27 29  2  0  0  0  0
 27 82  1  0  0  0  0
 28 84  1  0  0  0  0
 29 85  1  0  0  0  0
 30 66  2  0  0  0  0
 31 50  1  0  0  0  0
 31 65  1  0  0  0  0
 32 67  1  0  0  0  0
 32 70  1  0  0  0  0
 33 71  1  0  0  0  0
 33 77  2  0  0  0  0
 34 48  1  0  0  0  0
 34 73  1  0  0  0  0
 34 78  2  0  0  0  0
 35 61  1  0  0  0  0
 35 68  1  0  0  0  0
 35 79  2  0  0  0  0
 36 62  1  0  0  0  0
 36 74  1  0  0  0  0
 36 80  2  0  0  0  0
 37 69  1  0  0  0  0
 37 75  1  0  0  0  0
 37 81  2  0  0  0  0
 38 41  1  0  0  0  0
 39 48  1  0  0  0  0
 40 68  1  0  0  0  0
 41 43  1  0  0  0  0
 42 44  1  0  0  0  0
 42 45  1  0  0  0  0
 43 47  1  0  0  0  0
 44 49  1  0  0  0  0
 45 69  1  0  0  0  0
 46 49  1  0  0  0  0
 46 69  1  0  0  0  0
 47 73  1  0  0  0  0
 48 68  1  0  0  0  0
 49 67  1  0  0  0  0
 51 62  1  0  0  0  0
 52 63  1  0  0  0  0
 53 64  1  0  0  0  0
 54 64  1  0  0  0  0
 55 64  1  0  0  0  0
 56 76  1  0  0  0  0
 57 58  1  0  0  0  0
 58 59  1  0  0  0  0
 59 75  1  0  0  0  0
 60 63  1  0  0  0  0
 60 72  1  0  0  0  0
 61 64  1  0  0  0  0
 61 74  1  0  0  0  0
 62 76  1  0  0  0  0
 63 83  1  0  0  0  0
 66 67  1  0  0  0  0
M  CHG  1  76   1
M  ISO  4  37 100  63 101  75 100  83 101
M  END
> <Batch ID>
0123

> <Smiles>
CNC(C)C(=O)NC(C(=O)N1Cc2cc([101O:1][101CH:1](C)CNc3c(CCC[100NH:0][100C:0](=O)N4CCCC(n5nc(-c6ccc(Oc7ccc(F)cc7F)cc6)c(C(N)=O)c5N)C4)ccnc3C)ccc2CC1C(=O)NC1CCCc2ccccc21)C(C)(C)C

> <Shape>
0.198

> <Color>
0.192

> <Negative vol penalty>
0.000

$$$$

  -OEChem-04052320303D

 84 92  0     1  0  0  0  0  0999 V2000
  -29.5507  -12.5108   20.5989 C   0  0  0  0  0  0  0  0  0  0  0  0
  -29.3979  -13.5266   19.6607 C   0  0  0  0  0  0  0  0  0  0  0  0
  -30.2235  -26.3237   13.4092 C   0  0  0  0  0  0  0  0  0  0  0  0
  -31.6068  -26.1952   13.5336 C   0  0  0  0  0  0  0  0  0  0  0  0
  -23.5858  -28.9943   21.6963 C   0  0  0  0  0  0  0  0  0  0  0  0
  -25.5049  -30.2455   20.9291 C   0  0  0  0  0  0  0  0  0  0  0  0
  -28.4288  -11.9574   21.2145 C   0  0  0  0  0  0  0  0  0  0  0  0
  -28.1228  -13.9889   19.3368 C   0  0  0  0  0  0  0  0  0  0  0  0
  -27.8804  -19.0433   19.1405 C   0  0  0  0  0  0  0  0  0  0  0  0
  -29.3784  -25.4180   14.0504 C   0  0  0  0  0  0  0  0  0  0  0  0
  -32.1451  -25.1609   14.2991 C   0  0  0  0  0  0  0  0  0  0  0  0
  -23.2743  -30.0195   22.5893 C   0  0  0  0  0  0  0  0  0  0  0  0
  -25.1934  -31.2708   21.8220 C   0  0  0  0  0  0  0  0  0  0  0  0
  -28.3868  -19.6612   17.9979 C   0  0  0  0  0  0  0  0  0  0  0  0
  -22.1795  -32.1500   25.3254 C   0  0  0  0  0  0  0  0  0  0  0  0
  -21.8331  -31.7939   26.6287 C   0  0  0  0  0  0  0  0  0  0  0  0
  -26.1456  -19.8893   17.1353 C   0  0  0  0  0  0  0  0  0  0  0  0
  -23.9908  -30.7454   26.9157 C   0  0  0  0  0  0  0  0  0  0  0  0
  -24.7012  -29.1072   20.8662 C   0  0  0  0  0  0  0  0  0  0  0  0
  -24.5801  -27.9140   18.6148 C   0  0  0  0  0  0  0  0  0  0  0  0
  -27.1400  -12.4197   20.9051 C   0  0  0  0  0  0  0  0  0  0  0  0
  -26.5014  -18.8337   19.2845 C   0  0  0  0  0  0  0  0  0  0  0  0
  -26.9825  -13.4402   19.9479 C   0  0  0  0  0  0  0  0  0  0  0  0
  -25.6240  -19.2709   18.2819 C   0  0  0  0  0  0  0  0  0  0  0  0
  -29.9167  -24.3837   14.8160 C   0  0  0  0  0  0  0  0  0  0  0  0
  -31.3000  -24.2551   14.9404 C   0  0  0  0  0  0  0  0  0  0  0  0
  -24.0780  -31.1578   22.6521 C   0  0  0  0  0  0  0  0  0  0  0  0
  -27.5196  -20.0817   16.9938 C   0  0  0  0  0  0  0  0  0  0  0  0
  -23.4315  -31.8037   24.8171 C   0  0  0  0  0  0  0  0  0  0  0  0
  -22.7388  -31.0917   27.4239 C   0  0  0  0  0  0  0  0  0  0  0  0
  -24.3371  -31.1015   25.6123 C   0  0  0  0  0  0  0  0  0  0  0  0
  -25.0238  -28.0482   19.9440 C   0  0  0  0  0  0  0  0  0  0  0  0
  -25.1632  -26.7511   18.1740 C   0  0  0  0  0  0  0  0  0  0  0  0
  -23.7182  -28.7645   17.8471 C   0  0  0  0  0  0  0  0  0  0  0  0
  -24.6401  -16.2736   19.5766 C   0  0  0  0  0  0  0  0  0  0  0  0
  -22.3236  -18.4940   20.0517 C   0  0  0  0  0  0  0  0  0  0  0  0
  -21.2374  -21.6945   19.5787 C   0  0  0  0  0  0  0  0  0  0  0  0
  -30.0913  -23.9504   19.8247 C   0  0  0  0  0  0  0  0  0  0  0  0
  -25.9543  -11.7581   21.5617 C   0  0  0  0  0  0  0  0  0  0  0  0
  -25.9687  -18.1898   20.5351 C   0  0  0  0  0  0  0  0  0  0  0  0
  -24.1335  -19.0876   18.3972 C   0  0  0  0  0  0  0  0  0  0  0  0
  -24.6626  -12.5622   21.4386 C   0  0  0  0  0  0  0  0  0  0  0  0
  -26.7638  -22.5289   19.7611 C   0  0  0  0  0  0  0  0  0  0  0  0
  -24.4740  -13.0534   20.0069 C   0  0  0  0  0  0  0  0  0  0  0  0
  -25.8974  -23.7867   19.6734 C   0  0  0  0  0  0  0  0  0  0  0  0
  -27.9773  -22.7550   20.6580 C   0  0  0  0  0  0  0  0  0  0  0  0
  -27.9635  -25.1718   20.1757 C   0  0  0  0  0  0  0  0  0  0  0  0
  -25.6174  -13.9855   19.5882 C   0  0  1  0  0  0  0  0  0  0  0  0
  -24.5905  -17.5641   20.3446 C   0  0  1  0  0  0  0  0  0  0  0  0
  -26.7322  -25.0148   19.2650 C   0  0  2  0  0  0  0  0  0  0  0  0
  -19.7595  -23.7097   19.8077 C   0  0  0  0  0  0  0  0  0  0  0  0
  -20.7381  -17.1337   17.8278 C   0  0  0  0  0  0  0  0  0  0  0  0
  -19.3026  -19.1806   17.6944 C   0  0  0  0  0  0  0  0  0  0  0  0
  -19.3722  -17.8431   19.7989 C   0  0  0  0  0  0  0  0  0  0  0  0
  -22.6474  -22.5952   22.0199 C   0  0  0  0  0  0  0  0  0  0  0  0
  -28.9837  -23.4173   15.5010 C   0  0  0  0  0  0  0  0  0  0  0  0
  -31.8995  -23.1555   15.7541 C   0  0  0  0  0  0  0  0  0  0  0  0
  -28.0504  -22.6767   14.5409 C   0  0  0  0  0  0  0  0  0  0  0  0
  -32.1484  -22.5963   19.5216 C   0  0  0  0  0  0  0  0  0  0  0  0
  -32.3281  -22.2715   18.0505 C   0  0  0  0  0  0  0  0  0  0  0  0
  -27.1714  -21.6408   15.2320 C   0  0  0  0  0  0  0  0  0  1  0  0
  -21.3711  -19.2530   19.1597 C   0  0  1  0  0  0  0  0  0  0  0  0
  -20.6397  -22.7076   20.5383 C   0  0  2  0  0  0  0  0  0  0  0  0
  -20.2242  -18.3545   18.6169 C   0  0  0  0  0  0  0  0  0  0  0  0
  -25.8266  -27.0502   20.3230 N   0  0  0  0  0  0  0  0  0  0  0  0
  -25.8919  -26.2778   19.2252 N   0  0  0  0  0  0  0  0  0  0  0  0
  -23.6618  -18.4472   19.6361 N   0  0  0  0  0  0  0  0  0  0  0  0
  -28.7390  -23.9272   20.2042 N   0  0  0  0  0  0  0  0  0  0  0  0
  -25.1184  -26.0975   16.9936 N   0  0  0  0  0  0  0  0  0  0  0  0
  -23.2065  -29.9197   18.4536 N   0  0  0  0  0  0  0  0  0  0  0  0
  -25.4312  -15.3021   20.1594 N   0  0  0  0  0  0  0  0  0  0  0  0
  -20.9145  -20.4020   19.9341 N   0  0  0  0  0  0  0  0  0  0  0  0
  -30.7558  -22.7317   19.8866 N   0  0  0  0  0  0  0  0  0  0  0  0
  -21.7202  -23.4557   21.2409 N   0  3  0  0  0  0  0  0  0  0  0  0
  -31.7886  -23.3807   17.2209 N   0  3  0  0  0  0  0  0  0  0  0  0
  -23.3976  -28.4990   16.6637 O   0  0  0  0  0  0  0  0  0  0  0  0
  -24.0063  -16.1667   18.5333 O   0  0  0  0  0  0  0  0  0  0  0  0
  -21.8973  -17.9683   21.0830 O   0  0  0  0  0  0  0  0  0  0  0  0
  -21.9192  -22.0177   18.6086 O   0  0  0  0  0  0  0  0  0  0  0  0
  -30.6635  -24.9807   19.4528 O   0  0  0  0  0  0  0  0  0  0  0  0
  -23.7742  -32.1586   23.5232 O   0  0  0  0  0  0  0  0  0  0  0  0
  -28.0113  -20.6844   15.8772 O   0  0  0  0  0  0  0  0  0  1  0  0
  -22.4066  -30.7512   28.6761 F   0  0  0  0  0  0  0  0  0  0  0  0
  -25.5418  -30.7670   25.1299 F   0  0  0  0  0  0  0  0  0  0  0  0
  1  2  1  0  0  0  0
  1  7  2  0  0  0  0
  2  8  2  0  0  0  0
  3  4  1  0  0  0  0
  3 10  2  0  0  0  0
  4 11  2  0  0  0  0
  5 12  2  0  0  0  0
  5 19  1  0  0  0  0
  6 13  1  0  0  0  0
  6 19  2  0  0  0  0
  7 21  1  0  0  0  0
  8 23  1  0  0  0  0
  9 14  2  0  0  0  0
  9 22  1  0  0  0  0
 10 25  1  0  0  0  0
 11 26  1  0  0  0  0
 12 27  1  0  0  0  0
 13 27  2  0  0  0  0
 14 28  1  0  0  0  0
 15 16  2  0  0  0  0
 15 29  1  0  0  0  0
 16 30  1  0  0  0  0
 17 24  1  0  0  0  0
 17 28  2  0  0  0  0
 18 30  2  0  0  0  0
 18 31  1  0  0  0  0
 19 32  1  0  0  0  0
 20 32  1  0  0  0  0
 20 33  2  0  0  0  0
 20 34  1  0  0  0  0
 21 23  2  0  0  0  0
 21 39  1  0  0  0  0
 22 24  2  0  0  0  0
 22 40  1  0  0  0  0
 23 48  1  0  0  0  0
 24 41  1  0  0  0  0
 25 26  2  0  0  0  0
 25 56  1  0  0  0  0
 26 57  1  0  0  0  0
 27 81  1  0  0  0  0
 28 82  1  0  0  0  0
 29 31  2  0  0  0  0
 29 81  1  0  0  0  0
 30 83  1  0  0  0  0
 31 84  1  0  0  0  0
 32 65  2  0  0  0  0
 33 66  1  0  0  0  0
 33 69  1  0  0  0  0
 34 70  1  0  0  0  0
 34 76  2  0  0  0  0
 35 49  1  0  0  0  0
 35 71  1  0  0  0  0
 35 77  2  0  0  0  0
 36 62  1  0  0  0  0
 36 67  1  0  0  0  0
 36 78  2  0  0  0  0
 37 63  1  0  0  0  0
 37 72  1  0  0  0  0
 37 79  2  0  0  0  0
 38 68  1  0  0  0  0
 38 73  1  0  0  0  0
 38 80  2  0  0  0  0
 39 42  1  0  0  0  0
 40 49  1  0  0  0  0
 41 67  1  0  0  0  0
 42 44  1  0  0  0  0
 43 45  1  0  0  0  0
 43 46  1  0  0  0  0
 44 48  1  0  0  0  0
 45 50  1  0  0  0  0
 46 68  1  0  0  0  0
 47 50  1  0  0  0  0
 47 68  1  0  0  0  0
 48 71  1  0  0  0  0
 49 67  1  0  0  0  0
 50 66  1  0  0  0  0
 51 63  1  0  0  0  0
 52 64  1  0  0  0  0
 53 64  1  0  0  0  0
 54 64  1  0  0  0  0
 55 74  1  0  0  0  0
 56 58  1  0  0  0  0
 57 75  1  0  0  0  0
 58 61  1  0  0  0  0
 59 60  1  0  0  0  0
 59 73  1  0  0  0  0
 60 75  1  0  0  0  0
 61 82  1  0  0  0  0
 62 64  1  0  0  0  0
 62 72  1  0  0  0  0
 63 74  1  0  0  0  0
 65 66  1  0  0  0  0
M  CHG  2  74   1  75   1
M  ISO  4  38 100  61 101  73 100  82 101
M  END
> <Batch ID>
0123

> <Smiles>
CNC(C)C(=O)NC(C(=O)N1Cc2cc([101O:1][101CH2:1]CCc3ccccc3CNCC[100NH:0][100C:0](=O)N3CCCC(n4nc(-c5ccc(Oc6ccc(F)cc6F)cc5)c(C(N)=O)c4N)C3)ccc2CC1C(=O)NC1CCCc2ccccc21)C(C)(C)C

> <Shape>
0.185

> <Color>
0.083

> <Negative vol penalty>
0.000

$$$$

  -OEChem-04052320303D

 85 93  0     1  0  0  0  0  0999 V2000
  -23.6915  -27.9625   28.3351 C   0  0  0  0  0  0  0  0  0  0  0  0
  -23.8810  -28.2028   26.9780 C   0  0  0  0  0  0  0  0  0  0  0  0
  -25.5727  -15.7869   21.7666 C   0  0  0  0  0  0  0  0  0  0  0  0
  -25.3387  -16.2249   19.4022 C   0  0  0  0  0  0  0  0  0  0  0  0
  -23.6355  -26.6523   28.8087 C   0  0  0  0  0  0  0  0  0  0  0  0
  -24.0159  -27.1330   26.0938 C   0  0  0  0  0  0  0  0  0  0  0  0
  -21.2838  -27.7438   21.8740 C   0  0  0  0  0  0  0  0  0  0  0  0
  -24.3275  -15.1583   21.7735 C   0  0  0  0  0  0  0  0  0  0  0  0
  -24.0935  -15.5963   19.4090 C   0  0  0  0  0  0  0  0  0  0  0  0
  -21.7964  -28.6021   20.9022 C   0  0  0  0  0  0  0  0  0  0  0  0
  -21.3711  -13.1199   22.3386 C   0  0  0  0  0  0  0  0  0  0  0  0
  -21.2607  -11.9068   23.0182 C   0  0  0  0  0  0  0  0  0  0  0  0
  -22.6080  -26.7006   19.6594 C   0  0  0  0  0  0  0  0  0  0  0  0
  -26.0195  -28.2923   19.1788 C   0  0  0  0  0  0  0  0  0  0  0  0
  -22.9362  -10.9425   21.5691 C   0  0  0  0  0  0  0  0  0  0  0  0
  -26.0783  -16.3202   20.5810 C   0  0  0  0  0  0  0  0  0  0  0  0
  -28.6172  -16.3729   20.3386 C   0  0  0  0  0  0  0  0  0  0  0  0
  -23.7602  -25.5659   27.9286 C   0  0  0  0  0  0  0  0  0  0  0  0
  -21.4393  -26.3556   21.7510 C   0  0  0  0  0  0  0  0  0  0  0  0
  -23.9630  -25.8071   26.5563 C   0  0  0  0  0  0  0  0  0  0  0  0
  -22.0942  -25.8267   20.6296 C   0  0  0  0  0  0  0  0  0  0  0  0
  -25.1474  -29.1764   19.8607 C   0  0  0  0  0  0  0  0  0  0  0  0
  -23.5879  -15.0630   20.5947 C   0  0  0  0  0  0  0  0  0  0  0  0
  -22.4612  -28.0807   19.7962 C   0  0  0  0  0  0  0  0  0  0  0  0
  -22.2640  -13.2443   21.2741 C   0  0  0  0  0  0  0  0  0  0  0  0
  -22.0433  -10.8181   22.6335 C   0  0  0  0  0  0  0  0  0  0  0  0
  -23.0466  -12.1556   20.8894 C   0  0  0  0  0  0  0  0  0  0  0  0
  -27.3642  -16.9702   20.5735 C   0  0  0  0  0  0  0  0  0  0  0  0
  -25.6039  -29.2871   21.1556 C   0  0  0  0  0  0  0  0  0  0  0  0
  -26.9823  -27.8895   20.0778 C   0  0  0  0  0  0  0  0  0  0  0  0
  -29.5151  -17.4073   20.4405 C   0  0  0  0  0  0  0  0  0  0  0  0
  -28.9405  -15.0055   20.0537 C   0  0  0  0  0  0  0  0  0  0  0  0
  -22.8843  -24.0999   23.4620 C   0  0  0  0  0  0  0  0  0  0  0  0
  -21.4717  -22.1165   21.3189 C   0  0  0  0  0  0  0  0  0  0  0  0
  -20.8894  -22.0715   17.7585 C   0  0  0  0  0  0  0  0  0  0  0  0
  -28.9310  -23.2207   19.5930 C   0  0  0  0  0  0  0  0  0  0  0  0
  -23.7405  -24.1677   28.4939 C   0  0  0  0  0  0  0  0  0  0  0  0
  -20.8572  -25.4419   22.7944 C   0  0  0  0  0  0  0  0  0  0  0  0
  -22.2698  -24.3428   20.4404 C   0  0  0  0  0  0  0  0  0  0  0  0
  -23.5173  -23.0873   27.4389 C   0  0  0  0  0  0  0  0  0  0  0  0
  -30.1354  -21.6276   22.6111 C   0  0  0  0  0  0  0  0  0  0  0  0
  -24.4130  -23.3300   26.2283 C   0  0  0  0  0  0  0  0  0  0  0  0
  -29.6730  -20.1849   22.3988 C   0  0  0  0  0  0  0  0  0  0  0  0
  -29.1049  -22.6217   22.0837 C   0  0  0  0  0  0  0  0  0  0  0  0
  -28.2743  -20.9855   20.4386 C   0  0  0  0  0  0  0  0  0  0  0  0
  -24.0887  -24.6728   25.5625 C   0  0  1  0  0  0  0  0  0  0  0  0
  -21.5234  -24.0698   22.8259 C   0  0  1  0  0  0  0  0  0  0  0  0
  -29.2832  -19.9318   20.9304 C   0  0  2  0  0  0  0  0  0  0  0  0
  -25.0730  -30.0749   22.2884 C   0  0  0  0  0  0  0  0  0  0  0  0
  -24.3063  -30.7451   18.0789 C   0  0  0  0  0  0  0  0  0  0  0  0
  -19.0879  -20.9562   16.4140 C   0  0  0  0  0  0  0  0  0  0  0  0
  -28.9274  -28.8599   22.3221 C   0  0  0  0  0  0  0  0  0  0  0  0
  -27.4736  -26.9026   23.0015 C   0  0  0  0  0  0  0  0  0  0  0  0
  -23.4867  -19.8416   21.0448 C   0  0  0  0  0  0  0  0  0  0  0  0
  -22.7099  -19.5310   18.6850 C   0  0  0  0  0  0  0  0  0  0  0  0
  -21.1162  -19.1978   20.5750 C   0  0  0  0  0  0  0  0  0  0  0  0
  -20.1053  -24.6218   16.4780 C   0  0  0  0  0  0  0  0  0  0  0  0
  -28.3893  -26.3636   18.6931 C   0  0  0  0  0  0  0  0  0  0  0  0
  -29.6242  -25.4987   18.8950 C   0  0  0  0  0  0  0  0  0  0  0  0
  -23.9401  -29.8668   19.2686 C   0  0  1  0  0  0  0  0  0  1  0  0
  -21.8597  -21.5396   19.9789 C   0  0  1  0  0  0  0  0  0  0  0  0
  -19.5576  -22.2537   17.0531 C   0  0  2  0  0  0  0  0  0  0  0  0
  -27.4969  -28.3438   22.4887 C   0  0  0  0  0  0  0  0  0  0  0  0
  -22.3030  -20.0527   20.0797 C   0  0  0  0  0  0  0  0  0  0  0  0
  -27.4540  -18.2822   20.8071 N   0  0  0  0  0  0  0  0  0  0  0  0
  -26.7195  -28.5003   21.2762 N   0  0  0  0  0  0  0  0  0  0  0  0
  -28.7742  -18.5179   20.7197 N   0  0  0  0  0  0  0  0  0  0  0  0
  -21.6886  -23.4909   21.4911 N   0  0  0  0  0  0  0  0  0  0  0  0
  -28.7917  -22.3372   20.6762 N   0  0  0  0  0  0  0  0  0  0  0  0
  -30.8582  -17.4661   20.3177 N   0  0  0  0  0  0  0  0  0  0  0  0
  -27.8969  -14.0725   19.9849 N   0  0  0  0  0  0  0  0  0  0  0  0
  -28.0359  -27.0566   19.9325 N   0  0  0  0  0  0  0  0  0  0  0  0
  -22.8869  -24.5636   24.7637 N   0  0  0  0  0  0  0  0  0  0  0  0
  -20.7231  -21.7654   19.0927 N   0  0  0  0  0  0  0  0  0  0  0  0
  -29.4208  -24.4833   19.9042 N   0  0  0  0  0  0  0  0  0  0  0  0
  -19.6737  -23.2880   15.9865 N   0  3  0  0  0  0  0  0  0  0  0  0
  -30.1216  -14.6193   19.8820 O   0  0  0  0  0  0  0  0  0  0  0  0
  -23.8597  -23.7285   22.8198 O   0  0  0  0  0  0  0  0  0  0  0  0
  -20.9873  -21.3763   22.1786 O   0  0  0  0  0  0  0  0  0  0  0  0
  -21.9693  -22.1853   17.1827 O   0  0  0  0  0  0  0  0  0  0  0  0
  -28.6451  -22.9060   18.4328 O   0  0  0  0  0  0  0  0  0  0  0  0
  -22.3730  -14.4495   20.6009 O   0  0  0  0  0  0  0  0  0  0  0  0
  -22.9630  -28.9163   18.8466 O   0  0  0  0  0  0  0  0  0  1  0  0
  -21.9383   -9.6538   23.2872 F   0  0  0  0  0  0  0  0  0  0  0  0
  -23.9070  -12.2694   19.8684 F   0  0  0  0  0  0  0  0  0  0  0  0
  1  2  1  0  0  0  0
  1  5  2  0  0  0  0
  2  6  2  0  0  0  0
  3  8  2  0  0  0  0
  3 16  1  0  0  0  0
  4  9  1  0  0  0  0
  4 16  2  0  0  0  0
  5 18  1  0  0  0  0
  6 20  1  0  0  0  0
  7 10  2  0  0  0  0
  7 19  1  0  0  0  0
  8 23  1  0  0  0  0
  9 23  2  0  0  0  0
 10 24  1  0  0  0  0
 11 12  2  0  0  0  0
 11 25  1  0  0  0  0
 12 26  1  0  0  0  0
 13 21  1  0  0  0  0
 13 24  2  0  0  0  0
 14 22  1  0  0  0  0
 14 30  2  0  0  0  0
 15 26  2  0  0  0  0
 15 27  1  0  0  0  0
 16 28  1  0  0  0  0
 17 28  1  0  0  0  0
 17 31  2  0  0  0  0
 17 32  1  0  0  0  0
 18 20  2  0  0  0  0
 18 37  1  0  0  0  0
 19 21  2  0  0  0  0
 19 38  1  0  0  0  0
 20 46  1  0  0  0  0
 21 39  1  0  0  0  0
 22 29  2  0  0  0  0
 22 60  1  0  0  0  0
 23 82  1  0  0  0  0
 24 83  1  0  0  0  0
 25 27  2  0  0  0  0
 25 82  1  0  0  0  0
 26 84  1  0  0  0  0
 27 85  1  0  0  0  0
 28 65  2  0  0  0  0
 29 49  1  0  0  0  0
 29 66  1  0  0  0  0
 30 66  1  0  0  0  0
 30 72  1  0  0  0  0
 31 67  1  0  0  0  0
 31 70  1  0  0  0  0
 32 71  1  0  0  0  0
 32 77  2  0  0  0  0
 33 47  1  0  0  0  0
 33 73  1  0  0  0  0
 33 78  2  0  0  0  0
 34 61  1  0  0  0  0
 34 68  1  0  0  0  0
 34 79  2  0  0  0  0
 35 62  1  0  0  0  0
 35 74  1  0  0  0  0
 35 80  2  0  0  0  0
 36 69  1  0  0  0  0
 36 75  1  0  0  0  0
 36 81  2  0  0  0  0
 37 40  1  0  0  0  0
 38 47  1  0  0  0  0
 39 68  1  0  0  0  0
 40 42  1  0  0  0  0
 41 43  1  0  0  0  0
 41 44  1  0  0  0  0
 42 46  1  0  0  0  0
 43 48  1  0  0  0  0
 44 69  1  0  0  0  0
 45 48  1  0  0  0  0
 45 69  1  0  0  0  0
 46 73  1  0  0  0  0
 47 68  1  0  0  0  0
 48 67  1  0  0  0  0
 50 60  1  0  0  0  0
 51 62  1  0  0  0  0
 52 63  1  0  0  0  0
 53 63  1  0  0  0  0
 54 64  1  0  0  0  0
 55 64  1  0  0  0  0
 56 64  1  0  0  0  0
 57 76  1  0  0  0  0
 58 59  1  0  0  0  0
 58 72  1  0  0  0  0
 59 75  1  0  0  0  0
 60 83  1  0  0  0  0
 61 64  1  0  0  0  0
 61 74  1  0  0  0  0
 62 76  1  0  0  0  0
 63 66  1  0  0  0  0
 65 67  1  0  0  0  0
M  CHG  1  76   1
M  ISO  4  36 100  60 101  75 100  83 101
M  END
> <Batch ID>
0123

> <Smiles>
CNC(C)C(=O)NC(C(=O)N1Cc2cc([101O:1][101CH:1](C)c3cc(NCC[100NH:0][100C:0](=O)N4CCCC(n5nc(-c6ccc(Oc7ccc(F)cc7F)cc6)c(C(N)=O)c5N)C4)n(C(C)C)c3C)ccc2CC1C(=O)NC1CCCc2ccccc21)C(C)(C)C

> <Shape>
0.202

> <Color>
0.062

> <Negative vol penalty>
0.000

$$$$

  -OEChem-04052320303D

 83 92  0     1  0  0  0  0  0999 V2000
  -22.4598  -11.6875   22.6148 C   0  0  0  0  0  0  0  0  0  0  0  0
  -22.3750  -13.0373   22.9407 C   0  0  0  0  0  0  0  0  0  0  0  0
  -29.7940  -25.8876   20.4895 C   0  0  0  0  0  0  0  0  0  0  0  0
  -28.2329  -24.6316   21.8395 C   0  0  0  0  0  0  0  0  0  0  0  0
  -23.5155  -11.2262   21.8295 C   0  0  0  0  0  0  0  0  0  0  0  0
  -23.3464  -13.9264   22.4824 C   0  0  0  0  0  0  0  0  0  0  0  0
  -21.5250  -25.1850   20.8127 C   0  0  0  0  0  0  0  0  0  0  0  0
  -22.5102  -19.7666   20.8397 C   0  0  0  0  0  0  0  0  0  0  0  0
  -30.8550  -25.1922   21.0694 C   0  0  0  0  0  0  0  0  0  0  0  0
  -29.2939  -23.9361   22.4193 C   0  0  0  0  0  0  0  0  0  0  0  0
  -22.5725  -24.2639   20.8099 C   0  0  0  0  0  0  0  0  0  0  0  0
  -22.7140  -20.9693   21.5148 C   0  0  0  0  0  0  0  0  0  0  0  0
  -31.3353  -21.3717   21.5964 C   0  0  0  0  0  0  0  0  0  0  0  0
  -31.2082  -19.9887   21.7255 C   0  0  0  0  0  0  0  0  0  0  0  0
  -21.4568  -25.1000   23.2262 C   0  0  0  0  0  0  0  0  0  0  0  0
  -24.8817  -21.1777   20.4769 C   0  0  0  0  0  0  0  0  0  0  0  0
  -31.4401  -20.1912   24.1219 C   0  0  0  0  0  0  0  0  0  0  0  0
  -28.4829  -25.6073   20.8746 C   0  0  0  0  0  0  0  0  0  0  0  0
  -26.6694  -25.9715   19.1178 C   0  0  0  0  0  0  0  0  0  0  0  0
  -20.9671  -25.6031   22.0208 C   0  0  0  0  0  0  0  0  0  0  0  0
  -24.4951  -12.1118   21.3533 C   0  0  0  0  0  0  0  0  0  0  0  0
  -23.4968  -19.2541   19.9850 C   0  0  0  0  0  0  0  0  0  0  0  0
  -24.4169  -13.4764   21.6911 C   0  0  0  0  0  0  0  0  0  0  0  0
  -24.6869  -19.9696   19.7901 C   0  0  0  0  0  0  0  0  0  0  0  0
  -22.5043  -24.1790   23.2234 C   0  0  0  0  0  0  0  0  0  0  0  0
  -30.6050  -24.2165   22.0343 C   0  0  0  0  0  0  0  0  0  0  0  0
  -23.9011  -21.6736   21.3357 C   0  0  0  0  0  0  0  0  0  0  0  0
  -23.0621  -23.7609   22.0152 C   0  0  0  0  0  0  0  0  0  1  0  0
  -31.5148  -22.1645   22.7300 C   0  0  0  0  0  0  0  0  0  0  0  0
  -31.2606  -19.3984   22.9883 C   0  0  0  0  0  0  0  0  0  0  0  0
  -31.5672  -21.5742   23.9927 C   0  0  0  0  0  0  0  0  0  0  0  0
  -27.3865  -26.3257   20.2763 C   0  0  0  0  0  0  0  0  0  0  0  0
  -25.7381  -26.9704   18.9717 C   0  0  0  0  0  0  0  0  0  0  0  0
  -26.8306  -24.8407   18.2513 C   0  0  0  0  0  0  0  0  0  0  0  0
  -25.2619  -16.6112   19.9271 C   0  0  0  0  0  0  0  0  0  0  0  0
  -26.2138  -17.7769   17.0535 C   0  0  0  0  0  0  0  0  0  0  0  0
  -26.6274  -20.4852   15.0187 C   0  0  0  0  0  0  0  0  0  0  0  0
  -22.3532  -30.4253   22.1530 C   0  0  0  0  0  0  0  0  0  0  0  0
  -25.6434  -11.5587   20.5469 C   0  0  0  0  0  0  0  0  0  0  0  0
  -23.2506  -17.9689   19.2435 C   0  0  0  0  0  0  0  0  0  0  0  0
  -25.7690  -19.4725   18.8680 C   0  0  0  0  0  0  0  0  0  0  0  0
  -26.4264  -12.6279   19.7893 C   0  0  0  0  0  0  0  0  0  0  0  0
  -25.3290  -31.6188   20.6049 C   0  0  0  0  0  0  0  0  0  0  0  0
  -26.7300  -13.8132   20.7002 C   0  0  0  0  0  0  0  0  0  0  0  0
  -26.0963  -30.3426   20.2547 C   0  0  0  0  0  0  0  0  0  0  0  0
  -24.5822  -31.4826   21.9300 C   0  0  0  0  0  0  0  0  0  0  0  0
  -24.4581  -29.0349   21.6707 C   0  0  0  0  0  0  0  0  0  0  0  0
  -18.4938  -26.3113   22.8213 C   0  0  0  0  0  0  0  0  0  0  0  0
  -19.7770  -26.6491   22.0236 C   0  0  1  0  0  0  0  0  0  0  0  0
  -25.4377  -14.4760   21.1923 C   0  0  1  0  0  0  0  0  0  0  0  0
  -24.5368  -17.2820   18.7949 C   0  0  1  0  0  0  0  0  0  0  0  0
  -25.1820  -29.1042   20.3152 C   0  0  2  0  0  0  0  0  0  0  0  0
  -19.8484  -27.8874   22.9615 C   0  0  1  0  0  0  0  0  0  0  0  0
  -23.0161  -23.6511   24.5229 C   0  0  0  0  0  0  0  0  0  0  0  0
  -27.4628  -21.1291   12.7417 C   0  0  0  0  0  0  0  0  0  0  0  0
  -29.0901  -17.4879   18.0298 C   0  0  0  0  0  0  0  0  0  0  0  0
  -29.8026  -18.9913   16.1589 C   0  0  0  0  0  0  0  0  0  0  0  0
  -28.7210  -16.8009   15.6537 C   0  0  0  0  0  0  0  0  0  0  0  0
  -23.9747  -21.5190   14.2103 C   0  0  0  0  0  0  0  0  0  0  0  0
  -20.1892  -29.2239   22.3350 C   0  0  0  0  0  0  0  0  0  0  0  0
  -27.3207  -18.6894   16.5836 C   0  0  1  0  0  0  0  0  0  0  0  0
  -26.2523  -20.7209   13.5667 C   0  0  2  0  0  0  0  0  0  0  0  0
  -28.7142  -18.0011   16.6254 C   0  0  0  0  0  0  0  0  0  0  0  0
  -26.9485  -27.4610   20.8270 N   0  0  0  0  0  0  0  0  0  0  0  0
  -25.9461  -27.8289   20.0109 N   0  0  0  0  0  0  0  0  0  0  0  0
  -25.4838  -18.2079   18.1703 N   0  0  0  0  0  0  0  0  0  0  0  0
  -23.7320  -30.2898   21.9215 N   0  0  0  0  0  0  0  0  0  0  0  0
  -24.7697  -27.1894   18.0570 N   0  0  0  0  0  0  0  0  0  0  0  0
  -27.8362  -23.9103   18.5472 N   0  0  0  0  0  0  0  0  0  0  0  0
  -24.8679  -15.3061   20.1528 N   0  0  0  0  0  0  0  0  0  0  0  0
  -26.9268  -19.1612   15.2604 N   0  0  0  0  0  0  0  0  0  0  0  0
  -21.6191  -29.2459   22.1214 N   0  0  0  0  0  0  0  0  0  0  0  0
  -18.3964  -27.7316   23.1908 N   0  3  0  0  0  0  0  0  0  0  0  0
  -25.2286  -21.7992   13.4646 N   0  3  0  0  0  0  0  0  0  0  0  0
  -26.1152  -24.6692   17.2353 O   0  0  0  0  0  0  0  0  0  0  0  0
  -26.1166  -17.2312   20.5489 O   0  0  0  0  0  0  0  0  0  0  0  0
  -25.9999  -16.7239   16.4476 O   0  0  0  0  0  0  0  0  0  0  0  0
  -26.6558  -21.3863   15.8540 O   0  0  0  0  0  0  0  0  0  0  0  0
  -21.8153  -31.5171   22.3664 O   0  0  0  0  0  0  0  0  0  0  0  0
  -31.6400  -23.5375   22.6002 O   0  0  0  0  0  0  0  0  0  0  0  0
  -24.1028  -22.8474   21.9940 O   0  0  0  0  0  0  0  0  0  1  0  0
  -31.1370  -18.0705   23.1123 F   0  0  0  0  0  0  0  0  0  0  0  0
  -31.7383  -22.3308   25.0855 F   0  0  0  0  0  0  0  0  0  0  0  0
  1  2  1  0  0  0  0
  1  5  2  0  0  0  0
  2  6  2  0  0  0  0
  3  9  2  0  0  0  0
  3 18  1  0  0  0  0
  4 10  1  0  0  0  0
  4 18  2  0  0  0  0
  5 21  1  0  0  0  0
  6 23  1  0  0  0  0
  7 11  2  0  0  0  0
  7 20  1  0  0  0  0
  8 12  2  0  0  0  0
  8 22  1  0  0  0  0
  9 26  1  0  0  0  0
 10 26  2  0  0  0  0
 11 28  1  0  0  0  0
 12 27  1  0  0  0  0
 13 14  2  0  0  0  0
 13 29  1  0  0  0  0
 14 30  1  0  0  0  0
 15 20  2  0  0  0  0
 15 25  1  0  0  0  0
 16 24  1  0  0  0  0
 16 27  2  0  0  0  0
 17 30  2  0  0  0  0
 17 31  1  0  0  0  0
 18 32  1  0  0  0  0
 19 32  1  0  0  0  0
 19 33  2  0  0  0  0
 19 34  1  0  0  0  0
 20 49  1  0  0  0  0
 21 23  2  0  0  0  0
 21 39  1  0  0  0  0
 22 24  2  0  0  0  0
 22 40  1  0  0  0  0
 23 50  1  0  0  0  0
 24 41  1  0  0  0  0
 25 28  2  0  0  0  0
 25 54  1  0  0  0  0
 26 80  1  0  0  0  0
 27 81  1  0  0  0  0
 28 81  1  0  0  0  0
 29 31  2  0  0  0  0
 29 80  1  0  0  0  0
 30 82  1  0  0  0  0
 31 83  1  0  0  0  0
 32 64  2  0  0  0  0
 33 65  1  0  0  0  0
 33 68  1  0  0  0  0
 34 69  1  0  0  0  0
 34 75  2  0  0  0  0
 35 51  1  0  0  0  0
 35 70  1  0  0  0  0
 35 76  2  0  0  0  0
 36 61  1  0  0  0  0
 36 66  1  0  0  0  0
 36 77  2  0  0  0  0
 37 62  1  0  0  0  0
 37 71  1  0  0  0  0
 37 78  2  0  0  0  0
 38 67  1  0  0  0  0
 38 72  1  0  0  0  0
 38 79  2  0  0  0  0
 39 42  1  0  0  0  0
 40 51  1  0  0  0  0
 41 66  1  0  0  0  0
 42 44  1  0  0  0  0
 43 45  1  0  0  0  0
 43 46  1  0  0  0  0
 44 50  1  0  0  0  0
 45 52  1  0  0  0  0
 46 67  1  0  0  0  0
 47 52  1  0  0  0  0
 47 67  1  0  0  0  0
 48 49  1  0  0  0  0
 48 73  1  0  0  0  0
 49 53  1  0  0  0  0
 50 70  1  0  0  0  0
 51 66  1  0  0  0  0
 52 65  1  0  0  0  0
 53 60  1  0  0  0  0
 53 73  1  0  0  0  0
 55 62  1  0  0  0  0
 56 63  1  0  0  0  0
 57 63  1  0  0  0  0
 58 63  1  0  0  0  0
 59 74  1  0  0  0  0
 60 72  1  0  0  0  0
 61 63  1  0  0  0  0
 61 71  1  0  0  0  0
 62 74  1  0  0  0  0
 64 65  1  0  0  0  0
M  CHG  2  73   1  74   1
M  ISO  4  28 101  38 100  72 100  81 101
M  END
> <Batch ID>
0123

> <Smiles>
CNC(C)C(=O)NC(C(=O)N1Cc2cc([101O:1][101c:1]3ccc(C4CNC4C[100NH:0][100C:0](=O)N4CCCC(n5nc(-c6ccc(Oc7ccc(F)cc7F)cc6)c(C(N)=O)c5N)C4)cc3C)ccc2CC1C(=O)NC1CCCc2ccccc21)C(C)(C)C

> <Shape>
0.187

> <Color>
0.079

> <Negative vol penalty>
0.000

$$$$

  -OEChem-04052320303D

 91100  0     1  0  0  0  0  0999 V2000
  -16.5836  -30.0007   20.5551 C   0  0  0  0  0  0  0  0  0  0  0  0
  -17.7399  -29.3426   20.1487 C   0  0  0  0  0  0  0  0  0  0  0  0
  -22.8822  -10.0773   19.8732 C   0  0  0  0  0  0  0  0  0  0  0  0
  -23.8777   -9.7291   22.0468 C   0  0  0  0  0  0  0  0  0  0  0  0
  -16.3593  -30.2412   21.9100 C   0  0  0  0  0  0  0  0  0  0  0  0
  -18.6733  -28.9257   21.0970 C   0  0  0  0  0  0  0  0  0  0  0  0
  -22.1426  -23.8836   20.8786 C   0  0  0  0  0  0  0  0  0  0  0  0
  -22.1174   -8.9226   20.0384 C   0  0  0  0  0  0  0  0  0  0  0  0
  -23.1129   -8.5744   22.2121 C   0  0  0  0  0  0  0  0  0  0  0  0
  -23.4656  -23.6713   20.4933 C   0  0  0  0  0  0  0  0  0  0  0  0
  -19.9330   -7.7935   23.0481 C   0  0  0  0  0  0  0  0  0  0  0  0
  -19.3019   -7.6065   24.2778 C   0  0  0  0  0  0  0  0  0  0  0  0
  -30.5736  -22.8837   20.4014 C   0  0  0  0  0  0  0  0  0  0  0  0
  -28.4542  -21.9531   21.0543 C   0  0  0  0  0  0  0  0  0  0  0  0
  -24.1558  -23.8263   22.7995 C   0  0  0  0  0  0  0  0  0  0  0  0
  -20.5251   -5.5469   24.5925 C   0  0  0  0  0  0  0  0  0  0  0  0
  -23.7624  -10.4806   20.8773 C   0  0  0  0  0  0  0  0  0  0  0  0
  -29.7163  -21.7929   20.4934 C   0  0  0  0  0  0  0  0  0  0  0  0
  -24.2032  -12.9852   21.0776 C   0  0  0  0  0  0  0  0  0  0  0  0
  -17.2858  -29.8184   22.8761 C   0  0  0  0  0  0  0  0  0  0  0  0
  -21.8172  -24.0801   22.2284 C   0  0  0  0  0  0  0  0  0  0  0  0
  -18.4619  -29.1619   22.4660 C   0  0  0  0  0  0  0  0  0  0  0  0
  -22.8276  -24.0384   23.1997 C   0  0  0  0  0  0  0  0  0  0  0  0
  -22.2327   -8.1712   21.2079 C   0  0  0  0  0  0  0  0  0  0  0  0
  -24.4728  -23.6455   21.4535 C   0  0  0  0  0  0  0  0  0  0  0  0
  -20.8601   -6.8571   22.5904 C   0  0  0  0  0  0  0  0  0  0  0  0
  -19.5979   -6.4833   25.0500 C   0  0  0  0  0  0  0  0  0  0  0  0
  -21.1561   -5.7338   23.3626 C   0  0  0  0  0  0  0  0  0  0  0  0
  -24.5531  -11.6730   20.7069 C   0  0  0  0  0  0  0  0  0  0  0  0
  -30.1248  -24.1037   20.8811 C   0  0  0  0  0  0  0  0  0  0  0  0
  -28.1003  -23.2146   21.5050 C   0  0  0  0  0  0  0  0  0  0  0  0
  -25.2840  -13.7468   20.7055 C   0  0  0  0  0  0  0  0  0  0  0  0
  -30.1386  -20.4902   20.0047 C   0  0  0  0  0  0  0  0  0  0  0  0
  -23.0082  -13.4721   21.7024 C   0  0  0  0  0  0  0  0  0  0  0  0
  -20.5252  -26.4537   23.9018 C   0  0  0  0  0  0  0  0  0  0  0  0
  -20.6193  -24.2854   26.3126 C   0  0  0  0  0  0  0  0  0  0  0  0
  -22.0380  -21.4732   27.6262 C   0  0  0  0  0  0  0  0  0  0  0  0
  -30.7976  -14.5652   20.4304 C   0  0  0  0  0  0  0  0  0  0  0  0
  -17.0226  -30.1429   24.3253 C   0  0  0  0  0  0  0  0  0  0  0  0
  -20.3819  -24.2813   22.6306 C   0  0  0  0  0  0  0  0  0  0  0  0
  -22.5282  -24.2236   24.6641 C   0  0  0  0  0  0  0  0  0  0  0  0
  -17.8818  -29.3366   25.2958 C   0  0  0  0  0  0  0  0  0  0  0  0
  -27.2771  -17.3295   16.6978 C   0  0  0  0  0  0  0  0  0  0  0  0
  -28.5428  -18.1424   16.4440 C   0  0  0  0  0  0  0  0  0  0  0  0
  -26.3920  -17.9844   17.7537 C   0  0  0  0  0  0  0  0  0  0  0  0
  -29.3099  -12.5868   17.8713 C   0  0  0  0  0  0  0  0  0  0  0  0
  -19.3383  -29.3326   24.8427 C   0  0  0  0  0  0  0  0  0  0  0  0
  -29.3130  -18.4039   17.7364 C   0  0  0  0  0  0  0  0  0  0  0  0
  -27.1586  -18.2458   19.0482 C   0  0  0  0  0  0  0  0  0  0  0  0
  -27.9139  -12.2760   18.4142 C   0  0  0  0  0  0  0  0  0  0  0  0
  -30.3568  -12.6039   18.9829 C   0  0  0  0  0  0  0  0  0  0  0  0
  -28.6457  -13.1820   20.6597 C   0  0  0  0  0  0  0  0  0  0  0  0
  -19.4862  -28.6723   23.4666 C   0  0  1  0  0  0  0  0  0  0  0  0
  -20.2313  -24.9821   23.9773 C   0  0  1  0  0  0  0  0  0  0  0  0
  -28.4281  -19.0709   18.7982 C   0  0  0  0  0  0  0  0  0  0  0  0
  -27.5466  -13.2089   19.5838 C   0  0  2  0  0  0  0  0  0  0  0  0
  -31.0181  -25.2961   20.7978 C   0  0  0  0  0  0  0  0  0  0  0  0
  -21.9307  -19.9636   29.6279 C   0  0  0  0  0  0  0  0  0  0  0  0
  -22.1135  -26.3718   27.9631 C   0  0  0  0  0  0  0  0  0  0  0  0
  -22.7974  -24.5419   29.5289 C   0  0  0  0  0  0  0  0  0  0  0  0
  -20.3815  -25.0857   29.2283 C   0  0  0  0  0  0  0  0  0  0  0  0
  -21.2986  -19.1356   25.9685 C   0  0  0  0  0  0  0  0  0  0  0  0
  -26.7461  -23.4248   22.1161 C   0  0  0  0  0  0  0  0  0  1  0  0
  -31.0895  -16.5107   21.9433 C   0  0  0  0  0  0  0  0  0  0  0  0
  -30.3364  -17.8182   21.7835 C   0  0  0  0  0  0  0  0  0  0  0  0
  -29.2047  -19.2732   20.0979 C   0  0  1  0  0  0  0  0  0  0  0  0
  -21.6269  -23.9064   27.3708 C   0  0  1  0  0  0  0  0  0  0  0  0
  -21.4238  -20.2168   28.2167 C   0  0  2  0  0  0  0  0  0  0  0  0
  -21.7361  -24.9749   28.4951 C   0  0  0  0  0  0  0  0  0  0  0  0
  -25.7616  -11.6015   20.1425 N   0  0  0  0  0  0  0  0  0  0  0  0
  -28.9058  -24.2979   21.4325 N   0  0  0  0  0  0  0  0  0  0  0  0
  -26.1804  -12.8784   20.1557 N   0  0  0  0  0  0  0  0  0  0  0  0
  -21.1103  -24.4235   25.0066 N   0  0  0  0  0  0  0  0  0  0  0  0
  -29.9490  -13.5088   20.0603 N   0  0  0  0  0  0  0  0  0  0  0  0
  -25.5454  -15.0680   20.7982 N   0  0  0  0  0  0  0  0  0  0  0  0
  -21.9972  -12.5540   22.0176 N   0  0  0  0  0  0  0  0  0  0  0  0
  -19.4268  -27.2314   23.5885 N   0  0  0  0  0  0  0  0  0  0  0  0
  -21.2443  -22.5799   27.8424 N   0  0  0  0  0  0  0  0  0  0  0  0
  -30.3324  -15.3794   21.4558 N   0  0  0  0  0  0  0  0  0  0  0  0
  -21.7596  -19.0322   27.3770 N   0  3  0  0  0  0  0  0  0  0  0  0
  -29.9921  -18.0278   20.3560 N   0  3  0  0  0  0  0  0  0  0  0  0
  -31.2588  -20.3256   19.4888 O   0  0  0  0  0  0  0  0  0  0  0  0
  -22.8349  -14.6879   21.9584 O   0  0  0  0  0  0  0  0  0  0  0  0
  -21.6638  -26.8541   24.1136 O   0  0  0  0  0  0  0  0  0  0  0  0
  -19.4386  -24.4459   26.6317 O   0  0  0  0  0  0  0  0  0  0  0  0
  -23.1159  -21.4736   27.0357 O   0  0  0  0  0  0  0  0  0  0  0  0
  -31.8865  -14.7709   19.8837 O   0  0  0  0  0  0  0  0  0  0  0  0
  -21.4864   -7.0445   21.3697 O   0  0  0  0  0  0  0  0  0  0  0  0
  -25.7650  -23.4391   21.0800 O   0  0  0  0  0  0  0  0  0  1  0  0
  -18.9929   -6.3047   26.2317 F   0  0  0  0  0  0  0  0  0  0  0  0
  -22.0468   -4.8314   22.9288 F   0  0  0  0  0  0  0  0  0  0  0  0
  1  2  1  0  0  0  0
  1  5  2  0  0  0  0
  2  6  2  0  0  0  0
  3  8  2  0  0  0  0
  3 17  1  0  0  0  0
  4  9  1  0  0  0  0
  4 17  2  0  0  0  0
  5 20  1  0  0  0  0
  6 22  1  0  0  0  0
  7 10  2  0  0  0  0
  7 21  1  0  0  0  0
  8 24  1  0  0  0  0
  9 24  2  0  0  0  0
 10 25  1  0  0  0  0
 11 12  2  0  0  0  0
 11 26  1  0  0  0  0
 12 27  1  0  0  0  0
 13 18  1  0  0  0  0
 13 30  2  0  0  0  0
 14 18  2  0  0  0  0
 14 31  1  0  0  0  0
 15 23  1  0  0  0  0
 15 25  2  0  0  0  0
 16 27  2  0  0  0  0
 16 28  1  0  0  0  0
 17 29  1  0  0  0  0
 18 33  1  0  0  0  0
 19 29  1  0  0  0  0
 19 32  2  0  0  0  0
 19 34  1  0  0  0  0
 20 22  2  0  0  0  0
 20 39  1  0  0  0  0
 21 23  2  0  0  0  0
 21 40  1  0  0  0  0
 22 53  1  0  0  0  0
 23 41  1  0  0  0  0
 24 88  1  0  0  0  0
 25 89  1  0  0  0  0
 26 28  2  0  0  0  0
 26 88  1  0  0  0  0
 27 90  1  0  0  0  0
 28 91  1  0  0  0  0
 29 70  2  0  0  0  0
 30 57  1  0  0  0  0
 30 71  1  0  0  0  0
 31 63  1  0  0  0  0
 31 71  2  0  0  0  0
 32 72  1  0  0  0  0
 32 75  1  0  0  0  0
 33 66  1  0  0  0  0
 33 82  2  0  0  0  0
 34 76  1  0  0  0  0
 34 83  2  0  0  0  0
 35 54  1  0  0  0  0
 35 77  1  0  0  0  0
 35 84  2  0  0  0  0
 36 67  1  0  0  0  0
 36 73  1  0  0  0  0
 36 85  2  0  0  0  0
 37 68  1  0  0  0  0
 37 78  1  0  0  0  0
 37 86  2  0  0  0  0
 38 74  1  0  0  0  0
 38 79  1  0  0  0  0
 38 87  2  0  0  0  0
 39 42  1  0  0  0  0
 40 54  1  0  0  0  0
 41 73  1  0  0  0  0
 42 47  1  0  0  0  0
 43 44  1  0  0  0  0
 43 45  1  0  0  0  0
 44 48  1  0  0  0  0
 45 49  1  0  0  0  0
 46 50  1  0  0  0  0
 46 51  1  0  0  0  0
 47 53  1  0  0  0  0
 48 55  1  0  0  0  0
 49 55  1  0  0  0  0
 50 56  1  0  0  0  0
 51 74  1  0  0  0  0
 52 56  1  0  0  0  0
 52 74  1  0  0  0  0
 53 77  1  0  0  0  0
 54 73  1  0  0  0  0
 55 66  1  0  0  0  0
 56 72  1  0  0  0  0
 58 68  1  0  0  0  0
 59 69  1  0  0  0  0
 60 69  1  0  0  0  0
 61 69  1  0  0  0  0
 62 80  1  0  0  0  0
 63 89  1  0  0  0  0
 64 65  1  0  0  0  0
 64 79  1  0  0  0  0
 65 81  1  0  0  0  0
 66 81  1  0  0  0  0
 67 69  1  0  0  0  0
 67 78  1  0  0  0  0
 68 80  1  0  0  0  0
 70 72  1  0  0  0  0
M  CHG  2  80   1  81   1
M  ISO  4  38 100  63 101  79 100  89 101
M  END
> <Batch ID>
0123

> <Smiles>
CNC(C)C(=O)NC(C(=O)N1Cc2cc([101O:1][101CH2:1]c3cc(C(=O)C(NCC[100NH:0][100C:0](=O)N4CCCC(n5nc(-c6ccc(Oc7ccc(F)cc7F)cc6)c(C(N)=O)c5N)C4)C4CCCCC4)cc(C)n3)ccc2CC1C(=O)NC1CCCc2ccccc21)C(C)(C)C

> <Shape>
0.281

> <Color>
0.180

> <Negative vol penalty>
0.000

$$$$

  -OEChem-04052320303D

 89 98  0     1  0  0  0  0  0999 V2000
  -32.0993  -21.8754   25.2546 C   0  0  0  0  0  0  0  0  0  0  0  0
  -30.7563  -22.0465   25.5749 C   0  0  0  0  0  0  0  0  0  0  0  0
  -29.7350  -26.6733   20.6892 C   0  0  0  0  0  0  0  0  0  0  0  0
  -30.2963  -28.9577   20.1381 C   0  0  0  0  0  0  0  0  0  0  0  0
  -32.4578  -21.3658   24.0073 C   0  0  0  0  0  0  0  0  0  0  0  0
  -29.7711  -21.7091   24.6475 C   0  0  0  0  0  0  0  0  0  0  0  0
  -18.8498  -26.3452   22.0881 C   0  0  0  0  0  0  0  0  0  0  0  0
  -18.3098  -28.0062   23.7575 C   0  0  0  0  0  0  0  0  0  0  0  0
  -24.2349  -19.3789   25.8415 C   0  0  0  0  0  0  0  0  0  0  0  0
  -19.9771  -27.0802   21.7214 C   0  0  0  0  0  0  0  0  0  0  0  0
  -19.4372  -28.7412   23.3908 C   0  0  0  0  0  0  0  0  0  0  0  0
  -31.0825  -26.3984   20.9222 C   0  0  0  0  0  0  0  0  0  0  0  0
  -31.6438  -28.6828   20.3712 C   0  0  0  0  0  0  0  0  0  0  0  0
  -22.9723  -19.9624   25.9376 C   0  0  0  0  0  0  0  0  0  0  0  0
  -33.3395  -26.9123   23.3870 C   0  0  0  0  0  0  0  0  0  0  0  0
  -33.6642  -26.1869   24.5333 C   0  0  0  0  0  0  0  0  0  0  0  0
  -22.5284  -19.3653   23.6429 C   0  0  0  0  0  0  0  0  0  0  0  0
  -34.6587  -24.4645   23.1617 C   0  0  0  0  0  0  0  0  0  0  0  0
  -29.3419  -27.9530   20.2970 C   0  0  0  0  0  0  0  0  0  0  0  0
  -27.1088  -27.6230   19.1088 C   0  0  0  0  0  0  0  0  0  0  0  0
  -18.0161  -26.8082   23.1061 C   0  0  0  0  0  0  0  0  0  0  0  0
  -31.4762  -21.0129   23.0679 C   0  0  0  0  0  0  0  0  0  0  0  0
  -24.6586  -18.7927   24.6401 C   0  0  0  0  0  0  0  0  0  0  0  0
  -30.1169  -21.1956   23.3860 C   0  0  0  0  0  0  0  0  0  0  0  0
  -23.7958  -18.7727   23.5350 C   0  0  0  0  0  0  0  0  0  0  0  0
  -20.2708  -28.2782   22.3728 C   0  0  0  0  0  0  0  0  0  0  0  0
  -32.0369  -27.4031   20.7633 C   0  0  0  0  0  0  0  0  0  0  0  0
  -22.1200  -19.9583   24.8373 C   0  0  0  0  0  0  0  0  0  0  0  0
  -33.6742  -26.4137   22.1280 C   0  0  0  0  0  0  0  0  0  0  0  0
  -34.3238  -24.9631   24.4207 C   0  0  0  0  0  0  0  0  0  0  0  0
  -34.3338  -25.1898   22.0153 C   0  0  0  0  0  0  0  0  0  0  0  0
  -27.9502  -28.2374   20.0555 C   0  0  0  0  0  0  0  0  0  0  0  0
  -25.8942  -28.2421   19.2759 C   0  0  0  0  0  0  0  0  0  0  0  0
  -27.3991  -26.5853   18.1629 C   0  0  0  0  0  0  0  0  0  0  0  0
  -27.0209  -19.3441   22.5861 C   0  0  0  0  0  0  0  0  0  0  0  0
  -25.9296  -16.6214   21.2010 C   0  0  0  0  0  0  0  0  0  0  0  0
  -23.3346  -14.4604   20.7085 C   0  0  0  0  0  0  0  0  0  0  0  0
  -21.8507  -30.2328   22.5455 C   0  0  0  0  0  0  0  0  0  0  0  0
  -31.9136  -20.5102   21.7149 C   0  0  0  0  0  0  0  0  0  0  0  0
  -26.0132  -18.1438   24.5609 C   0  0  0  0  0  0  0  0  0  0  0  0
  -24.1952  -18.1384   22.2286 C   0  0  0  0  0  0  0  0  0  0  0  0
  -30.7978  -19.8259   20.9294 C   0  0  0  0  0  0  0  0  0  0  0  0
  -24.6357  -32.3641   21.9306 C   0  0  0  0  0  0  0  0  0  0  0  0
  -29.5222  -20.6610   20.9764 C   0  0  0  0  0  0  0  0  0  0  0  0
  -25.6771  -31.4300   21.3101 C   0  0  0  0  0  0  0  0  0  0  0  0
  -23.8249  -31.6653   23.0205 C   0  0  0  0  0  0  0  0  0  0  0  0
  -15.5508  -24.8793   25.2930 C   0  0  0  0  0  0  0  0  0  0  0  0
  -24.2428  -29.4649   21.9945 C   0  0  0  0  0  0  0  0  0  0  0  0
  -14.3199  -25.7310   25.0245 C   0  0  0  0  0  0  0  0  0  0  0  0
  -15.5408  -26.8559   23.1897 C   0  0  0  0  0  0  0  0  0  0  0  0
  -16.7831  -26.0043   23.5070 C   0  0  2  0  0  0  0  0  0  0  0  0
  -29.0183  -20.8180   22.4162 C   0  0  1  0  0  0  0  0  0  0  0  0
  -26.5388  -18.0303   23.1332 C   0  0  1  0  0  0  0  0  0  0  0  0
  -25.0406  -30.1050   20.8466 C   0  0  2  0  0  0  0  0  0  0  0  0
  -22.7346  -12.3461   19.4972 C   0  0  0  0  0  0  0  0  0  0  0  0
  -18.3301  -24.7947   26.6926 C   0  0  0  0  0  0  0  0  0  0  0  0
  -25.7389  -18.1779   18.5836 C   0  0  0  0  0  0  0  0  0  0  0  0
  -24.2801  -16.3523   17.6852 C   0  0  0  0  0  0  0  0  0  0  0  0
  -26.6314  -15.8532   18.3522 C   0  0  0  0  0  0  0  0  0  0  0  0
  -22.7465  -13.0409   23.2379 C   0  0  0  0  0  0  0  0  0  0  0  0
  -18.7185  -21.1109   24.0689 C   0  0  0  0  0  0  0  0  0  0  0  0
  -17.6530  -23.2585   24.7696 C   0  0  0  0  0  0  0  0  0  0  0  0
  -20.0659  -20.4876   23.7620 C   0  0  0  0  0  0  0  0  0  1  0  0
  -24.9028  -16.2976   20.1429 C   0  0  1  0  0  0  0  0  0  0  0  0
  -23.2540  -12.9469   20.7941 C   0  0  2  0  0  0  0  0  0  0  0  0
  -17.9356  -24.6905   25.2226 C   0  0  1  0  0  0  0  0  0  0  0  0
  -25.3812  -16.6840   18.7149 C   0  0  0  0  0  0  0  0  0  0  0  0
  -27.3233  -29.1750   20.7710 N   0  0  0  0  0  0  0  0  0  0  0  0
  -26.0750  -29.1545   20.2735 N   0  0  0  0  0  0  0  0  0  0  0  0
  -25.5321  -17.5224   22.1990 N   0  0  0  0  0  0  0  0  0  0  0  0
  -23.2486  -30.4203   22.5079 N   0  0  0  0  0  0  0  0  0  0  0  0
  -16.7995  -25.5739   24.9289 N   0  0  2  0  0  0  0  0  0  0  0  0
  -24.6999  -28.0898   18.6653 N   0  0  0  0  0  0  0  0  0  0  0  0
  -27.8527  -26.9510   16.8882 N   0  0  0  0  0  0  0  0  0  0  0  0
  -21.4161  -29.0249   22.0007 N   0  0  0  0  0  0  0  0  0  0  0  0
  -28.3504  -19.6104   22.8523 N   0  0  0  0  0  0  0  0  0  0  0  0
  -24.5830  -14.8833   20.3036 N   0  0  0  0  0  0  0  0  0  0  0  0
  -14.3118  -26.1142   23.5868 N   0  3  0  0  0  0  0  0  0  0  0  0
  -22.3420  -12.5385   21.8997 N   0  3  0  0  0  0  0  0  0  0  0  0
  -18.9135  -22.5271   24.4695 N   0  3  0  0  0  0  0  0  0  0  0  0
  -27.2448  -25.3705   18.4345 O   0  0  0  0  0  0  0  0  0  0  0  0
  -26.2446  -20.0622   21.9669 O   0  0  0  0  0  0  0  0  0  0  0  0
  -27.0410  -16.0889   21.1482 O   0  0  0  0  0  0  0  0  0  0  0  0
  -22.3840  -15.1939   20.9706 O   0  0  0  0  0  0  0  0  0  0  0  0
  -21.0926  -31.0930   23.0008 O   0  0  0  0  0  0  0  0  0  0  0  0
  -33.3518  -27.1353   20.9909 O   0  0  0  0  0  0  0  0  0  0  0  0
  -20.8874  -20.5278   24.9281 O   0  0  0  0  0  0  0  0  0  1  0  0
  -34.6370  -24.2674   25.5216 F   0  0  0  0  0  0  0  0  0  0  0  0
  -34.6591  -24.7062   20.8086 F   0  0  0  0  0  0  0  0  0  0  0  0
  1  2  1  0  0  0  0
  1  5  2  0  0  0  0
  2  6  2  0  0  0  0
  3 12  2  0  0  0  0
  3 19  1  0  0  0  0
  4 13  1  0  0  0  0
  4 19  2  0  0  0  0
  5 22  1  0  0  0  0
  6 24  1  0  0  0  0
  7 10  2  0  0  0  0
  7 21  1  0  0  0  0
  8 11  1  0  0  0  0
  8 21  2  0  0  0  0
  9 14  2  0  0  0  0
  9 23  1  0  0  0  0
 10 26  1  0  0  0  0
 11 26  2  0  0  0  0
 12 27  1  0  0  0  0
 13 27  2  0  0  0  0
 14 28  1  0  0  0  0
 15 16  2  0  0  0  0
 15 29  1  0  0  0  0
 16 30  1  0  0  0  0
 17 25  1  0  0  0  0
 17 28  2  0  0  0  0
 18 30  2  0  0  0  0
 18 31  1  0  0  0  0
 19 32  1  0  0  0  0
 20 32  1  0  0  0  0
 20 33  2  0  0  0  0
 20 34  1  0  0  0  0
 21 51  1  0  0  0  0
 22 24  2  0  0  0  0
 22 39  1  0  0  0  0
 23 25  2  0  0  0  0
 23 40  1  0  0  0  0
 24 52  1  0  0  0  0
 25 41  1  0  0  0  0
 26 75  1  0  0  0  0
 27 86  1  0  0  0  0
 28 87  1  0  0  0  0
 29 31  2  0  0  0  0
 29 86  1  0  0  0  0
 30 88  1  0  0  0  0
 31 89  1  0  0  0  0
 32 68  2  0  0  0  0
 33 69  1  0  0  0  0
 33 73  1  0  0  0  0
 34 74  1  0  0  0  0
 34 81  2  0  0  0  0
 35 53  1  0  0  0  0
 35 76  1  0  0  0  0
 35 82  2  0  0  0  0
 36 64  1  0  0  0  0
 36 70  1  0  0  0  0
 36 83  2  0  0  0  0
 37 65  1  0  0  0  0
 37 77  1  0  0  0  0
 37 84  2  0  0  0  0
 38 71  1  0  0  0  0
 38 75  1  0  0  0  0
 38 85  2  0  0  0  0
 39 42  1  0  0  0  0
 40 53  1  0  0  0  0
 41 70  1  0  0  0  0
 42 44  1  0  0  0  0
 43 45  1  0  0  0  0
 43 46  1  0  0  0  0
 44 52  1  0  0  0  0
 45 54  1  0  0  0  0
 46 71  1  0  0  0  0
 47 49  1  0  0  0  0
 47 72  1  0  0  0  0
 48 54  1  0  0  0  0
 48 71  1  0  0  0  0
 49 78  1  0  0  0  0
 50 51  1  0  0  0  0
 50 78  1  0  0  0  0
 51 72  1  0  0  0  0
 52 76  1  0  0  0  0
 53 70  1  0  0  0  0
 54 69  1  0  0  0  0
 55 65  1  0  0  0  0
 56 66  1  0  0  0  0
 57 67  1  0  0  0  0
 58 67  1  0  0  0  0
 59 67  1  0  0  0  0
 60 79  1  0  0  0  0
 61 63  1  0  0  0  0
 61 80  1  0  0  0  0
 62 66  1  0  0  0  0
 62 80  1  0  0  0  0
 63 87  1  0  0  0  0
 64 67  1  0  0  0  0
 64 77  1  0  0  0  0
 65 79  1  0  0  0  0
 66 72  1  0  0  0  0
 68 69  1  0  0  0  0
M  CHG  3  78   1  79   1  80   1
M  ISO  4  38 100  63 101  75 100  87 101
M  END
> <Batch ID>
0123

> <Smiles>
CNC(C)C(=O)NC(C(=O)N1Cc2cc([101O:1][101CH2:1]CNCC(C)N3CCNCC3c3ccc([100NH:0][100C:0](=O)N4CCCC(n5nc(-c6ccc(Oc7ccc(F)cc7F)cc6)c(C(N)=O)c5N)C4)cc3)ccc2CC1C(=O)NC1CCCc2ccccc21)C(C)(C)C

> <Shape>
0.183

> <Color>
0.078

> <Negative vol penalty>
0.000

$$$$

  -OEChem-04052320303D

 90 98  0     1  0  0  0  0  0999 V2000
  -25.4406  -35.5376   21.8678 C   0  0  0  0  0  0  0  0  0  0  0  0
  -26.0960  -34.3134   21.7835 C   0  0  0  0  0  0  0  0  0  0  0  0
  -23.0545  -12.9086   19.9439 C   0  0  0  0  0  0  0  0  0  0  0  0
  -23.1355  -14.0619   22.0653 C   0  0  0  0  0  0  0  0  0  0  0  0
  -24.2047  -35.6226   22.5076 C   0  0  0  0  0  0  0  0  0  0  0  0
  -25.5165  -33.1737   22.3399 C   0  0  0  0  0  0  0  0  0  0  0  0
  -25.7907  -29.1573   19.2677 C   0  0  0  0  0  0  0  0  0  0  0  0
  -26.2448  -21.8794   20.8184 C   0  0  0  0  0  0  0  0  0  0  0  0
  -22.3856  -11.8442   20.5481 C   0  0  0  0  0  0  0  0  0  0  0  0
  -22.4665  -12.9974   22.6695 C   0  0  0  0  0  0  0  0  0  0  0  0
  -27.0139  -28.4920   19.1972 C   0  0  0  0  0  0  0  0  0  0  0  0
  -20.9746   -8.6644   21.6072 C   0  0  0  0  0  0  0  0  0  0  0  0
  -21.3982   -7.3716   21.2991 C   0  0  0  0  0  0  0  0  0  0  0  0
  -26.9601  -21.3237   21.8733 C   0  0  0  0  0  0  0  0  0  0  0  0
  -26.1802  -26.8109   20.7131 C   0  0  0  0  0  0  0  0  0  0  0  0
  -23.5942   -7.8844   22.1662 C   0  0  0  0  0  0  0  0  0  0  0  0
  -23.4295  -14.0175   20.7025 C   0  0  0  0  0  0  0  0  0  0  0  0
  -23.5452  -16.2550   19.4827 C   0  0  0  0  0  0  0  0  0  0  0  0
  -23.6052  -34.4816   23.0637 C   0  0  0  0  0  0  0  0  0  0  0  0
  -24.7550  -28.6594   20.0714 C   0  0  0  0  0  0  0  0  0  0  0  0
  -24.2720  -33.2438   22.9889 C   0  0  0  0  0  0  0  0  0  0  0  0
  -24.9440  -27.4704   20.7902 C   0  0  0  0  0  0  0  0  0  0  0  0
  -26.8677  -22.0771   19.5912 C   0  0  0  0  0  0  0  0  0  0  0  0
  -22.0916  -11.8885   21.9109 C   0  0  0  0  0  0  0  0  0  0  0  0
  -27.2098  -27.3202   19.9222 C   0  0  0  0  0  0  0  0  0  0  0  0
  -21.8609   -9.5672   22.1947 C   0  0  0  0  0  0  0  0  0  0  0  0
  -22.7079   -6.9816   21.5786 C   0  0  0  0  0  0  0  0  0  0  0  0
  -23.1706   -9.1772   22.4742 C   0  0  0  0  0  0  0  0  0  0  0  0
  -24.1210  -15.1172   20.0791 C   0  0  0  0  0  0  0  0  0  0  0  0
  -28.1970  -21.7051   19.4712 C   0  0  0  0  0  0  0  0  0  0  0  0
  -28.2852  -20.9852   21.6511 C   0  0  0  0  0  0  0  0  0  0  0  0
  -24.6175  -16.9916   19.0423 C   0  0  0  0  0  0  0  0  0  0  0  0
  -22.1645  -16.6140   19.3398 C   0  0  0  0  0  0  0  0  0  0  0  0
  -23.1541  -29.7442   22.5941 C   0  0  0  0  0  0  0  0  0  0  0  0
  -21.3876  -27.0622   22.1372 C   0  0  0  0  0  0  0  0  0  0  0  0
  -21.2013  -23.8952   20.8794 C   0  0  0  0  0  0  0  0  0  0  0  0
  -30.3432  -17.2909   20.7681 C   0  0  0  0  0  0  0  0  0  0  0  0
  -22.2902  -34.6319   23.7868 C   0  0  0  0  0  0  0  0  0  0  0  0
  -23.4325  -29.3744   20.1159 C   0  0  0  0  0  0  0  0  0  0  0  0
  -23.8570  -26.8834   21.6518 C   0  0  0  0  0  0  0  0  0  0  0  0
  -21.5695  -33.3069   24.0219 C   0  0  0  0  0  0  0  0  0  0  0  0
  -29.1256  -16.4990   17.5174 C   0  0  0  0  0  0  0  0  0  0  0  0
  -22.5389  -32.2603   24.5621 C   0  0  0  0  0  0  0  0  0  0  0  0
  -27.6530  -16.1577   17.7515 C   0  0  0  0  0  0  0  0  0  0  0  0
  -30.0061  -16.0192   18.6692 C   0  0  0  0  0  0  0  0  0  0  0  0
  -28.1102  -16.1374   20.2393 C   0  0  0  0  0  0  0  0  0  0  0  0
  -23.6641  -31.9805   23.5585 C   0  0  1  0  0  0  0  0  0  0  0  0
  -22.6227  -29.0557   21.3689 C   0  0  1  0  0  0  0  0  0  0  0  0
  -27.1755  -16.6508   19.1307 C   0  0  2  0  0  0  0  0  0  0  0  0
  -20.1638  -21.7028   20.2357 C   0  0  0  0  0  0  0  0  0  0  0  0
  -23.0711  -21.4927   16.5626 C   0  0  0  0  0  0  0  0  0  0  0  0
  -25.1804  -22.3471   15.4694 C   0  0  0  0  0  0  0  0  0  0  0  0
  -21.9131  -26.3686   25.0617 C   0  0  0  0  0  0  0  0  0  0  0  0
  -21.1756  -24.0278   24.5666 C   0  0  0  0  0  0  0  0  0  0  0  0
  -19.5774  -25.9227   24.2872 C   0  0  0  0  0  0  0  0  0  0  0  0
  -20.3710  -24.9323   18.2348 C   0  0  0  0  0  0  0  0  0  0  0  0
  -26.1065  -22.6724   18.4577 C   0  0  0  0  0  0  0  0  0  0  0  0
  -28.9212  -21.8955   18.1699 C   0  0  0  0  0  0  0  0  0  0  0  0
  -30.3689  -20.0288   22.6356 C   0  0  0  0  0  0  0  0  0  0  0  0
  -30.5231  -18.5398   22.9052 C   0  0  0  0  0  0  0  0  0  0  0  0
  -29.8851  -23.0777   18.1679 C   0  0  0  0  0  0  0  0  0  0  0  0
  -30.0079  -25.5561   18.4528 C   0  0  0  0  0  0  0  0  0  0  0  0
  -29.1384  -26.7840   18.6381 C   0  0  0  0  0  0  0  0  0  1  0  0
  -21.4627  -25.6363   22.6272 C   0  0  1  0  0  0  0  0  0  0  0  0
  -20.1470  -23.2094   20.0293 C   0  0  2  0  0  0  0  0  0  0  0  0
  -24.3349  -22.3204   16.7326 C   0  0  0  0  0  0  0  0  0  0  0  0
  -21.0535  -25.5007   24.1210 C   0  0  0  0  0  0  0  0  0  0  0  0
  -25.4555  -15.1257   20.0241 N   0  0  0  0  0  0  0  0  0  0  0  0
  -28.9244  -21.1623   20.4731 N   0  0  0  0  0  0  0  0  0  0  0  0
  -25.7272  -16.2779   19.3879 N   0  0  0  0  0  0  0  0  0  0  0  0
  -22.5839  -27.6226   21.6674 N   0  0  0  0  0  0  0  0  0  0  0  0
  -29.5001  -16.5227   19.9483 N   0  0  0  0  0  0  0  0  0  0  0  0
  -24.7101  -18.1737   18.3970 N   0  0  0  0  0  0  0  0  0  0  0  0
  -21.1915  -15.7434   19.8493 N   0  0  0  0  0  0  0  0  0  0  0  0
  -29.0005  -20.4195   22.7358 N   0  0  0  0  0  0  0  0  0  0  0  0
  -23.1900  -31.1220   22.4942 N   0  0  0  0  0  0  0  0  0  0  0  0
  -20.6479  -24.8462   21.7104 N   0  0  0  0  0  0  0  0  0  0  0  0
  -29.7829  -17.7340   21.9599 N   0  0  0  0  0  0  0  0  0  0  0  0
  -20.3844  -23.4886   18.5848 N   0  3  0  0  0  0  0  0  0  0  0  0
  -25.1434  -21.7259   17.8283 N   0  3  0  0  0  0  0  0  0  0  0  0
  -29.1444  -24.3507   18.3795 N   0  3  0  0  0  0  0  0  0  0  0  0
  -21.8037  -17.6675   18.7622 O   0  0  0  0  0  0  0  0  0  0  0  0
  -23.5041  -29.0752   23.5593 O   0  0  0  0  0  0  0  0  0  0  0  0
  -20.3059  -27.6545   22.1634 O   0  0  0  0  0  0  0  0  0  0  0  0
  -22.3957  -23.6126   20.8156 O   0  0  0  0  0  0  0  0  0  0  0  0
  -31.5072  -17.5664   20.4582 O   0  0  0  0  0  0  0  0  0  0  0  0
  -21.4387  -10.8501   22.5007 O   0  0  0  0  0  0  0  0  0  0  0  0
  -28.4029  -26.6692   19.8556 O   0  0  0  0  0  0  0  0  0  1  0  0
  -23.1140   -5.7396   21.2841 F   0  0  0  0  0  0  0  0  0  0  0  0
  -24.0262  -10.0398   23.0397 F   0  0  0  0  0  0  0  0  0  0  0  0
  1  2  1  0  0  0  0
  1  5  2  0  0  0  0
  2  6  2  0  0  0  0
  3  9  2  0  0  0  0
  3 17  1  0  0  0  0
  4 10  1  0  0  0  0
  4 17  2  0  0  0  0
  5 19  1  0  0  0  0
  6 21  1  0  0  0  0
  7 11  2  0  0  0  0
  7 20  1  0  0  0  0
  8 14  2  0  0  0  0
  8 23  1  0  0  0  0
  9 24  1  0  0  0  0
 10 24  2  0  0  0  0
 11 25  1  0  0  0  0
 12 13  2  0  0  0  0
 12 26  1  0  0  0  0
 13 27  1  0  0  0  0
 14 31  1  0  0  0  0
 15 22  1  0  0  0  0
 15 25  2  0  0  0  0
 16 27  2  0  0  0  0
 16 28  1  0  0  0  0
 17 29  1  0  0  0  0
 18 29  1  0  0  0  0
 18 32  2  0  0  0  0
 18 33  1  0  0  0  0
 19 21  2  0  0  0  0
 19 38  1  0  0  0  0
 20 22  2  0  0  0  0
 20 39  1  0  0  0  0
 21 47  1  0  0  0  0
 22 40  1  0  0  0  0
 23 30  2  0  0  0  0
 23 57  1  0  0  0  0
 24 87  1  0  0  0  0
 25 88  1  0  0  0  0
 26 28  2  0  0  0  0
 26 87  1  0  0  0  0
 27 89  1  0  0  0  0
 28 90  1  0  0  0  0
 29 68  2  0  0  0  0
 30 58  1  0  0  0  0
 30 69  1  0  0  0  0
 31 69  2  0  0  0  0
 31 75  1  0  0  0  0
 32 70  1  0  0  0  0
 32 73  1  0  0  0  0
 33 74  1  0  0  0  0
 33 82  2  0  0  0  0
 34 48  1  0  0  0  0
 34 76  1  0  0  0  0
 34 83  2  0  0  0  0
 35 64  1  0  0  0  0
 35 71  1  0  0  0  0
 35 84  2  0  0  0  0
 36 65  1  0  0  0  0
 36 77  1  0  0  0  0
 36 85  2  0  0  0  0
 37 72  1  0  0  0  0
 37 78  1  0  0  0  0
 37 86  2  0  0  0  0
 38 41  1  0  0  0  0
 39 48  1  0  0  0  0
 40 71  1  0  0  0  0
 41 43  1  0  0  0  0
 42 44  1  0  0  0  0
 42 45  1  0  0  0  0
 43 47  1  0  0  0  0
 44 49  1  0  0  0  0
 45 72  1  0  0  0  0
 46 49  1  0  0  0  0
 46 72  1  0  0  0  0
 47 76  1  0  0  0  0
 48 71  1  0  0  0  0
 49 70  1  0  0  0  0
 50 65  1  0  0  0  0
 51 66  1  0  0  0  0
 52 66  1  0  0  0  0
 53 67  1  0  0  0  0
 54 67  1  0  0  0  0
 55 67  1  0  0  0  0
 56 79  1  0  0  0  0
 57 80  1  0  0  0  0
 58 61  1  0  0  0  0
 59 60  1  0  0  0  0
 59 75  1  0  0  0  0
 60 78  1  0  0  0  0
 61 81  1  0  0  0  0
 62 63  1  0  0  0  0
 62 81  1  0  0  0  0
 63 88  1  0  0  0  0
 64 67  1  0  0  0  0
 64 77  1  0  0  0  0
 65 79  1  0  0  0  0
 66 80  1  0  0  0  0
 68 70  1  0  0  0  0
M  CHG  3  79   1  80   1  81   1
M  ISO  4  37 100  63 101  78 100  88 101
M  END
> <Batch ID>
0123

> <Smiles>
CNC(C)C(=O)NC(C(=O)N1Cc2cc([101O:1][101CH2:1]CNCCc3nc(NCC[100NH:0][100C:0](=O)N4CCCC(n5nc(-c6ccc(Oc7ccc(F)cc7F)cc6)c(C(N)=O)c5N)C4)ccc3CNC(C)C)ccc2CC1C(=O)NC1CCCc2ccccc21)C(C)(C)C

> <Shape>
0.255

> <Color>
0.076

> <Negative vol penalty>
0.000

$$$$

  -OEChem-04052320303D

 85 93  0     1  0  0  0  0  0999 V2000
  -17.8314  -14.8853   17.4988 C   0  0  0  0  0  0  0  0  0  0  0  0
  -19.1421  -15.0653   17.9287 C   0  0  0  0  0  0  0  0  0  0  0  0
  -27.4248  -23.3152   20.4801 C   0  0  0  0  0  0  0  0  0  0  0  0
  -29.0418  -23.4026   18.6871 C   0  0  0  0  0  0  0  0  0  0  0  0
  -17.0358  -15.9928   17.2083 C   0  0  0  0  0  0  0  0  0  0  0  0
  -19.6585  -16.3532   18.0675 C   0  0  0  0  0  0  0  0  0  0  0  0
  -22.2478  -16.9541   22.3779 C   0  0  0  0  0  0  0  0  0  0  0  0
  -27.4972  -24.7018   20.6130 C   0  0  0  0  0  0  0  0  0  0  0  0
  -29.1141  -24.7893   18.8199 C   0  0  0  0  0  0  0  0  0  0  0  0
  -23.5424  -16.4383   22.4202 C   0  0  0  0  0  0  0  0  0  0  0  0
  -26.2642  -27.4235   19.0302 C   0  0  0  0  0  0  0  0  0  0  0  0
  -25.0659  -28.1258   19.1586 C   0  0  0  0  0  0  0  0  0  0  0  0
  -24.4284  -18.6447   22.0131 C   0  0  0  0  0  0  0  0  0  0  0  0
  -25.7849  -28.9595   21.3092 C   0  0  0  0  0  0  0  0  0  0  0  0
  -25.8760  -14.3760   19.6662 C   0  0  0  0  0  0  0  0  0  0  0  0
  -28.1972  -22.6656   19.5172 C   0  0  0  0  0  0  0  0  0  0  0  0
  -27.2479  -20.5023   18.5545 C   0  0  0  0  0  0  0  0  0  0  0  0
  -17.5396  -17.2951   17.3528 C   0  0  0  0  0  0  0  0  0  0  0  0
  -22.0331  -18.3196   22.1416 C   0  0  0  0  0  0  0  0  0  0  0  0
  -18.8694  -17.4792   17.7774 C   0  0  0  0  0  0  0  0  0  0  0  0
  -23.1303  -19.1758   21.9709 C   0  0  0  0  0  0  0  0  0  0  0  0
  -26.5999  -13.3124   20.1805 C   0  0  0  0  0  0  0  0  0  0  0  0
  -27.1094  -13.4342   21.4686 C   0  0  0  0  0  0  0  0  0  0  0  0
  -26.8826  -14.5994   22.1926 C   0  0  0  0  0  0  0  0  0  0  0  0
  -28.3417  -25.4389   19.7829 C   0  0  0  0  0  0  0  0  0  0  0  0
  -24.6328  -17.2831   22.2349 C   0  0  0  0  0  0  0  0  0  0  0  0
  -27.2229  -27.4891   20.0414 C   0  0  0  0  0  0  0  0  0  0  0  0
  -24.8263  -28.8938   20.2980 C   0  0  0  0  0  0  0  0  0  0  0  0
  -26.9832  -28.2572   21.1808 C   0  0  0  0  0  0  0  0  0  0  0  0
  -28.1234  -21.2332   19.3799 C   0  0  0  0  0  0  0  0  0  0  0  0
  -26.1461  -15.6054   21.5883 C   0  0  0  0  0  0  0  0  0  1  0  0
  -27.5755  -19.1885   18.7848 C   0  0  0  0  0  0  0  0  0  0  0  0
  -26.2296  -20.9693   17.6597 C   0  0  0  0  0  0  0  0  0  0  0  0
  -20.5694  -20.0010   19.8758 C   0  0  0  0  0  0  0  0  0  0  0  0
  -21.2328  -22.4942   21.8421 C   0  0  0  0  0  0  0  0  0  0  0  0
  -24.0122  -23.5821   23.8691 C   0  0  0  0  0  0  0  0  0  0  0  0
  -31.3888  -15.1697   19.4586 C   0  0  0  0  0  0  0  0  0  0  0  0
  -16.6570  -18.4603   16.9816 C   0  0  0  0  0  0  0  0  0  0  0  0
  -20.6314  -18.8650   22.1256 C   0  0  0  0  0  0  0  0  0  0  0  0
  -22.9542  -20.6528   21.7344 C   0  0  0  0  0  0  0  0  0  0  0  0
  -17.1604  -19.7996   17.5137 C   0  0  0  0  0  0  0  0  0  0  0  0
  -30.5294  -17.1032   22.3221 C   0  0  0  0  0  0  0  0  0  0  0  0
  -18.6544  -19.9526   17.2466 C   0  0  0  0  0  0  0  0  0  0  0  0
  -29.7605  -18.2922   21.7433 C   0  0  0  0  0  0  0  0  0  0  0  0
  -31.6738  -16.6720   21.4075 C   0  0  0  0  0  0  0  0  0  0  0  0
  -30.5124  -17.5838   19.4343 C   0  0  0  0  0  0  0  0  0  0  0  0
  -19.4576  -18.8609   17.9640 C   0  0  1  0  0  0  0  0  0  0  0  0
  -20.5117  -20.1827   21.3662 C   0  0  1  0  0  0  0  0  0  0  0  0
  -29.3138  -18.0194   20.2944 C   0  0  2  0  0  0  0  0  0  0  0  0
  -27.4139  -14.7653   23.5764 C   0  0  0  0  0  0  0  0  0  0  0  0
  -27.0051  -11.1735   22.5478 C   0  0  0  0  0  0  0  0  0  0  0  0
  -24.0653  -24.9986   25.9399 C   0  0  0  0  0  0  0  0  0  0  0  0
  -21.7105  -24.8006   19.9024 C   0  0  0  0  0  0  0  0  0  0  0  0
  -23.3037  -25.7791   21.5675 C   0  0  0  0  0  0  0  0  0  0  0  0
  -20.8989  -25.4913   22.1648 C   0  0  0  0  0  0  0  0  0  0  0  0
  -25.4781  -21.5090   25.3897 C   0  0  0  0  0  0  0  0  0  0  0  0
  -26.8106  -12.0874   19.3598 C   0  0  0  0  0  0  0  0  0  0  0  0
  -27.8969  -12.3154   22.0720 C   0  0  0  0  0  0  0  0  0  0  0  0
  -31.0146  -13.7823   17.4352 C   0  0  0  0  0  0  0  0  0  0  0  0
  -27.5362  -12.3353   18.0355 C   0  0  0  0  0  0  0  0  0  0  0  0
  -29.6670  -13.1963   17.0572 C   0  0  0  0  0  0  0  0  0  0  0  0
  -22.3872  -23.4543   21.9989 C   0  0  1  0  0  0  0  0  0  0  0  0
  -24.0858  -23.5827   25.3854 C   0  0  2  0  0  0  0  0  0  0  0  0
  -22.0789  -24.8549   21.3985 C   0  0  0  0  0  0  0  0  0  0  0  0
  -25.6351  -15.5234   20.3394 N   0  0  0  0  0  0  0  0  0  0  0  0
  -28.9453  -20.4488   20.0821 N   0  0  0  0  0  0  0  0  0  0  0  0
  -28.5876  -19.2114   19.6987 N   0  0  0  0  0  0  0  0  0  0  0  0
  -21.5640  -21.1372   21.7211 N   0  0  0  0  0  0  0  0  0  0  0  0
  -31.1830  -16.4275   20.0491 N   0  0  0  0  0  0  0  0  0  0  0  0
  -27.0936  -18.0275   18.2926 N   0  0  0  0  0  0  0  0  0  0  0  0
  -26.0247  -22.3509   17.5433 N   0  0  0  0  0  0  0  0  0  0  0  0
  -19.5864  -19.1708   19.3717 N   0  0  0  0  0  0  0  0  0  0  0  0
  -22.7128  -23.4723   23.4209 N   0  0  0  0  0  0  0  0  0  0  0  0
  -30.8865  -15.0200   18.1717 N   0  0  0  0  0  0  0  0  0  0  0  0
  -25.3378  -22.9166   25.8434 N   0  3  0  0  0  0  0  0  0  0  0  0
  -28.8562  -12.9657   18.2838 N   0  3  0  0  0  0  0  0  0  0  0  0
  -25.5113  -20.1840   16.9956 O   0  0  0  0  0  0  0  0  0  0  0  0
  -21.4403  -20.5729   19.2307 O   0  0  0  0  0  0  0  0  0  0  0  0
  -20.0794  -22.9314   21.8346 O   0  0  0  0  0  0  0  0  0  0  0  0
  -25.0074  -23.6740   23.1539 O   0  0  0  0  0  0  0  0  0  0  0  0
  -31.9718  -14.2468   20.0374 O   0  0  0  0  0  0  0  0  0  0  0  0
  -28.4124  -26.7920   19.9121 O   0  0  0  0  0  0  0  0  0  0  0  0
  -25.8974  -16.7821   22.2751 O   0  0  0  0  0  0  0  0  0  1  0  0
  -23.6762  -29.5694   20.4204 F   0  0  0  0  0  0  0  0  0  0  0  0
  -27.9009  -28.3251   22.1550 F   0  0  0  0  0  0  0  0  0  0  0  0
  1  2  1  0  0  0  0
  1  5  2  0  0  0  0
  2  6  2  0  0  0  0
  3  8  2  0  0  0  0
  3 16  1  0  0  0  0
  4  9  1  0  0  0  0
  4 16  2  0  0  0  0
  5 18  1  0  0  0  0
  6 20  1  0  0  0  0
  7 10  2  0  0  0  0
  7 19  1  0  0  0  0
  8 25  1  0  0  0  0
  9 25  2  0  0  0  0
 10 26  1  0  0  0  0
 11 12  2  0  0  0  0
 11 27  1  0  0  0  0
 12 28  1  0  0  0  0
 13 21  1  0  0  0  0
 13 26  2  0  0  0  0
 14 28  2  0  0  0  0
 14 29  1  0  0  0  0
 15 22  2  0  0  0  0
 15 65  1  0  0  0  0
 16 30  1  0  0  0  0
 17 30  1  0  0  0  0
 17 32  2  0  0  0  0
 17 33  1  0  0  0  0
 18 20  2  0  0  0  0
 18 38  1  0  0  0  0
 19 21  2  0  0  0  0
 19 39  1  0  0  0  0
 20 47  1  0  0  0  0
 21 40  1  0  0  0  0
 22 23  1  0  0  0  0
 22 57  1  0  0  0  0
 23 24  2  0  0  0  0
 23 58  1  0  0  0  0
 24 31  1  0  0  0  0
 24 50  1  0  0  0  0
 25 82  1  0  0  0  0
 26 83  1  0  0  0  0
 27 29  2  0  0  0  0
 27 82  1  0  0  0  0
 28 84  1  0  0  0  0
 29 85  1  0  0  0  0
 30 66  2  0  0  0  0
 31 65  2  0  0  0  0
 31 83  1  0  0  0  0
 32 67  1  0  0  0  0
 32 70  1  0  0  0  0
 33 71  1  0  0  0  0
 33 77  2  0  0  0  0
 34 48  1  0  0  0  0
 34 72  1  0  0  0  0
 34 78  2  0  0  0  0
 35 62  1  0  0  0  0
 35 68  1  0  0  0  0
 35 79  2  0  0  0  0
 36 63  1  0  0  0  0
 36 73  1  0  0  0  0
 36 80  2  0  0  0  0
 37 69  1  0  0  0  0
 37 74  1  0  0  0  0
 37 81  2  0  0  0  0
 38 41  1  0  0  0  0
 39 48  1  0  0  0  0
 40 68  1  0  0  0  0
 41 43  1  0  0  0  0
 42 44  1  0  0  0  0
 42 45  1  0  0  0  0
 43 47  1  0  0  0  0
 44 49  1  0  0  0  0
 45 69  1  0  0  0  0
 46 49  1  0  0  0  0
 46 69  1  0  0  0  0
 47 72  1  0  0  0  0
 48 68  1  0  0  0  0
 49 67  1  0  0  0  0
 51 58  1  0  0  0  0
 52 63  1  0  0  0  0
 53 64  1  0  0  0  0
 54 64  1  0  0  0  0
 55 64  1  0  0  0  0
 56 75  1  0  0  0  0
 57 60  1  0  0  0  0
 59 61  1  0  0  0  0
 59 74  1  0  0  0  0
 60 76  1  0  0  0  0
 61 76  1  0  0  0  0
 62 64  1  0  0  0  0
 62 73  1  0  0  0  0
 63 75  1  0  0  0  0
 66 67  1  0  0  0  0
M  CHG  2  75   1  76   1
M  ISO  4  31 101  37 100  74 100  83 101
M  END
> <Batch ID>
0123

> <Smiles>
CCc1c(CCNCC[100NH:0][100C:0](=O)N2CCCC(n3nc(-c4ccc(Oc5ccc(F)cc5F)cc4)c(C(N)=O)c3N)C2)cn[101c:1]([101O:1]c2ccc3c(c2)CN(C(=O)C(NC(=O)C(C)NC)C(C)(C)C)C(C(=O)NC2CCCc4ccccc42)C3)c1C

> <Shape>
0.184

> <Color>
0.083

> <Negative vol penalty>
0.000

$$$$

  -OEChem-04052320303D

 91101  0     1  0  0  0  0  0999 V2000
  -27.9404  -36.0107   21.6498 C   0  0  0  0  0  0  0  0  0  0  0  0
  -28.2725  -34.6719   21.4694 C   0  0  0  0  0  0  0  0  0  0  0  0
  -25.9342  -11.7295   20.6146 C   0  0  0  0  0  0  0  0  0  0  0  0
  -25.9392  -14.0626   19.9875 C   0  0  0  0  0  0  0  0  0  0  0  0
  -27.0251  -36.3738   22.6369 C   0  0  0  0  0  0  0  0  0  0  0  0
  -27.6904  -33.6954   22.2768 C   0  0  0  0  0  0  0  0  0  0  0  0
  -26.1339  -29.6650   19.6352 C   0  0  0  0  0  0  0  0  0  0  0  0
  -29.7389  -25.0071   17.1035 C   0  0  0  0  0  0  0  0  0  0  0  0
  -24.5548  -11.7859   20.8138 C   0  0  0  0  0  0  0  0  0  0  0  0
  -24.5597  -14.1191   20.1866 C   0  0  0  0  0  0  0  0  0  0  0  0
  -27.1070  -28.7480   19.2402 C   0  0  0  0  0  0  0  0  0  0  0  0
  -21.7597  -11.7444   18.9115 C   0  0  0  0  0  0  0  0  0  0  0  0
  -20.9871  -10.7044   18.3948 C   0  0  0  0  0  0  0  0  0  0  0  0
  -30.6351  -23.9737   16.8536 C   0  0  0  0  0  0  0  0  0  0  0  0
  -26.4950  -27.3146   21.0814 C   0  0  0  0  0  0  0  0  0  0  0  0
  -20.2039  -10.1809   20.6195 C   0  0  0  0  0  0  0  0  0  0  0  0
  -26.6264  -12.8679   20.2016 C   0  0  0  0  0  0  0  0  0  0  0  0
  -28.7475  -11.9853   19.0927 C   0  0  0  0  0  0  0  0  0  0  0  0
  -26.4241  -35.4003   23.4504 C   0  0  0  0  0  0  0  0  0  0  0  0
  -25.3401  -29.4183   20.7645 C   0  0  0  0  0  0  0  0  0  0  0  0
  -26.7672  -34.0459   23.2766 C   0  0  0  0  0  0  0  0  0  0  0  0
  -25.5108  -28.2289   21.4871 C   0  0  0  0  0  0  0  0  0  0  0  0
  -29.9766  -25.8873   18.1532 C   0  0  0  0  0  0  0  0  0  0  0  0
  -23.8676  -12.9806   20.5997 C   0  0  0  0  0  0  0  0  0  0  0  0
  -27.2897  -27.5740   19.9651 C   0  0  0  0  0  0  0  0  0  0  0  0
  -21.7545  -12.0026   20.2823 C   0  0  0  0  0  0  0  0  0  0  0  0
  -20.2092   -9.9226   19.2488 C   0  0  0  0  0  0  0  0  0  0  0  0
  -20.9766  -11.2209   21.1363 C   0  0  0  0  0  0  0  0  0  0  0  0
  -28.0514  -12.8104   19.9963 C   0  0  0  0  0  0  0  0  0  0  0  0
  -31.1158  -25.6928   18.9175 C   0  0  0  0  0  0  0  0  0  0  0  0
  -31.7450  -23.8650   17.6760 C   0  0  0  0  0  0  0  0  0  0  0  0
  -30.0692  -12.3080   19.2811 C   0  0  0  0  0  0  0  0  0  0  0  0
  -28.2444  -11.0140   18.1658 C   0  0  0  0  0  0  0  0  0  0  0  0
  -24.9034  -30.8680   23.5594 C   0  0  0  0  0  0  0  0  0  0  0  0
  -22.5845  -28.6281   23.9173 C   0  0  0  0  0  0  0  0  0  0  0  0
  -21.3659  -25.5573   23.0620 C   0  0  0  0  0  0  0  0  0  0  0  0
  -32.8155  -17.2226   21.3196 C   0  0  0  0  0  0  0  0  0  0  0  0
  -25.4760  -35.8456   24.5355 C   0  0  0  0  0  0  0  0  0  0  0  0
  -24.2766  -30.4050   21.1618 C   0  0  0  0  0  0  0  0  0  0  0  0
  -24.6707  -27.9073   22.6951 C   0  0  0  0  0  0  0  0  0  0  0  0
  -24.6213  -34.7137   25.0998 C   0  0  0  0  0  0  0  0  0  0  0  0
  -33.1712  -28.0973   20.8595 C   0  0  0  0  0  0  0  0  0  0  0  0
  -33.5086  -26.6989   21.3449 C   0  0  0  0  0  0  0  0  0  0  0  0
  -33.0902  -13.9205   22.6225 C   0  0  0  0  0  0  0  0  0  0  0  0
  -25.4831  -33.4902   25.3952 C   0  0  0  0  0  0  0  0  0  0  0  0
  -32.2676  -27.8373   19.6638 C   0  0  0  0  0  0  0  0  0  0  0  0
  -32.1879  -25.9464   21.2302 C   0  0  0  0  0  0  0  0  0  0  0  0
  -31.8928  -13.1871   22.0156 C   0  0  0  0  0  0  0  0  0  0  0  0
  -32.5005  -19.0060   18.0897 C   0  0  0  0  0  0  0  0  0  0  0  0
  -32.1592  -20.2484   20.2575 C   0  0  0  0  0  0  0  0  0  0  0  0
  -32.7508  -15.3700   22.9628 C   0  0  0  0  0  0  0  0  0  0  0  0
  -30.9889  -15.4189   21.2403 C   0  0  0  0  0  0  0  0  0  0  0  0
  -32.9998  -20.2899   17.4400 C   0  0  0  0  0  0  0  0  0  0  0  0
  -32.6590  -21.5263   19.5964 C   0  0  0  0  0  0  0  0  0  0  0  0
  -26.1382  -32.9551   24.1161 C   0  0  1  0  0  0  0  0  0  0  0  0
  -31.4243  -26.6150   20.0689 C   0  0  0  0  0  0  0  0  0  0  0  0
  -23.8741  -30.2914   22.6289 C   0  0  1  0  0  0  0  0  0  0  0  0
  -31.2987  -13.9694   20.8288 C   0  0  2  0  0  0  0  0  0  0  0  0
  -32.7540  -19.0043   19.5976 C   0  0  0  0  0  0  0  0  0  0  0  0
  -34.1547  -23.1250   17.8713 C   0  0  0  0  0  0  0  0  0  0  0  0
  -19.4719  -23.9843   23.5479 C   0  0  0  0  0  0  0  0  0  0  0  0
  -23.8861  -27.8856   26.5752 C   0  0  0  0  0  0  0  0  0  0  0  0
  -22.5735  -25.7540   26.5429 C   0  0  0  0  0  0  0  0  0  0  0  0
  -21.3864  -27.9466   26.6188 C   0  0  0  0  0  0  0  0  0  0  0  0
  -20.4422  -25.6166   20.2509 C   0  0  0  0  0  0  0  0  0  0  0  0
  -29.0126  -27.0038   18.4281 C   0  0  0  0  0  0  0  0  0  1  0  0
  -32.7279  -22.7679   17.4358 C   0  0  1  0  0  0  0  0  0  0  0  0
  -22.5277  -27.2285   24.4802 C   0  0  1  0  0  0  0  0  0  0  0  0
  -19.9768  -25.1036   22.6506 C   0  0  2  0  0  0  0  0  0  0  0  0
  -22.6107  -27.2103   26.0327 C   0  0  0  0  0  0  0  0  0  0  0  0
  -28.8637  -13.5980   20.7062 N   0  0  0  0  0  0  0  0  0  0  0  0
  -32.0093  -24.7007   18.7052 N   0  0  0  0  0  0  0  0  0  0  0  0
  -30.0838  -13.2692   20.2487 N   0  0  0  0  0  0  0  0  0  0  0  0
  -23.6483  -28.9064   23.0474 N   0  0  0  0  0  0  0  0  0  0  0  0
  -32.1936  -16.0562   21.7947 N   0  0  0  0  0  0  0  0  0  0  0  0
  -31.2086  -11.8606   18.7120 N   0  0  0  0  0  0  0  0  0  0  0  0
  -26.8597  -10.8072   18.1006 N   0  0  0  0  0  0  0  0  0  0  0  0
  -25.1804  -32.2029   23.3343 N   0  0  0  0  0  0  0  0  0  0  0  0
  -21.3172  -26.6198   23.9394 N   0  0  0  0  0  0  0  0  0  0  0  0
  -32.2270  -17.8067   20.2046 N   0  0  0  0  0  0  0  0  0  0  0  0
  -32.3608  -21.4783   18.1172 N   0  3  0  0  0  0  0  0  0  0  0  0
  -19.9883  -24.6099   21.2446 N   0  3  0  0  0  0  0  0  0  0  0  0
  -29.0015  -10.3374   17.4292 O   0  0  0  0  0  0  0  0  0  0  0  0
  -25.4077  -30.1549   24.4190 O   0  0  0  0  0  0  0  0  0  0  0  0
  -21.7128  -29.4423   24.2320 O   0  0  0  0  0  0  0  0  0  0  0  0
  -22.3914  -25.0202   22.6493 O   0  0  0  0  0  0  0  0  0  0  0  0
  -33.8240  -17.7046   21.8467 O   0  0  0  0  0  0  0  0  0  0  0  0
  -22.5215  -13.0360   20.7937 O   0  0  0  0  0  0  0  0  0  0  0  0
  -28.2392  -26.6776   19.5821 O   0  0  0  0  0  0  0  0  0  1  0  0
  -19.4661   -8.9249   18.7522 F   0  0  0  0  0  0  0  0  0  0  0  0
  -20.9666  -11.4649   22.4539 F   0  0  0  0  0  0  0  0  0  0  0  0
  1  2  1  0  0  0  0
  1  5  2  0  0  0  0
  2  6  2  0  0  0  0
  3  9  2  0  0  0  0
  3 17  1  0  0  0  0
  4 10  1  0  0  0  0
  4 17  2  0  0  0  0
  5 19  1  0  0  0  0
  6 21  1  0  0  0  0
  7 11  2  0  0  0  0
  7 20  1  0  0  0  0
  8 14  2  0  0  0  0
  8 23  1  0  0  0  0
  9 24  1  0  0  0  0
 10 24  2  0  0  0  0
 11 25  1  0  0  0  0
 12 13  2  0  0  0  0
 12 26  1  0  0  0  0
 13 27  1  0  0  0  0
 14 31  1  0  0  0  0
 15 22  1  0  0  0  0
 15 25  2  0  0  0  0
 16 27  2  0  0  0  0
 16 28  1  0  0  0  0
 17 29  1  0  0  0  0
 18 29  1  0  0  0  0
 18 32  2  0  0  0  0
 18 33  1  0  0  0  0
 19 21  2  0  0  0  0
 19 38  1  0  0  0  0
 20 22  2  0  0  0  0
 20 39  1  0  0  0  0
 21 55  1  0  0  0  0
 22 40  1  0  0  0  0
 23 30  2  0  0  0  0
 23 66  1  0  0  0  0
 24 88  1  0  0  0  0
 25 89  1  0  0  0  0
 26 28  2  0  0  0  0
 26 88  1  0  0  0  0
 27 90  1  0  0  0  0
 28 91  1  0  0  0  0
 29 71  2  0  0  0  0
 30 56  1  0  0  0  0
 30 72  1  0  0  0  0
 31 67  1  0  0  0  0
 31 72  2  0  0  0  0
 32 73  1  0  0  0  0
 32 76  1  0  0  0  0
 33 77  1  0  0  0  0
 33 83  2  0  0  0  0
 34 57  1  0  0  0  0
 34 78  1  0  0  0  0
 34 84  2  0  0  0  0
 35 68  1  0  0  0  0
 35 74  1  0  0  0  0
 35 85  2  0  0  0  0
 36 69  1  0  0  0  0
 36 79  1  0  0  0  0
 36 86  2  0  0  0  0
 37 75  1  0  0  0  0
 37 80  1  0  0  0  0
 37 87  2  0  0  0  0
 38 41  1  0  0  0  0
 39 57  1  0  0  0  0
 40 74  1  0  0  0  0
 41 45  1  0  0  0  0
 42 43  1  0  0  0  0
 42 46  1  0  0  0  0
 43 47  1  0  0  0  0
 44 48  1  0  0  0  0
 44 51  1  0  0  0  0
 45 55  1  0  0  0  0
 46 56  1  0  0  0  0
 47 56  1  0  0  0  0
 48 58  1  0  0  0  0
 49 53  1  0  0  0  0
 49 59  1  0  0  0  0
 50 54  1  0  0  0  0
 50 59  1  0  0  0  0
 51 75  1  0  0  0  0
 52 58  1  0  0  0  0
 52 75  1  0  0  0  0
 53 81  1  0  0  0  0
 54 81  1  0  0  0  0
 55 78  1  0  0  0  0
 57 74  1  0  0  0  0
 58 73  1  0  0  0  0
 59 80  1  0  0  0  0
 60 67  1  0  0  0  0
 61 69  1  0  0  0  0
 62 70  1  0  0  0  0
 63 70  1  0  0  0  0
 64 70  1  0  0  0  0
 65 82  1  0  0  0  0
 66 89  1  0  0  0  0
 67 81  1  0  0  0  0
 68 70  1  0  0  0  0
 68 79  1  0  0  0  0
 69 82  1  0  0  0  0
 71 73  1  0  0  0  0
M  CHG  2  81   1  82   1
M  ISO  4  37 100  66 101  80 100  89 101
M  END
> <Batch ID>
0123

> <Smiles>
CNC(C)C(=O)NC(C(=O)N1Cc2cc([101O:1][101CH2:1]c3ccc(C(C)N4CCC([100NH:0][100C:0](=O)N5CCCC(n6nc(-c7ccc(Oc8ccc(F)cc8F)cc7)c(C(N)=O)c6N)C5)CC4)nc3C3CCCC3)ccc2CC1C(=O)NC1CCCc2ccccc21)C(C)(C)C

> <Shape>
0.283

> <Color>
0.069

> <Negative vol penalty>
0.000

$$$$

  -OEChem-04052320303D

 84 92  0     1  0  0  0  0  0999 V2000
  -32.4120  -14.4413   21.5396 C   0  0  0  0  0  0  0  0  0  0  0  0
  -31.5770  -15.5538   21.5160 C   0  0  0  0  0  0  0  0  0  0  0  0
  -30.0042  -24.0485   19.7123 C   0  0  0  0  0  0  0  0  0  0  0  0
  -27.7244  -23.8694   18.9329 C   0  0  0  0  0  0  0  0  0  0  0  0
  -31.9526  -13.2161   21.0583 C   0  0  0  0  0  0  0  0  0  0  0  0
  -30.2824  -15.4420   21.0101 C   0  0  0  0  0  0  0  0  0  0  0  0
  -25.2956  -18.4090   22.9682 C   0  0  0  0  0  0  0  0  0  0  0  0
  -20.4172  -25.7447   22.1837 C   0  0  0  0  0  0  0  0  0  0  0  0
  -21.9217  -25.3585   24.0343 C   0  0  0  0  0  0  0  0  0  0  0  0
  -30.0639  -22.6624   19.8562 C   0  0  0  0  0  0  0  0  0  0  0  0
  -27.7841  -22.4833   19.0768 C   0  0  0  0  0  0  0  0  0  0  0  0
  -24.6387  -19.5476   22.5036 C   0  0  0  0  0  0  0  0  0  0  0  0
  -20.3684  -24.3727   21.9371 C   0  0  0  0  0  0  0  0  0  0  0  0
  -21.8728  -23.9865   23.7877 C   0  0  0  0  0  0  0  0  0  0  0  0
  -29.0470  -19.8554   17.3680 C   0  0  0  0  0  0  0  0  0  0  0  0
  -28.5377  -19.0751   16.3301 C   0  0  0  0  0  0  0  0  0  0  0  0
  -23.1030  -18.1524   21.2731 C   0  0  0  0  0  0  0  0  0  0  0  0
  -26.9454  -18.0865   17.8547 C   0  0  0  0  0  0  0  0  0  0  0  0
  -28.8345  -24.6520   19.2506 C   0  0  0  0  0  0  0  0  0  0  0  0
  -29.1037  -26.8353   17.9590 C   0  0  0  0  0  0  0  0  0  0  0  0
  -30.6484  -13.0868   20.5552 C   0  0  0  0  0  0  0  0  0  0  0  0
  -24.8671  -17.1316   22.5793 C   0  0  0  0  0  0  0  0  0  0  0  0
  -29.8056  -14.2141   20.5205 C   0  0  0  0  0  0  0  0  0  0  0  0
  -23.7545  -16.9990   21.7361 C   0  0  0  0  0  0  0  0  0  0  0  0
  -21.1939  -26.2376   23.2323 C   0  0  0  0  0  0  0  0  0  0  0  0
  -28.9539  -21.8798   19.5385 C   0  0  0  0  0  0  0  0  0  0  0  0
  -21.0961  -23.4936   22.7390 C   0  0  0  0  0  0  0  0  0  0  0  0
  -23.5441  -19.4195   21.6537 C   0  0  0  0  0  0  0  0  0  0  0  0
  -28.5056  -19.7512   18.6494 C   0  0  0  0  0  0  0  0  0  0  0  0
  -27.4869  -18.1906   16.5734 C   0  0  0  0  0  0  0  0  0  0  0  0
  -27.4548  -18.8668   18.8927 C   0  0  0  0  0  0  0  0  0  0  0  0
  -28.7720  -26.0839   19.1023 C   0  0  0  0  0  0  0  0  0  0  0  0
  -28.8748  -28.1388   18.3265 C   0  0  0  0  0  0  0  0  0  0  0  0
  -29.5764  -26.3945   16.6791 C   0  0  0  0  0  0  0  0  0  0  0  0
  -26.1735  -14.7199   20.9729 C   0  0  0  0  0  0  0  0  0  0  0  0
  -23.4426  -13.1880   21.8201 C   0  0  0  0  0  0  0  0  0  0  0  0
  -20.1676  -13.4081   22.7544 C   0  0  0  0  0  0  0  0  0  0  0  0
  -25.3134  -30.6524   22.4312 C   0  0  0  0  0  0  0  0  0  0  0  0
  -30.2125  -11.7531   20.0024 C   0  0  0  0  0  0  0  0  0  0  0  0
  -25.5698  -15.9125   23.1105 C   0  0  0  0  0  0  0  0  0  0  0  0
  -23.2424  -15.6497   21.3053 C   0  0  0  0  0  0  0  0  0  0  0  0
  -28.7008  -11.6304   19.8286 C   0  0  0  0  0  0  0  0  0  0  0  0
  -28.8468  -30.9978   22.1627 C   0  0  0  0  0  0  0  0  0  0  0  0
  -28.1386  -12.8759   19.1508 C   0  0  0  0  0  0  0  0  0  0  0  0
  -29.2582  -29.8454   21.2447 C   0  0  0  0  0  0  0  0  0  0  0  0
  -27.7008  -30.5992   23.0899 C   0  0  0  0  0  0  0  0  0  0  0  0
  -26.9284  -28.8912   21.4899 C   0  0  0  0  0  0  0  0  0  0  0  0
  -28.3864  -14.1269   20.0023 C   0  0  1  0  0  0  0  0  0  0  0  0
  -25.3650  -14.6774   22.2387 C   0  0  1  0  0  0  0  0  0  0  0  0
  -28.0436  -29.2626   20.4976 C   0  0  2  0  0  0  0  0  0  0  0  0
  -18.1863  -11.9839   23.3406 C   0  0  0  0  0  0  0  0  0  0  0  0
  -23.0386  -12.5384   18.8664 C   0  0  0  0  0  0  0  0  0  0  0  0
  -20.6539  -11.9811   19.3867 C   0  0  0  0  0  0  0  0  0  0  0  0
  -22.4971  -10.6635   20.4303 C   0  0  0  0  0  0  0  0  0  0  0  0
  -19.9990  -14.5590   25.4757 C   0  0  0  0  0  0  0  0  0  0  0  0
  -21.2458  -27.7044   23.4965 C   0  0  0  0  0  0  0  0  0  0  0  0
  -22.9537  -30.5857   21.6653 C   0  0  0  0  0  0  0  0  0  0  0  0
  -22.0955  -29.9235   22.7271 C   0  0  0  0  0  0  0  0  0  0  0  0
  -20.8348  -21.7441   21.1494 C   0  0  0  0  0  0  0  0  0  0  0  0
  -21.5074  -20.4045   20.9202 C   0  0  0  0  0  0  0  0  0  1  0  0
  -22.0712  -13.0309   21.2089 C   0  0  1  0  0  0  0  0  0  0  0  0
  -19.3928  -12.7395   23.8756 C   0  0  2  0  0  0  0  0  0  0  0  0
  -22.0758  -12.0791   19.9795 C   0  0  0  0  0  0  0  0  0  0  0  0
  -28.3637  -26.8465   20.1200 N   0  0  0  0  0  0  0  0  0  0  0  0
  -28.4373  -28.0907   19.6174 N   0  0  0  0  0  0  0  0  0  0  0  0
  -23.9670  -14.4880   21.8464 N   0  0  0  0  0  0  0  0  0  0  0  0
  -26.5800  -30.0558   22.3189 N   0  0  0  0  0  0  0  0  0  0  0  0
  -29.0072  -29.3099   17.6682 N   0  0  0  0  0  0  0  0  0  0  0  0
  -29.7564  -25.0203   16.4704 N   0  0  0  0  0  0  0  0  0  0  0  0
  -27.4426  -14.1877   21.0978 N   0  0  0  0  0  0  0  0  0  0  0  0
  -21.1886  -12.6061   22.2901 N   0  0  0  0  0  0  0  0  0  0  0  0
  -24.3082  -30.0796   21.6617 N   0  0  0  0  0  0  0  0  0  0  0  0
  -18.9142  -13.7574   24.8532 N   0  3  0  0  0  0  0  0  0  0  0  0
  -22.0776  -28.4529   22.5140 N   0  3  0  0  0  0  0  0  0  0  0  0
  -29.8471  -27.1967   15.7536 O   0  0  0  0  0  0  0  0  0  0  0  0
  -25.6816  -15.1986   19.9577 O   0  0  0  0  0  0  0  0  0  0  0  0
  -24.0239  -12.1949   22.2646 O   0  0  0  0  0  0  0  0  0  0  0  0
  -19.8920  -14.5282   22.3301 O   0  0  0  0  0  0  0  0  0  0  0  0
  -25.0957  -31.6270   23.1591 O   0  0  0  0  0  0  0  0  0  0  0  0
  -29.0118  -20.5272   19.6786 O   0  0  0  0  0  0  0  0  0  0  0  0
  -21.0470  -22.1459   22.4974 O   0  0  0  0  0  0  0  0  0  0  0  0
  -22.9015  -20.5293   21.1983 O   0  0  0  0  0  0  0  0  0  1  0  0
  -26.9968  -17.4425   15.5763 F   0  0  0  0  0  0  0  0  0  0  0  0
  -26.9297  -18.7632   20.1213 F   0  0  0  0  0  0  0  0  0  0  0  0
  1  2  1  0  0  0  0
  1  5  2  0  0  0  0
  2  6  2  0  0  0  0
  3 10  2  0  0  0  0
  3 19  1  0  0  0  0
  4 11  1  0  0  0  0
  4 19  2  0  0  0  0
  5 21  1  0  0  0  0
  6 23  1  0  0  0  0
  7 12  2  0  0  0  0
  7 22  1  0  0  0  0
  8 13  2  0  0  0  0
  8 25  1  0  0  0  0
  9 14  1  0  0  0  0
  9 25  2  0  0  0  0
 10 26  1  0  0  0  0
 11 26  2  0  0  0  0
 12 28  1  0  0  0  0
 13 27  1  0  0  0  0
 14 27  2  0  0  0  0
 15 16  2  0  0  0  0
 15 29  1  0  0  0  0
 16 30  1  0  0  0  0
 17 24  1  0  0  0  0
 17 28  2  0  0  0  0
 18 30  2  0  0  0  0
 18 31  1  0  0  0  0
 19 32  1  0  0  0  0
 20 32  1  0  0  0  0
 20 33  2  0  0  0  0
 20 34  1  0  0  0  0
 21 23  2  0  0  0  0
 21 39  1  0  0  0  0
 22 24  2  0  0  0  0
 22 40  1  0  0  0  0
 23 48  1  0  0  0  0
 24 41  1  0  0  0  0
 25 56  1  0  0  0  0
 26 80  1  0  0  0  0
 27 81  1  0  0  0  0
 28 82  1  0  0  0  0
 29 31  2  0  0  0  0
 29 80  1  0  0  0  0
 30 83  1  0  0  0  0
 31 84  1  0  0  0  0
 32 64  2  0  0  0  0
 33 65  1  0  0  0  0
 33 68  1  0  0  0  0
 34 69  1  0  0  0  0
 34 75  2  0  0  0  0
 35 49  1  0  0  0  0
 35 70  1  0  0  0  0
 35 76  2  0  0  0  0
 36 61  1  0  0  0  0
 36 66  1  0  0  0  0
 36 77  2  0  0  0  0
 37 62  1  0  0  0  0
 37 71  1  0  0  0  0
 37 78  2  0  0  0  0
 38 67  1  0  0  0  0
 38 72  1  0  0  0  0
 38 79  2  0  0  0  0
 39 42  1  0  0  0  0
 40 49  1  0  0  0  0
 41 66  1  0  0  0  0
 42 44  1  0  0  0  0
 43 45  1  0  0  0  0
 43 46  1  0  0  0  0
 44 48  1  0  0  0  0
 45 50  1  0  0  0  0
 46 67  1  0  0  0  0
 47 50  1  0  0  0  0
 47 67  1  0  0  0  0
 48 70  1  0  0  0  0
 49 66  1  0  0  0  0
 50 65  1  0  0  0  0
 51 62  1  0  0  0  0
 52 63  1  0  0  0  0
 53 63  1  0  0  0  0
 54 63  1  0  0  0  0
 55 73  1  0  0  0  0
 56 74  1  0  0  0  0
 57 58  1  0  0  0  0
 57 72  1  0  0  0  0
 58 74  1  0  0  0  0
 59 60  1  0  0  0  0
 59 81  1  0  0  0  0
 60 82  1  0  0  0  0
 61 63  1  0  0  0  0
 61 71  1  0  0  0  0
 62 73  1  0  0  0  0
 64 65  1  0  0  0  0
M  CHG  2  73   1  74   1
M  ISO  4  38 100  60 101  72 100  82 101
M  END
> <Batch ID>
0123

> <Smiles>
CNC(C)C(=O)NC(C(=O)N1Cc2cc([101O:1][101CH2:1]COc3ccc(CNCC[100NH:0][100C:0](=O)N4CCCC(n5nc(-c6ccc(Oc7ccc(F)cc7F)cc6)c(C(N)=O)c5N)C4)cc3)ccc2CC1C(=O)NC1CCCc2ccccc21)C(C)(C)C

> <Shape>
0.247

> <Color>
0.076

> <Negative vol penalty>
0.000

$$$$

  -OEChem-04052320303D

 88 97  0     1  0  0  0  0  0999 V2000
  -19.7295  -23.8384   23.2096 C   0  0  0  0  0  0  0  0  0  0  0  0
  -21.0431  -24.0898   22.8268 C   0  0  0  0  0  0  0  0  0  0  0  0
  -27.9335  -12.0897   21.7378 C   0  0  0  0  0  0  0  0  0  0  0  0
  -27.5883  -10.4987   19.9527 C   0  0  0  0  0  0  0  0  0  0  0  0
  -18.7939  -24.8721   23.2070 C   0  0  0  0  0  0  0  0  0  0  0  0
  -21.4217  -25.3749   22.4401 C   0  0  0  0  0  0  0  0  0  0  0  0
  -28.1759  -20.4398   20.5153 C   0  0  0  0  0  0  0  0  0  0  0  0
  -25.8239  -26.8043   24.4951 C   0  0  0  0  0  0  0  0  0  0  0  0
  -28.9342  -21.6079   20.5932 C   0  0  0  0  0  0  0  0  0  0  0  0
  -26.8946  -11.5037   22.4610 C   0  0  0  0  0  0  0  0  0  0  0  0
  -26.5495   -9.9126   20.6760 C   0  0  0  0  0  0  0  0  0  0  0  0
  -26.9888  -26.2964   23.9218 C   0  0  0  0  0  0  0  0  0  0  0  0
  -23.5704   -8.2241   21.8940 C   0  0  0  0  0  0  0  0  0  0  0  0
  -22.3942   -7.9201   21.2086 C   0  0  0  0  0  0  0  0  0  0  0  0
  -27.2973  -28.3693   22.7270 C   0  0  0  0  0  0  0  0  0  0  0  0
  -28.4424  -22.0816   18.2756 C   0  0  0  0  0  0  0  0  0  0  0  0
  -22.1189  -10.2535   20.6460 C   0  0  0  0  0  0  0  0  0  0  0  0
  -28.2803  -11.5872   20.4836 C   0  0  0  0  0  0  0  0  0  0  0  0
  -30.7176  -11.8493   19.7776 C   0  0  0  0  0  0  0  0  0  0  0  0
  -19.1635  -26.1727   22.8294 C   0  0  0  0  0  0  0  0  0  0  0  0
  -25.3802  -28.0967   24.1797 C   0  0  0  0  0  0  0  0  0  0  0  0
  -20.4899  -26.4267   22.4312 C   0  0  0  0  0  0  0  0  0  0  0  0
  -27.5509  -20.0925   19.3176 C   0  0  0  0  0  0  0  0  0  0  0  0
  -26.1278  -28.8921   23.2996 C   0  0  0  0  0  0  0  0  0  0  0  0
  -29.0674  -22.4288   19.4734 C   0  0  0  0  0  0  0  0  0  0  0  0
  -27.6842  -20.9134   18.1978 C   0  0  0  0  0  0  0  0  0  0  0  0
  -26.2027  -10.4152   21.9301 C   0  0  0  0  0  0  0  0  0  0  0  0
  -27.7242  -27.0779   23.0354 C   0  0  0  0  0  0  0  0  0  0  0  0
  -24.0208   -9.5428   21.9555 C   0  0  0  0  0  0  0  0  0  0  0  0
  -21.6685   -8.9347   20.5845 C   0  0  0  0  0  0  0  0  0  0  0  0
  -23.2950  -10.5575   21.3314 C   0  0  0  0  0  0  0  0  0  0  0  0
  -29.3529  -12.1925   19.7358 C   0  0  0  0  0  0  0  0  0  0  0  0
  -31.3158  -12.7120   18.8919 C   0  0  0  0  0  0  0  0  0  0  0  0
  -31.3848  -10.8409   20.5480 C   0  0  0  0  0  0  0  0  0  0  0  0
  -22.7784  -29.3030   22.8091 C   0  0  0  0  0  0  0  0  0  0  0  0
  -24.1266  -32.1335   23.6414 C   0  0  0  0  0  0  0  0  0  0  0  0
  -26.9558  -33.8798   24.4113 C   0  0  0  0  0  0  0  0  0  0  0  0
  -26.8859  -15.4033   18.0123 C   0  0  0  0  0  0  0  0  0  0  0  0
  -18.1059  -27.2474   22.7971 C   0  0  0  0  0  0  0  0  0  0  0  0
  -24.1359  -28.6397   24.8272 C   0  0  0  0  0  0  0  0  0  0  0  0
  -25.7054  -30.2934   22.9439 C   0  0  0  0  0  0  0  0  0  0  0  0
  -18.6766  -28.6618   22.7329 C   0  0  0  0  0  0  0  0  0  0  0  0
  -28.8844  -13.6558   15.5830 C   0  0  0  0  0  0  0  0  0  0  0  0
  -19.7784  -28.7456   21.6813 C   0  0  0  0  0  0  0  0  0  0  0  0
  -30.3180  -13.9799   15.9945 C   0  0  0  0  0  0  0  0  0  0  0  0
  -27.9681  -14.8475   15.8191 C   0  0  0  0  0  0  0  0  0  0  0  0
  -27.6336  -17.6462   18.8801 C   0  0  0  0  0  0  0  0  0  0  0  0
  -29.3703  -15.6461   17.7011 C   0  0  0  0  0  0  0  0  0  0  0  0
  -25.3366  -17.4812   20.5821 C   0  0  0  0  0  0  0  0  0  0  0  0
  -20.9449  -27.8129   22.0290 C   0  0  1  0  0  0  0  0  0  0  0  0
  -26.7453  -18.8392   19.2583 C   0  0  1  0  0  0  0  0  0  0  0  0
  -23.5003  -29.7797   24.0376 C   0  0  1  0  0  0  0  0  0  0  0  0
  -30.4313  -14.5595   17.4153 C   0  0  1  0  0  0  0  0  0  0  0  0
  -26.1466  -16.2202   20.2787 C   0  0  2  0  0  0  0  0  0  0  0  0
  -27.0246  -20.5618   16.9046 C   0  0  0  0  0  0  0  0  0  0  0  0
  -27.1082  -15.8766   21.4199 C   0  0  0  0  0  0  0  0  0  0  0  0
  -27.7464  -36.1852   25.0091 C   0  0  0  0  0  0  0  0  0  0  0  0
  -23.8348  -32.9868   20.7265 C   0  0  0  0  0  0  0  0  0  0  0  0
  -25.4573  -34.8391   21.1790 C   0  0  0  0  0  0  0  0  0  0  0  0
  -23.2803  -34.7656   22.3947 C   0  0  0  0  0  0  0  0  0  0  0  0
  -27.9855  -32.9726   27.0334 C   0  0  0  0  0  0  0  0  0  0  0  0
  -29.8784  -23.6776   19.5566 C   0  0  0  0  0  0  0  0  0  0  0  0
  -30.0126  -26.0108   20.4378 C   0  0  0  0  0  0  0  0  0  0  0  0
  -29.2057  -27.0613   21.1750 C   0  0  0  0  0  0  0  0  0  1  0  0
  -25.0853  -33.0958   22.9827 C   0  0  1  0  0  0  0  0  0  0  0  0
  -27.2685  -34.8434   25.5418 C   0  0  2  0  0  0  0  0  0  0  0  0
  -24.4216  -33.8947   21.8257 C   0  0  0  0  0  0  0  0  0  0  0  0
  -29.0990  -13.1951   18.8907 N   0  0  0  0  0  0  0  0  0  0  0  0
  -30.3122  -13.4894   18.3932 N   0  0  0  0  0  0  0  0  0  0  0  0
  -24.4783  -30.7770   23.5981 N   0  0  0  0  0  0  0  0  0  0  0  0
  -28.0286  -15.3022   17.2073 N   0  0  0  0  0  0  0  0  0  0  0  0
  -26.8889  -16.3848   19.0172 N   0  0  0  0  0  0  0  0  0  0  0  0
  -32.5971  -12.8738   18.4989 N   0  0  0  0  0  0  0  0  0  0  0  0
  -30.6196  -10.0423   21.4088 N   0  0  0  0  0  0  0  0  0  0  0  0
  -21.7672  -28.3971   23.0667 N   0  0  0  0  0  0  0  0  0  0  0  0
  -25.6257  -33.9292   24.0512 N   0  0  0  0  0  0  0  0  0  0  0  0
  -28.3317  -34.2816   26.4221 N   0  3  0  0  0  0  0  0  0  0  0  0
  -29.1972  -24.7767   20.2950 N   0  3  0  0  0  0  0  0  0  0  0  0
  -32.6253  -10.6645   20.4875 O   0  0  0  0  0  0  0  0  0  0  0  0
  -23.1129  -29.7269   21.7090 O   0  0  0  0  0  0  0  0  0  0  0  0
  -23.1068  -32.5702   24.1810 O   0  0  0  0  0  0  0  0  0  0  0  0
  -27.8072  -33.1583   23.8963 O   0  0  0  0  0  0  0  0  0  0  0  0
  -25.9153  -14.6540   17.8436 O   0  0  0  0  0  0  0  0  0  0  0  0
  -26.1680  -18.6418   20.5549 O   0  0  0  0  0  0  0  0  0  0  0  0
  -25.1891   -9.8430   22.6356 O   0  0  0  0  0  0  0  0  0  0  0  0
  -28.8695  -26.5808   22.4699 O   0  0  0  0  0  0  0  0  0  1  0  0
  -20.5398   -8.6424   19.9251 F   0  0  0  0  0  0  0  0  0  0  0  0
  -23.7234  -11.8261   21.3860 F   0  0  0  0  0  0  0  0  0  0  0  0
  1  2  1  0  0  0  0
  1  5  2  0  0  0  0
  2  6  2  0  0  0  0
  3 10  2  0  0  0  0
  3 18  1  0  0  0  0
  4 11  1  0  0  0  0
  4 18  2  0  0  0  0
  5 20  1  0  0  0  0
  6 22  1  0  0  0  0
  7  9  2  0  0  0  0
  7 23  1  0  0  0  0
  8 12  2  0  0  0  0
  8 21  1  0  0  0  0
  9 25  1  0  0  0  0
 10 27  1  0  0  0  0
 11 27  2  0  0  0  0
 12 28  1  0  0  0  0
 13 14  2  0  0  0  0
 13 29  1  0  0  0  0
 14 30  1  0  0  0  0
 15 24  1  0  0  0  0
 15 28  2  0  0  0  0
 16 25  2  0  0  0  0
 16 26  1  0  0  0  0
 17 30  2  0  0  0  0
 17 31  1  0  0  0  0
 18 32  1  0  0  0  0
 19 32  1  0  0  0  0
 19 33  2  0  0  0  0
 19 34  1  0  0  0  0
 20 22  2  0  0  0  0
 20 39  1  0  0  0  0
 21 24  2  0  0  0  0
 21 40  1  0  0  0  0
 22 50  1  0  0  0  0
 23 26  2  0  0  0  0
 23 51  1  0  0  0  0
 24 41  1  0  0  0  0
 25 62  1  0  0  0  0
 26 55  1  0  0  0  0
 27 85  1  0  0  0  0
 28 86  1  0  0  0  0
 29 31  2  0  0  0  0
 29 85  1  0  0  0  0
 30 87  1  0  0  0  0
 31 88  1  0  0  0  0
 32 68  2  0  0  0  0
 33 69  1  0  0  0  0
 33 73  1  0  0  0  0
 34 74  1  0  0  0  0
 34 79  2  0  0  0  0
 35 52  1  0  0  0  0
 35 75  1  0  0  0  0
 35 80  2  0  0  0  0
 36 65  1  0  0  0  0
 36 70  1  0  0  0  0
 36 81  2  0  0  0  0
 37 66  1  0  0  0  0
 37 76  1  0  0  0  0
 37 82  2  0  0  0  0
 38 71  1  0  0  0  0
 38 72  1  0  0  0  0
 38 83  2  0  0  0  0
 39 42  1  0  0  0  0
 40 52  1  0  0  0  0
 41 70  1  0  0  0  0
 42 44  1  0  0  0  0
 43 45  1  0  0  0  0
 43 46  1  0  0  0  0
 44 50  1  0  0  0  0
 45 53  1  0  0  0  0
 46 71  1  0  0  0  0
 47 51  1  0  0  0  0
 47 72  1  0  0  0  0
 48 53  1  0  0  0  0
 48 71  1  0  0  0  0
 49 54  1  0  0  0  0
 49 84  1  0  0  0  0
 50 75  1  0  0  0  0
 51 84  1  0  0  0  0
 52 70  1  0  0  0  0
 53 69  1  0  0  0  0
 54 56  1  0  0  0  0
 54 72  1  0  0  0  0
 57 66  1  0  0  0  0
 58 67  1  0  0  0  0
 59 67  1  0  0  0  0
 60 67  1  0  0  0  0
 61 77  1  0  0  0  0
 62 78  1  0  0  0  0
 63 64  1  0  0  0  0
 63 78  1  0  0  0  0
 64 86  1  0  0  0  0
 65 67  1  0  0  0  0
 65 76  1  0  0  0  0
 66 77  1  0  0  0  0
 68 69  1  0  0  0  0
M  CHG  2  77   1  78   1
M  ISO  4  38 100  64 101  72 100  86 101
M  END
> <Batch ID>
0123

> <Smiles>
CNC(C)C(=O)NC(C(=O)N1Cc2cc([101O:1][101CH2:1]CNCc3ccc(C4C[100N:0]([100C:0](=O)N5CCCC(n6nc(-c7ccc(Oc8ccc(F)cc8F)cc7)c(C(N)=O)c6N)C5)C(C)CO4)c(C)c3)ccc2CC1C(=O)NC1CCCc2ccccc21)C(C)(C)C

> <Shape>
0.293

> <Color>
0.073

> <Negative vol penalty>
0.000

$$$$

  -OEChem-04052320303D

 87 96  0     1  0  0  0  0  0999 V2000
  -25.1273  -31.2537   20.2855 C   0  0  0  0  0  0  0  0  0  0  0  0
  -25.4933  -29.9119   20.3190 C   0  0  0  0  0  0  0  0  0  0  0  0
  -29.4897  -23.2534   18.8600 C   0  0  0  0  0  0  0  0  0  0  0  0
  -27.7484  -23.3074   20.5338 C   0  0  0  0  0  0  0  0  0  0  0  0
  -24.1125  -31.7194   21.1206 C   0  0  0  0  0  0  0  0  0  0  0  0
  -24.8453  -29.0352   21.1885 C   0  0  0  0  0  0  0  0  0  0  0  0
  -23.5631  -23.1315   20.1843 C   0  0  0  0  0  0  0  0  0  0  0  0
  -29.5936  -24.6430   18.9231 C   0  0  0  0  0  0  0  0  0  0  0  0
  -27.8522  -24.6970   20.5971 C   0  0  0  0  0  0  0  0  0  0  0  0
  -24.2001  -21.9540   20.5734 C   0  0  0  0  0  0  0  0  0  0  0  0
  -30.5683  -28.1451   18.9060 C   0  0  0  0  0  0  0  0  0  0  0  0
  -31.8478  -28.6981   18.9573 C   0  0  0  0  0  0  0  0  0  0  0  0
  -25.1778  -12.8667   19.3023 C   0  0  0  0  0  0  0  0  0  0  0  0
  -22.7009  -21.7717   22.4544 C   0  0  0  0  0  0  0  0  0  0  0  0
  -32.2835  -27.4999   21.0095 C   0  0  0  0  0  0  0  0  0  0  0  0
  -25.4915  -11.6060   19.7839 C   0  0  0  0  0  0  0  0  0  0  0  0
  -28.5671  -22.5856   19.6653 C   0  0  0  0  0  0  0  0  0  0  0  0
  -29.1686  -20.2085   20.3690 C   0  0  0  0  0  0  0  0  0  0  0  0
  -23.4452  -30.8459   21.9938 C   0  0  0  0  0  0  0  0  0  0  0  0
  -22.4955  -23.6447   20.9347 C   0  0  0  0  0  0  0  0  0  0  0  0
  -23.8216  -29.4899   22.0370 C   0  0  0  0  0  0  0  0  0  0  0  0
  -22.0504  -22.9545   22.0713 C   0  0  0  0  0  0  0  0  0  0  0  0
  -25.6885  -13.7267   21.4896 C   0  0  0  0  0  0  0  0  0  0  0  0
  -25.2807  -13.9420   20.1778 C   0  0  0  0  0  0  0  0  0  0  0  0
  -28.7748  -25.3647   19.7917 C   0  0  0  0  0  0  0  0  0  0  0  0
  -23.7709  -21.2754   21.7102 C   0  0  0  0  0  0  0  0  0  0  0  0
  -30.1464  -27.2695   19.9065 C   0  0  0  0  0  0  0  0  0  0  0  0
  -32.7054  -28.3755   20.0090 C   0  0  0  0  0  0  0  0  0  0  0  0
  -31.0039  -26.9469   20.9582 C   0  0  0  0  0  0  0  0  0  0  0  0
  -28.4590  -21.1503   19.6000 C   0  0  0  0  0  0  0  0  0  0  0  0
  -25.9791  -12.4275   21.8733 C   0  0  0  0  0  0  0  0  0  0  0  0
  -28.7085  -18.9908   19.9308 C   0  0  0  0  0  0  0  0  0  0  0  0
  -30.1554  -20.4159   21.3882 C   0  0  0  0  0  0  0  0  0  0  0  0
  -21.9800  -26.3290   22.5571 C   0  0  0  0  0  0  0  0  0  0  0  0
  -18.9912  -25.1073   22.8682 C   0  0  0  0  0  0  0  0  0  0  0  0
  -16.9749  -22.3540   22.8938 C   0  0  0  0  0  0  0  0  0  0  0  0
  -24.5469  -15.6072   18.4357 C   0  0  0  0  0  0  0  0  0  0  0  0
  -22.3869  -31.4051   22.9113 C   0  0  0  0  0  0  0  0  0  0  0  0
  -21.8017  -24.9018   20.4866 C   0  0  0  0  0  0  0  0  0  0  0  0
  -20.8956  -23.4528   22.8999 C   0  0  0  0  0  0  0  0  0  0  0  0
  -21.4944  -30.3353   23.5350 C   0  0  0  0  0  0  0  0  0  0  0  0
  -25.8314  -17.7985   15.9405 C   0  0  0  0  0  0  0  0  0  0  0  0
  -22.3377  -29.1843   24.0743 C   0  0  0  0  0  0  0  0  0  0  0  0
  -26.6878  -18.7883   16.7334 C   0  0  0  0  0  0  0  0  0  0  0  0
  -26.8523  -15.8744   21.9589 C   0  0  0  0  0  0  0  0  0  0  0  0
  -24.4450  -15.5405   22.6520 C   0  0  0  0  0  0  0  0  0  0  0  0
  -24.5744  -17.3938   16.7088 C   0  0  0  0  0  0  0  0  0  0  0  0
  -25.6687  -17.8823   18.8612 C   0  0  0  0  0  0  0  0  0  0  0  0
  -26.9399  -17.0838   22.8809 C   0  0  0  0  0  0  0  0  0  0  0  0
  -24.5511  -16.7523   23.5690 C   0  0  0  0  0  0  0  0  0  0  0  0
  -25.8096  -14.8603   22.4563 C   0  0  0  0  0  0  0  0  0  0  0  0
  -23.1253  -28.5029   22.9487 C   0  0  1  0  0  0  0  0  0  0  0  0
  -21.0573  -25.6083   21.6154 C   0  0  1  0  0  0  0  0  0  0  0  0
  -26.9785  -18.2692   18.1552 C   0  0  2  0  0  0  0  0  0  0  0  0
  -26.9914  -10.7260   23.4117 C   0  0  0  0  0  0  0  0  0  0  0  0
  -14.5821  -21.6675   23.2106 C   0  0  0  0  0  0  0  0  0  0  0  0
  -19.2808  -25.4969   25.8806 C   0  0  0  0  0  0  0  0  0  0  0  0
  -17.3298  -23.9599   26.1966 C   0  0  0  0  0  0  0  0  0  0  0  0
  -17.0366  -26.1069   24.9608 C   0  0  0  0  0  0  0  0  0  0  0  0
  -16.8141  -21.2305   20.1605 C   0  0  0  0  0  0  0  0  0  0  0  0
  -26.4215  -12.1339   23.2699 C   0  0  0  0  0  0  0  0  0  0  0  0
  -25.6275  -18.9877   23.8125 C   0  0  0  0  0  0  0  0  0  0  0  0
  -24.4110  -19.8323   23.4889 C   0  0  0  0  0  0  0  0  0  1  0  0
  -18.3016  -24.2103   23.8676 C   0  0  1  0  0  0  0  0  0  0  0  0
  -15.6519  -22.0679   22.2066 C   0  0  2  0  0  0  0  0  0  0  0  0
  -18.0102  -24.9349   25.2121 C   0  0  0  0  0  0  0  0  0  0  0  0
  -25.8910  -11.3578   21.0513 N   0  0  0  0  0  0  0  0  0  0  0  0
  -27.6125  -20.5799   18.7386 N   0  0  0  0  0  0  0  0  0  0  0  0
  -27.7874  -19.2665   18.9635 N   0  0  0  0  0  0  0  0  0  0  0  0
  -20.2539  -24.6895   22.4245 N   0  0  0  0  0  0  0  0  0  0  0  0
  -24.9277  -16.9083   18.0445 N   0  0  0  0  0  0  0  0  0  0  0  0
  -29.0061  -17.7219   20.2823 N   0  0  0  0  0  0  0  0  0  0  0  0
  -30.5118  -21.7313   21.7155 N   0  0  0  0  0  0  0  0  0  0  0  0
  -24.9663  -15.2438   19.7150 N   0  0  0  0  0  0  0  0  0  0  0  0
  -22.2610  -27.6295   22.1841 N   0  0  0  0  0  0  0  0  0  0  0  0
  -17.1134  -23.6915   23.1987 N   0  0  0  0  0  0  0  0  0  0  0  0
  -25.5750  -17.7305   23.0245 N   0  3  0  0  0  0  0  0  0  0  0  0
  -15.8089  -20.9614   21.2207 N   0  3  0  0  0  0  0  0  0  0  0  0
  -30.7168  -19.4626   21.9794 O   0  0  0  0  0  0  0  0  0  0  0  0
  -22.4043  -25.7488   23.5496 O   0  0  0  0  0  0  0  0  0  0  0  0
  -18.4271  -26.1369   22.4896 O   0  0  0  0  0  0  0  0  0  0  0  0
  -17.8012  -21.4778   23.1391 O   0  0  0  0  0  0  0  0  0  0  0  0
  -23.9201  -14.8598   17.6804 O   0  0  0  0  0  0  0  0  0  0  0  0
  -28.8761  -26.7206   19.8538 O   0  0  0  0  0  0  0  0  0  0  0  0
  -24.3913  -20.1262   22.0926 O   0  0  0  0  0  0  0  0  0  1  0  0
  -33.9346  -28.9055   20.0572 F   0  0  0  0  0  0  0  0  0  0  0  0
  -30.6046  -26.1054   21.9217 F   0  0  0  0  0  0  0  0  0  0  0  0
  1  2  1  0  0  0  0
  1  5  2  0  0  0  0
  2  6  2  0  0  0  0
  3  8  2  0  0  0  0
  3 17  1  0  0  0  0
  4  9  1  0  0  0  0
  4 17  2  0  0  0  0
  5 19  1  0  0  0  0
  6 21  1  0  0  0  0
  7 10  2  0  0  0  0
  7 20  1  0  0  0  0
  8 25  1  0  0  0  0
  9 25  2  0  0  0  0
 10 26  1  0  0  0  0
 11 12  2  0  0  0  0
 11 27  1  0  0  0  0
 12 28  1  0  0  0  0
 13 16  1  0  0  0  0
 13 24  2  0  0  0  0
 14 22  1  0  0  0  0
 14 26  2  0  0  0  0
 15 28  2  0  0  0  0
 15 29  1  0  0  0  0
 16 67  2  0  0  0  0
 17 30  1  0  0  0  0
 18 30  1  0  0  0  0
 18 32  2  0  0  0  0
 18 33  1  0  0  0  0
 19 21  2  0  0  0  0
 19 38  1  0  0  0  0
 20 22  2  0  0  0  0
 20 39  1  0  0  0  0
 21 52  1  0  0  0  0
 22 40  1  0  0  0  0
 23 24  1  0  0  0  0
 23 31  2  0  0  0  0
 23 51  1  0  0  0  0
 24 74  1  0  0  0  0
 25 84  1  0  0  0  0
 26 85  1  0  0  0  0
 27 29  2  0  0  0  0
 27 84  1  0  0  0  0
 28 86  1  0  0  0  0
 29 87  1  0  0  0  0
 30 68  2  0  0  0  0
 31 61  1  0  0  0  0
 31 67  1  0  0  0  0
 32 69  1  0  0  0  0
 32 72  1  0  0  0  0
 33 73  1  0  0  0  0
 33 79  2  0  0  0  0
 34 53  1  0  0  0  0
 34 75  1  0  0  0  0
 34 80  2  0  0  0  0
 35 64  1  0  0  0  0
 35 70  1  0  0  0  0
 35 81  2  0  0  0  0
 36 65  1  0  0  0  0
 36 76  1  0  0  0  0
 36 82  2  0  0  0  0
 37 71  1  0  0  0  0
 37 74  1  0  0  0  0
 37 83  2  0  0  0  0
 38 41  1  0  0  0  0
 39 53  1  0  0  0  0
 40 70  1  0  0  0  0
 41 43  1  0  0  0  0
 42 44  1  0  0  0  0
 42 47  1  0  0  0  0
 43 52  1  0  0  0  0
 44 54  1  0  0  0  0
 45 49  1  0  0  0  0
 45 51  1  0  0  0  0
 46 50  1  0  0  0  0
 46 51  1  0  0  0  0
 47 71  1  0  0  0  0
 48 54  1  0  0  0  0
 48 71  1  0  0  0  0
 49 77  1  0  0  0  0
 50 77  1  0  0  0  0
 52 75  1  0  0  0  0
 53 70  1  0  0  0  0
 54 69  1  0  0  0  0
 55 61  1  0  0  0  0
 56 65  1  0  0  0  0
 57 66  1  0  0  0  0
 58 66  1  0  0  0  0
 59 66  1  0  0  0  0
 60 78  1  0  0  0  0
 62 63  1  0  0  0  0
 62 77  1  0  0  0  0
 63 85  1  0  0  0  0
 64 66  1  0  0  0  0
 64 76  1  0  0  0  0
 65 78  1  0  0  0  0
 68 69  1  0  0  0  0
M  CHG  2  77   1  78   1
M  ISO  4  37 100  63 101  74 100  85 101
M  END
> <Batch ID>
0123

> <Smiles>
CCc1nccc([100NH:0][100C:0](=O)N2CCCC(n3nc(-c4ccc(Oc5ccc(F)cc5F)cc4)c(C(N)=O)c3N)C2)c1C1CCN(C[101CH2:1][101O:1]c2ccc3c(c2)CN(C(=O)C(NC(=O)C(C)NC)C(C)(C)C)C(C(=O)NC2CCCc4ccccc42)C3)CC1

> <Shape>
0.189

> <Color>
0.072

> <Negative vol penalty>
0.000

$$$$

  -OEChem-04052320303D

 85 94  0     1  0  0  0  0  0999 V2000
  -35.0354  -20.3131   20.1541 C   0  0  0  0  0  0  0  0  0  0  0  0
  -33.6750  -20.3726   19.8691 C   0  0  0  0  0  0  0  0  0  0  0  0
  -23.2722  -10.1116   22.1793 C   0  0  0  0  0  0  0  0  0  0  0  0
  -23.4545   -9.6128   19.8224 C   0  0  0  0  0  0  0  0  0  0  0  0
  -35.6266  -21.3039   20.9368 C   0  0  0  0  0  0  0  0  0  0  0  0
  -32.9047  -21.4226   20.3678 C   0  0  0  0  0  0  0  0  0  0  0  0
  -29.7822  -23.3653   16.8862 C   0  0  0  0  0  0  0  0  0  0  0  0
  -22.5046   -8.9616   22.3633 C   0  0  0  0  0  0  0  0  0  0  0  0
  -22.6870   -8.4627   20.0064 C   0  0  0  0  0  0  0  0  0  0  0  0
  -28.6170  -22.6524   16.6073 C   0  0  0  0  0  0  0  0  0  0  0  0
  -20.8005   -5.9653   23.5178 C   0  0  0  0  0  0  0  0  0  0  0  0
  -21.1029   -5.1516   24.6097 C   0  0  0  0  0  0  0  0  0  0  0  0
  -27.2705  -18.9837   21.7905 C   0  0  0  0  0  0  0  0  0  0  0  0
  -27.3681  -24.1501   18.0273 C   0  0  0  0  0  0  0  0  0  0  0  0
  -23.3341   -4.8197   23.7444 C   0  0  0  0  0  0  0  0  0  0  0  0
  -28.5789  -18.8381   22.1955 C   0  0  0  0  0  0  0  0  0  0  0  0
  -28.4002  -17.9109   20.1649 C   0  0  0  0  0  0  0  0  0  0  0  0
  -23.7471  -10.4373   20.9088 C   0  0  0  0  0  0  0  0  0  0  0  0
  -24.1564  -12.9542   20.9816 C   0  0  0  0  0  0  0  0  0  0  0  0
  -34.8650  -22.3717   21.4373 C   0  0  0  0  0  0  0  0  0  0  0  0
  -29.7510  -24.4712   17.7478 C   0  0  0  0  0  0  0  0  0  0  0  0
  -33.4860  -22.4279   21.1591 C   0  0  0  0  0  0  0  0  0  0  0  0
  -28.5338  -24.8769   18.3134 C   0  0  0  0  0  0  0  0  0  0  0  0
  -27.1574  -18.3972   20.5059 C   0  0  0  0  0  0  0  0  0  0  0  0
  -22.2121   -8.1371   21.2769 C   0  0  0  0  0  0  0  0  0  0  0  0
  -27.4102  -23.0430   17.1802 C   0  0  0  0  0  0  0  0  0  0  0  0
  -21.7649   -6.2061   22.5392 C   0  0  0  0  0  0  0  0  0  0  0  0
  -22.3697   -4.5788   24.7230 C   0  0  0  0  0  0  0  0  0  0  0  0
  -23.0316   -5.6333   22.6525 C   0  0  0  0  0  0  0  0  0  0  0  0
  -24.5395  -11.6255   20.7179 C   0  0  0  0  0  0  0  0  0  0  0  0
  -25.2548  -13.7031   20.6364 C   0  0  0  0  0  0  0  0  0  0  0  0
  -22.9185  -13.4657   21.4930 C   0  0  0  0  0  0  0  0  0  0  0  0
  -31.1020  -25.1814   20.5360 C   0  0  0  0  0  0  0  0  0  0  0  0
  -29.7484  -28.0820   20.0105 C   0  0  0  0  0  0  0  0  0  0  0  0
  -27.3145  -29.9057   18.4622 C   0  0  0  0  0  0  0  0  0  0  0  0
  -30.7687  -14.5631   20.6824 C   0  0  0  0  0  0  0  0  0  0  0  0
  -35.5389  -23.3937   22.3182 C   0  0  0  0  0  0  0  0  0  0  0  0
  -31.0119  -25.2458   18.0173 C   0  0  0  0  0  0  0  0  0  0  0  0
  -28.4432  -26.0693   19.2290 C   0  0  0  0  0  0  0  0  0  0  0  0
  -34.7271  -24.6742   22.4964 C   0  0  0  0  0  0  0  0  0  0  0  0
  -29.4714  -12.4142   18.1574 C   0  0  0  0  0  0  0  0  0  0  0  0
  -23.3250  -20.9956   18.7929 C   0  0  0  0  0  0  0  0  0  0  0  0
  -33.2714  -24.3440   22.8108 C   0  0  0  0  0  0  0  0  0  0  0  0
  -28.0440  -12.1223   18.6234 C   0  0  0  0  0  0  0  0  0  0  0  0
  -24.1009  -21.7417   17.7156 C   0  0  0  0  0  0  0  0  0  0  0  0
  -30.4404  -12.5114   19.3337 C   0  0  0  0  0  0  0  0  0  0  0  0
  -28.6156  -13.1733   20.8522 C   0  0  0  0  0  0  0  0  0  0  0  0
  -23.8733  -19.5925   19.0110 C   0  0  0  0  0  0  0  0  0  0  0  0
  -26.1368  -20.3492   18.2404 C   0  0  0  0  0  0  0  0  0  0  0  0
  -32.6219  -23.5643   21.6612 C   0  0  1  0  0  0  0  0  0  0  0  0
  -30.9560  -26.0453   19.3154 C   0  0  1  0  0  0  0  0  0  0  0  0
  -27.5919  -13.1217   19.7052 C   0  0  2  0  0  0  0  0  0  0  0  0
  -25.5967  -21.7553   18.0151 C   0  0  1  0  0  0  0  0  0  1  0  0
  -26.4392  -32.2484   18.2555 C   0  0  0  0  0  0  0  0  0  0  0  0
  -28.4642  -27.8430   22.7679 C   0  0  0  0  0  0  0  0  0  0  0  0
  -26.8986  -29.6868   22.1218 C   0  0  0  0  0  0  0  0  0  0  0  0
  -29.3537  -30.1164   22.2249 C   0  0  0  0  0  0  0  0  0  0  0  0
  -27.8384  -29.9682   15.5501 C   0  0  0  0  0  0  0  0  0  0  0  0
  -25.9143  -18.3204   19.6693 C   0  0  0  0  0  0  0  0  0  0  0  0
  -30.6582  -17.8356   21.2355 C   0  0  0  0  0  0  0  0  0  0  0  0
  -30.9443  -16.6015   22.0872 C   0  0  0  0  0  0  0  0  0  0  0  0
  -28.4185  -28.7165   20.3387 C   0  0  1  0  0  0  0  0  0  0  0  0
  -27.3748  -31.2007   17.6725 C   0  0  2  0  0  0  0  0  0  0  0  0
  -28.2855  -29.0670   21.8477 C   0  0  0  0  0  0  0  0  0  0  0  0
  -25.7839  -11.5324   20.2417 N   0  0  0  0  0  0  0  0  0  0  0  0
  -29.2563  -18.1842   21.1995 N   0  0  0  0  0  0  0  0  0  0  0  0
  -26.1923  -12.8122   20.2034 N   0  0  0  0  0  0  0  0  0  0  0  0
  -29.7045  -26.7904   19.4669 N   0  0  0  0  0  0  0  0  0  0  0  0
  -29.9543  -13.4767   20.3226 N   0  0  0  0  0  0  0  0  0  0  0  0
  -25.5004  -15.0303   20.6638 N   0  0  0  0  0  0  0  0  0  0  0  0
  -21.9097  -13.8076   20.5822 N   0  0  0  0  0  0  0  0  0  0  0  0
  -32.2784  -24.4574   20.5754 N   0  0  0  0  0  0  0  0  0  0  0  0
  -28.2806  -29.8613   19.4450 N   0  0  0  0  0  0  0  0  0  0  0  0
  -30.2296  -15.4340   21.6214 N   0  0  0  0  0  0  0  0  0  0  0  0
  -25.3471  -19.6716   19.3312 N   0  3  2  0  0  0  0  0  0  0  0  0
  -26.9862  -30.9610   16.2539 N   0  3  0  0  0  0  0  0  0  0  0  0
  -22.7190  -13.6306   22.7204 O   0  0  0  0  0  0  0  0  0  0  0  0
  -30.2139  -25.1734   21.3803 O   0  0  0  0  0  0  0  0  0  0  0  0
  -30.7876  -28.7122   20.2217 O   0  0  0  0  0  0  0  0  0  0  0  0
  -26.4902  -29.0234   18.2328 O   0  0  0  0  0  0  0  0  0  0  0  0
  -31.8908  -14.7466   20.1985 O   0  0  0  0  0  0  0  0  0  0  0  0
  -21.4633   -7.0147   21.4562 O   0  0  0  0  0  0  0  0  0  0  0  0
  -26.2715  -22.3485   16.9102 O   0  0  0  0  0  0  0  0  0  1  0  0
  -22.6604   -3.7988   25.7723 F   0  0  0  0  0  0  0  0  0  0  0  0
  -23.9626   -5.8620   21.7161 F   0  0  0  0  0  0  0  0  0  0  0  0
  1  2  1  0  0  0  0
  1  5  2  0  0  0  0
  2  6  2  0  0  0  0
  3  8  2  0  0  0  0
  3 18  1  0  0  0  0
  4  9  1  0  0  0  0
  4 18  2  0  0  0  0
  5 20  1  0  0  0  0
  6 22  1  0  0  0  0
  7 10  2  0  0  0  0
  7 21  1  0  0  0  0
  8 25  1  0  0  0  0
  9 25  2  0  0  0  0
 10 26  1  0  0  0  0
 11 12  2  0  0  0  0
 11 27  1  0  0  0  0
 12 28  1  0  0  0  0
 13 16  2  0  0  0  0
 13 24  1  0  0  0  0
 14 23  1  0  0  0  0
 14 26  2  0  0  0  0
 15 28  2  0  0  0  0
 15 29  1  0  0  0  0
 16 66  1  0  0  0  0
 17 24  2  0  0  0  0
 17 66  1  0  0  0  0
 18 30  1  0  0  0  0
 19 30  1  0  0  0  0
 19 31  2  0  0  0  0
 19 32  1  0  0  0  0
 20 22  2  0  0  0  0
 20 37  1  0  0  0  0
 21 23  2  0  0  0  0
 21 38  1  0  0  0  0
 22 50  1  0  0  0  0
 23 39  1  0  0  0  0
 24 59  1  0  0  0  0
 25 82  1  0  0  0  0
 26 83  1  0  0  0  0
 27 29  2  0  0  0  0
 27 82  1  0  0  0  0
 28 84  1  0  0  0  0
 29 85  1  0  0  0  0
 30 65  2  0  0  0  0
 31 67  1  0  0  0  0
 31 70  1  0  0  0  0
 32 71  1  0  0  0  0
 32 77  2  0  0  0  0
 33 51  1  0  0  0  0
 33 72  1  0  0  0  0
 33 78  2  0  0  0  0
 34 62  1  0  0  0  0
 34 68  1  0  0  0  0
 34 79  2  0  0  0  0
 35 63  1  0  0  0  0
 35 73  1  0  0  0  0
 35 80  2  0  0  0  0
 36 69  1  0  0  0  0
 36 74  1  0  0  0  0
 36 81  2  0  0  0  0
 37 40  1  0  0  0  0
 38 51  1  0  0  0  0
 39 68  1  0  0  0  0
 40 43  1  0  0  0  0
 41 44  1  0  0  0  0
 41 46  1  0  0  0  0
 42 45  1  0  0  0  0
 42 48  1  0  0  0  0
 43 50  1  0  0  0  0
 44 52  1  0  0  0  0
 45 53  1  0  0  0  0
 46 69  1  0  0  0  0
 47 52  1  0  0  0  0
 47 69  1  0  0  0  0
 48 75  1  0  0  0  0
 49 53  1  0  0  0  0
 49 75  1  0  0  0  0
 50 72  1  0  0  0  0
 51 68  1  0  0  0  0
 52 67  1  0  0  0  0
 53 83  1  0  0  0  0
 54 63  1  0  0  0  0
 55 64  1  0  0  0  0
 56 64  1  0  0  0  0
 57 64  1  0  0  0  0
 58 76  1  0  0  0  0
 59 75  1  0  0  0  0
 60 61  1  0  0  0  0
 60 66  1  0  0  0  0
 61 74  1  0  0  0  0
 62 64  1  0  0  0  0
 62 73  1  0  0  0  0
 63 76  1  0  0  0  0
 65 67  1  0  0  0  0
M  CHG  2  75   1  76   1
M  ISO  4  36 100  53 101  74 100  83 101
M  END
> <Batch ID>
0123

> <Smiles>
CNC(C)C(=O)NC(C(=O)N1Cc2cc([101O:1][101CH:1]3CCCN(Cc4ccn(CC[100NH:0][100C:0](=O)N5CCCC(n6nc(-c7ccc(Oc8ccc(F)cc8F)cc7)c(C(N)=O)c6N)C5)c4)C3)ccc2CC1C(=O)NC1CCCc2ccccc21)C(C)(C)C

> <Shape>
0.272

> <Color>
0.172

> <Negative vol penalty>
0.000

$$$$

  -OEChem-04052320303D

 84 93  0     1  0  0  0  0  0999 V2000
  -28.0933  -25.2017   27.7917 C   0  0  0  0  0  0  0  0  0  0  0  0
  -28.5056  -23.9898   27.2470 C   0  0  0  0  0  0  0  0  0  0  0  0
  -21.9687  -23.9552   21.1630 C   0  0  0  0  0  0  0  0  0  0  0  0
  -20.3632  -22.2810   21.8387 C   0  0  0  0  0  0  0  0  0  0  0  0
  -27.3599  -26.0993   27.0169 C   0  0  0  0  0  0  0  0  0  0  0  0
  -28.1836  -23.6743   25.9274 C   0  0  0  0  0  0  0  0  0  0  0  0
  -31.6692  -20.5040   21.9030 C   0  0  0  0  0  0  0  0  0  0  0  0
  -20.9587  -24.9171   21.1463 C   0  0  0  0  0  0  0  0  0  0  0  0
  -19.3532  -23.2429   21.8220 C   0  0  0  0  0  0  0  0  0  0  0  0
  -31.6732  -19.1757   21.4793 C   0  0  0  0  0  0  0  0  0  0  0  0
  -18.8705  -27.8899   21.2756 C   0  0  0  0  0  0  0  0  0  0  0  0
  -19.1428  -29.1265   21.8606 C   0  0  0  0  0  0  0  0  0  0  0  0
  -30.2805  -19.7762   19.6036 C   0  0  0  0  0  0  0  0  0  0  0  0
  -29.9578  -15.3589   19.9872 C   0  0  0  0  0  0  0  0  0  0  0  0
  -19.5445  -28.0360   23.9788 C   0  0  0  0  0  0  0  0  0  0  0  0
  -28.1120  -16.4093   21.7003 C   0  0  0  0  0  0  0  0  0  0  0  0
  -21.6710  -22.6372   21.5092 C   0  0  0  0  0  0  0  0  0  0  0  0
  -23.5365  -21.2925   22.6133 C   0  0  0  0  0  0  0  0  0  0  0  0
  -27.0371  -25.7989   25.6842 C   0  0  0  0  0  0  0  0  0  0  0  0
  -30.9611  -21.4786   21.1850 C   0  0  0  0  0  0  0  0  0  0  0  0
  -27.4440  -24.5682   25.1345 C   0  0  0  0  0  0  0  0  0  0  0  0
  -30.2731  -21.1169   20.0177 C   0  0  0  0  0  0  0  0  0  0  0  0
  -28.9456  -14.5443   20.4825 C   0  0  0  0  0  0  0  0  0  0  0  0
  -28.0014  -15.0717   21.3565 C   0  0  0  0  0  0  0  0  0  0  0  0
  -19.6509  -24.5609   21.4758 C   0  0  0  0  0  0  0  0  0  0  0  0
  -30.9769  -18.8113   20.3307 C   0  0  0  0  0  0  0  0  0  0  0  0
  -18.9350  -26.7263   22.0422 C   0  0  0  0  0  0  0  0  0  0  0  0
  -19.4799  -29.1996   23.2121 C   0  0  0  0  0  0  0  0  0  0  0  0
  -19.2721  -26.7994   23.3938 C   0  0  0  0  0  0  0  0  0  0  0  0
  -22.7138  -21.6430   21.5261 C   0  0  0  0  0  0  0  0  0  0  0  0
  -29.9814  -16.6835   20.3931 C   0  0  0  0  0  0  0  0  0  1  0  0
  -24.3558  -20.3066   22.1200 C   0  0  0  0  0  0  0  0  0  0  0  0
  -23.5583  -21.8115   23.9496 C   0  0  0  0  0  0  0  0  0  0  0  0
  -28.5464  -23.4953   21.7750 C   0  0  0  0  0  0  0  0  0  0  0  0
  -29.3479  -24.5268   18.7177 C   0  0  0  0  0  0  0  0  0  0  0  0
  -27.4154  -27.2967   19.2001 C   0  0  0  0  0  0  0  0  0  0  0  0
  -25.1123  -15.6357   19.1609 C   0  0  0  0  0  0  0  0  0  0  0  0
  -26.2018  -26.7802   24.9006 C   0  0  0  0  0  0  0  0  0  0  0  0
  -30.9946  -22.9118   21.6424 C   0  0  0  0  0  0  0  0  0  0  0  0
  -29.5015  -22.1256   19.2104 C   0  0  0  0  0  0  0  0  0  0  0  0
  -26.2237  -26.5323   23.3945 C   0  0  0  0  0  0  0  0  0  0  0  0
  -30.0292  -11.0416   19.5186 C   0  0  0  0  0  0  0  0  0  0  0  0
  -29.0824  -11.4029   18.3732 C   0  0  0  0  0  0  0  0  0  0  0  0
  -25.1066  -18.7170   17.3770 C   0  0  0  0  0  0  0  0  0  0  0  0
  -30.1420  -12.2875   20.3942 C   0  0  0  0  0  0  0  0  0  0  0  0
  -28.7403  -12.8773   18.5563 C   0  0  0  0  0  0  0  0  0  0  0  0
  -26.0128  -25.0517   23.0941 C   0  0  0  0  0  0  0  0  0  0  0  0
  -24.5459  -19.7220   18.3847 C   0  0  0  0  0  0  0  0  0  0  0  0
  -24.4348  -17.3519   17.5079 C   0  0  0  0  0  0  0  0  0  0  0  0
  -23.8971  -17.7831   19.8741 C   0  0  0  0  0  0  0  0  0  0  0  0
  -28.8907  -13.1023   20.0615 C   0  0  0  0  0  0  0  0  0  0  0  0
  -27.1356  -24.2006   23.6993 C   0  0  1  0  0  0  0  0  0  0  0  0
  -29.8533  -23.7580   21.0819 C   0  0  1  0  0  0  0  0  0  0  0  0
  -24.5829  -19.1589   19.8181 C   0  0  2  0  0  0  0  0  0  0  0  0
  -26.8486  -29.5087   18.1595 C   0  0  0  0  0  0  0  0  0  0  0  0
  -32.0196  -25.6534   19.6655 C   0  0  0  0  0  0  0  0  0  0  0  0
  -31.0359  -27.9485   19.4839 C   0  0  0  0  0  0  0  0  0  0  0  0
  -31.2487  -26.5201   17.4499 C   0  0  0  0  0  0  0  0  0  0  0  0
  -24.5619  -26.5640   18.9181 C   0  0  0  0  0  0  0  0  0  0  0  0
  -26.8964  -14.2446   21.9160 C   0  0  0  0  0  0  0  0  0  0  0  0
  -25.7392  -14.0171   20.9347 C   0  0  0  0  0  0  0  0  0  0  0  0
  -29.5004  -25.9524   19.1857 C   0  0  1  0  0  0  0  0  0  0  0  0
  -26.4708  -28.0400   18.2730 C   0  0  2  0  0  0  0  0  0  0  0  0
  -30.9388  -26.4989   18.9626 C   0  0  0  0  0  0  0  0  0  0  0  0
  -29.0812  -17.2318   21.2397 N   0  0  0  0  0  0  0  0  0  0  0  0
  -22.9856  -20.9373   20.4251 N   0  0  0  0  0  0  0  0  0  0  0  0
  -23.9885  -20.1335   20.8179 N   0  0  0  0  0  0  0  0  0  0  0  0
  -29.6347  -23.5208   19.6493 N   0  0  0  0  0  0  0  0  0  0  0  0
  -24.5060  -16.8736   18.8907 N   0  0  0  0  0  0  0  0  0  0  0  0
  -25.3474  -19.5795   22.6773 N   0  0  0  0  0  0  0  0  0  0  0  0
  -22.6483  -22.8221   24.2887 N   0  0  0  0  0  0  0  0  0  0  0  0
  -28.3298  -24.2874   22.8863 N   0  0  0  0  0  0  0  0  0  0  0  0
  -28.4588  -26.7178   18.5092 N   0  0  0  0  0  0  0  0  0  0  0  0
  -25.1434  -15.2603   20.4983 N   0  0  0  0  0  0  0  0  0  0  0  0
  -25.0720  -27.9523   18.7797 N   0  3  0  0  0  0  0  0  0  0  0  0
  -24.3719  -21.4032   24.8126 O   0  0  0  0  0  0  0  0  0  0  0  0
  -27.7899  -22.6384   21.3333 O   0  0  0  0  0  0  0  0  0  0  0  0
  -28.9920  -24.3083   17.5563 O   0  0  0  0  0  0  0  0  0  0  0  0
  -27.2467  -27.2387   20.4162 O   0  0  0  0  0  0  0  0  0  0  0  0
  -25.5952  -14.9207   18.2763 O   0  0  0  0  0  0  0  0  0  0  0  0
  -18.6651  -25.4993   21.4598 O   0  0  0  0  0  0  0  0  0  0  0  0
  -30.9797  -17.5156   19.9146 O   0  0  0  0  0  0  0  0  0  1  0  0
  -19.7429  -30.3870   23.7734 F   0  0  0  0  0  0  0  0  0  0  0  0
  -19.3369  -25.6849   24.1351 F   0  0  0  0  0  0  0  0  0  0  0  0
  1  2  1  0  0  0  0
  1  5  2  0  0  0  0
  2  6  2  0  0  0  0
  3  8  2  0  0  0  0
  3 17  1  0  0  0  0
  4  9  1  0  0  0  0
  4 17  2  0  0  0  0
  5 19  1  0  0  0  0
  6 21  1  0  0  0  0
  7 10  2  0  0  0  0
  7 20  1  0  0  0  0
  8 25  1  0  0  0  0
  9 25  2  0  0  0  0
 10 26  1  0  0  0  0
 11 12  2  0  0  0  0
 11 27  1  0  0  0  0
 12 28  1  0  0  0  0
 13 22  1  0  0  0  0
 13 26  2  0  0  0  0
 14 23  2  0  0  0  0
 14 31  1  0  0  0  0
 15 28  2  0  0  0  0
 15 29  1  0  0  0  0
 16 24  2  0  0  0  0
 16 65  1  0  0  0  0
 17 30  1  0  0  0  0
 18 30  1  0  0  0  0
 18 32  2  0  0  0  0
 18 33  1  0  0  0  0
 19 21  2  0  0  0  0
 19 38  1  0  0  0  0
 20 22  2  0  0  0  0
 20 39  1  0  0  0  0
 21 52  1  0  0  0  0
 22 40  1  0  0  0  0
 23 24  1  0  0  0  0
 23 51  1  0  0  0  0
 24 60  1  0  0  0  0
 25 81  1  0  0  0  0
 26 82  1  0  0  0  0
 27 29  2  0  0  0  0
 27 81  1  0  0  0  0
 28 83  1  0  0  0  0
 29 84  1  0  0  0  0
 30 66  2  0  0  0  0
 31 65  2  0  0  0  0
 31 82  1  0  0  0  0
 32 67  1  0  0  0  0
 32 70  1  0  0  0  0
 33 71  1  0  0  0  0
 33 76  2  0  0  0  0
 34 53  1  0  0  0  0
 34 72  1  0  0  0  0
 34 77  2  0  0  0  0
 35 62  1  0  0  0  0
 35 68  1  0  0  0  0
 35 78  2  0  0  0  0
 36 63  1  0  0  0  0
 36 73  1  0  0  0  0
 36 79  2  0  0  0  0
 37 69  1  0  0  0  0
 37 74  1  0  0  0  0
 37 80  2  0  0  0  0
 38 41  1  0  0  0  0
 39 53  1  0  0  0  0
 40 68  1  0  0  0  0
 41 47  1  0  0  0  0
 42 43  1  0  0  0  0
 42 45  1  0  0  0  0
 43 46  1  0  0  0  0
 44 48  1  0  0  0  0
 44 49  1  0  0  0  0
 45 51  1  0  0  0  0
 46 51  1  0  0  0  0
 47 52  1  0  0  0  0
 48 54  1  0  0  0  0
 49 69  1  0  0  0  0
 50 54  1  0  0  0  0
 50 69  1  0  0  0  0
 52 72  1  0  0  0  0
 53 68  1  0  0  0  0
 54 67  1  0  0  0  0
 55 63  1  0  0  0  0
 56 64  1  0  0  0  0
 57 64  1  0  0  0  0
 58 64  1  0  0  0  0
 59 75  1  0  0  0  0
 60 61  1  0  0  0  0
 61 74  1  0  0  0  0
 62 64  1  0  0  0  0
 62 73  1  0  0  0  0
 63 75  1  0  0  0  0
 66 67  1  0  0  0  0
M  CHG  1  75   1
M  ISO  4  31 101  37 100  74 100  82 101
M  END
> <Batch ID>
0123

> <Smiles>
CNC(C)C(=O)NC(C(=O)N1Cc2cc([101O:1][101c:1]3cc(C4CCCC4)c(CC[100NH:0][100C:0](=O)N4CCCC(n5nc(-c6ccc(Oc7ccc(F)cc7F)cc6)c(C(N)=O)c5N)C4)cn3)ccc2CC1C(=O)NC1CCCc2ccccc21)C(C)(C)C

> <Shape>
0.207

> <Color>
0.062

> <Negative vol penalty>
0.000

$$$$

  -OEChem-04052320303D

 87 96  0     1  0  0  0  0  0999 V2000
  -27.2676  -33.2019   27.5516 C   0  0  0  0  0  0  0  0  0  0  0  0
  -27.6529  -32.1595   26.7146 C   0  0  0  0  0  0  0  0  0  0  0  0
  -27.6819  -12.9208   18.7634 C   0  0  0  0  0  0  0  0  0  0  0  0
  -28.1242  -13.3195   21.1048 C   0  0  0  0  0  0  0  0  0  0  0  0
  -25.9140  -33.4682   27.7536 C   0  0  0  0  0  0  0  0  0  0  0  0
  -26.6847  -31.3822   26.0800 C   0  0  0  0  0  0  0  0  0  0  0  0
  -27.0490  -28.8774   20.5033 C   0  0  0  0  0  0  0  0  0  0  0  0
  -28.8971  -12.2458   18.6487 C   0  0  0  0  0  0  0  0  0  0  0  0
  -29.3395  -12.6445   20.9902 C   0  0  0  0  0  0  0  0  0  0  0  0
  -27.3744  -27.5923   20.0717 C   0  0  0  0  0  0  0  0  0  0  0  0
  -32.1693  -13.0405   18.3560 C   0  0  0  0  0  0  0  0  0  0  0  0
  -32.9717  -13.3346   17.2536 C   0  0  0  0  0  0  0  0  0  0  0  0
  -25.0285  -27.0399   19.9676 C   0  0  0  0  0  0  0  0  0  0  0  0
  -32.8531  -11.0260   16.5513 C   0  0  0  0  0  0  0  0  0  0  0  0
  -27.2954  -13.4577   19.9915 C   0  0  0  0  0  0  0  0  0  0  0  0
  -24.7886  -13.6031   20.4412 C   0  0  0  0  0  0  0  0  0  0  0  0
  -24.9288  -32.6998   27.1135 C   0  0  0  0  0  0  0  0  0  0  0  0
  -25.7091  -29.2507   20.6811 C   0  0  0  0  0  0  0  0  0  0  0  0
  -25.3167  -31.6376   26.2747 C   0  0  0  0  0  0  0  0  0  0  0  0
  -24.6887  -28.3312   20.3991 C   0  0  0  0  0  0  0  0  0  0  0  0
  -29.7259  -12.1076   19.7621 C   0  0  0  0  0  0  0  0  0  0  0  0
  -26.3641  -26.6724   19.8066 C   0  0  0  0  0  0  0  0  0  0  0  0
  -31.7089  -11.7391   18.5561 C   0  0  0  0  0  0  0  0  0  0  0  0
  -33.3135  -12.3274   16.3512 C   0  0  0  0  0  0  0  0  0  0  0  0
  -32.0507  -10.7318   17.6538 C   0  0  0  0  0  0  0  0  0  0  0  0
  -26.0405  -14.1555   20.1104 C   0  0  0  0  0  0  0  0  0  0  0  0
  -23.9261  -14.6718   20.4230 C   0  0  0  0  0  0  0  0  0  0  0  0
  -24.4369  -12.2453   20.7384 C   0  0  0  0  0  0  0  0  0  0  0  0
  -23.9541  -30.1992   23.1558 C   0  0  0  0  0  0  0  0  0  0  0  0
  -21.6924  -30.6598   20.8766 C   0  0  0  0  0  0  0  0  0  0  0  0
  -20.4939  -29.8646   17.7818 C   0  0  0  0  0  0  0  0  0  0  0  0
  -23.8553  -19.8597   17.6725 C   0  0  0  0  0  0  0  0  0  0  0  0
  -23.4779  -32.9955   27.3998 C   0  0  0  0  0  0  0  0  0  0  0  0
  -25.3738  -30.6492   21.1216 C   0  0  0  0  0  0  0  0  0  0  0  0
  -23.2339  -28.6886   20.5547 C   0  0  0  0  0  0  0  0  0  0  0  0
  -22.5177  -32.3629   26.3957 C   0  0  0  0  0  0  0  0  0  0  0  0
  -23.5529  -20.5837   14.3028 C   0  0  0  0  0  0  0  0  0  0  0  0
  -23.7928  -19.3990   21.1000 C   0  0  0  0  0  0  0  0  0  0  0  0
  -22.8893  -30.9044   26.1476 C   0  0  0  0  0  0  0  0  0  0  0  0
  -24.9999  -20.6674   13.8209 C   0  0  0  0  0  0  0  0  0  0  0  0
  -27.4224  -22.7881   18.4321 C   0  0  0  0  0  0  0  0  0  0  0  0
  -28.9195  -23.9464   16.7519 C   0  0  0  0  0  0  0  0  0  0  0  0
  -24.2382  -17.9481   21.2803 C   0  0  0  0  0  0  0  0  0  0  0  0
  -27.2906  -21.5919   17.4894 C   0  0  0  0  0  0  0  0  0  0  0  0
  -28.7873  -22.7499   15.8099 C   0  0  0  0  0  0  0  0  0  0  0  0
  -23.3711  -19.4311   15.2828 C   0  0  0  0  0  0  0  0  0  0  0  0
  -24.6135  -20.0911   20.0180 C   0  0  0  0  0  0  0  0  0  0  0  0
  -25.7352  -19.5849   15.9928 C   0  0  0  0  0  0  0  0  0  0  0  0
  -25.0177  -17.9434   18.8587 C   0  0  0  0  0  0  0  0  0  0  0  0
  -24.2963  -30.7877   25.5490 C   0  0  1  0  0  0  0  0  0  0  0  0
  -23.9936  -30.7593   21.7621 C   0  0  1  0  0  0  0  0  0  0  0  0
  -27.6917  -24.0895   17.6629 C   0  0  0  0  0  0  0  0  0  0  0  0
  -25.9771  -20.7371   15.0028 C   0  0  1  0  0  0  0  0  0  0  0  0
  -24.2147  -17.1920   19.9399 C   0  0  1  0  0  0  0  0  0  0  0  0
  -28.5196  -21.4677   16.5932 C   0  0  0  0  0  0  0  0  0  0  0  0
  -29.3605  -18.5545   14.3171 C   0  0  0  0  0  0  0  0  0  0  0  0
  -18.6067  -30.3762   16.2089 C   0  0  0  0  0  0  0  0  0  0  0  0
  -19.8262  -28.9250   22.5553 C   0  0  0  0  0  0  0  0  0  0  0  0
  -18.3512  -28.6895   20.5461 C   0  0  0  0  0  0  0  0  0  0  0  0
  -18.7471  -30.9414   21.5434 C   0  0  0  0  0  0  0  0  0  0  0  0
  -22.3425  -30.9037   15.7173 C   0  0  0  0  0  0  0  0  0  0  0  0
  -27.4223  -20.7265   14.5088 C   0  0  0  0  0  0  0  0  0  0  0  0
  -27.8713  -25.2588   18.6292 C   0  0  0  0  0  0  0  0  0  1  0  0
  -29.6232  -19.7719   15.1763 C   0  0  0  0  0  0  0  0  0  0  0  0
  -20.6081  -29.8100   20.2593 C   0  0  1  0  0  0  0  0  0  0  0  0
  -20.0236  -30.7341   16.6297 C   0  0  2  0  0  0  0  0  0  0  0  0
  -19.4105  -29.5838   21.2249 C   0  0  0  0  0  0  0  0  0  0  0  0
  -25.9827  -15.4729   19.8975 N   0  0  0  0  0  0  0  0  0  0  0  0
  -24.6841  -15.7571   20.0949 N   0  0  0  0  0  0  0  0  0  0  0  0
  -22.9572  -30.0663   20.9940 N   0  0  0  0  0  0  0  0  0  0  0  0
  -24.3206  -19.5284   16.3909 N   0  0  0  0  0  0  0  0  0  0  0  0
  -24.5703  -19.3416   18.7626 N   0  0  0  0  0  0  0  0  0  0  0  0
  -22.6007  -14.7797   20.6558 N   0  0  0  0  0  0  0  0  0  0  0  0
  -25.4458  -11.2728   20.7126 N   0  0  0  0  0  0  0  0  0  0  0  0
  -24.2746  -31.1152   24.1395 N   0  0  0  0  0  0  0  0  0  0  0  0
  -20.2482  -30.4571   19.0023 N   0  0  0  0  0  0  0  0  0  0  0  0
  -20.9208  -30.5636   15.4521 N   0  3  0  0  0  0  0  0  0  0  0  0
  -28.3044  -20.3530   15.6329 N   0  3  1  0  0  0  0  0  0  0  0  0
  -23.2597  -11.9018   21.0024 O   0  0  0  0  0  0  0  0  0  0  0  0
  -23.6537  -29.0235   23.3262 O   0  0  0  0  0  0  0  0  0  0  0  0
  -21.4286  -31.8104   21.2348 O   0  0  0  0  0  0  0  0  0  0  0  0
  -21.0229  -28.7677   17.6156 O   0  0  0  0  0  0  0  0  0  0  0  0
  -22.8596  -20.5763   17.8340 O   0  0  0  0  0  0  0  0  0  0  0  0
  -30.9117  -11.4488   19.6507 O   0  0  0  0  0  0  0  0  0  0  0  0
  -26.6818  -25.4055   19.3819 O   0  0  0  0  0  0  0  0  0  1  0  0
  -34.0827  -12.6103   15.2918 F   0  0  0  0  0  0  0  0  0  0  0  0
  -31.6104   -9.4800   17.8401 F   0  0  0  0  0  0  0  0  0  0  0  0
  1  2  1  0  0  0  0
  1  5  2  0  0  0  0
  2  6  2  0  0  0  0
  3  8  2  0  0  0  0
  3 15  1  0  0  0  0
  4  9  1  0  0  0  0
  4 15  2  0  0  0  0
  5 17  1  0  0  0  0
  6 19  1  0  0  0  0
  7 10  2  0  0  0  0
  7 18  1  0  0  0  0
  8 21  1  0  0  0  0
  9 21  2  0  0  0  0
 10 22  1  0  0  0  0
 11 12  2  0  0  0  0
 11 23  1  0  0  0  0
 12 24  1  0  0  0  0
 13 20  1  0  0  0  0
 13 22  2  0  0  0  0
 14 24  2  0  0  0  0
 14 25  1  0  0  0  0
 15 26  1  0  0  0  0
 16 26  1  0  0  0  0
 16 27  2  0  0  0  0
 16 28  1  0  0  0  0
 17 19  2  0  0  0  0
 17 33  1  0  0  0  0
 18 20  2  0  0  0  0
 18 34  1  0  0  0  0
 19 50  1  0  0  0  0
 20 35  1  0  0  0  0
 21 84  1  0  0  0  0
 22 85  1  0  0  0  0
 23 25  2  0  0  0  0
 23 84  1  0  0  0  0
 24 86  1  0  0  0  0
 25 87  1  0  0  0  0
 26 68  2  0  0  0  0
 27 69  1  0  0  0  0
 27 73  1  0  0  0  0
 28 74  1  0  0  0  0
 28 79  2  0  0  0  0
 29 51  1  0  0  0  0
 29 75  1  0  0  0  0
 29 80  2  0  0  0  0
 30 65  1  0  0  0  0
 30 70  1  0  0  0  0
 30 81  2  0  0  0  0
 31 66  1  0  0  0  0
 31 76  1  0  0  0  0
 31 82  2  0  0  0  0
 32 71  1  0  0  0  0
 32 72  1  0  0  0  0
 32 83  2  0  0  0  0
 33 36  1  0  0  0  0
 34 51  1  0  0  0  0
 35 70  1  0  0  0  0
 36 39  1  0  0  0  0
 37 40  1  0  0  0  0
 37 46  1  0  0  0  0
 38 43  1  0  0  0  0
 38 47  1  0  0  0  0
 39 50  1  0  0  0  0
 40 53  1  0  0  0  0
 41 44  1  0  0  0  0
 41 52  1  0  0  0  0
 42 45  1  0  0  0  0
 42 52  1  0  0  0  0
 43 54  1  0  0  0  0
 44 55  1  0  0  0  0
 45 55  1  0  0  0  0
 46 71  1  0  0  0  0
 47 72  1  0  0  0  0
 48 53  1  0  0  0  0
 48 71  1  0  0  0  0
 49 54  1  0  0  0  0
 49 72  1  0  0  0  0
 50 75  1  0  0  0  0
 51 70  1  0  0  0  0
 52 63  1  0  0  0  0
 53 62  1  0  0  0  0
 54 69  1  0  0  0  0
 55 78  1  0  0  0  0
 56 64  1  0  0  0  0
 57 66  1  0  0  0  0
 58 67  1  0  0  0  0
 59 67  1  0  0  0  0
 60 67  1  0  0  0  0
 61 77  1  0  0  0  0
 62 78  1  0  0  0  0
 63 85  1  0  0  0  0
 64 78  1  0  0  0  0
 65 67  1  0  0  0  0
 65 76  1  0  0  0  0
 66 77  1  0  0  0  0
 68 69  1  0  0  0  0
M  CHG  2  77   1  78   1
M  ISO  4  32 100  63 101  71 100  85 101
M  END
> <Batch ID>
0123

> <Smiles>
CCN(CC1CCC[100N:0]([100C:0](=O)N2CCCC(n3nc(-c4ccc(Oc5ccc(F)cc5F)cc4)c(C(N)=O)c3N)C2)C1)C1CCC([101CH2:1][101O:1]c2ccc3c(c2)CN(C(=O)C(NC(=O)C(C)NC)C(C)(C)C)C(C(=O)NC2CCCc4ccccc42)C3)CC1

> <Shape>
0.221

> <Color>
0.090

> <Negative vol penalty>
0.000

$$$$

  -OEChem-04052320303D

 84 92  0     1  0  0  0  0  0999 V2000
  -17.7637  -32.4037   23.7456 C   0  0  0  0  0  0  0  0  0  0  0  0
  -18.9936  -32.6991   23.1663 C   0  0  0  0  0  0  0  0  0  0  0  0
  -24.0849  -14.4187   18.7871 C   0  0  0  0  0  0  0  0  0  0  0  0
  -25.1265  -13.8955   20.9033 C   0  0  0  0  0  0  0  0  0  0  0  0
  -17.5774  -31.1873   24.4010 C   0  0  0  0  0  0  0  0  0  0  0  0
  -20.0383  -31.7787   23.2432 C   0  0  0  0  0  0  0  0  0  0  0  0
  -25.6957  -29.4317   19.5281 C   0  0  0  0  0  0  0  0  0  0  0  0
  -23.8838  -13.0590   18.5499 C   0  0  0  0  0  0  0  0  0  0  0  0
  -24.9254  -12.5357   20.6661 C   0  0  0  0  0  0  0  0  0  0  0  0
  -27.0645  -29.2114   19.6750 C   0  0  0  0  0  0  0  0  0  0  0  0
  -24.3620   -8.9458   20.7825 C   0  0  0  0  0  0  0  0  0  0  0  0
  -23.8684   -8.1699   21.8312 C   0  0  0  0  0  0  0  0  0  0  0  0
  -26.6031  -27.1089   20.7639 C   0  0  0  0  0  0  0  0  0  0  0  0
  -30.6768  -25.5444   21.0749 C   0  0  0  0  0  0  0  0  0  0  0  0
  -21.8838   -9.5453   21.9148 C   0  0  0  0  0  0  0  0  0  0  0  0
  -30.6057  -24.4764   23.0559 C   0  0  0  0  0  0  0  0  0  0  0  0
  -24.7063  -14.8370   19.9638 C   0  0  0  0  0  0  0  0  0  0  0  0
  -24.0383  -17.1299   20.8605 C   0  0  0  0  0  0  0  0  0  0  0  0
  -18.6173  -30.2475   24.4776 C   0  0  0  0  0  0  0  0  0  0  0  0
  -24.7685  -28.4958   20.0086 C   0  0  0  0  0  0  0  0  0  0  0  0
  -19.8661  -30.5492   23.9015 C   0  0  0  0  0  0  0  0  0  0  0  0
  -25.2231  -27.3185   20.6196 C   0  0  0  0  0  0  0  0  0  0  0  0
  -31.0687  -24.3696   21.7630 C   0  0  0  0  0  0  0  0  0  0  0  0
  -24.3040  -12.1175   19.4893 C   0  0  0  0  0  0  0  0  0  0  0  0
  -27.5184  -28.0512   20.2955 C   0  0  0  0  0  0  0  0  0  0  0  0
  -23.6167  -10.0216   20.3000 C   0  0  0  0  0  0  0  0  0  0  0  0
  -22.6293   -8.4696   22.3973 C   0  0  0  0  0  0  0  0  0  0  0  0
  -22.3776  -10.3213   20.8661 C   0  0  0  0  0  0  0  0  0  0  0  0
  -24.9148  -16.2414   20.2092 C   0  0  0  0  0  0  0  0  0  0  0  0
  -29.9864  -26.3334   21.9683 C   0  0  0  0  0  0  0  0  0  0  0  0
  -24.6933  -18.3369   20.8375 C   0  0  0  0  0  0  0  0  0  0  0  0
  -22.7475  -16.8859   21.4350 C   0  0  0  0  0  0  0  0  0  0  0  0
  -22.4548  -28.5457   22.1876 C   0  0  0  0  0  0  0  0  0  0  0  0
  -21.8473  -25.5715   21.0442 C   0  0  0  0  0  0  0  0  0  0  0  0
  -23.0086  -22.7892   19.4451 C   0  0  0  0  0  0  0  0  0  0  0  0
  -30.4327  -19.6930   20.5625 C   0  0  0  0  0  0  0  0  0  0  0  0
  -18.3831  -28.9659   25.2375 C   0  0  0  0  0  0  0  0  0  0  0  0
  -23.2959  -28.7358   19.8185 C   0  0  0  0  0  0  0  0  0  0  0  0
  -24.2692  -26.2729   21.1345 C   0  0  0  0  0  0  0  0  0  0  0  0
  -19.4252  -27.8882   24.9500 C   0  0  0  0  0  0  0  0  0  0  0  0
  -27.8738  -20.8233   18.2665 C   0  0  0  0  0  0  0  0  0  0  0  0
  -20.8314  -28.4768   25.0057 C   0  0  0  0  0  0  0  0  0  0  0  0
  -26.7360  -19.8484   18.5752 C   0  0  0  0  0  0  0  0  0  0  0  0
  -29.2308  -20.1290   18.3359 C   0  0  0  0  0  0  0  0  0  0  0  0
  -28.3703  -18.4676   19.9400 C   0  0  0  0  0  0  0  0  0  0  0  0
  -21.0159  -29.5661   23.9423 C   0  0  1  0  0  0  0  0  0  0  0  0
  -22.4314  -27.9571   20.8053 C   0  0  1  0  0  0  0  0  0  0  0  0
  -26.9735  -19.1141   19.9081 C   0  0  2  0  0  0  0  0  0  0  0  0
  -30.3183  -28.8285   22.0546 C   0  0  0  0  0  0  0  0  0  0  0  0
  -22.2893  -20.5068   18.6898 C   0  0  0  0  0  0  0  0  0  0  0  0
  -30.3335  -26.3682   25.5058 C   0  0  0  0  0  0  0  0  0  0  0  0
  -28.1692  -25.2473   24.8234 C   0  0  0  0  0  0  0  0  0  0  0  0
  -22.0328  -24.5645   23.9185 C   0  0  0  0  0  0  0  0  0  0  0  0
  -22.2596  -22.2403   23.0160 C   0  0  0  0  0  0  0  0  0  0  0  0
  -20.1831  -23.5504   22.5752 C   0  0  0  0  0  0  0  0  0  0  0  0
  -23.5323  -23.4368   16.6051 C   0  0  0  0  0  0  0  0  0  0  0  0
  -32.1525  -22.1346   21.9985 C   0  0  0  0  0  0  0  0  0  0  0  0
  -32.4881  -20.9957   21.0477 C   0  0  0  0  0  0  0  0  0  0  0  0
  -29.3474  -27.6891   21.7718 C   0  0  1  0  0  0  0  0  0  1  0  0
  -22.3217  -24.1787   21.3821 C   0  0  1  0  0  0  0  0  0  0  0  0
  -22.4344  -21.9704   18.3030 C   0  0  2  0  0  0  0  0  0  0  0  0
  -29.3199  -26.1528   24.3803 C   0  0  0  0  0  0  0  0  0  0  0  0
  -21.7175  -23.6539   22.7151 C   0  0  0  0  0  0  0  0  0  0  0  0
  -26.0407  -16.8335   19.8020 N   0  0  0  0  0  0  0  0  0  0  0  0
  -29.9496  -25.6743   23.1693 N   0  0  0  0  0  0  0  0  0  0  0  0
  -25.8761  -18.1071   20.1984 N   0  0  0  0  0  0  0  0  0  0  0  0
  -22.8389  -26.5562   20.9308 N   0  0  0  0  0  0  0  0  0  0  0  0
  -29.4014  -19.4656   19.6363 N   0  0  0  0  0  0  0  0  0  0  0  0
  -24.3671  -19.5619   21.3017 N   0  0  0  0  0  0  0  0  0  0  0  0
  -22.2225  -15.5880   21.3717 N   0  0  0  0  0  0  0  0  0  0  0  0
  -31.7662  -23.3339   21.2523 N   0  0  0  0  0  0  0  0  0  0  0  0
  -21.2200  -28.9708   22.6391 N   0  0  0  0  0  0  0  0  0  0  0  0
  -22.0162  -23.3505   20.2206 N   0  0  0  0  0  0  0  0  0  0  0  0
  -31.3724  -20.6486   20.1958 N   0  0  0  0  0  0  0  0  0  0  0  0
  -23.3209  -22.0551   17.1081 N   0  3  0  0  0  0  0  0  0  0  0  0
  -22.0724  -17.7956   21.9736 O   0  0  0  0  0  0  0  0  0  0  0  0
  -23.5145  -28.6080   22.7998 O   0  0  0  0  0  0  0  0  0  0  0  0
  -20.6421  -25.7766   20.8798 O   0  0  0  0  0  0  0  0  0  0  0  0
  -24.2167  -22.9151   19.6328 O   0  0  0  0  0  0  0  0  0  0  0  0
  -30.5078  -19.0923   21.6399 O   0  0  0  0  0  0  0  0  0  0  0  0
  -24.1078  -10.7906   19.2583 O   0  0  0  0  0  0  0  0  0  0  0  0
  -28.8539  -27.8340   20.4407 O   0  0  0  0  0  0  0  0  0  1  0  0
  -22.1546   -7.7234   23.4033 F   0  0  0  0  0  0  0  0  0  0  0  0
  -21.6564  -11.3528   20.4060 F   0  0  0  0  0  0  0  0  0  0  0  0
  1  2  1  0  0  0  0
  1  5  2  0  0  0  0
  2  6  2  0  0  0  0
  3  8  2  0  0  0  0
  3 17  1  0  0  0  0
  4  9  1  0  0  0  0
  4 17  2  0  0  0  0
  5 19  1  0  0  0  0
  6 21  1  0  0  0  0
  7 10  2  0  0  0  0
  7 20  1  0  0  0  0
  8 24  1  0  0  0  0
  9 24  2  0  0  0  0
 10 25  1  0  0  0  0
 11 12  2  0  0  0  0
 11 26  1  0  0  0  0
 12 27  1  0  0  0  0
 13 22  1  0  0  0  0
 13 25  2  0  0  0  0
 14 23  1  0  0  0  0
 14 30  2  0  0  0  0
 15 27  2  0  0  0  0
 15 28  1  0  0  0  0
 16 23  2  0  0  0  0
 16 65  1  0  0  0  0
 17 29  1  0  0  0  0
 18 29  1  0  0  0  0
 18 31  2  0  0  0  0
 18 32  1  0  0  0  0
 19 21  2  0  0  0  0
 19 37  1  0  0  0  0
 20 22  2  0  0  0  0
 20 38  1  0  0  0  0
 21 46  1  0  0  0  0
 22 39  1  0  0  0  0
 23 71  1  0  0  0  0
 24 81  1  0  0  0  0
 25 82  1  0  0  0  0
 26 28  2  0  0  0  0
 26 81  1  0  0  0  0
 27 83  1  0  0  0  0
 28 84  1  0  0  0  0
 29 64  2  0  0  0  0
 30 59  1  0  0  0  0
 30 65  1  0  0  0  0
 31 66  1  0  0  0  0
 31 69  1  0  0  0  0
 32 70  1  0  0  0  0
 32 76  2  0  0  0  0
 33 47  1  0  0  0  0
 33 72  1  0  0  0  0
 33 77  2  0  0  0  0
 34 60  1  0  0  0  0
 34 67  1  0  0  0  0
 34 78  2  0  0  0  0
 35 61  1  0  0  0  0
 35 73  1  0  0  0  0
 35 79  2  0  0  0  0
 36 68  1  0  0  0  0
 36 74  1  0  0  0  0
 36 80  2  0  0  0  0
 37 40  1  0  0  0  0
 38 47  1  0  0  0  0
 39 67  1  0  0  0  0
 40 42  1  0  0  0  0
 41 43  1  0  0  0  0
 41 44  1  0  0  0  0
 42 46  1  0  0  0  0
 43 48  1  0  0  0  0
 44 68  1  0  0  0  0
 45 48  1  0  0  0  0
 45 68  1  0  0  0  0
 46 72  1  0  0  0  0
 47 67  1  0  0  0  0
 48 66  1  0  0  0  0
 49 59  1  0  0  0  0
 50 61  1  0  0  0  0
 51 62  1  0  0  0  0
 52 62  1  0  0  0  0
 53 63  1  0  0  0  0
 54 63  1  0  0  0  0
 55 63  1  0  0  0  0
 56 75  1  0  0  0  0
 57 58  1  0  0  0  0
 57 71  1  0  0  0  0
 58 74  1  0  0  0  0
 59 82  1  0  0  0  0
 60 63  1  0  0  0  0
 60 73  1  0  0  0  0
 61 75  1  0  0  0  0
 62 65  1  0  0  0  0
 64 66  1  0  0  0  0
M  CHG  1  75   1
M  ISO  4  36 100  59 101  74 100  82 101
M  END
> <Batch ID>
0123

> <Smiles>
CNC(C)C(=O)NC(C(=O)N1Cc2cc([101O:1][101CH:1](C)c3cc(NCC[100NH:0][100C:0](=O)N4CCCC(n5nc(-c6ccc(Oc7ccc(F)cc7F)cc6)c(C(N)=O)c5N)C4)cn3C(C)C)ccc2CC1C(=O)NC1CCCc2ccccc21)C(C)(C)C

> <Shape>
0.199

> <Color>
0.074

> <Negative vol penalty>
0.000

$$$$

  -OEChem-04052320303D

 83 92  0     1  0  0  0  0  0999 V2000
  -17.0314  -29.6709   24.0836 C   0  0  0  0  0  0  0  0  0  0  0  0
  -17.7227  -28.5424   24.5128 C   0  0  0  0  0  0  0  0  0  0  0  0
  -23.1905   -9.8174   21.1651 C   0  0  0  0  0  0  0  0  0  0  0  0
  -23.9053  -10.5801   23.3433 C   0  0  0  0  0  0  0  0  0  0  0  0
  -17.4212  -30.3231   22.9146 C   0  0  0  0  0  0  0  0  0  0  0  0
  -18.8035  -28.0649   23.7724 C   0  0  0  0  0  0  0  0  0  0  0  0
  -25.1207  -24.7885   24.5938 C   0  0  0  0  0  0  0  0  0  0  0  0
  -22.5034   -8.7598   21.7609 C   0  0  0  0  0  0  0  0  0  0  0  0
  -23.2182   -9.5225   23.9391 C   0  0  0  0  0  0  0  0  0  0  0  0
  -25.8315  -23.6857   24.1221 C   0  0  0  0  0  0  0  0  0  0  0  0
  -23.2432   -5.7340   23.0730 C   0  0  0  0  0  0  0  0  0  0  0  0
  -23.3817   -4.4688   22.5023 C   0  0  0  0  0  0  0  0  0  0  0  0
  -28.3550  -18.8023   20.9156 C   0  0  0  0  0  0  0  0  0  0  0  0
  -26.4645  -24.9400   22.1612 C   0  0  0  0  0  0  0  0  0  0  0  0
  -20.9989   -4.3838   22.1124 C   0  0  0  0  0  0  0  0  0  0  0  0
  -30.0101  -19.2913   22.5521 C   0  0  0  0  0  0  0  0  0  0  0  0
  -23.8915  -10.7276   21.9563 C   0  0  0  0  0  0  0  0  0  0  0  0
  -24.1027  -13.1049   21.0555 C   0  0  0  0  0  0  0  0  0  0  0  0
  -18.5134  -29.8590   22.1648 C   0  0  0  0  0  0  0  0  0  0  0  0
  -25.0675  -25.9737   23.8463 C   0  0  0  0  0  0  0  0  0  0  0  0
  -19.2075  -28.7107   22.5916 C   0  0  0  0  0  0  0  0  0  0  0  0
  -27.5422  -19.7722   21.4919 C   0  0  0  0  0  0  0  0  0  0  0  0
  -25.7546  -26.0573   22.6268 C   0  0  0  0  0  0  0  0  0  0  0  0
  -29.6139  -18.5512   21.4498 C   0  0  0  0  0  0  0  0  0  0  0  0
  -22.5173   -8.6123   23.1479 C   0  0  0  0  0  0  0  0  0  0  0  0
  -26.5011  -23.7604   22.9043 C   0  0  0  0  0  0  0  0  0  0  0  0
  -21.9825   -6.3241   23.1635 C   0  0  0  0  0  0  0  0  0  0  0  0
  -22.2596   -3.7937   22.0220 C   0  0  0  0  0  0  0  0  0  0  0  0
  -20.8604   -5.6490   22.6831 C   0  0  0  0  0  0  0  0  0  0  0  0
  -24.6019  -11.8200   21.3414 C   0  0  0  0  0  0  0  0  0  0  0  0
  -28.0311  -20.4575   22.5924 C   0  0  0  0  0  0  0  0  0  0  0  0
  -25.1608  -13.7637   20.4785 C   0  0  0  0  0  0  0  0  0  0  0  0
  -22.7993  -13.6538   21.2905 C   0  0  0  0  0  0  0  0  0  0  0  0
  -22.7472  -27.6573   22.4731 C   0  0  0  0  0  0  0  0  0  0  0  0
  -25.1471  -29.7623   21.8974 C   0  0  0  0  0  0  0  0  0  0  0  0
  -28.4934  -30.3036   21.5020 C   0  0  0  0  0  0  0  0  0  0  0  0
  -30.5791  -15.0945   20.3491 C   0  0  0  0  0  0  0  0  0  0  0  0
  -18.8681  -30.5694   20.8825 C   0  0  0  0  0  0  0  0  0  0  0  0
  -24.3186  -27.1632   24.3817 C   0  0  0  0  0  0  0  0  0  0  0  0
  -25.7454  -27.3134   21.7959 C   0  0  0  0  0  0  0  0  0  0  0  0
  -20.2577  -30.2194   20.3565 C   0  0  0  0  0  0  0  0  0  0  0  0
  -24.1419  -19.3802   20.3802 C   0  0  0  0  0  0  0  0  0  0  0  0
  -29.6135  -12.0261   18.8228 C   0  0  0  0  0  0  0  0  0  0  0  0
  -25.5406  -19.1177   19.7905 C   0  0  0  0  0  0  0  0  0  0  0  0
  -24.8467  -19.6711   21.7191 C   0  0  0  0  0  0  0  0  0  0  0  0
  -20.4781  -28.7105   20.3936 C   0  0  0  0  0  0  0  0  0  0  0  0
  -28.1854  -11.8021   19.3233 C   0  0  0  0  0  0  0  0  0  0  0  0
  -30.4948  -12.6605   19.8966 C   0  0  0  0  0  0  0  0  0  0  0  0
  -28.5314  -13.6797   20.9829 C   0  0  0  0  0  0  0  0  0  0  0  0
  -26.1066  -20.0658   20.8906 C   0  0  0  0  0  0  0  0  0  0  0  0
  -20.4006  -28.1767   21.8291 C   0  0  1  0  0  0  0  0  0  0  0  0
  -23.9062  -28.1492   23.2930 C   0  0  1  0  0  0  0  0  0  0  0  0
  -27.5903  -13.0932   19.9167 C   0  0  2  0  0  0  0  0  0  0  0  0
  -30.1492  -32.1218   21.0024 C   0  0  0  0  0  0  0  0  0  0  0  0
  -24.3398  -29.6860   18.9559 C   0  0  0  0  0  0  0  0  0  0  0  0
  -26.5483  -30.7235   18.3949 C   0  0  0  0  0  0  0  0  0  0  0  0
  -24.9173  -31.9605   19.8205 C   0  0  0  0  0  0  0  0  0  0  0  0
  -29.8610  -29.9314   24.1000 C   0  0  0  0  0  0  0  0  0  0  0  0
  -30.5087  -17.5234   20.8539 C   0  0  0  0  0  0  0  0  0  0  0  0
  -27.1948  -21.5127   23.2546 C   0  0  0  0  0  0  0  0  0  1  0  0
  -26.1430  -29.9692   20.7819 C   0  0  1  0  0  0  0  0  0  0  0  0
  -29.4211  -31.3503   22.0921 C   0  0  2  0  0  0  0  0  0  0  0  0
  -25.4859  -30.5603   19.5028 C   0  0  0  0  0  0  0  0  0  0  0  0
  -29.2484  -20.2414   23.1393 N   0  0  0  0  0  0  0  0  0  0  0  0
  -25.8777  -11.6693   20.9760 N   0  0  0  0  0  0  0  0  0  0  0  0
  -26.1892  -12.8681   20.4545 N   0  0  0  0  0  0  0  0  0  0  0  0
  -24.9939  -28.4473   22.3590 N   0  0  0  0  0  0  0  0  0  0  0  0
  -29.8744  -13.8813   20.4167 N   0  0  0  0  0  0  0  0  0  0  0  0
  -25.3025  -15.0158   19.9943 N   0  0  0  0  0  0  0  0  0  0  0  0
  -21.8301  -12.8399   21.8928 N   0  0  0  0  0  0  0  0  0  0  0  0
  -21.6270  -28.4636   22.5419 N   0  0  0  0  0  0  0  0  0  0  0  0
  -27.2136  -30.7899   21.3375 N   0  0  0  0  0  0  0  0  0  0  0  0
  -29.9162  -16.2044   20.8585 N   0  0  0  0  0  0  0  0  0  0  0  0
  -30.4375  -30.7054   22.9706 N   0  3  0  0  0  0  0  0  0  0  0  0
  -22.4978  -14.8260   20.9609 O   0  0  0  0  0  0  0  0  0  0  0  0
  -22.8611  -26.6236   21.8249 O   0  0  0  0  0  0  0  0  0  0  0  0
  -24.5331  -30.7328   22.3476 O   0  0  0  0  0  0  0  0  0  0  0  0
  -28.8675  -29.1693   21.2122 O   0  0  0  0  0  0  0  0  0  0  0  0
  -31.7127  -15.1831   19.8653 O   0  0  0  0  0  0  0  0  0  0  0  0
  -21.8468   -7.5806   23.7296 O   0  0  0  0  0  0  0  0  0  0  0  0
  -27.1951  -22.6852   22.4413 O   0  0  0  0  0  0  0  0  0  1  0  0
  -22.3929   -2.5794   21.4726 F   0  0  0  0  0  0  0  0  0  0  0  0
  -19.6468   -6.2113   22.7662 F   0  0  0  0  0  0  0  0  0  0  0  0
  1  2  1  0  0  0  0
  1  5  2  0  0  0  0
  2  6  2  0  0  0  0
  3  8  2  0  0  0  0
  3 17  1  0  0  0  0
  4  9  1  0  0  0  0
  4 17  2  0  0  0  0
  5 19  1  0  0  0  0
  6 21  1  0  0  0  0
  7 10  2  0  0  0  0
  7 20  1  0  0  0  0
  8 25  1  0  0  0  0
  9 25  2  0  0  0  0
 10 26  1  0  0  0  0
 11 12  2  0  0  0  0
 11 27  1  0  0  0  0
 12 28  1  0  0  0  0
 13 22  1  0  0  0  0
 13 24  2  0  0  0  0
 14 23  1  0  0  0  0
 14 26  2  0  0  0  0
 15 28  2  0  0  0  0
 15 29  1  0  0  0  0
 16 24  1  0  0  0  0
 16 64  2  0  0  0  0
 17 30  1  0  0  0  0
 18 30  1  0  0  0  0
 18 32  2  0  0  0  0
 18 33  1  0  0  0  0
 19 21  2  0  0  0  0
 19 38  1  0  0  0  0
 20 23  2  0  0  0  0
 20 39  1  0  0  0  0
 21 51  1  0  0  0  0
 22 31  2  0  0  0  0
 22 50  1  0  0  0  0
 23 40  1  0  0  0  0
 24 59  1  0  0  0  0
 25 80  1  0  0  0  0
 26 81  1  0  0  0  0
 27 29  2  0  0  0  0
 27 80  1  0  0  0  0
 28 82  1  0  0  0  0
 29 83  1  0  0  0  0
 30 65  2  0  0  0  0
 31 60  1  0  0  0  0
 31 64  1  0  0  0  0
 32 66  1  0  0  0  0
 32 69  1  0  0  0  0
 33 70  1  0  0  0  0
 33 75  2  0  0  0  0
 34 52  1  0  0  0  0
 34 71  1  0  0  0  0
 34 76  2  0  0  0  0
 35 61  1  0  0  0  0
 35 67  1  0  0  0  0
 35 77  2  0  0  0  0
 36 62  1  0  0  0  0
 36 72  1  0  0  0  0
 36 78  2  0  0  0  0
 37 68  1  0  0  0  0
 37 73  1  0  0  0  0
 37 79  2  0  0  0  0
 38 41  1  0  0  0  0
 39 52  1  0  0  0  0
 40 67  1  0  0  0  0
 41 46  1  0  0  0  0
 42 44  1  0  0  0  0
 42 45  1  0  0  0  0
 43 47  1  0  0  0  0
 43 48  1  0  0  0  0
 44 50  1  0  0  0  0
 45 50  1  0  0  0  0
 46 51  1  0  0  0  0
 47 53  1  0  0  0  0
 48 68  1  0  0  0  0
 49 53  1  0  0  0  0
 49 68  1  0  0  0  0
 51 71  1  0  0  0  0
 52 67  1  0  0  0  0
 53 66  1  0  0  0  0
 54 62  1  0  0  0  0
 55 63  1  0  0  0  0
 56 63  1  0  0  0  0
 57 63  1  0  0  0  0
 58 74  1  0  0  0  0
 59 73  1  0  0  0  0
 60 81  1  0  0  0  0
 61 63  1  0  0  0  0
 61 72  1  0  0  0  0
 62 74  1  0  0  0  0
 65 66  1  0  0  0  0
M  CHG  1  74   1
M  ISO  4  37 100  60 101  73 100  81 101
M  END
> <Batch ID>
0123

> <Smiles>
CNC(C)C(=O)NC(C(=O)N1Cc2cc([101O:1][101CH2:1]c3ncc(C[100NH:0][100C:0](=O)N4CCCC(n5nc(-c6ccc(Oc7ccc(F)cc7F)cc6)c(C(N)=O)c5N)C4)cc3C3CCC3)ccc2CC1C(=O)NC1CCCc2ccccc21)C(C)(C)C

> <Shape>
0.276

> <Color>
0.181

> <Negative vol penalty>
0.000

$$$$

  -OEChem-04052320303D

 84 93  0     1  0  0  0  0  0999 V2000
  -29.9960  -35.9425   24.0243 C   0  0  0  0  0  0  0  0  0  0  0  0
  -30.0346  -34.6499   23.5114 C   0  0  0  0  0  0  0  0  0  0  0  0
  -22.8962  -10.0230   20.5220 C   0  0  0  0  0  0  0  0  0  0  0  0
  -24.6287   -8.5684   21.3704 C   0  0  0  0  0  0  0  0  0  0  0  0
  -28.8694  -36.3828   24.7177 C   0  0  0  0  0  0  0  0  0  0  0  0
  -28.9469  -33.7963   23.6927 C   0  0  0  0  0  0  0  0  0  0  0  0
  -26.4972  -21.9018   18.9335 C   0  0  0  0  0  0  0  0  0  0  0  0
  -28.5691  -21.9112   20.1761 C   0  0  0  0  0  0  0  0  0  0  0  0
  -26.9085  -29.5485   19.7803 C   0  0  0  0  0  0  0  0  0  0  0  0
  -26.4922  -23.2966   18.9313 C   0  0  0  0  0  0  0  0  0  0  0  0
  -28.5641  -23.3060   20.1739 C   0  0  0  0  0  0  0  0  0  0  0  0
  -21.9959   -9.4881   21.4433 C   0  0  0  0  0  0  0  0  0  0  0  0
  -23.7283   -8.0334   22.2917 C   0  0  0  0  0  0  0  0  0  0  0  0
  -27.0987  -28.1691   19.7106 C   0  0  0  0  0  0  0  0  0  0  0  0
  -21.2100   -5.7775   22.2926 C   0  0  0  0  0  0  0  0  0  0  0  0
  -21.1871   -4.3914   22.4465 C   0  0  0  0  0  0  0  0  0  0  0  0
  -25.0168  -27.8291   20.8809 C   0  0  0  0  0  0  0  0  0  0  0  0
  -21.7679   -4.6406   24.7784 C   0  0  0  0  0  0  0  0  0  0  0  0
  -24.2126   -9.5631   20.4855 C   0  0  0  0  0  0  0  0  0  0  0  0
  -25.0341  -10.0975   18.1303 C   0  0  0  0  0  0  0  0  0  0  0  0
  -27.5356  -21.2091   19.5560 C   0  0  0  0  0  0  0  0  0  0  0  0
  -27.7635  -35.5374   24.8992 C   0  0  0  0  0  0  0  0  0  0  0  0
  -25.7746  -30.0797   20.4115 C   0  0  0  0  0  0  0  0  0  0  0  0
  -27.8050  -34.2252   24.3904 C   0  0  0  0  0  0  0  0  0  0  0  0
  -24.8134  -29.2155   20.9550 C   0  0  0  0  0  0  0  0  0  0  0  0
  -27.5256  -23.9988   19.5515 C   0  0  0  0  0  0  0  0  0  0  0  0
  -22.4119   -8.4933   22.3281 C   0  0  0  0  0  0  0  0  0  0  0  0
  -26.1542  -27.3092   20.2635 C   0  0  0  0  0  0  0  0  0  0  0  0
  -21.5120   -6.5952   23.3816 C   0  0  0  0  0  0  0  0  0  0  0  0
  -21.4660   -3.8229   23.6894 C   0  0  0  0  0  0  0  0  0  0  0  0
  -21.7909   -6.0268   24.6245 C   0  0  0  0  0  0  0  0  0  0  0  0
  -25.1430  -10.1149   19.5337 C   0  0  0  0  0  0  0  0  0  0  0  0
  -26.1628  -10.7448   17.6903 C   0  0  0  0  0  0  0  0  0  0  0  0
  -24.0047   -9.5457   17.2987 C   0  0  0  0  0  0  0  0  0  0  0  0
  -25.2811  -31.9565   22.9290 C   0  0  0  0  0  0  0  0  0  0  0  0
  -22.1982  -31.8315   21.9277 C   0  0  0  0  0  0  0  0  0  0  0  0
  -19.7807  -30.1593   20.1940 C   0  0  0  0  0  0  0  0  0  0  0  0
  -29.7708  -14.8115   20.1995 C   0  0  0  0  0  0  0  0  0  0  0  0
  -26.5870  -36.0421   25.6966 C   0  0  0  0  0  0  0  0  0  0  0  0
  -25.5709  -31.5694   20.4547 C   0  0  0  0  0  0  0  0  0  0  0  0
  -23.5688  -29.7349   21.6256 C   0  0  0  0  0  0  0  0  0  0  0  0
  -25.3259  -35.2001   25.5211 C   0  0  0  0  0  0  0  0  0  0  0  0
  -30.7010  -11.6185   18.9281 C   0  0  0  0  0  0  0  0  0  0  0  0
  -27.4571  -19.1211   20.9851 C   0  0  0  0  0  0  0  0  0  0  0  0
  -28.7599  -19.1224   18.8108 C   0  0  0  0  0  0  0  0  0  0  0  0
  -25.6546  -33.7153   25.6400 C   0  0  0  0  0  0  0  0  0  0  0  0
  -29.3722  -10.8695   18.8125 C   0  0  0  0  0  0  0  0  0  0  0  0
  -27.4496  -17.5921   20.9765 C   0  0  0  0  0  0  0  0  0  0  0  0
  -28.7508  -17.5934   18.8073 C   0  0  0  0  0  0  0  0  0  0  0  0
  -30.7311  -12.5285   20.1541 C   0  0  0  0  0  0  0  0  0  0  0  0
  -28.2745  -12.7249   20.1359 C   0  0  0  0  0  0  0  0  0  0  0  0
  -27.5418  -19.6912   19.5588 C   0  0  0  0  0  0  0  0  0  0  0  0
  -26.6351  -33.2779   24.5450 C   0  0  1  0  0  0  0  0  0  0  0  0
  -24.6338  -32.0121   21.5742 C   0  0  1  0  0  0  0  0  0  0  0  0
  -28.1753  -11.8368   18.8839 C   0  0  2  0  0  0  0  0  0  0  0  0
  -28.6608  -17.0310   20.2276 C   0  0  0  0  0  0  0  0  0  0  0  0
  -17.3491  -30.2844   19.5863 C   0  0  0  0  0  0  0  0  0  0  0  0
  -21.4501  -30.9351   24.7467 C   0  0  0  0  0  0  0  0  0  0  0  0
  -19.2417  -30.1760   23.8441 C   0  0  0  0  0  0  0  0  0  0  0  0
  -19.8742  -32.5860   23.7243 C   0  0  0  0  0  0  0  0  0  0  0  0
  -20.3905  -30.2757   17.3003 C   0  0  0  0  0  0  0  0  0  0  0  0
  -27.5204  -25.4992   19.5472 C   0  0  0  0  0  0  0  0  0  1  0  0
  -21.0214  -30.9263   22.2007 C   0  0  1  0  0  0  0  0  0  0  0  0
  -18.7687  -30.6323   19.1661 C   0  0  2  0  0  0  0  0  0  0  0  0
  -20.4211  -31.1458   23.6181 C   0  0  0  0  0  0  0  0  0  0  0  0
  -26.2533  -10.7248   19.9572 N   0  0  0  0  0  0  0  0  0  0  0  0
  -26.8524  -11.0966   18.8131 N   0  0  0  0  0  0  0  0  0  0  0  0
  -23.4181  -31.1992   21.6482 N   0  0  0  0  0  0  0  0  0  0  0  0
  -29.5701  -13.4217   20.1609 N   0  0  0  0  0  0  0  0  0  0  0  0
  -26.6227  -11.0417   16.4562 N   0  0  0  0  0  0  0  0  0  0  0  0
  -22.9150   -8.9149   17.9143 N   0  0  0  0  0  0  0  0  0  0  0  0
  -25.9445  -33.1156   23.2836 N   0  0  0  0  0  0  0  0  0  0  0  0
  -20.0764  -31.1456   21.1111 N   0  0  0  0  0  0  0  0  0  0  0  0
  -28.6172  -15.5861   20.1968 N   0  0  0  0  0  0  0  0  0  0  0  0
  -19.0367  -29.9970   17.8449 N   0  3  0  0  0  0  0  0  0  0  0  0
  -24.0580   -9.5956   16.0465 O   0  0  0  0  0  0  0  0  0  0  0  0
  -25.1846  -30.9379   23.6034 O   0  0  0  0  0  0  0  0  0  0  0  0
  -22.0394  -33.0545   21.9542 O   0  0  0  0  0  0  0  0  0  0  0  0
  -20.2581  -29.0268   20.1866 O   0  0  0  0  0  0  0  0  0  0  0  0
  -30.8947  -15.3241   20.2284 O   0  0  0  0  0  0  0  0  0  0  0  0
  -21.5336   -7.9712   23.2274 O   0  0  0  0  0  0  0  0  0  0  0  0
  -26.3377  -25.9624   20.1975 O   0  0  0  0  0  0  0  0  0  1  0  0
  -21.4424   -2.4919   23.8374 F   0  0  0  0  0  0  0  0  0  0  0  0
  -22.0805   -6.8073   25.6746 F   0  0  0  0  0  0  0  0  0  0  0  0
  1  2  1  0  0  0  0
  1  5  2  0  0  0  0
  2  6  2  0  0  0  0
  3 12  2  0  0  0  0
  3 19  1  0  0  0  0
  4 13  1  0  0  0  0
  4 19  2  0  0  0  0
  5 22  1  0  0  0  0
  6 24  1  0  0  0  0
  7 10  2  0  0  0  0
  7 21  1  0  0  0  0
  8 11  1  0  0  0  0
  8 21  2  0  0  0  0
  9 14  2  0  0  0  0
  9 23  1  0  0  0  0
 10 26  1  0  0  0  0
 11 26  2  0  0  0  0
 12 27  1  0  0  0  0
 13 27  2  0  0  0  0
 14 28  1  0  0  0  0
 15 16  2  0  0  0  0
 15 29  1  0  0  0  0
 16 30  1  0  0  0  0
 17 25  1  0  0  0  0
 17 28  2  0  0  0  0
 18 30  2  0  0  0  0
 18 31  1  0  0  0  0
 19 32  1  0  0  0  0
 20 32  1  0  0  0  0
 20 33  2  0  0  0  0
 20 34  1  0  0  0  0
 21 52  1  0  0  0  0
 22 24  2  0  0  0  0
 22 39  1  0  0  0  0
 23 25  2  0  0  0  0
 23 40  1  0  0  0  0
 24 53  1  0  0  0  0
 25 41  1  0  0  0  0
 26 62  1  0  0  0  0
 27 81  1  0  0  0  0
 28 82  1  0  0  0  0
 29 31  2  0  0  0  0
 29 81  1  0  0  0  0
 30 83  1  0  0  0  0
 31 84  1  0  0  0  0
 32 66  2  0  0  0  0
 33 67  1  0  0  0  0
 33 70  1  0  0  0  0
 34 71  1  0  0  0  0
 34 76  2  0  0  0  0
 35 54  1  0  0  0  0
 35 72  1  0  0  0  0
 35 77  2  0  0  0  0
 36 63  1  0  0  0  0
 36 68  1  0  0  0  0
 36 78  2  0  0  0  0
 37 64  1  0  0  0  0
 37 73  1  0  0  0  0
 37 79  2  0  0  0  0
 38 69  1  0  0  0  0
 38 74  1  0  0  0  0
 38 80  2  0  0  0  0
 39 42  1  0  0  0  0
 40 54  1  0  0  0  0
 41 68  1  0  0  0  0
 42 46  1  0  0  0  0
 43 47  1  0  0  0  0
 43 50  1  0  0  0  0
 44 48  1  0  0  0  0
 44 52  1  0  0  0  0
 45 49  1  0  0  0  0
 45 52  1  0  0  0  0
 46 53  1  0  0  0  0
 47 55  1  0  0  0  0
 48 56  1  0  0  0  0
 49 56  1  0  0  0  0
 50 69  1  0  0  0  0
 51 55  1  0  0  0  0
 51 69  1  0  0  0  0
 53 72  1  0  0  0  0
 54 68  1  0  0  0  0
 55 67  1  0  0  0  0
 56 74  1  0  0  0  0
 57 64  1  0  0  0  0
 58 65  1  0  0  0  0
 59 65  1  0  0  0  0
 60 65  1  0  0  0  0
 61 75  1  0  0  0  0
 62 82  1  0  0  0  0
 63 65  1  0  0  0  0
 63 73  1  0  0  0  0
 64 75  1  0  0  0  0
 66 67  1  0  0  0  0
M  CHG  1  75   1
M  ISO  4  38 100  62 101  74 100  82 101
M  END
> <Batch ID>
0123

> <Smiles>
CNC(C)C(=O)NC(C(=O)N1Cc2cc([101O:1][101CH2:1]c3ccc(C4CCC([100NH:0][100C:0](=O)N5CCCC(n6nc(-c7ccc(Oc8ccc(F)cc8F)cc7)c(C(N)=O)c6N)C5)CC4)cc3)ccc2CC1C(=O)NC1CCCc2ccccc21)C(C)(C)C

> <Shape>
0.306

> <Color>
0.095

> <Negative vol penalty>
0.000

$$$$

  -OEChem-04052320303D

 85 94  0     1  0  0  0  0  0999 V2000
  -27.4785  -33.8949   20.7461 C   0  0  0  0  0  0  0  0  0  0  0  0
  -27.6393  -32.5130   20.7458 C   0  0  0  0  0  0  0  0  0  0  0  0
  -23.0831  -10.2104   22.1717 C   0  0  0  0  0  0  0  0  0  0  0  0
  -23.9363   -9.5852   19.9996 C   0  0  0  0  0  0  0  0  0  0  0  0
  -26.4289  -34.4733   21.4587 C   0  0  0  0  0  0  0  0  0  0  0  0
  -26.7511  -31.7087   21.4590 C   0  0  0  0  0  0  0  0  0  0  0  0
  -25.2471  -27.6587   18.8170 C   0  0  0  0  0  0  0  0  0  0  0  0
  -22.3702   -9.0133   22.2363 C   0  0  0  0  0  0  0  0  0  0  0  0
  -23.2233   -8.3880   20.0641 C   0  0  0  0  0  0  0  0  0  0  0  0
  -26.1362  -26.5883   18.7313 C   0  0  0  0  0  0  0  0  0  0  0  0
  -23.0121   -5.7657   22.9249 C   0  0  0  0  0  0  0  0  0  0  0  0
  -23.0584   -5.0472   24.1195 C   0  0  0  0  0  0  0  0  0  0  0  0
  -24.9180  -25.4449   20.4714 C   0  0  0  0  0  0  0  0  0  0  0  0
  -29.7919  -20.5352   20.1682 C   0  0  0  0  0  0  0  0  0  0  0  0
  -20.6591   -5.2396   24.3283 C   0  0  0  0  0  0  0  0  0  0  0  0
  -23.8662  -10.4964   21.0534 C   0  0  0  0  0  0  0  0  0  0  0  0
  -25.9163  -11.9658   21.4347 C   0  0  0  0  0  0  0  0  0  0  0  0
  -25.5217  -33.6750   22.1731 C   0  0  0  0  0  0  0  0  0  0  0  0
  -24.1914  -27.6350   19.7397 C   0  0  0  0  0  0  0  0  0  0  0  0
  -25.6892  -32.2771   22.1829 C   0  0  0  0  0  0  0  0  0  0  0  0
  -24.0153  -26.5152   20.5651 C   0  0  0  0  0  0  0  0  0  0  0  0
  -30.1441  -19.1901   20.1781 C   0  0  0  0  0  0  0  0  0  0  0  0
  -22.4403   -8.1021   21.1825 C   0  0  0  0  0  0  0  0  0  0  0  0
  -25.9735  -25.4824   19.5605 C   0  0  0  0  0  0  0  0  0  0  0  0
  -21.7893   -6.2212   22.4319 C   0  0  0  0  0  0  0  0  0  0  0  0
  -21.8820   -4.7842   24.8212 C   0  0  0  0  0  0  0  0  0  0  0  0
  -20.6128   -5.9581   23.1336 C   0  0  0  0  0  0  0  0  0  0  0  0
  -29.6490  -18.3404   19.1951 C   0  0  0  0  0  0  0  0  0  0  0  0
  -24.6024  -11.7331   20.9858 C   0  0  0  0  0  0  0  0  0  0  0  0
  -28.8120  -18.8806   18.2322 C   0  0  0  0  0  0  0  0  0  0  0  0
  -28.9485  -20.9773   19.1616 C   0  0  0  0  0  0  0  0  0  0  0  0
  -26.1490  -13.2880   21.1446 C   0  0  0  0  0  0  0  0  0  0  0  0
  -26.8434  -11.0672   22.0580 C   0  0  0  0  0  0  0  0  0  0  0  0
  -23.3570  -29.4116   22.2399 C   0  0  0  0  0  0  0  0  0  0  0  0
  -20.7096  -27.5377   22.1945 C   0  0  0  0  0  0  0  0  0  0  0  0
  -19.2712  -24.5765   21.2949 C   0  0  0  0  0  0  0  0  0  0  0  0
  -25.8434  -17.6316   17.6538 C   0  0  0  0  0  0  0  0  0  0  0  0
  -24.4307  -34.3489   22.9670 C   0  0  0  0  0  0  0  0  0  0  0  0
  -23.2250  -28.7860   19.8012 C   0  0  0  0  0  0  0  0  0  0  0  0
  -22.8862  -26.4317   21.5583 C   0  0  0  0  0  0  0  0  0  0  0  0
  -23.3117  -33.4010   23.3909 C   0  0  0  0  0  0  0  0  0  0  0  0
  -22.9809  -16.9389   19.6545 C   0  0  0  0  0  0  0  0  0  0  0  0
  -30.6098  -17.5502   22.1191 C   0  0  0  0  0  0  0  0  0  0  0  0
  -30.6749  -18.9307   22.6939 C   0  0  0  0  0  0  0  0  0  0  0  0
  -23.8924  -32.1144   23.9692 C   0  0  0  0  0  0  0  0  0  0  0  0
  -23.2532  -15.5401   20.2107 C   0  0  0  0  0  0  0  0  0  0  0  0
  -23.4951  -17.0874   18.2242 C   0  0  0  0  0  0  0  0  0  0  0  0
  -25.1863  -15.3329   18.5924 C   0  0  0  0  0  0  0  0  0  0  0  0
  -31.0550  -18.6999   21.2562 C   0  0  0  0  0  0  0  0  0  0  0  0
  -24.7317  -31.3694   22.9242 C   0  0  1  0  0  0  0  0  0  0  0  0
  -22.4899  -28.8783   21.1348 C   0  0  1  0  0  0  0  0  0  0  0  0
  -24.7357  -15.1524   20.0521 C   0  0  2  0  0  0  0  0  0  0  0  0
  -17.1036  -23.3190   21.4271 C   0  0  0  0  0  0  0  0  0  0  0  0
  -21.2528  -26.9149   25.1317 C   0  0  0  0  0  0  0  0  0  0  0  0
  -19.6784  -24.9777   24.9400 C   0  0  0  0  0  0  0  0  0  0  0  0
  -18.8454  -27.3006   24.5750 C   0  0  0  0  0  0  0  0  0  0  0  0
  -19.0246  -24.4611   18.3479 C   0  0  0  0  0  0  0  0  0  0  0  0
  -28.2391  -18.0315   17.1438 C   0  0  0  0  0  0  0  0  0  0  0  0
  -27.4372  -24.1848   18.2079 C   0  0  0  0  0  0  0  0  0  1  0  0
  -27.7187  -22.7004   18.0781 C   0  0  0  0  0  0  0  0  0  0  0  0
  -20.3193  -26.2232   22.8260 C   0  0  1  0  0  0  0  0  0  0  0  0
  -17.9590  -24.2647   20.5983 C   0  0  2  0  0  0  0  0  0  0  0  0
  -20.0465  -26.3562   24.3509 C   0  0  0  0  0  0  0  0  0  0  0  0
  -24.0399  -12.8203   20.4514 N   0  0  0  0  0  0  0  0  0  0  0  0
  -28.4476  -20.1818   18.1900 N   0  0  0  0  0  0  0  0  0  0  0  0
  -25.0049  -13.7490   20.5626 N   0  0  0  0  0  0  0  0  0  0  0  0
  -21.9715  -27.5850   21.5851 N   0  0  0  0  0  0  0  0  0  0  0  0
  -24.9070  -16.7057   18.1425 N   0  0  0  0  0  0  0  0  0  0  0  0
  -27.2187  -14.0897   21.3332 N   0  0  0  0  0  0  0  0  0  0  0  0
  -26.4424   -9.7431   22.2824 N   0  0  0  0  0  0  0  0  0  0  0  0
  -23.8736  -30.6692   21.9926 N   0  0  0  0  0  0  0  0  0  0  0  0
  -19.1850  -25.7220   22.0575 N   0  0  0  0  0  0  0  0  0  0  0  0
  -27.1609  -17.1915   17.6155 N   0  0  0  0  0  0  0  0  0  0  0  0
  -18.2134  -23.6299   19.2742 N   0  3  0  0  0  0  0  0  0  0  0  0
  -27.9876  -11.4320   22.4205 O   0  0  0  0  0  0  0  0  0  0  0  0
  -23.5424  -28.7331   23.2434 O   0  0  0  0  0  0  0  0  0  0  0  0
  -19.9210  -28.4854   22.2340 O   0  0  0  0  0  0  0  0  0  0  0  0
  -20.2715  -23.8722   21.1774 O   0  0  0  0  0  0  0  0  0  0  0  0
  -25.5295  -18.7682   17.2844 O   0  0  0  0  0  0  0  0  0  0  0  0
  -21.7449   -6.9337   21.2453 O   0  0  0  0  0  0  0  0  0  0  0  0
  -26.8403  -24.4365   19.4794 O   0  0  0  0  0  0  0  0  0  1  0  0
  -28.5857  -22.2981   19.1315 O   0  0  0  0  0  0  0  0  0  0  0  0
  -21.9264   -4.0929   25.9676 F   0  0  0  0  0  0  0  0  0  0  0  0
  -19.4350   -6.3921   22.6644 F   0  0  0  0  0  0  0  0  0  0  0  0
  -30.0675  -16.6657   19.1758 Cl  0  0  0  0  0  0  0  0  0  0  0  0
  1  2  1  0  0  0  0
  1  5  2  0  0  0  0
  2  6  2  0  0  0  0
  3  8  2  0  0  0  0
  3 16  1  0  0  0  0
  4  9  1  0  0  0  0
  4 16  2  0  0  0  0
  5 18  1  0  0  0  0
  6 20  1  0  0  0  0
  7 10  2  0  0  0  0
  7 19  1  0  0  0  0
  8 23  1  0  0  0  0
  9 23  2  0  0  0  0
 10 24  1  0  0  0  0
 11 12  2  0  0  0  0
 11 25  1  0  0  0  0
 12 26  1  0  0  0  0
 13 21  1  0  0  0  0
 13 24  2  0  0  0  0
 14 22  2  0  0  0  0
 14 31  1  0  0  0  0
 15 26  2  0  0  0  0
 15 27  1  0  0  0  0
 16 29  1  0  0  0  0
 17 29  1  0  0  0  0
 17 32  2  0  0  0  0
 17 33  1  0  0  0  0
 18 20  2  0  0  0  0
 18 38  1  0  0  0  0
 19 21  2  0  0  0  0
 19 39  1  0  0  0  0
 20 50  1  0  0  0  0
 21 40  1  0  0  0  0
 22 28  1  0  0  0  0
 22 49  1  0  0  0  0
 23 80  1  0  0  0  0
 24 81  1  0  0  0  0
 25 27  2  0  0  0  0
 25 80  1  0  0  0  0
 26 83  1  0  0  0  0
 27 84  1  0  0  0  0
 28 30  2  0  0  0  0
 28 85  1  0  0  0  0
 29 64  2  0  0  0  0
 30 58  1  0  0  0  0
 30 65  1  0  0  0  0
 31 65  2  0  0  0  0
 31 82  1  0  0  0  0
 32 66  1  0  0  0  0
 32 69  1  0  0  0  0
 33 70  1  0  0  0  0
 33 75  2  0  0  0  0
 34 51  1  0  0  0  0
 34 71  1  0  0  0  0
 34 76  2  0  0  0  0
 35 61  1  0  0  0  0
 35 67  1  0  0  0  0
 35 77  2  0  0  0  0
 36 62  1  0  0  0  0
 36 72  1  0  0  0  0
 36 78  2  0  0  0  0
 37 68  1  0  0  0  0
 37 73  1  0  0  0  0
 37 79  2  0  0  0  0
 38 41  1  0  0  0  0
 39 51  1  0  0  0  0
 40 67  1  0  0  0  0
 41 45  1  0  0  0  0
 42 46  1  0  0  0  0
 42 47  1  0  0  0  0
 43 44  1  0  0  0  0
 43 49  1  0  0  0  0
 44 49  1  0  0  0  0
 45 50  1  0  0  0  0
 46 52  1  0  0  0  0
 47 68  1  0  0  0  0
 48 52  1  0  0  0  0
 48 68  1  0  0  0  0
 50 71  1  0  0  0  0
 51 67  1  0  0  0  0
 52 66  1  0  0  0  0
 53 62  1  0  0  0  0
 54 63  1  0  0  0  0
 55 63  1  0  0  0  0
 56 63  1  0  0  0  0
 57 74  1  0  0  0  0
 58 73  1  0  0  0  0
 59 60  1  0  0  0  0
 59 81  1  0  0  0  0
 60 82  1  0  0  0  0
 61 63  1  0  0  0  0
 61 72  1  0  0  0  0
 62 74  1  0  0  0  0
 64 66  1  0  0  0  0
M  CHG  1  74   1
M  ISO  4  37 100  59 101  73 100  81 101
M  END
> <Batch ID>
0123

> <Smiles>
CNC(C)C(=O)NC(C(=O)N1Cc2cc([101O:1][101CH2:1]COc3cc(C4CC4)c(Cl)c(C[100NH:0][100C:0](=O)N4CCCC(n5nc(-c6ccc(Oc7ccc(F)cc7F)cc6)c(C(N)=O)c5N)C4)n3)ccc2CC1C(=O)NC1CCCc2ccccc21)C(C)(C)C

> <Shape>
0.279

> <Color>
0.104

> <Negative vol penalty>
0.000

$$$$

  -OEChem-04052320303D

 87 96  0     1  0  0  0  0  0999 V2000
  -27.7008  -36.5163   26.3760 C   0  0  0  0  0  0  0  0  0  0  0  0
  -27.6610  -35.1922   26.8012 C   0  0  0  0  0  0  0  0  0  0  0  0
  -22.6741  -10.1747   20.1895 C   0  0  0  0  0  0  0  0  0  0  0  0
  -24.3077   -9.4535   21.8168 C   0  0  0  0  0  0  0  0  0  0  0  0
  -27.7700  -36.8083   25.0145 C   0  0  0  0  0  0  0  0  0  0  0  0
  -27.6891  -34.1593   25.8648 C   0  0  0  0  0  0  0  0  0  0  0  0
  -32.8870  -29.1738   25.9984 C   0  0  0  0  0  0  0  0  0  0  0  0
  -30.2228  -18.8601   23.3044 C   0  0  0  0  0  0  0  0  0  0  0  0
  -21.9422   -9.0074   20.4070 C   0  0  0  0  0  0  0  0  0  0  0  0
  -23.5758   -8.2862   22.0343 C   0  0  0  0  0  0  0  0  0  0  0  0
  -33.7270  -28.0635   26.0866 C   0  0  0  0  0  0  0  0  0  0  0  0
  -20.8089   -7.3650   23.7420 C   0  0  0  0  0  0  0  0  0  0  0  0
  -20.6078   -6.9647   25.0629 C   0  0  0  0  0  0  0  0  0  0  0  0
  -29.7516  -17.6385   22.8364 C   0  0  0  0  0  0  0  0  0  0  0  0
  -32.7272  -27.1351   24.0900 C   0  0  0  0  0  0  0  0  0  0  0  0
  -21.7477   -4.8841   24.6058 C   0  0  0  0  0  0  0  0  0  0  0  0
  -23.8570  -10.3977   20.8944 C   0  0  0  0  0  0  0  0  0  0  0  0
  -24.1787  -12.9281   20.8611 C   0  0  0  0  0  0  0  0  0  0  0  0
  -27.8088  -35.7783   24.0614 C   0  0  0  0  0  0  0  0  0  0  0  0
  -31.9734  -29.2764   24.9457 C   0  0  0  0  0  0  0  0  0  0  0  0
  -27.7575  -34.4378   24.4891 C   0  0  0  0  0  0  0  0  0  0  0  0
  -31.8919  -28.2508   23.9894 C   0  0  0  0  0  0  0  0  0  0  0  0
  -31.4771  -19.3124   22.9101 C   0  0  0  0  0  0  0  0  0  0  0  0
  -22.3929   -8.0632   21.3294 C   0  0  0  0  0  0  0  0  0  0  0  0
  -33.6471  -27.0465   25.1349 C   0  0  0  0  0  0  0  0  0  0  0  0
  -21.4793   -6.5249   22.8529 C   0  0  0  0  0  0  0  0  0  0  0  0
  -21.0772   -5.7242   25.4948 C   0  0  0  0  0  0  0  0  0  0  0  0
  -21.9487   -5.2845   23.2848 C   0  0  0  0  0  0  0  0  0  0  0  0
  -24.6138  -11.6031   20.6698 C   0  0  0  0  0  0  0  0  0  0  0  0
  -32.2152  -18.5120   22.0532 C   0  0  0  0  0  0  0  0  0  0  0  0
  -30.5670  -16.9131   21.9826 C   0  0  0  0  0  0  0  0  0  0  0  0
  -25.2604  -13.6987   20.5109 C   0  0  0  0  0  0  0  0  0  0  0  0
  -22.9102  -13.4187   21.3150 C   0  0  0  0  0  0  0  0  0  0  0  0
  -29.2851  -31.2971   23.2827 C   0  0  0  0  0  0  0  0  0  0  0  0
  -31.0316  -30.1276   21.0484 C   0  0  0  0  0  0  0  0  0  0  0  0
  -33.4414  -28.9975   18.9145 C   0  0  0  0  0  0  0  0  0  0  0  0
  -30.7207  -14.7798   20.6516 C   0  0  0  0  0  0  0  0  0  0  0  0
  -27.8358  -36.1437   22.5984 C   0  0  0  0  0  0  0  0  0  0  0  0
  -31.0066  -30.4249   24.8455 C   0  0  0  0  0  0  0  0  0  0  0  0
  -30.8701  -28.3873   22.8938 C   0  0  0  0  0  0  0  0  0  0  0  0
  -28.2399  -34.9862   21.6889 C   0  0  0  0  0  0  0  0  0  0  0  0
  -29.5924  -12.4442   18.2126 C   0  0  0  0  0  0  0  0  0  0  0  0
  -27.4824  -33.7182   22.0700 C   0  0  0  0  0  0  0  0  0  0  0  0
  -34.5734  -22.2906   24.4577 C   0  0  0  0  0  0  0  0  0  0  0  0
  -32.2073  -22.9626   25.0458 C   0  0  0  0  0  0  0  0  0  0  0  0
  -28.1608  -12.1261   18.6502 C   0  0  0  0  0  0  0  0  0  0  0  0
  -35.0665  -23.6714   24.8794 C   0  0  0  0  0  0  0  0  0  0  0  0
  -32.7068  -24.3419   25.4654 C   0  0  0  0  0  0  0  0  0  0  0  0
  -30.5218  -12.6367   19.4096 C   0  0  0  0  0  0  0  0  0  0  0  0
  -28.6282  -13.2961   20.8410 C   0  0  0  0  0  0  0  0  0  0  0  0
  -27.8113  -33.2894   23.5051 C   0  0  1  0  0  0  0  0  0  0  0  0
  -30.7096  -30.8387   23.3930 C   0  0  1  0  0  0  0  0  0  0  0  0
  -33.2958  -21.8927   25.2098 C   0  0  0  0  0  0  0  0  0  0  0  0
  -27.6410  -13.1578   19.6705 C   0  0  2  0  0  0  0  0  0  0  0  0
  -33.9805  -24.7318   24.7182 C   0  0  0  0  0  0  0  0  0  1  0  0
  -33.5696  -18.9475   21.5980 C   0  0  0  0  0  0  0  0  0  0  0  0
  -34.0500  -28.9451   16.4806 C   0  0  0  0  0  0  0  0  0  0  0  0
  -31.9135  -19.8962   25.8156 C   0  0  0  0  0  0  0  0  0  0  0  0
  -28.9378  -27.9605   20.5753 C   0  0  0  0  0  0  0  0  0  0  0  0
  -30.1900  -27.3010   18.5101 C   0  0  0  0  0  0  0  0  0  0  0  0
  -29.2027  -29.5846   18.6921 C   0  0  0  0  0  0  0  0  0  0  0  0
  -35.9529  -30.4889   19.3912 C   0  0  0  0  0  0  0  0  0  0  0  0
  -31.9953  -20.6368   23.4155 C   0  0  0  0  0  0  0  0  0  0  0  0
  -31.2440  -29.0037   20.0660 C   0  0  1  0  0  0  0  0  0  0  0  0
  -34.2033  -29.6887   17.7982 C   0  0  2  0  0  0  0  0  0  0  0  0
  -32.7908  -20.5322   24.7329 C   0  0  1  0  0  0  0  0  0  0  0  0
  -29.9066  -28.4627   19.4862 C   0  0  0  0  0  0  0  0  0  0  0  0
  -25.8736  -11.5322   20.2318 N   0  0  0  0  0  0  0  0  0  0  0  0
  -31.7910  -17.3198   21.5776 N   0  0  0  0  0  0  0  0  0  0  0  0
  -26.2394  -12.8224   20.1449 N   0  0  0  0  0  0  0  0  0  0  0  0
  -30.8549  -29.7697   22.3904 N   0  0  0  0  0  0  0  0  0  0  0  0
  -29.9671  -13.6309   20.3309 N   0  0  0  0  0  0  0  0  0  0  0  0
  -25.4601  -15.0335   20.4832 N   0  0  0  0  0  0  0  0  0  0  0  0
  -21.9096  -12.4901   21.6324 N   0  0  0  0  0  0  0  0  0  0  0  0
  -30.0776  -15.6697   21.5113 N   0  0  0  0  0  0  0  0  0  0  0  0
  -29.1035  -32.6397   23.5549 N   0  0  0  0  0  0  0  0  0  0  0  0
  -32.1699  -29.5110   19.0592 N   0  0  0  0  0  0  0  0  0  0  0  0
  -35.6543  -29.7628   18.1300 N   0  3  0  0  0  0  0  0  0  0  0  0
  -22.6658  -14.6445   21.4198 O   0  0  0  0  0  0  0  0  0  0  0  0
  -28.4140  -30.4932   22.9720 O   0  0  0  0  0  0  0  0  0  0  0  0
  -31.0167  -31.2918   20.6389 O   0  0  0  0  0  0  0  0  0  0  0  0
  -33.9244  -28.0901   19.5882 O   0  0  0  0  0  0  0  0  0  0  0  0
  -31.8422  -14.9740   20.1757 O   0  0  0  0  0  0  0  0  0  0  0  0
  -21.6788   -6.9242   21.5420 O   0  0  0  0  0  0  0  0  0  0  0  0
  -34.4732  -25.9675   25.2245 O   0  0  0  0  0  0  0  0  0  1  0  0
  -20.8854   -5.3405   26.7638 F   0  0  0  0  0  0  0  0  0  0  0  0
  -22.5946   -4.4736   22.4356 F   0  0  0  0  0  0  0  0  0  0  0  0
  1  2  1  0  0  0  0
  1  5  2  0  0  0  0
  2  6  2  0  0  0  0
  3  9  2  0  0  0  0
  3 17  1  0  0  0  0
  4 10  1  0  0  0  0
  4 17  2  0  0  0  0
  5 19  1  0  0  0  0
  6 21  1  0  0  0  0
  7 11  2  0  0  0  0
  7 20  1  0  0  0  0
  8 14  2  0  0  0  0
  8 23  1  0  0  0  0
  9 24  1  0  0  0  0
 10 24  2  0  0  0  0
 11 25  1  0  0  0  0
 12 13  2  0  0  0  0
 12 26  1  0  0  0  0
 13 27  1  0  0  0  0
 14 31  1  0  0  0  0
 15 22  1  0  0  0  0
 15 25  2  0  0  0  0
 16 27  2  0  0  0  0
 16 28  1  0  0  0  0
 17 29  1  0  0  0  0
 18 29  1  0  0  0  0
 18 32  2  0  0  0  0
 18 33  1  0  0  0  0
 19 21  2  0  0  0  0
 19 38  1  0  0  0  0
 20 22  2  0  0  0  0
 20 39  1  0  0  0  0
 21 51  1  0  0  0  0
 22 40  1  0  0  0  0
 23 30  2  0  0  0  0
 23 63  1  0  0  0  0
 24 84  1  0  0  0  0
 25 85  1  0  0  0  0
 26 28  2  0  0  0  0
 26 84  1  0  0  0  0
 27 86  1  0  0  0  0
 28 87  1  0  0  0  0
 29 68  2  0  0  0  0
 30 56  1  0  0  0  0
 30 69  1  0  0  0  0
 31 69  2  0  0  0  0
 31 75  1  0  0  0  0
 32 70  1  0  0  0  0
 32 73  1  0  0  0  0
 33 74  1  0  0  0  0
 33 79  2  0  0  0  0
 34 52  1  0  0  0  0
 34 76  1  0  0  0  0
 34 80  2  0  0  0  0
 35 64  1  0  0  0  0
 35 71  1  0  0  0  0
 35 81  2  0  0  0  0
 36 65  1  0  0  0  0
 36 77  1  0  0  0  0
 36 82  2  0  0  0  0
 37 72  1  0  0  0  0
 37 75  1  0  0  0  0
 37 83  2  0  0  0  0
 38 41  1  0  0  0  0
 39 52  1  0  0  0  0
 40 71  1  0  0  0  0
 41 43  1  0  0  0  0
 42 46  1  0  0  0  0
 42 49  1  0  0  0  0
 43 51  1  0  0  0  0
 44 47  1  0  0  0  0
 44 53  1  0  0  0  0
 45 48  1  0  0  0  0
 45 53  1  0  0  0  0
 46 54  1  0  0  0  0
 47 55  1  0  0  0  0
 48 55  1  0  0  0  0
 49 72  1  0  0  0  0
 50 54  1  0  0  0  0
 50 72  1  0  0  0  0
 51 76  1  0  0  0  0
 52 71  1  0  0  0  0
 53 66  1  0  0  0  0
 54 70  1  0  0  0  0
 55 85  1  0  0  0  0
 57 65  1  0  0  0  0
 58 66  1  0  0  0  0
 59 67  1  0  0  0  0
 60 67  1  0  0  0  0
 61 67  1  0  0  0  0
 62 78  1  0  0  0  0
 63 66  1  0  0  0  0
 64 67  1  0  0  0  0
 64 77  1  0  0  0  0
 65 78  1  0  0  0  0
 68 70  1  0  0  0  0
M  CHG  1  78   1
M  ISO  4  37 100  55 101  75 100  85 101
M  END
> <Batch ID>
0123

> <Smiles>
CNC(C)C(=O)NC(C(=O)N1Cc2cc([101O:1][101CH:1]3CCC(C(C)Cc4ccc([100NH:0][100C:0](=O)N5CCCC(n6nc(-c7ccc(Oc8ccc(F)cc8F)cc7)c(C(N)=O)c6N)C5)nc4C)CC3)ccc2CC1C(=O)NC1CCCc2ccccc21)C(C)(C)C

> <Shape>
0.241

> <Color>
0.192

> <Negative vol penalty>
0.000

$$$$

  -OEChem-04052320303D

 92101  0     1  0  0  0  0  0999 V2000
  -30.4745  -26.5840   20.4683 C   0  0  0  0  0  0  0  0  0  0  0  0
  -29.5738  -25.5249   20.5192 C   0  0  0  0  0  0  0  0  0  0  0  0
  -22.9807   -9.9830   19.9929 C   0  0  0  0  0  0  0  0  0  0  0  0
  -23.7960   -9.9379   22.2667 C   0  0  0  0  0  0  0  0  0  0  0  0
  -30.3590  -27.6398   21.3715 C   0  0  0  0  0  0  0  0  0  0  0  0
  -28.5577  -25.5206   21.4741 C   0  0  0  0  0  0  0  0  0  0  0  0
  -22.8871  -23.3063   20.8057 C   0  0  0  0  0  0  0  0  0  0  0  0
  -26.0414  -18.0896   22.2686 C   0  0  0  0  0  0  0  0  0  0  0  0
  -22.1883   -8.8654   20.2548 C   0  0  0  0  0  0  0  0  0  0  0  0
  -23.0036   -8.8203   22.5287 C   0  0  0  0  0  0  0  0  0  0  0  0
  -22.3018  -22.0977   21.1806 C   0  0  0  0  0  0  0  0  0  0  0  0
  -24.8313  -18.0658   22.9618 C   0  0  0  0  0  0  0  0  0  0  0  0
  -19.7565   -8.1748   23.2067 C   0  0  0  0  0  0  0  0  0  0  0  0
  -19.0274   -8.1634   24.3957 C   0  0  0  0  0  0  0  0  0  0  0  0
  -21.4645  -23.1340   23.1916 C   0  0  0  0  0  0  0  0  0  0  0  0
  -25.4527  -20.0952   24.1162 C   0  0  0  0  0  0  0  0  0  0  0  0
  -20.1915   -6.1635   25.0904 C   0  0  0  0  0  0  0  0  0  0  0  0
  -23.7846  -10.5193   20.9988 C   0  0  0  0  0  0  0  0  0  0  0  0
  -24.2449  -13.0258   20.8844 C   0  0  0  0  0  0  0  0  0  0  0  0
  -29.3351  -27.6531   22.3317 C   0  0  0  0  0  0  0  0  0  0  0  0
  -22.7745  -24.4369   21.6276 C   0  0  0  0  0  0  0  0  0  0  0  0
  -28.4292  -26.5770   22.3919 C   0  0  0  0  0  0  0  0  0  0  0  0
  -26.9573  -19.1162   22.4992 C   0  0  0  0  0  0  0  0  0  0  0  0
  -22.0471  -24.3564   22.8236 C   0  0  0  0  0  0  0  0  0  0  0  0
  -26.6629  -20.1190   23.4229 C   0  0  0  0  0  0  0  0  0  0  0  0
  -22.1998   -8.2840   21.5227 C   0  0  0  0  0  0  0  0  0  0  0  0
  -21.5928  -22.0107   22.3751 C   0  0  0  0  0  0  0  0  0  0  0  0
  -24.5369  -19.0686   23.8856 C   0  0  0  0  0  0  0  0  0  0  0  0
  -20.7030   -7.1804   22.9594 C   0  0  0  0  0  0  0  0  0  0  0  0
  -19.2449   -7.1578   25.3376 C   0  0  0  0  0  0  0  0  0  0  0  0
  -20.9205   -6.1749   23.9012 C   0  0  0  0  0  0  0  0  0  0  0  0
  -24.6037  -11.6735   20.7287 C   0  0  0  0  0  0  0  0  0  0  0  0
  -25.3627  -13.7243   20.4983 C   0  0  0  0  0  0  0  0  0  0  0  0
  -23.0115  -13.5994   21.3376 C   0  0  0  0  0  0  0  0  0  0  0  0
  -24.8326  -26.2892   23.1886 C   0  0  0  0  0  0  0  0  0  0  0  0
  -22.1794  -28.0504   23.8062 C   0  0  0  0  0  0  0  0  0  0  0  0
  -18.7821  -28.1618   24.1108 C   0  0  0  0  0  0  0  0  0  0  0  0
  -30.8923  -14.4768   20.5562 C   0  0  0  0  0  0  0  0  0  0  0  0
  -29.2790  -28.7932   23.3175 C   0  0  0  0  0  0  0  0  0  0  0  0
  -23.3889  -25.7402   21.1960 C   0  0  0  0  0  0  0  0  0  0  0  0
  -21.8797  -25.5464   23.7316 C   0  0  0  0  0  0  0  0  0  0  0  0
  -27.9471  -28.8947   24.0564 C   0  0  0  0  0  0  0  0  0  0  0  0
  -29.5827  -12.1660   18.1851 C   0  0  0  0  0  0  0  0  0  0  0  0
  -27.5111  -27.5230   24.5616 C   0  0  0  0  0  0  0  0  0  0  0  0
  -28.1437  -11.9389   18.6520 C   0  0  0  0  0  0  0  0  0  0  0  0
  -30.5385  -12.3343   19.3641 C   0  0  0  0  0  0  0  0  0  0  0  0
  -28.7089  -13.1467   20.8015 C   0  0  0  0  0  0  0  0  0  0  0  0
  -30.1522  -17.9093   19.8779 C   0  0  0  0  0  0  0  0  0  0  0  0
  -28.2712  -19.1204   21.7302 C   0  0  2  0  0  0  0  0  0  0  0  0
  -27.2984  -26.5482   23.3972 C   0  0  1  0  0  0  0  0  0  0  0  0
  -23.6468  -26.6933   22.3589 C   0  0  1  0  0  0  0  0  0  0  0  0
  -27.6989  -13.0272   19.6475 C   0  0  2  0  0  0  0  0  0  0  0  0
  -30.3487  -17.8820   21.3900 C   0  0  2  0  0  0  0  0  0  0  0  0
  -28.0416  -19.2118   20.2032 C   0  0  1  0  0  0  0  0  0  0  0  0
  -27.6284  -21.2273   23.6871 C   0  0  0  0  0  0  0  0  0  0  0  0
  -16.9042  -29.7325   24.6619 C   0  0  0  0  0  0  0  0  0  0  0  0
  -27.1430  -20.5518   18.2670 C   0  0  0  0  0  0  0  0  0  0  0  0
  -22.9039  -27.8745   26.7649 C   0  0  0  0  0  0  0  0  0  0  0  0
  -20.5706  -28.6019   27.3079 C   0  0  0  0  0  0  0  0  0  0  0  0
  -22.0804  -30.1167   26.0240 C   0  0  0  0  0  0  0  0  0  0  0  0
  -17.5460  -27.8037   21.4457 C   0  0  0  0  0  0  0  0  0  0  0  0
  -31.0922  -16.6133   21.8030 C   0  0  0  0  0  0  0  0  0  0  0  0
  -20.9459  -19.0800   24.4010 C   0  0  0  0  0  0  0  0  0  0  0  0
  -20.9012  -20.5779   24.1428 C   0  0  0  0  0  0  0  0  0  1  0  0
  -22.2393  -18.4550   23.9021 C   0  0  0  0  0  0  0  0  0  0  0  0
  -21.1337  -28.0623   24.8949 C   0  0  1  0  0  0  0  0  0  0  0  0
  -17.7520  -29.1277   23.5537 C   0  0  2  0  0  0  0  0  0  0  0  0
  -27.3851  -20.5194   19.7662 C   0  0  1  0  0  0  0  0  0  0  0  0
  -21.6767  -28.6407   26.2320 C   0  0  0  0  0  0  0  0  0  0  0  0
  -25.8518  -11.5197   20.2786 N   0  0  0  0  0  0  0  0  0  0  0  0
  -26.2870  -12.7845   20.1481 N   0  0  0  0  0  0  0  0  0  0  0  0
  -29.0574  -17.9243   22.0846 N   0  0  0  0  0  0  0  0  0  0  0  0
  -22.5043  -26.7967   23.2689 N   0  0  0  0  0  0  0  0  0  0  0  0
  -30.0602  -13.3822   20.2692 N   0  0  0  0  0  0  0  0  0  0  0  0
  -25.6354  -15.0445   20.4275 N   0  0  0  0  0  0  0  0  0  0  0  0
  -21.9654  -12.7377   21.6948 N   0  0  0  0  0  0  0  0  0  0  0  0
  -26.0334  -26.8090   22.7443 N   0  0  0  0  0  0  0  0  0  0  0  0
  -19.9882  -28.7849   24.3527 N   0  0  0  0  0  0  0  0  0  0  0  0
  -30.3595  -15.4277   21.4180 N   0  0  0  0  0  0  0  0  0  0  0  0
  -29.3786  -19.1325   19.5173 N   0  3  0  0  0  0  0  0  0  0  0  0
  -16.8473  -28.4264   22.5994 N   0  3  0  0  0  0  0  0  0  0  0  0
  -22.8364  -14.8395   21.4076 O   0  0  0  0  0  0  0  0  0  0  0  0
  -24.6699  -25.5611   24.1607 O   0  0  0  0  0  0  0  0  0  0  0  0
  -22.6841  -29.1150   23.4408 O   0  0  0  0  0  0  0  0  0  0  0  0
  -18.5399  -26.9743   24.3148 O   0  0  0  0  0  0  0  0  0  0  0  0
  -32.0239  -14.6005   20.0755 O   0  0  0  0  0  0  0  0  0  0  0  0
  -26.1462  -20.6664   20.4493 O   0  0  0  0  0  0  0  0  0  0  0  0
  -21.4265   -7.1935   21.7787 O   0  0  0  0  0  0  0  0  0  0  0  0
  -21.0211  -20.8320   22.7438 O   0  0  0  0  0  0  0  0  0  1  0  0
  -23.3480  -19.0450   24.5672 O   0  0  0  0  0  0  0  0  0  0  0  0
  -18.5458   -7.1479   26.4801 F   0  0  0  0  0  0  0  0  0  0  0  0
  -21.8293   -5.2176   23.6698 F   0  0  0  0  0  0  0  0  0  0  0  0
  1  2  1  0  0  0  0
  1  5  2  0  0  0  0
  2  6  2  0  0  0  0
  3  9  2  0  0  0  0
  3 18  1  0  0  0  0
  4 10  1  0  0  0  0
  4 18  2  0  0  0  0
  5 20  1  0  0  0  0
  6 22  1  0  0  0  0
  7 11  2  0  0  0  0
  7 21  1  0  0  0  0
  8 12  2  0  0  0  0
  8 23  1  0  0  0  0
  9 26  1  0  0  0  0
 10 26  2  0  0  0  0
 11 27  1  0  0  0  0
 12 28  1  0  0  0  0
 13 14  2  0  0  0  0
 13 29  1  0  0  0  0
 14 30  1  0  0  0  0
 15 24  1  0  0  0  0
 15 27  2  0  0  0  0
 16 25  1  0  0  0  0
 16 28  2  0  0  0  0
 17 30  2  0  0  0  0
 17 31  1  0  0  0  0
 18 32  1  0  0  0  0
 19 32  1  0  0  0  0
 19 33  2  0  0  0  0
 19 34  1  0  0  0  0
 20 22  2  0  0  0  0
 20 39  1  0  0  0  0
 21 24  2  0  0  0  0
 21 40  1  0  0  0  0
 22 50  1  0  0  0  0
 23 25  2  0  0  0  0
 23 49  1  0  0  0  0
 24 41  1  0  0  0  0
 25 55  1  0  0  0  0
 26 88  1  0  0  0  0
 27 89  1  0  0  0  0
 28 90  1  0  0  0  0
 29 31  2  0  0  0  0
 29 88  1  0  0  0  0
 30 91  1  0  0  0  0
 31 92  1  0  0  0  0
 32 70  2  0  0  0  0
 33 71  1  0  0  0  0
 33 75  1  0  0  0  0
 34 76  1  0  0  0  0
 34 82  2  0  0  0  0
 35 51  1  0  0  0  0
 35 77  1  0  0  0  0
 35 83  2  0  0  0  0
 36 66  1  0  0  0  0
 36 73  1  0  0  0  0
 36 84  2  0  0  0  0
 37 67  1  0  0  0  0
 37 78  1  0  0  0  0
 37 85  2  0  0  0  0
 38 74  1  0  0  0  0
 38 79  1  0  0  0  0
 38 86  2  0  0  0  0
 39 42  1  0  0  0  0
 40 51  1  0  0  0  0
 41 73  1  0  0  0  0
 42 44  1  0  0  0  0
 43 45  1  0  0  0  0
 43 46  1  0  0  0  0
 44 50  1  0  0  0  0
 45 52  1  0  0  0  0
 46 74  1  0  0  0  0
 47 52  1  0  0  0  0
 47 74  1  0  0  0  0
 48 53  1  0  0  0  0
 48 80  1  0  0  0  0
 49 54  1  0  0  0  0
 49 72  1  0  0  0  0
 50 77  1  0  0  0  0
 51 73  1  0  0  0  0
 52 71  1  0  0  0  0
 53 62  1  0  0  0  0
 53 72  1  0  0  0  0
 54 68  1  0  0  0  0
 54 80  1  0  0  0  0
 56 67  1  0  0  0  0
 57 68  1  0  0  0  0
 58 69  1  0  0  0  0
 59 69  1  0  0  0  0
 60 69  1  0  0  0  0
 61 81  1  0  0  0  0
 62 79  1  0  0  0  0
 63 64  1  0  0  0  0
 63 65  1  0  0  0  0
 64 89  1  0  0  0  0
 65 90  1  0  0  0  0
 66 69  1  0  0  0  0
 66 78  1  0  0  0  0
 67 81  1  0  0  0  0
 68 87  1  0  0  0  0
 70 71  1  0  0  0  0
M  CHG  2  80   1  81   1
M  ISO  4  38 100  64 101  79 100  89 101
M  END
> <Batch ID>
0123

> <Smiles>
CNC(C)C(=O)NC(C(=O)N1Cc2cc([101O:1][101CH2:1]CCOc3ccc(C4NC(C[100NH:0][100C:0](=O)N5CCCC(n6nc(-c7ccc(Oc8ccc(F)cc8F)cc7)c(C(N)=O)c6N)C5)CNC4C(C)O)c(C)c3)ccc2CC1C(=O)NC1CCCc2ccccc21)C(C)(C)C

> <Shape>
0.279

> <Color>
0.174

> <Negative vol penalty>
0.000

$$$$

  -OEChem-04052320303D

 88 97  0     1  0  0  0  0  0999 V2000
  -22.2926  -14.9517   22.5446 C   0  0  0  0  0  0  0  0  0  0  0  0
  -23.1822  -15.7913   21.8839 C   0  0  0  0  0  0  0  0  0  0  0  0
  -29.5013  -17.2838   19.2670 C   0  0  0  0  0  0  0  0  0  0  0  0
  -28.0296  -17.7738   21.1194 C   0  0  0  0  0  0  0  0  0  0  0  0
  -21.0504  -15.4371   22.9476 C   0  0  0  0  0  0  0  0  0  0  0  0
  -22.8347  -17.1199   21.6365 C   0  0  0  0  0  0  0  0  0  0  0  0
  -23.7042  -24.6160   18.9835 C   0  0  0  0  0  0  0  0  0  0  0  0
  -29.7071  -15.9993   19.7703 C   0  0  0  0  0  0  0  0  0  0  0  0
  -28.2354  -16.4893   21.6227 C   0  0  0  0  0  0  0  0  0  0  0  0
  -23.0118  -25.7821   18.6598 C   0  0  0  0  0  0  0  0  0  0  0  0
  -30.3360  -12.4701   20.3738 C   0  0  0  0  0  0  0  0  0  0  0  0
  -30.2847  -11.4052   19.4744 C   0  0  0  0  0  0  0  0  0  0  0  0
  -21.9658  -25.7570   20.8332 C   0  0  0  0  0  0  0  0  0  0  0  0
  -23.7859  -31.4957   20.8597 C   0  0  0  0  0  0  0  0  0  0  0  0
  -28.0051  -11.9829   18.9205 C   0  0  0  0  0  0  0  0  0  0  0  0
  -28.6626  -18.1711   19.9416 C   0  0  0  0  0  0  0  0  0  0  0  0
  -27.4502  -19.9081   18.5201 C   0  0  0  0  0  0  0  0  0  0  0  0
  -20.6833  -16.7689   22.6936 C   0  0  0  0  0  0  0  0  0  0  0  0
  -23.5247  -24.0045   20.2327 C   0  0  0  0  0  0  0  0  0  0  0  0
  -21.5951  -17.6352   22.0567 C   0  0  0  0  0  0  0  0  0  0  0  0
  -22.6608  -24.5860   21.1719 C   0  0  0  0  0  0  0  0  0  0  0  0
  -25.6393  -30.3845   21.9155 C   0  0  0  0  0  0  0  0  0  0  0  0
  -24.8531  -31.5194   21.7507 C   0  0  0  0  0  0  0  0  0  0  0  0
  -29.0742  -15.6020   20.9482 C   0  0  0  0  0  0  0  0  0  0  0  0
  -22.1408  -26.3514   19.5839 C   0  0  0  0  0  0  0  0  0  0  0  0
  -29.2218  -13.2913   20.5467 C   0  0  0  0  0  0  0  0  0  0  0  0
  -29.1193  -11.1616   18.7477 C   0  0  0  0  0  0  0  0  0  0  0  0
  -28.0564  -13.0477   19.8200 C   0  0  0  0  0  0  0  0  0  0  0  0
  -28.4500  -19.4983   19.4225 C   0  0  0  0  0  0  0  0  0  0  0  0
  -23.5487  -30.3217   20.1630 C   0  0  0  0  0  0  0  0  0  0  0  0
  -25.3190  -29.2602   21.1717 C   0  0  0  0  0  0  0  0  0  0  0  0
  -27.6757  -21.2516   18.3448 C   0  0  0  0  0  0  0  0  0  0  0  0
  -26.4107  -19.1428   17.8961 C   0  0  0  0  0  0  0  0  0  0  0  0
  -22.4933  -21.1681   21.2990 C   0  0  0  0  0  0  0  0  0  0  0  0
  -23.4655  -22.4870   24.1919 C   0  0  0  0  0  0  0  0  0  0  0  0
  -24.6089  -19.5369   25.4684 C   0  0  0  0  0  0  0  0  0  0  0  0
  -28.8344  -26.3027   20.4158 C   0  0  0  0  0  0  0  0  0  0  0  0
  -19.3294  -17.2442   23.1587 C   0  0  0  0  0  0  0  0  0  0  0  0
  -24.3044  -22.7634   20.5734 C   0  0  0  0  0  0  0  0  0  0  0  0
  -22.4367  -23.9707   22.5268 C   0  0  0  0  0  0  0  0  0  0  0  0
  -18.8782  -18.5251   22.4644 C   0  0  0  0  0  0  0  0  0  0  0  0
  -29.0550  -29.7017   23.4116 C   0  0  0  0  0  0  0  0  0  0  0  0
  -28.1252  -29.2967   24.5562 C   0  0  0  0  0  0  0  0  0  0  0  0
  -31.5838  -24.1437   19.7407 C   0  0  0  0  0  0  0  0  0  0  0  0
  -28.1551  -30.0645   22.2326 C   0  0  0  0  0  0  0  0  0  0  0  0
  -26.7108  -29.3431   23.9887 C   0  0  0  0  0  0  0  0  0  0  0  0
  -19.9897  -19.5627   22.5147 C   0  0  0  0  0  0  0  0  0  0  0  0
  -30.9318  -22.7761   19.5296 C   0  0  0  0  0  0  0  0  0  0  0  0
  -30.8685  -24.9489   20.8232 C   0  0  0  0  0  0  0  0  0  0  0  0
  -28.7635  -23.7353   20.4112 C   0  0  0  0  0  0  0  0  0  0  0  0
  -26.8009  -30.3814   22.8696 C   0  0  0  0  0  0  0  0  0  0  0  0
  -21.2267  -19.0754   21.7497 C   0  0  1  0  0  0  0  0  0  0  0  0
  -23.6992  -21.9585   21.7217 C   0  0  1  0  0  0  0  0  0  0  0  0
  -29.4158  -22.9087   19.2898 C   0  0  2  0  0  0  0  0  0  0  0  0
  -25.1308  -32.7701   22.5174 C   0  0  0  0  0  0  0  0  0  0  0  0
  -25.3906  -17.8956   27.1982 C   0  0  0  0  0  0  0  0  0  0  0  0
  -26.1452  -23.8858   23.7823 C   0  0  0  0  0  0  0  0  0  0  0  0
  -27.1907  -22.1654   25.2708 C   0  0  0  0  0  0  0  0  0  0  0  0
  -25.4276  -23.6841   26.1695 C   0  0  0  0  0  0  0  0  0  0  0  0
  -21.8451  -18.6451   26.0388 C   0  0  0  0  0  0  0  0  0  0  0  0
  -22.4010  -30.2596   19.1871 C   0  0  0  0  0  0  0  0  0  0  0  0
  -26.1279  -28.0113   21.3044 C   0  0  0  0  0  0  0  0  0  0  0  0
  -21.0842  -29.7958   19.8137 C   0  0  0  0  0  0  0  0  0  0  0  0
  -26.7163  -27.5197   19.9777 C   0  0  0  0  0  0  0  0  0  0  0  0
  -21.1388  -28.3689   20.3469 C   0  0  0  0  0  0  0  0  0  1  0  0
  -24.7764  -21.8415   24.5654 C   0  0  1  0  0  0  0  0  0  0  0  0
  -24.2420  -18.7752   26.7292 C   0  0  2  0  0  0  0  0  0  0  0  0
  -25.8707  -22.8864   24.9237 C   0  0  0  0  0  0  0  0  0  0  0  0
  -29.2510  -20.5002   19.7945 N   0  0  0  0  0  0  0  0  0  0  0  0
  -24.2904  -29.1994   20.2965 N   0  0  0  0  0  0  0  0  0  0  0  0
  -28.7549  -21.5530   19.1224 N   0  0  0  0  0  0  0  0  0  0  0  0
  -23.2821  -22.8117   22.8417 N   0  0  0  0  0  0  0  0  0  0  0  0
  -29.4350  -25.0386   20.5355 N   0  0  0  0  0  0  0  0  0  0  0  0
  -27.0541  -22.1926   17.6030 N   0  0  0  0  0  0  0  0  0  0  0  0
  -26.3221  -17.7745   18.1866 N   0  0  0  0  0  0  0  0  0  0  0  0
  -22.3228  -19.9867   21.9950 N   0  0  0  0  0  0  0  0  0  0  0  0
  -24.4764  -20.8989   25.6378 N   0  0  0  0  0  0  0  0  0  0  0  0
  -27.4733  -26.2979   20.1360 N   0  0  0  0  0  0  0  0  0  0  0  0
  -23.0556  -17.9075   26.4834 N   0  3  0  0  0  0  0  0  0  0  0  0
  -25.5950  -19.6537   17.0916 O   0  0  0  0  0  0  0  0  0  0  0  0
  -21.7703  -21.5990   20.4083 O   0  0  0  0  0  0  0  0  0  0  0  0
  -22.6285  -22.7054   25.0722 O   0  0  0  0  0  0  0  0  0  0  0  0
  -24.9797  -18.9797   24.4376 O   0  0  0  0  0  0  0  0  0  0  0  0
  -29.4655  -27.3574   20.5432 O   0  0  0  0  0  0  0  0  0  0  0  0
  -29.2746  -14.3486   21.4394 O   0  0  0  0  0  0  0  0  0  0  0  0
  -21.4641  -27.4899   19.2708 O   0  0  0  0  0  0  0  0  0  1  0  0
  -29.0707  -10.1399   17.8828 F   0  0  0  0  0  0  0  0  0  0  0  0
  -26.9832  -13.8340   19.9809 F   0  0  0  0  0  0  0  0  0  0  0  0
  1  2  1  0  0  0  0
  1  5  2  0  0  0  0
  2  6  2  0  0  0  0
  3  8  2  0  0  0  0
  3 16  1  0  0  0  0
  4  9  1  0  0  0  0
  4 16  2  0  0  0  0
  5 18  1  0  0  0  0
  6 20  1  0  0  0  0
  7 10  2  0  0  0  0
  7 19  1  0  0  0  0
  8 24  1  0  0  0  0
  9 24  2  0  0  0  0
 10 25  1  0  0  0  0
 11 12  2  0  0  0  0
 11 26  1  0  0  0  0
 12 27  1  0  0  0  0
 13 21  1  0  0  0  0
 13 25  2  0  0  0  0
 14 23  2  0  0  0  0
 14 30  1  0  0  0  0
 15 27  2  0  0  0  0
 15 28  1  0  0  0  0
 16 29  1  0  0  0  0
 17 29  1  0  0  0  0
 17 32  2  0  0  0  0
 17 33  1  0  0  0  0
 18 20  2  0  0  0  0
 18 38  1  0  0  0  0
 19 21  2  0  0  0  0
 19 39  1  0  0  0  0
 20 52  1  0  0  0  0
 21 40  1  0  0  0  0
 22 23  1  0  0  0  0
 22 31  2  0  0  0  0
 22 51  1  0  0  0  0
 23 55  1  0  0  0  0
 24 85  1  0  0  0  0
 25 86  1  0  0  0  0
 26 28  2  0  0  0  0
 26 85  1  0  0  0  0
 27 87  1  0  0  0  0
 28 88  1  0  0  0  0
 29 69  2  0  0  0  0
 30 61  1  0  0  0  0
 30 70  2  0  0  0  0
 31 62  1  0  0  0  0
 31 70  1  0  0  0  0
 32 71  1  0  0  0  0
 32 74  1  0  0  0  0
 33 75  1  0  0  0  0
 33 80  2  0  0  0  0
 34 53  1  0  0  0  0
 34 76  1  0  0  0  0
 34 81  2  0  0  0  0
 35 66  1  0  0  0  0
 35 72  1  0  0  0  0
 35 82  2  0  0  0  0
 36 67  1  0  0  0  0
 36 77  1  0  0  0  0
 36 83  2  0  0  0  0
 37 73  1  0  0  0  0
 37 78  1  0  0  0  0
 37 84  2  0  0  0  0
 38 41  1  0  0  0  0
 39 53  1  0  0  0  0
 40 72  1  0  0  0  0
 41 47  1  0  0  0  0
 42 43  1  0  0  0  0
 42 45  1  0  0  0  0
 43 46  1  0  0  0  0
 44 48  1  0  0  0  0
 44 49  1  0  0  0  0
 45 51  1  0  0  0  0
 46 51  1  0  0  0  0
 47 52  1  0  0  0  0
 48 54  1  0  0  0  0
 49 73  1  0  0  0  0
 50 54  1  0  0  0  0
 50 73  1  0  0  0  0
 52 76  1  0  0  0  0
 53 72  1  0  0  0  0
 54 71  1  0  0  0  0
 56 67  1  0  0  0  0
 57 68  1  0  0  0  0
 58 68  1  0  0  0  0
 59 68  1  0  0  0  0
 60 79  1  0  0  0  0
 61 63  1  0  0  0  0
 62 64  1  0  0  0  0
 63 65  1  0  0  0  0
 64 78  1  0  0  0  0
 65 86  1  0  0  0  0
 66 68  1  0  0  0  0
 66 77  1  0  0  0  0
 67 79  1  0  0  0  0
 69 71  1  0  0  0  0
M  CHG  1  79   1
M  ISO  4  37 100  65 101  78 100  86 101
M  END
> <Batch ID>
0123

> <Smiles>
CNC(C)C(=O)NC(C(=O)N1Cc2cc([101O:1][101CH2:1]CCc3cc(C)c(C4CCCC4)c(CC[100NH:0][100C:0](=O)N4CCCC(n5nc(-c6ccc(Oc7ccc(F)cc7F)cc6)c(C(N)=O)c5N)C4)n3)ccc2CC1C(=O)NC1CCCc2ccccc21)C(C)(C)C

> <Shape>
0.208

> <Color>
0.052

> <Negative vol penalty>
0.000

$$$$

  -OEChem-04052320303D

 84 92  0     1  0  0  0  0  0999 V2000
  -18.3839  -32.9710   21.9407 C   0  0  0  0  0  0  0  0  0  0  0  0
  -19.6790  -32.9119   21.4362 C   0  0  0  0  0  0  0  0  0  0  0  0
  -26.0869  -12.9767   21.4982 C   0  0  0  0  0  0  0  0  0  0  0  0
  -26.0291  -13.4377   19.1273 C   0  0  0  0  0  0  0  0  0  0  0  0
  -18.0051  -32.1293   22.9857 C   0  0  0  0  0  0  0  0  0  0  0  0
  -20.5965  -32.0119   21.9772 C   0  0  0  0  0  0  0  0  0  0  0  0
  -25.0216  -29.0190   18.9827 C   0  0  0  0  0  0  0  0  0  0  0  0
  -24.9062  -12.2428   21.3843 C   0  0  0  0  0  0  0  0  0  0  0  0
  -24.8485  -12.7038   19.0133 C   0  0  0  0  0  0  0  0  0  0  0  0
  -26.3872  -29.2611   18.8404 C   0  0  0  0  0  0  0  0  0  0  0  0
  -23.9798   -9.1595   20.3507 C   0  0  0  0  0  0  0  0  0  0  0  0
  -23.9173   -7.9271   21.0010 C   0  0  0  0  0  0  0  0  0  0  0  0
  -26.8399  -27.7412   20.6581 C   0  0  0  0  0  0  0  0  0  0  0  0
  -31.4164  -24.2474   17.7167 C   0  0  0  0  0  0  0  0  0  0  0  0
  -22.0396   -8.7100   22.3043 C   0  0  0  0  0  0  0  0  0  0  0  0
  -32.8545  -24.6506   19.4016 C   0  0  0  0  0  0  0  0  0  0  0  0
  -26.6483  -13.5743   20.3697 C   0  0  0  0  0  0  0  0  0  0  0  0
  -29.1842  -13.8510   20.3609 C   0  0  0  0  0  0  0  0  0  0  0  0
  -18.9155  -31.2118   23.5333 C   0  0  0  0  0  0  0  0  0  0  0  0
  -24.5534  -28.1430   19.9726 C   0  0  0  0  0  0  0  0  0  0  0  0
  -20.2299  -31.1581   23.0314 C   0  0  0  0  0  0  0  0  0  0  0  0
  -25.4681  -27.4877   20.8093 C   0  0  0  0  0  0  0  0  0  0  0  0
  -32.1027  -25.2648   18.4244 C   0  0  0  0  0  0  0  0  0  0  0  0
  -24.2870  -12.1063   20.1418 C   0  0  0  0  0  0  0  0  0  0  0  0
  -27.2964  -28.6244   19.6800 C   0  0  0  0  0  0  0  0  0  0  0  0
  -23.0722  -10.1672   20.6773 C   0  0  0  0  0  0  0  0  0  0  0  0
  -22.9472   -7.7023   21.9777 C   0  0  0  0  0  0  0  0  0  0  0  0
  -22.1022   -9.9424   21.6540 C   0  0  0  0  0  0  0  0  0  0  0  0
  -27.8676  -14.3330   20.4869 C   0  0  0  0  0  0  0  0  0  0  0  0
  -31.7695  -23.0425   18.2830 C   0  0  0  0  0  0  0  0  0  0  0  0
  -29.9749  -14.9570   20.5558 C   0  0  0  0  0  0  0  0  0  0  0  0
  -29.6508  -12.5223   20.0916 C   0  0  0  0  0  0  0  0  0  0  0  0
  -22.6742  -28.4348   22.5196 C   0  0  0  0  0  0  0  0  0  0  0  0
  -23.0075  -25.2108   22.6504 C   0  0  0  0  0  0  0  0  0  0  0  0
  -24.8539  -22.4543   21.8511 C   0  0  0  0  0  0  0  0  0  0  0  0
  -29.0274  -20.8250   19.8346 C   0  0  0  0  0  0  0  0  0  0  0  0
  -18.4739  -30.3555   24.6936 C   0  0  0  0  0  0  0  0  0  0  0  0
  -23.0790  -27.8720   20.0957 C   0  0  0  0  0  0  0  0  0  0  0  0
  -25.0181  -26.5227   21.8745 C   0  0  0  0  0  0  0  0  0  0  0  0
  -19.3960  -29.1685   24.9604 C   0  0  0  0  0  0  0  0  0  0  0  0
  -30.0277  -19.1694   22.8238 C   0  0  0  0  0  0  0  0  0  0  0  0
  -20.8553  -29.6125   24.9459 C   0  0  0  0  0  0  0  0  0  0  0  0
  -29.7063  -17.6987   22.5524 C   0  0  0  0  0  0  0  0  0  0  0  0
  -28.9870  -20.0984   22.2025 C   0  0  0  0  0  0  0  0  0  0  0  0
  -28.4272  -18.4156   20.4913 C   0  0  0  0  0  0  0  0  0  0  0  0
  -21.2465  -30.1779   23.5752 C   0  0  1  0  0  0  0  0  0  0  0  0
  -22.6795  -27.3554   21.4744 C   0  0  1  0  0  0  0  0  0  0  0  0
  -29.4789  -17.4423   21.0505 C   0  0  2  0  0  0  0  0  0  0  0  0
  -24.8909  -19.9603   22.1267 C   0  0  0  0  0  0  0  0  0  0  0  0
  -23.9072  -25.5467   25.5465 C   0  0  0  0  0  0  0  0  0  0  0  0
  -24.8169  -23.2158   25.4611 C   0  0  0  0  0  0  0  0  0  0  0  0
  -22.3739  -23.6116   25.1482 C   0  0  0  0  0  0  0  0  0  0  0  0
  -33.2638  -22.3162   20.1684 C   0  0  0  0  0  0  0  0  0  0  0  0
  -24.7424  -22.0131   18.9267 C   0  0  0  0  0  0  0  0  0  0  0  0
  -32.0260  -26.7396   18.1595 C   0  0  0  0  0  0  0  0  0  0  0  0
  -30.4716  -21.4127   16.9101 C   0  0  0  0  0  0  0  0  0  0  0  0
  -29.0386  -21.3978   17.4199 C   0  0  0  0  0  0  0  0  0  0  0  0
  -30.5505  -28.7541   18.1006 C   0  0  0  0  0  0  0  0  0  0  0  0
  -29.1023  -29.1812   18.2362 C   0  0  0  0  0  0  0  0  0  1  0  0
  -23.9807  -24.2625   23.3079 C   0  0  1  0  0  0  0  0  0  0  0  0
  -24.4608  -21.1204   21.2424 C   0  0  2  0  0  0  0  0  0  0  0  0
  -23.7784  -24.1787   24.8472 C   0  0  0  0  0  0  0  0  0  0  0  0
  -27.8204  -15.6432   20.7423 N   0  0  0  0  0  0  0  0  0  0  0  0
  -32.6439  -23.2998   19.3064 N   0  0  0  0  0  0  0  0  0  0  0  0
  -29.1172  -15.9938   20.7784 N   0  0  0  0  0  0  0  0  0  0  0  0
  -23.5659  -26.2956   21.9596 N   0  0  0  0  0  0  0  0  0  0  0  0
  -28.8200  -19.8044   20.7772 N   0  0  0  0  0  0  0  0  0  0  0  0
  -31.3132  -15.1341   20.5569 N   0  0  0  0  0  0  0  0  0  0  0  0
  -28.7037  -11.5040   19.9174 N   0  0  0  0  0  0  0  0  0  0  0  0
  -31.3974  -21.7791   17.9825 N   0  0  0  0  0  0  0  0  0  0  0  0
  -21.4705  -29.1043   22.6309 N   0  0  0  0  0  0  0  0  0  0  0  0
  -23.8375  -22.9860   22.6161 N   0  0  0  0  0  0  0  0  0  0  0  0
  -28.8546  -20.4601   18.5051 N   0  0  0  0  0  0  0  0  0  0  0  0
  -25.0974  -20.9533   19.9054 N   0  3  0  0  0  0  0  0  0  0  0  0
  -30.6490  -27.2859   18.2983 N   0  3  0  0  0  0  0  0  0  0  0  0
  -30.8719  -12.2430   20.0242 O   0  0  0  0  0  0  0  0  0  0  0  0
  -23.6867  -28.6439   23.1775 O   0  0  0  0  0  0  0  0  0  0  0  0
  -21.7966  -24.9931   22.7401 O   0  0  0  0  0  0  0  0  0  0  0  0
  -25.9542  -22.9710   21.6693 O   0  0  0  0  0  0  0  0  0  0  0  0
  -29.3482  -21.9748   20.1540 O   0  0  0  0  0  0  0  0  0  0  0  0
  -23.1351  -11.3900   20.0302 O   0  0  0  0  0  0  0  0  0  0  0  0
  -28.6298  -28.8595   19.5437 O   0  0  0  0  0  0  0  0  0  1  0  0
  -22.8864   -6.5183   22.6010 F   0  0  0  0  0  0  0  0  0  0  0  0
  -21.2268  -10.9063   21.9712 F   0  0  0  0  0  0  0  0  0  0  0  0
  1  2  1  0  0  0  0
  1  5  2  0  0  0  0
  2  6  2  0  0  0  0
  3  8  2  0  0  0  0
  3 17  1  0  0  0  0
  4  9  1  0  0  0  0
  4 17  2  0  0  0  0
  5 19  1  0  0  0  0
  6 21  1  0  0  0  0
  7 10  2  0  0  0  0
  7 20  1  0  0  0  0
  8 24  1  0  0  0  0
  9 24  2  0  0  0  0
 10 25  1  0  0  0  0
 11 12  2  0  0  0  0
 11 26  1  0  0  0  0
 12 27  1  0  0  0  0
 13 22  1  0  0  0  0
 13 25  2  0  0  0  0
 14 23  1  0  0  0  0
 14 30  2  0  0  0  0
 15 27  2  0  0  0  0
 15 28  1  0  0  0  0
 16 23  2  0  0  0  0
 16 64  1  0  0  0  0
 17 29  1  0  0  0  0
 18 29  1  0  0  0  0
 18 31  2  0  0  0  0
 18 32  1  0  0  0  0
 19 21  2  0  0  0  0
 19 37  1  0  0  0  0
 20 22  2  0  0  0  0
 20 38  1  0  0  0  0
 21 46  1  0  0  0  0
 22 39  1  0  0  0  0
 23 55  1  0  0  0  0
 24 81  1  0  0  0  0
 25 82  1  0  0  0  0
 26 28  2  0  0  0  0
 26 81  1  0  0  0  0
 27 83  1  0  0  0  0
 28 84  1  0  0  0  0
 29 63  2  0  0  0  0
 30 64  1  0  0  0  0
 30 70  1  0  0  0  0
 31 65  1  0  0  0  0
 31 68  1  0  0  0  0
 32 69  1  0  0  0  0
 32 76  2  0  0  0  0
 33 47  1  0  0  0  0
 33 71  1  0  0  0  0
 33 77  2  0  0  0  0
 34 60  1  0  0  0  0
 34 66  1  0  0  0  0
 34 78  2  0  0  0  0
 35 61  1  0  0  0  0
 35 72  1  0  0  0  0
 35 79  2  0  0  0  0
 36 67  1  0  0  0  0
 36 73  1  0  0  0  0
 36 80  2  0  0  0  0
 37 40  1  0  0  0  0
 38 47  1  0  0  0  0
 39 66  1  0  0  0  0
 40 42  1  0  0  0  0
 41 43  1  0  0  0  0
 41 44  1  0  0  0  0
 42 46  1  0  0  0  0
 43 48  1  0  0  0  0
 44 67  1  0  0  0  0
 45 48  1  0  0  0  0
 45 67  1  0  0  0  0
 46 71  1  0  0  0  0
 47 66  1  0  0  0  0
 48 65  1  0  0  0  0
 49 61  1  0  0  0  0
 50 62  1  0  0  0  0
 51 62  1  0  0  0  0
 52 62  1  0  0  0  0
 53 64  1  0  0  0  0
 54 74  1  0  0  0  0
 55 75  1  0  0  0  0
 56 57  1  0  0  0  0
 56 70  1  0  0  0  0
 57 73  1  0  0  0  0
 58 59  1  0  0  0  0
 58 75  1  0  0  0  0
 59 82  1  0  0  0  0
 60 62  1  0  0  0  0
 60 72  1  0  0  0  0
 61 74  1  0  0  0  0
 63 65  1  0  0  0  0
M  CHG  2  74   1  75   1
M  ISO  4  36 100  59 101  73 100  82 101
M  END
> <Batch ID>
0123

> <Smiles>
CNC(C)C(=O)NC(C(=O)N1Cc2cc([101O:1][101CH2:1]CNCc3cc(NCC[100NH:0][100C:0](=O)N4CCCC(n5nc(-c6ccc(Oc7ccc(F)cc7F)cc6)c(C(N)=O)c5N)C4)n(C)c3)ccc2CC1C(=O)NC1CCCc2ccccc21)C(C)(C)C

> <Shape>
0.244

> <Color>
0.096

> <Negative vol penalty>
0.000

$$$$

  -OEChem-04052320303D

 85 94  0     1  0  0  0  0  0999 V2000
  -21.6439  -35.5267   23.6582 C   0  0  0  0  0  0  0  0  0  0  0  0
  -21.7217  -34.1953   23.2621 C   0  0  0  0  0  0  0  0  0  0  0  0
  -32.6453  -17.4929   23.5304 C   0  0  0  0  0  0  0  0  0  0  0  0
  -23.3391  -10.1818   22.2344 C   0  0  0  0  0  0  0  0  0  0  0  0
  -23.6074   -9.5595   19.9154 C   0  0  0  0  0  0  0  0  0  0  0  0
  -22.8097  -36.2747   23.8170 C   0  0  0  0  0  0  0  0  0  0  0  0
  -22.9653  -33.6116   23.0234 C   0  0  0  0  0  0  0  0  0  0  0  0
  -25.0996  -27.7967   26.7008 C   0  0  0  0  0  0  0  0  0  0  0  0
  -31.8505  -18.3345   24.3086 C   0  0  0  0  0  0  0  0  0  0  0  0
  -32.0527  -16.6280   22.6104 C   0  0  0  0  0  0  0  0  0  0  0  0
  -22.6049   -9.0178   22.4618 C   0  0  0  0  0  0  0  0  0  0  0  0
  -22.8733   -8.3955   20.1428 C   0  0  0  0  0  0  0  0  0  0  0  0
  -25.4921  -26.5599   27.2131 C   0  0  0  0  0  0  0  0  0  0  0  0
  -19.4544   -7.9163   21.9276 C   0  0  0  0  0  0  0  0  0  0  0  0
  -18.2797   -8.0269   22.6714 C   0  0  0  0  0  0  0  0  0  0  0  0
  -27.5909  -26.7210   26.0227 C   0  0  0  0  0  0  0  0  0  0  0  0
  -29.8704  -17.4462   23.2468 C   0  0  0  0  0  0  0  0  0  0  0  0
  -19.1759   -6.4985   24.3140 C   0  0  0  0  0  0  0  0  0  0  0  0
  -23.8403  -10.4527   20.9611 C   0  0  0  0  0  0  0  0  0  0  0  0
  -24.1638  -12.9824   20.9029 C   0  0  0  0  0  0  0  0  0  0  0  0
  -24.0688  -35.6971   23.5895 C   0  0  0  0  0  0  0  0  0  0  0  0
  -25.9587  -28.5083   25.8588 C   0  0  0  0  0  0  0  0  0  0  0  0
  -24.1490  -34.3530   23.1780 C   0  0  0  0  0  0  0  0  0  0  0  0
  -27.2083  -27.9660   25.5165 C   0  0  0  0  0  0  0  0  0  0  0  0
  -30.4631  -18.3112   24.1668 C   0  0  0  0  0  0  0  0  0  0  0  0
  -30.6653  -16.6047   22.4686 C   0  0  0  0  0  0  0  0  0  0  0  0
  -22.3720   -8.1246   21.4161 C   0  0  0  0  0  0  0  0  0  0  0  0
  -26.7346  -26.0233   26.8747 C   0  0  0  0  0  0  0  0  0  0  0  0
  -20.4899   -7.0967   22.3769 C   0  0  0  0  0  0  0  0  0  0  0  0
  -18.1404   -7.3180   23.8646 C   0  0  0  0  0  0  0  0  0  0  0  0
  -20.3506   -6.3879   23.5701 C   0  0  0  0  0  0  0  0  0  0  0  0
  -24.5983  -11.6552   20.7254 C   0  0  0  0  0  0  0  0  0  0  0  0
  -25.2465  -13.7487   20.5464 C   0  0  0  0  0  0  0  0  0  0  0  0
  -22.8951  -13.4783   21.3501 C   0  0  0  0  0  0  0  0  0  0  0  0
  -26.5358  -31.6075   23.8246 C   0  0  0  0  0  0  0  0  0  0  0  0
  -29.1880  -30.9501   25.2190 C   0  0  0  0  0  0  0  0  0  0  0  0
  -31.7920  -30.1240   27.2619 C   0  0  0  0  0  0  0  0  0  0  0  0
  -30.7073  -14.8275   20.6836 C   0  0  0  0  0  0  0  0  0  0  0  0
  -25.2987  -36.5590   23.7283 C   0  0  0  0  0  0  0  0  0  0  0  0
  -25.5521  -29.8155   25.2346 C   0  0  0  0  0  0  0  0  0  0  0  0
  -28.0853  -28.7510   24.5797 C   0  0  0  0  0  0  0  0  0  0  0  0
  -26.5958  -35.7593   23.8183 C   0  0  0  0  0  0  0  0  0  0  0  0
  -29.5807  -12.4683   18.2666 C   0  0  0  0  0  0  0  0  0  0  0  0
  -26.6301  -34.6750   22.7460 C   0  0  0  0  0  0  0  0  0  0  0  0
  -29.1570  -21.7887   26.5054 C   0  0  0  0  0  0  0  0  0  0  0  0
  -28.1572  -22.7670   24.3984 C   0  0  0  0  0  0  0  0  0  0  0  0
  -28.1483  -12.1556   18.7054 C   0  0  0  0  0  0  0  0  0  0  0  0
  -28.3128  -22.7431   27.3446 C   0  0  0  0  0  0  0  0  0  0  0  0
  -27.3163  -23.7191   25.2435 C   0  0  0  0  0  0  0  0  0  0  0  0
  -30.5086  -12.6722   19.4629 C   0  0  0  0  0  0  0  0  0  0  0  0
  -28.6136  -13.3472   20.8850 C   0  0  0  0  0  0  0  0  0  0  0  0
  -25.4808  -33.6772   22.9336 C   0  0  1  0  0  0  0  0  0  0  0  0
  -26.7257  -30.7984   25.0739 C   0  0  1  0  0  0  0  0  0  0  0  0
  -28.4871  -21.4758   25.1601 C   0  0  0  0  0  0  0  0  0  0  0  0
  -27.6279  -13.1978   19.7147 C   0  0  2  0  0  0  0  0  0  0  0  0
  -27.9840  -24.0242   26.5827 C   0  0  0  0  0  0  0  0  0  1  0  0
  -34.1260  -30.8256   27.8598 C   0  0  0  0  0  0  0  0  0  0  0  0
  -30.2192  -29.7145   22.6279 C   0  0  0  0  0  0  0  0  0  0  0  0
  -32.4867  -29.5748   23.6801 C   0  0  0  0  0  0  0  0  0  0  0  0
  -31.4080  -31.7976   23.3361 C   0  0  0  0  0  0  0  0  0  0  0  0
  -31.0378  -30.6490   30.0752 C   0  0  0  0  0  0  0  0  0  0  0  0
  -29.6043  -19.2212   25.0083 C   0  0  0  0  0  0  0  0  0  0  0  0
  -29.3742  -20.5631   24.3155 C   0  0  0  0  0  0  0  0  0  0  0  0
  -30.5236  -30.2557   25.1340 C   0  0  1  0  0  0  0  0  0  0  0  0
  -32.6484  -30.9638   28.1923 C   0  0  2  0  0  0  0  0  0  0  0  0
  -31.1369  -30.3233   23.7068 C   0  0  0  0  0  0  0  0  0  0  0  0
  -25.8587  -11.5791   20.2899 N   0  0  0  0  0  0  0  0  0  0  0  0
  -26.2254  -12.8681   20.1906 N   0  0  0  0  0  0  0  0  0  0  0  0
  -28.0544  -30.1774   24.9391 N   0  0  0  0  0  0  0  0  0  0  0  0
  -29.9534  -13.6759   20.3734 N   0  0  0  0  0  0  0  0  0  0  0  0
  -25.4472  -15.0830   20.5056 N   0  0  0  0  0  0  0  0  0  0  0  0
  -21.9029  -13.7339   20.3938 N   0  0  0  0  0  0  0  0  0  0  0  0
  -30.0637  -15.7264   21.5335 N   0  0  0  0  0  0  0  0  0  0  0  0
  -25.7839  -32.7527   24.0049 N   0  0  0  0  0  0  0  0  0  0  0  0
  -31.3591  -30.8494   26.1722 N   0  0  0  0  0  0  0  0  0  0  0  0
  -32.4435  -30.5421   29.6069 N   0  3  0  0  0  0  0  0  0  0  0  0
  -22.6541  -13.7041   22.5603 O   0  0  0  0  0  0  0  0  0  0  0  0
  -27.0355  -31.2229   22.7738 O   0  0  0  0  0  0  0  0  0  0  0  0
  -29.1482  -32.1465   25.5195 O   0  0  0  0  0  0  0  0  0  0  0  0
  -31.5359  -28.9415   27.4783 O   0  0  0  0  0  0  0  0  0  0  0  0
  -31.8296  -15.0162   20.2072 O   0  0  0  0  0  0  0  0  0  0  0  0
  -21.6559   -6.9886   21.6377 O   0  0  0  0  0  0  0  0  0  0  0  0
  -27.1134  -24.8176   27.3820 O   0  0  0  0  0  0  0  0  0  1  0  0
  -17.0128   -7.4255   24.5796 F   0  0  0  0  0  0  0  0  0  0  0  0
  -21.3424   -5.5999   24.0074 F   0  0  0  0  0  0  0  0  0  0  0  0
  1  2  1  0  0  0  0
  1  6  2  0  0  0  0
  2  7  2  0  0  0  0
  3  9  2  0  0  0  0
  3 10  1  0  0  0  0
  4 11  2  0  0  0  0
  4 19  1  0  0  0  0
  5 12  1  0  0  0  0
  5 19  2  0  0  0  0
  6 21  1  0  0  0  0
  7 23  1  0  0  0  0
  8 13  2  0  0  0  0
  8 22  1  0  0  0  0
  9 25  1  0  0  0  0
 10 26  2  0  0  0  0
 11 27  1  0  0  0  0
 12 27  2  0  0  0  0
 13 28  1  0  0  0  0
 14 15  2  0  0  0  0
 14 29  1  0  0  0  0
 15 30  1  0  0  0  0
 16 24  1  0  0  0  0
 16 28  2  0  0  0  0
 17 25  2  0  0  0  0
 17 26  1  0  0  0  0
 18 30  2  0  0  0  0
 18 31  1  0  0  0  0
 19 32  1  0  0  0  0
 20 32  1  0  0  0  0
 20 33  2  0  0  0  0
 20 34  1  0  0  0  0
 21 23  2  0  0  0  0
 21 39  1  0  0  0  0
 22 24  2  0  0  0  0
 22 40  1  0  0  0  0
 23 52  1  0  0  0  0
 24 41  1  0  0  0  0
 25 62  1  0  0  0  0
 26 73  1  0  0  0  0
 27 82  1  0  0  0  0
 28 83  1  0  0  0  0
 29 31  2  0  0  0  0
 29 82  1  0  0  0  0
 30 84  1  0  0  0  0
 31 85  1  0  0  0  0
 32 67  2  0  0  0  0
 33 68  1  0  0  0  0
 33 71  1  0  0  0  0
 34 72  1  0  0  0  0
 34 77  2  0  0  0  0
 35 53  1  0  0  0  0
 35 74  1  0  0  0  0
 35 78  2  0  0  0  0
 36 64  1  0  0  0  0
 36 69  1  0  0  0  0
 36 79  2  0  0  0  0
 37 65  1  0  0  0  0
 37 75  1  0  0  0  0
 37 80  2  0  0  0  0
 38 70  1  0  0  0  0
 38 73  1  0  0  0  0
 38 81  2  0  0  0  0
 39 42  1  0  0  0  0
 40 53  1  0  0  0  0
 41 69  1  0  0  0  0
 42 44  1  0  0  0  0
 43 47  1  0  0  0  0
 43 50  1  0  0  0  0
 44 52  1  0  0  0  0
 45 48  1  0  0  0  0
 45 54  1  0  0  0  0
 46 49  1  0  0  0  0
 46 54  1  0  0  0  0
 47 55  1  0  0  0  0
 48 56  1  0  0  0  0
 49 56  1  0  0  0  0
 50 70  1  0  0  0  0
 51 55  1  0  0  0  0
 51 70  1  0  0  0  0
 52 74  1  0  0  0  0
 53 69  1  0  0  0  0
 54 63  1  0  0  0  0
 55 68  1  0  0  0  0
 56 83  1  0  0  0  0
 57 65  1  0  0  0  0
 58 66  1  0  0  0  0
 59 66  1  0  0  0  0
 60 66  1  0  0  0  0
 61 76  1  0  0  0  0
 62 63  1  0  0  0  0
 64 66  1  0  0  0  0
 64 75  1  0  0  0  0
 65 76  1  0  0  0  0
 67 68  1  0  0  0  0
M  CHG  1  76   1
M  ISO  4  38 100  56 101  73 100  83 101
M  END
> <Batch ID>
0123

> <Smiles>
CNC(C)C(=O)NC(C(=O)N1Cc2cc([101O:1][101CH:1]3CCC(CCc4cccc([100NH:0][100C:0](=O)N5CCCC(n6nc(-c7ccc(Oc8ccc(F)cc8F)cc7)c(C(N)=O)c6N)C5)c4)CC3)ccc2CC1C(=O)NC1CCCc2ccccc21)C(C)(C)C

> <Shape>
0.243

> <Color>
0.168

> <Negative vol penalty>
0.000

$$$$

  -OEChem-04052320303D

 82 90  0     1  0  0  0  0  0999 V2000
  -27.3701  -21.4103   27.1531 C   0  0  0  0  0  0  0  0  0  0  0  0
  -27.0107  -22.6568   26.6507 C   0  0  0  0  0  0  0  0  0  0  0  0
  -29.6811  -17.3901   19.4348 C   0  0  0  0  0  0  0  0  0  0  0  0
  -27.7985  -17.9263   20.8510 C   0  0  0  0  0  0  0  0  0  0  0  0
  -27.0934  -20.2578   26.4188 C   0  0  0  0  0  0  0  0  0  0  0  0
  -26.3753  -22.7517   25.4130 C   0  0  0  0  0  0  0  0  0  0  0  0
  -22.0882  -26.8074   23.7768 C   0  0  0  0  0  0  0  0  0  0  0  0
  -29.6905  -16.0899   19.9396 C   0  0  0  0  0  0  0  0  0  0  0  0
  -27.8079  -16.6260   21.3558 C   0  0  0  0  0  0  0  0  0  0  0  0
  -22.1519  -28.0025   23.0616 C   0  0  0  0  0  0  0  0  0  0  0  0
  -27.9529  -13.2261   19.4784 C   0  0  0  0  0  0  0  0  0  0  0  0
  -28.0883  -12.1782   18.5678 C   0  0  0  0  0  0  0  0  0  0  0  0
  -21.5455  -26.8223   21.0470 C   0  0  0  0  0  0  0  0  0  0  0  0
  -24.7374  -28.3160   19.4019 C   0  0  0  0  0  0  0  0  0  0  0  0
  -27.1088  -28.5322   20.8552 C   0  0  0  0  0  0  0  0  0  0  0  0
  -30.1155  -11.4752   19.6783 C   0  0  0  0  0  0  0  0  0  0  0  0
  -28.7351  -18.3084   19.8905 C   0  0  0  0  0  0  0  0  0  0  0  0
  -28.0163  -20.1240   18.2491 C   0  0  0  0  0  0  0  0  0  0  0  0
  -26.4457  -20.3379   25.1759 C   0  0  0  0  0  0  0  0  0  0  0  0
  -21.7628  -25.6069   23.1292 C   0  0  0  0  0  0  0  0  0  0  0  0
  -26.0910  -21.5993   24.6608 C   0  0  0  0  0  0  0  0  0  0  0  0
  -21.4759  -25.6138   21.7567 C   0  0  0  0  0  0  0  0  0  0  0  0
  -24.9443  -29.4117   20.2399 C   0  0  0  0  0  0  0  0  0  0  0  0
  -25.7161  -27.3284   19.2906 C   0  0  0  0  0  0  0  0  0  0  0  0
  -26.1300  -29.5198   20.9665 C   0  0  0  0  0  0  0  0  0  0  0  0
  -26.9018  -27.4365   20.0172 C   0  0  0  0  0  0  0  0  0  0  0  0
  -28.7539  -15.7078   20.9000 C   0  0  0  0  0  0  0  0  0  0  0  0
  -21.8833  -28.0097   21.6960 C   0  0  0  0  0  0  0  0  0  0  0  0
  -28.8989  -13.3986   20.4889 C   0  0  0  0  0  0  0  0  0  0  0  0
  -29.1696  -11.3027   18.6678 C   0  0  0  0  0  0  0  0  0  0  0  0
  -29.9802  -12.5231   20.5889 C   0  0  0  0  0  0  0  0  0  0  0  0
  -28.7252  -19.6519   19.3699 C   0  0  0  0  0  0  0  0  0  0  0  0
  -28.3392  -21.4570   18.1751 C   0  0  0  0  0  0  0  0  0  0  0  0
  -27.1438  -19.4206   17.3548 C   0  0  0  0  0  0  0  0  0  0  0  0
  -23.2578  -22.8444   22.6420 C   0  0  0  0  0  0  0  0  0  0  0  0
  -20.3961  -21.9625   21.3947 C   0  0  0  0  0  0  0  0  0  0  0  0
  -17.4485  -22.9053   19.9561 C   0  0  0  0  0  0  0  0  0  0  0  0
  -29.1360  -26.4164   20.5777 C   0  0  0  0  0  0  0  0  0  0  0  0
  -26.2102  -19.0681   24.3970 C   0  0  0  0  0  0  0  0  0  0  0  0
  -21.6722  -24.3306   23.9199 C   0  0  0  0  0  0  0  0  0  0  0  0
  -21.1020  -24.3554   21.0184 C   0  0  0  0  0  0  0  0  0  0  0  0
  -25.1977  -19.2265   23.2656 C   0  0  0  0  0  0  0  0  0  0  0  0
  -31.8672  -24.1326   20.6278 C   0  0  0  0  0  0  0  0  0  0  0  0
  -25.4919  -20.4870   22.4586 C   0  0  0  0  0  0  0  0  0  0  0  0
  -31.2349  -22.8022   20.2128 C   0  0  0  0  0  0  0  0  0  0  0  0
  -30.9255  -24.9602   21.5008 C   0  0  0  0  0  0  0  0  0  0  0  0
  -28.9563  -23.8512   20.5202 C   0  0  0  0  0  0  0  0  0  0  0  0
  -25.3781  -21.7413   23.3335 C   0  0  1  0  0  0  0  0  0  0  0  0
  -21.8339  -23.0816   23.0590 C   0  0  1  0  0  0  0  0  0  0  0  0
  -29.8424  -23.0112   19.5860 C   0  0  2  0  0  0  0  0  0  0  0  0
  -25.4677  -26.1657   18.3853 C   0  0  0  0  0  0  0  0  0  0  0  0
  -26.3736  -30.6837   21.8701 C   0  0  0  0  0  0  0  0  0  0  0  0
  -15.3255  -21.9575   19.0118 C   0  0  0  0  0  0  0  0  0  0  0  0
  -22.0778  -31.4111   21.8419 C   0  0  0  0  0  0  0  0  0  0  0  0
  -21.8949  -21.1248   18.8725 C   0  0  0  0  0  0  0  0  0  0  0  0
  -19.7028  -21.0955   17.6634 C   0  0  0  0  0  0  0  0  0  0  0  0
  -20.0870  -19.5498   19.5833 C   0  0  0  0  0  0  0  0  0  0  0  0
  -15.7897  -24.3219   21.9563 C   0  0  0  0  0  0  0  0  0  0  0  0
  -23.8699  -30.4683   20.3444 C   0  0  0  0  0  0  0  0  0  0  0  0
  -19.7642  -22.0181   20.0248 C   0  0  1  0  0  0  0  0  0  0  0  0
  -16.0124  -22.5109   20.2506 C   0  0  2  0  0  0  0  0  0  0  0  0
  -22.8639  -30.1634   21.4594 C   0  0  2  0  0  0  0  0  0  1  0  0
  -20.3711  -20.9706   19.0492 C   0  0  0  0  0  0  0  0  0  0  0  0
  -29.4444  -20.6072   19.9650 N   0  0  0  0  0  0  0  0  0  0  0  0
  -29.1891  -21.6929   19.2153 N   0  0  0  0  0  0  0  0  0  0  0  0
  -21.0329  -23.1318   21.8342 N   0  0  0  0  0  0  0  0  0  0  0  0
  -29.6278  -25.1204   20.8411 N   0  0  0  0  0  0  0  0  0  0  0  0
  -27.9762  -22.4385   17.3222 N   0  0  0  0  0  0  0  0  0  0  0  0
  -26.9214  -18.0545   17.5752 N   0  0  0  0  0  0  0  0  0  0  0  0
  -27.9080  -26.4438   19.9175 N   0  0  0  0  0  0  0  0  0  0  0  0
  -23.9886  -22.0894   23.5394 N   0  0  0  0  0  0  0  0  0  0  0  0
  -18.3269  -21.8790   20.2323 N   0  0  0  0  0  0  0  0  0  0  0  0
  -15.2388  -23.6914   20.7292 N   0  3  0  0  0  0  0  0  0  0  0  0
  -26.5910  -19.9831   16.3793 O   0  0  0  0  0  0  0  0  0  0  0  0
  -23.6629  -23.3105   21.5835 O   0  0  0  0  0  0  0  0  0  0  0  0
  -20.3211  -20.9224   22.0535 O   0  0  0  0  0  0  0  0  0  0  0  0
  -17.7595  -24.0118   19.5209 O   0  0  0  0  0  0  0  0  0  0  0  0
  -29.7712  -27.4272   20.8887 O   0  0  0  0  0  0  0  0  0  0  0  0
  -28.7627  -14.4390   21.3926 O   0  0  0  0  0  0  0  0  0  0  0  0
  -21.9454  -29.1747   20.9955 O   0  0  0  0  0  0  0  0  0  1  0  0
  -29.2986  -10.2955   17.7942 F   0  0  0  0  0  0  0  0  0  0  0  0
  -30.8915  -12.6831   21.5582 F   0  0  0  0  0  0  0  0  0  0  0  0
  1  2  1  0  0  0  0
  1  5  2  0  0  0  0
  2  6  2  0  0  0  0
  3  8  2  0  0  0  0
  3 17  1  0  0  0  0
  4  9  1  0  0  0  0
  4 17  2  0  0  0  0
  5 19  1  0  0  0  0
  6 21  1  0  0  0  0
  7 10  2  0  0  0  0
  7 20  1  0  0  0  0
  8 27  1  0  0  0  0
  9 27  2  0  0  0  0
 10 28  1  0  0  0  0
 11 12  2  0  0  0  0
 11 29  1  0  0  0  0
 12 30  1  0  0  0  0
 13 22  1  0  0  0  0
 13 28  2  0  0  0  0
 14 23  1  0  0  0  0
 14 24  2  0  0  0  0
 15 25  1  0  0  0  0
 15 26  2  0  0  0  0
 16 30  2  0  0  0  0
 16 31  1  0  0  0  0
 17 32  1  0  0  0  0
 18 32  1  0  0  0  0
 18 33  2  0  0  0  0
 18 34  1  0  0  0  0
 19 21  2  0  0  0  0
 19 39  1  0  0  0  0
 20 22  2  0  0  0  0
 20 40  1  0  0  0  0
 21 48  1  0  0  0  0
 22 41  1  0  0  0  0
 23 25  2  0  0  0  0
 23 59  1  0  0  0  0
 24 26  1  0  0  0  0
 24 51  1  0  0  0  0
 25 52  1  0  0  0  0
 26 70  1  0  0  0  0
 27 79  1  0  0  0  0
 28 80  1  0  0  0  0
 29 31  2  0  0  0  0
 29 79  1  0  0  0  0
 30 81  1  0  0  0  0
 31 82  1  0  0  0  0
 32 64  2  0  0  0  0
 33 65  1  0  0  0  0
 33 68  1  0  0  0  0
 34 69  1  0  0  0  0
 34 74  2  0  0  0  0
 35 49  1  0  0  0  0
 35 71  1  0  0  0  0
 35 75  2  0  0  0  0
 36 60  1  0  0  0  0
 36 66  1  0  0  0  0
 36 76  2  0  0  0  0
 37 61  1  0  0  0  0
 37 72  1  0  0  0  0
 37 77  2  0  0  0  0
 38 67  1  0  0  0  0
 38 70  1  0  0  0  0
 38 78  2  0  0  0  0
 39 42  1  0  0  0  0
 40 49  1  0  0  0  0
 41 66  1  0  0  0  0
 42 44  1  0  0  0  0
 43 45  1  0  0  0  0
 43 46  1  0  0  0  0
 44 48  1  0  0  0  0
 45 50  1  0  0  0  0
 46 67  1  0  0  0  0
 47 50  1  0  0  0  0
 47 67  1  0  0  0  0
 48 71  1  0  0  0  0
 49 66  1  0  0  0  0
 50 65  1  0  0  0  0
 53 61  1  0  0  0  0
 54 62  1  0  0  0  0
 55 63  1  0  0  0  0
 56 63  1  0  0  0  0
 57 63  1  0  0  0  0
 58 73  1  0  0  0  0
 59 62  1  0  0  0  0
 60 63  1  0  0  0  0
 60 72  1  0  0  0  0
 61 73  1  0  0  0  0
 62 80  1  0  0  0  0
 64 65  1  0  0  0  0
M  CHG  1  73   1
M  ISO  4  38 100  62 101  70 100  80 101
M  END
> <Batch ID>
0123

> <Smiles>
CNC(C)C(=O)NC(C(=O)N1Cc2cc([101O:1][101CH:1](C)Cc3cc(C)c([100NH:0][100C:0](=O)N4CCCC(n5nc(-c6ccc(Oc7ccc(F)cc7F)cc6)c(C(N)=O)c5N)C4)cc3C)ccc2CC1C(=O)NC1CCCc2ccccc21)C(C)(C)C

> <Shape>
0.215

> <Color>
0.055

> <Negative vol penalty>
0.000

$$$$

  -OEChem-04052320303D

 79 87  0     1  0  0  0  0  0999 V2000
  -24.7487  -32.9779   13.9197 C   0  0  0  0  0  0  0  0  0  0  0  0
  -25.4598  -32.0434   14.6655 C   0  0  0  0  0  0  0  0  0  0  0  0
  -23.5260   -9.6705   22.5241 C   0  0  0  0  0  0  0  0  0  0  0  0
  -24.3915   -9.0709   20.3496 C   0  0  0  0  0  0  0  0  0  0  0  0
  -24.4256  -34.2139   14.4782 C   0  0  0  0  0  0  0  0  0  0  0  0
  -25.8493  -32.3447   15.9701 C   0  0  0  0  0  0  0  0  0  0  0  0
  -24.9915  -28.5267   19.1845 C   0  0  0  0  0  0  0  0  0  0  0  0
  -22.6504   -8.5859   22.4747 C   0  0  0  0  0  0  0  0  0  0  0  0
  -23.5159   -7.9862   20.3002 C   0  0  0  0  0  0  0  0  0  0  0  0
  -25.8951  -27.4651   19.1677 C   0  0  0  0  0  0  0  0  0  0  0  0
  -22.7967   -5.2424   22.9572 C   0  0  0  0  0  0  0  0  0  0  0  0
  -22.6820   -4.4494   24.0989 C   0  0  0  0  0  0  0  0  0  0  0  0
  -26.9881  -28.3723   21.1174 C   0  0  0  0  0  0  0  0  0  0  0  0
  -20.3257   -4.9687   24.2230 C   0  0  0  0  0  0  0  0  0  0  0  0
  -24.3965   -9.9131   21.4615 C   0  0  0  0  0  0  0  0  0  0  0  0
  -26.3053  -11.2733   22.4686 C   0  0  0  0  0  0  0  0  0  0  0  0
  -24.8029  -34.5268   15.7937 C   0  0  0  0  0  0  0  0  0  0  0  0
  -25.0864  -29.5266   20.1630 C   0  0  0  0  0  0  0  0  0  0  0  0
  -25.5321  -33.5865   16.5463 C   0  0  0  0  0  0  0  0  0  0  0  0
  -26.0830  -29.4442   21.1460 C   0  0  0  0  0  0  0  0  0  0  0  0
  -22.6453   -7.7437   21.3628 C   0  0  0  0  0  0  0  0  0  0  0  0
  -26.8953  -27.3892   20.1325 C   0  0  0  0  0  0  0  0  0  0  0  0
  -21.6759   -5.8987   22.4484 C   0  0  0  0  0  0  0  0  0  0  0  0
  -21.4466   -4.3125   24.7318 C   0  0  0  0  0  0  0  0  0  0  0  0
  -20.4404   -5.7618   23.0813 C   0  0  0  0  0  0  0  0  0  0  0  0
  -25.3009  -11.0337   21.5117 C   0  0  0  0  0  0  0  0  0  0  0  0
  -26.8787  -12.4577   22.0752 C   0  0  0  0  0  0  0  0  0  0  0  0
  -26.6860  -10.4948   23.6108 C   0  0  0  0  0  0  0  0  0  0  0  0
  -25.6067  -32.6621   20.1231 C   0  0  0  0  0  0  0  0  0  0  0  0
  -24.9902  -32.4113   23.2979 C   0  0  0  0  0  0  0  0  0  0  0  0
  -25.8150  -30.1296   25.9683 C   0  0  0  0  0  0  0  0  0  0  0  0
  -26.3275  -17.6676   20.4273 C   0  0  0  0  0  0  0  0  0  0  0  0
  -24.4720  -35.8938   16.3381 C   0  0  0  0  0  0  0  0  0  0  0  0
  -24.0875  -30.6511   20.1834 C   0  0  0  0  0  0  0  0  0  0  0  0
  -26.2151  -30.4813   22.2302 C   0  0  0  0  0  0  0  0  0  0  0  0
  -24.5963  -35.9913   17.8564 C   0  0  0  0  0  0  0  0  0  0  0  0
  -26.3793  -15.1112   17.8107 C   0  0  0  0  0  0  0  0  0  0  0  0
  -25.9019  -35.3582   18.3268 C   0  0  0  0  0  0  0  0  0  0  0  0
  -26.1525  -13.8412   18.6284 C   0  0  0  0  0  0  0  0  0  0  0  0
  -25.6049  -16.2980   18.3808 C   0  0  0  0  0  0  0  0  0  0  0  0
  -26.3487  -22.3007   20.4292 C   0  0  0  0  0  0  0  0  0  0  0  0
  -28.6576  -21.6542   20.0459 C   0  0  0  0  0  0  0  0  0  0  0  0
  -25.6526  -15.2915   20.6389 C   0  0  0  0  0  0  0  0  0  0  0  0
  -25.8489  -20.9532   19.9123 C   0  0  0  0  0  0  0  0  0  0  0  0
  -28.2241  -20.2880   19.5181 C   0  0  0  0  0  0  0  0  0  0  0  0
  -25.9507  -33.8668   17.9733 C   0  0  1  0  0  0  0  0  0  0  0  0
  -24.5947  -31.8876   20.9190 C   0  0  1  0  0  0  0  0  0  0  0  0
  -26.4509  -14.0855   20.1170 C   0  0  1  0  0  0  0  0  0  0  0  0
  -24.5940  -29.5977   28.0952 C   0  0  0  0  0  0  0  0  0  0  0  0
  -26.7948  -34.5430   24.5264 C   0  0  0  0  0  0  0  0  0  0  0  0
  -26.9620  -33.1192   26.5790 C   0  0  0  0  0  0  0  0  0  0  0  0
  -24.7470  -34.0142   25.8610 C   0  0  0  0  0  0  0  0  0  0  0  0
  -25.7587  -27.2362   25.3488 C   0  0  0  0  0  0  0  0  0  0  0  0
  -28.0711  -23.9808   20.2795 C   0  0  0  0  0  0  0  0  0  0  0  0
  -27.3130  -25.1098   19.5982 C   0  0  0  0  0  0  0  0  0  1  0  0
  -25.8214  -32.1517   24.5311 C   0  0  1  0  0  0  0  0  0  0  0  0
  -24.8710  -29.1654   26.6637 C   0  0  2  0  0  0  0  0  0  0  0  0
  -26.0888  -33.4467   25.3489 C   0  0  0  0  0  0  0  0  0  0  0  0
  -25.2372  -11.9892   20.5807 N   0  0  0  0  0  0  0  0  0  0  0  0
  -26.2088  -12.8408   20.9506 N   0  0  0  0  0  0  0  0  0  0  0  0
  -25.2186  -31.5646   22.2039 N   0  0  0  0  0  0  0  0  0  0  0  0
  -25.8931  -16.4796   19.8113 N   0  0  0  0  0  0  0  0  0  0  0  0
  -27.6253  -22.6730   19.8003 N   0  0  0  0  0  0  0  0  0  0  0  0
  -27.8855  -13.1986   22.5850 N   0  0  0  0  0  0  0  0  0  0  0  0
  -27.6713   -9.5110   23.4506 N   0  0  0  0  0  0  0  0  0  0  0  0
  -25.1422  -33.1015   18.8980 N   0  0  0  0  0  0  0  0  0  0  0  0
  -25.1295  -31.1061   25.2770 N   0  0  0  0  0  0  0  0  0  0  0  0
  -26.4917  -18.7541   19.5829 N   0  0  0  0  0  0  0  0  0  0  0  0
  -26.9183  -19.9382   20.1545 N   0  3  0  0  0  0  0  0  0  0  0  0
  -25.4578  -27.7957   26.6917 N   0  3  0  0  0  0  0  0  0  0  0  0
  -26.1560  -10.6553   24.7364 O   0  0  0  0  0  0  0  0  0  0  0  0
  -26.7256  -32.8487   20.5866 O   0  0  0  0  0  0  0  0  0  0  0  0
  -24.1637  -33.3269   23.3074 O   0  0  0  0  0  0  0  0  0  0  0  0
  -27.0380  -30.0291   26.0349 O   0  0  0  0  0  0  0  0  0  0  0  0
  -26.5504  -17.7440   21.6410 O   0  0  0  0  0  0  0  0  0  0  0  0
  -21.7912   -6.6851   21.3144 O   0  0  0  0  0  0  0  0  0  0  0  0
  -27.7789  -26.3544   20.1180 O   0  0  0  0  0  0  0  0  0  1  0  0
  -21.3363   -3.5496   25.8272 F   0  0  0  0  0  0  0  0  0  0  0  0
  -19.3599   -6.3889   22.5964 F   0  0  0  0  0  0  0  0  0  0  0  0
  1  2  1  0  0  0  0
  1  5  2  0  0  0  0
  2  6  2  0  0  0  0
  3  8  2  0  0  0  0
  3 15  1  0  0  0  0
  4  9  1  0  0  0  0
  4 15  2  0  0  0  0
  5 17  1  0  0  0  0
  6 19  1  0  0  0  0
  7 10  2  0  0  0  0
  7 18  1  0  0  0  0
  8 21  1  0  0  0  0
  9 21  2  0  0  0  0
 10 22  1  0  0  0  0
 11 12  2  0  0  0  0
 11 23  1  0  0  0  0
 12 24  1  0  0  0  0
 13 20  1  0  0  0  0
 13 22  2  0  0  0  0
 14 24  2  0  0  0  0
 14 25  1  0  0  0  0
 15 26  1  0  0  0  0
 16 26  1  0  0  0  0
 16 27  2  0  0  0  0
 16 28  1  0  0  0  0
 17 19  2  0  0  0  0
 17 33  1  0  0  0  0
 18 20  2  0  0  0  0
 18 34  1  0  0  0  0
 19 46  1  0  0  0  0
 20 35  1  0  0  0  0
 21 76  1  0  0  0  0
 22 77  1  0  0  0  0
 23 25  2  0  0  0  0
 23 76  1  0  0  0  0
 24 78  1  0  0  0  0
 25 79  1  0  0  0  0
 26 59  2  0  0  0  0
 27 60  1  0  0  0  0
 27 64  1  0  0  0  0
 28 65  1  0  0  0  0
 28 71  2  0  0  0  0
 29 47  1  0  0  0  0
 29 66  1  0  0  0  0
 29 72  2  0  0  0  0
 30 56  1  0  0  0  0
 30 61  1  0  0  0  0
 30 73  2  0  0  0  0
 31 57  1  0  0  0  0
 31 67  1  0  0  0  0
 31 74  2  0  0  0  0
 32 62  1  0  0  0  0
 32 68  1  0  0  0  0
 32 75  2  0  0  0  0
 33 36  1  0  0  0  0
 34 47  1  0  0  0  0
 35 61  1  0  0  0  0
 36 38  1  0  0  0  0
 37 39  1  0  0  0  0
 37 40  1  0  0  0  0
 38 46  1  0  0  0  0
 39 48  1  0  0  0  0
 40 62  1  0  0  0  0
 41 44  1  0  0  0  0
 41 63  1  0  0  0  0
 42 45  1  0  0  0  0
 42 63  1  0  0  0  0
 43 48  1  0  0  0  0
 43 62  1  0  0  0  0
 44 69  1  0  0  0  0
 45 69  1  0  0  0  0
 46 66  1  0  0  0  0
 47 61  1  0  0  0  0
 48 60  1  0  0  0  0
 49 57  1  0  0  0  0
 50 58  1  0  0  0  0
 51 58  1  0  0  0  0
 52 58  1  0  0  0  0
 53 70  1  0  0  0  0
 54 55  1  0  0  0  0
 54 63  1  0  0  0  0
 55 77  1  0  0  0  0
 56 58  1  0  0  0  0
 56 67  1  0  0  0  0
 57 70  1  0  0  0  0
 59 60  1  0  0  0  0
 68 69  1  0  0  0  0
M  CHG  2  69   1  70   1
M  ISO  4  32 100  55 101  68 100  77 101
M  END
> <Batch ID>
0123

> <Smiles>
CNC(C)C(=O)NC(C(=O)N1Cc2cc([101O:1][101CH2:1]CN3CCN([100NH:0][100C:0](=O)N4CCCC(n5nc(-c6ccc(Oc7ccc(F)cc7F)cc6)c(C(N)=O)c5N)C4)CC3)ccc2CC1C(=O)NC1CCCc2ccccc21)C(C)(C)C

> <Shape>
0.249

> <Color>
0.112

> <Negative vol penalty>
0.000

$$$$

  -OEChem-04052320303D

 89 98  0     1  0  0  0  0  0999 V2000
  -23.8813  -34.9294   24.2225 C   0  0  0  0  0  0  0  0  0  0  0  0
  -24.4625  -33.7318   24.6268 C   0  0  0  0  0  0  0  0  0  0  0  0
  -26.2241  -13.2657   22.5390 C   0  0  0  0  0  0  0  0  0  0  0  0
  -26.1994  -13.2265   20.1235 C   0  0  0  0  0  0  0  0  0  0  0  0
  -22.9598  -34.9374   23.1763 C   0  0  0  0  0  0  0  0  0  0  0  0
  -24.1216  -32.5413   23.9858 C   0  0  0  0  0  0  0  0  0  0  0  0
  -29.1360  -28.4991   20.7596 C   0  0  0  0  0  0  0  0  0  0  0  0
  -30.2964  -21.8097   18.9313 C   0  0  0  0  0  0  0  0  0  0  0  0
  -27.2513  -12.3221   22.5439 C   0  0  0  0  0  0  0  0  0  0  0  0
  -27.2266  -12.2829   20.1283 C   0  0  0  0  0  0  0  0  0  0  0  0
  -30.0659  -27.5651   20.3025 C   0  0  0  0  0  0  0  0  0  0  0  0
  -30.5017  -23.1521   18.6131 C   0  0  0  0  0  0  0  0  0  0  0  0
  -30.5808  -12.2569   20.5401 C   0  0  0  0  0  0  0  0  0  0  0  0
  -31.6396  -12.4492   19.6527 C   0  0  0  0  0  0  0  0  0  0  0  0
  -28.2706  -26.1056   19.5995 C   0  0  0  0  0  0  0  0  0  0  0  0
  -29.9794  -23.7716   20.8890 C   0  0  0  0  0  0  0  0  0  0  0  0
  -31.1497  -10.3265   18.6081 C   0  0  0  0  0  0  0  0  0  0  0  0
  -25.6981  -13.7179   21.3288 C   0  0  0  0  0  0  0  0  0  0  0  0
  -23.3587  -14.5605   21.8990 C   0  0  0  0  0  0  0  0  0  0  0  0
  -22.6147  -33.7478   22.5157 C   0  0  0  0  0  0  0  0  0  0  0  0
  -27.7680  -28.2463   20.6243 C   0  0  0  0  0  0  0  0  0  0  0  0
  -23.1936  -32.5332   22.9306 C   0  0  0  0  0  0  0  0  0  0  0  0
  -29.9325  -21.4482   20.2284 C   0  0  0  0  0  0  0  0  0  0  0  0
  -27.3344  -27.0429   20.0442 C   0  0  0  0  0  0  0  0  0  0  0  0
  -29.7740  -22.4291   21.2073 C   0  0  0  0  0  0  0  0  0  0  0  0
  -27.7526  -11.8307   21.3385 C   0  0  0  0  0  0  0  0  0  0  0  0
  -29.6343  -26.3713   19.7241 C   0  0  0  0  0  0  0  0  0  0  0  0
  -30.3432  -24.1331   19.5920 C   0  0  0  0  0  0  0  0  0  1  0  0
  -29.8065  -11.0993   20.4616 C   0  0  0  0  0  0  0  0  0  0  0  0
  -31.9240  -11.4841   18.6867 C   0  0  0  0  0  0  0  0  0  0  0  0
  -30.0909  -10.1341   19.4956 C   0  0  0  0  0  0  0  0  0  0  0  0
  -24.6366  -14.6922   21.3232 C   0  0  0  0  0  0  0  0  0  0  0  0
  -22.7325  -15.7508   21.6209 C   0  0  0  0  0  0  0  0  0  0  0  0
  -22.7888  -13.4605   22.6208 C   0  0  0  0  0  0  0  0  0  0  0  0
  -24.2620  -29.4646   21.1714 C   0  0  0  0  0  0  0  0  0  0  0  0
  -24.3179  -28.1194   18.4150 C   0  0  0  0  0  0  0  0  0  0  0  0
  -24.9008  -26.9293   15.2716 C   0  0  0  0  0  0  0  0  0  0  0  0
  -24.7734  -21.2651   20.4902 C   0  0  0  0  0  0  0  0  0  0  0  0
  -21.5781  -33.7995   21.4214 C   0  0  0  0  0  0  0  0  0  0  0  0
  -26.7307  -29.1964   21.1583 C   0  0  0  0  0  0  0  0  0  0  0  0
  -25.8530  -26.7983   19.9508 C   0  0  0  0  0  0  0  0  0  0  0  0
  -21.5525  -32.5485   20.5470 C   0  0  0  0  0  0  0  0  0  0  0  0
  -22.6749  -19.2887   18.4005 C   0  0  0  0  0  0  0  0  0  0  0  0
  -21.5816  -31.2922   21.4116 C   0  0  0  0  0  0  0  0  0  0  0  0
  -22.8244  -17.8747   18.9646 C   0  0  0  0  0  0  0  0  0  0  0  0
  -28.5544  -19.3795   19.7396 C   0  0  0  0  0  0  0  0  0  0  0  0
  -30.9999  -19.1556   20.3556 C   0  0  0  0  0  0  0  0  0  0  0  0
  -23.9877  -20.0658   18.4702 C   0  0  0  0  0  0  0  0  0  0  0  0
  -24.7584  -18.6996   20.3710 C   0  0  0  0  0  0  0  0  0  0  0  0
  -28.3421  -17.9104   20.0696 C   0  0  0  0  0  0  0  0  0  0  0  0
  -29.7143  -19.9802   20.5509 C   0  0  1  0  0  0  0  0  0  0  0  0
  -22.8680  -31.2247   22.2436 C   0  0  1  0  0  0  0  0  0  0  0  0
  -25.4591  -29.2503   20.2926 C   0  0  1  0  0  0  0  0  0  0  0  0
  -23.4467  -17.8960   20.3737 C   0  0  2  0  0  0  0  0  0  0  0  0
  -30.8082  -17.6637   20.6402 C   0  0  1  0  0  0  0  0  0  0  0  0
  -31.8693  -17.6982   22.9032 C   0  0  0  0  0  0  0  0  0  0  0  0
  -23.7402  -26.4582   13.0971 C   0  0  0  0  0  0  0  0  0  0  0  0
  -23.0592  -25.6218   19.6322 C   0  0  0  0  0  0  0  0  0  0  0  0
  -22.7492  -24.7336   17.3120 C   0  0  0  0  0  0  0  0  0  0  0  0
  -21.6013  -26.8375   18.0040 C   0  0  0  0  0  0  0  0  0  0  0  0
  -26.6261  -28.8346   13.8046 C   0  0  0  0  0  0  0  0  0  0  0  0
  -29.3845  -22.0663   22.6027 C   0  0  0  0  0  0  0  0  0  0  0  0
  -30.6524  -17.3275   22.1188 C   0  0  0  0  0  0  0  0  0  0  0  0
  -25.5761  -22.3215   22.5876 C   0  0  0  0  0  0  0  0  0  0  0  0
  -27.0047  -22.7971   22.4001 C   0  0  0  0  0  0  0  0  0  0  0  0
  -24.1000  -26.8579   17.6185 C   0  0  1  0  0  0  0  0  0  0  0  0
  -24.5333  -27.4749   13.9035 C   0  0  2  0  0  0  0  0  0  0  0  0
  -22.9033  -26.0201   18.1510 C   0  0  0  0  0  0  0  0  0  0  0  0
  -24.8131  -15.8730   20.7244 N   0  0  0  0  0  0  0  0  0  0  0  0
  -23.6379  -16.4941   20.9223 N   0  0  0  0  0  0  0  0  0  0  0  0
  -25.1667  -28.0280   19.5249 N   0  0  0  0  0  0  0  0  0  0  0  0
  -24.5242  -20.0489   19.8332 N   0  0  0  0  0  0  0  0  0  0  0  0
  -21.5012  -16.2238   21.9082 N   0  0  0  0  0  0  0  0  0  0  0  0
  -22.0963  -12.4767   21.9019 N   0  0  0  0  0  0  0  0  0  0  0  0
  -23.9790  -30.7936   21.4224 N   0  0  0  0  0  0  0  0  0  0  0  0
  -23.9666  -27.2723   16.2261 N   0  0  0  0  0  0  0  0  0  0  0  0
  -25.2755  -21.1593   21.7815 N   0  0  0  0  0  0  0  0  0  0  0  0
  -29.6204  -17.1627   19.8715 N   0  3  0  0  0  0  0  0  0  0  0  0
  -25.7630  -27.8256   13.1382 N   0  3  0  0  0  0  0  0  0  0  0  0
  -27.9485  -21.6992   22.7368 N   0  3  0  0  0  0  0  0  0  0  0  0
  -22.8766  -13.3618   23.8682 O   0  0  0  0  0  0  0  0  0  0  0  0
  -23.6389  -28.4961   21.5905 O   0  0  0  0  0  0  0  0  0  0  0  0
  -23.7479  -29.1577   18.0683 O   0  0  0  0  0  0  0  0  0  0  0  0
  -25.9133  -26.2622   15.4727 O   0  0  0  0  0  0  0  0  0  0  0  0
  -24.5589  -22.3638   19.9670 O   0  0  0  0  0  0  0  0  0  0  0  0
  -28.7551  -10.9101   21.3429 O   0  0  0  0  0  0  0  0  0  0  0  0
  -30.5475  -25.4659   19.2758 O   0  0  0  0  0  0  0  0  0  1  0  0
  -32.9399  -11.6697   17.8335 F   0  0  0  0  0  0  0  0  0  0  0  0
  -29.3498   -9.0205   19.4145 F   0  0  0  0  0  0  0  0  0  0  0  0
  1  2  1  0  0  0  0
  1  5  2  0  0  0  0
  2  6  2  0  0  0  0
  3  9  2  0  0  0  0
  3 18  1  0  0  0  0
  4 10  1  0  0  0  0
  4 18  2  0  0  0  0
  5 20  1  0  0  0  0
  6 22  1  0  0  0  0
  7 11  2  0  0  0  0
  7 21  1  0  0  0  0
  8 12  2  0  0  0  0
  8 23  1  0  0  0  0
  9 26  1  0  0  0  0
 10 26  2  0  0  0  0
 11 27  1  0  0  0  0
 12 28  1  0  0  0  0
 13 14  2  0  0  0  0
 13 29  1  0  0  0  0
 14 30  1  0  0  0  0
 15 24  1  0  0  0  0
 15 27  2  0  0  0  0
 16 25  1  0  0  0  0
 16 28  2  0  0  0  0
 17 30  2  0  0  0  0
 17 31  1  0  0  0  0
 18 32  1  0  0  0  0
 19 32  1  0  0  0  0
 19 33  2  0  0  0  0
 19 34  1  0  0  0  0
 20 22  2  0  0  0  0
 20 39  1  0  0  0  0
 21 24  2  0  0  0  0
 21 40  1  0  0  0  0
 22 52  1  0  0  0  0
 23 25  2  0  0  0  0
 23 51  1  0  0  0  0
 24 41  1  0  0  0  0
 25 62  1  0  0  0  0
 26 86  1  0  0  0  0
 27 87  1  0  0  0  0
 28 87  1  0  0  0  0
 29 31  2  0  0  0  0
 29 86  1  0  0  0  0
 30 88  1  0  0  0  0
 31 89  1  0  0  0  0
 32 69  2  0  0  0  0
 33 70  1  0  0  0  0
 33 73  1  0  0  0  0
 34 74  1  0  0  0  0
 34 81  2  0  0  0  0
 35 53  1  0  0  0  0
 35 75  1  0  0  0  0
 35 82  2  0  0  0  0
 36 66  1  0  0  0  0
 36 71  1  0  0  0  0
 36 83  2  0  0  0  0
 37 67  1  0  0  0  0
 37 76  1  0  0  0  0
 37 84  2  0  0  0  0
 38 72  1  0  0  0  0
 38 77  1  0  0  0  0
 38 85  2  0  0  0  0
 39 42  1  0  0  0  0
 40 53  1  0  0  0  0
 41 71  1  0  0  0  0
 42 44  1  0  0  0  0
 43 45  1  0  0  0  0
 43 48  1  0  0  0  0
 44 52  1  0  0  0  0
 45 54  1  0  0  0  0
 46 50  1  0  0  0  0
 46 51  1  0  0  0  0
 47 51  1  0  0  0  0
 47 55  1  0  0  0  0
 48 72  1  0  0  0  0
 49 54  1  0  0  0  0
 49 72  1  0  0  0  0
 50 78  1  0  0  0  0
 52 75  1  0  0  0  0
 53 71  1  0  0  0  0
 54 70  1  0  0  0  0
 55 63  1  0  0  0  0
 55 78  1  0  0  0  0
 56 63  1  0  0  0  0
 57 67  1  0  0  0  0
 58 68  1  0  0  0  0
 59 68  1  0  0  0  0
 60 68  1  0  0  0  0
 61 79  1  0  0  0  0
 62 80  1  0  0  0  0
 64 65  1  0  0  0  0
 64 77  1  0  0  0  0
 65 80  1  0  0  0  0
 66 68  1  0  0  0  0
 66 76  1  0  0  0  0
 67 79  1  0  0  0  0
 69 70  1  0  0  0  0
M  CHG  3  78   1  79   1  80   1
M  ISO  4  28 101  38 100  77 100  87 101
M  END
> <Batch ID>
0123

> <Smiles>
CCC1CC(c2cc[101c:1]([101O:1]c3ccc4c(c3)CN(C(=O)C(NC(=O)C(C)NC)C(C)(C)C)C(C(=O)NC3CCCc5ccccc53)C4)cc2CNCC[100NH:0][100C:0](=O)N2CCCC(n3nc(-c4ccc(Oc5ccc(F)cc5F)cc4)c(C(N)=O)c3N)C2)CCN1

> <Shape>
0.250

> <Color>
0.056

> <Negative vol penalty>
0.000

$$$$

  -OEChem-04052320303D

 88 97  0     1  0  0  0  0  0999 V2000
  -29.3616  -18.9507   18.8751 C   0  0  0  0  0  0  0  0  0  0  0  0
  -28.7130  -19.9870   18.2110 C   0  0  0  0  0  0  0  0  0  0  0  0
  -24.4995  -14.4759   20.2741 C   0  0  0  0  0  0  0  0  0  0  0  0
  -24.6382  -14.7120   22.6745 C   0  0  0  0  0  0  0  0  0  0  0  0
  -29.3111  -18.8765   20.2664 C   0  0  0  0  0  0  0  0  0  0  0  0
  -28.0128  -20.9491   18.9379 C   0  0  0  0  0  0  0  0  0  0  0  0
  -26.2962  -27.9024   18.7907 C   0  0  0  0  0  0  0  0  0  0  0  0
  -25.5602  -13.5705   20.3018 C   0  0  0  0  0  0  0  0  0  0  0  0
  -25.6989  -13.8065   22.7023 C   0  0  0  0  0  0  0  0  0  0  0  0
  -25.1841  -28.7392   18.8735 C   0  0  0  0  0  0  0  0  0  0  0  0
  -28.9294  -13.6884   20.5450 C   0  0  0  0  0  0  0  0  0  0  0  0
  -29.9371  -13.8426   19.5931 C   0  0  0  0  0  0  0  0  0  0  0  0
  -25.2317  -28.5544   21.2782 C   0  0  0  0  0  0  0  0  0  0  0  0
  -20.1165  -26.6522   23.9986 C   0  0  0  0  0  0  0  0  0  0  0  0
  -29.4770  -11.6267   18.7472 C   0  0  0  0  0  0  0  0  0  0  0  0
  -19.6072  -27.5247   21.4638 C   0  0  0  0  0  0  0  0  0  0  0  0
  -24.0385  -15.0467   21.4604 C   0  0  0  0  0  0  0  0  0  0  0  0
  -21.5708  -15.6883   21.5408 C   0  0  0  0  0  0  0  0  0  0  0  0
  -28.6180  -19.8436   21.0114 C   0  0  0  0  0  0  0  0  0  0  0  0
  -26.8787  -27.3756   19.9524 C   0  0  0  0  0  0  0  0  0  0  0  0
  -27.9519  -20.8870   20.3405 C   0  0  0  0  0  0  0  0  0  0  0  0
  -26.3526  -27.7131   21.2076 C   0  0  0  0  0  0  0  0  0  0  0  0
  -20.3019  -27.9951   23.6892 C   0  0  0  0  0  0  0  0  0  0  0  0
  -20.0446  -28.4477   22.4000 C   0  0  0  0  0  0  0  0  0  0  0  0
  -26.1599  -13.2358   21.5159 C   0  0  0  0  0  0  0  0  0  0  0  0
  -24.6500  -29.0630   20.1173 C   0  0  0  0  0  0  0  0  0  0  0  0
  -28.1954  -12.5034   20.5981 C   0  0  0  0  0  0  0  0  0  0  0  0
  -30.2109  -12.8118   18.6941 C   0  0  0  0  0  0  0  0  0  0  0  0
  -28.4692  -11.4726   19.6992 C   0  0  0  0  0  0  0  0  0  0  0  0
  -22.9432  -15.9825   21.4323 C   0  0  0  0  0  0  0  0  0  0  0  0
  -19.6757  -25.8096   22.9909 C   0  0  0  0  0  0  0  0  0  0  0  0
  -20.9500  -16.9107   21.4573 C   0  0  0  0  0  0  0  0  0  0  0  0
  -20.9157  -14.4233   21.7025 C   0  0  0  0  0  0  0  0  0  0  0  0
  -27.3318  -24.4483   21.1055 C   0  0  0  0  0  0  0  0  0  0  0  0
  -29.0016  -26.0295   23.3932 C   0  0  0  0  0  0  0  0  0  0  0  0
  -29.5479  -28.9388   25.0917 C   0  0  0  0  0  0  0  0  0  0  0  0
  -20.5599  -22.1597   22.9548 C   0  0  0  0  0  0  0  0  0  0  0  0
  -28.5519  -19.6950   22.5108 C   0  0  0  0  0  0  0  0  0  0  0  0
  -28.0941  -26.4958   19.8474 C   0  0  0  0  0  0  0  0  0  0  0  0
  -26.9534  -27.1901   22.4859 C   0  0  0  0  0  0  0  0  0  0  0  0
  -28.1025  -20.9646   23.2294 C   0  0  0  0  0  0  0  0  0  0  0  0
  -22.7760  -21.4529   20.1822 C   0  0  0  0  0  0  0  0  0  0  0  0
  -26.8807  -21.5640   22.5404 C   0  0  0  0  0  0  0  0  0  0  0  0
  -22.9016  -19.9310   20.2736 C   0  0  0  0  0  0  0  0  0  0  0  0
  -19.6187  -29.6343   25.5025 C   0  0  0  0  0  0  0  0  0  0  0  0
  -21.7317  -28.2587   25.7697 C   0  0  0  0  0  0  0  0  0  0  0  0
  -22.7202  -22.0872   21.5688 C   0  0  0  0  0  0  0  0  0  0  0  0
  -21.7643  -20.0337   22.5398 C   0  0  0  0  0  0  0  0  0  0  0  0
  -20.1229  -30.5876   26.5764 C   0  0  0  0  0  0  0  0  0  0  0  0
  -22.2091  -29.2297   26.8401 C   0  0  0  0  0  0  0  0  0  0  0  0
  -20.7822  -28.9420   24.7675 C   0  0  0  0  0  0  0  0  0  0  0  0
  -27.2028  -21.9635   21.0954 C   0  0  1  0  0  0  0  0  0  0  0  0
  -28.2927  -25.6029   21.0684 C   0  0  1  0  0  0  0  0  0  0  0  0
  -21.8028  -19.3309   21.1706 C   0  0  2  0  0  0  0  0  0  0  0  0
  -18.8901  -30.5236   21.5951 C   0  0  0  0  0  0  0  0  0  0  0  0
  -30.9507  -29.9127   26.9304 C   0  0  0  0  0  0  0  0  0  0  0  0
  -27.2742  -24.6020   25.4640 C   0  0  0  0  0  0  0  0  0  0  0  0
  -28.0415  -26.2786   27.1576 C   0  0  0  0  0  0  0  0  0  0  0  0
  -29.6968  -24.7678   26.0621 C   0  0  0  0  0  0  0  0  0  0  0  0
  -30.7660  -30.9257   23.2676 C   0  0  0  0  0  0  0  0  0  0  0  0
  -19.4661  -24.3620   23.2867 C   0  0  0  0  0  0  0  0  0  0  0  0
  -21.2763  -30.0993   20.8924 C   0  0  0  0  0  0  0  0  0  0  0  0
  -22.6831  -29.6767   21.3050 C   0  0  0  0  0  0  0  0  0  1  0  0
  -20.2305  -29.9031   22.0070 C   0  0  2  0  0  0  0  0  0  0  0  0
  -28.6633  -26.6498   24.7273 C   0  0  1  0  0  0  0  0  0  0  0  0
  -30.8274  -29.6812   25.4324 C   0  0  2  0  0  0  0  0  0  0  0  0
  -28.4062  -25.5830   25.8287 C   0  0  0  0  0  0  0  0  0  0  0  0
  -19.4154  -26.2126   21.7269 N   0  0  0  0  0  0  0  0  0  0  0  0
  -23.1809  -17.2892   21.2906 N   0  0  0  0  0  0  0  0  0  0  0  0
  -21.9494  -17.8269   21.3093 N   0  0  0  0  0  0  0  0  0  0  0  0
  -28.1371  -26.3286   22.3306 N   0  0  0  0  0  0  0  0  0  0  0  0
  -21.6418  -21.4848   22.3652 N   0  0  0  0  0  0  0  0  0  0  0  0
  -19.6523  -17.2803   21.4966 N   0  0  0  0  0  0  0  0  0  0  0  0
  -21.7040  -13.2664   21.7700 N   0  0  0  0  0  0  0  0  0  0  0  0
  -27.9405  -23.2083   21.0677 N   0  0  0  0  0  0  0  0  0  0  0  0
  -29.7482  -27.5758   25.0338 N   0  0  0  0  0  0  0  0  0  0  0  0
  -20.5212  -23.5331   22.7477 N   0  0  0  0  0  0  0  0  0  0  0  0
  -21.0251  -29.8475   27.5075 N   0  3  0  0  0  0  0  0  0  0  0  0
  -30.8560  -31.0049   24.7484 N   0  3  0  0  0  0  0  0  0  0  0  0
  -19.6673  -14.3202   21.7684 O   0  0  0  0  0  0  0  0  0  0  0  0
  -26.1274  -24.6663   21.1654 O   0  0  0  0  0  0  0  0  0  0  0  0
  -30.0003  -25.3121   23.2958 O   0  0  0  0  0  0  0  0  0  0  0  0
  -28.4769  -29.5104   24.9000 O   0  0  0  0  0  0  0  0  0  0  0  0
  -19.6893  -21.5802   23.6130 O   0  0  0  0  0  0  0  0  0  0  0  0
  -27.1947  -12.3522   21.5433 O   0  0  0  0  0  0  0  0  0  0  0  0
  -23.5642  -29.8791   20.2009 O   0  0  0  0  0  0  0  0  0  1  0  0
  -31.1776  -12.9605   17.7790 F   0  0  0  0  0  0  0  0  0  0  0  0
  -27.7667  -10.3323   19.7446 F   0  0  0  0  0  0  0  0  0  0  0  0
  1  2  1  0  0  0  0
  1  5  2  0  0  0  0
  2  6  2  0  0  0  0
  3  8  2  0  0  0  0
  3 17  1  0  0  0  0
  4  9  1  0  0  0  0
  4 17  2  0  0  0  0
  5 19  1  0  0  0  0
  6 21  1  0  0  0  0
  7 10  2  0  0  0  0
  7 20  1  0  0  0  0
  8 25  1  0  0  0  0
  9 25  2  0  0  0  0
 10 26  1  0  0  0  0
 11 12  2  0  0  0  0
 11 27  1  0  0  0  0
 12 28  1  0  0  0  0
 13 22  1  0  0  0  0
 13 26  2  0  0  0  0
 14 23  1  0  0  0  0
 14 31  2  0  0  0  0
 15 28  2  0  0  0  0
 15 29  1  0  0  0  0
 16 24  1  0  0  0  0
 16 68  2  0  0  0  0
 17 30  1  0  0  0  0
 18 30  1  0  0  0  0
 18 32  2  0  0  0  0
 18 33  1  0  0  0  0
 19 21  2  0  0  0  0
 19 38  1  0  0  0  0
 20 22  2  0  0  0  0
 20 39  1  0  0  0  0
 21 52  1  0  0  0  0
 22 40  1  0  0  0  0
 23 24  2  0  0  0  0
 23 51  1  0  0  0  0
 24 64  1  0  0  0  0
 25 85  1  0  0  0  0
 26 86  1  0  0  0  0
 27 29  2  0  0  0  0
 27 85  1  0  0  0  0
 28 87  1  0  0  0  0
 29 88  1  0  0  0  0
 30 69  2  0  0  0  0
 31 61  1  0  0  0  0
 31 68  1  0  0  0  0
 32 70  1  0  0  0  0
 32 73  1  0  0  0  0
 33 74  1  0  0  0  0
 33 80  2  0  0  0  0
 34 53  1  0  0  0  0
 34 75  1  0  0  0  0
 34 81  2  0  0  0  0
 35 65  1  0  0  0  0
 35 71  1  0  0  0  0
 35 82  2  0  0  0  0
 36 66  1  0  0  0  0
 36 76  1  0  0  0  0
 36 83  2  0  0  0  0
 37 72  1  0  0  0  0
 37 77  1  0  0  0  0
 37 84  2  0  0  0  0
 38 41  1  0  0  0  0
 39 53  1  0  0  0  0
 40 71  1  0  0  0  0
 41 43  1  0  0  0  0
 42 44  1  0  0  0  0
 42 47  1  0  0  0  0
 43 52  1  0  0  0  0
 44 54  1  0  0  0  0
 45 49  1  0  0  0  0
 45 51  1  0  0  0  0
 46 50  1  0  0  0  0
 46 51  1  0  0  0  0
 47 72  1  0  0  0  0
 48 54  1  0  0  0  0
 48 72  1  0  0  0  0
 49 78  1  0  0  0  0
 50 78  1  0  0  0  0
 52 75  1  0  0  0  0
 53 71  1  0  0  0  0
 54 70  1  0  0  0  0
 55 64  1  0  0  0  0
 56 66  1  0  0  0  0
 57 67  1  0  0  0  0
 58 67  1  0  0  0  0
 59 67  1  0  0  0  0
 60 79  1  0  0  0  0
 61 77  1  0  0  0  0
 62 63  1  0  0  0  0
 62 64  1  0  0  0  0
 63 86  1  0  0  0  0
 65 67  1  0  0  0  0
 65 76  1  0  0  0  0
 66 79  1  0  0  0  0
 69 70  1  0  0  0  0
M  CHG  2  78   1  79   1
M  ISO  4  37 100  63 101  77 100  86 101
M  END
> <Batch ID>
0123

> <Smiles>
CNC(C)C(=O)NC(C(=O)N1Cc2cc([101O:1][101CH2:1]CC(C)c3cnc(C[100NH:0][100C:0](=O)N4CCCC(n5nc(-c6ccc(Oc7ccc(F)cc7F)cc6)c(C(N)=O)c5N)C4)cc3C3CCNCC3)ccc2CC1C(=O)NC1CCCc2ccccc21)C(C)(C)C

> <Shape>
0.211

> <Color>
0.058

> <Negative vol penalty>
0.000

$$$$

  -OEChem-04052320303D

 82 91  0     1  0  0  0  0  0999 V2000
  -17.7996  -27.8207   23.2039 C   0  0  0  0  0  0  0  0  0  0  0  0
  -18.6997  -26.8037   22.9021 C   0  0  0  0  0  0  0  0  0  0  0  0
  -22.8474  -10.0535   20.0598 C   0  0  0  0  0  0  0  0  0  0  0  0
  -24.3680   -9.3510   21.8008 C   0  0  0  0  0  0  0  0  0  0  0  0
  -18.0953  -29.1379   22.8554 C   0  0  0  0  0  0  0  0  0  0  0  0
  -19.8956  -27.1033   22.2505 C   0  0  0  0  0  0  0  0  0  0  0  0
  -25.3134  -24.3642   23.0569 C   0  0  0  0  0  0  0  0  0  0  0  0
  -22.1523   -8.8504   20.1813 C   0  0  0  0  0  0  0  0  0  0  0  0
  -23.6729   -8.1477   21.9223 C   0  0  0  0  0  0  0  0  0  0  0  0
  -25.9755  -23.3663   22.3430 C   0  0  0  0  0  0  0  0  0  0  0  0
  -20.8152   -7.0582   23.3601 C   0  0  0  0  0  0  0  0  0  0  0  0
  -20.5212   -6.6086   24.6473 C   0  0  0  0  0  0  0  0  0  0  0  0
  -27.2122  -25.0541   21.1425 C   0  0  0  0  0  0  0  0  0  0  0  0
  -21.7871   -4.5930   24.2324 C   0  0  0  0  0  0  0  0  0  0  0  0
  -23.9553  -10.3038   20.8695 C   0  0  0  0  0  0  0  0  0  0  0  0
  -24.1658  -12.8453   20.9339 C   0  0  0  0  0  0  0  0  0  0  0  0
  -19.2998  -29.4550   22.2079 C   0  0  0  0  0  0  0  0  0  0  0  0
  -25.5884  -25.7171   22.8109 C   0  0  0  0  0  0  0  0  0  0  0  0
  -20.2071  -28.4258   21.8919 C   0  0  0  0  0  0  0  0  0  0  0  0
  -26.5541  -26.0672   21.8564 C   0  0  0  0  0  0  0  0  0  0  0  0
  -22.5650   -7.8975   21.1126 C   0  0  0  0  0  0  0  0  0  0  0  0
  -26.9229  -23.7113   21.3835 C   0  0  0  0  0  0  0  0  0  0  0  0
  -21.5951   -6.2752   22.5090 C   0  0  0  0  0  0  0  0  0  0  0  0
  -21.0071   -5.3760   25.0835 C   0  0  0  0  0  0  0  0  0  0  0  0
  -22.0811   -5.0427   22.9452 C   0  0  0  0  0  0  0  0  0  0  0  0
  -24.6741  -11.5463   20.7440 C   0  0  0  0  0  0  0  0  0  0  0  0
  -25.2379  -13.6712   20.6992 C   0  0  0  0  0  0  0  0  0  0  0  0
  -22.8429  -13.2677   21.2906 C   0  0  0  0  0  0  0  0  0  0  0  0
  -23.8932  -28.1981   21.7743 C   0  0  0  0  0  0  0  0  0  0  0  0
  -26.6017  -29.8420   22.4701 C   0  0  0  0  0  0  0  0  0  0  0  0
  -29.9850  -29.7963   22.9151 C   0  0  0  0  0  0  0  0  0  0  0  0
  -29.6883  -15.1350   17.7558 C   0  0  0  0  0  0  0  0  0  0  0  0
  -19.5543  -30.8870   21.8087 C   0  0  0  0  0  0  0  0  0  0  0  0
  -24.8849  -26.7809   23.6083 C   0  0  0  0  0  0  0  0  0  0  0  0
  -26.9004  -27.5045   21.5689 C   0  0  0  0  0  0  0  0  0  0  0  0
  -21.0119  -31.1710   21.4552 C   0  0  0  0  0  0  0  0  0  0  0  0
  -30.1482  -12.6408   20.1622 C   0  0  0  0  0  0  0  0  0  0  0  0
  -21.5572  -30.0887   20.5289 C   0  0  0  0  0  0  0  0  0  0  0  0
  -28.4868  -18.0391   19.4747 C   0  0  0  0  0  0  0  0  0  0  0  0
  -28.5731  -19.8277   17.6942 C   0  0  0  0  0  0  0  0  0  0  0  0
  -27.7178  -18.9888   20.3914 C   0  0  0  0  0  0  0  0  0  0  0  0
  -27.8042  -20.7775   18.6110 C   0  0  0  0  0  0  0  0  0  0  0  0
  -28.7292  -12.2215   20.5408 C   0  0  0  0  0  0  0  0  0  0  0  0
  -26.9733  -16.1339   15.4096 C   0  0  0  0  0  0  0  0  0  0  0  0
  -27.3547  -14.6935   15.5779 C   0  0  0  0  0  0  0  0  0  0  0  0
  -30.2550  -12.9051   18.6656 C   0  0  0  0  0  0  0  0  0  0  0  0
  -27.8662  -13.5472   18.5450 C   0  0  0  0  0  0  0  0  0  0  0  0
  -21.5259  -28.7142   21.2080 C   0  0  1  0  0  0  0  0  0  0  0  0
  -24.8720  -28.1386   22.9128 C   0  0  1  0  0  0  0  0  0  0  0  0
  -28.2442  -18.3599   17.9944 C   0  0  0  0  0  0  0  0  0  0  0  0
  -28.0468  -20.4567   20.0913 C   0  0  0  0  0  0  0  0  0  0  0  0
  -27.7033  -13.2574   20.0514 C   0  0  1  0  0  0  0  0  0  0  0  0
  -27.4256  -15.6300   16.7528 C   0  0  0  0  0  0  0  0  0  0  0  0
  -31.9234  -31.3013   23.4391 C   0  0  0  0  0  0  0  0  0  0  0  0
  -26.5243  -30.9298   19.6204 C   0  0  0  0  0  0  0  0  0  0  0  0
  -28.9133  -31.6262   19.8957 C   0  0  0  0  0  0  0  0  0  0  0  0
  -27.1520  -32.6111   21.3622 C   0  0  0  0  0  0  0  0  0  0  0  0
  -30.6293  -28.2991   25.3854 C   0  0  0  0  0  0  0  0  0  0  0  0
  -29.0618  -17.4300   17.0999 C   0  0  0  0  0  0  0  0  0  0  0  0
  -27.2293  -21.3866   20.9858 C   0  0  0  0  0  0  0  0  0  1  0  0
  -27.8548  -30.2078   21.7120 C   0  0  1  0  0  0  0  0  0  0  0  0
  -30.8647  -30.3711   24.0106 C   0  0  2  0  0  0  0  0  0  0  0  0
  -27.6034  -31.3166   20.6514 C   0  0  0  0  0  0  0  0  0  0  0  0
  -25.9683  -11.5421   20.4140 N   0  0  0  0  0  0  0  0  0  0  0  0
  -26.2824  -12.8487   20.3945 N   0  0  0  0  0  0  0  0  0  0  0  0
  -26.1809  -28.5083   22.3703 N   0  0  0  0  0  0  0  0  0  0  0  0
  -29.2608  -13.8837   18.2230 N   0  0  0  0  0  0  0  0  0  0  0  0
  -25.3797  -15.0134   20.7256 N   0  0  0  0  0  0  0  0  0  0  0  0
  -22.5304  -13.4091   22.6495 N   0  0  0  0  0  0  0  0  0  0  0  0
  -22.6209  -28.5889   22.1460 N   0  0  0  0  0  0  0  0  0  0  0  0
  -28.8526  -30.5577   22.7172 N   0  0  0  0  0  0  0  0  0  0  0  0
  -28.7002  -16.0338   17.3182 N   0  0  0  0  0  0  0  0  0  0  0  0
  -31.5519  -29.2757   24.7513 N   0  3  0  0  0  0  0  0  0  0  0  0
  -21.9592  -13.4967   20.4303 O   0  0  0  0  0  0  0  0  0  0  0  0
  -24.2651  -27.9123   20.6422 O   0  0  0  0  0  0  0  0  0  0  0  0
  -26.0216  -30.7060   23.1324 O   0  0  0  0  0  0  0  0  0  0  0  0
  -30.2752  -28.7761   22.2943 O   0  0  0  0  0  0  0  0  0  0  0  0
  -30.8897  -15.4302   17.7095 O   0  0  0  0  0  0  0  0  0  0  0  0
  -21.8868   -6.7234   21.2316 O   0  0  0  0  0  0  0  0  0  0  0  0
  -27.5701  -22.7392   20.6848 O   0  0  0  0  0  0  0  0  0  1  0  0
  -20.7260   -4.9451   26.3202 F   0  0  0  0  0  0  0  0  0  0  0  0
  -22.8318   -4.2866   22.1324 F   0  0  0  0  0  0  0  0  0  0  0  0
  1  2  1  0  0  0  0
  1  5  2  0  0  0  0
  2  6  2  0  0  0  0
  3  8  2  0  0  0  0
  3 15  1  0  0  0  0
  4  9  1  0  0  0  0
  4 15  2  0  0  0  0
  5 17  1  0  0  0  0
  6 19  1  0  0  0  0
  7 10  2  0  0  0  0
  7 18  1  0  0  0  0
  8 21  1  0  0  0  0
  9 21  2  0  0  0  0
 10 22  1  0  0  0  0
 11 12  2  0  0  0  0
 11 23  1  0  0  0  0
 12 24  1  0  0  0  0
 13 20  1  0  0  0  0
 13 22  2  0  0  0  0
 14 24  2  0  0  0  0
 14 25  1  0  0  0  0
 15 26  1  0  0  0  0
 16 26  1  0  0  0  0
 16 27  2  0  0  0  0
 16 28  1  0  0  0  0
 17 19  2  0  0  0  0
 17 33  1  0  0  0  0
 18 20  2  0  0  0  0
 18 34  1  0  0  0  0
 19 48  1  0  0  0  0
 20 35  1  0  0  0  0
 21 79  1  0  0  0  0
 22 80  1  0  0  0  0
 23 25  2  0  0  0  0
 23 79  1  0  0  0  0
 24 81  1  0  0  0  0
 25 82  1  0  0  0  0
 26 64  2  0  0  0  0
 27 65  1  0  0  0  0
 27 68  1  0  0  0  0
 28 69  1  0  0  0  0
 28 74  2  0  0  0  0
 29 49  1  0  0  0  0
 29 70  1  0  0  0  0
 29 75  2  0  0  0  0
 30 61  1  0  0  0  0
 30 66  1  0  0  0  0
 30 76  2  0  0  0  0
 31 62  1  0  0  0  0
 31 71  1  0  0  0  0
 31 77  2  0  0  0  0
 32 67  1  0  0  0  0
 32 72  1  0  0  0  0
 32 78  2  0  0  0  0
 33 36  1  0  0  0  0
 34 49  1  0  0  0  0
 35 66  1  0  0  0  0
 36 38  1  0  0  0  0
 37 43  1  0  0  0  0
 37 46  1  0  0  0  0
 38 48  1  0  0  0  0
 39 41  1  0  0  0  0
 39 50  1  0  0  0  0
 40 42  1  0  0  0  0
 40 50  1  0  0  0  0
 41 51  1  0  0  0  0
 42 51  1  0  0  0  0
 43 52  1  0  0  0  0
 44 45  1  0  0  0  0
 44 53  1  0  0  0  0
 45 53  1  0  0  0  0
 46 67  1  0  0  0  0
 47 52  1  0  0  0  0
 47 67  1  0  0  0  0
 48 70  1  0  0  0  0
 49 66  1  0  0  0  0
 50 59  1  0  0  0  0
 51 60  1  0  0  0  0
 52 65  1  0  0  0  0
 53 72  1  0  0  0  0
 54 62  1  0  0  0  0
 55 63  1  0  0  0  0
 56 63  1  0  0  0  0
 57 63  1  0  0  0  0
 58 73  1  0  0  0  0
 59 72  1  0  0  0  0
 60 80  1  0  0  0  0
 61 63  1  0  0  0  0
 61 71  1  0  0  0  0
 62 73  1  0  0  0  0
 64 65  1  0  0  0  0
M  CHG  1  73   1
M  ISO  4  32 100  60 101  72 100  80 101
M  END
> <Batch ID>
0123

> <Smiles>
CNC(C)C(=O)NC(C(=O)N1Cc2cc([101O:1][101CH2:1]C3CCC(C[100N:0](C4CC4)[100C:0](=O)N4CCCC(n5nc(-c6ccc(Oc7ccc(F)cc7F)cc6)c(C(N)=O)c5N)C4)CC3)ccc2CC1C(=O)NC1CCCc2ccccc21)C(C)(C)C

> <Shape>
0.300

> <Color>
0.189

> <Negative vol penalty>
0.000

$$$$

  -OEChem-04052320303D

 83 91  0     1  0  0  0  0  0999 V2000
  -30.6996  -24.5502   18.4088 C   0  0  0  0  0  0  0  0  0  0  0  0
  -29.5238  -24.5166   19.1516 C   0  0  0  0  0  0  0  0  0  0  0  0
  -25.3436  -10.8098   21.9296 C   0  0  0  0  0  0  0  0  0  0  0  0
  -25.1922  -12.1429   23.9389 C   0  0  0  0  0  0  0  0  0  0  0  0
  -31.6736  -25.5072   18.6903 C   0  0  0  0  0  0  0  0  0  0  0  0
  -29.3219  -25.4395   20.1772 C   0  0  0  0  0  0  0  0  0  0  0  0
  -24.6668  -27.4322   20.1087 C   0  0  0  0  0  0  0  0  0  0  0  0
  -26.7291  -22.7031   22.2652 C   0  0  0  0  0  0  0  0  0  0  0  0
  -25.0273  -21.2815   21.3062 C   0  0  0  0  0  0  0  0  0  0  0  0
  -25.2446   -9.6470   22.6936 C   0  0  0  0  0  0  0  0  0  0  0  0
  -25.0932  -10.9801   24.7029 C   0  0  0  0  0  0  0  0  0  0  0  0
  -23.6317  -26.6498   20.6188 C   0  0  0  0  0  0  0  0  0  0  0  0
  -25.7845  -23.2467   23.1357 C   0  0  0  0  0  0  0  0  0  0  0  0
  -24.0827  -21.8250   22.1768 C   0  0  0  0  0  0  0  0  0  0  0  0
  -25.3934   -6.3182   24.1497 C   0  0  0  0  0  0  0  0  0  0  0  0
  -26.2699   -5.2728   23.8590 C   0  0  0  0  0  0  0  0  0  0  0  0
  -23.7282  -27.8828   22.6899 C   0  0  0  0  0  0  0  0  0  0  0  0
  -28.1482   -6.7133   24.3432 C   0  0  0  0  0  0  0  0  0  0  0  0
  -25.3174  -12.0578   22.5523 C   0  0  0  0  0  0  0  0  0  0  0  0
  -24.3637  -13.9961   21.1955 C   0  0  0  0  0  0  0  0  0  0  0  0
  -31.4793  -26.4485   19.7135 C   0  0  0  0  0  0  0  0  0  0  0  0
  -25.2487  -28.4403   20.8907 C   0  0  0  0  0  0  0  0  0  0  0  0
  -30.2948  -26.4093   20.4736 C   0  0  0  0  0  0  0  0  0  0  0  0
  -24.7688  -28.6784   22.1865 C   0  0  0  0  0  0  0  0  0  0  0  0
  -26.3505  -21.7205   21.3504 C   0  0  0  0  0  0  0  0  0  0  0  0
  -25.1194   -9.7321   24.0802 C   0  0  0  0  0  0  0  0  0  0  0  0
  -24.4613  -22.8077   23.0915 C   0  0  0  0  0  0  0  0  0  0  0  0
  -23.1642  -26.8731   21.9105 C   0  0  0  0  0  0  0  0  0  0  0  0
  -25.8942   -7.5611   24.5370 C   0  0  0  0  0  0  0  0  0  0  0  0
  -27.6474   -5.4704   23.9558 C   0  0  0  0  0  0  0  0  0  0  0  0
  -27.2716   -7.7586   24.6338 C   0  0  0  0  0  0  0  0  0  0  0  0
  -25.4201  -13.2593   21.7637 C   0  0  0  0  0  0  0  0  0  0  0  0
  -24.9810  -15.0399   20.5505 C   0  0  0  0  0  0  0  0  0  0  0  0
  -22.9507  -13.7584   21.2462 C   0  0  0  0  0  0  0  0  0  0  0  0
  -28.1616  -28.9883   22.0391 C   0  0  0  0  0  0  0  0  0  0  0  0
  -26.8376  -31.7951   22.9833 C   0  0  0  0  0  0  0  0  0  0  0  0
  -24.0207  -33.5396   23.8010 C   0  0  0  0  0  0  0  0  0  0  0  0
  -28.7941  -19.1131   20.4279 C   0  0  0  0  0  0  0  0  0  0  0  0
  -32.5812  -27.4341   20.0120 C   0  0  0  0  0  0  0  0  0  0  0  0
  -26.3464  -29.2933   20.3162 C   0  0  0  0  0  0  0  0  0  0  0  0
  -25.3460  -29.7617   23.0593 C   0  0  0  0  0  0  0  0  0  0  0  0
  -32.1278  -28.6135   20.8686 C   0  0  0  0  0  0  0  0  0  0  0  0
  -29.8668  -15.8429   19.5155 C   0  0  0  0  0  0  0  0  0  0  0  0
  -31.2982  -28.1260   22.0521 C   0  0  0  0  0  0  0  0  0  0  0  0
  -28.7217  -14.9401   19.9777 C   0  0  0  0  0  0  0  0  0  0  0  0
  -30.0939  -17.0049   20.4801 C   0  0  0  0  0  0  0  0  0  0  0  0
  -27.7491  -16.9093   21.2328 C   0  0  0  0  0  0  0  0  0  0  0  0
  -30.0282  -27.4092   21.5777 C   0  0  1  0  0  0  0  0  0  0  0  0
  -27.2125  -29.9524   21.3853 C   0  0  1  0  0  0  0  0  0  0  0  0
  -27.4455  -15.7546   20.2628 C   0  0  2  0  0  0  0  0  0  0  0  0
  -27.0119  -21.3678   18.9421 C   0  0  0  0  0  0  0  0  0  0  0  0
  -23.2594  -35.8043   24.5684 C   0  0  0  0  0  0  0  0  0  0  0  0
  -27.8298  -31.1713   25.8005 C   0  0  0  0  0  0  0  0  0  0  0  0
  -26.2643  -32.9237   26.6646 C   0  0  0  0  0  0  0  0  0  0  0  0
  -28.1031  -33.5573   25.1026 C   0  0  0  0  0  0  0  0  0  0  0  0
  -22.3735  -33.9362   21.3744 C   0  0  0  0  0  0  0  0  0  0  0  0
  -21.4682  -24.5656   24.1328 C   0  0  0  0  0  0  0  0  0  0  0  0
  -22.1906  -23.3943   23.4858 C   0  0  0  0  0  0  0  0  0  0  0  0
  -22.1429  -25.8923   23.8212 C   0  0  0  0  0  0  0  0  0  1  0  0
  -27.3604  -21.1388   20.4200 C   0  0  2  0  0  0  0  0  0  0  0  0
  -26.1128  -32.2733   24.2182 C   0  0  1  0  0  0  0  0  0  0  0  0
  -23.5216  -34.9066   23.3691 C   0  0  2  0  0  0  0  0  0  0  0  0
  -27.0677  -32.4596   25.4310 C   0  0  0  0  0  0  0  0  0  0  0  0
  -26.6178  -13.7898   21.5025 N   0  0  0  0  0  0  0  0  0  0  0  0
  -26.3177  -14.8711   20.7630 N   0  0  0  0  0  0  0  0  0  0  0  0
  -26.4217  -30.5647   22.4549 N   0  0  0  0  0  0  0  0  0  0  0  0
  -28.8456  -17.7373   20.7067 N   0  0  0  0  0  0  0  0  0  0  0  0
  -24.5055  -16.0763   19.8279 N   0  0  0  0  0  0  0  0  0  0  0  0
  -22.4862  -12.6402   21.9521 N   0  0  0  0  0  0  0  0  0  0  0  0
  -29.0310  -28.3713   21.1600 N   0  0  0  0  0  0  0  0  0  0  0  0
  -25.3982  -33.4841   23.8288 N   0  0  0  0  0  0  0  0  0  0  0  0
  -27.5715  -19.7294   20.6646 N   0  0  0  0  0  0  0  0  0  0  0  0
  -22.2550  -34.7748   22.5949 N   0  3  0  0  0  0  0  0  0  0  0  0
  -22.1255  -14.5059   20.6684 O   0  0  0  0  0  0  0  0  0  0  0  0
  -28.1099  -28.8180   23.2515 O   0  0  0  0  0  0  0  0  0  0  0  0
  -27.7346  -32.4910   22.5010 O   0  0  0  0  0  0  0  0  0  0  0  0
  -23.2642  -32.6146   24.0887 O   0  0  0  0  0  0  0  0  0  0  0  0
  -29.7642  -19.7442   19.9948 O   0  0  0  0  0  0  0  0  0  0  0  0
  -25.0226   -8.5977   24.8260 O   0  0  0  0  0  0  0  0  0  0  0  0
  -23.5335  -23.3410   23.9479 O   0  0  0  0  0  0  0  0  0  0  0  0
  -22.1544  -26.1104   22.4111 O   0  0  0  0  0  0  0  0  0  1  0  0
  -28.4890   -4.4660   23.6781 F   0  0  0  0  0  0  0  0  0  0  0  0
  -27.7586   -8.9501   25.0066 F   0  0  0  0  0  0  0  0  0  0  0  0
  1  2  1  0  0  0  0
  1  5  2  0  0  0  0
  2  6  2  0  0  0  0
  3 10  2  0  0  0  0
  3 19  1  0  0  0  0
  4 11  1  0  0  0  0
  4 19  2  0  0  0  0
  5 21  1  0  0  0  0
  6 23  1  0  0  0  0
  7 12  2  0  0  0  0
  7 22  1  0  0  0  0
  8 13  2  0  0  0  0
  8 25  1  0  0  0  0
  9 14  1  0  0  0  0
  9 25  2  0  0  0  0
 10 26  1  0  0  0  0
 11 26  2  0  0  0  0
 12 28  1  0  0  0  0
 13 27  1  0  0  0  0
 14 27  2  0  0  0  0
 15 16  2  0  0  0  0
 15 29  1  0  0  0  0
 16 30  1  0  0  0  0
 17 24  1  0  0  0  0
 17 28  2  0  0  0  0
 18 30  2  0  0  0  0
 18 31  1  0  0  0  0
 19 32  1  0  0  0  0
 20 32  1  0  0  0  0
 20 33  2  0  0  0  0
 20 34  1  0  0  0  0
 21 23  2  0  0  0  0
 21 39  1  0  0  0  0
 22 24  2  0  0  0  0
 22 40  1  0  0  0  0
 23 48  1  0  0  0  0
 24 41  1  0  0  0  0
 25 60  1  0  0  0  0
 26 79  1  0  0  0  0
 27 80  1  0  0  0  0
 28 81  1  0  0  0  0
 29 31  2  0  0  0  0
 29 79  1  0  0  0  0
 30 82  1  0  0  0  0
 31 83  1  0  0  0  0
 32 64  2  0  0  0  0
 33 65  1  0  0  0  0
 33 68  1  0  0  0  0
 34 69  1  0  0  0  0
 34 74  2  0  0  0  0
 35 49  1  0  0  0  0
 35 70  1  0  0  0  0
 35 75  2  0  0  0  0
 36 61  1  0  0  0  0
 36 66  1  0  0  0  0
 36 76  2  0  0  0  0
 37 62  1  0  0  0  0
 37 71  1  0  0  0  0
 37 77  2  0  0  0  0
 38 67  1  0  0  0  0
 38 72  1  0  0  0  0
 38 78  2  0  0  0  0
 39 42  1  0  0  0  0
 40 49  1  0  0  0  0
 41 66  1  0  0  0  0
 42 44  1  0  0  0  0
 43 45  1  0  0  0  0
 43 46  1  0  0  0  0
 44 48  1  0  0  0  0
 45 50  1  0  0  0  0
 46 67  1  0  0  0  0
 47 50  1  0  0  0  0
 47 67  1  0  0  0  0
 48 70  1  0  0  0  0
 49 66  1  0  0  0  0
 50 65  1  0  0  0  0
 51 60  1  0  0  0  0
 52 62  1  0  0  0  0
 53 63  1  0  0  0  0
 54 63  1  0  0  0  0
 55 63  1  0  0  0  0
 56 73  1  0  0  0  0
 57 58  1  0  0  0  0
 57 59  1  0  0  0  0
 58 80  1  0  0  0  0
 59 81  1  0  0  0  0
 60 72  1  0  0  0  0
 61 63  1  0  0  0  0
 61 71  1  0  0  0  0
 62 73  1  0  0  0  0
 64 65  1  0  0  0  0
M  CHG  1  73   1
M  ISO  4  38 100  59 101  72 100  81 101
M  END
> <Batch ID>
0123

> <Smiles>
CNC(C)C(=O)NC(C(=O)N1Cc2cc([101O:1][101CH2:1]CCOc3ccc(C(C)[100NH:0][100C:0](=O)N4CCCC(n5nc(-c6ccc(Oc7ccc(F)cc7F)cc6)c(C(N)=O)c5N)C4)cc3)ccc2CC1C(=O)NC1CCCc2ccccc21)C(C)(C)C

> <Shape>
0.247

> <Color>
0.085

> <Negative vol penalty>
0.000

$$$$

  -OEChem-04052320303D

 83 91  0     1  0  0  0  0  0999 V2000
  -28.0219  -11.4737   21.2296 C   0  0  0  0  0  0  0  0  0  0  0  0
  -28.6425  -12.6782   20.9143 C   0  0  0  0  0  0  0  0  0  0  0  0
  -23.8880  -29.6980   22.0152 C   0  0  0  0  0  0  0  0  0  0  0  0
  -22.7525  -28.1959   20.5014 C   0  0  0  0  0  0  0  0  0  0  0  0
  -26.6514  -11.3219   21.0233 C   0  0  0  0  0  0  0  0  0  0  0  0
  -27.8929  -13.7314   20.3914 C   0  0  0  0  0  0  0  0  0  0  0  0
  -28.7482  -19.7121   21.3941 C   0  0  0  0  0  0  0  0  0  0  0  0
  -22.6608  -30.0789   22.5578 C   0  0  0  0  0  0  0  0  0  0  0  0
  -21.5252  -28.5767   21.0441 C   0  0  0  0  0  0  0  0  0  0  0  0
  -29.3846  -20.7061   20.6518 C   0  0  0  0  0  0  0  0  0  0  0  0
  -18.1188  -28.8858   22.2766 C   0  0  0  0  0  0  0  0  0  0  0  0
  -17.1987  -27.8796   22.5707 C   0  0  0  0  0  0  0  0  0  0  0  0
  -27.2606  -21.3534   19.7090 C   0  0  0  0  0  0  0  0  0  0  0  0
  -18.7799  -26.8807   24.1001 C   0  0  0  0  0  0  0  0  0  0  0  0
  -31.7813  -24.8842   18.7810 C   0  0  0  0  0  0  0  0  0  0  0  0
  -30.9771  -23.8120   16.9870 C   0  0  0  0  0  0  0  0  0  0  0  0
  -23.9338  -28.7565   20.9869 C   0  0  0  0  0  0  0  0  0  0  0  0
  -26.0289  -27.3073   20.8522 C   0  0  0  0  0  0  0  0  0  0  0  0
  -25.8830  -12.3771   20.5067 C   0  0  0  0  0  0  0  0  0  0  0  0
  -27.3625  -19.5239   21.2909 C   0  0  0  0  0  0  0  0  0  0  0  0
  -26.5111  -13.5932   20.1767 C   0  0  0  0  0  0  0  0  0  0  0  0
  -26.6087  -20.3580   20.4529 C   0  0  0  0  0  0  0  0  0  0  0  0
  -32.0344  -25.6747   17.6817 C   0  0  0  0  0  0  0  0  0  0  0  0
  -31.5257  -24.9963   16.5467 C   0  0  0  0  0  0  0  0  0  0  0  0
  -21.4794  -29.5182   22.0723 C   0  0  0  0  0  0  0  0  0  0  0  0
  -28.6412  -21.5250   19.8069 C   0  0  0  0  0  0  0  0  0  0  0  0
  -19.3696  -28.8894   22.8942 C   0  0  0  0  0  0  0  0  0  0  0  0
  -17.5292  -26.8771   23.4825 C   0  0  0  0  0  0  0  0  0  0  0  0
  -19.7001  -27.8869   23.8060 C   0  0  0  0  0  0  0  0  0  0  0  0
  -25.2012  -28.3631   20.4256 C   0  0  0  0  0  0  0  0  0  0  0  0
  -27.1058  -27.3498   20.0008 C   0  0  0  0  0  0  0  0  0  0  0  0
  -25.8409  -26.3717   21.9223 C   0  0  0  0  0  0  0  0  0  0  0  0
  -25.4871  -17.1397   20.3410 C   0  0  0  0  0  0  0  0  0  0  0  0
  -23.1242  -19.0951   21.3972 C   0  0  0  0  0  0  0  0  0  0  0  0
  -22.0924  -22.2687   22.1112 C   0  0  0  0  0  0  0  0  0  0  0  0
  -29.2336  -27.8497   14.8658 C   0  0  0  0  0  0  0  0  0  0  0  0
  -24.4131  -12.1500   20.2568 C   0  0  0  0  0  0  0  0  0  0  0  0
  -26.6874  -18.4648   22.1185 C   0  0  0  0  0  0  0  0  0  0  0  0
  -25.1156  -20.2102   20.3219 C   0  0  0  0  0  0  0  0  0  0  0  0
  -23.6240  -13.4403   20.0498 C   0  0  0  0  0  0  0  0  0  0  0  0
  -28.5025  -30.8541   16.6310 C   0  0  0  0  0  0  0  0  0  0  0  0
  -24.3548  -14.3632   19.0797 C   0  0  0  0  0  0  0  0  0  0  0  0
  -27.6420  -30.3875   17.8065 C   0  0  0  0  0  0  0  0  0  0  0  0
  -28.2123  -30.0506   15.3652 C   0  0  0  0  0  0  0  0  0  0  0  0
  -27.4548  -28.1212   16.6985 C   0  0  0  0  0  0  0  0  0  0  0  0
  -25.7276  -14.7672   19.6308 C   0  0  1  0  0  0  0  0  0  0  0  0
  -25.3432  -18.0257   21.5460 C   0  0  1  0  0  0  0  0  0  0  0  0
  -27.7517  -28.8647   18.0121 C   0  0  2  0  0  0  0  0  0  0  0  0
  -34.1694  -26.9087   18.2036 C   0  0  0  0  0  0  0  0  0  0  0  0
  -31.9445  -28.0525   18.5135 C   0  0  0  0  0  0  0  0  0  0  0  0
  -20.0964  -23.5557   22.9218 C   0  0  0  0  0  0  0  0  0  0  0  0
  -21.8172  -18.7889   18.6572 C   0  0  0  0  0  0  0  0  0  0  0  0
  -20.4017  -20.7849   19.1867 C   0  0  0  0  0  0  0  0  0  0  0  0
  -20.2255  -18.7267   20.5851 C   0  0  0  0  0  0  0  0  0  0  0  0
  -23.5529  -23.2644   24.4850 C   0  0  0  0  0  0  0  0  0  0  0  0
  -30.1739  -25.5835   14.4924 C   0  0  0  0  0  0  0  0  0  0  0  0
  -30.6767  -22.6250   19.2287 C   0  0  0  0  0  0  0  0  0  1  0  0
  -32.7109  -26.9869   17.6963 C   0  0  0  0  0  0  0  0  0  0  0  0
  -31.5695  -25.4619   15.1465 C   0  0  2  0  0  0  0  0  0  0  0  0
  -22.2819  -20.1846   20.7790 C   0  0  1  0  0  0  0  0  0  0  0  0
  -21.3823  -22.8489   23.3211 C   0  0  2  0  0  0  0  0  0  0  0  0
  -21.2099  -19.6231   19.8027 C   0  0  0  0  0  0  0  0  0  0  0  0
  -25.7089  -29.0279   19.3843 N   0  0  0  0  0  0  0  0  0  0  0  0
  -31.1380  -23.7547   18.3468 N   0  0  0  0  0  0  0  0  0  0  0  0
  -26.8673  -28.3882   19.1495 N   0  0  0  0  0  0  0  0  0  0  0  0
  -24.5024  -19.1561   21.1468 N   0  0  0  0  0  0  0  0  0  0  0  0
  -28.3349  -28.6146   15.6276 N   0  0  0  0  0  0  0  0  0  0  0  0
  -28.2242  -26.5998   19.9050 N   0  0  0  0  0  0  0  0  0  0  0  0
  -24.6782  -26.4694   22.6987 N   0  0  0  0  0  0  0  0  0  0  0  0
  -25.5846  -15.7942   20.6404 N   0  0  0  0  0  0  0  0  0  0  0  0
  -21.7334  -20.9561   21.8891 N   0  0  0  0  0  0  0  0  0  0  0  0
  -29.2926  -26.4982   15.1834 N   0  0  0  0  0  0  0  0  0  0  0  0
  -32.4104  -24.5858   14.2459 N   0  3  0  0  0  0  0  0  0  0  0  0
  -22.2618  -23.8306   24.0165 N   0  3  0  0  0  0  0  0  0  0  0  0
  -26.6870  -25.4860   22.1926 O   0  0  0  0  0  0  0  0  0  0  0  0
  -25.5068  -17.6396   19.2224 O   0  0  0  0  0  0  0  0  0  0  0  0
  -22.5804  -18.2260   22.0832 O   0  0  0  0  0  0  0  0  0  0  0  0
  -22.8834  -22.9165   21.4291 O   0  0  0  0  0  0  0  0  0  0  0  0
  -29.9355  -28.3362   13.9728 O   0  0  0  0  0  0  0  0  0  0  0  0
  -20.2817  -29.8895   22.6018 O   0  0  0  0  0  0  0  0  0  0  0  0
  -29.2599  -22.4955   19.0808 O   0  0  0  0  0  0  0  0  0  1  0  0
  -16.6449  -25.9118   23.7660 F   0  0  0  0  0  0  0  0  0  0  0  0
  -20.8996  -27.8857   24.4034 F   0  0  0  0  0  0  0  0  0  0  0  0
  1  2  1  0  0  0  0
  1  5  2  0  0  0  0
  2  6  2  0  0  0  0
  3  8  2  0  0  0  0
  3 17  1  0  0  0  0
  4  9  1  0  0  0  0
  4 17  2  0  0  0  0
  5 19  1  0  0  0  0
  6 21  1  0  0  0  0
  7 10  2  0  0  0  0
  7 20  1  0  0  0  0
  8 25  1  0  0  0  0
  9 25  2  0  0  0  0
 10 26  1  0  0  0  0
 11 12  2  0  0  0  0
 11 27  1  0  0  0  0
 12 28  1  0  0  0  0
 13 22  1  0  0  0  0
 13 26  2  0  0  0  0
 14 28  2  0  0  0  0
 14 29  1  0  0  0  0
 15 23  2  0  0  0  0
 15 64  1  0  0  0  0
 16 24  2  0  0  0  0
 16 64  1  0  0  0  0
 17 30  1  0  0  0  0
 18 30  1  0  0  0  0
 18 31  2  0  0  0  0
 18 32  1  0  0  0  0
 19 21  2  0  0  0  0
 19 37  1  0  0  0  0
 20 22  2  0  0  0  0
 20 38  1  0  0  0  0
 21 46  1  0  0  0  0
 22 39  1  0  0  0  0
 23 24  1  0  0  0  0
 23 58  1  0  0  0  0
 24 59  1  0  0  0  0
 25 80  1  0  0  0  0
 26 81  1  0  0  0  0
 27 29  2  0  0  0  0
 27 80  1  0  0  0  0
 28 82  1  0  0  0  0
 29 83  1  0  0  0  0
 30 63  2  0  0  0  0
 31 65  1  0  0  0  0
 31 68  1  0  0  0  0
 32 69  1  0  0  0  0
 32 75  2  0  0  0  0
 33 47  1  0  0  0  0
 33 70  1  0  0  0  0
 33 76  2  0  0  0  0
 34 60  1  0  0  0  0
 34 66  1  0  0  0  0
 34 77  2  0  0  0  0
 35 61  1  0  0  0  0
 35 71  1  0  0  0  0
 35 78  2  0  0  0  0
 36 67  1  0  0  0  0
 36 72  1  0  0  0  0
 36 79  2  0  0  0  0
 37 40  1  0  0  0  0
 38 47  1  0  0  0  0
 39 66  1  0  0  0  0
 40 42  1  0  0  0  0
 41 43  1  0  0  0  0
 41 44  1  0  0  0  0
 42 46  1  0  0  0  0
 43 48  1  0  0  0  0
 44 67  1  0  0  0  0
 45 48  1  0  0  0  0
 45 67  1  0  0  0  0
 46 70  1  0  0  0  0
 47 66  1  0  0  0  0
 48 65  1  0  0  0  0
 49 58  1  0  0  0  0
 50 58  1  0  0  0  0
 51 61  1  0  0  0  0
 52 62  1  0  0  0  0
 53 62  1  0  0  0  0
 54 62  1  0  0  0  0
 55 74  1  0  0  0  0
 56 59  1  0  0  0  0
 56 72  1  0  0  0  0
 57 64  1  0  0  0  0
 57 81  1  0  0  0  0
 59 73  1  0  0  0  0
 60 62  1  0  0  0  0
 60 71  1  0  0  0  0
 61 74  1  0  0  0  0
 63 65  1  0  0  0  0
M  CHG  2  73   1  74   1
M  ISO  4  36 100  57 101  72 100  81 101
M  END
> <Batch ID>
0123

> <Smiles>
CNC(C)C(=O)NC(C(=O)N1Cc2cc([101O:1][101CH2:1]n3cc(C(C)C)c(C(N)C[100NH:0][100C:0](=O)N4CCCC(n5nc(-c6ccc(Oc7ccc(F)cc7F)cc6)c(C(N)=O)c5N)C4)c3)ccc2CC1C(=O)NC1CCCc2ccccc21)C(C)(C)C

> <Shape>
0.199

> <Color>
0.073

> <Negative vol penalty>
0.000

$$$$

  -OEChem-04052320303D

 85 93  0     1  0  0  0  0  0999 V2000
  -23.6605   -9.0392   18.8510 C   0  0  0  0  0  0  0  0  0  0  0  0
  -24.6432   -9.8745   18.3295 C   0  0  0  0  0  0  0  0  0  0  0  0
  -21.5023  -26.0208   23.9338 C   0  0  0  0  0  0  0  0  0  0  0  0
  -21.9138  -25.7779   21.5655 C   0  0  0  0  0  0  0  0  0  0  0  0
  -22.7499   -9.5338   19.7838 C   0  0  0  0  0  0  0  0  0  0  0  0
  -24.7152  -11.2053   18.7397 C   0  0  0  0  0  0  0  0  0  0  0  0
  -29.4679  -16.4317   19.9280 C   0  0  0  0  0  0  0  0  0  0  0  0
  -20.2333  -26.5315   23.6609 C   0  0  0  0  0  0  0  0  0  0  0  0
  -20.6448  -26.2886   21.2926 C   0  0  0  0  0  0  0  0  0  0  0  0
  -29.7170  -17.7597   19.5842 C   0  0  0  0  0  0  0  0  0  0  0  0
  -17.0220  -28.2356   23.5761 C   0  0  0  0  0  0  0  0  0  0  0  0
  -16.6119  -29.3680   24.2797 C   0  0  0  0  0  0  0  0  0  0  0  0
  -28.1402  -18.4832   21.2604 C   0  0  0  0  0  0  0  0  0  0  0  0
  -30.5155  -24.2674   19.9166 C   0  0  0  0  0  0  0  0  0  0  0  0
  -28.0531  -23.1174   19.2868 C   0  0  0  0  0  0  0  0  0  0  0  0
  -18.4794  -30.6059   23.3757 C   0  0  0  0  0  0  0  0  0  0  0  0
  -22.3426  -25.6441   22.8861 C   0  0  0  0  0  0  0  0  0  0  0  0
  -24.0030  -23.7678   23.3661 C   0  0  0  0  0  0  0  0  0  0  0  0
  -22.8168  -10.8687   20.2130 C   0  0  0  0  0  0  0  0  0  0  0  0
  -28.5435  -16.1186   20.9349 C   0  0  0  0  0  0  0  0  0  0  0  0
  -23.8038  -11.7186   19.6782 C   0  0  0  0  0  0  0  0  0  0  0  0
  -27.8831  -17.1505   21.6169 C   0  0  0  0  0  0  0  0  0  0  0  0
  -30.1838  -23.0098   20.4206 C   0  0  0  0  0  0  0  0  0  0  0  0
  -28.3848  -24.3750   18.7828 C   0  0  0  0  0  0  0  0  0  0  0  0
  -28.9526  -22.4348   20.1057 C   0  0  0  0  0  0  0  0  0  0  0  0
  -29.6160  -24.9500   19.0977 C   0  0  0  0  0  0  0  0  0  0  0  0
  -19.8046  -26.6654   22.3404 C   0  0  0  0  0  0  0  0  0  0  0  0
  -29.0509  -18.7855   20.2484 C   0  0  0  0  0  0  0  0  0  0  0  0
  -18.1609  -28.2883   22.7723 C   0  0  0  0  0  0  0  0  0  0  0  0
  -17.3406  -30.5532   24.1795 C   0  0  0  0  0  0  0  0  0  0  0  0
  -18.8895  -29.4735   22.6721 C   0  0  0  0  0  0  0  0  0  0  0  0
  -23.6538  -25.1170   23.1673 C   0  0  0  0  0  0  0  0  0  0  0  0
  -25.3565  -23.7940   23.5978 C   0  0  0  0  0  0  0  0  0  0  0  0
  -23.1776  -22.5956   23.3434 C   0  0  0  0  0  0  0  0  0  0  0  0
  -25.8052  -14.5082   21.0440 C   0  0  0  0  0  0  0  0  0  0  0  0
  -26.0797  -15.0238   24.2347 C   0  0  0  0  0  0  0  0  0  0  0  0
  -27.3706  -16.9182   26.7629 C   0  0  0  0  0  0  0  0  0  0  0  0
  -29.6815  -27.6415   22.0673 C   0  0  0  0  0  0  0  0  0  0  0  0
  -21.7812  -11.3706   21.1878 C   0  0  0  0  0  0  0  0  0  0  0  0
  -28.3059  -14.6821   21.3123 C   0  0  0  0  0  0  0  0  0  0  0  0
  -26.8964  -16.8681   22.7192 C   0  0  0  0  0  0  0  0  0  0  0  0
  -22.1590  -12.6927   21.8508 C   0  0  0  0  0  0  0  0  0  0  0  0
  -28.8002  -26.6100   25.3591 C   0  0  0  0  0  0  0  0  0  0  0  0
  -22.6665  -13.6859   20.8103 C   0  0  0  0  0  0  0  0  0  0  0  0
  -27.4128  -25.9887   25.1886 C   0  0  0  0  0  0  0  0  0  0  0  0
  -28.9957  -27.8148   24.4413 C   0  0  0  0  0  0  0  0  0  0  0  0
  -27.3374  -26.9356   22.8441 C   0  0  0  0  0  0  0  0  0  0  0  0
  -23.9296  -13.1614   20.1169 C   0  0  1  0  0  0  0  0  0  0  0  0
  -26.9628  -14.4594   22.0007 C   0  0  1  0  0  0  0  0  0  0  0  0
  -27.1133  -25.6831   23.7087 C   0  0  2  0  0  0  0  0  0  0  0  0
  -31.1632  -22.2976   21.2948 C   0  0  0  0  0  0  0  0  0  0  0  0
  -26.6692  -26.1987   18.6507 C   0  0  0  0  0  0  0  0  0  0  0  0
  -31.1926  -26.2432   17.5940 C   0  0  0  0  0  0  0  0  0  0  0  0
  -27.3885  -17.1164   29.2644 C   0  0  0  0  0  0  0  0  0  0  0  0
  -30.1548  -28.8091   19.0815 C   0  0  0  0  0  0  0  0  0  0  0  0
  -23.2684  -16.2074   24.1586 C   0  0  0  0  0  0  0  0  0  0  0  0
  -23.7114  -17.2251   26.4028 C   0  0  0  0  0  0  0  0  0  0  0  0
  -23.7315  -14.7452   26.1339 C   0  0  0  0  0  0  0  0  0  0  0  0
  -30.3005  -16.5198   26.8895 C   0  0  0  0  0  0  0  0  0  0  0  0
  -27.4055  -25.0873   17.9088 C   0  0  0  0  0  0  0  0  0  0  0  0
  -28.5742  -21.0831   20.6357 C   0  0  0  0  0  0  0  0  0  1  0  0
  -29.9927  -26.2956   18.5704 C   0  0  2  0  0  0  0  0  0  0  0  0
  -25.6359  -16.1103   25.1842 C   0  0  1  0  0  0  0  0  0  0  0  0
  -28.0863  -16.5338   28.0453 C   0  0  2  0  0  0  0  0  0  0  0  0
  -30.2253  -27.3954   19.6584 C   0  0  2  0  0  0  0  0  0  0  0  0
  -24.1039  -16.0776   25.4478 C   0  0  0  0  0  0  0  0  0  0  0  0
  -24.7010  -25.9403   23.2643 N   0  0  0  0  0  0  0  0  0  0  0  0
  -25.7215  -25.1062   23.5267 N   0  0  0  0  0  0  0  0  0  0  0  0
  -26.6935  -15.4474   23.0474 N   0  0  0  0  0  0  0  0  0  0  0  0
  -28.6972  -27.4576   23.0523 N   0  0  0  0  0  0  0  0  0  0  0  0
  -26.2582  -22.8223   23.8534 N   0  0  0  0  0  0  0  0  0  0  0  0
  -21.8075  -22.7480   23.0905 N   0  0  0  0  0  0  0  0  0  0  0  0
  -25.0839  -13.3316   20.9732 N   0  0  0  0  0  0  0  0  0  0  0  0
  -26.4520  -15.9621   26.3843 N   0  0  0  0  0  0  0  0  0  0  0  0
  -29.3187  -27.2716   20.7780 N   0  0  0  0  0  0  0  0  0  0  0  0
  -29.4905  -17.0325   28.0244 N   0  3  0  0  0  0  0  0  0  0  0  0
  -23.6385  -21.4488   23.5578 O   0  0  0  0  0  0  0  0  0  0  0  0
  -25.5819  -15.5375   20.4176 O   0  0  0  0  0  0  0  0  0  0  0  0
  -25.8952  -13.8426   24.5387 O   0  0  0  0  0  0  0  0  0  0  0  0
  -27.6007  -17.9639   26.1595 O   0  0  0  0  0  0  0  0  0  0  0  0
  -30.8025  -28.0962   22.3191 O   0  0  0  0  0  0  0  0  0  0  0  0
  -18.5663  -27.1635   22.0738 O   0  0  0  0  0  0  0  0  0  0  0  0
  -29.2917  -20.0826   19.9142 O   0  0  0  0  0  0  0  0  0  1  0  0
  -16.9458  -31.6409   24.8540 F   0  0  0  0  0  0  0  0  0  0  0  0
  -19.9837  -29.5306   21.9006 F   0  0  0  0  0  0  0  0  0  0  0  0
  1  2  1  0  0  0  0
  1  5  2  0  0  0  0
  2  6  2  0  0  0  0
  3  8  2  0  0  0  0
  3 17  1  0  0  0  0
  4  9  1  0  0  0  0
  4 17  2  0  0  0  0
  5 19  1  0  0  0  0
  6 21  1  0  0  0  0
  7 10  2  0  0  0  0
  7 20  1  0  0  0  0
  8 27  1  0  0  0  0
  9 27  2  0  0  0  0
 10 28  1  0  0  0  0
 11 12  2  0  0  0  0
 11 29  1  0  0  0  0
 12 30  1  0  0  0  0
 13 22  1  0  0  0  0
 13 28  2  0  0  0  0
 14 23  2  0  0  0  0
 14 26  1  0  0  0  0
 15 24  1  0  0  0  0
 15 25  2  0  0  0  0
 16 30  2  0  0  0  0
 16 31  1  0  0  0  0
 17 32  1  0  0  0  0
 18 32  1  0  0  0  0
 18 33  2  0  0  0  0
 18 34  1  0  0  0  0
 19 21  2  0  0  0  0
 19 39  1  0  0  0  0
 20 22  2  0  0  0  0
 20 40  1  0  0  0  0
 21 48  1  0  0  0  0
 22 41  1  0  0  0  0
 23 25  1  0  0  0  0
 23 51  1  0  0  0  0
 24 26  2  0  0  0  0
 24 60  1  0  0  0  0
 25 61  1  0  0  0  0
 26 62  1  0  0  0  0
 27 82  1  0  0  0  0
 28 83  1  0  0  0  0
 29 31  2  0  0  0  0
 29 82  1  0  0  0  0
 30 84  1  0  0  0  0
 31 85  1  0  0  0  0
 32 67  2  0  0  0  0
 33 68  1  0  0  0  0
 33 71  1  0  0  0  0
 34 72  1  0  0  0  0
 34 77  2  0  0  0  0
 35 49  1  0  0  0  0
 35 73  1  0  0  0  0
 35 78  2  0  0  0  0
 36 63  1  0  0  0  0
 36 69  1  0  0  0  0
 36 79  2  0  0  0  0
 37 64  1  0  0  0  0
 37 74  1  0  0  0  0
 37 80  2  0  0  0  0
 38 70  1  0  0  0  0
 38 75  1  0  0  0  0
 38 81  2  0  0  0  0
 39 42  1  0  0  0  0
 40 49  1  0  0  0  0
 41 69  1  0  0  0  0
 42 44  1  0  0  0  0
 43 45  1  0  0  0  0
 43 46  1  0  0  0  0
 44 48  1  0  0  0  0
 45 50  1  0  0  0  0
 46 70  1  0  0  0  0
 47 50  1  0  0  0  0
 47 70  1  0  0  0  0
 48 73  1  0  0  0  0
 49 69  1  0  0  0  0
 50 68  1  0  0  0  0
 52 60  1  0  0  0  0
 53 62  1  0  0  0  0
 54 64  1  0  0  0  0
 55 65  1  0  0  0  0
 56 66  1  0  0  0  0
 57 66  1  0  0  0  0
 58 66  1  0  0  0  0
 59 76  1  0  0  0  0
 61 83  1  0  0  0  0
 62 65  1  0  0  0  0
 63 66  1  0  0  0  0
 63 74  1  0  0  0  0
 64 76  1  0  0  0  0
 65 75  1  0  0  0  0
 67 68  1  0  0  0  0
M  CHG  1  76   1
M  ISO  4  38 100  61 101  75 100  83 101
M  END
> <Batch ID>
0123

> <Smiles>
CCc1cc([101CH2:1][101O:1]c2ccc3c(c2)CN(C(=O)C(NC(=O)C(C)NC)C(C)(C)C)C(C(=O)NC2CCCc4ccccc42)C3)c(C)cc1C(C)C(C)[100NH:0][100C:0](=O)N1CCCC(n2nc(-c3ccc(Oc4ccc(F)cc4F)cc3)c(C(N)=O)c2N)C1

> <Shape>
0.226

> <Color>
0.052

> <Negative vol penalty>
0.000

$$$$

  -OEChem-04052320303D

 83 91  0     1  0  0  0  0  0999 V2000
  -18.0469  -27.1189   22.7114 C   0  0  0  0  0  0  0  0  0  0  0  0
  -18.6542  -26.7748   21.5080 C   0  0  0  0  0  0  0  0  0  0  0  0
  -25.8703  -14.3523   20.9533 C   0  0  0  0  0  0  0  0  0  0  0  0
  -25.1640  -13.1918   18.9555 C   0  0  0  0  0  0  0  0  0  0  0  0
  -18.8056  -27.6778   23.7390 C   0  0  0  0  0  0  0  0  0  0  0  0
  -20.0205  -26.9903   21.3312 C   0  0  0  0  0  0  0  0  0  0  0  0
  -22.3492  -23.0378   19.1864 C   0  0  0  0  0  0  0  0  0  0  0  0
  -24.9682  -13.6024   21.7079 C   0  0  0  0  0  0  0  0  0  0  0  0
  -24.2619  -12.4418   19.7101 C   0  0  0  0  0  0  0  0  0  0  0  0
  -22.2025  -22.8833   17.8086 C   0  0  0  0  0  0  0  0  0  0  0  0
  -22.0294   -9.9691   21.1659 C   0  0  0  0  0  0  0  0  0  0  0  0
  -21.9684   -8.5959   20.9284 C   0  0  0  0  0  0  0  0  0  0  0  0
  -24.3760  -23.8743   17.4722 C   0  0  0  0  0  0  0  0  0  0  0  0
  -24.2987   -8.3881   21.5317 C   0  0  0  0  0  0  0  0  0  0  0  0
  -25.9682  -14.1471   19.5771 C   0  0  0  0  0  0  0  0  0  0  0  0
  -28.2397  -14.6017   18.5089 C   0  0  0  0  0  0  0  0  0  0  0  0
  -20.1837  -27.8913   23.5782 C   0  0  0  0  0  0  0  0  0  0  0  0
  -23.5076  -23.6227   19.7177 C   0  0  0  0  0  0  0  0  0  0  0  0
  -20.7981  -27.5538   22.3571 C   0  0  0  0  0  0  0  0  0  0  0  0
  -24.5360  -24.0327   18.8573 C   0  0  0  0  0  0  0  0  0  0  0  0
  -24.1640  -12.6471   21.0863 C   0  0  0  0  0  0  0  0  0  0  0  0
  -23.2148  -23.3042   16.9511 C   0  0  0  0  0  0  0  0  0  0  0  0
  -23.2251  -10.5517   21.5862 C   0  0  0  0  0  0  0  0  0  0  0  0
  -23.1030   -7.8054   21.1113 C   0  0  0  0  0  0  0  0  0  0  0  0
  -24.3597   -9.7612   21.7691 C   0  0  0  0  0  0  0  0  0  0  0  0
  -26.8995  -14.9219   18.7970 C   0  0  0  0  0  0  0  0  0  0  0  0
  -28.6857  -15.6498   17.7414 C   0  0  0  0  0  0  0  0  0  0  0  0
  -29.0124  -13.4591   18.9000 C   0  0  0  0  0  0  0  0  0  0  0  0
  -24.1208  -26.2264   21.4349 C   0  0  0  0  0  0  0  0  0  0  0  0
  -27.1233  -25.0007   21.5025 C   0  0  0  0  0  0  0  0  0  0  0  0
  -29.4625  -22.9832   20.0516 C   0  0  0  0  0  0  0  0  0  0  0  0
  -25.8403  -19.4272   14.2073 C   0  0  0  0  0  0  0  0  0  0  0  0
  -20.9533  -28.5418   24.7003 C   0  0  0  0  0  0  0  0  0  0  0  0
  -23.6619  -23.7578   21.2078 C   0  0  0  0  0  0  0  0  0  0  0  0
  -25.8081  -24.6480   19.3786 C   0  0  0  0  0  0  0  0  0  0  0  0
  -22.4667  -28.3914   24.5682 C   0  0  0  0  0  0  0  0  0  0  0  0
  -27.9613  -20.3223   16.9996 C   0  0  0  0  0  0  0  0  0  0  0  0
  -22.9132  -28.7154   23.1461 C   0  0  0  0  0  0  0  0  0  0  0  0
  -28.0529  -18.9927   17.7505 C   0  0  0  0  0  0  0  0  0  0  0  0
  -21.9367  -23.4673   11.3146 C   0  0  0  0  0  0  0  0  0  0  0  0
  -20.6458  -24.2519   11.5710 C   0  0  0  0  0  0  0  0  0  0  0  0
  -26.5698  -20.5289   16.4088 C   0  0  0  0  0  0  0  0  0  0  0  0
  -26.1991  -18.0966   16.2671 C   0  0  0  0  0  0  0  0  0  0  0  0
  -22.2824  -27.7493   22.1362 C   0  0  1  0  0  0  0  0  0  0  0  0
  -24.6635  -24.8362   21.6095 C   0  0  1  0  0  0  0  0  0  0  0  0
  -21.7920  -23.7697   13.6787 C   0  0  1  0  0  0  0  0  0  0  0  0
  -27.5885  -17.8182   16.8689 C   0  0  2  0  0  0  0  0  0  0  0  0
  -22.2152  -22.7495   12.6233 C   0  0  2  0  0  0  0  0  0  0  0  0
  -20.4430  -24.2972   13.1114 C   0  0  1  0  0  0  0  0  0  0  0  0
  -20.1711  -25.7321   13.5836 C   0  0  0  0  0  0  0  0  0  0  0  0
  -17.9899  -23.9031   12.8367 C   0  0  0  0  0  0  0  0  0  0  0  0
  -31.6303  -21.7466   19.7890 C   0  0  0  0  0  0  0  0  0  0  0  0
  -28.1093  -27.6874   20.4447 C   0  0  0  0  0  0  0  0  0  0  0  0
  -30.2698  -26.5771   19.8385 C   0  0  0  0  0  0  0  0  0  0  0  0
  -29.5466  -26.6758   22.2238 C   0  0  0  0  0  0  0  0  0  0  0  0
  -28.4342  -20.6326   21.5270 C   0  0  0  0  0  0  0  0  0  0  0  0
  -21.7474  -23.2044   15.0822 C   0  0  0  0  0  0  0  0  0  1  0  0
  -19.2354  -23.4212   13.4946 C   0  0  0  0  0  0  0  0  0  0  0  0
  -25.5190  -20.8885   12.2277 C   0  0  0  0  0  0  0  0  0  0  0  0
  -24.0379  -21.1494   12.0265 C   0  0  0  0  0  0  0  0  0  0  0  0
  -28.3481  -25.1232   20.6284 C   0  0  1  0  0  0  0  0  0  0  0  0
  -30.3783  -21.9220   20.6344 C   0  0  2  0  0  0  0  0  0  0  0  0
  -29.0438  -26.5061   20.7736 C   0  0  0  0  0  0  0  0  0  0  0  0
  -26.5190  -16.0826   18.2567 N   0  0  0  0  0  0  0  0  0  0  0  0
  -27.6269  -16.5010   17.6214 N   0  0  0  0  0  0  0  0  0  0  0  0
  -25.9089  -24.7645   20.8427 N   0  0  0  0  0  0  0  0  0  0  0  0
  -26.1957  -19.3847   15.5657 N   0  0  0  0  0  0  0  0  0  0  0  0
  -29.8765  -15.9172   17.1642 N   0  0  0  0  0  0  0  0  0  0  0  0
  -28.3993  -12.4760   19.6886 N   0  0  0  0  0  0  0  0  0  0  0  0
  -22.9697  -26.4759   22.1576 N   0  0  0  0  0  0  0  0  0  0  0  0
  -29.2014  -23.9873   20.9598 N   0  0  0  0  0  0  0  0  0  0  0  0
  -25.8554  -20.6862   13.6195 N   0  0  0  0  0  0  0  0  0  0  0  0
  -23.6453  -22.4017   12.7351 N   0  3  0  0  0  0  0  0  0  0  0  0
  -29.6725  -20.6115   20.7065 N   0  3  0  0  0  0  0  0  0  0  0  0
  -30.2159  -13.3220   18.5738 O   0  0  0  0  0  0  0  0  0  0  0  0
  -24.7040  -27.0148   20.7001 O   0  0  0  0  0  0  0  0  0  0  0  0
  -27.2410  -25.1033   22.7262 O   0  0  0  0  0  0  0  0  0  0  0  0
  -29.0255  -22.9288   18.9041 O   0  0  0  0  0  0  0  0  0  0  0  0
  -25.5368  -18.4168   13.5638 O   0  0  0  0  0  0  0  0  0  0  0  0
  -23.2838  -11.9150   21.8223 O   0  0  0  0  0  0  0  0  0  0  0  0
  -23.0740  -23.1552   15.6058 O   0  0  0  0  0  0  0  0  0  1  0  0
  -23.0439   -6.4866   20.8847 F   0  0  0  0  0  0  0  0  0  0  0  0
  -25.5108  -10.3151   22.1739 F   0  0  0  0  0  0  0  0  0  0  0  0
  1  2  1  0  0  0  0
  1  5  2  0  0  0  0
  2  6  2  0  0  0  0
  3  8  2  0  0  0  0
  3 15  1  0  0  0  0
  4  9  1  0  0  0  0
  4 15  2  0  0  0  0
  5 17  1  0  0  0  0
  6 19  1  0  0  0  0
  7 10  2  0  0  0  0
  7 18  1  0  0  0  0
  8 21  1  0  0  0  0
  9 21  2  0  0  0  0
 10 22  1  0  0  0  0
 11 12  2  0  0  0  0
 11 23  1  0  0  0  0
 12 24  1  0  0  0  0
 13 20  1  0  0  0  0
 13 22  2  0  0  0  0
 14 24  2  0  0  0  0
 14 25  1  0  0  0  0
 15 26  1  0  0  0  0
 16 26  1  0  0  0  0
 16 27  2  0  0  0  0
 16 28  1  0  0  0  0
 17 19  2  0  0  0  0
 17 33  1  0  0  0  0
 18 20  2  0  0  0  0
 18 34  1  0  0  0  0
 19 44  1  0  0  0  0
 20 35  1  0  0  0  0
 21 80  1  0  0  0  0
 22 81  1  0  0  0  0
 23 25  2  0  0  0  0
 23 80  1  0  0  0  0
 24 82  1  0  0  0  0
 25 83  1  0  0  0  0
 26 64  2  0  0  0  0
 27 65  1  0  0  0  0
 27 68  1  0  0  0  0
 28 69  1  0  0  0  0
 28 75  2  0  0  0  0
 29 45  1  0  0  0  0
 29 70  1  0  0  0  0
 29 76  2  0  0  0  0
 30 61  1  0  0  0  0
 30 66  1  0  0  0  0
 30 77  2  0  0  0  0
 31 62  1  0  0  0  0
 31 71  1  0  0  0  0
 31 78  2  0  0  0  0
 32 67  1  0  0  0  0
 32 72  1  0  0  0  0
 32 79  2  0  0  0  0
 33 36  1  0  0  0  0
 34 45  1  0  0  0  0
 35 66  1  0  0  0  0
 36 38  1  0  0  0  0
 37 39  1  0  0  0  0
 37 42  1  0  0  0  0
 38 44  1  0  0  0  0
 39 47  1  0  0  0  0
 40 41  1  0  0  0  0
 40 48  1  0  0  0  0
 41 49  1  0  0  0  0
 42 67  1  0  0  0  0
 43 47  1  0  0  0  0
 43 67  1  0  0  0  0
 44 70  1  0  0  0  0
 45 66  1  0  0  0  0
 46 48  1  0  0  0  0
 46 49  1  0  0  0  0
 46 57  1  0  0  0  0
 47 65  1  0  0  0  0
 48 73  1  0  0  0  0
 49 50  1  0  0  0  0
 49 58  1  0  0  0  0
 51 58  1  0  0  0  0
 52 62  1  0  0  0  0
 53 63  1  0  0  0  0
 54 63  1  0  0  0  0
 55 63  1  0  0  0  0
 56 74  1  0  0  0  0
 57 81  1  0  0  0  0
 59 60  1  0  0  0  0
 59 72  1  0  0  0  0
 60 73  1  0  0  0  0
 61 63  1  0  0  0  0
 61 71  1  0  0  0  0
 62 74  1  0  0  0  0
 64 65  1  0  0  0  0
M  CHG  2  73   1  74   1
M  ISO  4  32 100  57 101  72 100  81 101
M  END
> <Batch ID>
0123

> <Smiles>
CCC1(C)CCC(NCC[100NH:0][100C:0](=O)N2CCCC(n3nc(-c4ccc(Oc5ccc(F)cc5F)cc4)c(C(N)=O)c3N)C2)C1[101CH2:1][101O:1]c1ccc2c(c1)CN(C(=O)C(NC(=O)C(C)NC)C(C)(C)C)C(C(=O)NC1CCCc3ccccc31)C2

> <Shape>
0.205

> <Color>
0.063

> <Negative vol penalty>
0.000

$$$$

  -OEChem-04052320303D

 90 99  0     1  0  0  0  0  0999 V2000
  -16.4296  -26.8993   21.2503 C   0  0  0  0  0  0  0  0  0  0  0  0
  -17.3155  -27.3877   20.2953 C   0  0  0  0  0  0  0  0  0  0  0  0
  -29.2650  -24.0891   26.0353 C   0  0  0  0  0  0  0  0  0  0  0  0
  -24.2266  -15.7304   19.5297 C   0  0  0  0  0  0  0  0  0  0  0  0
  -25.4743  -14.7639   21.3589 C   0  0  0  0  0  0  0  0  0  0  0  0
  -16.5007  -27.3584   22.5648 C   0  0  0  0  0  0  0  0  0  0  0  0
  -18.2723  -28.3366   20.6541 C   0  0  0  0  0  0  0  0  0  0  0  0
  -25.3008  -27.0388   19.7552 C   0  0  0  0  0  0  0  0  0  0  0  0
  -30.0382  -24.9230   25.2276 C   0  0  0  0  0  0  0  0  0  0  0  0
  -27.8729  -24.1545   25.9748 C   0  0  0  0  0  0  0  0  0  0  0  0
  -23.8684  -14.4529   19.0990 C   0  0  0  0  0  0  0  0  0  0  0  0
  -25.1162  -13.4864   20.9282 C   0  0  0  0  0  0  0  0  0  0  0  0
  -26.6519  -26.9499   19.4195 C   0  0  0  0  0  0  0  0  0  0  0  0
  -22.4155  -11.4633   21.1129 C   0  0  0  0  0  0  0  0  0  0  0  0
  -21.9861  -10.5524   22.0780 C   0  0  0  0  0  0  0  0  0  0  0  0
  -27.0619  -29.0954   20.4571 C   0  0  0  0  0  0  0  0  0  0  0  0
  -28.0273  -25.8879   24.2990 C   0  0  0  0  0  0  0  0  0  0  0  0
  -23.8021   -9.0719   21.4886 C   0  0  0  0  0  0  0  0  0  0  0  0
  -25.0296  -15.8858   20.6596 C   0  0  0  0  0  0  0  0  0  0  0  0
  -26.1233  -18.1738   20.3831 C   0  0  0  0  0  0  0  0  0  0  0  0
  -17.4651  -28.3062   22.9421 C   0  0  0  0  0  0  0  0  0  0  0  0
  -24.8274  -28.1506   20.4576 C   0  0  0  0  0  0  0  0  0  0  0  0
  -18.3554  -28.8098   21.9746 C   0  0  0  0  0  0  0  0  0  0  0  0
  -25.7120  -29.1842   20.8071 C   0  0  0  0  0  0  0  0  0  0  0  0
  -29.4193  -25.8224   24.3595 C   0  0  0  0  0  0  0  0  0  0  0  0
  -24.3132  -13.3310   19.7983 C   0  0  0  0  0  0  0  0  0  0  0  0
  -27.5302  -27.9758   19.7693 C   0  0  0  0  0  0  0  0  0  0  0  0
  -27.2541  -25.0539   25.1067 C   0  0  0  0  0  0  0  0  0  0  0  0
  -23.5382  -11.1785   20.3356 C   0  0  0  0  0  0  0  0  0  0  0  0
  -22.6793   -9.3567   22.2658 C   0  0  0  0  0  0  0  0  0  0  0  0
  -24.2315   -9.9828   20.5235 C   0  0  0  0  0  0  0  0  0  0  0  0
  -25.4003  -17.2051   21.1047 C   0  0  0  0  0  0  0  0  0  0  0  0
  -26.2114  -19.2446   21.2388 C   0  0  0  0  0  0  0  0  0  0  0  0
  -26.6666  -18.1114   19.0577 C   0  0  0  0  0  0  0  0  0  0  0  0
  -21.8947  -29.8689   22.0457 C   0  0  0  0  0  0  0  0  0  0  0  0
  -24.2884  -30.2762   23.9205 C   0  0  0  0  0  0  0  0  0  0  0  0
  -26.3512  -30.7417   26.5973 C   0  0  0  0  0  0  0  0  0  0  0  0
  -23.8886  -22.7342   24.9229 C   0  0  0  0  0  0  0  0  0  0  0  0
  -17.4726  -28.8076   24.3645 C   0  0  0  0  0  0  0  0  0  0  0  0
  -23.3687  -28.3173   20.7862 C   0  0  0  0  0  0  0  0  0  0  0  0
  -25.1517  -30.3774   21.5320 C   0  0  0  0  0  0  0  0  0  0  0  0
  -18.7586  -29.5359   24.7468 C   0  0  0  0  0  0  0  0  0  0  0  0
  -25.1058  -19.6255   26.1601 C   0  0  0  0  0  0  0  0  0  0  0  0
  -31.6876  -24.6944   18.2474 C   0  0  0  0  0  0  0  0  0  0  0  0
  -19.1503  -30.5332   23.6610 C   0  0  0  0  0  0  0  0  0  0  0  0
  -25.3444  -18.7971   24.8965 C   0  0  0  0  0  0  0  0  0  0  0  0
  -31.5406  -25.2314   19.6718 C   0  0  0  0  0  0  0  0  0  0  0  0
  -23.8728  -20.5165   26.0264 C   0  0  0  0  0  0  0  0  0  0  0  0
  -24.1033  -20.5597   23.5731 C   0  0  0  0  0  0  0  0  0  0  0  0
  -32.4135  -25.6783   17.3452 C   0  0  0  0  0  0  0  0  0  0  0  0
  -31.6503  -27.5892   18.7742 C   0  0  0  0  0  0  0  0  0  0  0  0
  -19.4233  -29.8212   22.3306 C   0  0  1  0  0  0  0  0  0  0  0  0
  -23.1303  -29.0222   22.1336 C   0  0  1  0  0  0  0  0  0  0  0  0
  -25.3681  -19.6867   23.6390 C   0  0  2  0  0  0  0  0  0  0  0  0
  -30.9039  -26.6393   19.7281 C   0  0  2  0  0  0  0  0  0  0  0  0
  -26.7259  -32.2683   28.5534 C   0  0  0  0  0  0  0  0  0  0  0  0
  -25.4716  -32.3756   22.0506 C   0  0  0  0  0  0  0  0  0  0  0  0
  -26.6441  -33.3715   24.0259 C   0  0  0  0  0  0  0  0  0  0  0  0
  -24.1513  -33.3047   23.9606 C   0  0  0  0  0  0  0  0  0  0  0  0
  -25.9529  -28.5430   28.5379 C   0  0  0  0  0  0  0  0  0  0  0  0
  -30.2511  -26.7197   23.4911 C   0  0  0  0  0  0  0  0  0  0  0  0
  -31.0237  -27.1864   21.1622 C   0  0  0  0  0  0  0  0  0  0  0  0
  -29.4060  -26.5687   19.3707 C   0  0  0  0  0  0  0  0  0  1  0  0
  -23.9353  -24.8797   23.6762 C   0  0  0  0  0  0  0  0  0  0  0  0
  -25.3174  -25.4958   23.7991 C   0  0  0  0  0  0  0  0  0  0  0  0
  -25.4394  -31.1605   24.3284 C   0  0  1  0  0  0  0  0  0  0  0  0
  -26.0561  -30.9934   28.0649 C   0  0  2  0  0  0  0  0  0  0  0  0
  -25.4306  -32.5257   23.5845 C   0  0  0  0  0  0  0  0  0  0  0  0
  -25.0539  -17.6234   22.3250 N   0  0  0  0  0  0  0  0  0  0  0  0
  -25.5614  -18.8667   22.3768 N   0  0  0  0  0  0  0  0  0  0  0  0
  -24.2011  -29.9368   22.5649 N   0  0  0  0  0  0  0  0  0  0  0  0
  -23.9585  -21.3355   24.8149 N   0  0  0  0  0  0  0  0  0  0  0  0
  -26.7807  -20.4630   21.1214 N   0  0  0  0  0  0  0  0  0  0  0  0
  -27.9737  -17.6333   18.8933 N   0  0  0  0  0  0  0  0  0  0  0  0
  -20.7278  -29.1947   22.3510 N   0  0  0  0  0  0  0  0  0  0  0  0
  -25.3738  -31.2715   25.7816 N   0  0  0  0  0  0  0  0  0  0  0  0
  -23.9842  -23.4354   23.7271 N   0  0  0  0  0  0  0  0  0  0  0  0
  -31.7299  -27.0031   17.4016 N   0  3  0  0  0  0  0  0  0  0  0  0
  -26.5474  -29.8569   28.8944 N   0  3  0  0  0  0  0  0  0  0  0  0
  -30.2778  -26.2898   22.0619 N   0  3  0  0  0  0  0  0  0  0  0  0
  -26.0181  -18.4845   18.0508 O   0  0  0  0  0  0  0  0  0  0  0  0
  -21.9916  -31.0480   21.7260 O   0  0  0  0  0  0  0  0  0  0  0  0
  -23.4838  -29.8998   24.7774 O   0  0  0  0  0  0  0  0  0  0  0  0
  -27.3508  -30.1388   26.2127 O   0  0  0  0  0  0  0  0  0  0  0  0
  -23.7565  -23.3154   26.0054 O   0  0  0  0  0  0  0  0  0  0  0  0
  -23.9638  -12.0843   19.3784 O   0  0  0  0  0  0  0  0  0  0  0  0
  -28.8488  -27.8805   19.4424 O   0  0  0  0  0  0  0  0  0  1  0  0
  -25.8957  -25.1173   25.0473 O   0  0  0  0  0  0  0  0  0  0  0  0
  -22.2677   -8.4827   23.1937 F   0  0  0  0  0  0  0  0  0  0  0  0
  -25.3114   -9.7042   19.7806 F   0  0  0  0  0  0  0  0  0  0  0  0
  1  2  1  0  0  0  0
  1  6  2  0  0  0  0
  2  7  2  0  0  0  0
  3  9  2  0  0  0  0
  3 10  1  0  0  0  0
  4 11  2  0  0  0  0
  4 19  1  0  0  0  0
  5 12  1  0  0  0  0
  5 19  2  0  0  0  0
  6 21  1  0  0  0  0
  7 23  1  0  0  0  0
  8 13  2  0  0  0  0
  8 22  1  0  0  0  0
  9 25  1  0  0  0  0
 10 28  2  0  0  0  0
 11 26  1  0  0  0  0
 12 26  2  0  0  0  0
 13 27  1  0  0  0  0
 14 15  2  0  0  0  0
 14 29  1  0  0  0  0
 15 30  1  0  0  0  0
 16 24  1  0  0  0  0
 16 27  2  0  0  0  0
 17 25  2  0  0  0  0
 17 28  1  0  0  0  0
 18 30  2  0  0  0  0
 18 31  1  0  0  0  0
 19 32  1  0  0  0  0
 20 32  1  0  0  0  0
 20 33  2  0  0  0  0
 20 34  1  0  0  0  0
 21 23  2  0  0  0  0
 21 39  1  0  0  0  0
 22 24  2  0  0  0  0
 22 40  1  0  0  0  0
 23 52  1  0  0  0  0
 24 41  1  0  0  0  0
 25 61  1  0  0  0  0
 26 86  1  0  0  0  0
 27 87  1  0  0  0  0
 28 88  1  0  0  0  0
 29 31  2  0  0  0  0
 29 86  1  0  0  0  0
 30 89  1  0  0  0  0
 31 90  1  0  0  0  0
 32 69  2  0  0  0  0
 33 70  1  0  0  0  0
 33 73  1  0  0  0  0
 34 74  1  0  0  0  0
 34 81  2  0  0  0  0
 35 53  1  0  0  0  0
 35 75  1  0  0  0  0
 35 82  2  0  0  0  0
 36 66  1  0  0  0  0
 36 71  1  0  0  0  0
 36 83  2  0  0  0  0
 37 67  1  0  0  0  0
 37 76  1  0  0  0  0
 37 84  2  0  0  0  0
 38 72  1  0  0  0  0
 38 77  1  0  0  0  0
 38 85  2  0  0  0  0
 39 42  1  0  0  0  0
 40 53  1  0  0  0  0
 41 71  1  0  0  0  0
 42 45  1  0  0  0  0
 43 46  1  0  0  0  0
 43 48  1  0  0  0  0
 44 47  1  0  0  0  0
 44 50  1  0  0  0  0
 45 52  1  0  0  0  0
 46 54  1  0  0  0  0
 47 55  1  0  0  0  0
 48 72  1  0  0  0  0
 49 54  1  0  0  0  0
 49 72  1  0  0  0  0
 50 78  1  0  0  0  0
 51 55  1  0  0  0  0
 51 78  1  0  0  0  0
 52 75  1  0  0  0  0
 53 71  1  0  0  0  0
 54 70  1  0  0  0  0
 55 62  1  0  0  0  0
 55 63  1  0  0  0  0
 56 67  1  0  0  0  0
 57 68  1  0  0  0  0
 58 68  1  0  0  0  0
 59 68  1  0  0  0  0
 60 79  1  0  0  0  0
 61 80  1  0  0  0  0
 62 80  1  0  0  0  0
 63 87  1  0  0  0  0
 64 65  1  0  0  0  0
 64 77  1  0  0  0  0
 65 88  1  0  0  0  0
 66 68  1  0  0  0  0
 66 76  1  0  0  0  0
 67 79  1  0  0  0  0
 69 70  1  0  0  0  0
M  CHG  3  78   1  79   1  80   1
M  ISO  4  38 100  63 101  77 100  87 101
M  END
> <Batch ID>
0123

> <Smiles>
CNC(C)C(=O)NC(C(=O)N1Cc2cc([101O:1][101CH2:1]C3(CNCc4cccc(OCC[100NH:0][100C:0](=O)N5CCCC(n6nc(-c7ccc(Oc8ccc(F)cc8F)cc7)c(C(N)=O)c6N)C5)c4)CCCNC3)ccc2CC1C(=O)NC1CCCc2ccccc21)C(C)(C)C

> <Shape>
0.261

> <Color>
0.055

> <Negative vol penalty>
0.000

$$$$

  -OEChem-04052320303D

 84 92  0     1  0  0  0  0  0999 V2000
  -28.2990  -24.7984   16.8903 C   0  0  0  0  0  0  0  0  0  0  0  0
  -27.0779  -25.0382   17.5124 C   0  0  0  0  0  0  0  0  0  0  0  0
  -23.4411  -18.1881   19.6910 C   0  0  0  0  0  0  0  0  0  0  0  0
  -25.4645  -17.7380   20.9322 C   0  0  0  0  0  0  0  0  0  0  0  0
  -29.4793  -25.2565   17.4741 C   0  0  0  0  0  0  0  0  0  0  0  0
  -27.0367  -25.7354   18.7193 C   0  0  0  0  0  0  0  0  0  0  0  0
  -23.3869  -29.2448   18.8117 C   0  0  0  0  0  0  0  0  0  0  0  0
  -23.4906  -16.9055   19.1451 C   0  0  0  0  0  0  0  0  0  0  0  0
  -25.5140  -16.4553   20.3863 C   0  0  0  0  0  0  0  0  0  0  0  0
  -22.0833  -28.8020   19.0313 C   0  0  0  0  0  0  0  0  0  0  0  0
  -24.0066  -13.4737   20.8949 C   0  0  0  0  0  0  0  0  0  0  0  0
  -24.2840  -12.4139   21.7582 C   0  0  0  0  0  0  0  0  0  0  0  0
  -22.2581  -29.4545   21.3471 C   0  0  0  0  0  0  0  0  0  0  0  0
  -26.2520  -11.8751   20.4645 C   0  0  0  0  0  0  0  0  0  0  0  0
  -24.4281  -18.6044   20.5845 C   0  0  0  0  0  0  0  0  0  0  0  0
  -24.4084  -21.1518   20.4507 C   0  0  0  0  0  0  0  0  0  0  0  0
  -29.4517  -25.9681   18.6839 C   0  0  0  0  0  0  0  0  0  0  0  0
  -24.1411  -29.7866   19.8625 C   0  0  0  0  0  0  0  0  0  0  0  0
  -28.2179  -26.2023   19.3205 C   0  0  0  0  0  0  0  0  0  0  0  0
  -23.5702  -29.9058   21.1377 C   0  0  0  0  0  0  0  0  0  0  0  0
  -24.5270  -16.0391   19.4928 C   0  0  0  0  0  0  0  0  0  0  0  0
  -21.5197  -28.9041   20.2997 C   0  0  0  0  0  0  0  0  0  0  0  0
  -24.8518  -13.7342   19.8162 C   0  0  0  0  0  0  0  0  0  0  0  0
  -25.4067  -11.6146   21.5430 C   0  0  0  0  0  0  0  0  0  0  0  0
  -25.9745  -12.9349   19.6011 C   0  0  0  0  0  0  0  0  0  0  0  0
  -24.3778  -19.9294   21.1483 C   0  0  0  0  0  0  0  0  0  0  0  0
  -24.3356  -22.1094   21.4327 C   0  0  0  0  0  0  0  0  0  0  0  0
  -24.4948  -21.3995   19.0412 C   0  0  0  0  0  0  0  0  0  0  0  0
  -26.8498  -28.9902   21.3227 C   0  0  0  0  0  0  0  0  0  0  0  0
  -26.4078  -31.8220   22.8420 C   0  0  0  0  0  0  0  0  0  0  0  0
  -18.0882  -22.8858   24.3991 C   0  0  0  0  0  0  0  0  0  0  0  0
  -24.2436  -34.2555   23.8625 C   0  0  0  0  0  0  0  0  0  0  0  0
  -22.1321  -22.0813   27.0000 C   0  0  0  0  0  0  0  0  0  0  0  0
  -30.7577  -26.4023   19.3007 C   0  0  0  0  0  0  0  0  0  0  0  0
  -25.5366  -30.2843   19.6032 C   0  0  0  0  0  0  0  0  0  0  0  0
  -24.3306  -30.4986   22.2947 C   0  0  0  0  0  0  0  0  0  0  0  0
  -30.5951  -27.4589   20.3904 C   0  0  0  0  0  0  0  0  0  0  0  0
  -25.4651  -22.8613   26.0207 C   0  0  0  0  0  0  0  0  0  0  0  0
  -29.4746  -27.0689   21.3492 C   0  0  0  0  0  0  0  0  0  0  0  0
  -25.5672  -22.3086   24.5980 C   0  0  0  0  0  0  0  0  0  0  0  0
  -18.0877  -26.9545   23.1933 C   0  0  0  0  0  0  0  0  0  0  0  0
  -20.4756  -26.1579   23.4836 C   0  0  0  0  0  0  0  0  0  0  0  0
  -18.4661  -27.5922   21.8588 C   0  0  0  0  0  0  0  0  0  0  0  0
  -20.8484  -26.7980   22.1486 C   0  0  0  0  0  0  0  0  0  0  0  0
  -24.6051  -21.9686   26.9126 C   0  0  0  0  0  0  0  0  0  0  0  0
  -23.3626  -21.1222   24.9598 C   0  0  0  0  0  0  0  0  0  0  0  0
  -28.1300  -26.9765   20.6178 C   0  0  1  0  0  0  0  0  0  0  0  0
  -26.3929  -30.3462   20.8643 C   0  0  1  0  0  0  0  0  0  0  0  0
  -24.1740  -22.0179   24.0081 C   0  0  2  0  0  0  0  0  0  0  0  0
  -18.9988  -25.7691   23.5058 C   0  0  0  0  0  0  0  0  0  0  0  0
  -19.9424  -27.9846   21.8191 C   0  0  0  0  0  0  0  0  0  1  0  0
  -24.1714  -36.4281   25.1162 C   0  0  0  0  0  0  0  0  0  0  0  0
  -26.6772  -30.3075   25.4771 C   0  0  0  0  0  0  0  0  0  0  0  0
  -25.6713  -32.2855   26.6364 C   0  0  0  0  0  0  0  0  0  0  0  0
  -27.8381  -32.5220   25.4232 C   0  0  0  0  0  0  0  0  0  0  0  0
  -23.2281  -35.7191   21.4991 C   0  0  0  0  0  0  0  0  0  0  0  0
  -19.2053  -23.5589   26.5809 C   0  0  0  0  0  0  0  0  0  0  0  0
  -19.6519  -22.1404   26.9333 C   0  0  0  0  0  0  0  0  0  0  0  0
  -25.6992  -32.2607   24.1007 C   0  0  1  0  0  0  0  0  0  0  0  0
  -19.0628  -23.8302   25.0791 C   0  0  2  0  0  0  0  0  0  0  0  0
  -24.3044  -35.7683   23.7525 C   0  0  2  0  0  0  0  0  0  0  0  0
  -26.4575  -31.8309   25.3882 C   0  0  0  0  0  0  0  0  0  0  0  0
  -24.2924  -20.0926   22.4712 N   0  0  0  0  0  0  0  0  0  0  0  0
  -24.2688  -21.4289   22.6128 N   0  0  0  0  0  0  0  0  0  0  0  0
  -25.6938  -30.9652   21.9923 N   0  0  0  0  0  0  0  0  0  0  0  0
  -23.2970  -21.7329   26.2968 N   0  0  0  0  0  0  0  0  0  0  0  0
  -24.3229  -23.4587   21.3932 N   0  0  0  0  0  0  0  0  0  0  0  0
  -24.5619  -20.3015   18.1727 N   0  0  0  0  0  0  0  0  0  0  0  0
  -18.6607  -22.1652   23.3737 N   0  0  0  0  0  0  0  0  0  0  0  0
  -27.5904  -28.2987   20.3832 N   0  0  0  0  0  0  0  0  0  0  0  0
  -25.5008  -33.7007   23.9767 N   0  0  0  0  0  0  0  0  0  0  0  0
  -20.9344  -21.8305   26.3417 N   0  0  0  0  0  0  0  0  0  0  0  0
  -18.6596  -25.2438   24.8549 N   0  3  0  0  0  0  0  0  0  0  0  0
  -23.2055  -36.2688   22.8791 N   0  3  0  0  0  0  0  0  0  0  0  0
  -24.5285  -22.5603   18.5670 O   0  0  0  0  0  0  0  0  0  0  0  0
  -26.5537  -28.6008   22.4463 O   0  0  0  0  0  0  0  0  0  0  0  0
  -27.5499  -32.2303   22.6173 O   0  0  0  0  0  0  0  0  0  0  0  0
  -16.9092  -22.7788   24.7276 O   0  0  0  0  0  0  0  0  0  0  0  0
  -23.1864  -33.6288   23.8521 O   0  0  0  0  0  0  0  0  0  0  0  0
  -22.1576  -22.5840   28.1285 O   0  0  0  0  0  0  0  0  0  0  0  0
  -24.5755  -14.7873   18.9605 O   0  0  0  0  0  0  0  0  0  0  0  0
  -20.2476  -28.4721   20.5169 O   0  0  0  0  0  0  0  0  0  1  0  0
  -25.6738  -10.5978   22.3731 F   0  0  0  0  0  0  0  0  0  0  0  0
  -26.7909  -13.1810   18.5672 F   0  0  0  0  0  0  0  0  0  0  0  0
  1  2  1  0  0  0  0
  1  5  2  0  0  0  0
  2  6  2  0  0  0  0
  3  8  2  0  0  0  0
  3 15  1  0  0  0  0
  4  9  1  0  0  0  0
  4 15  2  0  0  0  0
  5 17  1  0  0  0  0
  6 19  1  0  0  0  0
  7 10  2  0  0  0  0
  7 18  1  0  0  0  0
  8 21  1  0  0  0  0
  9 21  2  0  0  0  0
 10 22  1  0  0  0  0
 11 12  2  0  0  0  0
 11 23  1  0  0  0  0
 12 24  1  0  0  0  0
 13 20  1  0  0  0  0
 13 22  2  0  0  0  0
 14 24  2  0  0  0  0
 14 25  1  0  0  0  0
 15 26  1  0  0  0  0
 16 26  1  0  0  0  0
 16 27  2  0  0  0  0
 16 28  1  0  0  0  0
 17 19  2  0  0  0  0
 17 34  1  0  0  0  0
 18 20  2  0  0  0  0
 18 35  1  0  0  0  0
 19 47  1  0  0  0  0
 20 36  1  0  0  0  0
 21 81  1  0  0  0  0
 22 82  1  0  0  0  0
 23 25  2  0  0  0  0
 23 81  1  0  0  0  0
 24 83  1  0  0  0  0
 25 84  1  0  0  0  0
 26 63  2  0  0  0  0
 27 64  1  0  0  0  0
 27 67  1  0  0  0  0
 28 68  1  0  0  0  0
 28 75  2  0  0  0  0
 29 48  1  0  0  0  0
 29 70  1  0  0  0  0
 29 76  2  0  0  0  0
 30 59  1  0  0  0  0
 30 65  1  0  0  0  0
 30 77  2  0  0  0  0
 31 60  1  0  0  0  0
 31 69  1  0  0  0  0
 31 78  2  0  0  0  0
 32 61  1  0  0  0  0
 32 71  1  0  0  0  0
 32 79  2  0  0  0  0
 33 66  1  0  0  0  0
 33 72  1  0  0  0  0
 33 80  2  0  0  0  0
 34 37  1  0  0  0  0
 35 48  1  0  0  0  0
 36 65  1  0  0  0  0
 37 39  1  0  0  0  0
 38 40  1  0  0  0  0
 38 45  1  0  0  0  0
 39 47  1  0  0  0  0
 40 49  1  0  0  0  0
 41 43  1  0  0  0  0
 41 50  1  0  0  0  0
 42 44  1  0  0  0  0
 42 50  1  0  0  0  0
 43 51  1  0  0  0  0
 44 51  1  0  0  0  0
 45 66  1  0  0  0  0
 46 49  1  0  0  0  0
 46 66  1  0  0  0  0
 47 70  1  0  0  0  0
 48 65  1  0  0  0  0
 49 64  1  0  0  0  0
 50 73  1  0  0  0  0
 51 82  1  0  0  0  0
 52 61  1  0  0  0  0
 53 62  1  0  0  0  0
 54 62  1  0  0  0  0
 55 62  1  0  0  0  0
 56 74  1  0  0  0  0
 57 58  1  0  0  0  0
 57 60  1  0  0  0  0
 58 72  1  0  0  0  0
 59 62  1  0  0  0  0
 59 71  1  0  0  0  0
 60 73  1  0  0  0  0
 61 74  1  0  0  0  0
 63 64  1  0  0  0  0
M  CHG  2  73   1  74   1
M  ISO  4  33 100  51 101  72 100  82 101
M  END
> <Batch ID>
0123

> <Smiles>
CNC(C)C(=O)NC(C(=O)N1Cc2cc([101O:1][101CH:1]3CCC(NC(CC[100NH:0][100C:0](=O)N4CCCC(n5nc(-c6ccc(Oc7ccc(F)cc7F)cc6)c(C(N)=O)c5N)C4)C(N)=O)CC3)ccc2CC1C(=O)NC1CCCc2ccccc21)C(C)(C)C

> <Shape>
0.258

> <Color>
0.081

> <Negative vol penalty>
0.000

$$$$

  -OEChem-04052320303D

 88 96  0     1  0  0  0  0  0999 V2000
  -17.4581  -26.9975   22.3563 C   0  0  0  0  0  0  0  0  0  0  0  0
  -17.7066  -25.6288   22.3760 C   0  0  0  0  0  0  0  0  0  0  0  0
  -28.0176  -23.6387   20.8531 C   0  0  0  0  0  0  0  0  0  0  0  0
  -28.1718  -23.1459   18.4930 C   0  0  0  0  0  0  0  0  0  0  0  0
  -18.5168  -27.8986   22.4614 C   0  0  0  0  0  0  0  0  0  0  0  0
  -19.0142  -25.1605   22.4998 C   0  0  0  0  0  0  0  0  0  0  0  0
  -20.8547  -20.1169   25.4461 C   0  0  0  0  0  0  0  0  0  0  0  0
  -24.1857  -12.3009   19.6912 C   0  0  0  0  0  0  0  0  0  0  0  0
  -25.5228  -12.5401   19.3740 C   0  0  0  0  0  0  0  0  0  0  0  0
  -28.0372  -25.0042   20.5693 C   0  0  0  0  0  0  0  0  0  0  0  0
  -28.1914  -24.5114   18.2091 C   0  0  0  0  0  0  0  0  0  0  0  0
  -21.1696  -18.8334   25.0019 C   0  0  0  0  0  0  0  0  0  0  0  0
  -25.8634  -27.3530   19.4782 C   0  0  0  0  0  0  0  0  0  0  0  0
  -24.9438  -28.1661   20.1407 C   0  0  0  0  0  0  0  0  0  0  0  0
  -23.5056  -19.4328   24.9452 C   0  0  0  0  0  0  0  0  0  0  0  0
  -25.9212  -13.3056   21.6306 C   0  0  0  0  0  0  0  0  0  0  0  0
  -26.7601  -29.4344   21.1049 C   0  0  0  0  0  0  0  0  0  0  0  0
  -28.0850  -22.7095   19.8150 C   0  0  0  0  0  0  0  0  0  0  0  0
  -26.9341  -20.4669   20.2072 C   0  0  0  0  0  0  0  0  0  0  0  0
  -19.8371  -27.4411   22.5962 C   0  0  0  0  0  0  0  0  0  0  0  0
  -21.8634  -21.0729   25.6330 C   0  0  0  0  0  0  0  0  0  0  0  0
  -20.0917  -26.0563   22.6055 C   0  0  0  0  0  0  0  0  0  0  0  0
  -23.2011  -20.7269   25.3942 C   0  0  0  0  0  0  0  0  0  0  0  0
  -23.7164  -12.5641   20.9781 C   0  0  0  0  0  0  0  0  0  0  0  0
  -24.5841  -13.0664   21.9478 C   0  0  0  0  0  0  0  0  0  0  0  0
  -26.3906  -13.0424   20.3437 C   0  0  0  0  0  0  0  0  0  0  0  0
  -28.1240  -25.4406   19.2473 C   0  0  0  0  0  0  0  0  0  0  0  0
  -22.4949  -18.4921   24.7486 C   0  0  0  0  0  0  0  0  0  0  0  0
  -27.2313  -27.5806   19.6290 C   0  0  0  0  0  0  0  0  0  0  0  0
  -25.3922  -29.2068   20.9541 C   0  0  0  0  0  0  0  0  0  0  0  0
  -27.6796  -28.6213   20.4424 C   0  0  0  0  0  0  0  0  0  0  0  0
  -28.0654  -21.2988   20.1076 C   0  0  0  0  0  0  0  0  0  0  0  0
  -27.4451  -19.2259   20.4989 C   0  0  0  0  0  0  0  0  0  0  0  0
  -25.5455  -20.7874   20.0500 C   0  0  0  0  0  0  0  0  0  0  0  0
  -22.5334  -23.9058   24.3565 C   0  0  0  0  0  0  0  0  0  0  0  0
  -24.8411  -23.9514   26.6357 C   0  0  0  0  0  0  0  0  0  0  0  0
  -26.8735  -22.1900   28.7365 C   0  0  0  0  0  0  0  0  0  0  0  0
  -31.1909  -15.1796   19.6370 C   0  0  0  0  0  0  0  0  0  0  0  0
  -20.9533  -28.4533   22.6591 C   0  0  0  0  0  0  0  0  0  0  0  0
  -21.5100  -22.4449   26.1381 C   0  0  0  0  0  0  0  0  0  0  0  0
  -24.3233  -21.7105   25.5987 C   0  0  0  0  0  0  0  0  0  0  0  0
  -22.2726  -27.8746   23.1639 C   0  0  0  0  0  0  0  0  0  0  0  0
  -32.1160  -17.8205   21.8385 C   0  0  0  0  0  0  0  0  0  0  0  0
  -22.5776  -26.5529   22.4662 C   0  0  0  0  0  0  0  0  0  0  0  0
  -31.0554  -18.8940   21.5880 C   0  0  0  0  0  0  0  0  0  0  0  0
  -32.4857  -17.0819   20.5540 C   0  0  0  0  0  0  0  0  0  0  0  0
  -30.2827  -17.5811   19.5686 C   0  0  0  0  0  0  0  0  0  0  0  0
  -21.4938  -25.5094   22.7632 C   0  0  1  0  0  0  0  0  0  0  0  0
  -22.5639  -23.4953   25.8016 C   0  0  1  0  0  0  0  0  0  0  0  0
  -29.8365  -18.3153   20.8446 C   0  0  2  0  0  0  0  0  0  0  0  0
  -28.6796  -22.5017   30.4507 C   0  0  0  0  0  0  0  0  0  0  0  0
  -22.6439   -9.8788   22.0005 C   0  0  0  0  0  0  0  0  0  0  0  0
  -20.3494  -10.6752   21.3968 C   0  0  0  0  0  0  0  0  0  0  0  0
  -26.8519  -24.5151   24.4111 C   0  0  0  0  0  0  0  0  0  0  0  0
  -28.6806  -23.8772   25.9976 C   0  0  0  0  0  0  0  0  0  0  0  0
  -27.2168  -25.8322   26.5055 C   0  0  0  0  0  0  0  0  0  0  0  0
  -25.2377  -20.9321   30.8580 C   0  0  0  0  0  0  0  0  0  0  0  0
  -22.2806  -12.3012   21.2937 C   0  0  0  0  0  0  0  0  0  0  0  0
  -24.1017  -13.3585   23.3381 C   0  0  0  0  0  0  0  0  0  0  0  0
  -28.2889  -13.0348   18.7245 C   0  0  0  0  0  0  0  0  0  0  0  0
  -29.7704  -13.3778   18.6909 C   0  0  0  0  0  0  0  0  0  0  0  0
  -22.7394  -14.8810   24.7752 C   0  0  0  0  0  0  0  0  0  0  0  0
  -21.9530  -16.1764   24.7373 C   0  0  0  0  0  0  0  0  0  1  0  0
  -26.2777  -23.4939   26.7118 C   0  0  1  0  0  0  0  0  0  0  0  0
  -27.1844  -22.3579   30.2128 C   0  0  2  0  0  0  0  0  0  0  0  0
  -21.8442  -10.8282   21.1048 C   0  0  0  0  0  0  0  0  0  0  0  0
  -27.2356  -24.4114   25.9007 C   0  0  0  0  0  0  0  0  0  0  0  0
  -29.2089  -20.6417   20.3190 N   0  0  0  0  0  0  0  0  0  0  0  0
  -28.7987  -19.3838   20.5544 N   0  0  0  0  0  0  0  0  0  0  0  0
  -23.9262  -23.0411   26.0878 N   0  0  0  0  0  0  0  0  0  0  0  0
  -31.2856  -16.5564   19.8987 N   0  0  0  0  0  0  0  0  0  0  0  0
  -26.8642  -18.0259   20.7108 N   0  0  0  0  0  0  0  0  0  0  0  0
  -25.1949  -22.1111   19.7514 N   0  0  0  0  0  0  0  0  0  0  0  0
  -27.7426  -13.2831   20.0227 N   0  0  0  0  0  0  0  0  0  0  0  0
  -21.6754  -24.9551   24.0877 N   0  0  0  0  0  0  0  0  0  0  0  0
  -26.6011  -23.3986   28.1313 N   0  0  0  0  0  0  0  0  0  0  0  0
  -30.0177  -14.7641   19.0190 N   0  0  0  0  0  0  0  0  0  0  0  0
  -26.6975  -21.1780   30.9822 N   0  3  0  0  0  0  0  0  0  0  0  0
  -23.2816  -14.5971   23.4225 N   0  3  0  0  0  0  0  0  0  0  0  0
  -24.6413  -19.9287   20.1869 O   0  0  0  0  0  0  0  0  0  0  0  0
  -23.2374  -23.3153   23.5457 O   0  0  0  0  0  0  0  0  0  0  0  0
  -24.5404  -25.0724   27.0538 O   0  0  0  0  0  0  0  0  0  0  0  0
  -26.8761  -21.0965   28.1754 O   0  0  0  0  0  0  0  0  0  0  0  0
  -32.0832  -14.3792   19.9370 O   0  0  0  0  0  0  0  0  0  0  0  0
  -28.1429  -26.7730   18.9699 O   0  0  0  0  0  0  0  0  0  0  0  0
  -22.8050  -17.2402   24.3144 O   0  0  0  0  0  0  0  0  0  1  0  0
  -24.5090  -29.9885   21.5890 F   0  0  0  0  0  0  0  0  0  0  0  0
  -28.9925  -28.8456   20.5902 F   0  0  0  0  0  0  0  0  0  0  0  0
  1  2  1  0  0  0  0
  1  5  2  0  0  0  0
  2  6  2  0  0  0  0
  3 10  2  0  0  0  0
  3 18  1  0  0  0  0
  4 11  1  0  0  0  0
  4 18  2  0  0  0  0
  5 20  1  0  0  0  0
  6 22  1  0  0  0  0
  7 12  2  0  0  0  0
  7 21  1  0  0  0  0
  8  9  2  0  0  0  0
  8 24  1  0  0  0  0
  9 26  1  0  0  0  0
 10 27  1  0  0  0  0
 11 27  2  0  0  0  0
 12 28  1  0  0  0  0
 13 14  2  0  0  0  0
 13 29  1  0  0  0  0
 14 30  1  0  0  0  0
 15 23  1  0  0  0  0
 15 28  2  0  0  0  0
 16 25  1  0  0  0  0
 16 26  2  0  0  0  0
 17 30  2  0  0  0  0
 17 31  1  0  0  0  0
 18 32  1  0  0  0  0
 19 32  1  0  0  0  0
 19 33  2  0  0  0  0
 19 34  1  0  0  0  0
 20 22  2  0  0  0  0
 20 39  1  0  0  0  0
 21 23  2  0  0  0  0
 21 40  1  0  0  0  0
 22 48  1  0  0  0  0
 23 41  1  0  0  0  0
 24 25  2  0  0  0  0
 24 58  1  0  0  0  0
 25 59  1  0  0  0  0
 26 74  1  0  0  0  0
 27 85  1  0  0  0  0
 28 86  1  0  0  0  0
 29 31  2  0  0  0  0
 29 85  1  0  0  0  0
 30 87  1  0  0  0  0
 31 88  1  0  0  0  0
 32 68  2  0  0  0  0
 33 69  1  0  0  0  0
 33 72  1  0  0  0  0
 34 73  1  0  0  0  0
 34 80  2  0  0  0  0
 35 49  1  0  0  0  0
 35 75  1  0  0  0  0
 35 81  2  0  0  0  0
 36 64  1  0  0  0  0
 36 70  1  0  0  0  0
 36 82  2  0  0  0  0
 37 65  1  0  0  0  0
 37 76  1  0  0  0  0
 37 83  2  0  0  0  0
 38 71  1  0  0  0  0
 38 77  1  0  0  0  0
 38 84  2  0  0  0  0
 39 42  1  0  0  0  0
 40 49  1  0  0  0  0
 41 70  1  0  0  0  0
 42 44  1  0  0  0  0
 43 45  1  0  0  0  0
 43 46  1  0  0  0  0
 44 48  1  0  0  0  0
 45 50  1  0  0  0  0
 46 71  1  0  0  0  0
 47 50  1  0  0  0  0
 47 71  1  0  0  0  0
 48 75  1  0  0  0  0
 49 70  1  0  0  0  0
 50 69  1  0  0  0  0
 51 65  1  0  0  0  0
 52 66  1  0  0  0  0
 53 66  1  0  0  0  0
 54 67  1  0  0  0  0
 55 67  1  0  0  0  0
 56 67  1  0  0  0  0
 57 78  1  0  0  0  0
 58 66  1  0  0  0  0
 59 79  1  0  0  0  0
 60 61  1  0  0  0  0
 60 74  1  0  0  0  0
 61 77  1  0  0  0  0
 62 63  1  0  0  0  0
 62 79  1  0  0  0  0
 63 86  1  0  0  0  0
 64 67  1  0  0  0  0
 64 76  1  0  0  0  0
 65 78  1  0  0  0  0
 68 69  1  0  0  0  0
M  CHG  2  78   1  79   1
M  ISO  4  38 100  63 101  77 100  86 101
M  END
> <Batch ID>
0123

> <Smiles>
CNC(C)C(=O)NC(C(=O)N1Cc2cc([101O:1][101CH2:1]CNCc3cc(NCC[100NH:0][100C:0](=O)N4CCCC(n5nc(-c6ccc(Oc7ccc(F)cc7F)cc6)c(C(N)=O)c5N)C4)ccc3CC(C)C)ccc2CC1C(=O)NC1CCCc2ccccc21)C(C)(C)C

> <Shape>
0.227

> <Color>
0.074

> <Negative vol penalty>
0.000

$$$$

  -OEChem-04052320303D

 86 95  0     1  0  0  0  0  0999 V2000
  -21.7286  -31.4802   14.5313 C   0  0  0  0  0  0  0  0  0  0  0  0
  -22.8955  -30.9227   15.0442 C   0  0  0  0  0  0  0  0  0  0  0  0
  -24.5321  -12.0272   19.5163 C   0  0  0  0  0  0  0  0  0  0  0  0
  -25.5494  -12.8691   21.5395 C   0  0  0  0  0  0  0  0  0  0  0  0
  -21.1266  -32.5561   15.1824 C   0  0  0  0  0  0  0  0  0  0  0  0
  -23.4617  -31.4416   16.2080 C   0  0  0  0  0  0  0  0  0  0  0  0
  -24.8994  -27.8252   19.4484 C   0  0  0  0  0  0  0  0  0  0  0  0
  -24.5052  -10.7445   20.0636 C   0  0  0  0  0  0  0  0  0  0  0  0
  -25.5224  -11.5864   22.0869 C   0  0  0  0  0  0  0  0  0  0  0  0
  -26.0936  -27.1609   19.1722 C   0  0  0  0  0  0  0  0  0  0  0  0
  -22.6126   -9.0165   22.2693 C   0  0  0  0  0  0  0  0  0  0  0  0
  -21.4397   -8.2753   22.1264 C   0  0  0  0  0  0  0  0  0  0  0  0
  -27.2303  -28.5449   20.7883 C   0  0  0  0  0  0  0  0  0  0  0  0
  -22.6622   -6.5725   20.9251 C   0  0  0  0  0  0  0  0  0  0  0  0
  -31.6283  -21.6267   19.9336 C   0  0  0  0  0  0  0  0  0  0  0  0
  -25.0542  -13.0895   20.2543 C   0  0  0  0  0  0  0  0  0  0  0  0
  -24.0820  -15.4003   19.7825 C   0  0  0  0  0  0  0  0  0  0  0  0
  -21.6804  -33.0822   16.3602 C   0  0  0  0  0  0  0  0  0  0  0  0
  -24.8638  -28.8635   20.3903 C   0  0  0  0  0  0  0  0  0  0  0  0
  -22.8673  -32.5264   16.8748 C   0  0  0  0  0  0  0  0  0  0  0  0
  -26.0338  -29.2191   21.0765 C   0  0  0  0  0  0  0  0  0  0  0  0
  -25.0003  -10.5241   21.3489 C   0  0  0  0  0  0  0  0  0  0  0  0
  -27.2599  -27.5227   19.8401 C   0  0  0  0  0  0  0  0  0  0  0  0
  -23.8103   -8.5359   21.7400 C   0  0  0  0  0  0  0  0  0  0  0  0
  -21.4645   -7.0532   21.4544 C   0  0  0  0  0  0  0  0  0  0  0  0
  -23.8351   -7.3138   21.0679 C   0  0  0  0  0  0  0  0  0  0  0  0
  -25.0828  -14.4147   19.6893 C   0  0  0  0  0  0  0  0  0  0  0  0
  -30.7537  -20.5628   19.9588 C   0  0  0  0  0  0  0  0  0  0  0  0
  -29.0114  -22.0033   20.3042 C   0  0  0  0  0  0  0  0  0  0  0  0
  -29.8862  -23.0671   20.2797 C   0  0  0  0  0  0  0  0  0  0  0  0
  -24.5873  -16.4698   19.0844 C   0  0  0  0  0  0  0  0  0  0  0  0
  -22.8094  -15.3534   20.4413 C   0  0  0  0  0  0  0  0  0  0  0  0
  -24.1712  -31.9640   20.2861 C   0  0  0  0  0  0  0  0  0  0  0  0
  -24.5082  -31.7495   23.5052 C   0  0  0  0  0  0  0  0  0  0  0  0
  -25.8588  -30.1057   26.1737 C   0  0  0  0  0  0  0  0  0  0  0  0
  -30.1621  -18.2117   17.7659 C   0  0  0  0  0  0  0  0  0  0  0  0
  -21.0199  -34.2761   17.0027 C   0  0  0  0  0  0  0  0  0  0  0  0
  -23.5621  -29.5522   20.6962 C   0  0  0  0  0  0  0  0  0  0  0  0
  -26.0446  -30.3133   22.1115 C   0  0  0  0  0  0  0  0  0  0  0  0
  -21.4769  -34.5263   18.4375 C   0  0  0  0  0  0  0  0  0  0  0  0
  -27.5334  -17.5241   15.4650 C   0  0  0  0  0  0  0  0  0  0  0  0
  -22.9968  -34.4419   18.5361 C   0  0  0  0  0  0  0  0  0  0  0  0
  -26.9245  -20.9773   22.7681 C   0  0  0  0  0  0  0  0  0  0  0  0
  -25.6305  -21.2255   22.0445 C   0  0  0  0  0  0  0  0  0  0  0  0
  -26.5170  -16.7382   16.2951 C   0  0  0  0  0  0  0  0  0  0  0  0
  -28.9688  -17.1794   15.8562 C   0  0  0  0  0  0  0  0  0  0  0  0
  -28.2527  -16.5317   18.1237 C   0  0  0  0  0  0  0  0  0  0  0  0
  -23.4981  -33.0454   18.1488 C   0  0  1  0  0  0  0  0  0  0  0  0
  -23.7483  -30.9402   21.3013 C   0  0  1  0  0  0  0  0  0  0  0  0
  -26.8996  -21.0182   21.2653 C   0  0  0  0  0  0  0  0  0  0  0  0
  -26.7905  -16.8867   17.8039 C   0  0  2  0  0  0  0  0  0  0  0  0
  -26.7941  -22.4444   19.1893 C   0  0  0  0  0  0  0  0  0  0  0  0
  -25.9876  -30.1880   28.6785 C   0  0  0  0  0  0  0  0  0  0  0  0
  -26.5001  -34.0538   23.3246 C   0  0  0  0  0  0  0  0  0  0  0  0
  -27.2834  -33.4653   25.6286 C   0  0  0  0  0  0  0  0  0  0  0  0
  -24.9238  -34.1867   25.2617 C   0  0  0  0  0  0  0  0  0  0  0  0
  -24.5763  -27.4520   26.4427 C   0  0  0  0  0  0  0  0  0  0  0  0
  -31.2518  -19.1712   19.7786 C   0  0  0  0  0  0  0  0  0  0  0  0
  -30.2252  -25.5338   20.4407 C   0  0  0  0  0  0  0  0  0  0  0  0
  -29.3737  -26.7773   20.6351 C   0  0  0  0  0  0  0  0  0  1  0  0
  -27.5466  -22.1945   20.5100 C   0  0  2  0  0  0  0  0  0  0  0  0
  -25.6577  -31.8998   24.4721 C   0  0  1  0  0  0  0  0  0  0  0  0
  -25.2453  -29.6252   27.4764 C   0  0  2  0  0  0  0  0  0  0  0  0
  -26.0918  -33.3820   24.6509 C   0  0  0  0  0  0  0  0  0  0  0  0
  -31.2102  -22.8980   20.0937 N   0  0  0  0  0  0  0  0  0  0  0  0
  -26.1436  -14.8217   18.9871 N   0  0  0  0  0  0  0  0  0  0  0  0
  -29.4295  -20.7320   20.1445 N   0  0  0  0  0  0  0  0  0  0  0  0
  -25.8122  -16.0750   18.6327 N   0  0  0  0  0  0  0  0  0  0  0  0
  -24.7482  -30.9611   22.3708 N   0  0  0  0  0  0  0  0  0  0  0  0
  -29.1624  -17.3424   17.2991 N   0  0  0  0  0  0  0  0  0  0  0  0
  -24.0989  -17.7000   18.8189 N   0  0  0  0  0  0  0  0  0  0  0  0
  -22.4473  -14.1773   21.1120 N   0  0  0  0  0  0  0  0  0  0  0  0
  -29.3952  -24.3510   20.4495 N   0  0  0  0  0  0  0  0  0  0  0  0
  -23.2864  -32.1131   19.2352 N   0  0  0  0  0  0  0  0  0  0  0  0
  -25.2399  -31.2464   25.7078 N   0  0  0  0  0  0  0  0  0  0  0  0
  -30.2745  -18.3127   19.1471 N   0  0  0  0  0  0  0  0  0  0  0  0
  -25.2886  -28.1374   27.5517 N   0  3  0  0  0  0  0  0  0  0  0  0
  -22.0100  -16.3199   20.4216 O   0  0  0  0  0  0  0  0  0  0  0  0
  -25.2218  -32.5745   20.4451 O   0  0  0  0  0  0  0  0  0  0  0  0
  -23.4346  -32.3050   23.7510 O   0  0  0  0  0  0  0  0  0  0  0  0
  -26.7960  -29.5291   25.6262 O   0  0  0  0  0  0  0  0  0  0  0  0
  -30.8964  -18.8545   17.0078 O   0  0  0  0  0  0  0  0  0  0  0  0
  -24.9740   -9.2726   21.8833 O   0  0  0  0  0  0  0  0  0  0  0  0
  -28.4270  -26.8763   19.5719 O   0  0  0  0  0  0  0  0  0  1  0  0
  -20.3384   -6.3408   21.3186 F   0  0  0  0  0  0  0  0  0  0  0  0
  -24.9829   -6.8463   20.5583 F   0  0  0  0  0  0  0  0  0  0  0  0
  1  2  1  0  0  0  0
  1  5  2  0  0  0  0
  2  6  2  0  0  0  0
  3  8  2  0  0  0  0
  3 16  1  0  0  0  0
  4  9  1  0  0  0  0
  4 16  2  0  0  0  0
  5 18  1  0  0  0  0
  6 20  1  0  0  0  0
  7 10  2  0  0  0  0
  7 19  1  0  0  0  0
  8 22  1  0  0  0  0
  9 22  2  0  0  0  0
 10 23  1  0  0  0  0
 11 12  2  0  0  0  0
 11 24  1  0  0  0  0
 12 25  1  0  0  0  0
 13 21  1  0  0  0  0
 13 23  2  0  0  0  0
 14 25  2  0  0  0  0
 14 26  1  0  0  0  0
 15 28  1  0  0  0  0
 15 65  2  0  0  0  0
 16 27  1  0  0  0  0
 17 27  1  0  0  0  0
 17 31  2  0  0  0  0
 17 32  1  0  0  0  0
 18 20  2  0  0  0  0
 18 37  1  0  0  0  0
 19 21  2  0  0  0  0
 19 38  1  0  0  0  0
 20 48  1  0  0  0  0
 21 39  1  0  0  0  0
 22 83  1  0  0  0  0
 23 84  1  0  0  0  0
 24 26  2  0  0  0  0
 24 83  1  0  0  0  0
 25 85  1  0  0  0  0
 26 86  1  0  0  0  0
 27 66  2  0  0  0  0
 28 58  1  0  0  0  0
 28 67  2  0  0  0  0
 29 30  2  0  0  0  0
 29 61  1  0  0  0  0
 29 67  1  0  0  0  0
 30 65  1  0  0  0  0
 30 73  1  0  0  0  0
 31 68  1  0  0  0  0
 31 71  1  0  0  0  0
 32 72  1  0  0  0  0
 32 78  2  0  0  0  0
 33 49  1  0  0  0  0
 33 74  1  0  0  0  0
 33 79  2  0  0  0  0
 34 62  1  0  0  0  0
 34 69  1  0  0  0  0
 34 80  2  0  0  0  0
 35 63  1  0  0  0  0
 35 75  1  0  0  0  0
 35 81  2  0  0  0  0
 36 70  1  0  0  0  0
 36 76  1  0  0  0  0
 36 82  2  0  0  0  0
 37 40  1  0  0  0  0
 38 49  1  0  0  0  0
 39 69  1  0  0  0  0
 40 42  1  0  0  0  0
 41 45  1  0  0  0  0
 41 46  1  0  0  0  0
 42 48  1  0  0  0  0
 43 44  1  0  0  0  0
 43 50  1  0  0  0  0
 44 50  1  0  0  0  0
 45 51  1  0  0  0  0
 46 70  1  0  0  0  0
 47 51  1  0  0  0  0
 47 70  1  0  0  0  0
 48 74  1  0  0  0  0
 49 69  1  0  0  0  0
 50 61  1  0  0  0  0
 51 68  1  0  0  0  0
 52 61  1  0  0  0  0
 53 63  1  0  0  0  0
 54 64  1  0  0  0  0
 55 64  1  0  0  0  0
 56 64  1  0  0  0  0
 57 77  1  0  0  0  0
 58 76  1  0  0  0  0
 59 60  1  0  0  0  0
 59 73  1  0  0  0  0
 60 84  1  0  0  0  0
 62 64  1  0  0  0  0
 62 75  1  0  0  0  0
 63 77  1  0  0  0  0
 66 68  1  0  0  0  0
M  CHG  1  77   1
M  ISO  4  36 100  60 101  76 100  84 101
M  END
> <Batch ID>
0123

> <Smiles>
CNC(C)C(=O)NC(C(=O)N1Cc2cc([101O:1][101CH2:1]CNc3ncc(C[100NH:0][100C:0](=O)N4CCCC(n5nc(-c6ccc(Oc7ccc(F)cc7F)cc6)c(C(N)=O)c5N)C4)nc3C(C)C3CC3)ccc2CC1C(=O)NC1CCCc2ccccc21)C(C)(C)C

> <Shape>
0.270

> <Color>
0.099

> <Negative vol penalty>
0.000

$$$$

  -OEChem-04052320303D

 89 98  0     1  0  0  0  0  0999 V2000
  -20.7761   -4.7249   23.4407 C   0  0  0  0  0  0  0  0  0  0  0  0
  -20.3055   -5.9967   23.7510 C   0  0  0  0  0  0  0  0  0  0  0  0
  -28.8534  -25.9209   19.8817 C   0  0  0  0  0  0  0  0  0  0  0  0
  -26.7727  -24.9260   20.6012 C   0  0  0  0  0  0  0  0  0  0  0  0
  -22.1389   -4.5194   23.2300 C   0  0  0  0  0  0  0  0  0  0  0  0
  -21.1976   -7.0637   23.8518 C   0  0  0  0  0  0  0  0  0  0  0  0
  -20.4935  -12.8930   19.6787 C   0  0  0  0  0  0  0  0  0  0  0  0
  -19.4705  -27.8768   20.6114 C   0  0  0  0  0  0  0  0  0  0  0  0
  -18.9685  -26.7757   19.9177 C   0  0  0  0  0  0  0  0  0  0  0  0
  -29.5122  -24.7144   20.1184 C   0  0  0  0  0  0  0  0  0  0  0  0
  -27.4314  -23.7194   20.8378 C   0  0  0  0  0  0  0  0  0  0  0  0
  -20.3018  -14.1309   19.0646 C   0  0  0  0  0  0  0  0  0  0  0  0
  -28.4965  -20.2727   21.2892 C   0  0  0  0  0  0  0  0  0  0  0  0
  -27.8869  -19.1012   20.8403 C   0  0  0  0  0  0  0  0  0  0  0  0
  -22.3302  -14.9631   20.0850 C   0  0  0  0  0  0  0  0  0  0  0  0
  -18.5609  -26.9952   22.6688 C   0  0  0  0  0  0  0  0  0  0  0  0
  -27.9598  -19.9322   18.5728 C   0  0  0  0  0  0  0  0  0  0  0  0
  -27.4837  -26.0267   20.1232 C   0  0  0  0  0  0  0  0  0  0  0  0
  -26.7016  -27.9613   18.6556 C   0  0  0  0  0  0  0  0  0  0  0  0
  -23.0470   -5.5862   23.3187 C   0  0  0  0  0  0  0  0  0  0  0  0
  -21.6138  -12.6804   20.4868 C   0  0  0  0  0  0  0  0  0  0  0  0
  -22.5740   -6.8720   23.6433 C   0  0  0  0  0  0  0  0  0  0  0  0
  -22.5341  -13.7213   20.6926 C   0  0  0  0  0  0  0  0  0  0  0  0
  -19.2667  -27.9865   21.9870 C   0  0  0  0  0  0  0  0  0  0  0  0
  -18.2627  -25.7844   20.5995 C   0  0  0  0  0  0  0  0  0  0  0  0
  -18.0589  -25.8941   21.9750 C   0  0  0  0  0  0  0  0  0  0  0  0
  -28.8012  -23.6137   20.5964 C   0  0  0  0  0  0  0  0  0  0  0  0
  -21.2178  -15.1634   19.2675 C   0  0  0  0  0  0  0  0  0  0  0  0
  -28.8377  -21.2740   20.3800 C   0  0  0  0  0  0  0  0  0  0  0  0
  -27.6186  -18.9309   19.4821 C   0  0  0  0  0  0  0  0  0  0  0  0
  -28.5694  -21.1037   19.0218 C   0  0  0  0  0  0  0  0  0  0  0  0
  -26.8027  -27.2729   19.8795 C   0  0  0  0  0  0  0  0  0  0  0  0
  -25.9607  -29.0795   18.9508 C   0  0  0  0  0  0  0  0  0  0  0  0
  -27.2301  -27.6203   17.3672 C   0  0  0  0  0  0  0  0  0  0  0  0
  -23.5453  -10.2939   22.6432 C   0  0  0  0  0  0  0  0  0  0  0  0
  -25.5992  -11.8711   20.9987 C   0  0  0  0  0  0  0  0  0  0  0  0
  -28.3318  -12.9158   19.2441 C   0  0  0  0  0  0  0  0  0  0  0  0
  -21.9513  -30.3026   23.2263 C   0  0  0  0  0  0  0  0  0  0  0  0
  -24.5168   -5.3061   23.1292 C   0  0  0  0  0  0  0  0  0  0  0  0
  -21.8282  -11.3827   21.2175 C   0  0  0  0  0  0  0  0  0  0  0  0
  -23.7063  -13.4581   21.5979 C   0  0  0  0  0  0  0  0  0  0  0  0
  -25.3498   -6.5620   22.8859 C   0  0  0  0  0  0  0  0  0  0  0  0
  -24.9672  -32.0702   22.5507 C   0  0  0  0  0  0  0  0  0  0  0  0
  -24.9780   -7.6514   23.8869 C   0  0  0  0  0  0  0  0  0  0  0  0
  -18.3135  -19.6897   19.0737 C   0  0  0  0  0  0  0  0  0  0  0  0
  -20.3138  -21.2104   19.3245 C   0  0  0  0  0  0  0  0  0  0  0  0
  -19.1944  -18.4802   19.3818 C   0  0  0  0  0  0  0  0  0  0  0  0
  -21.1946  -20.0009   19.6325 C   0  0  0  0  0  0  0  0  0  0  0  0
  -25.7705  -31.1033   21.6791 C   0  0  0  0  0  0  0  0  0  0  0  0
  -24.1688  -31.3328   23.6234 C   0  0  0  0  0  0  0  0  0  0  0  0
  -24.0984  -29.2914   22.2445 C   0  0  0  0  0  0  0  0  0  0  0  0
  -23.5074   -8.0595   23.7372 C   0  0  1  0  0  0  0  0  0  0  0  0
  -23.3132  -10.9959   21.3376 C   0  0  1  0  0  0  0  0  0  0  0  0
  -18.8544  -20.9666   19.7292 C   0  0  0  0  0  0  0  0  0  0  0  0
  -20.6536  -18.7240   18.9769 C   0  0  0  0  0  0  0  0  0  0  0  0
  -24.8763  -29.9841   21.1125 C   0  0  2  0  0  0  0  0  0  0  0  0
  -17.3060  -24.8454   22.7260 C   0  0  0  0  0  0  0  0  0  0  0  0
  -30.8209  -13.1675   19.4407 C   0  0  0  0  0  0  0  0  0  0  0  0
  -25.2077  -14.3314   22.7587 C   0  0  0  0  0  0  0  0  0  0  0  0
  -27.5231  -15.0551   22.1395 C   0  0  0  0  0  0  0  0  0  0  0  0
  -27.1749  -12.9133   23.3699 C   0  0  0  0  0  0  0  0  0  0  0  0
  -28.8138  -11.0664   16.9845 C   0  0  0  0  0  0  0  0  0  0  0  0
  -19.8030  -29.1641   22.7284 C   0  0  0  0  0  0  0  0  0  0  0  0
  -17.7314  -24.6100   19.8317 C   0  0  0  0  0  0  0  0  0  0  0  0
  -17.9856  -22.1693   19.3658 C   0  0  0  0  0  0  0  0  0  0  0  0
  -21.5225  -17.5213   19.3403 C   0  0  0  0  0  0  0  0  0  1  0  0
  -26.5202  -13.0630   20.9325 C   0  0  1  0  0  0  0  0  0  0  0  0
  -29.6805  -12.2641   18.9977 C   0  0  2  0  0  0  0  0  0  0  0  0
  -26.5870  -13.8359   22.2800 C   0  0  0  0  0  0  0  0  0  0  0  0
  -26.1763  -27.9014   20.8778 N   0  0  0  0  0  0  0  0  0  0  0  0
  -25.6745  -28.9964   20.2817 N   0  0  0  0  0  0  0  0  0  0  0  0
  -24.2612  -12.1229   21.3257 N   0  0  0  0  0  0  0  0  0  0  0  0
  -23.3407  -30.2858   23.0202 N   0  0  0  0  0  0  0  0  0  0  0  0
  -25.5327  -30.1159   18.1991 N   0  0  0  0  0  0  0  0  0  0  0  0
  -26.4420  -26.8451   16.5056 N   0  0  0  0  0  0  0  0  0  0  0  0
  -23.3381   -8.9286   22.5925 N   0  0  0  0  0  0  0  0  0  0  0  0
  -27.8080  -12.5585   20.4686 N   0  0  0  0  0  0  0  0  0  0  0  0
  -21.2400  -29.2780   22.6140 N   0  0  0  0  0  0  0  0  0  0  0  0
  -29.8540  -11.9649   17.5481 N   0  3  0  0  0  0  0  0  0  0  0  0
  -18.5198  -23.3635   20.0512 N   0  3  0  0  0  0  0  0  0  0  0  0
  -28.3741  -27.9782   16.9974 O   0  0  0  0  0  0  0  0  0  0  0  0
  -23.8887  -10.9419   23.6249 O   0  0  0  0  0  0  0  0  0  0  0  0
  -26.0523  -10.7455   20.7726 O   0  0  0  0  0  0  0  0  0  0  0  0
  -27.7981  -13.6696   18.4333 O   0  0  0  0  0  0  0  0  0  0  0  0
  -21.3860  -31.1698   23.9012 O   0  0  0  0  0  0  0  0  0  0  0  0
  -29.4436  -22.4362   20.8271 O   0  0  0  0  0  0  0  0  0  0  0  0
  -21.0270  -16.3680   18.6614 O   0  0  0  0  0  0  0  0  0  1  0  0
  -27.0345  -17.8052   19.0509 F   0  0  0  0  0  0  0  0  0  0  0  0
  -28.8960  -22.0616   18.1434 F   0  0  0  0  0  0  0  0  0  0  0  0
  1  2  1  0  0  0  0
  1  5  2  0  0  0  0
  2  6  2  0  0  0  0
  3 10  2  0  0  0  0
  3 18  1  0  0  0  0
  4 11  1  0  0  0  0
  4 18  2  0  0  0  0
  5 20  1  0  0  0  0
  6 22  1  0  0  0  0
  7 12  2  0  0  0  0
  7 21  1  0  0  0  0
  8  9  2  0  0  0  0
  8 24  1  0  0  0  0
  9 25  1  0  0  0  0
 10 27  1  0  0  0  0
 11 27  2  0  0  0  0
 12 28  1  0  0  0  0
 13 14  2  0  0  0  0
 13 29  1  0  0  0  0
 14 30  1  0  0  0  0
 15 23  1  0  0  0  0
 15 28  2  0  0  0  0
 16 24  2  0  0  0  0
 16 26  1  0  0  0  0
 17 30  2  0  0  0  0
 17 31  1  0  0  0  0
 18 32  1  0  0  0  0
 19 32  1  0  0  0  0
 19 33  2  0  0  0  0
 19 34  1  0  0  0  0
 20 22  2  0  0  0  0
 20 39  1  0  0  0  0
 21 23  2  0  0  0  0
 21 40  1  0  0  0  0
 22 52  1  0  0  0  0
 23 41  1  0  0  0  0
 24 63  1  0  0  0  0
 25 26  2  0  0  0  0
 25 64  1  0  0  0  0
 26 57  1  0  0  0  0
 27 86  1  0  0  0  0
 28 87  1  0  0  0  0
 29 31  2  0  0  0  0
 29 86  1  0  0  0  0
 30 88  1  0  0  0  0
 31 89  1  0  0  0  0
 32 70  2  0  0  0  0
 33 71  1  0  0  0  0
 33 74  1  0  0  0  0
 34 75  1  0  0  0  0
 34 81  2  0  0  0  0
 35 53  1  0  0  0  0
 35 76  1  0  0  0  0
 35 82  2  0  0  0  0
 36 67  1  0  0  0  0
 36 72  1  0  0  0  0
 36 83  2  0  0  0  0
 37 68  1  0  0  0  0
 37 77  1  0  0  0  0
 37 84  2  0  0  0  0
 38 73  1  0  0  0  0
 38 78  1  0  0  0  0
 38 85  2  0  0  0  0
 39 42  1  0  0  0  0
 40 53  1  0  0  0  0
 41 72  1  0  0  0  0
 42 44  1  0  0  0  0
 43 49  1  0  0  0  0
 43 50  1  0  0  0  0
 44 52  1  0  0  0  0
 45 47  1  0  0  0  0
 45 54  1  0  0  0  0
 46 48  1  0  0  0  0
 46 54  1  0  0  0  0
 47 55  1  0  0  0  0
 48 55  1  0  0  0  0
 49 56  1  0  0  0  0
 50 73  1  0  0  0  0
 51 56  1  0  0  0  0
 51 73  1  0  0  0  0
 52 76  1  0  0  0  0
 53 72  1  0  0  0  0
 54 65  1  0  0  0  0
 55 66  1  0  0  0  0
 56 71  1  0  0  0  0
 58 68  1  0  0  0  0
 59 69  1  0  0  0  0
 60 69  1  0  0  0  0
 61 69  1  0  0  0  0
 62 79  1  0  0  0  0
 63 78  1  0  0  0  0
 64 80  1  0  0  0  0
 65 80  1  0  0  0  0
 66 87  1  0  0  0  0
 67 69  1  0  0  0  0
 67 77  1  0  0  0  0
 68 79  1  0  0  0  0
 70 71  1  0  0  0  0
M  CHG  2  79   1  80   1
M  ISO  4  38 100  66 101  78 100  87 101
M  END
> <Batch ID>
0123

> <Smiles>
CNC(C)C(=O)NC(C(=O)N1Cc2cc([101O:1][101CH2:1]C3CCC(CNCc4ccc(C[100NH:0][100C:0](=O)N5CCCC(n6nc(-c7ccc(Oc8ccc(F)cc8F)cc7)c(C(N)=O)c6N)C5)cc4C)CC3)ccc2CC1C(=O)NC1CCCc2ccccc21)C(C)(C)C

> <Shape>
0.300

> <Color>
0.056

> <Negative vol penalty>
0.000

$$$$

  -OEChem-04052320303D

 81 89  0     1  0  0  0  0  0999 V2000
  -24.3546  -35.5330   24.0884 C   0  0  0  0  0  0  0  0  0  0  0  0
  -25.1397  -34.4381   24.4350 C   0  0  0  0  0  0  0  0  0  0  0  0
  -26.6113  -13.6474   20.6626 C   0  0  0  0  0  0  0  0  0  0  0  0
  -24.2100  -13.9027   20.7379 C   0  0  0  0  0  0  0  0  0  0  0  0
  -23.1148  -35.3363   23.4816 C   0  0  0  0  0  0  0  0  0  0  0  0
  -24.6850  -33.1456   24.1759 C   0  0  0  0  0  0  0  0  0  0  0  0
  -28.4686  -28.6488   20.0100 C   0  0  0  0  0  0  0  0  0  0  0  0
  -26.4578  -12.3002   20.3355 C   0  0  0  0  0  0  0  0  0  0  0  0
  -24.0565  -12.5555   20.4108 C   0  0  0  0  0  0  0  0  0  0  0  0
  -29.2375  -27.6596   19.3964 C   0  0  0  0  0  0  0  0  0  0  0  0
  -23.0329   -9.0988   19.9490 C   0  0  0  0  0  0  0  0  0  0  0  0
  -22.0968   -8.3588   20.6713 C   0  0  0  0  0  0  0  0  0  0  0  0
  -27.4352  -26.0714   19.6743 C   0  0  0  0  0  0  0  0  0  0  0  0
  -23.2993   -8.8307   22.7130 C   0  0  0  0  0  0  0  0  0  0  0  0
  -25.4874  -14.4487   20.8638 C   0  0  0  0  0  0  0  0  0  0  0  0
  -26.3011  -16.3721   22.3288 C   0  0  0  0  0  0  0  0  0  0  0  0
  -22.6489  -34.0410   23.2062 C   0  0  0  0  0  0  0  0  0  0  0  0
  -27.1728  -28.3568   20.4447 C   0  0  0  0  0  0  0  0  0  0  0  0
  -23.4372  -32.9313   23.5660 C   0  0  0  0  0  0  0  0  0  0  0  0
  -26.6557  -27.0615   20.2783 C   0  0  0  0  0  0  0  0  0  0  0  0
  -25.1804  -11.7542   20.2095 C   0  0  0  0  0  0  0  0  0  0  0  0
  -28.7221  -26.3741   19.2292 C   0  0  0  0  0  0  0  0  0  0  0  0
  -24.1022   -9.7047   20.6086 C   0  0  0  0  0  0  0  0  0  0  0  0
  -22.2300   -8.2248   22.0533 C   0  0  0  0  0  0  0  0  0  0  0  0
  -24.2354   -9.5707   21.9906 C   0  0  0  0  0  0  0  0  0  0  0  0
  -25.6453  -15.8403   21.2023 C   0  0  0  0  0  0  0  0  0  0  0  0
  -26.1747  -17.7326   22.1892 C   0  0  0  0  0  0  0  0  0  0  0  0
  -26.9653  -15.6966   23.4051 C   0  0  0  0  0  0  0  0  0  0  0  0
  -29.3525  -25.3080   17.2323 C   0  0  0  0  0  0  0  0  0  1  0  0
  -24.0287  -29.6067   22.0658 C   0  0  0  0  0  0  0  0  0  0  0  0
  -23.1739  -27.7793   19.7549 C   0  0  0  0  0  0  0  0  0  0  0  0
  -22.6517  -26.0405   16.8669 C   0  0  0  0  0  0  0  0  0  0  0  0
  -25.3775  -21.2873   17.4374 C   0  0  0  0  0  0  0  0  0  0  0  0
  -21.2814  -33.8768   22.5918 C   0  0  0  0  0  0  0  0  0  0  0  0
  -26.3316  -29.3745   21.1662 C   0  0  0  0  0  0  0  0  0  0  0  0
  -25.2697  -26.7837   20.7927 C   0  0  0  0  0  0  0  0  0  0  0  0
  -21.0375  -32.4863   22.0110 C   0  0  0  0  0  0  0  0  0  0  0  0
  -23.2864  -21.0515   20.3094 C   0  0  0  0  0  0  0  0  0  0  0  0
  -21.4860  -31.4105   22.9951 C   0  0  0  0  0  0  0  0  0  0  0  0
  -23.7130  -19.7372   20.9656 C   0  0  0  0  0  0  0  0  0  0  0  0
  -30.2455  -22.1914   15.1401 C   0  0  0  0  0  0  0  0  0  0  0  0
  -23.3252  -20.9602   18.7856 C   0  0  0  0  0  0  0  0  0  0  0  0
  -25.0377  -19.1905   18.8811 C   0  0  0  0  0  0  0  0  0  0  0  0
  -31.2291  -22.8989   14.2227 C   0  0  0  0  0  0  0  0  0  0  0  0
  -31.2157  -24.9034   15.7119 C   0  0  0  0  0  0  0  0  0  0  0  0
  -22.9895  -31.5146   23.2787 C   0  0  1  0  0  0  0  0  0  0  0  0
  -30.2145  -24.2296   16.6459 C   0  0  2  0  0  0  0  0  0  0  0  0
  -24.8305  -29.2511   20.8485 C   0  0  1  0  0  0  0  0  0  0  0  0
  -29.3563  -23.1819   15.9101 C   0  0  2  0  0  0  0  0  0  0  0  0
  -25.0684  -19.2511   20.4179 C   0  0  2  0  0  0  0  0  0  0  0  0
  -20.8136  -25.1624   15.4012 C   0  0  0  0  0  0  0  0  0  0  0  0
  -22.6615  -25.5306   21.7511 C   0  0  0  0  0  0  0  0  0  0  0  0
  -21.5914  -24.2275   19.9004 C   0  0  0  0  0  0  0  0  0  0  0  0
  -20.6118  -26.4067   20.6173 C   0  0  0  0  0  0  0  0  0  0  0  0
  -23.5524  -27.6675   14.5646 C   0  0  0  0  0  0  0  0  0  0  0  0
  -28.4476  -22.4153   16.8763 C   0  0  0  0  0  0  0  0  0  0  0  0
  -27.4929  -21.4783   16.1538 C   0  0  0  0  0  0  0  0  0  0  0  0
  -22.7815  -26.3902   19.3195 C   0  0  1  0  0  0  0  0  0  0  0  0
  -21.7622  -26.3206   15.6690 C   0  0  2  0  0  0  0  0  0  0  0  0
  -21.9383  -25.6481   20.3946 C   0  0  0  0  0  0  0  0  0  0  0  0
  -25.1396  -16.7859   20.4059 N   0  0  0  0  0  0  0  0  0  0  0  0
  -28.5821  -26.0632   16.5214 N   0  0  0  0  0  0  0  0  0  0  0  0
  -25.4777  -17.9255   21.0329 N   0  0  0  0  0  0  0  0  0  0  0  0
  -24.3766  -27.9048   20.4609 N   0  0  0  0  0  0  0  0  0  0  0  0
  -24.6378  -20.4951   18.3310 N   0  0  0  0  0  0  0  0  0  0  0  0
  -26.5928  -18.7707   22.9441 N   0  0  0  0  0  0  0  0  0  0  0  0
  -27.0025  -14.2956   23.3929 N   0  0  0  0  0  0  0  0  0  0  0  0
  -23.7505  -30.9553   22.1822 N   0  0  0  0  0  0  0  0  0  0  0  0
  -22.1107  -26.5400   18.0326 N   0  0  0  0  0  0  0  0  0  0  0  0
  -26.6137  -20.7761   17.0619 N   0  0  0  0  0  0  0  0  0  0  0  0
  -32.0338  -23.8649   15.0235 N   0  3  0  0  0  0  0  0  0  0  0  0
  -22.5899  -26.5417   14.4496 N   0  3  0  0  0  0  0  0  0  0  0  0
  -27.4953  -16.3166   24.3580 O   0  0  0  0  0  0  0  0  0  0  0  0
  -23.6855  -28.7232   22.8426 O   0  0  0  0  0  0  0  0  0  0  0  0
  -22.4334  -28.7284   19.4829 O   0  0  0  0  0  0  0  0  0  0  0  0
  -23.7178  -25.4356   16.7779 O   0  0  0  0  0  0  0  0  0  0  0  0
  -24.9688  -22.3725   17.0104 O   0  0  0  0  0  0  0  0  0  0  0  0
  -25.0303  -10.4397   19.8901 O   0  0  0  0  0  0  0  0  0  0  0  0
  -29.4764  -25.4143   18.6253 O   0  0  0  0  0  0  0  0  0  1  0  0
  -21.3302   -7.5154   22.7471 F   0  0  0  0  0  0  0  0  0  0  0  0
  -25.2600  -10.1515   22.6300 F   0  0  0  0  0  0  0  0  0  0  0  0
  1  2  1  0  0  0  0
  1  5  2  0  0  0  0
  2  6  2  0  0  0  0
  3  8  2  0  0  0  0
  3 15  1  0  0  0  0
  4  9  1  0  0  0  0
  4 15  2  0  0  0  0
  5 17  1  0  0  0  0
  6 19  1  0  0  0  0
  7 10  2  0  0  0  0
  7 18  1  0  0  0  0
  8 21  1  0  0  0  0
  9 21  2  0  0  0  0
 10 22  1  0  0  0  0
 11 12  2  0  0  0  0
 11 23  1  0  0  0  0
 12 24  1  0  0  0  0
 13 20  1  0  0  0  0
 13 22  2  0  0  0  0
 14 24  2  0  0  0  0
 14 25  1  0  0  0  0
 15 26  1  0  0  0  0
 16 26  1  0  0  0  0
 16 27  2  0  0  0  0
 16 28  1  0  0  0  0
 17 19  2  0  0  0  0
 17 34  1  0  0  0  0
 18 20  2  0  0  0  0
 18 35  1  0  0  0  0
 19 46  1  0  0  0  0
 20 36  1  0  0  0  0
 21 78  1  0  0  0  0
 22 79  1  0  0  0  0
 23 25  2  0  0  0  0
 23 78  1  0  0  0  0
 24 80  1  0  0  0  0
 25 81  1  0  0  0  0
 26 61  2  0  0  0  0
 27 63  1  0  0  0  0
 27 66  1  0  0  0  0
 28 67  1  0  0  0  0
 28 73  2  0  0  0  0
 29 47  1  0  0  0  0
 29 62  2  0  0  0  0
 29 79  1  0  0  0  0
 30 48  1  0  0  0  0
 30 68  1  0  0  0  0
 30 74  2  0  0  0  0
 31 58  1  0  0  0  0
 31 64  1  0  0  0  0
 31 75  2  0  0  0  0
 32 59  1  0  0  0  0
 32 69  1  0  0  0  0
 32 76  2  0  0  0  0
 33 65  1  0  0  0  0
 33 70  1  0  0  0  0
 33 77  2  0  0  0  0
 34 37  1  0  0  0  0
 35 48  1  0  0  0  0
 36 64  1  0  0  0  0
 37 39  1  0  0  0  0
 38 40  1  0  0  0  0
 38 42  1  0  0  0  0
 39 46  1  0  0  0  0
 40 50  1  0  0  0  0
 41 44  1  0  0  0  0
 41 49  1  0  0  0  0
 42 65  1  0  0  0  0
 43 50  1  0  0  0  0
 43 65  1  0  0  0  0
 44 71  1  0  0  0  0
 45 47  1  0  0  0  0
 45 71  1  0  0  0  0
 46 68  1  0  0  0  0
 47 49  1  0  0  0  0
 48 64  1  0  0  0  0
 49 56  1  0  0  0  0
 50 63  1  0  0  0  0
 51 59  1  0  0  0  0
 52 60  1  0  0  0  0
 53 60  1  0  0  0  0
 54 60  1  0  0  0  0
 55 72  1  0  0  0  0
 56 57  1  0  0  0  0
 57 70  1  0  0  0  0
 58 60  1  0  0  0  0
 58 69  1  0  0  0  0
 59 72  1  0  0  0  0
 61 63  1  0  0  0  0
M  CHG  2  71   1  72   1
M  ISO  4  29 101  33 100  70 100  79 101
M  END
> <Batch ID>
0123

> <Smiles>
CNC(C)C(=O)NC(C(=O)N1Cc2cc([101O:1][101C:1](N)=C3CNCCC3CC[100NH:0][100C:0](=O)N3CCCC(n4nc(-c5ccc(Oc6ccc(F)cc6F)cc5)c(C(N)=O)c4N)C3)ccc2CC1C(=O)NC1CCCc2ccccc21)C(C)(C)C

> <Shape>
0.201

> <Color>
0.062

> <Negative vol penalty>
0.000

$$$$

  -OEChem-04052320303D

 85 93  0     1  0  0  0  0  0999 V2000
  -16.5552  -27.4876   25.9273 C   0  0  0  0  0  0  0  0  0  0  0  0
  -17.0536  -26.2282   25.6096 C   0  0  0  0  0  0  0  0  0  0  0  0
  -23.1544   -9.7649   19.9714 C   0  0  0  0  0  0  0  0  0  0  0  0
  -23.8049   -9.9313   22.2922 C   0  0  0  0  0  0  0  0  0  0  0  0
  -16.9823  -28.6058   25.2124 C   0  0  0  0  0  0  0  0  0  0  0  0
  -17.9788  -26.0862   24.5759 C   0  0  0  0  0  0  0  0  0  0  0  0
  -22.6199  -22.0993   24.3111 C   0  0  0  0  0  0  0  0  0  0  0  0
  -22.4231   -8.6124   20.2590 C   0  0  0  0  0  0  0  0  0  0  0  0
  -23.0735   -8.7789   22.5798 C   0  0  0  0  0  0  0  0  0  0  0  0
  -22.7605  -20.8641   23.6799 C   0  0  0  0  0  0  0  0  0  0  0  0
  -19.8374   -7.9452   23.0827 C   0  0  0  0  0  0  0  0  0  0  0  0
  -19.0270   -7.9602   24.2178 C   0  0  0  0  0  0  0  0  0  0  0  0
  -23.8249  -21.9494   21.8068 C   0  0  0  0  0  0  0  0  0  0  0  0
  -26.0792  -19.3020   20.4032 C   0  0  0  0  0  0  0  0  0  0  0  0
  -20.2713   -6.1013   25.1308 C   0  0  0  0  0  0  0  0  0  0  0  0
  -25.2025  -20.4097   18.6499 C   0  0  0  0  0  0  0  0  0  0  0  0
  -23.8453  -10.4243   20.9880 C   0  0  0  0  0  0  0  0  0  0  0  0
  -24.1411  -12.9444   20.7253 C   0  0  0  0  0  0  0  0  0  0  0  0
  -17.9205  -28.4787   24.1759 C   0  0  0  0  0  0  0  0  0  0  0  0
  -23.0716  -23.2720   23.6890 C   0  0  0  0  0  0  0  0  0  0  0  0
  -18.4179  -27.2036   23.8456 C   0  0  0  0  0  0  0  0  0  0  0  0
  -23.6912  -23.1978   22.4333 C   0  0  0  0  0  0  0  0  0  0  0  0
  -24.8731  -19.7640   19.8211 C   0  0  0  0  0  0  0  0  0  0  0  0
  -22.3826   -8.1194   21.5632 C   0  0  0  0  0  0  0  0  0  0  0  0
  -23.3605  -20.7894   22.4263 C   0  0  0  0  0  0  0  0  0  0  0  0
  -20.8647   -7.0082   22.9715 C   0  0  0  0  0  0  0  0  0  0  0  0
  -19.2439   -7.0383   25.2419 C   0  0  0  0  0  0  0  0  0  0  0  0
  -21.0817   -6.0863   23.9956 C   0  0  0  0  0  0  0  0  0  0  0  0
  -24.6014  -11.6145   20.6915 C   0  0  0  0  0  0  0  0  0  0  0  0
  -27.1091  -19.6796   19.5700 C   0  0  0  0  0  0  0  0  0  0  0  0
  -25.2337  -13.6951   20.3661 C   0  0  0  0  0  0  0  0  0  0  0  0
  -22.8421  -13.4555   21.0522 C   0  0  0  0  0  0  0  0  0  0  0  0
  -21.6891  -25.9478   22.6730 C   0  0  0  0  0  0  0  0  0  0  0  0
  -24.7525  -26.8588   22.1182 C   0  0  0  0  0  0  0  0  0  0  0  0
  -27.9839  -25.9415   21.5157 C   0  0  0  0  0  0  0  0  0  0  0  0
  -30.6807  -14.8508   20.7412 C   0  0  0  0  0  0  0  0  0  0  0  0
  -18.3165  -29.7101   23.4003 C   0  0  0  0  0  0  0  0  0  0  0  0
  -22.9366  -24.5934   24.3949 C   0  0  0  0  0  0  0  0  0  0  0  0
  -24.2113  -24.4250   21.7320 C   0  0  0  0  0  0  0  0  0  0  0  0
  -19.5817  -29.5240   22.5666 C   0  0  0  0  0  0  0  0  0  0  0  0
  -29.7057  -12.2975   18.4594 C   0  0  0  0  0  0  0  0  0  0  0  0
  -19.5233  -28.2102   21.7937 C   0  0  0  0  0  0  0  0  0  0  0  0
  -28.2556  -11.9979   18.8436 C   0  0  0  0  0  0  0  0  0  0  0  0
  -30.5604  -12.6134   19.6848 C   0  0  0  0  0  0  0  0  0  0  0  0
  -28.5809  -13.3845   20.9341 C   0  0  0  0  0  0  0  0  0  0  0  0
  -19.4413  -27.0123   22.7475 C   0  0  1  0  0  0  0  0  0  0  0  0
  -22.9689  -25.7852   23.4432 C   0  0  1  0  0  0  0  0  0  0  0  0
  -27.6671  -13.1149   19.7263 C   0  0  2  0  0  0  0  0  0  0  0  0
  -22.8359  -18.2856   19.9075 C   0  0  0  0  0  0  0  0  0  0  0  0
  -30.2554  -26.9093   21.0670 C   0  0  0  0  0  0  0  0  0  0  0  0
  -27.1505  -22.4423   17.3337 C   0  0  0  0  0  0  0  0  0  0  0  0
  -26.9267  -20.2616   16.0685 C   0  0  0  0  0  0  0  0  0  0  0  0
  -23.9117  -27.4990   19.2558 C   0  0  0  0  0  0  0  0  0  0  0  0
  -26.3347  -27.5377   18.6267 C   0  0  0  0  0  0  0  0  0  0  0  0
  -25.4534  -29.1748   20.2898 C   0  0  0  0  0  0  0  0  0  0  0  0
  -29.1213  -24.7000   23.9496 C   0  0  0  0  0  0  0  0  0  0  0  0
  -28.5638  -19.4548   19.6989 C   0  0  0  0  0  0  0  0  0  0  0  0
  -30.6444  -17.0747   21.8422 C   0  0  0  0  0  0  0  0  0  0  0  0
  -30.3847  -18.1496   20.8032 C   0  0  0  0  0  0  0  0  0  0  0  0
  -23.4807  -19.5822   20.3807 C   0  0  1  0  0  0  0  0  0  1  0  0
  -25.7064  -26.7484   20.9534 C   0  0  1  0  0  0  0  0  0  0  0  0
  -29.2932  -26.4026   22.1302 C   0  0  2  0  0  0  0  0  0  0  0  0
  -27.2981  -20.9209   17.3982 C   0  0  0  0  0  0  0  0  0  0  0  0
  -25.3401  -27.7169   19.7935 C   0  0  0  0  0  0  0  0  0  0  0  0
  -25.8863  -11.5223   20.3385 N   0  0  0  0  0  0  0  0  0  0  0  0
  -26.5644  -20.3525   18.5077 N   0  0  0  0  0  0  0  0  0  0  0  0
  -26.2427  -12.8039   20.1471 N   0  0  0  0  0  0  0  0  0  0  0  0
  -24.0503  -25.6944   22.4601 N   0  0  0  0  0  0  0  0  0  0  0  0
  -29.9479  -13.6817   20.4782 N   0  0  0  0  0  0  0  0  0  0  0  0
  -25.4203  -15.0241   20.2192 N   0  0  0  0  0  0  0  0  0  0  0  0
  -21.8340  -12.5457   21.3993 N   0  0  0  0  0  0  0  0  0  0  0  0
  -20.7427  -26.7258   23.3122 N   0  0  0  0  0  0  0  0  0  0  0  0
  -27.0437  -26.9500   21.5004 N   0  0  0  0  0  0  0  0  0  0  0  0
  -30.0237  -15.8158   21.4948 N   0  0  0  0  0  0  0  0  0  0  0  0
  -29.9473  -25.2793   22.8591 N   0  3  0  0  0  0  0  0  0  0  0  0
  -28.9281  -18.4181   20.7119 N   0  3  0  0  0  0  0  0  0  0  0  0
  -22.5784  -14.6815   21.0212 O   0  0  0  0  0  0  0  0  0  0  0  0
  -21.5696  -25.4086   21.5791 O   0  0  0  0  0  0  0  0  0  0  0  0
  -24.6400  -27.9365   22.7076 O   0  0  0  0  0  0  0  0  0  0  0  0
  -27.8136  -24.8018   21.0883 O   0  0  0  0  0  0  0  0  0  0  0  0
  -31.8330  -15.0242   20.3300 O   0  0  0  0  0  0  0  0  0  0  0  0
  -21.6689   -6.9951   21.8442 O   0  0  0  0  0  0  0  0  0  0  0  0
  -23.4985  -19.5852   21.8076 O   0  0  0  0  0  0  0  0  0  1  0  0
  -18.4666   -7.0538   26.3326 F   0  0  0  0  0  0  0  0  0  0  0  0
  -22.0678   -5.1845   23.8950 F   0  0  0  0  0  0  0  0  0  0  0  0
  1  2  1  0  0  0  0
  1  5  2  0  0  0  0
  2  6  2  0  0  0  0
  3  8  2  0  0  0  0
  3 17  1  0  0  0  0
  4  9  1  0  0  0  0
  4 17  2  0  0  0  0
  5 19  1  0  0  0  0
  6 21  1  0  0  0  0
  7 10  2  0  0  0  0
  7 20  1  0  0  0  0
  8 24  1  0  0  0  0
  9 24  2  0  0  0  0
 10 25  1  0  0  0  0
 11 12  2  0  0  0  0
 11 26  1  0  0  0  0
 12 27  1  0  0  0  0
 13 22  1  0  0  0  0
 13 25  2  0  0  0  0
 14 23  1  0  0  0  0
 14 30  2  0  0  0  0
 15 27  2  0  0  0  0
 15 28  1  0  0  0  0
 16 23  2  0  0  0  0
 16 66  1  0  0  0  0
 17 29  1  0  0  0  0
 18 29  1  0  0  0  0
 18 31  2  0  0  0  0
 18 32  1  0  0  0  0
 19 21  2  0  0  0  0
 19 37  1  0  0  0  0
 20 22  2  0  0  0  0
 20 38  1  0  0  0  0
 21 46  1  0  0  0  0
 22 39  1  0  0  0  0
 23 60  1  0  0  0  0
 24 82  1  0  0  0  0
 25 83  1  0  0  0  0
 26 28  2  0  0  0  0
 26 82  1  0  0  0  0
 27 84  1  0  0  0  0
 28 85  1  0  0  0  0
 29 65  2  0  0  0  0
 30 57  1  0  0  0  0
 30 66  1  0  0  0  0
 31 67  1  0  0  0  0
 31 70  1  0  0  0  0
 32 71  1  0  0  0  0
 32 77  2  0  0  0  0
 33 47  1  0  0  0  0
 33 72  1  0  0  0  0
 33 78  2  0  0  0  0
 34 61  1  0  0  0  0
 34 68  1  0  0  0  0
 34 79  2  0  0  0  0
 35 62  1  0  0  0  0
 35 73  1  0  0  0  0
 35 80  2  0  0  0  0
 36 69  1  0  0  0  0
 36 74  1  0  0  0  0
 36 81  2  0  0  0  0
 37 40  1  0  0  0  0
 38 47  1  0  0  0  0
 39 68  1  0  0  0  0
 40 42  1  0  0  0  0
 41 43  1  0  0  0  0
 41 44  1  0  0  0  0
 42 46  1  0  0  0  0
 43 48  1  0  0  0  0
 44 69  1  0  0  0  0
 45 48  1  0  0  0  0
 45 69  1  0  0  0  0
 46 72  1  0  0  0  0
 47 68  1  0  0  0  0
 48 67  1  0  0  0  0
 49 60  1  0  0  0  0
 50 62  1  0  0  0  0
 51 63  1  0  0  0  0
 52 63  1  0  0  0  0
 53 64  1  0  0  0  0
 54 64  1  0  0  0  0
 55 64  1  0  0  0  0
 56 75  1  0  0  0  0
 57 76  1  0  0  0  0
 58 59  1  0  0  0  0
 58 74  1  0  0  0  0
 59 76  1  0  0  0  0
 60 83  1  0  0  0  0
 61 64  1  0  0  0  0
 61 73  1  0  0  0  0
 62 75  1  0  0  0  0
 63 66  1  0  0  0  0
 65 67  1  0  0  0  0
M  CHG  2  75   1  76   1
M  ISO  4  36 100  60 101  74 100  83 101
M  END
> <Batch ID>
0123

> <Smiles>
CNC(C)C(=O)NC(C(=O)N1Cc2cc([101O:1][101CH:1](C)c3cc(CNCC[100NH:0][100C:0](=O)N4CCCC(n5nc(-c6ccc(Oc7ccc(F)cc7F)cc6)c(C(N)=O)c5N)C4)n(C(C)C)c3)ccc2CC1C(=O)NC1CCCc2ccccc21)C(C)(C)C

> <Shape>
0.285

> <Color>
0.197

> <Negative vol penalty>
0.000

$$$$

  -OEChem-04052320303D

 86 95  0     1  0  0  0  0  0999 V2000
  -29.1398  -31.7828   26.0710 C   0  0  0  0  0  0  0  0  0  0  0  0
  -28.6322  -30.7023   25.3567 C   0  0  0  0  0  0  0  0  0  0  0  0
  -25.4820  -20.3233   17.8070 C   0  0  0  0  0  0  0  0  0  0  0  0
  -23.0764   -9.8661   19.9413 C   0  0  0  0  0  0  0  0  0  0  0  0
  -23.8387   -9.8743   22.2339 C   0  0  0  0  0  0  0  0  0  0  0  0
  -30.5049  -31.8564   26.3450 C   0  0  0  0  0  0  0  0  0  0  0  0
  -29.4896  -29.6952   24.9149 C   0  0  0  0  0  0  0  0  0  0  0  0
  -26.7967  -19.8848   17.6507 C   0  0  0  0  0  0  0  0  0  0  0  0
  -27.6333  -25.0583   25.7505 C   0  0  0  0  0  0  0  0  0  0  0  0
  -24.8990  -20.3394   19.0715 C   0  0  0  0  0  0  0  0  0  0  0  0
  -22.3341   -8.7121   20.1922 C   0  0  0  0  0  0  0  0  0  0  0  0
  -23.0963   -8.7203   22.4849 C   0  0  0  0  0  0  0  0  0  0  0  0
  -26.6522  -24.5977   24.8736 C   0  0  0  0  0  0  0  0  0  0  0  0
  -19.8697   -7.9189   23.0909 C   0  0  0  0  0  0  0  0  0  0  0  0
  -19.1140   -7.8783   24.2626 C   0  0  0  0  0  0  0  0  0  0  0  0
  -28.3189  -23.3151   23.6920 C   0  0  0  0  0  0  0  0  0  0  0  0
  -20.3584   -5.9424   24.9980 C   0  0  0  0  0  0  0  0  0  0  0  0
  -23.8287  -10.4472   20.9622 C   0  0  0  0  0  0  0  0  0  0  0  0
  -24.1675  -12.9727   20.8414 C   0  0  0  0  0  0  0  0  0  0  0  0
  -31.3780  -30.8449   25.9147 C   0  0  0  0  0  0  0  0  0  0  0  0
  -27.5432  -19.4643   18.7604 C   0  0  0  0  0  0  0  0  0  0  0  0
  -28.9688  -24.6587   25.5979 C   0  0  0  0  0  0  0  0  0  0  0  0
  -30.8678  -29.7560   25.1822 C   0  0  0  0  0  0  0  0  0  0  0  0
  -29.3147  -23.7701   24.5699 C   0  0  0  0  0  0  0  0  0  0  0  0
  -26.9469  -19.4613   20.0335 C   0  0  0  0  0  0  0  0  0  0  0  0
  -25.6281  -19.9124   20.1808 C   0  0  0  0  0  0  0  0  0  0  0  0
  -22.3440   -8.1393   21.4640 C   0  0  0  0  0  0  0  0  0  0  0  0
  -26.9954  -23.7283   23.8424 C   0  0  0  0  0  0  0  0  0  0  0  0
  -20.8697   -6.9712   22.8727 C   0  0  0  0  0  0  0  0  0  0  0  0
  -19.3584   -6.8901   25.2162 C   0  0  0  0  0  0  0  0  0  0  0  0
  -21.1141   -5.9830   23.8263 C   0  0  0  0  0  0  0  0  0  0  0  0
  -24.5962  -11.6389   20.7034 C   0  0  0  0  0  0  0  0  0  0  0  0
  -25.2584  -13.7234   20.4769 C   0  0  0  0  0  0  0  0  0  0  0  0
  -22.8969  -13.4871   21.2616 C   0  0  0  0  0  0  0  0  0  0  0  0
  -31.7061  -26.1618   25.0049 C   0  0  0  0  0  0  0  0  0  0  0  0
  -32.9798  -23.2226   25.5161 C   0  0  0  0  0  0  0  0  0  0  0  0
  -32.5386  -19.8386   25.5432 C   0  0  0  0  0  0  0  0  0  0  0  0
  -30.7412  -14.7487   20.6593 C   0  0  0  0  0  0  0  0  0  0  0  0
  -32.8529  -30.9918   26.1938 C   0  0  0  0  0  0  0  0  0  0  0  0
  -28.9501  -18.9598   18.5636 C   0  0  0  0  0  0  0  0  0  0  0  0
  -30.0106  -25.1435   26.5684 C   0  0  0  0  0  0  0  0  0  0  0  0
  -30.7306  -23.2950   24.3754 C   0  0  0  0  0  0  0  0  0  0  0  0
  -27.7230  -19.0322   21.2486 C   0  0  0  0  0  0  0  0  0  0  0  0
  -33.6389  -29.6955   26.0144 C   0  0  0  0  0  0  0  0  0  0  0  0
  -29.6038  -12.3625   18.2741 C   0  0  0  0  0  0  0  0  0  0  0  0
  -33.2481  -29.0107   24.7085 C   0  0  0  0  0  0  0  0  0  0  0  0
  -28.1672  -12.0672   18.7086 C   0  0  0  0  0  0  0  0  0  0  0  0
  -30.5220  -12.5846   19.4740 C   0  0  0  0  0  0  0  0  0  0  0  0
  -28.6208  -13.3137   20.8625 C   0  0  0  0  0  0  0  0  0  0  0  0
  -29.7789  -18.9706   19.8433 C   0  0  0  0  0  0  0  0  0  0  0  0
  -31.7623  -28.6314   24.7076 C   0  0  1  0  0  0  0  0  0  0  0  0
  -31.4275  -25.0771   26.0066 C   0  0  1  0  0  0  0  0  0  0  0  0
  -27.6457  -13.1378   19.6859 C   0  0  2  0  0  0  0  0  0  0  0  0
  -33.7725  -17.6945   25.9648 C   0  0  0  0  0  0  0  0  0  0  0  0
  -34.3606  -23.4876   22.8081 C   0  0  0  0  0  0  0  0  0  0  0  0
  -34.7740  -21.0188   22.8555 C   0  0  0  0  0  0  0  0  0  0  0  0
  -35.7775  -22.4835   24.6077 C   0  0  0  0  0  0  0  0  0  0  0  0
  -30.7338  -19.1025   27.7702 C   0  0  0  0  0  0  0  0  0  0  0  0
  -24.9591  -19.9583   21.5314 C   0  0  0  0  0  0  0  0  0  0  0  0
  -24.8723  -21.3646   22.1283 C   0  0  0  0  0  0  0  0  0  0  0  0
  -30.8059  -16.8995   21.8958 C   0  0  0  0  0  0  0  0  0  0  0  0
  -29.8254  -18.0273   22.1583 C   0  0  0  0  0  0  0  0  0  0  0  0
  -26.2352  -21.9833   22.4165 C   0  0  0  0  0  0  0  0  0  1  0  0
  -33.2912  -22.0268   24.6488 C   0  0  1  0  0  0  0  0  0  0  0  0
  -32.9022  -18.7836   26.5724 C   0  0  2  0  0  0  0  0  0  0  0  0
  -34.5244  -22.2645   23.7322 C   0  0  0  0  0  0  0  0  0  0  0  0
  -25.8607  -11.5444   20.2838 N   0  0  0  0  0  0  0  0  0  0  0  0
  -26.2360  -12.8284   20.1549 N   0  0  0  0  0  0  0  0  0  0  0  0
  -31.7144  -23.8020   25.3462 N   0  0  0  0  0  0  0  0  0  0  0  0
  -29.9712  -13.6126   20.3604 N   0  0  0  0  0  0  0  0  0  0  0  0
  -25.4673  -15.0551   20.4034 N   0  0  0  0  0  0  0  0  0  0  0  0
  -21.8864  -12.5768   21.6000 N   0  0  0  0  0  0  0  0  0  0  0  0
  -31.5440  -27.4411   25.5013 N   0  0  0  0  0  0  0  0  0  0  0  0
  -33.4294  -20.8910   25.5540 N   0  0  0  0  0  0  0  0  0  0  0  0
  -30.1419  -15.6770   21.5019 N   0  0  0  0  0  0  0  0  0  0  0  0
  -28.9973  -18.2769   20.9301 N   0  3  1  0  0  0  0  0  0  0  0  0
  -31.6705  -18.1493   27.1214 N   0  3  0  0  0  0  0  0  0  0  0  0
  -22.6593  -14.7175   21.3190 O   0  0  0  0  0  0  0  0  0  0  0  0
  -32.0446  -25.8603   23.8664 O   0  0  0  0  0  0  0  0  0  0  0  0
  -33.8254  -23.6233   26.3198 O   0  0  0  0  0  0  0  0  0  0  0  0
  -31.5641  -19.7373   24.8012 O   0  0  0  0  0  0  0  0  0  0  0  0
  -31.8765  -14.9254   20.2045 O   0  0  0  0  0  0  0  0  0  0  0  0
  -21.6196   -7.0134   21.7093 O   0  0  0  0  0  0  0  0  0  0  0  0
  -26.0398  -23.2777   22.9847 O   0  0  0  0  0  0  0  0  0  1  0  0
  -18.6337   -6.8521   26.3420 F   0  0  0  0  0  0  0  0  0  0  0  0
  -22.0742   -5.0706   23.6228 F   0  0  0  0  0  0  0  0  0  0  0  0
  1  2  1  0  0  0  0
  1  6  2  0  0  0  0
  2  7  2  0  0  0  0
  3  8  1  0  0  0  0
  3 10  2  0  0  0  0
  4 11  2  0  0  0  0
  4 18  1  0  0  0  0
  5 12  1  0  0  0  0
  5 18  2  0  0  0  0
  6 20  1  0  0  0  0
  7 23  1  0  0  0  0
  8 21  2  0  0  0  0
  9 13  2  0  0  0  0
  9 22  1  0  0  0  0
 10 26  1  0  0  0  0
 11 27  1  0  0  0  0
 12 27  2  0  0  0  0
 13 28  1  0  0  0  0
 14 15  2  0  0  0  0
 14 29  1  0  0  0  0
 15 30  1  0  0  0  0
 16 24  1  0  0  0  0
 16 28  2  0  0  0  0
 17 30  2  0  0  0  0
 17 31  1  0  0  0  0
 18 32  1  0  0  0  0
 19 32  1  0  0  0  0
 19 33  2  0  0  0  0
 19 34  1  0  0  0  0
 20 23  2  0  0  0  0
 20 39  1  0  0  0  0
 21 25  1  0  0  0  0
 21 40  1  0  0  0  0
 22 24  2  0  0  0  0
 22 41  1  0  0  0  0
 23 51  1  0  0  0  0
 24 42  1  0  0  0  0
 25 26  2  0  0  0  0
 25 43  1  0  0  0  0
 26 59  1  0  0  0  0
 27 83  1  0  0  0  0
 28 84  1  0  0  0  0
 29 31  2  0  0  0  0
 29 83  1  0  0  0  0
 30 85  1  0  0  0  0
 31 86  1  0  0  0  0
 32 67  2  0  0  0  0
 33 68  1  0  0  0  0
 33 71  1  0  0  0  0
 34 72  1  0  0  0  0
 34 78  2  0  0  0  0
 35 52  1  0  0  0  0
 35 73  1  0  0  0  0
 35 79  2  0  0  0  0
 36 64  1  0  0  0  0
 36 69  1  0  0  0  0
 36 80  2  0  0  0  0
 37 65  1  0  0  0  0
 37 74  1  0  0  0  0
 37 81  2  0  0  0  0
 38 70  1  0  0  0  0
 38 75  1  0  0  0  0
 38 82  2  0  0  0  0
 39 44  1  0  0  0  0
 40 50  1  0  0  0  0
 41 52  1  0  0  0  0
 42 69  1  0  0  0  0
 43 76  1  0  0  0  0
 44 46  1  0  0  0  0
 45 47  1  0  0  0  0
 45 48  1  0  0  0  0
 46 51  1  0  0  0  0
 47 53  1  0  0  0  0
 48 70  1  0  0  0  0
 49 53  1  0  0  0  0
 49 70  1  0  0  0  0
 50 76  1  0  0  0  0
 51 73  1  0  0  0  0
 52 69  1  0  0  0  0
 53 68  1  0  0  0  0
 54 65  1  0  0  0  0
 55 66  1  0  0  0  0
 56 66  1  0  0  0  0
 57 66  1  0  0  0  0
 58 77  1  0  0  0  0
 59 60  1  0  0  0  0
 60 63  1  0  0  0  0
 61 62  1  0  0  0  0
 61 75  1  0  0  0  0
 62 76  1  0  0  0  0
 63 84  1  0  0  0  0
 64 66  1  0  0  0  0
 64 74  1  0  0  0  0
 65 77  1  0  0  0  0
 67 68  1  0  0  0  0
M  CHG  2  76   1  77   1
M  ISO  4  38 100  63 101  75 100  84 101
M  END
> <Batch ID>
0123

> <Smiles>
CNC(C)C(=O)NC(C(=O)N1Cc2cc([101O:1][101CH2:1]CCc3cccc4c3CN(CC[100NH:0][100C:0](=O)N3CCCC(n5nc(-c6ccc(Oc7ccc(F)cc7F)cc6)c(C(N)=O)c5N)C3)CC4)ccc2CC1C(=O)NC1CCCc2ccccc21)C(C)(C)C

> <Shape>
0.204

> <Color>
0.187

> <Negative vol penalty>
0.000

$$$$

  -OEChem-04052320303D

 92101  0     1  0  0  0  0  0999 V2000
  -16.7835  -28.0047   22.9626 C   0  0  0  0  0  0  0  0  0  0  0  0
  -17.6022  -27.3325   22.0606 C   0  0  0  0  0  0  0  0  0  0  0  0
  -23.5997  -10.3023   21.9858 C   0  0  0  0  0  0  0  0  0  0  0  0
  -24.9933   -8.3298   22.0503 C   0  0  0  0  0  0  0  0  0  0  0  0
  -17.2212  -29.1915   23.5489 C   0  0  0  0  0  0  0  0  0  0  0  0
  -18.8587  -27.8475   21.7437 C   0  0  0  0  0  0  0  0  0  0  0  0
  -23.9388  -24.6592   20.5056 C   0  0  0  0  0  0  0  0  0  0  0  0
  -22.4704   -9.4993   21.8261 C   0  0  0  0  0  0  0  0  0  0  0  0
  -23.8640   -7.5267   21.8907 C   0  0  0  0  0  0  0  0  0  0  0  0
  -24.5481  -24.2943   19.3059 C   0  0  0  0  0  0  0  0  0  0  0  0
  -21.3477   -6.3580   23.8202 C   0  0  0  0  0  0  0  0  0  0  0  0
  -21.2328   -5.2340   24.6381 C   0  0  0  0  0  0  0  0  0  0  0  0
  -26.0079  -26.2075   19.4724 C   0  0  0  0  0  0  0  0  0  0  0  0
  -28.8816  -21.0353   18.5341 C   0  0  0  0  0  0  0  0  0  0  0  0
  -21.1945   -3.8153   22.6828 C   0  0  0  0  0  0  0  0  0  0  0  0
  -29.1719  -22.9553   19.6739 C   0  0  0  0  0  0  0  0  0  0  0  0
  -24.8611   -9.7176   22.0979 C   0  0  0  0  0  0  0  0  0  0  0  0
  -26.5947  -10.9863   23.4736 C   0  0  0  0  0  0  0  0  0  0  0  0
  -18.4876  -29.7162   23.2464 C   0  0  0  0  0  0  0  0  0  0  0  0
  -24.3528  -25.8090   21.1933 C   0  0  0  0  0  0  0  0  0  0  0  0
  -19.3132  -29.0432   22.3255 C   0  0  0  0  0  0  0  0  0  0  0  0
  -25.4039  -26.5834   20.6819 C   0  0  0  0  0  0  0  0  0  0  0  0
  -28.9424  -22.4457   18.4150 C   0  0  0  0  0  0  0  0  0  0  0  0
  -22.6025   -8.1115   21.7786 C   0  0  0  0  0  0  0  0  0  0  0  0
  -25.5809  -25.0701   18.7876 C   0  0  0  0  0  0  0  0  0  0  0  0
  -21.3859   -6.2107   22.4336 C   0  0  0  0  0  0  0  0  0  0  0  0
  -21.1562   -3.9626   24.0694 C   0  0  0  0  0  0  0  0  0  0  0  0
  -21.3093   -4.9393   21.8650 C   0  0  0  0  0  0  0  0  0  0  0  0
  -26.0281  -10.5466   22.2622 C   0  0  0  0  0  0  0  0  0  0  0  0
  -29.0756  -20.7260   19.8623 C   0  0  0  0  0  0  0  0  0  0  0  0
  -27.6787  -11.7387   23.0925 C   0  0  0  0  0  0  0  0  0  0  0  0
  -26.1784  -10.7369   24.8227 C   0  0  0  0  0  0  0  0  0  0  0  0
  -22.9624  -28.5395   22.0389 C   0  0  0  0  0  0  0  0  0  0  0  0
  -25.7636  -29.0307   23.5991 C   0  0  0  0  0  0  0  0  0  0  0  0
  -29.0941  -28.3341   23.8623 C   0  0  0  0  0  0  0  0  0  0  0  0
  -30.1384  -15.4571   19.9077 C   0  0  0  0  0  0  0  0  0  0  0  0
  -18.8980  -31.0270   23.8693 C   0  0  0  0  0  0  0  0  0  0  0  0
  -23.7032  -26.1742   22.4999 C   0  0  0  0  0  0  0  0  0  0  0  0
  -25.8991  -27.8159   21.3920 C   0  0  0  0  0  0  0  0  0  0  0  0
  -20.3947  -31.3086   23.7653 C   0  0  0  0  0  0  0  0  0  0  0  0
  -29.9134  -12.2679   18.5937 C   0  0  0  0  0  0  0  0  0  0  0  0
  -20.8933  -31.0302   22.3509 C   0  0  0  0  0  0  0  0  0  0  0  0
  -28.9301  -11.5596   19.5253 C   0  0  0  0  0  0  0  0  0  0  0  0
  -28.1668  -18.3605   19.8804 C   0  0  0  0  0  0  0  0  0  0  0  0
  -30.5382  -18.8098   20.6448 C   0  0  0  0  0  0  0  0  0  0  0  0
  -29.4610  -13.6947   18.3058 C   0  0  0  0  0  0  0  0  0  0  0  0
  -28.2301  -16.9905   20.5618 C   0  0  0  0  0  0  0  0  0  0  0  0
  -30.5364  -17.4453   21.3280 C   0  0  0  0  0  0  0  0  0  0  0  0
  -28.2795  -13.8281   20.4748 C   0  0  0  0  0  0  0  0  0  0  0  0
  -20.6928  -29.5571   21.9752 C   0  0  1  0  0  0  0  0  0  0  0  0
  -29.1093  -19.3753   20.5523 C   0  0  0  0  0  0  0  0  0  0  0  0
  -23.8593  -27.6501   22.8528 C   0  0  1  0  0  0  0  0  0  0  0  0
  -28.6930  -12.3797   20.8058 C   0  0  1  0  0  0  0  0  0  0  0  0
  -26.9939  -22.2074   22.5167 C   0  0  0  0  0  0  0  0  0  0  0  0
  -32.3101  -22.9748   15.7189 C   0  0  0  0  0  0  0  0  0  0  0  0
  -31.4071  -28.3530   24.8355 C   0  0  0  0  0  0  0  0  0  0  0  0
  -27.3278  -23.8139   15.1067 C   0  0  0  0  0  0  0  0  0  0  0  0
  -30.8659  -22.6279   22.2492 C   0  0  0  0  0  0  0  0  0  0  0  0
  -25.9636  -31.7027   22.1396 C   0  0  0  0  0  0  0  0  0  0  0  0
  -28.3854  -31.7861   22.7691 C   0  0  0  0  0  0  0  0  0  0  0  0
  -26.6359  -31.7763   24.5473 C   0  0  0  0  0  0  0  0  0  0  0  0
  -28.5258  -25.9753   25.5571 C   0  0  0  0  0  0  0  0  0  0  0  0
  -28.3790  -22.8154   22.6980 C   0  0  0  0  0  0  0  0  0  0  0  0
  -31.2515  -23.2736   16.7579 C   0  0  0  0  0  0  0  0  0  0  0  0
  -26.2212  -23.3268   17.3020 C   0  0  0  0  0  0  0  0  0  1  0  0
  -28.7888  -23.2260   17.1724 C   0  0  2  0  0  0  0  0  0  0  0  0
  -27.0897  -29.6583   23.2433 C   0  0  1  0  0  0  0  0  0  0  0  0
  -29.9541  -27.9624   25.0567 C   0  0  2  0  0  0  0  0  0  0  0  0
  -27.4325  -22.9996   16.4068 C   0  0  2  0  0  0  0  0  0  0  0  0
  -29.4845  -22.0275   21.9677 C   0  0  1  0  0  0  0  0  0  0  0  0
  -27.0083  -31.2088   23.1602 C   0  0  0  0  0  0  0  0  0  0  0  0
  -26.6968  -10.9834   21.1917 N   0  0  0  0  0  0  0  0  0  0  0  0
  -29.2507  -21.9008   20.5458 N   0  0  0  0  0  0  0  0  0  0  0  0
  -27.6947  -11.7055   21.7291 N   0  0  0  0  0  0  0  0  0  0  0  0
  -25.2278  -28.1351   22.6628 N   0  0  0  0  0  0  0  0  0  0  0  0
  -29.2432  -14.4391   19.5461 N   0  0  0  0  0  0  0  0  0  0  0  0
  -29.6198  -16.5227   20.6587 N   0  0  0  0  0  0  0  0  0  0  0  0
  -28.6103  -12.4189   23.7939 N   0  0  0  0  0  0  0  0  0  0  0  0
  -25.0433   -9.9428   25.0357 N   0  0  0  0  0  0  0  0  0  0  0  0
  -21.7114  -28.7349   22.5923 N   0  0  0  0  0  0  0  0  0  0  0  0
  -28.0517  -29.1621   24.2215 N   0  0  0  0  0  0  0  0  0  0  0  0
  -29.8944  -26.4934   25.3010 N   0  3  0  0  0  0  0  0  0  0  0  0
  -29.9208  -22.9746   16.1956 N   0  3  0  0  0  0  0  0  0  0  0  0
  -26.7852  -11.2178   25.8097 O   0  0  0  0  0  0  0  0  0  0  0  0
  -23.3754  -29.0145   20.9874 O   0  0  0  0  0  0  0  0  0  0  0  0
  -25.2265  -29.3188   24.6715 O   0  0  0  0  0  0  0  0  0  0  0  0
  -29.3262  -27.9333   22.7239 O   0  0  0  0  0  0  0  0  0  0  0  0
  -31.3309  -15.4167   19.5799 O   0  0  0  0  0  0  0  0  0  0  0  0
  -21.5008   -7.3276   21.6231 O   0  0  0  0  0  0  0  0  0  0  0  0
  -26.1813  -24.7139   17.6079 O   0  0  0  0  0  0  0  0  0  1  0  0
  -21.0475   -2.8831   24.8550 F   0  0  0  0  0  0  0  0  0  0  0  0
  -21.3467   -4.7914   20.5336 F   0  0  0  0  0  0  0  0  0  0  0  0
  1  2  1  0  0  0  0
  1  5  2  0  0  0  0
  2  6  2  0  0  0  0
  3  8  2  0  0  0  0
  3 17  1  0  0  0  0
  4  9  1  0  0  0  0
  4 17  2  0  0  0  0
  5 19  1  0  0  0  0
  6 21  1  0  0  0  0
  7 10  2  0  0  0  0
  7 20  1  0  0  0  0
  8 24  1  0  0  0  0
  9 24  2  0  0  0  0
 10 25  1  0  0  0  0
 11 12  2  0  0  0  0
 11 26  1  0  0  0  0
 12 27  1  0  0  0  0
 13 22  1  0  0  0  0
 13 25  2  0  0  0  0
 14 23  1  0  0  0  0
 14 30  2  0  0  0  0
 15 27  2  0  0  0  0
 15 28  1  0  0  0  0
 16 23  2  0  0  0  0
 16 73  1  0  0  0  0
 17 29  1  0  0  0  0
 18 29  1  0  0  0  0
 18 31  2  0  0  0  0
 18 32  1  0  0  0  0
 19 21  2  0  0  0  0
 19 37  1  0  0  0  0
 20 22  2  0  0  0  0
 20 38  1  0  0  0  0
 21 50  1  0  0  0  0
 22 39  1  0  0  0  0
 23 66  1  0  0  0  0
 24 89  1  0  0  0  0
 25 90  1  0  0  0  0
 26 28  2  0  0  0  0
 26 89  1  0  0  0  0
 27 91  1  0  0  0  0
 28 92  1  0  0  0  0
 29 72  2  0  0  0  0
 30 51  1  0  0  0  0
 30 73  1  0  0  0  0
 31 74  1  0  0  0  0
 31 78  1  0  0  0  0
 32 79  1  0  0  0  0
 32 84  2  0  0  0  0
 33 52  1  0  0  0  0
 33 80  1  0  0  0  0
 33 85  2  0  0  0  0
 34 67  1  0  0  0  0
 34 75  1  0  0  0  0
 34 86  2  0  0  0  0
 35 68  1  0  0  0  0
 35 81  1  0  0  0  0
 35 87  2  0  0  0  0
 36 76  1  0  0  0  0
 36 77  1  0  0  0  0
 36 88  2  0  0  0  0
 37 40  1  0  0  0  0
 38 52  1  0  0  0  0
 39 75  1  0  0  0  0
 40 42  1  0  0  0  0
 41 43  1  0  0  0  0
 41 46  1  0  0  0  0
 42 50  1  0  0  0  0
 43 53  1  0  0  0  0
 44 47  1  0  0  0  0
 44 51  1  0  0  0  0
 45 48  1  0  0  0  0
 45 51  1  0  0  0  0
 46 76  1  0  0  0  0
 47 77  1  0  0  0  0
 48 77  1  0  0  0  0
 49 53  1  0  0  0  0
 49 76  1  0  0  0  0
 50 80  1  0  0  0  0
 52 75  1  0  0  0  0
 53 74  1  0  0  0  0
 54 63  1  0  0  0  0
 55 64  1  0  0  0  0
 56 68  1  0  0  0  0
 57 69  1  0  0  0  0
 58 70  1  0  0  0  0
 59 71  1  0  0  0  0
 60 71  1  0  0  0  0
 61 71  1  0  0  0  0
 62 82  1  0  0  0  0
 63 70  1  0  0  0  0
 64 83  1  0  0  0  0
 65 69  1  0  0  0  0
 65 90  1  0  0  0  0
 66 69  1  0  0  0  0
 66 83  1  0  0  0  0
 67 71  1  0  0  0  0
 67 81  1  0  0  0  0
 68 82  1  0  0  0  0
 70 73  1  0  0  0  0
 72 74  1  0  0  0  0
M  CHG  2  82   1  83   1
M  ISO  4  36 100  65 101  77 100  90 101
M  END
> <Batch ID>
0123

> <Smiles>
CCNC(c1cc(C2CC[100N:0]([100C:0](=O)N3CCCC(n4nc(-c5ccc(Oc6ccc(F)cc6F)cc5)c(C(N)=O)c4N)C3)CC2)n(C(C)CC)c1)C(C)[101CH2:1][101O:1]c1ccc2c(c1)CN(C(=O)C(NC(=O)C(C)NC)C(C)(C)C)C(C(=O)NC1CCCc3ccccc31)C2

> <Shape>
0.316

> <Color>
0.082

> <Negative vol penalty>
0.000

$$$$

  -OEChem-04052320303D

 89 97  0     1  0  0  0  0  0999 V2000
  -32.3383  -26.0063   14.9673 C   0  0  0  0  0  0  0  0  0  0  0  0
  -30.9678  -26.1080   14.7511 C   0  0  0  0  0  0  0  0  0  0  0  0
  -26.3473  -14.5482   19.3482 C   0  0  0  0  0  0  0  0  0  0  0  0
  -24.2702  -14.7174   20.5705 C   0  0  0  0  0  0  0  0  0  0  0  0
  -32.8228  -25.7318   16.2455 C   0  0  0  0  0  0  0  0  0  0  0  0
  -30.0808  -25.9341   15.8129 C   0  0  0  0  0  0  0  0  0  0  0  0
  -23.7305  -28.2198   18.2142 C   0  0  0  0  0  0  0  0  0  0  0  0
  -26.5035  -13.2362   19.7951 C   0  0  0  0  0  0  0  0  0  0  0  0
  -24.4264  -13.4053   21.0174 C   0  0  0  0  0  0  0  0  0  0  0  0
  -22.5050  -27.7246   18.6578 C   0  0  0  0  0  0  0  0  0  0  0  0
  -23.9710  -10.2881   19.7940 C   0  0  0  0  0  0  0  0  0  0  0  0
  -22.8568   -9.4507   19.7425 C   0  0  0  0  0  0  0  0  0  0  0  0
  -16.7080  -26.5765   21.1284 C   0  0  0  0  0  0  0  0  0  0  0  0
  -23.4595  -27.3326   20.8383 C   0  0  0  0  0  0  0  0  0  0  0  0
  -22.9790   -9.1410   22.1355 C   0  0  0  0  0  0  0  0  0  0  0  0
  -16.6581  -25.2112   21.3586 C   0  0  0  0  0  0  0  0  0  0  0  0
  -25.2307  -15.2888   19.7359 C   0  0  0  0  0  0  0  0  0  0  0  0
  -24.4147  -17.0719   18.1042 C   0  0  0  0  0  0  0  0  0  0  0  0
  -31.9417  -25.5641   17.3254 C   0  0  0  0  0  0  0  0  0  0  0  0
  -24.8345  -28.2650   19.0777 C   0  0  0  0  0  0  0  0  0  0  0  0
  -30.5539  -25.6558   17.1066 C   0  0  0  0  0  0  0  0  0  0  0  0
  -24.6972  -27.8312   20.4040 C   0  0  0  0  0  0  0  0  0  0  0  0
  -17.8399  -27.0906   20.5056 C   0  0  0  0  0  0  0  0  0  0  0  0
  -18.8728  -26.2357   20.1373 C   0  0  0  0  0  0  0  0  0  0  0  0
  -25.5430  -12.6647   20.6297 C   0  0  0  0  0  0  0  0  0  0  0  0
  -22.3701  -27.2782   19.9691 C   0  0  0  0  0  0  0  0  0  0  0  0
  -24.5893  -10.5520   21.0162 C   0  0  0  0  0  0  0  0  0  0  0  0
  -22.3608   -8.8771   20.9132 C   0  0  0  0  0  0  0  0  0  0  0  0
  -24.0933   -9.9785   22.1869 C   0  0  0  0  0  0  0  0  0  0  0  0
  -25.0691  -16.6444   19.2751 C   0  0  0  0  0  0  0  0  0  0  0  0
  -18.7260  -24.8855   20.4121 C   0  0  0  0  0  0  0  0  0  0  0  0
  -24.5362  -18.4399   18.1230 C   0  0  0  0  0  0  0  0  0  0  0  0
  -23.7559  -16.3014   17.0904 C   0  0  0  0  0  0  0  0  0  0  0  0
  -27.7174  -26.9263   19.1048 C   0  0  0  0  0  0  0  0  0  0  0  0
  -28.1561  -28.8452   21.6831 C   0  0  0  0  0  0  0  0  0  0  0  0
  -26.7644  -30.6137   24.2487 C   0  0  0  0  0  0  0  0  0  0  0  0
  -25.3080  -22.4045   22.5431 C   0  0  0  0  0  0  0  0  0  0  0  0
  -32.5103  -25.2219   18.6798 C   0  0  0  0  0  0  0  0  0  0  0  0
  -26.1424  -28.8268   18.5915 C   0  0  0  0  0  0  0  0  0  0  0  0
  -25.8463  -27.8775   21.3765 C   0  0  0  0  0  0  0  0  0  0  0  0
  -31.5203  -25.4223   19.8243 C   0  0  0  0  0  0  0  0  0  0  0  0
  -27.4080  -21.9227   19.7086 C   0  0  0  0  0  0  0  0  0  0  0  0
  -30.1659  -24.8161   19.4709 C   0  0  0  0  0  0  0  0  0  0  0  0
  -26.9876  -20.5539   19.1704 C   0  0  0  0  0  0  0  0  0  0  0  0
  -27.3652  -21.9666   21.2344 C   0  0  0  0  0  0  0  0  0  0  0  0
  -25.6589  -20.1892   21.2918 C   0  0  0  0  0  0  0  0  0  0  0  0
  -29.5611  -25.4981   18.2378 C   0  0  1  0  0  0  0  0  0  0  0  0
  -27.3387  -28.3484   19.4084 C   0  0  1  0  0  0  0  0  0  0  0  0
  -25.6324  -20.1133   19.7556 C   0  0  2  0  0  0  0  0  0  0  0  0
  -27.3793  -32.0488   26.2134 C   0  0  0  0  0  0  0  0  0  0  0  0
  -15.8690  -28.6342   18.7338 C   0  0  0  0  0  0  0  0  0  0  0  0
  -17.5314  -30.5043   18.6804 C   0  0  0  0  0  0  0  0  0  0  0  0
  -20.6417  -21.8619   19.3088 C   0  0  0  0  0  0  0  0  0  0  0  0
  -28.9917  -26.3557   23.2369 C   0  0  0  0  0  0  0  0  0  0  0  0
  -28.6702  -27.6538   25.3534 C   0  0  0  0  0  0  0  0  0  0  0  0
  -30.3813  -28.3847   23.6918 C   0  0  0  0  0  0  0  0  0  0  0  0
  -25.2999  -32.9412   23.1547 C   0  0  0  0  0  0  0  0  0  0  0  0
  -17.9210  -28.5585   20.2448 C   0  0  0  0  0  0  0  0  0  0  0  0
  -20.1020  -26.7718   19.4643 C   0  0  0  0  0  0  0  0  0  1  0  0
  -23.1884  -22.7009   23.7994 C   0  0  0  0  0  0  0  0  0  0  0  0
  -21.7270  -22.3793   23.5483 C   0  0  0  0  0  0  0  0  0  0  0  0
  -20.0021  -22.2800   21.7444 C   0  0  0  0  0  0  0  0  0  0  0  0
  -27.9288  -28.7077   23.1692 C   0  0  1  0  0  0  0  0  0  0  0  0
  -27.0010  -32.0303   24.7405 C   0  0  2  0  0  0  0  0  0  0  0  0
  -17.3496  -28.9969   18.8747 C   0  0  0  0  0  0  0  0  0  0  0  0
  -19.7242  -22.6028   20.2767 C   0  0  1  0  0  0  0  0  0  0  0  0
  -28.9717  -27.7727   23.8442 C   0  0  0  0  0  0  0  0  0  0  0  0
  -17.6415  -24.3493   21.0153 N   0  0  0  0  0  0  0  0  0  0  0  0
  -25.5693  -17.6586   19.9858 N   0  0  0  0  0  0  0  0  0  0  0  0
  -25.2292  -18.7370   19.2595 N   0  0  0  0  0  0  0  0  0  0  0  0
  -27.1063  -28.4295   20.8518 N   0  0  0  0  0  0  0  0  0  0  0  0
  -26.0529  -21.5390   21.7252 N   0  0  0  0  0  0  0  0  0  0  0  0
  -24.1167  -19.4056   17.2781 N   0  0  0  0  0  0  0  0  0  0  0  0
  -23.7233  -14.9069   17.2266 N   0  0  0  0  0  0  0  0  0  0  0  0
  -19.7753  -24.0085   20.0396 N   0  0  0  0  0  0  0  0  0  0  0  0
  -28.9940  -26.7804   18.5965 N   0  0  0  0  0  0  0  0  0  0  0  0
  -27.9065  -30.0640   23.7060 N   0  0  0  0  0  0  0  0  0  0  0  0
  -24.0724  -21.9241   22.9593 N   0  0  0  0  0  0  0  0  0  0  0  0
  -25.7717  -32.8532   24.5606 N   0  3  0  0  0  0  0  0  0  0  0  0
  -21.3967  -22.6218   22.1174 N   0  3  0  0  0  0  0  0  0  0  0  0
  -23.2264  -16.8326   16.0849 O   0  0  0  0  0  0  0  0  0  0  0  0
  -26.9116  -26.0279   19.3174 O   0  0  0  0  0  0  0  0  0  0  0  0
  -29.2229  -29.3112   21.2751 O   0  0  0  0  0  0  0  0  0  0  0  0
  -25.6762  -30.0499   24.3404 O   0  0  0  0  0  0  0  0  0  0  0  0
  -25.7118  -23.5247   22.8734 O   0  0  0  0  0  0  0  0  0  0  0  0
  -25.6950  -11.3843   21.0658 O   0  0  0  0  0  0  0  0  0  0  0  0
  -21.1753  -26.7939   20.4045 O   0  0  0  0  0  0  0  0  0  1  0  0
  -21.2898   -8.0741   20.8639 F   0  0  0  0  0  0  0  0  0  0  0  0
  -24.6823  -10.2293   23.3642 F   0  0  0  0  0  0  0  0  0  0  0  0
  1  2  1  0  0  0  0
  1  5  2  0  0  0  0
  2  6  2  0  0  0  0
  3  8  2  0  0  0  0
  3 17  1  0  0  0  0
  4  9  1  0  0  0  0
  4 17  2  0  0  0  0
  5 19  1  0  0  0  0
  6 21  1  0  0  0  0
  7 10  2  0  0  0  0
  7 20  1  0  0  0  0
  8 25  1  0  0  0  0
  9 25  2  0  0  0  0
 10 26  1  0  0  0  0
 11 12  2  0  0  0  0
 11 27  1  0  0  0  0
 12 28  1  0  0  0  0
 13 16  1  0  0  0  0
 13 23  2  0  0  0  0
 14 22  1  0  0  0  0
 14 26  2  0  0  0  0
 15 28  2  0  0  0  0
 15 29  1  0  0  0  0
 16 68  2  0  0  0  0
 17 30  1  0  0  0  0
 18 30  1  0  0  0  0
 18 32  2  0  0  0  0
 18 33  1  0  0  0  0
 19 21  2  0  0  0  0
 19 38  1  0  0  0  0
 20 22  2  0  0  0  0
 20 39  1  0  0  0  0
 21 47  1  0  0  0  0
 22 40  1  0  0  0  0
 23 24  1  0  0  0  0
 23 58  1  0  0  0  0
 24 31  2  0  0  0  0
 24 59  1  0  0  0  0
 25 86  1  0  0  0  0
 26 87  1  0  0  0  0
 27 29  2  0  0  0  0
 27 86  1  0  0  0  0
 28 88  1  0  0  0  0
 29 89  1  0  0  0  0
 30 69  2  0  0  0  0
 31 68  1  0  0  0  0
 31 75  1  0  0  0  0
 32 70  1  0  0  0  0
 32 73  1  0  0  0  0
 33 74  1  0  0  0  0
 33 81  2  0  0  0  0
 34 48  1  0  0  0  0
 34 76  1  0  0  0  0
 34 82  2  0  0  0  0
 35 63  1  0  0  0  0
 35 71  1  0  0  0  0
 35 83  2  0  0  0  0
 36 64  1  0  0  0  0
 36 77  1  0  0  0  0
 36 84  2  0  0  0  0
 37 72  1  0  0  0  0
 37 78  1  0  0  0  0
 37 85  2  0  0  0  0
 38 41  1  0  0  0  0
 39 48  1  0  0  0  0
 40 71  1  0  0  0  0
 41 43  1  0  0  0  0
 42 44  1  0  0  0  0
 42 45  1  0  0  0  0
 43 47  1  0  0  0  0
 44 49  1  0  0  0  0
 45 72  1  0  0  0  0
 46 49  1  0  0  0  0
 46 72  1  0  0  0  0
 47 76  1  0  0  0  0
 48 71  1  0  0  0  0
 49 70  1  0  0  0  0
 50 64  1  0  0  0  0
 51 65  1  0  0  0  0
 52 65  1  0  0  0  0
 53 66  1  0  0  0  0
 54 67  1  0  0  0  0
 55 67  1  0  0  0  0
 56 67  1  0  0  0  0
 57 79  1  0  0  0  0
 58 65  1  0  0  0  0
 59 87  1  0  0  0  0
 60 61  1  0  0  0  0
 60 78  1  0  0  0  0
 61 80  1  0  0  0  0
 62 66  1  0  0  0  0
 62 80  1  0  0  0  0
 63 67  1  0  0  0  0
 63 77  1  0  0  0  0
 64 79  1  0  0  0  0
 66 75  1  0  0  0  0
 69 70  1  0  0  0  0
M  CHG  2  79   1  80   1
M  ISO  4  37 100  59 101  78 100  87 101
M  END
> <Batch ID>
0123

> <Smiles>
CNC(C)C(=O)NC(C(=O)N1Cc2cc([101O:1][101CH2:1]c3c(CC(C)C)ccnc3NC(C)CNCC[100NH:0][100C:0](=O)N3CCCC(n4nc(-c5ccc(Oc6ccc(F)cc6F)cc5)c(C(N)=O)c4N)C3)ccc2CC1C(=O)NC1CCCc2ccccc21)C(C)(C)C

> <Shape>
0.213

> <Color>
0.050

> <Negative vol penalty>
0.000

$$$$

  -OEChem-04052320303D

 86 95  0     1  0  0  0  0  0999 V2000
  -22.5065  -16.4210   24.8901 C   0  0  0  0  0  0  0  0  0  0  0  0
  -22.7937  -17.7785   24.7889 C   0  0  0  0  0  0  0  0  0  0  0  0
  -24.4837  -30.8338   20.0263 C   0  0  0  0  0  0  0  0  0  0  0  0
  -27.7451  -17.5197   20.7639 C   0  0  0  0  0  0  0  0  0  0  0  0
  -29.7360  -18.1130   21.9973 C   0  0  0  0  0  0  0  0  0  0  0  0
  -22.3766  -15.6493   23.7362 C   0  0  0  0  0  0  0  0  0  0  0  0
  -22.9521  -18.3648   23.5337 C   0  0  0  0  0  0  0  0  0  0  0  0
  -25.7182  -31.0705   20.6310 C   0  0  0  0  0  0  0  0  0  0  0  0
  -21.3548  -24.0456   21.8957 C   0  0  0  0  0  0  0  0  0  0  0  0
  -23.7609  -29.6836   20.3432 C   0  0  0  0  0  0  0  0  0  0  0  0
  -28.0492  -16.1678   20.9233 C   0  0  0  0  0  0  0  0  0  0  0  0
  -30.0401  -16.7611   22.1568 C   0  0  0  0  0  0  0  0  0  0  0  0
  -22.0844  -25.2276   21.7767 C   0  0  0  0  0  0  0  0  0  0  0  0
  -30.1320  -13.9020   19.5261 C   0  0  0  0  0  0  0  0  0  0  0  0
  -30.0110  -13.0752   18.4093 C   0  0  0  0  0  0  0  0  0  0  0  0
  -25.5073  -29.0067   21.8693 C   0  0  0  0  0  0  0  0  0  0  0  0
  -22.3527  -24.8173   19.4148 C   0  0  0  0  0  0  0  0  0  0  0  0
  -28.3715  -11.7385   19.5766 C   0  0  0  0  0  0  0  0  0  0  0  0
  -28.5886  -18.4924   21.3008 C   0  0  0  0  0  0  0  0  0  0  0  0
  -27.5035  -20.6943   21.9947 C   0  0  0  0  0  0  0  0  0  0  0  0
  -26.2300  -30.1569   21.5525 C   0  0  0  0  0  0  0  0  0  0  0  0
  -22.5240  -16.2284   22.4660 C   0  0  0  0  0  0  0  0  0  0  0  0
  -21.1276  -23.2336   20.7752 C   0  0  0  0  0  0  0  0  0  0  0  0
  -22.8254  -17.5998   22.3618 C   0  0  0  0  0  0  0  0  0  0  0  0
  -21.6177  -23.6267   19.5217 C   0  0  0  0  0  0  0  0  0  0  0  0
  -24.2727  -28.7701   21.2647 C   0  0  0  0  0  0  0  0  0  0  0  0
  -29.1966  -15.7885   21.6198 C   0  0  0  0  0  0  0  0  0  0  0  0
  -22.5860  -25.6122   20.5367 C   0  0  0  0  0  0  0  0  0  0  0  0
  -29.3728  -13.6471   20.6682 C   0  0  0  0  0  0  0  0  0  0  0  0
  -29.1307  -11.9934   18.4345 C   0  0  0  0  0  0  0  0  0  0  0  0
  -28.4926  -12.5654   20.6934 C   0  0  0  0  0  0  0  0  0  0  0  0
  -28.2753  -19.8891   21.1359 C   0  0  0  0  0  0  0  0  0  0  0  0
  -27.5050  -21.9317   21.3987 C   0  0  0  0  0  0  0  0  0  0  0  0
  -26.8442  -20.3542   23.2217 C   0  0  0  0  0  0  0  0  0  0  0  0
  -21.8998  -20.2578   19.9678 C   0  0  0  0  0  0  0  0  0  0  0  0
  -20.0082  -20.8766   17.4063 C   0  0  0  0  0  0  0  0  0  0  0  0
  -18.6083  -23.1967   15.3316 C   0  0  0  0  0  0  0  0  0  0  0  0
  -30.1886  -26.0812   18.8053 C   0  0  0  0  0  0  0  0  0  0  0  0
  -22.4212  -15.3440   21.2486 C   0  0  0  0  0  0  0  0  0  0  0  0
  -20.3158  -21.9751   20.9152 C   0  0  0  0  0  0  0  0  0  0  0  0
  -21.3840  -22.8006   18.2842 C   0  0  0  0  0  0  0  0  0  0  0  0
  -22.2336  -16.1190   19.9468 C   0  0  0  0  0  0  0  0  0  0  0  0
  -29.2430  -29.7721   23.8746 C   0  0  0  0  0  0  0  0  0  0  0  0
  -29.0468  -23.3693   16.8006 C   0  0  0  0  0  0  0  0  0  0  0  0
  -27.7343  -29.8967   23.6497 C   0  0  0  0  0  0  0  0  0  0  0  0
  -23.2153  -17.2841   19.8730 C   0  0  0  0  0  0  0  0  0  0  0  0
  -28.6868  -22.2871   17.8200 C   0  0  0  0  0  0  0  0  0  0  0  0
  -29.9092  -30.1156   22.5434 C   0  0  0  0  0  0  0  0  0  0  0  0
  -30.2742  -24.1675   17.2346 C   0  0  0  0  0  0  0  0  0  0  0  0
  -29.8278  -23.6677   19.6062 C   0  0  0  0  0  0  0  0  0  0  0  0
  -27.5690  -30.4152   22.2093 C   0  0  1  0  0  0  0  0  0  0  0  0
  -22.9799  -18.2773   21.0174 C   0  0  1  0  0  0  0  0  0  0  0  0
  -20.5839  -20.9645   19.8043 C   0  0  1  0  0  0  0  0  0  0  0  0
  -28.5630  -22.8727   19.2394 C   0  0  2  0  0  0  0  0  0  0  0  0
  -28.8276  -29.8847   21.4696 C   0  0  1  0  0  0  0  0  0  0  0  0
  -29.1454  -30.6914   20.2046 C   0  0  0  0  0  0  0  0  0  0  0  0
  -17.1407  -23.3974   13.3060 C   0  0  0  0  0  0  0  0  0  0  0  0
  -22.3398  -20.0187   15.6350 C   0  0  0  0  0  0  0  0  0  0  0  0
  -21.1873  -21.1197   13.7042 C   0  0  0  0  0  0  0  0  0  0  0  0
  -20.0996  -19.2055   14.8771 C   0  0  0  0  0  0  0  0  0  0  0  0
  -16.5674  -24.7390   16.8199 C   0  0  0  0  0  0  0  0  0  0  0  0
  -23.4955  -27.5325   21.6049 C   0  0  0  0  0  0  0  0  0  1  0  0
  -28.7609  -28.3907   21.1042 C   0  0  0  0  0  0  0  0  0  0  0  0
  -30.0586  -27.8933   20.4960 C   0  0  0  0  0  0  0  0  0  0  0  0
  -20.2290  -21.4526   16.0285 C   0  0  1  0  0  0  0  0  0  0  0  0
  -17.1874  -23.3687   14.8258 C   0  0  2  0  0  0  0  0  0  0  0  0
  -20.9701  -20.4639   15.0847 C   0  0  0  0  0  0  0  0  0  0  0  0
  -28.7337  -20.5586   20.0749 N   0  0  0  0  0  0  0  0  0  0  0  0
  -28.2483  -21.7976   20.2631 N   0  0  0  0  0  0  0  0  0  0  0  0
  -20.5898  -21.5755   18.4736 N   0  0  0  0  0  0  0  0  0  0  0  0
  -30.0919  -24.6967   18.5883 N   0  0  0  0  0  0  0  0  0  0  0  0
  -26.9428  -23.1106   21.7404 N   0  0  0  0  0  0  0  0  0  0  0  0
  -26.9446  -19.0376   23.6915 N   0  0  0  0  0  0  0  0  0  0  0  0
  -21.8309  -19.1107   20.7351 N   0  0  0  0  0  0  0  0  0  0  0  0
  -18.9172  -21.8700   15.5455 N   0  0  0  0  0  0  0  0  0  0  0  0
  -29.9963  -26.4995   20.1163 N   0  0  0  0  0  0  0  0  0  0  0  0
  -16.6057  -24.6416   15.3380 N   0  3  0  0  0  0  0  0  0  0  0  0
  -26.1719  -21.1890   23.8734 O   0  0  0  0  0  0  0  0  0  0  0  0
  -22.9031  -20.7184   19.4358 O   0  0  0  0  0  0  0  0  0  0  0  0
  -19.3381  -19.8486   17.5317 O   0  0  0  0  0  0  0  0  0  0  0  0
  -19.3693  -24.1442   15.5149 O   0  0  0  0  0  0  0  0  0  0  0  0
  -30.4233  -26.8854   17.8969 O   0  0  0  0  0  0  0  0  0  0  0  0
  -29.4936  -14.4694   21.7758 O   0  0  0  0  0  0  0  0  0  0  0  0
  -23.2990  -26.7652   20.4179 O   0  0  0  0  0  0  0  0  0  1  0  0
  -29.0135  -11.2004   17.3614 F   0  0  0  0  0  0  0  0  0  0  0  0
  -27.7597  -12.3161   21.7873 F   0  0  0  0  0  0  0  0  0  0  0  0
  1  2  1  0  0  0  0
  1  6  2  0  0  0  0
  2  7  2  0  0  0  0
  3  8  1  0  0  0  0
  3 10  2  0  0  0  0
  4 11  2  0  0  0  0
  4 19  1  0  0  0  0
  5 12  1  0  0  0  0
  5 19  2  0  0  0  0
  6 22  1  0  0  0  0
  7 24  1  0  0  0  0
  8 21  2  0  0  0  0
  9 13  2  0  0  0  0
  9 23  1  0  0  0  0
 10 26  1  0  0  0  0
 11 27  1  0  0  0  0
 12 27  2  0  0  0  0
 13 28  1  0  0  0  0
 14 15  2  0  0  0  0
 14 29  1  0  0  0  0
 15 30  1  0  0  0  0
 16 21  1  0  0  0  0
 16 26  2  0  0  0  0
 17 25  1  0  0  0  0
 17 28  2  0  0  0  0
 18 30  2  0  0  0  0
 18 31  1  0  0  0  0
 19 32  1  0  0  0  0
 20 32  1  0  0  0  0
 20 33  2  0  0  0  0
 20 34  1  0  0  0  0
 21 51  1  0  0  0  0
 22 24  2  0  0  0  0
 22 39  1  0  0  0  0
 23 25  2  0  0  0  0
 23 40  1  0  0  0  0
 24 52  1  0  0  0  0
 25 41  1  0  0  0  0
 26 62  1  0  0  0  0
 27 83  1  0  0  0  0
 28 84  1  0  0  0  0
 29 31  2  0  0  0  0
 29 83  1  0  0  0  0
 30 85  1  0  0  0  0
 31 86  1  0  0  0  0
 32 68  2  0  0  0  0
 33 69  1  0  0  0  0
 33 72  1  0  0  0  0
 34 73  1  0  0  0  0
 34 78  2  0  0  0  0
 35 53  1  0  0  0  0
 35 74  1  0  0  0  0
 35 79  2  0  0  0  0
 36 65  1  0  0  0  0
 36 70  1  0  0  0  0
 36 80  2  0  0  0  0
 37 66  1  0  0  0  0
 37 75  1  0  0  0  0
 37 81  2  0  0  0  0
 38 71  1  0  0  0  0
 38 76  1  0  0  0  0
 38 82  2  0  0  0  0
 39 42  1  0  0  0  0
 40 53  1  0  0  0  0
 41 70  1  0  0  0  0
 42 46  1  0  0  0  0
 43 45  1  0  0  0  0
 43 48  1  0  0  0  0
 44 47  1  0  0  0  0
 44 49  1  0  0  0  0
 45 51  1  0  0  0  0
 46 52  1  0  0  0  0
 47 54  1  0  0  0  0
 48 55  1  0  0  0  0
 49 71  1  0  0  0  0
 50 54  1  0  0  0  0
 50 71  1  0  0  0  0
 51 55  1  0  0  0  0
 52 74  1  0  0  0  0
 53 70  1  0  0  0  0
 54 69  1  0  0  0  0
 55 56  1  0  0  0  0
 55 63  1  0  0  0  0
 57 66  1  0  0  0  0
 58 67  1  0  0  0  0
 59 67  1  0  0  0  0
 60 67  1  0  0  0  0
 61 77  1  0  0  0  0
 62 84  1  0  0  0  0
 63 64  1  0  0  0  0
 64 76  1  0  0  0  0
 65 67  1  0  0  0  0
 65 75  1  0  0  0  0
 66 77  1  0  0  0  0
 68 69  1  0  0  0  0
M  CHG  1  77   1
M  ISO  4  38 100  62 101  76 100  84 101
M  END
> <Batch ID>
0123

> <Smiles>
CNC(C)C(=O)NC(C(=O)N1Cc2cc([101O:1][101CH2:1]c3cccc(C4CCCC4(C)CC[100NH:0][100C:0](=O)N4CCCC(n5nc(-c6ccc(Oc7ccc(F)cc7F)cc6)c(C(N)=O)c5N)C4)c3)ccc2CC1C(=O)NC1CCCc2ccccc21)C(C)(C)C

> <Shape>
0.201

> <Color>
0.048

> <Negative vol penalty>
0.000

$$$$

  -OEChem-04052320303D

 86 94  0     1  0  0  0  0  0999 V2000
  -20.5258  -33.3406   26.8777 C   0  0  0  0  0  0  0  0  0  0  0  0
  -20.2748  -32.3321   25.9529 C   0  0  0  0  0  0  0  0  0  0  0  0
  -23.8609   -9.8691   22.3855 C   0  0  0  0  0  0  0  0  0  0  0  0
  -23.1193  -10.0598   20.0941 C   0  0  0  0  0  0  0  0  0  0  0  0
  -21.3988  -34.3789   26.5554 C   0  0  0  0  0  0  0  0  0  0  0  0
  -20.8960  -32.3617   24.7048 C   0  0  0  0  0  0  0  0  0  0  0  0
  -22.7825  -27.5522   21.4163 C   0  0  0  0  0  0  0  0  0  0  0  0
  -22.9074   -8.8765   22.6115 C   0  0  0  0  0  0  0  0  0  0  0  0
  -22.1658   -9.0671   20.3200 C   0  0  0  0  0  0  0  0  0  0  0  0
  -22.2100  -26.8640   20.3474 C   0  0  0  0  0  0  0  0  0  0  0  0
  -22.5517   -5.5739   21.9794 C   0  0  0  0  0  0  0  0  0  0  0  0
  -22.9555   -4.4331   22.6729 C   0  0  0  0  0  0  0  0  0  0  0  0
  -23.5031  -28.1947   18.8059 C   0  0  0  0  0  0  0  0  0  0  0  0
  -21.3151   -4.8939   24.3859 C   0  0  0  0  0  0  0  0  0  0  0  0
  -23.9668  -10.4608   21.1268 C   0  0  0  0  0  0  0  0  0  0  0  0
  -26.2754  -11.3089   20.4493 C   0  0  0  0  0  0  0  0  0  0  0  0
  -22.0384  -34.4161   25.3064 C   0  0  0  0  0  0  0  0  0  0  0  0
  -23.7131  -28.5759   21.1871 C   0  0  0  0  0  0  0  0  0  0  0  0
  -21.7773  -33.4022   24.3651 C   0  0  0  0  0  0  0  0  0  0  0  0
  -24.0879  -28.8925   19.8736 C   0  0  0  0  0  0  0  0  0  0  0  0
  -22.0598   -8.4754   21.5788 C   0  0  0  0  0  0  0  0  0  0  0  0
  -22.5681  -27.1872   19.0419 C   0  0  0  0  0  0  0  0  0  0  0  0
  -21.5297   -6.3748   22.4891 C   0  0  0  0  0  0  0  0  0  0  0  0
  -22.3372   -4.0930   23.8762 C   0  0  0  0  0  0  0  0  0  0  0  0
  -20.9114   -6.0348   23.6923 C   0  0  0  0  0  0  0  0  0  0  0  0
  -24.9512  -11.4866   20.8929 C   0  0  0  0  0  0  0  0  0  0  0  0
  -26.7905  -12.5806   20.3876 C   0  0  0  0  0  0  0  0  0  0  0  0
  -26.9770  -10.1020   20.1223 C   0  0  0  0  0  0  0  0  0  0  0  0
  -23.8148  -31.6933   21.7996 C   0  0  0  0  0  0  0  0  0  0  0  0
  -26.8449  -31.4196   20.6745 C   0  0  0  0  0  0  0  0  0  0  0  0
  -29.0748  -29.7019   18.7448 C   0  0  0  0  0  0  0  0  0  0  0  0
  -24.2741  -17.9700   19.6998 C   0  0  0  0  0  0  0  0  0  0  0  0
  -22.9374  -35.5839   24.9857 C   0  0  0  0  0  0  0  0  0  0  0  0
  -24.3416  -29.2905   22.3519 C   0  0  0  0  0  0  0  0  0  0  0  0
  -25.0975  -29.9695   19.5748 C   0  0  0  0  0  0  0  0  0  0  0  0
  -23.8444  -35.3417   23.7819 C   0  0  0  0  0  0  0  0  0  0  0  0
  -26.3453  -16.9022   22.3917 C   0  0  0  0  0  0  0  0  0  0  0  0
  -23.0486  -34.7450   22.6254 C   0  0  0  0  0  0  0  0  0  0  0  0
  -23.1390  -19.8105   15.0186 C   0  0  0  0  0  0  0  0  0  0  0  0
  -24.8559  -21.0895   16.3578 C   0  0  0  0  0  0  0  0  0  0  0  0
  -22.8784  -21.0518   14.1673 C   0  0  0  0  0  0  0  0  0  0  0  0
  -24.5955  -22.3307   15.5061 C   0  0  0  0  0  0  0  0  0  0  0  0
  -26.3424  -15.3771   22.2728 C   0  0  0  0  0  0  0  0  0  0  0  0
  -24.9887  -17.4995   22.0245 C   0  0  0  0  0  0  0  0  0  0  0  0
  -24.4664  -15.5673   20.5866 C   0  0  0  0  0  0  0  0  0  0  0  0
  -22.4511  -33.3862   23.0101 C   0  0  1  0  0  0  0  0  0  0  0  0
  -24.8939  -30.6639   21.9829 C   0  0  1  0  0  0  0  0  0  0  0  0
  -24.5658  -19.7985   15.5820 C   0  0  0  0  0  0  0  0  0  0  0  0
  -23.1686  -22.3427   14.9434 C   0  0  0  0  0  0  0  0  0  0  0  0
  -25.8293  -14.9233   20.8929 C   0  0  2  0  0  0  0  0  0  0  0  0
  -31.4682  -29.7413   17.9917 C   0  0  0  0  0  0  0  0  0  0  0  0
  -25.1179  -17.3550   15.6091 C   0  0  0  0  0  0  0  0  0  0  0  0
  -23.9294  -23.4920   12.8693 C   0  0  0  0  0  0  0  0  0  0  0  0
  -21.5138  -23.5414   13.5046 C   0  0  0  0  0  0  0  0  0  0  0  0
  -26.1932  -33.6784   18.7295 C   0  0  0  0  0  0  0  0  0  0  0  0
  -28.2221  -33.0348   17.4113 C   0  0  0  0  0  0  0  0  0  0  0  0
  -28.4643  -33.8181   19.7672 C   0  0  0  0  0  0  0  0  0  0  0  0
  -29.6312  -27.0757   19.9907 C   0  0  0  0  0  0  0  0  0  0  0  0
  -22.4006  -25.0940   16.1025 C   0  0  0  0  0  0  0  0  0  0  0  0
  -23.2292  -24.8812   14.8325 C   0  0  0  0  0  0  0  0  0  0  0  0
  -23.5589  -18.2803   17.3436 C   0  0  0  0  0  0  0  0  0  0  0  0
  -22.8016  -26.3791   16.8174 C   0  0  0  0  0  0  0  0  0  1  0  0
  -27.4947  -31.5271   19.3162 C   0  0  1  0  0  0  0  0  0  0  0  0
  -30.4850  -29.2155   19.0260 C   0  0  2  0  0  0  0  0  0  0  0  0
  -24.7847  -18.5752   16.4701 C   0  0  2  0  0  0  0  0  0  0  0  0
  -22.9488  -23.5667   14.0563 C   0  0  0  0  0  0  0  0  0  0  0  0
  -27.5731  -32.9956   18.8112 C   0  0  0  0  0  0  0  0  0  0  0  0
  -24.6442  -12.7702   21.0985 N   0  0  0  0  0  0  0  0  0  0  0  0
  -25.7829  -13.4105   20.7828 N   0  0  0  0  0  0  0  0  0  0  0  0
  -25.6792  -30.6439   20.7472 N   0  0  0  0  0  0  0  0  0  0  0  0
  -24.5602  -17.0309   20.7044 N   0  0  0  0  0  0  0  0  0  0  0  0
  -28.0025  -13.0588   20.0343 N   0  0  0  0  0  0  0  0  0  0  0  0
  -26.2984   -8.8815   20.2411 N   0  0  0  0  0  0  0  0  0  0  0  0
  -23.4660  -32.3556   22.9611 N   0  0  0  0  0  0  0  0  0  0  0  0
  -28.7894  -30.8643   19.4294 N   0  0  0  0  0  0  0  0  0  0  0  0
  -23.8809  -17.4413   18.4764 N   0  0  0  0  0  0  0  0  0  0  0  0
  -30.5330  -27.7262   19.0055 N   0  3  0  0  0  0  0  0  0  0  0  0
  -28.1755  -10.1046   19.7518 O   0  0  0  0  0  0  0  0  0  0  0  0
  -23.3352  -31.8743   20.6866 O   0  0  0  0  0  0  0  0  0  0  0  0
  -27.3568  -31.9966   21.6372 O   0  0  0  0  0  0  0  0  0  0  0  0
  -28.3047  -29.1119   17.9902 O   0  0  0  0  0  0  0  0  0  0  0  0
  -24.3677  -19.1892   19.8781 O   0  0  0  0  0  0  0  0  0  0  0  0
  -21.1294   -7.5067   21.7989 O   0  0  0  0  0  0  0  0  0  0  0  0
  -22.0102  -26.5176   17.9968 O   0  0  0  0  0  0  0  0  0  1  0  0
  -22.7240   -2.9966   24.5413 F   0  0  0  0  0  0  0  0  0  0  0  0
  -19.9282   -6.7996   24.1863 F   0  0  0  0  0  0  0  0  0  0  0  0
  1  2  1  0  0  0  0
  1  5  2  0  0  0  0
  2  6  2  0  0  0  0
  3  8  2  0  0  0  0
  3 15  1  0  0  0  0
  4  9  1  0  0  0  0
  4 15  2  0  0  0  0
  5 17  1  0  0  0  0
  6 19  1  0  0  0  0
  7 10  2  0  0  0  0
  7 18  1  0  0  0  0
  8 21  1  0  0  0  0
  9 21  2  0  0  0  0
 10 22  1  0  0  0  0
 11 12  2  0  0  0  0
 11 23  1  0  0  0  0
 12 24  1  0  0  0  0
 13 20  1  0  0  0  0
 13 22  2  0  0  0  0
 14 24  2  0  0  0  0
 14 25  1  0  0  0  0
 15 26  1  0  0  0  0
 16 26  1  0  0  0  0
 16 27  2  0  0  0  0
 16 28  1  0  0  0  0
 17 19  2  0  0  0  0
 17 33  1  0  0  0  0
 18 20  2  0  0  0  0
 18 34  1  0  0  0  0
 19 46  1  0  0  0  0
 20 35  1  0  0  0  0
 21 83  1  0  0  0  0
 22 84  1  0  0  0  0
 23 25  2  0  0  0  0
 23 83  1  0  0  0  0
 24 85  1  0  0  0  0
 25 86  1  0  0  0  0
 26 68  2  0  0  0  0
 27 69  1  0  0  0  0
 27 72  1  0  0  0  0
 28 73  1  0  0  0  0
 28 78  2  0  0  0  0
 29 47  1  0  0  0  0
 29 74  1  0  0  0  0
 29 79  2  0  0  0  0
 30 63  1  0  0  0  0
 30 70  1  0  0  0  0
 30 80  2  0  0  0  0
 31 64  1  0  0  0  0
 31 75  1  0  0  0  0
 31 81  2  0  0  0  0
 32 71  1  0  0  0  0
 32 76  1  0  0  0  0
 32 82  2  0  0  0  0
 33 36  1  0  0  0  0
 34 47  1  0  0  0  0
 35 70  1  0  0  0  0
 36 38  1  0  0  0  0
 37 43  1  0  0  0  0
 37 44  1  0  0  0  0
 38 46  1  0  0  0  0
 39 41  1  0  0  0  0
 39 48  1  0  0  0  0
 40 42  1  0  0  0  0
 40 48  1  0  0  0  0
 41 49  1  0  0  0  0
 42 49  1  0  0  0  0
 43 50  1  0  0  0  0
 44 71  1  0  0  0  0
 45 50  1  0  0  0  0
 45 71  1  0  0  0  0
 46 74  1  0  0  0  0
 47 70  1  0  0  0  0
 48 65  1  0  0  0  0
 49 66  1  0  0  0  0
 50 69  1  0  0  0  0
 51 64  1  0  0  0  0
 52 65  1  0  0  0  0
 53 66  1  0  0  0  0
 54 66  1  0  0  0  0
 55 67  1  0  0  0  0
 56 67  1  0  0  0  0
 57 67  1  0  0  0  0
 58 77  1  0  0  0  0
 59 60  1  0  0  0  0
 59 62  1  0  0  0  0
 60 66  1  0  0  0  0
 61 65  1  0  0  0  0
 61 76  1  0  0  0  0
 62 84  1  0  0  0  0
 63 67  1  0  0  0  0
 63 75  1  0  0  0  0
 64 77  1  0  0  0  0
 68 69  1  0  0  0  0
M  CHG  1  77   1
M  ISO  4  32 100  62 101  76 100  84 101
M  END
> <Batch ID>
0123

> <Smiles>
CNC(C)C(=O)NC(C(=O)N1Cc2cc([101O:1][101CH2:1]CCC(C)(C)C3CCC(C(C)C[100NH:0][100C:0](=O)N4CCCC(n5nc(-c6ccc(Oc7ccc(F)cc7F)cc6)c(C(N)=O)c5N)C4)CC3)ccc2CC1C(=O)NC1CCCc2ccccc21)C(C)(C)C

> <Shape>
0.193

> <Color>
0.071

> <Negative vol penalty>
0.000

$$$$

  -OEChem-04052320303D

 88 97  0     1  0  0  0  0  0999 V2000
  -28.7517  -33.6907   24.5342 C   0  0  0  0  0  0  0  0  0  0  0  0
  -28.7616  -32.3976   24.0212 C   0  0  0  0  0  0  0  0  0  0  0  0
  -23.1508  -10.2595   21.9065 C   0  0  0  0  0  0  0  0  0  0  0  0
  -24.7714  -10.5930   23.6670 C   0  0  0  0  0  0  0  0  0  0  0  0
  -27.5887  -34.2031   25.1077 C   0  0  0  0  0  0  0  0  0  0  0  0
  -27.6086  -31.6156   24.0825 C   0  0  0  0  0  0  0  0  0  0  0  0
  -26.6726  -29.1911   19.7362 C   0  0  0  0  0  0  0  0  0  0  0  0
  -22.5991   -9.1931   22.6163 C   0  0  0  0  0  0  0  0  0  0  0  0
  -24.2197   -9.5265   24.3769 C   0  0  0  0  0  0  0  0  0  0  0  0
  -27.4250  -28.0480   19.4699 C   0  0  0  0  0  0  0  0  0  0  0  0
  -23.3198   -5.9396   23.1820 C   0  0  0  0  0  0  0  0  0  0  0  0
  -23.0268   -4.7737   22.4746 C   0  0  0  0  0  0  0  0  0  0  0  0
  -25.5843  -26.6726   20.2043 C   0  0  0  0  0  0  0  0  0  0  0  0
  -20.6999   -4.9853   23.0898 C   0  0  0  0  0  0  0  0  0  0  0  0
  -24.2370  -10.9595   22.4318 C   0  0  0  0  0  0  0  0  0  0  0  0
  -24.1586  -13.2454   21.3023 C   0  0  0  0  0  0  0  0  0  0  0  0
  -26.4182  -33.4305   25.1673 C   0  0  0  0  0  0  0  0  0  0  0  0
  -25.3721  -29.0836   20.2496 C   0  0  0  0  0  0  0  0  0  0  0  0
  -26.4293  -32.1177   24.6585 C   0  0  0  0  0  0  0  0  0  0  0  0
  -24.8165  -27.8158   20.4738 C   0  0  0  0  0  0  0  0  0  0  0  0
  -23.1335   -8.8266   23.8515 C   0  0  0  0  0  0  0  0  0  0  0  0
  -26.8820  -26.7885   19.7067 C   0  0  0  0  0  0  0  0  0  0  0  0
  -22.3029   -6.6283   23.8434 C   0  0  0  0  0  0  0  0  0  0  0  0
  -21.7169   -4.2965   22.4285 C   0  0  0  0  0  0  0  0  0  0  0  0
  -20.9930   -6.1512   23.7972 C   0  0  0  0  0  0  0  0  0  0  0  0
  -24.8077  -12.0609   21.6988 C   0  0  0  0  0  0  0  0  0  0  0  0
  -25.1257  -13.9620   20.6407 C   0  0  0  0  0  0  0  0  0  0  0  0
  -22.8027  -13.6610   21.5133 C   0  0  0  0  0  0  0  0  0  0  0  0
  -23.9337  -30.0133   22.9274 C   0  0  0  0  0  0  0  0  0  0  0  0
  -21.2783  -28.9174   21.4207 C   0  0  0  0  0  0  0  0  0  0  0  0
  -20.3919  -26.0777   19.3792 C   0  0  0  0  0  0  0  0  0  0  0  0
  -31.1064  -13.9712   20.9282 C   0  0  0  0  0  0  0  0  0  0  0  0
  -25.1989  -34.0106   25.8392 C   0  0  0  0  0  0  0  0  0  0  0  0
  -24.5637  -30.3258   20.5063 C   0  0  0  0  0  0  0  0  0  0  0  0
  -23.4175  -27.6458   21.0052 C   0  0  0  0  0  0  0  0  0  0  0  0
  -23.9122  -33.2507   25.5274 C   0  0  0  0  0  0  0  0  0  0  0  0
  -29.1025  -13.3761   18.0460 C   0  0  0  0  0  0  0  0  0  0  0  0
  -24.1311  -31.7481   25.6721 C   0  0  0  0  0  0  0  0  0  0  0  0
  -31.7035  -23.1652   20.6298 C   0  0  0  0  0  0  0  0  0  0  0  0
  -29.5286  -22.6295   21.7958 C   0  0  0  0  0  0  0  0  0  0  0  0
  -30.3020  -17.0734   23.2803 C   0  0  0  0  0  0  0  0  0  0  0  0
  -32.7926  -17.3808   23.5627 C   0  0  0  0  0  0  0  0  0  0  0  0
  -31.1204  -24.4942   20.1529 C   0  0  0  0  0  0  0  0  0  0  0  0
  -28.9456  -23.9585   21.3189 C   0  0  0  0  0  0  0  0  0  0  0  0
  -30.1300  -18.5859   23.1520 C   0  0  0  0  0  0  0  0  0  0  0  0
  -32.6205  -18.8932   23.4340 C   0  0  0  0  0  0  0  0  0  0  0  0
  -27.7160  -13.0784   18.6196 C   0  0  0  0  0  0  0  0  0  0  0  0
  -30.2122  -12.8115   18.9303 C   0  0  0  0  0  0  0  0  0  0  0  0
  -28.7604  -12.9259   20.9184 C   0  0  0  0  0  0  0  0  0  0  0  0
  -25.1915  -31.2474   24.6840 C   0  0  1  0  0  0  0  0  0  0  0  0
  -23.4376  -30.1085   21.5123 C   0  0  1  0  0  0  0  0  0  0  0  0
  -31.0543  -22.6986   21.9388 C   0  0  0  0  0  0  0  0  0  0  0  0
  -31.6912  -16.6191   22.8146 C   0  0  0  0  0  0  0  0  0  0  0  0
  -29.5948  -24.4250   20.0098 C   0  0  0  0  0  0  0  0  0  0  0  0
  -31.2315  -19.3473   23.9003 C   0  0  0  0  0  0  0  0  0  0  0  0
  -27.6102  -13.5240   20.0904 C   0  0  2  0  0  0  0  0  0  0  0  0
  -18.6175  -25.8210   17.6233 C   0  0  0  0  0  0  0  0  0  0  0  0
  -31.7657  -21.5952   24.8581 C   0  0  0  0  0  0  0  0  0  0  0  0
  -19.5769  -27.8355   23.7108 C   0  0  0  0  0  0  0  0  0  0  0  0
  -18.6247  -26.1556   22.1172 C   0  0  0  0  0  0  0  0  0  0  0  0
  -18.2771  -28.5924   21.7127 C   0  0  0  0  0  0  0  0  0  0  0  0
  -22.3604  -25.1932   17.3539 C   0  0  0  0  0  0  0  0  0  0  0  0
  -31.6178  -21.3452   22.3680 C   0  0  0  0  0  0  0  0  0  0  0  0
  -31.8564  -15.1121   23.0007 C   0  0  0  0  0  0  0  0  0  0  0  0
  -29.0313  -25.7784   19.5805 C   0  0  0  0  0  0  0  0  0  1  0  0
  -20.5671  -27.5883   21.3392 C   0  0  1  0  0  0  0  0  0  0  0  0
  -20.0907  -26.0867   17.8913 C   0  0  2  0  0  0  0  0  0  0  0  0
  -31.0665  -20.8546   23.7157 C   0  0  1  0  0  0  0  0  0  0  0  0
  -19.2895  -27.5446   22.2243 C   0  0  0  0  0  0  0  0  0  0  0  0
  -26.0881  -12.0231   21.3205 N   0  0  0  0  0  0  0  0  0  0  0  0
  -26.2514  -13.1928   20.6793 N   0  0  0  0  0  0  0  0  0  0  0  0
  -22.6693  -28.8906   21.2464 N   0  0  0  0  0  0  0  0  0  0  0  0
  -30.0549  -13.2732   20.3116 N   0  0  0  0  0  0  0  0  0  0  0  0
  -25.1145  -15.1686   20.0354 N   0  0  0  0  0  0  0  0  0  0  0  0
  -22.4997  -14.3896   22.6716 N   0  0  0  0  0  0  0  0  0  0  0  0
  -24.6287  -31.1281   23.3561 N   0  0  0  0  0  0  0  0  0  0  0  0
  -20.3211  -27.3431   19.9223 N   0  0  0  0  0  0  0  0  0  0  0  0
  -30.8725  -14.3786   22.2359 N   0  0  0  0  0  0  0  0  0  0  0  0
  -20.8913  -25.0406   17.1944 N   0  3  0  0  0  0  0  0  0  0  0  0
  -21.8838  -13.3799   20.7069 O   0  0  0  0  0  0  0  0  0  0  0  0
  -23.7019  -29.0039   23.5823 O   0  0  0  0  0  0  0  0  0  0  0  0
  -20.6230  -29.9424   21.6241 O   0  0  0  0  0  0  0  0  0  0  0  0
  -20.6593  -25.0503   19.9984 O   0  0  0  0  0  0  0  0  0  0  0  0
  -32.1724  -14.2180   20.3540 O   0  0  0  0  0  0  0  0  0  0  0  0
  -22.5953   -7.7861   24.5446 O   0  0  0  0  0  0  0  0  0  0  0  0
  -27.6145  -25.6712   19.4483 O   0  0  0  0  0  0  0  0  0  1  0  0
  -21.4354   -3.1778   21.7479 F   0  0  0  0  0  0  0  0  0  0  0  0
  -20.0117   -6.8092   24.4296 F   0  0  0  0  0  0  0  0  0  0  0  0
  1  2  1  0  0  0  0
  1  5  2  0  0  0  0
  2  6  2  0  0  0  0
  3  8  2  0  0  0  0
  3 15  1  0  0  0  0
  4  9  1  0  0  0  0
  4 15  2  0  0  0  0
  5 17  1  0  0  0  0
  6 19  1  0  0  0  0
  7 10  2  0  0  0  0
  7 18  1  0  0  0  0
  8 21  1  0  0  0  0
  9 21  2  0  0  0  0
 10 22  1  0  0  0  0
 11 12  2  0  0  0  0
 11 23  1  0  0  0  0
 12 24  1  0  0  0  0
 13 20  1  0  0  0  0
 13 22  2  0  0  0  0
 14 24  2  0  0  0  0
 14 25  1  0  0  0  0
 15 26  1  0  0  0  0
 16 26  1  0  0  0  0
 16 27  2  0  0  0  0
 16 28  1  0  0  0  0
 17 19  2  0  0  0  0
 17 33  1  0  0  0  0
 18 20  2  0  0  0  0
 18 34  1  0  0  0  0
 19 50  1  0  0  0  0
 20 35  1  0  0  0  0
 21 85  1  0  0  0  0
 22 86  1  0  0  0  0
 23 25  2  0  0  0  0
 23 85  1  0  0  0  0
 24 87  1  0  0  0  0
 25 88  1  0  0  0  0
 26 70  2  0  0  0  0
 27 71  1  0  0  0  0
 27 74  1  0  0  0  0
 28 75  1  0  0  0  0
 28 80  2  0  0  0  0
 29 51  1  0  0  0  0
 29 76  1  0  0  0  0
 29 81  2  0  0  0  0
 30 66  1  0  0  0  0
 30 72  1  0  0  0  0
 30 82  2  0  0  0  0
 31 67  1  0  0  0  0
 31 77  1  0  0  0  0
 31 83  2  0  0  0  0
 32 73  1  0  0  0  0
 32 78  1  0  0  0  0
 32 84  2  0  0  0  0
 33 36  1  0  0  0  0
 34 51  1  0  0  0  0
 35 72  1  0  0  0  0
 36 38  1  0  0  0  0
 37 47  1  0  0  0  0
 37 48  1  0  0  0  0
 38 50  1  0  0  0  0
 39 43  1  0  0  0  0
 39 52  1  0  0  0  0
 40 44  1  0  0  0  0
 40 52  1  0  0  0  0
 41 45  1  0  0  0  0
 41 53  1  0  0  0  0
 42 46  1  0  0  0  0
 42 53  1  0  0  0  0
 43 54  1  0  0  0  0
 44 54  1  0  0  0  0
 45 55  1  0  0  0  0
 46 55  1  0  0  0  0
 47 56  1  0  0  0  0
 48 73  1  0  0  0  0
 49 56  1  0  0  0  0
 49 73  1  0  0  0  0
 50 76  1  0  0  0  0
 51 72  1  0  0  0  0
 52 63  1  0  0  0  0
 53 64  1  0  0  0  0
 54 65  1  0  0  0  0
 55 68  1  0  0  0  0
 56 71  1  0  0  0  0
 57 67  1  0  0  0  0
 58 68  1  0  0  0  0
 59 69  1  0  0  0  0
 60 69  1  0  0  0  0
 61 69  1  0  0  0  0
 62 79  1  0  0  0  0
 63 68  1  0  0  0  0
 64 78  1  0  0  0  0
 65 86  1  0  0  0  0
 66 69  1  0  0  0  0
 66 77  1  0  0  0  0
 67 79  1  0  0  0  0
 70 71  1  0  0  0  0
M  CHG  1  79   1
M  ISO  4  32 100  65 101  78 100  86 101
M  END
> <Batch ID>
0123

> <Smiles>
CNC(C)C(=O)NC(C(=O)N1Cc2cc([101O:1][101CH2:1]C3CCC(CC(C)C4CCC(C[100NH:0][100C:0](=O)N5CCCC(n6nc(-c7ccc(Oc8ccc(F)cc8F)cc7)c(C(N)=O)c6N)C5)CC4)CC3)ccc2CC1C(=O)NC1CCCc2ccccc21)C(C)(C)C

> <Shape>
0.344

> <Color>
0.147

> <Negative vol penalty>
0.000

$$$$

  -OEChem-04052320303D

 89 98  0     1  0  0  0  0  0999 V2000
  -17.2110  -30.3293   18.2169 C   0  0  0  0  0  0  0  0  0  0  0  0
  -18.4093  -29.7523   17.8087 C   0  0  0  0  0  0  0  0  0  0  0  0
  -24.6084  -13.5452   18.3747 C   0  0  0  0  0  0  0  0  0  0  0  0
  -25.5635  -14.7968   20.2073 C   0  0  0  0  0  0  0  0  0  0  0  0
  -17.2248  -31.4986   18.9761 C   0  0  0  0  0  0  0  0  0  0  0  0
  -19.6220  -30.3450   18.1585 C   0  0  0  0  0  0  0  0  0  0  0  0
  -24.8783  -27.4837   19.4586 C   0  0  0  0  0  0  0  0  0  0  0  0
  -27.6651  -23.6660   21.9083 C   0  0  0  0  0  0  0  0  0  0  0  0
  -24.7790  -12.3622   19.0936 C   0  0  0  0  0  0  0  0  0  0  0  0
  -25.7341  -13.6137   20.9263 C   0  0  0  0  0  0  0  0  0  0  0  0
  -26.0163  -27.2207   18.6973 C   0  0  0  0  0  0  0  0  0  0  0  0
  -23.2198  -10.7304   21.6113 C   0  0  0  0  0  0  0  0  0  0  0  0
  -22.1580   -9.8261   21.6329 C   0  0  0  0  0  0  0  0  0  0  0  0
  -27.5428  -22.5812   21.0472 C   0  0  0  0  0  0  0  0  0  0  0  0
  -27.0732  -29.1885   19.6084 C   0  0  0  0  0  0  0  0  0  0  0  0
  -23.5667   -8.1479   20.6149 C   0  0  0  0  0  0  0  0  0  0  0  0
  -25.0006  -14.7625   18.9315 C   0  0  0  0  0  0  0  0  0  0  0  0
  -23.6151  -16.5237   17.7124 C   0  0  0  0  0  0  0  0  0  0  0  0
  -18.4385  -32.1007   19.3436 C   0  0  0  0  0  0  0  0  0  0  0  0
  -24.8250  -28.6090   20.2936 C   0  0  0  0  0  0  0  0  0  0  0  0
  -19.6520  -31.5242   18.9221 C   0  0  0  0  0  0  0  0  0  0  0  0
  -25.9343  -29.4621   20.3812 C   0  0  0  0  0  0  0  0  0  0  0  0
  -28.4317  -24.7629   21.5312 C   0  0  0  0  0  0  0  0  0  0  0  0
  -25.3419  -12.3964   20.3694 C   0  0  0  0  0  0  0  0  0  0  0  0
  -27.1129  -28.0747   18.7699 C   0  0  0  0  0  0  0  0  0  0  0  0
  -24.4550  -10.3435   21.0914 C   0  0  0  0  0  0  0  0  0  0  0  0
  -22.3315   -8.5348   21.1347 C   0  0  0  0  0  0  0  0  0  0  0  0
  -24.6284   -9.0523   20.5932 C   0  0  0  0  0  0  0  0  0  0  0  0
  -24.8251  -15.9849   18.1891 C   0  0  0  0  0  0  0  0  0  0  0  0
  -29.0509  -24.7263   20.2922 C   0  0  0  0  0  0  0  0  0  0  0  0
  -28.2017  -22.6422   19.8298 C   0  0  0  0  0  0  0  0  0  0  0  0
  -23.9827  -17.6850   17.0778 C   0  0  0  0  0  0  0  0  0  0  0  0
  -22.2782  -16.0196   17.8326 C   0  0  0  0  0  0  0  0  0  0  0  0
  -23.0093  -31.2143   20.4338 C   0  0  0  0  0  0  0  0  0  0  0  0
  -24.6626  -31.7454   23.1736 C   0  0  0  0  0  0  0  0  0  0  0  0
  -27.4895  -31.1950   25.0046 C   0  0  0  0  0  0  0  0  0  0  0  0
  -28.6404  -21.3766   17.6963 C   0  0  0  0  0  0  0  0  0  0  0  0
  -18.4020  -33.3901   20.1249 C   0  0  0  0  0  0  0  0  0  0  0  0
  -23.6002  -28.8640   21.1287 C   0  0  0  0  0  0  0  0  0  0  0  0
  -25.9352  -30.6724   21.2777 C   0  0  0  0  0  0  0  0  0  0  0  0
  -19.7377  -33.7490   20.7709 C   0  0  0  0  0  0  0  0  0  0  0  0
  -27.6560  -19.6688   14.7313 C   0  0  0  0  0  0  0  0  0  0  0  0
  -20.8769  -33.5797   19.7707 C   0  0  0  0  0  0  0  0  0  0  0  0
  -26.7034  -18.5832   15.2375 C   0  0  0  0  0  0  0  0  0  0  0  0
  -30.6339  -26.1257   25.0517 C   0  0  0  0  0  0  0  0  0  0  0  0
  -28.8125  -19.9057   15.7008 C   0  0  0  0  0  0  0  0  0  0  0  0
  -29.9035  -25.0276   24.2555 C   0  0  0  0  0  0  0  0  0  0  0  0
  -27.4615  -19.0929   17.5939 C   0  0  0  0  0  0  0  0  0  0  0  0
  -20.9884  -32.1237   19.3026 C   0  0  1  0  0  0  0  0  0  0  0  0
  -23.4608  -30.3220   21.5553 C   0  0  1  0  0  0  0  0  0  0  0  0
  -26.2450  -18.8645   16.6819 C   0  0  2  0  0  0  0  0  0  0  0  0
  -29.9377  -27.1019   24.0732 C   0  0  1  0  0  0  0  0  0  0  0  0
  -29.0346  -31.2668   26.9807 C   0  0  0  0  0  0  0  0  0  0  0  0
  -28.4804  -26.2568   16.2250 C   0  0  0  0  0  0  0  0  0  0  0  0
  -25.3538  -34.5063   22.0738 C   0  0  0  0  0  0  0  0  0  0  0  0
  -27.1555  -34.6680   23.8047 C   0  0  0  0  0  0  0  0  0  0  0  0
  -24.7697  -34.4682   24.5052 C   0  0  0  0  0  0  0  0  0  0  0  0
  -30.7073  -30.1859   21.9762 C   0  0  0  0  0  0  0  0  0  0  0  0
  -26.3409  -28.7147   26.1396 C   0  0  0  0  0  0  0  0  0  0  0  0
  -28.5681  -25.9277   22.4493 C   0  0  0  0  0  0  0  0  0  0  0  0
  -29.8955  -25.8873   19.8316 C   0  0  0  0  0  0  0  0  0  0  0  0
  -30.7798  -28.2505   23.5534 C   0  0  0  0  0  0  0  0  0  0  0  0
  -29.8878  -26.0934   18.3099 C   0  0  0  0  0  0  0  0  0  0  0  0
  -25.9469  -32.4560   23.5267 C   0  0  1  0  0  0  0  0  0  0  0  0
  -27.6879  -30.7943   26.4553 C   0  0  2  0  0  0  0  0  0  0  0  0
  -28.5123  -26.4539   17.7353 C   0  0  1  0  0  0  0  0  0  1  0  0
  -25.8060  -34.0030   23.4591 C   0  0  0  0  0  0  0  0  0  0  0  0
  -25.8824  -16.7416   17.8833 N   0  0  0  0  0  0  0  0  0  0  0  0
  -28.9553  -23.6905   19.4287 N   0  0  0  0  0  0  0  0  0  0  0  0
  -25.3379  -17.7677   17.2075 N   0  0  0  0  0  0  0  0  0  0  0  0
  -24.7120  -30.8825   22.0696 N   0  0  0  0  0  0  0  0  0  0  0  0
  -28.3023  -20.1699   17.0479 N   0  0  0  0  0  0  0  0  0  0  0  0
  -29.8700  -25.9686   23.1067 N   0  0  2  0  0  0  0  0  0  0  0  0
  -23.2758  -18.6331   16.4269 N   0  0  0  0  0  0  0  0  0  0  0  0
  -21.5161  -16.4055   18.9437 N   0  0  0  0  0  0  0  0  0  0  0  0
  -28.0707  -21.5317   18.9596 N   0  0  0  0  0  0  0  0  0  0  0  0
  -21.6365  -31.3160   20.3136 N   0  0  0  0  0  0  0  0  0  0  0  0
  -26.3477  -31.9491   24.8346 N   0  0  0  0  0  0  0  0  0  0  0  0
  -29.9734  -29.0528   22.6058 N   0  3  0  0  0  0  0  0  0  0  0  0
  -27.6218  -29.3123   26.5971 N   0  3  0  0  0  0  0  0  0  0  0  0
  -21.7802  -15.2367   16.9885 O   0  0  0  0  0  0  0  0  0  0  0  0
  -23.8447  -31.7705   19.7305 O   0  0  0  0  0  0  0  0  0  0  0  0
  -23.6547  -31.9429   23.8568 O   0  0  0  0  0  0  0  0  0  0  0  0
  -28.2713  -30.8744   24.1122 O   0  0  0  0  0  0  0  0  0  0  0  0
  -29.3589  -22.2230   17.1584 O   0  0  0  0  0  0  0  0  0  0  0  0
  -25.5083  -11.2423   21.0714 O   0  0  0  0  0  0  0  0  0  0  0  0
  -28.2247  -27.8207   18.0274 O   0  0  0  0  0  0  0  0  0  1  0  0
  -21.3122   -7.6660   21.1570 F   0  0  0  0  0  0  0  0  0  0  0  0
  -25.8131   -8.6744   20.0936 F   0  0  0  0  0  0  0  0  0  0  0  0
  1  2  1  0  0  0  0
  1  5  2  0  0  0  0
  2  6  2  0  0  0  0
  3  9  2  0  0  0  0
  3 17  1  0  0  0  0
  4 10  1  0  0  0  0
  4 17  2  0  0  0  0
  5 19  1  0  0  0  0
  6 21  1  0  0  0  0
  7 11  2  0  0  0  0
  7 20  1  0  0  0  0
  8 14  2  0  0  0  0
  8 23  1  0  0  0  0
  9 24  1  0  0  0  0
 10 24  2  0  0  0  0
 11 25  1  0  0  0  0
 12 13  2  0  0  0  0
 12 26  1  0  0  0  0
 13 27  1  0  0  0  0
 14 31  1  0  0  0  0
 15 22  1  0  0  0  0
 15 25  2  0  0  0  0
 16 27  2  0  0  0  0
 16 28  1  0  0  0  0
 17 29  1  0  0  0  0
 18 29  1  0  0  0  0
 18 32  2  0  0  0  0
 18 33  1  0  0  0  0
 19 21  2  0  0  0  0
 19 38  1  0  0  0  0
 20 22  2  0  0  0  0
 20 39  1  0  0  0  0
 21 49  1  0  0  0  0
 22 40  1  0  0  0  0
 23 30  2  0  0  0  0
 23 60  1  0  0  0  0
 24 86  1  0  0  0  0
 25 87  1  0  0  0  0
 26 28  2  0  0  0  0
 26 86  1  0  0  0  0
 27 88  1  0  0  0  0
 28 89  1  0  0  0  0
 29 68  2  0  0  0  0
 30 61  1  0  0  0  0
 30 69  1  0  0  0  0
 31 69  2  0  0  0  0
 31 76  1  0  0  0  0
 32 70  1  0  0  0  0
 32 74  1  0  0  0  0
 33 75  1  0  0  0  0
 33 81  2  0  0  0  0
 34 50  1  0  0  0  0
 34 77  1  0  0  0  0
 34 82  2  0  0  0  0
 35 64  1  0  0  0  0
 35 71  1  0  0  0  0
 35 83  2  0  0  0  0
 36 65  1  0  0  0  0
 36 78  1  0  0  0  0
 36 84  2  0  0  0  0
 37 72  1  0  0  0  0
 37 76  1  0  0  0  0
 37 85  2  0  0  0  0
 38 41  1  0  0  0  0
 39 50  1  0  0  0  0
 40 71  1  0  0  0  0
 41 43  1  0  0  0  0
 42 44  1  0  0  0  0
 42 46  1  0  0  0  0
 43 49  1  0  0  0  0
 44 51  1  0  0  0  0
 45 47  1  0  0  0  0
 45 52  1  0  0  0  0
 46 72  1  0  0  0  0
 47 73  1  0  0  0  0
 48 51  1  0  0  0  0
 48 72  1  0  0  0  0
 49 77  1  0  0  0  0
 50 71  1  0  0  0  0
 51 70  1  0  0  0  0
 52 62  1  0  0  0  0
 52 73  1  0  0  0  0
 53 65  1  0  0  0  0
 54 66  1  0  0  0  0
 55 67  1  0  0  0  0
 56 67  1  0  0  0  0
 57 67  1  0  0  0  0
 58 79  1  0  0  0  0
 59 80  1  0  0  0  0
 60 73  1  0  0  0  0
 61 63  1  0  0  0  0
 62 79  1  0  0  0  0
 63 66  1  0  0  0  0
 64 67  1  0  0  0  0
 64 78  1  0  0  0  0
 65 80  1  0  0  0  0
 66 87  1  0  0  0  0
 68 70  1  0  0  0  0
M  CHG  2  79   1  80   1
M  ISO  4  37 100  66 101  76 100  87 101
M  END
> <Batch ID>
0123

> <Smiles>
CNCC1CCN1Cc1ccc([100NH:0][100C:0](=O)N2CCCC(n3nc(-c4ccc(Oc5ccc(F)cc5F)cc4)c(C(N)=O)c3N)C2)nc1CC[101CH:1](C)[101O:1]c1ccc2c(c1)CN(C(=O)C(NC(=O)C(C)NC)C(C)(C)C)C(C(=O)NC1CCCc3ccccc31)C2

> <Shape>
0.225

> <Color>
0.085

> <Negative vol penalty>
0.000

$$$$

  -OEChem-04052320303D

 89 97  0     1  0  0  0  0  0999 V2000
  -29.6819  -11.9679   18.9988 C   0  0  0  0  0  0  0  0  0  0  0  0
  -29.7650  -13.3541   19.0824 C   0  0  0  0  0  0  0  0  0  0  0  0
  -28.9352  -25.6093   19.1172 C   0  0  0  0  0  0  0  0  0  0  0  0
  -27.0632  -24.4349   20.0938 C   0  0  0  0  0  0  0  0  0  0  0  0
  -28.5384  -11.3107   19.4508 C   0  0  0  0  0  0  0  0  0  0  0  0
  -28.7041  -14.0840   19.6173 C   0  0  0  0  0  0  0  0  0  0  0  0
  -27.3554  -20.0073   23.4136 C   0  0  0  0  0  0  0  0  0  0  0  0
  -29.6753  -24.4271   19.1141 C   0  0  0  0  0  0  0  0  0  0  0  0
  -27.8034  -23.2526   20.0907 C   0  0  0  0  0  0  0  0  0  0  0  0
  -26.5770  -21.1630   23.3662 C   0  0  0  0  0  0  0  0  0  0  0  0
  -28.6989  -20.8825   17.8544 C   0  0  0  0  0  0  0  0  0  0  0  0
  -28.0647  -19.7239   17.4060 C   0  0  0  0  0  0  0  0  0  0  0  0
  -24.6839  -19.9143   24.1886 C   0  0  0  0  0  0  0  0  0  0  0  0
  -21.2678  -25.6278   22.2300 C   0  0  0  0  0  0  0  0  0  0  0  0
  -28.4378  -18.6875   19.5562 C   0  0  0  0  0  0  0  0  0  0  0  0
  -20.3628  -26.8155   24.5139 C   0  0  0  0  0  0  0  0  0  0  0  0
  -27.6291  -25.6133   19.6071 C   0  0  0  0  0  0  0  0  0  0  0  0
  -26.0272  -27.3166   18.5871 C   0  0  0  0  0  0  0  0  0  0  0  0
  -27.4669  -12.0321   20.0004 C   0  0  0  0  0  0  0  0  0  0  0  0
  -26.8000  -18.7920   23.8391 C   0  0  0  0  0  0  0  0  0  0  0  0
  -27.5446  -13.4359   20.0759 C   0  0  0  0  0  0  0  0  0  0  0  0
  -25.4581  -18.7452   24.2429 C   0  0  0  0  0  0  0  0  0  0  0  0
  -20.1345  -26.4316   22.1779 C   0  0  0  0  0  0  0  0  0  0  0  0
  -19.6668  -27.0404   23.3372 C   0  0  0  0  0  0  0  0  0  0  0  0
  -29.1094  -23.2487   19.6008 C   0  0  0  0  0  0  0  0  0  0  0  0
  -25.2403  -21.1160   23.7510 C   0  0  0  0  0  0  0  0  0  0  0  0
  -29.2026  -20.9436   19.1537 C   0  0  0  0  0  0  0  0  0  0  0  0
  -27.9341  -18.6264   18.2569 C   0  0  0  0  0  0  0  0  0  0  0  0
  -29.0720  -19.8461   20.0046 C   0  0  0  0  0  0  0  0  0  0  0  0
  -26.8643  -26.8344   19.6111 C   0  0  0  0  0  0  0  0  0  0  0  0
  -21.8923  -25.4663   23.4563 C   0  0  0  0  0  0  0  0  0  0  0  0
  -25.5363  -28.5030   19.0749 C   0  0  0  0  0  0  0  0  0  0  0  0
  -25.7208  -26.7433   17.3092 C   0  0  0  0  0  0  0  0  0  0  0  0
  -26.3313  -15.9484   22.4984 C   0  0  0  0  0  0  0  0  0  0  0  0
  -25.3764  -15.1300   25.4885 C   0  0  0  0  0  0  0  0  0  0  0  0
  -24.1447  -16.1269   28.5110 C   0  0  0  0  0  0  0  0  0  0  0  0
  -23.3446  -31.5244   23.2238 C   0  0  0  0  0  0  0  0  0  0  0  0
  -26.2320  -11.2816   20.4323 C   0  0  0  0  0  0  0  0  0  0  0  0
  -27.6602  -17.5601   23.9099 C   0  0  0  0  0  0  0  0  0  0  0  0
  -24.8195  -17.4699   24.7268 C   0  0  0  0  0  0  0  0  0  0  0  0
  -25.3060  -12.0979   21.3303 C   0  0  0  0  0  0  0  0  0  0  0  0
  -26.8896  -31.2070   23.1300 C   0  0  0  0  0  0  0  0  0  0  0  0
  -25.0986  -13.4949   20.7539 C   0  0  0  0  0  0  0  0  0  0  0  0
  -27.1293  -30.0772   22.1269 C   0  0  0  0  0  0  0  0  0  0  0  0
  -25.6384  -30.9600   23.9698 C   0  0  0  0  0  0  0  0  0  0  0  0
  -24.6518  -29.5704   22.1895 C   0  0  0  0  0  0  0  0  0  0  0  0
  -26.4248  -14.2606   20.6726 C   0  0  1  0  0  0  0  0  0  0  0  0
  -26.8541  -16.2655   23.8709 C   0  0  1  0  0  0  0  0  0  0  0  0
  -25.8715  -29.8021   21.2811 C   0  0  2  0  0  0  0  0  0  0  0  0
  -23.4324  -15.2257   30.7422 C   0  0  0  0  0  0  0  0  0  0  0  0
  -22.7833  -14.1094   24.2458 C   0  0  0  0  0  0  0  0  0  0  0  0
  -21.7663  -14.1152   26.5336 C   0  0  0  0  0  0  0  0  0  0  0  0
  -23.7239  -12.6484   26.0445 C   0  0  0  0  0  0  0  0  0  0  0  0
  -17.2082  -23.5156   20.6821 C   0  0  0  0  0  0  0  0  0  0  0  0
  -26.2020  -17.7068   29.9359 C   0  0  0  0  0  0  0  0  0  0  0  0
  -19.4381  -26.6267   20.8719 C   0  0  0  0  0  0  0  0  0  0  0  0
  -18.4583  -27.9107   23.3380 C   0  0  0  0  0  0  0  0  0  0  0  0
  -21.0617  -31.9750   22.3610 C   0  0  0  0  0  0  0  0  0  0  0  0
  -23.5667  -23.9966   22.3330 C   0  0  0  0  0  0  0  0  0  0  0  0
  -18.1391  -25.8329   20.7314 C   0  0  0  0  0  0  0  0  0  0  0  0
  -18.7147  -29.3421   23.8146 C   0  0  0  0  0  0  0  0  0  0  0  0
  -20.0357  -31.4039   23.3220 C   0  0  0  0  0  0  0  0  0  0  0  0
  -24.8116  -23.2124   22.7130 C   0  0  0  0  0  0  0  0  0  1  0  0
  -24.0636  -15.1466   26.2336 C   0  0  1  0  0  0  0  0  0  0  0  0
  -24.5789  -15.8083   29.9304 C   0  0  2  0  0  0  0  0  0  0  0  0
  -23.0955  -14.0286   25.7535 C   0  0  0  0  0  0  0  0  0  0  0  0
  -21.4675  -26.0413   24.6037 N   0  0  0  0  0  0  0  0  0  0  0  0
  -26.9053  -27.6481   20.6695 N   0  0  0  0  0  0  0  0  0  0  0  0
  -26.0880  -28.6536   20.3131 N   0  0  0  0  0  0  0  0  0  0  0  0
  -25.7001  -16.2908   24.7720 N   0  0  0  0  0  0  0  0  0  0  0  0
  -24.4813  -30.7073   23.1077 N   0  0  0  0  0  0  0  0  0  0  0  0
  -24.6910  -29.4216   18.5612 N   0  0  0  0  0  0  0  0  0  0  0  0
  -26.3113  -25.5191   16.9671 N   0  0  0  0  0  0  0  0  0  0  0  0
  -23.0199  -24.6628   23.4928 N   0  0  0  0  0  0  0  0  0  0  0  0
  -26.8021  -14.7579   21.9782 N   0  0  0  0  0  0  0  0  0  0  0  0
  -24.3983  -15.0786   27.6519 N   0  0  0  0  0  0  0  0  0  0  0  0
  -22.2953  -31.2207   22.3650 N   0  0  0  0  0  0  0  0  0  0  0  0
  -18.4165  -24.3768   20.7983 N   0  3  0  0  0  0  0  0  0  0  0  0
  -25.0596  -17.0421   30.6142 N   0  3  0  0  0  0  0  0  0  0  0  0
  -19.7542  -29.9848   22.9731 N   0  3  0  0  0  0  0  0  0  0  0  0
  -24.9591  -27.3081   16.4880 O   0  0  0  0  0  0  0  0  0  0  0  0
  -25.5569  -16.7254   21.9523 O   0  0  0  0  0  0  0  0  0  0  0  0
  -26.0918  -14.1267   25.5461 O   0  0  0  0  0  0  0  0  0  0  0  0
  -23.6285  -17.1970   28.1967 O   0  0  0  0  0  0  0  0  0  0  0  0
  -23.2725  -32.4588   24.0290 O   0  0  0  0  0  0  0  0  0  0  0  0
  -29.8312  -22.0948   19.5977 O   0  0  0  0  0  0  0  0  0  0  0  0
  -24.4781  -22.2424   23.7052 O   0  0  0  0  0  0  0  0  0  1  0  0
  -27.3238  -17.5144   17.8266 F   0  0  0  0  0  0  0  0  0  0  0  0
  -29.5529  -19.8992   21.2543 F   0  0  0  0  0  0  0  0  0  0  0  0
  1  2  1  0  0  0  0
  1  5  2  0  0  0  0
  2  6  2  0  0  0  0
  3  8  2  0  0  0  0
  3 17  1  0  0  0  0
  4  9  1  0  0  0  0
  4 17  2  0  0  0  0
  5 19  1  0  0  0  0
  6 21  1  0  0  0  0
  7 10  2  0  0  0  0
  7 20  1  0  0  0  0
  8 25  1  0  0  0  0
  9 25  2  0  0  0  0
 10 26  1  0  0  0  0
 11 12  2  0  0  0  0
 11 27  1  0  0  0  0
 12 28  1  0  0  0  0
 13 22  1  0  0  0  0
 13 26  2  0  0  0  0
 14 23  1  0  0  0  0
 14 31  2  0  0  0  0
 15 28  2  0  0  0  0
 15 29  1  0  0  0  0
 16 24  1  0  0  0  0
 16 67  2  0  0  0  0
 17 30  1  0  0  0  0
 18 30  1  0  0  0  0
 18 32  2  0  0  0  0
 18 33  1  0  0  0  0
 19 21  2  0  0  0  0
 19 38  1  0  0  0  0
 20 22  2  0  0  0  0
 20 39  1  0  0  0  0
 21 47  1  0  0  0  0
 22 40  1  0  0  0  0
 23 24  2  0  0  0  0
 23 56  1  0  0  0  0
 24 57  1  0  0  0  0
 25 86  1  0  0  0  0
 26 87  1  0  0  0  0
 27 29  2  0  0  0  0
 27 86  1  0  0  0  0
 28 88  1  0  0  0  0
 29 89  1  0  0  0  0
 30 68  2  0  0  0  0
 31 67  1  0  0  0  0
 31 74  1  0  0  0  0
 32 69  1  0  0  0  0
 32 72  1  0  0  0  0
 33 73  1  0  0  0  0
 33 81  2  0  0  0  0
 34 48  1  0  0  0  0
 34 75  1  0  0  0  0
 34 82  2  0  0  0  0
 35 64  1  0  0  0  0
 35 70  1  0  0  0  0
 35 83  2  0  0  0  0
 36 65  1  0  0  0  0
 36 76  1  0  0  0  0
 36 84  2  0  0  0  0
 37 71  1  0  0  0  0
 37 77  1  0  0  0  0
 37 85  2  0  0  0  0
 38 41  1  0  0  0  0
 39 48  1  0  0  0  0
 40 70  1  0  0  0  0
 41 43  1  0  0  0  0
 42 44  1  0  0  0  0
 42 45  1  0  0  0  0
 43 47  1  0  0  0  0
 44 49  1  0  0  0  0
 45 71  1  0  0  0  0
 46 49  1  0  0  0  0
 46 71  1  0  0  0  0
 47 75  1  0  0  0  0
 48 70  1  0  0  0  0
 49 69  1  0  0  0  0
 50 65  1  0  0  0  0
 51 66  1  0  0  0  0
 52 66  1  0  0  0  0
 53 66  1  0  0  0  0
 54 78  1  0  0  0  0
 55 79  1  0  0  0  0
 56 60  1  0  0  0  0
 57 61  1  0  0  0  0
 58 62  1  0  0  0  0
 58 77  1  0  0  0  0
 59 63  1  0  0  0  0
 59 74  1  0  0  0  0
 60 78  1  0  0  0  0
 61 80  1  0  0  0  0
 62 80  1  0  0  0  0
 63 87  1  0  0  0  0
 64 66  1  0  0  0  0
 64 76  1  0  0  0  0
 65 79  1  0  0  0  0
 68 69  1  0  0  0  0
M  CHG  3  78   1  79   1  80   1
M  ISO  4  37 100  63 101  77 100  87 101
M  END
> <Batch ID>
0123

> <Smiles>
CNCCc1cc(NC[101CH2:1][101O:1]c2ccc3c(c2)CN(C(=O)C(NC(=O)C(C)NC)C(C)(C)C)C(C(=O)NC2CCCc4ccccc42)C3)ncc1CCNCC[100NH:0][100C:0](=O)N1CCCC(n2nc(-c3ccc(Oc4ccc(F)cc4F)cc3)c(C(N)=O)c2N)C1

> <Shape>
0.239

> <Color>
0.049

> <Negative vol penalty>
0.000

$$$$

  -OEChem-04052320303D

 84 93  0     1  0  0  0  0  0999 V2000
  -25.3282  -18.9608   18.4656 C   0  0  0  0  0  0  0  0  0  0  0  0
  -24.8103  -20.2502   18.4200 C   0  0  0  0  0  0  0  0  0  0  0  0
  -26.4051  -12.7754   21.6065 C   0  0  0  0  0  0  0  0  0  0  0  0
  -25.1491  -14.3682   20.2941 C   0  0  0  0  0  0  0  0  0  0  0  0
  -26.6300  -18.7523   18.9162 C   0  0  0  0  0  0  0  0  0  0  0  0
  -25.5979  -21.3326   18.8137 C   0  0  0  0  0  0  0  0  0  0  0  0
  -23.7462  -25.8301   18.0736 C   0  0  0  0  0  0  0  0  0  0  0  0
  -25.6840  -11.7306   21.0285 C   0  0  0  0  0  0  0  0  0  0  0  0
  -24.4280  -13.3234   19.7161 C   0  0  0  0  0  0  0  0  0  0  0  0
  -22.6949  -26.3462   18.8300 C   0  0  0  0  0  0  0  0  0  0  0  0
  -22.6403  -10.3061   21.3905 C   0  0  0  0  0  0  0  0  0  0  0  0
  -22.1649   -9.3029   22.2349 C   0  0  0  0  0  0  0  0  0  0  0  0
  -20.1270  -24.3680   22.9293 C   0  0  0  0  0  0  0  0  0  0  0  0
  -24.2591  -27.7034   20.0671 C   0  0  0  0  0  0  0  0  0  0  0  0
  -23.4493   -7.6634   21.0103 C   0  0  0  0  0  0  0  0  0  0  0  0
  -18.9141  -24.9729   22.6817 C   0  0  0  0  0  0  0  0  0  0  0  0
  -26.1375  -14.0943   21.2394 C   0  0  0  0  0  0  0  0  0  0  0  0
  -28.2735  -15.3780   21.7844 C   0  0  0  0  0  0  0  0  0  0  0  0
  -27.4290  -19.8319   19.3272 C   0  0  0  0  0  0  0  0  0  0  0  0
  -25.0654  -26.2393   18.3160 C   0  0  0  0  0  0  0  0  0  0  0  0
  -26.9223  -21.1451   19.2489 C   0  0  0  0  0  0  0  0  0  0  0  0
  -25.3251  -27.1929   19.3107 C   0  0  0  0  0  0  0  0  0  0  0  0
  -21.1068  -25.3903   22.9978 C   0  0  0  0  0  0  0  0  0  0  0  0
  -24.6956  -12.0046   20.0833 C   0  0  0  0  0  0  0  0  0  0  0  0
  -22.9515  -27.2808   19.8288 C   0  0  0  0  0  0  0  0  0  0  0  0
  -23.5202   -9.9880   20.3559 C   0  0  0  0  0  0  0  0  0  0  0  0
  -22.5693   -7.9816   22.0448 C   0  0  0  0  0  0  0  0  0  0  0  0
  -23.9247   -8.6667   20.1658 C   0  0  0  0  0  0  0  0  0  0  0  0
  -26.8816  -15.1740   21.8365 C   0  0  0  0  0  0  0  0  0  0  0  0
  -20.4700  -26.5974   22.7799 C   0  0  0  0  0  0  0  0  0  0  0  0
  -28.4784  -16.5321   22.5003 C   0  0  0  0  0  0  0  0  0  0  0  0
  -29.2904  -14.5944   21.1459 C   0  0  0  0  0  0  0  0  0  0  0  0
  -27.7328  -24.7791   19.2414 C   0  0  0  0  0  0  0  0  0  0  0  0
  -29.0615  -27.6795   18.6545 C   0  0  0  0  0  0  0  0  0  0  0  0
  -28.6420  -31.0544   18.3703 C   0  0  0  0  0  0  0  0  0  0  0  0
  -24.9669  -21.1455   23.6144 C   0  0  0  0  0  0  0  0  0  0  0  0
  -28.8337  -19.5500   19.7989 C   0  0  0  0  0  0  0  0  0  0  0  0
  -26.1853  -25.6931   17.4735 C   0  0  0  0  0  0  0  0  0  0  0  0
  -26.7212  -27.6802   19.5969 C   0  0  0  0  0  0  0  0  0  0  0  0
  -29.4308  -20.6970   20.6076 C   0  0  0  0  0  0  0  0  0  0  0  0
  -26.6193  -19.0903   26.0929 C   0  0  0  0  0  0  0  0  0  0  0  0
  -29.2403  -22.0110   19.8649 C   0  0  0  0  0  0  0  0  0  0  0  0
  -27.0064  -17.8650   25.2629 C   0  0  0  0  0  0  0  0  0  0  0  0
  -18.1239  -27.3287   22.3410 C   0  0  0  0  0  0  0  0  0  0  0  0
  -25.2584  -19.6363   25.6711 C   0  0  0  0  0  0  0  0  0  0  0  0
  -25.5358  -18.7436   23.3908 C   0  0  0  0  0  0  0  0  0  0  0  0
  -18.5635  -28.7189   22.7789 C   0  0  0  0  0  0  0  0  0  0  0  0
  -27.7499  -22.3346   19.7010 C   0  0  1  0  0  0  0  0  0  0  0  0
  -20.9733  -28.0064   22.7641 C   0  0  1  0  0  0  0  0  0  0  0  0
  -27.5481  -25.7964   18.1512 C   0  0  1  0  0  0  0  0  0  0  0  0
  -26.9125  -18.1580   23.7538 C   0  0  2  0  0  0  0  0  0  0  0  0
  -29.9191  -33.1672   17.9203 C   0  0  0  0  0  0  0  0  0  0  0  0
  -30.1999  -27.5912   21.4840 C   0  0  0  0  0  0  0  0  0  0  0  0
  -30.6287  -30.0520   21.3134 C   0  0  0  0  0  0  0  0  0  0  0  0
  -31.7733  -28.4772   19.7537 C   0  0  0  0  0  0  0  0  0  0  0  0
  -27.0418  -31.6437   15.9514 C   0  0  0  0  0  0  0  0  0  0  0  0
  -22.5407  -25.1724   23.2756 C   0  0  0  0  0  0  0  0  0  0  0  0
  -22.2245  -28.1740   21.9096 C   0  0  0  0  0  0  0  0  0  1  0  0
  -22.9034  -23.7461   23.7544 C   0  0  0  0  0  0  0  0  0  0  0  0
  -24.3960  -23.5301   23.9950 C   0  0  0  0  0  0  0  0  0  0  0  0
  -29.3024  -28.9291   19.4665 C   0  0  1  0  0  0  0  0  0  0  0  0
  -29.0994  -32.0406   17.3107 C   0  0  2  0  0  0  0  0  0  0  0  0
  -30.4499  -28.7520   20.5006 C   0  0  0  0  0  0  0  0  0  0  0  0
  -26.2471  -16.1224   22.5308 N   0  0  0  0  0  0  0  0  0  0  0  0
  -19.1347  -26.3196   22.6028 N   0  0  0  0  0  0  0  0  0  0  0  0
  -27.2449  -16.9334   22.9216 N   0  0  0  0  0  0  0  0  0  0  0  0
  -27.7831  -27.1118   18.7504 N   0  0  0  0  0  0  0  0  0  0  0  0
  -25.2415  -19.9118   24.2275 N   0  0  0  0  0  0  0  0  0  0  0  0
  -29.5917  -17.2326   22.8044 N   0  0  0  0  0  0  0  0  0  0  0  0
  -29.6285  -14.8921   19.8188 N   0  0  0  0  0  0  0  0  0  0  0  0
  -27.6079  -23.4702   18.8165 N   0  0  0  0  0  0  0  0  0  0  0  0
  -29.5249  -30.0039   18.5053 N   0  0  0  0  0  0  0  0  0  0  0  0
  -24.6914  -22.1992   24.4772 N   0  0  0  0  0  0  0  0  0  0  0  0
  -19.9369  -28.9765   22.2405 N   0  3  0  0  0  0  0  0  0  0  0  0
  -27.9234  -32.6374   16.6165 N   0  3  0  0  0  0  0  0  0  0  0  0
  -29.8700  -13.6473   21.7295 O   0  0  0  0  0  0  0  0  0  0  0  0
  -27.9724  -25.1539   20.3833 O   0  0  0  0  0  0  0  0  0  0  0  0
  -29.9718  -27.2279   17.9551 O   0  0  0  0  0  0  0  0  0  0  0  0
  -27.6072  -31.2031   19.0164 O   0  0  0  0  0  0  0  0  0  0  0  0
  -24.9720  -21.2982   22.3881 O   0  0  0  0  0  0  0  0  0  0  0  0
  -23.9920  -10.9853   19.5189 O   0  0  0  0  0  0  0  0  0  0  0  0
  -21.9273  -27.7856   20.5690 O   0  0  0  0  0  0  0  0  0  1  0  0
  -22.1139   -7.0185   22.8567 F   0  0  0  0  0  0  0  0  0  0  0  0
  -24.7707   -8.3552   19.1743 F   0  0  0  0  0  0  0  0  0  0  0  0
  1  2  1  0  0  0  0
  1  5  2  0  0  0  0
  2  6  2  0  0  0  0
  3  8  2  0  0  0  0
  3 17  1  0  0  0  0
  4  9  1  0  0  0  0
  4 17  2  0  0  0  0
  5 19  1  0  0  0  0
  6 21  1  0  0  0  0
  7 10  2  0  0  0  0
  7 20  1  0  0  0  0
  8 24  1  0  0  0  0
  9 24  2  0  0  0  0
 10 25  1  0  0  0  0
 11 12  2  0  0  0  0
 11 26  1  0  0  0  0
 12 27  1  0  0  0  0
 13 16  2  0  0  0  0
 13 23  1  0  0  0  0
 14 22  1  0  0  0  0
 14 25  2  0  0  0  0
 15 27  2  0  0  0  0
 15 28  1  0  0  0  0
 16 65  1  0  0  0  0
 17 29  1  0  0  0  0
 18 29  1  0  0  0  0
 18 31  2  0  0  0  0
 18 32  1  0  0  0  0
 19 21  2  0  0  0  0
 19 37  1  0  0  0  0
 20 22  2  0  0  0  0
 20 38  1  0  0  0  0
 21 48  1  0  0  0  0
 22 39  1  0  0  0  0
 23 30  2  0  0  0  0
 23 57  1  0  0  0  0
 24 81  1  0  0  0  0
 25 82  1  0  0  0  0
 26 28  2  0  0  0  0
 26 81  1  0  0  0  0
 27 83  1  0  0  0  0
 28 84  1  0  0  0  0
 29 64  2  0  0  0  0
 30 49  1  0  0  0  0
 30 65  1  0  0  0  0
 31 66  1  0  0  0  0
 31 69  1  0  0  0  0
 32 70  1  0  0  0  0
 32 76  2  0  0  0  0
 33 50  1  0  0  0  0
 33 71  1  0  0  0  0
 33 77  2  0  0  0  0
 34 61  1  0  0  0  0
 34 67  1  0  0  0  0
 34 78  2  0  0  0  0
 35 62  1  0  0  0  0
 35 72  1  0  0  0  0
 35 79  2  0  0  0  0
 36 68  1  0  0  0  0
 36 73  1  0  0  0  0
 36 80  2  0  0  0  0
 37 40  1  0  0  0  0
 38 50  1  0  0  0  0
 39 67  1  0  0  0  0
 40 42  1  0  0  0  0
 41 43  1  0  0  0  0
 41 45  1  0  0  0  0
 42 48  1  0  0  0  0
 43 51  1  0  0  0  0
 44 47  1  0  0  0  0
 44 65  1  0  0  0  0
 45 68  1  0  0  0  0
 46 51  1  0  0  0  0
 46 68  1  0  0  0  0
 47 74  1  0  0  0  0
 48 71  1  0  0  0  0
 49 58  1  0  0  0  0
 49 74  1  0  0  0  0
 50 67  1  0  0  0  0
 51 66  1  0  0  0  0
 52 62  1  0  0  0  0
 53 63  1  0  0  0  0
 54 63  1  0  0  0  0
 55 63  1  0  0  0  0
 56 75  1  0  0  0  0
 57 59  1  0  0  0  0
 58 82  1  0  0  0  0
 59 60  1  0  0  0  0
 60 73  1  0  0  0  0
 61 63  1  0  0  0  0
 61 72  1  0  0  0  0
 62 75  1  0  0  0  0
 64 66  1  0  0  0  0
M  CHG  2  74   1  75   1
M  ISO  4  36 100  58 101  73 100  82 101
M  END
> <Batch ID>
0123

> <Smiles>
CNC(C)C(=O)NC(C(=O)N1Cc2cc([101O:1][101CH2:1]C3NCCn4ccc(CCC[100NH:0][100C:0](=O)N5CCCC(n6nc(-c7ccc(Oc8ccc(F)cc8F)cc7)c(C(N)=O)c6N)C5)c43)ccc2CC1C(=O)NC1CCCc2ccccc21)C(C)(C)C

> <Shape>
0.215

> <Color>
0.054

> <Negative vol penalty>
0.000

$$$$

  -OEChem-04052320303D

 88 97  0     1  0  0  0  0  0999 V2000
  -19.7625  -23.9516   23.1850 C   0  0  0  0  0  0  0  0  0  0  0  0
  -21.1167  -24.2061   22.9935 C   0  0  0  0  0  0  0  0  0  0  0  0
  -26.9476  -15.2697   21.7999 C   0  0  0  0  0  0  0  0  0  0  0  0
  -26.3170  -15.1896   19.4690 C   0  0  0  0  0  0  0  0  0  0  0  0
  -18.8290  -24.9689   22.9916 C   0  0  0  0  0  0  0  0  0  0  0  0
  -21.5381  -25.4780   22.6075 C   0  0  0  0  0  0  0  0  0  0  0  0
  -25.5647  -27.0707   25.2334 C   0  0  0  0  0  0  0  0  0  0  0  0
  -31.6495  -23.6005   19.0031 C   0  0  0  0  0  0  0  0  0  0  0  0
  -26.5122  -13.9546   21.9629 C   0  0  0  0  0  0  0  0  0  0  0  0
  -25.8817  -13.8745   19.6319 C   0  0  0  0  0  0  0  0  0  0  0  0
  -26.8076  -26.5557   24.8677 C   0  0  0  0  0  0  0  0  0  0  0  0
  -31.2408  -24.2597   20.1624 C   0  0  0  0  0  0  0  0  0  0  0  0
  -27.2691  -10.7989   19.8243 C   0  0  0  0  0  0  0  0  0  0  0  0
  -27.6383   -9.8704   18.8512 C   0  0  0  0  0  0  0  0  0  0  0  0
  -27.2754  -28.5762   23.6355 C   0  0  0  0  0  0  0  0  0  0  0  0
  -29.2922  -25.0923   19.0019 C   0  0  0  0  0  0  0  0  0  0  0  0
  -25.3086   -9.4457   18.3725 C   0  0  0  0  0  0  0  0  0  0  0  0
  -26.8499  -15.8872   20.5529 C   0  0  0  0  0  0  0  0  0  0  0  0
  -28.5891  -17.6758   20.0201 C   0  0  0  0  0  0  0  0  0  0  0  0
  -19.2400  -26.2565   22.6124 C   0  0  0  0  0  0  0  0  0  0  0  0
  -25.1626  -28.3399   24.7931 C   0  0  0  0  0  0  0  0  0  0  0  0
  -20.6091  -26.5133   22.4076 C   0  0  0  0  0  0  0  0  0  0  0  0
  -26.0279  -29.1060   23.9991 C   0  0  0  0  0  0  0  0  0  0  0  0
  -29.7010  -24.4331   17.8426 C   0  0  0  0  0  0  0  0  0  0  0  0
  -30.8797  -23.6873   17.8431 C   0  0  0  0  0  0  0  0  0  0  0  0
  -25.9793  -13.2570   20.8789 C   0  0  0  0  0  0  0  0  0  0  0  0
  -27.6620  -27.3073   24.0662 C   0  0  0  0  0  0  0  0  0  0  0  0
  -30.0621  -25.0056   20.1618 C   0  0  0  0  0  0  0  0  0  0  0  0
  -25.9196  -11.0508   20.0716 C   0  0  0  0  0  0  0  0  0  0  0  0
  -26.6581   -9.1937   18.1253 C   0  0  0  0  0  0  0  0  0  0  0  0
  -24.9393  -10.3742   19.3457 C   0  0  0  0  0  0  0  0  0  0  0  0
  -27.2990  -17.2459   20.3841 C   0  0  0  0  0  0  0  0  0  0  0  0
  -28.5003  -19.0462   19.9961 C   0  0  0  0  0  0  0  0  0  0  0  0
  -29.7628  -16.9053   19.7295 C   0  0  0  0  0  0  0  0  0  0  0  0
  -22.7881  -29.4402   22.9889 C   0  0  0  0  0  0  0  0  0  0  0  0
  -23.9693  -32.3272   23.8792 C   0  0  0  0  0  0  0  0  0  0  0  0
  -26.6334  -34.1520   24.9833 C   0  0  0  0  0  0  0  0  0  0  0  0
  -25.8024  -23.7245   18.5890 C   0  0  0  0  0  0  0  0  0  0  0  0
  -18.1900  -27.3116   22.3694 C   0  0  0  0  0  0  0  0  0  0  0  0
  -23.8297  -28.8920   25.2185 C   0  0  0  0  0  0  0  0  0  0  0  0
  -25.6519  -30.4825   23.5170 C   0  0  0  0  0  0  0  0  0  0  0  0
  -18.7512  -28.7305   22.3245 C   0  0  0  0  0  0  0  0  0  0  0  0
  -24.8448  -22.1376   21.6290 C   0  0  0  0  0  0  0  0  0  0  0  0
  -19.9991  -28.7836   21.4488 C   0  0  0  0  0  0  0  0  0  0  0  0
  -25.4989  -20.7575   21.5430 C   0  0  0  0  0  0  0  0  0  0  0  0
  -26.5130  -24.8270   15.6084 C   0  0  0  0  0  0  0  0  0  0  0  0
  -27.0197  -25.9691   14.7289 C   0  0  0  0  0  0  0  0  0  0  0  0
  -29.3425  -25.6964   15.6930 C   0  0  0  0  0  0  0  0  0  0  0  0
  -24.3534  -22.6153   20.2643 C   0  0  0  0  0  0  0  0  0  0  0  0
  -26.0273  -21.2203   19.1129 C   0  0  0  0  0  0  0  0  0  0  0  0
  -28.8458  -24.5433   16.5897 C   0  0  2  0  0  0  0  0  0  0  0  0
  -21.1075  -27.8866   22.0129 C   0  0  1  0  0  0  0  0  0  0  0  0
  -23.3111  -29.9843   24.2882 C   0  0  1  0  0  0  0  0  0  0  0  0
  -26.5889  -20.7204   20.4550 C   0  0  2  0  0  0  0  0  0  0  0  0
  -27.3358  -24.6950   16.8960 C   0  0  2  0  0  0  0  0  0  0  0  0
  -28.5038  -25.7986   14.4205 C   0  0  2  0  0  0  0  0  0  0  0  0
  -31.3377  -22.9729   16.6143 C   0  0  0  0  0  0  0  0  0  0  0  0
  -27.3035  -36.4949   25.5828 C   0  0  0  0  0  0  0  0  0  0  0  0
  -24.1155  -33.0409   20.9162 C   0  0  0  0  0  0  0  0  0  0  0  0
  -25.6341  -34.9378   21.5196 C   0  0  0  0  0  0  0  0  0  0  0  0
  -23.2986  -34.8853   22.3944 C   0  0  0  0  0  0  0  0  0  0  0  0
  -27.2613  -33.3828   27.7713 C   0  0  0  0  0  0  0  0  0  0  0  0
  -28.9819  -25.3894   23.5810 C   0  0  0  0  0  0  0  0  0  1  0  0
  -30.0342  -25.0627   22.5392 C   0  0  0  0  0  0  0  0  0  0  0  0
  -25.0082  -33.2734   23.3276 C   0  0  1  0  0  0  0  0  0  0  0  0
  -26.7623  -35.1714   26.1008 C   0  0  2  0  0  0  0  0  0  0  0  0
  -24.5207  -34.0077   22.0468 C   0  0  0  0  0  0  0  0  0  0  0  0
  -26.4527  -18.2610   20.5776 N   0  0  0  0  0  0  0  0  0  0  0  0
  -27.2127  -19.3423   20.3344 N   0  0  0  0  0  0  0  0  0  0  0  0
  -24.3356  -30.9759   23.9544 N   0  0  0  0  0  0  0  0  0  0  0  0
  -25.4353  -22.5570   19.2783 N   0  0  0  0  0  0  0  0  0  0  0  0
  -29.3989  -20.0148   19.7190 N   0  0  0  0  0  0  0  0  0  0  0  0
  -29.6794  -15.5080   19.8009 N   0  0  0  0  0  0  0  0  0  0  0  0
  -21.7577  -28.5309   23.1338 N   0  0  0  0  0  0  0  0  0  0  0  0
  -25.3729  -34.1635   24.4245 N   0  0  0  0  0  0  0  0  0  0  0  0
  -26.8411  -23.5831   17.6770 N   0  0  0  0  0  0  0  0  0  0  0  0
  -28.9680  -26.9710   13.6317 N   0  3  0  0  0  0  0  0  0  0  0  0
  -27.6846  -34.6678   27.1575 N   0  3  0  0  0  0  0  0  0  0  0  0
  -30.8575  -17.4405   19.4319 O   0  0  0  0  0  0  0  0  0  0  0  0
  -23.2819  -29.8184   21.9331 O   0  0  0  0  0  0  0  0  0  0  0  0
  -22.8756  -32.7717   24.2369 O   0  0  0  0  0  0  0  0  0  0  0  0
  -27.5594  -33.4214   24.6381 O   0  0  0  0  0  0  0  0  0  0  0  0
  -25.2494  -24.8135   18.7767 O   0  0  0  0  0  0  0  0  0  0  0  0
  -25.5546  -11.9736   21.0375 O   0  0  0  0  0  0  0  0  0  0  0  0
  -28.8755  -26.8068   23.7073 O   0  0  0  0  0  0  0  0  0  1  0  0
  -29.6607  -25.6535   21.3003 O   0  0  0  0  0  0  0  0  0  0  0  0
  -27.0128   -8.3032   17.1897 F   0  0  0  0  0  0  0  0  0  0  0  0
  -23.6413  -10.6129   19.5780 F   0  0  0  0  0  0  0  0  0  0  0  0
  1  2  1  0  0  0  0
  1  5  2  0  0  0  0
  2  6  2  0  0  0  0
  3  9  2  0  0  0  0
  3 18  1  0  0  0  0
  4 10  1  0  0  0  0
  4 18  2  0  0  0  0
  5 20  1  0  0  0  0
  6 22  1  0  0  0  0
  7 11  2  0  0  0  0
  7 21  1  0  0  0  0
  8 12  2  0  0  0  0
  8 25  1  0  0  0  0
  9 26  1  0  0  0  0
 10 26  2  0  0  0  0
 11 27  1  0  0  0  0
 12 28  1  0  0  0  0
 13 14  2  0  0  0  0
 13 29  1  0  0  0  0
 14 30  1  0  0  0  0
 15 23  1  0  0  0  0
 15 27  2  0  0  0  0
 16 24  1  0  0  0  0
 16 28  2  0  0  0  0
 17 30  2  0  0  0  0
 17 31  1  0  0  0  0
 18 32  1  0  0  0  0
 19 32  1  0  0  0  0
 19 33  2  0  0  0  0
 19 34  1  0  0  0  0
 20 22  2  0  0  0  0
 20 39  1  0  0  0  0
 21 23  2  0  0  0  0
 21 40  1  0  0  0  0
 22 52  1  0  0  0  0
 23 41  1  0  0  0  0
 24 25  2  0  0  0  0
 24 51  1  0  0  0  0
 25 57  1  0  0  0  0
 26 84  1  0  0  0  0
 27 85  1  0  0  0  0
 28 86  1  0  0  0  0
 29 31  2  0  0  0  0
 29 84  1  0  0  0  0
 30 87  1  0  0  0  0
 31 88  1  0  0  0  0
 32 68  2  0  0  0  0
 33 69  1  0  0  0  0
 33 72  1  0  0  0  0
 34 73  1  0  0  0  0
 34 79  2  0  0  0  0
 35 53  1  0  0  0  0
 35 74  1  0  0  0  0
 35 80  2  0  0  0  0
 36 65  1  0  0  0  0
 36 70  1  0  0  0  0
 36 81  2  0  0  0  0
 37 66  1  0  0  0  0
 37 75  1  0  0  0  0
 37 82  2  0  0  0  0
 38 71  1  0  0  0  0
 38 76  1  0  0  0  0
 38 83  2  0  0  0  0
 39 42  1  0  0  0  0
 40 53  1  0  0  0  0
 41 70  1  0  0  0  0
 42 44  1  0  0  0  0
 43 45  1  0  0  0  0
 43 49  1  0  0  0  0
 44 52  1  0  0  0  0
 45 54  1  0  0  0  0
 46 47  1  0  0  0  0
 46 55  1  0  0  0  0
 47 56  1  0  0  0  0
 48 51  1  0  0  0  0
 48 56  1  0  0  0  0
 49 71  1  0  0  0  0
 50 54  1  0  0  0  0
 50 71  1  0  0  0  0
 51 55  1  0  0  0  0
 52 74  1  0  0  0  0
 53 70  1  0  0  0  0
 54 69  1  0  0  0  0
 55 76  1  0  0  0  0
 56 77  1  0  0  0  0
 58 66  1  0  0  0  0
 59 67  1  0  0  0  0
 60 67  1  0  0  0  0
 61 67  1  0  0  0  0
 62 78  1  0  0  0  0
 63 64  1  0  0  0  0
 63 85  1  0  0  0  0
 64 86  1  0  0  0  0
 65 67  1  0  0  0  0
 65 75  1  0  0  0  0
 66 78  1  0  0  0  0
 68 69  1  0  0  0  0
M  CHG  2  77   1  78   1
M  ISO  4  38 100  63 101  76 100  85 101
M  END
> <Batch ID>
0123

> <Smiles>
CNC(C)C(=O)NC(C(=O)N1Cc2cc([101O:1][101CH2:1]COc3ccc(C)c(C4CC(N)CCC4[100NH:0][100C:0](=O)N4CCCC(n5nc(-c6ccc(Oc7ccc(F)cc7F)cc6)c(C(N)=O)c5N)C4)c3)ccc2CC1C(=O)NC1CCCc2ccccc21)C(C)(C)C

> <Shape>
0.232

> <Color>
0.081

> <Negative vol penalty>
0.000

$$$$

  -OEChem-04052320303D

 83 91  0     1  0  0  0  0  0999 V2000
  -24.0454  -31.2314   12.6858 C   0  0  0  0  0  0  0  0  0  0  0  0
  -24.5304  -29.9734   13.0287 C   0  0  0  0  0  0  0  0  0  0  0  0
  -22.9533  -10.3420   20.9077 C   0  0  0  0  0  0  0  0  0  0  0  0
  -24.5526   -9.0083   22.1326 C   0  0  0  0  0  0  0  0  0  0  0  0
  -24.3265  -32.3304   13.4965 C   0  0  0  0  0  0  0  0  0  0  0  0
  -25.2978  -29.8139   14.1820 C   0  0  0  0  0  0  0  0  0  0  0  0
  -26.6626  -25.0629   19.3668 C   0  0  0  0  0  0  0  0  0  0  0  0
  -22.1213   -9.2295   20.7827 C   0  0  0  0  0  0  0  0  0  0  0  0
  -23.7206   -7.8958   22.0076 C   0  0  0  0  0  0  0  0  0  0  0  0
  -27.7356  -24.4278   19.9905 C   0  0  0  0  0  0  0  0  0  0  0  0
  -20.9234   -6.7014   23.4805 C   0  0  0  0  0  0  0  0  0  0  0  0
  -20.7189   -5.9163   24.6151 C   0  0  0  0  0  0  0  0  0  0  0  0
  -28.0913  -26.3836   21.3571 C   0  0  0  0  0  0  0  0  0  0  0  0
  -21.6479   -4.0075   23.4617 C   0  0  0  0  0  0  0  0  0  0  0  0
  -24.1690  -10.2314   21.5826 C   0  0  0  0  0  0  0  0  0  0  0  0
  -25.0275  -12.3311   22.7496 C   0  0  0  0  0  0  0  0  0  0  0  0
  -25.0897  -32.1825   14.6654 C   0  0  0  0  0  0  0  0  0  0  0  0
  -26.3021  -26.3695   19.7266 C   0  0  0  0  0  0  0  0  0  0  0  0
  -25.5906  -30.9121   15.0083 C   0  0  0  0  0  0  0  0  0  0  0  0
  -27.0117  -27.0322   20.7383 C   0  0  0  0  0  0  0  0  0  0  0  0
  -22.5049   -8.0064   21.3326 C   0  0  0  0  0  0  0  0  0  0  0  0
  -28.4519  -25.0891   20.9837 C   0  0  0  0  0  0  0  0  0  0  0  0
  -21.4901   -6.1396   22.3364 C   0  0  0  0  0  0  0  0  0  0  0  0
  -21.0812   -4.5693   24.6057 C   0  0  0  0  0  0  0  0  0  0  0  0
  -21.8524   -4.7927   22.3270 C   0  0  0  0  0  0  0  0  0  0  0  0
  -25.0292  -11.3801   21.7116 C   0  0  0  0  0  0  0  0  0  0  0  0
  -26.0244  -13.2125   22.4093 C   0  0  0  0  0  0  0  0  0  0  0  0
  -24.1990  -12.4106   23.9170 C   0  0  0  0  0  0  0  0  0  0  0  0
  -26.1722  -29.1592   18.2086 C   0  0  0  0  0  0  0  0  0  0  0  0
  -24.8331  -30.1659   20.9863 C   0  0  0  0  0  0  0  0  0  0  0  0
  -24.4467  -29.7148   24.3469 C   0  0  0  0  0  0  0  0  0  0  0  0
  -31.1854  -14.2421   20.5519 C   0  0  0  0  0  0  0  0  0  0  0  0
  -25.4073  -33.4082   15.4848 C   0  0  0  0  0  0  0  0  0  0  0  0
  -25.1253  -27.0308   19.0630 C   0  0  0  0  0  0  0  0  0  0  0  0
  -26.6521  -28.4279   21.1753 C   0  0  0  0  0  0  0  0  0  0  0  0
  -25.9128  -33.0877   16.8891 C   0  0  0  0  0  0  0  0  0  0  0  0
  -28.6449  -13.7201   18.1126 C   0  0  0  0  0  0  0  0  0  0  0  0
  -26.9778  -31.9969   16.8372 C   0  0  0  0  0  0  0  0  0  0  0  0
  -30.5868  -16.8492   23.4927 C   0  0  0  0  0  0  0  0  0  0  0  0
  -33.0165  -17.5025   23.2770 C   0  0  0  0  0  0  0  0  0  0  0  0
  -30.2055  -18.3200   23.6511 C   0  0  0  0  0  0  0  0  0  0  0  0
  -32.6350  -18.9733   23.4350 C   0  0  0  0  0  0  0  0  0  0  0  0
  -27.4807  -13.1378   18.9158 C   0  0  0  0  0  0  0  0  0  0  0  0
  -29.9928  -13.2259   18.6332 C   0  0  0  0  0  0  0  0  0  0  0  0
  -29.0498  -12.8534   20.8795 C   0  0  0  0  0  0  0  0  0  0  0  0
  -26.4058  -30.6944   16.2645 C   0  0  1  0  0  0  0  0  0  0  0  0
  -25.1689  -28.5533   19.1488 C   0  0  1  0  0  0  0  0  0  0  0  0
  -31.8712  -16.6817   22.6709 C   0  0  0  0  0  0  0  0  0  0  0  0
  -31.3510  -19.1405   24.2573 C   0  0  0  0  0  0  0  0  0  0  0  0
  -27.6720  -13.3669   20.4272 C   0  0  2  0  0  0  0  0  0  0  0  0
  -23.3235  -30.7201   26.3532 C   0  0  0  0  0  0  0  0  0  0  0  0
  -30.1394  -20.8448   25.6282 C   0  0  0  0  0  0  0  0  0  0  0  0
  -26.9373  -32.3744   21.0547 C   0  0  0  0  0  0  0  0  0  0  0  0
  -26.3860  -32.7290   23.4710 C   0  0  0  0  0  0  0  0  0  0  0  0
  -24.6408  -33.1005   21.7277 C   0  0  0  0  0  0  0  0  0  0  0  0
  -22.8604  -27.2637   24.8316 C   0  0  0  0  0  0  0  0  0  0  0  0
  -32.2589  -15.2077   22.5704 C   0  0  0  0  0  0  0  0  0  0  0  0
  -30.2124  -22.6197   22.9445 C   0  0  0  0  0  0  0  0  0  0  0  0
  -30.1757  -21.1023   23.1294 C   0  0  0  0  0  0  0  0  0  0  0  0
  -29.4424  -23.0500   21.7028 C   0  0  0  0  0  0  0  0  0  1  0  0
  -25.3583  -30.7399   22.2799 C   0  0  1  0  0  0  0  0  0  0  0  0
  -23.2093  -29.7053   25.2263 C   0  0  2  0  0  0  0  0  0  0  0  0
  -30.9638  -20.6146   24.3591 C   0  0  2  0  0  0  0  0  0  0  0  0
  -25.8388  -32.2104   22.1240 C   0  0  0  0  0  0  0  0  0  0  0  0
  -25.9536  -11.6336   20.7815 N   0  0  0  0  0  0  0  0  0  0  0  0
  -26.5421  -12.7540   21.2338 N   0  0  0  0  0  0  0  0  0  0  0  0
  -25.4977  -29.0346   20.4921 N   0  0  0  0  0  0  0  0  0  0  0  0
  -30.1114  -13.4744   20.0720 N   0  0  0  0  0  0  0  0  0  0  0  0
  -26.4998  -14.3274   23.0039 N   0  0  0  0  0  0  0  0  0  0  0  0
  -23.2242  -11.4229   24.1130 N   0  0  0  0  0  0  0  0  0  0  0  0
  -25.6201  -30.0044   17.2650 N   0  0  0  0  0  0  0  0  0  0  0  0
  -24.2991  -30.5589   23.2667 N   0  0  0  0  0  0  0  0  0  0  0  0
  -31.2195  -14.4350   21.9276 N   0  0  0  0  0  0  0  0  0  0  0  0
  -23.0113  -28.3560   25.8272 N   0  3  0  0  0  0  0  0  0  0  0  0
  -24.3086  -13.3394   24.7530 O   0  0  0  0  0  0  0  0  0  0  0  0
  -27.3594  -28.8815   18.3310 O   0  0  0  0  0  0  0  0  0  0  0  0
  -23.8641  -30.6974   20.4382 O   0  0  0  0  0  0  0  0  0  0  0  0
  -25.4458  -29.0435   24.5956 O   0  0  0  0  0  0  0  0  0  0  0  0
  -32.0468  -14.7247   19.8090 O   0  0  0  0  0  0  0  0  0  0  0  0
  -21.6932   -6.9206   21.2111 O   0  0  0  0  0  0  0  0  0  0  0  0
  -29.5001  -24.4717   21.5936 O   0  0  0  0  0  0  0  0  0  1  0  0
  -20.8862   -3.8158   25.6959 F   0  0  0  0  0  0  0  0  0  0  0  0
  -22.3983   -4.2476   21.2313 F   0  0  0  0  0  0  0  0  0  0  0  0
  1  2  1  0  0  0  0
  1  5  2  0  0  0  0
  2  6  2  0  0  0  0
  3  8  2  0  0  0  0
  3 15  1  0  0  0  0
  4  9  1  0  0  0  0
  4 15  2  0  0  0  0
  5 17  1  0  0  0  0
  6 19  1  0  0  0  0
  7 10  2  0  0  0  0
  7 18  1  0  0  0  0
  8 21  1  0  0  0  0
  9 21  2  0  0  0  0
 10 22  1  0  0  0  0
 11 12  2  0  0  0  0
 11 23  1  0  0  0  0
 12 24  1  0  0  0  0
 13 20  1  0  0  0  0
 13 22  2  0  0  0  0
 14 24  2  0  0  0  0
 14 25  1  0  0  0  0
 15 26  1  0  0  0  0
 16 26  1  0  0  0  0
 16 27  2  0  0  0  0
 16 28  1  0  0  0  0
 17 19  2  0  0  0  0
 17 33  1  0  0  0  0
 18 20  2  0  0  0  0
 18 34  1  0  0  0  0
 19 46  1  0  0  0  0
 20 35  1  0  0  0  0
 21 80  1  0  0  0  0
 22 81  1  0  0  0  0
 23 25  2  0  0  0  0
 23 80  1  0  0  0  0
 24 82  1  0  0  0  0
 25 83  1  0  0  0  0
 26 65  2  0  0  0  0
 27 66  1  0  0  0  0
 27 69  1  0  0  0  0
 28 70  1  0  0  0  0
 28 75  2  0  0  0  0
 29 47  1  0  0  0  0
 29 71  1  0  0  0  0
 29 76  2  0  0  0  0
 30 61  1  0  0  0  0
 30 67  1  0  0  0  0
 30 77  2  0  0  0  0
 31 62  1  0  0  0  0
 31 72  1  0  0  0  0
 31 78  2  0  0  0  0
 32 68  1  0  0  0  0
 32 73  1  0  0  0  0
 32 79  2  0  0  0  0
 33 36  1  0  0  0  0
 34 47  1  0  0  0  0
 35 67  1  0  0  0  0
 36 38  1  0  0  0  0
 37 43  1  0  0  0  0
 37 44  1  0  0  0  0
 38 46  1  0  0  0  0
 39 41  1  0  0  0  0
 39 48  1  0  0  0  0
 40 42  1  0  0  0  0
 40 48  1  0  0  0  0
 41 49  1  0  0  0  0
 42 49  1  0  0  0  0
 43 50  1  0  0  0  0
 44 68  1  0  0  0  0
 45 50  1  0  0  0  0
 45 68  1  0  0  0  0
 46 71  1  0  0  0  0
 47 67  1  0  0  0  0
 48 57  1  0  0  0  0
 49 63  1  0  0  0  0
 50 66  1  0  0  0  0
 51 62  1  0  0  0  0
 52 63  1  0  0  0  0
 53 64  1  0  0  0  0
 54 64  1  0  0  0  0
 55 64  1  0  0  0  0
 56 74  1  0  0  0  0
 57 73  1  0  0  0  0
 58 59  1  0  0  0  0
 58 60  1  0  0  0  0
 59 63  1  0  0  0  0
 60 81  1  0  0  0  0
 61 64  1  0  0  0  0
 61 72  1  0  0  0  0
 62 74  1  0  0  0  0
 65 66  1  0  0  0  0
M  CHG  1  74   1
M  ISO  4  32 100  60 101  73 100  81 101
M  END
> <Batch ID>
0123

> <Smiles>
CNC(C)C(=O)NC(C(=O)N1Cc2cc([101O:1][101CH2:1]CCC(C)C3CCC(C[100NH:0][100C:0](=O)N4CCCC(n5nc(-c6ccc(Oc7ccc(F)cc7F)cc6)c(C(N)=O)c5N)C4)CC3)ccc2CC1C(=O)NC1CCCc2ccccc21)C(C)(C)C

> <Shape>
0.254

> <Color>
0.127

> <Negative vol penalty>
0.000

$$$$

  -OEChem-04052320303D

 89 98  0     1  0  0  0  0  0999 V2000
  -17.2922  -31.7007   24.3327 C   0  0  0  0  0  0  0  0  0  0  0  0
  -17.2106  -30.5183   23.6043 C   0  0  0  0  0  0  0  0  0  0  0  0
  -31.0361  -19.9562   19.3594 C   0  0  0  0  0  0  0  0  0  0  0  0
  -28.8109  -19.8299   20.2920 C   0  0  0  0  0  0  0  0  0  0  0  0
  -18.4411  -32.4870   24.2569 C   0  0  0  0  0  0  0  0  0  0  0  0
  -18.2775  -30.1220   22.7986 C   0  0  0  0  0  0  0  0  0  0  0  0
  -21.5628  -23.7967   23.8424 C   0  0  0  0  0  0  0  0  0  0  0  0
  -22.6570  -12.0336   21.8912 C   0  0  0  0  0  0  0  0  0  0  0  0
  -21.3800  -12.3262   21.4125 C   0  0  0  0  0  0  0  0  0  0  0  0
  -30.7714  -21.2473   18.9026 C   0  0  0  0  0  0  0  0  0  0  0  0
  -28.5462  -21.1210   19.8352 C   0  0  0  0  0  0  0  0  0  0  0  0
  -22.1060  -22.5118   23.8435 C   0  0  0  0  0  0  0  0  0  0  0  0
  -30.8055  -24.7127   17.8051 C   0  0  0  0  0  0  0  0  0  0  0  0
  -31.7843  -25.6857   18.0073 C   0  0  0  0  0  0  0  0  0  0  0  0
  -23.6279  -23.1421   22.0731 C   0  0  0  0  0  0  0  0  0  0  0  0
  -23.1569  -14.3947   22.0015 C   0  0  0  0  0  0  0  0  0  0  0  0
  -31.6303  -25.3446   20.3941 C   0  0  0  0  0  0  0  0  0  0  0  0
  -30.0559  -19.2475   20.0541 C   0  0  0  0  0  0  0  0  0  0  0  0
  -31.3370  -17.5197   21.4257 C   0  0  0  0  0  0  0  0  0  0  0  0
  -19.5265  -32.0952   23.4575 C   0  0  0  0  0  0  0  0  0  0  0  0
  -22.0611  -24.7648   22.9661 C   0  0  0  0  0  0  0  0  0  0  0  0
  -19.4415  -30.9044   22.7110 C   0  0  0  0  0  0  0  0  0  0  0  0
  -23.0962  -24.4344   22.0760 C   0  0  0  0  0  0  0  0  0  0  0  0
  -23.5455  -13.0678   22.1857 C   0  0  0  0  0  0  0  0  0  0  0  0
  -20.9914  -13.6531   21.2283 C   0  0  0  0  0  0  0  0  0  0  0  0
  -21.8798  -14.6874   21.5228 C   0  0  0  0  0  0  0  0  0  0  0  0
  -29.5264  -21.8297   19.1405 C   0  0  0  0  0  0  0  0  0  0  0  0
  -23.1359  -22.1853   22.9609 C   0  0  0  0  0  0  0  0  0  0  0  0
  -30.2390  -24.0558   18.8974 C   0  0  0  0  0  0  0  0  0  0  0  0
  -32.1967  -26.0016   19.3018 C   0  0  0  0  0  0  0  0  0  0  0  0
  -30.6514  -24.3717   20.1919 C   0  0  0  0  0  0  0  0  0  0  0  0
  -30.3286  -17.9137   20.5258 C   0  0  0  0  0  0  0  0  0  0  0  0
  -31.1769  -16.1610   21.5475 C   0  0  0  0  0  0  0  0  0  0  0  0
  -32.3296  -18.3112   22.0919 C   0  0  0  0  0  0  0  0  0  0  0  0
  -21.8798  -28.3048   21.7367 C   0  0  0  0  0  0  0  0  0  0  0  0
  -24.8529  -27.5630   21.8815 C   0  0  0  0  0  0  0  0  0  0  0  0
  -28.2502  -27.5623   22.1910 C   0  0  0  0  0  0  0  0  0  0  0  0
  -26.4809  -12.5246   20.7894 C   0  0  0  0  0  0  0  0  0  0  0  0
  -20.7286  -33.0019   23.3706 C   0  0  0  0  0  0  0  0  0  0  0  0
  -21.4646  -26.1438   22.8876 C   0  0  0  0  0  0  0  0  0  0  0  0
  -23.5772  -25.4980   21.1272 C   0  0  0  0  0  0  0  0  0  0  0  0
  -21.9636  -32.3216   22.7856 C   0  0  0  0  0  0  0  0  0  0  0  0
  -29.6213  -12.3417   19.1219 C   0  0  0  0  0  0  0  0  0  0  0  0
  -21.5969  -31.5388   21.5287 C   0  0  0  0  0  0  0  0  0  0  0  0
  -30.2497  -13.7134   19.3738 C   0  0  0  0  0  0  0  0  0  0  0  0
  -22.4061  -17.3925   23.1378 C   0  0  0  0  0  0  0  0  0  0  0  0
  -21.9063  -18.3562   20.8521 C   0  0  0  0  0  0  0  0  0  0  0  0
  -23.2462  -18.6233   23.4697 C   0  0  0  0  0  0  0  0  0  0  0  0
  -22.7466  -19.5854   21.1896 C   0  0  0  0  0  0  0  0  0  0  0  0
  -28.1102  -12.4406   18.9253 C   0  0  0  0  0  0  0  0  0  0  0  0
  -28.0181  -14.5121   20.2573 C   0  0  0  0  0  0  0  0  0  0  0  0
  -20.5878  -30.4284   21.8452 C   0  0  1  0  0  0  0  0  0  0  0  0
  -22.5061  -27.2354   22.5827 C   0  0  1  0  0  0  0  0  0  0  0  0
  -29.5332  -14.4569   20.5171 C   0  0  2  0  0  0  0  0  0  0  0  0
  -22.3838  -17.1278   21.6301 C   0  0  0  0  0  0  0  0  0  0  0  0
  -22.7774  -19.8523   22.6938 C   0  0  0  0  0  0  0  0  0  1  0  0
  -30.6210  -28.3030   21.8333 C   0  0  0  0  0  0  0  0  0  0  0  0
  -24.6156  -25.8728   19.3536 C   0  0  0  0  0  0  0  0  0  0  0  0
  -27.0569  -26.2568   18.9528 C   0  0  0  0  0  0  0  0  0  0  0  0
  -25.4804  -28.1898   18.9824 C   0  0  0  0  0  0  0  0  0  0  0  0
  -17.5161  -13.7868   23.9130 C   0  0  0  0  0  0  0  0  0  0  0  0
  -28.1058  -29.4957   24.4270 C   0  0  0  0  0  0  0  0  0  0  0  0
  -19.6182  -13.9376   20.7125 C   0  0  0  0  0  0  0  0  0  0  0  0
  -24.9106  -12.7544   22.6975 C   0  0  0  0  0  0  0  0  0  0  0  0
  -18.6415  -14.4325   21.7786 C   0  0  0  0  0  0  0  0  0  0  0  0
  -26.0607  -27.0304   21.1529 C   0  0  1  0  0  0  0  0  0  0  0  0
  -29.2472  -28.6952   22.3546 C   0  0  2  0  0  0  0  0  0  0  0  0
  -25.7944  -26.8258   19.6347 C   0  0  0  0  0  0  0  0  0  0  0  0
  -29.5831  -16.8881   20.1056 N   0  0  0  0  0  0  0  0  0  0  0  0
  -30.1235  -15.8363   20.7442 N   0  0  0  0  0  0  0  0  0  0  0  0
  -23.6897  -26.7853   21.8308 N   0  0  0  0  0  0  0  0  0  0  0  0
  -27.4912  -13.1550   20.0445 N   0  0  0  0  0  0  0  0  0  0  0  0
  -31.8358  -15.2243   22.2622 N   0  0  0  0  0  0  0  0  0  0  0  0
  -32.0192  -18.8556   23.3456 N   0  0  0  0  0  0  0  0  0  0  0  0
  -21.5117  -16.0089   21.3444 N   0  0  0  0  0  0  0  0  0  0  0  0
  -21.2537  -29.3009   22.4614 N   0  0  0  0  0  0  0  0  0  0  0  0
  -27.1543  -27.9495   21.4491 N   0  0  0  0  0  0  0  0  0  0  0  0
  -25.9522  -13.2692   21.8367 N   0  0  0  0  0  0  0  0  0  0  0  0
  -18.4466  -13.3937   22.8200 N   0  3  0  0  0  0  0  0  0  0  0  0
  -29.3783  -29.0664   23.7919 N   0  3  0  0  0  0  0  0  0  0  0  0
  -33.4525  -18.5429   21.5831 O   0  0  0  0  0  0  0  0  0  0  0  0
  -21.9595  -28.2335   20.5159 O   0  0  0  0  0  0  0  0  0  0  0  0
  -24.9341  -28.6418   22.4757 O   0  0  0  0  0  0  0  0  0  0  0  0
  -28.4277  -26.4444   22.6700 O   0  0  0  0  0  0  0  0  0  0  0  0
  -26.0834  -11.3808   20.5430 O   0  0  0  0  0  0  0  0  0  0  0  0
  -29.2678  -23.0895   18.6950 O   0  0  0  0  0  0  0  0  0  0  0  0
  -23.6647  -20.9303   22.9704 O   0  0  0  0  0  0  0  0  0  1  0  0
  -33.1378  -26.9348   19.4957 F   0  0  0  0  0  0  0  0  0  0  0  0
  -30.1117  -23.7431   21.2452 F   0  0  0  0  0  0  0  0  0  0  0  0
  1  2  1  0  0  0  0
  1  5  2  0  0  0  0
  2  6  2  0  0  0  0
  3 10  2  0  0  0  0
  3 18  1  0  0  0  0
  4 11  1  0  0  0  0
  4 18  2  0  0  0  0
  5 20  1  0  0  0  0
  6 22  1  0  0  0  0
  7 12  2  0  0  0  0
  7 21  1  0  0  0  0
  8  9  2  0  0  0  0
  8 24  1  0  0  0  0
  9 25  1  0  0  0  0
 10 27  1  0  0  0  0
 11 27  2  0  0  0  0
 12 28  1  0  0  0  0
 13 14  2  0  0  0  0
 13 29  1  0  0  0  0
 14 30  1  0  0  0  0
 15 23  1  0  0  0  0
 15 28  2  0  0  0  0
 16 24  2  0  0  0  0
 16 26  1  0  0  0  0
 17 30  2  0  0  0  0
 17 31  1  0  0  0  0
 18 32  1  0  0  0  0
 19 32  1  0  0  0  0
 19 33  2  0  0  0  0
 19 34  1  0  0  0  0
 20 22  2  0  0  0  0
 20 39  1  0  0  0  0
 21 23  2  0  0  0  0
 21 40  1  0  0  0  0
 22 52  1  0  0  0  0
 23 41  1  0  0  0  0
 24 64  1  0  0  0  0
 25 26  2  0  0  0  0
 25 63  1  0  0  0  0
 26 75  1  0  0  0  0
 27 86  1  0  0  0  0
 28 87  1  0  0  0  0
 29 31  2  0  0  0  0
 29 86  1  0  0  0  0
 30 88  1  0  0  0  0
 31 89  1  0  0  0  0
 32 69  2  0  0  0  0
 33 70  1  0  0  0  0
 33 73  1  0  0  0  0
 34 74  1  0  0  0  0
 34 81  2  0  0  0  0
 35 53  1  0  0  0  0
 35 76  1  0  0  0  0
 35 82  2  0  0  0  0
 36 66  1  0  0  0  0
 36 71  1  0  0  0  0
 36 83  2  0  0  0  0
 37 67  1  0  0  0  0
 37 77  1  0  0  0  0
 37 84  2  0  0  0  0
 38 72  1  0  0  0  0
 38 78  1  0  0  0  0
 38 85  2  0  0  0  0
 39 42  1  0  0  0  0
 40 53  1  0  0  0  0
 41 71  1  0  0  0  0
 42 44  1  0  0  0  0
 43 45  1  0  0  0  0
 43 50  1  0  0  0  0
 44 52  1  0  0  0  0
 45 54  1  0  0  0  0
 46 48  1  0  0  0  0
 46 55  1  0  0  0  0
 47 49  1  0  0  0  0
 47 55  1  0  0  0  0
 48 56  1  0  0  0  0
 49 56  1  0  0  0  0
 50 72  1  0  0  0  0
 51 54  1  0  0  0  0
 51 72  1  0  0  0  0
 52 76  1  0  0  0  0
 53 71  1  0  0  0  0
 54 70  1  0  0  0  0
 55 75  1  0  0  0  0
 56 87  1  0  0  0  0
 57 67  1  0  0  0  0
 58 68  1  0  0  0  0
 59 68  1  0  0  0  0
 60 68  1  0  0  0  0
 61 79  1  0  0  0  0
 62 80  1  0  0  0  0
 63 65  1  0  0  0  0
 64 78  1  0  0  0  0
 65 79  1  0  0  0  0
 66 68  1  0  0  0  0
 66 77  1  0  0  0  0
 67 80  1  0  0  0  0
 69 70  1  0  0  0  0
M  CHG  2  79   1  80   1
M  ISO  4  38 100  56 101  78 100  87 101
M  END
> <Batch ID>
0123

> <Smiles>
CNCCc1ccc(C[100NH:0][100C:0](=O)N2CCCC(n3nc(-c4ccc(Oc5ccc(F)cc5F)cc4)c(C(N)=O)c3N)C2)cc1NC1CC[101CH:1]([101O:1]c2ccc3c(c2)CN(C(=O)C(NC(=O)C(C)NC)C(C)(C)C)C(C(=O)NC2CCCc4ccccc42)C3)CC1

> <Shape>
0.253

> <Color>
0.068

> <Negative vol penalty>
0.000

$$$$

  -OEChem-04052320303D

 83 91  0     1  0  0  0  0  0999 V2000
  -24.2830  -12.8186   12.4384 C   0  0  0  0  0  0  0  0  0  0  0  0
  -25.4014  -13.3443   13.0774 C   0  0  0  0  0  0  0  0  0  0  0  0
  -23.2856   -9.7971   19.9081 C   0  0  0  0  0  0  0  0  0  0  0  0
  -23.7167   -9.9393   22.2811 C   0  0  0  0  0  0  0  0  0  0  0  0
  -23.9165  -11.4913   12.6566 C   0  0  0  0  0  0  0  0  0  0  0  0
  -26.1533  -12.5431   13.9360 C   0  0  0  0  0  0  0  0  0  0  0  0
  -31.1373  -13.0374   13.1876 C   0  0  0  0  0  0  0  0  0  0  0  0
  -22.5527   -8.6279   20.1113 C   0  0  0  0  0  0  0  0  0  0  0  0
  -22.9838   -8.7700   22.4843 C   0  0  0  0  0  0  0  0  0  0  0  0
  -31.7516  -14.1706   13.7188 C   0  0  0  0  0  0  0  0  0  0  0  0
  -19.4586   -7.7814   21.1803 C   0  0  0  0  0  0  0  0  0  0  0  0
  -18.2347   -7.6610   20.5223 C   0  0  0  0  0  0  0  0  0  0  0  0
  -32.5363  -12.8620   15.5872 C   0  0  0  0  0  0  0  0  0  0  0  0
  -19.0378   -5.6834   19.3904 C   0  0  0  0  0  0  0  0  0  0  0  0
  -23.8677  -10.4528   20.9931 C   0  0  0  0  0  0  0  0  0  0  0  0
  -24.1390  -12.9815   20.7932 C   0  0  0  0  0  0  0  0  0  0  0  0
  -24.6699  -10.6706   13.5108 C   0  0  0  0  0  0  0  0  0  0  0  0
  -31.2088  -11.8083   13.8589 C   0  0  0  0  0  0  0  0  0  0  0  0
  -25.7957  -11.2039   14.1669 C   0  0  0  0  0  0  0  0  0  0  0  0
  -31.9242  -11.7141   15.0612 C   0  0  0  0  0  0  0  0  0  0  0  0
  -22.4018   -8.1143   21.3994 C   0  0  0  0  0  0  0  0  0  0  0  0
  -32.4488  -14.0837   14.9202 C   0  0  0  0  0  0  0  0  0  0  0  0
  -20.4722   -6.8529   20.9433 C   0  0  0  0  0  0  0  0  0  0  0  0
  -18.0242   -6.6119   19.6274 C   0  0  0  0  0  0  0  0  0  0  0  0
  -20.2618   -5.8039   20.0484 C   0  0  0  0  0  0  0  0  0  0  0  0
  -24.6253  -11.6604   20.7838 C   0  0  0  0  0  0  0  0  0  0  0  0
  -25.2458  -13.7565   20.5466 C   0  0  0  0  0  0  0  0  0  0  0  0
  -22.8060  -13.4648   21.0060 C   0  0  0  0  0  0  0  0  0  0  0  0
  -29.0819   -9.8324   15.1535 C   0  0  0  0  0  0  0  0  0  0  0  0
  -31.6776   -7.9303   15.5617 C   0  0  0  0  0  0  0  0  0  0  0  0
  -35.0667   -7.6820   15.8766 C   0  0  0  0  0  0  0  0  0  0  0  0
  -30.9931  -12.8337   21.5327 C   0  0  0  0  0  0  0  0  0  0  0  0
  -24.2073   -9.2556   13.7523 C   0  0  0  0  0  0  0  0  0  0  0  0
  -30.5633  -10.5893   13.2591 C   0  0  0  0  0  0  0  0  0  0  0  0
  -32.0478  -10.4135   15.8106 C   0  0  0  0  0  0  0  0  0  0  0  0
  -25.2738   -8.3658   14.3856 C   0  0  0  0  0  0  0  0  0  0  0  0
  -29.4900  -13.6292   18.3381 C   0  0  0  0  0  0  0  0  0  0  0  0
  -33.7857  -17.7200   22.6118 C   0  0  0  0  0  0  0  0  0  0  0  0
  -25.9419   -9.0828   15.5546 C   0  0  0  0  0  0  0  0  0  0  0  0
  -28.0144  -13.3354   18.6146 C   0  0  0  0  0  0  0  0  0  0  0  0
  -34.1562  -18.0700   21.1851 C   0  0  0  0  0  0  0  0  0  0  0  0
  -30.3955  -12.6245   19.0443 C   0  0  0  0  0  0  0  0  0  0  0  0
  -28.7046  -12.2339   20.7941 C   0  0  0  0  0  0  0  0  0  0  0  0
  -33.0680  -16.3907   22.4762 C   0  0  0  0  0  0  0  0  0  0  0  0
  -26.6511  -10.3593   15.0862 C   0  0  1  0  0  0  0  0  0  0  0  0
  -30.2655   -9.5033   14.2884 C   0  0  1  0  0  0  0  0  0  0  0  0
  -27.7380  -13.2287   20.1260 C   0  0  2  0  0  0  0  0  0  0  0  0
  -34.6477  -16.7397   20.6332 C   0  0  2  0  0  0  0  0  0  0  0  0
  -36.8935   -5.9997   16.2371 C   0  0  0  0  0  0  0  0  0  0  0  0
  -31.7918  -17.3705   16.8955 C   0  0  0  0  0  0  0  0  0  0  0  0
  -30.9239   -7.7478   18.5127 C   0  0  0  0  0  0  0  0  0  0  0  0
  -33.2296   -6.8894   18.9767 C   0  0  0  0  0  0  0  0  0  0  0  0
  -31.6931   -5.5956   17.4975 C   0  0  0  0  0  0  0  0  0  0  0  0
  -36.3432   -8.3414   13.2892 C   0  0  0  0  0  0  0  0  0  0  0  0
  -34.5790  -16.6464   19.1200 C   0  0  0  0  0  0  0  0  0  0  0  0
  -33.3264  -13.4402   22.1201 C   0  0  0  0  0  0  0  0  0  0  0  0
  -34.3602  -14.4127   21.5837 C   0  0  0  0  0  0  0  0  0  0  0  0
  -33.1595  -15.2582   16.8623 C   0  0  0  0  0  0  0  0  0  1  0  0
  -32.7098   -7.7490   16.6482 C   0  0  1  0  0  0  0  0  0  0  0  0
  -36.0759   -6.7656   15.2087 C   0  0  2  0  0  0  0  0  0  0  0  0
  -33.1079  -16.7201   17.2888 C   0  0  2  0  0  0  0  0  0  0  0  0
  -32.1353   -7.0206   17.8959 C   0  0  0  0  0  0  0  0  0  0  0  0
  -25.9387  -11.5961   20.5495 N   0  0  0  0  0  0  0  0  0  0  0  0
  -26.2871  -12.8865   20.4094 N   0  0  0  0  0  0  0  0  0  0  0  0
  -31.3940   -9.2513   15.1868 N   0  0  0  0  0  0  0  0  0  0  0  0
  -30.0941  -12.5850   20.4823 N   0  0  0  0  0  0  0  0  0  0  0  0
  -25.4201  -15.0906   20.4357 N   0  0  0  0  0  0  0  0  0  0  0  0
  -21.7876  -12.5323   21.2461 N   0  0  0  0  0  0  0  0  0  0  0  0
  -27.9096  -10.0338   14.4501 N   0  0  0  0  0  0  0  0  0  0  0  0
  -33.8410   -7.0685   16.0271 N   0  0  0  0  0  0  0  0  0  0  0  0
  -32.2909  -13.1527   21.1525 N   0  0  0  0  0  0  0  0  0  0  0  0
  -33.7073  -15.7240   21.2690 N   0  3  1  0  0  0  0  0  0  0  0  0
  -37.0108   -7.5564   14.3592 N   0  3  0  0  0  0  0  0  0  0  0  0
  -22.5234  -14.6863   20.9676 O   0  0  0  0  0  0  0  0  0  0  0  0
  -29.2215   -9.8974   16.3692 O   0  0  0  0  0  0  0  0  0  0  0  0
  -31.1477   -6.9363   15.0590 O   0  0  0  0  0  0  0  0  0  0  0  0
  -35.3394   -8.8262   16.2329 O   0  0  0  0  0  0  0  0  0  0  0  0
  -30.6622  -12.7808   22.7222 O   0  0  0  0  0  0  0  0  0  0  0  0
  -21.6866   -6.9735   21.5980 O   0  0  0  0  0  0  0  0  0  0  0  0
  -33.0488  -15.1884   15.4413 O   0  0  0  0  0  0  0  0  0  1  0  0
  -33.2296  -16.7999   18.7082 O   0  0  0  0  0  0  0  0  0  0  0  0
  -16.8483   -6.4955   18.9967 F   0  0  0  0  0  0  0  0  0  0  0  0
  -21.2314   -4.9081   19.8176 F   0  0  0  0  0  0  0  0  0  0  0  0
  1  2  1  0  0  0  0
  1  5  2  0  0  0  0
  2  6  2  0  0  0  0
  3  8  2  0  0  0  0
  3 15  1  0  0  0  0
  4  9  1  0  0  0  0
  4 15  2  0  0  0  0
  5 17  1  0  0  0  0
  6 19  1  0  0  0  0
  7 10  2  0  0  0  0
  7 18  1  0  0  0  0
  8 21  1  0  0  0  0
  9 21  2  0  0  0  0
 10 22  1  0  0  0  0
 11 12  2  0  0  0  0
 11 23  1  0  0  0  0
 12 24  1  0  0  0  0
 13 20  1  0  0  0  0
 13 22  2  0  0  0  0
 14 24  2  0  0  0  0
 14 25  1  0  0  0  0
 15 26  1  0  0  0  0
 16 26  1  0  0  0  0
 16 27  2  0  0  0  0
 16 28  1  0  0  0  0
 17 19  2  0  0  0  0
 17 33  1  0  0  0  0
 18 20  2  0  0  0  0
 18 34  1  0  0  0  0
 19 45  1  0  0  0  0
 20 35  1  0  0  0  0
 21 79  1  0  0  0  0
 22 80  1  0  0  0  0
 23 25  2  0  0  0  0
 23 79  1  0  0  0  0
 24 82  1  0  0  0  0
 25 83  1  0  0  0  0
 26 63  2  0  0  0  0
 27 64  1  0  0  0  0
 27 67  1  0  0  0  0
 28 68  1  0  0  0  0
 28 74  2  0  0  0  0
 29 46  1  0  0  0  0
 29 69  1  0  0  0  0
 29 75  2  0  0  0  0
 30 59  1  0  0  0  0
 30 65  1  0  0  0  0
 30 76  2  0  0  0  0
 31 60  1  0  0  0  0
 31 70  1  0  0  0  0
 31 77  2  0  0  0  0
 32 66  1  0  0  0  0
 32 71  1  0  0  0  0
 32 78  2  0  0  0  0
 33 36  1  0  0  0  0
 34 46  1  0  0  0  0
 35 65  1  0  0  0  0
 36 39  1  0  0  0  0
 37 40  1  0  0  0  0
 37 42  1  0  0  0  0
 38 41  1  0  0  0  0
 38 44  1  0  0  0  0
 39 45  1  0  0  0  0
 40 47  1  0  0  0  0
 41 48  1  0  0  0  0
 42 66  1  0  0  0  0
 43 47  1  0  0  0  0
 43 66  1  0  0  0  0
 44 72  1  0  0  0  0
 45 69  1  0  0  0  0
 46 65  1  0  0  0  0
 47 64  1  0  0  0  0
 48 55  1  0  0  0  0
 48 72  1  0  0  0  0
 49 60  1  0  0  0  0
 50 61  1  0  0  0  0
 51 62  1  0  0  0  0
 52 62  1  0  0  0  0
 53 62  1  0  0  0  0
 54 73  1  0  0  0  0
 55 81  1  0  0  0  0
 56 57  1  0  0  0  0
 56 71  1  0  0  0  0
 57 72  1  0  0  0  0
 58 61  1  0  0  0  0
 58 80  1  0  0  0  0
 59 62  1  0  0  0  0
 59 70  1  0  0  0  0
 60 73  1  0  0  0  0
 61 81  1  0  0  0  0
 63 64  1  0  0  0  0
M  CHG  2  72   1  73   1
M  ISO  4  32 100  58 101  71 100  80 101
M  END
> <Batch ID>
0123

> <Smiles>
CNC(C)C(=O)NC(C(=O)N1Cc2cc([101O:1][101CH2:1]C(C)OCC3CCCN3CC[100NH:0][100C:0](=O)N3CCCC(n4nc(-c5ccc(Oc6ccc(F)cc6F)cc5)c(C(N)=O)c4N)C3)ccc2CC1C(=O)NC1CCCc2ccccc21)C(C)(C)C

> <Shape>
0.120

> <Color>
0.170

> <Negative vol penalty>
0.000

$$$$

  -OEChem-04052320303D

 87 95  0     1  0  0  0  0  0999 V2000
  -25.9170  -37.7832   18.9823 C   0  0  0  0  0  0  0  0  0  0  0  0
  -26.5797  -36.8378   19.7585 C   0  0  0  0  0  0  0  0  0  0  0  0
  -23.4651  -10.1952   22.4042 C   0  0  0  0  0  0  0  0  0  0  0  0
  -23.2741  -10.0268   20.0017 C   0  0  0  0  0  0  0  0  0  0  0  0
  -24.5244  -37.8484   19.0033 C   0  0  0  0  0  0  0  0  0  0  0  0
  -25.8502  -35.9577   20.5571 C   0  0  0  0  0  0  0  0  0  0  0  0
  -26.4212  -28.8285   19.6972 C   0  0  0  0  0  0  0  0  0  0  0  0
  -22.5597   -9.1442   22.5499 C   0  0  0  0  0  0  0  0  0  0  0  0
  -22.3687   -8.9758   20.1473 C   0  0  0  0  0  0  0  0  0  0  0  0
  -26.6346  -27.4504   19.7357 C   0  0  0  0  0  0  0  0  0  0  0  0
  -22.6037   -5.7703   22.3323 C   0  0  0  0  0  0  0  0  0  0  0  0
  -22.9137   -4.7707   23.2544 C   0  0  0  0  0  0  0  0  0  0  0  0
  -24.9421  -27.2254   21.4482 C   0  0  0  0  0  0  0  0  0  0  0  0
  -20.8862   -5.2648   24.4718 C   0  0  0  0  0  0  0  0  0  0  0  0
  -23.8223  -10.6366   21.1301 C   0  0  0  0  0  0  0  0  0  0  0  0
  -24.6176  -13.0377   21.4615 C   0  0  0  0  0  0  0  0  0  0  0  0
  -23.7771  -36.9623   19.7952 C   0  0  0  0  0  0  0  0  0  0  0  0
  -25.4554  -29.4090   20.5241 C   0  0  0  0  0  0  0  0  0  0  0  0
  -24.4464  -36.0120   20.5898 C   0  0  0  0  0  0  0  0  0  0  0  0
  -24.7151  -28.6036   21.4051 C   0  0  0  0  0  0  0  0  0  0  0  0
  -22.0115   -8.5345   21.4215 C   0  0  0  0  0  0  0  0  0  0  0  0
  -25.8970  -26.6509   20.6093 C   0  0  0  0  0  0  0  0  0  0  0  0
  -21.4349   -6.5172   22.4800 C   0  0  0  0  0  0  0  0  0  0  0  0
  -22.0550   -4.5179   24.3241 C   0  0  0  0  0  0  0  0  0  0  0  0
  -20.5762   -6.2645   23.5497 C   0  0  0  0  0  0  0  0  0  0  0  0
  -24.7571  -11.7226   20.9789 C   0  0  0  0  0  0  0  0  0  0  0  0
  -25.7659  -13.6747   21.0590 C   0  0  0  0  0  0  0  0  0  0  0  0
  -23.5459  -13.6304   22.2070 C   0  0  0  0  0  0  0  0  0  0  0  0
  -23.7025  -32.5412   21.6159 C   0  0  0  0  0  0  0  0  0  0  0  0
  -21.5707  -30.3424   21.4396 C   0  0  0  0  0  0  0  0  0  0  0  0
  -19.4695  -27.7541   20.7164 C   0  0  0  0  0  0  0  0  0  0  0  0
  -31.3088  -13.7703   20.4168 C   0  0  0  0  0  0  0  0  0  0  0  0
  -22.2756  -37.1021   19.8215 C   0  0  0  0  0  0  0  0  0  0  0  0
  -25.2349  -30.8969   20.5602 C   0  0  0  0  0  0  0  0  0  0  0  0
  -23.7111  -29.2761   22.3010 C   0  0  0  0  0  0  0  0  0  0  0  0
  -21.5609  -35.8871   20.4075 C   0  0  0  0  0  0  0  0  0  0  0  0
  -29.3939  -12.2080   17.8538 C   0  0  0  0  0  0  0  0  0  0  0  0
  -22.2358  -35.4436   21.7016 C   0  0  0  0  0  0  0  0  0  0  0  0
  -28.0079  -12.0454   18.4803 C   0  0  0  0  0  0  0  0  0  0  0  0
  -30.5052  -12.0010   18.8806 C   0  0  0  0  0  0  0  0  0  0  0  0
  -29.0066  -12.6725   20.7182 C   0  0  0  0  0  0  0  0  0  0  0  0
  -32.7386  -17.9475   21.8948 C   0  0  0  0  0  0  0  0  0  0  0  0
  -30.0662  -18.7059   21.1314 C   0  0  0  0  0  0  0  0  0  0  0  0
  -23.6891  -35.0238   21.4500 C   0  0  1  0  0  0  0  0  0  0  0  0
  -23.7644  -31.2833   20.8002 C   0  0  1  0  0  0  0  0  0  0  0  0
  -27.8523  -12.9273   19.7339 C   0  0  2  0  0  0  0  0  0  0  0  0
  -31.0927  -19.7257   21.6443 C   0  0  2  0  0  0  0  0  0  0  0  0
  -31.7524  -16.8984   21.3793 C   0  0  1  0  0  0  0  0  0  0  0  0
  -17.0412  -27.1215   20.7444 C   0  0  0  0  0  0  0  0  0  0  0  0
  -29.3295  -21.7408   22.9714 C   0  0  0  0  0  0  0  0  0  0  0  0
  -34.8565  -19.7506   21.3252 C   0  0  0  0  0  0  0  0  0  0  0  0
  -33.4131  -20.3118   23.3120 C   0  0  0  0  0  0  0  0  0  0  0  0
  -21.6967  -30.0071   24.4687 C   0  0  0  0  0  0  0  0  0  0  0  0
  -19.6819  -28.5285   24.3177 C   0  0  0  0  0  0  0  0  0  0  0  0
  -19.5312  -30.9153   23.6084 C   0  0  0  0  0  0  0  0  0  0  0  0
  -19.4329  -27.3070   17.7911 C   0  0  0  0  0  0  0  0  0  0  0  0
  -30.7542  -21.0868   21.0203 C   0  0  0  0  0  0  0  0  0  0  0  0
  -31.9676  -15.5389   22.0284 C   0  0  0  0  0  0  0  0  0  0  0  0
  -27.6809  -23.5427   21.0609 C   0  0  0  0  0  0  0  0  0  0  0  0
  -29.0837  -23.0034   20.7723 C   0  0  0  0  0  0  0  0  0  0  0  0
  -27.4203  -24.8474   20.3188 C   0  0  0  0  0  0  0  0  0  1  0  0
  -20.7960  -29.2706   22.1638 C   0  0  1  0  0  0  0  0  0  0  0  0
  -18.1804  -27.6961   19.9168 C   0  0  2  0  0  0  0  0  0  0  0  0
  -29.3783  -21.6447   21.4419 C   0  0  2  0  0  0  0  0  0  0  0  0
  -33.4879  -20.2221   21.7948 C   0  0  0  0  0  0  0  0  0  0  0  0
  -20.4500  -29.6743   23.6249 C   0  0  0  0  0  0  0  0  0  0  0  0
  -25.9035  -11.5340   20.3201 N   0  0  0  0  0  0  0  0  0  0  0  0
  -26.4949  -12.7390   20.3857 N   0  0  0  0  0  0  0  0  0  0  0  0
  -22.9661  -30.2948   21.5449 N   0  0  0  0  0  0  0  0  0  0  0  0
  -30.2995  -12.8676   20.0436 N   0  0  0  0  0  0  0  0  0  0  0  0
  -32.4682  -19.2804   21.3242 N   0  0  1  0  0  0  0  0  0  0  0  0
  -26.2131  -14.9384   21.2187 N   0  0  0  0  0  0  0  0  0  0  0  0
  -22.4957  -14.2343   21.5022 N   0  0  0  0  0  0  0  0  0  0  0  0
  -23.7390  -33.7009   20.8654 N   0  0  0  0  0  0  0  0  0  0  0  0
  -19.6329  -28.9762   21.3338 N   0  0  0  0  0  0  0  0  0  0  0  0
  -31.0304  -14.5588   21.5265 N   0  0  0  0  0  0  0  0  0  0  0  0
  -30.3677  -17.3625   21.7016 N   0  3  0  0  0  0  0  0  0  0  0  0
  -18.3590  -26.8439   18.7073 N   0  3  0  0  0  0  0  0  0  0  0  0
  -23.5284  -13.6391   23.4613 O   0  0  0  0  0  0  0  0  0  0  0  0
  -23.6255  -32.4665   22.8367 O   0  0  0  0  0  0  0  0  0  0  0  0
  -20.9576  -31.2029   20.8017 O   0  0  0  0  0  0  0  0  0  0  0  0
  -20.2512  -26.8086   20.7894 O   0  0  0  0  0  0  0  0  0  0  0  0
  -32.3767  -13.8702   19.8031 O   0  0  0  0  0  0  0  0  0  0  0  0
  -21.1281   -7.5088   21.5632 O   0  0  0  0  0  0  0  0  0  0  0  0
  -26.1072  -25.3057   20.6385 O   0  0  0  0  0  0  0  0  0  1  0  0
  -22.3520   -3.5569   25.2086 F   0  0  0  0  0  0  0  0  0  0  0  0
  -19.4513   -6.9780   23.6961 F   0  0  0  0  0  0  0  0  0  0  0  0
  1  2  1  0  0  0  0
  1  5  2  0  0  0  0
  2  6  2  0  0  0  0
  3  8  2  0  0  0  0
  3 15  1  0  0  0  0
  4  9  1  0  0  0  0
  4 15  2  0  0  0  0
  5 17  1  0  0  0  0
  6 19  1  0  0  0  0
  7 10  2  0  0  0  0
  7 18  1  0  0  0  0
  8 21  1  0  0  0  0
  9 21  2  0  0  0  0
 10 22  1  0  0  0  0
 11 12  2  0  0  0  0
 11 23  1  0  0  0  0
 12 24  1  0  0  0  0
 13 20  1  0  0  0  0
 13 22  2  0  0  0  0
 14 24  2  0  0  0  0
 14 25  1  0  0  0  0
 15 26  1  0  0  0  0
 16 26  1  0  0  0  0
 16 27  2  0  0  0  0
 16 28  1  0  0  0  0
 17 19  2  0  0  0  0
 17 33  1  0  0  0  0
 18 20  2  0  0  0  0
 18 34  1  0  0  0  0
 19 44  1  0  0  0  0
 20 35  1  0  0  0  0
 21 84  1  0  0  0  0
 22 85  1  0  0  0  0
 23 25  2  0  0  0  0
 23 84  1  0  0  0  0
 24 86  1  0  0  0  0
 25 87  1  0  0  0  0
 26 67  2  0  0  0  0
 27 68  1  0  0  0  0
 27 72  1  0  0  0  0
 28 73  1  0  0  0  0
 28 79  2  0  0  0  0
 29 45  1  0  0  0  0
 29 74  1  0  0  0  0
 29 80  2  0  0  0  0
 30 62  1  0  0  0  0
 30 69  1  0  0  0  0
 30 81  2  0  0  0  0
 31 63  1  0  0  0  0
 31 75  1  0  0  0  0
 31 82  2  0  0  0  0
 32 70  1  0  0  0  0
 32 76  1  0  0  0  0
 32 83  2  0  0  0  0
 33 36  1  0  0  0  0
 34 45  1  0  0  0  0
 35 69  1  0  0  0  0
 36 38  1  0  0  0  0
 37 39  1  0  0  0  0
 37 40  1  0  0  0  0
 38 44  1  0  0  0  0
 39 46  1  0  0  0  0
 40 70  1  0  0  0  0
 41 46  1  0  0  0  0
 41 70  1  0  0  0  0
 42 48  1  0  0  0  0
 42 71  1  0  0  0  0
 43 47  1  0  0  0  0
 43 77  1  0  0  0  0
 44 74  1  0  0  0  0
 45 69  1  0  0  0  0
 46 68  1  0  0  0  0
 47 57  1  0  0  0  0
 47 71  1  0  0  0  0
 48 58  1  0  0  0  0
 48 77  1  0  0  0  0
 49 63  1  0  0  0  0
 50 64  1  0  0  0  0
 51 65  1  0  0  0  0
 52 65  1  0  0  0  0
 53 66  1  0  0  0  0
 54 66  1  0  0  0  0
 55 66  1  0  0  0  0
 56 78  1  0  0  0  0
 57 64  1  0  0  0  0
 58 76  1  0  0  0  0
 59 60  1  0  0  0  0
 59 61  1  0  0  0  0
 60 64  1  0  0  0  0
 61 85  1  0  0  0  0
 62 66  1  0  0  0  0
 62 75  1  0  0  0  0
 63 78  1  0  0  0  0
 65 71  1  0  0  0  0
 67 68  1  0  0  0  0
M  CHG  2  77   1  78   1
M  ISO  4  32 100  61 101  76 100  85 101
M  END
> <Batch ID>
0123

> <Smiles>
CNC(C)C(=O)NC(C(=O)N1Cc2cc([101O:1][101CH2:1]CCC(C)CC3CNC(C[100NH:0][100C:0](=O)N4CCCC(n5nc(-c6ccc(Oc7ccc(F)cc7F)cc6)c(C(N)=O)c5N)C4)CN3C(C)C)ccc2CC1C(=O)NC1CCCc2ccccc21)C(C)(C)C

> <Shape>
0.315

> <Color>
0.145

> <Negative vol penalty>
0.000

$$$$

  -OEChem-04052320303D

 83 91  0     1  0  0  0  0  0999 V2000
  -14.7492  -25.1065   18.9668 C   0  0  0  0  0  0  0  0  0  0  0  0
  -15.8040  -24.2886   19.3589 C   0  0  0  0  0  0  0  0  0  0  0  0
  -23.0000   -9.8912   19.9854 C   0  0  0  0  0  0  0  0  0  0  0  0
  -23.7242   -9.9523   22.2895 C   0  0  0  0  0  0  0  0  0  0  0  0
  -14.9459  -26.4805   18.8346 C   0  0  0  0  0  0  0  0  0  0  0  0
  -17.0565  -24.8441   19.6179 C   0  0  0  0  0  0  0  0  0  0  0  0
  -21.0969  -23.0075   23.8379 C   0  0  0  0  0  0  0  0  0  0  0  0
  -22.2343   -8.7572   20.2561 C   0  0  0  0  0  0  0  0  0  0  0  0
  -22.9584   -8.8183   22.5603 C   0  0  0  0  0  0  0  0  0  0  0  0
  -22.2339  -22.2043   23.7610 C   0  0  0  0  0  0  0  0  0  0  0  0
  -23.2056   -5.4777   22.1023 C   0  0  0  0  0  0  0  0  0  0  0  0
  -23.7936   -4.4641   22.8589 C   0  0  0  0  0  0  0  0  0  0  0  0
  -23.6076  -24.1777   23.5675 C   0  0  0  0  0  0  0  0  0  0  0  0
  -22.0688   -4.7125   24.5323 C   0  0  0  0  0  0  0  0  0  0  0  0
  -23.7450  -10.4887   21.0021 C   0  0  0  0  0  0  0  0  0  0  0  0
  -24.1284  -13.0039   20.8158 C   0  0  0  0  0  0  0  0  0  0  0  0
  -16.1989  -27.0543   19.1015 C   0  0  0  0  0  0  0  0  0  0  0  0
  -21.2059  -24.4038   23.7691 C   0  0  0  0  0  0  0  0  0  0  0  0
  -17.2705  -26.2268   19.4879 C   0  0  0  0  0  0  0  0  0  0  0  0
  -22.4708  -24.9965   23.6463 C   0  0  0  0  0  0  0  0  0  0  0  0
  -22.2134   -8.2208   21.5435 C   0  0  0  0  0  0  0  0  0  0  0  0
  -23.4892  -22.7892   23.6229 C   0  0  0  0  0  0  0  0  0  0  0  0
  -22.0492   -6.1088   22.5608 C   0  0  0  0  0  0  0  0  0  0  0  0
  -23.2252   -4.0815   24.0739 C   0  0  0  0  0  0  0  0  0  0  0  0
  -21.4808   -5.7262   23.7758 C   0  0  0  0  0  0  0  0  0  0  0  0
  -24.5367  -11.6598   20.7230 C   0  0  0  0  0  0  0  0  0  0  0  0
  -25.2378  -13.7258   20.4489 C   0  0  0  0  0  0  0  0  0  0  0  0
  -22.8599  -13.5509   21.1995 C   0  0  0  0  0  0  0  0  0  0  0  0
  -20.1387  -26.6418   21.7800 C   0  0  0  0  0  0  0  0  0  0  0  0
  -21.4073  -28.6548   23.9848 C   0  0  0  0  0  0  0  0  0  0  0  0
  -23.6562  -29.1469   26.5042 C   0  0  0  0  0  0  0  0  0  0  0  0
  -30.7333  -14.6658   20.6959 C   0  0  0  0  0  0  0  0  0  0  0  0
  -16.3757  -28.5384   18.8991 C   0  0  0  0  0  0  0  0  0  0  0  0
  -19.9724  -25.2573   23.8804 C   0  0  0  0  0  0  0  0  0  0  0  0
  -22.6437  -26.4916   23.5881 C   0  0  0  0  0  0  0  0  0  0  0  0
  -17.6360  -29.0968   19.5550 C   0  0  0  0  0  0  0  0  0  0  0  0
  -29.5955  -12.2316   18.3600 C   0  0  0  0  0  0  0  0  0  0  0  0
  -18.8373  -28.2096   19.2442 C   0  0  0  0  0  0  0  0  0  0  0  0
  -29.5484  -20.4738   22.4514 C   0  0  0  0  0  0  0  0  0  0  0  0
  -27.9641  -19.2919   20.8797 C   0  0  0  0  0  0  0  0  0  0  0  0
  -30.5288  -19.3077   22.3398 C   0  0  0  0  0  0  0  0  0  0  0  0
  -28.9448  -18.1260   20.7680 C   0  0  0  0  0  0  0  0  0  0  0  0
  -28.1471  -11.9724   18.7781 C   0  0  0  0  0  0  0  0  0  0  0  0
  -30.4972  -12.4727   19.5687 C   0  0  0  0  0  0  0  0  0  0  0  0
  -28.5859  -13.2722   20.9033 C   0  0  0  0  0  0  0  0  0  0  0  0
  -18.6375  -26.7952   19.8018 C   0  0  1  0  0  0  0  0  0  0  0  0
  -20.1528  -26.6492   23.2825 C   0  0  1  0  0  0  0  0  0  0  0  0
  -28.6836  -20.6102   21.1917 C   0  0  0  0  0  0  0  0  0  0  0  0
  -29.8089  -17.9896   22.0279 C   0  0  0  0  0  0  0  0  0  0  0  0
  -27.6275  -13.0788   19.7157 C   0  0  2  0  0  0  0  0  0  0  0  0
  -24.4860  -30.9077   28.0879 C   0  0  0  0  0  0  0  0  0  0  0  0
  -27.2344  -22.2405   19.9686 C   0  0  0  0  0  0  0  0  0  0  0  0
  -31.6159  -16.6479   23.1495 C   0  0  0  0  0  0  0  0  0  0  0  0
  -22.9666  -29.9618   21.7108 C   0  0  0  0  0  0  0  0  0  0  0  0
  -24.4429  -31.0278   23.4290 C   0  0  0  0  0  0  0  0  0  0  0  0
  -22.0073  -31.5643   23.3740 C   0  0  0  0  0  0  0  0  0  0  0  0
  -22.8391  -27.5683   28.8705 C   0  0  0  0  0  0  0  0  0  0  0  0
  -26.4496  -21.3359   22.1749 C   0  0  0  0  0  0  0  0  0  0  0  0
  -25.6986  -22.5117   22.7878 C   0  0  0  0  0  0  0  0  0  1  0  0
  -22.7583  -29.2945   24.1963 C   0  0  1  0  0  0  0  0  0  0  0  0
  -23.5051  -29.7638   27.8830 C   0  0  2  0  0  0  0  0  0  0  0  0
  -27.6780  -21.7491   21.3484 C   0  0  1  0  0  0  0  0  0  0  0  0
  -30.8138  -16.8497   21.8721 C   0  0  1  0  0  0  0  0  0  0  0  0
  -23.0407  -30.4338   23.1767 C   0  0  0  0  0  0  0  0  0  0  0  0
  -25.8062  -11.5327   20.3279 N   0  0  0  0  0  0  0  0  0  0  0  0
  -26.2053  -12.8061   20.1691 N   0  0  0  0  0  0  0  0  0  0  0  0
  -21.4069  -27.2831   23.6946 N   0  0  0  0  0  0  0  0  0  0  0  0
  -29.9492  -13.5345   20.4161 N   0  0  0  0  0  0  0  0  0  0  0  0
  -25.4702  -15.0513   20.3415 N   0  0  0  0  0  0  0  0  0  0  0  0
  -21.8286  -12.6673   21.5463 N   0  0  0  0  0  0  0  0  0  0  0  0
  -18.8788  -26.7756   21.2286 N   0  0  0  0  0  0  0  0  0  0  0  0
  -22.7950  -29.7187   25.5917 N   0  0  0  0  0  0  0  0  0  0  0  0
  -30.1358  -15.6275   21.5015 N   0  0  0  0  0  0  0  0  0  0  0  0
  -23.7498  -28.7401   28.9381 N   0  3  0  0  0  0  0  0  0  0  0  0
  -22.6422  -14.7861   21.2181 O   0  0  0  0  0  0  0  0  0  0  0  0
  -21.1930  -26.5250   21.1665 O   0  0  0  0  0  0  0  0  0  0  0  0
  -20.3896  -29.3452   24.0807 O   0  0  0  0  0  0  0  0  0  0  0  0
  -24.4604  -28.2501   26.2601 O   0  0  0  0  0  0  0  0  0  0  0  0
  -31.8788  -14.8108   20.2557 O   0  0  0  0  0  0  0  0  0  0  0  0
  -21.4661   -7.1144   21.8081 O   0  0  0  0  0  0  0  0  0  0  0  0
  -24.6005  -22.0075   23.5469 O   0  0  0  0  0  0  0  0  0  1  0  0
  -23.7891   -3.1070   24.7996 F   0  0  0  0  0  0  0  0  0  0  0  0
  -20.3692   -6.3280   24.2208 F   0  0  0  0  0  0  0  0  0  0  0  0
  1  2  1  0  0  0  0
  1  5  2  0  0  0  0
  2  6  2  0  0  0  0
  3  8  2  0  0  0  0
  3 15  1  0  0  0  0
  4  9  1  0  0  0  0
  4 15  2  0  0  0  0
  5 17  1  0  0  0  0
  6 19  1  0  0  0  0
  7 10  2  0  0  0  0
  7 18  1  0  0  0  0
  8 21  1  0  0  0  0
  9 21  2  0  0  0  0
 10 22  1  0  0  0  0
 11 12  2  0  0  0  0
 11 23  1  0  0  0  0
 12 24  1  0  0  0  0
 13 20  1  0  0  0  0
 13 22  2  0  0  0  0
 14 24  2  0  0  0  0
 14 25  1  0  0  0  0
 15 26  1  0  0  0  0
 16 26  1  0  0  0  0
 16 27  2  0  0  0  0
 16 28  1  0  0  0  0
 17 19  2  0  0  0  0
 17 33  1  0  0  0  0
 18 20  2  0  0  0  0
 18 34  1  0  0  0  0
 19 46  1  0  0  0  0
 20 35  1  0  0  0  0
 21 80  1  0  0  0  0
 22 81  1  0  0  0  0
 23 25  2  0  0  0  0
 23 80  1  0  0  0  0
 24 82  1  0  0  0  0
 25 83  1  0  0  0  0
 26 65  2  0  0  0  0
 27 66  1  0  0  0  0
 27 69  1  0  0  0  0
 28 70  1  0  0  0  0
 28 75  2  0  0  0  0
 29 47  1  0  0  0  0
 29 71  1  0  0  0  0
 29 76  2  0  0  0  0
 30 60  1  0  0  0  0
 30 67  1  0  0  0  0
 30 77  2  0  0  0  0
 31 61  1  0  0  0  0
 31 72  1  0  0  0  0
 31 78  2  0  0  0  0
 32 68  1  0  0  0  0
 32 73  1  0  0  0  0
 32 79  2  0  0  0  0
 33 36  1  0  0  0  0
 34 47  1  0  0  0  0
 35 67  1  0  0  0  0
 36 38  1  0  0  0  0
 37 43  1  0  0  0  0
 37 44  1  0  0  0  0
 38 46  1  0  0  0  0
 39 41  1  0  0  0  0
 39 48  1  0  0  0  0
 40 42  1  0  0  0  0
 40 48  1  0  0  0  0
 41 49  1  0  0  0  0
 42 49  1  0  0  0  0
 43 50  1  0  0  0  0
 44 68  1  0  0  0  0
 45 50  1  0  0  0  0
 45 68  1  0  0  0  0
 46 71  1  0  0  0  0
 47 67  1  0  0  0  0
 48 62  1  0  0  0  0
 49 63  1  0  0  0  0
 50 66  1  0  0  0  0
 51 61  1  0  0  0  0
 52 62  1  0  0  0  0
 53 63  1  0  0  0  0
 54 64  1  0  0  0  0
 55 64  1  0  0  0  0
 56 64  1  0  0  0  0
 57 74  1  0  0  0  0
 58 59  1  0  0  0  0
 58 62  1  0  0  0  0
 59 81  1  0  0  0  0
 60 64  1  0  0  0  0
 60 72  1  0  0  0  0
 61 74  1  0  0  0  0
 63 73  1  0  0  0  0
 65 66  1  0  0  0  0
M  CHG  1  74   1
M  ISO  4  32 100  59 101  73 100  81 101
M  END
> <Batch ID>
0123

> <Smiles>
CNC(C)C(=O)NC(C(=O)N1Cc2cc([101O:1][101CH2:1]CC(C)C3CCC(C(C)[100NH:0][100C:0](=O)N4CCCC(n5nc(-c6ccc(Oc7ccc(F)cc7F)cc6)c(C(N)=O)c5N)C4)CC3)ccc2CC1C(=O)NC1CCCc2ccccc21)C(C)(C)C

> <Shape>
0.292

> <Color>
0.202

> <Negative vol penalty>
0.000

$$$$

  -OEChem-04052320303D

 82 90  0     1  0  0  0  0  0999 V2000
  -24.5197  -30.5784   17.7120 C   0  0  0  0  0  0  0  0  0  0  0  0
  -23.8708  -29.3676   17.4927 C   0  0  0  0  0  0  0  0  0  0  0  0
  -30.6476  -20.0165   19.6270 C   0  0  0  0  0  0  0  0  0  0  0  0
  -28.3533  -19.7302   20.3282 C   0  0  0  0  0  0  0  0  0  0  0  0
  -25.5396  -30.6599   18.6591 C   0  0  0  0  0  0  0  0  0  0  0  0
  -24.2421  -28.2371   18.2197 C   0  0  0  0  0  0  0  0  0  0  0  0
  -21.4842  -22.2547   21.0342 C   0  0  0  0  0  0  0  0  0  0  0  0
  -22.2537  -16.1421   22.4580 C   0  0  0  0  0  0  0  0  0  0  0  0
  -22.5800  -14.7964   22.6260 C   0  0  0  0  0  0  0  0  0  0  0  0
  -30.3371  -21.2813   19.1276 C   0  0  0  0  0  0  0  0  0  0  0  0
  -28.0429  -20.9951   19.8288 C   0  0  0  0  0  0  0  0  0  0  0  0
  -21.6900  -20.8759   21.0464 C   0  0  0  0  0  0  0  0  0  0  0  0
  -29.8522  -24.3942   20.3555 C   0  0  0  0  0  0  0  0  0  0  0  0
  -30.7289  -25.4392   20.6467 C   0  0  0  0  0  0  0  0  0  0  0  0
  -23.4119  -21.1538   22.7129 C   0  0  0  0  0  0  0  0  0  0  0  0
  -22.8716  -16.0008   20.1266 C   0  0  0  0  0  0  0  0  0  0  0  0
  -31.1068  -25.7804   18.2850 C   0  0  0  0  0  0  0  0  0  0  0  0
  -29.6556  -19.2409   20.2273 C   0  0  0  0  0  0  0  0  0  0  0  0
  -30.9119  -17.6221   21.7468 C   0  0  0  0  0  0  0  0  0  0  0  0
  -25.9171  -29.5321   19.4050 C   0  0  0  0  0  0  0  0  0  0  0  0
  -22.2495  -23.0959   21.8547 C   0  0  0  0  0  0  0  0  0  0  0  0
  -25.2690  -28.3032   19.1768 C   0  0  0  0  0  0  0  0  0  0  0  0
  -23.2120  -22.5427   22.7111 C   0  0  0  0  0  0  0  0  0  0  0  0
  -22.3994  -16.7443   21.2082 C   0  0  0  0  0  0  0  0  0  0  0  0
  -23.0522  -14.0529   21.5444 C   0  0  0  0  0  0  0  0  0  0  0  0
  -29.0348  -21.7706   19.2285 C   0  0  0  0  0  0  0  0  0  0  0  0
  -22.6560  -20.3255   21.8838 C   0  0  0  0  0  0  0  0  0  0  0  0
  -29.6028  -24.0421   19.0290 C   0  0  0  0  0  0  0  0  0  0  0  0
  -23.1980  -14.6551   20.2947 C   0  0  0  0  0  0  0  0  0  0  0  0
  -31.3562  -26.1324   19.6115 C   0  0  0  0  0  0  0  0  0  0  0  0
  -30.2301  -24.7353   17.9937 C   0  0  0  0  0  0  0  0  0  0  0  0
  -29.9756  -17.9341   20.7429 C   0  0  0  0  0  0  0  0  0  0  0  0
  -30.8405  -16.2560   21.8703 C   0  0  0  0  0  0  0  0  0  0  0  0
  -31.7694  -18.4896   22.5003 C   0  0  0  0  0  0  0  0  0  0  0  0
  -24.2997  -25.4702   21.3418 C   0  0  0  0  0  0  0  0  0  0  0  0
  -24.2010  -25.7337   24.5734 C   0  0  0  0  0  0  0  0  0  0  0  0
  -23.6018  -24.2438   27.5847 C   0  0  0  0  0  0  0  0  0  0  0  0
  -26.5284  -12.2746   20.6851 C   0  0  0  0  0  0  0  0  0  0  0  0
  -27.0573  -29.6578   20.3842 C   0  0  0  0  0  0  0  0  0  0  0  0
  -21.9968  -24.5787   21.8493 C   0  0  0  0  0  0  0  0  0  0  0  0
  -24.0460  -23.4004   23.6261 C   0  0  0  0  0  0  0  0  0  0  0  0
  -27.1364  -28.5023   21.3786 C   0  0  0  0  0  0  0  0  0  0  0  0
  -29.8292  -12.3162   19.3512 C   0  0  0  0  0  0  0  0  0  0  0  0
  -26.9898  -27.1663   20.6572 C   0  0  0  0  0  0  0  0  0  0  0  0
  -30.3255  -13.7326   19.6472 C   0  0  0  0  0  0  0  0  0  0  0  0
  -28.3432  -12.3009   18.9993 C   0  0  0  0  0  0  0  0  0  0  0  0
  -27.9618  -14.3680   20.2860 C   0  0  0  0  0  0  0  0  0  0  0  0
  -25.6265  -27.0607   19.9632 C   0  0  1  0  0  0  0  0  0  0  0  0
  -23.1882  -25.3897   22.3496 C   0  0  1  0  0  0  0  0  0  0  0  0
  -29.4420  -14.4276   20.7005 C   0  0  2  0  0  0  0  0  0  0  0  0
  -23.6424  -24.7015   30.0518 C   0  0  0  0  0  0  0  0  0  0  0  0
  -27.2458  -25.5370   24.5574 C   0  0  0  0  0  0  0  0  0  0  0  0
  -27.1574  -25.0450   27.0106 C   0  0  0  0  0  0  0  0  0  0  0  0
  -26.3182  -27.2298   26.1474 C   0  0  0  0  0  0  0  0  0  0  0  0
  -20.7049  -23.6998   27.8509 C   0  0  0  0  0  0  0  0  0  0  0  0
  -23.7749  -14.6377   17.9876 C   0  0  0  0  0  0  0  0  0  0  0  0
  -23.3979  -12.6143   21.7432 C   0  0  0  0  0  0  0  0  0  0  0  0
  -22.0476  -18.1917   21.0278 C   0  0  0  0  0  0  0  0  0  1  0  0
  -24.7568  -12.3983   22.4187 C   0  0  0  0  0  0  0  0  0  0  0  0
  -24.9764  -25.1301   25.7195 C   0  0  1  0  0  0  0  0  0  0  0  0
  -22.7951  -24.6949   28.7890 C   0  0  2  0  0  0  0  0  0  0  0  0
  -26.4102  -25.7192   25.8402 C   0  0  0  0  0  0  0  0  0  0  0  0
  -29.3550  -16.8532   20.2627 N   0  0  0  0  0  0  0  0  0  0  0  0
  -29.9025  -15.8486   20.9679 N   0  0  0  0  0  0  0  0  0  0  0  0
  -23.7659  -24.8451   23.5800 N   0  0  0  0  0  0  0  0  0  0  0  0
  -27.5611  -12.9740   20.0391 N   0  0  0  0  0  0  0  0  0  0  0  0
  -31.4892  -15.3756   22.6617 N   0  0  0  0  0  0  0  0  0  0  0  0
  -31.2919  -19.0170   23.7078 N   0  0  0  0  0  0  0  0  0  0  0  0
  -24.5910  -26.7557   20.9270 N   0  0  0  0  0  0  0  0  0  0  0  0
  -24.1533  -25.3124   26.9101 N   0  0  0  0  0  0  0  0  0  0  0  0
  -25.8409  -12.9841   21.6623 N   0  0  0  0  0  0  0  0  0  0  0  0
  -21.6353  -23.7844   29.0060 N   0  3  0  0  0  0  0  0  0  0  0  0
  -32.9188  -18.8012   22.1061 O   0  0  0  0  0  0  0  0  0  0  0  0
  -24.8532  -24.4423   20.9693 O   0  0  0  0  0  0  0  0  0  0  0  0
  -23.9829  -26.9478   24.5638 O   0  0  0  0  0  0  0  0  0  0  0  0
  -23.7330  -23.0615   27.2758 O   0  0  0  0  0  0  0  0  0  0  0  0
  -26.2438  -11.1028   20.4151 O   0  0  0  0  0  0  0  0  0  0  0  0
  -28.7316  -23.0049   18.7414 O   0  0  0  0  0  0  0  0  0  0  0  0
  -23.6567  -13.9430   19.2275 O   0  0  0  0  0  0  0  0  0  0  0  0
  -22.8594  -18.9800   21.8972 O   0  0  0  0  0  0  0  0  0  1  0  0
  -32.1968  -27.1369   19.8913 F   0  0  0  0  0  0  0  0  0  0  0  0
  -29.9936  -24.4025   16.7174 F   0  0  0  0  0  0  0  0  0  0  0  0
  1  2  1  0  0  0  0
  1  5  2  0  0  0  0
  2  6  2  0  0  0  0
  3 10  2  0  0  0  0
  3 18  1  0  0  0  0
  4 11  1  0  0  0  0
  4 18  2  0  0  0  0
  5 20  1  0  0  0  0
  6 22  1  0  0  0  0
  7 12  2  0  0  0  0
  7 21  1  0  0  0  0
  8  9  2  0  0  0  0
  8 24  1  0  0  0  0
  9 25  1  0  0  0  0
 10 26  1  0  0  0  0
 11 26  2  0  0  0  0
 12 27  1  0  0  0  0
 13 14  2  0  0  0  0
 13 28  1  0  0  0  0
 14 30  1  0  0  0  0
 15 23  1  0  0  0  0
 15 27  2  0  0  0  0
 16 24  2  0  0  0  0
 16 29  1  0  0  0  0
 17 30  2  0  0  0  0
 17 31  1  0  0  0  0
 18 32  1  0  0  0  0
 19 32  1  0  0  0  0
 19 33  2  0  0  0  0
 19 34  1  0  0  0  0
 20 22  2  0  0  0  0
 20 39  1  0  0  0  0
 21 23  2  0  0  0  0
 21 40  1  0  0  0  0
 22 48  1  0  0  0  0
 23 41  1  0  0  0  0
 24 58  1  0  0  0  0
 25 29  2  0  0  0  0
 25 57  1  0  0  0  0
 26 78  1  0  0  0  0
 27 80  1  0  0  0  0
 28 31  2  0  0  0  0
 28 78  1  0  0  0  0
 29 79  1  0  0  0  0
 30 81  1  0  0  0  0
 31 82  1  0  0  0  0
 32 63  2  0  0  0  0
 33 64  1  0  0  0  0
 33 67  1  0  0  0  0
 34 68  1  0  0  0  0
 34 73  2  0  0  0  0
 35 49  1  0  0  0  0
 35 69  1  0  0  0  0
 35 74  2  0  0  0  0
 36 60  1  0  0  0  0
 36 65  1  0  0  0  0
 36 75  2  0  0  0  0
 37 61  1  0  0  0  0
 37 70  1  0  0  0  0
 37 76  2  0  0  0  0
 38 66  1  0  0  0  0
 38 71  1  0  0  0  0
 38 77  2  0  0  0  0
 39 42  1  0  0  0  0
 40 49  1  0  0  0  0
 41 65  1  0  0  0  0
 42 44  1  0  0  0  0
 43 45  1  0  0  0  0
 43 46  1  0  0  0  0
 44 48  1  0  0  0  0
 45 50  1  0  0  0  0
 46 66  1  0  0  0  0
 47 50  1  0  0  0  0
 47 66  1  0  0  0  0
 48 69  1  0  0  0  0
 49 65  1  0  0  0  0
 50 64  1  0  0  0  0
 51 61  1  0  0  0  0
 52 62  1  0  0  0  0
 53 62  1  0  0  0  0
 54 62  1  0  0  0  0
 55 72  1  0  0  0  0
 56 79  1  0  0  0  0
 57 59  1  0  0  0  0
 58 80  1  0  0  0  0
 59 71  1  0  0  0  0
 60 62  1  0  0  0  0
 60 70  1  0  0  0  0
 61 72  1  0  0  0  0
 63 64  1  0  0  0  0
M  CHG  1  72   1
M  ISO  4  38 100  58 101  71 100  80 101
M  END
> <Batch ID>
0123

> <Smiles>
CNC(C)C(=O)NC(C(=O)N1Cc2cc([101O:1][101CH2:1]c3ccc(CC[100NH:0][100C:0](=O)N4CCCC(n5nc(-c6ccc(Oc7ccc(F)cc7F)cc6)c(C(N)=O)c5N)C4)c(OC)c3)ccc2CC1C(=O)NC1CCCc2ccccc21)C(C)(C)C

> <Shape>
0.211

> <Color>
0.064

> <Negative vol penalty>
0.000

$$$$

  -OEChem-04052320303D

 85 93  0     1  0  0  0  0  0999 V2000
  -19.7662  -23.6729   20.6236 C   0  0  0  0  0  0  0  0  0  0  0  0
  -20.9628  -24.2771   20.2515 C   0  0  0  0  0  0  0  0  0  0  0  0
  -26.0462  -14.7320   21.6386 C   0  0  0  0  0  0  0  0  0  0  0  0
  -27.8559  -14.1516   20.1469 C   0  0  0  0  0  0  0  0  0  0  0  0
  -18.9646  -24.2603   21.6014 C   0  0  0  0  0  0  0  0  0  0  0  0
  -21.3580  -25.4698   20.8563 C   0  0  0  0  0  0  0  0  0  0  0  0
  -26.2491  -25.4552   22.1686 C   0  0  0  0  0  0  0  0  0  0  0  0
  -25.5325  -13.4409   21.5178 C   0  0  0  0  0  0  0  0  0  0  0  0
  -27.3422  -12.8604   20.0261 C   0  0  0  0  0  0  0  0  0  0  0  0
  -27.1811  -25.6693   21.1541 C   0  0  0  0  0  0  0  0  0  0  0  0
  -23.7156  -11.6833   19.2742 C   0  0  0  0  0  0  0  0  0  0  0  0
  -22.3418  -11.5493   19.0735 C   0  0  0  0  0  0  0  0  0  0  0  0
  -27.3862  -27.9738   21.8371 C   0  0  0  0  0  0  0  0  0  0  0  0
  -22.1683  -10.2697   21.1155 C   0  0  0  0  0  0  0  0  0  0  0  0
  -27.2079  -15.0874   20.9531 C   0  0  0  0  0  0  0  0  0  0  0  0
  -28.6699  -16.8807   22.0275 C   0  0  0  0  0  0  0  0  0  0  0  0
  -19.3548  -25.4558   22.2254 C   0  0  0  0  0  0  0  0  0  0  0  0
  -25.8698  -26.5034   23.0195 C   0  0  0  0  0  0  0  0  0  0  0  0
  -20.5601  -26.0745   21.8424 C   0  0  0  0  0  0  0  0  0  0  0  0
  -26.4510  -27.7698   22.8632 C   0  0  0  0  0  0  0  0  0  0  0  0
  -26.1805  -12.5050   20.7116 C   0  0  0  0  0  0  0  0  0  0  0  0
  -27.7477  -26.9294   20.9864 C   0  0  0  0  0  0  0  0  0  0  0  0
  -24.3158  -11.1104   20.3955 C   0  0  0  0  0  0  0  0  0  0  0  0
  -21.5681  -10.8425   19.9941 C   0  0  0  0  0  0  0  0  0  0  0  0
  -23.5421  -10.4037   21.3161 C   0  0  0  0  0  0  0  0  0  0  0  0
  -27.7387  -16.4212   21.0770 C   0  0  0  0  0  0  0  0  0  0  0  0
  -28.8454  -18.2083   21.7224 C   0  0  0  0  0  0  0  0  0  0  0  0
  -29.3184  -16.1708   23.0911 C   0  0  0  0  0  0  0  0  0  0  0  0
  -23.1408  -28.0077   23.6468 C   0  0  0  0  0  0  0  0  0  0  0  0
  -24.9226  -29.4671   25.9310 C   0  0  0  0  0  0  0  0  0  0  0  0
  -28.0110  -30.4171   27.0292 C   0  0  0  0  0  0  0  0  0  0  0  0
  -28.2284  -21.1978   16.6689 C   0  0  0  0  0  0  0  0  0  0  0  0
  -18.4322  -26.0780   23.2434 C   0  0  0  0  0  0  0  0  0  0  0  0
  -24.8830  -26.2495   24.1259 C   0  0  0  0  0  0  0  0  0  0  0  0
  -26.0929  -28.9233   23.7630 C   0  0  0  0  0  0  0  0  0  0  0  0
  -19.1047  -27.1454   24.1029 C   0  0  0  0  0  0  0  0  0  0  0  0
  -26.5557  -21.9412   19.7910 C   0  0  0  0  0  0  0  0  0  0  0  0
  -19.9157  -28.0994   23.2317 C   0  0  0  0  0  0  0  0  0  0  0  0
  -26.7643  -20.6386   20.5655 C   0  0  0  0  0  0  0  0  0  0  0  0
  -29.4811  -27.6341   17.2621 C   0  0  0  0  0  0  0  0  0  0  0  0
  -26.3105  -21.6702   18.3095 C   0  0  0  0  0  0  0  0  0  0  0  0
  -27.5855  -19.5640   18.4182 C   0  0  0  0  0  0  0  0  0  0  0  0
  -29.0214  -26.0067   15.3982 C   0  0  0  0  0  0  0  0  0  0  0  0
  -21.0350  -27.3556   22.4931 C   0  0  1  0  0  0  0  0  0  0  0  0
  -24.1866  -27.5182   24.6083 C   0  0  1  0  0  0  0  0  0  0  0  0
  -28.4459  -27.1344   16.2512 C   0  0  2  0  0  0  0  0  0  0  0  0
  -30.0362  -26.5014   18.1378 C   0  0  2  0  0  0  0  0  0  0  0  0
  -27.8607  -19.7715   19.9186 C   0  0  2  0  0  0  0  0  0  0  0  0
  -30.6039  -25.3628   17.2573 C   0  0  1  0  0  0  0  0  0  0  0  0
  -27.9739  -28.2826   15.3588 C   0  0  0  0  0  0  0  0  0  0  0  0
  -29.1460  -31.6278   28.9116 C   0  0  0  0  0  0  0  0  0  0  0  0
  -24.0053  -32.1337   24.7658 C   0  0  0  0  0  0  0  0  0  0  0  0
  -25.8622  -33.2437   26.0259 C   0  0  0  0  0  0  0  0  0  0  0  0
  -24.0562  -32.0495   27.2647 C   0  0  0  0  0  0  0  0  0  0  0  0
  -29.5623  -28.0152   27.7929 C   0  0  0  0  0  0  0  0  0  0  0  0
  -28.9916  -26.0415   19.1642 C   0  0  0  0  0  0  0  0  0  1  0  0
  -31.1344  -24.1990   18.0954 C   0  0  0  0  0  0  0  0  0  0  0  0
  -32.2791  -24.6454   18.9950 C   0  0  0  0  0  0  0  0  0  0  0  0
  -28.7566  -22.9276   14.9703 C   0  0  0  0  0  0  0  0  0  0  0  0
  -29.9696  -23.7220   15.4174 C   0  0  0  0  0  0  0  0  0  0  0  0
  -32.7832  -23.4995   19.8608 C   0  0  0  0  0  0  0  0  0  0  0  0
  -25.7784  -30.7095   25.9879 C   0  0  1  0  0  0  0  0  0  0  0  0
  -28.6856  -30.2786   28.3821 C   0  0  2  0  0  0  0  0  0  0  0  0
  -24.9310  -32.0131   25.9927 C   0  0  0  0  0  0  0  0  0  0  0  0
  -27.3497  -17.3792   20.2314 N   0  0  0  0  0  0  0  0  0  0  0  0
  -28.0397  -18.4539   20.6497 N   0  0  0  0  0  0  0  0  0  0  0  0
  -25.1185  -28.6265   24.8261 N   0  0  0  0  0  0  0  0  0  0  0  0
  -27.3990  -20.8563   17.7502 N   0  0  0  0  0  0  0  0  0  0  0  0
  -29.6086  -19.1780   22.2699 N   0  0  0  0  0  0  0  0  0  0  0  0
  -29.0240  -14.8115   23.2641 N   0  0  0  0  0  0  0  0  0  0  0  0
  -22.1410  -27.0897   23.3878 N   0  0  0  0  0  0  0  0  0  0  0  0
  -26.6446  -30.5555   27.1517 N   0  0  0  0  0  0  0  0  0  0  0  0
  -27.9819  -22.4355   16.0877 N   0  0  0  0  0  0  0  0  0  0  0  0
  -29.5311  -24.8825   16.2803 N   0  3  2  0  0  0  0  0  0  0  0  0
  -29.8731  -29.3840   28.2796 N   0  3  0  0  0  0  0  0  0  0  0  0
  -30.1223  -16.7295   23.8755 O   0  0  0  0  0  0  0  0  0  0  0  0
  -23.2333  -29.1353   23.1761 O   0  0  0  0  0  0  0  0  0  0  0  0
  -24.1153  -29.2469   26.8373 O   0  0  0  0  0  0  0  0  0  0  0  0
  -28.6343  -30.4076   25.9700 O   0  0  0  0  0  0  0  0  0  0  0  0
  -29.1263  -20.4564   16.2552 O   0  0  0  0  0  0  0  0  0  0  0  0
  -33.8364  -23.9769   20.6865 O   0  0  0  0  0  0  0  0  0  0  0  0
  -25.6797  -11.2449   20.5937 O   0  0  0  0  0  0  0  0  0  0  0  0
  -28.6664  -27.1434   19.9866 O   0  0  0  0  0  0  0  0  0  1  0  0
  -20.2486  -10.7153   19.8021 F   0  0  0  0  0  0  0  0  0  0  0  0
  -24.1129   -9.8521   22.3959 F   0  0  0  0  0  0  0  0  0  0  0  0
  1  2  1  0  0  0  0
  1  5  2  0  0  0  0
  2  6  2  0  0  0  0
  3  8  2  0  0  0  0
  3 15  1  0  0  0  0
  4  9  1  0  0  0  0
  4 15  2  0  0  0  0
  5 17  1  0  0  0  0
  6 19  1  0  0  0  0
  7 10  2  0  0  0  0
  7 18  1  0  0  0  0
  8 21  1  0  0  0  0
  9 21  2  0  0  0  0
 10 22  1  0  0  0  0
 11 12  2  0  0  0  0
 11 23  1  0  0  0  0
 12 24  1  0  0  0  0
 13 20  1  0  0  0  0
 13 22  2  0  0  0  0
 14 24  2  0  0  0  0
 14 25  1  0  0  0  0
 15 26  1  0  0  0  0
 16 26  1  0  0  0  0
 16 27  2  0  0  0  0
 16 28  1  0  0  0  0
 17 19  2  0  0  0  0
 17 33  1  0  0  0  0
 18 20  2  0  0  0  0
 18 34  1  0  0  0  0
 19 44  1  0  0  0  0
 20 35  1  0  0  0  0
 21 82  1  0  0  0  0
 22 83  1  0  0  0  0
 23 25  2  0  0  0  0
 23 82  1  0  0  0  0
 24 84  1  0  0  0  0
 25 85  1  0  0  0  0
 26 65  2  0  0  0  0
 27 66  1  0  0  0  0
 27 69  1  0  0  0  0
 28 70  1  0  0  0  0
 28 76  2  0  0  0  0
 29 45  1  0  0  0  0
 29 71  1  0  0  0  0
 29 77  2  0  0  0  0
 30 62  1  0  0  0  0
 30 67  1  0  0  0  0
 30 78  2  0  0  0  0
 31 63  1  0  0  0  0
 31 72  1  0  0  0  0
 31 79  2  0  0  0  0
 32 68  1  0  0  0  0
 32 73  1  0  0  0  0
 32 80  2  0  0  0  0
 33 36  1  0  0  0  0
 34 45  1  0  0  0  0
 35 67  1  0  0  0  0
 36 38  1  0  0  0  0
 37 39  1  0  0  0  0
 37 41  1  0  0  0  0
 38 44  1  0  0  0  0
 39 48  1  0  0  0  0
 40 46  1  0  0  0  0
 40 47  1  0  0  0  0
 41 68  1  0  0  0  0
 42 48  1  0  0  0  0
 42 68  1  0  0  0  0
 43 46  1  0  0  0  0
 43 74  1  0  0  0  0
 44 71  1  0  0  0  0
 45 67  1  0  0  0  0
 46 50  1  0  0  0  0
 47 49  1  0  0  0  0
 47 56  1  0  0  0  0
 48 66  1  0  0  0  0
 49 57  1  0  0  0  0
 49 74  1  0  0  0  0
 51 63  1  0  0  0  0
 52 64  1  0  0  0  0
 53 64  1  0  0  0  0
 54 64  1  0  0  0  0
 55 75  1  0  0  0  0
 56 83  1  0  0  0  0
 57 58  1  0  0  0  0
 58 61  1  0  0  0  0
 59 60  1  0  0  0  0
 59 73  1  0  0  0  0
 60 74  1  0  0  0  0
 61 81  1  0  0  0  0
 62 64  1  0  0  0  0
 62 72  1  0  0  0  0
 63 75  1  0  0  0  0
 65 66  1  0  0  0  0
M  CHG  2  74   1  75   1
M  ISO  4  32 100  56 101  73 100  83 101
M  END
> <Batch ID>
0123

> <Smiles>
CNC(C)C(=O)NC(C(=O)N1Cc2cc([101O:1][101CH2:1]C3CC(C)CN(CC[100NH:0][100C:0](=O)N4CCCC(n5nc(-c6ccc(Oc7ccc(F)cc7F)cc6)c(C(N)=O)c5N)C4)C3CCCO)ccc2CC1C(=O)NC1CCCc2ccccc21)C(C)(C)C

> <Shape>
0.227

> <Color>
0.051

> <Negative vol penalty>
0.000

$$$$

  -OEChem-04052320303D

 81 89  0     1  0  0  0  0  0999 V2000
  -23.5157  -30.6099   21.5405 C   0  0  0  0  0  0  0  0  0  0  0  0
  -23.1963  -29.9146   20.3785 C   0  0  0  0  0  0  0  0  0  0  0  0
  -23.7102  -16.4104   22.1807 C   0  0  0  0  0  0  0  0  0  0  0  0
  -22.8260  -16.0856   19.9559 C   0  0  0  0  0  0  0  0  0  0  0  0
  -24.7881  -30.4874   22.0972 C   0  0  0  0  0  0  0  0  0  0  0  0
  -24.1495  -29.0974   19.7720 C   0  0  0  0  0  0  0  0  0  0  0  0
  -24.7175  -23.0337   16.0004 C   0  0  0  0  0  0  0  0  0  0  0  0
  -27.6725  -18.4807   12.0634 C   0  0  0  0  0  0  0  0  0  0  0  0
  -22.8620  -17.5034   22.3582 C   0  0  0  0  0  0  0  0  0  0  0  0
  -21.9778  -17.1786   20.1334 C   0  0  0  0  0  0  0  0  0  0  0  0
  -25.2742  -22.5491   14.8176 C   0  0  0  0  0  0  0  0  0  0  0  0
  -21.1842  -20.6003   23.2625 C   0  0  0  0  0  0  0  0  0  0  0  0
  -21.7227  -21.7559   23.8282 C   0  0  0  0  0  0  0  0  0  0  0  0
  -27.7018  -19.8586   12.2474 C   0  0  0  0  0  0  0  0  0  0  0  0
  -27.4146  -22.3522   15.9127 C   0  0  0  0  0  0  0  0  0  0  0  0
  -23.3009  -21.9127   22.0057 C   0  0  0  0  0  0  0  0  0  0  0  0
  -26.5797  -18.2755   14.1661 C   0  0  0  0  0  0  0  0  0  0  0  0
  -23.6923  -15.7015   20.9795 C   0  0  0  0  0  0  0  0  0  0  0  0
  -24.2955  -13.2258   21.1003 C   0  0  0  0  0  0  0  0  0  0  0  0
  -25.7543  -29.6607   21.5026 C   0  0  0  0  0  0  0  0  0  0  0  0
  -25.5090  -23.1917   17.1471 C   0  0  0  0  0  0  0  0  0  0  0  0
  -25.4364  -28.9648   20.3206 C   0  0  0  0  0  0  0  0  0  0  0  0
  -26.8649  -22.8366   17.1095 C   0  0  0  0  0  0  0  0  0  0  0  0
  -27.1021  -17.6671   13.0361 C   0  0  0  0  0  0  0  0  0  0  0  0
  -21.9958  -17.8875   21.3346 C   0  0  0  0  0  0  0  0  0  0  0  0
  -26.6236  -22.2110   14.7728 C   0  0  0  0  0  0  0  0  0  0  0  0
  -21.7041  -20.1008   22.0684 C   0  0  0  0  0  0  0  0  0  0  0  0
  -22.7811  -22.4121   23.1998 C   0  0  0  0  0  0  0  0  0  0  0  0
  -22.7624  -20.7570   21.4399 C   0  0  0  0  0  0  0  0  0  0  0  0
  -24.5686  -14.5728   20.7953 C   0  0  0  0  0  0  0  0  0  0  0  0
  -27.1523  -20.3692   13.4124 C   0  0  0  0  0  0  0  0  0  1  0  0
  -25.4391  -12.5542   20.7430 C   0  0  0  0  0  0  0  0  0  0  0  0
  -23.1138  -12.6346   21.6567 C   0  0  0  0  0  0  0  0  0  0  0  0
  -26.3683  -25.6595   18.9569 C   0  0  0  0  0  0  0  0  0  0  0  0
  -27.6766  -23.3428   20.8127 C   0  0  0  0  0  0  0  0  0  0  0  0
  -28.9392  -20.1803   21.0388 C   0  0  0  0  0  0  0  0  0  0  0  0
  -29.8083  -13.7398   16.8244 C   0  0  0  0  0  0  0  0  0  0  0  0
  -27.1312  -29.5970   22.1147 C   0  0  0  0  0  0  0  0  0  0  0  0
  -24.8873  -23.6904   18.4227 C   0  0  0  0  0  0  0  0  0  0  0  0
  -27.7530  -22.9684   18.3188 C   0  0  0  0  0  0  0  0  0  0  0  0
  -27.9644  -28.4179   21.6188 C   0  0  0  0  0  0  0  0  0  0  0  0
  -30.1651  -13.1683   20.3205 C   0  0  0  0  0  0  0  0  0  0  0  0
  -27.8780  -28.3045   20.1000 C   0  0  0  0  0  0  0  0  0  0  0  0
  -28.7466  -13.3419   20.8661 C   0  0  0  0  0  0  0  0  0  0  0  0
  -30.4549  -14.1433   19.1814 C   0  0  0  0  0  0  0  0  0  0  0  0
  -28.0588  -14.2877   18.6231 C   0  0  0  0  0  0  0  0  0  0  0  0
  -26.4354  -28.0490   19.6471 C   0  0  1  0  0  0  0  0  0  0  0  0
  -25.9035  -24.2964   19.3857 C   0  0  1  0  0  0  0  0  0  0  0  0
  -27.7007  -13.2882   19.7363 C   0  0  2  0  0  0  0  0  0  0  0  0
  -29.8651  -18.1147   22.1221 C   0  0  0  0  0  0  0  0  0  0  0  0
  -30.3070  -24.8816   20.6613 C   0  0  0  0  0  0  0  0  0  0  0  0
  -31.4778  -22.8226   21.4724 C   0  0  0  0  0  0  0  0  0  0  0  0
  -29.7779  -23.9394   22.9167 C   0  0  0  0  0  0  0  0  0  0  0  0
  -26.2349  -19.0718   21.5042 C   0  0  0  0  0  0  0  0  0  0  0  0
  -27.0551  -16.1903   12.8688 C   0  0  0  0  0  0  0  0  0  0  0  0
  -29.0043  -13.3468   14.5095 C   0  0  0  0  0  0  0  0  0  0  0  0
  -27.9711  -13.9844   13.5995 C   0  0  0  0  0  0  0  0  0  0  0  0
  -29.0187  -22.6545   20.8760 C   0  0  1  0  0  0  0  0  0  0  0  0
  -28.6770  -19.0594   22.0284 C   0  0  2  0  0  0  0  0  0  0  0  0
  -30.1293  -23.5738   21.4581 C   0  0  0  0  0  0  0  0  0  0  0  0
  -26.5905  -19.6104   14.3800 N   0  0  0  0  0  0  0  0  0  0  0  0
  -25.7899  -14.7482   20.2838 N   0  0  0  0  0  0  0  0  0  0  0  0
  -26.2944  -13.5028   20.2646 N   0  0  0  0  0  0  0  0  0  0  0  0
  -27.1000  -23.4666   19.5407 N   0  0  0  0  0  0  0  0  0  0  0  0
  -29.4273  -14.0411   18.1423 N   0  0  0  0  0  0  0  0  0  0  0  0
  -25.7864  -11.2507   20.7945 N   0  0  0  0  0  0  0  0  0  0  0  0
  -22.0312  -13.4693   21.9659 N   0  0  0  0  0  0  0  0  0  0  0  0
  -26.0765  -26.6634   19.8606 N   0  0  0  0  0  0  0  0  0  0  0  0
  -28.8098  -21.4210   21.6264 N   0  0  0  0  0  0  0  0  0  0  0  0
  -28.7717  -13.6553   15.9029 N   0  0  0  0  0  0  0  0  0  0  0  0
  -27.4818  -18.2716   21.6139 N   0  3  0  0  0  0  0  0  0  0  0  0
  -28.0452  -15.4636   13.7138 N   0  3  0  0  0  0  0  0  0  0  0  0
  -23.0267  -11.4049   21.8886 O   0  0  0  0  0  0  0  0  0  0  0  0
  -26.9499  -25.7904   17.8863 O   0  0  0  0  0  0  0  0  0  0  0  0
  -27.1557  -23.7492   21.8544 O   0  0  0  0  0  0  0  0  0  0  0  0
  -29.2334  -19.9757   19.8632 O   0  0  0  0  0  0  0  0  0  0  0  0
  -30.9846  -13.5543   16.4944 O   0  0  0  0  0  0  0  0  0  0  0  0
  -21.1678  -18.9538   21.5076 O   0  0  0  0  0  0  0  0  0  0  0  0
  -27.1697  -21.7385   13.6194 O   0  0  0  0  0  0  0  0  0  1  0  0
  -23.2971  -23.5228   23.7424 F   0  0  0  0  0  0  0  0  0  0  0  0
  -23.2652  -20.2825   20.2920 F   0  0  0  0  0  0  0  0  0  0  0  0
  1  2  1  0  0  0  0
  1  5  2  0  0  0  0
  2  6  2  0  0  0  0
  3  9  2  0  0  0  0
  3 18  1  0  0  0  0
  4 10  1  0  0  0  0
  4 18  2  0  0  0  0
  5 20  1  0  0  0  0
  6 22  1  0  0  0  0
  7 11  2  0  0  0  0
  7 21  1  0  0  0  0
  8 14  2  0  0  0  0
  8 24  1  0  0  0  0
  9 25  1  0  0  0  0
 10 25  2  0  0  0  0
 11 26  1  0  0  0  0
 12 13  2  0  0  0  0
 12 27  1  0  0  0  0
 13 28  1  0  0  0  0
 14 31  1  0  0  0  0
 15 23  1  0  0  0  0
 15 26  2  0  0  0  0
 16 28  2  0  0  0  0
 16 29  1  0  0  0  0
 17 24  2  0  0  0  0
 17 61  1  0  0  0  0
 18 30  1  0  0  0  0
 19 30  1  0  0  0  0
 19 32  2  0  0  0  0
 19 33  1  0  0  0  0
 20 22  2  0  0  0  0
 20 38  1  0  0  0  0
 21 23  2  0  0  0  0
 21 39  1  0  0  0  0
 22 47  1  0  0  0  0
 23 40  1  0  0  0  0
 24 55  1  0  0  0  0
 25 78  1  0  0  0  0
 26 79  1  0  0  0  0
 27 29  2  0  0  0  0
 27 78  1  0  0  0  0
 28 80  1  0  0  0  0
 29 81  1  0  0  0  0
 30 62  2  0  0  0  0
 31 61  2  0  0  0  0
 31 79  1  0  0  0  0
 32 63  1  0  0  0  0
 32 66  1  0  0  0  0
 33 67  1  0  0  0  0
 33 73  2  0  0  0  0
 34 48  1  0  0  0  0
 34 68  1  0  0  0  0
 34 74  2  0  0  0  0
 35 58  1  0  0  0  0
 35 64  1  0  0  0  0
 35 75  2  0  0  0  0
 36 59  1  0  0  0  0
 36 69  1  0  0  0  0
 36 76  2  0  0  0  0
 37 65  1  0  0  0  0
 37 70  1  0  0  0  0
 37 77  2  0  0  0  0
 38 41  1  0  0  0  0
 39 48  1  0  0  0  0
 40 64  1  0  0  0  0
 41 43  1  0  0  0  0
 42 44  1  0  0  0  0
 42 45  1  0  0  0  0
 43 47  1  0  0  0  0
 44 49  1  0  0  0  0
 45 65  1  0  0  0  0
 46 49  1  0  0  0  0
 46 65  1  0  0  0  0
 47 68  1  0  0  0  0
 48 64  1  0  0  0  0
 49 63  1  0  0  0  0
 50 59  1  0  0  0  0
 51 60  1  0  0  0  0
 52 60  1  0  0  0  0
 53 60  1  0  0  0  0
 54 71  1  0  0  0  0
 55 72  1  0  0  0  0
 56 57  1  0  0  0  0
 56 70  1  0  0  0  0
 57 72  1  0  0  0  0
 58 60  1  0  0  0  0
 58 69  1  0  0  0  0
 59 71  1  0  0  0  0
 62 63  1  0  0  0  0
M  CHG  2  71   1  72   1
M  ISO  4  31 101  37 100  70 100  79 101
M  END
> <Batch ID>
0123

> <Smiles>
CNC(C)C(=O)NC(C(=O)N1Cc2cc([101O:1][101c:1]3ccc(CNCC[100NH:0][100C:0](=O)N4CCCC(n5nc(-c6ccc(Oc7ccc(F)cc7F)cc6)c(C(N)=O)c5N)C4)cn3)ccc2CC1C(=O)NC1CCCc2ccccc21)C(C)(C)C

> <Shape>
0.197

> <Color>
0.090

> <Negative vol penalty>
0.000

$$$$

  -OEChem-04052320303D

 87 95  0     1  0  0  0  0  0999 V2000
  -29.0914  -28.4667   24.1394 C   0  0  0  0  0  0  0  0  0  0  0  0
  -28.0860  -27.5216   23.9696 C   0  0  0  0  0  0  0  0  0  0  0  0
  -24.4264  -31.8144   20.9156 C   0  0  0  0  0  0  0  0  0  0  0  0
  -25.1039  -31.1893   23.1488 C   0  0  0  0  0  0  0  0  0  0  0  0
  -30.1972  -28.4622   23.2919 C   0  0  0  0  0  0  0  0  0  0  0  0
  -28.1917  -26.5644   22.9599 C   0  0  0  0  0  0  0  0  0  0  0  0
  -24.7877  -23.0133   22.8814 C   0  0  0  0  0  0  0  0  0  0  0  0
  -25.1444  -33.0047   21.0309 C   0  0  0  0  0  0  0  0  0  0  0  0
  -25.8220  -32.3796   23.2641 C   0  0  0  0  0  0  0  0  0  0  0  0
  -23.4674  -23.2432   22.4971 C   0  0  0  0  0  0  0  0  0  0  0  0
  -24.7358  -36.0287   22.4844 C   0  0  0  0  0  0  0  0  0  0  0  0
  -24.1158  -37.2027   22.0567 C   0  0  0  0  0  0  0  0  0  0  0  0
  -23.9162  -22.2148   20.3617 C   0  0  0  0  0  0  0  0  0  0  0  0
  -18.3289  -23.0394   24.7863 C   0  0  0  0  0  0  0  0  0  0  0  0
  -25.8826  -37.5488   20.4456 C   0  0  0  0  0  0  0  0  0  0  0  0
  -24.4061  -30.9067   21.9745 C   0  0  0  0  0  0  0  0  0  0  0  0
  -24.1352  -28.4437   21.3682 C   0  0  0  0  0  0  0  0  0  0  0  0
  -30.3098  -27.5119   22.2636 C   0  0  0  0  0  0  0  0  0  0  0  0
  -25.6866  -22.3912   22.0031 C   0  0  0  0  0  0  0  0  0  0  0  0
  -29.3115  -26.5286   22.1094 C   0  0  0  0  0  0  0  0  0  0  0  0
  -25.2467  -21.9758   20.7382 C   0  0  0  0  0  0  0  0  0  0  0  0
  -18.6620  -21.6977   24.4762 C   0  0  0  0  0  0  0  0  0  0  0  0
  -25.8422  -33.2873   22.2051 C   0  0  0  0  0  0  0  0  0  0  0  0
  -23.0322  -22.8465   21.2361 C   0  0  0  0  0  0  0  0  0  0  0  0
  -25.9293  -35.6147   21.8927 C   0  0  0  0  0  0  0  0  0  0  0  0
  -24.6892  -37.9627   21.0373 C   0  0  0  0  0  0  0  0  0  0  0  0
  -26.5026  -36.3748   20.8733 C   0  0  0  0  0  0  0  0  0  0  0  0
  -23.6642  -29.6773   21.8562 C   0  0  0  0  0  0  0  0  0  0  0  0
  -19.1933  -23.4604   25.7726 C   0  0  0  0  0  0  0  0  0  0  0  0
  -19.7198  -21.3397   25.2826 C   0  0  0  0  0  0  0  0  0  0  0  0
  -23.0539  -27.6020   21.4616 C   0  0  0  0  0  0  0  0  0  0  0  0
  -25.4342  -28.0902   20.8748 C   0  0  0  0  0  0  0  0  0  0  0  0
  -28.4082  -23.2464   20.6012 C   0  0  0  0  0  0  0  0  0  0  0  0
  -28.4178  -20.1562   19.6149 C   0  0  0  0  0  0  0  0  0  0  0  0
  -26.6346  -17.3284   18.9290 C   0  0  0  0  0  0  0  0  0  0  0  0
  -18.5109  -26.5249   24.8845 C   0  0  0  0  0  0  0  0  0  0  0  0
  -31.5318  -27.5479   21.3801 C   0  0  0  0  0  0  0  0  0  0  0  0
  -27.1005  -22.1263   22.4428 C   0  0  0  0  0  0  0  0  0  0  0  0
  -26.1668  -21.2857   19.7658 C   0  0  0  0  0  0  0  0  0  0  0  0
  -31.3431  -26.7849   20.0731 C   0  0  0  0  0  0  0  0  0  0  0  0
  -18.1615  -28.2374   21.7825 C   0  0  0  0  0  0  0  0  0  0  0  0
  -30.7798  -25.4003   20.3562 C   0  0  0  0  0  0  0  0  0  0  0  0
  -19.5886  -28.6686   21.4399 C   0  0  0  0  0  0  0  0  0  0  0  0
  -17.8943  -28.3125   23.2842 C   0  0  0  0  0  0  0  0  0  0  0  0
  -20.2897  -28.0126   23.7802 C   0  0  0  0  0  0  0  0  0  0  0  0
  -29.3902  -25.4969   20.9986 C   0  0  1  0  0  0  0  0  0  0  0  0
  -28.0658  -21.9478   21.2750 C   0  0  1  0  0  0  0  0  0  0  0  0
  -20.6241  -27.9003   22.2829 C   0  0  2  0  0  0  0  0  0  0  0  0
  -20.4582  -20.0620   25.3738 C   0  0  0  0  0  0  0  0  0  0  0  0
  -16.5067  -20.5768   23.8190 C   0  0  0  0  0  0  0  0  0  0  0  0
  -26.9140  -14.9751   18.1035 C   0  0  0  0  0  0  0  0  0  0  0  0
  -20.5486  -22.6702   28.4680 C   0  0  0  0  0  0  0  0  0  0  0  0
  -22.1703  -23.4808   26.7018 C   0  0  0  0  0  0  0  0  0  0  0  0
  -28.7482  -21.1974   16.7659 C   0  0  0  0  0  0  0  0  0  0  0  0
  -28.0734  -18.9342   15.9349 C   0  0  0  0  0  0  0  0  0  0  0  0
  -30.1380  -19.1910   17.3111 C   0  0  0  0  0  0  0  0  0  0  0  0
  -25.5838  -16.1950   21.4529 C   0  0  0  0  0  0  0  0  0  0  0  0
  -19.2855  -24.7671   26.4558 C   0  0  0  0  0  0  0  0  0  0  0  0
  -19.6833  -22.0089   20.2189 C   0  0  0  0  0  0  0  0  0  0  0  0
  -18.0650  -21.3911   22.0184 C   0  0  0  0  0  0  0  0  0  0  0  0
  -21.1669  -22.1444   19.9385 C   0  0  0  0  0  0  0  0  0  1  0  0
  -17.9722  -20.8195   23.4391 C   0  0  1  0  0  0  0  0  0  0  0  0
  -27.8755  -19.4146   18.4170 C   0  0  1  0  0  0  0  0  0  0  0  0
  -26.8527  -15.8792   19.3249 C   0  0  2  0  0  0  0  0  0  0  0  0
  -21.0922  -22.4541   27.0543 C   0  0  0  0  0  0  0  0  0  0  0  0
  -28.6917  -19.6990   17.1246 C   0  0  0  0  0  0  0  0  0  0  0  0
  -22.3833  -29.6281   22.2316 N   0  0  0  0  0  0  0  0  0  0  0  0
  -20.0341  -22.4188   26.0666 N   0  0  0  0  0  0  0  0  0  0  0  0
  -22.0403  -28.3534   21.9794 N   0  0  0  0  0  0  0  0  0  0  0  0
  -27.5414  -21.0549   20.2397 N   0  0  0  0  0  0  0  0  0  0  0  0
  -18.9107  -27.5624   24.0260 N   0  0  0  0  0  0  0  0  0  0  0  0
  -22.8807  -26.2998   21.1504 N   0  0  0  0  0  0  0  0  0  0  0  0
  -26.4298  -29.0763   20.8479 N   0  0  0  0  0  0  0  0  0  0  0  0
  -28.9822  -24.1817   21.4410 N   0  0  0  0  0  0  0  0  0  0  0  0
  -27.8277  -18.0066   18.7959 N   0  0  0  0  0  0  0  0  0  0  0  0
  -19.5377  -25.8609   25.5444 N   0  0  0  0  0  0  0  0  0  0  0  0
  -25.7436  -15.4093   20.2023 N   0  3  0  0  0  0  0  0  0  0  0  0
  -19.4892  -21.5359   21.6128 N   0  3  0  0  0  0  0  0  0  0  0  0
  -25.6993  -26.9385   20.4543 O   0  0  0  0  0  0  0  0  0  0  0  0
  -28.1706  -23.3888   19.4075 O   0  0  0  0  0  0  0  0  0  0  0  0
  -29.5739  -19.9407   19.9871 O   0  0  0  0  0  0  0  0  0  0  0  0
  -25.5177  -17.8096   18.7518 O   0  0  0  0  0  0  0  0  0  0  0  0
  -17.3271  -26.2100   25.0464 O   0  0  0  0  0  0  0  0  0  0  0  0
  -26.5431  -34.4485   22.3179 O   0  0  0  0  0  0  0  0  0  0  0  0
  -21.7442  -23.0703   20.8582 O   0  0  0  0  0  0  0  0  0  1  0  0
  -24.0929  -39.0893   20.6256 F   0  0  0  0  0  0  0  0  0  0  0  0
  -27.6484  -35.9816   20.3003 F   0  0  0  0  0  0  0  0  0  0  0  0
  1  2  1  0  0  0  0
  1  5  2  0  0  0  0
  2  6  2  0  0  0  0
  3  8  2  0  0  0  0
  3 16  1  0  0  0  0
  4  9  1  0  0  0  0
  4 16  2  0  0  0  0
  5 18  1  0  0  0  0
  6 20  1  0  0  0  0
  7 10  2  0  0  0  0
  7 19  1  0  0  0  0
  8 23  1  0  0  0  0
  9 23  2  0  0  0  0
 10 24  1  0  0  0  0
 11 12  2  0  0  0  0
 11 25  1  0  0  0  0
 12 26  1  0  0  0  0
 13 21  1  0  0  0  0
 13 24  2  0  0  0  0
 14 22  1  0  0  0  0
 14 29  2  0  0  0  0
 15 26  2  0  0  0  0
 15 27  1  0  0  0  0
 16 28  1  0  0  0  0
 17 28  1  0  0  0  0
 17 31  2  0  0  0  0
 17 32  1  0  0  0  0
 18 20  2  0  0  0  0
 18 37  1  0  0  0  0
 19 21  2  0  0  0  0
 19 38  1  0  0  0  0
 20 46  1  0  0  0  0
 21 39  1  0  0  0  0
 22 30  2  0  0  0  0
 22 62  1  0  0  0  0
 23 84  1  0  0  0  0
 24 85  1  0  0  0  0
 25 27  2  0  0  0  0
 25 84  1  0  0  0  0
 26 86  1  0  0  0  0
 27 87  1  0  0  0  0
 28 67  2  0  0  0  0
 29 58  1  0  0  0  0
 29 68  1  0  0  0  0
 30 49  1  0  0  0  0
 30 68  1  0  0  0  0
 31 69  1  0  0  0  0
 31 72  1  0  0  0  0
 32 73  1  0  0  0  0
 32 79  2  0  0  0  0
 33 47  1  0  0  0  0
 33 74  1  0  0  0  0
 33 80  2  0  0  0  0
 34 63  1  0  0  0  0
 34 70  1  0  0  0  0
 34 81  2  0  0  0  0
 35 64  1  0  0  0  0
 35 75  1  0  0  0  0
 35 82  2  0  0  0  0
 36 71  1  0  0  0  0
 36 76  1  0  0  0  0
 36 83  2  0  0  0  0
 37 40  1  0  0  0  0
 38 47  1  0  0  0  0
 39 70  1  0  0  0  0
 40 42  1  0  0  0  0
 41 43  1  0  0  0  0
 41 44  1  0  0  0  0
 42 46  1  0  0  0  0
 43 48  1  0  0  0  0
 44 71  1  0  0  0  0
 45 48  1  0  0  0  0
 45 71  1  0  0  0  0
 46 74  1  0  0  0  0
 47 70  1  0  0  0  0
 48 69  1  0  0  0  0
 50 62  1  0  0  0  0
 51 64  1  0  0  0  0
 52 65  1  0  0  0  0
 53 65  1  0  0  0  0
 54 66  1  0  0  0  0
 55 66  1  0  0  0  0
 56 66  1  0  0  0  0
 57 77  1  0  0  0  0
 58 76  1  0  0  0  0
 59 61  1  0  0  0  0
 59 78  1  0  0  0  0
 60 62  1  0  0  0  0
 60 78  1  0  0  0  0
 61 85  1  0  0  0  0
 63 66  1  0  0  0  0
 63 75  1  0  0  0  0
 64 77  1  0  0  0  0
 65 68  1  0  0  0  0
 67 69  1  0  0  0  0
M  CHG  2  77   1  78   1
M  ISO  4  36 100  61 101  76 100  85 101
M  END
> <Batch ID>
0123

> <Smiles>
CNC(C)C(=O)NC(C(=O)N1Cc2cc([101O:1][101CH2:1]CNCC(C)c3cc(C[100NH:0][100C:0](=O)N4CCCC(n5nc(-c6ccc(Oc7ccc(F)cc7F)cc6)c(C(N)=O)c5N)C4)n(C(C)C)c3C)ccc2CC1C(=O)NC1CCCc2ccccc21)C(C)(C)C

> <Shape>
0.188

> <Color>
0.065

> <Negative vol penalty>
0.000

$$$$

  -OEChem-04052320303D

 87 96  0     1  0  0  0  0  0999 V2000
  -20.0460  -34.2585   20.2283 C   0  0  0  0  0  0  0  0  0  0  0  0
  -21.2736  -33.6737   19.9343 C   0  0  0  0  0  0  0  0  0  0  0  0
  -23.7535   -9.4786   19.9699 C   0  0  0  0  0  0  0  0  0  0  0  0
  -24.3449   -9.7559   22.2959 C   0  0  0  0  0  0  0  0  0  0  0  0
  -19.3607  -33.8933   21.3863 C   0  0  0  0  0  0  0  0  0  0  0  0
  -21.8171  -32.7240   20.7987 C   0  0  0  0  0  0  0  0  0  0  0  0
  -25.1593  -27.8289   19.2581 C   0  0  0  0  0  0  0  0  0  0  0  0
  -23.2615   -8.2032   20.2470 C   0  0  0  0  0  0  0  0  0  0  0  0
  -23.8529   -8.4805   22.5730 C   0  0  0  0  0  0  0  0  0  0  0  0
  -26.5340  -27.5974   19.2476 C   0  0  0  0  0  0  0  0  0  0  0  0
  -22.4237   -5.4389   23.9603 C   0  0  0  0  0  0  0  0  0  0  0  0
  -21.6210   -5.2841   25.0904 C   0  0  0  0  0  0  0  0  0  0  0  0
  -26.3723  -26.5746   21.4264 C   0  0  0  0  0  0  0  0  0  0  0  0
  -20.0373   -6.8667   24.1823 C   0  0  0  0  0  0  0  0  0  0  0  0
  -28.4118  -20.2893   21.8042 C   0  0  0  0  0  0  0  0  0  0  0  0
  -29.8236  -18.9949   20.6440 C   0  0  0  0  0  0  0  0  0  0  0  0
  -24.2953  -10.2550   20.9943 C   0  0  0  0  0  0  0  0  0  0  0  0
  -24.0911  -12.7856   20.7454 C   0  0  0  0  0  0  0  0  0  0  0  0
  -19.8914  -32.9316   22.2603 C   0  0  0  0  0  0  0  0  0  0  0  0
  -24.3811  -27.4442   20.3594 C   0  0  0  0  0  0  0  0  0  0  0  0
  -21.1388  -32.3465   21.9701 C   0  0  0  0  0  0  0  0  0  0  0  0
  -24.9875  -26.8001   21.4473 C   0  0  0  0  0  0  0  0  0  0  0  0
  -28.1917  -18.9871   22.1953 C   0  0  0  0  0  0  0  0  0  0  0  0
  -29.0848  -18.1681   21.4613 C   0  0  0  0  0  0  0  0  0  0  0  0
  -23.3112   -7.7041   21.5486 C   0  0  0  0  0  0  0  0  0  0  0  0
  -27.1412  -26.9727   20.3331 C   0  0  0  0  0  0  0  0  0  0  0  0
  -22.0333   -6.3077   22.9412 C   0  0  0  0  0  0  0  0  0  0  0  0
  -20.4278   -5.9979   25.2015 C   0  0  0  0  0  0  0  0  0  0  0  0
  -20.8401   -7.0215   23.0522 C   0  0  0  0  0  0  0  0  0  0  0  0
  -24.8042  -11.5723   20.7085 C   0  0  0  0  0  0  0  0  0  0  0  0
  -25.0168  -13.7386   20.3973 C   0  0  0  0  0  0  0  0  0  0  0  0
  -22.7150  -13.0293   21.0658 C   0  0  0  0  0  0  0  0  0  0  0  0
  -22.5772  -28.9811   22.4778 C   0  0  0  0  0  0  0  0  0  0  0  0
  -21.8279  -25.9747   23.4384 C   0  0  0  0  0  0  0  0  0  0  0  0
  -22.7057  -22.6806   23.5970 C   0  0  0  0  0  0  0  0  0  0  0  0
  -30.1057  -15.9623   20.7992 C   0  0  0  0  0  0  0  0  0  0  0  0
  -19.1362  -32.6037   23.5240 C   0  0  0  0  0  0  0  0  0  0  0  0
  -22.8951  -27.6770   20.3438 C   0  0  0  0  0  0  0  0  0  0  0  0
  -24.1935  -26.3494   22.6452 C   0  0  0  0  0  0  0  0  0  0  0  0
  -19.6037  -31.3152   24.1960 C   0  0  0  0  0  0  0  0  0  0  0  0
  -29.6932  -13.2578   18.5204 C   0  0  0  0  0  0  0  0  0  0  0  0
  -21.1267  -31.2747   24.2716 C   0  0  0  0  0  0  0  0  0  0  0  0
  -28.3258  -12.6781   18.8896 C   0  0  0  0  0  0  0  0  0  0  0  0
  -28.8324  -22.1566   19.3868 C   0  0  0  0  0  0  0  0  0  0  0  0
  -30.5688  -22.4125   21.2159 C   0  0  0  0  0  0  0  0  0  0  0  0
  -30.4581  -13.7359   19.7533 C   0  0  0  0  0  0  0  0  0  0  0  0
  -28.3549  -14.0874   20.9872 C   0  0  0  0  0  0  0  0  0  0  0  0
  -29.3481  -23.4337   18.7365 C   0  0  0  0  0  0  0  0  0  0  0  0
  -31.0662  -23.6875   20.5475 C   0  0  0  0  0  0  0  0  0  0  0  0
  -21.7493  -31.2944   22.8703 C   0  0  1  0  0  0  0  0  0  0  0  0
  -22.2802  -27.7066   21.7396 C   0  0  1  0  0  0  0  0  0  0  0  0
  -27.5203  -13.6520   19.7717 C   0  0  2  0  0  0  0  0  0  0  0  0
  -29.9343  -21.4552   20.1956 C   0  0  0  0  0  0  0  0  0  0  0  0
  -25.7448  -18.8579   22.7868 C   0  0  0  0  0  0  0  0  0  0  0  0
  -27.4699  -19.1127   24.6073 C   0  0  0  0  0  0  0  0  0  0  0  0
  -21.9090  -20.4699   24.4776 C   0  0  0  0  0  0  0  0  0  0  0  0
  -22.6427  -26.8072   26.2585 C   0  0  0  0  0  0  0  0  0  0  0  0
  -22.7408  -24.3816   26.8710 C   0  0  0  0  0  0  0  0  0  0  0  0
  -20.5815  -25.3957   26.1420 C   0  0  0  0  0  0  0  0  0  0  0  0
  -22.6013  -21.5058   20.8826 C   0  0  0  0  0  0  0  0  0  0  0  0
  -30.3323  -25.6710   19.2270 C   0  0  0  0  0  0  0  0  0  0  0  0
  -29.0993  -26.5363   19.0559 C   0  0  0  0  0  0  0  0  0  1  0  0
  -27.2017  -18.5408   23.1961 C   0  0  0  0  0  0  0  0  0  0  0  0
  -22.4023  -24.9962   24.4341 C   0  0  1  0  0  0  0  0  0  0  0  0
  -21.9276  -21.4148   23.2861 C   0  0  2  0  0  0  0  0  0  0  0  0
  -22.1074  -25.4053   25.9048 C   0  0  0  0  0  0  0  0  0  0  0  0
  -26.0841  -11.7368   20.3640 N   0  0  0  0  0  0  0  0  0  0  0  0
  -29.4062  -20.2821   20.8611 N   0  0  0  0  0  0  0  0  0  0  0  0
  -26.1826  -13.0645   20.1811 N   0  0  0  0  0  0  0  0  0  0  0  0
  -22.7448  -26.6051   22.5853 N   0  0  0  0  0  0  0  0  0  0  0  0
  -29.6346  -14.6582   20.5382 N   0  0  0  0  0  0  0  0  0  0  0  0
  -24.9392  -15.0791   20.2579 N   0  0  0  0  0  0  0  0  0  0  0  0
  -21.9036  -11.9370   21.4016 N   0  0  0  0  0  0  0  0  0  0  0  0
  -29.2227  -16.7594   21.5268 N   0  0  0  0  0  0  0  0  0  0  0  0
  -21.6556  -29.9868   22.2572 N   0  0  0  0  0  0  0  0  0  0  0  0
  -21.8830  -23.6842   24.0632 N   0  0  0  0  0  0  0  0  0  0  0  0
  -29.9339  -24.3562   19.7897 N   0  3  0  0  0  0  0  0  0  0  0  0
  -22.5400  -20.7012   22.1299 N   0  3  0  0  0  0  0  0  0  0  0  0
  -22.2156  -14.1797   21.0387 O   0  0  0  0  0  0  0  0  0  0  0  0
  -23.5682  -29.0467   23.1956 O   0  0  0  0  0  0  0  0  0  0  0  0
  -20.6097  -26.1672   23.4134 O   0  0  0  0  0  0  0  0  0  0  0  0
  -23.9221  -22.7690   23.4453 O   0  0  0  0  0  0  0  0  0  0  0  0
  -31.1994  -16.3526   20.3829 O   0  0  0  0  0  0  0  0  0  0  0  0
  -22.8309   -6.4597   21.8194 O   0  0  0  0  0  0  0  0  0  0  0  0
  -28.4831  -26.7461   20.3257 O   0  0  0  0  0  0  0  0  0  1  0  0
  -19.6563   -5.8480   26.2861 F   0  0  0  0  0  0  0  0  0  0  0  0
  -20.4592   -7.8567   22.0759 F   0  0  0  0  0  0  0  0  0  0  0  0
  1  2  1  0  0  0  0
  1  5  2  0  0  0  0
  2  6  2  0  0  0  0
  3  8  2  0  0  0  0
  3 17  1  0  0  0  0
  4  9  1  0  0  0  0
  4 17  2  0  0  0  0
  5 19  1  0  0  0  0
  6 21  1  0  0  0  0
  7 10  2  0  0  0  0
  7 20  1  0  0  0  0
  8 25  1  0  0  0  0
  9 25  2  0  0  0  0
 10 26  1  0  0  0  0
 11 12  2  0  0  0  0
 11 27  1  0  0  0  0
 12 28  1  0  0  0  0
 13 22  1  0  0  0  0
 13 26  2  0  0  0  0
 14 28  2  0  0  0  0
 14 29  1  0  0  0  0
 15 23  2  0  0  0  0
 15 68  1  0  0  0  0
 16 24  2  0  0  0  0
 16 68  1  0  0  0  0
 17 30  1  0  0  0  0
 18 30  1  0  0  0  0
 18 31  2  0  0  0  0
 18 32  1  0  0  0  0
 19 21  2  0  0  0  0
 19 37  1  0  0  0  0
 20 22  2  0  0  0  0
 20 38  1  0  0  0  0
 21 50  1  0  0  0  0
 22 39  1  0  0  0  0
 23 24  1  0  0  0  0
 23 63  1  0  0  0  0
 24 74  1  0  0  0  0
 25 84  1  0  0  0  0
 26 85  1  0  0  0  0
 27 29  2  0  0  0  0
 27 84  1  0  0  0  0
 28 86  1  0  0  0  0
 29 87  1  0  0  0  0
 30 67  2  0  0  0  0
 31 69  1  0  0  0  0
 31 72  1  0  0  0  0
 32 73  1  0  0  0  0
 32 79  2  0  0  0  0
 33 51  1  0  0  0  0
 33 75  1  0  0  0  0
 33 80  2  0  0  0  0
 34 64  1  0  0  0  0
 34 70  1  0  0  0  0
 34 81  2  0  0  0  0
 35 65  1  0  0  0  0
 35 76  1  0  0  0  0
 35 82  2  0  0  0  0
 36 71  1  0  0  0  0
 36 74  1  0  0  0  0
 36 83  2  0  0  0  0
 37 40  1  0  0  0  0
 38 51  1  0  0  0  0
 39 70  1  0  0  0  0
 40 42  1  0  0  0  0
 41 43  1  0  0  0  0
 41 46  1  0  0  0  0
 42 50  1  0  0  0  0
 43 52  1  0  0  0  0
 44 48  1  0  0  0  0
 44 53  1  0  0  0  0
 45 49  1  0  0  0  0
 45 53  1  0  0  0  0
 46 71  1  0  0  0  0
 47 52  1  0  0  0  0
 47 71  1  0  0  0  0
 48 77  1  0  0  0  0
 49 77  1  0  0  0  0
 50 75  1  0  0  0  0
 51 70  1  0  0  0  0
 52 69  1  0  0  0  0
 53 68  1  0  0  0  0
 54 63  1  0  0  0  0
 55 63  1  0  0  0  0
 56 65  1  0  0  0  0
 57 66  1  0  0  0  0
 58 66  1  0  0  0  0
 59 66  1  0  0  0  0
 60 78  1  0  0  0  0
 61 62  1  0  0  0  0
 61 77  1  0  0  0  0
 62 85  1  0  0  0  0
 64 66  1  0  0  0  0
 64 76  1  0  0  0  0
 65 78  1  0  0  0  0
 67 69  1  0  0  0  0
M  CHG  2  77   1  78   1
M  ISO  4  36 100  62 101  74 100  85 101
M  END
> <Batch ID>
0123

> <Smiles>
CNC(C)C(=O)NC(C(=O)N1Cc2cc([101O:1][101CH2:1]CN3CCC(n4cc([100NH:0][100C:0](=O)N5CCCC(n6nc(-c7ccc(Oc8ccc(F)cc8F)cc7)c(C(N)=O)c6N)C5)c(C(C)C)c4)CC3)ccc2CC1C(=O)NC1CCCc2ccccc21)C(C)(C)C

> <Shape>
0.297

> <Color>
0.180

> <Negative vol penalty>
0.000

$$$$

  -OEChem-04052320303D

 87 96  0     1  0  0  0  0  0999 V2000
  -19.3514  -27.9857   26.6498 C   0  0  0  0  0  0  0  0  0  0  0  0
  -20.6885  -27.7550   26.3424 C   0  0  0  0  0  0  0  0  0  0  0  0
  -27.7718  -12.8137   18.6574 C   0  0  0  0  0  0  0  0  0  0  0  0
  -27.6154  -11.6702   20.7799 C   0  0  0  0  0  0  0  0  0  0  0  0
  -18.4311  -28.2114   25.6270 C   0  0  0  0  0  0  0  0  0  0  0  0
  -21.1058  -27.7489   25.0119 C   0  0  0  0  0  0  0  0  0  0  0  0
  -26.4887  -29.6936   22.8330 C   0  0  0  0  0  0  0  0  0  0  0  0
  -28.9169  -12.0804   18.3466 C   0  0  0  0  0  0  0  0  0  0  0  0
  -28.7605  -10.9368   20.4691 C   0  0  0  0  0  0  0  0  0  0  0  0
  -27.6577  -29.0194   22.4827 C   0  0  0  0  0  0  0  0  0  0  0  0
  -29.6608   -8.9740   17.2377 C   0  0  0  0  0  0  0  0  0  0  0  0
  -29.7530   -8.4276   15.9577 C   0  0  0  0  0  0  0  0  0  0  0  0
  -26.9425  -28.9884   20.1791 C   0  0  0  0  0  0  0  0  0  0  0  0
  -28.9596  -23.9320   20.6625 C   0  0  0  0  0  0  0  0  0  0  0  0
  -31.7659   -9.7028   15.5583 C   0  0  0  0  0  0  0  0  0  0  0  0
  -29.3369  -25.3242   18.9335 C   0  0  0  0  0  0  0  0  0  0  0  0
  -27.1211  -12.6087   19.8741 C   0  0  0  0  0  0  0  0  0  0  0  0
  -24.6038  -13.0205   19.9115 C   0  0  0  0  0  0  0  0  0  0  0  0
  -18.8391  -28.2176   24.2839 C   0  0  0  0  0  0  0  0  0  0  0  0
  -25.5312  -30.0112   21.8589 C   0  0  0  0  0  0  0  0  0  0  0  0
  -20.1898  -27.9736   23.9701 C   0  0  0  0  0  0  0  0  0  0  0  0
  -25.7634  -29.6690   20.5191 C   0  0  0  0  0  0  0  0  0  0  0  0
  -29.6035  -25.1317   20.2711 C   0  0  0  0  0  0  0  0  0  0  0  0
  -29.4112  -11.1419   19.2524 C   0  0  0  0  0  0  0  0  0  0  0  0
  -27.8834  -28.6641   21.1561 C   0  0  0  0  0  0  0  0  0  0  0  0
  -30.6210   -9.8850   17.6780 C   0  0  0  0  0  0  0  0  0  0  0  0
  -30.8056   -8.7919   15.1180 C   0  0  0  0  0  0  0  0  0  0  0  0
  -31.6736  -10.2493   16.8384 C   0  0  0  0  0  0  0  0  0  0  0  0
  -25.9385  -13.3663   20.1959 C   0  0  0  0  0  0  0  0  0  0  0  0
  -28.3193  -23.4277   19.5520 C   0  0  0  0  0  0  0  0  0  0  0  0
  -23.8641  -14.0609   20.4185 C   0  0  0  0  0  0  0  0  0  0  0  0
  -24.0795  -11.8625   19.2484 C   0  0  0  0  0  0  0  0  0  0  0  0
  -22.4892  -29.2322   21.3660 C   0  0  0  0  0  0  0  0  0  0  0  0
  -22.7279  -31.4024   18.9669 C   0  0  0  0  0  0  0  0  0  0  0  0
  -24.7261  -33.0878   16.7730 C   0  0  0  0  0  0  0  0  0  0  0  0
  -24.9222  -19.7351   21.4799 C   0  0  0  0  0  0  0  0  0  0  0  0
  -17.7993  -28.4193   23.2102 C   0  0  0  0  0  0  0  0  0  0  0  0
  -24.2878  -30.7625   22.2488 C   0  0  0  0  0  0  0  0  0  0  0  0
  -24.7762  -30.0049   19.4323 C   0  0  0  0  0  0  0  0  0  0  0  0
  -18.3910  -28.7682   21.8470 C   0  0  0  0  0  0  0  0  0  0  0  0
  -23.9339  -17.4025   23.8316 C   0  0  0  0  0  0  0  0  0  0  0  0
  -19.5539  -27.8381   21.5160 C   0  0  0  0  0  0  0  0  0  0  0  0
  -24.1997  -16.0617   23.1475 C   0  0  0  0  0  0  0  0  0  0  0  0
  -27.9670  -21.0381   20.3185 C   0  0  0  0  0  0  0  0  0  0  0  0
  -25.9833  -22.4471   19.6191 C   0  0  0  0  0  0  0  0  0  0  0  0
  -25.0615  -18.3898   23.5539 C   0  0  0  0  0  0  0  0  0  0  0  0
  -27.0974  -19.7851   20.1812 C   0  0  0  0  0  0  0  0  0  0  0  0
  -25.1709  -21.1636   19.4734 C   0  0  0  0  0  0  0  0  0  0  0  0
  -25.5846  -17.2886   21.4018 C   0  0  0  0  0  0  0  0  0  0  0  0
  -20.6856  -27.9837   22.5404 C   0  0  1  0  0  0  0  0  0  0  0  0
  -27.4817  -22.1722   19.3977 C   0  0  0  0  0  0  0  0  0  0  0  0
  -23.1437  -30.5802   21.2562 C   0  0  1  0  0  0  0  0  0  0  0  0
  -24.4689  -16.2517   21.6442 C   0  0  1  0  0  0  0  0  0  0  0  0
  -24.6293  -34.7665   14.9102 C   0  0  0  0  0  0  0  0  0  0  0  0
  -29.2034  -23.9505   16.1490 C   0  0  0  0  0  0  0  0  0  0  0  0
  -27.1244  -25.2620   16.7520 C   0  0  0  0  0  0  0  0  0  0  0  0
  -21.6853  -29.2439   17.0791 C   0  0  0  0  0  0  0  0  0  0  0  0
  -22.4990  -30.6287   15.1586 C   0  0  0  0  0  0  0  0  0  0  0  0
  -20.7378  -31.5239   16.6815 C   0  0  0  0  0  0  0  0  0  0  0  0
  -26.4146  -35.0094   18.2613 C   0  0  0  0  0  0  0  0  0  0  0  0
  -29.6028  -27.1515   21.7976 C   0  0  0  0  0  0  0  0  0  1  0  0
  -30.4105  -26.0135   21.1358 C   0  0  2  0  0  0  0  0  0  0  0  0
  -23.1198  -31.3468   17.5101 C   0  0  1  0  0  0  0  0  0  0  0  0
  -24.8034  -34.5590   16.4067 C   0  0  2  0  0  0  0  0  0  0  0  0
  -28.0644  -24.1245   17.1555 C   0  0  0  0  0  0  0  0  0  0  0  0
  -22.0284  -30.6776   16.6279 C   0  0  0  0  0  0  0  0  0  0  0  0
  -26.0436  -14.5350   20.8339 N   0  0  0  0  0  0  0  0  0  0  0  0
  -28.5558  -24.2820   18.5068 N   0  0  0  0  0  0  0  0  0  0  0  0
  -24.7656  -14.9327   20.9546 N   0  0  0  0  0  0  0  0  0  0  0  0
  -23.5727  -30.7345   19.8646 N   0  0  0  0  0  0  0  0  0  0  0  0
  -25.2887  -18.5398   22.1167 N   0  0  0  0  0  0  0  0  0  0  0  0
  -25.6771  -20.1167   20.3606 N   0  0  0  0  0  0  0  0  0  0  0  0
  -22.5370  -14.3058   20.4535 N   0  0  0  0  0  0  0  0  0  0  0  0
  -24.9792  -10.8904   18.7901 N   0  0  0  0  0  0  0  0  0  0  0  0
  -21.4530  -29.1825   22.2788 N   0  0  0  0  0  0  0  0  0  0  0  0
  -23.4454  -32.7151   17.1225 N   0  0  0  0  0  0  0  0  0  0  0  0
  -31.5713  -26.6644   20.4176 N   0  3  0  0  0  0  0  0  0  0  0  0
  -26.1221  -35.1244   16.8093 N   0  3  0  0  0  0  0  0  0  0  0  0
  -22.8508  -11.7025   19.0531 O   0  0  0  0  0  0  0  0  0  0  0  0
  -22.8934  -28.3060   20.6727 O   0  0  0  0  0  0  0  0  0  0  0  0
  -21.7135  -32.0218   19.2970 O   0  0  0  0  0  0  0  0  0  0  0  0
  -25.7033  -32.3428   16.7477 O   0  0  0  0  0  0  0  0  0  0  0  0
  -23.9760  -20.4211   21.8864 O   0  0  0  0  0  0  0  0  0  0  0  0
  -30.5285  -10.4260   18.9494 O   0  0  0  0  0  0  0  0  0  0  0  0
  -29.0308  -28.0011   20.8094 O   0  0  0  0  0  0  0  0  0  1  0  0
  -30.8949   -8.2659   13.8894 F   0  0  0  0  0  0  0  0  0  0  0  0
  -32.5997  -11.1230   17.2563 F   0  0  0  0  0  0  0  0  0  0  0  0
  1  2  1  0  0  0  0
  1  5  2  0  0  0  0
  2  6  2  0  0  0  0
  3  8  2  0  0  0  0
  3 17  1  0  0  0  0
  4  9  1  0  0  0  0
  4 17  2  0  0  0  0
  5 19  1  0  0  0  0
  6 21  1  0  0  0  0
  7 10  2  0  0  0  0
  7 20  1  0  0  0  0
  8 24  1  0  0  0  0
  9 24  2  0  0  0  0
 10 25  1  0  0  0  0
 11 12  2  0  0  0  0
 11 26  1  0  0  0  0
 12 27  1  0  0  0  0
 13 22  1  0  0  0  0
 13 25  2  0  0  0  0
 14 23  1  0  0  0  0
 14 30  2  0  0  0  0
 15 27  2  0  0  0  0
 15 28  1  0  0  0  0
 16 23  2  0  0  0  0
 16 68  1  0  0  0  0
 17 29  1  0  0  0  0
 18 29  1  0  0  0  0
 18 31  2  0  0  0  0
 18 32  1  0  0  0  0
 19 21  2  0  0  0  0
 19 37  1  0  0  0  0
 20 22  2  0  0  0  0
 20 38  1  0  0  0  0
 21 50  1  0  0  0  0
 22 39  1  0  0  0  0
 23 62  1  0  0  0  0
 24 84  1  0  0  0  0
 25 85  1  0  0  0  0
 26 28  2  0  0  0  0
 26 84  1  0  0  0  0
 27 86  1  0  0  0  0
 28 87  1  0  0  0  0
 29 67  2  0  0  0  0
 30 51  1  0  0  0  0
 30 68  1  0  0  0  0
 31 69  1  0  0  0  0
 31 73  1  0  0  0  0
 32 74  1  0  0  0  0
 32 79  2  0  0  0  0
 33 52  1  0  0  0  0
 33 75  1  0  0  0  0
 33 80  2  0  0  0  0
 34 63  1  0  0  0  0
 34 70  1  0  0  0  0
 34 81  2  0  0  0  0
 35 64  1  0  0  0  0
 35 76  1  0  0  0  0
 35 82  2  0  0  0  0
 36 71  1  0  0  0  0
 36 72  1  0  0  0  0
 36 83  2  0  0  0  0
 37 40  1  0  0  0  0
 38 52  1  0  0  0  0
 39 70  1  0  0  0  0
 40 42  1  0  0  0  0
 41 43  1  0  0  0  0
 41 46  1  0  0  0  0
 42 50  1  0  0  0  0
 43 53  1  0  0  0  0
 44 47  1  0  0  0  0
 44 51  1  0  0  0  0
 45 48  1  0  0  0  0
 45 51  1  0  0  0  0
 46 71  1  0  0  0  0
 47 72  1  0  0  0  0
 48 72  1  0  0  0  0
 49 53  1  0  0  0  0
 49 71  1  0  0  0  0
 50 75  1  0  0  0  0
 52 70  1  0  0  0  0
 53 69  1  0  0  0  0
 54 64  1  0  0  0  0
 55 65  1  0  0  0  0
 56 65  1  0  0  0  0
 57 66  1  0  0  0  0
 58 66  1  0  0  0  0
 59 66  1  0  0  0  0
 60 78  1  0  0  0  0
 61 62  1  0  0  0  0
 61 85  1  0  0  0  0
 62 77  1  0  0  0  0
 63 66  1  0  0  0  0
 63 76  1  0  0  0  0
 64 78  1  0  0  0  0
 65 68  1  0  0  0  0
 67 69  1  0  0  0  0
M  CHG  2  77   1  78   1
M  ISO  4  36 100  61 101  72 100  85 101
M  END
> <Batch ID>
0123

> <Smiles>
CNC(C)C(=O)NC(C(=O)N1Cc2cc([101O:1][101CH2:1]C(N)c3cc(C4CC[100N:0]([100C:0](=O)N5CCCC(n6nc(-c7ccc(Oc8ccc(F)cc8F)cc7)c(C(N)=O)c6N)C5)CC4)n(C(C)C)c3)ccc2CC1C(=O)NC1CCCc2ccccc21)C(C)(C)C

> <Shape>
0.230

> <Color>
0.082

> <Negative vol penalty>
0.000

$$$$

  -OEChem-04052320303D

 84 92  0     1  0  0  0  0  0999 V2000
  -18.7571  -33.5348   16.4659 C   0  0  0  0  0  0  0  0  0  0  0  0
  -19.2558  -32.2409   16.3535 C   0  0  0  0  0  0  0  0  0  0  0  0
  -22.9386  -10.1382   20.0821 C   0  0  0  0  0  0  0  0  0  0  0  0
  -24.1591   -9.4267   22.0420 C   0  0  0  0  0  0  0  0  0  0  0  0
  -19.4993  -34.5116   17.1283 C   0  0  0  0  0  0  0  0  0  0  0  0
  -20.4975  -31.9234   16.9027 C   0  0  0  0  0  0  0  0  0  0  0  0
  -22.1445  -26.6034   19.4505 C   0  0  0  0  0  0  0  0  0  0  0  0
  -22.2042   -8.9526   20.1091 C   0  0  0  0  0  0  0  0  0  0  0  0
  -23.4248   -8.2411   22.0690 C   0  0  0  0  0  0  0  0  0  0  0  0
  -22.8530  -25.5078   18.9593 C   0  0  0  0  0  0  0  0  0  0  0  0
  -20.3561   -7.2361   23.0658 C   0  0  0  0  0  0  0  0  0  0  0  0
  -19.8588   -6.8114   24.2979 C   0  0  0  0  0  0  0  0  0  0  0  0
  -24.8781  -26.3904   19.9285 C   0  0  0  0  0  0  0  0  0  0  0  0
  -21.1241   -4.7625   24.1023 C   0  0  0  0  0  0  0  0  0  0  0  0
  -23.9161  -10.3752   21.0485 C   0  0  0  0  0  0  0  0  0  0  0  0
  -24.3562  -12.8124   21.6602 C   0  0  0  0  0  0  0  0  0  0  0  0
  -20.7464  -34.2035   17.6943 C   0  0  0  0  0  0  0  0  0  0  0  0
  -22.8006  -27.6080   20.1763 C   0  0  0  0  0  0  0  0  0  0  0  0
  -21.2577  -32.8974   17.5722 C   0  0  0  0  0  0  0  0  0  0  0  0
  -24.1752  -27.4965   20.4300 C   0  0  0  0  0  0  0  0  0  0  0  0
  -22.4473   -8.0041   21.1025 C   0  0  0  0  0  0  0  0  0  0  0  0
  -24.2206  -25.4025   19.1958 C   0  0  0  0  0  0  0  0  0  0  0  0
  -21.2373   -6.4239   22.3519 C   0  0  0  0  0  0  0  0  0  0  0  0
  -20.2428   -5.5747   24.8161 C   0  0  0  0  0  0  0  0  0  0  0  0
  -21.6213   -5.1871   22.8702 C   0  0  0  0  0  0  0  0  0  0  0  0
  -24.6754  -11.5995   21.0209 C   0  0  0  0  0  0  0  0  0  0  0  0
  -25.3861  -13.6577   21.3267 C   0  0  0  0  0  0  0  0  0  0  0  0
  -23.2295  -13.1452   22.4821 C   0  0  0  0  0  0  0  0  0  0  0  0
  -23.2909  -30.7207   19.7588 C   0  0  0  0  0  0  0  0  0  0  0  0
  -24.5637  -30.5231   22.7359 C   0  0  0  0  0  0  0  0  0  0  0  0
  -26.0190  -28.5895   25.1421 C   0  0  0  0  0  0  0  0  0  0  0  0
  -30.8340  -14.6600   20.6479 C   0  0  0  0  0  0  0  0  0  0  0  0
  -21.5336  -35.3046   18.3597 C   0  0  0  0  0  0  0  0  0  0  0  0
  -22.0171  -28.7701   20.7222 C   0  0  0  0  0  0  0  0  0  0  0  0
  -24.9226  -28.5377   21.2211 C   0  0  0  0  0  0  0  0  0  0  0  0
  -22.6716  -34.7936   19.2395 C   0  0  0  0  0  0  0  0  0  0  0  0
  -29.1015  -13.1416   17.9332 C   0  0  0  0  0  0  0  0  0  0  0  0
  -23.4700  -33.7187   18.5088 C   0  0  0  0  0  0  0  0  0  0  0  0
  -27.7726  -12.6998   18.5487 C   0  0  0  0  0  0  0  0  0  0  0  0
  -26.8350  -20.8125   20.3529 C   0  0  0  0  0  0  0  0  0  0  0  0
  -30.2590  -12.9840   18.9167 C   0  0  0  0  0  0  0  0  0  0  0  0
  -28.7287  -13.2010   20.8363 C   0  0  0  0  0  0  0  0  0  0  0  0
  -25.3733  -20.8189   22.2258 C   0  0  0  0  0  0  0  0  0  0  0  0
  -22.5895  -32.5080   18.1762 C   0  0  1  0  0  0  0  0  0  0  0  0
  -22.8831  -29.9929   21.0084 C   0  0  1  0  0  0  0  0  0  0  0  0
  -26.8455  -20.6814   21.8711 C   0  0  1  0  0  0  0  0  0  0  0  0
  -27.5227  -13.3940   19.9011 C   0  0  2  0  0  0  0  0  0  0  0  0
  -25.8639  -21.9629   20.1210 C   0  0  1  0  0  0  0  0  0  0  0  0
  -26.9838  -28.7172   27.4552 C   0  0  0  0  0  0  0  0  0  0  0  0
  -27.0791  -31.8342   21.6117 C   0  0  0  0  0  0  0  0  0  0  0  0
  -28.3043  -31.0784   23.6601 C   0  0  0  0  0  0  0  0  0  0  0  0
  -26.3897  -32.6638   23.8680 C   0  0  0  0  0  0  0  0  0  0  0  0
  -24.0239  -26.6794   26.2051 C   0  0  0  0  0  0  0  0  0  0  0  0
  -27.4538  -19.3778   22.3572 C   0  0  0  0  0  0  0  0  0  0  0  0
  -31.2680  -16.3046   22.4552 C   0  0  0  0  0  0  0  0  0  0  0  0
  -28.9101  -19.2575   21.9352 C   0  0  0  0  0  0  0  0  0  0  0  0
  -30.8524  -17.6881   21.9909 C   0  0  0  0  0  0  0  0  0  0  0  0
  -24.2041  -23.1039   18.5861 C   0  0  0  0  0  0  0  0  0  1  0  0
  -25.9379  -30.2432   23.2947 C   0  0  1  0  0  0  0  0  0  0  0  0
  -25.7372  -28.4473   26.6269 C   0  0  2  0  0  0  0  0  0  0  0  0
  -25.1692  -21.9303   18.7593 C   0  0  1  0  0  0  0  0  0  0  0  0
  -26.9143  -31.4361   23.0920 C   0  0  0  0  0  0  0  0  0  0  0  0
  -25.8185  -11.6644   20.3331 N   0  0  0  0  0  0  0  0  0  0  0  0
  -26.2266  -12.9283   20.5383 N   0  0  0  0  0  0  0  0  0  0  0  0
  -24.1135  -29.6582   21.7284 N   0  0  0  0  0  0  0  0  0  0  0  0
  -29.9594  -13.6664   20.1779 N   0  0  0  0  0  0  0  0  0  0  0  0
  -25.6456  -14.9464   21.6338 N   0  0  0  0  0  0  0  0  0  0  0  0
  -22.2643  -12.1582   22.7241 N   0  0  0  0  0  0  0  0  0  0  0  0
  -26.1631  -21.9598   17.6875 N   0  0  0  0  0  0  0  0  0  0  0  0
  -22.3920  -31.6883   19.3525 N   0  0  0  0  0  0  0  0  0  0  0  0
  -25.7416  -29.8619   24.6891 N   0  0  0  0  0  0  0  0  0  0  0  0
  -30.4727  -15.2611   21.8474 N   0  0  0  0  0  0  0  0  0  0  0  0
  -24.8488  -21.8111   21.2257 N   0  3  0  0  0  0  0  0  0  0  0  0
  -25.2583  -27.0698   26.9337 N   0  3  0  0  0  0  0  0  0  0  0  0
  -29.4437  -17.9524   22.3937 N   0  3  0  0  0  0  0  0  0  0  0  0
  -23.0747  -14.2889   22.9736 O   0  0  0  0  0  0  0  0  0  0  0  0
  -24.3440  -30.4272   19.2050 O   0  0  0  0  0  0  0  0  0  0  0  0
  -23.9108  -31.4698   23.1820 O   0  0  0  0  0  0  0  0  0  0  0  0
  -26.4463  -27.6653   24.4537 O   0  0  0  0  0  0  0  0  0  0  0  0
  -31.8580  -14.9910   20.0406 O   0  0  0  0  0  0  0  0  0  0  0  0
  -21.7307   -6.8472   21.1292 O   0  0  0  0  0  0  0  0  0  0  0  0
  -24.9146  -24.3344   18.7169 O   0  0  0  0  0  0  0  0  0  1  0  0
  -19.7664   -5.1677   26.0000 F   0  0  0  0  0  0  0  0  0  0  0  0
  -22.4685   -4.4030   22.1896 F   0  0  0  0  0  0  0  0  0  0  0  0
  1  2  1  0  0  0  0
  1  5  2  0  0  0  0
  2  6  2  0  0  0  0
  3  8  2  0  0  0  0
  3 15  1  0  0  0  0
  4  9  1  0  0  0  0
  4 15  2  0  0  0  0
  5 17  1  0  0  0  0
  6 19  1  0  0  0  0
  7 10  2  0  0  0  0
  7 18  1  0  0  0  0
  8 21  1  0  0  0  0
  9 21  2  0  0  0  0
 10 22  1  0  0  0  0
 11 12  2  0  0  0  0
 11 23  1  0  0  0  0
 12 24  1  0  0  0  0
 13 20  1  0  0  0  0
 13 22  2  0  0  0  0
 14 24  2  0  0  0  0
 14 25  1  0  0  0  0
 15 26  1  0  0  0  0
 16 26  1  0  0  0  0
 16 27  2  0  0  0  0
 16 28  1  0  0  0  0
 17 19  2  0  0  0  0
 17 33  1  0  0  0  0
 18 20  2  0  0  0  0
 18 34  1  0  0  0  0
 19 44  1  0  0  0  0
 20 35  1  0  0  0  0
 21 81  1  0  0  0  0
 22 82  1  0  0  0  0
 23 25  2  0  0  0  0
 23 81  1  0  0  0  0
 24 83  1  0  0  0  0
 25 84  1  0  0  0  0
 26 63  2  0  0  0  0
 27 64  1  0  0  0  0
 27 67  1  0  0  0  0
 28 68  1  0  0  0  0
 28 76  2  0  0  0  0
 29 45  1  0  0  0  0
 29 70  1  0  0  0  0
 29 77  2  0  0  0  0
 30 59  1  0  0  0  0
 30 65  1  0  0  0  0
 30 78  2  0  0  0  0
 31 60  1  0  0  0  0
 31 71  1  0  0  0  0
 31 79  2  0  0  0  0
 32 66  1  0  0  0  0
 32 72  1  0  0  0  0
 32 80  2  0  0  0  0
 33 36  1  0  0  0  0
 34 45  1  0  0  0  0
 35 65  1  0  0  0  0
 36 38  1  0  0  0  0
 37 39  1  0  0  0  0
 37 41  1  0  0  0  0
 38 44  1  0  0  0  0
 39 47  1  0  0  0  0
 40 46  1  0  0  0  0
 40 48  1  0  0  0  0
 41 66  1  0  0  0  0
 42 47  1  0  0  0  0
 42 66  1  0  0  0  0
 43 46  1  0  0  0  0
 43 73  1  0  0  0  0
 44 70  1  0  0  0  0
 45 65  1  0  0  0  0
 46 54  1  0  0  0  0
 47 64  1  0  0  0  0
 48 61  1  0  0  0  0
 48 73  1  0  0  0  0
 49 60  1  0  0  0  0
 50 62  1  0  0  0  0
 51 62  1  0  0  0  0
 52 62  1  0  0  0  0
 53 74  1  0  0  0  0
 54 56  1  0  0  0  0
 55 57  1  0  0  0  0
 55 72  1  0  0  0  0
 56 75  1  0  0  0  0
 57 75  1  0  0  0  0
 58 61  1  0  0  0  0
 58 82  1  0  0  0  0
 59 62  1  0  0  0  0
 59 71  1  0  0  0  0
 60 74  1  0  0  0  0
 61 69  1  0  0  0  0
 63 64  1  0  0  0  0
M  CHG  3  73   1  74   1  75   1
M  ISO  4  32 100  58 101  72 100  82 101
M  END
> <Batch ID>
0123

> <Smiles>
CNC(C)C(=O)NC(C(=O)N1Cc2cc([101O:1][101CH2:1]C(N)C3CC(CCNCC[100NH:0][100C:0](=O)N4CCCC(n5nc(-c6ccc(Oc7ccc(F)cc7F)cc6)c(C(N)=O)c5N)C4)CN3)ccc2CC1C(=O)NC1CCCc2ccccc21)C(C)(C)C

> <Shape>
0.279

> <Color>
0.128

> <Negative vol penalty>
0.000

$$$$

  -OEChem-04052320303D

 85 94  0     1  0  0  0  0  0999 V2000
  -27.6185  -21.3626    8.1604 C   0  0  0  0  0  0  0  0  0  0  0  0
  -28.2408  -20.9847    9.3458 C   0  0  0  0  0  0  0  0  0  0  0  0
  -23.2044  -10.2445   22.1641 C   0  0  0  0  0  0  0  0  0  0  0  0
  -23.8419   -9.5269   19.9470 C   0  0  0  0  0  0  0  0  0  0  0  0
  -26.5505  -22.2583    8.1898 C   0  0  0  0  0  0  0  0  0  0  0  0
  -27.7960  -21.5033   10.5615 C   0  0  0  0  0  0  0  0  0  0  0  0
  -27.6735  -18.6267   15.9667 C   0  0  0  0  0  0  0  0  0  0  0  0
  -22.4772   -9.0667   22.3362 C   0  0  0  0  0  0  0  0  0  0  0  0
  -23.1148   -8.3491   20.1191 C   0  0  0  0  0  0  0  0  0  0  0  0
  -28.5370  -18.6493   17.0610 C   0  0  0  0  0  0  0  0  0  0  0  0
  -20.1580   -6.4093   23.2213 C   0  0  0  0  0  0  0  0  0  0  0  0
  -18.8811   -6.5085   23.7738 C   0  0  0  0  0  0  0  0  0  0  0  0
  -27.1435  -20.3103   18.1186 C   0  0  0  0  0  0  0  0  0  0  0  0
  -18.1987   -7.9279   21.9416 C   0  0  0  0  0  0  0  0  0  0  0  0
  -23.8867  -10.4747   20.9694 C   0  0  0  0  0  0  0  0  0  0  0  0
  -24.1436  -13.0090   20.8332 C   0  0  0  0  0  0  0  0  0  0  0  0
  -26.0861  -22.7806    9.4072 C   0  0  0  0  0  0  0  0  0  0  0  0
  -26.5425  -19.4551   15.9352 C   0  0  0  0  0  0  0  0  0  0  0  0
  -26.7216  -22.4078   10.6071 C   0  0  0  0  0  0  0  0  0  0  0  0
  -26.2658  -20.2945   17.0238 C   0  0  0  0  0  0  0  0  0  0  0  0
  -22.4325   -8.1189   21.3137 C   0  0  0  0  0  0  0  0  0  0  0  0
  -28.2736  -19.4933   18.1359 C   0  0  0  0  0  0  0  0  0  0  0  0
  -20.4553   -7.0695   22.0290 C   0  0  0  0  0  0  0  0  0  0  0  0
  -17.9014   -7.2678   23.1339 C   0  0  0  0  0  0  0  0  0  0  0  0
  -19.4756   -7.8287   21.3892 C   0  0  0  0  0  0  0  0  0  0  0  0
  -24.6375  -11.6914   20.7908 C   0  0  0  0  0  0  0  0  0  0  0  0
  -25.2460  -13.7963   20.6065 C   0  0  0  0  0  0  0  0  0  0  0  0
  -22.8079  -13.4793   21.0574 C   0  0  0  0  0  0  0  0  0  0  0  0
  -25.5464  -21.8211   14.0607 C   0  0  0  0  0  0  0  0  0  0  0  0
  -22.8622  -21.6020   15.8688 C   0  0  0  0  0  0  0  0  0  0  0  0
  -22.0678  -21.1448   19.3584 C   0  0  0  0  0  0  0  0  0  0  0  0
  -31.1109  -12.9426   21.4581 C   0  0  0  0  0  0  0  0  0  0  0  0
  -24.9589  -23.7823    9.3846 C   0  0  0  0  0  0  0  0  0  0  0  0
  -25.6064  -19.3994   14.7592 C   0  0  0  0  0  0  0  0  0  0  0  0
  -25.0540  -21.1885   17.0480 C   0  0  0  0  0  0  0  0  0  0  0  0
  -24.3068  -23.9964   10.7481 C   0  0  0  0  0  0  0  0  0  0  0  0
  -29.4880  -13.7521   18.3942 C   0  0  0  0  0  0  0  0  0  0  0  0
  -30.3643  -15.7375   27.1152 C   0  0  0  0  0  0  0  0  0  0  0  0
  -25.3707  -24.1785   11.8260 C   0  0  0  0  0  0  0  0  0  0  0  0
  -29.2792  -17.5888   21.3600 C   0  0  0  0  0  0  0  0  0  0  0  0
  -28.8096  -19.4952   22.9573 C   0  0  0  0  0  0  0  0  0  0  0  0
  -28.0163  -13.4347   18.6648 C   0  0  0  0  0  0  0  0  0  0  0  0
  -30.0191  -16.8418   22.4697 C   0  0  0  0  0  0  0  0  0  0  0  0
  -29.5495  -18.7476   24.0665 C   0  0  0  0  0  0  0  0  0  0  0  0
  -29.9825  -14.5667   26.2292 C   0  0  0  0  0  0  0  0  0  0  0  0
  -30.4166  -12.7575   19.0874 C   0  0  0  0  0  0  0  0  0  0  0  0
  -28.7153  -12.2845   20.8066 C   0  0  0  0  0  0  0  0  0  0  0  0
  -29.9049  -16.9300   26.3063 C   0  0  0  0  0  0  0  0  0  0  0  0
  -26.2520  -22.9295   11.9478 C   0  0  1  0  0  0  0  0  0  0  0  0
  -24.7626  -20.6612   14.6068 C   0  0  1  0  0  0  0  0  0  0  0  0
  -29.3332  -19.1094   21.5663 C   0  0  0  0  0  0  0  0  0  0  0  0
  -27.7415  -13.2934   20.1740 C   0  0  2  0  0  0  0  0  0  0  0  0
  -29.4846  -17.2393   23.8429 C   0  0  0  0  0  0  0  0  0  0  0  0
  -30.2925  -15.0334   24.8071 C   0  0  2  0  0  0  0  0  0  0  0  0
  -20.0410  -20.1497   20.4535 C   0  0  0  0  0  0  0  0  0  0  0  0
  -21.8716  -24.4852   15.9939 C   0  0  0  0  0  0  0  0  0  0  0  0
  -20.9103  -23.9836   18.2506 C   0  0  0  0  0  0  0  0  0  0  0  0
  -20.0824  -22.7557   16.2432 C   0  0  0  0  0  0  0  0  0  0  0  0
  -23.7009  -19.2014   20.8801 C   0  0  0  0  0  0  0  0  0  0  0  0
  -28.5433  -19.8293   20.4748 C   0  0  0  0  0  0  0  0  0  1  0  0
  -31.6501  -14.5644   24.3037 C   0  0  0  0  0  0  0  0  0  0  0  0
  -31.6511  -13.1000   23.8753 C   0  0  0  0  0  0  0  0  0  0  0  0
  -22.3833  -22.2355   17.1527 C   0  0  1  0  0  0  0  0  0  0  0  0
  -21.4717  -19.9047   19.9999 C   0  0  2  0  0  0  0  0  0  0  0  0
  -21.3396  -23.3609   16.9049 C   0  0  0  0  0  0  0  0  0  0  0  0
  -25.9513  -11.6405   20.5557 N   0  0  0  0  0  0  0  0  0  0  0  0
  -26.2923  -12.9359   20.4481 N   0  0  0  0  0  0  0  0  0  0  0  0
  -24.1723  -21.1027   15.8720 N   0  0  0  0  0  0  0  0  0  0  0  0
  -30.1047  -12.6718   20.5162 N   0  0  0  0  0  0  0  0  0  0  0  0
  -25.4127  -15.1337   20.5292 N   0  0  0  0  0  0  0  0  0  0  0  0
  -21.7947  -12.5353   21.2735 N   0  0  0  0  0  0  0  0  0  0  0  0
  -25.5592  -21.8916   12.6807 N   0  0  0  0  0  0  0  0  0  0  0  0
  -21.8977  -21.1440   17.9901 N   0  0  0  0  0  0  0  0  0  0  0  0
  -30.7295  -12.8448   22.7907 N   0  0  0  0  0  0  0  0  0  0  0  0
  -30.3003  -16.5582   24.8957 N   0  3  2  0  0  0  0  0  0  0  0  0
  -22.2773  -19.4966   21.1854 N   0  3  0  0  0  0  0  0  0  0  0  0
  -22.5183  -14.6997   21.0494 O   0  0  0  0  0  0  0  0  0  0  0  0
  -26.0974  -22.5956   14.8341 O   0  0  0  0  0  0  0  0  0  0  0  0
  -22.0993  -21.5455   14.9011 O   0  0  0  0  0  0  0  0  0  0  0  0
  -22.6252  -22.0277   20.0068 O   0  0  0  0  0  0  0  0  0  0  0  0
  -32.2624  -13.2540   21.1355 O   0  0  0  0  0  0  0  0  0  0  0  0
  -21.7233   -6.9694   21.4814 O   0  0  0  0  0  0  0  0  0  0  0  0
  -29.1152  -19.5178   19.2051 O   0  0  0  0  0  0  0  0  0  1  0  0
  -16.6748   -7.3617   23.6638 F   0  0  0  0  0  0  0  0  0  0  0  0
  -19.7550   -8.4642   20.2429 F   0  0  0  0  0  0  0  0  0  0  0  0
  1  2  1  0  0  0  0
  1  5  2  0  0  0  0
  2  6  2  0  0  0  0
  3  8  2  0  0  0  0
  3 15  1  0  0  0  0
  4  9  1  0  0  0  0
  4 15  2  0  0  0  0
  5 17  1  0  0  0  0
  6 19  1  0  0  0  0
  7 10  2  0  0  0  0
  7 18  1  0  0  0  0
  8 21  1  0  0  0  0
  9 21  2  0  0  0  0
 10 22  1  0  0  0  0
 11 12  2  0  0  0  0
 11 23  1  0  0  0  0
 12 24  1  0  0  0  0
 13 20  1  0  0  0  0
 13 22  2  0  0  0  0
 14 24  2  0  0  0  0
 14 25  1  0  0  0  0
 15 26  1  0  0  0  0
 16 26  1  0  0  0  0
 16 27  2  0  0  0  0
 16 28  1  0  0  0  0
 17 19  2  0  0  0  0
 17 33  1  0  0  0  0
 18 20  2  0  0  0  0
 18 34  1  0  0  0  0
 19 49  1  0  0  0  0
 20 35  1  0  0  0  0
 21 82  1  0  0  0  0
 22 83  1  0  0  0  0
 23 25  2  0  0  0  0
 23 82  1  0  0  0  0
 24 84  1  0  0  0  0
 25 85  1  0  0  0  0
 26 66  2  0  0  0  0
 27 67  1  0  0  0  0
 27 70  1  0  0  0  0
 28 71  1  0  0  0  0
 28 77  2  0  0  0  0
 29 50  1  0  0  0  0
 29 72  1  0  0  0  0
 29 78  2  0  0  0  0
 30 63  1  0  0  0  0
 30 68  1  0  0  0  0
 30 79  2  0  0  0  0
 31 64  1  0  0  0  0
 31 73  1  0  0  0  0
 31 80  2  0  0  0  0
 32 69  1  0  0  0  0
 32 74  1  0  0  0  0
 32 81  2  0  0  0  0
 33 36  1  0  0  0  0
 34 50  1  0  0  0  0
 35 68  1  0  0  0  0
 36 39  1  0  0  0  0
 37 42  1  0  0  0  0
 37 46  1  0  0  0  0
 38 45  1  0  0  0  0
 38 48  1  0  0  0  0
 39 49  1  0  0  0  0
 40 43  1  0  0  0  0
 40 51  1  0  0  0  0
 41 44  1  0  0  0  0
 41 51  1  0  0  0  0
 42 52  1  0  0  0  0
 43 53  1  0  0  0  0
 44 53  1  0  0  0  0
 45 54  1  0  0  0  0
 46 69  1  0  0  0  0
 47 52  1  0  0  0  0
 47 69  1  0  0  0  0
 48 75  1  0  0  0  0
 49 72  1  0  0  0  0
 50 68  1  0  0  0  0
 51 60  1  0  0  0  0
 52 67  1  0  0  0  0
 53 75  1  0  0  0  0
 54 61  1  0  0  0  0
 54 75  1  0  0  0  0
 55 64  1  0  0  0  0
 56 65  1  0  0  0  0
 57 65  1  0  0  0  0
 58 65  1  0  0  0  0
 59 76  1  0  0  0  0
 60 83  1  0  0  0  0
 61 62  1  0  0  0  0
 62 74  1  0  0  0  0
 63 65  1  0  0  0  0
 63 73  1  0  0  0  0
 64 76  1  0  0  0  0
 66 67  1  0  0  0  0
M  CHG  2  75   1  76   1
M  ISO  4  32 100  60 101  74 100  83 101
M  END
> <Batch ID>
0123

> <Smiles>
CNC(C)C(=O)NC(C(=O)N1Cc2cc([101O:1][101CH2:1]C3CCC(N4CCCC4CC[100NH:0][100C:0](=O)N4CCCC(n5nc(-c6ccc(Oc7ccc(F)cc7F)cc6)c(C(N)=O)c5N)C4)CC3)ccc2CC1C(=O)NC1CCCc2ccccc21)C(C)(C)C

> <Shape>
0.157

> <Color>
0.175

> <Negative vol penalty>
0.000

$$$$

  -OEChem-04052320303D

 87 95  0     1  0  0  0  0  0999 V2000
  -23.3074  -23.8224   18.7409 C   0  0  0  0  0  0  0  0  0  0  0  0
  -24.4211  -23.0953   19.1488 C   0  0  0  0  0  0  0  0  0  0  0  0
  -21.1504  -27.2290   20.0775 C   0  0  0  0  0  0  0  0  0  0  0  0
  -21.8347  -26.1612   22.1338 C   0  0  0  0  0  0  0  0  0  0  0  0
  -22.0281  -23.3873   19.0844 C   0  0  0  0  0  0  0  0  0  0  0  0
  -24.2561  -21.9330   19.9014 C   0  0  0  0  0  0  0  0  0  0  0  0
  -27.1801  -18.1326   18.2728 C   0  0  0  0  0  0  0  0  0  0  0  0
  -19.9220  -26.5717   20.1449 C   0  0  0  0  0  0  0  0  0  0  0  0
  -20.6063  -25.5039   22.2013 C   0  0  0  0  0  0  0  0  0  0  0  0
  -28.5266  -18.1660   18.6328 C   0  0  0  0  0  0  0  0  0  0  0  0
  -16.4677  -25.4531   19.9661 C   0  0  0  0  0  0  0  0  0  0  0  0
  -15.3178  -26.1996   19.7092 C   0  0  0  0  0  0  0  0  0  0  0  0
  -28.0878  -16.5811   20.3977 C   0  0  0  0  0  0  0  0  0  0  0  0
  -15.8516  -27.6587   21.5594 C   0  0  0  0  0  0  0  0  0  0  0  0
  -22.1068  -27.0237   21.0719 C   0  0  0  0  0  0  0  0  0  0  0  0
  -23.6992  -28.9589   21.5479 C   0  0  0  0  0  0  0  0  0  0  0  0
  -21.8470  -22.2139   19.8333 C   0  0  0  0  0  0  0  0  0  0  0  0
  -26.2738  -17.3303   18.9807 C   0  0  0  0  0  0  0  0  0  0  0  0
  -22.9733  -21.4825   20.2564 C   0  0  0  0  0  0  0  0  0  0  0  0
  -26.7308  -16.5374   20.0431 C   0  0  0  0  0  0  0  0  0  0  0  0
  -19.6499  -25.7091   21.2068 C   0  0  0  0  0  0  0  0  0  0  0  0
  -28.9802  -17.3923   19.6972 C   0  0  0  0  0  0  0  0  0  0  0  0
  -17.3096  -25.8094   21.0197 C   0  0  0  0  0  0  0  0  0  0  0  0
  -15.0097  -27.3024   20.5058 C   0  0  0  0  0  0  0  0  0  0  0  0
  -17.0015  -26.9122   21.8163 C   0  0  0  0  0  0  0  0  0  0  0  0
  -23.3761  -27.7020   21.0025 C   0  0  0  0  0  0  0  0  0  0  0  0
  -25.0166  -29.1513   21.2103 C   0  0  0  0  0  0  0  0  0  0  0  0
  -22.8817  -29.8711   22.2931 C   0  0  0  0  0  0  0  0  0  0  0  0
  -23.6723  -17.8841   20.7212 C   0  0  0  0  0  0  0  0  0  0  0  0
  -23.4856  -14.6460   20.7635 C   0  0  0  0  0  0  0  0  0  0  0  0
  -25.0930  -11.6475   20.4949 C   0  0  0  0  0  0  0  0  0  0  0  0
  -29.4918  -25.3825   19.9377 C   0  0  0  0  0  0  0  0  0  0  0  0
  -20.4468  -21.8088   20.2207 C   0  0  0  0  0  0  0  0  0  0  0  0
  -24.8295  -17.2850   18.5630 C   0  0  0  0  0  0  0  0  0  0  0  0
  -25.8021  -15.6436   20.8223 C   0  0  0  0  0  0  0  0  0  0  0  0
  -20.3417  -20.3637   20.7013 C   0  0  0  0  0  0  0  0  0  0  0  0
  -28.2329  -27.9889   17.8644 C   0  0  0  0  0  0  0  0  0  0  0  0
  -21.4520  -20.0510   21.6994 C   0  0  0  0  0  0  0  0  0  0  0  0
  -26.8746  -28.3243   18.4828 C   0  0  0  0  0  0  0  0  0  0  0  0
  -28.5343  -26.4938   17.9415 C   0  0  0  0  0  0  0  0  0  0  0  0
  -27.0730  -26.2456   19.9104 C   0  0  0  0  0  0  0  0  0  0  0  0
  -28.9049  -19.8924   24.4695 C   0  0  0  0  0  0  0  0  0  0  0  0
  -22.8341  -20.2032   21.0528 C   0  0  1  0  0  0  0  0  0  0  0  0
  -23.8985  -16.8244   19.6803 C   0  0  1  0  0  0  0  0  0  0  0  0
  -30.2057  -18.6582   22.9028 C   0  0  2  0  0  0  0  0  0  0  0  0
  -26.7493  -27.7494   19.9065 C   0  0  2  0  0  0  0  0  0  0  0  0
  -29.7470  -20.0861   23.2175 C   0  0  1  0  0  0  0  0  0  0  0  0
  -30.6142  -18.1474   24.2880 C   0  0  2  0  0  0  0  0  0  0  0  0
  -24.6824   -9.1747   20.6134 C   0  0  0  0  0  0  0  0  0  0  0  0
  -31.0154  -16.2194   25.8454 C   0  0  0  0  0  0  0  0  0  0  0  0
  -29.1486  -16.1124   24.1699 C   0  0  0  0  0  0  0  0  0  0  0  0
  -31.9544  -19.0626   19.4901 C   0  0  0  0  0  0  0  0  0  0  0  0
  -23.3347  -14.8193   23.8060 C   0  0  0  0  0  0  0  0  0  0  0  0
  -23.8818  -12.3780   23.9026 C   0  0  0  0  0  0  0  0  0  0  0  0
  -21.7899  -13.1421   22.7788 C   0  0  0  0  0  0  0  0  0  0  0  0
  -27.6245  -20.1911   22.0967 C   0  0  0  0  0  0  0  0  0  0  0  0
  -25.9677  -11.2508   17.6955 C   0  0  0  0  0  0  0  0  0  0  0  0
  -31.3376  -18.5868   21.8861 C   0  0  0  0  0  0  0  0  0  0  0  0
  -30.2838  -22.7869   21.8529 C   0  0  0  0  0  0  0  0  0  0  0  0
  -30.3123  -24.3036   22.0166 C   0  0  0  0  0  0  0  0  0  0  0  0
  -28.9635  -22.1733   22.3220 C   0  0  0  0  0  0  0  0  0  0  0  0
  -24.0196  -13.5559   21.6611 C   0  0  1  0  0  0  0  0  0  0  0  0
  -24.7604  -10.3933   19.7069 C   0  0  2  0  0  0  0  0  0  0  0  0
  -30.5586  -16.6394   24.4463 C   0  0  0  0  0  0  0  0  0  0  0  0
  -30.8304  -18.6855   20.4457 C   0  0  2  0  0  0  0  0  0  1  0  0
  -23.2739  -13.4921   23.0239 C   0  0  0  0  0  0  0  0  0  0  0  0
  -24.4052  -27.1358   20.3666 N   0  0  0  0  0  0  0  0  0  0  0  0
  -25.3879  -28.0413   20.5102 N   0  0  0  0  0  0  0  0  0  0  0  0
  -24.3981  -15.6388   20.3795 N   0  0  0  0  0  0  0  0  0  0  0  0
  -28.3994  -26.0118   19.3183 N   0  0  0  0  0  0  0  0  0  0  0  0
  -25.8820  -30.1600   21.4470 N   0  0  0  0  0  0  0  0  0  0  0  0
  -21.5504  -29.5170   22.5514 N   0  0  0  0  0  0  0  0  0  0  0  0
  -23.1334  -19.0553   20.2238 N   0  0  0  0  0  0  0  0  0  0  0  0
  -23.9555  -12.3213   20.8864 N   0  0  0  0  0  0  0  0  0  0  0  0
  -29.2815  -24.9615   21.2451 N   0  0  0  0  0  0  0  0  0  0  0  0
  -28.9903  -20.7187   22.1482 N   0  0  1  0  0  0  0  0  0  0  0  0
  -29.6113  -18.7932   25.2156 N   0  3  0  0  0  0  0  0  0  0  0  0
  -25.8008  -10.1419   18.6699 N   0  3  0  0  0  0  0  0  0  0  0  0
  -23.3140  -30.9749   22.7032 O   0  0  0  0  0  0  0  0  0  0  0  0
  -23.9636  -17.6555   21.8893 O   0  0  0  0  0  0  0  0  0  0  0  0
  -22.3042  -14.6137   20.4101 O   0  0  0  0  0  0  0  0  0  0  0  0
  -26.2464  -11.9927   20.7417 O   0  0  0  0  0  0  0  0  0  0  0  0
  -30.5761  -25.2134   19.3696 O   0  0  0  0  0  0  0  0  0  0  0  0
  -18.4512  -25.0677   21.2730 O   0  0  0  0  0  0  0  0  0  0  0  0
  -30.2938  -17.4235   20.0510 O   0  0  0  0  0  0  0  0  0  1  0  0
  -13.9062  -28.0201   20.2579 F   0  0  0  0  0  0  0  0  0  0  0  0
  -17.8070  -27.2600   22.8292 F   0  0  0  0  0  0  0  0  0  0  0  0
  1  2  1  0  0  0  0
  1  5  2  0  0  0  0
  2  6  2  0  0  0  0
  3  8  2  0  0  0  0
  3 15  1  0  0  0  0
  4  9  1  0  0  0  0
  4 15  2  0  0  0  0
  5 17  1  0  0  0  0
  6 19  1  0  0  0  0
  7 10  2  0  0  0  0
  7 18  1  0  0  0  0
  8 21  1  0  0  0  0
  9 21  2  0  0  0  0
 10 22  1  0  0  0  0
 11 12  2  0  0  0  0
 11 23  1  0  0  0  0
 12 24  1  0  0  0  0
 13 20  1  0  0  0  0
 13 22  2  0  0  0  0
 14 24  2  0  0  0  0
 14 25  1  0  0  0  0
 15 26  1  0  0  0  0
 16 26  1  0  0  0  0
 16 27  2  0  0  0  0
 16 28  1  0  0  0  0
 17 19  2  0  0  0  0
 17 33  1  0  0  0  0
 18 20  2  0  0  0  0
 18 34  1  0  0  0  0
 19 43  1  0  0  0  0
 20 35  1  0  0  0  0
 21 84  1  0  0  0  0
 22 85  1  0  0  0  0
 23 25  2  0  0  0  0
 23 84  1  0  0  0  0
 24 86  1  0  0  0  0
 25 87  1  0  0  0  0
 26 67  2  0  0  0  0
 27 68  1  0  0  0  0
 27 71  1  0  0  0  0
 28 72  1  0  0  0  0
 28 79  2  0  0  0  0
 29 44  1  0  0  0  0
 29 73  1  0  0  0  0
 29 80  2  0  0  0  0
 30 62  1  0  0  0  0
 30 69  1  0  0  0  0
 30 81  2  0  0  0  0
 31 63  1  0  0  0  0
 31 74  1  0  0  0  0
 31 82  2  0  0  0  0
 32 70  1  0  0  0  0
 32 75  1  0  0  0  0
 32 83  2  0  0  0  0
 33 36  1  0  0  0  0
 34 44  1  0  0  0  0
 35 69  1  0  0  0  0
 36 38  1  0  0  0  0
 37 39  1  0  0  0  0
 37 40  1  0  0  0  0
 38 43  1  0  0  0  0
 39 46  1  0  0  0  0
 40 70  1  0  0  0  0
 41 46  1  0  0  0  0
 41 70  1  0  0  0  0
 42 47  1  0  0  0  0
 42 77  1  0  0  0  0
 43 73  1  0  0  0  0
 44 69  1  0  0  0  0
 45 47  1  0  0  0  0
 45 48  1  0  0  0  0
 45 58  1  0  0  0  0
 46 68  1  0  0  0  0
 47 76  1  0  0  0  0
 48 64  1  0  0  0  0
 48 77  1  0  0  0  0
 49 63  1  0  0  0  0
 50 64  1  0  0  0  0
 51 64  1  0  0  0  0
 52 65  1  0  0  0  0
 53 66  1  0  0  0  0
 54 66  1  0  0  0  0
 55 66  1  0  0  0  0
 56 76  1  0  0  0  0
 57 78  1  0  0  0  0
 58 65  1  0  0  0  0
 59 60  1  0  0  0  0
 59 61  1  0  0  0  0
 60 75  1  0  0  0  0
 61 76  1  0  0  0  0
 62 66  1  0  0  0  0
 62 74  1  0  0  0  0
 63 78  1  0  0  0  0
 65 85  1  0  0  0  0
 67 68  1  0  0  0  0
M  CHG  2  77   1  78   1
M  ISO  4  32 100  65 101  75 100  85 101
M  END
> <Batch ID>
0123

> <Smiles>
CNC(C)C(=O)NC(C(=O)N1Cc2cc([101O:1][101CH:1](C)CC3C(C(C)C)NCC3N(C)CCC[100NH:0][100C:0](=O)N3CCCC(n4nc(-c5ccc(Oc6ccc(F)cc6F)cc5)c(C(N)=O)c4N)C3)ccc2CC1C(=O)NC1CCCc2ccccc21)C(C)(C)C

> <Shape>
0.209

> <Color>
0.087

> <Negative vol penalty>
0.000

$$$$

  -OEChem-04052320303D

 92101  0     1  0  0  0  0  0999 V2000
  -28.1070  -33.9467   25.1823 C   0  0  0  0  0  0  0  0  0  0  0  0
  -28.2394  -32.6891   24.6025 C   0  0  0  0  0  0  0  0  0  0  0  0
  -24.6748   -8.5360   20.4904 C   0  0  0  0  0  0  0  0  0  0  0  0
  -23.1415  -10.3871   20.2463 C   0  0  0  0  0  0  0  0  0  0  0  0
  -26.8736  -34.3529   25.6897 C   0  0  0  0  0  0  0  0  0  0  0  0
  -27.1384  -31.8363   24.5307 C   0  0  0  0  0  0  0  0  0  0  0  0
  -26.6900  -29.6198   19.9996 C   0  0  0  0  0  0  0  0  0  0  0  0
  -23.6394   -7.7437   20.9861 C   0  0  0  0  0  0  0  0  0  0  0  0
  -22.1061   -9.5948   20.7420 C   0  0  0  0  0  0  0  0  0  0  0  0
  -27.5330  -28.5421   19.7318 C   0  0  0  0  0  0  0  0  0  0  0  0
  -21.9890   -7.3449   23.9087 C   0  0  0  0  0  0  0  0  0  0  0  0
  -22.2504   -6.5712   25.0394 C   0  0  0  0  0  0  0  0  0  0  0  0
  -30.2484  -20.2411   16.9419 C   0  0  0  0  0  0  0  0  0  0  0  0
  -25.7359  -27.0167   20.2441 C   0  0  0  0  0  0  0  0  0  0  0  0
  -21.7395   -4.5690   23.7875 C   0  0  0  0  0  0  0  0  0  0  0  0
  -30.9221  -21.4030   16.6015 C   0  0  0  0  0  0  0  0  0  0  0  0
  -24.4259   -9.8577   20.1205 C   0  0  0  0  0  0  0  0  0  0  0  0
  -25.8853  -10.8230   18.2642 C   0  0  0  0  0  0  0  0  0  0  0  0
  -25.7546  -33.5084   25.6155 C   0  0  0  0  0  0  0  0  0  0  0  0
  -25.3645  -29.4034   20.4030 C   0  0  0  0  0  0  0  0  0  0  0  0
  -25.8891  -32.2310   25.0388 C   0  0  0  0  0  0  0  0  0  0  0  0
  -24.8773  -28.0933   20.5140 C   0  0  0  0  0  0  0  0  0  0  0  0
  -29.0996  -21.5127   18.6294 C   0  0  0  0  0  0  0  0  0  0  0  0
  -29.3214  -20.3054   17.9762 C   0  0  0  0  0  0  0  0  0  0  0  0
  -22.3550   -8.2731   21.1119 C   0  0  0  0  0  0  0  0  0  0  0  0
  -27.0569  -27.2403   19.8568 C   0  0  0  0  0  0  0  0  0  0  0  0
  -21.6028   -6.7307   22.7173 C   0  0  0  0  0  0  0  0  0  0  0  0
  -22.1257   -5.1832   24.9789 C   0  0  0  0  0  0  0  0  0  0  0  0
  -21.4780   -5.3427   22.6568 C   0  0  0  0  0  0  0  0  0  0  0  0
  -25.4952  -10.6768   19.6089 C   0  0  0  0  0  0  0  0  0  0  0  0
  -29.8249  -22.6176   18.2136 C   0  0  0  0  0  0  0  0  0  0  0  0
  -26.9393  -11.7026   18.3061 C   0  0  0  0  0  0  0  0  0  0  0  0
  -25.3434  -10.2177   17.0828 C   0  0  0  0  0  0  0  0  0  0  0  0
  -23.6723  -30.0847   23.0061 C   0  0  0  0  0  0  0  0  0  0  0  0
  -21.2141  -28.9203   21.2387 C   0  0  0  0  0  0  0  0  0  0  0  0
  -20.1841  -26.9278   18.6665 C   0  0  0  0  0  0  0  0  0  0  0  0
  -29.2925  -16.3911   20.2102 C   0  0  0  0  0  0  0  0  0  0  0  0
  -24.4533  -33.9728   26.2201 C   0  0  0  0  0  0  0  0  0  0  0  0
  -24.4601  -30.5770   20.6623 C   0  0  0  0  0  0  0  0  0  0  0  0
  -23.4565  -27.8076   20.9240 C   0  0  0  0  0  0  0  0  0  0  0  0
  -23.2456  -33.1560   25.7678 C   0  0  0  0  0  0  0  0  0  0  0  0
  -29.5945  -13.4746   22.2299 C   0  0  0  0  0  0  0  0  0  0  0  0
  -23.5504  -31.6635   25.8477 C   0  0  0  0  0  0  0  0  0  0  0  0
  -28.5831  -12.5017   21.6212 C   0  0  0  0  0  0  0  0  0  0  0  0
  -29.0878  -14.9146   22.1887 C   0  0  0  0  0  0  0  0  0  0  0  0
  -28.6908  -22.0767   21.0858 C   0  0  0  0  0  0  0  0  0  0  0  0
  -27.6557  -14.4123   20.2470 C   0  0  0  0  0  0  0  0  0  0  0  0
  -26.5105  -22.9821   20.9577 C   0  0  0  0  0  0  0  0  0  0  0  0
  -28.0991  -21.6127   19.7561 C   0  0  1  0  0  0  0  0  0  0  0  0
  -24.7121  -31.2872   24.9201 C   0  0  1  0  0  0  0  0  0  0  0  0
  -23.2783  -30.2328   21.5637 C   0  0  1  0  0  0  0  0  0  0  0  0
  -28.1459  -12.9545   20.2151 C   0  0  2  0  0  0  0  0  0  0  0  0
  -26.9952  -22.6473   19.5512 C   0  0  1  0  0  0  0  0  0  0  0  0
  -27.2296  -18.9535   17.6289 C   0  0  0  0  0  0  0  0  0  0  0  0
  -18.1110  -26.1494   17.4860 C   0  0  0  0  0  0  0  0  0  0  0  0
  -23.5118  -22.1458   18.2051 C   0  0  0  0  0  0  0  0  0  0  0  0
  -25.0252  -24.0619   17.5630 C   0  0  0  0  0  0  0  0  0  0  0  0
  -20.6046  -27.0338   23.5581 C   0  0  0  0  0  0  0  0  0  0  0  0
  -19.1946  -25.6791   21.9945 C   0  0  0  0  0  0  0  0  0  0  0  0
  -18.5884  -28.0493   22.4819 C   0  0  0  0  0  0  0  0  0  0  0  0
  -21.0632  -28.1081   16.0988 C   0  0  0  0  0  0  0  0  0  0  0  0
  -29.6278  -23.9538   18.8840 C   0  0  0  0  0  0  0  0  0  0  0  0
  -29.1854  -25.0634   17.9277 C   0  0  0  0  0  0  0  0  0  0  0  0
  -29.3940  -17.7711   18.1500 C   0  0  0  0  0  0  0  0  0  0  0  0
  -28.9062  -26.3882   18.6279 C   0  0  0  0  0  0  0  0  0  1  0  0
  -28.5799  -19.0693   18.3652 C   0  0  1  0  0  0  0  0  0  0  0  0
  -20.5990  -27.5576   21.0299 C   0  0  1  0  0  0  0  0  0  0  0  0
  -19.2267  -27.1824   17.5163 C   0  0  2  0  0  0  0  0  0  0  0  0
  -24.7125  -22.9920   18.5967 C   0  0  0  0  0  0  0  0  0  0  0  0
  -19.7741  -27.0849   22.2602 C   0  0  0  0  0  0  0  0  0  0  0  0
  -30.7336  -22.5939   17.2129 N   0  0  0  0  0  0  0  0  0  0  0  0
  -26.2407  -11.4052   20.4441 N   0  0  0  0  0  0  0  0  0  0  0  0
  -27.1100  -12.0174   19.6221 N   0  0  0  0  0  0  0  0  0  0  0  0
  -27.5022  -22.4067   21.8743 N   0  0  0  0  0  0  0  0  0  0  0  0
  -22.6130  -28.9884   21.1728 N   0  0  0  0  0  0  0  0  0  0  0  0
  -28.6910  -15.2819   20.8273 N   0  0  0  0  0  0  0  0  0  0  0  0
  -27.7276  -12.2298   17.3453 N   0  0  0  0  0  0  0  0  0  0  0  0
  -24.2608   -9.3381   17.2191 N   0  0  0  0  0  0  0  0  0  0  0  0
  -24.2592  -31.2124   23.5476 N   0  0  0  0  0  0  0  0  0  0  0  0
  -19.8312  -27.6415   19.7923 N   0  0  0  0  0  0  0  0  0  0  0  0
  -28.8637  -16.6663   18.9175 N   0  0  0  0  0  0  0  0  0  0  0  0
  -25.8987  -22.0983   18.7257 N   0  3  0  0  0  0  0  0  0  0  0  0
  -19.9530  -27.1279   16.2161 N   0  3  0  0  0  0  0  0  0  0  0  0
  -25.8160  -10.4374   15.9417 O   0  0  0  0  0  0  0  0  0  0  0  0
  -23.4583  -29.0262   23.5852 O   0  0  0  0  0  0  0  0  0  0  0  0
  -20.4801  -29.8899   21.4453 O   0  0  0  0  0  0  0  0  0  0  0  0
  -21.1465  -26.1687   18.5766 O   0  0  0  0  0  0  0  0  0  0  0  0
  -30.1522  -17.0817   20.7680 O   0  0  0  0  0  0  0  0  0  0  0  0
  -21.3444   -7.5002   21.5954 O   0  0  0  0  0  0  0  0  0  0  0  0
  -27.8778  -26.1866   19.5965 O   0  0  0  0  0  0  0  0  0  1  0  0
  -22.3782   -4.4402   26.0644 F   0  0  0  0  0  0  0  0  0  0  0  0
  -21.1085   -4.7469   21.5147 F   0  0  0  0  0  0  0  0  0  0  0  0
  1  2  1  0  0  0  0
  1  5  2  0  0  0  0
  2  6  2  0  0  0  0
  3  8  2  0  0  0  0
  3 17  1  0  0  0  0
  4  9  1  0  0  0  0
  4 17  2  0  0  0  0
  5 19  1  0  0  0  0
  6 21  1  0  0  0  0
  7 10  2  0  0  0  0
  7 20  1  0  0  0  0
  8 25  1  0  0  0  0
  9 25  2  0  0  0  0
 10 26  1  0  0  0  0
 11 12  2  0  0  0  0
 11 27  1  0  0  0  0
 12 28  1  0  0  0  0
 13 16  1  0  0  0  0
 13 24  2  0  0  0  0
 14 22  1  0  0  0  0
 14 26  2  0  0  0  0
 15 28  2  0  0  0  0
 15 29  1  0  0  0  0
 16 71  2  0  0  0  0
 17 30  1  0  0  0  0
 18 30  1  0  0  0  0
 18 32  2  0  0  0  0
 18 33  1  0  0  0  0
 19 21  2  0  0  0  0
 19 38  1  0  0  0  0
 20 22  2  0  0  0  0
 20 39  1  0  0  0  0
 21 50  1  0  0  0  0
 22 40  1  0  0  0  0
 23 24  1  0  0  0  0
 23 31  2  0  0  0  0
 23 49  1  0  0  0  0
 24 66  1  0  0  0  0
 25 89  1  0  0  0  0
 26 90  1  0  0  0  0
 27 29  2  0  0  0  0
 27 89  1  0  0  0  0
 28 91  1  0  0  0  0
 29 92  1  0  0  0  0
 30 72  2  0  0  0  0
 31 62  1  0  0  0  0
 31 71  1  0  0  0  0
 32 73  1  0  0  0  0
 32 77  1  0  0  0  0
 33 78  1  0  0  0  0
 33 84  2  0  0  0  0
 34 51  1  0  0  0  0
 34 79  1  0  0  0  0
 34 85  2  0  0  0  0
 35 67  1  0  0  0  0
 35 75  1  0  0  0  0
 35 86  2  0  0  0  0
 36 68  1  0  0  0  0
 36 80  1  0  0  0  0
 36 87  2  0  0  0  0
 37 76  1  0  0  0  0
 37 81  1  0  0  0  0
 37 88  2  0  0  0  0
 38 41  1  0  0  0  0
 39 51  1  0  0  0  0
 40 75  1  0  0  0  0
 41 43  1  0  0  0  0
 42 44  1  0  0  0  0
 42 45  1  0  0  0  0
 43 50  1  0  0  0  0
 44 52  1  0  0  0  0
 45 76  1  0  0  0  0
 46 49  1  0  0  0  0
 46 74  1  0  0  0  0
 47 52  1  0  0  0  0
 47 76  1  0  0  0  0
 48 53  1  0  0  0  0
 48 74  1  0  0  0  0
 49 53  1  0  0  0  0
 50 79  1  0  0  0  0
 51 75  1  0  0  0  0
 52 73  1  0  0  0  0
 53 82  1  0  0  0  0
 54 66  1  0  0  0  0
 55 68  1  0  0  0  0
 56 69  1  0  0  0  0
 57 69  1  0  0  0  0
 58 70  1  0  0  0  0
 59 70  1  0  0  0  0
 60 70  1  0  0  0  0
 61 83  1  0  0  0  0
 62 63  1  0  0  0  0
 63 65  1  0  0  0  0
 64 66  1  0  0  0  0
 64 81  1  0  0  0  0
 65 90  1  0  0  0  0
 67 70  1  0  0  0  0
 67 80  1  0  0  0  0
 68 83  1  0  0  0  0
 69 82  1  0  0  0  0
 72 73  1  0  0  0  0
M  CHG  2  82   1  83   1
M  ISO  4  37 100  65 101  81 100  90 101
M  END
> <Batch ID>
0123

> <Smiles>
CNC(C)C(=O)NC(C(=O)N1Cc2cc([101O:1][101CH2:1]CCc3nccc(C(C)C[100NH:0][100C:0](=O)N4CCCC(n5nc(-c6ccc(Oc7ccc(F)cc7F)cc6)c(C(N)=O)c5N)C4)c3C3CNCC3NC(C)C)ccc2CC1C(=O)NC1CCCc2ccccc21)C(C)(C)C

> <Shape>
0.354

> <Color>
0.098

> <Negative vol penalty>
0.000

$$$$

  -OEChem-04052320303D

 86 94  0     1  0  0  0  0  0999 V2000
  -35.3370  -22.5389   19.3009 C   0  0  0  0  0  0  0  0  0  0  0  0
  -34.0493  -22.0169   19.2316 C   0  0  0  0  0  0  0  0  0  0  0  0
  -22.9891   -9.9210   19.9775 C   0  0  0  0  0  0  0  0  0  0  0  0
  -23.7639   -9.9162   22.2659 C   0  0  0  0  0  0  0  0  0  0  0  0
  -35.6766  -23.4197   20.3270 C   0  0  0  0  0  0  0  0  0  0  0  0
  -33.1008  -22.3745   20.1891 C   0  0  0  0  0  0  0  0  0  0  0  0
  -28.6017  -23.4843   18.1467 C   0  0  0  0  0  0  0  0  0  0  0  0
  -22.2262   -8.7817   20.2334 C   0  0  0  0  0  0  0  0  0  0  0  0
  -23.0010   -8.7769   22.5218 C   0  0  0  0  0  0  0  0  0  0  0  0
  -27.7967  -22.4138   17.7595 C   0  0  0  0  0  0  0  0  0  0  0  0
  -23.2283   -5.4497   21.9657 C   0  0  0  0  0  0  0  0  0  0  0  0
  -23.8299   -4.4141   22.6806 C   0  0  0  0  0  0  0  0  0  0  0  0
  -26.5176  -22.6487   19.7913 C   0  0  0  0  0  0  0  0  0  0  0  0
  -28.5229  -18.3024   19.5718 C   0  0  0  0  0  0  0  0  0  0  0  0
  -26.4545  -18.9969   20.6092 C   0  0  0  0  0  0  0  0  0  0  0  0
  -28.4396  -18.6988   21.9536 C   0  0  0  0  0  0  0  0  0  0  0  0
  -22.1430   -4.6198   24.3980 C   0  0  0  0  0  0  0  0  0  0  0  0
  -23.7580  -10.4883   20.9937 C   0  0  0  0  0  0  0  0  0  0  0  0
  -24.1445  -13.0067   20.8691 C   0  0  0  0  0  0  0  0  0  0  0  0
  -34.7290  -23.7958   21.2920 C   0  0  0  0  0  0  0  0  0  0  0  0
  -28.3771  -24.1391   19.3662 C   0  0  0  0  0  0  0  0  0  0  0  0
  -33.4284  -23.2601   21.2298 C   0  0  0  0  0  0  0  0  0  0  0  0
  -27.3195  -23.7288   20.1904 C   0  0  0  0  0  0  0  0  0  0  0  0
  -27.1717  -18.6333   19.4695 C   0  0  0  0  0  0  0  0  0  0  0  0
  -29.1568  -18.3351   20.8139 C   0  0  0  0  0  0  0  0  0  0  0  0
  -27.0884  -19.0297   21.8513 C   0  0  0  0  0  0  0  0  0  0  0  0
  -22.2321   -8.2096   21.5055 C   0  0  0  0  0  0  0  0  0  0  0  0
  -26.7563  -21.9940   18.5832 C   0  0  0  0  0  0  0  0  0  0  0  0
  -22.0841   -6.0705   22.4670 C   0  0  0  0  0  0  0  0  0  0  0  0
  -23.2872   -3.9991   23.8967 C   0  0  0  0  0  0  0  0  0  0  0  0
  -21.5415   -5.6555   23.6831 C   0  0  0  0  0  0  0  0  0  0  0  0
  -24.5467  -11.6649   20.7298 C   0  0  0  0  0  0  0  0  0  0  0  0
  -25.2476  -13.7361   20.4980 C   0  0  0  0  0  0  0  0  0  0  0  0
  -22.8863  -13.5457   21.2958 C   0  0  0  0  0  0  0  0  0  0  0  0
  -30.0681  -24.5770   22.0218 C   0  0  0  0  0  0  0  0  0  0  0  0
  -27.5714  -26.4826   22.8327 C   0  0  0  0  0  0  0  0  0  0  0  0
  -24.2758  -27.2698   22.4254 C   0  0  0  0  0  0  0  0  0  0  0  0
  -30.7500  -14.6562   20.6497 C   0  0  0  0  0  0  0  0  0  0  0  0
  -35.1562  -24.7140   22.4096 C   0  0  0  0  0  0  0  0  0  0  0  0
  -29.2376  -25.3093   19.7569 C   0  0  0  0  0  0  0  0  0  0  0  0
  -27.0240  -24.4114   21.5001 C   0  0  0  0  0  0  0  0  0  0  0  0
  -33.9863  -25.3348   23.1687 C   0  0  0  0  0  0  0  0  0  0  0  0
  -29.5540  -12.2906   18.2726 C   0  0  0  0  0  0  0  0  0  0  0  0
  -32.9458  -24.2721   23.5077 C   0  0  0  0  0  0  0  0  0  0  0  0
  -28.1143  -12.0232   18.7152 C   0  0  0  0  0  0  0  0  0  0  0  0
  -30.4828  -12.4959   19.4673 C   0  0  0  0  0  0  0  0  0  0  0  0
  -28.6036  -13.2623   20.8655 C   0  0  0  0  0  0  0  0  0  0  0  0
  -32.3646  -23.6435   22.2355 C   0  0  1  0  0  0  0  0  0  0  0  0
  -29.2410  -25.5731   21.2595 C   0  0  1  0  0  0  0  0  0  0  0  0
  -27.6188  -13.1043   19.6944 C   0  0  2  0  0  0  0  0  0  0  0  0
  -24.4773  -20.0970   24.3307 C   0  0  0  0  0  0  0  0  0  0  0  0
  -22.5115  -28.8511   23.2523 C   0  0  0  0  0  0  0  0  0  0  0  0
  -25.8296  -19.8901   16.0646 C   0  0  0  0  0  0  0  0  0  0  0  0
  -27.3477  -24.8772   25.4178 C   0  0  0  0  0  0  0  0  0  0  0  0
  -25.0582  -25.8394   25.7352 C   0  0  0  0  0  0  0  0  0  0  0  0
  -27.0469  -27.3447   25.6928 C   0  0  0  0  0  0  0  0  0  0  0  0
  -23.8658  -28.4083   19.7245 C   0  0  0  0  0  0  0  0  0  0  0  0
  -26.4853  -18.5978   18.1244 C   0  0  0  0  0  0  0  0  0  0  0  0
  -24.9770  -19.7480   22.9701 C   0  0  0  0  0  0  0  0  0  0  0  0
  -30.8627  -16.8063   21.8840 C   0  0  0  0  0  0  0  0  0  0  0  0
  -30.6015  -17.9813   20.9232 C   0  0  2  0  0  0  0  0  0  0  0  0
  -26.2553  -26.2759   23.5426 C   0  0  1  0  0  0  0  0  0  0  0  0
  -23.5783  -28.5989   22.1983 C   0  0  2  0  0  0  0  0  0  0  0  0
  -26.5708  -19.9425   17.3945 C   0  0  2  0  0  0  0  0  0  1  0  0
  -26.4336  -26.0700   25.0734 C   0  0  0  0  0  0  0  0  0  0  0  0
  -25.8069  -11.5459   20.3034 N   0  0  0  0  0  0  0  0  0  0  0  0
  -26.2060  -12.8223   20.1714 N   0  0  0  0  0  0  0  0  0  0  0  0
  -27.8974  -25.5465   21.8410 N   0  0  0  0  0  0  0  0  0  0  0  0
  -29.9566  -13.5349   20.3559 N   0  0  0  0  0  0  0  0  0  0  0  0
  -25.4815  -15.0635   20.4223 N   0  0  0  0  0  0  0  0  0  0  0  0
  -21.8604  -12.6552   21.6405 N   0  0  0  0  0  0  0  0  0  0  0  0
  -26.3631  -19.3974   23.0037 N   0  0  0  0  0  0  0  0  0  0  0  0
  -31.3930  -24.5302   21.6321 N   0  0  0  0  0  0  0  0  0  0  0  0
  -25.4162  -27.4151   23.1867 N   0  0  0  0  0  0  0  0  0  0  0  0
  -30.1732  -15.5964   21.4947 N   0  0  0  0  0  0  0  0  0  0  0  0
  -31.4579  -19.1377   21.3666 N   0  3  0  0  0  0  0  0  0  0  0  0
  -22.9284  -28.6203   20.8573 N   0  3  0  0  0  0  0  0  0  0  0  0
  -22.6727  -14.7805   21.3535 O   0  0  0  0  0  0  0  0  0  0  0  0
  -29.5435  -23.9019   22.8997 O   0  0  0  0  0  0  0  0  0  0  0  0
  -28.2808  -27.4433   23.1416 O   0  0  0  0  0  0  0  0  0  0  0  0
  -23.8495  -26.2084   21.9757 O   0  0  0  0  0  0  0  0  0  0  0  0
  -31.8859  -14.8108   20.1885 O   0  0  0  0  0  0  0  0  0  0  0  0
  -21.4876   -7.0980   21.7556 O   0  0  0  0  0  0  0  0  0  0  0  0
  -25.9695  -20.9490   18.2080 O   0  0  0  0  0  0  0  0  0  1  0  0
  -23.8642   -3.0035   24.5824 F   0  0  0  0  0  0  0  0  0  0  0  0
  -20.4418   -6.2472   24.1692 F   0  0  0  0  0  0  0  0  0  0  0  0
  1  2  1  0  0  0  0
  1  5  2  0  0  0  0
  2  6  2  0  0  0  0
  3  8  2  0  0  0  0
  3 18  1  0  0  0  0
  4  9  1  0  0  0  0
  4 18  2  0  0  0  0
  5 20  1  0  0  0  0
  6 22  1  0  0  0  0
  7 10  2  0  0  0  0
  7 21  1  0  0  0  0
  8 27  1  0  0  0  0
  9 27  2  0  0  0  0
 10 28  1  0  0  0  0
 11 12  2  0  0  0  0
 11 29  1  0  0  0  0
 12 30  1  0  0  0  0
 13 23  1  0  0  0  0
 13 28  2  0  0  0  0
 14 24  1  0  0  0  0
 14 25  2  0  0  0  0
 15 24  2  0  0  0  0
 15 26  1  0  0  0  0
 16 25  1  0  0  0  0
 16 26  2  0  0  0  0
 17 30  2  0  0  0  0
 17 31  1  0  0  0  0
 18 32  1  0  0  0  0
 19 32  1  0  0  0  0
 19 33  2  0  0  0  0
 19 34  1  0  0  0  0
 20 22  2  0  0  0  0
 20 39  1  0  0  0  0
 21 23  2  0  0  0  0
 21 40  1  0  0  0  0
 22 48  1  0  0  0  0
 23 41  1  0  0  0  0
 24 58  1  0  0  0  0
 25 61  1  0  0  0  0
 26 72  1  0  0  0  0
 27 83  1  0  0  0  0
 28 84  1  0  0  0  0
 29 31  2  0  0  0  0
 29 83  1  0  0  0  0
 30 85  1  0  0  0  0
 31 86  1  0  0  0  0
 32 66  2  0  0  0  0
 33 67  1  0  0  0  0
 33 70  1  0  0  0  0
 34 71  1  0  0  0  0
 34 78  2  0  0  0  0
 35 49  1  0  0  0  0
 35 73  1  0  0  0  0
 35 79  2  0  0  0  0
 36 62  1  0  0  0  0
 36 68  1  0  0  0  0
 36 80  2  0  0  0  0
 37 63  1  0  0  0  0
 37 74  1  0  0  0  0
 37 81  2  0  0  0  0
 38 69  1  0  0  0  0
 38 75  1  0  0  0  0
 38 82  2  0  0  0  0
 39 42  1  0  0  0  0
 40 49  1  0  0  0  0
 41 68  1  0  0  0  0
 42 44  1  0  0  0  0
 43 45  1  0  0  0  0
 43 46  1  0  0  0  0
 44 48  1  0  0  0  0
 45 50  1  0  0  0  0
 46 69  1  0  0  0  0
 47 50  1  0  0  0  0
 47 69  1  0  0  0  0
 48 73  1  0  0  0  0
 49 68  1  0  0  0  0
 50 67  1  0  0  0  0
 51 59  1  0  0  0  0
 52 63  1  0  0  0  0
 53 64  1  0  0  0  0
 54 65  1  0  0  0  0
 55 65  1  0  0  0  0
 56 65  1  0  0  0  0
 57 77  1  0  0  0  0
 58 64  1  0  0  0  0
 59 72  1  0  0  0  0
 60 61  1  0  0  0  0
 60 75  1  0  0  0  0
 61 76  1  0  0  0  0
 62 65  1  0  0  0  0
 62 74  1  0  0  0  0
 63 77  1  0  0  0  0
 64 84  1  0  0  0  0
 66 67  1  0  0  0  0
M  CHG  2  76   1  77   1
M  ISO  4  38 100  64 101  75 100  84 101
M  END
> <Batch ID>
0123

> <Smiles>
CCNc1cc(C[101CH:1](C)[101O:1]c2ccc3c(c2)CN(C(=O)C(NC(=O)C(C)NC)C(C)(C)C)C(C(=O)NC2CCCc4ccccc42)C3)cc(C(N)C[100NH:0][100C:0](=O)N2CCCC(n3nc(-c4ccc(Oc5ccc(F)cc5F)cc4)c(C(N)=O)c3N)C2)c1

> <Shape>
0.250

> <Color>
0.193

> <Negative vol penalty>
0.000

$$$$

  -OEChem-04052320303D

 91100  0     1  0  0  0  0  0999 V2000
  -30.3017  -12.6243   16.2546 C   0  0  0  0  0  0  0  0  0  0  0  0
  -28.9649  -12.9229   16.0111 C   0  0  0  0  0  0  0  0  0  0  0  0
  -30.7808  -26.0687   18.9006 C   0  0  0  0  0  0  0  0  0  0  0  0
  -30.5102  -27.1132   21.0622 C   0  0  0  0  0  0  0  0  0  0  0  0
  -30.7941  -12.6498   17.5587 C   0  0  0  0  0  0  0  0  0  0  0  0
  -28.1195  -13.2461   17.0719 C   0  0  0  0  0  0  0  0  0  0  0  0
  -24.6695  -19.5666   17.2712 C   0  0  0  0  0  0  0  0  0  0  0  0
  -32.1120  -26.4836   18.8667 C   0  0  0  0  0  0  0  0  0  0  0  0
  -31.8415  -27.5281   21.0284 C   0  0  0  0  0  0  0  0  0  0  0  0
  -23.8112  -20.6664   17.2776 C   0  0  0  0  0  0  0  0  0  0  0  0
  -33.6494  -29.9838   19.5684 C   0  0  0  0  0  0  0  0  0  0  0  0
  -33.9284  -31.2981   19.9430 C   0  0  0  0  0  0  0  0  0  0  0  0
  -22.9541  -19.9983   19.4380 C   0  0  0  0  0  0  0  0  0  0  0  0
  -18.1778  -26.8415   21.7756 C   0  0  0  0  0  0  0  0  0  0  0  0
  -35.3464  -30.4894   21.7241 C   0  0  0  0  0  0  0  0  0  0  0  0
  -19.9150  -27.2615   23.1452 C   0  0  0  0  0  0  0  0  0  0  0  0
  -29.9798  -26.3836   19.9983 C   0  0  0  0  0  0  0  0  0  0  0  0
  -28.1238  -24.6335   19.9856 C   0  0  0  0  0  0  0  0  0  0  0  0
  -29.9566  -12.9829   18.6349 C   0  0  0  0  0  0  0  0  0  0  0  0
  -24.6843  -18.6860   18.3564 C   0  0  0  0  0  0  0  0  0  0  0  0
  -28.6009  -13.2747   18.3918 C   0  0  0  0  0  0  0  0  0  0  0  0
  -23.8205  -18.9019   19.4427 C   0  0  0  0  0  0  0  0  0  0  0  0
  -19.2206  -26.2453   22.5267 C   0  0  0  0  0  0  0  0  0  0  0  0
  -32.6424  -27.2132   19.9306 C   0  0  0  0  0  0  0  0  0  0  0  0
  -22.9555  -20.8815   18.3582 C   0  0  0  0  0  0  0  0  0  0  0  0
  -34.2189  -28.9223   20.2717 C   0  0  0  0  0  0  0  0  0  0  0  0
  -34.7769  -31.5509   21.0208 C   0  0  0  0  0  0  0  0  0  0  0  0
  -35.0674  -29.1751   21.3495 C   0  0  0  0  0  0  0  0  0  0  0  0
  -28.6043  -25.9558   20.0336 C   0  0  0  0  0  0  0  0  0  0  0  0
  -18.2668  -28.2040   21.9578 C   0  0  0  0  0  0  0  0  0  0  0  0
  -26.7579  -24.7620   20.0492 C   0  0  0  0  0  0  0  0  0  0  0  0
  -28.8476  -23.3993   19.8919 C   0  0  0  0  0  0  0  0  0  0  0  0
  -26.1645  -15.6053   19.9036 C   0  0  0  0  0  0  0  0  0  0  0  0
  -25.8160  -17.6556   22.1587 C   0  0  0  0  0  0  0  0  0  0  0  0
  -26.0957  -19.5365   24.9908 C   0  0  0  0  0  0  0  0  0  0  0  0
  -23.3053  -28.9615   22.3513 C   0  0  0  0  0  0  0  0  0  0  0  0
  -30.5230  -12.9510   20.0324 C   0  0  0  0  0  0  0  0  0  0  0  0
  -25.5482  -17.4542   18.3647 C   0  0  0  0  0  0  0  0  0  0  0  0
  -23.8461  -17.9092   20.5727 C   0  0  0  0  0  0  0  0  0  0  0  0
  -29.6511  -13.6688   21.0595 C   0  0  0  0  0  0  0  0  0  0  0  0
  -23.2251  -27.7902   18.9280 C   0  0  0  0  0  0  0  0  0  0  0  0
  -28.1900  -13.2617   20.8971 C   0  0  0  0  0  0  0  0  0  0  0  0
  -24.5636  -27.0564   18.8262 C   0  0  0  0  0  0  0  0  0  0  0  0
  -19.0128  -30.2526   24.5203 C   0  0  0  0  0  0  0  0  0  0  0  0
  -23.3472  -29.0464   19.7854 C   0  0  0  0  0  0  0  0  0  0  0  0
  -25.2227  -28.0747   21.0552 C   0  0  0  0  0  0  0  0  0  0  0  0
  -19.4603  -31.6191   25.0157 C   0  0  0  0  0  0  0  0  0  0  0  0
  -21.7326  -31.2663   24.0267 C   0  0  0  0  0  0  0  0  0  0  0  0
  -27.6584  -13.6542   19.5134 C   0  0  1  0  0  0  0  0  0  0  0  0
  -26.0762  -17.0968   19.7657 C   0  0  1  0  0  0  0  0  0  0  0  0
  -25.1602  -26.7833   20.2196 C   0  0  2  0  0  0  0  0  0  0  0  0
  -19.7923  -29.8159   23.2641 C   0  0  1  0  0  0  0  0  0  0  0  0
  -21.3180  -29.8895   23.5122 C   0  0  1  0  0  0  0  0  0  0  0  0
  -18.3392  -23.9682   23.1832 C   0  0  0  0  0  0  0  0  0  0  0  0
  -15.9553  -29.2046   21.8593 C   0  0  0  0  0  0  0  0  0  0  0  0
  -17.4872  -29.3715   19.8642 C   0  0  0  0  0  0  0  0  0  0  0  0
  -26.1861  -19.3321   27.4903 C   0  0  0  0  0  0  0  0  0  0  0  0
  -22.8068  -17.1616   22.2235 C   0  0  0  0  0  0  0  0  0  0  0  0
  -22.8078  -17.9052   24.6141 C   0  0  0  0  0  0  0  0  0  0  0  0
  -24.1104  -15.8886   23.9365 C   0  0  0  0  0  0  0  0  0  0  0  0
  -28.7970  -20.7399   25.1076 C   0  0  0  0  0  0  0  0  0  0  0  0
  -21.5169  -24.0048   19.4568 C   0  0  0  0  0  0  0  0  0  0  0  0
  -21.1628  -24.7181   20.7530 C   0  0  0  0  0  0  0  0  0  0  0  0
  -21.7840  -22.5147   19.6302 C   0  0  0  0  0  0  0  0  0  1  0  0
  -19.5173  -24.7671   22.6315 C   0  0  1  0  0  0  0  0  0  0  0  0
  -17.4309  -29.2907   21.4068 C   0  0  0  0  0  0  0  0  0  0  0  0
  -24.9375  -18.1815   23.2655 C   0  0  1  0  0  0  0  0  0  0  0  0
  -26.9964  -19.4013   26.2053 C   0  0  2  0  0  0  0  0  0  0  0  0
  -23.6756  -17.3013   23.4894 C   0  0  0  0  0  0  0  0  0  0  0  0
  -27.6233  -26.8581   20.1209 N   0  0  0  0  0  0  0  0  0  0  0  0
  -19.3265  -28.4477   22.7919 N   0  0  0  0  0  0  0  0  0  0  0  0
  -26.5127  -26.1013   20.1281 N   0  0  0  0  0  0  0  0  0  0  0  0
  -25.2358  -17.5442   20.8893 N   0  0  0  0  0  0  0  0  0  0  0  0
  -23.9038  -28.7146   21.1046 N   0  0  0  0  0  0  0  0  0  0  0  0
  -25.7545  -23.8589   20.0448 N   0  0  0  0  0  0  0  0  0  0  0  0
  -29.2361  -22.7609   21.0776 N   0  0  0  0  0  0  0  0  0  0  0  0
  -27.3620  -15.0700   19.4688 N   0  0  0  0  0  0  0  0  0  0  0  0
  -25.7932  -18.3091   24.4402 N   0  0  0  0  0  0  0  0  0  0  0  0
  -22.0601  -29.5768   22.3109 N   0  0  0  0  0  0  0  0  0  0  0  0
  -20.9341  -31.5990   25.2440 N   0  3  0  0  0  0  0  0  0  0  0  0
  -27.9223  -20.5656   26.2957 N   0  3  0  0  0  0  0  0  0  0  0  0
  -19.9132  -24.1667   21.3275 N   0  3  0  0  0  0  0  0  0  0  0  0
  -29.1553  -22.8865   18.7893 O   0  0  0  0  0  0  0  0  0  0  0  0
  -25.2172  -14.9846   20.3716 O   0  0  0  0  0  0  0  0  0  0  0  0
  -26.9837  -17.3457   22.4112 O   0  0  0  0  0  0  0  0  0  0  0  0
  -25.6971  -20.6221   24.5747 O   0  0  0  0  0  0  0  0  0  0  0  0
  -23.8389  -28.6514   23.4219 O   0  0  0  0  0  0  0  0  0  0  0  0
  -33.9416  -27.6180   19.8981 O   0  0  0  0  0  0  0  0  0  0  0  0
  -22.1234  -21.9596   18.3601 O   0  0  0  0  0  0  0  0  0  1  0  0
  -35.0459  -32.8131   21.3795 F   0  0  0  0  0  0  0  0  0  0  0  0
  -35.6183  -28.1595   22.0283 F   0  0  0  0  0  0  0  0  0  0  0  0
  1  2  1  0  0  0  0
  1  5  2  0  0  0  0
  2  6  2  0  0  0  0
  3  8  2  0  0  0  0
  3 17  1  0  0  0  0
  4  9  1  0  0  0  0
  4 17  2  0  0  0  0
  5 19  1  0  0  0  0
  6 21  1  0  0  0  0
  7 10  2  0  0  0  0
  7 20  1  0  0  0  0
  8 24  1  0  0  0  0
  9 24  2  0  0  0  0
 10 25  1  0  0  0  0
 11 12  2  0  0  0  0
 11 26  1  0  0  0  0
 12 27  1  0  0  0  0
 13 22  1  0  0  0  0
 13 25  2  0  0  0  0
 14 23  1  0  0  0  0
 14 30  2  0  0  0  0
 15 27  2  0  0  0  0
 15 28  1  0  0  0  0
 16 23  2  0  0  0  0
 16 71  1  0  0  0  0
 17 29  1  0  0  0  0
 18 29  1  0  0  0  0
 18 31  2  0  0  0  0
 18 32  1  0  0  0  0
 19 21  2  0  0  0  0
 19 37  1  0  0  0  0
 20 22  2  0  0  0  0
 20 38  1  0  0  0  0
 21 49  1  0  0  0  0
 22 39  1  0  0  0  0
 23 65  1  0  0  0  0
 24 88  1  0  0  0  0
 25 89  1  0  0  0  0
 26 28  2  0  0  0  0
 26 88  1  0  0  0  0
 27 90  1  0  0  0  0
 28 91  1  0  0  0  0
 29 70  2  0  0  0  0
 30 66  1  0  0  0  0
 30 71  1  0  0  0  0
 31 72  1  0  0  0  0
 31 75  1  0  0  0  0
 32 76  1  0  0  0  0
 32 83  2  0  0  0  0
 33 50  1  0  0  0  0
 33 77  1  0  0  0  0
 33 84  2  0  0  0  0
 34 67  1  0  0  0  0
 34 73  1  0  0  0  0
 34 85  2  0  0  0  0
 35 68  1  0  0  0  0
 35 78  1  0  0  0  0
 35 86  2  0  0  0  0
 36 74  1  0  0  0  0
 36 79  1  0  0  0  0
 36 87  2  0  0  0  0
 37 40  1  0  0  0  0
 38 50  1  0  0  0  0
 39 73  1  0  0  0  0
 40 42  1  0  0  0  0
 41 43  1  0  0  0  0
 41 45  1  0  0  0  0
 42 49  1  0  0  0  0
 43 51  1  0  0  0  0
 44 47  1  0  0  0  0
 44 52  1  0  0  0  0
 45 74  1  0  0  0  0
 46 51  1  0  0  0  0
 46 74  1  0  0  0  0
 47 80  1  0  0  0  0
 48 53  1  0  0  0  0
 48 80  1  0  0  0  0
 49 77  1  0  0  0  0
 50 73  1  0  0  0  0
 51 72  1  0  0  0  0
 52 53  1  0  0  0  0
 52 71  1  0  0  0  0
 53 79  1  0  0  0  0
 54 65  1  0  0  0  0
 55 66  1  0  0  0  0
 56 66  1  0  0  0  0
 57 68  1  0  0  0  0
 58 69  1  0  0  0  0
 59 69  1  0  0  0  0
 60 69  1  0  0  0  0
 61 81  1  0  0  0  0
 62 63  1  0  0  0  0
 62 64  1  0  0  0  0
 63 82  1  0  0  0  0
 64 89  1  0  0  0  0
 65 82  1  0  0  0  0
 67 69  1  0  0  0  0
 67 78  1  0  0  0  0
 68 81  1  0  0  0  0
 70 72  1  0  0  0  0
M  CHG  3  80   1  81   1  82   1
M  ISO  4  36 100  64 101  79 100  89 101
M  END
> <Batch ID>
0123

> <Smiles>
CNC(C)C(=O)NC(C(=O)N1Cc2cc([101O:1][101CH2:1]CCNC(C)c3cc(C(C)C)n(C4CCNCC4[100NH:0][100C:0](=O)N4CCCC(n5nc(-c6ccc(Oc7ccc(F)cc7F)cc6)c(C(N)=O)c5N)C4)c3)ccc2CC1C(=O)NC1CCCc2ccccc21)C(C)(C)C

> <Shape>
0.212

> <Color>
0.100

> <Negative vol penalty>
0.000

$$$$

  -OEChem-04052320303D

 87 96  0     1  0  0  0  0  0999 V2000
  -23.6577  -38.2115   19.0011 C   0  0  0  0  0  0  0  0  0  0  0  0
  -24.0129  -37.0762   18.2798 C   0  0  0  0  0  0  0  0  0  0  0  0
  -25.6982  -13.8569   21.0249 C   0  0  0  0  0  0  0  0  0  0  0  0
  -24.8748  -16.0321   20.3711 C   0  0  0  0  0  0  0  0  0  0  0  0
  -24.0222  -38.3264   20.3420 C   0  0  0  0  0  0  0  0  0  0  0  0
  -24.7337  -36.0555   18.8986 C   0  0  0  0  0  0  0  0  0  0  0  0
  -25.5165  -28.9353   18.8226 C   0  0  0  0  0  0  0  0  0  0  0  0
  -24.3881  -13.3847   21.1040 C   0  0  0  0  0  0  0  0  0  0  0  0
  -23.5647  -15.5599   20.4502 C   0  0  0  0  0  0  0  0  0  0  0  0
  -26.5091  -27.9619   18.7176 C   0  0  0  0  0  0  0  0  0  0  0  0
  -21.8059  -13.5566   23.2781 C   0  0  0  0  0  0  0  0  0  0  0  0
  -21.4600  -12.7907   24.3913 C   0  0  0  0  0  0  0  0  0  0  0  0
  -27.0155  -28.2343   21.0604 C   0  0  0  0  0  0  0  0  0  0  0  0
  -30.8453  -25.4024   18.6475 C   0  0  0  0  0  0  0  0  0  0  0  0
  -20.8988  -10.9398   22.9434 C   0  0  0  0  0  0  0  0  0  0  0  0
  -29.2071  -23.6803   18.5624 C   0  0  0  0  0  0  0  0  0  0  0  0
  -25.9416  -15.1806   20.6585 C   0  0  0  0  0  0  0  0  0  0  0  0
  -28.3243  -15.1865   19.7473 C   0  0  0  0  0  0  0  0  0  0  0  0
  -24.7395  -37.3023   20.9802 C   0  0  0  0  0  0  0  0  0  0  0  0
  -25.2729  -29.5743   20.0468 C   0  0  0  0  0  0  0  0  0  0  0  0
  -25.1093  -36.1574   20.2489 C   0  0  0  0  0  0  0  0  0  0  0  0
  -26.0175  -29.2136   21.1789 C   0  0  0  0  0  0  0  0  0  0  0  0
  -29.5081  -25.0328   18.5562 C   0  0  0  0  0  0  0  0  0  0  0  0
  -31.8270  -24.4221   18.7409 C   0  0  0  0  0  0  0  0  0  0  0  0
  -23.3214  -14.2362   20.8166 C   0  0  0  0  0  0  0  0  0  0  0  0
  -27.2608  -27.6133   19.8359 C   0  0  0  0  0  0  0  0  0  0  0  0
  -21.6982  -13.0142   21.9975 C   0  0  0  0  0  0  0  0  0  0  0  0
  -21.0064  -11.4823   24.2240 C   0  0  0  0  0  0  0  0  0  0  0  0
  -21.2447  -11.7058   21.8302 C   0  0  0  0  0  0  0  0  0  0  0  0
  -27.2947  -15.6691   20.5772 C   0  0  0  0  0  0  0  0  0  0  0  0
  -31.4222  -23.0970   18.7391 C   0  0  0  0  0  0  0  0  0  0  0  0
  -29.4053  -15.9799   20.0446 C   0  0  0  0  0  0  0  0  0  0  0  0
  -28.3052  -14.1167   18.7929 C   0  0  0  0  0  0  0  0  0  0  0  0
  -31.5400  -21.0627   20.9923 C   0  0  0  0  0  0  0  0  0  0  0  0
  -25.4447  -32.5738   21.0847 C   0  0  0  0  0  0  0  0  0  0  0  0
  -24.1405  -31.3075   23.7713 C   0  0  0  0  0  0  0  0  0  0  0  0
  -23.6321  -28.5566   25.7260 C   0  0  0  0  0  0  0  0  0  0  0  0
  -25.1520  -37.4925   22.4184 C   0  0  0  0  0  0  0  0  0  0  0  0
  -24.1805  -30.6031   20.1497 C   0  0  0  0  0  0  0  0  0  0  0  0
  -25.7815  -29.8553   22.5209 C   0  0  0  0  0  0  0  0  0  0  0  0
  -25.5909  -36.2001   23.1022 C   0  0  0  0  0  0  0  0  0  0  0  0
  -30.1345  -19.3017   23.7785 C   0  0  0  0  0  0  0  0  0  0  0  0
  -26.5485  -35.4208   22.2064 C   0  0  0  0  0  0  0  0  0  0  0  0
  -32.9553  -19.6088   19.6062 C   0  0  0  0  0  0  0  0  0  0  0  0
  -33.4742  -19.2657   18.2135 C   0  0  0  0  0  0  0  0  0  0  0  0
  -29.3306  -18.1785   23.1248 C   0  0  0  0  0  0  0  0  0  0  0  0
  -32.9908  -21.6178   17.4418 C   0  0  0  0  0  0  0  0  0  0  0  0
  -30.0972  -20.5758   22.9405 C   0  0  0  0  0  0  0  0  0  0  0  0
  -29.7446  -19.2646   20.8722 C   0  0  0  0  0  0  0  0  0  0  0  0
  -25.8697  -35.0178   20.8918 C   0  0  1  0  0  0  0  0  0  0  0  0
  -32.4520  -21.9805   18.8398 C   0  0  2  0  0  0  0  0  0  0  0  0
  -31.9124  -20.7308   19.5692 C   0  0  2  0  0  0  0  0  0  0  0  0
  -24.3661  -31.5561   21.3265 C   0  0  1  0  0  0  0  0  0  0  0  0
  -34.0417  -20.5011   17.5061 C   0  0  2  0  0  0  0  0  0  0  0  0
  -29.7814  -17.9498   21.6712 C   0  0  2  0  0  0  0  0  0  0  0  0
  -33.2618  -24.8112   18.8372 C   0  0  0  0  0  0  0  0  0  0  0  0
  -35.9958  -20.8294   14.1812 C   0  0  0  0  0  0  0  0  0  0  0  0
  -22.5612  -27.8410   27.8797 C   0  0  0  0  0  0  0  0  0  0  0  0
  -26.4424  -32.5643   25.3306 C   0  0  0  0  0  0  0  0  0  0  0  0
  -25.8690  -31.0635   27.2508 C   0  0  0  0  0  0  0  0  0  0  0  0
  -24.2094  -32.7415   26.4428 C   0  0  0  0  0  0  0  0  0  0  0  0
  -21.8094  -26.6867   24.3330 C   0  0  0  0  0  0  0  0  0  0  0  0
  -28.4247  -26.0659   18.4550 C   0  0  0  0  0  0  0  0  0  1  0  0
  -34.5322  -20.1412   16.1047 C   0  0  0  0  0  0  0  0  0  0  0  0
  -35.4872  -21.2002   15.5651 C   0  0  0  0  0  0  0  0  0  0  0  0
  -24.6864  -30.6942   25.0381 C   0  0  1  0  0  0  0  0  0  0  0  0
  -22.3786  -28.0023   26.3785 C   0  0  2  0  0  0  0  0  0  0  0  0
  -25.3078  -31.7550   25.9900 C   0  0  0  0  0  0  0  0  0  0  0  0
  -30.1331  -22.6994   18.6519 N   0  0  0  0  0  0  0  0  0  0  0  0
  -27.6865  -16.6899   21.3443 N   0  0  0  0  0  0  0  0  0  0  0  0
  -28.9743  -16.8552   20.9977 N   0  0  0  0  0  0  0  0  0  0  0  0
  -30.5108  -20.3123   21.5611 N   0  0  0  0  0  0  0  0  0  0  0  0
  -24.7066  -30.8601   22.5691 N   0  0  0  0  0  0  0  0  0  0  0  0
  -30.6729  -16.0073   19.5812 N   0  0  0  0  0  0  0  0  0  0  0  0
  -27.9575  -14.4101   17.4672 N   0  0  0  0  0  0  0  0  0  0  0  0
  -24.9982  -33.8814   21.1007 N   0  0  0  0  0  0  0  0  0  0  0  0
  -23.5913  -29.9313   25.6272 N   0  0  0  0  0  0  0  0  0  0  0  0
  -22.0391  -26.6712   25.8007 N   0  3  0  0  0  0  0  0  0  0  0  0
  -28.5722  -12.9328   19.1099 O   0  0  0  0  0  0  0  0  0  0  0  0
  -32.1488  -21.9605   21.5801 O   0  0  0  0  0  0  0  0  0  0  0  0
  -26.5970  -32.2005   20.8989 O   0  0  0  0  0  0  0  0  0  0  0  0
  -23.2398  -32.1471   23.8452 O   0  0  0  0  0  0  0  0  0  0  0  0
  -24.5568  -27.8418   25.3456 O   0  0  0  0  0  0  0  0  0  0  0  0
  -22.0428  -13.7757   20.8934 O   0  0  0  0  0  0  0  0  0  0  0  0
  -28.2307  -26.6640   19.7360 O   0  0  0  0  0  0  0  0  0  1  0  0
  -20.6757  -10.7463   25.2932 F   0  0  0  0  0  0  0  0  0  0  0  0
  -21.1403  -11.1789   20.6025 F   0  0  0  0  0  0  0  0  0  0  0  0
  1  2  1  0  0  0  0
  1  5  2  0  0  0  0
  2  6  2  0  0  0  0
  3  8  2  0  0  0  0
  3 17  1  0  0  0  0
  4  9  1  0  0  0  0
  4 17  2  0  0  0  0
  5 19  1  0  0  0  0
  6 21  1  0  0  0  0
  7 10  2  0  0  0  0
  7 20  1  0  0  0  0
  8 25  1  0  0  0  0
  9 25  2  0  0  0  0
 10 26  1  0  0  0  0
 11 12  2  0  0  0  0
 11 27  1  0  0  0  0
 12 28  1  0  0  0  0
 13 22  1  0  0  0  0
 13 26  2  0  0  0  0
 14 23  2  0  0  0  0
 14 24  1  0  0  0  0
 15 28  2  0  0  0  0
 15 29  1  0  0  0  0
 16 23  1  0  0  0  0
 16 69  2  0  0  0  0
 17 30  1  0  0  0  0
 18 30  1  0  0  0  0
 18 32  2  0  0  0  0
 18 33  1  0  0  0  0
 19 21  2  0  0  0  0
 19 38  1  0  0  0  0
 20 22  2  0  0  0  0
 20 39  1  0  0  0  0
 21 50  1  0  0  0  0
 22 40  1  0  0  0  0
 23 63  1  0  0  0  0
 24 31  2  0  0  0  0
 24 56  1  0  0  0  0
 25 84  1  0  0  0  0
 26 85  1  0  0  0  0
 27 29  2  0  0  0  0
 27 84  1  0  0  0  0
 28 86  1  0  0  0  0
 29 87  1  0  0  0  0
 30 70  2  0  0  0  0
 31 51  1  0  0  0  0
 31 69  1  0  0  0  0
 32 71  1  0  0  0  0
 32 74  1  0  0  0  0
 33 75  1  0  0  0  0
 33 79  2  0  0  0  0
 34 52  1  0  0  0  0
 34 72  1  0  0  0  0
 34 80  2  0  0  0  0
 35 53  1  0  0  0  0
 35 76  1  0  0  0  0
 35 81  2  0  0  0  0
 36 66  1  0  0  0  0
 36 73  1  0  0  0  0
 36 82  2  0  0  0  0
 37 67  1  0  0  0  0
 37 77  1  0  0  0  0
 37 83  2  0  0  0  0
 38 41  1  0  0  0  0
 39 53  1  0  0  0  0
 40 73  1  0  0  0  0
 41 43  1  0  0  0  0
 42 46  1  0  0  0  0
 42 48  1  0  0  0  0
 43 50  1  0  0  0  0
 44 45  1  0  0  0  0
 44 52  1  0  0  0  0
 45 54  1  0  0  0  0
 46 55  1  0  0  0  0
 47 51  1  0  0  0  0
 47 54  1  0  0  0  0
 48 72  1  0  0  0  0
 49 55  1  0  0  0  0
 49 72  1  0  0  0  0
 50 76  1  0  0  0  0
 51 52  1  0  0  0  0
 53 73  1  0  0  0  0
 54 64  1  0  0  0  0
 55 71  1  0  0  0  0
 57 65  1  0  0  0  0
 58 67  1  0  0  0  0
 59 68  1  0  0  0  0
 60 68  1  0  0  0  0
 61 68  1  0  0  0  0
 62 78  1  0  0  0  0
 63 85  1  0  0  0  0
 64 65  1  0  0  0  0
 66 68  1  0  0  0  0
 66 77  1  0  0  0  0
 67 78  1  0  0  0  0
 70 71  1  0  0  0  0
M  CHG  1  78   1
M  ISO  4  34 100  52 100  63 101  85 101
M  END
> <Batch ID>
0123

> <Smiles>
CCCC1CC[100CH:0]([100C:0](=O)N2CCCC(n3nc(-c4ccc(Oc5ccc(F)cc5F)cc4)c(C(N)=O)c3N)C2)C(c2ncc([101CH2:1][101O:1]c3ccc4c(c3)CN(C(=O)C(NC(=O)C(C)NC)C(C)(C)C)C(C(=O)NC3CCCc5ccccc53)C4)cc2C)C1

> <Shape>
0.246

> <Color>
0.083

> <Negative vol penalty>
0.000

$$$$

  -OEChem-04052320303D

 83 92  0     1  0  0  0  0  0999 V2000
  -29.2675  -30.0952   12.7931 C   0  0  0  0  0  0  0  0  0  0  0  0
  -30.0484  -29.1651   13.4718 C   0  0  0  0  0  0  0  0  0  0  0  0
  -23.0764   -9.8647   19.9419 C   0  0  0  0  0  0  0  0  0  0  0  0
  -23.8360   -9.8757   22.2354 C   0  0  0  0  0  0  0  0  0  0  0  0
  -28.5943  -31.0887   13.5027 C   0  0  0  0  0  0  0  0  0  0  0  0
  -30.1572  -29.2286   14.8605 C   0  0  0  0  0  0  0  0  0  0  0  0
  -30.6743  -24.5120   18.7324 C   0  0  0  0  0  0  0  0  0  0  0  0
  -30.2180  -18.9539   23.1380 C   0  0  0  0  0  0  0  0  0  0  0  0
  -22.3341   -8.7109   20.1932 C   0  0  0  0  0  0  0  0  0  0  0  0
  -23.0936   -8.7218   22.4868 C   0  0  0  0  0  0  0  0  0  0  0  0
  -31.7744  -23.9320   19.3626 C   0  0  0  0  0  0  0  0  0  0  0  0
  -19.8664   -7.9205   23.0898 C   0  0  0  0  0  0  0  0  0  0  0  0
  -19.1093   -7.8810   24.2606 C   0  0  0  0  0  0  0  0  0  0  0  0
  -29.7443  -17.7193   22.7118 C   0  0  0  0  0  0  0  0  0  0  0  0
  -31.3428  -25.2627   21.3278 C   0  0  0  0  0  0  0  0  0  0  0  0
  -20.3532   -5.9462   24.9997 C   0  0  0  0  0  0  0  0  0  0  0  0
  -23.8274  -10.4471   20.9630 C   0  0  0  0  0  0  0  0  0  0  0  0
  -24.1659  -12.9726   20.8398 C   0  0  0  0  0  0  0  0  0  0  0  0
  -28.6872  -31.1586   14.9017 C   0  0  0  0  0  0  0  0  0  0  0  0
  -29.9053  -25.4813   19.3924 C   0  0  0  0  0  0  0  0  0  0  0  0
  -29.4856  -30.2248   15.5894 C   0  0  0  0  0  0  0  0  0  0  0  0
  -31.4820  -19.3936   22.7387 C   0  0  0  0  0  0  0  0  0  0  0  0
  -30.2319  -25.8516   20.7048 C   0  0  0  0  0  0  0  0  0  0  0  0
  -22.3426   -8.1395   21.4656 C   0  0  0  0  0  0  0  0  0  0  0  0
  -32.1105  -24.3094   20.6594 C   0  0  0  0  0  0  0  0  0  0  0  0
  -20.8669   -6.9727   22.8739 C   0  0  0  0  0  0  0  0  0  0  0  0
  -19.3527   -6.8939   25.2156 C   0  0  0  0  0  0  0  0  0  0  0  0
  -21.1103   -5.9856   23.8288 C   0  0  0  0  0  0  0  0  0  0  0  0
  -24.5950  -11.6387   20.7039 C   0  0  0  0  0  0  0  0  0  0  0  0
  -32.2416  -18.5472   21.9274 C   0  0  0  0  0  0  0  0  0  0  0  0
  -30.5642  -16.9587   21.8983 C   0  0  0  0  0  0  0  0  0  0  0  0
  -25.2571  -13.7230   20.4757 C   0  0  0  0  0  0  0  0  0  0  0  0
  -22.8946  -13.4872   21.2579 C   0  0  0  0  0  0  0  0  0  0  0  0
  -29.2210  -28.5408   18.8676 C   0  0  0  0  0  0  0  0  0  0  0  0
  -27.2392  -28.1289   21.4024 C   0  0  0  0  0  0  0  0  0  0  0  0
  -26.4846  -26.3837   24.2364 C   0  0  0  0  0  0  0  0  0  0  0  0
  -30.7218  -14.7762   20.6500 C   0  0  0  0  0  0  0  0  0  0  0  0
  -27.9791  -32.2792   15.6211 C   0  0  0  0  0  0  0  0  0  0  0  0
  -28.7058  -26.0780   18.7086 C   0  0  0  0  0  0  0  0  0  0  0  0
  -29.4265  -26.8729   21.4643 C   0  0  0  0  0  0  0  0  0  0  0  0
  -32.0195  -20.7075   23.2247 C   0  0  0  0  0  0  0  0  0  0  0  0
  -33.5980  -18.9767   21.4341 C   0  0  0  0  0  0  0  0  0  0  0  0
  -27.8460  -32.0497   17.1244 C   0  0  0  0  0  0  0  0  0  0  0  0
  -29.6111  -12.3579   18.2846 C   0  0  0  0  0  0  0  0  0  0  0  0
  -29.1733  -31.5814   17.7125 C   0  0  0  0  0  0  0  0  0  0  0  0
  -28.1717  -12.0649   18.7143 C   0  0  0  0  0  0  0  0  0  0  0  0
  -30.5257  -12.5894   19.4861 C   0  0  0  0  0  0  0  0  0  0  0  0
  -28.6175  -13.3131   20.8661 C   0  0  0  0  0  0  0  0  0  0  0  0
  -34.2425  -20.0491   22.3046 C   0  0  0  0  0  0  0  0  0  0  0  0
  -29.6087  -30.2459   17.0975 C   0  0  1  0  0  0  0  0  0  0  0  0
  -28.2997  -27.4302   19.2866 C   0  0  1  0  0  0  0  0  0  0  0  0
  -27.6451  -13.1370   19.6884 C   0  0  2  0  0  0  0  0  0  0  0  0
  -24.8263  -26.3044   26.1182 C   0  0  0  0  0  0  0  0  0  0  0  0
  -28.5898  -30.5425   22.6910 C   0  0  0  0  0  0  0  0  0  0  0  0
  -27.5948  -29.8431   24.8794 C   0  0  0  0  0  0  0  0  0  0  0  0
  -26.1065  -30.4614   22.9755 C   0  0  0  0  0  0  0  0  0  0  0  0
  -25.6080  -23.6537   23.5031 C   0  0  0  0  0  0  0  0  0  0  0  0
  -33.8774  -22.3815   23.1318 C   0  0  0  0  0  0  0  0  0  0  0  0
  -33.1278  -23.6255   22.6973 C   0  0  0  0  0  0  0  0  0  1  0  0
  -27.3732  -28.2747   22.8990 C   0  0  1  0  0  0  0  0  0  0  0  0
  -25.1812  -25.7850   24.7337 C   0  0  2  0  0  0  0  0  0  0  0  0
  -27.4326  -29.7626   23.3465 C   0  0  0  0  0  0  0  0  0  0  0  0
  -25.8600  -11.5440   20.2859 N   0  0  0  0  0  0  0  0  0  0  0  0
  -31.7955  -17.3419   21.4943 N   0  0  0  0  0  0  0  0  0  0  0  0
  -26.2352  -12.8279   20.1560 N   0  0  0  0  0  0  0  0  0  0  0  0
  -28.2666  -27.4322   20.7505 N   0  0  0  0  0  0  0  0  0  0  0  0
  -29.9652  -13.6206   20.3621 N   0  0  0  0  0  0  0  0  0  0  0  0
  -25.4657  -15.0547   20.4011 N   0  0  0  0  0  0  0  0  0  0  0  0
  -21.8839  -12.5771   21.5961 N   0  0  0  0  0  0  0  0  0  0  0  0
  -30.0731  -15.7014   21.4671 N   0  0  0  0  0  0  0  0  0  0  0  0
  -28.8616  -29.1529   17.6820 N   0  0  0  0  0  0  0  0  0  0  0  0
  -26.2707  -27.5186   23.4831 N   0  0  0  0  0  0  0  0  0  0  0  0
  -33.2562  -21.1769   22.4843 N   0  3  2  0  0  0  0  0  0  0  0  0
  -25.2859  -24.2999   24.8014 N   0  3  0  0  0  0  0  0  0  0  0  0
  -22.6567  -14.7176   21.3136 O   0  0  0  0  0  0  0  0  0  0  0  0
  -30.1857  -28.8225   19.5688 O   0  0  0  0  0  0  0  0  0  0  0  0
  -26.2555  -28.6090   20.8337 O   0  0  0  0  0  0  0  0  0  0  0  0
  -27.5828  -25.8956   24.4938 O   0  0  0  0  0  0  0  0  0  0  0  0
  -31.8508  -14.9459   20.1823 O   0  0  0  0  0  0  0  0  0  0  0  0
  -21.6181   -7.0137   21.7113 O   0  0  0  0  0  0  0  0  0  0  0  0
  -33.1842  -23.7453   21.2765 O   0  0  0  0  0  0  0  0  0  1  0  0
  -18.6267   -6.8571   26.3406 F   0  0  0  0  0  0  0  0  0  0  0  0
  -22.0709   -5.0732   23.6275 F   0  0  0  0  0  0  0  0  0  0  0  0
  1  2  1  0  0  0  0
  1  5  2  0  0  0  0
  2  6  2  0  0  0  0
  3  9  2  0  0  0  0
  3 17  1  0  0  0  0
  4 10  1  0  0  0  0
  4 17  2  0  0  0  0
  5 19  1  0  0  0  0
  6 21  1  0  0  0  0
  7 11  2  0  0  0  0
  7 20  1  0  0  0  0
  8 14  2  0  0  0  0
  8 22  1  0  0  0  0
  9 24  1  0  0  0  0
 10 24  2  0  0  0  0
 11 25  1  0  0  0  0
 12 13  2  0  0  0  0
 12 26  1  0  0  0  0
 13 27  1  0  0  0  0
 14 31  1  0  0  0  0
 15 23  1  0  0  0  0
 15 25  2  0  0  0  0
 16 27  2  0  0  0  0
 16 28  1  0  0  0  0
 17 29  1  0  0  0  0
 18 29  1  0  0  0  0
 18 32  2  0  0  0  0
 18 33  1  0  0  0  0
 19 21  2  0  0  0  0
 19 38  1  0  0  0  0
 20 23  2  0  0  0  0
 20 39  1  0  0  0  0
 21 50  1  0  0  0  0
 22 30  2  0  0  0  0
 22 41  1  0  0  0  0
 23 40  1  0  0  0  0
 24 80  1  0  0  0  0
 25 81  1  0  0  0  0
 26 28  2  0  0  0  0
 26 80  1  0  0  0  0
 27 82  1  0  0  0  0
 28 83  1  0  0  0  0
 29 63  2  0  0  0  0
 30 42  1  0  0  0  0
 30 64  1  0  0  0  0
 31 64  2  0  0  0  0
 31 70  1  0  0  0  0
 32 65  1  0  0  0  0
 32 68  1  0  0  0  0
 33 69  1  0  0  0  0
 33 75  2  0  0  0  0
 34 51  1  0  0  0  0
 34 71  1  0  0  0  0
 34 76  2  0  0  0  0
 35 60  1  0  0  0  0
 35 66  1  0  0  0  0
 35 77  2  0  0  0  0
 36 61  1  0  0  0  0
 36 72  1  0  0  0  0
 36 78  2  0  0  0  0
 37 67  1  0  0  0  0
 37 70  1  0  0  0  0
 37 79  2  0  0  0  0
 38 43  1  0  0  0  0
 39 51  1  0  0  0  0
 40 66  1  0  0  0  0
 41 73  1  0  0  0  0
 42 49  1  0  0  0  0
 43 45  1  0  0  0  0
 44 46  1  0  0  0  0
 44 47  1  0  0  0  0
 45 50  1  0  0  0  0
 46 52  1  0  0  0  0
 47 67  1  0  0  0  0
 48 52  1  0  0  0  0
 48 67  1  0  0  0  0
 49 73  1  0  0  0  0
 50 71  1  0  0  0  0
 51 66  1  0  0  0  0
 52 65  1  0  0  0  0
 53 61  1  0  0  0  0
 54 62  1  0  0  0  0
 55 62  1  0  0  0  0
 56 62  1  0  0  0  0
 57 74  1  0  0  0  0
 58 59  1  0  0  0  0
 58 73  1  0  0  0  0
 59 81  1  0  0  0  0
 60 62  1  0  0  0  0
 60 72  1  0  0  0  0
 61 74  1  0  0  0  0
 63 65  1  0  0  0  0
M  CHG  2  73   1  74   1
M  ISO  4  37 100  59 101  70 100  81 101
M  END
> <Batch ID>
0123

> <Smiles>
CNC(C)C(=O)NC(C(=O)N1Cc2cc([101O:1][101CH2:1]CN3CCc4nc([100NH:0][100C:0](=O)N5CCCC(n6nc(-c7ccc(Oc8ccc(F)cc8F)cc7)c(C(N)=O)c6N)C5)ccc4C3)ccc2CC1C(=O)NC1CCCc2ccccc21)C(C)(C)C

> <Shape>
0.257

> <Color>
0.184

> <Negative vol penalty>
0.000

$$$$

  -OEChem-04052320303D

 98108  0     1  0  0  0  0  0999 V2000
  -22.1536  -31.6165   14.4233 C   0  0  0  0  0  0  0  0  0  0  0  0
  -23.2514  -30.9668   14.9786 C   0  0  0  0  0  0  0  0  0  0  0  0
  -23.1909   -9.7273   20.9904 C   0  0  0  0  0  0  0  0  0  0  0  0
  -23.3986  -11.8387   22.1463 C   0  0  0  0  0  0  0  0  0  0  0  0
  -21.6190  -32.7404   15.0516 C   0  0  0  0  0  0  0  0  0  0  0  0
  -23.8158  -31.4414   16.1620 C   0  0  0  0  0  0  0  0  0  0  0  0
  -24.8329  -27.7304   19.4543 C   0  0  0  0  0  0  0  0  0  0  0  0
  -22.3073   -9.2772   21.9713 C   0  0  0  0  0  0  0  0  0  0  0  0
  -22.5149  -11.3886   23.1272 C   0  0  0  0  0  0  0  0  0  0  0  0
  -25.9776  -26.9692   19.2221 C   0  0  0  0  0  0  0  0  0  0  0  0
  -22.4915   -8.0491   25.1150 C   0  0  0  0  0  0  0  0  0  0  0  0
  -22.6788   -6.7595   25.6124 C   0  0  0  0  0  0  0  0  0  0  0  0
  -27.1650  -28.2608   20.8778 C   0  0  0  0  0  0  0  0  0  0  0  0
  -20.4651   -6.1485   24.8617 C   0  0  0  0  0  0  0  0  0  0  0  0
  -23.7366  -11.0080   21.0779 C   0  0  0  0  0  0  0  0  0  0  0  0
  -24.3937  -11.6109   18.6878 C   0  0  0  0  0  0  0  0  0  0  0  0
  -22.1712  -33.2234   16.2485 C   0  0  0  0  0  0  0  0  0  0  0  0
  -24.8488  -28.7713   20.3938 C   0  0  0  0  0  0  0  0  0  0  0  0
  -23.2889  -32.5737   16.8062 C   0  0  0  0  0  0  0  0  0  0  0  0
  -26.0184  -29.0320   21.1219 C   0  0  0  0  0  0  0  0  0  0  0  0
  -21.9693  -10.1078   23.0397 C   0  0  0  0  0  0  0  0  0  0  0  0
  -27.1448  -27.2362   19.9317 C   0  0  0  0  0  0  0  0  0  0  0  0
  -21.2910   -8.3885   24.4910 C   0  0  0  0  0  0  0  0  0  0  0  0
  -21.6656   -5.8092   25.4857 C   0  0  0  0  0  0  0  0  0  0  0  0
  -20.2779   -7.4382   24.3643 C   0  0  0  0  0  0  0  0  0  0  0  0
  -24.6499  -11.4734   20.0652 C   0  0  0  0  0  0  0  0  0  0  0  0
  -25.5720  -12.0850   18.1651 C   0  0  0  0  0  0  0  0  0  0  0  0
  -23.1975  -11.3348   17.9471 C   0  0  0  0  0  0  0  0  0  0  0  0
  -24.4178  -31.9179   20.2629 C   0  0  0  0  0  0  0  0  0  0  0  0
  -24.6193  -31.6876   23.4922 C   0  0  0  0  0  0  0  0  0  0  0  0
  -25.0349  -31.9729   26.8675 C   0  0  0  0  0  0  0  0  0  0  0  0
  -30.1247  -15.1795   20.5205 C   0  0  0  0  0  0  0  0  0  0  0  0
  -21.5883  -34.4698   16.8659 C   0  0  0  0  0  0  0  0  0  0  0  0
  -23.5979  -29.5658   20.6518 C   0  0  0  0  0  0  0  0  0  0  0  0
  -26.0817  -30.1252   22.1560 C   0  0  0  0  0  0  0  0  0  0  0  0
  -22.0121  -34.6866   18.3163 C   0  0  0  0  0  0  0  0  0  0  0  0
  -37.7841  -18.0975   22.2104 C   0  0  0  0  0  0  0  0  0  0  0  0
  -36.8398  -18.3774   23.3765 C   0  0  0  0  0  0  0  0  0  0  0  0
  -30.2975  -12.0090   18.9097 C   0  0  0  0  0  0  0  0  0  0  0  0
  -23.5153  -34.4779   18.4701 C   0  0  0  0  0  0  0  0  0  0  0  0
  -37.0804  -17.3549   21.0743 C   0  0  0  0  0  0  0  0  0  0  0  0
  -30.5162  -23.4950   21.8259 C   0  0  0  0  0  0  0  0  0  0  0  0
  -30.2723  -21.9841   19.8173 C   0  0  0  0  0  0  0  0  0  0  0  0
  -29.3706  -24.3645   21.3108 C   0  0  0  0  0  0  0  0  0  0  0  0
  -29.1268  -22.8537   19.3023 C   0  0  0  0  0  0  0  0  0  0  0  0
  -28.5623  -17.9508   24.5874 C   0  0  0  0  0  0  0  0  0  0  0  0
  -28.8466  -11.5247   18.8989 C   0  0  0  0  0  0  0  0  0  0  0  0
  -35.5703  -19.0970   22.9262 C   0  0  0  0  0  0  0  0  0  0  0  0
  -28.4210  -17.6026   23.1108 C   0  0  0  0  0  0  0  0  0  0  0  0
  -30.6268  -12.7766   20.1881 C   0  0  0  0  0  0  0  0  0  0  0  0
  -30.2740  -19.6668   23.9215 C   0  0  0  0  0  0  0  0  0  0  0  0
  -28.2632  -13.4104   20.4807 C   0  0  0  0  0  0  0  0  0  0  0  0
  -23.9137  -33.0436   18.1020 C   0  0  1  0  0  0  0  0  0  0  0  0
  -23.8756  -30.9359   21.2626 C   0  0  1  0  0  0  0  0  0  0  0  0
  -30.3865  -22.0439   21.3458 C   0  0  0  0  0  0  0  0  0  0  0  0
  -29.2566  -24.3047   19.7824 C   0  0  0  0  0  0  0  0  0  0  0  0
  -29.0064  -19.4048   24.7473 C   0  0  2  0  0  0  0  0  0  0  0  0
  -35.8072  -18.0718   20.5886 C   0  0  1  0  0  0  0  0  0  0  0  0
  -27.8679  -12.6791   19.1864 C   0  0  2  0  0  0  0  0  0  0  0  0
  -34.8827  -18.3371   21.7921 C   0  0  2  0  0  0  0  0  0  0  0  0
  -29.7051  -17.9189   22.3193 C   0  0  1  0  0  0  0  0  0  0  0  0
  -36.1657  -19.3261   19.7808 C   0  0  0  0  0  0  0  0  0  0  0  0
  -25.6549  -33.6350   28.6425 C   0  0  0  0  0  0  0  0  0  0  0  0
  -27.5519  -31.4546   22.6828 C   0  0  0  0  0  0  0  0  0  0  0  0
  -28.1743  -32.2982   24.9564 C   0  0  0  0  0  0  0  0  0  0  0  0
  -26.8496  -33.7413   23.4120 C   0  0  0  0  0  0  0  0  0  0  0  0
  -22.4097  -31.6973   28.2059 C   0  0  0  0  0  0  0  0  0  0  0  0
  -31.5685  -21.2072   21.8317 C   0  0  0  0  0  0  0  0  0  0  0  0
  -29.2382  -19.7394   26.2197 C   0  0  0  0  0  0  0  0  0  0  0  0
  -28.0746  -25.1416   19.2964 C   0  0  0  0  0  0  0  0  0  1  0  0
  -29.4628  -17.5487   20.8490 C   0  0  0  0  0  0  0  0  0  0  0  0
  -32.4764  -18.8511   22.2138 C   0  0  0  0  0  0  0  0  0  0  0  0
  -25.7415  -31.7464   24.5003 C   0  0  1  0  0  0  0  0  0  0  0  0
  -24.5166  -32.9946   27.8635 C   0  0  2  0  0  0  0  0  0  0  0  0
  -31.2896  -19.6996   21.7517 C   0  0  1  0  0  0  0  0  0  0  0  0
  -27.0631  -32.2869   23.8850 C   0  0  0  0  0  0  0  0  0  0  0  0
  -25.8934  -11.8310   20.3966 N   0  0  0  0  0  0  0  0  0  0  0  0
  -26.4291  -12.1979   19.2200 N   0  0  0  0  0  0  0  0  0  0  0  0
  -24.8345  -30.8783   22.3678 N   0  0  0  0  0  0  0  0  0  0  0  0
  -29.6624  -13.8584   20.4018 N   0  0  0  0  0  0  0  0  0  0  0  0
  -30.0791  -19.3405   22.4966 N   0  0  2  0  0  0  0  0  0  0  0  0
  -25.9482  -12.4120   16.9105 N   0  0  0  0  0  0  0  0  0  0  0  0
  -22.2577  -12.3625   17.7885 N   0  0  0  0  0  0  0  0  0  0  0  0
  -23.5869  -32.1356   19.1805 N   0  0  0  0  0  0  0  0  0  0  0  0
  -25.2405  -32.5310   25.6236 N   0  0  0  0  0  0  0  0  0  0  0  0
  -29.1442  -16.1447   20.7151 N   0  0  0  0  0  0  0  0  0  0  0  0
  -27.9651  -19.5718   26.9492 N   0  3  0  0  0  0  0  0  0  0  0  0
  -33.6734  -19.0929   21.3713 N   0  3  0  0  0  0  0  0  0  0  0  0
  -23.5887  -32.3476   28.8338 N   0  3  0  0  0  0  0  0  0  0  0  0
  -22.9612  -10.2055   17.4549 O   0  0  0  0  0  0  0  0  0  0  0  0
  -25.5086  -32.4405   20.4598 O   0  0  0  0  0  0  0  0  0  0  0  0
  -23.5868  -32.3304   23.6985 O   0  0  0  0  0  0  0  0  0  0  0  0
  -25.2407  -30.7981   27.1644 O   0  0  0  0  0  0  0  0  0  0  0  0
  -31.3220  -15.4775   20.4524 O   0  0  0  0  0  0  0  0  0  0  0  0
  -21.1069   -9.6690   23.9970 O   0  0  0  0  0  0  0  0  0  0  0  0
  -28.2637  -26.4952   19.7065 O   0  0  0  0  0  0  0  0  0  1  0  0
  -21.8462   -4.5704   25.9620 F   0  0  0  0  0  0  0  0  0  0  0  0
  -19.1228   -7.7579   23.7648 F   0  0  0  0  0  0  0  0  0  0  0  0
  1  2  1  0  0  0  0
  1  5  2  0  0  0  0
  2  6  2  0  0  0  0
  3  8  2  0  0  0  0
  3 15  1  0  0  0  0
  4  9  1  0  0  0  0
  4 15  2  0  0  0  0
  5 17  1  0  0  0  0
  6 19  1  0  0  0  0
  7 10  2  0  0  0  0
  7 18  1  0  0  0  0
  8 21  1  0  0  0  0
  9 21  2  0  0  0  0
 10 22  1  0  0  0  0
 11 12  2  0  0  0  0
 11 23  1  0  0  0  0
 12 24  1  0  0  0  0
 13 20  1  0  0  0  0
 13 22  2  0  0  0  0
 14 24  2  0  0  0  0
 14 25  1  0  0  0  0
 15 26  1  0  0  0  0
 16 26  1  0  0  0  0
 16 27  2  0  0  0  0
 16 28  1  0  0  0  0
 17 19  2  0  0  0  0
 17 33  1  0  0  0  0
 18 20  2  0  0  0  0
 18 34  1  0  0  0  0
 19 53  1  0  0  0  0
 20 35  1  0  0  0  0
 21 95  1  0  0  0  0
 22 96  1  0  0  0  0
 23 25  2  0  0  0  0
 23 95  1  0  0  0  0
 24 97  1  0  0  0  0
 25 98  1  0  0  0  0
 26 77  2  0  0  0  0
 27 78  1  0  0  0  0
 27 82  1  0  0  0  0
 28 83  1  0  0  0  0
 28 90  2  0  0  0  0
 29 54  1  0  0  0  0
 29 84  1  0  0  0  0
 29 91  2  0  0  0  0
 30 73  1  0  0  0  0
 30 79  1  0  0  0  0
 30 92  2  0  0  0  0
 31 74  1  0  0  0  0
 31 85  1  0  0  0  0
 31 93  2  0  0  0  0
 32 80  1  0  0  0  0
 32 86  1  0  0  0  0
 32 94  2  0  0  0  0
 33 36  1  0  0  0  0
 34 54  1  0  0  0  0
 35 79  1  0  0  0  0
 36 40  1  0  0  0  0
 37 38  1  0  0  0  0
 37 41  1  0  0  0  0
 38 48  1  0  0  0  0
 39 47  1  0  0  0  0
 39 50  1  0  0  0  0
 40 53  1  0  0  0  0
 41 58  1  0  0  0  0
 42 44  1  0  0  0  0
 42 55  1  0  0  0  0
 43 45  1  0  0  0  0
 43 55  1  0  0  0  0
 44 56  1  0  0  0  0
 45 56  1  0  0  0  0
 46 49  1  0  0  0  0
 46 57  1  0  0  0  0
 47 59  1  0  0  0  0
 48 60  1  0  0  0  0
 49 61  1  0  0  0  0
 50 80  1  0  0  0  0
 51 57  1  0  0  0  0
 51 81  1  0  0  0  0
 52 59  1  0  0  0  0
 52 80  1  0  0  0  0
 53 84  1  0  0  0  0
 54 79  1  0  0  0  0
 55 68  1  0  0  0  0
 56 70  1  0  0  0  0
 57 69  1  0  0  0  0
 58 60  1  0  0  0  0
 58 62  1  0  0  0  0
 59 78  1  0  0  0  0
 60 88  1  0  0  0  0
 61 71  1  0  0  0  0
 61 81  1  0  0  0  0
 63 74  1  0  0  0  0
 64 76  1  0  0  0  0
 65 76  1  0  0  0  0
 66 76  1  0  0  0  0
 67 89  1  0  0  0  0
 68 75  1  0  0  0  0
 69 87  1  0  0  0  0
 70 96  1  0  0  0  0
 71 86  1  0  0  0  0
 72 75  1  0  0  0  0
 72 88  1  0  0  0  0
 73 76  1  0  0  0  0
 73 85  1  0  0  0  0
 74 89  1  0  0  0  0
 75 81  1  0  0  0  0
 77 78  1  0  0  0  0
M  CHG  3  87   1  88   1  89   1
M  ISO  4  32 100  70 101  86 100  96 101
M  END
> <Batch ID>
0123

> <Smiles>
CNC(C)C(=O)NC(C(=O)N1Cc2cc([101O:1][101CH2:1]C3CCC(CC(CNC4CCCCC4C)N4CC(CN)CCC4C[100NH:0][100C:0](=O)N4CCCC(n5nc(-c6ccc(Oc7ccc(F)cc7F)cc6)c(C(N)=O)c5N)C4)CC3)ccc2CC1C(=O)NC1CCCc2ccccc21)C(C)(C)C

> <Shape>
0.274

> <Color>
0.109

> <Negative vol penalty>
0.000

$$$$

  -OEChem-04052320303D

 84 92  0     1  0  0  0  0  0999 V2000
  -20.8465  -29.0719   26.0751 C   0  0  0  0  0  0  0  0  0  0  0  0
  -22.0136  -28.3447   25.8643 C   0  0  0  0  0  0  0  0  0  0  0  0
  -23.3281   -9.7565   19.8899 C   0  0  0  0  0  0  0  0  0  0  0  0
  -23.6924   -9.9212   22.2726 C   0  0  0  0  0  0  0  0  0  0  0  0
  -20.0023  -29.3591   25.0033 C   0  0  0  0  0  0  0  0  0  0  0  0
  -22.3367  -27.9033   24.5817 C   0  0  0  0  0  0  0  0  0  0  0  0
  -27.9411  -27.3969   22.1651 C   0  0  0  0  0  0  0  0  0  0  0  0
  -22.6303   -8.5637   20.0790 C   0  0  0  0  0  0  0  0  0  0  0  0
  -22.9945   -8.7283   22.4617 C   0  0  0  0  0  0  0  0  0  0  0  0
  -28.8004  -26.3103   22.0087 C   0  0  0  0  0  0  0  0  0  0  0  0
  -23.5917   -5.4156   22.1460 C   0  0  0  0  0  0  0  0  0  0  0  0
  -24.1446   -4.4714   23.0110 C   0  0  0  0  0  0  0  0  0  0  0  0
  -27.9987  -26.0086   19.7536 C   0  0  0  0  0  0  0  0  0  0  0  0
  -22.1746   -4.5940   24.4042 C   0  0  0  0  0  0  0  0  0  0  0  0
  -23.8593  -10.4352   20.9867 C   0  0  0  0  0  0  0  0  0  0  0  0
  -24.0499  -12.9709   20.7832 C   0  0  0  0  0  0  0  0  0  0  0  0
  -20.3200  -28.9292   23.7053 C   0  0  0  0  0  0  0  0  0  0  0  0
  -27.0948  -27.7915   21.1189 C   0  0  0  0  0  0  0  0  0  0  0  0
  -21.4952  -28.1838   23.4917 C   0  0  0  0  0  0  0  0  0  0  0  0
  -27.1314  -27.1022   19.8984 C   0  0  0  0  0  0  0  0  0  0  0  0
  -22.4634   -8.0496   21.3649 C   0  0  0  0  0  0  0  0  0  0  0  0
  -28.8273  -25.6141   20.8038 C   0  0  0  0  0  0  0  0  0  0  0  0
  -22.3302   -5.9491   22.4100 C   0  0  0  0  0  0  0  0  0  0  0  0
  -23.4361   -4.0606   24.1401 C   0  0  0  0  0  0  0  0  0  0  0  0
  -21.6217   -5.5383   23.5391 C   0  0  0  0  0  0  0  0  0  0  0  0
  -24.5808  -11.6671   20.7919 C   0  0  0  0  0  0  0  0  0  0  0  0
  -25.1358  -13.7823   20.5620 C   0  0  0  0  0  0  0  0  0  0  0  0
  -22.6963  -13.4094   20.9594 C   0  0  0  0  0  0  0  0  0  0  0  0
  -23.9457  -27.9867   20.7333 C   0  0  0  0  0  0  0  0  0  0  0  0
  -24.7683  -29.3600   17.9119 C   0  0  0  0  0  0  0  0  0  0  0  0
  -27.0977  -29.7460   15.4479 C   0  0  0  0  0  0  0  0  0  0  0  0
  -29.7918  -14.5951   17.3969 C   0  0  0  0  0  0  0  0  0  0  0  0
  -19.3527  -29.2230   22.5861 C   0  0  0  0  0  0  0  0  0  0  0  0
  -26.1929  -28.9824   21.2944 C   0  0  0  0  0  0  0  0  0  0  0  0
  -26.2575  -27.4983   18.7374 C   0  0  0  0  0  0  0  0  0  0  0  0
  -19.9562  -29.0410   21.1958 C   0  0  0  0  0  0  0  0  0  0  0  0
  -30.0831  -12.7817   20.6151 C   0  0  0  0  0  0  0  0  0  0  0  0
  -20.7258  -27.7264   21.1159 C   0  0  0  0  0  0  0  0  0  0  0  0
  -28.6376  -12.3765   20.8981 C   0  0  0  0  0  0  0  0  0  0  0  0
  -30.3502  -12.9188   19.1196 C   0  0  0  0  0  0  0  0  0  0  0  0
  -29.5318  -16.7023   16.1244 C   0  0  0  0  0  0  0  0  0  0  0  0
  -27.9674  -13.4432   18.7078 C   0  0  0  0  0  0  0  0  0  0  0  0
  -28.3058  -16.4648   18.2499 C   0  0  0  0  0  0  0  0  0  0  0  0
  -30.2460  -17.9462   16.6279 C   0  0  0  0  0  0  0  0  0  0  0  0
  -21.8925  -27.7088   22.1109 C   0  0  1  0  0  0  0  0  0  0  0  0
  -25.0040  -28.9775   20.3384 C   0  0  1  0  0  0  0  0  0  0  0  0
  -27.6545  -13.3379   20.2082 C   0  0  1  0  0  0  0  0  0  0  0  0
  -28.9853  -17.7158   18.8269 C   0  0  1  0  0  0  0  0  0  0  0  0
  -30.1753  -17.3687   19.7212 C   0  0  0  0  0  0  0  0  0  0  0  0
  -27.4685  -30.9009   13.2510 C   0  0  0  0  0  0  0  0  0  0  0  0
  -29.5115  -23.4530   16.4186 C   0  0  0  0  0  0  0  0  0  0  0  0
  -31.6615  -24.4614   19.3528 C   0  0  0  0  0  0  0  0  0  0  0  0
  -22.9733  -27.3124   16.5352 C   0  0  0  0  0  0  0  0  0  0  0  0
  -24.1011  -27.8805   14.3735 C   0  0  0  0  0  0  0  0  0  0  0  0
  -22.8173  -29.6288   15.6055 C   0  0  0  0  0  0  0  0  0  0  0  0
  -29.4021  -31.2715   16.5068 C   0  0  0  0  0  0  0  0  0  0  0  0
  -29.5532  -21.0537   17.1332 C   0  0  0  0  0  0  0  0  0  0  0  0
  -29.6931  -22.8996   18.8959 C   0  0  0  0  0  0  0  0  0  0  0  0
  -29.9591  -19.9466   18.1016 C   0  0  0  0  0  0  0  0  0  0  0  0
  -25.0445  -28.8537   16.5168 C   0  0  1  0  0  0  0  0  0  0  0  0
  -27.6401  -30.9856   14.7597 C   0  0  2  0  0  0  0  0  0  0  0  0
  -30.0673  -22.4753   17.4615 C   0  0  2  0  0  0  0  0  0  0  0  0
  -30.1483  -24.3019   19.3243 C   0  0  1  0  0  0  0  0  0  1  0  0
  -23.7492  -28.4099   15.7801 C   0  0  0  0  0  0  0  0  0  0  0  0
  -25.9012  -11.6467   20.5920 N   0  0  0  0  0  0  0  0  0  0  0  0
  -26.2092  -12.9477   20.4554 N   0  0  0  0  0  0  0  0  0  0  0  0
  -25.3882  -28.6654   18.9603 N   0  0  0  0  0  0  0  0  0  0  0  0
  -29.3755  -13.8011   18.4780 N   0  0  0  0  0  0  0  0  0  0  0  0
  -29.1403  -15.8256   17.2249 N   0  0  0  0  0  0  0  0  0  0  0  0
  -25.2677  -15.1212   20.4500 N   0  0  0  0  0  0  0  0  0  0  0  0
  -21.7041  -12.4437   21.1771 N   0  0  0  0  0  0  0  0  0  0  0  0
  -22.9999  -28.4914   21.6052 N   0  0  0  0  0  0  0  0  0  0  0  0
  -25.7856  -29.9113   15.8380 N   0  0  0  0  0  0  0  0  0  0  0  0
  -29.3863  -18.6236   17.6717 N   0  3  1  0  0  0  0  0  0  0  0  0
  -29.0905  -31.1516   15.0592 N   0  3  0  0  0  0  0  0  0  0  0  0
  -22.3735  -14.6205   20.9085 O   0  0  0  0  0  0  0  0  0  0  0  0
  -23.9835  -26.8491   20.2793 O   0  0  0  0  0  0  0  0  0  0  0  0
  -24.0353  -30.3402   18.0654 O   0  0  0  0  0  0  0  0  0  0  0  0
  -27.7696  -28.7311   15.6187 O   0  0  0  0  0  0  0  0  0  0  0  0
  -30.6963  -14.2286   16.6362 O   0  0  0  0  0  0  0  0  0  0  0  0
  -21.7823   -6.8858   21.5498 O   0  0  0  0  0  0  0  0  0  0  0  0
  -29.6685  -24.5478   20.6480 O   0  0  0  0  0  0  0  0  0  1  0  0
  -23.9666   -3.1527   24.9699 F   0  0  0  0  0  0  0  0  0  0  0  0
  -20.4088   -6.0464   23.7974 F   0  0  0  0  0  0  0  0  0  0  0  0
  1  2  1  0  0  0  0
  1  5  2  0  0  0  0
  2  6  2  0  0  0  0
  3  8  2  0  0  0  0
  3 15  1  0  0  0  0
  4  9  1  0  0  0  0
  4 15  2  0  0  0  0
  5 17  1  0  0  0  0
  6 19  1  0  0  0  0
  7 10  2  0  0  0  0
  7 18  1  0  0  0  0
  8 21  1  0  0  0  0
  9 21  2  0  0  0  0
 10 22  1  0  0  0  0
 11 12  2  0  0  0  0
 11 23  1  0  0  0  0
 12 24  1  0  0  0  0
 13 20  1  0  0  0  0
 13 22  2  0  0  0  0
 14 24  2  0  0  0  0
 14 25  1  0  0  0  0
 15 26  1  0  0  0  0
 16 26  1  0  0  0  0
 16 27  2  0  0  0  0
 16 28  1  0  0  0  0
 17 19  2  0  0  0  0
 17 33  1  0  0  0  0
 18 20  2  0  0  0  0
 18 34  1  0  0  0  0
 19 45  1  0  0  0  0
 20 35  1  0  0  0  0
 21 81  1  0  0  0  0
 22 82  1  0  0  0  0
 23 25  2  0  0  0  0
 23 81  1  0  0  0  0
 24 83  1  0  0  0  0
 25 84  1  0  0  0  0
 26 65  2  0  0  0  0
 27 66  1  0  0  0  0
 27 70  1  0  0  0  0
 28 71  1  0  0  0  0
 28 76  2  0  0  0  0
 29 46  1  0  0  0  0
 29 72  1  0  0  0  0
 29 77  2  0  0  0  0
 30 60  1  0  0  0  0
 30 67  1  0  0  0  0
 30 78  2  0  0  0  0
 31 61  1  0  0  0  0
 31 73  1  0  0  0  0
 31 79  2  0  0  0  0
 32 68  1  0  0  0  0
 32 69  1  0  0  0  0
 32 80  2  0  0  0  0
 33 36  1  0  0  0  0
 34 46  1  0  0  0  0
 35 67  1  0  0  0  0
 36 38  1  0  0  0  0
 37 39  1  0  0  0  0
 37 40  1  0  0  0  0
 38 45  1  0  0  0  0
 39 47  1  0  0  0  0
 40 68  1  0  0  0  0
 41 44  1  0  0  0  0
 41 69  1  0  0  0  0
 42 47  1  0  0  0  0
 42 68  1  0  0  0  0
 43 48  1  0  0  0  0
 43 69  1  0  0  0  0
 44 74  1  0  0  0  0
 45 72  1  0  0  0  0
 46 67  1  0  0  0  0
 47 66  1  0  0  0  0
 48 49  1  0  0  0  0
 48 74  1  0  0  0  0
 50 61  1  0  0  0  0
 51 62  1  0  0  0  0
 52 63  1  0  0  0  0
 53 64  1  0  0  0  0
 54 64  1  0  0  0  0
 55 64  1  0  0  0  0
 56 75  1  0  0  0  0
 57 59  1  0  0  0  0
 57 62  1  0  0  0  0
 58 62  1  0  0  0  0
 58 63  1  0  0  0  0
 59 74  1  0  0  0  0
 60 64  1  0  0  0  0
 60 73  1  0  0  0  0
 61 75  1  0  0  0  0
 63 82  1  0  0  0  0
 65 66  1  0  0  0  0
M  CHG  2  74   1  75   1
M  ISO  4  32 100  63 101  69 100  82 101
M  END
> <Batch ID>
0123

> <Smiles>
CNC(C)C(=O)NC(C(=O)N1Cc2cc([101O:1][101CH:1](C)CC(C)CCN3CC[100N:0]([100C:0](=O)N4CCCC(n5nc(-c6ccc(Oc7ccc(F)cc7F)cc6)c(C(N)=O)c5N)C4)CC3C)ccc2CC1C(=O)NC1CCCc2ccccc21)C(C)(C)C

> <Shape>
0.293

> <Color>
0.203

> <Negative vol penalty>
0.000

$$$$

  -OEChem-04052320303D

 83 92  0     1  0  0  0  0  0999 V2000
  -29.4145  -32.1561   22.1167 C   0  0  0  0  0  0  0  0  0  0  0  0
  -29.0014  -30.9375   21.5876 C   0  0  0  0  0  0  0  0  0  0  0  0
  -26.0779  -13.5800   19.3871 C   0  0  0  0  0  0  0  0  0  0  0  0
  -26.2018  -12.9171   21.7071 C   0  0  0  0  0  0  0  0  0  0  0  0
  -28.6975  -32.7408   23.1598 C   0  0  0  0  0  0  0  0  0  0  0  0
  -27.8716  -30.3025   22.1021 C   0  0  0  0  0  0  0  0  0  0  0  0
  -24.8252  -28.5161   18.4725 C   0  0  0  0  0  0  0  0  0  0  0  0
  -24.8692  -12.8962   19.2563 C   0  0  0  0  0  0  0  0  0  0  0  0
  -24.9930  -12.2334   21.5763 C   0  0  0  0  0  0  0  0  0  0  0  0
  -25.2032  -27.3258   17.8528 C   0  0  0  0  0  0  0  0  0  0  0  0
  -23.9240   -9.2805   20.3239 C   0  0  0  0  0  0  0  0  0  0  0  0
  -23.8413   -7.9999   20.8707 C   0  0  0  0  0  0  0  0  0  0  0  0
  -28.5059  -24.3197   20.0386 C   0  0  0  0  0  0  0  0  0  0  0  0
  -23.6459  -26.1153   19.2415 C   0  0  0  0  0  0  0  0  0  0  0  0
  -28.1280  -21.9447   20.0038 C   0  0  0  0  0  0  0  0  0  0  0  0
  -22.0392   -8.7289   22.3054 C   0  0  0  0  0  0  0  0  0  0  0  0
  -29.0752  -24.1563   21.2912 C   0  0  0  0  0  0  0  0  0  0  0  0
  -26.7442  -13.5904   20.6125 C   0  0  0  0  0  0  0  0  0  0  0  0
  -29.1836  -14.0621   20.0341 C   0  0  0  0  0  0  0  0  0  0  0  0
  -27.5528  -32.1173   23.6808 C   0  0  0  0  0  0  0  0  0  0  0  0
  -23.8610  -28.5135   19.4908 C   0  0  0  0  0  0  0  0  0  0  0  0
  -27.1394  -30.8788   23.1540 C   0  0  0  0  0  0  0  0  0  0  0  0
  -28.0257  -23.1879   19.3893 C   0  0  0  0  0  0  0  0  0  0  0  0
  -23.2556  -27.3072   19.8709 C   0  0  0  0  0  0  0  0  0  0  0  0
  -24.3267  -12.2230   20.3508 C   0  0  0  0  0  0  0  0  0  0  0  0
  -24.6156  -26.1248   18.2392 C   0  0  0  0  0  0  0  0  0  0  0  0
  -23.0644  -10.2853   20.7679 C   0  0  0  0  0  0  0  0  0  0  0  0
  -22.8989   -7.7241   21.8614 C   0  0  0  0  0  0  0  0  0  0  0  0
  -22.1220  -10.0095   21.7586 C   0  0  0  0  0  0  0  0  0  0  0  0
  -27.9931  -14.2960   20.7482 C   0  0  0  0  0  0  0  0  0  0  0  0
  -28.7144  -21.8876   21.2578 C   0  0  0  0  0  0  0  0  0  0  0  0
  -30.0681  -14.9896   20.5280 C   0  0  0  0  0  0  0  0  0  0  0  0
  -29.4648  -13.0931   19.0154 C   0  0  0  0  0  0  0  0  0  0  0  0
  -23.8468  -29.3075   22.5686 C   0  0  0  0  0  0  0  0  0  0  0  0
  -20.6668  -28.7249   22.3032 C   0  0  0  0  0  0  0  0  0  0  0  0
  -18.5645  -26.2643   20.7085 C   0  0  0  0  0  0  0  0  0  0  0  0
  -29.3626  -20.3249   23.1244 C   0  0  0  0  0  0  0  0  0  0  0  0
  -26.8376  -32.7647   24.8401 C   0  0  0  0  0  0  0  0  0  0  0  0
  -23.4449  -29.8094   20.1309 C   0  0  0  0  0  0  0  0  0  0  0  0
  -22.2009  -27.2531   20.9447 C   0  0  0  0  0  0  0  0  0  0  0  0
  -25.4354  -32.2099   25.0773 C   0  0  0  0  0  0  0  0  0  0  0  0
  -31.0411  -17.4975   24.4900 C   0  0  0  0  0  0  0  0  0  0  0  0
  -25.4513  -30.6851   25.0404 C   0  0  0  0  0  0  0  0  0  0  0  0
  -30.5631  -16.3353   23.6166 C   0  0  0  0  0  0  0  0  0  0  0  0
  -28.1042  -22.4973   16.9369 C   0  0  0  0  0  0  0  0  0  0  0  0
  -29.9309  -18.5183   24.7331 C   0  0  0  0  0  0  0  0  0  0  0  0
  -28.7977  -17.8616   22.6466 C   0  0  0  0  0  0  0  0  0  0  0  0
  -27.1115  -22.5142   15.7904 C   0  0  0  0  0  0  0  0  0  0  0  0
  -27.3954  -23.3089   18.0219 C   0  0  1  0  0  0  0  0  0  0  0  0
  -25.9046  -30.1711   23.6686 C   0  0  1  0  0  0  0  0  0  0  0  0
  -22.8254  -29.6217   21.5123 C   0  0  1  0  0  0  0  0  0  0  0  0
  -29.8996  -16.8403   22.3203 C   0  0  2  0  0  0  0  0  0  0  0  0
  -25.9556  -22.7889   17.9328 C   0  0  1  0  0  0  0  0  0  0  0  0
  -16.2016  -26.4281   19.8794 C   0  0  0  0  0  0  0  0  0  0  0  0
  -19.9331  -27.6118   25.0477 C   0  0  0  0  0  0  0  0  0  0  0  0
  -18.1453  -26.2523   23.9413 C   0  0  0  0  0  0  0  0  0  0  0  0
  -18.0550  -28.7434   23.8448 C   0  0  0  0  0  0  0  0  0  0  0  0
  -19.3333  -25.3760   17.9921 C   0  0  0  0  0  0  0  0  0  0  0  0
  -24.9049  -23.7711   18.4195 C   0  0  0  0  0  0  0  0  0  1  0  0
  -19.7844  -27.5117   22.4721 C   0  0  1  0  0  0  0  0  0  0  0  0
  -17.6731  -26.4776   19.4984 C   0  0  2  0  0  0  0  0  0  0  0  0
  -19.0066  -27.5274   23.8183 C   0  0  0  0  0  0  0  0  0  0  0  0
  -29.1923  -22.9652   21.9198 N   0  0  0  0  0  0  0  0  0  0  0  0
  -28.1076  -15.2937   21.6287 N   0  0  0  0  0  0  0  0  0  0  0  0
  -29.3805  -15.6950   21.4713 N   0  0  0  0  0  0  0  0  0  0  0  0
  -21.8325  -28.5459   21.5450 N   0  0  0  0  0  0  0  0  0  0  0  0
  -29.3522  -18.9546   23.4606 N   0  0  0  0  0  0  0  0  0  0  0  0
  -31.3591  -15.2624   20.2430 N   0  0  0  0  0  0  0  0  0  0  0  0
  -29.9556  -11.8390   19.4034 N   0  0  0  0  0  0  0  0  0  0  0  0
  -28.8144  -20.6165   21.8758 N   0  0  0  0  0  0  0  0  0  0  0  0
  -24.8259  -30.2724   22.7092 N   0  0  0  0  0  0  0  0  0  0  0  0
  -18.9313  -27.4596   21.2897 N   0  0  0  0  0  0  0  0  0  0  0  0
  -25.7652  -22.5314   16.4568 N   0  3  0  0  0  0  0  0  0  0  0  0
  -17.9291  -25.4254   18.4746 N   0  3  0  0  0  0  0  0  0  0  0  0
  -29.3015  -13.3381   17.7960 O   0  0  0  0  0  0  0  0  0  0  0  0
  -23.7526  -28.2673   23.2097 O   0  0  0  0  0  0  0  0  0  0  0  0
  -20.3304  -29.7939   22.8188 O   0  0  0  0  0  0  0  0  0  0  0  0
  -18.8987  -25.1487   21.1013 O   0  0  0  0  0  0  0  0  0  0  0  0
  -29.8485  -21.1739   23.8762 O   0  0  0  0  0  0  0  0  0  0  0  0
  -23.1472  -11.5559   20.2236 O   0  0  0  0  0  0  0  0  0  0  0  0
  -24.9832  -24.9615   17.6363 O   0  0  0  0  0  0  0  0  0  1  0  0
  -22.8186   -6.4940   22.3853 F   0  0  0  0  0  0  0  0  0  0  0  0
  -21.2926  -10.9704   22.1884 F   0  0  0  0  0  0  0  0  0  0  0  0
  1  2  1  0  0  0  0
  1  5  2  0  0  0  0
  2  6  2  0  0  0  0
  3  8  2  0  0  0  0
  3 18  1  0  0  0  0
  4  9  1  0  0  0  0
  4 18  2  0  0  0  0
  5 20  1  0  0  0  0
  6 22  1  0  0  0  0
  7 10  2  0  0  0  0
  7 21  1  0  0  0  0
  8 25  1  0  0  0  0
  9 25  2  0  0  0  0
 10 26  1  0  0  0  0
 11 12  2  0  0  0  0
 11 27  1  0  0  0  0
 12 28  1  0  0  0  0
 13 17  2  0  0  0  0
 13 23  1  0  0  0  0
 14 24  1  0  0  0  0
 14 26  2  0  0  0  0
 15 23  2  0  0  0  0
 15 31  1  0  0  0  0
 16 28  2  0  0  0  0
 16 29  1  0  0  0  0
 17 63  1  0  0  0  0
 18 30  1  0  0  0  0
 19 30  1  0  0  0  0
 19 32  2  0  0  0  0
 19 33  1  0  0  0  0
 20 22  2  0  0  0  0
 20 38  1  0  0  0  0
 21 24  2  0  0  0  0
 21 39  1  0  0  0  0
 22 50  1  0  0  0  0
 23 49  1  0  0  0  0
 24 40  1  0  0  0  0
 25 80  1  0  0  0  0
 26 81  1  0  0  0  0
 27 29  2  0  0  0  0
 27 80  1  0  0  0  0
 28 82  1  0  0  0  0
 29 83  1  0  0  0  0
 30 64  2  0  0  0  0
 31 63  2  0  0  0  0
 31 70  1  0  0  0  0
 32 65  1  0  0  0  0
 32 68  1  0  0  0  0
 33 69  1  0  0  0  0
 33 75  2  0  0  0  0
 34 51  1  0  0  0  0
 34 71  1  0  0  0  0
 34 76  2  0  0  0  0
 35 60  1  0  0  0  0
 35 66  1  0  0  0  0
 35 77  2  0  0  0  0
 36 61  1  0  0  0  0
 36 72  1  0  0  0  0
 36 78  2  0  0  0  0
 37 67  1  0  0  0  0
 37 70  1  0  0  0  0
 37 79  2  0  0  0  0
 38 41  1  0  0  0  0
 39 51  1  0  0  0  0
 40 66  1  0  0  0  0
 41 43  1  0  0  0  0
 42 44  1  0  0  0  0
 42 46  1  0  0  0  0
 43 50  1  0  0  0  0
 44 52  1  0  0  0  0
 45 48  1  0  0  0  0
 45 49  1  0  0  0  0
 46 67  1  0  0  0  0
 47 52  1  0  0  0  0
 47 67  1  0  0  0  0
 48 73  1  0  0  0  0
 49 53  1  0  0  0  0
 50 71  1  0  0  0  0
 51 66  1  0  0  0  0
 52 65  1  0  0  0  0
 53 59  1  0  0  0  0
 53 73  1  0  0  0  0
 54 61  1  0  0  0  0
 55 62  1  0  0  0  0
 56 62  1  0  0  0  0
 57 62  1  0  0  0  0
 58 74  1  0  0  0  0
 59 81  1  0  0  0  0
 60 62  1  0  0  0  0
 60 72  1  0  0  0  0
 61 74  1  0  0  0  0
 64 65  1  0  0  0  0
M  CHG  2  73   1  74   1
M  ISO  4  37 100  59 101  70 100  81 101
M  END
> <Batch ID>
0123

> <Smiles>
CNC(C)C(=O)NC(C(=O)N1Cc2cc([101O:1][101CH2:1]C3NCCC3c3ccnc([100NH:0][100C:0](=O)N4CCCC(n5nc(-c6ccc(Oc7ccc(F)cc7F)cc6)c(C(N)=O)c5N)C4)c3)ccc2CC1C(=O)NC1CCCc2ccccc21)C(C)(C)C

> <Shape>
0.302

> <Color>
0.054

> <Negative vol penalty>
0.000

$$$$

  -OEChem-04052320303D

 85 93  0     1  0  0  0  0  0999 V2000
  -23.4288  -29.3227   13.8686 C   0  0  0  0  0  0  0  0  0  0  0  0
  -23.1490  -29.1096   15.2146 C   0  0  0  0  0  0  0  0  0  0  0  0
  -24.9467  -15.8683   22.0407 C   0  0  0  0  0  0  0  0  0  0  0  0
  -26.1973  -16.7267   20.1602 C   0  0  0  0  0  0  0  0  0  0  0  0
  -24.3524  -28.5100   13.2126 C   0  0  0  0  0  0  0  0  0  0  0  0
  -23.7920  -28.0829   15.9051 C   0  0  0  0  0  0  0  0  0  0  0  0
  -25.4505  -29.5468   20.4605 C   0  0  0  0  0  0  0  0  0  0  0  0
  -25.3366  -14.5711   21.7078 C   0  0  0  0  0  0  0  0  0  0  0  0
  -26.5872  -15.4295   19.8273 C   0  0  0  0  0  0  0  0  0  0  0  0
  -24.5073  -29.6344   21.4835 C   0  0  0  0  0  0  0  0  0  0  0  0
  -28.8652  -13.1670   20.8819 C   0  0  0  0  0  0  0  0  0  0  0  0
  -30.2052  -12.9582   20.5558 C   0  0  0  0  0  0  0  0  0  0  0  0
  -25.2254  -27.4891   22.3211 C   0  0  0  0  0  0  0  0  0  0  0  0
  -29.5499  -12.1704   18.3678 C   0  0  0  0  0  0  0  0  0  0  0  0
  -25.3770  -16.9461   21.2668 C   0  0  0  0  0  0  0  0  0  0  0  0
  -25.6437  -19.1829   22.4641 C   0  0  0  0  0  0  0  0  0  0  0  0
  -25.0142  -27.4790   13.8979 C   0  0  0  0  0  0  0  0  0  0  0  0
  -26.2821  -28.4228   20.3535 C   0  0  0  0  0  0  0  0  0  0  0  0
  -24.7244  -27.2548   15.2573 C   0  0  0  0  0  0  0  0  0  0  0  0
  -26.1800  -27.3908   21.2973 C   0  0  0  0  0  0  0  0  0  0  0  0
  -26.1568  -14.3517   20.6011 C   0  0  0  0  0  0  0  0  0  0  0  0
  -24.3927  -28.6042   22.4123 C   0  0  0  0  0  0  0  0  0  0  0  0
  -27.8675  -12.8774   19.9511 C   0  0  0  0  0  0  0  0  0  0  0  0
  -30.5475  -12.4600   19.2987 C   0  0  0  0  0  0  0  0  0  0  0  0
  -28.2098  -12.3792   18.6940 C   0  0  0  0  0  0  0  0  0  0  0  0
  -24.9742  -18.2863   21.6099 C   0  0  0  0  0  0  0  0  0  0  0  0
  -24.8615  -20.3118   22.4582 C   0  0  0  0  0  0  0  0  0  0  0  0
  -26.8637  -19.0106   23.1973 C   0  0  0  0  0  0  0  0  0  0  0  0
  -26.7272  -26.1621   18.1638 C   0  0  0  0  0  0  0  0  0  0  0  0
  -29.1469  -25.2760   20.1341 C   0  0  0  0  0  0  0  0  0  0  0  0
  -30.4723  -25.2820   23.2789 C   0  0  0  0  0  0  0  0  0  0  0  0
  -21.7034  -23.3886   18.8566 C   0  0  0  0  0  0  0  0  0  0  0  0
  -25.9695  -26.5964   13.1344 C   0  0  0  0  0  0  0  0  0  0  0  0
  -27.3127  -28.3556   19.2599 C   0  0  0  0  0  0  0  0  0  0  0  0
  -27.0630  -26.1721   21.2384 C   0  0  0  0  0  0  0  0  0  0  0  0
  -26.8852  -25.7693   14.0331 C   0  0  0  0  0  0  0  0  0  0  0  0
  -20.1408  -21.2755   21.3446 C   0  0  0  0  0  0  0  0  0  0  0  0
  -26.0835  -25.1129   15.1526 C   0  0  0  0  0  0  0  0  0  0  0  0
  -21.3059  -20.3712   21.7508 C   0  0  0  0  0  0  0  0  0  0  0  0
  -18.2483  -27.8170   21.4913 C   0  0  0  0  0  0  0  0  0  0  0  0
  -20.6060  -27.1809   22.0892 C   0  0  0  0  0  0  0  0  0  0  0  0
  -20.1736  -21.5817   19.8502 C   0  0  0  0  0  0  0  0  0  0  0  0
  -22.6180  -21.2768   19.7764 C   0  0  0  0  0  0  0  0  0  0  0  0
  -18.2432  -28.8408   22.6157 C   0  0  0  0  0  0  0  0  0  0  0  0
  -25.4197  -26.1670   16.0469 C   0  0  1  0  0  0  0  0  0  0  0  0
  -27.7562  -26.9307   18.9435 C   0  0  1  0  0  0  0  0  0  0  0  0
  -22.6539  -20.9488   21.2801 C   0  0  2  0  0  0  0  0  0  0  0  0
  -19.6606  -27.5979   20.9700 C   0  0  1  0  0  0  0  0  0  0  0  0
  -20.6096  -28.2023   23.2362 C   0  0  2  0  0  0  0  0  0  0  0  0
  -32.4426  -24.4442   24.5879 C   0  0  0  0  0  0  0  0  0  0  0  0
  -17.6292  -29.3031   25.4105 C   0  0  0  0  0  0  0  0  0  0  0  0
  -19.4689  -30.7327   24.4378 C   0  0  0  0  0  0  0  0  0  0  0  0
  -27.9449  -22.4715   20.1438 C   0  0  0  0  0  0  0  0  0  0  0  0
  -29.3452  -21.9538   22.1536 C   0  0  0  0  0  0  0  0  0  0  0  0
  -30.4402  -22.5365   19.9893 C   0  0  0  0  0  0  0  0  0  0  0  0
  -31.3217  -28.0289   23.9802 C   0  0  0  0  0  0  0  0  0  0  0  0
  -21.5050  -27.7048   24.3693 C   0  0  0  0  0  0  0  0  0  0  0  0
  -20.6432  -25.4504   17.9721 C   0  0  0  0  0  0  0  0  0  0  0  0
  -20.7813  -26.5670   18.9901 C   0  0  0  0  0  0  0  0  0  0  0  0
  -22.9304  -27.4600   23.8983 C   0  0  0  0  0  0  0  0  0  1  0  0
  -29.2769  -24.3467   21.3167 C   0  0  1  0  0  0  0  0  0  0  0  0
  -31.8685  -25.5998   23.7830 C   0  0  2  0  0  0  0  0  0  0  0  0
  -19.0601  -29.3428   24.8985 C   0  0  0  0  0  0  0  0  0  0  0  0
  -29.2337  -22.8491   20.9011 C   0  0  0  0  0  0  0  0  0  0  0  0
  -23.8528  -18.8013   21.0986 N   0  0  0  0  0  0  0  0  0  0  0  0
  -23.8117  -20.0336   21.6332 N   0  0  0  0  0  0  0  0  0  0  0  0
  -28.0508  -26.1501   20.1469 N   0  0  0  0  0  0  0  0  0  0  0  0
  -21.4766  -22.1458   19.4709 N   0  0  0  0  0  0  0  0  0  0  0  0
  -24.9761  -21.5054   23.0783 N   0  0  0  0  0  0  0  0  0  0  0  0
  -27.5406  -17.7880   23.0903 N   0  0  0  0  0  0  0  0  0  0  0  0
  -26.3885  -26.7413   16.9558 N   0  0  0  0  0  0  0  0  0  0  0  0
  -30.4981  -24.7389   22.0118 N   0  0  0  0  0  0  0  0  0  0  0  0
  -20.5692  -24.1475   18.5949 N   0  0  0  0  0  0  0  0  0  0  0  0
  -19.1758  -28.3968   23.7274 N   0  3  1  0  0  0  0  0  0  0  0  0
  -19.6340  -26.5306   19.9355 N   0  3  0  0  0  0  0  0  0  0  0  0
  -31.8425  -26.8104   24.6517 N   0  3  0  0  0  0  0  0  0  0  0  0
  -27.3309  -19.9082   23.9387 O   0  0  0  0  0  0  0  0  0  0  0  0
  -26.2752  -25.1199   18.6233 O   0  0  0  0  0  0  0  0  0  0  0  0
  -29.9910  -25.2329   19.2356 O   0  0  0  0  0  0  0  0  0  0  0  0
  -29.4603  -25.4909   23.9443 O   0  0  0  0  0  0  0  0  0  0  0  0
  -22.8341  -23.7948   18.5674 O   0  0  0  0  0  0  0  0  0  0  0  0
  -26.5376  -13.0860   20.2761 O   0  0  0  0  0  0  0  0  0  0  0  0
  -23.4725  -28.6869   23.4115 O   0  0  0  0  0  0  0  0  0  1  0  0
  -31.8345  -12.2610   18.9851 F   0  0  0  0  0  0  0  0  0  0  0  0
  -27.2559  -12.1003   17.7952 F   0  0  0  0  0  0  0  0  0  0  0  0
  1  2  1  0  0  0  0
  1  5  2  0  0  0  0
  2  6  2  0  0  0  0
  3  8  2  0  0  0  0
  3 15  1  0  0  0  0
  4  9  1  0  0  0  0
  4 15  2  0  0  0  0
  5 17  1  0  0  0  0
  6 19  1  0  0  0  0
  7 10  2  0  0  0  0
  7 18  1  0  0  0  0
  8 21  1  0  0  0  0
  9 21  2  0  0  0  0
 10 22  1  0  0  0  0
 11 12  2  0  0  0  0
 11 23  1  0  0  0  0
 12 24  1  0  0  0  0
 13 20  1  0  0  0  0
 13 22  2  0  0  0  0
 14 24  2  0  0  0  0
 14 25  1  0  0  0  0
 15 26  1  0  0  0  0
 16 26  1  0  0  0  0
 16 27  2  0  0  0  0
 16 28  1  0  0  0  0
 17 19  2  0  0  0  0
 17 33  1  0  0  0  0
 18 20  2  0  0  0  0
 18 34  1  0  0  0  0
 19 45  1  0  0  0  0
 20 35  1  0  0  0  0
 21 82  1  0  0  0  0
 22 83  1  0  0  0  0
 23 25  2  0  0  0  0
 23 82  1  0  0  0  0
 24 84  1  0  0  0  0
 25 85  1  0  0  0  0
 26 65  2  0  0  0  0
 27 66  1  0  0  0  0
 27 69  1  0  0  0  0
 28 70  1  0  0  0  0
 28 77  2  0  0  0  0
 29 46  1  0  0  0  0
 29 71  1  0  0  0  0
 29 78  2  0  0  0  0
 30 61  1  0  0  0  0
 30 67  1  0  0  0  0
 30 79  2  0  0  0  0
 31 62  1  0  0  0  0
 31 72  1  0  0  0  0
 31 80  2  0  0  0  0
 32 68  1  0  0  0  0
 32 73  1  0  0  0  0
 32 81  2  0  0  0  0
 33 36  1  0  0  0  0
 34 46  1  0  0  0  0
 35 67  1  0  0  0  0
 36 38  1  0  0  0  0
 37 39  1  0  0  0  0
 37 42  1  0  0  0  0
 38 45  1  0  0  0  0
 39 47  1  0  0  0  0
 40 44  1  0  0  0  0
 40 48  1  0  0  0  0
 41 48  1  0  0  0  0
 41 49  1  0  0  0  0
 42 68  1  0  0  0  0
 43 47  1  0  0  0  0
 43 68  1  0  0  0  0
 44 74  1  0  0  0  0
 45 71  1  0  0  0  0
 46 67  1  0  0  0  0
 47 66  1  0  0  0  0
 48 75  1  0  0  0  0
 49 57  1  0  0  0  0
 49 74  1  0  0  0  0
 50 62  1  0  0  0  0
 51 63  1  0  0  0  0
 52 63  1  0  0  0  0
 53 64  1  0  0  0  0
 54 64  1  0  0  0  0
 55 64  1  0  0  0  0
 56 76  1  0  0  0  0
 57 60  1  0  0  0  0
 58 59  1  0  0  0  0
 58 73  1  0  0  0  0
 59 75  1  0  0  0  0
 60 83  1  0  0  0  0
 61 64  1  0  0  0  0
 61 72  1  0  0  0  0
 62 76  1  0  0  0  0
 63 74  1  0  0  0  0
 65 66  1  0  0  0  0
M  CHG  3  74   1  75   1  76   1
M  ISO  4  32 100  60 101  73 100  83 101
M  END
> <Batch ID>
0123

> <Smiles>
CNC(C)C(=O)NC(C(=O)N1Cc2cc([101O:1][101CH2:1]CC3CC(NCC[100NH:0][100C:0](=O)N4CCCC(n5nc(-c6ccc(Oc7ccc(F)cc7F)cc6)c(C(N)=O)c5N)C4)CCN3C(C)C)ccc2CC1C(=O)NC1CCCc2ccccc21)C(C)(C)C

> <Shape>
0.197

> <Color>
0.066

> <Negative vol penalty>
0.000

$$$$

  -OEChem-04052320303D

 85 94  0     1  0  0  0  0  0999 V2000
  -26.0588  -18.5589   23.9039 C   0  0  0  0  0  0  0  0  0  0  0  0
  -26.4922  -19.5909   23.0777 C   0  0  0  0  0  0  0  0  0  0  0  0
  -29.3105  -26.7648   15.5776 C   0  0  0  0  0  0  0  0  0  0  0  0
  -29.6436  -25.4612   15.2099 C   0  0  0  0  0  0  0  0  0  0  0  0
  -23.7206  -11.7929   19.7197 C   0  0  0  0  0  0  0  0  0  0  0  0
  -24.8101  -11.6962   21.8740 C   0  0  0  0  0  0  0  0  0  0  0  0
  -24.7057  -18.4413   24.2190 C   0  0  0  0  0  0  0  0  0  0  0  0
  -25.5726  -20.5053   22.5653 C   0  0  0  0  0  0  0  0  0  0  0  0
  -27.1927  -25.2908   22.9105 C   0  0  0  0  0  0  0  0  0  0  0  0
  -29.7095  -27.2632   16.8178 C   0  0  0  0  0  0  0  0  0  0  0  0
  -30.3757  -24.6559   16.0823 C   0  0  0  0  0  0  0  0  0  0  0  0
  -23.5304  -10.4115   19.7539 C   0  0  0  0  0  0  0  0  0  0  0  0
  -24.6199  -10.3148   21.9082 C   0  0  0  0  0  0  0  0  0  0  0  0
  -28.1289  -25.7155   21.9687 C   0  0  0  0  0  0  0  0  0  0  0  0
  -22.1019   -8.1649   22.5853 C   0  0  0  0  0  0  0  0  0  0  0  0
  -21.6361   -7.6057   23.7751 C   0  0  0  0  0  0  0  0  0  0  0  0
  -26.3709  -26.7911   20.7150 C   0  0  0  0  0  0  0  0  0  0  0  0
  -23.6322   -6.2523   23.9205 C   0  0  0  0  0  0  0  0  0  0  0  0
  -24.3605  -12.4353   20.7797 C   0  0  0  0  0  0  0  0  0  0  0  0
  -23.6844  -14.8533   21.2312 C   0  0  0  0  0  0  0  0  0  0  0  0
  -23.7704  -19.3604   23.7180 C   0  0  0  0  0  0  0  0  0  0  0  0
  -25.8347  -25.6042   22.7556 C   0  0  0  0  0  0  0  0  0  0  0  0
  -24.2055  -20.3991   22.8729 C   0  0  0  0  0  0  0  0  0  0  0  0
  -25.4198  -26.3713   21.6576 C   0  0  0  0  0  0  0  0  0  0  0  0
  -30.4416  -26.4579   17.6903 C   0  0  0  0  0  0  0  0  0  0  0  0
  -30.7747  -25.1543   17.3226 C   0  0  0  0  0  0  0  0  0  0  0  0
  -23.9800   -9.6725   20.8481 C   0  0  0  0  0  0  0  0  0  0  0  0
  -27.7177  -26.4633   20.8693 C   0  0  0  0  0  0  0  0  0  0  0  0
  -23.3329   -7.7678   22.0629 C   0  0  0  0  0  0  0  0  0  0  0  0
  -22.4012   -6.6494   24.4428 C   0  0  0  0  0  0  0  0  0  0  0  0
  -24.0980   -6.8115   22.7306 C   0  0  0  0  0  0  0  0  0  0  0  0
  -24.5578  -13.8621   20.7448 C   0  0  0  0  0  0  0  0  0  0  0  0
  -24.3250  -16.0379   20.9613 C   0  0  0  0  0  0  0  0  0  0  0  0
  -22.4082  -14.7154   21.8699 C   0  0  0  0  0  0  0  0  0  0  0  0
  -23.1708  -23.9116   22.3787 C   0  0  0  0  0  0  0  0  0  0  0  0
  -21.7511  -26.8163   22.6429 C   0  0  0  0  0  0  0  0  0  0  0  0
  -22.0093  -30.2056   22.3387 C   0  0  0  0  0  0  0  0  0  0  0  0
  -29.7183  -18.0729   20.9519 C   0  0  0  0  0  0  0  0  0  0  0  0
  -22.3118  -19.1647   24.0480 C   0  0  0  0  0  0  0  0  0  0  0  0
  -24.8411  -25.1613   23.7943 C   0  0  0  0  0  0  0  0  0  0  0  0
  -23.9765  -26.7516   21.4560 C   0  0  0  0  0  0  0  0  0  0  0  0
  -21.4533  -20.3954   23.7674 C   0  0  0  0  0  0  0  0  0  0  0  0
  -27.8873  -17.4448   17.8379 C   0  0  0  0  0  0  0  0  0  0  0  0
  -21.7790  -20.9714   22.3930 C   0  0  0  0  0  0  0  0  0  0  0  0
  -26.7627  -16.5298   18.3252 C   0  0  0  0  0  0  0  0  0  0  0  0
  -29.1715  -17.1941   18.6190 C   0  0  0  0  0  0  0  0  0  0  0  0
  -31.1551  -20.1658   21.2221 C   0  0  0  0  0  0  0  0  0  0  0  0
  -30.1148  -20.1189   19.3672 C   0  0  0  0  0  0  0  0  0  0  0  0
  -27.9112  -16.4274   20.5899 C   0  0  0  0  0  0  0  0  0  0  0  0
  -23.2418  -21.4252   22.3176 C   0  0  1  0  0  0  0  0  0  0  0  0
  -23.4113  -25.1002   23.2659 C   0  0  1  0  0  0  0  0  0  0  0  0
  -30.5339  -21.2503   20.3250 C   0  0  0  0  0  0  0  0  0  0  0  0
  -26.5772  -16.6375   19.8499 C   0  0  2  0  0  0  0  0  0  0  0  0
  -20.6705  -32.3134   22.5878 C   0  0  0  0  0  0  0  0  0  0  0  0
  -20.3301  -26.2221   20.0089 C   0  0  0  0  0  0  0  0  0  0  0  0
  -19.7850  -28.6594   19.8336 C   0  0  0  0  0  0  0  0  0  0  0  0
  -18.8991  -27.3192   21.7419 C   0  0  0  0  0  0  0  0  0  0  0  0
  -23.8181  -31.2440   24.4385 C   0  0  0  0  0  0  0  0  0  0  0  0
  -30.8590  -27.0131   19.0125 C   0  0  0  0  0  0  0  0  0  0  0  0
  -31.5607  -24.2692   18.2444 C   0  0  0  0  0  0  0  0  0  0  0  0
  -31.4834  -22.2924   19.7691 C   0  0  0  0  0  0  0  0  0  0  0  0
  -29.9901  -26.5133   20.1696 C   0  0  0  0  0  0  0  0  0  1  0  0
  -21.3575  -27.9058   21.6749 C   0  0  1  0  0  0  0  0  0  0  0  0
  -21.6109  -31.3340   23.2727 C   0  0  2  0  0  0  0  0  0  0  0  0
  -20.1199  -27.5180   20.8173 C   0  0  0  0  0  0  0  0  0  0  0  0
  -25.6685  -14.3727   20.2065 N   0  0  0  0  0  0  0  0  0  0  0  0
  -25.4973  -15.6976   20.3530 N   0  0  0  0  0  0  0  0  0  0  0  0
  -23.0421  -26.2896   22.4957 N   0  0  0  0  0  0  0  0  0  0  0  0
  -28.9412  -17.3277   20.0610 N   0  0  0  0  0  0  0  0  0  0  0  0
  -30.3297  -19.2127   20.4853 N   0  0  0  0  0  0  0  0  0  0  0  0
  -23.9942  -17.3270   21.1873 N   0  0  0  0  0  0  0  0  0  0  0  0
  -21.8969  -13.4259   22.0698 N   0  0  0  0  0  0  0  0  0  0  0  0
  -23.4121  -22.6957   22.9893 N   0  0  0  0  0  0  0  0  0  0  0  0
  -21.1770  -29.1143   22.4720 N   0  0  0  0  0  0  0  0  0  0  0  0
  -22.8178  -32.0809   23.7271 N   0  3  0  0  0  0  0  0  0  0  0  0
  -30.7272  -23.2244   18.9019 N   0  3  0  0  0  0  0  0  0  0  0  0
  -21.7336  -15.7071   22.2373 O   0  0  0  0  0  0  0  0  0  0  0  0
  -22.7927  -24.0847   21.2260 O   0  0  0  0  0  0  0  0  0  0  0  0
  -20.9454  -26.4511   23.5026 O   0  0  0  0  0  0  0  0  0  0  0  0
  -22.9611  -30.2857   21.5653 O   0  0  0  0  0  0  0  0  0  0  0  0
  -29.8390  -17.7490   22.1409 O   0  0  0  0  0  0  0  0  0  0  0  0
  -23.7943   -8.3245   20.8819 O   0  0  0  0  0  0  0  0  0  0  0  0
  -28.6357  -26.8816   19.9418 O   0  0  0  0  0  0  0  0  0  1  0  0
  -21.9545   -6.1136   25.5862 F   0  0  0  0  0  0  0  0  0  0  0  0
  -25.2819   -6.4269   22.2343 F   0  0  0  0  0  0  0  0  0  0  0  0
  1  2  1  0  0  0  0
  1  7  2  0  0  0  0
  2  8  2  0  0  0  0
  3  4  1  0  0  0  0
  3 10  2  0  0  0  0
  4 11  2  0  0  0  0
  5 12  2  0  0  0  0
  5 19  1  0  0  0  0
  6 13  1  0  0  0  0
  6 19  2  0  0  0  0
  7 21  1  0  0  0  0
  8 23  1  0  0  0  0
  9 14  2  0  0  0  0
  9 22  1  0  0  0  0
 10 25  1  0  0  0  0
 11 26  1  0  0  0  0
 12 27  1  0  0  0  0
 13 27  2  0  0  0  0
 14 28  1  0  0  0  0
 15 16  2  0  0  0  0
 15 29  1  0  0  0  0
 16 30  1  0  0  0  0
 17 24  1  0  0  0  0
 17 28  2  0  0  0  0
 18 30  2  0  0  0  0
 18 31  1  0  0  0  0
 19 32  1  0  0  0  0
 20 32  1  0  0  0  0
 20 33  2  0  0  0  0
 20 34  1  0  0  0  0
 21 23  2  0  0  0  0
 21 39  1  0  0  0  0
 22 24  2  0  0  0  0
 22 40  1  0  0  0  0
 23 50  1  0  0  0  0
 24 41  1  0  0  0  0
 25 26  2  0  0  0  0
 25 59  1  0  0  0  0
 26 60  1  0  0  0  0
 27 82  1  0  0  0  0
 28 83  1  0  0  0  0
 29 31  2  0  0  0  0
 29 82  1  0  0  0  0
 30 84  1  0  0  0  0
 31 85  1  0  0  0  0
 32 66  2  0  0  0  0
 33 67  1  0  0  0  0
 33 71  1  0  0  0  0
 34 72  1  0  0  0  0
 34 77  2  0  0  0  0
 35 51  1  0  0  0  0
 35 73  1  0  0  0  0
 35 78  2  0  0  0  0
 36 63  1  0  0  0  0
 36 68  1  0  0  0  0
 36 79  2  0  0  0  0
 37 64  1  0  0  0  0
 37 74  1  0  0  0  0
 37 80  2  0  0  0  0
 38 69  1  0  0  0  0
 38 70  1  0  0  0  0
 38 81  2  0  0  0  0
 39 42  1  0  0  0  0
 40 51  1  0  0  0  0
 41 68  1  0  0  0  0
 42 44  1  0  0  0  0
 43 45  1  0  0  0  0
 43 46  1  0  0  0  0
 44 50  1  0  0  0  0
 45 53  1  0  0  0  0
 46 69  1  0  0  0  0
 47 52  1  0  0  0  0
 47 70  1  0  0  0  0
 48 52  1  0  0  0  0
 48 70  1  0  0  0  0
 49 53  1  0  0  0  0
 49 69  1  0  0  0  0
 50 73  1  0  0  0  0
 51 68  1  0  0  0  0
 52 61  1  0  0  0  0
 53 67  1  0  0  0  0
 54 64  1  0  0  0  0
 55 65  1  0  0  0  0
 56 65  1  0  0  0  0
 57 65  1  0  0  0  0
 58 75  1  0  0  0  0
 59 62  1  0  0  0  0
 60 76  1  0  0  0  0
 61 76  1  0  0  0  0
 62 83  1  0  0  0  0
 63 65  1  0  0  0  0
 63 74  1  0  0  0  0
 64 75  1  0  0  0  0
 66 67  1  0  0  0  0
M  CHG  2  75   1  76   1
M  ISO  4  38 100  62 101  70 100  83 101
M  END
> <Batch ID>
0123

> <Smiles>
CNC(C)C(=O)NC(C(=O)N1Cc2cc([101O:1][101CH2:1]Cc3ccccc3CNCC3C[100N:0]([100C:0](=O)N4CCCC(n5nc(-c6ccc(Oc7ccc(F)cc7F)cc6)c(C(N)=O)c5N)C4)C3)ccc2CC1C(=O)NC1CCCc2ccccc21)C(C)(C)C

> <Shape>
0.239

> <Color>
0.057

> <Negative vol penalty>
0.000

$$$$

  -OEChem-04052320303D

 86 95  0     1  0  0  0  0  0999 V2000
  -27.3116  -31.0496   20.9396 C   0  0  0  0  0  0  0  0  0  0  0  0
  -27.6701  -29.8122   21.4647 C   0  0  0  0  0  0  0  0  0  0  0  0
  -23.0752   -9.8690   19.9412 C   0  0  0  0  0  0  0  0  0  0  0  0
  -23.8366   -9.8770   22.2340 C   0  0  0  0  0  0  0  0  0  0  0  0
  -27.9882  -32.1996   21.3440 C   0  0  0  0  0  0  0  0  0  0  0  0
  -28.7062  -29.7240   22.3937 C   0  0  0  0  0  0  0  0  0  0  0  0
  -27.5560  -26.7236   26.3077 C   0  0  0  0  0  0  0  0  0  0  0  0
  -22.3327   -8.7151   20.1917 C   0  0  0  0  0  0  0  0  0  0  0  0
  -23.0940   -8.7231   22.4846 C   0  0  0  0  0  0  0  0  0  0  0  0
  -27.6351  -25.3473   26.0997 C   0  0  0  0  0  0  0  0  0  0  0  0
  -19.3862   -7.9158   21.6450 C   0  0  0  0  0  0  0  0  0  0  0  0
  -18.0791   -7.8682   21.1606 C   0  0  0  0  0  0  0  0  0  0  0  0
  -29.7898  -25.3133   27.1836 C   0  0  0  0  0  0  0  0  0  0  0  0
  -18.6398   -5.9255   19.8382 C   0  0  0  0  0  0  0  0  0  0  0  0
  -27.0886  -19.1232   21.2348 C   0  0  0  0  0  0  0  0  0  0  0  0
  -23.8273  -10.4499   20.9623 C   0  0  0  0  0  0  0  0  0  0  0  0
  -24.1665  -12.9754   20.8418 C   0  0  0  0  0  0  0  0  0  0  0  0
  -29.0267  -32.1267   22.2857 C   0  0  0  0  0  0  0  0  0  0  0  0
  -28.5999  -27.4080   26.9466 C   0  0  0  0  0  0  0  0  0  0  0  0
  -29.3983  -30.8740   22.8101 C   0  0  0  0  0  0  0  0  0  0  0  0
  -29.7204  -26.6979   27.4008 C   0  0  0  0  0  0  0  0  0  0  0  0
  -22.3421   -8.1422   21.4635 C   0  0  0  0  0  0  0  0  0  0  0  0
  -28.7534  -24.6424   26.5351 C   0  0  0  0  0  0  0  0  0  0  0  0
  -20.3203   -6.9683   21.2260 C   0  0  0  0  0  0  0  0  0  0  0  0
  -17.7059   -6.8730   20.2573 C   0  0  0  0  0  0  0  0  0  0  0  0
  -19.9470   -5.9731   20.3226 C   0  0  0  0  0  0  0  0  0  0  0  0
  -24.5950  -11.6415   20.7039 C   0  0  0  0  0  0  0  0  0  0  0  0
  -28.3622  -19.0696   21.7268 C   0  0  0  0  0  0  0  0  0  0  0  0
  -25.2577  -13.7259   20.4777 C   0  0  0  0  0  0  0  0  0  0  0  0
  -28.3279  -17.9805   19.7998 C   0  0  0  0  0  0  0  0  0  0  0  0
  -22.8958  -13.4900   21.2614 C   0  0  0  0  0  0  0  0  0  0  0  0
  -30.6061  -29.7266   26.1082 C   0  0  0  0  0  0  0  0  0  0  0  0
  -31.4901  -29.5563   29.2245 C   0  0  0  0  0  0  0  0  0  0  0  0
  -31.6800  -27.7051   32.0852 C   0  0  0  0  0  0  0  0  0  0  0  0
  -30.7405  -14.7505   20.6623 C   0  0  0  0  0  0  0  0  0  0  0  0
  -29.7603  -33.3912   22.6567 C   0  0  0  0  0  0  0  0  0  0  0  0
  -28.4874  -28.8885   27.1873 C   0  0  0  0  0  0  0  0  0  0  0  0
  -30.8591  -27.3826   28.1101 C   0  0  0  0  0  0  0  0  0  0  0  0
  -30.5975  -33.2595   23.9264 C   0  0  0  0  0  0  0  0  0  0  0  0
  -28.9713  -16.9851   16.4018 C   0  0  0  0  0  0  0  0  0  0  0  0
  -29.6037  -12.3646   18.2766 C   0  0  0  0  0  0  0  0  0  0  0  0
  -31.4136  -31.9712   23.8964 C   0  0  0  0  0  0  0  0  0  0  0  0
  -27.7561  -16.9835   17.3486 C   0  0  0  0  0  0  0  0  0  0  0  0
  -29.7124  -17.7975   17.4810 C   0  0  0  0  0  0  0  0  0  0  0  0
  -28.1669  -12.0695   18.7105 C   0  0  0  0  0  0  0  0  0  0  0  0
  -30.5214  -12.5865   19.4768 C   0  0  0  0  0  0  0  0  0  0  0  0
  -28.6198  -13.3158   20.8646 C   0  0  0  0  0  0  0  0  0  0  0  0
  -30.5003  -30.7407   23.8385 C   0  0  1  0  0  0  0  0  0  0  0  0
  -28.7624  -17.1419   18.5284 C   0  0  0  0  0  0  0  0  0  0  0  0
  -29.8394  -29.5653   27.3903 C   0  0  1  0  0  0  0  0  0  0  0  0
  -27.6451  -13.1401   19.6876 C   0  0  2  0  0  0  0  0  0  0  0  0
  -32.4876  -27.8234   34.4583 C   0  0  0  0  0  0  0  0  0  0  0  0
  -34.3649  -29.2148   28.2607 C   0  0  0  0  0  0  0  0  0  0  0  0
  -34.9628  -28.4015   30.5518 C   0  0  0  0  0  0  0  0  0  0  0  0
  -34.1001  -30.7211   30.2394 C   0  0  0  0  0  0  0  0  0  0  0  0
  -28.9552  -27.2726   33.1564 C   0  0  0  0  0  0  0  0  0  0  0  0
  -28.9450  -19.6400   22.9952 C   0  0  0  0  0  0  0  0  0  0  0  0
  -28.2533  -20.9217   23.4727 C   0  0  0  0  0  0  0  0  0  0  0  0
  -28.9066  -21.5271   24.7159 C   0  0  0  0  0  0  0  0  0  0  0  0
  -30.5209  -18.0525   20.9376 C   0  0  0  0  0  0  0  0  0  0  0  0
  -30.8050  -16.9013   21.8989 C   0  0  0  0  0  0  0  0  0  0  0  0
  -28.1695  -22.7746   25.1836 C   0  0  0  0  0  0  0  0  0  1  0  0
  -32.5138  -28.7665   30.0038 C   0  0  1  0  0  0  0  0  0  0  0  0
  -31.3077  -28.0285   33.5209 C   0  0  2  0  0  0  0  0  0  0  0  0
  -33.9650  -29.2631   29.7488 C   0  0  0  0  0  0  0  0  0  0  0  0
  -25.8597  -11.5469   20.2848 N   0  0  0  0  0  0  0  0  0  0  0  0
  -29.1074  -18.3564   20.8190 N   0  0  0  0  0  0  0  0  0  0  0  0
  -26.2352  -12.8309   20.1561 N   0  0  0  0  0  0  0  0  0  0  0  0
  -27.0965  -18.4416   20.0417 N   0  3  0  0  0  0  0  0  0  0  0  0
  -30.7051  -28.8322   28.3162 N   0  0  0  0  0  0  0  0  0  0  0  0
  -29.9704  -13.6145   20.3631 N   0  0  0  0  0  0  0  0  0  0  0  0
  -25.4667  -15.0576   20.4044 N   0  0  0  0  0  0  0  0  0  0  0  0
  -21.8850  -12.5798   21.5995 N   0  0  0  0  0  0  0  0  0  0  0  0
  -29.9432  -30.4630   25.1450 N   0  0  0  0  0  0  0  0  0  0  0  0
  -32.0985  -28.8267   31.4011 N   0  0  0  0  0  0  0  0  0  0  0  0
  -30.1410  -15.6788   21.5047 N   0  0  0  0  0  0  0  0  0  0  0  0
  -30.1890  -27.1550   33.9754 N   0  3  0  0  0  0  0  0  0  0  0  0
  -22.6583  -14.7204   21.3188 O   0  0  0  0  0  0  0  0  0  0  0  0
  -31.7175  -29.2216   26.0012 O   0  0  0  0  0  0  0  0  0  0  0  0
  -31.3858  -30.7698   29.4200 O   0  0  0  0  0  0  0  0  0  0  0  0
  -31.6102  -26.5702   31.6185 O   0  0  0  0  0  0  0  0  0  0  0  0
  -31.8760  -14.9271   20.2079 O   0  0  0  0  0  0  0  0  0  0  0  0
  -21.6174   -7.0164   21.7084 O   0  0  0  0  0  0  0  0  0  0  0  0
  -28.8334  -23.2990   26.3327 O   0  0  0  0  0  0  0  0  0  1  0  0
  -16.4501   -6.8265   19.7934 F   0  0  0  0  0  0  0  0  0  0  0  0
  -20.8396   -5.0594   19.9173 F   0  0  0  0  0  0  0  0  0  0  0  0
  1  2  1  0  0  0  0
  1  5  2  0  0  0  0
  2  6  2  0  0  0  0
  3  8  2  0  0  0  0
  3 16  1  0  0  0  0
  4  9  1  0  0  0  0
  4 16  2  0  0  0  0
  5 18  1  0  0  0  0
  6 20  1  0  0  0  0
  7 10  2  0  0  0  0
  7 19  1  0  0  0  0
  8 22  1  0  0  0  0
  9 22  2  0  0  0  0
 10 23  1  0  0  0  0
 11 12  2  0  0  0  0
 11 24  1  0  0  0  0
 12 25  1  0  0  0  0
 13 21  1  0  0  0  0
 13 23  2  0  0  0  0
 14 25  2  0  0  0  0
 14 26  1  0  0  0  0
 15 28  2  0  0  0  0
 15 69  1  0  0  0  0
 16 27  1  0  0  0  0
 17 27  1  0  0  0  0
 17 29  2  0  0  0  0
 17 31  1  0  0  0  0
 18 20  2  0  0  0  0
 18 36  1  0  0  0  0
 19 21  2  0  0  0  0
 19 37  1  0  0  0  0
 20 48  1  0  0  0  0
 21 38  1  0  0  0  0
 22 83  1  0  0  0  0
 23 84  1  0  0  0  0
 24 26  2  0  0  0  0
 24 83  1  0  0  0  0
 25 85  1  0  0  0  0
 26 86  1  0  0  0  0
 27 66  2  0  0  0  0
 28 57  1  0  0  0  0
 28 67  1  0  0  0  0
 29 68  1  0  0  0  0
 29 72  1  0  0  0  0
 30 49  1  0  0  0  0
 30 67  1  0  0  0  0
 30 69  2  0  0  0  0
 31 73  1  0  0  0  0
 31 78  2  0  0  0  0
 32 50  1  0  0  0  0
 32 74  1  0  0  0  0
 32 79  2  0  0  0  0
 33 63  1  0  0  0  0
 33 70  1  0  0  0  0
 33 80  2  0  0  0  0
 34 64  1  0  0  0  0
 34 75  1  0  0  0  0
 34 81  2  0  0  0  0
 35 71  1  0  0  0  0
 35 76  1  0  0  0  0
 35 82  2  0  0  0  0
 36 39  1  0  0  0  0
 37 50  1  0  0  0  0
 38 70  1  0  0  0  0
 39 42  1  0  0  0  0
 40 43  1  0  0  0  0
 40 44  1  0  0  0  0
 41 45  1  0  0  0  0
 41 46  1  0  0  0  0
 42 48  1  0  0  0  0
 43 49  1  0  0  0  0
 44 49  1  0  0  0  0
 45 51  1  0  0  0  0
 46 71  1  0  0  0  0
 47 51  1  0  0  0  0
 47 71  1  0  0  0  0
 48 74  1  0  0  0  0
 50 70  1  0  0  0  0
 51 68  1  0  0  0  0
 52 64  1  0  0  0  0
 53 65  1  0  0  0  0
 54 65  1  0  0  0  0
 55 65  1  0  0  0  0
 56 77  1  0  0  0  0
 57 58  1  0  0  0  0
 58 59  1  0  0  0  0
 59 62  1  0  0  0  0
 60 61  1  0  0  0  0
 60 67  1  0  0  0  0
 61 76  1  0  0  0  0
 62 84  1  0  0  0  0
 63 65  1  0  0  0  0
 63 75  1  0  0  0  0
 64 77  1  0  0  0  0
 66 68  1  0  0  0  0
M  CHG  2  69   1  77   1
M  ISO  4  35 100  62 101  76 100  84 101
M  END
> <Batch ID>
0123

> <Smiles>
CNC(C)C(=O)NC(C(=O)N1Cc2cc([101O:1][101CH2:1]CCCc3cnc(C4CCC4)n3CC[100NH:0][100C:0](=O)N3CCCC(n4nc(-c5ccc(Oc6ccc(F)cc6F)cc5)c(C(N)=O)c4N)C3)ccc2CC1C(=O)NC1CCCc2ccccc21)C(C)(C)C

> <Shape>
0.191

> <Color>
0.187

> <Negative vol penalty>
0.000

$$$$
