
  -OEChem-04052320333D

 83 91  0     1  0  0  0  0  0999 V2000
  -24.7010  -23.7896   20.0507 C   0  0  0  0  0  0  0  0  0  0  0  0
  -24.7587  -22.6207   19.2985 C   0  0  0  0  0  0  0  0  0  0  0  0
  -26.2119  -28.4033   18.9843 C   0  0  0  0  0  0  0  0  0  0  0  0
  -26.1263  -27.3794   21.1709 C   0  0  0  0  0  0  0  0  0  0  0  0
  -25.0136  -23.7592   21.4091 C   0  0  0  0  0  0  0  0  0  0  0  0
  -25.1301  -21.4209   19.9042 C   0  0  0  0  0  0  0  0  0  0  0  0
  -23.8789  -14.3755   19.5674 C   0  0  0  0  0  0  0  0  0  0  0  0
  -25.1277  -29.2137   19.3212 C   0  0  0  0  0  0  0  0  0  0  0  0
  -25.0421  -28.1898   21.5079 C   0  0  0  0  0  0  0  0  0  0  0  0
  -24.5612  -13.1641   19.4637 C   0  0  0  0  0  0  0  0  0  0  0  0
  -24.5315  -31.3827   22.4905 C   0  0  0  0  0  0  0  0  0  0  0  0
  -24.5474  -31.9959   23.7432 C   0  0  0  0  0  0  0  0  0  0  0  0
  -25.0027  -13.2167   21.8346 C   0  0  0  0  0  0  0  0  0  0  0  0
  -22.4985  -30.8566   24.3271 C   0  0  0  0  0  0  0  0  0  0  0  0
  -26.7111  -27.4862   19.9091 C   0  0  0  0  0  0  0  0  0  0  0  0
  -29.1964  -26.9337   19.7487 C   0  0  0  0  0  0  0  0  0  0  0  0
  -25.3797  -22.5566   22.0338 C   0  0  0  0  0  0  0  0  0  0  0  0
  -23.7625  -15.0230   20.8058 C   0  0  0  0  0  0  0  0  0  0  0  0
  -25.4492  -21.3746   21.2719 C   0  0  0  0  0  0  0  0  0  0  0  0
  -24.3162  -14.4348   21.9519 C   0  0  0  0  0  0  0  0  0  0  0  0
  -24.5429  -29.1069   20.5830 C   0  0  0  0  0  0  0  0  0  0  0  0
  -25.1258  -12.5860   20.5969 C   0  0  0  0  0  0  0  0  0  0  0  0
  -23.4990  -30.5064   22.1560 C   0  0  0  0  0  0  0  0  0  0  0  0
  -23.5310  -31.7329   24.6615 C   0  0  0  0  0  0  0  0  0  0  0  0
  -22.4826  -30.2433   23.0743 C   0  0  0  0  0  0  0  0  0  0  0  0
  -27.8307  -26.6484   19.5614 C   0  0  0  0  0  0  0  0  0  0  0  0
  -29.8485  -25.8290   19.2579 C   0  0  0  0  0  0  0  0  0  0  0  0
  -29.8200  -28.0936   20.3158 C   0  0  0  0  0  0  0  0  0  0  0  0
  -24.7184  -17.8210   21.9725 C   0  0  0  0  0  0  0  0  0  0  0  0
  -22.9740  -16.9018   24.5483 C   0  0  0  0  0  0  0  0  0  0  0  0
  -21.6118  -14.3543   26.3652 C   0  0  0  0  0  0  0  0  0  0  0  0
  -29.2739  -20.1676   19.0836 C   0  0  0  0  0  0  0  0  0  0  0  0
  -25.7546  -22.5821   23.4945 C   0  0  0  0  0  0  0  0  0  0  0  0
  -23.0002  -16.3159   20.9056 C   0  0  0  0  0  0  0  0  0  0  0  0
  -24.2017  -15.0796   23.3082 C   0  0  0  0  0  0  0  0  0  0  0  0
  -25.7760  -21.1999   24.1420 C   0  0  0  0  0  0  0  0  0  0  0  0
  -28.6604  -22.1801   16.1390 C   0  0  0  0  0  0  0  0  0  0  0  0
  -26.5201  -20.2064   23.2554 C   0  0  0  0  0  0  0  0  0  0  0  0
  -28.8139  -14.8888   21.2086 C   0  0  0  0  0  0  0  0  0  0  0  0
  -30.4931  -14.8680   19.3150 C   0  0  0  0  0  0  0  0  0  0  0  0
  -28.5168  -23.5757   16.7489 C   0  0  0  0  0  0  0  0  0  0  0  0
  -29.4809  -13.6546   21.8175 C   0  0  0  0  0  0  0  0  0  0  0  0
  -31.1635  -13.6333   19.9192 C   0  0  0  0  0  0  0  0  0  0  0  0
  -28.0412  -21.1164   17.0408 C   0  0  0  0  0  0  0  0  0  0  0  0
  -28.4299  -22.4975   19.0445 C   0  0  0  0  0  0  0  0  0  0  0  0
  -25.8238  -20.0489   21.8983 C   0  0  1  0  0  0  0  0  0  0  0  0
  -23.3859  -17.1441   22.1273 C   0  0  1  0  0  0  0  0  0  0  0  0
  -29.8053  -15.7234   20.3871 C   0  0  0  0  0  0  0  0  0  0  0  0
  -29.0563  -23.6151   18.1909 C   0  0  2  0  0  0  0  0  0  0  0  0
  -30.2204  -12.8014   20.7876 C   0  0  0  0  0  0  0  0  0  0  0  0
  -20.2734  -13.9118   28.4414 C   0  0  0  0  0  0  0  0  0  0  0  0
  -25.4534  -17.4113   26.2522 C   0  0  0  0  0  0  0  0  0  0  0  0
  -24.3826  -16.0816   28.0835 C   0  0  0  0  0  0  0  0  0  0  0  0
  -23.3065  -18.1827   27.2772 C   0  0  0  0  0  0  0  0  0  0  0  0
  -19.4104  -13.1168   24.8221 C   0  0  0  0  0  0  0  0  0  0  0  0
  -29.1027  -16.9215   19.7510 C   0  0  0  0  0  0  0  0  0  0  0  0
  -27.6579  -10.2436   19.5347 C   0  0  0  0  0  0  0  0  0  0  0  0
  -30.0602  -17.8165   18.9772 C   0  0  0  0  0  0  0  0  0  0  0  0
  -28.6689  -10.8647   20.4868 C   0  0  0  0  0  0  0  0  0  0  0  0
  -26.4488  -11.1296   19.2610 C   0  0  0  0  0  0  0  0  0  1  0  0
  -23.2593  -16.1241   25.8103 C   0  0  1  0  0  0  0  0  0  0  0  0
  -20.2211  -14.1599   26.9419 C   0  0  2  0  0  0  0  0  0  0  0  0
  -24.1045  -16.9385   26.8301 C   0  0  0  0  0  0  0  0  0  0  0  0
  -27.6259  -25.4560   18.9956 N   0  0  0  0  0  0  0  0  0  0  0  0
  -28.8717  -24.9823   18.8230 N   0  0  0  0  0  0  0  0  0  0  0  0
  -23.4523  -16.3460   23.3532 N   0  0  0  0  0  0  0  0  0  0  0  0
  -28.6110  -21.1959   18.3932 N   0  0  0  0  0  0  0  0  0  0  0  0
  -31.1563  -25.5090   19.1601 N   0  0  0  0  0  0  0  0  0  0  0  0
  -29.0020  -29.1366   20.7713 N   0  0  0  0  0  0  0  0  0  0  0  0
  -24.6580  -19.2006   22.0238 N   0  0  0  0  0  0  0  0  0  0  0  0
  -21.9649  -15.6865   26.3215 N   0  0  0  0  0  0  0  0  0  0  0  0
  -29.3975  -18.9645   18.3994 N   0  0  0  0  0  0  0  0  0  0  0  0
  -29.2267  -12.1124   19.9145 N   0  3  0  0  0  0  0  0  0  0  0  0
  -19.5506  -12.9961   26.2961 N   0  3  0  0  0  0  0  0  0  0  0  0
  -31.0662  -28.2090   20.4006 O   0  0  0  0  0  0  0  0  0  0  0  0
  -25.7269  -17.1419   21.8195 O   0  0  0  0  0  0  0  0  0  0  0  0
  -22.3437  -17.9597   24.6194 O   0  0  0  0  0  0  0  0  0  0  0  0
  -22.3160  -13.4178   25.9944 O   0  0  0  0  0  0  0  0  0  0  0  0
  -29.7273  -20.3125   20.2240 O   0  0  0  0  0  0  0  0  0  0  0  0
  -23.4851  -29.8977   20.9123 O   0  0  0  0  0  0  0  0  0  0  0  0
  -25.7929  -11.4040   20.4983 O   0  0  0  0  0  0  0  0  0  1  0  0
  -23.5472  -32.3207   25.8650 F   0  0  0  0  0  0  0  0  0  0  0  0
  -21.4887  -29.4014   22.7592 F   0  0  0  0  0  0  0  0  0  0  0  0
  1  2  1  0  0  0  0
  1  5  2  0  0  0  0
  2  6  2  0  0  0  0
  3  8  2  0  0  0  0
  3 15  1  0  0  0  0
  4  9  1  0  0  0  0
  4 15  2  0  0  0  0
  5 17  1  0  0  0  0
  6 19  1  0  0  0  0
  7 10  2  0  0  0  0
  7 18  1  0  0  0  0
  8 21  1  0  0  0  0
  9 21  2  0  0  0  0
 10 22  1  0  0  0  0
 11 12  2  0  0  0  0
 11 23  1  0  0  0  0
 12 24  1  0  0  0  0
 13 20  1  0  0  0  0
 13 22  2  0  0  0  0
 14 24  2  0  0  0  0
 14 25  1  0  0  0  0
 15 26  1  0  0  0  0
 16 26  1  0  0  0  0
 16 27  2  0  0  0  0
 16 28  1  0  0  0  0
 17 19  2  0  0  0  0
 17 33  1  0  0  0  0
 18 20  2  0  0  0  0
 18 34  1  0  0  0  0
 19 46  1  0  0  0  0
 20 35  1  0  0  0  0
 21 80  1  0  0  0  0
 22 81  1  0  0  0  0
 23 25  2  0  0  0  0
 23 80  1  0  0  0  0
 24 82  1  0  0  0  0
 25 83  1  0  0  0  0
 26 64  2  0  0  0  0
 27 65  1  0  0  0  0
 27 68  1  0  0  0  0
 28 69  1  0  0  0  0
 28 75  2  0  0  0  0
 29 47  1  0  0  0  0
 29 70  1  0  0  0  0
 29 76  2  0  0  0  0
 30 61  1  0  0  0  0
 30 66  1  0  0  0  0
 30 77  2  0  0  0  0
 31 62  1  0  0  0  0
 31 71  1  0  0  0  0
 31 78  2  0  0  0  0
 32 67  1  0  0  0  0
 32 72  1  0  0  0  0
 32 79  2  0  0  0  0
 33 36  1  0  0  0  0
 34 47  1  0  0  0  0
 35 66  1  0  0  0  0
 36 38  1  0  0  0  0
 37 41  1  0  0  0  0
 37 44  1  0  0  0  0
 38 46  1  0  0  0  0
 39 42  1  0  0  0  0
 39 48  1  0  0  0  0
 40 43  1  0  0  0  0
 40 48  1  0  0  0  0
 41 49  1  0  0  0  0
 42 50  1  0  0  0  0
 43 50  1  0  0  0  0
 44 67  1  0  0  0  0
 45 49  1  0  0  0  0
 45 67  1  0  0  0  0
 46 70  1  0  0  0  0
 47 66  1  0  0  0  0
 48 56  1  0  0  0  0
 49 65  1  0  0  0  0
 50 73  1  0  0  0  0
 51 62  1  0  0  0  0
 52 63  1  0  0  0  0
 53 63  1  0  0  0  0
 54 63  1  0  0  0  0
 55 74  1  0  0  0  0
 56 58  1  0  0  0  0
 57 59  1  0  0  0  0
 57 60  1  0  0  0  0
 58 72  1  0  0  0  0
 59 73  1  0  0  0  0
 60 81  1  0  0  0  0
 61 63  1  0  0  0  0
 61 71  1  0  0  0  0
 62 74  1  0  0  0  0
 64 65  1  0  0  0  0
M  CHG  2  73   1  74   1
M  ISO  4  32 100  60 101  72 100  81 101
M  END
> <Batch ID>
0124

> <Smiles>
CNC(C)C(=O)NC(C(=O)N1Cc2cc([101O:1][101CH2:1]CCNC3CCC(CC[100NH:0][100C:0](=O)N4CCCC(n5nc(-c6ccc(Oc7ccc(F)cc7F)cc6)c(C(N)=O)c5N)C4)CC3)ccc2CC1C(=O)NC1CCCc2ccccc21)C(C)(C)C

> <Shape>
0.217

> <Color>
0.067

> <Negative vol penalty>
0.000

$$$$

  -OEChem-04052320333D

 83 92  0     1  0  0  0  0  0999 V2000
  -29.5225  -35.0138   24.0159 C   0  0  0  0  0  0  0  0  0  0  0  0
  -29.3987  -33.6436   23.8095 C   0  0  0  0  0  0  0  0  0  0  0  0
  -23.7338   -8.3517   19.0351 C   0  0  0  0  0  0  0  0  0  0  0  0
  -24.7685   -8.6160   21.2022 C   0  0  0  0  0  0  0  0  0  0  0  0
  -28.3882  -35.7854   24.2647 C   0  0  0  0  0  0  0  0  0  0  0  0
  -28.1405  -33.0440   23.8529 C   0  0  0  0  0  0  0  0  0  0  0  0
  -27.4153  -29.7730   20.0556 C   0  0  0  0  0  0  0  0  0  0  0  0
  -22.6161   -7.7759   19.6390 C   0  0  0  0  0  0  0  0  0  0  0  0
  -23.6508   -8.0403   21.8061 C   0  0  0  0  0  0  0  0  0  0  0  0
  -28.0098  -28.5175   20.1744 C   0  0  0  0  0  0  0  0  0  0  0  0
  -22.3991   -4.9361   22.2840 C   0  0  0  0  0  0  0  0  0  0  0  0
  -22.6186   -3.9732   23.2690 C   0  0  0  0  0  0  0  0  0  0  0  0
  -25.8982  -27.5916   20.8839 C   0  0  0  0  0  0  0  0  0  0  0  0
  -21.4432   -5.3457   24.8727 C   0  0  0  0  0  0  0  0  0  0  0  0
  -24.8101   -8.7717   19.8167 C   0  0  0  0  0  0  0  0  0  0  0  0
  -26.8123   -8.7765   18.2360 C   0  0  0  0  0  0  0  0  0  0  0  0
  -27.1144  -35.1966   24.3016 C   0  0  0  0  0  0  0  0  0  0  0  0
  -26.0582  -29.9498   20.3610 C   0  0  0  0  0  0  0  0  0  0  0  0
  -26.9882  -33.8083   24.1037 C   0  0  0  0  0  0  0  0  0  0  0  0
  -25.2884  -28.8499   20.7656 C   0  0  0  0  0  0  0  0  0  0  0  0
  -22.5745   -7.6202   21.0245 C   0  0  0  0  0  0  0  0  0  0  0  0
  -27.2519  -27.4272   20.5914 C   0  0  0  0  0  0  0  0  0  0  0  0
  -21.7017   -6.1039   22.5933 C   0  0  0  0  0  0  0  0  0  0  0  0
  -22.1406   -4.1780   24.5633 C   0  0  0  0  0  0  0  0  0  0  0  0
  -21.2237   -6.3087   23.8877 C   0  0  0  0  0  0  0  0  0  0  0  0
  -25.9652   -9.3661   19.1934 C   0  0  0  0  0  0  0  0  0  0  0  0
  -27.7502   -9.7429   17.9658 C   0  0  0  0  0  0  0  0  0  0  0  0
  -26.7564   -7.4719   17.6437 C   0  0  0  0  0  0  0  0  0  0  0  0
  -24.4442  -31.6642   22.4963 C   0  0  0  0  0  0  0  0  0  0  0  0
  -21.8707  -30.5645   20.8562 C   0  0  0  0  0  0  0  0  0  0  0  0
  -20.5410  -28.1744   18.8151 C   0  0  0  0  0  0  0  0  0  0  0  0
  -27.4214  -15.7163   18.6470 C   0  0  0  0  0  0  0  0  0  0  0  0
  -25.9227  -36.0639   24.6210 C   0  0  0  0  0  0  0  0  0  0  0  0
  -25.4256  -31.3051   20.2020 C   0  0  0  0  0  0  0  0  0  0  0  0
  -23.8227  -28.9826   21.0860 C   0  0  0  0  0  0  0  0  0  0  0  0
  -24.5855  -35.4117   24.2789 C   0  0  0  0  0  0  0  0  0  0  0  0
  -29.0976  -13.1551   20.9728 C   0  0  0  0  0  0  0  0  0  0  0  0
  -24.5481  -33.9733   24.7852 C   0  0  0  0  0  0  0  0  0  0  0  0
  -29.2918  -12.1302   19.8593 C   0  0  0  0  0  0  0  0  0  0  0  0
  -26.6462  -18.8634   19.1585 C   0  0  0  0  0  0  0  0  0  0  0  0
  -29.0479  -19.0338   18.4087 C   0  0  0  0  0  0  0  0  0  0  0  0
  -26.5753  -24.7752   19.0383 C   0  0  0  0  0  0  0  0  0  0  0  0
  -27.8008  -23.6860   20.4039 C   0  0  0  0  0  0  0  0  0  0  0  0
  -28.8361  -14.5435   20.3973 C   0  0  0  0  0  0  0  0  0  0  0  0
  -27.1367  -13.2874   19.0719 C   0  0  0  0  0  0  0  0  0  0  0  0
  -26.3712  -20.2407   18.5692 C   0  0  0  0  0  0  0  0  0  0  0  0
  -28.7610  -20.4108   17.8244 C   0  0  0  0  0  0  0  0  0  0  0  0
  -25.6379  -33.1252   24.1184 C   0  0  1  0  0  0  0  0  0  0  0  0
  -24.1578  -31.4740   21.0336 C   0  0  1  0  0  0  0  0  0  0  0  0
  -26.8146  -23.2661   19.2871 C   0  0  0  0  0  0  0  0  0  0  0  0
  -28.1406  -12.1463   18.8300 C   0  0  2  0  0  0  0  0  0  0  0  0
  -27.7934  -18.1605   18.4319 C   0  0  0  0  0  0  0  0  0  0  0  0
  -27.0315  -25.0249   20.4947 C   0  0  0  0  0  0  0  0  0  1  0  0
  -18.4019  -27.5256   17.6746 C   0  0  0  0  0  0  0  0  0  0  0  0
  -26.4609  -22.4270   16.9323 C   0  0  0  0  0  0  0  0  0  0  0  0
  -20.7553  -29.5732   23.5176 C   0  0  0  0  0  0  0  0  0  0  0  0
  -19.1516  -28.1427   22.2330 C   0  0  0  0  0  0  0  0  0  0  0  0
  -19.0644  -30.6252   22.0047 C   0  0  0  0  0  0  0  0  0  0  0  0
  -21.7737  -28.3790   16.1323 C   0  0  0  0  0  0  0  0  0  0  0  0
  -20.9789  -29.3505   20.9551 C   0  0  1  0  0  0  0  0  0  0  0  0
  -19.7163  -28.2796   17.5450 C   0  0  2  0  0  0  0  0  0  0  0  0
  -27.3938  -22.4722   18.1345 C   0  0  2  0  0  0  0  0  0  0  0  0
  -20.0156  -29.4205   22.1735 C   0  0  0  0  0  0  0  0  0  0  0  0
  -26.3325  -10.6105   19.5102 N   0  0  0  0  0  0  0  0  0  0  0  0
  -27.4208  -10.8108   18.7476 N   0  0  0  0  0  0  0  0  0  0  0  0
  -23.2514  -30.3295   20.9213 N   0  0  0  0  0  0  0  0  0  0  0  0
  -27.8154  -14.5562   19.3417 N   0  0  0  0  0  0  0  0  0  0  0  0
  -28.8162   -9.7748   17.1382 N   0  0  0  0  0  0  0  0  0  0  0  0
  -25.7272   -6.6044   18.0343 N   0  0  0  0  0  0  0  0  0  0  0  0
  -25.2416  -32.7576   22.7760 N   0  0  0  0  0  0  0  0  0  0  0  0
  -20.3050  -29.2330   19.6665 N   0  0  0  0  0  0  0  0  0  0  0  0
  -28.0762  -16.8819   19.0367 N   0  0  0  0  0  0  0  0  0  0  0  0
  -27.6380  -21.0616   18.5956 N   0  3  0  0  0  0  0  0  0  0  0  0
  -20.4698  -27.7152   16.3898 N   0  3  0  0  0  0  0  0  0  0  0  0
  -27.6039   -7.0810   16.8056 O   0  0  0  0  0  0  0  0  0  0  0  0
  -23.9753  -30.8780   23.3110 O   0  0  0  0  0  0  0  0  0  0  0  0
  -21.3613  -31.6795   20.7188 O   0  0  0  0  0  0  0  0  0  0  0  0
  -21.3143  -27.2441   19.0320 O   0  0  0  0  0  0  0  0  0  0  0  0
  -26.5614  -15.7131   17.7611 O   0  0  0  0  0  0  0  0  0  0  0  0
  -21.4839   -7.0586   21.6141 O   0  0  0  0  0  0  0  0  0  0  0  0
  -27.8298  -26.2007   20.7089 O   0  0  0  0  0  0  0  0  0  1  0  0
  -22.3501   -3.2525   25.5087 F   0  0  0  0  0  0  0  0  0  0  0  0
  -20.5520   -7.4280   24.1905 F   0  0  0  0  0  0  0  0  0  0  0  0
  1  2  1  0  0  0  0
  1  5  2  0  0  0  0
  2  6  2  0  0  0  0
  3  8  2  0  0  0  0
  3 15  1  0  0  0  0
  4  9  1  0  0  0  0
  4 15  2  0  0  0  0
  5 17  1  0  0  0  0
  6 19  1  0  0  0  0
  7 10  2  0  0  0  0
  7 18  1  0  0  0  0
  8 21  1  0  0  0  0
  9 21  2  0  0  0  0
 10 22  1  0  0  0  0
 11 12  2  0  0  0  0
 11 23  1  0  0  0  0
 12 24  1  0  0  0  0
 13 20  1  0  0  0  0
 13 22  2  0  0  0  0
 14 24  2  0  0  0  0
 14 25  1  0  0  0  0
 15 26  1  0  0  0  0
 16 26  1  0  0  0  0
 16 27  2  0  0  0  0
 16 28  1  0  0  0  0
 17 19  2  0  0  0  0
 17 33  1  0  0  0  0
 18 20  2  0  0  0  0
 18 34  1  0  0  0  0
 19 48  1  0  0  0  0
 20 35  1  0  0  0  0
 21 80  1  0  0  0  0
 22 81  1  0  0  0  0
 23 25  2  0  0  0  0
 23 80  1  0  0  0  0
 24 82  1  0  0  0  0
 25 83  1  0  0  0  0
 26 64  2  0  0  0  0
 27 65  1  0  0  0  0
 27 68  1  0  0  0  0
 28 69  1  0  0  0  0
 28 75  2  0  0  0  0
 29 49  1  0  0  0  0
 29 70  1  0  0  0  0
 29 76  2  0  0  0  0
 30 60  1  0  0  0  0
 30 66  1  0  0  0  0
 30 77  2  0  0  0  0
 31 61  1  0  0  0  0
 31 71  1  0  0  0  0
 31 78  2  0  0  0  0
 32 67  1  0  0  0  0
 32 72  1  0  0  0  0
 32 79  2  0  0  0  0
 33 36  1  0  0  0  0
 34 49  1  0  0  0  0
 35 66  1  0  0  0  0
 36 38  1  0  0  0  0
 37 39  1  0  0  0  0
 37 44  1  0  0  0  0
 38 48  1  0  0  0  0
 39 51  1  0  0  0  0
 40 46  1  0  0  0  0
 40 52  1  0  0  0  0
 41 47  1  0  0  0  0
 41 52  1  0  0  0  0
 42 50  1  0  0  0  0
 42 53  1  0  0  0  0
 43 50  1  0  0  0  0
 43 53  1  0  0  0  0
 44 67  1  0  0  0  0
 45 51  1  0  0  0  0
 45 67  1  0  0  0  0
 46 73  1  0  0  0  0
 47 73  1  0  0  0  0
 48 70  1  0  0  0  0
 49 66  1  0  0  0  0
 50 62  1  0  0  0  0
 51 65  1  0  0  0  0
 52 72  1  0  0  0  0
 53 81  1  0  0  0  0
 54 61  1  0  0  0  0
 55 62  1  0  0  0  0
 56 63  1  0  0  0  0
 57 63  1  0  0  0  0
 58 63  1  0  0  0  0
 59 74  1  0  0  0  0
 60 63  1  0  0  0  0
 60 71  1  0  0  0  0
 61 74  1  0  0  0  0
 62 73  1  0  0  0  0
 64 65  1  0  0  0  0
M  CHG  2  73   1  74   1
M  ISO  4  32 100  53 101  72 100  81 101
M  END
> <Batch ID>
0124

> <Smiles>
CNC(C)C(=O)NC(C(=O)N1Cc2cc([101O:1][101CH:1]3CC(C(C)N4CCC([100NH:0][100C:0](=O)N5CCCC(n6nc(-c7ccc(Oc8ccc(F)cc8F)cc7)c(C(N)=O)c6N)C5)CC4)C3)ccc2CC1C(=O)NC1CCCc2ccccc21)C(C)(C)C

> <Shape>
0.274

> <Color>
0.085

> <Negative vol penalty>
0.000

$$$$

  -OEChem-04052320333D

 90 99  0     1  0  0  0  0  0999 V2000
  -30.5914  -35.3651   19.8611 C   0  0  0  0  0  0  0  0  0  0  0  0
  -30.4810  -34.0072   20.1428 C   0  0  0  0  0  0  0  0  0  0  0  0
  -22.9654   -9.9895   20.2927 C   0  0  0  0  0  0  0  0  0  0  0  0
  -24.3925   -9.2062   22.0779 C   0  0  0  0  0  0  0  0  0  0  0  0
  -29.6603  -36.2620   20.3830 C   0  0  0  0  0  0  0  0  0  0  0  0
  -29.4400  -33.5456   20.9476 C   0  0  0  0  0  0  0  0  0  0  0  0
  -27.2304  -29.3923   19.0736 C   0  0  0  0  0  0  0  0  0  0  0  0
  -29.4980  -22.1081   20.1491 C   0  0  0  0  0  0  0  0  0  0  0  0
  -31.6543  -23.1129   20.5708 C   0  0  0  0  0  0  0  0  0  0  0  0
  -28.9743  -23.3627   19.8374 C   0  0  0  0  0  0  0  0  0  0  0  0
  -31.1306  -24.3676   20.2591 C   0  0  0  0  0  0  0  0  0  0  0  0
  -22.2800   -8.7748   20.3076 C   0  0  0  0  0  0  0  0  0  0  0  0
  -23.7070   -7.9915   22.0929 C   0  0  0  0  0  0  0  0  0  0  0  0
  -27.8965  -28.1807   19.2528 C   0  0  0  0  0  0  0  0  0  0  0  0
  -20.7857   -6.7966   23.3007 C   0  0  0  0  0  0  0  0  0  0  0  0
  -20.4240   -6.2735   24.5421 C   0  0  0  0  0  0  0  0  0  0  0  0
  -26.4462  -27.6650   21.1101 C   0  0  0  0  0  0  0  0  0  0  0  0
  -21.7374   -4.2963   24.0917 C   0  0  0  0  0  0  0  0  0  0  0  0
  -24.0217  -10.2052   21.1778 C   0  0  0  0  0  0  0  0  0  0  0  0
  -24.4307  -12.6147   21.9092 C   0  0  0  0  0  0  0  0  0  0  0  0
  -28.6017  -35.8101   21.1866 C   0  0  0  0  0  0  0  0  0  0  0  0
  -26.1724  -29.7548   19.9196 C   0  0  0  0  0  0  0  0  0  0  0  0
  -28.4946  -34.4376   21.4819 C   0  0  0  0  0  0  0  0  0  0  0  0
  -25.7666  -28.8805   20.9379 C   0  0  0  0  0  0  0  0  0  0  0  0
  -30.8380  -21.9832   20.5159 C   0  0  0  0  0  0  0  0  0  0  0  0
  -29.7906  -24.4925   19.8924 C   0  0  0  0  0  0  0  0  0  0  0  0
  -22.6508   -7.7758   21.2078 C   0  0  0  0  0  0  0  0  0  0  0  0
  -27.5063  -27.3181   20.2730 C   0  0  0  0  0  0  0  0  0  0  0  0
  -21.6232   -6.0695   22.4547 C   0  0  0  0  0  0  0  0  0  0  0  0
  -20.8999   -5.0234   24.9377 C   0  0  0  0  0  0  0  0  0  0  0  0
  -22.0990   -4.8194   22.8502 C   0  0  0  0  0  0  0  0  0  0  0  0
  -24.7305  -11.4596   21.1625 C   0  0  0  0  0  0  0  0  0  0  0  0
  -25.3930  -13.5221   21.5393 C   0  0  0  0  0  0  0  0  0  0  0  0
  -23.3765  -12.8465   22.8530 C   0  0  0  0  0  0  0  0  0  0  0  0
  -25.6502  -32.1295   21.9669 C   0  0  0  0  0  0  0  0  0  0  0  0
  -22.6910  -30.8118   22.1377 C   0  0  0  0  0  0  0  0  0  0  0  0
  -20.7232  -28.0496   21.7577 C   0  0  0  0  0  0  0  0  0  0  0  0
  -30.7116  -14.7940   20.4259 C   0  0  0  0  0  0  0  0  0  0  0  0
  -27.6470  -36.8232   21.7669 C   0  0  0  0  0  0  0  0  0  0  0  0
  -25.4468  -31.0532   19.6962 C   0  0  0  0  0  0  0  0  0  0  0  0
  -24.6236  -29.2138   21.8605 C   0  0  0  0  0  0  0  0  0  0  0  0
  -26.3574  -36.2073   22.3035 C   0  0  0  0  0  0  0  0  0  0  0  0
  -28.7831  -13.3807   17.7878 C   0  0  0  0  0  0  0  0  0  0  0  0
  -26.6661  -34.9814   23.1572 C   0  0  0  0  0  0  0  0  0  0  0  0
  -32.1226  -17.2801   24.4720 C   0  0  0  0  0  0  0  0  0  0  0  0
  -27.5358  -12.8450   18.4929 C   0  0  0  0  0  0  0  0  0  0  0  0
  -31.3003  -16.1738   23.8126 C   0  0  0  0  0  0  0  0  0  0  0  0
  -30.7395  -17.7239   21.9010 C   0  0  0  0  0  0  0  0  0  0  0  0
  -30.0342  -13.2094   18.6464 C   0  0  0  0  0  0  0  0  0  0  0  0
  -28.6876  -13.2387   20.7103 C   0  0  0  0  0  0  0  0  0  0  0  0
  -27.3650  -33.8953   22.3305 C   0  0  1  0  0  0  0  0  0  0  0  0
  -24.7177  -31.5519   20.9401 C   0  0  1  0  0  0  0  0  0  0  0  0
  -31.6124  -18.6808   24.0930 C   0  0  2  0  0  0  0  0  0  0  0  0
  -27.3917  -13.4401   19.9065 C   0  0  2  0  0  0  0  0  0  0  0  0
  -31.2571  -16.3365   22.2920 C   0  0  2  0  0  0  0  0  0  0  0  0
  -31.5711  -18.8268   22.5612 C   0  0  2  0  0  0  0  0  0  0  0  0
  -34.8530  -20.6946   24.9834 C   0  0  0  0  0  0  0  0  0  0  0  0
  -18.3507  -27.2714   22.0087 C   0  0  0  0  0  0  0  0  0  0  0  0
  -32.3730  -19.6184   26.2852 C   0  0  0  0  0  0  0  0  0  0  0  0
  -23.0460  -30.7141   25.1667 C   0  0  0  0  0  0  0  0  0  0  0  0
  -21.1297  -29.1061   25.2694 C   0  0  0  0  0  0  0  0  0  0  0  0
  -20.7704  -31.4184   24.4052 C   0  0  0  0  0  0  0  0  0  0  0  0
  -20.5162  -27.3807   18.8822 C   0  0  0  0  0  0  0  0  0  0  0  0
  -31.3988  -20.6421   20.8493 C   0  0  0  0  0  0  0  0  0  0  0  0
  -29.2269  -25.8415   19.5552 C   0  0  0  0  0  0  0  0  0  1  0  0
  -33.9598  -19.6445   24.3384 C   0  0  0  0  0  0  0  0  0  0  0  0
  -22.0410  -29.7507   22.9923 C   0  0  1  0  0  0  0  0  0  0  0  0
  -19.3892  -27.8513   21.0610 C   0  0  2  0  0  0  0  0  0  0  0  0
  -32.4854  -19.7442   24.7645 C   0  0  1  0  0  0  0  0  0  0  0  0
  -21.7696  -30.2416   24.4424 C   0  0  0  0  0  0  0  0  0  0  0  0
  -25.7997  -11.6163   20.3773 N   0  0  0  0  0  0  0  0  0  0  0  0
  -26.1799  -12.8806   20.6286 N   0  0  0  0  0  0  0  0  0  0  0  0
  -23.9497  -30.4978   21.6058 N   0  0  0  0  0  0  0  0  0  0  0  0
  -29.8323  -13.7965   19.9732 N   0  0  0  0  0  0  0  0  0  0  0  0
  -25.6343  -14.7984   21.9073 N   0  0  0  0  0  0  0  0  0  0  0  0
  -22.4748  -11.8064   23.1164 N   0  0  0  0  0  0  0  0  0  0  0  0
  -26.4057  -33.1912   21.5069 N   0  0  0  0  0  0  0  0  0  0  0  0
  -20.8461  -29.3226   22.2730 N   0  0  0  0  0  0  0  0  0  0  0  0
  -30.4453  -15.3015   21.6917 N   0  0  0  0  0  0  0  0  0  0  0  0
  -30.9752  -20.1400   22.1856 N   0  3  0  0  0  0  0  0  0  0  0  0
  -19.5413  -26.9227   19.9054 N   0  3  0  0  0  0  0  0  0  0  0  0
  -23.2285  -13.9490   23.4329 O   0  0  0  0  0  0  0  0  0  0  0  0
  -25.6810  -31.6486   23.0936 O   0  0  0  0  0  0  0  0  0  0  0  0
  -22.1006  -31.8773   21.9433 O   0  0  0  0  0  0  0  0  0  0  0  0
  -21.5700  -27.1626   21.8401 O   0  0  0  0  0  0  0  0  0  0  0  0
  -31.6604  -15.2059   19.7497 O   0  0  0  0  0  0  0  0  0  0  0  0
  -21.9820   -6.5904   21.2228 O   0  0  0  0  0  0  0  0  0  0  0  0
  -28.1552  -26.1352   20.4506 O   0  0  0  0  0  0  0  0  0  1  0  0
  -20.5537   -4.5220   26.1305 F   0  0  0  0  0  0  0  0  0  0  0  0
  -22.9048   -4.1167   22.0423 F   0  0  0  0  0  0  0  0  0  0  0  0
  1  2  1  0  0  0  0
  1  5  2  0  0  0  0
  2  6  2  0  0  0  0
  3 12  2  0  0  0  0
  3 19  1  0  0  0  0
  4 13  1  0  0  0  0
  4 19  2  0  0  0  0
  5 21  1  0  0  0  0
  6 23  1  0  0  0  0
  7 14  2  0  0  0  0
  7 22  1  0  0  0  0
  8 10  2  0  0  0  0
  8 25  1  0  0  0  0
  9 11  1  0  0  0  0
  9 25  2  0  0  0  0
 10 26  1  0  0  0  0
 11 26  2  0  0  0  0
 12 27  1  0  0  0  0
 13 27  2  0  0  0  0
 14 28  1  0  0  0  0
 15 16  2  0  0  0  0
 15 29  1  0  0  0  0
 16 30  1  0  0  0  0
 17 24  1  0  0  0  0
 17 28  2  0  0  0  0
 18 30  2  0  0  0  0
 18 31  1  0  0  0  0
 19 32  1  0  0  0  0
 20 32  1  0  0  0  0
 20 33  2  0  0  0  0
 20 34  1  0  0  0  0
 21 23  2  0  0  0  0
 21 39  1  0  0  0  0
 22 24  2  0  0  0  0
 22 40  1  0  0  0  0
 23 51  1  0  0  0  0
 24 41  1  0  0  0  0
 25 64  1  0  0  0  0
 26 65  1  0  0  0  0
 27 87  1  0  0  0  0
 28 88  1  0  0  0  0
 29 31  2  0  0  0  0
 29 87  1  0  0  0  0
 30 89  1  0  0  0  0
 31 90  1  0  0  0  0
 32 71  2  0  0  0  0
 33 72  1  0  0  0  0
 33 75  1  0  0  0  0
 34 76  1  0  0  0  0
 34 82  2  0  0  0  0
 35 52  1  0  0  0  0
 35 77  1  0  0  0  0
 35 83  2  0  0  0  0
 36 67  1  0  0  0  0
 36 73  1  0  0  0  0
 36 84  2  0  0  0  0
 37 68  1  0  0  0  0
 37 78  1  0  0  0  0
 37 85  2  0  0  0  0
 38 74  1  0  0  0  0
 38 79  1  0  0  0  0
 38 86  2  0  0  0  0
 39 42  1  0  0  0  0
 40 52  1  0  0  0  0
 41 73  1  0  0  0  0
 42 44  1  0  0  0  0
 43 46  1  0  0  0  0
 43 49  1  0  0  0  0
 44 51  1  0  0  0  0
 45 47  1  0  0  0  0
 45 53  1  0  0  0  0
 46 54  1  0  0  0  0
 47 55  1  0  0  0  0
 48 55  1  0  0  0  0
 48 56  1  0  0  0  0
 49 74  1  0  0  0  0
 50 54  1  0  0  0  0
 50 74  1  0  0  0  0
 51 77  1  0  0  0  0
 52 73  1  0  0  0  0
 53 56  1  0  0  0  0
 53 69  1  0  0  0  0
 54 72  1  0  0  0  0
 55 79  1  0  0  0  0
 56 80  1  0  0  0  0
 57 66  1  0  0  0  0
 58 68  1  0  0  0  0
 59 69  1  0  0  0  0
 60 70  1  0  0  0  0
 61 70  1  0  0  0  0
 62 70  1  0  0  0  0
 63 81  1  0  0  0  0
 64 80  1  0  0  0  0
 65 88  1  0  0  0  0
 66 69  1  0  0  0  0
 67 70  1  0  0  0  0
 67 78  1  0  0  0  0
 68 81  1  0  0  0  0
 71 72  1  0  0  0  0
M  CHG  2  80   1  81   1
M  ISO  4  38 100  65 101  79 100  88 101
M  END
> <Batch ID>
0124

> <Smiles>
CCC(C)C1CCC([100NH:0][100C:0](=O)N2CCCC(n3nc(-c4ccc(Oc5ccc(F)cc5F)cc4)c(C(N)=O)c3N)C2)CC1NCc1ccc([101CH2:1][101O:1]c2ccc3c(c2)CN(C(=O)C(NC(=O)C(C)NC)C(C)(C)C)C(C(=O)NC2CCCc4ccccc42)C3)cc1

> <Shape>
0.353

> <Color>
0.164

> <Negative vol penalty>
0.000

$$$$

  -OEChem-04052320333D

 83 91  0     1  0  0  0  0  0999 V2000
  -27.5704  -38.5104   24.3745 C   0  0  0  0  0  0  0  0  0  0  0  0
  -28.2571  -37.3388   24.6764 C   0  0  0  0  0  0  0  0  0  0  0  0
  -25.1634   -8.9062   21.3706 C   0  0  0  0  0  0  0  0  0  0  0  0
  -26.9805  -10.1326   22.3861 C   0  0  0  0  0  0  0  0  0  0  0  0
  -26.1767  -38.5093   24.3336 C   0  0  0  0  0  0  0  0  0  0  0  0
  -27.5506  -36.1657   24.9387 C   0  0  0  0  0  0  0  0  0  0  0  0
  -28.5886  -30.2451   20.9687 C   0  0  0  0  0  0  0  0  0  0  0  0
  -25.7125   -7.7101   21.8325 C   0  0  0  0  0  0  0  0  0  0  0  0
  -27.5296   -8.9365   22.8481 C   0  0  0  0  0  0  0  0  0  0  0  0
  -28.8836  -29.0107   20.3897 C   0  0  0  0  0  0  0  0  0  0  0  0
  -25.8450   -5.9890   24.7400 C   0  0  0  0  0  0  0  0  0  0  0  0
  -24.9821   -5.0638   25.3273 C   0  0  0  0  0  0  0  0  0  0  0  0
  -27.1395  -27.9672   21.7001 C   0  0  0  0  0  0  0  0  0  0  0  0
  -25.5785   -3.4381   23.6425 C   0  0  0  0  0  0  0  0  0  0  0  0
  -25.7974  -10.1175   21.6473 C   0  0  0  0  0  0  0  0  0  0  0  0
  -23.9609  -11.8795   21.4730 C   0  0  0  0  0  0  0  0  0  0  0  0
  -25.4530  -37.3333   24.5861 C   0  0  0  0  0  0  0  0  0  0  0  0
  -27.5564  -30.3483   21.9053 C   0  0  0  0  0  0  0  0  0  0  0  0
  -26.1459  -36.1492   24.9025 C   0  0  0  0  0  0  0  0  0  0  0  0
  -26.8311  -29.2034   22.2742 C   0  0  0  0  0  0  0  0  0  0  0  0
  -26.8955   -7.7252   22.5713 C   0  0  0  0  0  0  0  0  0  0  0  0
  -28.1610  -27.8745   20.7548 C   0  0  0  0  0  0  0  0  0  0  0  0
  -26.5746   -5.6388   23.6039 C   0  0  0  0  0  0  0  0  0  0  0  0
  -24.8489   -3.7883   24.7786 C   0  0  0  0  0  0  0  0  0  0  0  0
  -26.4414   -4.3634   23.0552 C   0  0  0  0  0  0  0  0  0  0  0  0
  -25.2310  -11.3534   21.1699 C   0  0  0  0  0  0  0  0  0  0  0  0
  -23.9043  -13.0624   20.7774 C   0  0  0  0  0  0  0  0  0  0  0  0
  -22.9250  -11.3466   22.3087 C   0  0  0  0  0  0  0  0  0  0  0  0
  -25.5731  -32.5695   24.1876 C   0  0  0  0  0  0  0  0  0  0  0  0
  -27.9677  -19.0780   21.0054 C   0  0  0  0  0  0  0  0  0  0  0  0
  -23.5880  -30.6210   22.8942 C   0  0  0  0  0  0  0  0  0  0  0  0
  -20.8450  -29.0966   21.5566 C   0  0  0  0  0  0  0  0  0  0  0  0
  -28.1143  -16.8125   18.7613 C   0  0  0  0  0  0  0  0  0  0  0  0
  -23.9460  -37.3922   24.5768 C   0  0  0  0  0  0  0  0  0  0  0  0
  -27.2445  -31.6459   22.6001 C   0  0  0  0  0  0  0  0  0  0  0  0
  -25.7523  -29.3554   23.3115 C   0  0  0  0  0  0  0  0  0  0  0  0
  -23.2832  -36.0193   24.4990 C   0  0  0  0  0  0  0  0  0  0  0  0
  -25.6073  -15.1737   16.8362 C   0  0  0  0  0  0  0  0  0  0  0  0
  -23.9305  -35.0571   25.4899 C   0  0  0  0  0  0  0  0  0  0  0  0
  -25.1120  -14.0563   17.7559 C   0  0  0  0  0  0  0  0  0  0  0  0
  -27.5916  -22.6224   21.1480 C   0  0  0  0  0  0  0  0  0  0  0  0
  -27.1091  -15.4053   16.9876 C   0  0  0  0  0  0  0  0  0  0  0  0
  -27.3500  -21.3058   21.8772 C   0  0  0  0  0  0  0  0  0  0  0  0
  -29.7465  -20.7388   21.7425 C   0  0  0  0  0  0  0  0  0  0  0  0
  -27.0671  -14.5277   19.2902 C   0  0  0  0  0  0  0  0  0  0  0  0
  -25.4156  -34.8507   25.1686 C   0  0  1  0  0  0  0  0  0  0  0  0
  -25.7447  -31.8273   22.8949 C   0  0  1  0  0  0  0  0  0  0  0  0
  -29.0225  -23.1440   21.3687 C   0  0  1  0  0  0  0  0  0  0  0  0
  -30.0584  -22.0518   21.0026 C   0  0  1  0  0  0  0  0  0  0  0  0
  -25.5484  -14.2953   19.2139 C   0  0  2  0  0  0  0  0  0  0  0  0
  -31.4946  -22.4809   21.3148 C   0  0  0  0  0  0  0  0  0  0  0  0
  -18.4627  -28.5112   22.0854 C   0  0  0  0  0  0  0  0  0  0  0  0
  -24.5487  -28.3539   24.6945 C   0  0  0  0  0  0  0  0  0  0  0  0
  -22.3067  -27.2756   24.4133 C   0  0  0  0  0  0  0  0  0  0  0  0
  -22.4840  -29.5173   25.4932 C   0  0  0  0  0  0  0  0  0  0  0  0
  -19.8241  -30.7165   19.2998 C   0  0  0  0  0  0  0  0  0  0  0  0
  -29.0691  -18.1124   20.6475 C   0  0  0  0  0  0  0  0  0  0  0  0
  -29.2231  -24.4362   20.5735 C   0  0  0  0  0  0  0  0  0  0  0  0
  -28.2173  -25.5063   20.9695 C   0  0  0  0  0  0  0  0  0  1  0  0
  -22.8510  -29.3099   23.0004 C   0  0  1  0  0  0  0  0  0  0  0  0
  -19.3953  -29.5362   21.4590 C   0  0  2  0  0  0  0  0  0  0  0  0
  -23.0636  -28.6204   24.3777 C   0  0  0  0  0  0  0  0  0  0  0  0
  -25.9308  -12.1377   20.3458 N   0  0  0  0  0  0  0  0  0  0  0  0
  -25.0974  -13.1686   20.1250 N   0  0  0  0  0  0  0  0  0  0  0  0
  -24.9782  -30.5800   23.0556 N   0  0  0  0  0  0  0  0  0  0  0  0
  -28.3612  -20.3172   21.5105 N   0  0  0  0  0  0  0  0  0  0  0  0
  -27.4566  -15.6271   18.3933 N   0  0  0  0  0  0  0  0  0  0  0  0
  -22.9509  -14.0116   20.6661 N   0  0  0  0  0  0  0  0  0  0  0  0
  -23.1479  -10.1201   22.9493 N   0  0  0  0  0  0  0  0  0  0  0  0
  -25.5697  -33.9446   24.0507 N   0  0  0  0  0  0  0  0  0  0  0  0
  -21.4561  -29.5991   22.6859 N   0  0  0  0  0  0  0  0  0  0  0  0
  -28.4012  -16.9460   20.1143 N   0  0  0  0  0  0  0  0  0  0  0  0
  -19.0039  -29.7177   20.0325 N   0  3  0  0  0  0  0  0  0  0  0  0
  -21.8274  -11.9324   22.4693 O   0  0  0  0  0  0  0  0  0  0  0  0
  -25.4511  -31.9419   25.2330 O   0  0  0  0  0  0  0  0  0  0  0  0
  -26.7930  -18.7397   20.8384 O   0  0  0  0  0  0  0  0  0  0  0  0
  -22.9503  -31.6557   22.6798 O   0  0  0  0  0  0  0  0  0  0  0  0
  -21.3805  -28.3763   20.7171 O   0  0  0  0  0  0  0  0  0  0  0  0
  -28.4182  -17.6893   17.9454 O   0  0  0  0  0  0  0  0  0  0  0  0
  -27.4315   -6.5583   23.0224 O   0  0  0  0  0  0  0  0  0  0  0  0
  -28.4513  -26.6733   20.1823 O   0  0  0  0  0  0  0  0  0  1  0  0
  -24.0213   -2.8994   25.3436 F   0  0  0  0  0  0  0  0  0  0  0  0
  -27.1407   -4.0208   21.9645 F   0  0  0  0  0  0  0  0  0  0  0  0
  1  2  1  0  0  0  0
  1  5  2  0  0  0  0
  2  6  2  0  0  0  0
  3  8  2  0  0  0  0
  3 15  1  0  0  0  0
  4  9  1  0  0  0  0
  4 15  2  0  0  0  0
  5 17  1  0  0  0  0
  6 19  1  0  0  0  0
  7 10  2  0  0  0  0
  7 18  1  0  0  0  0
  8 21  1  0  0  0  0
  9 21  2  0  0  0  0
 10 22  1  0  0  0  0
 11 12  2  0  0  0  0
 11 23  1  0  0  0  0
 12 24  1  0  0  0  0
 13 20  1  0  0  0  0
 13 22  2  0  0  0  0
 14 24  2  0  0  0  0
 14 25  1  0  0  0  0
 15 26  1  0  0  0  0
 16 26  1  0  0  0  0
 16 27  2  0  0  0  0
 16 28  1  0  0  0  0
 17 19  2  0  0  0  0
 17 34  1  0  0  0  0
 18 20  2  0  0  0  0
 18 35  1  0  0  0  0
 19 46  1  0  0  0  0
 20 36  1  0  0  0  0
 21 80  1  0  0  0  0
 22 81  1  0  0  0  0
 23 25  2  0  0  0  0
 23 80  1  0  0  0  0
 24 82  1  0  0  0  0
 25 83  1  0  0  0  0
 26 63  2  0  0  0  0
 27 64  1  0  0  0  0
 27 68  1  0  0  0  0
 28 69  1  0  0  0  0
 28 74  2  0  0  0  0
 29 47  1  0  0  0  0
 29 70  1  0  0  0  0
 29 75  2  0  0  0  0
 30 57  1  0  0  0  0
 30 66  1  0  0  0  0
 30 76  2  0  0  0  0
 31 60  1  0  0  0  0
 31 65  1  0  0  0  0
 31 77  2  0  0  0  0
 32 61  1  0  0  0  0
 32 71  1  0  0  0  0
 32 78  2  0  0  0  0
 33 67  1  0  0  0  0
 33 72  1  0  0  0  0
 33 79  2  0  0  0  0
 34 37  1  0  0  0  0
 35 47  1  0  0  0  0
 36 65  1  0  0  0  0
 37 39  1  0  0  0  0
 38 40  1  0  0  0  0
 38 42  1  0  0  0  0
 39 46  1  0  0  0  0
 40 50  1  0  0  0  0
 41 43  1  0  0  0  0
 41 48  1  0  0  0  0
 42 67  1  0  0  0  0
 43 66  1  0  0  0  0
 44 49  1  0  0  0  0
 44 66  1  0  0  0  0
 45 50  1  0  0  0  0
 45 67  1  0  0  0  0
 46 70  1  0  0  0  0
 47 65  1  0  0  0  0
 48 49  1  0  0  0  0
 48 58  1  0  0  0  0
 49 51  1  0  0  0  0
 50 64  1  0  0  0  0
 52 61  1  0  0  0  0
 53 62  1  0  0  0  0
 54 62  1  0  0  0  0
 55 62  1  0  0  0  0
 56 73  1  0  0  0  0
 57 72  1  0  0  0  0
 58 59  1  0  0  0  0
 59 81  1  0  0  0  0
 60 62  1  0  0  0  0
 60 71  1  0  0  0  0
 61 73  1  0  0  0  0
 63 64  1  0  0  0  0
M  CHG  1  73   1
M  ISO  4  33 100  59 101  72 100  81 101
M  END
> <Batch ID>
0124

> <Smiles>
CNC(C)C(=O)NC(C(=O)N1Cc2cc([101O:1][101CH2:1]CC3CCN(C(=O)C[100NH:0][100C:0](=O)N4CCCC(n5nc(-c6ccc(Oc7ccc(F)cc7F)cc6)c(C(N)=O)c5N)C4)CC3C)ccc2CC1C(=O)NC1CCCc2ccccc21)C(C)(C)C

> <Shape>
0.268

> <Color>
0.100

> <Negative vol penalty>
0.000

$$$$

  -OEChem-04052320333D

 84 92  0     1  0  0  0  0  0999 V2000
  -19.7248  -26.2789   22.5714 C   0  0  0  0  0  0  0  0  0  0  0  0
  -20.4926  -25.2951   23.1864 C   0  0  0  0  0  0  0  0  0  0  0  0
  -23.0829   -9.8585   19.9440 C   0  0  0  0  0  0  0  0  0  0  0  0
  -23.8367   -9.8806   22.2392 C   0  0  0  0  0  0  0  0  0  0  0  0
  -20.3421  -27.4035   22.0254 C   0  0  0  0  0  0  0  0  0  0  0  0
  -21.8783  -25.4350   23.2547 C   0  0  0  0  0  0  0  0  0  0  0  0
  -25.5438  -23.5986   27.8041 C   0  0  0  0  0  0  0  0  0  0  0  0
  -22.3433   -8.7035   20.1979 C   0  0  0  0  0  0  0  0  0  0  0  0
  -23.0971   -8.7256   22.4932 C   0  0  0  0  0  0  0  0  0  0  0  0
  -26.3413  -22.4667   27.9674 C   0  0  0  0  0  0  0  0  0  0  0  0
  -19.8708   -7.9171   23.0914 C   0  0  0  0  0  0  0  0  0  0  0  0
  -19.1109   -7.8800   24.2605 C   0  0  0  0  0  0  0  0  0  0  0  0
  -28.2521  -23.7057   27.1718 C   0  0  0  0  0  0  0  0  0  0  0  0
  -20.3586   -5.9517   25.0102 C   0  0  0  0  0  0  0  0  0  0  0  0
  -23.8297  -10.4471   20.9646 C   0  0  0  0  0  0  0  0  0  0  0  0
  -24.1611  -12.9730   20.8324 C   0  0  0  0  0  0  0  0  0  0  0  0
  -21.7351  -27.5619   22.0957 C   0  0  0  0  0  0  0  0  0  0  0  0
  -26.0931  -24.7914   27.3123 C   0  0  0  0  0  0  0  0  0  0  0  0
  -22.5149  -26.5621   22.7080 C   0  0  0  0  0  0  0  0  0  0  0  0
  -27.4600  -24.8520   27.0056 C   0  0  0  0  0  0  0  0  0  0  0  0
  -22.3504   -8.1371   21.4726 C   0  0  0  0  0  0  0  0  0  0  0  0
  -27.6951  -22.5193   27.6484 C   0  0  0  0  0  0  0  0  0  0  0  0
  -20.8745   -6.9715   22.8816 C   0  0  0  0  0  0  0  0  0  0  0  0
  -19.3548   -6.8973   25.2199 C   0  0  0  0  0  0  0  0  0  0  0  0
  -21.1184   -5.9888   23.8411 C   0  0  0  0  0  0  0  0  0  0  0  0
  -24.5944  -11.6399   20.7027 C   0  0  0  0  0  0  0  0  0  0  0  0
  -25.2510  -13.7253   20.4681 C   0  0  0  0  0  0  0  0  0  0  0  0
  -22.8873  -13.4855   21.2453 C   0  0  0  0  0  0  0  0  0  0  0  0
  -25.5982  -26.5973   24.7438 C   0  0  0  0  0  0  0  0  0  0  0  0
  -27.6902  -28.5883   26.2211 C   0  0  0  0  0  0  0  0  0  0  0  0
  -30.2423  -28.9700   28.4544 C   0  0  0  0  0  0  0  0  0  0  0  0
  -30.7298  -14.7687   20.6656 C   0  0  0  0  0  0  0  0  0  0  0  0
  -22.3617  -28.7720   21.4494 C   0  0  0  0  0  0  0  0  0  0  0  0
  -25.2251  -26.0112   27.1673 C   0  0  0  0  0  0  0  0  0  0  0  0
  -28.1026  -26.1142   26.4934 C   0  0  0  0  0  0  0  0  0  0  0  0
  -23.7998  -29.0244   21.8948 C   0  0  0  0  0  0  0  0  0  0  0  0
  -29.6087  -12.3671   18.2882 C   0  0  0  0  0  0  0  0  0  0  0  0
  -24.6044  -27.7289   21.8604 C   0  0  0  0  0  0  0  0  0  0  0  0
  -28.1714  -12.0695   18.7189 C   0  0  0  0  0  0  0  0  0  0  0  0
  -31.3737  -19.0441   24.2520 C   0  0  0  0  0  0  0  0  0  0  0  0
  -30.5217  -12.5980   19.4904 C   0  0  0  0  0  0  0  0  0  0  0  0
  -28.6132  -13.3281   20.8682 C   0  0  0  0  0  0  0  0  0  0  0  0
  -29.7017  -17.2330   24.8068 C   0  0  0  0  0  0  0  0  0  0  0  0
  -24.0184  -26.6897   22.8238 C   0  0  1  0  0  0  0  0  0  0  0  0
  -25.7811  -27.0253   26.1725 C   0  0  1  0  0  0  0  0  0  0  0  0
  -30.4515  -18.4557   25.3283 C   0  0  2  0  0  0  0  0  0  0  0  0
  -32.3332  -17.9829   23.6915 C   0  0  1  0  0  0  0  0  0  0  0  0
  -27.6429  -13.1433   19.6889 C   0  0  2  0  0  0  0  0  0  0  0  0
  -31.5891  -16.7378   23.1747 C   0  0  2  0  0  0  0  0  0  0  0  0
  -31.7710  -30.7100   29.4203 C   0  0  0  0  0  0  0  0  0  0  0  0
  -34.0520  -19.7514   23.2201 C   0  0  0  0  0  0  0  0  0  0  0  0
  -34.1774  -17.5346   22.0480 C   0  0  0  0  0  0  0  0  0  0  0  0
  -29.3266  -28.5767   23.6458 C   0  0  0  0  0  0  0  0  0  0  0  0
  -31.2511  -29.5106   24.9467 C   0  0  0  0  0  0  0  0  0  0  0  0
  -29.1327  -30.8129   24.7486 C   0  0  0  0  0  0  0  0  0  0  0  0
  -29.2246  -28.5095   31.1951 C   0  0  0  0  0  0  0  0  0  0  0  0
  -29.4656  -19.5102   25.8278 C   0  0  0  0  0  0  0  0  0  0  0  0
  -30.7832  -16.9259   21.8916 C   0  0  0  0  0  0  0  0  0  0  0  0
  -28.8595  -19.1175   27.1721 C   0  0  0  0  0  0  0  0  0  0  0  0
  -27.8436  -20.1457   27.6518 C   0  0  0  0  0  0  0  0  0  1  0  0
  -29.1904  -28.7562   26.2178 C   0  0  1  0  0  0  0  0  0  0  0  0
  -30.4548  -29.9653   29.5807 C   0  0  2  0  0  0  0  0  0  0  0  0
  -33.2479  -18.5959   22.6302 C   0  0  0  0  0  0  0  0  0  0  0  0
  -29.7130  -29.3896   24.8975 C   0  0  0  0  0  0  0  0  0  0  0  0
  -25.8607  -11.5473   20.2883 N   0  0  0  0  0  0  0  0  0  0  0  0
  -26.2325  -12.8318   20.1543 N   0  0  0  0  0  0  0  0  0  0  0  0
  -27.2108  -27.2783   26.3627 N   0  0  0  0  0  0  0  0  0  0  0  0
  -29.9644  -13.6287   20.3696 N   0  0  0  0  0  0  0  0  0  0  0  0
  -25.4559  -15.0572   20.3888 N   0  0  0  0  0  0  0  0  0  0  0  0
  -21.8784  -12.5738   21.5846 N   0  0  0  0  0  0  0  0  0  0  0  0
  -24.3974  -26.9940   24.1870 N   0  0  0  0  0  0  0  0  0  0  0  0
  -29.5184  -29.5192   27.4173 N   0  0  0  0  0  0  0  0  0  0  0  0
  -30.1245  -15.6993   21.5013 N   0  0  0  0  0  0  0  0  0  0  0  0
  -30.6782  -16.2400   24.2649 N   0  3  0  0  0  0  0  0  0  0  0  0
  -30.4687  -29.2642   30.8958 N   0  3  0  0  0  0  0  0  0  0  0  0
  -22.6456  -14.7154   21.2957 O   0  0  0  0  0  0  0  0  0  0  0  0
  -26.4819  -25.9560   24.1874 O   0  0  0  0  0  0  0  0  0  0  0  0
  -26.9700  -29.5836   26.1095 O   0  0  0  0  0  0  0  0  0  0  0  0
  -30.6784  -27.8214   28.4893 O   0  0  0  0  0  0  0  0  0  0  0  0
  -31.8662  -14.9467   20.2141 O   0  0  0  0  0  0  0  0  0  0  0  0
  -21.6286   -7.0101   21.7208 O   0  0  0  0  0  0  0  0  0  0  0  0
  -28.4756  -21.4158   27.8062 O   0  0  0  0  0  0  0  0  0  1  0  0
  -18.6261   -6.8627   26.3433 F   0  0  0  0  0  0  0  0  0  0  0  0
  -22.0822   -5.0784   23.6457 F   0  0  0  0  0  0  0  0  0  0  0  0
  1  2  1  0  0  0  0
  1  5  2  0  0  0  0
  2  6  2  0  0  0  0
  3  8  2  0  0  0  0
  3 15  1  0  0  0  0
  4  9  1  0  0  0  0
  4 15  2  0  0  0  0
  5 17  1  0  0  0  0
  6 19  1  0  0  0  0
  7 10  2  0  0  0  0
  7 18  1  0  0  0  0
  8 21  1  0  0  0  0
  9 21  2  0  0  0  0
 10 22  1  0  0  0  0
 11 12  2  0  0  0  0
 11 23  1  0  0  0  0
 12 24  1  0  0  0  0
 13 20  1  0  0  0  0
 13 22  2  0  0  0  0
 14 24  2  0  0  0  0
 14 25  1  0  0  0  0
 15 26  1  0  0  0  0
 16 26  1  0  0  0  0
 16 27  2  0  0  0  0
 16 28  1  0  0  0  0
 17 19  2  0  0  0  0
 17 33  1  0  0  0  0
 18 20  2  0  0  0  0
 18 34  1  0  0  0  0
 19 44  1  0  0  0  0
 20 35  1  0  0  0  0
 21 81  1  0  0  0  0
 22 82  1  0  0  0  0
 23 25  2  0  0  0  0
 23 81  1  0  0  0  0
 24 83  1  0  0  0  0
 25 84  1  0  0  0  0
 26 65  2  0  0  0  0
 27 66  1  0  0  0  0
 27 69  1  0  0  0  0
 28 70  1  0  0  0  0
 28 76  2  0  0  0  0
 29 45  1  0  0  0  0
 29 71  1  0  0  0  0
 29 77  2  0  0  0  0
 30 61  1  0  0  0  0
 30 67  1  0  0  0  0
 30 78  2  0  0  0  0
 31 62  1  0  0  0  0
 31 72  1  0  0  0  0
 31 79  2  0  0  0  0
 32 68  1  0  0  0  0
 32 73  1  0  0  0  0
 32 80  2  0  0  0  0
 33 36  1  0  0  0  0
 34 45  1  0  0  0  0
 35 67  1  0  0  0  0
 36 38  1  0  0  0  0
 37 39  1  0  0  0  0
 37 41  1  0  0  0  0
 38 44  1  0  0  0  0
 39 48  1  0  0  0  0
 40 46  1  0  0  0  0
 40 47  1  0  0  0  0
 41 68  1  0  0  0  0
 42 48  1  0  0  0  0
 42 68  1  0  0  0  0
 43 46  1  0  0  0  0
 43 74  1  0  0  0  0
 44 71  1  0  0  0  0
 45 67  1  0  0  0  0
 46 57  1  0  0  0  0
 47 49  1  0  0  0  0
 47 63  1  0  0  0  0
 48 66  1  0  0  0  0
 49 58  1  0  0  0  0
 49 74  1  0  0  0  0
 50 62  1  0  0  0  0
 51 63  1  0  0  0  0
 52 63  1  0  0  0  0
 53 64  1  0  0  0  0
 54 64  1  0  0  0  0
 55 64  1  0  0  0  0
 56 75  1  0  0  0  0
 57 59  1  0  0  0  0
 58 73  1  0  0  0  0
 59 60  1  0  0  0  0
 60 82  1  0  0  0  0
 61 64  1  0  0  0  0
 61 72  1  0  0  0  0
 62 75  1  0  0  0  0
 65 66  1  0  0  0  0
M  CHG  2  74   1  75   1
M  ISO  4  32 100  60 101  73 100  82 101
M  END
> <Batch ID>
0124

> <Smiles>
CNC(C)C(=O)NC(C(=O)N1Cc2cc([101O:1][101CH2:1]CCC3CNC(C[100NH:0][100C:0](=O)N4CCCC(n5nc(-c6ccc(Oc7ccc(F)cc7F)cc6)c(C(N)=O)c5N)C4)C(C(C)C)C3)ccc2CC1C(=O)NC1CCCc2ccccc21)C(C)(C)C

> <Shape>
0.216

> <Color>
0.188

> <Negative vol penalty>
0.000

$$$$

  -OEChem-04052320333D

 86 95  0     1  0  0  0  0  0999 V2000
  -32.1679  -34.0178   24.2504 C   0  0  0  0  0  0  0  0  0  0  0  0
  -31.8271  -32.7505   23.7885 C   0  0  0  0  0  0  0  0  0  0  0  0
  -24.1728   -9.8073   21.6450 C   0  0  0  0  0  0  0  0  0  0  0  0
  -23.2199  -11.9636   21.1165 C   0  0  0  0  0  0  0  0  0  0  0  0
  -31.3058  -34.7016   25.1065 C   0  0  0  0  0  0  0  0  0  0  0  0
  -30.6243  -32.1659   24.1834 C   0  0  0  0  0  0  0  0  0  0  0  0
  -28.1523  -30.0111   20.3245 C   0  0  0  0  0  0  0  0  0  0  0  0
  -23.0162   -9.4682   22.3471 C   0  0  0  0  0  0  0  0  0  0  0  0
  -22.0632  -11.6245   21.8185 C   0  0  0  0  0  0  0  0  0  0  0  0
  -28.6074  -28.7661   19.8927 C   0  0  0  0  0  0  0  0  0  0  0  0
  -19.8859   -8.4108   21.6286 C   0  0  0  0  0  0  0  0  0  0  0  0
  -19.3458   -7.1428   21.4143 C   0  0  0  0  0  0  0  0  0  0  0  0
  -26.8411  -27.6951   21.1387 C   0  0  0  0  0  0  0  0  0  0  0  0
  -19.6280   -6.6266   23.7576 C   0  0  0  0  0  0  0  0  0  0  0  0
  -24.2747  -11.0550   21.0297 C   0  0  0  0  0  0  0  0  0  0  0  0
  -26.0113  -10.7432   19.1873 C   0  0  0  0  0  0  0  0  0  0  0  0
  -30.0874  -34.1291   25.5045 C   0  0  0  0  0  0  0  0  0  0  0  0
  -27.0429  -30.1070   21.1769 C   0  0  0  0  0  0  0  0  0  0  0  0
  -29.7457  -32.8422   25.0468 C   0  0  0  0  0  0  0  0  0  0  0  0
  -26.3724  -28.9427   21.5778 C   0  0  0  0  0  0  0  0  0  0  0  0
  -21.9614  -10.3768   22.4339 C   0  0  0  0  0  0  0  0  0  0  0  0
  -27.9535  -27.6076   20.3021 C   0  0  0  0  0  0  0  0  0  0  0  0
  -20.2972   -8.7867   22.9074 C   0  0  0  0  0  0  0  0  0  0  0  0
  -19.2168   -6.2507   22.4788 C   0  0  0  0  0  0  0  0  0  0  0  0
  -20.1682   -7.8946   23.9719 C   0  0  0  0  0  0  0  0  0  0  0  0
  -25.4694  -11.4060   20.3048 C   0  0  0  0  0  0  0  0  0  0  0  0
  -27.1390  -11.4624   18.8750 C   0  0  0  0  0  0  0  0  0  0  0  0
  -25.5377   -9.5813   18.4936 C   0  0  0  0  0  0  0  0  0  0  0  0
  -26.5644  -31.2066   24.1207 C   0  0  0  0  0  0  0  0  0  0  0  0
  -23.4566  -30.5875   23.4275 C   0  0  0  0  0  0  0  0  0  0  0  0
  -21.5965  -27.9704   21.7819 C   0  0  0  0  0  0  0  0  0  0  0  0
  -28.7511  -17.1455   19.8522 C   0  0  0  0  0  0  0  0  0  0  0  0
  -29.2098  -34.8870   26.4690 C   0  0  0  0  0  0  0  0  0  0  0  0
  -26.5483  -31.4592   21.6123 C   0  0  0  0  0  0  0  0  0  0  0  0
  -25.1644  -28.9927   22.4761 C   0  0  0  0  0  0  0  0  0  0  0  0
  -27.7815  -34.3532   26.5413 C   0  0  0  0  0  0  0  0  0  0  0  0
  -30.4974  -14.2178   20.8799 C   0  0  0  0  0  0  0  0  0  0  0  0
  -27.7853  -32.8325   26.6600 C   0  0  0  0  0  0  0  0  0  0  0  0
  -29.6549  -22.7949   17.8702 C   0  0  0  0  0  0  0  0  0  0  0  0
  -27.2339  -22.3289   17.3240 C   0  0  0  0  0  0  0  0  0  0  0  0
  -29.2208  -23.7860   18.9487 C   0  0  0  0  0  0  0  0  0  0  0  0
  -26.7999  -23.3201   18.4024 C   0  0  0  0  0  0  0  0  0  0  0  0
  -29.4557  -13.1054   20.7482 C   0  0  0  0  0  0  0  0  0  0  0  0
  -29.8693  -15.5257   21.3563 C   0  0  0  0  0  0  0  0  0  0  0  0
  -27.6830  -14.8798   20.4200 C   0  0  0  0  0  0  0  0  0  0  0  0
  -28.3724  -21.0445   14.2594 C   0  0  0  0  0  0  0  0  0  0  0  0
  -28.4384  -32.1849   25.4330 C   0  0  1  0  0  0  0  0  0  0  0  0
  -25.7215  -31.4089   22.8934 C   0  0  1  0  0  0  0  0  0  0  0  0
  -28.5988  -21.7059   17.6430 C   0  0  0  0  0  0  0  0  0  0  0  0
  -27.8560  -24.4091   18.6296 C   0  0  0  0  0  0  0  0  0  0  0  0
  -28.2594  -13.5563   19.8886 C   0  0  2  0  0  0  0  0  0  0  0  0
  -28.0698  -19.6301   14.7432 C   0  0  2  0  0  0  0  0  0  0  0  0
  -29.0315  -20.7612   16.5311 C   0  0  1  0  0  0  0  0  0  0  0  0
  -26.7889  -19.0924   14.1193 C   0  0  0  0  0  0  0  0  0  0  0  0
  -19.3914  -28.0405   20.5860 C   0  0  0  0  0  0  0  0  0  0  0  0
  -22.2965  -29.7532   26.1234 C   0  0  0  0  0  0  0  0  0  0  0  0
  -20.6848  -28.2821   24.8961 C   0  0  0  0  0  0  0  0  0  0  0  0
  -20.6391  -30.7504   24.5382 C   0  0  0  0  0  0  0  0  0  0  0  0
  -22.7638  -26.8164   19.3193 C   0  0  0  0  0  0  0  0  0  0  0  0
  -27.4217  -25.3574   19.7456 C   0  0  0  0  0  0  0  0  0  1  0  0
  -28.1251  -18.5412   16.9294 C   0  0  0  0  0  0  0  0  0  0  0  0
  -27.5154  -18.6557   18.3188 C   0  0  0  0  0  0  0  0  0  0  0  0
  -22.5448  -29.3939   23.5788 C   0  0  1  0  0  0  0  0  0  0  0  0
  -20.9044  -28.0573   20.4336 C   0  0  2  0  0  0  0  0  0  0  0  0
  -21.5694  -29.5419   24.7805 C   0  0  0  0  0  0  0  0  0  0  0  0
  -26.1933  -12.4648   20.6774 N   0  0  0  0  0  0  0  0  0  0  0  0
  -27.2017  -12.4728   19.7891 N   0  0  0  0  0  0  0  0  0  0  0  0
  -24.7230  -30.3379   22.8800 N   0  0  0  0  0  0  0  0  0  0  0  0
  -28.7421  -15.8981   20.4980 N   0  0  0  0  0  0  0  0  0  0  0  0
  -27.9718  -19.7974   16.2038 N   0  0  2  0  0  0  0  0  0  0  0  0
  -28.0731  -11.3228   17.9105 N   0  0  0  0  0  0  0  0  0  0  0  0
  -24.3630   -8.9652   18.9464 N   0  0  0  0  0  0  0  0  0  0  0  0
  -27.5213  -32.1847   24.3134 N   0  0  0  0  0  0  0  0  0  0  0  0
  -21.8833  -29.2197   22.2902 N   0  0  0  0  0  0  0  0  0  0  0  0
  -27.6477  -17.4167   19.0525 N   0  0  0  0  0  0  0  0  0  0  0  0
  -29.3183  -21.5663   15.2932 N   0  3  0  0  0  0  0  0  0  0  0  0
  -21.3028  -26.9084   19.5719 N   0  3  0  0  0  0  0  0  0  0  0  0
  -26.1472   -9.0938   17.5115 O   0  0  0  0  0  0  0  0  0  0  0  0
  -26.3607  -30.2359   24.8403 O   0  0  0  0  0  0  0  0  0  0  0  0
  -23.0573  -31.7016   23.7755 O   0  0  0  0  0  0  0  0  0  0  0  0
  -21.8533  -26.9014   22.3312 O   0  0  0  0  0  0  0  0  0  0  0  0
  -29.6766  -17.9550   19.9748 O   0  0  0  0  0  0  0  0  0  0  0  0
  -20.8326  -10.0463   23.1187 O   0  0  0  0  0  0  0  0  0  0  0  0
  -28.3960  -26.3910   19.8826 O   0  0  0  0  0  0  0  0  0  1  0  0
  -18.6966   -5.0336   22.2732 F   0  0  0  0  0  0  0  0  0  0  0  0
  -20.5605   -8.2505   25.2029 F   0  0  0  0  0  0  0  0  0  0  0  0
  1  2  1  0  0  0  0
  1  5  2  0  0  0  0
  2  6  2  0  0  0  0
  3  8  2  0  0  0  0
  3 15  1  0  0  0  0
  4  9  1  0  0  0  0
  4 15  2  0  0  0  0
  5 17  1  0  0  0  0
  6 19  1  0  0  0  0
  7 10  2  0  0  0  0
  7 18  1  0  0  0  0
  8 21  1  0  0  0  0
  9 21  2  0  0  0  0
 10 22  1  0  0  0  0
 11 12  2  0  0  0  0
 11 23  1  0  0  0  0
 12 24  1  0  0  0  0
 13 20  1  0  0  0  0
 13 22  2  0  0  0  0
 14 24  2  0  0  0  0
 14 25  1  0  0  0  0
 15 26  1  0  0  0  0
 16 26  1  0  0  0  0
 16 27  2  0  0  0  0
 16 28  1  0  0  0  0
 17 19  2  0  0  0  0
 17 33  1  0  0  0  0
 18 20  2  0  0  0  0
 18 34  1  0  0  0  0
 19 47  1  0  0  0  0
 20 35  1  0  0  0  0
 21 83  1  0  0  0  0
 22 84  1  0  0  0  0
 23 25  2  0  0  0  0
 23 83  1  0  0  0  0
 24 85  1  0  0  0  0
 25 86  1  0  0  0  0
 26 66  2  0  0  0  0
 27 67  1  0  0  0  0
 27 71  1  0  0  0  0
 28 72  1  0  0  0  0
 28 78  2  0  0  0  0
 29 48  1  0  0  0  0
 29 73  1  0  0  0  0
 29 79  2  0  0  0  0
 30 63  1  0  0  0  0
 30 68  1  0  0  0  0
 30 80  2  0  0  0  0
 31 64  1  0  0  0  0
 31 74  1  0  0  0  0
 31 81  2  0  0  0  0
 32 69  1  0  0  0  0
 32 75  1  0  0  0  0
 32 82  2  0  0  0  0
 33 36  1  0  0  0  0
 34 48  1  0  0  0  0
 35 68  1  0  0  0  0
 36 38  1  0  0  0  0
 37 43  1  0  0  0  0
 37 44  1  0  0  0  0
 38 47  1  0  0  0  0
 39 41  1  0  0  0  0
 39 49  1  0  0  0  0
 40 42  1  0  0  0  0
 40 49  1  0  0  0  0
 41 50  1  0  0  0  0
 42 50  1  0  0  0  0
 43 51  1  0  0  0  0
 44 69  1  0  0  0  0
 45 51  1  0  0  0  0
 45 69  1  0  0  0  0
 46 52  1  0  0  0  0
 46 76  1  0  0  0  0
 47 73  1  0  0  0  0
 48 68  1  0  0  0  0
 49 53  1  0  0  0  0
 50 60  1  0  0  0  0
 51 67  1  0  0  0  0
 52 54  1  0  0  0  0
 52 70  1  0  0  0  0
 53 70  1  0  0  0  0
 53 76  1  0  0  0  0
 55 64  1  0  0  0  0
 56 65  1  0  0  0  0
 57 65  1  0  0  0  0
 58 65  1  0  0  0  0
 59 77  1  0  0  0  0
 60 84  1  0  0  0  0
 61 62  1  0  0  0  0
 61 70  1  0  0  0  0
 62 75  1  0  0  0  0
 63 65  1  0  0  0  0
 63 74  1  0  0  0  0
 64 77  1  0  0  0  0
 66 67  1  0  0  0  0
M  CHG  2  76   1  77   1
M  ISO  4  32 100  60 101  75 100  84 101
M  END
> <Batch ID>
0124

> <Smiles>
CNC(C)C(=O)NC(C(=O)N1Cc2cc([101O:1][101CH2:1]C3CCC(C4NCC(C)N4CC[100NH:0][100C:0](=O)N4CCCC(n5nc(-c6ccc(Oc7ccc(F)cc7F)cc6)c(C(N)=O)c5N)C4)CC3)ccc2CC1C(=O)NC1CCCc2ccccc21)C(C)(C)C

> <Shape>
0.260

> <Color>
0.068

> <Negative vol penalty>
0.000

$$$$

  -OEChem-04052320333D

 83 91  0     1  0  0  0  0  0999 V2000
  -37.8909  -22.4073   33.6280 C   0  0  0  0  0  0  0  0  0  0  0  0
  -37.3624  -21.5026   32.7127 C   0  0  0  0  0  0  0  0  0  0  0  0
  -23.0742   -9.8687   19.9418 C   0  0  0  0  0  0  0  0  0  0  0  0
  -23.8385   -9.8748   22.2337 C   0  0  0  0  0  0  0  0  0  0  0  0
  -39.1958  -22.8731   33.4719 C   0  0  0  0  0  0  0  0  0  0  0  0
  -38.1381  -21.0641   31.6402 C   0  0  0  0  0  0  0  0  0  0  0  0
  -37.8100  -16.0618   30.9225 C   0  0  0  0  0  0  0  0  0  0  0  0
  -22.3316   -8.7148   20.1925 C   0  0  0  0  0  0  0  0  0  0  0  0
  -23.0958   -8.7209   22.4844 C   0  0  0  0  0  0  0  0  0  0  0  0
  -36.6674  -15.5841   30.2821 C   0  0  0  0  0  0  0  0  0  0  0  0
  -19.8694   -7.9205   23.0926 C   0  0  0  0  0  0  0  0  0  0  0  0
  -19.1147   -7.8793   24.2649 C   0  0  0  0  0  0  0  0  0  0  0  0
  -37.8995  -15.4270   28.2141 C   0  0  0  0  0  0  0  0  0  0  0  0
  -33.5235  -17.1979   24.5163 C   0  0  0  0  0  0  0  0  0  0  0  0
  -20.3589   -5.9423   24.9978 C   0  0  0  0  0  0  0  0  0  0  0  0
  -31.1792  -15.8565   24.1286 C   0  0  0  0  0  0  0  0  0  0  0  0
  -23.8277  -10.4486   20.9624 C   0  0  0  0  0  0  0  0  0  0  0  0
  -24.1675  -12.9741   20.8433 C   0  0  0  0  0  0  0  0  0  0  0  0
  -39.9912  -22.4326   32.4023 C   0  0  0  0  0  0  0  0  0  0  0  0
  -39.0050  -16.2364   30.2097 C   0  0  0  0  0  0  0  0  0  0  0  0
  -39.4544  -21.5255   31.4689 C   0  0  0  0  0  0  0  0  0  0  0  0
  -39.0565  -15.9047   28.8483 C   0  0  0  0  0  0  0  0  0  0  0  0
  -32.8090  -17.3989   23.3406 C   0  0  0  0  0  0  0  0  0  0  0  0
  -31.6135  -16.7192   23.1353 C   0  0  0  0  0  0  0  0  0  0  0  0
  -22.3424   -8.1410   21.4638 C   0  0  0  0  0  0  0  0  0  0  0  0
  -36.7113  -15.2693   28.9271 C   0  0  0  0  0  0  0  0  0  0  0  0
  -20.8688   -6.9725   22.8728 C   0  0  0  0  0  0  0  0  0  0  0  0
  -19.3595   -6.8903   25.2176 C   0  0  0  0  0  0  0  0  0  0  0  0
  -21.1135   -5.9835   23.8255 C   0  0  0  0  0  0  0  0  0  0  0  0
  -24.5954  -11.6402   20.7039 C   0  0  0  0  0  0  0  0  0  0  0  0
  -33.0036  -16.3139   25.4479 C   0  0  0  0  0  0  0  0  0  0  0  0
  -25.2585  -13.7245   20.4784 C   0  0  0  0  0  0  0  0  0  0  0  0
  -22.8975  -13.4887   21.2649 C   0  0  0  0  0  0  0  0  0  0  0  0
  -40.8577  -18.7231   29.5118 C   0  0  0  0  0  0  0  0  0  0  0  0
  -42.8026  -16.4340   28.2869 C   0  0  0  0  0  0  0  0  0  0  0  0
  -43.1213  -13.2944   26.9877 C   0  0  0  0  0  0  0  0  0  0  0  0
  -30.7418  -14.7473   20.6569 C   0  0  0  0  0  0  0  0  0  0  0  0
  -41.3799  -23.0005   32.2484 C   0  0  0  0  0  0  0  0  0  0  0  0
  -40.2359  -16.7274   30.9212 C   0  0  0  0  0  0  0  0  0  0  0  0
  -40.3202  -16.0549   28.0428 C   0  0  0  0  0  0  0  0  0  0  0  0
  -42.2634  -22.1992   31.2957 C   0  0  0  0  0  0  0  0  0  0  0  0
  -29.6014  -12.3634   18.2708 C   0  0  0  0  0  0  0  0  0  0  0  0
  -41.5055  -21.8713   30.0132 C   0  0  0  0  0  0  0  0  0  0  0  0
  -28.1649  -12.0684   18.7063 C   0  0  0  0  0  0  0  0  0  0  0  0
  -30.5206  -12.5842   19.4701 C   0  0  0  0  0  0  0  0  0  0  0  0
  -28.6210  -13.3131   20.8608 C   0  0  0  0  0  0  0  0  0  0  0  0
  -40.2730  -21.0073   30.3064 C   0  0  1  0  0  0  0  0  0  0  0  0
  -41.2604  -17.3533   29.9799 C   0  0  1  0  0  0  0  0  0  0  0  0
  -27.6447  -13.1385   19.6849 C   0  0  2  0  0  0  0  0  0  0  0  0
  -33.3415  -18.3454   22.3162 C   0  0  0  0  0  0  0  0  0  0  0  0
  -29.7843  -18.0371   22.0044 C   0  0  0  0  0  0  0  0  0  0  0  0
  -44.8293  -11.7180   26.0417 C   0  0  0  0  0  0  0  0  0  0  0  0
  -42.8162  -18.0178   25.6789 C   0  0  0  0  0  0  0  0  0  0  0  0
  -43.7087  -15.9813   24.5281 C   0  0  0  0  0  0  0  0  0  0  0  0
  -45.0359  -17.0721   26.3368 C   0  0  0  0  0  0  0  0  0  0  0  0
  -42.6265  -11.2975   29.1152 C   0  0  0  0  0  0  0  0  0  0  0  0
  -33.3136  -15.2358   27.6767 C   0  0  0  0  0  0  0  0  0  0  0  0
  -34.3365  -15.2462   28.8002 C   0  0  0  0  0  0  0  0  0  1  0  0
  -30.8086  -16.8971   21.8950 C   0  0  2  0  0  0  0  0  0  0  0  0
  -42.9550  -15.7692   26.9402 C   0  0  1  0  0  0  0  0  0  0  0  0
  -44.0958  -12.1716   27.2943 C   0  0  2  0  0  0  0  0  0  0  0  0
  -43.6045  -16.7090   25.8855 C   0  0  0  0  0  0  0  0  0  0  0  0
  -31.8458  -15.6355   25.2838 N   0  0  0  0  0  0  0  0  0  0  0  0
  -25.8596  -11.5455   20.2832 N   0  0  0  0  0  0  0  0  0  0  0  0
  -26.2353  -12.8294   20.1549 N   0  0  0  0  0  0  0  0  0  0  0  0
  -41.4955  -16.5446   28.7820 N   0  0  0  0  0  0  0  0  0  0  0  0
  -29.9710  -13.6118   20.3578 N   0  0  0  0  0  0  0  0  0  0  0  0
  -25.4678  -15.0562   20.4058 N   0  0  0  0  0  0  0  0  0  0  0  0
  -21.8869  -12.5787   21.6036 N   0  0  0  0  0  0  0  0  0  0  0  0
  -33.7263  -16.1238   26.6141 N   0  0  0  0  0  0  0  0  0  0  0  0
  -40.6623  -19.6321   30.5340 N   0  0  0  0  0  0  0  0  0  0  0  0
  -43.6948  -14.5341   27.1761 N   0  0  0  0  0  0  0  0  0  0  0  0
  -30.1437  -15.6752   21.5006 N   0  0  0  0  0  0  0  0  0  0  0  0
  -43.3732  -11.0002   27.8658 N   0  3  0  0  0  0  0  0  0  0  0  0
  -22.6605  -14.7192   21.3235 O   0  0  0  0  0  0  0  0  0  0  0  0
  -40.7350  -18.9397   28.3119 O   0  0  0  0  0  0  0  0  0  0  0  0
  -43.8069  -16.8339   28.8811 O   0  0  0  0  0  0  0  0  0  0  0  0
  -41.9679  -13.0921   26.6146 O   0  0  0  0  0  0  0  0  0  0  0  0
  -31.8768  -14.9238   20.2012 O   0  0  0  0  0  0  0  0  0  0  0  0
  -21.6177   -7.0152   21.7088 O   0  0  0  0  0  0  0  0  0  0  0  0
  -35.5973  -14.8034   28.2995 O   0  0  0  0  0  0  0  0  0  1  0  0
  -18.6357   -6.8518   26.3440 F   0  0  0  0  0  0  0  0  0  0  0  0
  -22.0731   -5.0708   23.6205 F   0  0  0  0  0  0  0  0  0  0  0  0
  1  2  1  0  0  0  0
  1  5  2  0  0  0  0
  2  6  2  0  0  0  0
  3  8  2  0  0  0  0
  3 17  1  0  0  0  0
  4  9  1  0  0  0  0
  4 17  2  0  0  0  0
  5 19  1  0  0  0  0
  6 21  1  0  0  0  0
  7 10  2  0  0  0  0
  7 20  1  0  0  0  0
  8 25  1  0  0  0  0
  9 25  2  0  0  0  0
 10 26  1  0  0  0  0
 11 12  2  0  0  0  0
 11 27  1  0  0  0  0
 12 28  1  0  0  0  0
 13 22  1  0  0  0  0
 13 26  2  0  0  0  0
 14 23  2  0  0  0  0
 14 31  1  0  0  0  0
 15 28  2  0  0  0  0
 15 29  1  0  0  0  0
 16 24  2  0  0  0  0
 16 63  1  0  0  0  0
 17 30  1  0  0  0  0
 18 30  1  0  0  0  0
 18 32  2  0  0  0  0
 18 33  1  0  0  0  0
 19 21  2  0  0  0  0
 19 38  1  0  0  0  0
 20 22  2  0  0  0  0
 20 39  1  0  0  0  0
 21 47  1  0  0  0  0
 22 40  1  0  0  0  0
 23 24  1  0  0  0  0
 23 50  1  0  0  0  0
 24 59  1  0  0  0  0
 25 80  1  0  0  0  0
 26 81  1  0  0  0  0
 27 29  2  0  0  0  0
 27 80  1  0  0  0  0
 28 82  1  0  0  0  0
 29 83  1  0  0  0  0
 30 64  2  0  0  0  0
 31 63  2  0  0  0  0
 31 70  1  0  0  0  0
 32 65  1  0  0  0  0
 32 68  1  0  0  0  0
 33 69  1  0  0  0  0
 33 75  2  0  0  0  0
 34 48  1  0  0  0  0
 34 71  1  0  0  0  0
 34 76  2  0  0  0  0
 35 60  1  0  0  0  0
 35 66  1  0  0  0  0
 35 77  2  0  0  0  0
 36 61  1  0  0  0  0
 36 72  1  0  0  0  0
 36 78  2  0  0  0  0
 37 67  1  0  0  0  0
 37 73  1  0  0  0  0
 37 79  2  0  0  0  0
 38 41  1  0  0  0  0
 39 48  1  0  0  0  0
 40 66  1  0  0  0  0
 41 43  1  0  0  0  0
 42 44  1  0  0  0  0
 42 45  1  0  0  0  0
 43 47  1  0  0  0  0
 44 49  1  0  0  0  0
 45 67  1  0  0  0  0
 46 49  1  0  0  0  0
 46 67  1  0  0  0  0
 47 71  1  0  0  0  0
 48 66  1  0  0  0  0
 49 65  1  0  0  0  0
 51 59  1  0  0  0  0
 52 61  1  0  0  0  0
 53 62  1  0  0  0  0
 54 62  1  0  0  0  0
 55 62  1  0  0  0  0
 56 74  1  0  0  0  0
 57 58  1  0  0  0  0
 57 70  1  0  0  0  0
 58 81  1  0  0  0  0
 59 73  1  0  0  0  0
 60 62  1  0  0  0  0
 60 72  1  0  0  0  0
 61 74  1  0  0  0  0
 64 65  1  0  0  0  0
M  CHG  1  74   1
M  ISO  4  37 100  58 101  73 100  81 101
M  END
> <Batch ID>
0124

> <Smiles>
CNC(C)C(=O)NC(C(=O)N1Cc2cc([101O:1][101CH2:1]CNc3cc(C)c(C(C)[100NH:0][100C:0](=O)N4CCCC(n5nc(-c6ccc(Oc7ccc(F)cc7F)cc6)c(C(N)=O)c5N)C4)cn3)ccc2CC1C(=O)NC1CCCc2ccccc21)C(C)(C)C

> <Shape>
0.170

> <Color>
0.191

> <Negative vol penalty>
0.000

$$$$

  -OEChem-04052320333D

 87 96  0     1  0  0  0  0  0999 V2000
  -27.2230  -37.6412   23.4667 C   0  0  0  0  0  0  0  0  0  0  0  0
  -27.7796  -36.7208   22.5844 C   0  0  0  0  0  0  0  0  0  0  0  0
  -23.0569  -11.0786   22.2377 C   0  0  0  0  0  0  0  0  0  0  0  0
  -21.0907  -11.4194   20.8757 C   0  0  0  0  0  0  0  0  0  0  0  0
  -26.4639  -37.1970   24.5486 C   0  0  0  0  0  0  0  0  0  0  0  0
  -27.5784  -35.3555   22.7841 C   0  0  0  0  0  0  0  0  0  0  0  0
  -26.8070  -29.2347   19.1430 C   0  0  0  0  0  0  0  0  0  0  0  0
  -28.3393  -23.1028   18.0504 C   0  0  0  0  0  0  0  0  0  0  0  0
  -28.7251  -21.7645   18.1252 C   0  0  0  0  0  0  0  0  0  0  0  0
  -22.8801   -9.6980   22.1475 C   0  0  0  0  0  0  0  0  0  0  0  0
  -20.9139  -10.0387   20.7855 C   0  0  0  0  0  0  0  0  0  0  0  0
  -27.3314  -27.9444   19.0821 C   0  0  0  0  0  0  0  0  0  0  0  0
  -20.9300   -7.3382   23.5802 C   0  0  0  0  0  0  0  0  0  0  0  0
  -21.0624   -6.5908   24.7504 C   0  0  0  0  0  0  0  0  0  0  0  0
  -25.9362  -27.2961   20.9401 C   0  0  0  0  0  0  0  0  0  0  0  0
  -29.6474  -23.5902   20.0224 C   0  0  0  0  0  0  0  0  0  0  0  0
  -22.8716   -5.3420   23.7480 C   0  0  0  0  0  0  0  0  0  0  0  0
  -22.1621  -11.9394   21.6018 C   0  0  0  0  0  0  0  0  0  0  0  0
  -22.3564  -14.1463   22.8665 C   0  0  0  0  0  0  0  0  0  0  0  0
  -26.2453  -35.8259   24.7561 C   0  0  0  0  0  0  0  0  0  0  0  0
  -25.8496  -29.5689   20.1117 C   0  0  0  0  0  0  0  0  0  0  0  0
  -26.8169  -34.8925   23.8705 C   0  0  0  0  0  0  0  0  0  0  0  0
  -25.3994  -28.5907   21.0097 C   0  0  0  0  0  0  0  0  0  0  0  0
  -28.8005  -24.0157   18.9990 C   0  0  0  0  0  0  0  0  0  0  0  0
  -30.0331  -22.2518   20.0972 C   0  0  0  0  0  0  0  0  0  0  0  0
  -29.5720  -21.3390   19.1486 C   0  0  0  0  0  0  0  0  0  0  0  0
  -21.8086   -9.1780   21.4214 C   0  0  0  0  0  0  0  0  0  0  0  0
  -26.8982  -26.9756   19.9825 C   0  0  0  0  0  0  0  0  0  0  0  0
  -21.7682   -7.0874   22.4938 C   0  0  0  0  0  0  0  0  0  0  0  0
  -22.0332   -5.5927   24.8344 C   0  0  0  0  0  0  0  0  0  0  0  0
  -22.7390   -6.0894   22.5778 C   0  0  0  0  0  0  0  0  0  0  0  0
  -22.3439  -13.3657   21.6951 C   0  0  0  0  0  0  0  0  0  0  0  0
  -22.5611  -15.4295   22.4218 C   0  0  0  0  0  0  0  0  0  0  0  0
  -22.1973  -13.7470   24.2344 C   0  0  0  0  0  0  0  0  0  0  0  0
  -25.7331  -31.6219   22.5356 C   0  0  0  0  0  0  0  0  0  0  0  0
  -22.6511  -30.6273   22.7207 C   0  0  0  0  0  0  0  0  0  0  0  0
  -20.3468  -28.1968   22.0652 C   0  0  0  0  0  0  0  0  0  0  0  0
  -25.1115  -17.6791   17.4937 C   0  0  0  0  0  0  0  0  0  0  0  0
  -25.4572  -35.3916   25.9665 C   0  0  0  0  0  0  0  0  0  0  0  0
  -25.2742  -30.9582   20.1471 C   0  0  0  0  0  0  0  0  0  0  0  0
  -24.3586  -28.8931   22.0555 C   0  0  0  0  0  0  0  0  0  0  0  0
  -24.9787  -33.9438   25.8944 C   0  0  0  0  0  0  0  0  0  0  0  0
  -29.9643  -16.7016   17.3085 C   0  0  0  0  0  0  0  0  0  0  0  0
  -21.7870  -18.2481   18.6341 C   0  0  0  0  0  0  0  0  0  0  0  0
  -26.1129  -33.0285   25.4441 C   0  0  0  0  0  0  0  0  0  0  0  0
  -21.5539  -17.1318   19.6536 C   0  0  0  0  0  0  0  0  0  0  0  0
  -30.4545  -17.8001   18.2497 C   0  0  0  0  0  0  0  0  0  0  0  0
  -28.5350  -16.2743   17.6368 C   0  0  0  0  0  0  0  0  0  0  0  0
  -28.0694  -18.5707   18.5910 C   0  0  0  0  0  0  0  0  0  0  0  0
  -22.6363  -17.7703   17.4583 C   0  0  0  0  0  0  0  0  0  0  0  0
  -23.6861  -16.0310   18.8533 C   0  0  0  0  0  0  0  0  0  0  0  0
  -26.6004  -33.4043   24.0396 C   0  0  1  0  0  0  0  0  0  0  0  0
  -24.6816  -31.3250   21.5042 C   0  0  1  0  0  0  0  0  0  0  0  0
  -22.8815  -16.4802   20.0850 C   0  0  2  0  0  0  0  0  0  0  0  0
  -29.5003  -18.9960   18.2488 C   0  0  1  0  0  0  0  0  0  0  0  0
  -27.5782  -17.4701   17.6433 C   0  0  2  0  0  0  0  0  0  0  0  0
  -30.1940  -21.0889   22.3127 C   0  0  0  0  0  0  0  0  0  0  0  0
  -17.9157  -27.6538   22.3691 C   0  0  0  0  0  0  0  0  0  0  0  0
  -23.1615  -29.9999   25.6628 C   0  0  0  0  0  0  0  0  0  0  0  0
  -21.0743  -28.6171   25.6580 C   0  0  0  0  0  0  0  0  0  0  0  0
  -20.9480  -31.0645   25.1919 C   0  0  0  0  0  0  0  0  0  0  0  0
  -19.8994  -28.0314   19.1444 C   0  0  0  0  0  0  0  0  0  0  0  0
  -30.9411  -21.8232   21.2038 C   0  0  0  0  0  0  0  0  0  0  0  0
  -28.3853  -25.4553   18.9180 C   0  0  0  0  0  0  0  0  0  1  0  0
  -21.9271  -29.5193   23.4466 C   0  0  1  0  0  0  0  0  0  0  0  0
  -18.9615  -28.2623   21.4478 C   0  0  2  0  0  0  0  0  0  0  0  0
  -21.7988  -29.7947   24.9715 C   0  0  0  0  0  0  0  0  0  0  0  0
  -22.5260  -14.0924   20.5893 N   0  0  0  0  0  0  0  0  0  0  0  0
  -22.6548  -15.3430   21.0639 N   0  0  0  0  0  0  0  0  0  0  0  0
  -23.8309  -30.2675   22.0539 N   0  0  0  0  0  0  0  0  0  0  0  0
  -23.8816  -17.1642   17.9355 N   0  0  0  0  0  0  0  0  0  0  0  0
  -22.6683  -16.6123   23.0638 N   0  0  0  0  0  0  0  0  0  0  0  0
  -20.9054  -13.7224   24.7772 N   0  0  0  0  0  0  0  0  0  0  0  0
  -29.9520  -19.9802   19.2087 N   0  0  0  0  0  0  0  0  0  0  0  0
  -25.6823  -32.9088   23.0365 N   0  0  0  0  0  0  0  0  0  0  0  0
  -20.6508  -29.3479   22.7609 N   0  0  0  0  0  0  0  0  0  0  0  0
  -26.2431  -17.0508   17.9993 N   0  0  0  0  0  0  0  0  0  0  0  0
  -18.9355  -27.5230   20.1541 N   0  3  0  0  0  0  0  0  0  0  0  0
  -23.1736  -13.4376   24.9587 O   0  0  0  0  0  0  0  0  0  0  0  0
  -26.5306  -30.7478   22.8544 O   0  0  0  0  0  0  0  0  0  0  0  0
  -22.1832  -31.7686   22.7384 O   0  0  0  0  0  0  0  0  0  0  0  0
  -21.0839  -27.2207   21.9457 O   0  0  0  0  0  0  0  0  0  0  0  0
  -25.1951  -18.6318   16.7112 O   0  0  0  0  0  0  0  0  0  0  0  0
  -21.6359   -7.8308   21.3330 O   0  0  0  0  0  0  0  0  0  0  0  0
  -27.4088  -25.7155   19.9256 O   0  0  0  0  0  0  0  0  0  1  0  0
  -22.1614   -4.8761   25.9588 F   0  0  0  0  0  0  0  0  0  0  0  0
  -23.5480   -5.8447   21.5378 F   0  0  0  0  0  0  0  0  0  0  0  0
  1  2  1  0  0  0  0
  1  5  2  0  0  0  0
  2  6  2  0  0  0  0
  3 10  2  0  0  0  0
  3 18  1  0  0  0  0
  4 11  1  0  0  0  0
  4 18  2  0  0  0  0
  5 20  1  0  0  0  0
  6 22  1  0  0  0  0
  7 12  2  0  0  0  0
  7 21  1  0  0  0  0
  8  9  2  0  0  0  0
  8 24  1  0  0  0  0
  9 26  1  0  0  0  0
 10 27  1  0  0  0  0
 11 27  2  0  0  0  0
 12 28  1  0  0  0  0
 13 14  2  0  0  0  0
 13 29  1  0  0  0  0
 14 30  1  0  0  0  0
 15 23  1  0  0  0  0
 15 28  2  0  0  0  0
 16 24  2  0  0  0  0
 16 25  1  0  0  0  0
 17 30  2  0  0  0  0
 17 31  1  0  0  0  0
 18 32  1  0  0  0  0
 19 32  1  0  0  0  0
 19 33  2  0  0  0  0
 19 34  1  0  0  0  0
 20 22  2  0  0  0  0
 20 39  1  0  0  0  0
 21 23  2  0  0  0  0
 21 40  1  0  0  0  0
 22 52  1  0  0  0  0
 23 41  1  0  0  0  0
 24 64  1  0  0  0  0
 25 26  2  0  0  0  0
 25 63  1  0  0  0  0
 26 74  1  0  0  0  0
 27 84  1  0  0  0  0
 28 85  1  0  0  0  0
 29 31  2  0  0  0  0
 29 84  1  0  0  0  0
 30 86  1  0  0  0  0
 31 87  1  0  0  0  0
 32 68  2  0  0  0  0
 33 69  1  0  0  0  0
 33 72  1  0  0  0  0
 34 73  1  0  0  0  0
 34 79  2  0  0  0  0
 35 53  1  0  0  0  0
 35 75  1  0  0  0  0
 35 80  2  0  0  0  0
 36 65  1  0  0  0  0
 36 70  1  0  0  0  0
 36 81  2  0  0  0  0
 37 66  1  0  0  0  0
 37 76  1  0  0  0  0
 37 82  2  0  0  0  0
 38 71  1  0  0  0  0
 38 77  1  0  0  0  0
 38 83  2  0  0  0  0
 39 42  1  0  0  0  0
 40 53  1  0  0  0  0
 41 70  1  0  0  0  0
 42 45  1  0  0  0  0
 43 47  1  0  0  0  0
 43 48  1  0  0  0  0
 44 46  1  0  0  0  0
 44 50  1  0  0  0  0
 45 52  1  0  0  0  0
 46 54  1  0  0  0  0
 47 55  1  0  0  0  0
 48 56  1  0  0  0  0
 49 55  1  0  0  0  0
 49 56  1  0  0  0  0
 50 71  1  0  0  0  0
 51 54  1  0  0  0  0
 51 71  1  0  0  0  0
 52 75  1  0  0  0  0
 53 70  1  0  0  0  0
 54 69  1  0  0  0  0
 55 74  1  0  0  0  0
 56 77  1  0  0  0  0
 57 63  1  0  0  0  0
 58 66  1  0  0  0  0
 59 67  1  0  0  0  0
 60 67  1  0  0  0  0
 61 67  1  0  0  0  0
 62 78  1  0  0  0  0
 64 85  1  0  0  0  0
 65 67  1  0  0  0  0
 65 76  1  0  0  0  0
 66 78  1  0  0  0  0
 68 69  1  0  0  0  0
M  CHG  1  78   1
M  ISO  4  38 100  64 101  77 100  85 101
M  END
> <Batch ID>
0124

> <Smiles>
CCc1cc([101CH2:1][101O:1]c2ccc3c(c2)CN(C(=O)C(NC(=O)C(C)NC)C(C)(C)C)C(C(=O)NC2CCCc4ccccc42)C3)ccc1NC1CCCC([100NH:0][100C:0](=O)N2CCCC(n3nc(-c4ccc(Oc5ccc(F)cc5F)cc4)c(C(N)=O)c3N)C2)C1

> <Shape>
0.299

> <Color>
0.077

> <Negative vol penalty>
0.000

$$$$

  -OEChem-04052320333D

 85 94  0     1  0  0  0  0  0999 V2000
  -37.5082  -30.4128   21.0339 C   0  0  0  0  0  0  0  0  0  0  0  0
  -36.5980  -30.3262   22.0825 C   0  0  0  0  0  0  0  0  0  0  0  0
  -22.7851  -10.1793   20.0624 C   0  0  0  0  0  0  0  0  0  0  0  0
  -24.1531   -9.5247   21.9432 C   0  0  0  0  0  0  0  0  0  0  0  0
  -37.0843  -30.1912   19.7243 C   0  0  0  0  0  0  0  0  0  0  0  0
  -35.2631  -30.0190   21.8219 C   0  0  0  0  0  0  0  0  0  0  0  0
  -32.1397  -24.2439   24.7857 C   0  0  0  0  0  0  0  0  0  0  0  0
  -22.0345   -9.0120   20.2021 C   0  0  0  0  0  0  0  0  0  0  0  0
  -23.4024   -8.3573   22.0829 C   0  0  0  0  0  0  0  0  0  0  0  0
  -31.4116  -23.2773   25.4797 C   0  0  0  0  0  0  0  0  0  0  0  0
  -19.5478   -7.8723   22.1897 C   0  0  0  0  0  0  0  0  0  0  0  0
  -18.1591   -7.9821   22.1181 C   0  0  0  0  0  0  0  0  0  0  0  0
  -29.4326  -23.8402   24.2091 C   0  0  0  0  0  0  0  0  0  0  0  0
  -18.1389   -6.4883   20.2194 C   0  0  0  0  0  0  0  0  0  0  0  0
  -23.8444  -10.4356   20.9329 C   0  0  0  0  0  0  0  0  0  0  0  0
  -24.1544  -12.9669   20.8689 C   0  0  0  0  0  0  0  0  0  0  0  0
  -35.7455  -29.8717   19.4485 C   0  0  0  0  0  0  0  0  0  0  0  0
  -31.5200  -25.0027   23.7888 C   0  0  0  0  0  0  0  0  0  0  0  0
  -34.8206  -29.7943   20.5072 C   0  0  0  0  0  0  0  0  0  0  0  0
  -30.1599  -24.8012   23.5019 C   0  0  0  0  0  0  0  0  0  0  0  0
  -22.3431   -8.1010   21.2123 C   0  0  0  0  0  0  0  0  0  0  0  0
  -30.0614  -23.0761   25.1923 C   0  0  0  0  0  0  0  0  0  0  0  0
  -20.2321   -7.0705   21.2761 C   0  0  0  0  0  0  0  0  0  0  0  0
  -17.4547   -7.2901   21.1330 C   0  0  0  0  0  0  0  0  0  0  0  0
  -19.5276   -6.3785   20.2910 C   0  0  0  0  0  0  0  0  0  0  0  0
  -24.6206  -11.6410   20.7888 C   0  0  0  0  0  0  0  0  0  0  0  0
  -25.2731  -13.7371   20.6644 C   0  0  0  0  0  0  0  0  0  0  0  0
  -22.8287  -13.4584   21.1071 C   0  0  0  0  0  0  0  0  0  0  0  0
  -31.8653  -27.6828   21.1862 C   0  0  0  0  0  0  0  0  0  0  0  0
  -30.0979  -25.4873   19.9752 C   0  0  0  0  0  0  0  0  0  0  0  0
  -28.5433  -22.6620   18.8626 C   0  0  0  0  0  0  0  0  0  0  0  0
  -31.1187  -12.7369   21.4887 C   0  0  0  0  0  0  0  0  0  0  0  0
  -35.3243  -29.6873   18.0120 C   0  0  0  0  0  0  0  0  0  0  0  0
  -32.2496  -26.0972   23.0583 C   0  0  0  0  0  0  0  0  0  0  0  0
  -29.5262  -25.6646   22.4455 C   0  0  0  0  0  0  0  0  0  0  0  0
  -33.9709  -28.9982   17.8578 C   0  0  0  0  0  0  0  0  0  0  0  0
  -29.5135  -13.6674   18.4499 C   0  0  0  0  0  0  0  0  0  0  0  0
  -32.9463  -29.6163   18.8039 C   0  0  0  0  0  0  0  0  0  0  0  0
  -26.9283  -18.4603   28.2556 C   0  0  0  0  0  0  0  0  0  0  0  0
  -26.6895  -16.9785   28.1708 C   0  0  0  0  0  0  0  0  0  0  0  0
  -28.0355  -13.3732   18.7119 C   0  0  0  0  0  0  0  0  0  0  0  0
  -29.7857  -13.9209   26.0385 C   0  0  0  0  0  0  0  0  0  0  0  0
  -28.8826  -14.9086   26.7546 C   0  0  0  0  0  0  0  0  0  0  0  0
  -30.4210  -12.6342   19.1140 C   0  0  0  0  0  0  0  0  0  0  0  0
  -28.7099  -12.1480   20.8197 C   0  0  0  0  0  0  0  0  0  0  0  0
  -33.3692  -29.4391   20.2672 C   0  0  1  0  0  0  0  0  0  0  0  0
  -31.8114  -26.2386   21.5896 C   0  0  1  0  0  0  0  0  0  0  0  0
  -28.0935  -17.5162   28.1467 C   0  0  0  0  0  0  0  0  0  0  0  0
  -27.7575  -13.1947   20.2166 C   0  0  2  0  0  0  0  0  0  0  0  0
  -30.3494  -14.7490   24.8925 C   0  0  2  0  0  0  0  0  0  0  0  0
  -29.7230  -16.1775   26.7786 C   0  0  2  0  0  0  0  0  0  0  0  0
  -27.3957  -21.7100   16.8441 C   0  0  0  0  0  0  0  0  0  0  0  0
  -27.6270  -27.1655   20.5931 C   0  0  0  0  0  0  0  0  0  0  0  0
  -26.2780  -25.5503   19.2367 C   0  0  0  0  0  0  0  0  0  0  0  0
  -28.1018  -26.8652   18.1562 C   0  0  0  0  0  0  0  0  0  0  0  0
  -30.5279  -20.4800   18.6197 C   0  0  0  0  0  0  0  0  0  0  0  0
  -31.6906  -14.2663   24.3788 C   0  0  0  0  0  0  0  0  0  0  0  0
  -31.6616  -12.8139   23.9091 C   0  0  0  0  0  0  0  0  0  0  0  0
  -29.1382  -19.7965   26.3829 C   0  0  0  0  0  0  0  0  0  0  0  0
  -30.0824  -20.9877   26.3305 C   0  0  0  0  0  0  0  0  0  1  0  0
  -28.6990  -24.9803   19.7318 C   0  0  1  0  0  0  0  0  0  0  0  0
  -28.7136  -21.8532   17.5893 C   0  0  2  0  0  0  0  0  0  0  0  0
  -28.9147  -17.4561   26.8669 C   0  0  2  0  0  0  0  0  0  0  0  0
  -27.6919  -26.1313   19.4516 C   0  0  0  0  0  0  0  0  0  0  0  0
  -25.9331  -11.5693   20.5517 N   0  0  0  0  0  0  0  0  0  0  0  0
  -26.3012  -12.8599   20.4810 N   0  0  0  0  0  0  0  0  0  0  0  0
  -30.4356  -25.8021   21.2971 N   0  0  0  0  0  0  0  0  0  0  0  0
  -30.1072  -12.5142   20.5398 N   0  0  0  0  0  0  0  0  0  0  0  0
  -25.4677  -15.0724   20.6253 N   0  0  0  0  0  0  0  0  0  0  0  0
  -21.7960  -12.5300   21.2967 N   0  0  0  0  0  0  0  0  0  0  0  0
  -33.0980  -28.0888   20.7117 N   0  0  0  0  0  0  0  0  0  0  0  0
  -28.8013  -24.0006   18.6557 N   0  0  0  0  0  0  0  0  0  0  0  0
  -30.7351  -12.6091   22.8181 N   0  0  0  0  0  0  0  0  0  0  0  0
  -29.8249  -18.5929   26.8304 N   0  0  0  0  0  0  0  0  0  0  0  0
  -30.4844  -16.1330   25.4771 N   0  3  0  0  0  0  0  0  0  0  0  0
  -29.2248  -20.4897   17.9063 N   0  3  0  0  0  0  0  0  0  0  0  0
  -22.5647  -14.6844   21.1341 O   0  0  0  0  0  0  0  0  0  0  0  0
  -30.8624  -28.3785   21.2954 O   0  0  0  0  0  0  0  0  0  0  0  0
  -30.8706  -25.6073   19.0203 O   0  0  0  0  0  0  0  0  0  0  0  0
  -28.2107  -22.1574   19.9328 O   0  0  0  0  0  0  0  0  0  0  0  0
  -32.2764  -13.0333   21.1745 O   0  0  0  0  0  0  0  0  0  0  0  0
  -21.6107   -6.9619   21.3491 O   0  0  0  0  0  0  0  0  0  0  0  0
  -29.3577  -22.1277   25.8706 O   0  0  0  0  0  0  0  0  0  1  0  0
  -16.1210   -7.3944   21.0653 F   0  0  0  0  0  0  0  0  0  0  0  0
  -20.1794   -5.6058   19.4113 F   0  0  0  0  0  0  0  0  0  0  0  0
  1  2  1  0  0  0  0
  1  5  2  0  0  0  0
  2  6  2  0  0  0  0
  3  8  2  0  0  0  0
  3 15  1  0  0  0  0
  4  9  1  0  0  0  0
  4 15  2  0  0  0  0
  5 17  1  0  0  0  0
  6 19  1  0  0  0  0
  7 10  2  0  0  0  0
  7 18  1  0  0  0  0
  8 21  1  0  0  0  0
  9 21  2  0  0  0  0
 10 22  1  0  0  0  0
 11 12  2  0  0  0  0
 11 23  1  0  0  0  0
 12 24  1  0  0  0  0
 13 20  1  0  0  0  0
 13 22  2  0  0  0  0
 14 24  2  0  0  0  0
 14 25  1  0  0  0  0
 15 26  1  0  0  0  0
 16 26  1  0  0  0  0
 16 27  2  0  0  0  0
 16 28  1  0  0  0  0
 17 19  2  0  0  0  0
 17 33  1  0  0  0  0
 18 20  2  0  0  0  0
 18 34  1  0  0  0  0
 19 46  1  0  0  0  0
 20 35  1  0  0  0  0
 21 82  1  0  0  0  0
 22 83  1  0  0  0  0
 23 25  2  0  0  0  0
 23 82  1  0  0  0  0
 24 84  1  0  0  0  0
 25 85  1  0  0  0  0
 26 65  2  0  0  0  0
 27 66  1  0  0  0  0
 27 69  1  0  0  0  0
 28 70  1  0  0  0  0
 28 77  2  0  0  0  0
 29 47  1  0  0  0  0
 29 71  1  0  0  0  0
 29 78  2  0  0  0  0
 30 61  1  0  0  0  0
 30 67  1  0  0  0  0
 30 79  2  0  0  0  0
 31 62  1  0  0  0  0
 31 72  1  0  0  0  0
 31 80  2  0  0  0  0
 32 68  1  0  0  0  0
 32 73  1  0  0  0  0
 32 81  2  0  0  0  0
 33 36  1  0  0  0  0
 34 47  1  0  0  0  0
 35 67  1  0  0  0  0
 36 38  1  0  0  0  0
 37 41  1  0  0  0  0
 37 44  1  0  0  0  0
 38 46  1  0  0  0  0
 39 40  1  0  0  0  0
 39 48  1  0  0  0  0
 40 48  1  0  0  0  0
 41 49  1  0  0  0  0
 42 43  1  0  0  0  0
 42 50  1  0  0  0  0
 43 51  1  0  0  0  0
 44 68  1  0  0  0  0
 45 49  1  0  0  0  0
 45 68  1  0  0  0  0
 46 71  1  0  0  0  0
 47 67  1  0  0  0  0
 48 63  1  0  0  0  0
 49 66  1  0  0  0  0
 50 57  1  0  0  0  0
 50 75  1  0  0  0  0
 51 63  1  0  0  0  0
 51 75  1  0  0  0  0
 52 62  1  0  0  0  0
 53 64  1  0  0  0  0
 54 64  1  0  0  0  0
 55 64  1  0  0  0  0
 56 76  1  0  0  0  0
 57 58  1  0  0  0  0
 58 73  1  0  0  0  0
 59 60  1  0  0  0  0
 59 74  1  0  0  0  0
 60 83  1  0  0  0  0
 61 64  1  0  0  0  0
 61 72  1  0  0  0  0
 62 76  1  0  0  0  0
 63 74  1  0  0  0  0
 65 66  1  0  0  0  0
M  CHG  2  75   1  76   1
M  ISO  4  32 100  60 101  73 100  83 101
M  END
> <Batch ID>
0124

> <Smiles>
CNC(C)C(=O)NC(C(=O)N1Cc2cc([101O:1][101CH2:1]CNC(C3CC3)C3CCC(CC[100NH:0][100C:0](=O)N4CCCC(n5nc(-c6ccc(Oc7ccc(F)cc7F)cc6)c(C(N)=O)c5N)C4)N3)ccc2CC1C(=O)NC1CCCc2ccccc21)C(C)(C)C

> <Shape>
0.184

> <Color>
0.183

> <Negative vol penalty>
0.000

$$$$

  -OEChem-04052320333D

 89 98  0     1  0  0  0  0  0999 V2000
  -30.1119  -22.3889   16.6698 C   0  0  0  0  0  0  0  0  0  0  0  0
  -28.8326  -22.9297   16.5909 C   0  0  0  0  0  0  0  0  0  0  0  0
  -28.0868  -14.4226   21.1044 C   0  0  0  0  0  0  0  0  0  0  0  0
  -25.8494  -15.0649   20.4575 C   0  0  0  0  0  0  0  0  0  0  0  0
  -30.8214  -22.4518   17.8683 C   0  0  0  0  0  0  0  0  0  0  0  0
  -28.2615  -23.5329   17.7109 C   0  0  0  0  0  0  0  0  0  0  0  0
  -20.3513  -20.4609   23.0355 C   0  0  0  0  0  0  0  0  0  0  0  0
  -24.5027  -28.3674   17.7743 C   0  0  0  0  0  0  0  0  0  0  0  0
  -21.3717  -20.7272   23.9485 C   0  0  0  0  0  0  0  0  0  0  0  0
  -27.7401  -13.0784   20.9690 C   0  0  0  0  0  0  0  0  0  0  0  0
  -25.5027  -13.7206   20.3220 C   0  0  0  0  0  0  0  0  0  0  0  0
  -23.1156  -28.4760   17.8640 C   0  0  0  0  0  0  0  0  0  0  0  0
  -24.6612  -11.1484   22.3486 C   0  0  0  0  0  0  0  0  0  0  0  0
  -23.4442  -10.7353   22.8905 C   0  0  0  0  0  0  0  0  0  0  0  0
  -23.3024  -28.8195   20.2444 C   0  0  0  0  0  0  0  0  0  0  0  0
  -21.9534  -22.7224   22.7164 C   0  0  0  0  0  0  0  0  0  0  0  0
  -22.7055  -10.0366   20.6988 C   0  0  0  0  0  0  0  0  0  0  0  0
  -27.1414  -15.4159   20.8487 C   0  0  0  0  0  0  0  0  0  0  0  0
  -28.0284  -17.6506   19.9961 C   0  0  0  0  0  0  0  0  0  0  0  0
  -30.2626  -23.0647   19.0009 C   0  0  0  0  0  0  0  0  0  0  0  0
  -25.3006  -28.4734   18.9226 C   0  0  0  0  0  0  0  0  0  0  0  0
  -28.9637  -23.6029   18.9262 C   0  0  0  0  0  0  0  0  0  0  0  0
  -20.1320  -21.3253   21.9629 C   0  0  0  0  0  0  0  0  0  0  0  0
  -24.6995  -28.7145   20.1662 C   0  0  0  0  0  0  0  0  0  0  0  0
  -22.1727  -21.8579   23.7889 C   0  0  0  0  0  0  0  0  0  0  0  0
  -20.9330  -22.4560   21.8034 C   0  0  0  0  0  0  0  0  0  0  0  0
  -26.4481  -12.7273   20.5778 C   0  0  0  0  0  0  0  0  0  0  0  0
  -22.5151  -28.6992   19.0996 C   0  0  0  0  0  0  0  0  0  0  0  0
  -24.9004  -11.0058   20.9817 C   0  0  0  0  0  0  0  0  0  0  0  0
  -22.4663  -10.1794   22.0657 C   0  0  0  0  0  0  0  0  0  0  0  0
  -23.9225  -10.4499   20.1569 C   0  0  0  0  0  0  0  0  0  0  0  0
  -27.4988  -16.8047   20.9889 C   0  0  0  0  0  0  0  0  0  0  0  0
  -28.1922  -18.8597   20.6269 C   0  0  0  0  0  0  0  0  0  0  0  0
  -28.3441  -17.3688   18.6263 C   0  0  0  0  0  0  0  0  0  0  0  0
  -27.3079  -26.5358   20.4458 C   0  0  0  0  0  0  0  0  0  0  0  0
  -27.8788  -29.1761   22.2418 C   0  0  0  0  0  0  0  0  0  0  0  0
  -26.7706  -32.1910   23.3946 C   0  0  0  0  0  0  0  0  0  0  0  0
  -25.5445  -21.3751   25.3717 C   0  0  0  0  0  0  0  0  0  0  0  0
  -31.0493  -23.0667   20.2877 C   0  0  0  0  0  0  0  0  0  0  0  0
  -26.7973  -28.3806   18.8051 C   0  0  0  0  0  0  0  0  0  0  0  0
  -25.5129  -28.8561   21.4260 C   0  0  0  0  0  0  0  0  0  0  0  0
  -30.5203  -24.0554   21.3235 C   0  0  0  0  0  0  0  0  0  0  0  0
  -16.8855  -20.6814   20.5496 C   0  0  0  0  0  0  0  0  0  0  0  0
  -29.0232  -20.7491   24.9432 C   0  0  0  0  0  0  0  0  0  0  0  0
  -17.9679  -19.8541   21.2687 C   0  0  0  0  0  0  0  0  0  0  0  0
  -17.7152  -21.9303   20.9044 C   0  0  0  0  0  0  0  0  0  0  0  0
  -29.0035  -23.9444   21.4416 C   0  0  0  0  0  0  0  0  0  0  0  0
  -29.0748  -19.7436   23.7916 C   0  0  0  0  0  0  0  0  0  0  0  0
  -27.8163  -20.5098   25.8477 C   0  0  0  0  0  0  0  0  0  0  0  0
  -26.5694  -19.4622   23.9981 C   0  0  0  0  0  0  0  0  0  0  0  0
  -18.9678  -21.0033   20.9384 C   0  0  0  0  0  0  0  0  0  0  0  0
  -28.3201  -24.2874   20.1124 C   0  0  1  0  0  0  0  0  0  0  0  0
  -27.4765  -27.9917   20.1146 C   0  0  1  0  0  0  0  0  0  0  0  0
  -27.7384  -19.6983   23.0265 C   0  0  2  0  0  0  0  0  0  0  0  0
  -27.4432  -34.1016   24.8760 C   0  0  0  0  0  0  0  0  0  0  0  0
  -27.2581  -27.4830   24.7031 C   0  0  0  0  0  0  0  0  0  0  0  0
  -27.0111  -29.6024   26.0127 C   0  0  0  0  0  0  0  0  0  0  0  0
  -29.2029  -29.0330   24.9665 C   0  0  0  0  0  0  0  0  0  0  0  0
  -26.6634  -34.1194   21.1521 C   0  0  0  0  0  0  0  0  0  0  0  0
  -20.7134  -23.3988   20.6558 C   0  0  0  0  0  0  0  0  0  0  0  0
  -23.2635  -22.1423   24.7653 C   0  0  0  0  0  0  0  0  0  0  0  0
  -20.0205  -24.6993   21.0500 C   0  0  0  0  0  0  0  0  0  0  0  0
  -19.1786  -26.8688   20.1428 C   0  0  0  0  0  0  0  0  0  0  0  0
  -20.3878  -28.0739   18.2394 C   0  0  0  0  0  0  0  0  0  1  0  0
  -27.2808  -29.7654   23.4964 C   0  0  1  0  0  0  0  0  0  0  0  0
  -27.4388  -33.5526   23.4578 C   0  0  2  0  0  0  0  0  0  0  0  0
  -19.0501  -27.7059   18.8731 C   0  0  1  0  0  0  0  0  0  0  0  0
  -27.6725  -28.9664   24.7714 C   0  0  0  0  0  0  0  0  0  0  0  0
  -27.3370  -17.4239   22.1613 N   0  0  0  0  0  0  0  0  0  0  0  0
  -27.7676  -18.6717   21.9092 N   0  0  0  0  0  0  0  0  0  0  0  0
  -26.9720  -28.7514   21.2603 N   0  0  0  0  0  0  0  0  0  0  0  0
  -26.5811  -20.4796   25.0608 N   0  0  0  0  0  0  0  0  0  0  0  0
  -28.6567  -20.0547   20.2041 N   0  0  0  0  0  0  0  0  0  0  0  0
  -28.1139  -16.0745   18.1403 N   0  0  0  0  0  0  0  0  0  0  0  0
  -28.2895  -25.7208   19.9150 N   0  0  0  0  0  0  0  0  0  0  0  0
  -27.6851  -31.1670   23.5219 N   0  0  0  0  0  0  0  0  0  0  0  0
  -24.4112  -21.2841   24.5728 N   0  0  0  0  0  0  0  0  0  0  0  0
  -26.7231  -34.5220   22.5808 N   0  3  0  0  0  0  0  0  0  0  0  0
  -19.8965  -25.5986   19.8709 N   0  3  0  0  0  0  0  0  0  0  0  0
  -28.8316  -18.2344   17.8604 O   0  0  0  0  0  0  0  0  0  0  0  0
  -26.3585  -26.1786   21.1334 O   0  0  0  0  0  0  0  0  0  0  0  0
  -29.1053  -29.1021   22.1334 O   0  0  0  0  0  0  0  0  0  0  0  0
  -25.5582  -32.0500   23.2506 O   0  0  0  0  0  0  0  0  0  0  0  0
  -25.6252  -22.1985   26.2896 O   0  0  0  0  0  0  0  0  0  0  0  0
  -18.2737  -26.9938   17.9084 O   0  0  0  0  0  0  0  0  0  0  0  0
  -26.1095  -11.4157   20.4454 O   0  0  0  0  0  0  0  0  0  0  0  0
  -21.1614  -28.8049   19.1900 O   0  0  0  0  0  0  0  0  0  1  0  0
  -21.2982   -9.7812   22.5865 F   0  0  0  0  0  0  0  0  0  0  0  0
  -24.1470  -10.3092   18.8433 F   0  0  0  0  0  0  0  0  0  0  0  0
  1  2  1  0  0  0  0
  1  5  2  0  0  0  0
  2  6  2  0  0  0  0
  3 10  2  0  0  0  0
  3 18  1  0  0  0  0
  4 11  1  0  0  0  0
  4 18  2  0  0  0  0
  5 20  1  0  0  0  0
  6 22  1  0  0  0  0
  7  9  2  0  0  0  0
  7 23  1  0  0  0  0
  8 12  2  0  0  0  0
  8 21  1  0  0  0  0
  9 25  1  0  0  0  0
 10 27  1  0  0  0  0
 11 27  2  0  0  0  0
 12 28  1  0  0  0  0
 13 14  2  0  0  0  0
 13 29  1  0  0  0  0
 14 30  1  0  0  0  0
 15 24  1  0  0  0  0
 15 28  2  0  0  0  0
 16 25  2  0  0  0  0
 16 26  1  0  0  0  0
 17 30  2  0  0  0  0
 17 31  1  0  0  0  0
 18 32  1  0  0  0  0
 19 32  1  0  0  0  0
 19 33  2  0  0  0  0
 19 34  1  0  0  0  0
 20 22  2  0  0  0  0
 20 39  1  0  0  0  0
 21 24  2  0  0  0  0
 21 40  1  0  0  0  0
 22 52  1  0  0  0  0
 23 26  2  0  0  0  0
 23 51  1  0  0  0  0
 24 41  1  0  0  0  0
 25 61  1  0  0  0  0
 26 60  1  0  0  0  0
 27 86  1  0  0  0  0
 28 87  1  0  0  0  0
 29 31  2  0  0  0  0
 29 86  1  0  0  0  0
 30 88  1  0  0  0  0
 31 89  1  0  0  0  0
 32 69  2  0  0  0  0
 33 70  1  0  0  0  0
 33 73  1  0  0  0  0
 34 74  1  0  0  0  0
 34 80  2  0  0  0  0
 35 53  1  0  0  0  0
 35 75  1  0  0  0  0
 35 81  2  0  0  0  0
 36 65  1  0  0  0  0
 36 71  1  0  0  0  0
 36 82  2  0  0  0  0
 37 66  1  0  0  0  0
 37 76  1  0  0  0  0
 37 83  2  0  0  0  0
 38 72  1  0  0  0  0
 38 77  1  0  0  0  0
 38 84  2  0  0  0  0
 39 42  1  0  0  0  0
 40 53  1  0  0  0  0
 41 71  1  0  0  0  0
 42 47  1  0  0  0  0
 43 45  1  0  0  0  0
 43 46  1  0  0  0  0
 44 48  1  0  0  0  0
 44 49  1  0  0  0  0
 45 51  1  0  0  0  0
 46 51  1  0  0  0  0
 47 52  1  0  0  0  0
 48 54  1  0  0  0  0
 49 72  1  0  0  0  0
 50 54  1  0  0  0  0
 50 72  1  0  0  0  0
 52 75  1  0  0  0  0
 53 71  1  0  0  0  0
 54 70  1  0  0  0  0
 55 66  1  0  0  0  0
 56 68  1  0  0  0  0
 57 68  1  0  0  0  0
 58 68  1  0  0  0  0
 59 78  1  0  0  0  0
 60 62  1  0  0  0  0
 61 77  1  0  0  0  0
 62 79  1  0  0  0  0
 63 67  1  0  0  0  0
 63 79  1  0  0  0  0
 64 67  1  0  0  0  0
 64 87  1  0  0  0  0
 65 68  1  0  0  0  0
 65 76  1  0  0  0  0
 66 78  1  0  0  0  0
 67 85  1  0  0  0  0
 69 70  1  0  0  0  0
M  CHG  2  78   1  79   1
M  ISO  4  38 100  64 101  77 100  87 101
M  END
> <Batch ID>
0124

> <Smiles>
CNC(C)C(=O)NC(C(=O)N1Cc2cc([101O:1][101CH2:1]C(O)CNCCc3cc(C[100NH:0][100C:0](=O)N4CCCC(n5nc(-c6ccc(Oc7ccc(F)cc7F)cc6)c(C(N)=O)c5N)C4)ccc3C3CCC3)ccc2CC1C(=O)NC1CCCc2ccccc21)C(C)(C)C

> <Shape>
0.226

> <Color>
0.043

> <Negative vol penalty>
0.000

$$$$

  -OEChem-04052320333D

 84 93  0     1  0  0  0  0  0999 V2000
  -18.9637  -22.2225   28.5896 C   0  0  0  0  0  0  0  0  0  0  0  0
  -20.0516  -21.8595   27.8021 C   0  0  0  0  0  0  0  0  0  0  0  0
  -22.9509   -9.9008   20.0449 C   0  0  0  0  0  0  0  0  0  0  0  0
  -23.6273  -10.0623   22.3586 C   0  0  0  0  0  0  0  0  0  0  0  0
  -18.1942  -23.3327   28.2443 C   0  0  0  0  0  0  0  0  0  0  0  0
  -20.3699  -22.6059   26.6681 C   0  0  0  0  0  0  0  0  0  0  0  0
  -25.3320  -23.5438   26.2896 C   0  0  0  0  0  0  0  0  0  0  0  0
  -22.1535   -8.7991   20.3549 C   0  0  0  0  0  0  0  0  0  0  0  0
  -22.8299   -8.9606   22.6687 C   0  0  0  0  0  0  0  0  0  0  0  0
  -26.1423  -22.5081   25.8265 C   0  0  0  0  0  0  0  0  0  0  0  0
  -23.0093   -5.5964   22.3842 C   0  0  0  0  0  0  0  0  0  0  0  0
  -23.5576   -4.6097   23.2035 C   0  0  0  0  0  0  0  0  0  0  0  0
  -26.1613  -23.5118   23.6330 C   0  0  0  0  0  0  0  0  0  0  0  0
  -21.8040   -4.9804   24.8235 C   0  0  0  0  0  0  0  0  0  0  0  0
  -32.0375  -18.2639   23.8954 C   0  0  0  0  0  0  0  0  0  0  0  0
  -32.0912  -16.4763   22.4512 C   0  0  0  0  0  0  0  0  0  0  0  0
  -23.6878  -10.5324   21.0468 C   0  0  0  0  0  0  0  0  0  0  0  0
  -30.6592  -18.3847   23.7674 C   0  0  0  0  0  0  0  0  0  0  0  0
  -29.9894  -17.4936   22.9331 C   0  0  0  0  0  0  0  0  0  0  0  0
  -24.1332  -13.0258   20.7434 C   0  0  0  0  0  0  0  0  0  0  0  0
  -18.5091  -24.0988   27.1108 C   0  0  0  0  0  0  0  0  0  0  0  0
  -24.9206  -24.5673   25.4237 C   0  0  0  0  0  0  0  0  0  0  0  0
  -19.6031  -23.7266   26.3065 C   0  0  0  0  0  0  0  0  0  0  0  0
  -25.3479  -24.5607   24.0882 C   0  0  0  0  0  0  0  0  0  0  0  0
  -30.7186  -16.5157   22.2579 C   0  0  0  0  0  0  0  0  0  0  0  0
  -22.0930   -8.3290   21.6668 C   0  0  0  0  0  0  0  0  0  0  0  0
  -26.5547  -22.4904   24.4973 C   0  0  0  0  0  0  0  0  0  0  0  0
  -21.8584   -6.2753   22.7846 C   0  0  0  0  0  0  0  0  0  0  0  0
  -22.9549   -4.3016   24.4231 C   0  0  0  0  0  0  0  0  0  0  0  0
  -21.2557   -5.9673   24.0042 C   0  0  0  0  0  0  0  0  0  0  0  0
  -24.5121  -11.6701   20.7270 C   0  0  0  0  0  0  0  0  0  0  0  0
  -25.2665  -13.7036   20.3656 C   0  0  0  0  0  0  0  0  0  0  0  0
  -28.5441  -17.6013   22.7833 C   0  0  0  0  0  0  0  0  0  0  0  0
  -29.9028  -19.4307   24.4935 C   0  0  0  0  0  0  0  0  0  0  0  0
  -27.8584  -18.5509   23.4427 C   0  0  0  0  0  0  0  0  0  0  0  0
  -22.8698  -13.6193   21.0708 C   0  0  0  0  0  0  0  0  0  0  0  0
  -22.1139  -25.6086   24.3553 C   0  0  0  0  0  0  0  0  0  0  0  0
  -23.9264  -27.9506   23.0316 C   0  0  0  0  0  0  0  0  0  0  0  0
  -26.9816  -28.9523   21.8876 C   0  0  0  0  0  0  0  0  0  0  0  0
  -30.7599  -14.5594   20.6713 C   0  0  0  0  0  0  0  0  0  0  0  0
  -17.6197  -25.2625   26.7512 C   0  0  0  0  0  0  0  0  0  0  0  0
  -24.0686  -25.6917   25.9454 C   0  0  0  0  0  0  0  0  0  0  0  0
  -24.9506  -25.6467   23.1232 C   0  0  0  0  0  0  0  0  0  0  0  0
  -18.2487  -26.2213   25.7435 C   0  0  0  0  0  0  0  0  0  0  0  0
  -29.6371  -12.0073   18.4571 C   0  0  0  0  0  0  0  0  0  0  0  0
  -18.8732  -25.4464   24.5875 C   0  0  0  0  0  0  0  0  0  0  0  0
  -28.1725  -11.8035   18.8516 C   0  0  0  0  0  0  0  0  0  0  0  0
  -30.5166  -12.2973   19.6720 C   0  0  0  0  0  0  0  0  0  0  0  0
  -28.5912  -13.1985   20.9170 C   0  0  0  0  0  0  0  0  0  0  0  0
  -19.9951  -24.5257   25.0826 C   0  0  1  0  0  0  0  0  0  0  0  0
  -23.2870  -26.4077   24.8482 C   0  0  1  0  0  0  0  0  0  0  0  0
  -27.6554  -12.9678   19.7192 C   0  0  2  0  0  0  0  0  0  0  0  0
  -26.3653  -18.6453   23.2734 C   0  0  0  0  0  0  0  0  0  0  0  0
  -28.1443  -30.9077   20.8282 C   0  0  0  0  0  0  0  0  0  0  0  0
  -22.6311  -27.2674   20.3547 C   0  0  0  0  0  0  0  0  0  0  0  0
  -24.4642  -28.5418   19.2216 C   0  0  0  0  0  0  0  0  0  0  0  0
  -22.9124  -29.7152   20.7829 C   0  0  0  0  0  0  0  0  0  0  0  0
  -28.8409  -29.2334   24.1730 C   0  0  0  0  0  0  0  0  0  0  0  0
  -27.7136  -20.4726   24.9811 C   0  0  0  0  0  0  0  0  0  1  0  0
  -24.6470  -28.1308   21.7174 C   0  0  1  0  0  0  0  0  0  0  0  0
  -27.7846  -30.2168   22.1344 C   0  0  2  0  0  0  0  0  0  0  0  0
  -23.6698  -28.3921   20.5366 C   0  0  0  0  0  0  0  0  0  0  0  0
  -32.7701  -17.3262   23.2535 N   0  0  0  0  0  0  0  0  0  0  0  0
  -25.7865  -11.4951   20.3672 N   0  0  0  0  0  0  0  0  0  0  0  0
  -26.2182  -12.7498   20.1538 N   0  0  0  0  0  0  0  0  0  0  0  0
  -28.4942  -19.4780   24.3007 N   0  0  0  0  0  0  0  0  0  0  0  0
  -24.1115  -26.7210   23.6794 N   0  0  0  0  0  0  0  0  0  0  0  0
  -29.9675  -13.4143   20.4437 N   0  0  0  0  0  0  0  0  0  0  0  0
  -25.5318  -15.0165   20.1971 N   0  0  0  0  0  0  0  0  0  0  0  0
  -21.8113  -12.7774   21.4383 N   0  0  0  0  0  0  0  0  0  0  0  0
  -30.1205  -15.5696   21.3891 N   0  0  0  0  0  0  0  0  0  0  0  0
  -21.1982  -25.2880   25.3393 N   0  0  0  0  0  0  0  0  0  0  0  0
  -25.6246  -29.1927   21.9301 N   0  0  0  0  0  0  0  0  0  0  0  0
  -29.0465  -29.8958   22.8593 N   0  3  0  0  0  0  0  0  0  0  0  0
  -30.5237  -20.2019   25.2221 O   0  0  0  0  0  0  0  0  0  0  0  0
  -22.6805  -14.8584   21.0226 O   0  0  0  0  0  0  0  0  0  0  0  0
  -22.0439  -25.3066   23.1697 O   0  0  0  0  0  0  0  0  0  0  0  0
  -23.2307  -28.8697   23.4708 O   0  0  0  0  0  0  0  0  0  0  0  0
  -27.5059  -27.8613   21.6745 O   0  0  0  0  0  0  0  0  0  0  0  0
  -31.9109  -14.6490   20.2364 O   0  0  0  0  0  0  0  0  0  0  0  0
  -21.3149   -7.2542   21.9697 O   0  0  0  0  0  0  0  0  0  0  0  0
  -27.3450  -21.4803   24.0426 O   0  0  0  0  0  0  0  0  0  1  0  0
  -23.4806   -3.3529   25.2091 F   0  0  0  0  0  0  0  0  0  0  0  0
  -20.1493   -6.6152   24.3937 F   0  0  0  0  0  0  0  0  0  0  0  0
  1  2  1  0  0  0  0
  1  5  2  0  0  0  0
  2  6  2  0  0  0  0
  3  8  2  0  0  0  0
  3 17  1  0  0  0  0
  4  9  1  0  0  0  0
  4 17  2  0  0  0  0
  5 21  1  0  0  0  0
  6 23  1  0  0  0  0
  7 10  2  0  0  0  0
  7 22  1  0  0  0  0
  8 26  1  0  0  0  0
  9 26  2  0  0  0  0
 10 27  1  0  0  0  0
 11 12  2  0  0  0  0
 11 28  1  0  0  0  0
 12 29  1  0  0  0  0
 13 24  1  0  0  0  0
 13 27  2  0  0  0  0
 14 29  2  0  0  0  0
 14 30  1  0  0  0  0
 15 18  1  0  0  0  0
 15 63  2  0  0  0  0
 16 25  2  0  0  0  0
 16 63  1  0  0  0  0
 17 31  1  0  0  0  0
 18 19  2  0  0  0  0
 18 34  1  0  0  0  0
 19 25  1  0  0  0  0
 19 33  1  0  0  0  0
 20 31  1  0  0  0  0
 20 32  2  0  0  0  0
 20 36  1  0  0  0  0
 21 23  2  0  0  0  0
 21 41  1  0  0  0  0
 22 24  2  0  0  0  0
 22 42  1  0  0  0  0
 23 50  1  0  0  0  0
 24 43  1  0  0  0  0
 25 71  1  0  0  0  0
 26 81  1  0  0  0  0
 27 82  1  0  0  0  0
 28 30  2  0  0  0  0
 28 81  1  0  0  0  0
 29 83  1  0  0  0  0
 30 84  1  0  0  0  0
 31 64  2  0  0  0  0
 32 65  1  0  0  0  0
 32 69  1  0  0  0  0
 33 35  2  0  0  0  0
 34 66  1  0  0  0  0
 34 75  2  0  0  0  0
 35 53  1  0  0  0  0
 35 66  1  0  0  0  0
 36 70  1  0  0  0  0
 36 76  2  0  0  0  0
 37 51  1  0  0  0  0
 37 72  1  0  0  0  0
 37 77  2  0  0  0  0
 38 60  1  0  0  0  0
 38 67  1  0  0  0  0
 38 78  2  0  0  0  0
 39 61  1  0  0  0  0
 39 73  1  0  0  0  0
 39 79  2  0  0  0  0
 40 68  1  0  0  0  0
 40 71  1  0  0  0  0
 40 80  2  0  0  0  0
 41 44  1  0  0  0  0
 42 51  1  0  0  0  0
 43 67  1  0  0  0  0
 44 46  1  0  0  0  0
 45 47  1  0  0  0  0
 45 48  1  0  0  0  0
 46 50  1  0  0  0  0
 47 52  1  0  0  0  0
 48 68  1  0  0  0  0
 49 52  1  0  0  0  0
 49 68  1  0  0  0  0
 50 72  1  0  0  0  0
 51 67  1  0  0  0  0
 52 65  1  0  0  0  0
 54 61  1  0  0  0  0
 55 62  1  0  0  0  0
 56 62  1  0  0  0  0
 57 62  1  0  0  0  0
 58 74  1  0  0  0  0
 59 66  1  0  0  0  0
 59 82  1  0  0  0  0
 60 62  1  0  0  0  0
 60 73  1  0  0  0  0
 61 74  1  0  0  0  0
 64 65  1  0  0  0  0
M  CHG  1  74   1
M  ISO  4  40 100  59 101  71 100  82 101
M  END
> <Batch ID>
0124

> <Smiles>
CNC(C)C(=O)NC(C(=O)N1Cc2cc([101O:1][101CH2:1]n3c(C)cc4c([100NH:0][100C:0](=O)N5CCCC(n6nc(-c7ccc(Oc8ccc(F)cc8F)cc7)c(C(N)=O)c6N)C5)cncc4c3=O)ccc2CC1C(=O)NC1CCCc2ccccc21)C(C)(C)C

> <Shape>
0.232

> <Color>
0.212

> <Negative vol penalty>
0.000

$$$$

  -OEChem-04052320333D

 81 89  0     1  0  0  0  0  0999 V2000
  -19.0699  -27.7384   23.8882 C   0  0  0  0  0  0  0  0  0  0  0  0
  -20.1087  -26.9488   23.4056 C   0  0  0  0  0  0  0  0  0  0  0  0
  -22.9871  -10.0114   19.9362 C   0  0  0  0  0  0  0  0  0  0  0  0
  -23.8581   -9.8459   22.1837 C   0  0  0  0  0  0  0  0  0  0  0  0
  -18.1795  -28.3371   22.9979 C   0  0  0  0  0  0  0  0  0  0  0  0
  -20.2569  -26.7565   22.0325 C   0  0  0  0  0  0  0  0  0  0  0  0
  -25.0646  -27.2273   20.5127 C   0  0  0  0  0  0  0  0  0  0  0  0
  -22.2188   -8.8671   20.1497 C   0  0  0  0  0  0  0  0  0  0  0  0
  -23.0896   -8.7015   22.3972 C   0  0  0  0  0  0  0  0  0  0  0  0
  -25.9154  -26.1483   20.7483 C   0  0  0  0  0  0  0  0  0  0  0  0
  -21.0832   -5.9433   23.6559 C   0  0  0  0  0  0  0  0  0  0  0  0
  -20.3841   -5.8458   24.8589 C   0  0  0  0  0  0  0  0  0  0  0  0
  -25.6479  -25.4446   18.4565 C   0  0  0  0  0  0  0  0  0  0  0  0
  -19.1699   -7.8629   24.3167 C   0  0  0  0  0  0  0  0  0  0  0  0
  -23.8069  -10.5008   20.9532 C   0  0  0  0  0  0  0  0  0  0  0  0
  -24.2256  -13.0171   20.9772 C   0  0  0  0  0  0  0  0  0  0  0  0
  -18.3226  -28.1599   21.6127 C   0  0  0  0  0  0  0  0  0  0  0  0
  -24.4894  -27.4172   19.2479 C   0  0  0  0  0  0  0  0  0  0  0  0
  -19.3667  -27.3522   21.1230 C   0  0  0  0  0  0  0  0  0  0  0  0
  -24.7921  -26.5282   18.2067 C   0  0  0  0  0  0  0  0  0  0  0  0
  -22.2700   -8.2121   21.3802 C   0  0  0  0  0  0  0  0  0  0  0  0
  -26.2049  -25.2551   19.7210 C   0  0  0  0  0  0  0  0  0  0  0  0
  -20.8257   -7.0006   22.7833 C   0  0  0  0  0  0  0  0  0  0  0  0
  -19.4274   -6.8056   25.1894 C   0  0  0  0  0  0  0  0  0  0  0  0
  -19.8690   -7.9604   23.1137 C   0  0  0  0  0  0  0  0  0  0  0  0
  -24.6013  -11.6826   20.7331 C   0  0  0  0  0  0  0  0  0  0  0  0
  -25.3228  -13.7559   20.6073 C   0  0  0  0  0  0  0  0  0  0  0  0
  -22.9948  -13.5421   21.4923 C   0  0  0  0  0  0  0  0  0  0  0  0
  -21.5177  -27.4766   18.1212 C   0  0  0  0  0  0  0  0  0  0  0  0
  -22.9936  -28.3585   15.3705 C   0  0  0  0  0  0  0  0  0  0  0  0
  -25.8343  -28.3616   13.4791 C   0  0  0  0  0  0  0  0  0  0  0  0
  -30.8398  -14.5967   20.5807 C   0  0  0  0  0  0  0  0  0  0  0  0
  -17.3072  -28.7887   20.6917 C   0  0  0  0  0  0  0  0  0  0  0  0
  -23.5948  -28.6012   19.0027 C   0  0  0  0  0  0  0  0  0  0  0  0
  -24.2165  -26.6992   16.8254 C   0  0  0  0  0  0  0  0  0  0  0  0
  -17.7569  -28.8403   19.2338 C   0  0  0  0  0  0  0  0  0  0  0  0
  -29.5088  -12.4082   18.1078 C   0  0  0  0  0  0  0  0  0  0  0  0
  -18.3378  -27.4961   18.8064 C   0  0  0  0  0  0  0  0  0  0  0  0
  -28.7470  -21.8959   20.3326 C   0  0  0  0  0  0  0  0  0  0  0  0
  -26.9354  -20.5039   19.2432 C   0  0  0  0  0  0  0  0  0  0  0  0
  -28.0853  -12.1297   18.5938 C   0  0  0  0  0  0  0  0  0  0  0  0
  -29.2279  -20.6662   21.1030 C   0  0  0  0  0  0  0  0  0  0  0  0
  -27.4170  -19.2748   20.0138 C   0  0  0  0  0  0  0  0  0  0  0  0
  -30.4903  -12.5227   19.2720 C   0  0  0  0  0  0  0  0  0  0  0  0
  -28.6838  -13.2179   20.7975 C   0  0  0  0  0  0  0  0  0  0  0  0
  -19.5752  -27.1401   19.6392 C   0  0  1  0  0  0  0  0  0  0  0  0
  -22.6577  -28.4062   17.8148 C   0  0  1  0  0  0  0  0  0  0  0  0
  -27.2517  -21.8048   19.9952 C   0  0  0  0  0  0  0  0  0  0  0  0
  -27.6480  -13.1497   19.6623 C   0  0  2  0  0  0  0  0  0  0  0  0
  -28.9039  -19.3850   20.3396 C   0  0  0  0  0  0  0  0  0  0  0  0
  -26.7228  -29.1270   11.2605 C   0  0  0  0  0  0  0  0  0  0  0  0
  -21.5235  -26.0664   13.9938 C   0  0  0  0  0  0  0  0  0  0  0  0
  -23.1291  -26.2759   12.0843 C   0  0  0  0  0  0  0  0  0  0  0  0
  -21.6308  -28.1834   12.6667 C   0  0  0  0  0  0  0  0  0  0  0  0
  -27.8629  -30.0953   14.7588 C   0  0  0  0  0  0  0  0  0  0  0  0
  -26.8085  -23.0189   19.1812 C   0  0  0  0  0  0  0  0  0  1  0  0
  -31.0370  -16.6590   21.9473 C   0  0  0  0  0  0  0  0  0  0  0  0
  -30.7463  -17.8700   21.0806 C   0  0  0  0  0  0  0  0  0  0  0  0
  -23.5733  -27.6245   14.1855 C   0  0  1  0  0  0  0  0  0  0  0  0
  -26.5445  -29.4748   12.7301 C   0  0  2  0  0  0  0  0  0  0  0  0
  -22.4736  -27.0330   13.2590 C   0  0  0  0  0  0  0  0  0  0  0  0
  -25.8404  -11.5766   20.2457 N   0  0  0  0  0  0  0  0  0  0  0  0
  -26.2527  -12.8541   20.1804 N   0  0  0  0  0  0  0  0  0  0  0  0
  -23.3422  -27.8687   16.6372 N   0  0  0  0  0  0  0  0  0  0  0  0
  -30.0180  -13.5070   20.2487 N   0  0  0  0  0  0  0  0  0  0  0  0
  -25.5732  -15.0824   20.6087 N   0  0  0  0  0  0  0  0  0  0  0  0
  -21.9711  -12.6433   21.8220 N   0  0  0  0  0  0  0  0  0  0  0  0
  -20.7266  -27.8856   19.1777 N   0  0  0  0  0  0  0  0  0  0  0  0
  -24.4711  -28.5642   13.5226 N   0  0  0  0  0  0  0  0  0  0  0  0
  -30.3135  -15.4860   21.5097 N   0  0  0  0  0  0  0  0  0  0  0  0
  -29.3030  -18.2168   21.1686 N   0  3  0  0  0  0  0  0  0  0  0  0
  -27.8902  -29.7205   13.3215 N   0  3  0  0  0  0  0  0  0  0  0  0
  -22.8024  -14.7728   21.6400 O   0  0  0  0  0  0  0  0  0  0  0  0
  -21.3662  -26.4639   17.4480 O   0  0  0  0  0  0  0  0  0  0  0  0
  -22.2643  -29.3348   15.1795 O   0  0  0  0  0  0  0  0  0  0  0  0
  -26.4289  -27.4059   13.9726 O   0  0  0  0  0  0  0  0  0  0  0  0
  -31.9574  -14.7676   20.0819 O   0  0  0  0  0  0  0  0  0  0  0  0
  -21.5201   -7.0956   21.5889 O   0  0  0  0  0  0  0  0  0  0  0  0
  -27.0346  -24.2007   19.9485 O   0  0  0  0  0  0  0  0  0  1  0  0
  -18.7550   -6.7110   26.3440 F   0  0  0  0  0  0  0  0  0  0  0  0
  -19.6165   -8.9778   22.2789 F   0  0  0  0  0  0  0  0  0  0  0  0
  1  2  1  0  0  0  0
  1  5  2  0  0  0  0
  2  6  2  0  0  0  0
  3  8  2  0  0  0  0
  3 15  1  0  0  0  0
  4  9  1  0  0  0  0
  4 15  2  0  0  0  0
  5 17  1  0  0  0  0
  6 19  1  0  0  0  0
  7 10  2  0  0  0  0
  7 18  1  0  0  0  0
  8 21  1  0  0  0  0
  9 21  2  0  0  0  0
 10 22  1  0  0  0  0
 11 12  2  0  0  0  0
 11 23  1  0  0  0  0
 12 24  1  0  0  0  0
 13 20  1  0  0  0  0
 13 22  2  0  0  0  0
 14 24  2  0  0  0  0
 14 25  1  0  0  0  0
 15 26  1  0  0  0  0
 16 26  1  0  0  0  0
 16 27  2  0  0  0  0
 16 28  1  0  0  0  0
 17 19  2  0  0  0  0
 17 33  1  0  0  0  0
 18 20  2  0  0  0  0
 18 34  1  0  0  0  0
 19 46  1  0  0  0  0
 20 35  1  0  0  0  0
 21 78  1  0  0  0  0
 22 79  1  0  0  0  0
 23 25  2  0  0  0  0
 23 78  1  0  0  0  0
 24 80  1  0  0  0  0
 25 81  1  0  0  0  0
 26 62  2  0  0  0  0
 27 63  1  0  0  0  0
 27 66  1  0  0  0  0
 28 67  1  0  0  0  0
 28 73  2  0  0  0  0
 29 47  1  0  0  0  0
 29 68  1  0  0  0  0
 29 74  2  0  0  0  0
 30 59  1  0  0  0  0
 30 64  1  0  0  0  0
 30 75  2  0  0  0  0
 31 60  1  0  0  0  0
 31 69  1  0  0  0  0
 31 76  2  0  0  0  0
 32 65  1  0  0  0  0
 32 70  1  0  0  0  0
 32 77  2  0  0  0  0
 33 36  1  0  0  0  0
 34 47  1  0  0  0  0
 35 64  1  0  0  0  0
 36 38  1  0  0  0  0
 37 41  1  0  0  0  0
 37 44  1  0  0  0  0
 38 46  1  0  0  0  0
 39 42  1  0  0  0  0
 39 48  1  0  0  0  0
 40 43  1  0  0  0  0
 40 48  1  0  0  0  0
 41 49  1  0  0  0  0
 42 50  1  0  0  0  0
 43 50  1  0  0  0  0
 44 65  1  0  0  0  0
 45 49  1  0  0  0  0
 45 65  1  0  0  0  0
 46 68  1  0  0  0  0
 47 64  1  0  0  0  0
 48 56  1  0  0  0  0
 49 63  1  0  0  0  0
 50 71  1  0  0  0  0
 51 60  1  0  0  0  0
 52 61  1  0  0  0  0
 53 61  1  0  0  0  0
 54 61  1  0  0  0  0
 55 72  1  0  0  0  0
 56 79  1  0  0  0  0
 57 58  1  0  0  0  0
 57 70  1  0  0  0  0
 58 71  1  0  0  0  0
 59 61  1  0  0  0  0
 59 69  1  0  0  0  0
 60 72  1  0  0  0  0
 62 63  1  0  0  0  0
M  CHG  2  71   1  72   1
M  ISO  4  32 100  56 101  70 100  79 101
M  END
> <Batch ID>
0124

> <Smiles>
CNC(C)C(=O)NC(C(=O)N1Cc2cc([101O:1][101CH2:1]C3CCC(NCC[100NH:0][100C:0](=O)N4CCCC(n5nc(-c6ccc(Oc7ccc(F)cc7F)cc6)c(C(N)=O)c5N)C4)CC3)ccc2CC1C(=O)NC1CCCc2ccccc21)C(C)(C)C

> <Shape>
0.278

> <Color>
0.211

> <Negative vol penalty>
0.000

$$$$

  -OEChem-04052320333D

 84 93  0     1  0  0  0  0  0999 V2000
  -25.1879  -11.5678   20.2593 C   0  0  0  0  0  0  0  0  0  0  0  0
  -25.5705  -12.6028   19.4120 C   0  0  0  0  0  0  0  0  0  0  0  0
  -20.4270  -23.9668   20.7190 C   0  0  0  0  0  0  0  0  0  0  0  0
  -19.3431  -23.4547   22.8166 C   0  0  0  0  0  0  0  0  0  0  0  0
  -24.7971  -11.8482   21.5679 C   0  0  0  0  0  0  0  0  0  0  0  0
  -25.5615  -13.9189   19.8725 C   0  0  0  0  0  0  0  0  0  0  0  0
  -29.0481  -20.1286   19.0984 C   0  0  0  0  0  0  0  0  0  0  0  0
  -20.6939  -22.6114   20.5260 C   0  0  0  0  0  0  0  0  0  0  0  0
  -19.6099  -22.0993   22.6236 C   0  0  0  0  0  0  0  0  0  0  0  0
  -28.8048  -21.4731   18.8212 C   0  0  0  0  0  0  0  0  0  0  0  0
  -20.3222  -18.5429   22.8580 C   0  0  0  0  0  0  0  0  0  0  0  0
  -20.8149  -17.8183   23.9431 C   0  0  0  0  0  0  0  0  0  0  0  0
  -28.1868  -21.8303   21.1254 C   0  0  0  0  0  0  0  0  0  0  0  0
  -22.7360  -19.2798   24.0468 C   0  0  0  0  0  0  0  0  0  0  0  0
  -19.7516  -24.3885   21.8644 C   0  0  0  0  0  0  0  0  0  0  0  0
  -18.3340  -26.4983   21.6479 C   0  0  0  0  0  0  0  0  0  0  0  0
  -24.7925  -13.1675   22.0478 C   0  0  0  0  0  0  0  0  0  0  0  0
  -28.8517  -19.6216   20.3910 C   0  0  0  0  0  0  0  0  0  0  0  0
  -25.1689  -14.2174   21.1884 C   0  0  0  0  0  0  0  0  0  0  0  0
  -28.4307  -20.4795   21.4171 C   0  0  0  0  0  0  0  0  0  0  0  0
  -20.2853  -21.6776   21.4783 C   0  0  0  0  0  0  0  0  0  0  0  0
  -28.3713  -22.3236   19.8341 C   0  0  0  0  0  0  0  0  0  0  0  0
  -21.0363  -19.6360   22.3671 C   0  0  0  0  0  0  0  0  0  0  0  0
  -22.0218  -18.1867   24.5376 C   0  0  0  0  0  0  0  0  0  0  0  0
  -22.2432  -20.0044   22.9616 C   0  0  0  0  0  0  0  0  0  0  0  0
  -19.4762  -25.7885   22.0646 C   0  0  0  0  0  0  0  0  0  0  0  0
  -27.4115  -25.8175   20.2017 C   0  0  0  0  0  0  0  0  0  0  0  0
  -26.1926  -26.4179   19.9909 C   0  0  0  0  0  0  0  0  0  0  0  0
  -18.5538  -27.7846   22.0764 C   0  0  0  0  0  0  0  0  0  0  0  0
  -27.8563  -27.7943   19.5498 C   0  0  0  0  0  0  0  0  0  0  0  0
  -17.1778  -26.0361   20.9371 C   0  0  0  0  0  0  0  0  0  0  0  0
  -26.9537  -17.4165   21.6712 C   0  0  0  0  0  0  0  0  0  0  0  0
  -28.6953  -18.0259   24.3391 C   0  0  0  0  0  0  0  0  0  0  0  0
  -30.6628  -20.2044   26.0797 C   0  0  0  0  0  0  0  0  0  0  0  0
  -23.5439  -30.8480   23.3041 C   0  0  0  0  0  0  0  0  0  0  0  0
  -24.3169  -13.4263   23.4554 C   0  0  0  0  0  0  0  0  0  0  0  0
  -29.1442  -18.1747   20.6799 C   0  0  0  0  0  0  0  0  0  0  0  0
  -28.2242  -19.9891   22.8261 C   0  0  0  0  0  0  0  0  0  0  0  0
  -24.6937  -14.8091   23.9810 C   0  0  0  0  0  0  0  0  0  0  0  0
  -20.7983  -30.2887   25.4550 C   0  0  0  0  0  0  0  0  0  0  0  0
  -24.3826  -15.8791   22.9394 C   0  0  0  0  0  0  0  0  0  0  0  0
  -20.0540  -29.1178   24.8191 C   0  0  0  0  0  0  0  0  0  0  0  0
  -24.7735  -31.0758   19.8207 C   0  0  0  0  0  0  0  0  0  0  0  0
  -22.3042  -30.1148   25.3103 C   0  0  0  0  0  0  0  0  0  0  0  0
  -24.2771  -31.7198   21.1058 C   0  0  0  0  0  0  0  0  0  0  0  0
  -24.3931  -29.3417   21.4077 C   0  0  0  0  0  0  0  0  0  0  0  0
  -22.0116  -28.8211   23.2150 C   0  0  0  0  0  0  0  0  0  0  0  0
  -25.1960  -15.6555   21.6588 C   0  0  1  0  0  0  0  0  0  0  0  0
  -28.4172  -17.6533   21.9156 C   0  0  1  0  0  0  0  0  0  0  0  0
  -25.3769  -29.7606   20.3153 C   0  0  1  0  0  0  0  0  0  0  0  0
  -20.4796  -28.9375   23.3537 C   0  0  1  0  0  0  0  0  0  0  0  0
  -24.8128  -25.9219   20.1419 C   0  0  0  0  0  0  0  0  0  0  0  0
  -28.5385  -29.0387   19.1386 C   0  0  0  0  0  0  0  0  0  0  0  0
  -31.9063  -20.4356   28.2471 C   0  0  0  0  0  0  0  0  0  0  0  0
  -26.0597  -18.5173   25.7959 C   0  0  0  0  0  0  0  0  0  0  0  0
  -27.3571  -19.6411   27.6185 C   0  0  0  0  0  0  0  0  0  0  0  0
  -27.7545  -17.2314   27.1107 C   0  0  0  0  0  0  0  0  0  0  0  0
  -33.2595  -20.5048   24.6918 C   0  0  0  0  0  0  0  0  0  0  0  0
  -27.6891  -24.4469   20.6598 C   0  0  0  0  0  0  0  0  0  1  0  0
  -25.5361  -28.7241   19.2175 C   0  0  0  0  0  0  0  0  0  0  0  0
  -28.5797  -18.9912   25.4939 C   0  0  1  0  0  0  0  0  0  0  0  0
  -31.9922  -20.0158   26.7879 C   0  0  2  0  0  0  0  0  0  0  0  0
  -27.4397  -18.6044   26.4779 C   0  0  0  0  0  0  0  0  0  0  0  0
  -20.3563  -26.5600   22.7083 N   0  0  0  0  0  0  0  0  0  0  0  0
  -28.4430  -26.6796   19.9255 N   0  0  0  0  0  0  0  0  0  0  0  0
  -26.4937  -27.6839   19.5741 N   0  0  0  0  0  0  0  0  0  0  0  0
  -19.7671  -27.7678   22.6992 N   0  0  0  0  0  0  0  0  0  0  0  0
  -28.5174  -18.5650   23.0571 N   0  0  0  0  0  0  0  0  0  0  0  0
  -22.6970  -29.9159   23.9140 N   0  0  0  0  0  0  0  0  0  0  0  0
  -23.9393  -30.6077   21.9888 N   0  0  0  0  0  0  0  0  0  0  0  0
  -17.8257  -28.9170   21.9774 N   0  0  0  0  0  0  0  0  0  0  0  0
  -17.1135  -24.6842   20.5730 N   0  0  0  0  0  0  0  0  0  0  0  0
  -26.5601  -16.1030   21.8419 N   0  0  0  0  0  0  0  0  0  0  0  0
  -29.9021  -19.0547   26.1068 N   0  0  0  0  0  0  0  0  0  0  0  0
  -33.0515  -20.8292   26.1266 N   0  3  0  0  0  0  0  0  0  0  0  0
  -16.2372  -26.8029   20.6194 O   0  0  0  0  0  0  0  0  0  0  0  0
  -26.2345  -18.3562   21.3528 O   0  0  0  0  0  0  0  0  0  0  0  0
  -28.9417  -16.8386   24.5657 O   0  0  0  0  0  0  0  0  0  0  0  0
  -30.3308  -21.2665   25.5579 O   0  0  0  0  0  0  0  0  0  0  0  0
  -23.9654  -31.8347   23.9226 O   0  0  0  0  0  0  0  0  0  0  0  0
  -20.5454  -20.3549   21.2902 O   0  0  0  0  0  0  0  0  0  0  0  0
  -28.1314  -23.6423   19.5647 O   0  0  0  0  0  0  0  0  0  1  0  0
  -22.4941  -17.4916   25.5806 F   0  0  0  0  0  0  0  0  0  0  0  0
  -22.9332  -21.0543   22.4952 F   0  0  0  0  0  0  0  0  0  0  0  0
  1  2  1  0  0  0  0
  1  5  2  0  0  0  0
  2  6  2  0  0  0  0
  3  8  2  0  0  0  0
  3 15  1  0  0  0  0
  4  9  1  0  0  0  0
  4 15  2  0  0  0  0
  5 17  1  0  0  0  0
  6 19  1  0  0  0  0
  7 10  2  0  0  0  0
  7 18  1  0  0  0  0
  8 21  1  0  0  0  0
  9 21  2  0  0  0  0
 10 22  1  0  0  0  0
 11 12  2  0  0  0  0
 11 23  1  0  0  0  0
 12 24  1  0  0  0  0
 13 20  1  0  0  0  0
 13 22  2  0  0  0  0
 14 24  2  0  0  0  0
 14 25  1  0  0  0  0
 15 26  1  0  0  0  0
 16 26  1  0  0  0  0
 16 29  2  0  0  0  0
 16 31  1  0  0  0  0
 17 19  2  0  0  0  0
 17 36  1  0  0  0  0
 18 20  2  0  0  0  0
 18 37  1  0  0  0  0
 19 48  1  0  0  0  0
 20 38  1  0  0  0  0
 21 81  1  0  0  0  0
 22 82  1  0  0  0  0
 23 25  2  0  0  0  0
 23 81  1  0  0  0  0
 24 83  1  0  0  0  0
 25 84  1  0  0  0  0
 26 64  2  0  0  0  0
 27 28  2  0  0  0  0
 27 59  1  0  0  0  0
 27 65  1  0  0  0  0
 28 52  1  0  0  0  0
 28 66  1  0  0  0  0
 29 67  1  0  0  0  0
 29 71  1  0  0  0  0
 30 53  1  0  0  0  0
 30 65  2  0  0  0  0
 30 66  1  0  0  0  0
 31 72  1  0  0  0  0
 31 76  2  0  0  0  0
 32 49  1  0  0  0  0
 32 73  1  0  0  0  0
 32 77  2  0  0  0  0
 33 61  1  0  0  0  0
 33 68  1  0  0  0  0
 33 78  2  0  0  0  0
 34 62  1  0  0  0  0
 34 74  1  0  0  0  0
 34 79  2  0  0  0  0
 35 69  1  0  0  0  0
 35 70  1  0  0  0  0
 35 80  2  0  0  0  0
 36 39  1  0  0  0  0
 37 49  1  0  0  0  0
 38 68  1  0  0  0  0
 39 41  1  0  0  0  0
 40 42  1  0  0  0  0
 40 44  1  0  0  0  0
 41 48  1  0  0  0  0
 42 51  1  0  0  0  0
 43 45  1  0  0  0  0
 43 50  1  0  0  0  0
 44 69  1  0  0  0  0
 45 70  1  0  0  0  0
 46 50  1  0  0  0  0
 46 70  1  0  0  0  0
 47 51  1  0  0  0  0
 47 69  1  0  0  0  0
 48 73  1  0  0  0  0
 49 68  1  0  0  0  0
 50 60  1  0  0  0  0
 51 67  1  0  0  0  0
 54 62  1  0  0  0  0
 55 63  1  0  0  0  0
 56 63  1  0  0  0  0
 57 63  1  0  0  0  0
 58 75  1  0  0  0  0
 59 82  1  0  0  0  0
 60 66  1  0  0  0  0
 61 63  1  0  0  0  0
 61 74  1  0  0  0  0
 62 75  1  0  0  0  0
 64 67  1  0  0  0  0
M  CHG  1  75   1
M  ISO  4  35 100  59 101  70 100  82 101
M  END
> <Batch ID>
0124

> <Smiles>
CNC(C)C(=O)NC(C(=O)N1Cc2cc([101O:1][101CH2:1]c3nc(C)n(CC4CC[100N:0]([100C:0](=O)N5CCCC(n6nc(-c7ccc(Oc8ccc(F)cc8F)cc7)c(C(N)=O)c6N)C5)C4)c3C)ccc2CC1C(=O)NC1CCCc2ccccc21)C(C)(C)C

> <Shape>
0.204

> <Color>
0.082

> <Negative vol penalty>
0.000

$$$$

  -OEChem-04052320333D

 84 93  0     1  0  0  0  0  0999 V2000
  -29.9960  -35.9425   24.0243 C   0  0  0  0  0  0  0  0  0  0  0  0
  -30.0346  -34.6499   23.5114 C   0  0  0  0  0  0  0  0  0  0  0  0
  -22.8962  -10.0230   20.5220 C   0  0  0  0  0  0  0  0  0  0  0  0
  -24.6287   -8.5684   21.3704 C   0  0  0  0  0  0  0  0  0  0  0  0
  -28.8694  -36.3828   24.7177 C   0  0  0  0  0  0  0  0  0  0  0  0
  -28.9469  -33.7963   23.6927 C   0  0  0  0  0  0  0  0  0  0  0  0
  -26.4972  -21.9018   18.9335 C   0  0  0  0  0  0  0  0  0  0  0  0
  -28.5691  -21.9112   20.1761 C   0  0  0  0  0  0  0  0  0  0  0  0
  -26.9085  -29.5485   19.7803 C   0  0  0  0  0  0  0  0  0  0  0  0
  -26.4922  -23.2966   18.9313 C   0  0  0  0  0  0  0  0  0  0  0  0
  -28.5641  -23.3060   20.1739 C   0  0  0  0  0  0  0  0  0  0  0  0
  -21.9959   -9.4881   21.4433 C   0  0  0  0  0  0  0  0  0  0  0  0
  -23.7283   -8.0334   22.2917 C   0  0  0  0  0  0  0  0  0  0  0  0
  -27.0987  -28.1691   19.7106 C   0  0  0  0  0  0  0  0  0  0  0  0
  -21.2100   -5.7775   22.2926 C   0  0  0  0  0  0  0  0  0  0  0  0
  -21.1871   -4.3914   22.4465 C   0  0  0  0  0  0  0  0  0  0  0  0
  -25.0168  -27.8291   20.8809 C   0  0  0  0  0  0  0  0  0  0  0  0
  -21.7679   -4.6406   24.7784 C   0  0  0  0  0  0  0  0  0  0  0  0
  -24.2126   -9.5631   20.4855 C   0  0  0  0  0  0  0  0  0  0  0  0
  -25.0341  -10.0975   18.1303 C   0  0  0  0  0  0  0  0  0  0  0  0
  -27.5356  -21.2091   19.5560 C   0  0  0  0  0  0  0  0  0  0  0  0
  -27.7635  -35.5374   24.8992 C   0  0  0  0  0  0  0  0  0  0  0  0
  -25.7746  -30.0797   20.4115 C   0  0  0  0  0  0  0  0  0  0  0  0
  -27.8050  -34.2252   24.3904 C   0  0  0  0  0  0  0  0  0  0  0  0
  -24.8134  -29.2155   20.9550 C   0  0  0  0  0  0  0  0  0  0  0  0
  -27.5256  -23.9988   19.5515 C   0  0  0  0  0  0  0  0  0  0  0  0
  -22.4119   -8.4933   22.3281 C   0  0  0  0  0  0  0  0  0  0  0  0
  -26.1542  -27.3092   20.2635 C   0  0  0  0  0  0  0  0  0  0  0  0
  -21.5120   -6.5952   23.3816 C   0  0  0  0  0  0  0  0  0  0  0  0
  -21.4660   -3.8229   23.6894 C   0  0  0  0  0  0  0  0  0  0  0  0
  -21.7909   -6.0268   24.6245 C   0  0  0  0  0  0  0  0  0  0  0  0
  -25.1430  -10.1149   19.5337 C   0  0  0  0  0  0  0  0  0  0  0  0
  -26.1628  -10.7448   17.6903 C   0  0  0  0  0  0  0  0  0  0  0  0
  -24.0047   -9.5457   17.2987 C   0  0  0  0  0  0  0  0  0  0  0  0
  -25.2811  -31.9565   22.9290 C   0  0  0  0  0  0  0  0  0  0  0  0
  -22.1982  -31.8315   21.9277 C   0  0  0  0  0  0  0  0  0  0  0  0
  -19.7807  -30.1593   20.1940 C   0  0  0  0  0  0  0  0  0  0  0  0
  -29.7708  -14.8115   20.1995 C   0  0  0  0  0  0  0  0  0  0  0  0
  -26.5870  -36.0421   25.6966 C   0  0  0  0  0  0  0  0  0  0  0  0
  -25.5709  -31.5694   20.4547 C   0  0  0  0  0  0  0  0  0  0  0  0
  -23.5688  -29.7349   21.6256 C   0  0  0  0  0  0  0  0  0  0  0  0
  -25.3259  -35.2001   25.5211 C   0  0  0  0  0  0  0  0  0  0  0  0
  -30.7010  -11.6185   18.9281 C   0  0  0  0  0  0  0  0  0  0  0  0
  -27.4571  -19.1211   20.9851 C   0  0  0  0  0  0  0  0  0  0  0  0
  -28.7599  -19.1224   18.8108 C   0  0  0  0  0  0  0  0  0  0  0  0
  -25.6546  -33.7153   25.6400 C   0  0  0  0  0  0  0  0  0  0  0  0
  -29.3722  -10.8695   18.8125 C   0  0  0  0  0  0  0  0  0  0  0  0
  -27.4496  -17.5921   20.9765 C   0  0  0  0  0  0  0  0  0  0  0  0
  -28.7508  -17.5934   18.8073 C   0  0  0  0  0  0  0  0  0  0  0  0
  -30.7311  -12.5285   20.1541 C   0  0  0  0  0  0  0  0  0  0  0  0
  -28.2745  -12.7249   20.1359 C   0  0  0  0  0  0  0  0  0  0  0  0
  -27.5418  -19.6912   19.5588 C   0  0  0  0  0  0  0  0  0  0  0  0
  -26.6351  -33.2779   24.5450 C   0  0  1  0  0  0  0  0  0  0  0  0
  -24.6338  -32.0121   21.5742 C   0  0  1  0  0  0  0  0  0  0  0  0
  -28.1753  -11.8368   18.8839 C   0  0  2  0  0  0  0  0  0  0  0  0
  -28.6608  -17.0310   20.2276 C   0  0  0  0  0  0  0  0  0  0  0  0
  -17.3491  -30.2844   19.5863 C   0  0  0  0  0  0  0  0  0  0  0  0
  -21.4501  -30.9351   24.7467 C   0  0  0  0  0  0  0  0  0  0  0  0
  -19.2417  -30.1760   23.8441 C   0  0  0  0  0  0  0  0  0  0  0  0
  -19.8742  -32.5860   23.7243 C   0  0  0  0  0  0  0  0  0  0  0  0
  -20.3905  -30.2757   17.3003 C   0  0  0  0  0  0  0  0  0  0  0  0
  -27.5204  -25.4992   19.5472 C   0  0  0  0  0  0  0  0  0  1  0  0
  -21.0214  -30.9263   22.2007 C   0  0  1  0  0  0  0  0  0  0  0  0
  -18.7687  -30.6323   19.1661 C   0  0  2  0  0  0  0  0  0  0  0  0
  -20.4211  -31.1458   23.6181 C   0  0  0  0  0  0  0  0  0  0  0  0
  -26.2533  -10.7248   19.9572 N   0  0  0  0  0  0  0  0  0  0  0  0
  -26.8524  -11.0966   18.8131 N   0  0  0  0  0  0  0  0  0  0  0  0
  -23.4181  -31.1992   21.6482 N   0  0  0  0  0  0  0  0  0  0  0  0
  -29.5701  -13.4217   20.1609 N   0  0  0  0  0  0  0  0  0  0  0  0
  -26.6227  -11.0417   16.4562 N   0  0  0  0  0  0  0  0  0  0  0  0
  -22.9150   -8.9149   17.9143 N   0  0  0  0  0  0  0  0  0  0  0  0
  -25.9445  -33.1156   23.2836 N   0  0  0  0  0  0  0  0  0  0  0  0
  -20.0764  -31.1456   21.1111 N   0  0  0  0  0  0  0  0  0  0  0  0
  -28.6172  -15.5861   20.1968 N   0  0  0  0  0  0  0  0  0  0  0  0
  -19.0367  -29.9970   17.8449 N   0  3  0  0  0  0  0  0  0  0  0  0
  -24.0580   -9.5956   16.0465 O   0  0  0  0  0  0  0  0  0  0  0  0
  -25.1846  -30.9379   23.6034 O   0  0  0  0  0  0  0  0  0  0  0  0
  -22.0394  -33.0545   21.9542 O   0  0  0  0  0  0  0  0  0  0  0  0
  -20.2581  -29.0268   20.1866 O   0  0  0  0  0  0  0  0  0  0  0  0
  -30.8947  -15.3241   20.2284 O   0  0  0  0  0  0  0  0  0  0  0  0
  -21.5336   -7.9712   23.2274 O   0  0  0  0  0  0  0  0  0  0  0  0
  -26.3377  -25.9624   20.1975 O   0  0  0  0  0  0  0  0  0  1  0  0
  -21.4424   -2.4919   23.8374 F   0  0  0  0  0  0  0  0  0  0  0  0
  -22.0805   -6.8073   25.6746 F   0  0  0  0  0  0  0  0  0  0  0  0
  1  2  1  0  0  0  0
  1  5  2  0  0  0  0
  2  6  2  0  0  0  0
  3 12  2  0  0  0  0
  3 19  1  0  0  0  0
  4 13  1  0  0  0  0
  4 19  2  0  0  0  0
  5 22  1  0  0  0  0
  6 24  1  0  0  0  0
  7 10  2  0  0  0  0
  7 21  1  0  0  0  0
  8 11  1  0  0  0  0
  8 21  2  0  0  0  0
  9 14  2  0  0  0  0
  9 23  1  0  0  0  0
 10 26  1  0  0  0  0
 11 26  2  0  0  0  0
 12 27  1  0  0  0  0
 13 27  2  0  0  0  0
 14 28  1  0  0  0  0
 15 16  2  0  0  0  0
 15 29  1  0  0  0  0
 16 30  1  0  0  0  0
 17 25  1  0  0  0  0
 17 28  2  0  0  0  0
 18 30  2  0  0  0  0
 18 31  1  0  0  0  0
 19 32  1  0  0  0  0
 20 32  1  0  0  0  0
 20 33  2  0  0  0  0
 20 34  1  0  0  0  0
 21 52  1  0  0  0  0
 22 24  2  0  0  0  0
 22 39  1  0  0  0  0
 23 25  2  0  0  0  0
 23 40  1  0  0  0  0
 24 53  1  0  0  0  0
 25 41  1  0  0  0  0
 26 62  1  0  0  0  0
 27 81  1  0  0  0  0
 28 82  1  0  0  0  0
 29 31  2  0  0  0  0
 29 81  1  0  0  0  0
 30 83  1  0  0  0  0
 31 84  1  0  0  0  0
 32 66  2  0  0  0  0
 33 67  1  0  0  0  0
 33 70  1  0  0  0  0
 34 71  1  0  0  0  0
 34 76  2  0  0  0  0
 35 54  1  0  0  0  0
 35 72  1  0  0  0  0
 35 77  2  0  0  0  0
 36 63  1  0  0  0  0
 36 68  1  0  0  0  0
 36 78  2  0  0  0  0
 37 64  1  0  0  0  0
 37 73  1  0  0  0  0
 37 79  2  0  0  0  0
 38 69  1  0  0  0  0
 38 74  1  0  0  0  0
 38 80  2  0  0  0  0
 39 42  1  0  0  0  0
 40 54  1  0  0  0  0
 41 68  1  0  0  0  0
 42 46  1  0  0  0  0
 43 47  1  0  0  0  0
 43 50  1  0  0  0  0
 44 48  1  0  0  0  0
 44 52  1  0  0  0  0
 45 49  1  0  0  0  0
 45 52  1  0  0  0  0
 46 53  1  0  0  0  0
 47 55  1  0  0  0  0
 48 56  1  0  0  0  0
 49 56  1  0  0  0  0
 50 69  1  0  0  0  0
 51 55  1  0  0  0  0
 51 69  1  0  0  0  0
 53 72  1  0  0  0  0
 54 68  1  0  0  0  0
 55 67  1  0  0  0  0
 56 74  1  0  0  0  0
 57 64  1  0  0  0  0
 58 65  1  0  0  0  0
 59 65  1  0  0  0  0
 60 65  1  0  0  0  0
 61 75  1  0  0  0  0
 62 82  1  0  0  0  0
 63 65  1  0  0  0  0
 63 73  1  0  0  0  0
 64 75  1  0  0  0  0
 66 67  1  0  0  0  0
M  CHG  1  75   1
M  ISO  4  38 100  62 101  74 100  82 101
M  END
> <Batch ID>
0124

> <Smiles>
CNC(C)C(=O)NC(C(=O)N1Cc2cc([101O:1][101CH2:1]c3ccc(C4CCC([100NH:0][100C:0](=O)N5CCCC(n6nc(-c7ccc(Oc8ccc(F)cc8F)cc7)c(C(N)=O)c6N)C5)CC4)cc3)ccc2CC1C(=O)NC1CCCc2ccccc21)C(C)(C)C

> <Shape>
0.306

> <Color>
0.095

> <Negative vol penalty>
0.000

$$$$

  -OEChem-04052320333D

 83 92  0     1  0  0  0  0  0999 V2000
  -18.7064  -31.7844   18.9206 C   0  0  0  0  0  0  0  0  0  0  0  0
  -20.0026  -31.3116   18.7425 C   0  0  0  0  0  0  0  0  0  0  0  0
  -26.4865  -13.1803   19.1439 C   0  0  0  0  0  0  0  0  0  0  0  0
  -26.4795  -12.7206   21.5158 C   0  0  0  0  0  0  0  0  0  0  0  0
  -18.1876  -31.9253   20.2071 C   0  0  0  0  0  0  0  0  0  0  0  0
  -20.7812  -30.9806   19.8509 C   0  0  0  0  0  0  0  0  0  0  0  0
  -23.2297  -26.5870   19.2627 C   0  0  0  0  0  0  0  0  0  0  0  0
  -29.4683  -22.4858   18.3743 C   0  0  0  0  0  0  0  0  0  0  0  0
  -25.2142  -12.6199   19.0316 C   0  0  0  0  0  0  0  0  0  0  0  0
  -25.2071  -12.1603   21.4034 C   0  0  0  0  0  0  0  0  0  0  0  0
  -24.3763  -26.5982   18.4696 C   0  0  0  0  0  0  0  0  0  0  0  0
  -23.8542   -9.2367   20.3774 C   0  0  0  0  0  0  0  0  0  0  0  0
  -23.6188   -8.0269   21.0307 C   0  0  0  0  0  0  0  0  0  0  0  0
  -29.4198  -21.2999   19.0988 C   0  0  0  0  0  0  0  0  0  0  0  0
  -25.7425  -26.6690   20.4565 C   0  0  0  0  0  0  0  0  0  0  0  0
  -21.8717   -9.0702   22.3331 C   0  0  0  0  0  0  0  0  0  0  0  0
  -30.5693  -23.5068   20.2188 C   0  0  0  0  0  0  0  0  0  0  0  0
  -27.1193  -13.2306   20.3861 C   0  0  0  0  0  0  0  0  0  0  0  0
  -29.6092  -13.3860   19.8533 C   0  0  0  0  0  0  0  0  0  0  0  0
  -30.0523  -23.6148   18.9378 C   0  0  0  0  0  0  0  0  0  0  0  0
  -18.9569  -31.5867   21.3314 C   0  0  0  0  0  0  0  0  0  0  0  0
  -23.3308  -26.6277   20.6608 C   0  0  0  0  0  0  0  0  0  0  0  0
  -20.2728  -31.1185   21.1536 C   0  0  0  0  0  0  0  0  0  0  0  0
  -24.5958  -26.6555   21.2651 C   0  0  0  0  0  0  0  0  0  0  0  0
  -24.5744  -12.1099   20.1613 C   0  0  0  0  0  0  0  0  0  0  0  0
  -25.6329  -26.6421   19.0664 C   0  0  0  0  0  0  0  0  0  0  0  0
  -23.0984  -10.3632   20.7021 C   0  0  0  0  0  0  0  0  0  0  0  0
  -22.6275   -7.9437   22.0085 C   0  0  0  0  0  0  0  0  0  0  0  0
  -22.1071  -10.2800   21.6799 C   0  0  0  0  0  0  0  0  0  0  0  0
  -28.4339  -13.8088   20.5027 C   0  0  0  0  0  0  0  0  0  0  0  0
  -29.9653  -21.2955   20.3724 C   0  0  0  0  0  0  0  0  0  0  0  0
  -30.5769  -14.2550   20.2946 C   0  0  0  0  0  0  0  0  0  0  0  0
  -29.8084  -12.3044   18.9334 C   0  0  0  0  0  0  0  0  0  0  0  0
  -22.3813  -28.6516   22.9204 C   0  0  0  0  0  0  0  0  0  0  0  0
  -23.4797  -26.3364   24.9094 C   0  0  0  0  0  0  0  0  0  0  0  0
  -26.3295  -24.1289   25.0607 C   0  0  0  0  0  0  0  0  0  0  0  0
  -30.3925  -19.8481   22.3896 C   0  0  0  0  0  0  0  0  0  0  0  0
  -18.3697  -31.8008   22.7040 C   0  0  0  0  0  0  0  0  0  0  0  0
  -22.0851  -26.5880   21.5028 C   0  0  0  0  0  0  0  0  0  0  0  0
  -24.7591  -26.6799   22.7622 C   0  0  0  0  0  0  0  0  0  0  0  0
  -19.1282  -31.0734   23.8112 C   0  0  0  0  0  0  0  0  0  0  0  0
  -31.7183  -16.9934   24.0540 C   0  0  0  0  0  0  0  0  0  0  0  0
  -20.6305  -31.2912   23.6612 C   0  0  0  0  0  0  0  0  0  0  0  0
  -31.1384  -15.8144   23.2693 C   0  0  0  0  0  0  0  0  0  0  0  0
  -30.7203  -18.1443   24.1685 C   0  0  0  0  0  0  0  0  0  0  0  0
  -29.5746  -17.4257   22.1093 C   0  0  0  0  0  0  0  0  0  0  0  0
  -30.9016  -24.8115   16.8664 C   0  0  0  0  0  0  0  0  0  0  0  0
  -29.1867  -26.5451   16.7081 C   0  0  0  0  0  0  0  0  0  0  0  0
  -30.1209  -24.9173   18.1755 C   0  0  1  0  0  0  0  0  0  0  0  0
  -21.1398  -30.7254   22.3301 C   0  0  1  0  0  0  0  0  0  0  0  0
  -22.2934  -27.1517   22.9050 C   0  0  1  0  0  0  0  0  0  0  0  0
  -28.7685  -25.4822   17.7155 C   0  0  1  0  0  0  0  0  0  0  0  0
  -30.5665  -16.2677   21.9117 C   0  0  2  0  0  0  0  0  0  0  0  0
  -26.5923  -21.8752   26.1328 C   0  0  0  0  0  0  0  0  0  0  0  0
  -24.5434  -27.9160   27.2934 C   0  0  0  0  0  0  0  0  0  0  0  0
  -26.2306  -26.1017   27.6539 C   0  0  0  0  0  0  0  0  0  0  0  0
  -23.7953  -25.5913   27.8323 C   0  0  0  0  0  0  0  0  0  0  0  0
  -27.2311  -22.8988   22.5244 C   0  0  0  0  0  0  0  0  0  0  0  0
  -27.9279  -26.0591   18.8456 C   0  0  0  0  0  0  0  0  0  1  0  0
  -24.8075  -26.0242   25.5563 C   0  0  1  0  0  0  0  0  0  0  0  0
  -26.3287  -22.6273   24.8376 C   0  0  2  0  0  0  0  0  0  0  0  0
  -24.8426  -26.4219   27.0590 C   0  0  0  0  0  0  0  0  0  0  0  0
  -30.5408  -22.3722   20.9532 N   0  0  0  0  0  0  0  0  0  0  0  0
  -28.6344  -14.8643   21.2962 N   0  0  0  0  0  0  0  0  0  0  0  0
  -29.9470  -15.1120   21.1485 N   0  0  0  0  0  0  0  0  0  0  0  0
  -23.5110  -26.6460   23.5423 N   0  0  0  0  0  0  0  0  0  0  0  0
  -30.2244  -18.5227   22.8435 N   0  0  0  0  0  0  0  0  0  0  0  0
  -31.8967  -14.3621   20.0317 N   0  0  0  0  0  0  0  0  0  0  0  0
  -30.1497  -11.0455   19.4462 N   0  0  0  0  0  0  0  0  0  0  0  0
  -29.9107  -20.0821   21.1021 N   0  0  0  0  0  0  0  0  0  0  0  0
  -21.2657  -29.2858   22.4079 N   0  0  0  0  0  0  0  0  0  0  0  0
  -25.0606  -24.6093   25.3065 N   0  0  0  0  0  0  0  0  0  0  0  0
  -30.3937  -25.9576   16.0367 N   0  3  0  0  0  0  0  0  0  0  0  0
  -27.3809  -22.2495   23.8522 N   0  3  0  0  0  0  0  0  0  0  0  0
  -29.7033  -12.4539   17.6924 O   0  0  0  0  0  0  0  0  0  0  0  0
  -23.3862  -29.1934   23.3657 O   0  0  0  0  0  0  0  0  0  0  0  0
  -22.4518  -26.2998   25.5903 O   0  0  0  0  0  0  0  0  0  0  0  0
  -27.3537  -24.8071   25.0246 O   0  0  0  0  0  0  0  0  0  0  0  0
  -30.9491  -20.7051   23.0808 O   0  0  0  0  0  0  0  0  0  0  0  0
  -23.3327  -11.5633   20.0521 O   0  0  0  0  0  0  0  0  0  0  0  0
  -26.7536  -26.6539   18.2946 O   0  0  0  0  0  0  0  0  0  1  0  0
  -22.4006   -6.7815   22.6346 F   0  0  0  0  0  0  0  0  0  0  0  0
  -21.3770  -11.3585   21.9952 F   0  0  0  0  0  0  0  0  0  0  0  0
  1  2  1  0  0  0  0
  1  5  2  0  0  0  0
  2  6  2  0  0  0  0
  3  9  2  0  0  0  0
  3 18  1  0  0  0  0
  4 10  1  0  0  0  0
  4 18  2  0  0  0  0
  5 21  1  0  0  0  0
  6 23  1  0  0  0  0
  7 11  2  0  0  0  0
  7 22  1  0  0  0  0
  8 14  2  0  0  0  0
  8 20  1  0  0  0  0
  9 25  1  0  0  0  0
 10 25  2  0  0  0  0
 11 26  1  0  0  0  0
 12 13  2  0  0  0  0
 12 27  1  0  0  0  0
 13 28  1  0  0  0  0
 14 31  1  0  0  0  0
 15 24  1  0  0  0  0
 15 26  2  0  0  0  0
 16 28  2  0  0  0  0
 16 29  1  0  0  0  0
 17 20  2  0  0  0  0
 17 63  1  0  0  0  0
 18 30  1  0  0  0  0
 19 30  1  0  0  0  0
 19 32  2  0  0  0  0
 19 33  1  0  0  0  0
 20 49  1  0  0  0  0
 21 23  2  0  0  0  0
 21 38  1  0  0  0  0
 22 24  2  0  0  0  0
 22 39  1  0  0  0  0
 23 50  1  0  0  0  0
 24 40  1  0  0  0  0
 25 80  1  0  0  0  0
 26 81  1  0  0  0  0
 27 29  2  0  0  0  0
 27 80  1  0  0  0  0
 28 82  1  0  0  0  0
 29 83  1  0  0  0  0
 30 64  2  0  0  0  0
 31 63  2  0  0  0  0
 31 70  1  0  0  0  0
 32 65  1  0  0  0  0
 32 68  1  0  0  0  0
 33 69  1  0  0  0  0
 33 75  2  0  0  0  0
 34 51  1  0  0  0  0
 34 71  1  0  0  0  0
 34 76  2  0  0  0  0
 35 60  1  0  0  0  0
 35 66  1  0  0  0  0
 35 77  2  0  0  0  0
 36 61  1  0  0  0  0
 36 72  1  0  0  0  0
 36 78  2  0  0  0  0
 37 67  1  0  0  0  0
 37 70  1  0  0  0  0
 37 79  2  0  0  0  0
 38 41  1  0  0  0  0
 39 51  1  0  0  0  0
 40 66  1  0  0  0  0
 41 43  1  0  0  0  0
 42 44  1  0  0  0  0
 42 45  1  0  0  0  0
 43 50  1  0  0  0  0
 44 53  1  0  0  0  0
 45 67  1  0  0  0  0
 46 53  1  0  0  0  0
 46 67  1  0  0  0  0
 47 49  1  0  0  0  0
 47 73  1  0  0  0  0
 48 52  1  0  0  0  0
 48 73  1  0  0  0  0
 49 52  1  0  0  0  0
 50 71  1  0  0  0  0
 51 66  1  0  0  0  0
 52 59  1  0  0  0  0
 53 65  1  0  0  0  0
 54 61  1  0  0  0  0
 55 62  1  0  0  0  0
 56 62  1  0  0  0  0
 57 62  1  0  0  0  0
 58 74  1  0  0  0  0
 59 81  1  0  0  0  0
 60 62  1  0  0  0  0
 60 72  1  0  0  0  0
 61 74  1  0  0  0  0
 64 65  1  0  0  0  0
M  CHG  2  73   1  74   1
M  ISO  4  37 100  59 101  70 100  81 101
M  END
> <Batch ID>
0124

> <Smiles>
CNC(C)C(=O)NC(C(=O)N1Cc2cc([101O:1][101CH2:1]C3CNCC3c3ccc([100NH:0][100C:0](=O)N4CCCC(n5nc(-c6ccc(Oc7ccc(F)cc7F)cc6)c(C(N)=O)c5N)C4)nc3)ccc2CC1C(=O)NC1CCCc2ccccc21)C(C)(C)C

> <Shape>
0.245

> <Color>
0.079

> <Negative vol penalty>
0.000

$$$$

  -OEChem-04052320333D

 82 91  0     1  0  0  0  0  0999 V2000
  -16.8602  -29.4010   24.2126 C   0  0  0  0  0  0  0  0  0  0  0  0
  -17.4907  -28.2257   24.6084 C   0  0  0  0  0  0  0  0  0  0  0  0
  -23.1626   -9.7663   20.4088 C   0  0  0  0  0  0  0  0  0  0  0  0
  -23.7392  -10.2830   22.6974 C   0  0  0  0  0  0  0  0  0  0  0  0
  -17.3817  -30.1495   23.1583 C   0  0  0  0  0  0  0  0  0  0  0  0
  -18.6425  -27.7977   23.9492 C   0  0  0  0  0  0  0  0  0  0  0  0
  -24.8037  -24.3451   25.1474 C   0  0  0  0  0  0  0  0  0  0  0  0
  -22.4302   -8.6614   20.8427 C   0  0  0  0  0  0  0  0  0  0  0  0
  -23.0067   -9.1780   23.1313 C   0  0  0  0  0  0  0  0  0  0  0  0
  -25.5530  -23.2770   24.6561 C   0  0  0  0  0  0  0  0  0  0  0  0
  -19.7619   -8.3925   23.6556 C   0  0  0  0  0  0  0  0  0  0  0  0
  -18.9164   -8.5671   24.7511 C   0  0  0  0  0  0  0  0  0  0  0  0
  -26.4084  -24.6925   22.9001 C   0  0  0  0  0  0  0  0  0  0  0  0
  -28.4145  -18.6347   21.3033 C   0  0  0  0  0  0  0  0  0  0  0  0
  -20.1436   -6.8784   25.9674 C   0  0  0  0  0  0  0  0  0  0  0  0
  -29.0807  -19.8038   23.6771 C   0  0  0  0  0  0  0  0  0  0  0  0
  -23.8172  -10.5771   21.3361 C   0  0  0  0  0  0  0  0  0  0  0  0
  -24.1047  -13.0333   20.7101 C   0  0  0  0  0  0  0  0  0  0  0  0
  -18.5460  -29.7355   22.4922 C   0  0  0  0  0  0  0  0  0  0  0  0
  -24.8428  -25.5942   24.5112 C   0  0  0  0  0  0  0  0  0  0  0  0
  -19.1794  -28.5407   22.8841 C   0  0  0  0  0  0  0  0  0  0  0  0
  -25.6607  -25.7756   23.3868 C   0  0  0  0  0  0  0  0  0  0  0  0
  -27.5489  -19.5612   21.8740 C   0  0  0  0  0  0  0  0  0  0  0  0
  -27.8810  -20.1614   23.0834 C   0  0  0  0  0  0  0  0  0  0  0  0
  -22.3522   -8.3672   22.2039 C   0  0  0  0  0  0  0  0  0  0  0  0
  -26.3533  -23.4498   23.5305 C   0  0  0  0  0  0  0  0  0  0  0  0
  -20.7983   -7.4609   23.7159 C   0  0  0  0  0  0  0  0  0  0  0  0
  -19.1072   -7.8101   25.9070 C   0  0  0  0  0  0  0  0  0  0  0  0
  -20.9892   -6.7038   24.8718 C   0  0  0  0  0  0  0  0  0  0  0  0
  -24.5744  -11.7183   20.8884 C   0  0  0  0  0  0  0  0  0  0  0  0
  -29.5905  -18.3455   21.9766 C   0  0  0  0  0  0  0  0  0  0  0  0
  -25.2031  -13.7344   20.2760 C   0  0  0  0  0  0  0  0  0  0  0  0
  -22.7927  -13.5729   20.9183 C   0  0  0  0  0  0  0  0  0  0  0  0
  -22.7018  -27.4378   23.0550 C   0  0  0  0  0  0  0  0  0  0  0  0
  -25.1677  -29.5422   22.9409 C   0  0  0  0  0  0  0  0  0  0  0  0
  -28.5415  -30.0558   22.9639 C   0  0  0  0  0  0  0  0  0  0  0  0
  -30.6280  -14.9932   20.6378 C   0  0  0  0  0  0  0  0  0  0  0  0
  -19.0455  -30.5530   21.3273 C   0  0  0  0  0  0  0  0  0  0  0  0
  -24.0494  -26.7436   25.0694 C   0  0  0  0  0  0  0  0  0  0  0  0
  -25.7534  -27.1021   22.6794 C   0  0  0  0  0  0  0  0  0  0  0  0
  -20.4817  -30.2269   20.9257 C   0  0  0  0  0  0  0  0  0  0  0  0
  -29.7414  -12.1185   18.7333 C   0  0  0  0  0  0  0  0  0  0  0  0
  -25.0163  -19.1610   21.5582 C   0  0  0  0  0  0  0  0  0  0  0  0
  -25.6659  -18.8855   20.2381 C   0  0  0  0  0  0  0  0  0  0  0  0
  -20.6843  -28.7171   20.8470 C   0  0  0  0  0  0  0  0  0  0  0  0
  -28.2820  -11.8633   19.1143 C   0  0  0  0  0  0  0  0  0  0  0  0
  -30.5553  -12.6224   19.9231 C   0  0  0  0  0  0  0  0  0  0  0  0
  -28.5328  -13.5487   20.9838 C   0  0  0  0  0  0  0  0  0  0  0  0
  -26.2736  -19.8956   21.1750 C   0  0  0  0  0  0  0  0  0  0  0  0
  -20.4448  -28.0565   22.2100 C   0  0  1  0  0  0  0  0  0  0  0  0
  -23.7675  -27.8319   24.0381 C   0  0  1  0  0  0  0  0  0  0  0  0
  -27.6590  -13.0925   19.8029 C   0  0  2  0  0  0  0  0  0  0  0  0
  -30.2572  -31.8813   22.8178 C   0  0  0  0  0  0  0  0  0  0  0  0
  -24.6887  -29.7484   19.9346 C   0  0  0  0  0  0  0  0  0  0  0  0
  -26.9539  -30.7920   19.7157 C   0  0  0  0  0  0  0  0  0  0  0  0
  -25.1861  -31.9239   21.0634 C   0  0  0  0  0  0  0  0  0  0  0  0
  -29.6117  -29.4240   25.6499 C   0  0  0  0  0  0  0  0  0  0  0  0
  -26.9856  -21.1672   23.7452 C   0  0  0  0  0  0  0  0  0  1  0  0
  -30.5429  -17.3555   21.3938 C   0  0  0  0  0  0  0  0  0  0  0  0
  -26.2821  -29.8313   21.9644 C   0  0  1  0  0  0  0  0  0  0  0  0
  -29.4072  -31.0274   23.7457 C   0  0  2  0  0  0  0  0  0  0  0  0
  -25.7747  -30.5483   20.6815 C   0  0  0  0  0  0  0  0  0  0  0  0
  -29.9471  -18.9081   23.1530 N   0  0  0  0  0  0  0  0  0  0  0  0
  -25.8702  -11.5889   20.5917 N   0  0  0  0  0  0  0  0  0  0  0  0
  -26.2241  -12.8317   20.2224 N   0  0  0  0  0  0  0  0  0  0  0  0
  -24.9538  -28.1936   23.2596 N   0  0  0  0  0  0  0  0  0  0  0  0
  -29.9114  -13.7899   20.5299 N   0  0  0  0  0  0  0  0  0  0  0  0
  -25.3855  -15.0287   19.9386 N   0  0  0  0  0  0  0  0  0  0  0  0
  -21.7803  -12.7137   21.3666 N   0  0  0  0  0  0  0  0  0  0  0  0
  -21.5876  -28.2549   23.0755 N   0  0  0  0  0  0  0  0  0  0  0  0
  -27.2917  -30.5784   22.7067 N   0  0  0  0  0  0  0  0  0  0  0  0
  -29.9416  -16.0521   21.2193 N   0  0  0  0  0  0  0  0  0  0  0  0
  -30.3154  -30.2867   24.6663 N   0  3  0  0  0  0  0  0  0  0  0  0
  -22.5223  -14.7777   20.6973 O   0  0  0  0  0  0  0  0  0  0  0  0
  -22.8779  -26.4654   22.3304 O   0  0  0  0  0  0  0  0  0  0  0  0
  -24.5159  -30.4788   23.4093 O   0  0  0  0  0  0  0  0  0  0  0  0
  -28.9360  -28.9459   22.6131 O   0  0  0  0  0  0  0  0  0  0  0  0
  -31.7915  -15.1163   20.2400 O   0  0  0  0  0  0  0  0  0  0  0  0
  -21.6374   -7.2893   22.6278 O   0  0  0  0  0  0  0  0  0  0  0  0
  -27.0851  -22.4086   23.0485 O   0  0  0  0  0  0  0  0  0  1  0  0
  -18.2961   -7.9789   26.9595 F   0  0  0  0  0  0  0  0  0  0  0  0
  -21.9838   -5.8081   24.9362 F   0  0  0  0  0  0  0  0  0  0  0  0
  1  2  1  0  0  0  0
  1  5  2  0  0  0  0
  2  6  2  0  0  0  0
  3  8  2  0  0  0  0
  3 17  1  0  0  0  0
  4  9  1  0  0  0  0
  4 17  2  0  0  0  0
  5 19  1  0  0  0  0
  6 21  1  0  0  0  0
  7 10  2  0  0  0  0
  7 20  1  0  0  0  0
  8 25  1  0  0  0  0
  9 25  2  0  0  0  0
 10 26  1  0  0  0  0
 11 12  2  0  0  0  0
 11 27  1  0  0  0  0
 12 28  1  0  0  0  0
 13 22  1  0  0  0  0
 13 26  2  0  0  0  0
 14 23  1  0  0  0  0
 14 31  2  0  0  0  0
 15 28  2  0  0  0  0
 15 29  1  0  0  0  0
 16 24  1  0  0  0  0
 16 63  2  0  0  0  0
 17 30  1  0  0  0  0
 18 30  1  0  0  0  0
 18 32  2  0  0  0  0
 18 33  1  0  0  0  0
 19 21  2  0  0  0  0
 19 38  1  0  0  0  0
 20 22  2  0  0  0  0
 20 39  1  0  0  0  0
 21 50  1  0  0  0  0
 22 40  1  0  0  0  0
 23 24  2  0  0  0  0
 23 49  1  0  0  0  0
 24 58  1  0  0  0  0
 25 79  1  0  0  0  0
 26 80  1  0  0  0  0
 27 29  2  0  0  0  0
 27 79  1  0  0  0  0
 28 81  1  0  0  0  0
 29 82  1  0  0  0  0
 30 64  2  0  0  0  0
 31 59  1  0  0  0  0
 31 63  1  0  0  0  0
 32 65  1  0  0  0  0
 32 68  1  0  0  0  0
 33 69  1  0  0  0  0
 33 74  2  0  0  0  0
 34 51  1  0  0  0  0
 34 70  1  0  0  0  0
 34 75  2  0  0  0  0
 35 60  1  0  0  0  0
 35 66  1  0  0  0  0
 35 76  2  0  0  0  0
 36 61  1  0  0  0  0
 36 71  1  0  0  0  0
 36 77  2  0  0  0  0
 37 67  1  0  0  0  0
 37 72  1  0  0  0  0
 37 78  2  0  0  0  0
 38 41  1  0  0  0  0
 39 51  1  0  0  0  0
 40 66  1  0  0  0  0
 41 45  1  0  0  0  0
 42 46  1  0  0  0  0
 42 47  1  0  0  0  0
 43 44  1  0  0  0  0
 43 49  1  0  0  0  0
 44 49  1  0  0  0  0
 45 50  1  0  0  0  0
 46 52  1  0  0  0  0
 47 67  1  0  0  0  0
 48 52  1  0  0  0  0
 48 67  1  0  0  0  0
 50 70  1  0  0  0  0
 51 66  1  0  0  0  0
 52 65  1  0  0  0  0
 53 61  1  0  0  0  0
 54 62  1  0  0  0  0
 55 62  1  0  0  0  0
 56 62  1  0  0  0  0
 57 73  1  0  0  0  0
 58 80  1  0  0  0  0
 59 72  1  0  0  0  0
 60 62  1  0  0  0  0
 60 71  1  0  0  0  0
 61 73  1  0  0  0  0
 64 65  1  0  0  0  0
M  CHG  1  73   1
M  ISO  4  37 100  58 101  72 100  80 101
M  END
> <Batch ID>
0124

> <Smiles>
CNC(C)C(=O)NC(C(=O)N1Cc2cc([101O:1][101CH2:1]c3cnc(C[100NH:0][100C:0](=O)N4CCCC(n5nc(-c6ccc(Oc7ccc(F)cc7F)cc6)c(C(N)=O)c5N)C4)cc3C3CC3)ccc2CC1C(=O)NC1CCCc2ccccc21)C(C)(C)C

> <Shape>
0.276

> <Color>
0.189

> <Negative vol penalty>
0.000

$$$$

  -OEChem-04052320333D

 83 91  0     1  0  0  0  0  0999 V2000
  -19.1978  -25.7779   24.4320 C   0  0  0  0  0  0  0  0  0  0  0  0
  -20.2787  -25.5799   23.5788 C   0  0  0  0  0  0  0  0  0  0  0  0
  -24.2901   -9.6112   21.7873 C   0  0  0  0  0  0  0  0  0  0  0  0
  -22.5634  -10.2643   20.2288 C   0  0  0  0  0  0  0  0  0  0  0  0
  -18.4470  -26.9495   24.3438 C   0  0  0  0  0  0  0  0  0  0  0  0
  -20.6088  -26.5530   22.6362 C   0  0  0  0  0  0  0  0  0  0  0  0
  -25.5858  -27.4698   22.4519 C   0  0  0  0  0  0  0  0  0  0  0  0
  -23.6979   -8.3550   21.9170 C   0  0  0  0  0  0  0  0  0  0  0  0
  -21.9712   -9.0081   20.3584 C   0  0  0  0  0  0  0  0  0  0  0  0
  -26.3780  -26.5487   21.7678 C   0  0  0  0  0  0  0  0  0  0  0  0
  -21.0757   -6.9956   23.5602 C   0  0  0  0  0  0  0  0  0  0  0  0
  -20.9388   -6.4742   24.8467 C   0  0  0  0  0  0  0  0  0  0  0  0
  -26.4124  -28.0116   19.8500 C   0  0  0  0  0  0  0  0  0  0  0  0
  -22.3002   -4.5782   24.2231 C   0  0  0  0  0  0  0  0  0  0  0  0
  -23.7228  -10.5659   20.9432 C   0  0  0  0  0  0  0  0  0  0  0  0
  -25.3183  -12.2482   19.8793 C   0  0  0  0  0  0  0  0  0  0  0  0
  -18.7740  -27.9417   23.4061 C   0  0  0  0  0  0  0  0  0  0  0  0
  -25.1913  -28.6658   21.8352 C   0  0  0  0  0  0  0  0  0  0  0  0
  -19.8609  -27.7384   22.5345 C   0  0  0  0  0  0  0  0  0  0  0  0
  -25.6173  -28.9474   20.5293 C   0  0  0  0  0  0  0  0  0  0  0  0
  -22.5385   -8.0534   21.2025 C   0  0  0  0  0  0  0  0  0  0  0  0
  -26.7890  -26.8182   20.4657 C   0  0  0  0  0  0  0  0  0  0  0  0
  -21.8248   -6.3082   22.6052 C   0  0  0  0  0  0  0  0  0  0  0  0
  -21.5510   -5.2655   25.1782 C   0  0  0  0  0  0  0  0  0  0  0  0
  -22.4371   -5.0996   22.9366 C   0  0  0  0  0  0  0  0  0  0  0  0
  -24.3338  -11.8639   20.8093 C   0  0  0  0  0  0  0  0  0  0  0  0
  -25.5611  -13.5700   20.1628 C   0  0  0  0  0  0  0  0  0  0  0  0
  -25.9561  -11.4792   18.8510 C   0  0  0  0  0  0  0  0  0  0  0  0
  -22.4018  -29.9634   21.0358 C   0  0  0  0  0  0  0  0  0  0  0  0
  -24.2529  -32.5098   20.2538 C   0  0  0  0  0  0  0  0  0  0  0  0
  -27.3239  -33.6891   19.3455 C   0  0  0  0  0  0  0  0  0  0  0  0
  -23.7357  -18.7014   21.3802 C   0  0  0  0  0  0  0  0  0  0  0  0
  -17.9043  -29.1705   23.3164 C   0  0  0  0  0  0  0  0  0  0  0  0
  -24.3589  -29.6610   22.5961 C   0  0  0  0  0  0  0  0  0  0  0  0
  -25.2378  -30.2260   19.8297 C   0  0  0  0  0  0  0  0  0  0  0  0
  -18.5487  -30.3177   22.5424 C   0  0  0  0  0  0  0  0  0  0  0  0
  -24.1106  -16.4163   24.0847 C   0  0  0  0  0  0  0  0  0  0  0  0
  -19.1590  -29.8072   21.2410 C   0  0  0  0  0  0  0  0  0  0  0  0
  -24.2769  -15.0599   23.3972 C   0  0  0  0  0  0  0  0  0  0  0  0
  -26.0551  -21.8221   19.1484 C   0  0  0  0  0  0  0  0  0  0  0  0
  -23.1244  -17.3108   23.3370 C   0  0  0  0  0  0  0  0  0  0  0  0
  -23.5881  -16.1425   21.2172 C   0  0  0  0  0  0  0  0  0  0  0  0
  -26.6813  -19.4654   18.4873 C   0  0  0  0  0  0  0  0  0  0  0  0
  -20.2655  -28.7815   21.5156 C   0  0  1  0  0  0  0  0  0  0  0  0
  -23.5887  -30.6145   21.6877 C   0  0  1  0  0  0  0  0  0  0  0  0
  -25.8528  -20.3282   19.4352 C   0  0  2  0  0  0  0  0  0  0  0  0
  -27.5428  -22.2052   19.1817 C   0  0  1  0  0  0  0  0  0  0  0  0
  -24.6155  -15.2262   21.9036 C   0  0  2  0  0  0  0  0  0  0  0  0
  -28.3916  -21.3320   18.2394 C   0  0  2  0  0  0  0  0  0  0  0  0
  -28.5188  -35.8108   18.7388 C   0  0  0  0  0  0  0  0  0  0  0  0
  -28.9466  -22.8236   16.2975 C   0  0  0  0  0  0  0  0  0  0  0  0
  -28.6444  -20.3569   15.9398 C   0  0  0  0  0  0  0  0  0  0  0  0
  -22.9442  -32.4560   17.4980 C   0  0  0  0  0  0  0  0  0  0  0  0
  -24.7978  -33.9189   16.6660 C   0  0  0  0  0  0  0  0  0  0  0  0
  -23.2674  -34.7439   18.4549 C   0  0  0  0  0  0  0  0  0  0  0  0
  -29.1894  -33.4279   21.6281 C   0  0  0  0  0  0  0  0  0  0  0  0
  -27.7168  -23.6991   18.9044 C   0  0  0  0  0  0  0  0  0  0  0  0
  -24.3745  -19.9563   19.3366 C   0  0  0  0  0  0  0  0  0  0  0  0
  -27.3936  -24.5431   20.1279 C   0  0  0  0  0  0  0  0  0  1  0  0
  -24.9755  -32.9640   19.0085 C   0  0  1  0  0  0  0  0  0  0  0  0
  -28.1485  -34.8544   19.8617 C   0  0  2  0  0  0  0  0  0  0  0  0
  -28.1925  -21.5732   16.7449 C   0  0  0  0  0  0  0  0  0  0  0  0
  -24.0019  -33.4956   17.9191 C   0  0  0  0  0  0  0  0  0  0  0  0
  -23.9759  -12.8609   21.6229 N   0  0  0  0  0  0  0  0  0  0  0  0
  -24.7396  -13.8847   21.2050 N   0  0  0  0  0  0  0  0  0  0  0  0
  -24.4176  -31.1646   20.6132 N   0  0  0  0  0  0  0  0  0  0  0  0
  -23.5031  -17.4285   21.9268 N   0  0  0  0  0  0  0  0  0  0  0  0
  -26.3952  -14.4821   19.6199 N   0  0  0  0  0  0  0  0  0  0  0  0
  -25.5886  -10.1356   18.6962 N   0  0  0  0  0  0  0  0  0  0  0  0
  -21.4816  -29.4484   21.9288 N   0  0  0  0  0  0  0  0  0  0  0  0
  -25.9711  -33.9364   19.4461 N   0  0  0  0  0  0  0  0  0  0  0  0
  -24.0965  -18.7231   20.0385 N   0  0  0  0  0  0  0  0  0  0  0  0
  -28.1141  -19.8856   18.5504 N   0  3  0  0  0  0  0  0  0  0  0  0
  -29.4053  -34.3606   20.4921 N   0  3  0  0  0  0  0  0  0  0  0  0
  -26.8381  -11.9645   18.1025 O   0  0  0  0  0  0  0  0  0  0  0  0
  -22.3258  -29.9319   19.8131 O   0  0  0  0  0  0  0  0  0  0  0  0
  -23.5733  -33.3205   20.8882 O   0  0  0  0  0  0  0  0  0  0  0  0
  -27.8293  -32.6636   18.8943 O   0  0  0  0  0  0  0  0  0  0  0  0
  -23.6350  -19.7410   22.0404 O   0  0  0  0  0  0  0  0  0  0  0  0
  -21.9605   -6.8276   21.3286 O   0  0  0  0  0  0  0  0  0  0  0  0
  -27.5617  -25.9207   19.7955 O   0  0  0  0  0  0  0  0  0  1  0  0
  -21.4207   -4.7657   26.4140 F   0  0  0  0  0  0  0  0  0  0  0  0
  -23.1590   -4.4353   22.0237 F   0  0  0  0  0  0  0  0  0  0  0  0
  1  2  1  0  0  0  0
  1  5  2  0  0  0  0
  2  6  2  0  0  0  0
  3  8  2  0  0  0  0
  3 15  1  0  0  0  0
  4  9  1  0  0  0  0
  4 15  2  0  0  0  0
  5 17  1  0  0  0  0
  6 19  1  0  0  0  0
  7 10  2  0  0  0  0
  7 18  1  0  0  0  0
  8 21  1  0  0  0  0
  9 21  2  0  0  0  0
 10 22  1  0  0  0  0
 11 12  2  0  0  0  0
 11 23  1  0  0  0  0
 12 24  1  0  0  0  0
 13 20  1  0  0  0  0
 13 22  2  0  0  0  0
 14 24  2  0  0  0  0
 14 25  1  0  0  0  0
 15 26  1  0  0  0  0
 16 26  1  0  0  0  0
 16 27  2  0  0  0  0
 16 28  1  0  0  0  0
 17 19  2  0  0  0  0
 17 33  1  0  0  0  0
 18 20  2  0  0  0  0
 18 34  1  0  0  0  0
 19 44  1  0  0  0  0
 20 35  1  0  0  0  0
 21 80  1  0  0  0  0
 22 81  1  0  0  0  0
 23 25  2  0  0  0  0
 23 80  1  0  0  0  0
 24 82  1  0  0  0  0
 25 83  1  0  0  0  0
 26 64  2  0  0  0  0
 27 65  1  0  0  0  0
 27 68  1  0  0  0  0
 28 69  1  0  0  0  0
 28 75  2  0  0  0  0
 29 45  1  0  0  0  0
 29 70  1  0  0  0  0
 29 76  2  0  0  0  0
 30 60  1  0  0  0  0
 30 66  1  0  0  0  0
 30 77  2  0  0  0  0
 31 61  1  0  0  0  0
 31 71  1  0  0  0  0
 31 78  2  0  0  0  0
 32 67  1  0  0  0  0
 32 72  1  0  0  0  0
 32 79  2  0  0  0  0
 33 36  1  0  0  0  0
 34 45  1  0  0  0  0
 35 66  1  0  0  0  0
 36 38  1  0  0  0  0
 37 39  1  0  0  0  0
 37 41  1  0  0  0  0
 38 44  1  0  0  0  0
 39 48  1  0  0  0  0
 40 46  1  0  0  0  0
 40 47  1  0  0  0  0
 41 67  1  0  0  0  0
 42 48  1  0  0  0  0
 42 67  1  0  0  0  0
 43 46  1  0  0  0  0
 43 73  1  0  0  0  0
 44 70  1  0  0  0  0
 45 66  1  0  0  0  0
 46 58  1  0  0  0  0
 47 49  1  0  0  0  0
 47 57  1  0  0  0  0
 48 65  1  0  0  0  0
 49 62  1  0  0  0  0
 49 73  1  0  0  0  0
 50 61  1  0  0  0  0
 51 62  1  0  0  0  0
 52 62  1  0  0  0  0
 53 63  1  0  0  0  0
 54 63  1  0  0  0  0
 55 63  1  0  0  0  0
 56 74  1  0  0  0  0
 57 59  1  0  0  0  0
 58 72  1  0  0  0  0
 59 81  1  0  0  0  0
 60 63  1  0  0  0  0
 60 71  1  0  0  0  0
 61 74  1  0  0  0  0
 64 65  1  0  0  0  0
M  CHG  2  73   1  74   1
M  ISO  4  32 100  59 101  72 100  81 101
M  END
> <Batch ID>
0124

> <Smiles>
CNC(C)C(=O)NC(C(=O)N1Cc2cc([101O:1][101CH2:1]CC3CC(C[100NH:0][100C:0](=O)N4CCCC(n5nc(-c6ccc(Oc7ccc(F)cc7F)cc6)c(C(N)=O)c5N)C4)CNC3C(C)C)ccc2CC1C(=O)NC1CCCc2ccccc21)C(C)(C)C

> <Shape>
0.240

> <Color>
0.122

> <Negative vol penalty>
0.000

$$$$

  -OEChem-04052320333D

 89 98  0     1  0  0  0  0  0999 V2000
  -29.7150  -36.5404   20.5143 C   0  0  0  0  0  0  0  0  0  0  0  0
  -29.8006  -35.1908   20.1878 C   0  0  0  0  0  0  0  0  0  0  0  0
  -24.5817   -8.8029   21.1715 C   0  0  0  0  0  0  0  0  0  0  0  0
  -22.8421  -10.4793   21.1575 C   0  0  0  0  0  0  0  0  0  0  0  0
  -28.9376  -36.9463   21.5981 C   0  0  0  0  0  0  0  0  0  0  0  0
  -29.1097  -34.2461   20.9457 C   0  0  0  0  0  0  0  0  0  0  0  0
  -26.5275  -29.0755   18.9200 C   0  0  0  0  0  0  0  0  0  0  0  0
  -23.6580  -17.7320   18.1371 C   0  0  0  0  0  0  0  0  0  0  0  0
  -26.0731  -17.7500   18.2006 C   0  0  0  0  0  0  0  0  0  0  0  0
  -23.6209  -18.4154   19.3525 C   0  0  0  0  0  0  0  0  0  0  0  0
  -26.0360  -18.4335   19.4160 C   0  0  0  0  0  0  0  0  0  0  0  0
  -23.6179   -7.8038   21.3066 C   0  0  0  0  0  0  0  0  0  0  0  0
  -21.8782   -9.4802   21.2926 C   0  0  0  0  0  0  0  0  0  0  0  0
  -26.9570  -27.7491   18.9222 C   0  0  0  0  0  0  0  0  0  0  0  0
  -21.6364   -4.8384   22.0168 C   0  0  0  0  0  0  0  0  0  0  0  0
  -21.8711   -3.8310   22.9525 C   0  0  0  0  0  0  0  0  0  0  0  0
  -25.7174  -27.3575   20.9543 C   0  0  0  0  0  0  0  0  0  0  0  0
  -21.9507   -5.4843   24.7124 C   0  0  0  0  0  0  0  0  0  0  0  0
  -24.1939  -10.1407   21.0970 C   0  0  0  0  0  0  0  0  0  0  0  0
  -26.1197  -11.3218   19.9122 C   0  0  0  0  0  0  0  0  0  0  0  0
  -28.2290  -36.0070   22.3638 C   0  0  0  0  0  0  0  0  0  0  0  0
  -25.6971  -29.5565   19.9425 C   0  0  0  0  0  0  0  0  0  0  0  0
  -28.3231  -34.6396   22.0417 C   0  0  0  0  0  0  0  0  0  0  0  0
  -25.2767  -28.6897   20.9614 C   0  0  0  0  0  0  0  0  0  0  0  0
  -24.8841  -17.3992   17.5612 C   0  0  0  0  0  0  0  0  0  0  0  0
  -24.8099  -18.7662   19.9919 C   0  0  0  0  0  0  0  0  0  0  0  0
  -22.2661   -8.1424   21.3671 C   0  0  0  0  0  0  0  0  0  0  0  0
  -26.5543  -26.8907   19.9410 C   0  0  0  0  0  0  0  0  0  0  0  0
  -21.5590   -6.1688   22.4288 C   0  0  0  0  0  0  0  0  0  0  0  0
  -22.0282   -4.1539   24.3004 C   0  0  0  0  0  0  0  0  0  0  0  0
  -21.7161   -6.4917   23.7766 C   0  0  0  0  0  0  0  0  0  0  0  0
  -25.1892  -11.1733   20.9581 C   0  0  0  0  0  0  0  0  0  0  0  0
  -26.8331  -12.4475   20.2446 C   0  0  0  0  0  0  0  0  0  0  0  0
  -26.3211  -10.5146   18.7445 C   0  0  0  0  0  0  0  0  0  0  0  0
  -25.9618  -31.8008   22.1779 C   0  0  0  0  0  0  0  0  0  0  0  0
  -22.8557  -31.0553   22.7421 C   0  0  0  0  0  0  0  0  0  0  0  0
  -20.3420  -28.7573   22.5240 C   0  0  0  0  0  0  0  0  0  0  0  0
  -25.5589  -17.2386   23.6021 C   0  0  0  0  0  0  0  0  0  0  0  0
  -27.4394  -36.4888   23.5551 C   0  0  0  0  0  0  0  0  0  0  0  0
  -25.2208  -30.9829   19.9112 C   0  0  0  0  0  0  0  0  0  0  0  0
  -24.3692  -29.1515   22.0712 C   0  0  0  0  0  0  0  0  0  0  0  0
  -26.4390  -35.4616   24.0787 C   0  0  0  0  0  0  0  0  0  0  0  0
  -28.2773  -14.9809   24.0376 C   0  0  0  0  0  0  0  0  0  0  0  0
  -27.0942  -34.0889   24.1940 C   0  0  0  0  0  0  0  0  0  0  0  0
  -27.8781  -13.7624   23.2034 C   0  0  0  0  0  0  0  0  0  0  0  0
  -24.2456  -23.0086   19.9878 C   0  0  0  0  0  0  0  0  0  0  0  0
  -26.0328  -22.3780   21.6699 C   0  0  0  0  0  0  0  0  0  0  0  0
  -25.1417  -24.1262   19.4596 C   0  0  0  0  0  0  0  0  0  0  0  0
  -26.9244  -23.4974   21.1379 C   0  0  0  0  0  0  0  0  0  0  0  0
  -27.0683  -15.6209   24.7163 C   0  0  0  0  0  0  0  0  0  0  0  0
  -25.5600  -14.7484   22.9735 C   0  0  0  0  0  0  0  0  0  0  0  0
  -27.5684  -33.5872   22.8247 C   0  0  1  0  0  0  0  0  0  0  0  0
  -24.7941  -31.5006   21.2813 C   0  0  1  0  0  0  0  0  0  0  0  0
  -26.7380  -14.1022   22.2246 C   0  0  2  0  0  0  0  0  0  0  0  0
  -25.0823  -21.8784   20.5838 C   0  0  0  0  0  0  0  0  0  0  0  0
  -26.1015  -24.6357   20.5339 C   0  0  0  0  0  0  0  0  0  1  0  0
  -25.5937  -15.2864   16.3840 C   0  0  0  0  0  0  0  0  0  0  0  0
  -25.6097  -17.4838   15.1486 C   0  0  0  0  0  0  0  0  0  0  0  0
  -17.9237  -28.4220   23.1045 C   0  0  0  0  0  0  0  0  0  0  0  0
  -23.6188  -30.6305   25.6656 C   0  0  0  0  0  0  0  0  0  0  0  0
  -21.4555  -29.4102   25.9806 C   0  0  0  0  0  0  0  0  0  0  0  0
  -21.4439  -31.8147   25.3167 C   0  0  0  0  0  0  0  0  0  0  0  0
  -19.5913  -28.3910   19.6848 C   0  0  0  0  0  0  0  0  0  0  0  0
  -23.9994  -18.7384   22.3867 C   0  0  0  0  0  0  0  0  0  0  0  0
  -24.9246  -16.6686   16.2618 C   0  0  0  0  0  0  0  0  0  0  0  0
  -24.7689  -19.5088   21.3090 C   0  0  2  0  0  0  0  0  0  0  0  0
  -22.1375  -30.0659   23.6277 C   0  0  1  0  0  0  0  0  0  0  0  0
  -18.9087  -28.8753   22.0381 C   0  0  2  0  0  0  0  0  0  0  0  0
  -22.1826  -30.4718   25.1279 C   0  0  0  0  0  0  0  0  0  0  0  0
  -25.2991  -12.1281   21.8856 N   0  0  0  0  0  0  0  0  0  0  0  0
  -26.3072  -12.8873   21.4237 N   0  0  0  0  0  0  0  0  0  0  0  0
  -23.9356  -30.5567   21.9999 N   0  0  0  0  0  0  0  0  0  0  0  0
  -26.0244  -15.9198   23.7330 N   0  0  0  0  0  0  0  0  0  0  0  0
  -27.8527  -13.0939   19.6406 N   0  0  0  0  0  0  0  0  0  0  0  0
  -25.6078  -10.8331   17.5809 N   0  0  0  0  0  0  0  0  0  0  0  0
  -26.4498  -33.0877   22.0543 N   0  0  0  0  0  0  0  0  0  0  0  0
  -20.7899  -29.9349   23.0844 N   0  0  0  0  0  0  0  0  0  0  0  0
  -24.5735  -17.4363   22.6427 N   0  0  0  0  0  0  0  0  0  0  0  0
  -24.1696  -20.8629   21.1728 N   0  3  0  0  0  0  0  0  0  0  0  0
  -18.7033  -28.0383   20.8223 N   0  3  0  0  0  0  0  0  0  0  0  0
  -27.0980   -9.5297   18.7382 O   0  0  0  0  0  0  0  0  0  0  0  0
  -26.3876  -30.9299   22.9275 O   0  0  0  0  0  0  0  0  0  0  0  0
  -22.4681  -32.2258   22.7046 O   0  0  0  0  0  0  0  0  0  0  0  0
  -20.9974  -27.7228   22.4205 O   0  0  0  0  0  0  0  0  0  0  0  0
  -25.9935  -18.1718   24.2857 O   0  0  0  0  0  0  0  0  0  0  0  0
  -21.3252   -7.1677   21.4987 O   0  0  0  0  0  0  0  0  0  0  0  0
  -26.9727  -25.5957   19.9460 O   0  0  0  0  0  0  0  0  0  1  0  0
  -22.2520   -3.1863   25.1991 F   0  0  0  0  0  0  0  0  0  0  0  0
  -21.6416   -7.7679   24.1786 F   0  0  0  0  0  0  0  0  0  0  0  0
  1  2  1  0  0  0  0
  1  5  2  0  0  0  0
  2  6  2  0  0  0  0
  3 12  2  0  0  0  0
  3 19  1  0  0  0  0
  4 13  1  0  0  0  0
  4 19  2  0  0  0  0
  5 21  1  0  0  0  0
  6 23  1  0  0  0  0
  7 14  2  0  0  0  0
  7 22  1  0  0  0  0
  8 10  2  0  0  0  0
  8 25  1  0  0  0  0
  9 11  1  0  0  0  0
  9 25  2  0  0  0  0
 10 26  1  0  0  0  0
 11 26  2  0  0  0  0
 12 27  1  0  0  0  0
 13 27  2  0  0  0  0
 14 28  1  0  0  0  0
 15 16  2  0  0  0  0
 15 29  1  0  0  0  0
 16 30  1  0  0  0  0
 17 24  1  0  0  0  0
 17 28  2  0  0  0  0
 18 30  2  0  0  0  0
 18 31  1  0  0  0  0
 19 32  1  0  0  0  0
 20 32  1  0  0  0  0
 20 33  2  0  0  0  0
 20 34  1  0  0  0  0
 21 23  2  0  0  0  0
 21 39  1  0  0  0  0
 22 24  2  0  0  0  0
 22 40  1  0  0  0  0
 23 52  1  0  0  0  0
 24 41  1  0  0  0  0
 25 65  1  0  0  0  0
 26 66  1  0  0  0  0
 27 86  1  0  0  0  0
 28 87  1  0  0  0  0
 29 31  2  0  0  0  0
 29 86  1  0  0  0  0
 30 88  1  0  0  0  0
 31 89  1  0  0  0  0
 32 70  2  0  0  0  0
 33 71  1  0  0  0  0
 33 74  1  0  0  0  0
 34 75  1  0  0  0  0
 34 81  2  0  0  0  0
 35 53  1  0  0  0  0
 35 76  1  0  0  0  0
 35 82  2  0  0  0  0
 36 67  1  0  0  0  0
 36 72  1  0  0  0  0
 36 83  2  0  0  0  0
 37 68  1  0  0  0  0
 37 77  1  0  0  0  0
 37 84  2  0  0  0  0
 38 73  1  0  0  0  0
 38 78  1  0  0  0  0
 38 85  2  0  0  0  0
 39 42  1  0  0  0  0
 40 53  1  0  0  0  0
 41 72  1  0  0  0  0
 42 44  1  0  0  0  0
 43 45  1  0  0  0  0
 43 50  1  0  0  0  0
 44 52  1  0  0  0  0
 45 54  1  0  0  0  0
 46 48  1  0  0  0  0
 46 55  1  0  0  0  0
 47 49  1  0  0  0  0
 47 55  1  0  0  0  0
 48 56  1  0  0  0  0
 49 56  1  0  0  0  0
 50 73  1  0  0  0  0
 51 54  1  0  0  0  0
 51 73  1  0  0  0  0
 52 76  1  0  0  0  0
 53 72  1  0  0  0  0
 54 71  1  0  0  0  0
 55 79  1  0  0  0  0
 56 87  1  0  0  0  0
 57 65  1  0  0  0  0
 58 65  1  0  0  0  0
 59 68  1  0  0  0  0
 60 69  1  0  0  0  0
 61 69  1  0  0  0  0
 62 69  1  0  0  0  0
 63 80  1  0  0  0  0
 64 66  1  0  0  0  0
 64 78  1  0  0  0  0
 66 79  1  0  0  0  0
 67 69  1  0  0  0  0
 67 77  1  0  0  0  0
 68 80  1  0  0  0  0
 70 71  1  0  0  0  0
M  CHG  2  79   1  80   1
M  ISO  4  38 100  56 101  78 100  87 101
M  END
> <Batch ID>
0124

> <Smiles>
CNC(C)C(=O)NC(C(=O)N1Cc2cc([101O:1][101CH:1]3CCC(NC(C[100NH:0][100C:0](=O)N4CCCC(n5nc(-c6ccc(Oc7ccc(F)cc7F)cc6)c(C(N)=O)c5N)C4)c4ccc(C(C)C)cc4)CC3)ccc2CC1C(=O)NC1CCCc2ccccc21)C(C)(C)C

> <Shape>
0.237

> <Color>
0.107

> <Negative vol penalty>
0.000

$$$$

  -OEChem-04052320333D

 80 88  0     1  0  0  0  0  0999 V2000
  -23.5426  -24.0608   19.6785 C   0  0  0  0  0  0  0  0  0  0  0  0
  -24.6641  -23.2681   19.9003 C   0  0  0  0  0  0  0  0  0  0  0  0
  -22.6834  -27.8461   20.4597 C   0  0  0  0  0  0  0  0  0  0  0  0
  -23.7984  -26.9845   22.4221 C   0  0  0  0  0  0  0  0  0  0  0  0
  -22.2952  -23.6477   20.1446 C   0  0  0  0  0  0  0  0  0  0  0  0
  -24.5391  -22.0624   20.5895 C   0  0  0  0  0  0  0  0  0  0  0  0
  -27.0833  -18.2857   18.3740 C   0  0  0  0  0  0  0  0  0  0  0  0
  -31.5853  -19.8942   19.6545 C   0  0  0  0  0  0  0  0  0  0  0  0
  -21.4542  -27.4421   20.9807 C   0  0  0  0  0  0  0  0  0  0  0  0
  -22.5692  -26.5805   22.9432 C   0  0  0  0  0  0  0  0  0  0  0  0
  -28.4631  -18.2463   18.5701 C   0  0  0  0  0  0  0  0  0  0  0  0
  -19.2370  -28.5524   23.2794 C   0  0  0  0  0  0  0  0  0  0  0  0
  -18.1741  -29.4526   23.2053 C   0  0  0  0  0  0  0  0  0  0  0  0
  -31.8551  -21.2540   19.5467 C   0  0  0  0  0  0  0  0  0  0  0  0
  -28.1676  -16.5577   20.2673 C   0  0  0  0  0  0  0  0  0  0  0  0
  -16.9211  -27.8643   21.8846 C   0  0  0  0  0  0  0  0  0  0  0  0
  -31.6354  -19.7491   17.2811 C   0  0  0  0  0  0  0  0  0  0  0  0
  -23.8555  -27.6172   21.1804 C   0  0  0  0  0  0  0  0  0  0  0  0
  -25.7608  -29.2765   20.8274 C   0  0  0  0  0  0  0  0  0  0  0  0
  -22.1531  -22.4316   20.8313 C   0  0  0  0  0  0  0  0  0  0  0  0
  -26.2330  -17.4678   19.1320 C   0  0  0  0  0  0  0  0  0  0  0  0
  -23.2888  -21.6333   21.0664 C   0  0  0  0  0  0  0  0  0  0  0  0
  -26.7776  -16.5867   20.0770 C   0  0  0  0  0  0  0  0  0  0  0  0
  -31.4718  -19.1204   18.5049 C   0  0  0  0  0  0  0  0  0  0  0  0
  -21.3971  -26.8093   22.2224 C   0  0  0  0  0  0  0  0  0  0  0  0
  -29.0052  -17.3844   19.5189 C   0  0  0  0  0  0  0  0  0  0  0  0
  -19.1420  -27.3081   22.6561 C   0  0  0  0  0  0  0  0  0  0  0  0
  -17.0162  -29.1086   22.5079 C   0  0  0  0  0  0  0  0  0  0  0  0
  -17.9840  -26.9641   21.9587 C   0  0  0  0  0  0  0  0  0  0  0  0
  -25.1256  -28.0338   20.6424 C   0  0  0  0  0  0  0  0  0  0  0  0
  -32.0018  -21.7872   18.2762 C   0  0  0  0  0  0  0  0  0  0  0  0
  -26.9319  -29.1725   20.1174 C   0  0  0  0  0  0  0  0  0  0  0  0
  -25.3306  -30.4222   21.5743 C   0  0  0  0  0  0  0  0  0  0  0  0
  -23.8816  -17.9888   21.2063 C   0  0  0  0  0  0  0  0  0  0  0  0
  -23.5614  -14.7642   21.0583 C   0  0  0  0  0  0  0  0  0  0  0  0
  -24.9947  -11.7376   20.4014 C   0  0  0  0  0  0  0  0  0  0  0  0
  -30.2070  -24.5025   18.5943 C   0  0  0  0  0  0  0  0  0  0  0  0
  -20.7923  -22.0497   21.3575 C   0  0  0  0  0  0  0  0  0  0  0  0
  -24.7490  -17.5027   18.8896 C   0  0  0  0  0  0  0  0  0  0  0  0
  -25.9097  -15.6734   20.9023 C   0  0  0  0  0  0  0  0  0  0  0  0
  -20.6823  -20.5790   21.7514 C   0  0  0  0  0  0  0  0  0  0  0  0
  -28.8256  -26.9565   16.3212 C   0  0  0  0  0  0  0  0  0  0  0  0
  -21.8881  -20.1581   22.5855 C   0  0  0  0  0  0  0  0  0  0  0  0
  -27.7733  -27.6302   17.2038 C   0  0  0  0  0  0  0  0  0  0  0  0
  -28.9033  -25.4583   16.5994 C   0  0  0  0  0  0  0  0  0  0  0  0
  -28.1074  -25.7811   18.9094 C   0  0  0  0  0  0  0  0  0  0  0  0
  -23.1895  -20.3069   21.7881 C   0  0  1  0  0  0  0  0  0  0  0  0
  -23.9373  -16.9976   20.0784 C   0  0  1  0  0  0  0  0  0  0  0  0
  -27.9961  -27.3011   18.6919 C   0  0  2  0  0  0  0  0  0  0  0  0
  -32.4503  -16.8071   18.6908 C   0  0  0  0  0  0  0  0  0  0  0  0
  -24.4945   -9.2785   20.4062 C   0  0  0  0  0  0  0  0  0  0  0  0
  -23.7785  -14.7284   24.1016 C   0  0  0  0  0  0  0  0  0  0  0  0
  -24.2271  -12.2688   23.9711 C   0  0  0  0  0  0  0  0  0  0  0  0
  -22.0521  -13.1828   23.1606 C   0  0  0  0  0  0  0  0  0  0  0  0
  -25.5149  -11.5082   17.4970 C   0  0  0  0  0  0  0  0  0  0  0  0
  -32.2923  -23.2428   18.1231 C   0  0  0  0  0  0  0  0  0  0  0  0
  -31.1788  -17.6398   18.5881 C   0  0  1  0  0  0  0  0  0  1  0  0
  -24.1500  -13.5958   21.8114 C   0  0  1  0  0  0  0  0  0  0  0  0
  -24.5175  -10.5543   19.5789 C   0  0  2  0  0  0  0  0  0  0  0  0
  -23.5684  -13.4624   23.2472 C   0  0  0  0  0  0  0  0  0  0  0  0
  -31.8984  -21.0673   17.1366 N   0  0  0  0  0  0  0  0  0  0  0  0
  -25.8344  -27.2016   19.8749 N   0  0  0  0  0  0  0  0  0  0  0  0
  -26.9271  -27.9227   19.5713 N   0  0  0  0  0  0  0  0  0  0  0  0
  -24.4642  -15.7490   20.6330 N   0  0  0  0  0  0  0  0  0  0  0  0
  -29.1351  -25.2138   18.0300 N   0  0  0  0  0  0  0  0  0  0  0  0
  -27.9550  -30.0292   19.9131 N   0  0  0  0  0  0  0  0  0  0  0  0
  -24.1013  -30.3599   22.2445 N   0  0  0  0  0  0  0  0  0  0  0  0
  -23.3389  -19.2103   20.8556 N   0  0  0  0  0  0  0  0  0  0  0  0
  -23.9416  -12.4217   20.9709 N   0  0  0  0  0  0  0  0  0  0  0  0
  -31.1327  -23.9918   17.6926 N   0  0  0  0  0  0  0  0  0  0  0  0
  -25.4163  -10.3401   18.4096 N   0  3  0  0  0  0  0  0  0  0  0  0
  -26.0085  -31.4762   21.6318 O   0  0  0  0  0  0  0  0  0  0  0  0
  -24.2987  -17.6686   22.3132 O   0  0  0  0  0  0  0  0  0  0  0  0
  -22.3462  -14.7983   20.8488 O   0  0  0  0  0  0  0  0  0  0  0  0
  -26.1831  -12.0239   20.5294 O   0  0  0  0  0  0  0  0  0  0  0  0
  -30.3330  -24.3390   19.8127 O   0  0  0  0  0  0  0  0  0  0  0  0
  -20.1978  -26.4152   22.7312 O   0  0  0  0  0  0  0  0  0  0  0  0
  -30.3516  -17.3445   19.7128 O   0  0  0  0  0  0  0  0  0  1  0  0
  -15.9950  -29.9725   22.4381 F   0  0  0  0  0  0  0  0  0  0  0  0
  -17.8864  -25.7698   21.3588 F   0  0  0  0  0  0  0  0  0  0  0  0
  1  2  1  0  0  0  0
  1  5  2  0  0  0  0
  2  6  2  0  0  0  0
  3  9  2  0  0  0  0
  3 18  1  0  0  0  0
  4 10  1  0  0  0  0
  4 18  2  0  0  0  0
  5 20  1  0  0  0  0
  6 22  1  0  0  0  0
  7 11  2  0  0  0  0
  7 21  1  0  0  0  0
  8 14  2  0  0  0  0
  8 24  1  0  0  0  0
  9 25  1  0  0  0  0
 10 25  2  0  0  0  0
 11 26  1  0  0  0  0
 12 13  2  0  0  0  0
 12 27  1  0  0  0  0
 13 28  1  0  0  0  0
 14 31  1  0  0  0  0
 15 23  1  0  0  0  0
 15 26  2  0  0  0  0
 16 28  2  0  0  0  0
 16 29  1  0  0  0  0
 17 24  2  0  0  0  0
 17 61  1  0  0  0  0
 18 30  1  0  0  0  0
 19 30  1  0  0  0  0
 19 32  2  0  0  0  0
 19 33  1  0  0  0  0
 20 22  2  0  0  0  0
 20 38  1  0  0  0  0
 21 23  2  0  0  0  0
 21 39  1  0  0  0  0
 22 47  1  0  0  0  0
 23 40  1  0  0  0  0
 24 57  1  0  0  0  0
 25 77  1  0  0  0  0
 26 78  1  0  0  0  0
 27 29  2  0  0  0  0
 27 77  1  0  0  0  0
 28 79  1  0  0  0  0
 29 80  1  0  0  0  0
 30 62  2  0  0  0  0
 31 56  1  0  0  0  0
 31 61  2  0  0  0  0
 32 63  1  0  0  0  0
 32 66  1  0  0  0  0
 33 67  1  0  0  0  0
 33 72  2  0  0  0  0
 34 48  1  0  0  0  0
 34 68  1  0  0  0  0
 34 73  2  0  0  0  0
 35 58  1  0  0  0  0
 35 64  1  0  0  0  0
 35 74  2  0  0  0  0
 36 59  1  0  0  0  0
 36 69  1  0  0  0  0
 36 75  2  0  0  0  0
 37 65  1  0  0  0  0
 37 70  1  0  0  0  0
 37 76  2  0  0  0  0
 38 41  1  0  0  0  0
 39 48  1  0  0  0  0
 40 64  1  0  0  0  0
 41 43  1  0  0  0  0
 42 44  1  0  0  0  0
 42 45  1  0  0  0  0
 43 47  1  0  0  0  0
 44 49  1  0  0  0  0
 45 65  1  0  0  0  0
 46 49  1  0  0  0  0
 46 65  1  0  0  0  0
 47 68  1  0  0  0  0
 48 64  1  0  0  0  0
 49 63  1  0  0  0  0
 50 57  1  0  0  0  0
 51 59  1  0  0  0  0
 52 60  1  0  0  0  0
 53 60  1  0  0  0  0
 54 60  1  0  0  0  0
 55 71  1  0  0  0  0
 56 70  1  0  0  0  0
 57 78  1  0  0  0  0
 58 60  1  0  0  0  0
 58 69  1  0  0  0  0
 59 71  1  0  0  0  0
 62 63  1  0  0  0  0
M  CHG  1  71   1
M  ISO  4  37 100  57 101  70 100  78 101
M  END
> <Batch ID>
0124

> <Smiles>
CNC(C)C(=O)NC(C(=O)N1Cc2cc([101O:1][101CH:1](C)c3ccc(C[100NH:0][100C:0](=O)N4CCCC(n5nc(-c6ccc(Oc7ccc(F)cc7F)cc6)c(C(N)=O)c5N)C4)nc3)ccc2CC1C(=O)NC1CCCc2ccccc21)C(C)(C)C

> <Shape>
0.221

> <Color>
0.081

> <Negative vol penalty>
0.000

$$$$

  -OEChem-04052320333D

 93102  0     1  0  0  0  0  0999 V2000
  -25.9517  -35.2058   23.4523 C   0  0  0  0  0  0  0  0  0  0  0  0
  -26.5094  -33.9589   23.1881 C   0  0  0  0  0  0  0  0  0  0  0  0
  -21.8429  -12.6886   21.6172 C   0  0  0  0  0  0  0  0  0  0  0  0
  -24.0841  -13.1747   20.8570 C   0  0  0  0  0  0  0  0  0  0  0  0
  -24.6450  -35.2966   23.9299 C   0  0  0  0  0  0  0  0  0  0  0  0
  -25.7610  -32.8021   23.4025 C   0  0  0  0  0  0  0  0  0  0  0  0
  -26.1623  -29.4941   19.5892 C   0  0  0  0  0  0  0  0  0  0  0  0
  -22.3010  -11.5162   22.2182 C   0  0  0  0  0  0  0  0  0  0  0  0
  -24.5422  -12.0023   21.4581 C   0  0  0  0  0  0  0  0  0  0  0  0
  -27.3232  -28.7241   19.5338 C   0  0  0  0  0  0  0  0  0  0  0  0
  -25.3448  -10.9482   24.5670 C   0  0  0  0  0  0  0  0  0  0  0  0
  -26.5227  -11.0204   25.3105 C   0  0  0  0  0  0  0  0  0  0  0  0
  -26.1357  -26.8732   20.5252 C   0  0  0  0  0  0  0  0  0  0  0  0
  -27.5470   -9.3948   23.8458 C   0  0  0  0  0  0  0  0  0  0  0  0
  -22.7345  -13.5178   20.9365 C   0  0  0  0  0  0  0  0  0  0  0  0
  -21.2899  -14.8414   19.3028 C   0  0  0  0  0  0  0  0  0  0  0  0
  -23.8769  -34.1408   24.1411 C   0  0  0  0  0  0  0  0  0  0  0  0
  -24.9801  -28.9621   20.1240 C   0  0  0  0  0  0  0  0  0  0  0  0
  -24.4432  -32.8775   23.8847 C   0  0  0  0  0  0  0  0  0  0  0  0
  -24.9604  -27.6376   20.5839 C   0  0  0  0  0  0  0  0  0  0  0  0
  -23.6506  -11.1730   22.1387 C   0  0  0  0  0  0  0  0  0  0  0  0
  -27.3108  -27.4144   20.0044 C   0  0  0  0  0  0  0  0  0  0  0  0
  -25.2679  -10.0992   23.4629 C   0  0  0  0  0  0  0  0  0  0  0  0
  -27.6238  -10.2437   24.9500 C   0  0  0  0  0  0  0  0  0  0  0  0
  -26.3690   -9.3225   23.1023 C   0  0  0  0  0  0  0  0  0  0  0  0
  -22.2618  -14.7288   20.3150 C   0  0  0  0  0  0  0  0  0  0  0  0
  -21.2009  -16.1904   19.0608 C   0  0  0  0  0  0  0  0  0  0  0  0
  -20.5349  -13.8180   18.6407 C   0  0  0  0  0  0  0  0  0  0  0  0
  -23.1131  -29.6810   22.5940 C   0  0  0  0  0  0  0  0  0  0  0  0
  -21.2207  -27.3651   21.3380 C   0  0  0  0  0  0  0  0  0  0  0  0
  -20.9654  -24.5637   19.4057 C   0  0  0  0  0  0  0  0  0  0  0  0
  -24.8632  -20.7364   19.6914 C   0  0  0  0  0  0  0  0  0  0  0  0
  -22.4851  -34.2868   24.7034 C   0  0  0  0  0  0  0  0  0  0  0  0
  -23.7293  -29.7969   20.1521 C   0  0  0  0  0  0  0  0  0  0  0  0
  -23.7118  -27.0128   21.1487 C   0  0  0  0  0  0  0  0  0  0  0  0
  -21.6306  -33.0314   24.5482 C   0  0  0  0  0  0  0  0  0  0  0  0
  -32.4352  -19.8159   17.3724 C   0  0  0  0  0  0  0  0  0  0  0  0
  -32.7345  -18.3697   16.9920 C   0  0  0  0  0  0  0  0  0  0  0  0
  -21.7608  -20.4312   21.1890 C   0  0  0  0  0  0  0  0  0  0  0  0
  -22.4184  -31.7943   24.9675 C   0  0  0  0  0  0  0  0  0  0  0  0
  -21.4297  -18.9464   21.0414 C   0  0  0  0  0  0  0  0  0  0  0  0
  -31.9539  -19.9403   18.8178 C   0  0  0  0  0  0  0  0  0  0  0  0
  -31.5419  -17.4542   17.2639 C   0  0  0  0  0  0  0  0  0  0  0  0
  -28.2033  -19.9832   20.5257 C   0  0  0  0  0  0  0  0  0  0  0  0
  -23.2289  -20.6295   21.5483 C   0  0  0  0  0  0  0  0  0  0  0  0
  -26.9075  -19.2929   20.0863 C   0  0  0  0  0  0  0  0  0  0  0  0
  -26.7699  -20.7825   18.1104 C   0  0  0  0  0  0  0  0  0  0  0  0
  -23.8588  -18.5227   20.4155 C   0  0  0  0  0  0  0  0  0  0  0  0
  -23.6547  -31.6009   24.0811 C   0  0  1  0  0  0  0  0  0  0  0  0
  -22.7170  -29.3218   21.1898 C   0  0  1  0  0  0  0  0  0  0  0  0
  -28.0463  -21.5221   18.5370 C   0  0  1  0  0  0  0  0  0  0  0  0
  -22.3842  -18.2636   20.0456 C   0  0  1  0  0  0  0  0  0  0  0  0
  -30.7701  -19.0162   19.1342 C   0  0  2  0  0  0  0  0  0  0  0  0
  -28.9822  -20.5961   19.3504 C   0  0  2  0  0  0  0  0  0  0  0  0
  -31.0121  -17.5654   18.6964 C   0  0  2  0  0  0  0  0  0  0  0  0
  -19.8595  -22.6801   18.1701 C   0  0  0  0  0  0  0  0  0  0  0  0
  -30.7723  -23.3618   16.5388 C   0  0  0  0  0  0  0  0  0  0  0  0
  -30.7162  -15.1327   20.6431 C   0  0  0  0  0  0  0  0  0  0  0  0
  -33.1980  -14.9060   20.2386 C   0  0  0  0  0  0  0  0  0  0  0  0
  -21.2419  -26.0334   24.0832 C   0  0  0  0  0  0  0  0  0  0  0  0
  -20.3970  -23.9415   22.9978 C   0  0  0  0  0  0  0  0  0  0  0  0
  -19.0203  -26.0208   22.9347 C   0  0  0  0  0  0  0  0  0  0  0  0
  -20.6301  -26.2064   16.9668 C   0  0  0  0  0  0  0  0  0  0  0  0
  -28.7342  -22.1532   17.3248 C   0  0  0  0  0  0  0  0  0  0  0  0
  -30.0825  -25.6514   18.5128 C   0  0  0  0  0  0  0  0  0  0  0  0
  -29.1028  -24.5802   18.0285 C   0  0  0  0  0  0  0  0  0  0  0  0
  -29.3603  -26.9367   18.8966 C   0  0  0  0  0  0  0  0  0  1  0  0
  -21.1036  -25.8699   21.5102 C   0  0  1  0  0  0  0  0  0  0  0  0
  -19.9980  -24.1892   18.2973 C   0  0  2  0  0  0  0  0  0  0  0  0
  -29.7717  -23.2306   17.6932 C   0  0  2  0  0  0  0  0  0  0  0  0
  -31.8807  -15.4628   19.7232 C   0  0  0  0  0  0  0  0  0  0  0  0
  -20.4649  -25.4785   22.8727 C   0  0  0  0  0  0  0  0  0  0  0  0
  -22.7551  -15.9120   20.6901 N   0  0  0  0  0  0  0  0  0  0  0  0
  -22.0906  -16.7809   19.9094 N   0  0  0  0  0  0  0  0  0  0  0  0
  -22.5160  -27.8716   21.1606 N   0  0  0  0  0  0  0  0  0  0  0  0
  -24.1027  -19.9639   20.5822 N   0  0  0  0  0  0  0  0  0  0  0  0
  -26.0883  -20.1983   19.2679 N   0  0  0  0  0  0  0  0  0  0  0  0
  -20.4494  -16.9174   18.2069 N   0  0  0  0  0  0  0  0  0  0  0  0
  -21.0637  -13.2454   17.4759 N   0  0  0  0  0  0  0  0  0  0  0  0
  -23.2769  -31.0371   22.8029 N   0  0  0  0  0  0  0  0  0  0  0  0
  -20.3736  -25.3807   20.3456 N   0  0  0  0  0  0  0  0  0  0  0  0
  -29.5532  -19.5210   18.5339 N   0  0  0  0  0  0  0  0  0  0  0  0
  -31.9995  -16.9380   19.6259 N   0  3  0  0  0  0  0  0  0  0  0  0
  -20.4719  -24.7294   16.9917 N   0  3  0  0  0  0  0  0  0  0  0  0
  -19.4166  -13.4346   19.0601 O   0  0  0  0  0  0  0  0  0  0  0  0
  -23.2578  -28.7936   23.4267 O   0  0  0  0  0  0  0  0  0  0  0  0
  -20.1998  -28.0573   21.3528 O   0  0  0  0  0  0  0  0  0  0  0  0
  -22.1285  -24.1677   19.4366 O   0  0  0  0  0  0  0  0  0  0  0  0
  -24.4712  -21.8419   19.2971 O   0  0  0  0  0  0  0  0  0  0  0  0
  -24.0980  -10.0292   22.7252 O   0  0  0  0  0  0  0  0  0  0  0  0
  -28.4510  -26.6553   19.9517 O   0  0  0  0  0  0  0  0  0  1  0  0
  -28.7554  -10.3143   25.6632 F   0  0  0  0  0  0  0  0  0  0  0  0
  -26.3015   -8.5060   22.0419 F   0  0  0  0  0  0  0  0  0  0  0  0
  1  2  1  0  0  0  0
  1  5  2  0  0  0  0
  2  6  2  0  0  0  0
  3  8  2  0  0  0  0
  3 15  1  0  0  0  0
  4  9  1  0  0  0  0
  4 15  2  0  0  0  0
  5 17  1  0  0  0  0
  6 19  1  0  0  0  0
  7 10  2  0  0  0  0
  7 18  1  0  0  0  0
  8 21  1  0  0  0  0
  9 21  2  0  0  0  0
 10 22  1  0  0  0  0
 11 12  2  0  0  0  0
 11 23  1  0  0  0  0
 12 24  1  0  0  0  0
 13 20  1  0  0  0  0
 13 22  2  0  0  0  0
 14 24  2  0  0  0  0
 14 25  1  0  0  0  0
 15 26  1  0  0  0  0
 16 26  1  0  0  0  0
 16 27  2  0  0  0  0
 16 28  1  0  0  0  0
 17 19  2  0  0  0  0
 17 33  1  0  0  0  0
 18 20  2  0  0  0  0
 18 34  1  0  0  0  0
 19 49  1  0  0  0  0
 20 35  1  0  0  0  0
 21 90  1  0  0  0  0
 22 91  1  0  0  0  0
 23 25  2  0  0  0  0
 23 90  1  0  0  0  0
 24 92  1  0  0  0  0
 25 93  1  0  0  0  0
 26 73  2  0  0  0  0
 27 74  1  0  0  0  0
 27 78  1  0  0  0  0
 28 79  1  0  0  0  0
 28 85  2  0  0  0  0
 29 50  1  0  0  0  0
 29 80  1  0  0  0  0
 29 86  2  0  0  0  0
 30 68  1  0  0  0  0
 30 75  1  0  0  0  0
 30 87  2  0  0  0  0
 31 69  1  0  0  0  0
 31 81  1  0  0  0  0
 31 88  2  0  0  0  0
 32 76  1  0  0  0  0
 32 77  1  0  0  0  0
 32 89  2  0  0  0  0
 33 36  1  0  0  0  0
 34 50  1  0  0  0  0
 35 75  1  0  0  0  0
 36 40  1  0  0  0  0
 37 38  1  0  0  0  0
 37 42  1  0  0  0  0
 38 43  1  0  0  0  0
 39 41  1  0  0  0  0
 39 45  1  0  0  0  0
 40 49  1  0  0  0  0
 41 52  1  0  0  0  0
 42 53  1  0  0  0  0
 43 55  1  0  0  0  0
 44 46  1  0  0  0  0
 44 54  1  0  0  0  0
 45 76  1  0  0  0  0
 46 77  1  0  0  0  0
 47 51  1  0  0  0  0
 47 77  1  0  0  0  0
 48 52  1  0  0  0  0
 48 76  1  0  0  0  0
 49 80  1  0  0  0  0
 50 75  1  0  0  0  0
 51 54  1  0  0  0  0
 51 64  1  0  0  0  0
 52 74  1  0  0  0  0
 53 55  1  0  0  0  0
 53 82  1  0  0  0  0
 54 82  1  0  0  0  0
 55 83  1  0  0  0  0
 56 69  1  0  0  0  0
 57 70  1  0  0  0  0
 58 71  1  0  0  0  0
 59 71  1  0  0  0  0
 60 72  1  0  0  0  0
 61 72  1  0  0  0  0
 62 72  1  0  0  0  0
 63 84  1  0  0  0  0
 64 70  1  0  0  0  0
 65 66  1  0  0  0  0
 65 67  1  0  0  0  0
 66 70  1  0  0  0  0
 67 91  1  0  0  0  0
 68 72  1  0  0  0  0
 68 81  1  0  0  0  0
 69 84  1  0  0  0  0
 71 83  1  0  0  0  0
 73 74  1  0  0  0  0
M  CHG  2  83   1  84   1
M  ISO  4  32 100  67 101  77 100  91 101
M  END
> <Batch ID>
0124

> <Smiles>
CNC(C)C(=O)NC(C(=O)N1Cc2cc([101O:1][101CH2:1]CCC(C)CC3C[100N:0]([100C:0](=O)N4CCCC(n5nc(-c6ccc(Oc7ccc(F)cc7F)cc6)c(C(N)=O)c5N)C4)CCC3NC3CCCCC3NC(C)C)ccc2CC1C(=O)NC1CCCc2ccccc21)C(C)(C)C

> <Shape>
0.230

> <Color>
0.054

> <Negative vol penalty>
0.000

$$$$

  -OEChem-04052320333D

 88 97  0     1  0  0  0  0  0999 V2000
  -32.1842  -24.9593   16.0154 C   0  0  0  0  0  0  0  0  0  0  0  0
  -30.8441  -25.0546   16.3765 C   0  0  0  0  0  0  0  0  0  0  0  0
  -24.7380   -8.6700   21.6008 C   0  0  0  0  0  0  0  0  0  0  0  0
  -23.0364  -10.2390   20.9080 C   0  0  0  0  0  0  0  0  0  0  0  0
  -33.1769  -25.0775   16.9872 C   0  0  0  0  0  0  0  0  0  0  0  0
  -30.4959  -25.2670   17.7099 C   0  0  0  0  0  0  0  0  0  0  0  0
  -26.8924  -28.7854   18.2401 C   0  0  0  0  0  0  0  0  0  0  0  0
  -23.8275   -8.0652   22.4673 C   0  0  0  0  0  0  0  0  0  0  0  0
  -22.1259   -9.6341   21.7745 C   0  0  0  0  0  0  0  0  0  0  0  0
  -25.5808  -28.3997   17.9665 C   0  0  0  0  0  0  0  0  0  0  0  0
  -21.8497   -5.8803   24.5956 C   0  0  0  0  0  0  0  0  0  0  0  0
  -24.4774  -19.2101   18.4008 C   0  0  0  0  0  0  0  0  0  0  0  0
  -21.7987   -4.4866   24.6131 C   0  0  0  0  0  0  0  0  0  0  0  0
  -24.9799  -17.9814   18.8142 C   0  0  0  0  0  0  0  0  0  0  0  0
  -25.1675  -28.1506   20.3301 C   0  0  0  0  0  0  0  0  0  0  0  0
  -21.2105   -4.4786   22.2698 C   0  0  0  0  0  0  0  0  0  0  0  0
  -24.3424   -9.7570   20.8212 C   0  0  0  0  0  0  0  0  0  0  0  0
  -25.5247  -10.0508   18.5799 C   0  0  0  0  0  0  0  0  0  0  0  0
  -32.8410  -25.3011   18.3317 C   0  0  0  0  0  0  0  0  0  0  0  0
  -27.3554  -28.8461   19.5623 C   0  0  0  0  0  0  0  0  0  0  0  0
  -31.4850  -25.3869   18.7009 C   0  0  0  0  0  0  0  0  0  0  0  0
  -26.4847  -28.5398   20.6179 C   0  0  0  0  0  0  0  0  0  0  0  0
  -22.5214   -8.5472   22.5541 C   0  0  0  0  0  0  0  0  0  0  0  0
  -24.7190  -28.0795   19.0114 C   0  0  0  0  0  0  0  0  0  0  0  0
  -21.5809   -6.5733   23.4152 C   0  0  0  0  0  0  0  0  0  0  0  0
  -25.3068  -20.3261   18.3902 C   0  0  0  0  0  0  0  0  0  0  0  0
  -21.4792   -3.7857   23.4502 C   0  0  0  0  0  0  0  0  0  0  0  0
  -21.2614   -5.8724   22.2523 C   0  0  0  0  0  0  0  0  0  0  0  0
  -25.2827  -10.3826   19.9264 C   0  0  0  0  0  0  0  0  0  0  0  0
  -26.3081  -17.9218   19.2042 C   0  0  0  0  0  0  0  0  0  0  0  0
  -26.6203  -20.1617   18.7994 C   0  0  0  0  0  0  0  0  0  0  0  0
  -26.4991  -10.9318   18.1789 C   0  0  0  0  0  0  0  0  0  0  0  0
  -24.9224   -9.0369   17.7644 C   0  0  0  0  0  0  0  0  0  0  0  0
  -29.6274  -27.3583   21.2140 C   0  0  0  0  0  0  0  0  0  0  0  0
  -28.7861  -29.4710   23.5272 C   0  0  0  0  0  0  0  0  0  0  0  0
  -26.4054  -31.5340   24.8400 C   0  0  0  0  0  0  0  0  0  0  0  0
  -28.1044  -16.3735   20.0540 C   0  0  0  0  0  0  0  0  0  0  0  0
  -33.9476  -25.3750   19.3538 C   0  0  0  0  0  0  0  0  0  0  0  0
  -28.7651  -29.2897   19.8421 C   0  0  0  0  0  0  0  0  0  0  0  0
  -26.9267  -28.6088   22.0560 C   0  0  0  0  0  0  0  0  0  0  0  0
  -33.5063  -25.9733   20.6871 C   0  0  0  0  0  0  0  0  0  0  0  0
  -30.1750  -13.4818   19.8878 C   0  0  0  0  0  0  0  0  0  0  0  0
  -32.1882  -25.3535   21.1402 C   0  0  0  0  0  0  0  0  0  0  0  0
  -29.1776  -12.3292   19.7501 C   0  0  0  0  0  0  0  0  0  0  0  0
  -21.6820  -23.1918   16.7339 C   0  0  0  0  0  0  0  0  0  0  0  0
  -29.6490  -14.5798   20.8104 C   0  0  0  0  0  0  0  0  0  0  0  0
  -27.3188  -13.9400   20.3306 C   0  0  0  0  0  0  0  0  0  0  0  0
  -21.4564  -24.6933   16.7901 C   0  0  0  0  0  0  0  0  0  0  0  0
  -23.2085  -24.0010   18.3496 C   0  0  0  0  0  0  0  0  0  0  0  0
  -31.0682  -25.6417   20.1332 C   0  0  1  0  0  0  0  0  0  0  0  0
  -29.2811  -28.8203   21.1989 C   0  0  1  0  0  0  0  0  0  0  0  0
  -23.1237  -23.0225   17.1901 C   0  0  1  0  0  0  0  0  0  0  0  0
  -27.7768  -12.8397   19.3594 C   0  0  2  0  0  0  0  0  0  0  0  0
  -25.9967  -33.1015   26.7565 C   0  0  0  0  0  0  0  0  0  0  0  0
  -28.4131  -27.0868   25.3944 C   0  0  0  0  0  0  0  0  0  0  0  0
  -27.1258  -28.5832   26.9345 C   0  0  0  0  0  0  0  0  0  0  0  0
  -29.5225  -29.0685   26.4416 C   0  0  0  0  0  0  0  0  0  0  0  0
  -25.9890  -33.8325   23.0227 C   0  0  0  0  0  0  0  0  0  0  0  0
  -28.8014  -21.0054   19.2315 C   0  0  0  0  0  0  0  0  0  0  0  0
  -23.4633  -21.5976   17.5898 C   0  0  0  0  0  0  0  0  0  0  0  0
  -21.7698  -25.9822   18.9466 C   0  0  0  0  0  0  0  0  0  0  0  0
  -22.8247  -26.7993   19.6661 C   0  0  0  0  0  0  0  0  0  1  0  0
  -27.7820  -29.4785   24.6544 C   0  0  1  0  0  0  0  0  0  0  0  0
  -26.4722  -32.9734   25.3177 C   0  0  2  0  0  0  0  0  0  0  0  0
  -28.2028  -28.5510   25.8292 C   0  0  0  0  0  0  0  0  0  0  0  0
  -26.0423  -11.3953   20.3525 N   0  0  0  0  0  0  0  0  0  0  0  0
  -27.1442  -18.9841   19.2075 N   0  0  0  0  0  0  0  0  0  0  0  0
  -26.7712  -11.7073   19.2674 N   0  0  0  0  0  0  0  0  0  0  0  0
  -28.3163  -29.0417   22.2779 N   0  0  0  0  0  0  0  0  0  0  0  0
  -28.3202  -15.0170   20.3765 N   0  0  0  0  0  0  0  0  0  0  0  0
  -27.1413  -11.1110   17.0051 N   0  0  0  0  0  0  0  0  0  0  0  0
  -23.9373   -8.2190   18.3342 N   0  0  0  0  0  0  0  0  0  0  0  0
  -26.8107  -16.6649   19.6229 N   0  0  0  0  0  0  0  0  0  0  0  0
  -30.5867  -26.9977   20.2871 N   0  0  0  0  0  0  0  0  0  0  0  0
  -27.6020  -30.8763   25.0316 N   0  0  0  0  0  0  0  0  0  0  0  0
  -22.4171  -25.1933   17.8541 N   0  3  2  0  0  0  0  0  0  0  0  0
  -25.6178  -33.8436   24.4611 N   0  3  0  0  0  0  0  0  0  0  0  0
  -25.2600   -8.8508   16.5707 O   0  0  0  0  0  0  0  0  0  0  0  0
  -29.0670  -26.6128   22.0089 O   0  0  0  0  0  0  0  0  0  0  0  0
  -29.9429  -29.8396   23.7454 O   0  0  0  0  0  0  0  0  0  0  0  0
  -25.3919  -31.0413   24.3495 O   0  0  0  0  0  0  0  0  0  0  0  0
  -29.0086  -17.2097   20.1271 O   0  0  0  0  0  0  0  0  0  0  0  0
  -21.6327   -7.9571   23.3993 O   0  0  0  0  0  0  0  0  0  0  0  0
  -24.8240  -21.5451   17.9860 O   0  0  0  0  0  0  0  0  0  0  0  0
  -23.4385  -27.7022   18.7472 O   0  0  0  0  0  0  0  0  0  1  0  0
  -27.4663  -21.2402   18.8006 O   0  0  0  0  0  0  0  0  0  0  0  0
  -21.4319   -2.4471   23.4668 F   0  0  0  0  0  0  0  0  0  0  0  0
  -21.0034   -6.5326   21.1151 F   0  0  0  0  0  0  0  0  0  0  0  0
  1  2  1  0  0  0  0
  1  5  2  0  0  0  0
  2  6  2  0  0  0  0
  3  8  2  0  0  0  0
  3 17  1  0  0  0  0
  4  9  1  0  0  0  0
  4 17  2  0  0  0  0
  5 19  1  0  0  0  0
  6 21  1  0  0  0  0
  7 10  2  0  0  0  0
  7 20  1  0  0  0  0
  8 23  1  0  0  0  0
  9 23  2  0  0  0  0
 10 24  1  0  0  0  0
 11 13  2  0  0  0  0
 11 25  1  0  0  0  0
 12 14  2  0  0  0  0
 12 26  1  0  0  0  0
 13 27  1  0  0  0  0
 14 30  1  0  0  0  0
 15 22  1  0  0  0  0
 15 24  2  0  0  0  0
 16 27  2  0  0  0  0
 16 28  1  0  0  0  0
 17 29  1  0  0  0  0
 18 29  1  0  0  0  0
 18 32  2  0  0  0  0
 18 33  1  0  0  0  0
 19 21  2  0  0  0  0
 19 38  1  0  0  0  0
 20 22  2  0  0  0  0
 20 39  1  0  0  0  0
 21 50  1  0  0  0  0
 22 40  1  0  0  0  0
 23 83  1  0  0  0  0
 24 85  1  0  0  0  0
 25 28  2  0  0  0  0
 25 83  1  0  0  0  0
 26 31  2  0  0  0  0
 26 84  1  0  0  0  0
 27 87  1  0  0  0  0
 28 88  1  0  0  0  0
 29 66  2  0  0  0  0
 30 67  2  0  0  0  0
 30 73  1  0  0  0  0
 31 67  1  0  0  0  0
 31 86  1  0  0  0  0
 32 68  1  0  0  0  0
 32 71  1  0  0  0  0
 33 72  1  0  0  0  0
 33 78  2  0  0  0  0
 34 51  1  0  0  0  0
 34 74  1  0  0  0  0
 34 79  2  0  0  0  0
 35 63  1  0  0  0  0
 35 69  1  0  0  0  0
 35 80  2  0  0  0  0
 36 64  1  0  0  0  0
 36 75  1  0  0  0  0
 36 81  2  0  0  0  0
 37 70  1  0  0  0  0
 37 73  1  0  0  0  0
 37 82  2  0  0  0  0
 38 41  1  0  0  0  0
 39 51  1  0  0  0  0
 40 69  1  0  0  0  0
 41 43  1  0  0  0  0
 42 44  1  0  0  0  0
 42 46  1  0  0  0  0
 43 50  1  0  0  0  0
 44 53  1  0  0  0  0
 45 48  1  0  0  0  0
 45 52  1  0  0  0  0
 46 70  1  0  0  0  0
 47 53  1  0  0  0  0
 47 70  1  0  0  0  0
 48 76  1  0  0  0  0
 49 52  1  0  0  0  0
 49 76  1  0  0  0  0
 50 74  1  0  0  0  0
 51 69  1  0  0  0  0
 52 60  1  0  0  0  0
 53 68  1  0  0  0  0
 54 64  1  0  0  0  0
 55 65  1  0  0  0  0
 56 65  1  0  0  0  0
 57 65  1  0  0  0  0
 58 77  1  0  0  0  0
 59 86  1  0  0  0  0
 60 84  1  0  0  0  0
 61 62  1  0  0  0  0
 61 76  1  0  0  0  0
 62 85  1  0  0  0  0
 63 65  1  0  0  0  0
 63 75  1  0  0  0  0
 64 77  1  0  0  0  0
 66 68  1  0  0  0  0
M  CHG  2  76   1  77   1
M  ISO  4  37 100  62 101  73 100  85 101
M  END
> <Batch ID>
0124

> <Smiles>
CNC(C)C(=O)NC(C(=O)N1Cc2cc([101O:1][101CH2:1]CN3CCC(COc4ccc([100NH:0][100C:0](=O)N5CCCC(n6nc(-c7ccc(Oc8ccc(F)cc8F)cc7)c(C(N)=O)c6N)C5)nc4OC)C3)ccc2CC1C(=O)NC1CCCc2ccccc21)C(C)(C)C

> <Shape>
0.269

> <Color>
0.080

> <Negative vol penalty>
0.000

$$$$

  -OEChem-04052320333D

 86 95  0     1  0  0  0  0  0999 V2000
  -23.4477  -19.1872   25.0654 C   0  0  0  0  0  0  0  0  0  0  0  0
  -24.6283  -19.7124   24.5496 C   0  0  0  0  0  0  0  0  0  0  0  0
  -23.1739   -9.7620   21.4643 C   0  0  0  0  0  0  0  0  0  0  0  0
  -23.7986  -10.7664   23.5710 C   0  0  0  0  0  0  0  0  0  0  0  0
  -22.2352  -19.8313   24.8230 C   0  0  0  0  0  0  0  0  0  0  0  0
  -24.5967  -20.8814   23.7901 C   0  0  0  0  0  0  0  0  0  0  0  0
  -28.2505  -24.1394   25.0864 C   0  0  0  0  0  0  0  0  0  0  0  0
  -22.4983   -8.7505   22.1469 C   0  0  0  0  0  0  0  0  0  0  0  0
  -23.1229   -9.7550   24.2536 C   0  0  0  0  0  0  0  0  0  0  0  0
  -29.5356  -23.8758   24.6142 C   0  0  0  0  0  0  0  0  0  0  0  0
  -23.2805   -5.9000   23.7862 C   0  0  0  0  0  0  0  0  0  0  0  0
  -23.4720   -4.5878   23.3540 C   0  0  0  0  0  0  0  0  0  0  0  0
  -29.2182  -25.5020   22.8609 C   0  0  0  0  0  0  0  0  0  0  0  0
  -29.1232  -18.6031   20.9460 C   0  0  0  0  0  0  0  0  0  0  0  0
  -21.1059   -4.3895   22.9077 C   0  0  0  0  0  0  0  0  0  0  0  0
  -23.8241  -10.7700   22.1763 C   0  0  0  0  0  0  0  0  0  0  0  0
  -23.9973  -13.0474   21.0401 C   0  0  0  0  0  0  0  0  0  0  0  0
  -22.1900  -21.0141   24.0683 C   0  0  0  0  0  0  0  0  0  0  0  0
  -27.4343  -25.0799   24.4418 C   0  0  0  0  0  0  0  0  0  0  0  0
  -23.3823  -21.5412   23.5363 C   0  0  0  0  0  0  0  0  0  0  0  0
  -27.9242  -25.7775   23.3285 C   0  0  0  0  0  0  0  0  0  0  0  0
  -29.4862  -19.9414   20.8438 C   0  0  0  0  0  0  0  0  0  0  0  0
  -30.7371  -20.2801   20.3400 C   0  0  0  0  0  0  0  0  0  0  0  0
  -22.4727   -8.7470   23.5415 C   0  0  0  0  0  0  0  0  0  0  0  0
  -30.0185  -24.5550   23.4996 C   0  0  0  0  0  0  0  0  0  0  0  0
  -22.0017   -6.4570   23.7793 C   0  0  0  0  0  0  0  0  0  0  0  0
  -22.3847   -3.8325   22.9147 C   0  0  0  0  0  0  0  0  0  0  0  0
  -20.9144   -5.7018   23.3400 C   0  0  0  0  0  0  0  0  0  0  0  0
  -24.5228  -11.8148   21.4718 C   0  0  0  0  0  0  0  0  0  0  0  0
  -31.5816  -19.2513   19.9552 C   0  0  0  0  0  0  0  0  0  0  0  0
  -30.0399  -17.6493   20.5339 C   0  0  0  0  0  0  0  0  0  0  0  0
  -25.0542  -13.6758   20.4281 C   0  0  0  0  0  0  0  0  0  0  0  0
  -22.6723  -13.5770   21.1800 C   0  0  0  0  0  0  0  0  0  0  0  0
  -24.6350  -24.9659   22.9403 C   0  0  0  0  0  0  0  0  0  0  0  0
  -24.9942  -28.1884   22.8478 C   0  0  0  0  0  0  0  0  0  0  0  0
  -27.1016  -30.8718   22.9175 C   0  0  0  0  0  0  0  0  0  0  0  0
  -30.4161  -15.1703   20.2908 C   0  0  0  0  0  0  0  0  0  0  0  0
  -20.8498  -21.6488   23.7931 C   0  0  0  0  0  0  0  0  0  0  0  0
  -26.0604  -25.3721   24.9797 C   0  0  0  0  0  0  0  0  0  0  0  0
  -27.0952  -26.8115   22.6129 C   0  0  0  0  0  0  0  0  0  0  0  0
  -20.9485  -23.0880   23.2936 C   0  0  0  0  0  0  0  0  0  0  0  0
  -29.6087  -11.9156   19.0939 C   0  0  0  0  0  0  0  0  0  0  0  0
  -22.0043  -23.2019   22.1987 C   0  0  0  0  0  0  0  0  0  0  0  0
  -35.1980  -23.3305   21.1428 C   0  0  0  0  0  0  0  0  0  0  0  0
  -34.8802  -24.7982   21.2110 C   0  0  0  0  0  0  0  0  0  0  0  0
  -28.1703  -11.7007   19.5703 C   0  0  0  0  0  0  0  0  0  0  0  0
  -30.4353  -12.6914   20.1179 C   0  0  0  0  0  0  0  0  0  0  0  0
  -28.4068  -13.7471   21.0343 C   0  0  0  0  0  0  0  0  0  0  0  0
  -23.3920  -22.8209   22.7286 C   0  0  1  0  0  0  0  0  0  0  0  0
  -25.1266  -25.9777   23.9363 C   0  0  1  0  0  0  0  0  0  0  0  0
  -33.9223  -23.7941   21.7896 C   0  0  0  0  0  0  0  0  0  0  0  0
  -27.5175  -13.0265   20.0079 C   0  0  2  0  0  0  0  0  0  0  0  0
  -28.5197  -20.9923   21.2805 C   0  0  0  0  0  0  0  0  0  0  0  0
  -32.9383  -19.5548   19.4078 C   0  0  0  0  0  0  0  0  0  0  0  0
  -27.1052  -33.3777   22.7838 C   0  0  0  0  0  0  0  0  0  0  0  0
  -24.5517  -28.0257   19.8332 C   0  0  0  0  0  0  0  0  0  0  0  0
  -25.4921  -30.3380   19.6406 C   0  0  0  0  0  0  0  0  0  0  0  0
  -23.4074  -29.9467   20.9534 C   0  0  0  0  0  0  0  0  0  0  0  0
  -28.2713  -31.1304   25.6238 C   0  0  0  0  0  0  0  0  0  0  0  0
  -31.1562  -21.7155   20.2169 C   0  0  0  0  0  0  0  0  0  0  0  0
  -31.4929  -24.4624   21.6358 C   0  0  0  0  0  0  0  0  0  1  0  0
  -25.6241  -29.1667   21.8860 C   0  0  1  0  0  0  0  0  0  0  0  0
  -27.0552  -32.1688   23.7051 C   0  0  2  0  0  0  0  0  0  0  0  0
  -32.6009  -23.5399   21.1241 C   0  0  2  0  0  0  0  0  0  0  0  0
  -24.7840  -29.3484   20.5904 C   0  0  0  0  0  0  0  0  0  0  0  0
  -25.8131  -11.6669   21.1602 N   0  0  0  0  0  0  0  0  0  0  0  0
  -31.2641  -17.9400   20.0395 N   0  0  0  0  0  0  0  0  0  0  0  0
  -26.1073  -12.8147   20.5262 N   0  0  0  0  0  0  0  0  0  0  0  0
  -25.7561  -27.0573   23.1731 N   0  0  0  0  0  0  0  0  0  0  0  0
  -29.7571  -13.9374   20.4819 N   0  0  0  0  0  0  0  0  0  0  0  0
  -25.1760  -14.8753   19.8208 N   0  0  0  0  0  0  0  0  0  0  0  0
  -21.7078  -12.7998   21.8357 N   0  0  0  0  0  0  0  0  0  0  0  0
  -29.6606  -16.2884   20.6423 N   0  0  0  0  0  0  0  0  0  0  0  0
  -23.9517  -23.9060   23.5055 N   0  0  0  0  0  0  0  0  0  0  0  0
  -25.8370  -30.3987   22.6378 N   0  0  0  0  0  0  0  0  0  0  0  0
  -28.2095  -32.2459   24.6446 N   0  3  0  0  0  0  0  0  0  0  0  0
  -32.1326  -22.1273   21.2559 N   0  3  0  0  0  0  0  0  0  0  0  0
  -22.3488  -14.6992   20.7222 O   0  0  0  0  0  0  0  0  0  0  0  0
  -24.8578  -25.1349   21.7472 O   0  0  0  0  0  0  0  0  0  0  0  0
  -23.8705  -28.4229   23.2995 O   0  0  0  0  0  0  0  0  0  0  0  0
  -28.1542  -30.3343   22.5807 O   0  0  0  0  0  0  0  0  0  0  0  0
  -31.5559  -15.2312   19.8226 O   0  0  0  0  0  0  0  0  0  0  0  0
  -21.8133   -7.7603   24.2080 O   0  0  0  0  0  0  0  0  0  0  0  0
  -31.2722  -24.2992   23.0361 O   0  0  0  0  0  0  0  0  0  1  0  0
  -22.5690   -2.5728   22.4982 F   0  0  0  0  0  0  0  0  0  0  0  0
  -19.6836   -6.2318   23.3299 F   0  0  0  0  0  0  0  0  0  0  0  0
  1  2  1  0  0  0  0
  1  5  2  0  0  0  0
  2  6  2  0  0  0  0
  3  8  2  0  0  0  0
  3 16  1  0  0  0  0
  4  9  1  0  0  0  0
  4 16  2  0  0  0  0
  5 18  1  0  0  0  0
  6 20  1  0  0  0  0
  7 10  2  0  0  0  0
  7 19  1  0  0  0  0
  8 24  1  0  0  0  0
  9 24  2  0  0  0  0
 10 25  1  0  0  0  0
 11 12  2  0  0  0  0
 11 26  1  0  0  0  0
 12 27  1  0  0  0  0
 13 21  1  0  0  0  0
 13 25  2  0  0  0  0
 14 22  2  0  0  0  0
 14 31  1  0  0  0  0
 15 27  2  0  0  0  0
 15 28  1  0  0  0  0
 16 29  1  0  0  0  0
 17 29  1  0  0  0  0
 17 32  2  0  0  0  0
 17 33  1  0  0  0  0
 18 20  2  0  0  0  0
 18 38  1  0  0  0  0
 19 21  2  0  0  0  0
 19 39  1  0  0  0  0
 20 49  1  0  0  0  0
 21 40  1  0  0  0  0
 22 23  1  0  0  0  0
 22 53  1  0  0  0  0
 23 30  2  0  0  0  0
 23 60  1  0  0  0  0
 24 83  1  0  0  0  0
 25 84  1  0  0  0  0
 26 28  2  0  0  0  0
 26 83  1  0  0  0  0
 27 85  1  0  0  0  0
 28 86  1  0  0  0  0
 29 66  2  0  0  0  0
 30 54  1  0  0  0  0
 30 67  1  0  0  0  0
 31 67  2  0  0  0  0
 31 73  1  0  0  0  0
 32 68  1  0  0  0  0
 32 71  1  0  0  0  0
 33 72  1  0  0  0  0
 33 78  2  0  0  0  0
 34 50  1  0  0  0  0
 34 74  1  0  0  0  0
 34 79  2  0  0  0  0
 35 62  1  0  0  0  0
 35 69  1  0  0  0  0
 35 80  2  0  0  0  0
 36 63  1  0  0  0  0
 36 75  1  0  0  0  0
 36 81  2  0  0  0  0
 37 70  1  0  0  0  0
 37 73  1  0  0  0  0
 37 82  2  0  0  0  0
 38 41  1  0  0  0  0
 39 50  1  0  0  0  0
 40 69  1  0  0  0  0
 41 43  1  0  0  0  0
 42 46  1  0  0  0  0
 42 47  1  0  0  0  0
 43 49  1  0  0  0  0
 44 45  1  0  0  0  0
 44 51  1  0  0  0  0
 45 51  1  0  0  0  0
 46 52  1  0  0  0  0
 47 70  1  0  0  0  0
 48 52  1  0  0  0  0
 48 70  1  0  0  0  0
 49 74  1  0  0  0  0
 50 69  1  0  0  0  0
 51 64  1  0  0  0  0
 52 68  1  0  0  0  0
 55 63  1  0  0  0  0
 56 65  1  0  0  0  0
 57 65  1  0  0  0  0
 58 65  1  0  0  0  0
 59 76  1  0  0  0  0
 60 77  1  0  0  0  0
 61 64  1  0  0  0  0
 61 84  1  0  0  0  0
 62 65  1  0  0  0  0
 62 75  1  0  0  0  0
 63 76  1  0  0  0  0
 64 77  1  0  0  0  0
 66 68  1  0  0  0  0
M  CHG  2  76   1  77   1
M  ISO  4  37 100  61 101  73 100  84 101
M  END
> <Batch ID>
0124

> <Smiles>
CNC(C)C(=O)NC(C(=O)N1Cc2cc([101O:1][101CH2:1]C(NCc3c(C)cc([100NH:0][100C:0](=O)N4CCCC(n5nc(-c6ccc(Oc7ccc(F)cc7F)cc6)c(C(N)=O)c5N)C4)nc3C)C3CC3)ccc2CC1C(=O)NC1CCCc2ccccc21)C(C)(C)C

> <Shape>
0.241

> <Color>
0.162

> <Negative vol penalty>
0.000

$$$$

  -OEChem-04052320333D

 85 94  0     1  0  0  0  0  0999 V2000
  -17.6593  -30.2273   24.2680 C   0  0  0  0  0  0  0  0  0  0  0  0
  -18.2833  -29.0993   24.7912 C   0  0  0  0  0  0  0  0  0  0  0  0
  -29.6606  -22.4716   21.1867 C   0  0  0  0  0  0  0  0  0  0  0  0
  -30.0368  -21.7843   18.9013 C   0  0  0  0  0  0  0  0  0  0  0  0
  -17.1373  -30.1973   22.9755 C   0  0  0  0  0  0  0  0  0  0  0  0
  -18.3848  -27.9403   24.0226 C   0  0  0  0  0  0  0  0  0  0  0  0
  -22.7239  -22.3540   22.8907 C   0  0  0  0  0  0  0  0  0  0  0  0
  -30.1367  -23.7467   20.8816 C   0  0  0  0  0  0  0  0  0  0  0  0
  -30.5130  -23.0594   18.5962 C   0  0  0  0  0  0  0  0  0  0  0  0
  -22.6974  -20.9607   22.8492 C   0  0  0  0  0  0  0  0  0  0  0  0
  -31.4900  -26.2387   17.1279 C   0  0  0  0  0  0  0  0  0  0  0  0
  -31.0394  -26.8355   15.9506 C   0  0  0  0  0  0  0  0  0  0  0  0
  -21.8294  -21.0502   20.6003 C   0  0  0  0  0  0  0  0  0  0  0  0
  -22.9513  -16.0656   20.5788 C   0  0  0  0  0  0  0  0  0  0  0  0
  -28.7653  -26.7082   16.7564 C   0  0  0  0  0  0  0  0  0  0  0  0
  -20.6394  -16.0866   20.8170 C   0  0  0  0  0  0  0  0  0  0  0  0
  -29.6107  -21.4904   20.1965 C   0  0  0  0  0  0  0  0  0  0  0  0
  -27.7893  -19.7194   20.4283 C   0  0  0  0  0  0  0  0  0  0  0  0
  -17.2410  -29.0405   22.1871 C   0  0  0  0  0  0  0  0  0  0  0  0
  -22.2923  -23.1072   21.7894 C   0  0  0  0  0  0  0  0  0  0  0  0
  -17.8625  -27.8944   22.7188 C   0  0  0  0  0  0  0  0  0  0  0  0
  -21.8538  -22.4529   20.6294 C   0  0  0  0  0  0  0  0  0  0  0  0
  -21.7654  -16.8544   20.6171 C   0  0  0  0  0  0  0  0  0  0  0  0
  -30.5629  -24.0406   19.5864 C   0  0  0  0  0  0  0  0  0  0  0  0
  -22.2474  -20.3086   21.7050 C   0  0  0  0  0  0  0  0  0  0  0  0
  -30.5783  -25.8765   18.1196 C   0  0  0  0  0  0  0  0  0  0  0  0
  -29.6770  -27.0703   15.7648 C   0  0  0  0  0  0  0  0  0  0  0  0
  -29.2159  -26.1113   17.9338 C   0  0  0  0  0  0  0  0  0  0  0  0
  -29.1194  -20.1729   20.5111 C   0  0  0  0  0  0  0  0  0  0  0  0
  -22.6864  -14.7246   20.7512 C   0  0  0  0  0  0  0  0  0  0  0  0
  -27.8480  -18.4077   20.8316 C   0  0  0  0  0  0  0  0  0  0  0  0
  -26.6064  -20.4209   20.0230 C   0  0  0  0  0  0  0  0  0  0  0  0
  -19.9690  -25.2176   21.2870 C   0  0  0  0  0  0  0  0  0  0  0  0
  -21.4036  -25.5234   18.3938 C   0  0  0  0  0  0  0  0  0  0  0  0
  -23.3887  -24.1451   15.9841 C   0  0  0  0  0  0  0  0  0  0  0  0
  -30.2857  -13.3885   20.7270 C   0  0  0  0  0  0  0  0  0  0  0  0
  -16.6197  -29.0405   20.8128 C   0  0  0  0  0  0  0  0  0  0  0  0
  -22.3523  -24.6093   21.8402 C   0  0  0  0  0  0  0  0  0  0  0  0
  -21.3989  -23.2154   19.4127 C   0  0  0  0  0  0  0  0  0  0  0  0
  -17.1002  -27.8938   19.9271 C   0  0  0  0  0  0  0  0  0  0  0  0
  -31.5973  -15.7947   22.9999 C   0  0  0  0  0  0  0  0  0  0  0  0
  -17.0733  -26.5772   20.6970 C   0  0  0  0  0  0  0  0  0  0  0  0
  -30.9650  -17.1110   22.5443 C   0  0  0  0  0  0  0  0  0  0  0  0
  -24.3825  -13.4818   19.4315 C   0  0  0  0  0  0  0  0  0  0  0  0
  -24.6424  -13.7521   21.9307 C   0  0  0  0  0  0  0  0  0  0  0  0
  -31.9288  -14.8885   21.8163 C   0  0  0  0  0  0  0  0  0  0  0  0
  -30.1679  -15.9391   20.4491 C   0  0  0  0  0  0  0  0  0  0  0  0
  -25.4215  -12.3680   19.4537 C   0  0  0  0  0  0  0  0  0  0  0  0
  -25.6792  -12.6360   21.9338 C   0  0  0  0  0  0  0  0  0  0  0  0
  -18.0140  -26.6263   21.9069 C   0  0  1  0  0  0  0  0  0  0  0  0
  -23.6391  -13.5936   20.7745 C   0  0  0  0  0  0  0  0  0  0  0  0
  -21.4051  -25.2790   20.8493 C   0  0  1  0  0  0  0  0  0  0  0  0
  -29.7647  -16.8630   21.6110 C   0  0  2  0  0  0  0  0  0  0  0  0
  -24.3512  -24.6197   13.7157 C   0  0  0  0  0  0  0  0  0  0  0  0
  -18.6841  -24.9685   17.1264 C   0  0  0  0  0  0  0  0  0  0  0  0
  -19.8621  -24.5152   14.9642 C   0  0  0  0  0  0  0  0  0  0  0  0
  -20.0058  -26.7749   16.0109 C   0  0  0  0  0  0  0  0  0  0  0  0
  -26.1641  -23.9496   16.9930 C   0  0  0  0  0  0  0  0  0  0  0  0
  -21.7470  -18.3463   20.4580 C   0  0  0  0  0  0  0  0  0  1  0  0
  -28.5596  -12.0190   19.5850 C   0  0  0  0  0  0  0  0  0  0  0  0
  -27.5028  -11.5969   20.5886 C   0  0  0  0  0  0  0  0  0  0  0  0
  -21.2619  -24.8441   17.0531 C   0  0  1  0  0  0  0  0  0  0  0  0
  -24.5756  -24.7003   15.2177 C   0  0  2  0  0  0  0  0  0  0  0  0
  -19.9602  -25.2610   16.3121 C   0  0  0  0  0  0  0  0  0  0  0  0
  -29.9616  -19.2263   20.9339 N   0  0  0  0  0  0  0  0  0  0  0  0
  -29.1587  -18.1649   21.1205 N   0  0  0  0  0  0  0  0  0  0  0  0
  -21.4703  -24.6824   19.5136 N   0  0  0  0  0  0  0  0  0  0  0  0
  -30.7480  -14.6921   20.9718 N   0  0  0  0  0  0  0  0  0  0  0  0
  -26.9059  -17.4499   20.9637 N   0  0  0  0  0  0  0  0  0  0  0  0
  -26.7245  -21.7638   19.6394 N   0  0  0  0  0  0  0  0  0  0  0  0
  -19.3881  -26.4555   21.4860 N   0  0  0  0  0  0  0  0  0  0  0  0
  -22.4876  -25.1343   16.3169 N   0  0  0  0  0  0  0  0  0  0  0  0
  -29.1574  -13.2918   19.9217 N   0  0  0  0  0  0  0  0  0  0  0  0
  -26.3804  -12.5979   20.5971 N   0  3  0  0  0  0  0  0  0  0  0  0
  -25.8106  -23.9354   15.5501 N   0  3  0  0  0  0  0  0  0  0  0  0
  -25.4756  -19.8780   20.0174 O   0  0  0  0  0  0  0  0  0  0  0  0
  -19.4276  -24.1278   21.4319 O   0  0  0  0  0  0  0  0  0  0  0  0
  -21.4605  -26.7546   18.4449 O   0  0  0  0  0  0  0  0  0  0  0  0
  -23.2707  -22.9525   16.2568 O   0  0  0  0  0  0  0  0  0  0  0  0
  -30.8343  -12.3855   21.1959 O   0  0  0  0  0  0  0  0  0  0  0  0
  -31.0274  -25.2848   19.2883 O   0  0  0  0  0  0  0  0  0  0  0  0
  -22.2199  -18.9487   21.6621 O   0  0  0  0  0  0  0  0  0  1  0  0
  -29.2445  -27.6449   14.6347 F   0  0  0  0  0  0  0  0  0  0  0  0
  -28.3354  -25.7666   18.8834 F   0  0  0  0  0  0  0  0  0  0  0  0
  -21.0138  -14.4215   20.9577 S   0  0  0  0  0  0  0  0  0  0  0  0
  1  2  1  0  0  0  0
  1  5  2  0  0  0  0
  2  6  2  0  0  0  0
  3  8  2  0  0  0  0
  3 17  1  0  0  0  0
  4  9  1  0  0  0  0
  4 17  2  0  0  0  0
  5 19  1  0  0  0  0
  6 21  1  0  0  0  0
  7 10  2  0  0  0  0
  7 20  1  0  0  0  0
  8 24  1  0  0  0  0
  9 24  2  0  0  0  0
 10 25  1  0  0  0  0
 11 12  2  0  0  0  0
 11 26  1  0  0  0  0
 12 27  1  0  0  0  0
 13 22  1  0  0  0  0
 13 25  2  0  0  0  0
 14 23  1  0  0  0  0
 14 30  2  0  0  0  0
 15 27  2  0  0  0  0
 15 28  1  0  0  0  0
 16 23  2  0  0  0  0
 16 85  1  0  0  0  0
 17 29  1  0  0  0  0
 18 29  1  0  0  0  0
 18 31  2  0  0  0  0
 18 32  1  0  0  0  0
 19 21  2  0  0  0  0
 19 37  1  0  0  0  0
 20 22  2  0  0  0  0
 20 38  1  0  0  0  0
 21 50  1  0  0  0  0
 22 39  1  0  0  0  0
 23 59  1  0  0  0  0
 24 81  1  0  0  0  0
 25 82  1  0  0  0  0
 26 28  2  0  0  0  0
 26 81  1  0  0  0  0
 27 83  1  0  0  0  0
 28 84  1  0  0  0  0
 29 65  2  0  0  0  0
 30 51  1  0  0  0  0
 30 85  1  0  0  0  0
 31 66  1  0  0  0  0
 31 69  1  0  0  0  0
 32 70  1  0  0  0  0
 32 76  2  0  0  0  0
 33 52  1  0  0  0  0
 33 71  1  0  0  0  0
 33 77  2  0  0  0  0
 34 62  1  0  0  0  0
 34 67  1  0  0  0  0
 34 78  2  0  0  0  0
 35 63  1  0  0  0  0
 35 72  1  0  0  0  0
 35 79  2  0  0  0  0
 36 68  1  0  0  0  0
 36 73  1  0  0  0  0
 36 80  2  0  0  0  0
 37 40  1  0  0  0  0
 38 52  1  0  0  0  0
 39 67  1  0  0  0  0
 40 42  1  0  0  0  0
 41 43  1  0  0  0  0
 41 46  1  0  0  0  0
 42 50  1  0  0  0  0
 43 53  1  0  0  0  0
 44 48  1  0  0  0  0
 44 51  1  0  0  0  0
 45 49  1  0  0  0  0
 45 51  1  0  0  0  0
 46 68  1  0  0  0  0
 47 53  1  0  0  0  0
 47 68  1  0  0  0  0
 48 74  1  0  0  0  0
 49 74  1  0  0  0  0
 50 71  1  0  0  0  0
 52 67  1  0  0  0  0
 53 66  1  0  0  0  0
 54 63  1  0  0  0  0
 55 64  1  0  0  0  0
 56 64  1  0  0  0  0
 57 64  1  0  0  0  0
 58 75  1  0  0  0  0
 59 82  1  0  0  0  0
 60 61  1  0  0  0  0
 60 73  1  0  0  0  0
 61 74  1  0  0  0  0
 62 64  1  0  0  0  0
 62 72  1  0  0  0  0
 63 75  1  0  0  0  0
 65 66  1  0  0  0  0
M  CHG  2  74   1  75   1
M  ISO  4  36 100  59 101  73 100  82 101
M  END
> <Batch ID>
0124

> <Smiles>
CNC(C)C(=O)NC(C(=O)N1Cc2cc([101O:1][101CH2:1]c3csc(C4CCN(CC[100NH:0][100C:0](=O)N5CCCC(n6nc(-c7ccc(Oc8ccc(F)cc8F)cc7)c(C(N)=O)c6N)C5)CC4)c3)ccc2CC1C(=O)NC1CCCc2ccccc21)C(C)(C)C

> <Shape>
0.216

> <Color>
0.050

> <Negative vol penalty>
0.000

$$$$

  -OEChem-04052320333D

 81 89  0     1  0  0  0  0  0999 V2000
  -27.8260  -23.5389   17.9634 C   0  0  0  0  0  0  0  0  0  0  0  0
  -26.6626  -23.8719   18.6499 C   0  0  0  0  0  0  0  0  0  0  0  0
  -26.3036  -13.6329   19.8409 C   0  0  0  0  0  0  0  0  0  0  0  0
  -24.2095  -13.8282   21.0298 C   0  0  0  0  0  0  0  0  0  0  0  0
  -29.0444  -24.0979   18.3467 C   0  0  0  0  0  0  0  0  0  0  0  0
  -26.7173  -24.7632   19.7209 C   0  0  0  0  0  0  0  0  0  0  0  0
  -23.0112  -28.2110   19.5699 C   0  0  0  0  0  0  0  0  0  0  0  0
  -20.1924  -23.1584   22.6991 C   0  0  0  0  0  0  0  0  0  0  0  0
  -26.3772  -12.2850   20.1918 C   0  0  0  0  0  0  0  0  0  0  0  0
  -24.2830  -12.4802   21.3807 C   0  0  0  0  0  0  0  0  0  0  0  0
  -21.7442  -27.8024   19.9840 C   0  0  0  0  0  0  0  0  0  0  0  0
  -23.6888   -9.4917   19.9191 C   0  0  0  0  0  0  0  0  0  0  0  0
  -22.5322   -8.7240   19.7826 C   0  0  0  0  0  0  0  0  0  0  0  0
  -21.2165  -22.2382   22.5052 C   0  0  0  0  0  0  0  0  0  0  0  0
  -22.1178  -28.8391   22.1298 C   0  0  0  0  0  0  0  0  0  0  0  0
  -22.5787   -8.2333   22.1478 C   0  0  0  0  0  0  0  0  0  0  0  0
  -21.8077  -24.7090   23.5009 C   0  0  0  0  0  0  0  0  0  0  0  0
  -25.2198  -14.4046   20.2600 C   0  0  0  0  0  0  0  0  0  0  0  0
  -24.5422  -16.3456   18.7496 C   0  0  0  0  0  0  0  0  0  0  0  0
  -29.1125  -25.0040   19.4168 C   0  0  0  0  0  0  0  0  0  0  0  0
  -23.8467  -28.9285   20.4379 C   0  0  0  0  0  0  0  0  0  0  0  0
  -27.9380  -25.3338   20.1197 C   0  0  0  0  0  0  0  0  0  0  0  0
  -23.3939  -29.2579   21.7235 C   0  0  0  0  0  0  0  0  0  0  0  0
  -20.4852  -24.4196   23.2061 C   0  0  0  0  0  0  0  0  0  0  0  0
  -25.3669  -11.7085   20.9616 C   0  0  0  0  0  0  0  0  0  0  0  0
  -21.2984  -28.1139   21.2651 C   0  0  0  0  0  0  0  0  0  0  0  0
  -24.2904   -9.6301   21.1699 C   0  0  0  0  0  0  0  0  0  0  0  0
  -21.9772   -8.0949   20.8969 C   0  0  0  0  0  0  0  0  0  0  0  0
  -23.7354   -9.0009   22.2843 C   0  0  0  0  0  0  0  0  0  0  0  0
  -25.1435  -15.7972   19.8984 C   0  0  0  0  0  0  0  0  0  0  0  0
  -22.5064  -22.6254   22.8312 C   0  0  0  0  0  0  0  0  0  0  0  0
  -24.7375  -17.6995   18.8729 C   0  0  0  0  0  0  0  0  0  0  0  0
  -23.8675  -15.6897   17.6679 C   0  0  0  0  0  0  0  0  0  0  0  0
  -26.6970  -28.4107   21.7462 C   0  0  0  0  0  0  0  0  0  0  0  0
  -26.3320  -31.4557   22.8032 C   0  0  0  0  0  0  0  0  0  0  0  0
  -24.2158  -34.0112   23.6019 C   0  0  0  0  0  0  0  0  0  0  0  0
  -24.9028  -21.8504   22.8858 C   0  0  0  0  0  0  0  0  0  0  0  0
  -30.4596  -25.5459   19.8245 C   0  0  0  0  0  0  0  0  0  0  0  0
  -25.2002  -29.3851   19.9668 C   0  0  0  0  0  0  0  0  0  0  0  0
  -24.2444  -30.0437   22.6866 C   0  0  0  0  0  0  0  0  0  0  0  0
  -30.3743  -26.7706   20.7317 C   0  0  0  0  0  0  0  0  0  0  0  0
  -27.8770  -20.5498   21.4230 C   0  0  0  0  0  0  0  0  0  0  0  0
  -29.3569  -26.5406   21.8447 C   0  0  0  0  0  0  0  0  0  0  0  0
  -27.4182  -19.2450   20.7678 C   0  0  0  0  0  0  0  0  0  0  0  0
  -27.1533  -20.8063   22.7437 C   0  0  0  0  0  0  0  0  0  0  0  0
  -25.2288  -19.4530   22.0128 C   0  0  0  0  0  0  0  0  0  0  0  0
  -27.9528  -26.3160   21.2709 C   0  0  1  0  0  0  0  0  0  0  0  0
  -26.1681  -29.6660   21.1121 C   0  0  1  0  0  0  0  0  0  0  0  0
  -25.8828  -19.1842   20.6477 C   0  0  2  0  0  0  0  0  0  0  0  0
  -18.3923  -24.9493   24.4825 C   0  0  0  0  0  0  0  0  0  0  0  0
  -24.2097  -36.3642   24.4739 C   0  0  0  0  0  0  0  0  0  0  0  0
  -26.8798  -30.4116   25.6174 C   0  0  0  0  0  0  0  0  0  0  0  0
  -25.9400  -32.5501   26.5185 C   0  0  0  0  0  0  0  0  0  0  0  0
  -27.9788  -32.5933   25.0818 C   0  0  0  0  0  0  0  0  0  0  0  0
  -22.9517  -35.0457   21.1340 C   0  0  0  0  0  0  0  0  0  0  0  0
  -18.6489  -25.8311   22.1321 C   0  0  0  0  0  0  0  0  0  0  0  0
  -19.5483  -26.5116   21.1044 C   0  0  0  0  0  0  0  0  0  1  0  0
  -19.3885  -25.4468   23.4282 C   0  0  2  0  0  0  0  0  0  0  0  0
  -25.7332  -32.0962   24.0321 C   0  0  1  0  0  0  0  0  0  0  0  0
  -24.2310  -35.4839   23.2341 C   0  0  2  0  0  0  0  0  0  0  0  0
  -26.6174  -31.8963   25.2952 C   0  0  0  0  0  0  0  0  0  0  0  0
  -22.8295  -23.8413   23.3259 N   0  0  0  0  0  0  0  0  0  0  0  0
  -25.6807  -16.7269   20.6928 N   0  0  0  0  0  0  0  0  0  0  0  0
  -25.4177  -17.8731   20.0422 N   0  0  0  0  0  0  0  0  0  0  0  0
  -25.5625  -30.4621   22.1815 N   0  0  0  0  0  0  0  0  0  0  0  0
  -25.7030  -20.7373   22.5519 N   0  0  0  0  0  0  0  0  0  0  0  0
  -24.3921  -18.7466   18.0940 N   0  0  0  0  0  0  0  0  0  0  0  0
  -23.7557  -14.2929   17.6989 N   0  0  0  0  0  0  0  0  0  0  0  0
  -23.5426  -21.6802   22.6298 N   0  0  0  0  0  0  0  0  0  0  0  0
  -27.3631  -27.5753   20.8699 N   0  0  0  0  0  0  0  0  0  0  0  0
  -25.4907  -33.4929   23.6873 N   0  0  0  0  0  0  0  0  0  0  0  0
  -23.0444  -35.8211   22.3978 N   0  3  0  0  0  0  0  0  0  0  0  0
  -23.3925  -16.3221   16.6942 O   0  0  0  0  0  0  0  0  0  0  0  0
  -26.5155  -28.2152   22.9423 O   0  0  0  0  0  0  0  0  0  0  0  0
  -27.4386  -31.8283   22.4053 O   0  0  0  0  0  0  0  0  0  0  0  0
  -23.1770  -33.3842   23.7979 O   0  0  0  0  0  0  0  0  0  0  0  0
  -25.3917  -22.8888   23.3381 O   0  0  0  0  0  0  0  0  0  0  0  0
  -25.4382  -10.3931   21.3040 O   0  0  0  0  0  0  0  0  0  0  0  0
  -20.0624  -27.7157   21.6720 O   0  0  0  0  0  0  0  0  0  1  0  0
  -20.8656   -7.3590   20.7659 F   0  0  0  0  0  0  0  0  0  0  0  0
  -24.3082   -9.1312   23.4887 F   0  0  0  0  0  0  0  0  0  0  0  0
  1  2  1  0  0  0  0
  1  5  2  0  0  0  0
  2  6  2  0  0  0  0
  3  9  2  0  0  0  0
  3 18  1  0  0  0  0
  4 10  1  0  0  0  0
  4 18  2  0  0  0  0
  5 20  1  0  0  0  0
  6 22  1  0  0  0  0
  7 11  2  0  0  0  0
  7 21  1  0  0  0  0
  8 14  2  0  0  0  0
  8 24  1  0  0  0  0
  9 25  1  0  0  0  0
 10 25  2  0  0  0  0
 11 26  1  0  0  0  0
 12 13  2  0  0  0  0
 12 27  1  0  0  0  0
 13 28  1  0  0  0  0
 14 31  1  0  0  0  0
 15 23  1  0  0  0  0
 15 26  2  0  0  0  0
 16 28  2  0  0  0  0
 16 29  1  0  0  0  0
 17 24  2  0  0  0  0
 17 62  1  0  0  0  0
 18 30  1  0  0  0  0
 19 30  1  0  0  0  0
 19 32  2  0  0  0  0
 19 33  1  0  0  0  0
 20 22  2  0  0  0  0
 20 38  1  0  0  0  0
 21 23  2  0  0  0  0
 21 39  1  0  0  0  0
 22 47  1  0  0  0  0
 23 40  1  0  0  0  0
 24 58  1  0  0  0  0
 25 78  1  0  0  0  0
 26 79  1  0  0  0  0
 27 29  2  0  0  0  0
 27 78  1  0  0  0  0
 28 80  1  0  0  0  0
 29 81  1  0  0  0  0
 30 63  2  0  0  0  0
 31 62  2  0  0  0  0
 31 69  1  0  0  0  0
 32 64  1  0  0  0  0
 32 67  1  0  0  0  0
 33 68  1  0  0  0  0
 33 73  2  0  0  0  0
 34 48  1  0  0  0  0
 34 70  1  0  0  0  0
 34 74  2  0  0  0  0
 35 59  1  0  0  0  0
 35 65  1  0  0  0  0
 35 75  2  0  0  0  0
 36 60  1  0  0  0  0
 36 71  1  0  0  0  0
 36 76  2  0  0  0  0
 37 66  1  0  0  0  0
 37 69  1  0  0  0  0
 37 77  2  0  0  0  0
 38 41  1  0  0  0  0
 39 48  1  0  0  0  0
 40 65  1  0  0  0  0
 41 43  1  0  0  0  0
 42 44  1  0  0  0  0
 42 45  1  0  0  0  0
 43 47  1  0  0  0  0
 44 49  1  0  0  0  0
 45 66  1  0  0  0  0
 46 49  1  0  0  0  0
 46 66  1  0  0  0  0
 47 70  1  0  0  0  0
 48 65  1  0  0  0  0
 49 64  1  0  0  0  0
 50 58  1  0  0  0  0
 51 60  1  0  0  0  0
 52 61  1  0  0  0  0
 53 61  1  0  0  0  0
 54 61  1  0  0  0  0
 55 72  1  0  0  0  0
 56 57  1  0  0  0  0
 56 58  1  0  0  0  0
 57 79  1  0  0  0  0
 59 61  1  0  0  0  0
 59 71  1  0  0  0  0
 60 72  1  0  0  0  0
 63 64  1  0  0  0  0
M  CHG  1  72   1
M  ISO  4  37 100  57 101  69 100  79 101
M  END
> <Batch ID>
0124

> <Smiles>
CNC(C)C(=O)NC(C(=O)N1Cc2cc([101O:1][101CH2:1]CC(C)c3ccc([100NH:0][100C:0](=O)N4CCCC(n5nc(-c6ccc(Oc7ccc(F)cc7F)cc6)c(C(N)=O)c5N)C4)nc3)ccc2CC1C(=O)NC1CCCc2ccccc21)C(C)(C)C

> <Shape>
0.284

> <Color>
0.079

> <Negative vol penalty>
0.000

$$$$

  -OEChem-04052320333D

 81 89  0     1  0  0  0  0  0999 V2000
  -20.4559  -34.6939   22.7659 C   0  0  0  0  0  0  0  0  0  0  0  0
  -21.6827  -34.2095   22.3235 C   0  0  0  0  0  0  0  0  0  0  0  0
  -23.7341  -12.4391   21.5983 C   0  0  0  0  0  0  0  0  0  0  0  0
  -25.6580  -11.6420   20.3735 C   0  0  0  0  0  0  0  0  0  0  0  0
  -19.6335  -33.8900   23.5541 C   0  0  0  0  0  0  0  0  0  0  0  0
  -22.0883  -32.9212   22.6701 C   0  0  0  0  0  0  0  0  0  0  0  0
  -25.3712  -29.0486   19.2450 C   0  0  0  0  0  0  0  0  0  0  0  0
  -23.1365  -11.1847   21.4760 C   0  0  0  0  0  0  0  0  0  0  0  0
  -25.0605  -10.3876   20.2512 C   0  0  0  0  0  0  0  0  0  0  0  0
  -26.7280  -28.7283   19.2304 C   0  0  0  0  0  0  0  0  0  0  0  0
  -23.3834   -8.1532   22.9531 C   0  0  0  0  0  0  0  0  0  0  0  0
  -22.7850   -7.6068   24.0883 C   0  0  0  0  0  0  0  0  0  0  0  0
  -26.2867  -26.8211   20.6401 C   0  0  0  0  0  0  0  0  0  0  0  0
  -20.6620   -7.5396   22.9369 C   0  0  0  0  0  0  0  0  0  0  0  0
  -24.9949  -12.6678   21.0470 C   0  0  0  0  0  0  0  0  0  0  0  0
  -26.4560  -14.4064   22.2090 C   0  0  0  0  0  0  0  0  0  0  0  0
  -20.0250  -32.5877   23.9026 C   0  0  0  0  0  0  0  0  0  0  0  0
  -24.4620  -28.2624   19.9673 C   0  0  0  0  0  0  0  0  0  0  0  0
  -21.2710  -32.0996   23.4649 C   0  0  0  0  0  0  0  0  0  0  0  0
  -24.9185  -27.1320   20.6601 C   0  0  0  0  0  0  0  0  0  0  0  0
  -23.7997  -10.1589   20.8025 C   0  0  0  0  0  0  0  0  0  0  0  0
  -27.1864  -27.6161   19.9304 C   0  0  0  0  0  0  0  0  0  0  0  0
  -22.6212   -8.3929   21.8097 C   0  0  0  0  0  0  0  0  0  0  0  0
  -21.4243   -7.2999   24.0803 C   0  0  0  0  0  0  0  0  0  0  0  0
  -21.2605   -8.0861   21.8016 C   0  0  0  0  0  0  0  0  0  0  0  0
  -25.6125  -13.9635   21.1726 C   0  0  0  0  0  0  0  0  0  0  0  0
  -26.7733  -15.6977   21.8653 C   0  0  0  0  0  0  0  0  0  0  0  0
  -26.9120  -13.7124   23.3778 C   0  0  0  0  0  0  0  0  0  0  0  0
  -22.5034  -28.7775   22.4173 C   0  0  0  0  0  0  0  0  0  0  0  0
  -21.5287  -25.7520   21.7705 C   0  0  0  0  0  0  0  0  0  0  0  0
  -30.4128  -21.0834   19.9976 C   0  0  0  0  0  0  0  0  0  0  0  0
  -22.2455  -22.7061   20.4083 C   0  0  0  0  0  0  0  0  0  0  0  0
  -28.3178  -19.4835   18.0669 C   0  0  0  0  0  0  0  0  0  0  0  0
  -19.1233  -31.7732   24.7960 C   0  0  0  0  0  0  0  0  0  0  0  0
  -22.9977  -28.6059   19.9511 C   0  0  0  0  0  0  0  0  0  0  0  0
  -23.9803  -26.2439   21.4344 C   0  0  0  0  0  0  0  0  0  0  0  0
  -19.4603  -30.2844   24.8070 C   0  0  0  0  0  0  0  0  0  0  0  0
  -24.8472  -18.7233   18.2984 C   0  0  0  0  0  0  0  0  0  0  0  0
  -20.9629  -30.0784   24.9701 C   0  0  0  0  0  0  0  0  0  0  0  0
  -24.8072  -17.4509   19.1466 C   0  0  0  0  0  0  0  0  0  0  0  0
  -26.0588  -18.7443   17.3691 C   0  0  0  0  0  0  0  0  0  0  0  0
  -27.3166  -17.2651   18.8870 C   0  0  0  0  0  0  0  0  0  0  0  0
  -29.2544  -24.9410   20.4390 C   0  0  0  0  0  0  0  0  0  0  0  0
  -30.4027  -25.9113   18.9891 C   0  0  0  0  0  0  0  0  0  0  0  0
  -21.7351  -30.6986   23.7993 C   0  0  1  0  0  0  0  0  0  0  0  0
  -22.2358  -28.0309   21.1412 C   0  0  1  0  0  0  0  0  0  0  0  0
  -26.1427  -17.2239   19.8803 C   0  0  2  0  0  0  0  0  0  0  0  0
  -28.9244  -26.0273   19.4000 C   0  0  0  0  0  0  0  0  0  1  0  0
  -21.2657  -20.4212   20.0666 C   0  0  0  0  0  0  0  0  0  0  0  0
  -22.0648  -25.0867   24.6997 C   0  0  0  0  0  0  0  0  0  0  0  0
  -21.9940  -22.6596   24.0891 C   0  0  0  0  0  0  0  0  0  0  0  0
  -19.9714  -24.0842   23.7684 C   0  0  0  0  0  0  0  0  0  0  0  0
  -22.3890  -22.9580   17.4630 C   0  0  0  0  0  0  0  0  0  0  0  0
  -30.5871  -20.0942   18.8650 C   0  0  0  0  0  0  0  0  0  0  0  0
  -31.5880  -22.9950   21.0785 C   0  0  0  0  0  0  0  0  0  0  0  0
  -31.6334  -24.3685   20.4359 C   0  0  0  0  0  0  0  0  0  0  0  0
  -21.9496  -24.3739   22.2208 C   0  0  1  0  0  0  0  0  0  0  0  0
  -21.4538  -21.8090   19.4739 C   0  0  2  0  0  0  0  0  0  0  0  0
  -21.5132  -24.0687   23.6816 C   0  0  0  0  0  0  0  0  0  0  0  0
  -25.4067  -14.8977   20.2404 N   0  0  0  0  0  0  0  0  0  0  0  0
  -26.1255  -15.9405   20.6899 N   0  0  0  0  0  0  0  0  0  0  0  0
  -22.5589  -26.6250   21.3932 N   0  0  0  0  0  0  0  0  0  0  0  0
  -27.2929  -18.5249   18.1273 N   0  0  0  0  0  0  0  0  0  0  0  0
  -27.5403  -16.6379   22.4570 N   0  0  0  0  0  0  0  0  0  0  0  0
  -26.4904  -12.3907   23.5772 N   0  0  0  0  0  0  0  0  0  0  0  0
  -21.6543  -29.8462   22.6326 N   0  0  0  0  0  0  0  0  0  0  0  0
  -31.4741  -21.9468   20.0399 N   0  0  0  0  0  0  0  0  0  0  0  0
  -21.4195  -23.4416   21.2317 N   0  0  0  0  0  0  0  0  0  0  0  0
  -29.4508  -19.2011   18.8202 N   0  0  0  0  0  0  0  0  0  0  0  0
  -30.4209  -24.5759   19.6143 N   0  3  0  0  0  0  0  0  0  0  0  0
  -22.1584  -21.6709   18.1680 N   0  3  0  0  0  0  0  0  0  0  0  0
  -27.6576  -14.2540   24.2289 O   0  0  0  0  0  0  0  0  0  0  0  0
  -23.4120  -28.4102   23.1530 O   0  0  0  0  0  0  0  0  0  0  0  0
  -20.3297  -26.0407   21.7474 O   0  0  0  0  0  0  0  0  0  0  0  0
  -29.4601  -21.0595   20.7726 O   0  0  0  0  0  0  0  0  0  0  0  0
  -23.4738  -22.7472   20.4103 O   0  0  0  0  0  0  0  0  0  0  0  0
  -28.2276  -20.5173   17.3960 O   0  0  0  0  0  0  0  0  0  0  0  0
  -23.2169   -8.9347   20.6831 O   0  0  0  0  0  0  0  0  0  0  0  0
  -28.5103  -27.3016   19.9184 O   0  0  0  0  0  0  0  0  0  1  0  0
  -20.8501   -6.7738   25.1700 F   0  0  0  0  0  0  0  0  0  0  0  0
  -20.5233   -8.3130   20.7058 F   0  0  0  0  0  0  0  0  0  0  0  0
  1  2  1  0  0  0  0
  1  5  2  0  0  0  0
  2  6  2  0  0  0  0
  3  8  2  0  0  0  0
  3 15  1  0  0  0  0
  4  9  1  0  0  0  0
  4 15  2  0  0  0  0
  5 17  1  0  0  0  0
  6 19  1  0  0  0  0
  7 10  2  0  0  0  0
  7 18  1  0  0  0  0
  8 21  1  0  0  0  0
  9 21  2  0  0  0  0
 10 22  1  0  0  0  0
 11 12  2  0  0  0  0
 11 23  1  0  0  0  0
 12 24  1  0  0  0  0
 13 20  1  0  0  0  0
 13 22  2  0  0  0  0
 14 24  2  0  0  0  0
 14 25  1  0  0  0  0
 15 26  1  0  0  0  0
 16 26  1  0  0  0  0
 16 27  2  0  0  0  0
 16 28  1  0  0  0  0
 17 19  2  0  0  0  0
 17 34  1  0  0  0  0
 18 20  2  0  0  0  0
 18 35  1  0  0  0  0
 19 45  1  0  0  0  0
 20 36  1  0  0  0  0
 21 78  1  0  0  0  0
 22 79  1  0  0  0  0
 23 25  2  0  0  0  0
 23 78  1  0  0  0  0
 24 80  1  0  0  0  0
 25 81  1  0  0  0  0
 26 60  2  0  0  0  0
 27 61  1  0  0  0  0
 27 64  1  0  0  0  0
 28 65  1  0  0  0  0
 28 72  2  0  0  0  0
 29 46  1  0  0  0  0
 29 66  1  0  0  0  0
 29 73  2  0  0  0  0
 30 57  1  0  0  0  0
 30 62  1  0  0  0  0
 30 74  2  0  0  0  0
 31 54  1  0  0  0  0
 31 67  1  0  0  0  0
 31 75  2  0  0  0  0
 32 58  1  0  0  0  0
 32 68  1  0  0  0  0
 32 76  2  0  0  0  0
 33 63  1  0  0  0  0
 33 69  1  0  0  0  0
 33 77  2  0  0  0  0
 34 37  1  0  0  0  0
 35 46  1  0  0  0  0
 36 62  1  0  0  0  0
 37 39  1  0  0  0  0
 38 40  1  0  0  0  0
 38 41  1  0  0  0  0
 39 45  1  0  0  0  0
 40 47  1  0  0  0  0
 41 63  1  0  0  0  0
 42 47  1  0  0  0  0
 42 63  1  0  0  0  0
 43 48  1  0  0  0  0
 43 70  1  0  0  0  0
 44 48  1  0  0  0  0
 44 70  1  0  0  0  0
 45 66  1  0  0  0  0
 46 62  1  0  0  0  0
 47 61  1  0  0  0  0
 48 79  1  0  0  0  0
 49 58  1  0  0  0  0
 50 59  1  0  0  0  0
 51 59  1  0  0  0  0
 52 59  1  0  0  0  0
 53 71  1  0  0  0  0
 54 69  1  0  0  0  0
 55 56  1  0  0  0  0
 55 67  1  0  0  0  0
 56 70  1  0  0  0  0
 57 59  1  0  0  0  0
 57 68  1  0  0  0  0
 58 71  1  0  0  0  0
 60 61  1  0  0  0  0
M  CHG  2  70   1  71   1
M  ISO  4  33 100  48 101  69 100  79 101
M  END
> <Batch ID>
0124

> <Smiles>
CNC(C)C(=O)NC(C(=O)N1Cc2cc([101O:1][101CH:1]3CN(CCNC(=O)C[100NH:0][100C:0](=O)N4CCCC(n5nc(-c6ccc(Oc7ccc(F)cc7F)cc6)c(C(N)=O)c5N)C4)C3)ccc2CC1C(=O)NC1CCCc2ccccc21)C(C)(C)C

> <Shape>
0.215

> <Color>
0.082

> <Negative vol penalty>
0.000

$$$$

  -OEChem-04052320333D

 84 93  0     1  0  0  0  0  0999 V2000
  -28.3836  -33.6233   25.9761 C   0  0  0  0  0  0  0  0  0  0  0  0
  -28.4116  -32.3617   25.3904 C   0  0  0  0  0  0  0  0  0  0  0  0
  -25.3075   -9.9018   23.0254 C   0  0  0  0  0  0  0  0  0  0  0  0
  -24.0594   -9.0648   21.1336 C   0  0  0  0  0  0  0  0  0  0  0  0
  -27.1618  -34.2402   26.2419 C   0  0  0  0  0  0  0  0  0  0  0  0
  -27.2178  -31.7158   25.0711 C   0  0  0  0  0  0  0  0  0  0  0  0
  -27.3191  -29.6106   20.4665 C   0  0  0  0  0  0  0  0  0  0  0  0
  -30.8893  -23.0027   18.4871 C   0  0  0  0  0  0  0  0  0  0  0  0
  -30.5087  -22.5538   20.8303 C   0  0  0  0  0  0  0  0  0  0  0  0
  -30.3733  -24.2884   18.6496 C   0  0  0  0  0  0  0  0  0  0  0  0
  -29.9928  -23.8395   20.9928 C   0  0  0  0  0  0  0  0  0  0  0  0
  -24.4146   -9.2726   23.8929 C   0  0  0  0  0  0  0  0  0  0  0  0
  -23.1666   -8.4355   22.0011 C   0  0  0  0  0  0  0  0  0  0  0  0
  -28.0003  -28.4015   20.3340 C   0  0  0  0  0  0  0  0  0  0  0  0
  -23.0785   -5.6231   23.8728 C   0  0  0  0  0  0  0  0  0  0  0  0
  -22.7110   -4.3095   23.5813 C   0  0  0  0  0  0  0  0  0  0  0  0
  -25.9014  -27.2159   20.4247 C   0  0  0  0  0  0  0  0  0  0  0  0
  -20.3990   -4.9922   23.4201 C   0  0  0  0  0  0  0  0  0  0  0  0
  -25.1298   -9.7980   21.6458 C   0  0  0  0  0  0  0  0  0  0  0  0
  -27.2338   -9.9092   20.2074 C   0  0  0  0  0  0  0  0  0  0  0  0
  -25.9525  -33.6056   25.9169 C   0  0  0  0  0  0  0  0  0  0  0  0
  -25.9224  -29.6309   20.5902 C   0  0  0  0  0  0  0  0  0  0  0  0
  -25.9787  -32.3242   25.3341 C   0  0  0  0  0  0  0  0  0  0  0  0
  -25.2046  -28.4268   20.5560 C   0  0  0  0  0  0  0  0  0  0  0  0
  -30.9569  -22.1354   19.5774 C   0  0  0  0  0  0  0  0  0  0  0  0
  -29.9251  -24.7068   19.9024 C   0  0  0  0  0  0  0  0  0  0  0  0
  -23.3442   -8.5394   23.3807 C   0  0  0  0  0  0  0  0  0  0  0  0
  -27.2917  -27.2037   20.3160 C   0  0  0  0  0  0  0  0  0  0  0  0
  -22.1063   -6.6213   23.9381 C   0  0  0  0  0  0  0  0  0  0  0  0
  -21.3713   -3.9941   23.3549 C   0  0  0  0  0  0  0  0  0  0  0  0
  -20.7666   -6.3058   23.7117 C   0  0  0  0  0  0  0  0  0  0  0  0
  -26.0515  -10.4482   20.7492 C   0  0  0  0  0  0  0  0  0  0  0  0
  -27.7431  -10.9164   19.4247 C   0  0  0  0  0  0  0  0  0  0  0  0
  -27.8192   -8.6139   20.3949 C   0  0  0  0  0  0  0  0  0  0  0  0
  -23.8824  -30.6001   22.8268 C   0  0  0  0  0  0  0  0  0  0  0  0
  -21.6688  -29.8852   20.5660 C   0  0  0  0  0  0  0  0  0  0  0  0
  -20.8522  -28.1038   17.7720 C   0  0  0  0  0  0  0  0  0  0  0  0
  -29.0815  -16.0308   18.4908 C   0  0  0  0  0  0  0  0  0  0  0  0
  -24.6558  -34.2918   26.2665 C   0  0  0  0  0  0  0  0  0  0  0  0
  -25.2002  -30.9452   20.7054 C   0  0  0  0  0  0  0  0  0  0  0  0
  -23.7027  -28.3956   20.6649 C   0  0  0  0  0  0  0  0  0  0  0  0
  -23.4422  -33.6998   25.5545 C   0  0  0  0  0  0  0  0  0  0  0  0
  -25.6982  -15.2808   17.9125 C   0  0  0  0  0  0  0  0  0  0  0  0
  -23.4627  -32.1770   25.6410 C   0  0  0  0  0  0  0  0  0  0  0  0
  -25.5783  -13.9019   18.5607 C   0  0  0  0  0  0  0  0  0  0  0  0
  -26.5669  -16.2299   18.7400 C   0  0  0  0  0  0  0  0  0  0  0  0
  -28.4856  -18.4691   18.8426 C   0  0  0  0  0  0  0  0  0  0  0  0
  -30.2842  -17.8251   17.2811 C   0  0  0  0  0  0  0  0  0  0  0  0
  -27.7857  -14.3096   19.7128 C   0  0  0  0  0  0  0  0  0  0  0  0
  -29.4614  -19.3472   19.6194 C   0  0  0  0  0  0  0  0  0  0  0  0
  -31.2898  -18.6703   18.0459 C   0  0  0  0  0  0  0  0  0  0  0  0
  -24.7053  -31.6020   24.9505 C   0  0  1  0  0  0  0  0  0  0  0  0
  -23.8195  -30.8146   21.3410 C   0  0  1  0  0  0  0  0  0  0  0  0
  -26.9666  -13.3164   18.8741 C   0  0  1  0  0  0  0  0  0  0  0  0
  -18.9579  -27.7014   16.1761 C   0  0  0  0  0  0  0  0  0  0  0  0
  -20.2877  -28.1363   22.6501 C   0  0  0  0  0  0  0  0  0  0  0  0
  -19.0108  -27.0499   20.7906 C   0  0  0  0  0  0  0  0  0  0  0  0
  -18.7362  -29.4899   21.2306 C   0  0  0  0  0  0  0  0  0  0  0  0
  -22.4218  -29.1100   15.4735 C   0  0  0  0  0  0  0  0  0  0  0  0
  -31.5117  -20.7523   19.4035 C   0  0  0  0  0  0  0  0  0  0  0  0
  -29.3752  -26.0823   20.0757 C   0  0  0  0  0  0  0  0  0  1  0  0
  -20.8832  -28.6518   20.1913 C   0  0  1  0  0  0  0  0  0  0  0  0
  -20.2054  -28.5222   16.4639 C   0  0  2  0  0  0  0  0  0  0  0  0
  -19.7579  -28.3321   21.2155 C   0  0  0  0  0  0  0  0  0  0  0  0
  -25.8232  -11.7006   20.3449 N   0  0  0  0  0  0  0  0  0  0  0  0
  -26.8691  -11.9570   19.5409 N   0  0  0  0  0  0  0  0  0  0  0  0
  -23.0426  -29.7063   20.7821 N   0  0  0  0  0  0  0  0  0  0  0  0
  -27.8642  -15.6125   19.0488 N   0  0  0  0  0  0  0  0  0  0  0  0
  -29.1925  -17.3864   18.1479 N   0  0  0  0  0  0  0  0  0  0  0  0
  -28.8488  -11.0046   18.6553 N   0  0  0  0  0  0  0  0  0  0  0  0
  -27.1650   -7.6998   21.2320 N   0  0  0  0  0  0  0  0  0  0  0  0
  -24.5331  -31.6073   23.5136 N   0  0  0  0  0  0  0  0  0  0  0  0
  -20.4075  -28.8689   18.8293 N   0  0  0  0  0  0  0  0  0  0  0  0
  -30.5630  -19.8210   18.7020 N   0  3  0  0  0  0  0  0  0  0  0  0
  -21.1589  -28.3403   15.3331 N   0  3  0  0  0  0  0  0  0  0  0  0
  -28.8993   -8.2829   19.8497 O   0  0  0  0  0  0  0  0  0  0  0  0
  -23.3767  -29.5960   23.3143 O   0  0  0  0  0  0  0  0  0  0  0  0
  -21.0865  -30.9689   20.6563 O   0  0  0  0  0  0  0  0  0  0  0  0
  -21.6675  -27.1873   17.8487 O   0  0  0  0  0  0  0  0  0  0  0  0
  -30.0153  -15.2390   18.3102 O   0  0  0  0  0  0  0  0  0  0  0  0
  -22.4729   -7.9251   24.2269 O   0  0  0  0  0  0  0  0  0  0  0  0
  -27.9588  -26.0138   20.1866 O   0  0  0  0  0  0  0  0  0  1  0  0
  -21.0186   -2.7329   23.0734 F   0  0  0  0  0  0  0  0  0  0  0  0
  -19.8283   -7.2607   23.7719 F   0  0  0  0  0  0  0  0  0  0  0  0
  1  2  1  0  0  0  0
  1  5  2  0  0  0  0
  2  6  2  0  0  0  0
  3 12  2  0  0  0  0
  3 19  1  0  0  0  0
  4 13  1  0  0  0  0
  4 19  2  0  0  0  0
  5 21  1  0  0  0  0
  6 23  1  0  0  0  0
  7 14  2  0  0  0  0
  7 22  1  0  0  0  0
  8 10  2  0  0  0  0
  8 25  1  0  0  0  0
  9 11  1  0  0  0  0
  9 25  2  0  0  0  0
 10 26  1  0  0  0  0
 11 26  2  0  0  0  0
 12 27  1  0  0  0  0
 13 27  2  0  0  0  0
 14 28  1  0  0  0  0
 15 16  2  0  0  0  0
 15 29  1  0  0  0  0
 16 30  1  0  0  0  0
 17 24  1  0  0  0  0
 17 28  2  0  0  0  0
 18 30  2  0  0  0  0
 18 31  1  0  0  0  0
 19 32  1  0  0  0  0
 20 32  1  0  0  0  0
 20 33  2  0  0  0  0
 20 34  1  0  0  0  0
 21 23  2  0  0  0  0
 21 39  1  0  0  0  0
 22 24  2  0  0  0  0
 22 40  1  0  0  0  0
 23 52  1  0  0  0  0
 24 41  1  0  0  0  0
 25 60  1  0  0  0  0
 26 61  1  0  0  0  0
 27 81  1  0  0  0  0
 28 82  1  0  0  0  0
 29 31  2  0  0  0  0
 29 81  1  0  0  0  0
 30 83  1  0  0  0  0
 31 84  1  0  0  0  0
 32 65  2  0  0  0  0
 33 66  1  0  0  0  0
 33 70  1  0  0  0  0
 34 71  1  0  0  0  0
 34 76  2  0  0  0  0
 35 53  1  0  0  0  0
 35 72  1  0  0  0  0
 35 77  2  0  0  0  0
 36 62  1  0  0  0  0
 36 67  1  0  0  0  0
 36 78  2  0  0  0  0
 37 63  1  0  0  0  0
 37 73  1  0  0  0  0
 37 79  2  0  0  0  0
 38 68  1  0  0  0  0
 38 69  1  0  0  0  0
 38 80  2  0  0  0  0
 39 42  1  0  0  0  0
 40 53  1  0  0  0  0
 41 67  1  0  0  0  0
 42 44  1  0  0  0  0
 43 45  1  0  0  0  0
 43 46  1  0  0  0  0
 44 52  1  0  0  0  0
 45 54  1  0  0  0  0
 46 68  1  0  0  0  0
 47 50  1  0  0  0  0
 47 69  1  0  0  0  0
 48 51  1  0  0  0  0
 48 69  1  0  0  0  0
 49 54  1  0  0  0  0
 49 68  1  0  0  0  0
 50 74  1  0  0  0  0
 51 74  1  0  0  0  0
 52 72  1  0  0  0  0
 53 67  1  0  0  0  0
 54 66  1  0  0  0  0
 55 63  1  0  0  0  0
 56 64  1  0  0  0  0
 57 64  1  0  0  0  0
 58 64  1  0  0  0  0
 59 75  1  0  0  0  0
 60 74  1  0  0  0  0
 61 82  1  0  0  0  0
 62 64  1  0  0  0  0
 62 73  1  0  0  0  0
 63 75  1  0  0  0  0
 65 66  1  0  0  0  0
M  CHG  2  74   1  75   1
M  ISO  4  38 100  61 101  69 100  82 101
M  END
> <Batch ID>
0124

> <Smiles>
CNC(C)C(=O)NC(C(=O)N1Cc2cc([101O:1][101CH2:1]c3ccc(CN4CC[100N:0]([100C:0](=O)N5CCCC(n6nc(-c7ccc(Oc8ccc(F)cc8F)cc7)c(C(N)=O)c6N)C5)CC4)cc3)ccc2CC1C(=O)NC1CCCc2ccccc21)C(C)(C)C

> <Shape>
0.304

> <Color>
0.084

> <Negative vol penalty>
0.000

$$$$

  -OEChem-04052320333D

 87 96  0     1  0  0  0  0  0999 V2000
  -27.5158  -31.8896   14.3008 C   0  0  0  0  0  0  0  0  0  0  0  0
  -27.3747  -30.7123   15.0284 C   0  0  0  0  0  0  0  0  0  0  0  0
  -26.8657  -12.9120   21.9255 C   0  0  0  0  0  0  0  0  0  0  0  0
  -26.2179  -14.5974   20.3202 C   0  0  0  0  0  0  0  0  0  0  0  0
  -27.7533  -33.0931   14.9635 C   0  0  0  0  0  0  0  0  0  0  0  0
  -27.4721  -30.7376   16.4192 C   0  0  0  0  0  0  0  0  0  0  0  0
  -23.8440  -28.0149   18.6706 C   0  0  0  0  0  0  0  0  0  0  0  0
  -25.5441  -12.4718   21.9967 C   0  0  0  0  0  0  0  0  0  0  0  0
  -24.8962  -14.1571   20.3914 C   0  0  0  0  0  0  0  0  0  0  0  0
  -24.0073  -26.6305   18.6916 C   0  0  0  0  0  0  0  0  0  0  0  0
  -23.4541  -10.5559   20.1544 C   0  0  0  0  0  0  0  0  0  0  0  0
  -23.2260   -9.1805   20.1144 C   0  0  0  0  0  0  0  0  0  0  0  0
  -24.8029  -26.7649   20.9649 C   0  0  0  0  0  0  0  0  0  0  0  0
  -26.0681  -22.7729   19.4723 C   0  0  0  0  0  0  0  0  0  0  0  0
  -22.1757   -9.2915   22.2874 C   0  0  0  0  0  0  0  0  0  0  0  0
  -28.0031  -24.5286   18.6861 C   0  0  0  0  0  0  0  0  0  0  0  0
  -27.2026  -13.9749   21.0873 C   0  0  0  0  0  0  0  0  0  0  0  0
  -29.5687  -13.9774   20.1338 C   0  0  0  0  0  0  0  0  0  0  0  0
  -27.8440  -33.1348   16.3637 C   0  0  0  0  0  0  0  0  0  0  0  0
  -24.1699  -28.7872   19.7948 C   0  0  0  0  0  0  0  0  0  0  0  0
  -27.7123  -31.9426   17.1011 C   0  0  0  0  0  0  0  0  0  0  0  0
  -24.6405  -28.1586   20.9565 C   0  0  0  0  0  0  0  0  0  0  0  0
  -27.3052  -22.2867   19.0643 C   0  0  0  0  0  0  0  0  0  0  0  0
  -28.2965  -23.1748   18.6615 C   0  0  0  0  0  0  0  0  0  0  0  0
  -24.5593  -13.0943   21.2296 C   0  0  0  0  0  0  0  0  0  0  0  0
  -24.4895  -26.0055   19.8379 C   0  0  0  0  0  0  0  0  0  0  0  0
  -23.0431  -11.2992   21.2609 C   0  0  0  0  0  0  0  0  0  0  0  0
  -22.5868   -8.5483   21.1809 C   0  0  0  0  0  0  0  0  0  0  0  0
  -22.4039  -10.6670   22.3274 C   0  0  0  0  0  0  0  0  0  0  0  0
  -28.5676  -14.4304   21.0138 C   0  0  0  0  0  0  0  0  0  0  0  0
  -25.8741  -24.1448   19.4596 C   0  0  0  0  0  0  0  0  0  1  0  0
  -30.6769  -14.7188   20.4637 C   0  0  0  0  0  0  0  0  0  0  0  0
  -29.5029  -12.9761   19.1098 C   0  0  0  0  0  0  0  0  0  0  0  0
  -26.2587  -31.1070   20.3938 C   0  0  0  0  0  0  0  0  0  0  0  0
  -24.7255  -31.2180   23.2502 C   0  0  0  0  0  0  0  0  0  0  0  0
  -22.8242  -29.6078   25.5824 C   0  0  0  0  0  0  0  0  0  0  0  0
  -32.1360  -20.0444   22.2024 C   0  0  0  0  0  0  0  0  0  0  0  0
  -28.1488  -34.4517   17.0326 C   0  0  0  0  0  0  0  0  0  0  0  0
  -23.9628  -30.2767   19.7652 C   0  0  0  0  0  0  0  0  0  0  0  0
  -24.9856  -28.9403   22.1968 C   0  0  0  0  0  0  0  0  0  0  0  0
  -27.8654  -34.4531   18.5325 C   0  0  0  0  0  0  0  0  0  0  0  0
  -32.0957  -17.2808   24.4469 C   0  0  0  0  0  0  0  0  0  0  0  0
  -27.3722  -20.2001   20.4747 C   0  0  0  0  0  0  0  0  0  0  0  0
  -28.4374  -33.1986   19.1851 C   0  0  0  0  0  0  0  0  0  0  0  0
  -31.2749  -16.2220   23.7086 C   0  0  0  0  0  0  0  0  0  0  0  0
  -26.1970  -19.2311   20.3631 C   0  0  0  0  0  0  0  0  0  0  0  0
  -26.5385  -20.0793   18.1621 C   0  0  0  0  0  0  0  0  0  0  0  0
  -31.5597  -18.6882   24.1936 C   0  0  0  0  0  0  0  0  0  0  0  0
  -30.6005  -17.9926   22.0326 C   0  0  0  0  0  0  0  0  0  0  0  0
  -27.5473  -20.8138   19.0667 C   0  0  1  0  0  0  0  0  0  0  0  0
  -27.7869  -31.9334   18.6126 C   0  0  1  0  0  0  0  0  0  0  0  0
  -24.8126  -31.0186   20.7922 C   0  0  1  0  0  0  0  0  0  0  0  0
  -31.1368  -16.5621   22.2124 C   0  0  2  0  0  0  0  0  0  0  0  0
  -26.2632  -18.7878   18.9138 C   0  0  2  0  0  0  0  0  0  0  0  0
  -21.7602  -29.9445   27.8301 C   0  0  0  0  0  0  0  0  0  0  0  0
  -27.4524  -30.9113   24.5843 C   0  0  0  0  0  0  0  0  0  0  0  0
  -26.2688  -30.3055   26.7057 C   0  0  0  0  0  0  0  0  0  0  0  0
  -25.9295  -32.5584   25.6899 C   0  0  0  0  0  0  0  0  0  0  0  0
  -20.1092  -29.1577   24.4937 C   0  0  0  0  0  0  0  0  0  0  0  0
  -29.6391  -22.7085   18.2161 C   0  0  0  0  0  0  0  0  0  0  0  0
  -32.6327  -21.2940   20.1165 C   0  0  0  0  0  0  0  0  0  0  0  0
  -31.8351  -21.7378   18.9044 C   0  0  0  0  0  0  0  0  0  0  0  0
  -24.8985  -30.5321   24.5839 C   0  0  1  0  0  0  0  0  0  0  0  0
  -21.5684  -30.0295   26.3238 C   0  0  2  0  0  0  0  0  0  0  0  0
  -26.1327  -31.0620   25.3671 C   0  0  0  0  0  0  0  0  0  0  0  0
  -26.8132  -25.0384   19.0760 N   0  0  0  0  0  0  0  0  0  0  0  0
  -29.0014  -15.3855   21.8406 N   0  0  0  0  0  0  0  0  0  0  0  0
  -30.2874  -15.5386   21.4817 N   0  0  0  0  0  0  0  0  0  0  0  0
  -24.7719  -30.3947   22.1163 N   0  0  0  0  0  0  0  0  0  0  0  0
  -31.4544  -18.9479   22.7558 N   0  0  0  0  0  0  0  0  0  0  0  0
  -31.9368  -14.7428   19.9794 N   0  0  0  0  0  0  0  0  0  0  0  0
  -28.2867  -12.3108   18.9032 N   0  0  0  0  0  0  0  0  0  0  0  0
  -26.4713  -31.7389   19.1835 N   0  0  0  0  0  0  0  0  0  0  0  0
  -23.6313  -30.6868   25.2899 N   0  0  0  0  0  0  0  0  0  0  0  0
  -31.9879  -20.2151   20.8314 N   0  0  0  0  0  0  0  0  0  0  0  0
  -24.9939  -18.1774   18.4830 N   0  3  0  0  0  0  0  0  0  0  0  0
  -20.4244  -29.1526   25.9454 N   0  3  0  0  0  0  0  0  0  0  0  0
  -30.5127  -22.2595   19.3363 N   0  3  0  0  0  0  0  0  0  0  0  0
  -30.4975  -12.6686   18.4101 O   0  0  0  0  0  0  0  0  0  0  0  0
  -27.1182  -30.6380   21.1308 O   0  0  0  0  0  0  0  0  0  0  0  0
  -24.5483  -32.4383   23.2163 O   0  0  0  0  0  0  0  0  0  0  0  0
  -23.0668  -28.4377   25.2950 O   0  0  0  0  0  0  0  0  0  0  0  0
  -32.8297  -20.8111   22.8791 O   0  0  0  0  0  0  0  0  0  0  0  0
  -23.2696  -12.6649   21.2987 O   0  0  0  0  0  0  0  0  0  0  0  0
  -24.6505  -24.6544   19.8608 O   0  0  0  0  0  0  0  0  0  1  0  0
  -22.3664   -7.2276   21.1417 F   0  0  0  0  0  0  0  0  0  0  0  0
  -22.0058  -11.3760   23.3925 F   0  0  0  0  0  0  0  0  0  0  0  0
  1  2  1  0  0  0  0
  1  5  2  0  0  0  0
  2  6  2  0  0  0  0
  3  8  2  0  0  0  0
  3 17  1  0  0  0  0
  4  9  1  0  0  0  0
  4 17  2  0  0  0  0
  5 19  1  0  0  0  0
  6 21  1  0  0  0  0
  7 10  2  0  0  0  0
  7 20  1  0  0  0  0
  8 25  1  0  0  0  0
  9 25  2  0  0  0  0
 10 26  1  0  0  0  0
 11 12  2  0  0  0  0
 11 27  1  0  0  0  0
 12 28  1  0  0  0  0
 13 22  1  0  0  0  0
 13 26  2  0  0  0  0
 14 23  2  0  0  0  0
 14 31  1  0  0  0  0
 15 28  2  0  0  0  0
 15 29  1  0  0  0  0
 16 24  2  0  0  0  0
 16 66  1  0  0  0  0
 17 30  1  0  0  0  0
 18 30  1  0  0  0  0
 18 32  2  0  0  0  0
 18 33  1  0  0  0  0
 19 21  2  0  0  0  0
 19 38  1  0  0  0  0
 20 22  2  0  0  0  0
 20 39  1  0  0  0  0
 21 51  1  0  0  0  0
 22 40  1  0  0  0  0
 23 24  1  0  0  0  0
 23 50  1  0  0  0  0
 24 60  1  0  0  0  0
 25 84  1  0  0  0  0
 26 85  1  0  0  0  0
 27 29  2  0  0  0  0
 27 84  1  0  0  0  0
 28 86  1  0  0  0  0
 29 87  1  0  0  0  0
 30 67  2  0  0  0  0
 31 66  2  0  0  0  0
 31 85  1  0  0  0  0
 32 68  1  0  0  0  0
 32 71  1  0  0  0  0
 33 72  1  0  0  0  0
 33 79  2  0  0  0  0
 34 52  1  0  0  0  0
 34 73  1  0  0  0  0
 34 80  2  0  0  0  0
 35 63  1  0  0  0  0
 35 69  1  0  0  0  0
 35 81  2  0  0  0  0
 36 64  1  0  0  0  0
 36 74  1  0  0  0  0
 36 82  2  0  0  0  0
 37 70  1  0  0  0  0
 37 75  1  0  0  0  0
 37 83  2  0  0  0  0
 38 41  1  0  0  0  0
 39 52  1  0  0  0  0
 40 69  1  0  0  0  0
 41 44  1  0  0  0  0
 42 45  1  0  0  0  0
 42 48  1  0  0  0  0
 43 46  1  0  0  0  0
 43 50  1  0  0  0  0
 44 51  1  0  0  0  0
 45 53  1  0  0  0  0
 46 54  1  0  0  0  0
 47 50  1  0  0  0  0
 47 54  1  0  0  0  0
 48 70  1  0  0  0  0
 49 53  1  0  0  0  0
 49 70  1  0  0  0  0
 51 73  1  0  0  0  0
 52 69  1  0  0  0  0
 53 68  1  0  0  0  0
 54 76  1  0  0  0  0
 55 64  1  0  0  0  0
 56 65  1  0  0  0  0
 57 65  1  0  0  0  0
 58 65  1  0  0  0  0
 59 77  1  0  0  0  0
 60 78  1  0  0  0  0
 61 62  1  0  0  0  0
 61 75  1  0  0  0  0
 62 78  1  0  0  0  0
 63 65  1  0  0  0  0
 63 74  1  0  0  0  0
 64 77  1  0  0  0  0
 67 68  1  0  0  0  0
M  CHG  3  76   1  77   1  78   1
M  ISO  4  31 101  37 100  75 100  85 101
M  END
> <Batch ID>
0124

> <Smiles>
CNC(C)C(=O)NC(C(=O)N1Cc2cc([101O:1][101c:1]3cc(C4CCC(N)C4)c(CNCC[100NH:0][100C:0](=O)N4CCCC(n5nc(-c6ccc(Oc7ccc(F)cc7F)cc6)c(C(N)=O)c5N)C4)cn3)ccc2CC1C(=O)NC1CCCc2ccccc21)C(C)(C)C

> <Shape>
0.266

> <Color>
0.065

> <Negative vol penalty>
0.000

$$$$

  -OEChem-04052320333D

 82 91  0     1  0  0  0  0  0999 V2000
  -27.6411  -30.1183   28.6876 C   0  0  0  0  0  0  0  0  0  0  0  0
  -27.5006  -29.0070   27.8626 C   0  0  0  0  0  0  0  0  0  0  0  0
  -24.1961   -9.3168   21.2223 C   0  0  0  0  0  0  0  0  0  0  0  0
  -25.4167  -10.1179   23.1473 C   0  0  0  0  0  0  0  0  0  0  0  0
  -26.7351  -31.1739   28.5936 C   0  0  0  0  0  0  0  0  0  0  0  0
  -26.4533  -28.9503   26.9437 C   0  0  0  0  0  0  0  0  0  0  0  0
  -27.9520  -27.3237   22.3881 C   0  0  0  0  0  0  0  0  0  0  0  0
  -23.9436   -8.1145   21.8827 C   0  0  0  0  0  0  0  0  0  0  0  0
  -25.1642   -8.9156   23.8078 C   0  0  0  0  0  0  0  0  0  0  0  0
  -28.1508  -25.9522   22.2354 C   0  0  0  0  0  0  0  0  0  0  0  0
  -22.6702   -4.9741   23.1986 C   0  0  0  0  0  0  0  0  0  0  0  0
  -21.3752   -4.4596   23.1365 C   0  0  0  0  0  0  0  0  0  0  0  0
  -25.9888  -25.7622   21.1824 C   0  0  0  0  0  0  0  0  0  0  0  0
  -26.7057  -19.6294   20.7883 C   0  0  0  0  0  0  0  0  0  0  0  0
  -20.5299   -6.4590   24.1972 C   0  0  0  0  0  0  0  0  0  0  0  0
  -24.9327  -10.3186   21.8545 C   0  0  0  0  0  0  0  0  0  0  0  0
  -24.2454  -12.4804   20.6876 C   0  0  0  0  0  0  0  0  0  0  0  0
  -25.6819  -31.1343   27.6663 C   0  0  0  0  0  0  0  0  0  0  0  0
  -26.7635  -27.9240   21.9482 C   0  0  0  0  0  0  0  0  0  0  0  0
  -25.5316  -30.0057   26.8380 C   0  0  0  0  0  0  0  0  0  0  0  0
  -25.7785  -27.1419   21.3284 C   0  0  0  0  0  0  0  0  0  0  0  0
  -27.5471  -21.8289   20.2377 C   0  0  0  0  0  0  0  0  0  0  0  0
  -26.5099  -21.0003   20.6799 C   0  0  0  0  0  0  0  0  0  0  0  0
  -24.4276   -7.9139   23.1755 C   0  0  0  0  0  0  0  0  0  0  0  0
  -27.1679  -25.1708   21.6351 C   0  0  0  0  0  0  0  0  0  0  0  0
  -22.8951   -6.2311   23.7601 C   0  0  0  0  0  0  0  0  0  0  0  0
  -20.3051   -5.2020   23.6358 C   0  0  0  0  0  0  0  0  0  0  0  0
  -21.8250   -6.9735   24.2594 C   0  0  0  0  0  0  0  0  0  0  0  0
  -25.1943  -11.5606   21.1726 C   0  0  0  0  0  0  0  0  0  0  0  0
  -28.7709  -21.2257   19.9286 C   0  0  0  0  0  0  0  0  0  0  0  0
  -27.9479  -19.1273   20.4501 C   0  0  0  0  0  0  0  0  0  0  0  0
  -24.9960  -13.4847   20.1269 C   0  0  0  0  0  0  0  0  0  0  0  0
  -22.8134  -12.4314   20.7394 C   0  0  0  0  0  0  0  0  0  0  0  0
  -24.3952  -29.5077   23.3576 C   0  0  0  0  0  0  0  0  0  0  0  0
  -23.3973  -29.9540   20.3035 C   0  0  0  0  0  0  0  0  0  0  0  0
  -23.4171  -28.8828   17.0633 C   0  0  0  0  0  0  0  0  0  0  0  0
  -29.3028  -17.0106   20.2765 C   0  0  0  0  0  0  0  0  0  0  0  0
  -24.6998  -32.2785   27.6340 C   0  0  0  0  0  0  0  0  0  0  0  0
  -26.5758  -29.4090   22.0962 C   0  0  0  0  0  0  0  0  0  0  0  0
  -24.4934  -27.7412   20.8206 C   0  0  0  0  0  0  0  0  0  0  0  0
  -29.9284  -22.0337   19.4039 C   0  0  0  0  0  0  0  0  0  0  0  0
  -23.8379  -32.3060   26.3744 C   0  0  0  0  0  0  0  0  0  0  0  0
  -29.8065  -23.5272   19.6954 C   0  0  0  0  0  0  0  0  0  0  0  0
  -29.9464  -13.7138   19.0959 C   0  0  0  0  0  0  0  0  0  0  0  0
  -23.2881  -30.9153   26.0733 C   0  0  0  0  0  0  0  0  0  0  0  0
  -28.4132  -24.0264   19.3207 C   0  0  0  0  0  0  0  0  0  0  0  0
  -28.6894  -12.9354   19.4910 C   0  0  0  0  0  0  0  0  0  0  0  0
  -30.3271  -14.7500   20.1518 C   0  0  0  0  0  0  0  0  0  0  0  0
  -27.9933  -14.8947   20.9275 C   0  0  0  0  0  0  0  0  0  0  0  0
  -24.4232  -29.9181   25.8115 C   0  0  1  0  0  0  0  0  0  0  0  0
  -27.3414  -23.3180   20.1542 C   0  0  2  0  0  0  0  0  0  1  0  0
  -25.1098  -29.8308   22.0760 C   0  0  1  0  0  0  0  0  0  0  0  0
  -27.5333  -13.8838   19.8644 C   0  0  2  0  0  0  0  0  0  0  0  0
  -25.1703  -21.5506   21.0524 C   0  0  0  0  0  0  0  0  0  0  0  0
  -22.4777  -29.4306   14.8017 C   0  0  0  0  0  0  0  0  0  0  0  0
  -20.6972  -28.8136   21.1515 C   0  0  0  0  0  0  0  0  0  0  0  0
  -20.1472  -28.5004   18.7292 C   0  0  0  0  0  0  0  0  0  0  0  0
  -20.5619  -30.7908   19.6262 C   0  0  0  0  0  0  0  0  0  0  0  0
  -26.1137  -29.2873   15.9129 C   0  0  0  0  0  0  0  0  0  0  0  0
  -22.5053  -29.1976   19.3489 C   0  0  1  0  0  0  0  0  0  0  0  0
  -23.6437  -29.6248   15.7585 C   0  0  2  0  0  0  0  0  0  0  0  0
  -21.0012  -29.3137   19.7252 C   0  0  0  0  0  0  0  0  0  0  0  0
  -26.4518  -11.9462   20.9402 N   0  0  0  0  0  0  0  0  0  0  0  0
  -28.9792  -19.8876   20.0219 N   0  0  0  0  0  0  0  0  0  0  0  0
  -26.2982  -13.1194   20.3029 N   0  0  0  0  0  0  0  0  0  0  0  0
  -24.3540  -29.1965   20.9940 N   0  0  0  0  0  0  0  0  0  0  0  0
  -29.1845  -15.6156   20.4517 N   0  0  0  0  0  0  0  0  0  0  0  0
  -24.6626  -14.6357   19.5053 N   0  0  0  0  0  0  0  0  0  0  0  0
  -22.1650  -12.9984   21.8451 N   0  0  0  0  0  0  0  0  0  0  0  0
  -28.1416  -17.7281   20.5617 N   0  0  0  0  0  0  0  0  0  0  0  0
  -24.9537  -30.0951   24.4767 N   0  0  0  0  0  0  0  0  0  0  0  0
  -22.8269  -29.6891   18.0135 N   0  0  0  0  0  0  0  0  0  0  0  0
  -24.8842  -29.1355   15.0931 N   0  3  0  0  0  0  0  0  0  0  0  0
  -22.1298  -11.8861   19.8400 O   0  0  0  0  0  0  0  0  0  0  0  0
  -23.4091  -28.7805   23.3328 O   0  0  0  0  0  0  0  0  0  0  0  0
  -23.2553  -31.1731   20.4265 O   0  0  0  0  0  0  0  0  0  0  0  0
  -23.7287  -27.7047   17.2225 O   0  0  0  0  0  0  0  0  0  0  0  0
  -30.3484  -17.5278   19.8749 O   0  0  0  0  0  0  0  0  0  0  0  0
  -24.1812   -6.7408   23.8203 O   0  0  0  0  0  0  0  0  0  0  0  0
  -27.3591  -23.8318   21.4854 O   0  0  0  0  0  0  0  0  0  1  0  0
  -19.0613   -4.7085   23.5747 F   0  0  0  0  0  0  0  0  0  0  0  0
  -22.0346   -8.1822   24.7988 F   0  0  0  0  0  0  0  0  0  0  0  0
  1  2  1  0  0  0  0
  1  5  2  0  0  0  0
  2  6  2  0  0  0  0
  3  8  2  0  0  0  0
  3 16  1  0  0  0  0
  4  9  1  0  0  0  0
  4 16  2  0  0  0  0
  5 18  1  0  0  0  0
  6 20  1  0  0  0  0
  7 10  2  0  0  0  0
  7 19  1  0  0  0  0
  8 24  1  0  0  0  0
  9 24  2  0  0  0  0
 10 25  1  0  0  0  0
 11 12  2  0  0  0  0
 11 26  1  0  0  0  0
 12 27  1  0  0  0  0
 13 21  1  0  0  0  0
 13 25  2  0  0  0  0
 14 23  2  0  0  0  0
 14 31  1  0  0  0  0
 15 27  2  0  0  0  0
 15 28  1  0  0  0  0
 16 29  1  0  0  0  0
 17 29  1  0  0  0  0
 17 32  2  0  0  0  0
 17 33  1  0  0  0  0
 18 20  2  0  0  0  0
 18 38  1  0  0  0  0
 19 21  2  0  0  0  0
 19 39  1  0  0  0  0
 20 50  1  0  0  0  0
 21 40  1  0  0  0  0
 22 23  1  0  0  0  0
 22 30  2  0  0  0  0
 22 51  1  0  0  0  0
 23 54  1  0  0  0  0
 24 79  1  0  0  0  0
 25 80  1  0  0  0  0
 26 28  2  0  0  0  0
 26 79  1  0  0  0  0
 27 81  1  0  0  0  0
 28 82  1  0  0  0  0
 29 63  2  0  0  0  0
 30 41  1  0  0  0  0
 30 64  1  0  0  0  0
 31 64  2  0  0  0  0
 31 70  1  0  0  0  0
 32 65  1  0  0  0  0
 32 68  1  0  0  0  0
 33 69  1  0  0  0  0
 33 74  2  0  0  0  0
 34 52  1  0  0  0  0
 34 71  1  0  0  0  0
 34 75  2  0  0  0  0
 35 60  1  0  0  0  0
 35 66  1  0  0  0  0
 35 76  2  0  0  0  0
 36 61  1  0  0  0  0
 36 72  1  0  0  0  0
 36 77  2  0  0  0  0
 37 67  1  0  0  0  0
 37 70  1  0  0  0  0
 37 78  2  0  0  0  0
 38 42  1  0  0  0  0
 39 52  1  0  0  0  0
 40 66  1  0  0  0  0
 41 43  1  0  0  0  0
 42 45  1  0  0  0  0
 43 46  1  0  0  0  0
 44 47  1  0  0  0  0
 44 48  1  0  0  0  0
 45 50  1  0  0  0  0
 46 51  1  0  0  0  0
 47 53  1  0  0  0  0
 48 67  1  0  0  0  0
 49 53  1  0  0  0  0
 49 67  1  0  0  0  0
 50 71  1  0  0  0  0
 51 80  1  0  0  0  0
 52 66  1  0  0  0  0
 53 65  1  0  0  0  0
 55 61  1  0  0  0  0
 56 62  1  0  0  0  0
 57 62  1  0  0  0  0
 58 62  1  0  0  0  0
 59 73  1  0  0  0  0
 60 62  1  0  0  0  0
 60 72  1  0  0  0  0
 61 73  1  0  0  0  0
 63 65  1  0  0  0  0
M  CHG  1  73   1
M  ISO  4  37 100  51 101  70 100  80 101
M  END
> <Batch ID>
0124

> <Smiles>
CNC(C)C(=O)NC(C(=O)N1Cc2cc([101O:1][101CH:1]3CCCc4nc([100NH:0][100C:0](=O)N5CCCC(n6nc(-c7ccc(Oc8ccc(F)cc8F)cc7)c(C(N)=O)c6N)C5)cc(C)c43)ccc2CC1C(=O)NC1CCCc2ccccc21)C(C)(C)C

> <Shape>
0.271

> <Color>
0.131

> <Negative vol penalty>
0.000

$$$$

  -OEChem-04052320333D

 93103  0     1  0  0  0  0  0999 V2000
  -30.8596  -21.5008   23.9356 C   0  0  0  0  0  0  0  0  0  0  0  0
  -35.9677  -25.0353   25.9617 C   0  0  0  0  0  0  0  0  0  0  0  0
  -34.6854  -24.5411   25.7452 C   0  0  0  0  0  0  0  0  0  0  0  0
  -29.5875  -21.0290   24.2592 C   0  0  0  0  0  0  0  0  0  0  0  0
  -31.5955  -20.8845   22.9234 C   0  0  0  0  0  0  0  0  0  0  0  0
  -23.0729  -10.4397   21.9176 C   0  0  0  0  0  0  0  0  0  0  0  0
  -23.8295   -9.1599   20.0132 C   0  0  0  0  0  0  0  0  0  0  0  0
  -36.1417  -26.3332   26.4403 C   0  0  0  0  0  0  0  0  0  0  0  0
  -33.5763  -25.3443   26.0082 C   0  0  0  0  0  0  0  0  0  0  0  0
  -30.1046  -25.1283   22.3277 C   0  0  0  0  0  0  0  0  0  0  0  0
  -29.0512  -19.9410   23.5706 C   0  0  0  0  0  0  0  0  0  0  0  0
  -31.0591  -19.7964   22.2349 C   0  0  0  0  0  0  0  0  0  0  0  0
  -22.3281   -9.3454   22.3572 C   0  0  0  0  0  0  0  0  0  0  0  0
  -23.0847   -8.0655   20.4528 C   0  0  0  0  0  0  0  0  0  0  0  0
  -29.2766  -24.0070   22.2984 C   0  0  0  0  0  0  0  0  0  0  0  0
  -19.9420   -7.0041   23.7884 C   0  0  0  0  0  0  0  0  0  0  0  0
  -18.6366   -7.2377   24.2209 C   0  0  0  0  0  0  0  0  0  0  0  0
  -27.5271  -25.2784   23.3670 C   0  0  0  0  0  0  0  0  0  0  0  0
  -18.0701   -8.1097   22.0401 C   0  0  0  0  0  0  0  0  0  0  0  0
  -23.8236  -10.3470   20.7455 C   0  0  0  0  0  0  0  0  0  0  0  0
  -24.1075  -12.7544   19.9507 C   0  0  0  0  0  0  0  0  0  0  0  0
  -35.0345  -27.1560   26.7002 C   0  0  0  0  0  0  0  0  0  0  0  0
  -29.6531  -26.3320   22.8876 C   0  0  0  0  0  0  0  0  0  0  0  0
  -33.7356  -26.6540   26.4920 C   0  0  0  0  0  0  0  0  0  0  0  0
  -28.3505  -26.4143   23.3999 C   0  0  0  0  0  0  0  0  0  0  0  0
  -29.7870  -19.3246   22.5584 C   0  0  0  0  0  0  0  0  0  0  0  0
  -22.3340   -8.1583   21.6248 C   0  0  0  0  0  0  0  0  0  0  0  0
  -27.9887  -24.0811   22.8208 C   0  0  0  0  0  0  0  0  0  0  0  0
  -20.3114   -7.3234   22.4817 C   0  0  0  0  0  0  0  0  0  0  0  0
  -17.7007   -7.7905   23.3468 C   0  0  0  0  0  0  0  0  0  0  0  0
  -19.3755   -7.8761   21.6076 C   0  0  0  0  0  0  0  0  0  0  0  0
  -24.5927  -11.4773   20.2906 C   0  0  0  0  0  0  0  0  0  0  0  0
  -25.2270  -13.4608   19.5844 C   0  0  0  0  0  0  0  0  0  0  0  0
  -22.7648  -13.2571   19.9648 C   0  0  0  0  0  0  0  0  0  0  0  0
  -30.5603  -28.1472   25.3342 C   0  0  0  0  0  0  0  0  0  0  0  0
  -28.2929  -30.1585   24.1783 C   0  0  0  0  0  0  0  0  0  0  0  0
  -24.9565  -29.8724   22.8352 C   0  0  0  0  0  0  0  0  0  0  0  0
  -30.5285  -14.9139   20.6158 C   0  0  0  0  0  0  0  0  0  0  0  0
  -35.2711  -28.5357   27.2615 C   0  0  0  0  0  0  0  0  0  0  0  0
  -30.5492  -27.5401   22.8873 C   0  0  0  0  0  0  0  0  0  0  0  0
  -27.8109  -27.6889   23.9937 C   0  0  0  0  0  0  0  0  0  0  0  0
  -34.0543  -29.4518   27.1595 C   0  0  0  0  0  0  0  0  0  0  0  0
  -29.9526  -11.9273   18.6798 C   0  0  0  0  0  0  0  0  0  0  0  0
  -24.0081  -23.1997   19.2470 C   0  0  0  0  0  0  0  0  0  0  0  0
  -25.0728  -18.6294   17.6856 C   0  0  0  0  0  0  0  0  0  0  0  0
  -32.7973  -28.7234   27.6246 C   0  0  0  0  0  0  0  0  0  0  0  0
  -25.4540  -23.1030   19.7155 C   0  0  0  0  0  0  0  0  0  0  0  0
  -25.8369  -18.2737   18.9510 C   0  0  0  0  0  0  0  0  0  0  0  0
  -28.4754  -11.6287   18.9331 C   0  0  0  0  0  0  0  0  0  0  0  0
  -30.6185  -12.5369   19.9093 C   0  0  0  0  0  0  0  0  0  0  0  0
  -28.4505  -13.4713   20.6733 C   0  0  0  0  0  0  0  0  0  0  0  0
  -23.4100  -21.8659   18.8241 C   0  0  0  0  0  0  0  0  0  0  0  0
  -23.9370  -19.5895   17.9827 C   0  0  0  0  0  0  0  0  0  0  0  0
  -32.5083  -27.5033   26.7419 C   0  0  1  0  0  0  0  0  0  0  0  0
  -30.1659  -28.5686   23.9469 C   0  0  1  0  0  0  0  0  0  0  0  0
  -25.7269  -21.8655   20.5808 C   0  0  2  0  0  0  0  0  0  0  0  0
  -26.3542  -19.5227   19.6813 C   0  0  1  0  0  0  0  0  0  0  0  0
  -27.7390  -12.8797   19.4443 C   0  0  2  0  0  0  0  0  0  0  0  0
  -25.2148  -20.5376   19.9518 C   0  0  2  0  0  0  0  0  0  0  0  0
  -23.7130  -31.3446   21.2279 C   0  0  0  0  0  0  0  0  0  0  0  0
  -27.1941  -31.4869   26.6958 C   0  0  0  0  0  0  0  0  0  0  0  0
  -24.9848  -31.6965   25.5367 C   0  0  0  0  0  0  0  0  0  0  0  0
  -26.9894  -32.8616   24.6167 C   0  0  0  0  0  0  0  0  0  0  0  0
  -24.4198  -27.6130   21.0005 C   0  0  0  0  0  0  0  0  0  0  0  0
  -25.1371  -22.0471   21.9848 C   0  0  0  0  0  0  0  0  0  0  0  0
  -27.0444  -19.0762   20.9769 C   0  0  0  0  0  0  0  0  0  0  0  0
  -25.7752  -23.2195   22.7022 C   0  0  0  0  0  0  0  0  0  1  0  0
  -30.2800  -17.1727   21.3191 C   0  0  0  0  0  0  0  0  0  0  0  0
  -29.2067  -18.1457   21.8122 C   0  0  2  0  0  0  0  0  0  0  0  0
  -26.8133  -30.3480   24.4102 C   0  0  1  0  0  0  0  0  0  0  0  0
  -24.5377  -30.0773   21.3905 C   0  0  2  0  0  0  0  0  0  0  0  0
  -26.5078  -31.5728   25.3179 C   0  0  0  0  0  0  0  0  0  0  0  0
  -25.9173  -11.3754   20.1524 N   0  0  0  0  0  0  0  0  0  0  0  0
  -26.2739  -12.5974   19.7215 N   0  0  0  0  0  0  0  0  0  0  0  0
  -28.7274  -28.8409   23.9761 N   0  0  0  0  0  0  0  0  0  0  0  0
  -29.8735  -13.6988   20.3926 N   0  0  0  0  0  0  0  0  0  0  0  0
  -25.4081  -14.7299   19.1615 N   0  0  0  0  0  0  0  0  0  0  0  0
  -21.9893  -13.1240   18.8050 N   0  0  0  0  0  0  0  0  0  0  0  0
  -31.9138  -27.9157   25.4885 N   0  0  0  0  0  0  0  0  0  0  0  0
  -26.1983  -30.4152   23.0889 N   0  0  0  0  0  0  0  0  0  0  0  0
  -24.4943  -20.8323   18.6364 N   0  3  2  0  0  0  0  0  0  0  0  0
  -23.7227  -28.9223   20.9187 N   0  3  0  0  0  0  0  0  0  0  0  0
  -28.3868  -18.5676   20.6392 N   0  3  0  0  0  0  0  0  0  0  0  0
  -22.2730  -13.8228   20.9706 O   0  0  0  0  0  0  0  0  0  0  0  0
  -29.7004  -28.0415   26.2009 O   0  0  0  0  0  0  0  0  0  0  0  0
  -29.0348  -31.1440   24.1695 O   0  0  0  0  0  0  0  0  0  0  0  0
  -24.2508  -29.2923   23.6574 O   0  0  0  0  0  0  0  0  0  0  0  0
  -31.7306  -15.0970   20.4321 O   0  0  0  0  0  0  0  0  0  0  0  0
  -21.6076   -7.0901   22.0536 O   0  0  0  0  0  0  0  0  0  0  0  0
  -27.1727  -22.9798   22.7939 O   0  0  0  0  0  0  0  0  0  1  0  0
  -29.6849  -15.8947   21.0660 O   0  0  0  0  0  0  0  0  0  0  0  0
  -16.4468   -8.0133   23.7618 F   0  0  0  0  0  0  0  0  0  0  0  0
  -19.7242   -8.1837   20.3508 F   0  0  0  0  0  0  0  0  0  0  0  0
  1  4  1  0  0  0  0
  1  5  2  0  0  0  0
  2  3  1  0  0  0  0
  2  8  2  0  0  0  0
  3  9  2  0  0  0  0
  4 11  2  0  0  0  0
  5 12  1  0  0  0  0
  6 13  2  0  0  0  0
  6 20  1  0  0  0  0
  7 14  1  0  0  0  0
  7 20  2  0  0  0  0
  8 22  1  0  0  0  0
  9 24  1  0  0  0  0
 10 15  2  0  0  0  0
 10 23  1  0  0  0  0
 11 26  1  0  0  0  0
 12 26  2  0  0  0  0
 13 27  1  0  0  0  0
 14 27  2  0  0  0  0
 15 28  1  0  0  0  0
 16 17  2  0  0  0  0
 16 29  1  0  0  0  0
 17 30  1  0  0  0  0
 18 25  1  0  0  0  0
 18 28  2  0  0  0  0
 19 30  2  0  0  0  0
 19 31  1  0  0  0  0
 20 32  1  0  0  0  0
 21 32  1  0  0  0  0
 21 33  2  0  0  0  0
 21 34  1  0  0  0  0
 22 24  2  0  0  0  0
 22 39  1  0  0  0  0
 23 25  2  0  0  0  0
 23 40  1  0  0  0  0
 24 54  1  0  0  0  0
 25 41  1  0  0  0  0
 26 69  1  0  0  0  0
 27 89  1  0  0  0  0
 28 90  1  0  0  0  0
 29 31  2  0  0  0  0
 29 89  1  0  0  0  0
 30 92  1  0  0  0  0
 31 93  1  0  0  0  0
 32 73  2  0  0  0  0
 33 74  1  0  0  0  0
 33 77  1  0  0  0  0
 34 78  1  0  0  0  0
 34 84  2  0  0  0  0
 35 55  1  0  0  0  0
 35 79  1  0  0  0  0
 35 85  2  0  0  0  0
 36 70  1  0  0  0  0
 36 75  1  0  0  0  0
 36 86  2  0  0  0  0
 37 71  1  0  0  0  0
 37 80  1  0  0  0  0
 37 87  2  0  0  0  0
 38 76  1  0  0  0  0
 38 88  2  0  0  0  0
 38 91  1  0  0  0  0
 39 42  1  0  0  0  0
 40 55  1  0  0  0  0
 41 75  1  0  0  0  0
 42 46  1  0  0  0  0
 43 49  1  0  0  0  0
 43 50  1  0  0  0  0
 44 47  1  0  0  0  0
 44 52  1  0  0  0  0
 45 48  1  0  0  0  0
 45 53  1  0  0  0  0
 46 54  1  0  0  0  0
 47 56  1  0  0  0  0
 48 57  1  0  0  0  0
 49 58  1  0  0  0  0
 50 76  1  0  0  0  0
 51 58  1  0  0  0  0
 51 76  1  0  0  0  0
 52 81  1  0  0  0  0
 53 81  1  0  0  0  0
 54 79  1  0  0  0  0
 55 75  1  0  0  0  0
 56 59  1  0  0  0  0
 56 65  1  0  0  0  0
 57 59  1  0  0  0  0
 57 66  1  0  0  0  0
 58 74  1  0  0  0  0
 59 81  1  0  0  0  0
 60 71  1  0  0  0  0
 61 72  1  0  0  0  0
 62 72  1  0  0  0  0
 63 72  1  0  0  0  0
 64 82  1  0  0  0  0
 65 67  1  0  0  0  0
 66 83  1  0  0  0  0
 67 90  1  0  0  0  0
 68 69  1  0  0  0  0
 68 91  1  0  0  0  0
 69 83  1  0  0  0  0
 70 72  1  0  0  0  0
 70 80  1  0  0  0  0
 71 82  1  0  0  0  0
 73 74  1  0  0  0  0
M  CHG  3  81   1  82   1  83   1
M  ISO  4  38 100  67 101  90 101  91 100
M  END
> <Batch ID>
0124

> <Smiles>
CNC(C)C(=O)NC(C(=O)N1Cc2cc([101O:1][101CH2:1]CC3CCCN4CCCC(CNC(C[100O:0][100C:0](=O)N5CCCC(n6nc(-c7ccc(Oc8ccc(F)cc8F)cc7)c(C(N)=O)c6N)C5)c5ccccc5)C34)ccc2CC1C(=O)NC1CCCc2ccccc21)C(C)(C)C

> <Shape>
0.220

> <Color>
0.126

> <Negative vol penalty>
0.000

$$$$

  -OEChem-04052320333D

 88 97  0     1  0  0  0  0  0999 V2000
  -31.1340  -35.2367   16.8289 C   0  0  0  0  0  0  0  0  0  0  0  0
  -31.1659  -33.8603   16.6295 C   0  0  0  0  0  0  0  0  0  0  0  0
  -23.1370   -9.8267   20.0090 C   0  0  0  0  0  0  0  0  0  0  0  0
  -23.4470  -10.1775   22.3792 C   0  0  0  0  0  0  0  0  0  0  0  0
  -30.7920  -35.7512   18.0788 C   0  0  0  0  0  0  0  0  0  0  0  0
  -30.8570  -32.9974   17.6804 C   0  0  0  0  0  0  0  0  0  0  0  0
  -27.8482  -26.6259   18.9720 C   0  0  0  0  0  0  0  0  0  0  0  0
  -22.3293   -8.7218   20.2782 C   0  0  0  0  0  0  0  0  0  0  0  0
  -22.6393   -9.0726   22.6484 C   0  0  0  0  0  0  0  0  0  0  0  0
  -28.1115  -25.4232   19.6263 C   0  0  0  0  0  0  0  0  0  0  0  0
  -22.9441   -5.7054   22.6511 C   0  0  0  0  0  0  0  0  0  0  0  0
  -23.3849   -4.8002   23.6164 C   0  0  0  0  0  0  0  0  0  0  0  0
  -27.4578  -26.4265   21.7204 C   0  0  0  0  0  0  0  0  0  0  0  0
  -29.9354  -21.8076   22.5641 C   0  0  0  0  0  0  0  0  0  0  0  0
  -21.3953   -5.2219   24.9205 C   0  0  0  0  0  0  0  0  0  0  0  0
  -23.6958  -10.5546   21.0596 C   0  0  0  0  0  0  0  0  0  0  0  0
  -24.1200  -13.0345   20.6379 C   0  0  0  0  0  0  0  0  0  0  0  0
  -30.4693  -34.8943   19.1429 C   0  0  0  0  0  0  0  0  0  0  0  0
  -27.3974  -27.7429   19.6899 C   0  0  0  0  0  0  0  0  0  0  0  0
  -30.5117  -33.5008   18.9461 C   0  0  0  0  0  0  0  0  0  0  0  0
  -27.1871  -27.6414   21.0725 C   0  0  0  0  0  0  0  0  0  0  0  0
  -30.0874  -20.6803   23.3637 C   0  0  0  0  0  0  0  0  0  0  0  0
  -29.1487  -19.6566   23.2982 C   0  0  0  0  0  0  0  0  0  0  0  0
  -22.0805   -8.3447   21.5978 C   0  0  0  0  0  0  0  0  0  0  0  0
  -27.9190  -25.3243   21.0012 C   0  0  0  0  0  0  0  0  0  0  0  0
  -21.7289   -6.3689   22.8205 C   0  0  0  0  0  0  0  0  0  0  0  0
  -22.6105   -4.5584   24.7511 C   0  0  0  0  0  0  0  0  0  0  0  0
  -20.9545   -6.1271   23.9551 C   0  0  0  0  0  0  0  0  0  0  0  0
  -24.5307  -11.6957   20.7822 C   0  0  0  0  0  0  0  0  0  0  0  0
  -28.8362  -21.8622   21.7223 C   0  0  0  0  0  0  0  0  0  0  0  0
  -28.0846  -19.8076   22.4237 C   0  0  0  0  0  0  0  0  0  0  0  0
  -25.2805  -13.7242   20.3849 C   0  0  0  0  0  0  0  0  0  0  0  0
  -22.8069  -13.6037   20.7250 C   0  0  0  0  0  0  0  0  0  0  0  0
  -28.5267  -30.6637   20.2358 C   0  0  0  0  0  0  0  0  0  0  0  0
  -25.6418  -31.0910   21.6560 C   0  0  0  0  0  0  0  0  0  0  0  0
  -22.9299  -29.6932   23.1853 C   0  0  0  0  0  0  0  0  0  0  0  0
  -31.0271  -12.6497   21.6782 C   0  0  0  0  0  0  0  0  0  0  0  0
  -30.1518  -35.4961   20.4889 C   0  0  0  0  0  0  0  0  0  0  0  0
  -27.0925  -29.0252   18.9651 C   0  0  0  0  0  0  0  0  0  0  0  0
  -26.6852  -28.8055   21.8858 C   0  0  0  0  0  0  0  0  0  0  0  0
  -29.4736  -34.5207   21.4475 C   0  0  0  0  0  0  0  0  0  0  0  0
  -29.6203  -13.1688   18.4489 C   0  0  0  0  0  0  0  0  0  0  0  0
  -30.1985  -33.1786   21.4449 C   0  0  0  0  0  0  0  0  0  0  0  0
  -28.1193  -12.9709   18.6677 C   0  0  0  0  0  0  0  0  0  0  0  0
  -28.8550  -16.9028   25.7371 C   0  0  0  0  0  0  0  0  0  0  0  0
  -30.4466  -12.2155   19.3095 C   0  0  0  0  0  0  0  0  0  0  0  0
  -28.7069  -18.3919   25.4210 C   0  0  0  0  0  0  0  0  0  0  0  0
  -28.6316  -12.0538   20.9689 C   0  0  0  0  0  0  0  0  0  0  0  0
  -29.9750  -17.3130   23.6614 C   0  0  0  0  0  0  0  0  0  0  0  0
  -30.1589  -32.5328   20.0546 C   0  0  1  0  0  0  0  0  0  0  0  0
  -27.1282  -30.2490   19.8753 C   0  0  1  0  0  0  0  0  0  0  0  0
  -27.7580  -13.0313   20.1641 C   0  0  2  0  0  0  0  0  0  0  0  0
  -30.1053  -16.5282   24.9620 C   0  0  2  0  0  0  0  0  0  0  0  0
  -31.2633  -20.5972   24.2811 C   0  0  0  0  0  0  0  0  0  0  0  0
  -27.0417  -18.7434   22.3086 C   0  0  0  0  0  0  0  0  0  0  0  0
  -20.7507  -30.3001   24.2717 C   0  0  0  0  0  0  0  0  0  0  0  0
  -27.1441  -32.0258   24.1418 C   0  0  0  0  0  0  0  0  0  0  0  0
  -25.0354  -31.7034   25.4523 C   0  0  0  0  0  0  0  0  0  0  0  0
  -25.1039  -33.3633   23.5914 C   0  0  0  0  0  0  0  0  0  0  0  0
  -21.3755  -28.1426   21.2007 C   0  0  0  0  0  0  0  0  0  0  0  0
  -28.6401  -23.0634   20.8448 C   0  0  0  0  0  0  0  0  0  1  0  0
  -31.4498  -13.0709   24.0872 C   0  0  0  0  0  0  0  0  0  0  0  0
  -31.5184  -14.5663   24.3350 C   0  0  0  0  0  0  0  0  0  0  0  0
  -25.0966  -30.8937   23.0499 C   0  0  1  0  0  0  0  0  0  0  0  0
  -21.4400  -29.8970   22.9774 C   0  0  2  0  0  0  0  0  0  0  0  0
  -25.6063  -31.9750   24.0441 C   0  0  0  0  0  0  0  0  0  0  0  0
  -25.8491  -11.5419   20.6330 N   0  0  0  0  0  0  0  0  0  0  0  0
  -27.9036  -20.8878   21.6312 N   0  0  0  0  0  0  0  0  0  0  0  0
  -26.2768  -12.7929   20.3923 N   0  0  0  0  0  0  0  0  0  0  0  0
  -29.2757  -18.5282   24.0797 N   0  0  3  0  0  0  0  0  0  0  0  0
  -26.4074  -30.0395   21.1326 N   0  0  0  0  0  0  0  0  0  0  0  0
  -30.0560  -12.3231   20.7172 N   0  0  0  0  0  0  0  0  0  0  0  0
  -25.5356  -15.0305   20.1589 N   0  0  0  0  0  0  0  0  0  0  0  0
  -21.7260  -12.7523   20.9916 N   0  0  0  0  0  0  0  0  0  0  0  0
  -28.8635  -31.9350   19.8118 N   0  0  0  0  0  0  0  0  0  0  0  0
  -23.6448  -30.8413   22.9168 N   0  0  0  0  0  0  0  0  0  0  0  0
  -30.5715  -12.7376   22.9880 N   0  0  0  0  0  0  0  0  0  0  0  0
  -30.1676  -15.0782   24.7120 N   0  3  0  0  0  0  0  0  0  0  0  0
  -20.8098  -28.6412   22.4807 N   0  3  0  0  0  0  0  0  0  0  0  0
  -22.5963  -14.8285   20.5546 O   0  0  0  0  0  0  0  0  0  0  0  0
  -29.2463  -29.8882   20.8542 O   0  0  0  0  0  0  0  0  0  0  0  0
  -25.3913  -32.1365   21.0511 O   0  0  0  0  0  0  0  0  0  0  0  0
  -23.4110  -28.6237   23.5530 O   0  0  0  0  0  0  0  0  0  0  0  0
  -32.2112  -12.8534   21.3896 O   0  0  0  0  0  0  0  0  0  0  0  0
  -21.2922   -7.2668   21.8608 O   0  0  0  0  0  0  0  0  0  0  0  0
  -28.1759  -24.1518   21.6424 O   0  0  0  0  0  0  0  0  0  1  0  0
  -23.0333   -3.6880   25.6772 F   0  0  0  0  0  0  0  0  0  0  0  0
  -19.7856   -6.7607   24.1228 F   0  0  0  0  0  0  0  0  0  0  0  0
  1  2  1  0  0  0  0
  1  5  2  0  0  0  0
  2  6  2  0  0  0  0
  3  8  2  0  0  0  0
  3 16  1  0  0  0  0
  4  9  1  0  0  0  0
  4 16  2  0  0  0  0
  5 18  1  0  0  0  0
  6 20  1  0  0  0  0
  7 10  2  0  0  0  0
  7 19  1  0  0  0  0
  8 24  1  0  0  0  0
  9 24  2  0  0  0  0
 10 25  1  0  0  0  0
 11 12  2  0  0  0  0
 11 26  1  0  0  0  0
 12 27  1  0  0  0  0
 13 21  1  0  0  0  0
 13 25  2  0  0  0  0
 14 22  2  0  0  0  0
 14 30  1  0  0  0  0
 15 27  2  0  0  0  0
 15 28  1  0  0  0  0
 16 29  1  0  0  0  0
 17 29  1  0  0  0  0
 17 32  2  0  0  0  0
 17 33  1  0  0  0  0
 18 20  2  0  0  0  0
 18 38  1  0  0  0  0
 19 21  2  0  0  0  0
 19 39  1  0  0  0  0
 20 50  1  0  0  0  0
 21 40  1  0  0  0  0
 22 23  1  0  0  0  0
 22 54  1  0  0  0  0
 23 31  2  0  0  0  0
 23 70  1  0  0  0  0
 24 85  1  0  0  0  0
 25 86  1  0  0  0  0
 26 28  2  0  0  0  0
 26 85  1  0  0  0  0
 27 87  1  0  0  0  0
 28 88  1  0  0  0  0
 29 67  2  0  0  0  0
 30 61  1  0  0  0  0
 30 68  2  0  0  0  0
 31 55  1  0  0  0  0
 31 68  1  0  0  0  0
 32 69  1  0  0  0  0
 32 73  1  0  0  0  0
 33 74  1  0  0  0  0
 33 80  2  0  0  0  0
 34 51  1  0  0  0  0
 34 75  1  0  0  0  0
 34 81  2  0  0  0  0
 35 64  1  0  0  0  0
 35 71  1  0  0  0  0
 35 82  2  0  0  0  0
 36 65  1  0  0  0  0
 36 76  1  0  0  0  0
 36 83  2  0  0  0  0
 37 72  1  0  0  0  0
 37 77  1  0  0  0  0
 37 84  2  0  0  0  0
 38 41  1  0  0  0  0
 39 51  1  0  0  0  0
 40 71  1  0  0  0  0
 41 43  1  0  0  0  0
 42 44  1  0  0  0  0
 42 46  1  0  0  0  0
 43 50  1  0  0  0  0
 44 52  1  0  0  0  0
 45 47  1  0  0  0  0
 45 53  1  0  0  0  0
 46 72  1  0  0  0  0
 47 70  1  0  0  0  0
 48 52  1  0  0  0  0
 48 72  1  0  0  0  0
 49 53  1  0  0  0  0
 49 70  1  0  0  0  0
 50 75  1  0  0  0  0
 51 71  1  0  0  0  0
 52 69  1  0  0  0  0
 53 78  1  0  0  0  0
 56 65  1  0  0  0  0
 57 66  1  0  0  0  0
 58 66  1  0  0  0  0
 59 66  1  0  0  0  0
 60 79  1  0  0  0  0
 61 86  1  0  0  0  0
 62 63  1  0  0  0  0
 62 77  1  0  0  0  0
 63 78  1  0  0  0  0
 64 66  1  0  0  0  0
 64 76  1  0  0  0  0
 65 79  1  0  0  0  0
 67 69  1  0  0  0  0
M  CHG  2  78   1  79   1
M  ISO  4  37 100  61 101  77 100  86 101
M  END
> <Batch ID>
0124

> <Smiles>
CNC(C)C(=O)NC(C(=O)N1Cc2cc([101O:1][101CH2:1]c3cc(C)c(N4CCC(NCC[100NH:0][100C:0](=O)N5CCCC(n6nc(-c7ccc(Oc8ccc(F)cc8F)cc7)c(C(N)=O)c6N)C5)C4)c(C)n3)ccc2CC1C(=O)NC1CCCc2ccccc21)C(C)(C)C

> <Shape>
0.294

> <Color>
0.202

> <Negative vol penalty>
0.000

$$$$

  -OEChem-04052320333D

 80 88  0     1  0  0  0  0  0999 V2000
  -23.4115   -8.1059   21.4858 C   0  0  0  0  0  0  0  0  0  0  0  0
  -24.6367   -8.7315   21.2786 C   0  0  0  0  0  0  0  0  0  0  0  0
  -22.1125  -28.0952   21.8793 C   0  0  0  0  0  0  0  0  0  0  0  0
  -22.0173  -28.8334   19.5808 C   0  0  0  0  0  0  0  0  0  0  0  0
  -22.2284   -8.8317   21.3539 C   0  0  0  0  0  0  0  0  0  0  0  0
  -24.6794  -10.0831   20.9381 C   0  0  0  0  0  0  0  0  0  0  0  0
  -28.7089  -15.9390   21.8254 C   0  0  0  0  0  0  0  0  0  0  0  0
  -20.9493  -27.3495   21.6880 C   0  0  0  0  0  0  0  0  0  0  0  0
  -20.8540  -28.0877   19.3895 C   0  0  0  0  0  0  0  0  0  0  0  0
  -29.3191  -16.9492   21.0831 C   0  0  0  0  0  0  0  0  0  0  0  0
  -20.0886  -24.3881   20.3017 C   0  0  0  0  0  0  0  0  0  0  0  0
  -20.0639  -23.0859   20.8008 C   0  0  0  0  0  0  0  0  0  0  0  0
  -27.2146  -18.1220   20.9606 C   0  0  0  0  0  0  0  0  0  0  0  0
  -18.1818  -23.6590   22.2031 C   0  0  0  0  0  0  0  0  0  0  0  0
  -22.6465  -28.8371   20.8256 C   0  0  0  0  0  0  0  0  0  0  0  0
  -24.0435  -30.6572   21.9407 C   0  0  0  0  0  0  0  0  0  0  0  0
  -22.2570  -10.1952   21.0211 C   0  0  0  0  0  0  0  0  0  0  0  0
  -27.3423  -16.0075   22.1321 C   0  0  0  0  0  0  0  0  0  0  0  0
  -23.4955  -10.8275   20.8003 C   0  0  0  0  0  0  0  0  0  0  0  0
  -26.5901  -17.1127   21.7091 C   0  0  0  0  0  0  0  0  0  0  0  0
  -20.3201  -27.3458   20.4432 C   0  0  0  0  0  0  0  0  0  0  0  0
  -28.5713  -18.0395   20.6481 C   0  0  0  0  0  0  0  0  0  0  0  0
  -19.1599  -25.3259   20.7532 C   0  0  0  0  0  0  0  0  0  0  0  0
  -19.1106  -22.7213   21.7515 C   0  0  0  0  0  0  0  0  0  0  0  0
  -18.2065  -24.9613   21.7039 C   0  0  0  0  0  0  0  0  0  0  0  0
  -23.8477  -29.6080   21.0227 C   0  0  0  0  0  0  0  0  0  0  0  0
  -25.3421  -31.0548   21.7359 C   0  0  0  0  0  0  0  0  0  0  0  0
  -23.1329  -31.2219   22.8934 C   0  0  0  0  0  0  0  0  0  0  0  0
  -24.8006  -14.2205   21.4612 C   0  0  0  0  0  0  0  0  0  0  0  0
  -23.3111  -16.2689   23.4880 C   0  0  0  0  0  0  0  0  0  0  0  0
  -23.2414  -19.3445   24.9653 C   0  0  0  0  0  0  0  0  0  0  0  0
  -30.1692  -28.2554   19.5648 C   0  0  0  0  0  0  0  0  0  0  0  0
  -20.9501  -10.9267   20.8435 C   0  0  0  0  0  0  0  0  0  0  0  0
  -26.7050  -14.9228   22.9565 C   0  0  0  0  0  0  0  0  0  0  0  0
  -25.1242  -17.2436   22.0293 C   0  0  0  0  0  0  0  0  0  0  0  0
  -21.0970  -12.4461   20.8473 C   0  0  0  0  0  0  0  0  0  0  0  0
  -28.7039  -31.2594   18.3378 C   0  0  0  0  0  0  0  0  0  0  0  0
  -22.2546  -12.8727   19.9501 C   0  0  0  0  0  0  0  0  0  0  0  0
  -27.3108  -31.2714   18.9696 C   0  0  0  0  0  0  0  0  0  0  0  0
  -30.6288  -22.2479   21.1916 C   0  0  0  0  0  0  0  0  0  0  0  0
  -28.4442  -22.7258   19.9999 C   0  0  0  0  0  0  0  0  0  0  0  0
  -30.5729  -20.8012   20.7069 C   0  0  0  0  0  0  0  0  0  0  0  0
  -28.3933  -21.2778   19.5185 C   0  0  0  0  0  0  0  0  0  0  0  0
  -29.1426  -29.8447   17.9658 C   0  0  0  0  0  0  0  0  0  0  0  0
  -27.6809  -28.8776   19.6984 C   0  0  0  0  0  0  0  0  0  0  0  0
  -23.5840  -12.2980   20.4540 C   0  0  1  0  0  0  0  0  0  0  0  0
  -25.1928  -14.8422   22.7717 C   0  0  1  0  0  0  0  0  0  0  0  0
  -27.2180  -30.2760   20.1417 C   0  0  2  0  0  0  0  0  0  0  0  0
  -29.8870  -23.1719   20.2278 C   0  0  0  0  0  0  0  0  0  0  0  0
  -29.1354  -20.3400   20.4710 C   0  0  0  0  0  0  0  0  0  1  0  0
  -21.8803  -20.7408   26.5449 C   0  0  0  0  0  0  0  0  0  0  0  0
  -21.2662  -16.7698   21.2794 C   0  0  0  0  0  0  0  0  0  0  0  0
  -20.5272  -18.8132   22.5231 C   0  0  0  0  0  0  0  0  0  0  0  0
  -20.2937  -16.5630   23.5742 C   0  0  0  0  0  0  0  0  0  0  0  0
  -25.4809  -19.5602   26.8880 C   0  0  0  0  0  0  0  0  0  0  0  0
  -31.0550  -26.6596   21.2464 C   0  0  0  0  0  0  0  0  0  0  0  0
  -31.1666  -25.2798   20.6252 C   0  0  0  0  0  0  0  0  0  0  0  0
  -22.5927  -17.5881   23.3378 C   0  0  1  0  0  0  0  0  0  0  0  0
  -23.0378  -19.7637   26.4100 C   0  0  2  0  0  0  0  0  0  0  0  0
  -21.1971  -17.4304   22.6708 C   0  0  0  0  0  0  0  0  0  0  0  0
  -24.9349  -29.3551   20.2892 N   0  0  0  0  0  0  0  0  0  0  0  0
  -25.8263  -30.2511   20.7461 N   0  0  0  0  0  0  0  0  0  0  0  0
  -24.5452  -16.1541   22.8327 N   0  0  0  0  0  0  0  0  0  0  0  0
  -29.0323  -28.9510   19.1213 N   0  0  0  0  0  0  0  0  0  0  0  0
  -26.1057  -32.0100   22.3078 N   0  0  0  0  0  0  0  0  0  0  0  0
  -21.8368  -30.6945   22.9727 N   0  0  0  0  0  0  0  0  0  0  0  0
  -24.0654  -13.0573   21.5880 N   0  0  0  0  0  0  0  0  0  0  0  0
  -22.5551  -18.1862   24.6680 N   0  0  0  0  0  0  0  0  0  0  0  0
  -29.9791  -27.4345   20.6697 N   0  0  0  0  0  0  0  0  0  0  0  0
  -29.8821  -24.5489   20.7890 N   0  3  0  0  0  0  0  0  0  0  0  0
  -24.2686  -20.4173   26.9381 N   0  3  0  0  0  0  0  0  0  0  0  0
  -23.4538  -32.1770   23.6405 O   0  0  0  0  0  0  0  0  0  0  0  0
  -25.1386  -14.7572   20.4127 O   0  0  0  0  0  0  0  0  0  0  0  0
  -22.7995  -15.3757   24.1678 O   0  0  0  0  0  0  0  0  0  0  0  0
  -23.9365  -19.9830   24.1781 O   0  0  0  0  0  0  0  0  0  0  0  0
  -31.2731  -28.3622   19.0199 O   0  0  0  0  0  0  0  0  0  0  0  0
  -19.1852  -26.6181   20.2561 O   0  0  0  0  0  0  0  0  0  0  0  0
  -29.1642  -19.0266   19.9228 O   0  0  0  0  0  0  0  0  0  1  0  0
  -19.0860  -21.4703   22.2296 F   0  0  0  0  0  0  0  0  0  0  0  0
  -17.3110  -25.8574   22.1407 F   0  0  0  0  0  0  0  0  0  0  0  0
  1  2  1  0  0  0  0
  1  5  2  0  0  0  0
  2  6  2  0  0  0  0
  3  8  2  0  0  0  0
  3 15  1  0  0  0  0
  4  9  1  0  0  0  0
  4 15  2  0  0  0  0
  5 17  1  0  0  0  0
  6 19  1  0  0  0  0
  7 10  2  0  0  0  0
  7 18  1  0  0  0  0
  8 21  1  0  0  0  0
  9 21  2  0  0  0  0
 10 22  1  0  0  0  0
 11 12  2  0  0  0  0
 11 23  1  0  0  0  0
 12 24  1  0  0  0  0
 13 20  1  0  0  0  0
 13 22  2  0  0  0  0
 14 24  2  0  0  0  0
 14 25  1  0  0  0  0
 15 26  1  0  0  0  0
 16 26  1  0  0  0  0
 16 27  2  0  0  0  0
 16 28  1  0  0  0  0
 17 19  2  0  0  0  0
 17 33  1  0  0  0  0
 18 20  2  0  0  0  0
 18 34  1  0  0  0  0
 19 46  1  0  0  0  0
 20 35  1  0  0  0  0
 21 77  1  0  0  0  0
 22 78  1  0  0  0  0
 23 25  2  0  0  0  0
 23 77  1  0  0  0  0
 24 79  1  0  0  0  0
 25 80  1  0  0  0  0
 26 61  2  0  0  0  0
 27 62  1  0  0  0  0
 27 65  1  0  0  0  0
 28 66  1  0  0  0  0
 28 72  2  0  0  0  0
 29 47  1  0  0  0  0
 29 67  1  0  0  0  0
 29 73  2  0  0  0  0
 30 58  1  0  0  0  0
 30 63  1  0  0  0  0
 30 74  2  0  0  0  0
 31 59  1  0  0  0  0
 31 68  1  0  0  0  0
 31 75  2  0  0  0  0
 32 64  1  0  0  0  0
 32 69  1  0  0  0  0
 32 76  2  0  0  0  0
 33 36  1  0  0  0  0
 34 47  1  0  0  0  0
 35 63  1  0  0  0  0
 36 38  1  0  0  0  0
 37 39  1  0  0  0  0
 37 44  1  0  0  0  0
 38 46  1  0  0  0  0
 39 48  1  0  0  0  0
 40 42  1  0  0  0  0
 40 49  1  0  0  0  0
 41 43  1  0  0  0  0
 41 49  1  0  0  0  0
 42 50  1  0  0  0  0
 43 50  1  0  0  0  0
 44 64  1  0  0  0  0
 45 48  1  0  0  0  0
 45 64  1  0  0  0  0
 46 67  1  0  0  0  0
 47 63  1  0  0  0  0
 48 62  1  0  0  0  0
 49 70  1  0  0  0  0
 50 78  1  0  0  0  0
 51 59  1  0  0  0  0
 52 60  1  0  0  0  0
 53 60  1  0  0  0  0
 54 60  1  0  0  0  0
 55 71  1  0  0  0  0
 56 57  1  0  0  0  0
 56 69  1  0  0  0  0
 57 70  1  0  0  0  0
 58 60  1  0  0  0  0
 58 68  1  0  0  0  0
 59 71  1  0  0  0  0
 61 62  1  0  0  0  0
M  CHG  2  70   1  71   1
M  ISO  4  32 100  50 101  69 100  78 101
M  END
> <Batch ID>
0124

> <Smiles>
CNC(C)C(=O)NC(C(=O)N1Cc2cc([101O:1][101CH:1]3CCC(NCC[100NH:0][100C:0](=O)N4CCCC(n5nc(-c6ccc(Oc7ccc(F)cc7F)cc6)c(C(N)=O)c5N)C4)CC3)ccc2CC1C(=O)NC1CCCc2ccccc21)C(C)(C)C

> <Shape>
0.235

> <Color>
0.074

> <Negative vol penalty>
0.000

$$$$

  -OEChem-04052320333D

 81 89  0     1  0  0  0  0  0999 V2000
  -27.4784  -31.2604   27.4022 C   0  0  0  0  0  0  0  0  0  0  0  0
  -27.8822  -30.1132   26.7267 C   0  0  0  0  0  0  0  0  0  0  0  0
  -23.0671   -9.8521   19.9431 C   0  0  0  0  0  0  0  0  0  0  0  0
  -23.8303   -9.8568   22.2354 C   0  0  0  0  0  0  0  0  0  0  0  0
  -26.5732  -32.1371   26.8055 C   0  0  0  0  0  0  0  0  0  0  0  0
  -27.3803  -29.8415   25.4545 C   0  0  0  0  0  0  0  0  0  0  0  0
  -30.3471  -27.1453   20.8248 C   0  0  0  0  0  0  0  0  0  0  0  0
  -22.3232   -8.6990   20.1931 C   0  0  0  0  0  0  0  0  0  0  0  0
  -23.0863   -8.7036   22.4854 C   0  0  0  0  0  0  0  0  0  0  0  0
  -30.3513  -25.8344   20.3501 C   0  0  0  0  0  0  0  0  0  0  0  0
  -19.8587   -7.9064   23.0918 C   0  0  0  0  0  0  0  0  0  0  0  0
  -19.1034   -7.8657   24.2637 C   0  0  0  0  0  0  0  0  0  0  0  0
  -28.6955  -26.4326   18.7011 C   0  0  0  0  0  0  0  0  0  0  0  0
  -20.3452   -5.9271   24.9966 C   0  0  0  0  0  0  0  0  0  0  0  0
  -23.8207  -10.4310   20.9643 C   0  0  0  0  0  0  0  0  0  0  0  0
  -24.1632  -12.9561   20.8461 C   0  0  0  0  0  0  0  0  0  0  0  0
  -26.0673  -31.8809   25.5214 C   0  0  0  0  0  0  0  0  0  0  0  0
  -29.5076  -28.1087   20.2473 C   0  0  0  0  0  0  0  0  0  0  0  0
  -26.4664  -30.7149   24.8406 C   0  0  0  0  0  0  0  0  0  0  0  0
  -28.6844  -27.7556   19.1685 C   0  0  0  0  0  0  0  0  0  0  0  0
  -22.3328   -8.1248   21.4642 C   0  0  0  0  0  0  0  0  0  0  0  0
  -29.5233  -25.4772   19.2900 C   0  0  0  0  0  0  0  0  0  0  0  0
  -20.8572   -6.9574   22.8722 C   0  0  0  0  0  0  0  0  0  0  0  0
  -19.3467   -6.8760   25.2162 C   0  0  0  0  0  0  0  0  0  0  0  0
  -21.1005   -5.9678   23.8247 C   0  0  0  0  0  0  0  0  0  0  0  0
  -24.5898  -11.6218   20.7066 C   0  0  0  0  0  0  0  0  0  0  0  0
  -25.2551  -13.7056   20.4820 C   0  0  0  0  0  0  0  0  0  0  0  0
  -22.8935  -13.4720   21.2673 C   0  0  0  0  0  0  0  0  0  0  0  0
  -27.1008  -29.9029   21.2922 C   0  0  0  0  0  0  0  0  0  0  0  0
  -27.3253  -31.2340   18.3426 C   0  0  0  0  0  0  0  0  0  0  0  0
  -28.2954  -30.9150   15.0863 C   0  0  0  0  0  0  0  0  0  0  0  0
  -30.7395  -14.7225   20.6635 C   0  0  0  0  0  0  0  0  0  0  0  0
  -25.0547  -32.8335   24.9367 C   0  0  0  0  0  0  0  0  0  0  0  0
  -29.5345  -29.5249   20.7534 C   0  0  0  0  0  0  0  0  0  0  0  0
  -27.7794  -28.7573   18.5005 C   0  0  0  0  0  0  0  0  0  0  0  0
  -24.8577  -32.6651   23.4323 C   0  0  0  0  0  0  0  0  0  0  0  0
  -29.5977  -12.3406   18.2761 C   0  0  0  0  0  0  0  0  0  0  0  0
  -24.7041  -31.1900   23.0759 C   0  0  0  0  0  0  0  0  0  0  0  0
  -29.0010  -18.2915   20.8720 C   0  0  0  0  0  0  0  0  0  0  0  0
  -31.2870  -19.2715   21.3088 C   0  0  0  0  0  0  0  0  0  0  0  0
  -28.6792  -19.4581   19.9396 C   0  0  0  0  0  0  0  0  0  0  0  0
  -30.9652  -20.4378   20.3762 C   0  0  0  0  0  0  0  0  0  0  0  0
  -28.1608  -12.0470   18.7108 C   0  0  0  0  0  0  0  0  0  0  0  0
  -30.5166  -12.5600   19.4759 C   0  0  0  0  0  0  0  0  0  0  0  0
  -28.6171  -13.2905   20.8659 C   0  0  0  0  0  0  0  0  0  0  0  0
  -25.9633  -30.3983   23.4490 C   0  0  1  0  0  0  0  0  0  0  0  0
  -28.2623  -30.3006   20.4260 C   0  0  1  0  0  0  0  0  0  0  0  0
  -30.5075  -18.0072   20.9255 C   0  0  0  0  0  0  0  0  0  0  0  0
  -29.4589  -20.7221   20.3233 C   0  0  0  0  0  0  0  0  0  0  0  0
  -27.6412  -13.1173   19.6895 C   0  0  2  0  0  0  0  0  0  0  0  0
  -28.3138  -32.1567   12.9056 C   0  0  0  0  0  0  0  0  0  0  0  0
  -24.3476  -30.6649   17.9963 C   0  0  0  0  0  0  0  0  0  0  0  0
  -24.6351  -31.0302   15.5362 C   0  0  0  0  0  0  0  0  0  0  0  0
  -25.0915  -32.8912   17.1333 C   0  0  0  0  0  0  0  0  0  0  0  0
  -31.2510  -30.8561   14.9446 C   0  0  0  0  0  0  0  0  0  0  0  0
  -30.8079  -16.8719   21.9022 C   0  0  0  0  0  0  0  0  0  0  0  0
  -29.8218  -23.1660   19.7649 C   0  0  0  0  0  0  0  0  0  1  0  0
  -26.7092  -30.9533   16.9933 C   0  0  1  0  0  0  0  0  0  0  0  0
  -29.0864  -31.8371   14.1760 C   0  0  2  0  0  0  0  0  0  0  0  0
  -29.1583  -21.8584   19.3477 C   0  0  2  0  0  0  0  0  0  0  0  0
  -25.2114  -31.3653   16.9284 C   0  0  0  0  0  0  0  0  0  0  0  0
  -25.8541  -11.5259   20.2864 N   0  0  0  0  0  0  0  0  0  0  0  0
  -26.2312  -12.8095   20.1587 N   0  0  0  0  0  0  0  0  0  0  0  0
  -27.8369  -30.1277   19.0355 N   0  0  0  0  0  0  0  0  0  0  0  0
  -29.9677  -13.5879   20.3636 N   0  0  0  0  0  0  0  0  0  0  0  0
  -25.4659  -15.0370   20.4099 N   0  0  0  0  0  0  0  0  0  0  0  0
  -21.8818  -12.5629   21.6052 N   0  0  0  0  0  0  0  0  0  0  0  0
  -27.0069  -30.6182   22.4707 N   0  0  0  0  0  0  0  0  0  0  0  0
  -27.5559  -31.6216   16.0110 N   0  0  0  0  0  0  0  0  0  0  0  0
  -30.1419  -15.6508   21.5072 N   0  0  0  0  0  0  0  0  0  0  0  0
  -27.6815  -22.0659   19.3162 N   0  3  0  0  0  0  0  0  0  0  0  0
  -30.3792  -31.2025   13.7927 N   0  3  0  0  0  0  0  0  0  0  0  0
  -22.6578  -14.7027   21.3261 O   0  0  0  0  0  0  0  0  0  0  0  0
  -26.3448  -29.0138   20.9183 O   0  0  0  0  0  0  0  0  0  0  0  0
  -27.3579  -32.3932   18.7631 O   0  0  0  0  0  0  0  0  0  0  0  0
  -28.3274  -29.6906   14.9846 O   0  0  0  0  0  0  0  0  0  0  0  0
  -31.8749  -14.8980   20.2084 O   0  0  0  0  0  0  0  0  0  0  0  0
  -21.6068   -6.9997   21.7086 O   0  0  0  0  0  0  0  0  0  0  0  0
  -29.5250  -24.1982   18.8252 O   0  0  0  0  0  0  0  0  0  1  0  0
  -18.6223   -6.8380   26.3422 F   0  0  0  0  0  0  0  0  0  0  0  0
  -22.0592   -5.0542   23.6198 F   0  0  0  0  0  0  0  0  0  0  0  0
  1  2  1  0  0  0  0
  1  5  2  0  0  0  0
  2  6  2  0  0  0  0
  3  8  2  0  0  0  0
  3 15  1  0  0  0  0
  4  9  1  0  0  0  0
  4 15  2  0  0  0  0
  5 17  1  0  0  0  0
  6 19  1  0  0  0  0
  7 10  2  0  0  0  0
  7 18  1  0  0  0  0
  8 21  1  0  0  0  0
  9 21  2  0  0  0  0
 10 22  1  0  0  0  0
 11 12  2  0  0  0  0
 11 23  1  0  0  0  0
 12 24  1  0  0  0  0
 13 20  1  0  0  0  0
 13 22  2  0  0  0  0
 14 24  2  0  0  0  0
 14 25  1  0  0  0  0
 15 26  1  0  0  0  0
 16 26  1  0  0  0  0
 16 27  2  0  0  0  0
 16 28  1  0  0  0  0
 17 19  2  0  0  0  0
 17 33  1  0  0  0  0
 18 20  2  0  0  0  0
 18 34  1  0  0  0  0
 19 46  1  0  0  0  0
 20 35  1  0  0  0  0
 21 78  1  0  0  0  0
 22 79  1  0  0  0  0
 23 25  2  0  0  0  0
 23 78  1  0  0  0  0
 24 80  1  0  0  0  0
 25 81  1  0  0  0  0
 26 62  2  0  0  0  0
 27 63  1  0  0  0  0
 27 66  1  0  0  0  0
 28 67  1  0  0  0  0
 28 73  2  0  0  0  0
 29 47  1  0  0  0  0
 29 68  1  0  0  0  0
 29 74  2  0  0  0  0
 30 58  1  0  0  0  0
 30 64  1  0  0  0  0
 30 75  2  0  0  0  0
 31 59  1  0  0  0  0
 31 69  1  0  0  0  0
 31 76  2  0  0  0  0
 32 65  1  0  0  0  0
 32 70  1  0  0  0  0
 32 77  2  0  0  0  0
 33 36  1  0  0  0  0
 34 47  1  0  0  0  0
 35 64  1  0  0  0  0
 36 38  1  0  0  0  0
 37 43  1  0  0  0  0
 37 44  1  0  0  0  0
 38 46  1  0  0  0  0
 39 41  1  0  0  0  0
 39 48  1  0  0  0  0
 40 42  1  0  0  0  0
 40 48  1  0  0  0  0
 41 49  1  0  0  0  0
 42 49  1  0  0  0  0
 43 50  1  0  0  0  0
 44 65  1  0  0  0  0
 45 50  1  0  0  0  0
 45 65  1  0  0  0  0
 46 68  1  0  0  0  0
 47 64  1  0  0  0  0
 48 56  1  0  0  0  0
 49 60  1  0  0  0  0
 50 63  1  0  0  0  0
 51 59  1  0  0  0  0
 52 61  1  0  0  0  0
 53 61  1  0  0  0  0
 54 61  1  0  0  0  0
 55 72  1  0  0  0  0
 56 70  1  0  0  0  0
 57 60  1  0  0  0  0
 57 79  1  0  0  0  0
 58 61  1  0  0  0  0
 58 69  1  0  0  0  0
 59 72  1  0  0  0  0
 60 71  1  0  0  0  0
 62 63  1  0  0  0  0
M  CHG  2  71   1  72   1
M  ISO  4  32 100  57 101  70 100  79 101
M  END
> <Batch ID>
0124

> <Smiles>
CNC(C)C(=O)NC(C(=O)N1Cc2cc([101O:1][101CH2:1]C(N)C3CCC(C[100NH:0][100C:0](=O)N4CCCC(n5nc(-c6ccc(Oc7ccc(F)cc7F)cc6)c(C(N)=O)c5N)C4)CC3)ccc2CC1C(=O)NC1CCCc2ccccc21)C(C)(C)C

> <Shape>
0.357

> <Color>
0.197

> <Negative vol penalty>
0.000

$$$$

  -OEChem-04052320333D

 87 96  0     1  0  0  0  0  0999 V2000
  -17.4483  -26.7302   20.6407 C   0  0  0  0  0  0  0  0  0  0  0  0
  -18.3874  -25.8512   21.1707 C   0  0  0  0  0  0  0  0  0  0  0  0
  -23.0718   -9.8731   19.9418 C   0  0  0  0  0  0  0  0  0  0  0  0
  -23.8396   -9.8741   22.2326 C   0  0  0  0  0  0  0  0  0  0  0  0
  -16.0898  -26.4256   20.7159 C   0  0  0  0  0  0  0  0  0  0  0  0
  -17.9684  -24.6675   21.7771 C   0  0  0  0  0  0  0  0  0  0  0  0
  -20.7338  -20.6711   20.3537 C   0  0  0  0  0  0  0  0  0  0  0  0
  -22.3286   -8.7194   20.1914 C   0  0  0  0  0  0  0  0  0  0  0  0
  -23.0963   -8.7205   22.4822 C   0  0  0  0  0  0  0  0  0  0  0  0
  -21.9877  -20.5215   20.9445 C   0  0  0  0  0  0  0  0  0  0  0  0
  -19.8700   -7.9219   23.0938 C   0  0  0  0  0  0  0  0  0  0  0  0
  -19.1171   -7.8791   24.2672 C   0  0  0  0  0  0  0  0  0  0  0  0
  -21.0720  -18.8818   22.4585 C   0  0  0  0  0  0  0  0  0  0  0  0
  -25.8810  -20.4346   24.0851 C   0  0  0  0  0  0  0  0  0  0  0  0
  -28.0177  -19.3309   24.1123 C   0  0  0  0  0  0  0  0  0  0  0  0
  -20.3606   -5.9396   24.9945 C   0  0  0  0  0  0  0  0  0  0  0  0
  -23.8274  -10.4504   20.9624 C   0  0  0  0  0  0  0  0  0  0  0  0
  -24.1693  -12.9758   20.8475 C   0  0  0  0  0  0  0  0  0  0  0  0
  -15.6545  -25.2330   21.3149 C   0  0  0  0  0  0  0  0  0  0  0  0
  -19.6353  -19.9339   20.8188 C   0  0  0  0  0  0  0  0  0  0  0  0
  -16.6028  -24.3473   21.8615 C   0  0  0  0  0  0  0  0  0  0  0  0
  -19.8058  -19.0220   21.8702 C   0  0  0  0  0  0  0  0  0  0  0  0
  -27.0613  -20.1155   24.7471 C   0  0  0  0  0  0  0  0  0  0  0  0
  -22.3407   -8.1432   21.4616 C   0  0  0  0  0  0  0  0  0  0  0  0
  -22.1563  -19.6289   21.9990 C   0  0  0  0  0  0  0  0  0  0  0  0
  -20.8682   -6.9734   22.8707 C   0  0  0  0  0  0  0  0  0  0  0  0
  -19.3624   -6.8880   25.2175 C   0  0  0  0  0  0  0  0  0  0  0  0
  -21.1135   -5.9823   23.8211 C   0  0  0  0  0  0  0  0  0  0  0  0
  -24.5958  -11.6417   20.7050 C   0  0  0  0  0  0  0  0  0  0  0  0
  -25.7066  -19.9482   22.7994 C   0  0  0  0  0  0  0  0  0  0  0  0
  -27.7476  -18.8938   22.8255 C   0  0  0  0  0  0  0  0  0  0  0  0
  -25.2604  -13.7259   20.4824 C   0  0  0  0  0  0  0  0  0  0  0  0
  -22.9004  -13.4908   21.2721 C   0  0  0  0  0  0  0  0  0  0  0  0
  -16.8301  -20.6684   22.1208 C   0  0  0  0  0  0  0  0  0  0  0  0
  -16.3061  -17.4793   21.8431 C   0  0  0  0  0  0  0  0  0  0  0  0
  -17.6178  -14.3385   21.5947 C   0  0  0  0  0  0  0  0  0  0  0  0
  -30.7450  -14.7433   20.6545 C   0  0  0  0  0  0  0  0  0  0  0  0
  -14.1729  -24.9694   21.4146 C   0  0  0  0  0  0  0  0  0  0  0  0
  -18.2952  -20.0871   20.1531 C   0  0  0  0  0  0  0  0  0  0  0  0
  -18.6630  -18.1920   22.3932 C   0  0  0  0  0  0  0  0  0  0  0  0
  -13.8332  -23.5171   21.7397 C   0  0  0  0  0  0  0  0  0  0  0  0
  -29.5987  -12.3651   18.2657 C   0  0  0  0  0  0  0  0  0  0  0  0
  -14.7036  -23.0086   22.8846 C   0  0  0  0  0  0  0  0  0  0  0  0
  -28.1627  -12.0706   18.7028 C   0  0  0  0  0  0  0  0  0  0  0  0
  -27.4289  -19.4745   27.1752 C   0  0  0  0  0  0  0  0  0  0  0  0
  -28.5195  -21.5626   26.2376 C   0  0  0  0  0  0  0  0  0  0  0  0
  -30.5200  -12.5827   19.4640 C   0  0  0  0  0  0  0  0  0  0  0  0
  -28.6232  -13.3107   20.8589 C   0  0  0  0  0  0  0  0  0  0  0  0
  -27.6643  -20.0032   28.5828 C   0  0  0  0  0  0  0  0  0  0  0  0
  -28.7408  -22.0647   27.6573 C   0  0  0  0  0  0  0  0  0  0  0  0
  -27.3039  -20.6202   26.1529 C   0  0  0  0  0  0  0  0  0  0  0  0
  -16.1889  -23.0416   22.5050 C   0  0  1  0  0  0  0  0  0  0  0  0
  -17.1328  -19.6634   21.0456 C   0  0  1  0  0  0  0  0  0  0  0  0
  -27.6449  -13.1392   19.6842 C   0  0  2  0  0  0  0  0  0  0  0  0
  -16.9398  -11.9287   21.4204 C   0  0  0  0  0  0  0  0  0  0  0  0
  -15.6191  -17.4601   24.8159 C   0  0  0  0  0  0  0  0  0  0  0  0
  -15.8846  -14.9707   24.7900 C   0  0  0  0  0  0  0  0  0  0  0  0
  -14.1241  -16.0501   23.3906 C   0  0  0  0  0  0  0  0  0  0  0  0
  -18.9450  -14.0348   18.9669 C   0  0  0  0  0  0  0  0  0  0  0  0
  -24.4451  -20.2728   22.0548 C   0  0  0  0  0  0  0  0  0  1  0  0
  -29.9591  -17.7384   22.8249 C   0  0  0  0  0  0  0  0  0  0  0  0
  -30.8155  -16.8908   21.8966 C   0  0  0  0  0  0  0  0  0  0  0  0
  -16.5514  -16.2752   22.7200 C   0  0  1  0  0  0  0  0  0  0  0  0
  -17.3077  -13.1890   20.6529 C   0  0  2  0  0  0  0  0  0  0  0  0
  -15.5661  -16.2060   23.9208 C   0  0  0  0  0  0  0  0  0  0  0  0
  -25.8592  -11.5467   20.2821 N   0  0  0  0  0  0  0  0  0  0  0  0
  -26.6127  -19.1834   22.1502 N   0  0  0  0  0  0  0  0  0  0  0  0
  -26.2360  -12.8305   20.1558 N   0  0  0  0  0  0  0  0  0  0  0  0
  -17.3709  -18.3822   21.7136 N   0  0  0  0  0  0  0  0  0  0  0  0
  -29.9727  -13.6091   20.3544 N   0  0  0  0  0  0  0  0  0  0  0  0
  -25.4708  -15.0575   20.4120 N   0  0  0  0  0  0  0  0  0  0  0  0
  -21.8895  -12.5810   21.6105 N   0  0  0  0  0  0  0  0  0  0  0  0
  -28.7315  -18.0950   22.1915 N   0  0  0  0  0  0  0  0  0  0  0  0
  -16.5152  -21.9261   21.6427 N   0  0  0  0  0  0  0  0  0  0  0  0
  -16.5035  -15.1127   21.8399 N   0  0  0  0  0  0  0  0  0  0  0  0
  -30.1489  -15.6702   21.5009 N   0  0  0  0  0  0  0  0  0  0  0  0
  -28.8602  -20.8967   28.5794 N   0  3  0  0  0  0  0  0  0  0  0  0
  -18.4889  -12.8890   19.7952 N   0  3  0  0  0  0  0  0  0  0  0  0
  -22.6646  -14.7213   21.3333 O   0  0  0  0  0  0  0  0  0  0  0  0
  -16.8774  -20.3277   23.2970 O   0  0  0  0  0  0  0  0  0  0  0  0
  -15.2125  -17.6101   21.2876 O   0  0  0  0  0  0  0  0  0  0  0  0
  -18.7358  -14.5284   22.0685 O   0  0  0  0  0  0  0  0  0  0  0  0
  -31.8794  -14.9197   20.1975 O   0  0  0  0  0  0  0  0  0  0  0  0
  -21.6154   -7.0176   21.7056 O   0  0  0  0  0  0  0  0  0  0  0  0
  -23.3790  -19.4814   22.5779 O   0  0  0  0  0  0  0  0  0  1  0  0
  -18.6403   -6.8481   26.3450 F   0  0  0  0  0  0  0  0  0  0  0  0
  -22.0719   -5.0691   23.6129 F   0  0  0  0  0  0  0  0  0  0  0  0
  1  2  1  0  0  0  0
  1  5  2  0  0  0  0
  2  6  2  0  0  0  0
  3  8  2  0  0  0  0
  3 17  1  0  0  0  0
  4  9  1  0  0  0  0
  4 17  2  0  0  0  0
  5 19  1  0  0  0  0
  6 21  1  0  0  0  0
  7 10  2  0  0  0  0
  7 20  1  0  0  0  0
  8 24  1  0  0  0  0
  9 24  2  0  0  0  0
 10 25  1  0  0  0  0
 11 12  2  0  0  0  0
 11 26  1  0  0  0  0
 12 27  1  0  0  0  0
 13 22  1  0  0  0  0
 13 25  2  0  0  0  0
 14 23  2  0  0  0  0
 14 30  1  0  0  0  0
 15 23  1  0  0  0  0
 15 31  2  0  0  0  0
 16 27  2  0  0  0  0
 16 28  1  0  0  0  0
 17 29  1  0  0  0  0
 18 29  1  0  0  0  0
 18 32  2  0  0  0  0
 18 33  1  0  0  0  0
 19 21  2  0  0  0  0
 19 38  1  0  0  0  0
 20 22  2  0  0  0  0
 20 39  1  0  0  0  0
 21 52  1  0  0  0  0
 22 40  1  0  0  0  0
 23 51  1  0  0  0  0
 24 84  1  0  0  0  0
 25 85  1  0  0  0  0
 26 28  2  0  0  0  0
 26 84  1  0  0  0  0
 27 86  1  0  0  0  0
 28 87  1  0  0  0  0
 29 66  2  0  0  0  0
 30 60  1  0  0  0  0
 30 67  2  0  0  0  0
 31 67  1  0  0  0  0
 31 73  1  0  0  0  0
 32 68  1  0  0  0  0
 32 71  1  0  0  0  0
 33 72  1  0  0  0  0
 33 79  2  0  0  0  0
 34 53  1  0  0  0  0
 34 74  1  0  0  0  0
 34 80  2  0  0  0  0
 35 63  1  0  0  0  0
 35 69  1  0  0  0  0
 35 81  2  0  0  0  0
 36 64  1  0  0  0  0
 36 75  1  0  0  0  0
 36 82  2  0  0  0  0
 37 70  1  0  0  0  0
 37 76  1  0  0  0  0
 37 83  2  0  0  0  0
 38 41  1  0  0  0  0
 39 53  1  0  0  0  0
 40 69  1  0  0  0  0
 41 43  1  0  0  0  0
 42 44  1  0  0  0  0
 42 47  1  0  0  0  0
 43 52  1  0  0  0  0
 44 54  1  0  0  0  0
 45 49  1  0  0  0  0
 45 51  1  0  0  0  0
 46 50  1  0  0  0  0
 46 51  1  0  0  0  0
 47 70  1  0  0  0  0
 48 54  1  0  0  0  0
 48 70  1  0  0  0  0
 49 77  1  0  0  0  0
 50 77  1  0  0  0  0
 52 74  1  0  0  0  0
 53 69  1  0  0  0  0
 54 68  1  0  0  0  0
 55 64  1  0  0  0  0
 56 65  1  0  0  0  0
 57 65  1  0  0  0  0
 58 65  1  0  0  0  0
 59 78  1  0  0  0  0
 60 85  1  0  0  0  0
 61 62  1  0  0  0  0
 61 73  1  0  0  0  0
 62 76  1  0  0  0  0
 63 65  1  0  0  0  0
 63 75  1  0  0  0  0
 64 78  1  0  0  0  0
 66 68  1  0  0  0  0
M  CHG  2  77   1  78   1
M  ISO  4  37 100  60 101  76 100  85 101
M  END
> <Batch ID>
0124

> <Smiles>
CNC(C)C(=O)NC(C(=O)N1Cc2cc([101O:1][101CH2:1]c3cc(C4CCNCC4)cc(NCC[100NH:0][100C:0](=O)N4CCCC(n5nc(-c6ccc(Oc7ccc(F)cc7F)cc6)c(C(N)=O)c5N)C4)n3)ccc2CC1C(=O)NC1CCCc2ccccc21)C(C)(C)C

> <Shape>
0.177

> <Color>
0.180

> <Negative vol penalty>
0.000

$$$$

  -OEChem-04052320333D

 90 99  0     1  0  0  0  0  0999 V2000
  -26.7650  -38.4179   22.6479 C   0  0  0  0  0  0  0  0  0  0  0  0
  -27.4079  -37.4731   21.8545 C   0  0  0  0  0  0  0  0  0  0  0  0
  -24.6113  -10.0798   23.1787 C   0  0  0  0  0  0  0  0  0  0  0  0
  -24.5546   -8.5667   21.2961 C   0  0  0  0  0  0  0  0  0  0  0  0
  -26.0247  -38.0084   23.7561 C   0  0  0  0  0  0  0  0  0  0  0  0
  -27.3117  -36.1181   22.1696 C   0  0  0  0  0  0  0  0  0  0  0  0
  -27.0894  -29.6664   19.0645 C   0  0  0  0  0  0  0  0  0  0  0  0
  -29.1040  -23.6359   18.4836 C   0  0  0  0  0  0  0  0  0  0  0  0
  -29.5820  -22.3351   18.6411 C   0  0  0  0  0  0  0  0  0  0  0  0
  -23.4566   -9.4873   23.6898 C   0  0  0  0  0  0  0  0  0  0  0  0
  -23.3999   -7.9741   21.8071 C   0  0  0  0  0  0  0  0  0  0  0  0
  -27.7150  -28.4217   19.1211 C   0  0  0  0  0  0  0  0  0  0  0  0
  -22.6063   -5.7303   24.2064 C   0  0  0  0  0  0  0  0  0  0  0  0
  -22.5408   -4.3371   24.2075 C   0  0  0  0  0  0  0  0  0  0  0  0
  -26.3433  -27.8249   21.0135 C   0  0  0  0  0  0  0  0  0  0  0  0
  -20.5776   -4.4283   22.8023 C   0  0  0  0  0  0  0  0  0  0  0  0
  -25.1603   -9.6195   21.9818 C   0  0  0  0  0  0  0  0  0  0  0  0
  -27.6856   -9.8595   21.7118 C   0  0  0  0  0  0  0  0  0  0  0  0
  -25.9114  -36.6471   24.0793 C   0  0  0  0  0  0  0  0  0  0  0  0
  -26.0919  -30.0043   19.9904 C   0  0  0  0  0  0  0  0  0  0  0  0
  -26.5702  -35.6901   23.2840 C   0  0  0  0  0  0  0  0  0  0  0  0
  -25.7048  -29.0735   20.9650 C   0  0  0  0  0  0  0  0  0  0  0  0
  -29.4904  -24.6341   19.3781 C   0  0  0  0  0  0  0  0  0  0  0  0
  -30.3547  -24.3313   20.4302 C   0  0  0  0  0  0  0  0  0  0  0  0
  -30.8327  -23.0303   20.5878 C   0  0  0  0  0  0  0  0  0  0  0  0
  -30.4463  -22.0322   19.6932 C   0  0  0  0  0  0  0  0  0  0  0  0
  -22.8509   -8.4344   23.0040 C   0  0  0  0  0  0  0  0  0  0  0  0
  -27.3440  -27.5019   20.0975 C   0  0  0  0  0  0  0  0  0  0  0  0
  -21.6574   -6.4726   23.5033 C   0  0  0  0  0  0  0  0  0  0  0  0
  -21.5264   -3.6860   23.5055 C   0  0  0  0  0  0  0  0  0  0  0  0
  -20.6431   -5.8216   22.8012 C   0  0  0  0  0  0  0  0  0  0  0  0
  -26.3528  -10.2316   21.4531 C   0  0  0  0  0  0  0  0  0  0  0  0
  -28.4376  -10.7436   20.9774 C   0  0  0  0  0  0  0  0  0  0  0  0
  -28.1981   -8.8085   22.5416 C   0  0  0  0  0  0  0  0  0  0  0  0
  -25.7715  -32.2411   22.2260 C   0  0  0  0  0  0  0  0  0  0  0  0
  -22.7749  -31.0221   22.4641 C   0  0  0  0  0  0  0  0  0  0  0  0
  -20.6814  -28.3676   21.9975 C   0  0  0  0  0  0  0  0  0  0  0  0
  -31.9343  -21.6523   24.0739 C   0  0  0  0  0  0  0  0  0  0  0  0
  -29.6545  -15.6618   19.2064 C   0  0  0  0  0  0  0  0  0  0  0  0
  -25.1391  -36.2560   25.3144 C   0  0  0  0  0  0  0  0  0  0  0  0
  -25.4081  -31.3409   19.8993 C   0  0  0  0  0  0  0  0  0  0  0  0
  -24.6253  -29.3799   21.9697 C   0  0  0  0  0  0  0  0  0  0  0  0
  -24.7778  -34.7737   25.3630 C   0  0  0  0  0  0  0  0  0  0  0  0
  -27.0913  -14.0637   17.4160 C   0  0  0  0  0  0  0  0  0  0  0  0
  -25.9884  -33.9172   25.0056 C   0  0  0  0  0  0  0  0  0  0  0  0
  -26.7716  -12.8831   18.3326 C   0  0  0  0  0  0  0  0  0  0  0  0
  -29.1492  -19.1439   19.2963 C   0  0  0  0  0  0  0  0  0  0  0  0
  -31.5840  -18.5345   19.0344 C   0  0  0  0  0  0  0  0  0  0  0  0
  -27.3474  -15.3490   18.2051 C   0  0  0  0  0  0  0  0  0  0  0  0
  -28.7702  -17.9176   18.4607 C   0  0  0  0  0  0  0  0  0  0  0  0
  -31.1598  -17.3408   18.1834 C   0  0  0  0  0  0  0  0  0  0  0  0
  -28.0603  -14.0311   20.1733 C   0  0  0  0  0  0  0  0  0  0  0  0
  -26.4691  -34.2093   23.5790 C   0  0  1  0  0  0  0  0  0  0  0  0
  -24.7648  -31.7738   21.2132 C   0  0  1  0  0  0  0  0  0  0  0  0
  -27.8555  -12.7123   19.4118 C   0  0  1  0  0  0  0  0  0  0  0  0
  -30.5467  -19.6566   18.9407 C   0  0  0  0  0  0  0  0  0  0  0  0
  -30.7676  -25.4037   21.3882 C   0  0  0  0  0  0  0  0  0  0  0  0
  -18.2959  -27.6594   22.3216 C   0  0  0  0  0  0  0  0  0  0  0  0
  -23.2820  -30.6915   25.4547 C   0  0  0  0  0  0  0  0  0  0  0  0
  -21.3109  -29.1506   25.5477 C   0  0  0  0  0  0  0  0  0  0  0  0
  -20.9999  -31.5311   24.8701 C   0  0  0  0  0  0  0  0  0  0  0  0
  -20.2994  -27.9177   19.0974 C   0  0  0  0  0  0  0  0  0  0  0  0
  -31.7598  -22.7071   21.7175 C   0  0  0  0  0  0  0  0  0  0  0  0
  -28.9644  -26.0188   19.1858 C   0  0  0  0  0  0  0  0  0  1  0  0
  -31.0538  -21.9840   22.8646 C   0  0  0  0  0  0  0  0  0  0  0  0
  -22.1281  -29.9258   23.2757 C   0  0  1  0  0  0  0  0  0  0  0  0
  -19.3063  -28.2688   21.3622 C   0  0  2  0  0  0  0  0  0  0  0  0
  -21.9520  -30.3194   24.7695 C   0  0  0  0  0  0  0  0  0  0  0  0
  -26.2601  -11.2712   20.6197 N   0  0  0  0  0  0  0  0  0  0  0  0
  -27.5443  -11.5600   20.3484 N   0  0  0  0  0  0  0  0  0  0  0  0
  -23.9908  -30.7024   21.8435 N   0  0  0  0  0  0  0  0  0  0  0  0
  -28.3584  -15.1265   19.2482 N   0  0  0  0  0  0  0  0  0  0  0  0
  -29.8158  -16.8877   18.5437 N   0  0  0  0  0  0  0  0  0  0  0  0
  -29.7692  -10.8947   20.8150 N   0  0  0  0  0  0  0  0  0  0  0  0
  -27.2867   -7.9927   23.2257 N   0  0  0  0  0  0  0  0  0  0  0  0
  -30.9089  -20.7358   19.8329 N   0  0  0  0  0  0  0  0  0  0  0  0
  -25.6106  -33.5578   22.6131 N   0  0  0  0  0  0  0  0  0  0  0  0
  -20.8815  -29.5946   22.5940 N   0  0  0  0  0  0  0  0  0  0  0  0
  -19.3612  -27.4219   20.1372 N   0  3  0  0  0  0  0  0  0  0  0  0
  -31.3123  -21.1018   25.0283 O   0  5  0  0  0  0  0  0  0  0  0  0
  -29.4282   -8.6095   22.6854 O   0  0  0  0  0  0  0  0  0  0  0  0
  -26.6298  -31.4642   22.6278 O   0  0  0  0  0  0  0  0  0  0  0  0
  -22.2182  -32.1195   22.3780 O   0  0  0  0  0  0  0  0  0  0  0  0
  -21.4953  -27.4470   21.9707 O   0  0  0  0  0  0  0  0  0  0  0  0
  -33.1553  -21.9565   23.9863 O   0  0  0  0  0  0  0  0  0  0  0  0
  -30.6118  -15.0787   19.7306 O   0  0  0  0  0  0  0  0  0  0  0  0
  -21.7243   -7.8558   23.5025 O   0  0  0  0  0  0  0  0  0  0  0  0
  -27.9579  -26.2778   20.1557 O   0  0  0  0  0  0  0  0  0  1  0  0
  -21.4645   -2.3480   23.5054 F   0  0  0  0  0  0  0  0  0  0  0  0
  -19.7294   -6.5293   22.1230 F   0  0  0  0  0  0  0  0  0  0  0  0
  1  2  1  0  0  0  0
  1  5  2  0  0  0  0
  2  6  2  0  0  0  0
  3 10  2  0  0  0  0
  3 17  1  0  0  0  0
  4 11  1  0  0  0  0
  4 17  2  0  0  0  0
  5 19  1  0  0  0  0
  6 21  1  0  0  0  0
  7 12  2  0  0  0  0
  7 20  1  0  0  0  0
  8  9  2  0  0  0  0
  8 23  1  0  0  0  0
  9 26  1  0  0  0  0
 10 27  1  0  0  0  0
 11 27  2  0  0  0  0
 12 28  1  0  0  0  0
 13 14  2  0  0  0  0
 13 29  1  0  0  0  0
 14 30  1  0  0  0  0
 15 22  1  0  0  0  0
 15 28  2  0  0  0  0
 16 30  2  0  0  0  0
 16 31  1  0  0  0  0
 17 32  1  0  0  0  0
 18 32  1  0  0  0  0
 18 33  2  0  0  0  0
 18 34  1  0  0  0  0
 19 21  2  0  0  0  0
 19 40  1  0  0  0  0
 20 22  2  0  0  0  0
 20 41  1  0  0  0  0
 21 53  1  0  0  0  0
 22 42  1  0  0  0  0
 23 24  2  0  0  0  0
 23 64  1  0  0  0  0
 24 25  1  0  0  0  0
 24 57  1  0  0  0  0
 25 26  2  0  0  0  0
 25 63  1  0  0  0  0
 26 76  1  0  0  0  0
 27 87  1  0  0  0  0
 28 88  1  0  0  0  0
 29 31  2  0  0  0  0
 29 87  1  0  0  0  0
 30 89  1  0  0  0  0
 31 90  1  0  0  0  0
 32 69  2  0  0  0  0
 33 70  1  0  0  0  0
 33 74  1  0  0  0  0
 34 75  1  0  0  0  0
 34 81  2  0  0  0  0
 35 54  1  0  0  0  0
 35 77  1  0  0  0  0
 35 82  2  0  0  0  0
 36 66  1  0  0  0  0
 36 71  1  0  0  0  0
 36 83  2  0  0  0  0
 37 67  1  0  0  0  0
 37 78  1  0  0  0  0
 37 84  2  0  0  0  0
 38 65  1  0  0  0  0
 38 80  1  0  0  0  0
 38 85  2  0  0  0  0
 39 72  1  0  0  0  0
 39 73  1  0  0  0  0
 39 86  2  0  0  0  0
 40 43  1  0  0  0  0
 41 54  1  0  0  0  0
 42 71  1  0  0  0  0
 43 45  1  0  0  0  0
 44 46  1  0  0  0  0
 44 49  1  0  0  0  0
 45 53  1  0  0  0  0
 46 55  1  0  0  0  0
 47 50  1  0  0  0  0
 47 56  1  0  0  0  0
 48 51  1  0  0  0  0
 48 56  1  0  0  0  0
 49 72  1  0  0  0  0
 50 73  1  0  0  0  0
 51 73  1  0  0  0  0
 52 55  1  0  0  0  0
 52 72  1  0  0  0  0
 53 77  1  0  0  0  0
 54 71  1  0  0  0  0
 55 70  1  0  0  0  0
 56 76  1  0  0  0  0
 58 67  1  0  0  0  0
 59 68  1  0  0  0  0
 60 68  1  0  0  0  0
 61 68  1  0  0  0  0
 62 79  1  0  0  0  0
 63 65  1  0  0  0  0
 64 88  1  0  0  0  0
 66 68  1  0  0  0  0
 66 78  1  0  0  0  0
 67 79  1  0  0  0  0
 69 70  1  0  0  0  0
M  CHG  2  79   1  80  -1
M  ISO  4  39 100  64 101  73 100  88 101
M  END
> <Batch ID>
0124

> <Smiles>
CNC(C)C(=O)NC(C(=O)N1Cc2cc([101O:1][101CH2:1]c3ccc(NC4CC[100N:0]([100C:0](=O)N5CCCC(n6nc(-c7ccc(Oc8ccc(F)cc8F)cc7)c(C(N)=O)c6N)C5)CC4)c(CCC(=O)O)c3C)ccc2CC1C(=O)NC1CCCc2ccccc21)C(C)(C)C

> <Shape>
0.322

> <Color>
0.089

> <Negative vol penalty>
0.000

$$$$

  -OEChem-04052320333D

 84 93  0     1  0  0  0  0  0999 V2000
  -27.7723  -38.5580   24.3313 C   0  0  0  0  0  0  0  0  0  0  0  0
  -28.3318  -37.5385   23.5677 C   0  0  0  0  0  0  0  0  0  0  0  0
  -24.7329   -7.2118   19.7908 C   0  0  0  0  0  0  0  0  0  0  0  0
  -23.4666   -9.2675   19.7027 C   0  0  0  0  0  0  0  0  0  0  0  0
  -26.8174  -38.2569   25.3015 C   0  0  0  0  0  0  0  0  0  0  0  0
  -27.9374  -36.2171   23.7747 C   0  0  0  0  0  0  0  0  0  0  0  0
  -26.9467  -30.0672   20.2372 C   0  0  0  0  0  0  0  0  0  0  0  0
  -29.0997  -22.8223   21.8242 C   0  0  0  0  0  0  0  0  0  0  0  0
  -23.6679   -6.5834   20.4361 C   0  0  0  0  0  0  0  0  0  0  0  0
  -22.4016   -8.6390   20.3479 C   0  0  0  0  0  0  0  0  0  0  0  0
  -27.3114  -28.7227   20.2915 C   0  0  0  0  0  0  0  0  0  0  0  0
  -22.3777   -6.4472   23.5572 C   0  0  0  0  0  0  0  0  0  0  0  0
  -22.6708   -5.6492   24.6630 C   0  0  0  0  0  0  0  0  0  0  0  0
  -28.9121  -24.1931   21.6860 C   0  0  0  0  0  0  0  0  0  0  0  0
  -25.5956  -28.3301   21.9410 C   0  0  0  0  0  0  0  0  0  0  0  0
  -21.7133   -3.7378   23.5375 C   0  0  0  0  0  0  0  0  0  0  0  0
  -28.0387  -22.5172   19.7176 C   0  0  0  0  0  0  0  0  0  0  0  0
  -24.6323   -8.5539   19.4241 C   0  0  0  0  0  0  0  0  0  0  0  0
  -26.3095   -8.8473   17.5245 C   0  0  0  0  0  0  0  0  0  0  0  0
  -28.6576  -21.9615   20.8258 C   0  0  0  0  0  0  0  0  0  0  0  0
  -26.4040  -36.9322   25.5139 C   0  0  0  0  0  0  0  0  0  0  0  0
  -25.9091  -30.5564   21.0439 C   0  0  0  0  0  0  0  0  0  0  0  0
  -26.9770  -35.8979   24.7496 C   0  0  0  0  0  0  0  0  0  0  0  0
  -25.2180  -29.6807   21.8933 C   0  0  0  0  0  0  0  0  0  0  0  0
  -22.5022   -7.2969   20.7146 C   0  0  0  0  0  0  0  0  0  0  0  0
  -26.6377  -27.8545   21.1456 C   0  0  0  0  0  0  0  0  0  0  0  0
  -21.7523   -5.8906   22.4415 C   0  0  0  0  0  0  0  0  0  0  0  0
  -22.3387   -4.2945   24.6531 C   0  0  0  0  0  0  0  0  0  0  0  0
  -21.4201   -4.5359   22.4316 C   0  0  0  0  0  0  0  0  0  0  0  0
  -25.7323   -9.2038   18.7580 C   0  0  0  0  0  0  0  0  0  0  0  0
  -28.2819  -24.6489   20.5392 C   0  0  0  0  0  0  0  0  0  0  0  0
  -27.3108   -9.7681   17.3350 C   0  0  0  0  0  0  0  0  0  0  0  0
  -25.9707   -7.7793   16.6298 C   0  0  0  0  0  0  0  0  0  0  0  0
  -25.7009  -32.7192   23.3639 C   0  0  0  0  0  0  0  0  0  0  0  0
  -22.5253  -32.1039   23.1205 C   0  0  0  0  0  0  0  0  0  0  0  0
  -20.0567  -29.9337   22.2022 C   0  0  0  0  0  0  0  0  0  0  0  0
  -27.9384  -15.2946   19.6410 C   0  0  0  0  0  0  0  0  0  0  0  0
  -25.4034  -36.6503   26.6066 C   0  0  0  0  0  0  0  0  0  0  0  0
  -25.5101  -32.0039   20.9540 C   0  0  0  0  0  0  0  0  0  0  0  0
  -24.0835  -30.1518   22.7648 C   0  0  0  0  0  0  0  0  0  0  0  0
  -24.7655  -35.2671   26.5064 C   0  0  0  0  0  0  0  0  0  0  0  0
  -29.6222  -12.0385   20.7996 C   0  0  0  0  0  0  0  0  0  0  0  0
  -29.7475  -19.9053   19.8299 C   0  0  0  0  0  0  0  0  0  0  0  0
  -27.5016  -19.7154   20.9895 C   0  0  0  0  0  0  0  0  0  0  0  0
  -25.8310  -34.2048   26.2549 C   0  0  0  0  0  0  0  0  0  0  0  0
  -29.4751  -11.3670   19.4375 C   0  0  0  0  0  0  0  0  0  0  0  0
  -29.9437  -18.3952   19.9685 C   0  0  0  0  0  0  0  0  0  0  0  0
  -27.7018  -18.2056   21.1246 C   0  0  0  0  0  0  0  0  0  0  0  0
  -29.4597  -13.5510   20.6831 C   0  0  0  0  0  0  0  0  0  0  0  0
  -27.3977  -12.8795   19.4504 C   0  0  0  0  0  0  0  0  0  0  0  0
  -28.8469  -20.4604   20.9466 C   0  0  0  0  0  0  0  0  0  0  0  0
  -26.5569  -34.4550   24.9276 C   0  0  1  0  0  0  0  0  0  0  0  0
  -24.7792  -32.5005   22.1975 C   0  0  1  0  0  0  0  0  0  0  0  0
  -28.1757  -11.7769   18.7105 C   0  0  2  0  0  0  0  0  0  0  0  0
  -28.6026  -17.6589   20.0150 C   0  0  0  0  0  0  0  0  0  0  0  0
  -17.5590  -29.6952   22.1592 C   0  0  0  0  0  0  0  0  0  0  0  0
  -22.5282  -31.5581   26.1225 C   0  0  0  0  0  0  0  0  0  0  0  0
  -20.3089  -30.4318   25.8493 C   0  0  0  0  0  0  0  0  0  0  0  0
  -20.5531  -32.8527   25.2995 C   0  0  0  0  0  0  0  0  0  0  0  0
  -20.0148  -29.6866   19.2532 C   0  0  0  0  0  0  0  0  0  0  0  0
  -28.0631  -26.1220   20.3565 C   0  0  0  0  0  0  0  0  0  1  0  0
  -21.5739  -31.1237   23.7631 C   0  0  1  0  0  0  0  0  0  0  0  0
  -18.7928  -30.1330   21.3854 C   0  0  2  0  0  0  0  0  0  0  0  0
  -21.2636  -31.4828   25.2437 C   0  0  0  0  0  0  0  0  0  0  0  0
  -27.8387  -23.8434   19.5480 N   0  0  0  0  0  0  0  0  0  0  0  0
  -26.3184  -10.2679   19.3131 N   0  0  0  0  0  0  0  0  0  0  0  0
  -27.2743  -10.5879   18.4244 N   0  0  0  0  0  0  0  0  0  0  0  0
  -23.7349  -31.5772   22.6458 N   0  0  0  0  0  0  0  0  0  0  0  0
  -28.2825  -13.9542   19.9035 N   0  0  0  0  0  0  0  0  0  0  0  0
  -28.2103   -9.9482   16.3446 N   0  0  0  0  0  0  0  0  0  0  0  0
  -25.0209   -8.0227   15.6282 N   0  0  0  0  0  0  0  0  0  0  0  0
  -25.7378  -34.0249   23.8147 N   0  0  0  0  0  0  0  0  0  0  0  0
  -20.3975  -31.0720   22.9017 N   0  0  0  0  0  0  0  0  0  0  0  0
  -28.8065  -16.2382   20.1844 N   0  0  0  0  0  0  0  0  0  0  0  0
  -18.8612  -29.3426   20.1238 N   0  3  0  0  0  0  0  0  0  0  0  0
  -26.4825   -6.6382   16.7263 O   0  0  0  0  0  0  0  0  0  0  0  0
  -26.3306  -31.7730   23.8220 O   0  0  0  0  0  0  0  0  0  0  0  0
  -22.2039  -33.2918   23.0361 O   0  0  0  0  0  0  0  0  0  0  0  0
  -20.6774  -28.8730   22.2209 O   0  0  0  0  0  0  0  0  0  0  0  0
  -26.9452  -15.6201   18.9838 O   0  0  0  0  0  0  0  0  0  0  0  0
  -21.4627   -6.6840   21.3441 O   0  0  0  0  0  0  0  0  0  0  0  0
  -26.9921  -26.5418   21.2010 O   0  0  0  0  0  0  0  0  0  1  0  0
  -22.6216   -3.5280   25.7145 F   0  0  0  0  0  0  0  0  0  0  0  0
  -20.8203   -3.9952   21.3622 F   0  0  0  0  0  0  0  0  0  0  0  0
  1  2  1  0  0  0  0
  1  5  2  0  0  0  0
  2  6  2  0  0  0  0
  3  9  2  0  0  0  0
  3 18  1  0  0  0  0
  4 10  1  0  0  0  0
  4 18  2  0  0  0  0
  5 21  1  0  0  0  0
  6 23  1  0  0  0  0
  7 11  2  0  0  0  0
  7 22  1  0  0  0  0
  8 14  2  0  0  0  0
  8 20  1  0  0  0  0
  9 25  1  0  0  0  0
 10 25  2  0  0  0  0
 11 26  1  0  0  0  0
 12 13  2  0  0  0  0
 12 27  1  0  0  0  0
 13 28  1  0  0  0  0
 14 31  1  0  0  0  0
 15 24  1  0  0  0  0
 15 26  2  0  0  0  0
 16 28  2  0  0  0  0
 16 29  1  0  0  0  0
 17 20  2  0  0  0  0
 17 65  1  0  0  0  0
 18 30  1  0  0  0  0
 19 30  1  0  0  0  0
 19 32  2  0  0  0  0
 19 33  1  0  0  0  0
 20 51  1  0  0  0  0
 21 23  2  0  0  0  0
 21 38  1  0  0  0  0
 22 24  2  0  0  0  0
 22 39  1  0  0  0  0
 23 52  1  0  0  0  0
 24 40  1  0  0  0  0
 25 81  1  0  0  0  0
 26 82  1  0  0  0  0
 27 29  2  0  0  0  0
 27 81  1  0  0  0  0
 28 83  1  0  0  0  0
 29 84  1  0  0  0  0
 30 66  2  0  0  0  0
 31 61  1  0  0  0  0
 31 65  2  0  0  0  0
 32 67  1  0  0  0  0
 32 70  1  0  0  0  0
 33 71  1  0  0  0  0
 33 76  2  0  0  0  0
 34 53  1  0  0  0  0
 34 72  1  0  0  0  0
 34 77  2  0  0  0  0
 35 62  1  0  0  0  0
 35 68  1  0  0  0  0
 35 78  2  0  0  0  0
 36 63  1  0  0  0  0
 36 73  1  0  0  0  0
 36 79  2  0  0  0  0
 37 69  1  0  0  0  0
 37 74  1  0  0  0  0
 37 80  2  0  0  0  0
 38 41  1  0  0  0  0
 39 53  1  0  0  0  0
 40 68  1  0  0  0  0
 41 45  1  0  0  0  0
 42 46  1  0  0  0  0
 42 49  1  0  0  0  0
 43 47  1  0  0  0  0
 43 51  1  0  0  0  0
 44 48  1  0  0  0  0
 44 51  1  0  0  0  0
 45 52  1  0  0  0  0
 46 54  1  0  0  0  0
 47 55  1  0  0  0  0
 48 55  1  0  0  0  0
 49 69  1  0  0  0  0
 50 54  1  0  0  0  0
 50 69  1  0  0  0  0
 52 72  1  0  0  0  0
 53 68  1  0  0  0  0
 54 67  1  0  0  0  0
 55 74  1  0  0  0  0
 56 63  1  0  0  0  0
 57 64  1  0  0  0  0
 58 64  1  0  0  0  0
 59 64  1  0  0  0  0
 60 75  1  0  0  0  0
 61 82  1  0  0  0  0
 62 64  1  0  0  0  0
 62 73  1  0  0  0  0
 63 75  1  0  0  0  0
 66 67  1  0  0  0  0
M  CHG  1  75   1
M  ISO  4  37 100  61 101  74 100  82 101
M  END
> <Batch ID>
0124

> <Smiles>
CNC(C)C(=O)NC(C(=O)N1Cc2cc([101O:1][101CH2:1]c3ccc(C4CCC([100NH:0][100C:0](=O)N5CCCC(n6nc(-c7ccc(Oc8ccc(F)cc8F)cc7)c(C(N)=O)c6N)C5)CC4)cn3)ccc2CC1C(=O)NC1CCCc2ccccc21)C(C)(C)C

> <Shape>
0.292

> <Color>
0.076

> <Negative vol penalty>
0.000

$$$$

  -OEChem-04052320333D

 89 98  0     1  0  0  0  0  0999 V2000
  -30.7124  -14.6048   21.2439 C   0  0  0  0  0  0  0  0  0  0  0  0
  -30.1170  -15.8236   20.9349 C   0  0  0  0  0  0  0  0  0  0  0  0
  -28.4761  -24.0959   19.5942 C   0  0  0  0  0  0  0  0  0  0  0  0
  -28.4338  -23.5213   21.9405 C   0  0  0  0  0  0  0  0  0  0  0  0
  -30.0518  -13.4129   20.9492 C   0  0  0  0  0  0  0  0  0  0  0  0
  -28.8609  -15.8511   20.3300 C   0  0  0  0  0  0  0  0  0  0  0  0
  -23.3149  -19.2258   23.4516 C   0  0  0  0  0  0  0  0  0  0  0  0
  -28.6720  -22.7537   19.2690 C   0  0  0  0  0  0  0  0  0  0  0  0
  -28.6297  -22.1790   21.6153 C   0  0  0  0  0  0  0  0  0  0  0  0
  -22.2587  -20.0286   23.8829 C   0  0  0  0  0  0  0  0  0  0  0  0
  -26.7945  -19.9536   19.0106 C   0  0  0  0  0  0  0  0  0  0  0  0
  -26.0348  -19.4214   17.9689 C   0  0  0  0  0  0  0  0  0  0  0  0
  -20.8968  -19.2424   22.0458 C   0  0  0  0  0  0  0  0  0  0  0  0
  -28.0598  -18.8970   16.7600 C   0  0  0  0  0  0  0  0  0  0  0  0
  -28.3570  -24.4797   20.9299 C   0  0  0  0  0  0  0  0  0  0  0  0
  -29.0081  -26.9459   20.9693 C   0  0  0  0  0  0  0  0  0  0  0  0
  -28.7827  -13.4260   20.3492 C   0  0  0  0  0  0  0  0  0  0  0  0
  -23.1606  -18.4155   22.3233 C   0  0  0  0  0  0  0  0  0  0  0  0
  -28.1832  -14.6583   20.0258 C   0  0  0  0  0  0  0  0  0  0  0  0
  -21.9470  -18.4267   21.6163 C   0  0  0  0  0  0  0  0  0  0  0  0
  -28.7488  -21.7953   20.2795 C   0  0  0  0  0  0  0  0  0  0  0  0
  -21.0527  -20.0371   23.1816 C   0  0  0  0  0  0  0  0  0  0  0  0
  -28.1869  -19.9575   18.9271 C   0  0  0  0  0  0  0  0  0  0  0  0
  -26.6674  -18.8931   16.8436 C   0  0  0  0  0  0  0  0  0  0  0  0
  -28.8195  -19.4292   17.8018 C   0  0  0  0  0  0  0  0  0  0  0  0
  -28.1552  -25.8661   21.2665 C   0  0  0  0  0  0  0  0  0  0  0  0
  -28.3720  -28.0418   21.4991 C   0  0  0  0  0  0  0  0  0  0  0  0
  -30.2631  -26.9573   20.2760 C   0  0  0  0  0  0  0  0  0  0  0  0
  -24.7012  -15.8946   20.0109 C   0  0  0  0  0  0  0  0  0  0  0  0
  -21.7953  -15.0249   20.4686 C   0  0  0  0  0  0  0  0  0  0  0  0
  -18.6758  -14.1829   21.5628 C   0  0  0  0  0  0  0  0  0  0  0  0
  -22.6745  -29.1347   22.5946 C   0  0  0  0  0  0  0  0  0  0  0  0
  -28.1281  -12.1112   20.0065 C   0  0  0  0  0  0  0  0  0  0  0  0
  -24.2920  -17.5813   21.7869 C   0  0  0  0  0  0  0  0  0  0  0  0
  -21.8380  -17.5650   20.3881 C   0  0  0  0  0  0  0  0  0  0  0  0
  -26.6364  -12.2334   19.7066 C   0  0  0  0  0  0  0  0  0  0  0  0
  -25.3670  -29.2946   25.0075 C   0  0  0  0  0  0  0  0  0  0  0  0
  -26.3759  -13.4015   18.7609 C   0  0  0  0  0  0  0  0  0  0  0  0
  -18.5728  -25.4643   24.4582 C   0  0  0  0  0  0  0  0  0  0  0  0
  -18.0824  -24.3891   22.2265 C   0  0  0  0  0  0  0  0  0  0  0  0
  -19.6135  -24.3846   24.7496 C   0  0  0  0  0  0  0  0  0  0  0  0
  -19.1230  -23.3094   22.5181 C   0  0  0  0  0  0  0  0  0  0  0  0
  -26.4732  -28.5282   24.2801 C   0  0  0  0  0  0  0  0  0  0  0  0
  -18.1659  -30.9517   23.1394 C   0  0  0  0  0  0  0  0  0  0  0  0
  -18.9684  -28.6011   22.7895 C   0  0  0  0  0  0  0  0  0  0  0  0
  -23.9988  -28.6722   24.7451 C   0  0  0  0  0  0  0  0  0  0  0  0
  -24.7499  -27.7802   22.5740 C   0  0  0  0  0  0  0  0  0  0  0  0
  -16.8588  -30.4168   23.7011 C   0  0  0  0  0  0  0  0  0  0  0  0
  -26.8109  -14.7297   19.3919 C   0  0  1  0  0  0  0  0  0  0  0  0
  -23.8222  -16.2499   21.1739 C   0  0  1  0  0  0  0  0  0  0  0  0
  -18.4083  -25.7010   22.9516 C   0  0  0  0  0  0  0  0  0  0  0  0
  -19.2874  -23.0727   24.0247 C   0  0  0  0  0  0  0  0  0  0  0  0
  -19.3168  -29.9726   23.3745 C   0  0  1  0  0  0  0  0  0  0  0  0
  -26.1553  -28.3736   22.7810 C   0  0  2  0  0  0  0  0  0  0  0  0
  -17.6472  -28.0496   23.3430 C   0  0  2  0  0  0  0  0  0  0  0  0
  -16.8981  -12.4330   21.2891 C   0  0  0  0  0  0  0  0  0  0  0  0
  -14.1465  -29.6242   23.0568 C   0  0  0  0  0  0  0  0  0  0  0  0
  -15.1869  -28.4681   25.0455 C   0  0  0  0  0  0  0  0  0  0  0  0
  -21.0333  -16.2264   17.7705 C   0  0  0  0  0  0  0  0  0  0  0  0
  -18.7880  -15.1433   18.0021 C   0  0  0  0  0  0  0  0  0  0  0  0
  -20.8447  -13.7357   17.8945 C   0  0  0  0  0  0  0  0  0  0  0  0
  -18.8071  -13.4362   24.4236 C   0  0  0  0  0  0  0  0  0  0  0  0
  -17.3282  -26.7476   22.6846 C   0  0  0  0  0  0  0  0  0  0  0  0
  -20.6145  -30.5066   22.7712 C   0  0  0  0  0  0  0  0  0  0  0  0
  -20.3675  -22.0260   24.2917 C   0  0  0  0  0  0  0  0  0  1  0  0
  -20.3683  -15.0764   19.9844 C   0  0  1  0  0  0  0  0  0  0  0  0
  -18.1120  -12.8760   22.0909 C   0  0  2  0  0  0  0  0  0  0  0  0
  -15.1751  -28.6106   23.5320 C   0  0  0  0  0  0  0  0  0  0  0  0
  -20.2682  -15.0633   18.4328 C   0  0  0  0  0  0  0  0  0  0  0  0
  -27.0608  -26.2419   21.9337 N   0  0  0  0  0  0  0  0  0  0  0  0
  -27.2217  -27.5701   22.0601 N   0  0  0  0  0  0  0  0  0  0  0  0
  -22.4495  -16.2509   20.6404 N   0  0  0  0  0  0  0  0  0  0  0  0
  -23.7503  -28.5706   23.3001 N   0  0  0  0  0  0  0  0  0  0  0  0
  -28.6900  -29.3533   21.5354 N   0  0  0  0  0  0  0  0  0  0  0  0
  -31.4389  -26.7896   21.0201 N   0  0  0  0  0  0  0  0  0  0  0  0
  -25.8296  -15.1760   20.3574 N   0  0  0  0  0  0  0  0  0  0  0  0
  -19.6756  -13.9708   20.6372 N   0  0  0  0  0  0  0  0  0  0  0  0
  -21.7689  -29.8622   23.3570 N   0  0  0  0  0  0  0  0  0  0  0  0
  -16.5417  -29.0694   23.0836 N   0  3  1  0  0  0  0  0  0  0  0  0
  -17.7044  -13.0262   23.5165 N   0  3  0  0  0  0  0  0  0  0  0  0
  -30.3405  -27.1281   19.0357 O   0  0  0  0  0  0  0  0  0  0  0  0
  -24.3797  -16.2447   18.8815 O   0  0  0  0  0  0  0  0  0  0  0  0
  -22.3199  -13.9287   20.6840 O   0  0  0  0  0  0  0  0  0  0  0  0
  -18.2675  -15.2818   21.9317 O   0  0  0  0  0  0  0  0  0  0  0  0
  -22.5341  -29.0042   21.3738 O   0  0  0  0  0  0  0  0  0  0  0  0
  -28.9397  -20.4855   19.9625 O   0  0  0  0  0  0  0  0  0  0  0  0
  -20.0242  -20.8198   23.6108 O   0  0  0  0  0  0  0  0  0  1  0  0
  -25.9378  -18.3807   15.8440 F   0  0  0  0  0  0  0  0  0  0  0  0
  -30.1568  -19.4291   17.7164 F   0  0  0  0  0  0  0  0  0  0  0  0
  1  2  1  0  0  0  0
  1  5  2  0  0  0  0
  2  6  2  0  0  0  0
  3  8  2  0  0  0  0
  3 15  1  0  0  0  0
  4  9  1  0  0  0  0
  4 15  2  0  0  0  0
  5 17  1  0  0  0  0
  6 19  1  0  0  0  0
  7 10  2  0  0  0  0
  7 18  1  0  0  0  0
  8 21  1  0  0  0  0
  9 21  2  0  0  0  0
 10 22  1  0  0  0  0
 11 12  2  0  0  0  0
 11 23  1  0  0  0  0
 12 24  1  0  0  0  0
 13 20  1  0  0  0  0
 13 22  2  0  0  0  0
 14 24  2  0  0  0  0
 14 25  1  0  0  0  0
 15 26  1  0  0  0  0
 16 26  1  0  0  0  0
 16 27  2  0  0  0  0
 16 28  1  0  0  0  0
 17 19  2  0  0  0  0
 17 33  1  0  0  0  0
 18 20  2  0  0  0  0
 18 34  1  0  0  0  0
 19 49  1  0  0  0  0
 20 35  1  0  0  0  0
 21 86  1  0  0  0  0
 22 87  1  0  0  0  0
 23 25  2  0  0  0  0
 23 86  1  0  0  0  0
 24 88  1  0  0  0  0
 25 89  1  0  0  0  0
 26 70  2  0  0  0  0
 27 71  1  0  0  0  0
 27 74  1  0  0  0  0
 28 75  1  0  0  0  0
 28 81  2  0  0  0  0
 29 50  1  0  0  0  0
 29 76  1  0  0  0  0
 29 82  2  0  0  0  0
 30 66  1  0  0  0  0
 30 72  1  0  0  0  0
 30 83  2  0  0  0  0
 31 67  1  0  0  0  0
 31 77  1  0  0  0  0
 31 84  2  0  0  0  0
 32 73  1  0  0  0  0
 32 78  1  0  0  0  0
 32 85  2  0  0  0  0
 33 36  1  0  0  0  0
 34 50  1  0  0  0  0
 35 72  1  0  0  0  0
 36 38  1  0  0  0  0
 37 43  1  0  0  0  0
 37 46  1  0  0  0  0
 38 49  1  0  0  0  0
 39 41  1  0  0  0  0
 39 51  1  0  0  0  0
 40 42  1  0  0  0  0
 40 51  1  0  0  0  0
 41 52  1  0  0  0  0
 42 52  1  0  0  0  0
 43 54  1  0  0  0  0
 44 48  1  0  0  0  0
 44 53  1  0  0  0  0
 45 53  1  0  0  0  0
 45 55  1  0  0  0  0
 46 73  1  0  0  0  0
 47 54  1  0  0  0  0
 47 73  1  0  0  0  0
 48 79  1  0  0  0  0
 49 76  1  0  0  0  0
 50 72  1  0  0  0  0
 51 63  1  0  0  0  0
 52 65  1  0  0  0  0
 53 64  1  0  0  0  0
 54 71  1  0  0  0  0
 55 63  1  0  0  0  0
 55 79  1  0  0  0  0
 56 67  1  0  0  0  0
 57 68  1  0  0  0  0
 58 68  1  0  0  0  0
 59 69  1  0  0  0  0
 60 69  1  0  0  0  0
 61 69  1  0  0  0  0
 62 80  1  0  0  0  0
 64 78  1  0  0  0  0
 65 87  1  0  0  0  0
 66 69  1  0  0  0  0
 66 77  1  0  0  0  0
 67 80  1  0  0  0  0
 68 79  1  0  0  0  0
 70 71  1  0  0  0  0
M  CHG  2  79   1  80   1
M  ISO  4  32 100  65 101  78 100  87 101
M  END
> <Batch ID>
0124

> <Smiles>
CNC(C)C(=O)NC(C(=O)N1Cc2cc([101O:1][101CH2:1]C3CCC(CC4CC(C[100NH:0][100C:0](=O)N5CCCC(n6nc(-c7ccc(Oc8ccc(F)cc8F)cc7)c(C(N)=O)c6N)C5)CCN4C(C)C)CC3)ccc2CC1C(=O)NC1CCCc2ccccc21)C(C)(C)C

> <Shape>
0.224

> <Color>
0.067

> <Negative vol penalty>
0.000

$$$$

  -OEChem-04052320333D

 81 89  0     1  0  0  0  0  0999 V2000
  -22.6861   -7.9277   22.4620 C   0  0  0  0  0  0  0  0  0  0  0  0
  -23.6215   -8.7336   21.8209 C   0  0  0  0  0  0  0  0  0  0  0  0
  -22.2878  -27.9667   21.3490 C   0  0  0  0  0  0  0  0  0  0  0  0
  -23.0606  -26.6244   23.2032 C   0  0  0  0  0  0  0  0  0  0  0  0
  -21.3902   -8.3973   22.6718 C   0  0  0  0  0  0  0  0  0  0  0  0
  -23.2611  -10.0093   21.3882 C   0  0  0  0  0  0  0  0  0  0  0  0
  -26.7511  -13.5011   22.5160 C   0  0  0  0  0  0  0  0  0  0  0  0
  -20.9755  -27.8407   21.8047 C   0  0  0  0  0  0  0  0  0  0  0  0
  -21.7483  -26.4984   23.6590 C   0  0  0  0  0  0  0  0  0  0  0  0
  -27.8841  -13.5540   21.7053 C   0  0  0  0  0  0  0  0  0  0  0  0
  -19.0269  -29.2200   24.1992 C   0  0  0  0  0  0  0  0  0  0  0  0
  -18.2364  -30.3689   24.2244 C   0  0  0  0  0  0  0  0  0  0  0  0
  -29.1637  -21.3079   22.3638 C   0  0  0  0  0  0  0  0  0  0  0  0
  -26.9349  -15.4227   20.5111 C   0  0  0  0  0  0  0  0  0  0  0  0
  -29.4931  -20.3641   20.1763 C   0  0  0  0  0  0  0  0  0  0  0  0
  -16.6715  -29.3255   22.7079 C   0  0  0  0  0  0  0  0  0  0  0  0
  -29.4587  -20.0596   22.8877 C   0  0  0  0  0  0  0  0  0  0  0  0
  -23.3303  -27.3585   22.0483 C   0  0  0  0  0  0  0  0  0  0  0  0
  -25.6121  -28.4917   21.9187 C   0  0  0  0  0  0  0  0  0  0  0  0
  -21.0165   -9.6831   22.2500 C   0  0  0  0  0  0  0  0  0  0  0  0
  -25.6950  -14.4032   22.3230 C   0  0  0  0  0  0  0  0  0  0  0  0
  -21.9586  -10.4960   21.5913 C   0  0  0  0  0  0  0  0  0  0  0  0
  -25.7907  -15.3808   21.3224 C   0  0  0  0  0  0  0  0  0  0  0  0
  -29.1834  -21.4547   20.9813 C   0  0  0  0  0  0  0  0  0  0  0  0
  -20.7057  -27.1066   22.9597 C   0  0  0  0  0  0  0  0  0  0  0  0
  -27.9749  -14.5131   20.7007 C   0  0  0  0  0  0  0  0  0  0  0  0
  -18.6398  -28.1238   23.4282 C   0  0  0  0  0  0  0  0  0  0  0  0
  -17.0587  -30.4216   23.4788 C   0  0  0  0  0  0  0  0  0  0  0  0
  -17.4622  -28.1766   22.6826 C   0  0  0  0  0  0  0  0  0  0  0  0
  -24.6860  -27.4877   21.5777 C   0  0  0  0  0  0  0  0  0  0  0  0
  -29.7736  -19.1581   20.7981 C   0  0  0  0  0  0  0  0  0  0  0  0
  -26.7451  -28.1677   21.2130 C   0  0  0  0  0  0  0  0  0  0  0  0
  -25.4618  -29.6164   22.7950 C   0  0  0  0  0  0  0  0  0  0  0  0
  -22.6260  -14.1299   21.5416 C   0  0  0  0  0  0  0  0  0  0  0  0
  -22.5943  -17.3198   22.1298 C   0  0  0  0  0  0  0  0  0  0  0  0
  -24.3386  -20.2462   22.3310 C   0  0  0  0  0  0  0  0  0  0  0  0
  -28.8668  -23.0234   19.0358 C   0  0  0  0  0  0  0  0  0  0  0  0
  -19.5907  -10.1291   22.4567 C   0  0  0  0  0  0  0  0  0  0  0  0
  -24.4913  -14.3501   23.2234 C   0  0  0  0  0  0  0  0  0  0  0  0
  -24.6933  -16.3853   21.0874 C   0  0  0  0  0  0  0  0  0  0  0  0
  -19.3950  -11.6351   22.3022 C   0  0  0  0  0  0  0  0  0  0  0  0
  -28.1553  -25.9843   17.1908 C   0  0  0  0  0  0  0  0  0  0  0  0
  -20.1012  -12.1391   21.0475 C   0  0  0  0  0  0  0  0  0  0  0  0
  -27.2742  -26.7999   18.1398 C   0  0  0  0  0  0  0  0  0  0  0  0
  -27.8670  -24.4877   17.2947 C   0  0  0  0  0  0  0  0  0  0  0  0
  -27.0486  -24.7519   19.6033 C   0  0  0  0  0  0  0  0  0  0  0  0
  -21.6129  -11.8951   21.1295 C   0  0  1  0  0  0  0  0  0  0  0  0
  -23.2525  -14.9891   22.6032 C   0  0  1  0  0  0  0  0  0  0  0  0
  -27.3481  -26.2597   19.5814 C   0  0  2  0  0  0  0  0  0  0  0  0
  -24.0335  -22.6934   22.7952 C   0  0  0  0  0  0  0  0  0  0  0  0
  -30.6742  -15.6593   18.5141 C   0  0  0  0  0  0  0  0  0  0  0  0
  -21.3832  -17.6928   19.3542 C   0  0  0  0  0  0  0  0  0  0  0  0
  -21.9805  -20.1200   19.4961 C   0  0  0  0  0  0  0  0  0  0  0  0
  -20.3775  -19.1340   21.1335 C   0  0  0  0  0  0  0  0  0  0  0  0
  -26.1533  -20.1479   24.6669 C   0  0  0  0  0  0  0  0  0  0  0  0
  -29.7254  -16.7933   20.5506 C   0  0  0  0  0  0  0  0  0  0  0  0
  -22.8341  -18.5614   21.3052 C   0  0  1  0  0  0  0  0  0  0  0  0
  -24.3633  -21.3333   23.3903 C   0  0  2  0  0  0  0  0  0  0  0  0
  -29.4468  -15.8449   19.3910 C   0  0  2  0  0  0  0  0  0  1  0  0
  -21.6638  -18.8570   20.3252 C   0  0  0  0  0  0  0  0  0  0  0  0
  -29.7643  -18.9770   22.1378 N   0  0  0  0  0  0  0  0  0  0  0  0
  -25.1872  -26.5931   20.7218 N   0  0  0  0  0  0  0  0  0  0  0  0
  -26.4405  -27.0338   20.5190 N   0  0  0  0  0  0  0  0  0  0  0  0
  -23.5339  -16.2886   21.9897 N   0  0  0  0  0  0  0  0  0  0  0  0
  -27.9594  -24.0464   18.6881 N   0  0  0  0  0  0  0  0  0  0  0  0
  -27.9622  -28.7450   21.1246 N   0  0  0  0  0  0  0  0  0  0  0  0
  -24.2314  -29.8008   23.4403 N   0  0  0  0  0  0  0  0  0  0  0  0
  -28.8900  -22.7106   20.3945 N   0  0  0  0  0  0  0  0  0  0  0  0
  -22.2382  -12.8802   21.9857 N   0  0  0  0  0  0  0  0  0  0  0  0
  -23.1046  -19.6358   22.2543 N   0  0  0  0  0  0  0  0  0  0  0  0
  -25.7111  -21.4109   24.0216 N   0  3  0  0  0  0  0  0  0  0  0  0
  -26.3856  -30.4429   22.9870 O   0  0  0  0  0  0  0  0  0  0  0  0
  -22.5022  -14.5689   20.4042 O   0  0  0  0  0  0  0  0  0  0  0  0
  -21.6135  -17.2696   22.8763 O   0  0  0  0  0  0  0  0  0  0  0  0
  -25.3151  -19.9689   21.6382 O   0  0  0  0  0  0  0  0  0  0  0  0
  -29.5909  -22.4848   18.1946 O   0  0  0  0  0  0  0  0  0  0  0  0
  -19.4254  -26.9837   23.4048 O   0  0  0  0  0  0  0  0  0  0  0  0
  -29.0793  -14.5665   19.9075 O   0  0  0  0  0  0  0  0  0  1  0  0
  -30.0797  -18.0686   20.0267 O   0  0  0  0  0  0  0  0  0  0  0  0
  -16.2988  -31.5244   23.5043 F   0  0  0  0  0  0  0  0  0  0  0  0
  -17.0845  -27.1262   21.9410 F   0  0  0  0  0  0  0  0  0  0  0  0
  1  2  1  0  0  0  0
  1  5  2  0  0  0  0
  2  6  2  0  0  0  0
  3  8  2  0  0  0  0
  3 18  1  0  0  0  0
  4  9  1  0  0  0  0
  4 18  2  0  0  0  0
  5 20  1  0  0  0  0
  6 22  1  0  0  0  0
  7 10  2  0  0  0  0
  7 21  1  0  0  0  0
  8 25  1  0  0  0  0
  9 25  2  0  0  0  0
 10 26  1  0  0  0  0
 11 12  2  0  0  0  0
 11 27  1  0  0  0  0
 12 28  1  0  0  0  0
 13 17  2  0  0  0  0
 13 24  1  0  0  0  0
 14 23  1  0  0  0  0
 14 26  2  0  0  0  0
 15 24  2  0  0  0  0
 15 31  1  0  0  0  0
 16 28  2  0  0  0  0
 16 29  1  0  0  0  0
 17 61  1  0  0  0  0
 18 30  1  0  0  0  0
 19 30  1  0  0  0  0
 19 32  2  0  0  0  0
 19 33  1  0  0  0  0
 20 22  2  0  0  0  0
 20 38  1  0  0  0  0
 21 23  2  0  0  0  0
 21 39  1  0  0  0  0
 22 47  1  0  0  0  0
 23 40  1  0  0  0  0
 24 68  1  0  0  0  0
 25 77  1  0  0  0  0
 26 78  1  0  0  0  0
 27 29  2  0  0  0  0
 27 77  1  0  0  0  0
 28 80  1  0  0  0  0
 29 81  1  0  0  0  0
 30 62  2  0  0  0  0
 31 61  2  0  0  0  0
 31 79  1  0  0  0  0
 32 63  1  0  0  0  0
 32 66  1  0  0  0  0
 33 67  1  0  0  0  0
 33 72  2  0  0  0  0
 34 48  1  0  0  0  0
 34 69  1  0  0  0  0
 34 73  2  0  0  0  0
 35 57  1  0  0  0  0
 35 64  1  0  0  0  0
 35 74  2  0  0  0  0
 36 58  1  0  0  0  0
 36 70  1  0  0  0  0
 36 75  2  0  0  0  0
 37 65  1  0  0  0  0
 37 68  1  0  0  0  0
 37 76  2  0  0  0  0
 38 41  1  0  0  0  0
 39 48  1  0  0  0  0
 40 64  1  0  0  0  0
 41 43  1  0  0  0  0
 42 44  1  0  0  0  0
 42 45  1  0  0  0  0
 43 47  1  0  0  0  0
 44 49  1  0  0  0  0
 45 65  1  0  0  0  0
 46 49  1  0  0  0  0
 46 65  1  0  0  0  0
 47 69  1  0  0  0  0
 48 64  1  0  0  0  0
 49 63  1  0  0  0  0
 50 58  1  0  0  0  0
 51 59  1  0  0  0  0
 52 60  1  0  0  0  0
 53 60  1  0  0  0  0
 54 60  1  0  0  0  0
 55 71  1  0  0  0  0
 56 59  1  0  0  0  0
 56 79  1  0  0  0  0
 57 60  1  0  0  0  0
 57 70  1  0  0  0  0
 58 71  1  0  0  0  0
 59 78  1  0  0  0  0
 62 63  1  0  0  0  0
M  CHG  1  71   1
M  ISO  4  37 100  59 101  68 100  78 101
M  END
> <Batch ID>
0124

> <Smiles>
CNC(C)C(=O)NC(C(=O)N1Cc2cc([101O:1][101CH:1](C)COc3cc([100NH:0][100C:0](=O)N4CCCC(n5nc(-c6ccc(Oc7ccc(F)cc7F)cc6)c(C(N)=O)c5N)C4)ccn3)ccc2CC1C(=O)NC1CCCc2ccccc21)C(C)(C)C

> <Shape>
0.243

> <Color>
0.086

> <Negative vol penalty>
0.000

$$$$

  -OEChem-04052320333D

 84 93  0     1  0  0  0  0  0999 V2000
  -16.4160  -29.4068   23.9441 C   0  0  0  0  0  0  0  0  0  0  0  0
  -17.2125  -28.5224   24.6644 C   0  0  0  0  0  0  0  0  0  0  0  0
  -22.9046  -10.2118   20.1652 C   0  0  0  0  0  0  0  0  0  0  0  0
  -24.5294   -9.0957   21.5622 C   0  0  0  0  0  0  0  0  0  0  0  0
  -16.9015  -29.9837   22.7714 C   0  0  0  0  0  0  0  0  0  0  0  0
  -18.4947  -28.2134   24.2116 C   0  0  0  0  0  0  0  0  0  0  0  0
  -25.0269  -26.5608   26.6438 C   0  0  0  0  0  0  0  0  0  0  0  0
  -21.8775   -9.7393   20.9823 C   0  0  0  0  0  0  0  0  0  0  0  0
  -23.5023   -8.6233   22.3793 C   0  0  0  0  0  0  0  0  0  0  0  0
  -26.0220  -25.5967   26.4884 C   0  0  0  0  0  0  0  0  0  0  0  0
  -21.1997   -6.1487   22.3071 C   0  0  0  0  0  0  0  0  0  0  0  0
  -21.2437   -4.8094   22.6943 C   0  0  0  0  0  0  0  0  0  0  0  0
  -26.7849  -26.7147   24.4916 C   0  0  0  0  0  0  0  0  0  0  0  0
  -21.3261   -5.4826   25.0132 C   0  0  0  0  0  0  0  0  0  0  0  0
  -24.2305   -9.8899   20.4551 C   0  0  0  0  0  0  0  0  0  0  0  0
  -25.4680  -10.1270   18.2370 C   0  0  0  0  0  0  0  0  0  0  0  0
  -18.1938  -29.6891   22.3091 C   0  0  0  0  0  0  0  0  0  0  0  0
  -24.8962  -27.6047   25.7166 C   0  0  0  0  0  0  0  0  0  0  0  0
  -18.9974  -28.7859   23.0308 C   0  0  0  0  0  0  0  0  0  0  0  0
  -25.7889  -27.6922   24.6389 C   0  0  0  0  0  0  0  0  0  0  0  0
  -22.1764   -8.9451   22.0893 C   0  0  0  0  0  0  0  0  0  0  0  0
  -26.8993  -25.6720   25.4106 C   0  0  0  0  0  0  0  0  0  0  0  0
  -21.2190   -7.1550   23.2730 C   0  0  0  0  0  0  0  0  0  0  0  0
  -21.3068   -4.4763   24.0474 C   0  0  0  0  0  0  0  0  0  0  0  0
  -21.2822   -6.8219   24.6260 C   0  0  0  0  0  0  0  0  0  0  0  0
  -25.2918  -10.3772   19.6111 C   0  0  0  0  0  0  0  0  0  0  0  0
  -26.6137  -10.8094   17.9080 C   0  0  0  0  0  0  0  0  0  0  0  0
  -24.6676   -9.3477   17.3384 C   0  0  0  0  0  0  0  0  0  0  0  0
  -22.6225  -28.5466   23.7050 C   0  0  0  0  0  0  0  0  0  0  0  0
  -24.6277  -31.0507   23.2245 C   0  0  0  0  0  0  0  0  0  0  0  0
  -27.8106  -32.2767   23.3378 C   0  0  0  0  0  0  0  0  0  0  0  0
  -28.6213  -16.0580   19.4709 C   0  0  0  0  0  0  0  0  0  0  0  0
  -18.6574  -30.3007   21.0108 C   0  0  0  0  0  0  0  0  0  0  0  0
  -23.8344  -28.6517   25.9132 C   0  0  0  0  0  0  0  0  0  0  0  0
  -25.7037  -28.8045   23.6269 C   0  0  0  0  0  0  0  0  0  0  0  0
  -20.1665  -30.2103   20.7995 C   0  0  0  0  0  0  0  0  0  0  0  0
  -30.1991  -12.9370   20.7377 C   0  0  0  0  0  0  0  0  0  0  0  0
  -20.6670  -28.8051   21.1182 C   0  0  0  0  0  0  0  0  0  0  0  0
  -28.8170  -19.9491   24.5096 C   0  0  0  0  0  0  0  0  0  0  0  0
  -28.6933  -21.5223   22.5382 C   0  0  0  0  0  0  0  0  0  0  0  0
  -28.1049  -20.9833   25.3796 C   0  0  0  0  0  0  0  0  0  0  0  0
  -27.9812  -22.5566   23.4083 C   0  0  0  0  0  0  0  0  0  0  0  0
  -28.8864  -12.1517   20.6438 C   0  0  0  0  0  0  0  0  0  0  0  0
  -28.8877  -19.2899   20.6843 C   0  0  0  0  0  0  0  0  0  0  0  0
  -30.2460  -14.1444   19.8013 C   0  0  0  0  0  0  0  0  0  0  0  0
  -29.6417  -18.2838   19.8209 C   0  0  0  0  0  0  0  0  0  0  0  0
  -29.7213  -16.6522   21.6736 C   0  0  0  0  0  0  0  0  0  0  0  0
  -27.9589  -13.7520   18.9218 C   0  0  0  0  0  0  0  0  0  0  0  0
  -20.4029  -28.4449   22.5852 C   0  0  1  0  0  0  0  0  0  0  0  0
  -23.4687  -29.3812   24.6242 C   0  0  1  0  0  0  0  0  0  0  0  0
  -28.4351  -20.0928   23.0309 C   0  0  0  0  0  0  0  0  0  0  0  0
  -29.1975  -19.0811   22.1757 C   0  0  1  0  0  0  0  0  0  0  0  0
  -28.3631  -22.4128   24.8869 C   0  0  0  0  0  0  0  0  0  0  0  0
  -28.9585  -17.6131   22.6088 C   0  0  1  0  0  0  0  0  0  0  0  0
  -28.2637  -12.2771   19.2448 C   0  0  2  0  0  0  0  0  0  0  0  0
  -27.4765  -17.2224   22.6838 C   0  0  0  0  0  0  0  0  0  0  0  0
  -29.1431  -34.3459   22.8478 C   0  0  0  0  0  0  0  0  0  0  0  0
  -24.4727  -30.4406   20.2390 C   0  0  0  0  0  0  0  0  0  0  0  0
  -26.5011  -31.8713   19.9122 C   0  0  0  0  0  0  0  0  0  0  0  0
  -24.4015  -32.8740   20.8115 C   0  0  0  0  0  0  0  0  0  0  0  0
  -28.6616  -32.5373   26.1603 C   0  0  0  0  0  0  0  0  0  0  0  0
  -27.6013  -23.4240   25.7417 C   0  0  0  0  0  0  0  0  0  1  0  0
  -25.7709  -31.3393   22.2817 C   0  0  1  0  0  0  0  0  0  0  0  0
  -28.3730  -33.5682   23.9036 C   0  0  2  0  0  0  0  0  0  0  0  0
  -25.2872  -31.6091   20.8289 C   0  0  0  0  0  0  0  0  0  0  0  0
  -26.2490  -11.1573   20.1201 N   0  0  0  0  0  0  0  0  0  0  0  0
  -27.0378  -11.4032   19.0602 N   0  0  0  0  0  0  0  0  0  0  0  0
  -24.6446  -29.8005   23.8589 N   0  0  0  0  0  0  0  0  0  0  0  0
  -28.9104  -14.6854   19.5323 N   0  0  0  0  0  0  0  0  0  0  0  0
  -29.3997  -16.9121   20.2639 N   0  0  0  0  0  0  0  0  0  0  0  0
  -27.2898  -10.9532   16.7484 N   0  0  0  0  0  0  0  0  0  0  0  0
  -23.5236   -8.7134   17.8415 N   0  0  0  0  0  0  0  0  0  0  0  0
  -21.3759  -29.0834   23.4454 N   0  0  0  0  0  0  0  0  0  0  0  0
  -26.5218  -32.4401   22.8757 N   0  0  0  0  0  0  0  0  0  0  0  0
  -29.2940  -33.2786   25.0389 N   0  3  0  0  0  0  0  0  0  0  0  0
  -24.9673   -9.2043   16.1287 O   0  0  0  0  0  0  0  0  0  0  0  0
  -23.0681  -27.4942   23.2627 O   0  0  0  0  0  0  0  0  0  0  0  0
  -23.7557  -31.9060   23.3974 O   0  0  0  0  0  0  0  0  0  0  0  0
  -28.4518  -31.2287   23.3053 O   0  0  0  0  0  0  0  0  0  0  0  0
  -27.7149  -16.4927   18.7489 O   0  0  0  0  0  0  0  0  0  0  0  0
  -21.1745   -8.4841   22.8870 O   0  0  0  0  0  0  0  0  0  0  0  0
  -27.8801  -24.7232   25.2548 O   0  0  0  0  0  0  0  0  0  1  0  0
  -21.3475   -3.1901   24.4191 F   0  0  0  0  0  0  0  0  0  0  0  0
  -21.2998   -7.7842   25.5585 F   0  0  0  0  0  0  0  0  0  0  0  0
  1  2  1  0  0  0  0
  1  5  2  0  0  0  0
  2  6  2  0  0  0  0
  3  8  2  0  0  0  0
  3 15  1  0  0  0  0
  4  9  1  0  0  0  0
  4 15  2  0  0  0  0
  5 17  1  0  0  0  0
  6 19  1  0  0  0  0
  7 10  2  0  0  0  0
  7 18  1  0  0  0  0
  8 21  1  0  0  0  0
  9 21  2  0  0  0  0
 10 22  1  0  0  0  0
 11 12  2  0  0  0  0
 11 23  1  0  0  0  0
 12 24  1  0  0  0  0
 13 20  1  0  0  0  0
 13 22  2  0  0  0  0
 14 24  2  0  0  0  0
 14 25  1  0  0  0  0
 15 26  1  0  0  0  0
 16 26  1  0  0  0  0
 16 27  2  0  0  0  0
 16 28  1  0  0  0  0
 17 19  2  0  0  0  0
 17 33  1  0  0  0  0
 18 20  2  0  0  0  0
 18 34  1  0  0  0  0
 19 49  1  0  0  0  0
 20 35  1  0  0  0  0
 21 81  1  0  0  0  0
 22 82  1  0  0  0  0
 23 25  2  0  0  0  0
 23 81  1  0  0  0  0
 24 83  1  0  0  0  0
 25 84  1  0  0  0  0
 26 66  2  0  0  0  0
 27 67  1  0  0  0  0
 27 71  1  0  0  0  0
 28 72  1  0  0  0  0
 28 76  2  0  0  0  0
 29 50  1  0  0  0  0
 29 73  1  0  0  0  0
 29 77  2  0  0  0  0
 30 63  1  0  0  0  0
 30 68  1  0  0  0  0
 30 78  2  0  0  0  0
 31 64  1  0  0  0  0
 31 74  1  0  0  0  0
 31 79  2  0  0  0  0
 32 69  1  0  0  0  0
 32 70  1  0  0  0  0
 32 80  2  0  0  0  0
 33 36  1  0  0  0  0
 34 50  1  0  0  0  0
 35 68  1  0  0  0  0
 36 38  1  0  0  0  0
 37 43  1  0  0  0  0
 37 45  1  0  0  0  0
 38 49  1  0  0  0  0
 39 41  1  0  0  0  0
 39 51  1  0  0  0  0
 40 42  1  0  0  0  0
 40 51  1  0  0  0  0
 41 53  1  0  0  0  0
 42 53  1  0  0  0  0
 43 55  1  0  0  0  0
 44 46  1  0  0  0  0
 44 52  1  0  0  0  0
 45 69  1  0  0  0  0
 46 70  1  0  0  0  0
 47 54  1  0  0  0  0
 47 70  1  0  0  0  0
 48 55  1  0  0  0  0
 48 69  1  0  0  0  0
 49 73  1  0  0  0  0
 50 68  1  0  0  0  0
 51 52  1  0  0  0  0
 52 54  1  0  0  0  0
 53 62  1  0  0  0  0
 54 56  1  0  0  0  0
 55 67  1  0  0  0  0
 57 64  1  0  0  0  0
 58 65  1  0  0  0  0
 59 65  1  0  0  0  0
 60 65  1  0  0  0  0
 61 75  1  0  0  0  0
 62 82  1  0  0  0  0
 63 65  1  0  0  0  0
 63 74  1  0  0  0  0
 64 75  1  0  0  0  0
 66 67  1  0  0  0  0
M  CHG  1  75   1
M  ISO  4  32 100  62 101  70 100  82 101
M  END
> <Batch ID>
0124

> <Smiles>
CNC(C)C(=O)NC(C(=O)N1Cc2cc([101O:1][101CH2:1]C3CCC(C4CC[100N:0]([100C:0](=O)N5CCCC(n6nc(-c7ccc(Oc8ccc(F)cc8F)cc7)c(C(N)=O)c6N)C5)CC4C)CC3)ccc2CC1C(=O)NC1CCCc2ccccc21)C(C)(C)C

> <Shape>
0.266

> <Color>
0.101

> <Negative vol penalty>
0.000

$$$$

  -OEChem-04052320333D

 88 97  0     1  0  0  0  0  0999 V2000
  -32.3055  -24.2474   17.5051 C   0  0  0  0  0  0  0  0  0  0  0  0
  -31.0275  -24.4714   17.0029 C   0  0  0  0  0  0  0  0  0  0  0  0
  -27.5808  -14.7711   21.7759 C   0  0  0  0  0  0  0  0  0  0  0  0
  -26.4531  -15.3536   19.7202 C   0  0  0  0  0  0  0  0  0  0  0  0
  -32.5171  -24.2211   18.8829 C   0  0  0  0  0  0  0  0  0  0  0  0
  -29.9602  -24.6682   17.8785 C   0  0  0  0  0  0  0  0  0  0  0  0
  -23.7842  -28.2548   18.4349 C   0  0  0  0  0  0  0  0  0  0  0  0
  -27.0588  -13.4801   21.6965 C   0  0  0  0  0  0  0  0  0  0  0  0
  -25.9311  -14.0625   19.6407 C   0  0  0  0  0  0  0  0  0  0  0  0
  -22.4358  -28.0404   18.7172 C   0  0  0  0  0  0  0  0  0  0  0  0
  -23.4114  -12.3030   21.0500 C   0  0  0  0  0  0  0  0  0  0  0  0
  -22.0610  -12.1686   20.7278 C   0  0  0  0  0  0  0  0  0  0  0  0
  -22.9342  -28.0525   21.0774 C   0  0  0  0  0  0  0  0  0  0  0  0
  -19.5340  -22.9726   20.1935 C   0  0  0  0  0  0  0  0  0  0  0  0
  -21.7038  -22.1366   19.5789 C   0  0  0  0  0  0  0  0  0  0  0  0
  -22.6564  -10.8930   18.7642 C   0  0  0  0  0  0  0  0  0  0  0  0
  -27.2779  -15.7079   20.7878 C   0  0  0  0  0  0  0  0  0  0  0  0
  -29.0334  -17.5018   20.3319 C   0  0  0  0  0  0  0  0  0  0  0  0
  -31.4535  -24.4273   19.7757 C   0  0  0  0  0  0  0  0  0  0  0  0
  -24.7209  -28.3590   19.4732 C   0  0  0  0  0  0  0  0  0  0  0  0
  -30.1575  -24.6433   19.2696 C   0  0  0  0  0  0  0  0  0  0  0  0
  -24.2935  -28.2708   20.8058 C   0  0  0  0  0  0  0  0  0  0  0  0
  -20.3296  -21.9524   19.6842 C   0  0  0  0  0  0  0  0  0  0  0  0
  -26.2340  -13.1258   20.6289 C   0  0  0  0  0  0  0  0  0  0  0  0
  -22.0111  -27.9363   20.0385 C   0  0  0  0  0  0  0  0  0  0  0  0
  -24.3844  -11.7324   20.2293 C   0  0  0  0  0  0  0  0  0  0  0  0
  -21.6834  -11.4636   19.5849 C   0  0  0  0  0  0  0  0  0  0  0  0
  -24.0069  -11.0274   19.0864 C   0  0  0  0  0  0  0  0  0  0  0  0
  -27.8164  -17.0419   20.8695 C   0  0  0  0  0  0  0  0  0  0  0  0
  -20.1563  -24.1486   20.5804 C   0  0  0  0  0  0  0  0  0  0  0  0
  -22.2289  -23.3501   19.9932 C   0  0  0  0  0  0  0  0  0  0  0  0
  -29.0827  -18.8295   20.6801 C   0  0  0  0  0  0  0  0  0  0  0  0
  -30.0303  -16.7923   19.5846 C   0  0  0  0  0  0  0  0  0  0  0  0
  -27.2879  -26.7036   20.3529 C   0  0  0  0  0  0  0  0  0  0  0  0
  -27.6138  -29.1019   22.5125 C   0  0  0  0  0  0  0  0  0  0  0  0
  -26.1383  -31.5888   24.3250 C   0  0  0  0  0  0  0  0  0  0  0  0
  -24.8526  -22.8661   21.9700 C   0  0  0  0  0  0  0  0  0  0  0  0
  -31.7226  -24.3428   21.2573 C   0  0  0  0  0  0  0  0  0  0  0  0
  -26.1677  -28.6170   19.1529 C   0  0  0  0  0  0  0  0  0  0  0  0
  -25.2561  -28.3959   21.9573 C   0  0  0  0  0  0  0  0  0  0  0  0
  -30.6054  -24.9329   22.1139 C   0  0  0  0  0  0  0  0  0  0  0  0
  -19.4053  -19.0841   17.2962 C   0  0  0  0  0  0  0  0  0  0  0  0
  -27.5715  -21.8767   24.0450 C   0  0  0  0  0  0  0  0  0  0  0  0
  -19.9643  -20.4294   17.7537 C   0  0  0  0  0  0  0  0  0  0  0  0
  -29.2451  -24.4407   21.6301 C   0  0  0  0  0  0  0  0  0  0  0  0
  -19.9530  -17.9316   18.1341 C   0  0  0  0  0  0  0  0  0  0  0  0
  -28.0524  -20.5669   23.4179 C   0  0  0  0  0  0  0  0  0  0  0  0
  -20.2679  -19.4990   20.0933 C   0  0  0  0  0  0  0  0  0  0  0  0
  -26.0531  -22.0172   23.9637 C   0  0  0  0  0  0  0  0  0  0  0  0
  -25.9693  -20.5532   21.9829 C   0  0  0  0  0  0  0  0  0  0  0  0
  -19.7118  -20.6653   19.2537 C   0  0  1  0  0  0  0  0  0  0  0  0
  -28.9787  -24.8857   20.1870 C   0  0  1  0  0  0  0  0  0  0  0  0
  -27.1125  -28.1937   20.2735 C   0  0  1  0  0  0  0  0  0  0  0  0
  -19.6999  -18.1481   19.6319 C   0  0  2  0  0  0  0  0  0  0  0  0
  -27.4991  -20.3921   21.9908 C   0  0  2  0  0  0  0  0  0  0  0  0
  -20.2979  -17.0048   20.4500 C   0  0  0  0  0  0  0  0  0  0  0  0
  -26.6545  -33.3540   26.0324 C   0  0  0  0  0  0  0  0  0  0  0  0
  -27.7427  -26.9613   24.6831 C   0  0  0  0  0  0  0  0  0  0  0  0
  -27.3008  -28.7512   26.3770 C   0  0  0  0  0  0  0  0  0  0  0  0
  -29.3631  -28.8435   24.9766 C   0  0  0  0  0  0  0  0  0  0  0  0
  -25.2947  -33.7627   22.5025 C   0  0  0  0  0  0  0  0  0  0  0  0
  -19.3255  -25.2763   21.1387 C   0  0  0  0  0  0  0  0  0  0  0  0
  -23.6994  -23.5829   19.8926 C   0  0  0  0  0  0  0  0  0  0  0  0
  -18.8180  -26.2525   20.0753 C   0  0  0  0  0  0  0  0  0  0  0  0
  -19.9368  -26.9954   19.3544 C   0  0  0  0  0  0  0  0  0  1  0  0
  -27.1230  -29.3483   23.9187 C   0  0  1  0  0  0  0  0  0  0  0  0
  -26.5284  -33.0385   24.5501 C   0  0  2  0  0  0  0  0  0  0  0  0
  -27.8643  -28.4717   24.9673 C   0  0  0  0  0  0  0  0  0  0  0  0
  -27.1412  -17.9996   21.5107 N   0  0  0  0  0  0  0  0  0  0  0  0
  -21.4880  -24.3644   20.4931 N   0  0  0  0  0  0  0  0  0  0  0  0
  -27.9369  -19.0745   21.3782 N   0  0  0  0  0  0  0  0  0  0  0  0
  -26.6612  -28.6414   21.5926 N   0  0  0  0  0  0  0  0  0  0  0  0
  -25.5930  -21.8424   22.5839 N   0  0  0  0  0  0  0  0  0  0  0  0
  -29.9939  -19.7996   20.4543 N   0  0  0  0  0  0  0  0  0  0  0  0
  -29.8215  -15.4329   19.3148 N   0  0  0  0  0  0  0  0  0  0  0  0
  -28.5873  -26.2785   20.1517 N   0  0  0  0  0  0  0  0  0  0  0  0
  -27.2438  -30.7841   24.1475 N   0  0  0  0  0  0  0  0  0  0  0  0
  -24.4611  -22.6222   20.6593 N   0  0  0  0  0  0  0  0  0  0  0  0
  -25.5046  -33.9477   23.9615 N   0  3  0  0  0  0  0  0  0  0  0  0
  -31.0830  -17.3434   19.1824 O   0  0  0  0  0  0  0  0  0  0  0  0
  -26.3166  -25.9922   20.5814 O   0  0  0  0  0  0  0  0  0  0  0  0
  -28.7971  -29.3171   22.2386 O   0  0  0  0  0  0  0  0  0  0  0  0
  -24.9699  -31.2077   24.3120 O   0  0  0  0  0  0  0  0  0  0  0  0
  -24.5667  -23.9216   22.5454 O   0  0  0  0  0  0  0  0  0  0  0  0
  -25.7247  -11.8660   20.5510 O   0  0  0  0  0  0  0  0  0  0  0  0
  -20.6956  -27.7264   20.3167 O   0  0  0  0  0  0  0  0  0  1  0  0
  -20.3865  -11.3334   19.2765 F   0  0  0  0  0  0  0  0  0  0  0  0
  -24.9370  -10.4760   18.2948 F   0  0  0  0  0  0  0  0  0  0  0  0
  1  2  1  0  0  0  0
  1  5  2  0  0  0  0
  2  6  2  0  0  0  0
  3  8  2  0  0  0  0
  3 17  1  0  0  0  0
  4  9  1  0  0  0  0
  4 17  2  0  0  0  0
  5 19  1  0  0  0  0
  6 21  1  0  0  0  0
  7 10  2  0  0  0  0
  7 20  1  0  0  0  0
  8 24  1  0  0  0  0
  9 24  2  0  0  0  0
 10 25  1  0  0  0  0
 11 12  2  0  0  0  0
 11 26  1  0  0  0  0
 12 27  1  0  0  0  0
 13 22  1  0  0  0  0
 13 25  2  0  0  0  0
 14 23  2  0  0  0  0
 14 30  1  0  0  0  0
 15 23  1  0  0  0  0
 15 31  2  0  0  0  0
 16 27  2  0  0  0  0
 16 28  1  0  0  0  0
 17 29  1  0  0  0  0
 18 29  1  0  0  0  0
 18 32  2  0  0  0  0
 18 33  1  0  0  0  0
 19 21  2  0  0  0  0
 19 38  1  0  0  0  0
 20 22  2  0  0  0  0
 20 39  1  0  0  0  0
 21 52  1  0  0  0  0
 22 40  1  0  0  0  0
 23 51  1  0  0  0  0
 24 85  1  0  0  0  0
 25 86  1  0  0  0  0
 26 28  2  0  0  0  0
 26 85  1  0  0  0  0
 27 87  1  0  0  0  0
 28 88  1  0  0  0  0
 29 69  2  0  0  0  0
 30 62  1  0  0  0  0
 30 70  2  0  0  0  0
 31 63  1  0  0  0  0
 31 70  1  0  0  0  0
 32 71  1  0  0  0  0
 32 74  1  0  0  0  0
 33 75  1  0  0  0  0
 33 80  2  0  0  0  0
 34 53  1  0  0  0  0
 34 76  1  0  0  0  0
 34 81  2  0  0  0  0
 35 66  1  0  0  0  0
 35 72  1  0  0  0  0
 35 82  2  0  0  0  0
 36 67  1  0  0  0  0
 36 77  1  0  0  0  0
 36 83  2  0  0  0  0
 37 73  1  0  0  0  0
 37 78  1  0  0  0  0
 37 84  2  0  0  0  0
 38 41  1  0  0  0  0
 39 53  1  0  0  0  0
 40 72  1  0  0  0  0
 41 45  1  0  0  0  0
 42 44  1  0  0  0  0
 42 46  1  0  0  0  0
 43 47  1  0  0  0  0
 43 49  1  0  0  0  0
 44 51  1  0  0  0  0
 45 52  1  0  0  0  0
 46 54  1  0  0  0  0
 47 55  1  0  0  0  0
 48 51  1  0  0  0  0
 48 54  1  0  0  0  0
 49 73  1  0  0  0  0
 50 55  1  0  0  0  0
 50 73  1  0  0  0  0
 52 76  1  0  0  0  0
 53 72  1  0  0  0  0
 54 56  1  0  0  0  0
 55 71  1  0  0  0  0
 57 67  1  0  0  0  0
 58 68  1  0  0  0  0
 59 68  1  0  0  0  0
 60 68  1  0  0  0  0
 61 79  1  0  0  0  0
 62 64  1  0  0  0  0
 63 78  1  0  0  0  0
 64 65  1  0  0  0  0
 65 86  1  0  0  0  0
 66 68  1  0  0  0  0
 66 77  1  0  0  0  0
 67 79  1  0  0  0  0
 69 71  1  0  0  0  0
M  CHG  1  79   1
M  ISO  4  37 100  65 101  78 100  86 101
M  END
> <Batch ID>
0124

> <Smiles>
CNC(C)C(=O)NC(C(=O)N1Cc2cc([101O:1][101CH2:1]CCc3cc(C4CCCC(C)C4)cc(C[100NH:0][100C:0](=O)N4CCCC(n5nc(-c6ccc(Oc7ccc(F)cc7F)cc6)c(C(N)=O)c5N)C4)n3)ccc2CC1C(=O)NC1CCCc2ccccc21)C(C)(C)C

> <Shape>
0.222

> <Color>
0.062

> <Negative vol penalty>
0.000

$$$$

  -OEChem-04052320333D

 80 88  0     1  0  0  0  0  0999 V2000
  -16.7387  -29.9005   23.3161 C   0  0  0  0  0  0  0  0  0  0  0  0
  -17.6514  -29.8770   22.2663 C   0  0  0  0  0  0  0  0  0  0  0  0
  -26.3005  -12.7107   21.8458 C   0  0  0  0  0  0  0  0  0  0  0  0
  -25.7185  -13.9614   19.8624 C   0  0  0  0  0  0  0  0  0  0  0  0
  -17.1659  -29.6320   24.6158 C   0  0  0  0  0  0  0  0  0  0  0  0
  -18.9921  -29.5861   22.5160 C   0  0  0  0  0  0  0  0  0  0  0  0
  -24.6725  -26.4242   19.5075 C   0  0  0  0  0  0  0  0  0  0  0  0
  -25.1024  -12.0028   21.7510 C   0  0  0  0  0  0  0  0  0  0  0  0
  -24.5203  -13.2535   19.7676 C   0  0  0  0  0  0  0  0  0  0  0  0
  -26.0099  -26.6755   19.2038 C   0  0  0  0  0  0  0  0  0  0  0  0
  -23.8679   -9.4262   19.9427 C   0  0  0  0  0  0  0  0  0  0  0  0
  -23.9163   -8.0433   20.1184 C   0  0  0  0  0  0  0  0  0  0  0  0
  -26.6187  -26.1497   21.4781 C   0  0  0  0  0  0  0  0  0  0  0  0
  -22.4109   -8.2294   21.9988 C   0  0  0  0  0  0  0  0  0  0  0  0
  -26.6086  -13.6900   20.9015 C   0  0  0  0  0  0  0  0  0  0  0  0
  -29.0832  -14.0811   20.4208 C   0  0  0  0  0  0  0  0  0  0  0  0
  -18.5107  -29.3281   24.8801 C   0  0  0  0  0  0  0  0  0  0  0  0
  -24.2963  -26.0437   20.8036 C   0  0  0  0  0  0  0  0  0  0  0  0
  -19.4379  -29.3146   23.8206 C   0  0  0  0  0  0  0  0  0  0  0  0
  -25.2763  -25.8917   21.7949 C   0  0  0  0  0  0  0  0  0  0  0  0
  -24.2123  -12.2742   20.7119 C   0  0  0  0  0  0  0  0  0  0  0  0
  -26.9828  -26.5410   20.1899 C   0  0  0  0  0  0  0  0  0  0  0  0
  -23.0909  -10.2107   20.7952 C   0  0  0  0  0  0  0  0  0  0  0  0
  -23.1878   -7.4449   21.1464 C   0  0  0  0  0  0  0  0  0  0  0  0
  -22.3624   -9.6123   21.8232 C   0  0  0  0  0  0  0  0  0  0  0  0
  -27.8458  -14.4220   20.9992 C   0  0  0  0  0  0  0  0  0  0  0  0
  -29.9320  -15.0896   20.8067 C   0  0  0  0  0  0  0  0  0  0  0  0
  -29.4339  -12.9537   19.6075 C   0  0  0  0  0  0  0  0  0  0  0  0
  -22.4359  -27.2941   23.0574 C   0  0  0  0  0  0  0  0  0  0  0  0
  -23.0488  -24.4912   24.5708 C   0  0  0  0  0  0  0  0  0  0  0  0
  -25.1152  -21.8042   24.9673 C   0  0  0  0  0  0  0  0  0  0  0  0
  -29.0309  -20.7875   22.4107 C   0  0  0  0  0  0  0  0  0  0  0  0
  -18.9343  -29.0911   26.3081 C   0  0  0  0  0  0  0  0  0  0  0  0
  -22.8528  -25.7504   21.1082 C   0  0  0  0  0  0  0  0  0  0  0  0
  -24.9269  -25.4660   23.1968 C   0  0  0  0  0  0  0  0  0  0  0  0
  -20.3013  -28.4236   26.4351 C   0  0  0  0  0  0  0  0  0  0  0  0
  -30.6334  -18.2515   24.3282 C   0  0  0  0  0  0  0  0  0  0  0  0
  -29.5522  -21.9327   17.2814 C   0  0  0  0  0  0  0  0  0  0  0  0
  -21.3139  -29.1020   25.5180 C   0  0  0  0  0  0  0  0  0  0  0  0
  -30.2124  -16.9517   23.6403 C   0  0  0  0  0  0  0  0  0  0  0  0
  -30.0781  -21.3453   18.5775 C   0  0  0  0  0  0  0  0  0  0  0  0
  -29.5084  -19.2841   24.3207 C   0  0  0  0  0  0  0  0  0  0  0  0
  -28.5204  -18.2727   22.3021 C   0  0  0  0  0  0  0  0  0  0  0  0
  -29.9409  -23.3899   17.3952 C   0  0  0  0  0  0  0  0  0  0  0  0
  -20.8959  -28.9788   24.0478 C   0  0  1  0  0  0  0  0  0  0  0  0
  -22.5195  -25.8677   22.5923 C   0  0  1  0  0  0  0  0  0  0  0  0
  -29.6406  -17.2206   22.2353 C   0  0  2  0  0  0  0  0  0  0  0  0
  -29.7947  -22.4119   19.6351 C   0  0  2  0  0  0  0  0  0  0  0  0
  -25.3719  -19.6972   26.3060 C   0  0  0  0  0  0  0  0  0  0  0  0
  -23.9579  -26.1331   26.9765 C   0  0  0  0  0  0  0  0  0  0  0  0
  -25.0646  -24.0750   27.8750 C   0  0  0  0  0  0  0  0  0  0  0  0
  -22.5923  -24.1168   27.5456 C   0  0  0  0  0  0  0  0  0  0  0  0
  -25.0000  -20.1118   22.5422 C   0  0  0  0  0  0  0  0  0  0  0  0
  -28.5094  -22.1617   20.4109 C   0  0  0  0  0  0  0  0  0  0  0  0
  -30.1792  -26.1180   18.5799 C   0  0  0  0  0  0  0  0  0  0  0  0
  -30.4467  -24.8529   19.3812 C   0  0  0  0  0  0  0  0  0  0  0  0
  -28.7127  -26.5312   18.5579 C   0  0  0  0  0  0  0  0  0  1  0  0
  -24.1099  -24.0021   25.5268 C   0  0  1  0  0  0  0  0  0  0  0  0
  -24.8302  -20.3143   25.0259 C   0  0  2  0  0  0  0  0  0  0  0  0
  -23.9378  -24.5917   26.9552 C   0  0  0  0  0  0  0  0  0  0  0  0
  -27.8995  -15.5582   21.6993 N   0  0  0  0  0  0  0  0  0  0  0  0
  -29.1808  -15.9400   21.5635 N   0  0  0  0  0  0  0  0  0  0  0  0
  -23.5013  -25.1968   23.4469 N   0  0  0  0  0  0  0  0  0  0  0  0
  -29.0117  -19.4943   22.9587 N   0  0  0  0  0  0  0  0  0  0  0  0
  -31.2402  -15.3230   20.5691 N   0  0  0  0  0  0  0  0  0  0  0  0
  -28.4403  -12.0122   19.3063 N   0  0  0  0  0  0  0  0  0  0  0  0
  -21.1948  -27.6545   23.5466 N   0  0  0  0  0  0  0  0  0  0  0  0
  -24.0677  -22.5448   25.4728 N   0  0  0  0  0  0  0  0  0  0  0  0
  -28.5481  -20.8978   21.1124 N   0  0  0  0  0  0  0  0  0  0  0  0
  -29.6467  -23.7093   18.8429 N   0  3  1  0  0  0  0  0  0  0  0  0
  -25.4596  -19.6206   23.8668 N   0  3  0  0  0  0  0  0  0  0  0  0
  -30.5980  -12.7775   19.1746 O   0  0  0  0  0  0  0  0  0  0  0  0
  -23.4246  -28.0139   22.9796 O   0  0  0  0  0  0  0  0  0  0  0  0
  -21.8628  -24.2496   24.8086 O   0  0  0  0  0  0  0  0  0  0  0  0
  -26.1638  -22.2648   24.5215 O   0  0  0  0  0  0  0  0  0  0  0  0
  -29.4522  -21.7700   23.0304 O   0  0  0  0  0  0  0  0  0  0  0  0
  -23.0432  -11.5834   20.6190 O   0  0  0  0  0  0  0  0  0  0  0  0
  -28.2888  -26.7863   19.8964 O   0  0  0  0  0  0  0  0  0  1  0  0
  -23.2333   -6.1167   21.3140 F   0  0  0  0  0  0  0  0  0  0  0  0
  -21.6133  -10.3607   22.6445 F   0  0  0  0  0  0  0  0  0  0  0  0
  1  2  1  0  0  0  0
  1  5  2  0  0  0  0
  2  6  2  0  0  0  0
  3  8  2  0  0  0  0
  3 15  1  0  0  0  0
  4  9  1  0  0  0  0
  4 15  2  0  0  0  0
  5 17  1  0  0  0  0
  6 19  1  0  0  0  0
  7 10  2  0  0  0  0
  7 18  1  0  0  0  0
  8 21  1  0  0  0  0
  9 21  2  0  0  0  0
 10 22  1  0  0  0  0
 11 12  2  0  0  0  0
 11 23  1  0  0  0  0
 12 24  1  0  0  0  0
 13 20  1  0  0  0  0
 13 22  2  0  0  0  0
 14 24  2  0  0  0  0
 14 25  1  0  0  0  0
 15 26  1  0  0  0  0
 16 26  1  0  0  0  0
 16 27  2  0  0  0  0
 16 28  1  0  0  0  0
 17 19  2  0  0  0  0
 17 33  1  0  0  0  0
 18 20  2  0  0  0  0
 18 34  1  0  0  0  0
 19 45  1  0  0  0  0
 20 35  1  0  0  0  0
 21 77  1  0  0  0  0
 22 78  1  0  0  0  0
 23 25  2  0  0  0  0
 23 77  1  0  0  0  0
 24 79  1  0  0  0  0
 25 80  1  0  0  0  0
 26 61  2  0  0  0  0
 27 62  1  0  0  0  0
 27 65  1  0  0  0  0
 28 66  1  0  0  0  0
 28 72  2  0  0  0  0
 29 46  1  0  0  0  0
 29 67  1  0  0  0  0
 29 73  2  0  0  0  0
 30 58  1  0  0  0  0
 30 63  1  0  0  0  0
 30 74  2  0  0  0  0
 31 59  1  0  0  0  0
 31 68  1  0  0  0  0
 31 75  2  0  0  0  0
 32 64  1  0  0  0  0
 32 69  1  0  0  0  0
 32 76  2  0  0  0  0
 33 36  1  0  0  0  0
 34 46  1  0  0  0  0
 35 63  1  0  0  0  0
 36 39  1  0  0  0  0
 37 40  1  0  0  0  0
 37 42  1  0  0  0  0
 38 41  1  0  0  0  0
 38 44  1  0  0  0  0
 39 45  1  0  0  0  0
 40 47  1  0  0  0  0
 41 48  1  0  0  0  0
 42 64  1  0  0  0  0
 43 47  1  0  0  0  0
 43 64  1  0  0  0  0
 44 70  1  0  0  0  0
 45 67  1  0  0  0  0
 46 63  1  0  0  0  0
 47 62  1  0  0  0  0
 48 54  1  0  0  0  0
 48 70  1  0  0  0  0
 49 59  1  0  0  0  0
 50 60  1  0  0  0  0
 51 60  1  0  0  0  0
 52 60  1  0  0  0  0
 53 71  1  0  0  0  0
 54 69  1  0  0  0  0
 55 56  1  0  0  0  0
 55 57  1  0  0  0  0
 56 70  1  0  0  0  0
 57 78  1  0  0  0  0
 58 60  1  0  0  0  0
 58 68  1  0  0  0  0
 59 71  1  0  0  0  0
 61 62  1  0  0  0  0
M  CHG  2  70   1  71   1
M  ISO  4  32 100  57 101  69 100  78 101
M  END
> <Batch ID>
0124

> <Smiles>
CNC(C)C(=O)NC(C(=O)N1Cc2cc([101O:1][101CH2:1]CCN3CCCC3C[100NH:0][100C:0](=O)N3CCCC(n4nc(-c5ccc(Oc6ccc(F)cc6F)cc5)c(C(N)=O)c4N)C3)ccc2CC1C(=O)NC1CCCc2ccccc21)C(C)(C)C

> <Shape>
0.245

> <Color>
0.085

> <Negative vol penalty>
0.000

$$$$

  -OEChem-04052320333D

 84 93  0     1  0  0  0  0  0999 V2000
  -22.4996  -27.8100   16.8403 C   0  0  0  0  0  0  0  0  0  0  0  0
  -23.1966  -26.6451   16.5357 C   0  0  0  0  0  0  0  0  0  0  0  0
  -24.5561  -11.4975   20.6502 C   0  0  0  0  0  0  0  0  0  0  0  0
  -27.6135  -26.4026   18.4575 C   0  0  0  0  0  0  0  0  0  0  0  0
  -29.2583  -26.0455   20.1907 C   0  0  0  0  0  0  0  0  0  0  0  0
  -21.7035  -27.8659   17.9835 C   0  0  0  0  0  0  0  0  0  0  0  0
  -23.0987  -25.5358   17.3749 C   0  0  0  0  0  0  0  0  0  0  0  0
  -23.1245  -18.3747   17.1883 C   0  0  0  0  0  0  0  0  0  0  0  0
  -27.3024  -27.6455   19.0088 C   0  0  0  0  0  0  0  0  0  0  0  0
  -28.9472  -27.2884   20.7421 C   0  0  0  0  0  0  0  0  0  0  0  0
  -23.7604  -17.2842   17.7800 C   0  0  0  0  0  0  0  0  0  0  0  0
  -25.8220  -30.7575   20.1697 C   0  0  0  0  0  0  0  0  0  0  0  0
  -24.4741  -31.0917   20.3002 C   0  0  0  0  0  0  0  0  0  0  0  0
  -25.8024  -11.6997   20.0074 C   0  0  0  0  0  0  0  0  0  0  0  0
  -22.2924  -17.4695   19.6852 C   0  0  0  0  0  0  0  0  0  0  0  0
  -24.1369  -29.1734   21.7298 C   0  0  0  0  0  0  0  0  0  0  0  0
  -24.2162  -12.6800   21.2695 C   0  0  0  0  0  0  0  0  0  0  0  0
  -28.5915  -25.6026   19.0484 C   0  0  0  0  0  0  0  0  0  0  0  0
  -29.8855  -24.0418   17.5001 C   0  0  0  0  0  0  0  0  0  0  0  0
  -21.5881  -26.7535   18.8320 C   0  0  0  0  0  0  0  0  0  0  0  0
  -22.0732  -19.0288   17.8466 C   0  0  0  0  0  0  0  0  0  0  0  0
  -22.3013  -25.5773   18.5313 C   0  0  0  0  0  0  0  0  0  0  0  0
  -21.6431  -18.5666   19.0986 C   0  0  0  0  0  0  0  0  0  0  0  0
  -27.9692  -28.0884   20.1511 C   0  0  0  0  0  0  0  0  0  0  0  0
  -23.3463  -16.8332   19.0299 C   0  0  0  0  0  0  0  0  0  0  0  0
  -26.3274  -29.6312   20.8192 C   0  0  0  0  0  0  0  0  0  0  0  0
  -23.6315  -30.2997   21.0802 C   0  0  0  0  0  0  0  0  0  0  0  0
  -25.4848  -28.8393   21.5993 C   0  0  0  0  0  0  0  0  0  0  0  0
  -28.9130  -24.3183   18.4797 C   0  0  0  0  0  0  0  0  0  0  0  0
  -26.1861  -12.9995   20.2537 C   0  0  0  0  0  0  0  0  0  0  0  0
  -29.7990  -22.6852   17.3038 C   0  0  0  0  0  0  0  0  0  0  0  0
  -30.7865  -24.9317   16.8278 C   0  0  0  0  0  0  0  0  0  0  0  0
  -21.6028  -21.9730   18.9484 C   0  0  0  0  0  0  0  0  0  0  0  0
  -18.6119  -20.8591   19.5281 C   0  0  0  0  0  0  0  0  0  0  0  0
  -16.5786  -18.1780   20.0975 C   0  0  0  0  0  0  0  0  0  0  0  0
  -29.5278  -17.6109   19.8182 C   0  0  0  0  0  0  0  0  0  0  0  0
  -20.7529  -26.8772   20.0817 C   0  0  0  0  0  0  0  0  0  0  0  0
  -21.3800  -20.1870   17.1830 C   0  0  0  0  0  0  0  0  0  0  0  0
  -20.5059  -19.2213   19.8378 C   0  0  0  0  0  0  0  0  0  0  0  0
  -20.4066  -25.5337   20.7183 C   0  0  0  0  0  0  0  0  0  0  0  0
  -26.3771  -19.3134   18.8622 C   0  0  0  0  0  0  0  0  0  0  0  0
  -21.6451  -24.6469   20.8006 C   0  0  0  0  0  0  0  0  0  0  0  0
  -26.8299  -20.7610   18.6746 C   0  0  0  0  0  0  0  0  0  0  0  0
  -28.3071  -14.2773   20.9979 C   0  0  0  0  0  0  0  0  0  0  0  0
  -27.0507  -14.9977   18.9416 C   0  0  0  0  0  0  0  0  0  0  0  0
  -27.2519  -18.5707   19.8681 C   0  0  0  0  0  0  0  0  0  0  0  0
  -29.4425  -15.2170   20.5988 C   0  0  0  0  0  0  0  0  0  0  0  0
  -28.2123  -15.9265   18.5888 C   0  0  0  0  0  0  0  0  0  0  0  0
  -29.1568  -20.0659   19.3642 C   0  0  0  0  0  0  0  0  0  0  0  0
  -22.2010  -24.3449   19.4037 C   0  0  1  0  0  0  0  0  0  0  0  0
  -20.6596  -21.0984   18.1719 C   0  0  1  0  0  0  0  0  0  0  0  0
  -28.3256  -20.8243   18.3194 C   0  0  2  0  0  0  0  0  0  0  0  0
  -27.4531  -13.7626   19.8004 C   0  0  0  0  0  0  0  0  0  0  0  0
  -28.3005  -12.7791   18.9584 C   0  0  0  0  0  0  0  0  0  0  0  0
  -14.1871  -17.5854   20.5738 C   0  0  0  0  0  0  0  0  0  0  0  0
  -18.9554  -21.7999   22.4103 C   0  0  0  0  0  0  0  0  0  0  0  0
  -17.0002  -20.3673   23.0374 C   0  0  0  0  0  0  0  0  0  0  0  0
  -16.6999  -22.2494   21.4280 C   0  0  0  0  0  0  0  0  0  0  0  0
  -16.3639  -16.5669   17.6242 C   0  0  0  0  0  0  0  0  0  0  0  0
  -25.2238  -14.9487   21.5059 C   0  0  0  0  0  0  0  0  0  0  0  0
  -24.0078  -15.7393   21.0354 C   0  0  0  0  0  0  0  0  0  1  0  0
  -17.9337  -20.1705   20.6877 C   0  0  1  0  0  0  0  0  0  0  0  0
  -15.2422  -17.7817   19.4963 C   0  0  2  0  0  0  0  0  0  0  0  0
  -17.6700  -21.1354   21.8780 C   0  0  0  0  0  0  0  0  0  0  0  0
  -28.2568  -23.2252   18.8778 N   0  0  0  0  0  0  0  0  0  0  0  0
  -25.2145  -13.5857   21.0221 N   0  0  0  0  0  0  0  0  0  0  0  0
  -28.8180  -22.2486   18.1446 N   0  0  0  0  0  0  0  0  0  0  0  0
  -19.8641  -20.3540   19.1504 N   0  0  0  0  0  0  0  0  0  0  0  0
  -28.6719  -18.6889   19.5363 N   0  0  0  0  0  0  0  0  0  0  0  0
  -28.9606  -16.3262   19.7739 N   0  0  0  0  0  0  0  0  0  0  0  0
  -30.4672  -21.8351   16.4955 N   0  0  0  0  0  0  0  0  0  0  0  0
  -30.7428  -26.2952   17.1492 N   0  0  0  0  0  0  0  0  0  0  0  0
  -21.4053  -23.3265   18.7524 N   0  0  0  0  0  0  0  0  0  0  0  0
  -16.7309  -19.5476   20.1457 N   0  0  0  0  0  0  0  0  0  0  0  0
  -15.3752  -16.5096   18.7315 N   0  3  0  0  0  0  0  0  0  0  0  0
  -31.5948  -24.5321   15.9557 O   0  0  0  0  0  0  0  0  0  0  0  0
  -22.4463  -21.4580   19.6729 O   0  0  0  0  0  0  0  0  0  0  0  0
  -18.0481  -21.8056   18.9732 O   0  0  0  0  0  0  0  0  0  0  0  0
  -17.4033  -17.3550   20.4888 O   0  0  0  0  0  0  0  0  0  0  0  0
  -30.7225  -17.7841   20.0886 O   0  0  0  0  0  0  0  0  0  0  0  0
  -27.6660  -29.3012   20.6893 O   0  0  0  0  0  0  0  0  0  0  0  0
  -23.9700  -15.7619   19.6141 O   0  0  0  0  0  0  0  0  0  1  0  0
  -22.3375  -30.6216   21.2067 F   0  0  0  0  0  0  0  0  0  0  0  0
  -25.9649  -27.7568   22.2266 F   0  0  0  0  0  0  0  0  0  0  0  0
  1  2  1  0  0  0  0
  1  6  2  0  0  0  0
  2  7  2  0  0  0  0
  3 14  1  0  0  0  0
  3 17  2  0  0  0  0
  4  9  2  0  0  0  0
  4 18  1  0  0  0  0
  5 10  1  0  0  0  0
  5 18  2  0  0  0  0
  6 20  1  0  0  0  0
  7 22  1  0  0  0  0
  8 11  2  0  0  0  0
  8 21  1  0  0  0  0
  9 24  1  0  0  0  0
 10 24  2  0  0  0  0
 11 25  1  0  0  0  0
 12 13  2  0  0  0  0
 12 26  1  0  0  0  0
 13 27  1  0  0  0  0
 14 30  2  0  0  0  0
 15 23  1  0  0  0  0
 15 25  2  0  0  0  0
 16 27  2  0  0  0  0
 16 28  1  0  0  0  0
 17 66  1  0  0  0  0
 18 29  1  0  0  0  0
 19 29  1  0  0  0  0
 19 31  2  0  0  0  0
 19 32  1  0  0  0  0
 20 22  2  0  0  0  0
 20 37  1  0  0  0  0
 21 23  2  0  0  0  0
 21 38  1  0  0  0  0
 22 50  1  0  0  0  0
 23 39  1  0  0  0  0
 24 81  1  0  0  0  0
 25 82  1  0  0  0  0
 26 28  2  0  0  0  0
 26 81  1  0  0  0  0
 27 83  1  0  0  0  0
 28 84  1  0  0  0  0
 29 65  2  0  0  0  0
 30 53  1  0  0  0  0
 30 66  1  0  0  0  0
 31 67  1  0  0  0  0
 31 71  1  0  0  0  0
 32 72  1  0  0  0  0
 32 76  2  0  0  0  0
 33 51  1  0  0  0  0
 33 73  1  0  0  0  0
 33 77  2  0  0  0  0
 34 62  1  0  0  0  0
 34 68  1  0  0  0  0
 34 78  2  0  0  0  0
 35 63  1  0  0  0  0
 35 74  1  0  0  0  0
 35 79  2  0  0  0  0
 36 69  1  0  0  0  0
 36 70  1  0  0  0  0
 36 80  2  0  0  0  0
 37 40  1  0  0  0  0
 38 51  1  0  0  0  0
 39 68  1  0  0  0  0
 40 42  1  0  0  0  0
 41 43  1  0  0  0  0
 41 46  1  0  0  0  0
 42 50  1  0  0  0  0
 43 52  1  0  0  0  0
 44 47  1  0  0  0  0
 44 53  1  0  0  0  0
 45 48  1  0  0  0  0
 45 53  1  0  0  0  0
 46 69  1  0  0  0  0
 47 70  1  0  0  0  0
 48 70  1  0  0  0  0
 49 52  1  0  0  0  0
 49 69  1  0  0  0  0
 50 73  1  0  0  0  0
 51 68  1  0  0  0  0
 52 67  1  0  0  0  0
 53 54  1  0  0  0  0
 55 63  1  0  0  0  0
 56 64  1  0  0  0  0
 57 64  1  0  0  0  0
 58 64  1  0  0  0  0
 59 75  1  0  0  0  0
 60 61  1  0  0  0  0
 60 66  1  0  0  0  0
 61 82  1  0  0  0  0
 62 64  1  0  0  0  0
 62 74  1  0  0  0  0
 63 75  1  0  0  0  0
 65 67  1  0  0  0  0
M  CHG  1  75   1
M  ISO  4  36 100  61 101  70 100  82 101
M  END
> <Batch ID>
0124

> <Smiles>
CNC(C)C(=O)NC(C(=O)N1Cc2cc([101O:1][101CH2:1]Cn3cccc3C3(C)CC[100N:0]([100C:0](=O)N4CCCC(n5nc(-c6ccc(Oc7ccc(F)cc7F)cc6)c(C(N)=O)c5N)C4)CC3)ccc2CC1C(=O)NC1CCCc2ccccc21)C(C)(C)C

> <Shape>
0.201

> <Color>
0.066

> <Negative vol penalty>
0.000

$$$$

  -OEChem-04052320333D

 89 98  0     1  0  0  0  0  0999 V2000
  -22.3199  -30.2567   25.9529 C   0  0  0  0  0  0  0  0  0  0  0  0
  -23.1554  -29.1688   25.7207 C   0  0  0  0  0  0  0  0  0  0  0  0
  -23.0863   -9.8927   19.9412 C   0  0  0  0  0  0  0  0  0  0  0  0
  -23.8491   -9.9039   22.2336 C   0  0  0  0  0  0  0  0  0  0  0  0
  -21.4026  -30.6500   24.9793 C   0  0  0  0  0  0  0  0  0  0  0  0
  -23.0733  -28.4729   24.5151 C   0  0  0  0  0  0  0  0  0  0  0  0
  -27.6259  -27.4683   22.5379 C   0  0  0  0  0  0  0  0  0  0  0  0
  -22.3500   -8.7349   20.1919 C   0  0  0  0  0  0  0  0  0  0  0  0
  -23.1127   -8.7461   22.4843 C   0  0  0  0  0  0  0  0  0  0  0  0
  -28.3412  -26.4080   23.0928 C   0  0  0  0  0  0  0  0  0  0  0  0
  -19.8904   -7.9279   23.0907 C   0  0  0  0  0  0  0  0  0  0  0  0
  -19.1352   -7.8830   24.2626 C   0  0  0  0  0  0  0  0  0  0  0  0
  -27.6460  -24.9917   21.2680 C   0  0  0  0  0  0  0  0  0  0  0  0
  -20.3896   -5.9532   24.9970 C   0  0  0  0  0  0  0  0  0  0  0  0
  -23.8359  -10.4772   20.9621 C   0  0  0  0  0  0  0  0  0  0  0  0
  -24.1618  -13.0045   20.8422 C   0  0  0  0  0  0  0  0  0  0  0  0
  -21.3159  -29.9646   23.7573 C   0  0  0  0  0  0  0  0  0  0  0  0
  -26.9051  -27.2949   21.3476 C   0  0  0  0  0  0  0  0  0  0  0  0
  -22.1530  -28.8566   23.5248 C   0  0  0  0  0  0  0  0  0  0  0  0
  -26.9244  -26.0521   20.6987 C   0  0  0  0  0  0  0  0  0  0  0  0
  -22.3631   -8.1615   21.4634 C   0  0  0  0  0  0  0  0  0  0  0  0
  -28.3490  -25.1688   22.4595 C   0  0  0  0  0  0  0  0  0  0  0  0
  -20.8951   -6.9855   22.8719 C   0  0  0  0  0  0  0  0  0  0  0  0
  -19.3848   -6.8957   25.2157 C   0  0  0  0  0  0  0  0  0  0  0  0
  -21.1448   -5.9981   23.8251 C   0  0  0  0  0  0  0  0  0  0  0  0
  -24.5972  -11.6729   20.7037 C   0  0  0  0  0  0  0  0  0  0  0  0
  -25.2488  -13.7608   20.4778 C   0  0  0  0  0  0  0  0  0  0  0  0
  -22.8886  -13.5122   21.2629 C   0  0  0  0  0  0  0  0  0  0  0  0
  -23.8394  -27.4954   20.5321 C   0  0  0  0  0  0  0  0  0  0  0  0
  -25.0081  -27.0424   17.5403 C   0  0  0  0  0  0  0  0  0  0  0  0
  -27.5145  -25.8409   15.5601 C   0  0  0  0  0  0  0  0  0  0  0  0
  -30.7263  -14.8141   20.6594 C   0  0  0  0  0  0  0  0  0  0  0  0
  -20.2761  -30.3975   22.7543 C   0  0  0  0  0  0  0  0  0  0  0  0
  -26.1604  -28.4559   20.7477 C   0  0  0  0  0  0  0  0  0  0  0  0
  -26.1835  -25.8197   19.4081 C   0  0  0  0  0  0  0  0  0  0  0  0
  -20.5112  -29.8386   21.3534 C   0  0  0  0  0  0  0  0  0  0  0  0
  -23.9711  -21.8626   26.1091 C   0  0  0  0  0  0  0  0  0  0  0  0
  -24.5129  -21.3594   24.7748 C   0  0  0  0  0  0  0  0  0  0  0  0
  -24.6290  -23.1755   26.5225 C   0  0  0  0  0  0  0  0  0  0  0  0
  -29.6006  -12.4231   18.2735 C   0  0  0  0  0  0  0  0  0  0  0  0
  -20.8282  -28.3479   21.4196 C   0  0  0  0  0  0  0  0  0  0  0  0
  -26.0352  -21.2414   24.7934 C   0  0  0  0  0  0  0  0  0  0  0  0
  -26.1515  -23.0606   26.5438 C   0  0  0  0  0  0  0  0  0  0  0  0
  -28.1655  -12.1203   18.7082 C   0  0  0  0  0  0  0  0  0  0  0  0
  -30.5040  -18.0570   20.8604 C   0  0  0  0  0  0  0  0  0  0  0  0
  -30.5178  -12.6494   19.4733 C   0  0  0  0  0  0  0  0  0  0  0  0
  -28.6133  -13.3682   20.8625 C   0  0  0  0  0  0  0  0  0  0  0  0
  -31.1465  -19.3800   21.2497 C   0  0  0  0  0  0  0  0  0  0  0  0
  -30.9985  -18.7542   23.6715 C   0  0  0  0  0  0  0  0  0  0  0  0
  -22.1110  -28.0917   22.2197 C   0  0  1  0  0  0  0  0  0  0  0  0
  -25.0421  -28.0250   19.8037 C   0  0  1  0  0  0  0  0  0  0  0  0
  -26.7010  -22.5629   25.2002 C   0  0  0  0  0  0  0  0  0  0  0  0
  -30.3517  -17.4130   23.3073 C   0  0  1  0  0  0  0  0  0  0  0  0
  -27.6388  -13.1878   19.6860 C   0  0  2  0  0  0  0  0  0  0  0  0
  -30.7802  -16.9648   21.8967 C   0  0  1  0  0  0  0  0  0  0  0  0
  -30.7105  -16.3705   24.3703 C   0  0  0  0  0  0  0  0  0  0  0  0
  -28.1692  -25.5808   13.1515 C   0  0  0  0  0  0  0  0  0  0  0  0
  -23.0446  -24.7239   17.2594 C   0  0  0  0  0  0  0  0  0  0  0  0
  -24.3681  -23.9333   15.2867 C   0  0  0  0  0  0  0  0  0  0  0  0
  -23.2549  -26.1649   15.2263 C   0  0  0  0  0  0  0  0  0  0  0  0
  -29.9321  -27.5104   15.9165 C   0  0  0  0  0  0  0  0  0  0  0  0
  -28.2191  -22.4051   25.2634 C   0  0  0  0  0  0  0  0  0  0  0  0
  -30.3705  -21.7097   24.1771 C   0  0  0  0  0  0  0  0  0  0  0  0
  -31.1672  -21.1498   23.0026 C   0  0  0  0  0  0  0  0  0  0  0  0
  -28.5458  -22.8175   22.7575 C   0  0  0  0  0  0  0  0  0  1  0  0
  -25.2995  -25.8385   16.6772 C   0  0  1  0  0  0  0  0  0  0  0  0
  -28.2579  -26.4592   14.3898 C   0  0  2  0  0  0  0  0  0  0  0  0
  -28.8499  -21.8937   23.9469 C   0  0  2  0  0  0  0  0  0  0  0  0
  -24.0042  -25.1687   16.1377 C   0  0  0  0  0  0  0  0  0  0  0  0
  -25.8621  -11.5851   20.2838 N   0  0  0  0  0  0  0  0  0  0  0  0
  -26.2308  -12.8710   20.1553 N   0  0  0  0  0  0  0  0  0  0  0  0
  -25.4650  -26.9841   18.8645 N   0  0  0  0  0  0  0  0  0  0  0  0
  -29.9620  -13.6742   20.3602 N   0  0  0  0  0  0  0  0  0  0  0  0
  -25.4507  -15.0936   20.4048 N   0  0  0  0  0  0  0  0  0  0  0  0
  -21.8828  -12.5967   21.6012 N   0  0  0  0  0  0  0  0  0  0  0  0
  -23.2764  -28.3951   21.4170 N   0  0  0  0  0  0  0  0  0  0  0  0
  -26.2146  -26.2943   15.6364 N   0  0  0  0  0  0  0  0  0  0  0  0
  -30.1224  -15.7390   21.5024 N   0  0  0  0  0  0  0  0  0  0  0  0
  -30.6729  -19.8055   22.6259 N   0  3  1  0  0  0  0  0  0  0  0  0
  -29.6964  -26.6469   14.7308 N   0  3  0  0  0  0  0  0  0  0  0  0
  -22.6448  -14.7413   21.3208 O   0  0  0  0  0  0  0  0  0  0  0  0
  -23.4501  -26.3555   20.3069 O   0  0  0  0  0  0  0  0  0  0  0  0
  -24.4039  -28.0022   17.0552 O   0  0  0  0  0  0  0  0  0  0  0  0
  -28.0339  -25.0334   16.3274 O   0  0  0  0  0  0  0  0  0  0  0  0
  -31.8605  -14.9968   20.2044 O   0  0  0  0  0  0  0  0  0  0  0  0
  -21.6446   -7.0319   21.7084 O   0  0  0  0  0  0  0  0  0  0  0  0
  -29.0458  -24.1320   22.9993 O   0  0  0  0  0  0  0  0  0  1  0  0
  -18.6605   -6.8536   26.3417 F   0  0  0  0  0  0  0  0  0  0  0  0
  -22.1095   -5.0907   23.6210 F   0  0  0  0  0  0  0  0  0  0  0  0
  1  2  1  0  0  0  0
  1  5  2  0  0  0  0
  2  6  2  0  0  0  0
  3  8  2  0  0  0  0
  3 15  1  0  0  0  0
  4  9  1  0  0  0  0
  4 15  2  0  0  0  0
  5 17  1  0  0  0  0
  6 19  1  0  0  0  0
  7 10  2  0  0  0  0
  7 18  1  0  0  0  0
  8 21  1  0  0  0  0
  9 21  2  0  0  0  0
 10 22  1  0  0  0  0
 11 12  2  0  0  0  0
 11 23  1  0  0  0  0
 12 24  1  0  0  0  0
 13 20  1  0  0  0  0
 13 22  2  0  0  0  0
 14 24  2  0  0  0  0
 14 25  1  0  0  0  0
 15 26  1  0  0  0  0
 16 26  1  0  0  0  0
 16 27  2  0  0  0  0
 16 28  1  0  0  0  0
 17 19  2  0  0  0  0
 17 33  1  0  0  0  0
 18 20  2  0  0  0  0
 18 34  1  0  0  0  0
 19 50  1  0  0  0  0
 20 35  1  0  0  0  0
 21 86  1  0  0  0  0
 22 87  1  0  0  0  0
 23 25  2  0  0  0  0
 23 86  1  0  0  0  0
 24 88  1  0  0  0  0
 25 89  1  0  0  0  0
 26 70  2  0  0  0  0
 27 71  1  0  0  0  0
 27 74  1  0  0  0  0
 28 75  1  0  0  0  0
 28 81  2  0  0  0  0
 29 51  1  0  0  0  0
 29 76  1  0  0  0  0
 29 82  2  0  0  0  0
 30 66  1  0  0  0  0
 30 72  1  0  0  0  0
 30 83  2  0  0  0  0
 31 67  1  0  0  0  0
 31 77  1  0  0  0  0
 31 84  2  0  0  0  0
 32 73  1  0  0  0  0
 32 78  1  0  0  0  0
 32 85  2  0  0  0  0
 33 36  1  0  0  0  0
 34 51  1  0  0  0  0
 35 72  1  0  0  0  0
 36 41  1  0  0  0  0
 37 38  1  0  0  0  0
 37 39  1  0  0  0  0
 38 42  1  0  0  0  0
 39 43  1  0  0  0  0
 40 44  1  0  0  0  0
 40 46  1  0  0  0  0
 41 50  1  0  0  0  0
 42 52  1  0  0  0  0
 43 52  1  0  0  0  0
 44 54  1  0  0  0  0
 45 48  1  0  0  0  0
 45 55  1  0  0  0  0
 46 73  1  0  0  0  0
 47 54  1  0  0  0  0
 47 73  1  0  0  0  0
 48 79  1  0  0  0  0
 49 53  1  0  0  0  0
 49 79  1  0  0  0  0
 50 76  1  0  0  0  0
 51 72  1  0  0  0  0
 52 62  1  0  0  0  0
 53 55  1  0  0  0  0
 53 56  1  0  0  0  0
 54 71  1  0  0  0  0
 55 78  1  0  0  0  0
 57 67  1  0  0  0  0
 58 69  1  0  0  0  0
 59 69  1  0  0  0  0
 60 69  1  0  0  0  0
 61 80  1  0  0  0  0
 62 68  1  0  0  0  0
 63 64  1  0  0  0  0
 63 68  1  0  0  0  0
 64 79  1  0  0  0  0
 65 68  1  0  0  0  0
 65 87  1  0  0  0  0
 66 69  1  0  0  0  0
 66 77  1  0  0  0  0
 67 80  1  0  0  0  0
 70 71  1  0  0  0  0
M  CHG  2  79   1  80   1
M  ISO  4  32 100  65 101  78 100  87 101
M  END
> <Batch ID>
0124

> <Smiles>
CNC(C)C(=O)NC(C(=O)N1Cc2cc([101O:1][101CH2:1]C(CCN3CCC([100NH:0][100C:0](=O)N4CCCC(n5nc(-c6ccc(Oc7ccc(F)cc7F)cc6)c(C(N)=O)c5N)C4)C(C)C3)CC3CCCCC3)ccc2CC1C(=O)NC1CCCc2ccccc21)C(C)(C)C

> <Shape>
0.253

> <Color>
0.194

> <Negative vol penalty>
0.000

$$$$

  -OEChem-04052320333D

 85 94  0     1  0  0  0  0  0999 V2000
  -27.1415  -24.4400   16.6853 C   0  0  0  0  0  0  0  0  0  0  0  0
  -25.9823  -24.8087   17.3605 C   0  0  0  0  0  0  0  0  0  0  0  0
  -27.9098  -14.6278   19.4995 C   0  0  0  0  0  0  0  0  0  0  0  0
  -25.5799  -15.2508   19.6420 C   0  0  0  0  0  0  0  0  0  0  0  0
  -28.3893  -24.7529   17.2228 C   0  0  0  0  0  0  0  0  0  0  0  0
  -26.0704  -25.4897   18.5741 C   0  0  0  0  0  0  0  0  0  0  0  0
  -22.8523  -29.3900   18.8512 C   0  0  0  0  0  0  0  0  0  0  0  0
  -27.5915  -13.3392   19.9281 C   0  0  0  0  0  0  0  0  0  0  0  0
  -25.2615  -13.9622   20.0706 C   0  0  0  0  0  0  0  0  0  0  0  0
  -21.5167  -29.0955   19.1217 C   0  0  0  0  0  0  0  0  0  0  0  0
  -24.8234  -10.9136   18.6797 C   0  0  0  0  0  0  0  0  0  0  0  0
  -23.7167  -10.2941   18.0991 C   0  0  0  0  0  0  0  0  0  0  0  0
  -21.8594  -29.6924   21.4337 C   0  0  0  0  0  0  0  0  0  0  0  0
  -22.3839  -24.0145   21.5535 C   0  0  0  0  0  0  0  0  0  0  0  0
  -22.6775  -10.1137   20.2727 C   0  0  0  0  0  0  0  0  0  0  0  0
  -21.8549  -21.2991   21.5146 C   0  0  0  0  0  0  0  0  0  0  0  0
  -26.9040  -15.5837   19.3565 C   0  0  0  0  0  0  0  0  0  0  0  0
  -27.2763  -17.3837   17.5877 C   0  0  0  0  0  0  0  0  0  0  0  0
  -28.4926  -25.4466   18.4389 C   0  0  0  0  0  0  0  0  0  0  0  0
  -23.7057  -29.8282   19.8740 C   0  0  0  0  0  0  0  0  0  0  0  0
  -27.3208  -25.8110   19.1290 C   0  0  0  0  0  0  0  0  0  0  0  0
  -23.2048  -29.9942   21.1731 C   0  0  0  0  0  0  0  0  0  0  0  0
  -21.1277  -23.5543   21.2125 C   0  0  0  0  0  0  0  0  0  0  0  0
  -20.8549  -22.1853   21.1899 C   0  0  0  0  0  0  0  0  0  0  0  0
  -26.2673  -13.0063   20.2136 C   0  0  0  0  0  0  0  0  0  0  0  0
  -21.0208  -29.2439   20.4136 C   0  0  0  0  0  0  0  0  0  0  0  0
  -24.8572  -11.1331   20.0568 C   0  0  0  0  0  0  0  0  0  0  0  0
  -22.6437   -9.8942   18.8956 C   0  0  0  0  0  0  0  0  0  0  0  0
  -23.7842  -10.7332   20.8533 C   0  0  0  0  0  0  0  0  0  0  0  0
  -27.2323  -16.9152   18.9144 C   0  0  0  0  0  0  0  0  0  0  0  0
  -23.3251  -23.0479   21.8781 C   0  0  0  0  0  0  0  0  0  0  0  0
  -27.6355  -18.7045   17.7017 C   0  0  0  0  0  0  0  0  0  0  0  0
  -27.0155  -16.6874   16.3618 C   0  0  0  0  0  0  0  0  0  0  0  0
  -26.3632  -28.7091   21.2116 C   0  0  0  0  0  0  0  0  0  0  0  0
  -26.3101  -31.5519   22.7730 C   0  0  0  0  0  0  0  0  0  0  0  0
  -24.4816  -34.2018   23.9052 C   0  0  0  0  0  0  0  0  0  0  0  0
  -27.0604  -22.7210   22.1048 C   0  0  0  0  0  0  0  0  0  0  0  0
  -29.8638  -25.7210   19.0038 C   0  0  0  0  0  0  0  0  0  0  0  0
  -25.1372  -30.1673   19.5604 C   0  0  0  0  0  0  0  0  0  0  0  0
  -19.4554  -21.9143   20.7461 C   0  0  0  0  0  0  0  0  0  0  0  0
  -24.0747  -30.4810   22.3022 C   0  0  0  0  0  0  0  0  0  0  0  0
  -29.8677  -26.7743   20.1087 C   0  0  0  0  0  0  0  0  0  0  0  0
  -18.8059  -23.2888   20.9822 C   0  0  0  0  0  0  0  0  0  0  0  0
  -30.0821  -21.6887   20.5299 C   0  0  0  0  0  0  0  0  0  0  0  0
  -28.7502  -26.5014   21.1104 C   0  0  0  0  0  0  0  0  0  0  0  0
  -29.6984  -20.3905   19.8176 C   0  0  0  0  0  0  0  0  0  0  0  0
  -29.3607  -21.8327   21.8682 C   0  0  0  0  0  0  0  0  0  0  0  0
  -27.5093  -20.4069   21.0850 C   0  0  0  0  0  0  0  0  0  0  0  0
  -27.3750  -26.5725   20.4357 C   0  0  1  0  0  0  0  0  0  0  0  0
  -19.9238  -24.3269   20.7731 C   0  0  1  0  0  0  0  0  0  0  0  0
  -26.0458  -30.1144   20.7848 C   0  0  1  0  0  0  0  0  0  0  0  0
  -28.1690  -20.2437   19.7050 C   0  0  2  0  0  0  0  0  0  0  0  0
  -24.7094  -36.3513   25.1799 C   0  0  0  0  0  0  0  0  0  0  0  0
  -26.5123  -29.9811   25.3810 C   0  0  0  0  0  0  0  0  0  0  0  0
  -25.7872  -32.0447   26.5990 C   0  0  0  0  0  0  0  0  0  0  0  0
  -27.9153  -32.0496   25.2976 C   0  0  0  0  0  0  0  0  0  0  0  0
  -23.5441  -35.8033   21.5997 C   0  0  0  0  0  0  0  0  0  0  0  0
  -24.7024  -23.4788   22.2620 C   0  0  0  0  0  0  0  0  0  0  0  0
  -18.2147  -27.5487   21.9102 C   0  0  0  0  0  0  0  0  0  0  0  0
  -18.4586  -26.3216   21.0447 C   0  0  0  0  0  0  0  0  0  0  0  0
  -19.4115  -28.4882   21.9932 C   0  0  0  0  0  0  0  0  0  1  0  0
  -25.7083  -32.0513   24.0643 C   0  0  1  0  0  0  0  0  0  0  0  0
  -24.7103  -35.6992   23.8061 C   0  0  2  0  0  0  0  0  0  0  0  0
  -26.4646  -31.5206   25.3148 C   0  0  0  0  0  0  0  0  0  0  0  0
  -23.0950  -21.7069   21.8689 N   0  0  0  0  0  0  0  0  0  0  0  0
  -27.5393  -17.8613   19.8058 N   0  0  0  0  0  0  0  0  0  0  0  0
  -27.7797  -18.9376   19.0377 N   0  0  0  0  0  0  0  0  0  0  0  0
  -25.4687  -30.7935   21.9467 N   0  0  0  0  0  0  0  0  0  0  0  0
  -27.9140  -21.6849   21.6916 N   0  0  0  0  0  0  0  0  0  0  0  0
  -27.8391  -19.6775   16.7884 N   0  0  0  0  0  0  0  0  0  0  0  0
  -26.6582  -15.3336   16.4253 N   0  0  0  0  0  0  0  0  0  0  0  0
  -26.9809  -27.9506   20.2356 N   0  0  0  0  0  0  0  0  0  0  0  0
  -25.6708  -33.5061   23.9614 N   0  0  0  0  0  0  0  0  0  0  0  0
  -25.7042  -22.5027   21.8954 N   0  0  0  0  0  0  0  0  0  0  0  0
  -19.6191  -25.5502   21.5481 N   0  3  0  0  0  0  0  0  0  0  0  0
  -23.6410  -36.3332   22.9842 N   0  3  0  0  0  0  0  0  0  0  0  0
  -27.1130  -17.2447   15.2422 O   0  0  0  0  0  0  0  0  0  0  0  0
  -26.0707  -28.3407   22.3432 O   0  0  0  0  0  0  0  0  0  0  0  0
  -27.4812  -31.8307   22.5040 O   0  0  0  0  0  0  0  0  0  0  0  0
  -23.3602  -33.6997   23.9340 O   0  0  0  0  0  0  0  0  0  0  0  0
  -27.4765  -23.7657   22.6171 O   0  0  0  0  0  0  0  0  0  0  0  0
  -25.9563  -11.7489   20.6315 O   0  0  0  0  0  0  0  0  0  0  0  0
  -19.7177  -28.9565   20.6805 O   0  0  0  0  0  0  0  0  0  1  0  0
  -21.5804   -9.3007   18.3378 F   0  0  0  0  0  0  0  0  0  0  0  0
  -23.8104  -10.9424   22.1767 F   0  0  0  0  0  0  0  0  0  0  0  0
  1  2  1  0  0  0  0
  1  5  2  0  0  0  0
  2  6  2  0  0  0  0
  3  8  2  0  0  0  0
  3 17  1  0  0  0  0
  4  9  1  0  0  0  0
  4 17  2  0  0  0  0
  5 19  1  0  0  0  0
  6 21  1  0  0  0  0
  7 10  2  0  0  0  0
  7 20  1  0  0  0  0
  8 25  1  0  0  0  0
  9 25  2  0  0  0  0
 10 26  1  0  0  0  0
 11 12  2  0  0  0  0
 11 27  1  0  0  0  0
 12 28  1  0  0  0  0
 13 22  1  0  0  0  0
 13 26  2  0  0  0  0
 14 23  1  0  0  0  0
 14 31  2  0  0  0  0
 15 28  2  0  0  0  0
 15 29  1  0  0  0  0
 16 24  1  0  0  0  0
 16 65  2  0  0  0  0
 17 30  1  0  0  0  0
 18 30  1  0  0  0  0
 18 32  2  0  0  0  0
 18 33  1  0  0  0  0
 19 21  2  0  0  0  0
 19 38  1  0  0  0  0
 20 22  2  0  0  0  0
 20 39  1  0  0  0  0
 21 49  1  0  0  0  0
 22 41  1  0  0  0  0
 23 24  2  0  0  0  0
 23 50  1  0  0  0  0
 24 40  1  0  0  0  0
 25 82  1  0  0  0  0
 26 83  1  0  0  0  0
 27 29  2  0  0  0  0
 27 82  1  0  0  0  0
 28 84  1  0  0  0  0
 29 85  1  0  0  0  0
 30 66  2  0  0  0  0
 31 58  1  0  0  0  0
 31 65  1  0  0  0  0
 32 67  1  0  0  0  0
 32 70  1  0  0  0  0
 33 71  1  0  0  0  0
 33 77  2  0  0  0  0
 34 51  1  0  0  0  0
 34 72  1  0  0  0  0
 34 78  2  0  0  0  0
 35 62  1  0  0  0  0
 35 68  1  0  0  0  0
 35 79  2  0  0  0  0
 36 63  1  0  0  0  0
 36 73  1  0  0  0  0
 36 80  2  0  0  0  0
 37 69  1  0  0  0  0
 37 74  1  0  0  0  0
 37 81  2  0  0  0  0
 38 42  1  0  0  0  0
 39 51  1  0  0  0  0
 40 43  1  0  0  0  0
 41 68  1  0  0  0  0
 42 45  1  0  0  0  0
 43 50  1  0  0  0  0
 44 46  1  0  0  0  0
 44 47  1  0  0  0  0
 45 49  1  0  0  0  0
 46 52  1  0  0  0  0
 47 69  1  0  0  0  0
 48 52  1  0  0  0  0
 48 69  1  0  0  0  0
 49 72  1  0  0  0  0
 50 75  1  0  0  0  0
 51 68  1  0  0  0  0
 52 67  1  0  0  0  0
 53 63  1  0  0  0  0
 54 64  1  0  0  0  0
 55 64  1  0  0  0  0
 56 64  1  0  0  0  0
 57 76  1  0  0  0  0
 58 74  1  0  0  0  0
 59 60  1  0  0  0  0
 59 61  1  0  0  0  0
 60 75  1  0  0  0  0
 61 83  1  0  0  0  0
 62 64  1  0  0  0  0
 62 73  1  0  0  0  0
 63 76  1  0  0  0  0
 66 67  1  0  0  0  0
M  CHG  2  75   1  76   1
M  ISO  4  37 100  61 101  74 100  83 101
M  END
> <Batch ID>
0124

> <Smiles>
CNC(C)C(=O)NC(C(=O)N1Cc2cc([101O:1][101CH2:1]CCNC3CCc4cnc(C[100NH:0][100C:0](=O)N5CCCC(n6nc(-c7ccc(Oc8ccc(F)cc8F)cc7)c(C(N)=O)c6N)C5)cc43)ccc2CC1C(=O)NC1CCCc2ccccc21)C(C)(C)C

> <Shape>
0.310

> <Color>
0.070

> <Negative vol penalty>
0.000

$$$$

  -OEChem-04052320333D

 90101  0     1  0  0  0  0  0999 V2000
  -17.0386  -26.7868   21.7467 C   0  0  0  0  0  0  0  0  0  0  0  0
  -18.2866  -26.2946   21.3783 C   0  0  0  0  0  0  0  0  0  0  0  0
  -24.6927   -9.1489   21.6355 C   0  0  0  0  0  0  0  0  0  0  0  0
  -23.3392  -11.0285   22.3226 C   0  0  0  0  0  0  0  0  0  0  0  0
  -16.8291  -28.1629   21.8267 C   0  0  0  0  0  0  0  0  0  0  0  0
  -19.3256  -27.1783   21.0886 C   0  0  0  0  0  0  0  0  0  0  0  0
  -25.2850  -26.3572   22.2361 C   0  0  0  0  0  0  0  0  0  0  0  0
  -27.4294  -25.7765   16.2104 C   0  0  0  0  0  0  0  0  0  0  0  0
  -26.5547  -24.8160   15.6964 C   0  0  0  0  0  0  0  0  0  0  0  0
  -24.0743   -8.3515   22.5985 C   0  0  0  0  0  0  0  0  0  0  0  0
  -22.7208  -10.2311   23.2856 C   0  0  0  0  0  0  0  0  0  0  0  0
  -26.3446  -25.9330   21.4355 C   0  0  0  0  0  0  0  0  0  0  0  0
  -22.5971   -5.7261   24.6333 C   0  0  0  0  0  0  0  0  0  0  0  0
  -22.1893   -4.4478   24.2522 C   0  0  0  0  0  0  0  0  0  0  0  0
  -27.2753  -21.9192   17.8393 C   0  0  0  0  0  0  0  0  0  0  0  0
  -28.2195  -24.1797   17.8237 C   0  0  0  0  0  0  0  0  0  0  0  0
  -26.9308  -28.2327   21.0032 C   0  0  0  0  0  0  0  0  0  0  0  0
  -20.7431   -5.4099   22.5729 C   0  0  0  0  0  0  0  0  0  0  0  0
  -27.3396  -23.2137   17.3064 C   0  0  0  0  0  0  0  0  0  0  0  0
  -24.3252  -10.4874   21.4976 C   0  0  0  0  0  0  0  0  0  0  0  0
  -24.5562  -11.5057   19.1701 C   0  0  0  0  0  0  0  0  0  0  0  0
  -17.8687  -29.0638   21.5472 C   0  0  0  0  0  0  0  0  0  0  0  0
  -25.0333  -27.7247   22.4177 C   0  0  0  0  0  0  0  0  0  0  0  0
  -19.1294  -28.5678   21.1636 C   0  0  0  0  0  0  0  0  0  0  0  0
  -26.3958  -20.9880   17.3061 C   0  0  0  0  0  0  0  0  0  0  0  0
  -25.8690  -28.6717   21.8086 C   0  0  0  0  0  0  0  0  0  0  0  0
  -28.2630  -25.4583   17.2754 C   0  0  0  0  0  0  0  0  0  0  0  0
  -26.4905  -23.5298   16.2252 C   0  0  0  0  0  0  0  0  0  0  0  0
  -23.0883   -8.8926   23.4235 C   0  0  0  0  0  0  0  0  0  0  0  0
  -27.1660  -26.8707   20.8165 C   0  0  0  0  0  0  0  0  0  0  0  0
  -22.0780   -6.8463   23.9842 C   0  0  0  0  0  0  0  0  0  0  0  0
  -21.2623   -4.2897   23.2220 C   0  0  0  0  0  0  0  0  0  0  0  0
  -21.1510   -6.6882   22.9540 C   0  0  0  0  0  0  0  0  0  0  0  0
  -24.9641  -11.3117   20.5034 C   0  0  0  0  0  0  0  0  0  0  0  0
  -25.6048  -21.3896   16.2488 C   0  0  0  0  0  0  0  0  0  0  0  0
  -25.4883  -12.3688   18.6479 C   0  0  0  0  0  0  0  0  0  0  0  0
  -23.4349  -10.9549   18.4664 C   0  0  0  0  0  0  0  0  0  0  0  0
  -22.6081  -29.6675   21.7483 C   0  0  0  0  0  0  0  0  0  0  0  0
  -24.3892  -31.8224   23.3934 C   0  0  0  0  0  0  0  0  0  0  0  0
  -27.4687  -32.7979   24.4943 C   0  0  0  0  0  0  0  0  0  0  0  0
  -28.6383  -16.9471   19.1110 C   0  0  0  0  0  0  0  0  0  0  0  0
  -17.5813  -30.5434   21.6012 C   0  0  0  0  0  0  0  0  0  0  0  0
  -23.9025  -28.1661   23.3060 C   0  0  0  0  0  0  0  0  0  0  0  0
  -25.6536  -30.1515   21.9881 C   0  0  0  0  0  0  0  0  0  0  0  0
  -18.8393  -31.4071   21.6418 C   0  0  0  0  0  0  0  0  0  0  0  0
  -29.9199  -13.9437   20.4600 C   0  0  0  0  0  0  0  0  0  0  0  0
  -19.8440  -30.9367   20.5949 C   0  0  0  0  0  0  0  0  0  0  0  0
  -25.1278  -19.4902   14.5641 C   0  0  0  0  0  0  0  0  0  0  0  0
  -24.2211  -20.6254   14.2044 C   0  0  0  0  0  0  0  0  0  0  0  0
  -28.7126  -13.0119   20.5179 C   0  0  0  0  0  0  0  0  0  0  0  0
  -25.9934  -19.4743   19.3789 C   0  0  0  0  0  0  0  0  0  0  0  0
  -29.5171  -15.3726   20.7988 C   0  0  0  0  0  0  0  0  0  0  0  0
  -26.4031  -18.0459   19.7117 C   0  0  0  0  0  0  0  0  0  0  0  0
  -27.6489  -18.8088   17.8122 C   0  0  0  0  0  0  0  0  0  0  0  0
  -27.2271  -14.9954   19.9249 C   0  0  0  0  0  0  0  0  0  0  0  0
  -26.3300  -19.5913   17.8834 C   0  0  2  0  0  0  0  0  0  0  0  0
  -20.2883  -29.4942   20.8656 C   0  0  1  0  0  0  0  0  0  0  0  0
  -24.6400  -20.4267   15.6358 C   0  0  0  0  0  0  0  0  0  0  0  0
  -23.4256  -29.5839   23.0063 C   0  0  1  0  0  0  0  0  0  0  0  0
  -27.5857  -13.5284   19.6100 C   0  0  2  0  0  0  0  0  0  0  0  0
  -28.6133  -34.6218   25.7830 C   0  0  0  0  0  0  0  0  0  0  0  0
  -24.1532  -33.6730   20.9790 C   0  0  0  0  0  0  0  0  0  0  0  0
  -26.0479  -35.0176   21.9121 C   0  0  0  0  0  0  0  0  0  0  0  0
  -23.9173  -34.8116   23.1931 C   0  0  0  0  0  0  0  0  0  0  0  0
  -28.4180  -30.9022   26.5593 C   0  0  0  0  0  0  0  0  0  0  0  0
  -29.1983  -26.4794   17.8275 C   0  0  0  0  0  0  0  0  0  0  0  0
  -28.5784  -27.3115   18.9546 C   0  0  0  0  0  0  0  0  0  1  0  0
  -25.4645  -32.8186   23.0324 C   0  0  1  0  0  0  0  0  0  0  0  0
  -27.9526  -33.2542   25.8589 C   0  0  2  0  0  0  0  0  0  0  0  0
  -24.8989  -34.0524   22.2740 C   0  0  0  0  0  0  0  0  0  0  0  0
  -25.6360  -22.6282   15.7057 N   0  0  0  0  0  0  0  0  0  0  0  0
  -26.0693  -11.9965   20.8093 N   0  0  0  0  0  0  0  0  0  0  0  0
  -26.3639  -12.6290   19.6607 N   0  0  0  0  0  0  0  0  0  0  0  0
  -24.5311  -30.5332   22.8610 N   0  0  0  0  0  0  0  0  0  0  0  0
  -28.4241  -15.8461   19.9475 N   0  0  0  0  0  0  0  0  0  0  0  0
  -27.5582  -17.7905   18.8537 N   0  0  0  0  0  0  0  0  0  0  0  0
  -25.6361  -12.9230   17.4259 N   0  0  0  0  0  0  0  0  0  0  0  0
  -22.5769  -10.0851   19.1531 N   0  0  0  0  0  0  0  0  0  0  0  0
  -21.2561  -29.4569   21.9410 N   0  0  0  0  0  0  0  0  0  0  0  0
  -26.1523  -33.1457   24.2767 N   0  0  0  0  0  0  0  0  0  0  0  0
  -28.9416  -32.2843   26.4087 N   0  3  0  0  0  0  0  0  0  0  0  0
  -23.2101  -11.2132   17.2596 O   0  0  0  0  0  0  0  0  0  0  0  0
  -23.1627  -29.9069   20.6821 O   0  0  0  0  0  0  0  0  0  0  0  0
  -23.4615  -32.1732   24.1269 O   0  0  0  0  0  0  0  0  0  0  0  0
  -28.1877  -32.1966   23.6994 O   0  0  0  0  0  0  0  0  0  0  0  0
  -29.7593  -17.1919   18.6449 O   0  0  0  0  0  0  0  0  0  0  0  0
  -22.4845   -8.1147   24.3631 O   0  0  0  0  0  0  0  0  0  0  0  0
  -28.2078  -26.4564   20.0285 O   0  0  0  0  0  0  0  0  0  1  0  0
  -20.8718   -3.0621   22.8551 F   0  0  0  0  0  0  0  0  0  0  0  0
  -20.6496   -7.7606   22.3259 F   0  0  0  0  0  0  0  0  0  0  0  0
  1  2  1  0  0  0  0
  1  5  2  0  0  0  0
  2  6  2  0  0  0  0
  3 10  2  0  0  0  0
  3 20  1  0  0  0  0
  4 11  1  0  0  0  0
  4 20  2  0  0  0  0
  5 22  1  0  0  0  0
  6 24  1  0  0  0  0
  7 12  2  0  0  0  0
  7 23  1  0  0  0  0
  8  9  2  0  0  0  0
  8 27  1  0  0  0  0
  9 28  1  0  0  0  0
 10 29  1  0  0  0  0
 11 29  2  0  0  0  0
 12 30  1  0  0  0  0
 13 14  2  0  0  0  0
 13 31  1  0  0  0  0
 14 32  1  0  0  0  0
 15 19  1  0  0  0  0
 15 25  2  0  0  0  0
 16 19  1  0  0  0  0
 16 27  2  0  0  0  0
 17 26  1  0  0  0  0
 17 30  2  0  0  0  0
 18 32  2  0  0  0  0
 18 33  1  0  0  0  0
 19 28  2  0  0  0  0
 20 34  1  0  0  0  0
 21 34  1  0  0  0  0
 21 36  2  0  0  0  0
 21 37  1  0  0  0  0
 22 24  2  0  0  0  0
 22 42  1  0  0  0  0
 23 26  2  0  0  0  0
 23 43  1  0  0  0  0
 24 57  1  0  0  0  0
 25 35  1  0  0  0  0
 25 56  1  0  0  0  0
 26 44  1  0  0  0  0
 27 66  1  0  0  0  0
 28 71  1  0  0  0  0
 29 87  1  0  0  0  0
 30 88  1  0  0  0  0
 31 33  2  0  0  0  0
 31 87  1  0  0  0  0
 32 89  1  0  0  0  0
 33 90  1  0  0  0  0
 34 72  2  0  0  0  0
 35 58  1  0  0  0  0
 35 71  2  0  0  0  0
 36 73  1  0  0  0  0
 36 77  1  0  0  0  0
 37 78  1  0  0  0  0
 37 82  2  0  0  0  0
 38 59  1  0  0  0  0
 38 79  1  0  0  0  0
 38 83  2  0  0  0  0
 39 68  1  0  0  0  0
 39 74  1  0  0  0  0
 39 84  2  0  0  0  0
 40 69  1  0  0  0  0
 40 80  1  0  0  0  0
 40 85  2  0  0  0  0
 41 75  1  0  0  0  0
 41 76  1  0  0  0  0
 41 86  2  0  0  0  0
 42 45  1  0  0  0  0
 43 59  1  0  0  0  0
 44 74  1  0  0  0  0
 45 47  1  0  0  0  0
 46 50  1  0  0  0  0
 46 52  1  0  0  0  0
 47 57  1  0  0  0  0
 48 49  1  0  0  0  0
 48 58  1  0  0  0  0
 49 58  1  0  0  0  0
 50 60  1  0  0  0  0
 51 53  1  0  0  0  0
 51 56  1  0  0  0  0
 52 75  1  0  0  0  0
 53 76  1  0  0  0  0
 54 56  1  0  0  0  0
 54 76  1  0  0  0  0
 55 60  1  0  0  0  0
 55 75  1  0  0  0  0
 57 79  1  0  0  0  0
 59 74  1  0  0  0  0
 60 73  1  0  0  0  0
 61 69  1  0  0  0  0
 62 70  1  0  0  0  0
 63 70  1  0  0  0  0
 64 70  1  0  0  0  0
 65 81  1  0  0  0  0
 66 67  1  0  0  0  0
 67 88  1  0  0  0  0
 68 70  1  0  0  0  0
 68 80  1  0  0  0  0
 69 81  1  0  0  0  0
 72 73  1  0  0  0  0
M  CHG  1  81   1
M  ISO  4  41 100  67 101  76 100  88 101
M  END
> <Batch ID>
0124

> <Smiles>
CNC(C)C(=O)NC(C(=O)N1Cc2cc([101O:1][101CH2:1]Cc3ccc4nc(C5CC5)c(C5CC[100N:0]([100C:0](=O)N6CCCC(n7nc(-c8ccc(Oc9ccc(F)cc9F)cc8)c(C(N)=O)c7N)C6)C5)cc4c3)ccc2CC1C(=O)NC1CCCc2ccccc21)C(C)(C)C

> <Shape>
0.281

> <Color>
0.106

> <Negative vol penalty>
0.000

$$$$

  -OEChem-04052320333D

 92101  0     1  0  0  0  0  0999 V2000
  -17.5391  -26.9301   20.2563 C   0  0  0  0  0  0  0  0  0  0  0  0
  -18.8533  -26.7449   19.8393 C   0  0  0  0  0  0  0  0  0  0  0  0
  -23.9606   -9.4902   22.5543 C   0  0  0  0  0  0  0  0  0  0  0  0
  -23.7613   -9.5356   20.1470 C   0  0  0  0  0  0  0  0  0  0  0  0
  -17.2174  -28.0017   21.0882 C   0  0  0  0  0  0  0  0  0  0  0  0
  -19.8465  -27.6318   20.2532 C   0  0  0  0  0  0  0  0  0  0  0  0
  -24.0638  -25.2636   21.7536 C   0  0  0  0  0  0  0  0  0  0  0  0
  -22.9628   -8.5177   22.6186 C   0  0  0  0  0  0  0  0  0  0  0  0
  -22.7635   -8.5630   20.2112 C   0  0  0  0  0  0  0  0  0  0  0  0
  -24.9148  -24.7867   20.7576 C   0  0  0  0  0  0  0  0  0  0  0  0
  -22.6996   -5.1826   22.1278 C   0  0  0  0  0  0  0  0  0  0  0  0
  -22.9148   -4.0873   22.9642 C   0  0  0  0  0  0  0  0  0  0  0  0
  -26.3339  -26.7146   21.0554 C   0  0  0  0  0  0  0  0  0  0  0  0
  -20.9375   -4.6635   24.2274 C   0  0  0  0  0  0  0  0  0  0  0  0
  -24.3599   -9.9992   21.3185 C   0  0  0  0  0  0  0  0  0  0  0  0
  -26.7190  -10.8908   21.7022 C   0  0  0  0  0  0  0  0  0  0  0  0
  -18.2088  -28.8967   21.5203 C   0  0  0  0  0  0  0  0  0  0  0  0
  -24.3360  -26.4771   22.4014 C   0  0  0  0  0  0  0  0  0  0  0  0
  -19.5375  -28.7172   21.0906 C   0  0  0  0  0  0  0  0  0  0  0  0
  -25.4861  -27.2034   22.0610 C   0  0  0  0  0  0  0  0  0  0  0  0
  -22.3642   -8.0541   21.4471 C   0  0  0  0  0  0  0  0  0  0  0  0
  -26.0485  -25.5136   20.4063 C   0  0  0  0  0  0  0  0  0  0  0  0
  -21.6034   -6.0184   22.3412 C   0  0  0  0  0  0  0  0  0  0  0  0
  -22.0337   -3.8278   24.0140 C   0  0  0  0  0  0  0  0  0  0  0  0
  -20.7223   -5.7588   23.3909 C   0  0  0  0  0  0  0  0  0  0  0  0
  -25.3902  -11.0042   21.2515 C   0  0  0  0  0  0  0  0  0  0  0  0
  -27.2851  -12.1080   21.4119 C   0  0  0  0  0  0  0  0  0  0  0  0
  -27.3823   -9.7840   22.3274 C   0  0  0  0  0  0  0  0  0  0  0  0
  -22.8392  -29.2698   22.6547 C   0  0  0  0  0  0  0  0  0  0  0  0
  -25.2388  -29.9252   24.7367 C   0  0  0  0  0  0  0  0  0  0  0  0
  -28.7998  -29.3718   24.9095 C   0  0  0  0  0  0  0  0  0  0  0  0
  -26.0066  -16.1642   17.3170 C   0  0  0  0  0  0  0  0  0  0  0  0
  -17.8047  -30.0675   22.3809 C   0  0  0  0  0  0  0  0  0  0  0  0
  -23.4223  -26.9646   23.4923 C   0  0  0  0  0  0  0  0  0  0  0  0
  -25.8341  -28.5018   22.7405 C   0  0  0  0  0  0  0  0  0  0  0  0
  -18.9812  -30.7456   23.0783 C   0  0  0  0  0  0  0  0  0  0  0  0
  -33.3884  -24.0721   15.5815 C   0  0  0  0  0  0  0  0  0  0  0  0
  -26.1620  -16.7309   20.8880 C   0  0  0  0  0  0  0  0  0  0  0  0
  -20.1251  -30.9736   22.0952 C   0  0  0  0  0  0  0  0  0  0  0  0
  -33.6144  -24.1451   17.0933 C   0  0  0  0  0  0  0  0  0  0  0  0
  -26.1073  -15.2999   21.4257 C   0  0  0  0  0  0  0  0  0  0  0  0
  -32.1617  -23.1814   15.3697 C   0  0  0  0  0  0  0  0  0  0  0  0
  -30.1881  -20.3614   15.3336 C   0  0  0  0  0  0  0  0  0  0  0  0
  -30.3370  -20.0112   17.8452 C   0  0  0  0  0  0  0  0  0  0  0  0
  -25.2661  -16.8962   19.6640 C   0  0  0  0  0  0  0  0  0  0  0  0
  -25.4994  -14.5104   19.0919 C   0  0  0  0  0  0  0  0  0  0  0  0
  -29.7628  -21.8015   15.5793 C   0  0  0  0  0  0  0  0  0  0  0  0
  -20.6472  -29.6436   21.5383 C   0  0  1  0  0  0  0  0  0  0  0  0
  -23.5215  -28.4687   23.7272 C   0  0  1  0  0  0  0  0  0  0  0  0
  -32.2792  -23.7385   17.7250 C   0  0  2  0  0  0  0  0  0  0  0  0
  -26.4017  -14.2728   20.3164 C   0  0  2  0  0  0  0  0  0  0  0  0
  -31.8200  -22.6485   16.7549 C   0  0  1  0  0  0  0  0  0  0  0  0
  -29.8825  -19.4344   16.5049 C   0  0  1  0  0  0  0  0  0  0  0  0
  -30.0236  -21.4918   18.0946 C   0  0  2  0  0  0  0  0  0  0  0  0
  -31.3399  -24.9388   17.8560 C   0  0  0  0  0  0  0  0  0  0  0  0
  -28.7377  -20.6928   22.3078 C   0  0  0  0  0  0  0  0  0  0  0  0
  -30.3227  -29.1530   26.8920 C   0  0  0  0  0  0  0  0  0  0  0  0
  -25.6958  -32.9171   24.3505 C   0  0  0  0  0  0  0  0  0  0  0  0
  -28.1010  -32.5556   24.9441 C   0  0  0  0  0  0  0  0  0  0  0  0
  -26.3168  -32.0505   26.6127 C   0  0  0  0  0  0  0  0  0  0  0  0
  -29.8132  -26.7483   23.9880 C   0  0  0  0  0  0  0  0  0  0  0  0
  -29.1389  -21.4344   21.0412 C   0  0  0  0  0  0  0  0  0  0  0  0
  -28.2513  -21.0379   19.8584 C   0  0  0  0  0  0  0  0  0  0  0  0
  -28.3560  -23.2893   18.7466 C   0  0  0  0  0  0  0  0  0  0  0  0
  -26.4786  -17.9341   15.6431 C   0  0  0  0  0  0  0  0  0  0  0  0
  -27.9779  -18.1397   15.5333 C   0  0  0  0  0  0  0  0  0  0  0  0
  -26.9682  -23.6354   19.2739 C   0  0  0  0  0  0  0  0  0  1  0  0
  -26.6207  -30.5220   24.6219 C   0  0  1  0  0  0  0  0  0  0  0  0
  -29.5262  -28.4091   25.8314 C   0  0  2  0  0  0  0  0  0  0  0  0
  -28.5939  -21.7787   18.5471 C   0  0  1  0  0  0  0  0  0  0  0  0
  -26.6717  -31.9970   25.1107 C   0  0  0  0  0  0  0  0  0  0  0  0
  -25.1277  -12.1992   20.7157 N   0  0  0  0  0  0  0  0  0  0  0  0
  -26.2993  -12.8479   20.8280 N   0  0  0  0  0  0  0  0  0  0  0  0
  -24.9063  -28.9398   23.7964 N   0  0  0  0  0  0  0  0  0  0  0  0
  -25.6101  -15.9010   18.6387 N   0  0  0  0  0  0  0  0  0  0  0  0
  -28.5251  -12.6070   21.6017 N   0  0  0  0  0  0  0  0  0  0  0  0
  -28.0308   -8.8465   21.5120 N   0  0  0  0  0  0  0  0  0  0  0  0
  -21.4945  -28.9865   22.5103 N   0  0  0  0  0  0  0  0  0  0  0  0
  -27.5150  -29.6224   25.3426 N   0  0  0  0  0  0  0  0  0  0  0  0
  -26.0798  -17.5066   16.9657 N   0  0  0  0  0  0  0  0  0  0  0  0
  -30.3491  -22.3292   16.8687 N   0  3  2  0  0  0  0  0  0  0  0  0
  -28.4230  -19.1426   16.5371 N   0  3  0  0  0  0  0  0  0  0  0  0
  -30.4657  -27.5544   25.0516 N   0  3  0  0  0  0  0  0  0  0  0  0
  -27.3854   -9.6221   23.5713 O   0  0  0  0  0  0  0  0  0  0  0  0
  -23.4846  -30.0858   22.0071 O   0  0  0  0  0  0  0  0  0  0  0  0
  -24.4848  -30.3137   25.6324 O   0  0  0  0  0  0  0  0  0  0  0  0
  -29.3214  -29.8562   23.9076 O   0  0  0  0  0  0  0  0  0  0  0  0
  -26.2807  -15.2688   16.5105 O   0  0  0  0  0  0  0  0  0  0  0  0
  -21.3907   -7.1049   21.5094 O   0  0  0  0  0  0  0  0  0  0  0  0
  -26.8806  -25.0507   19.4341 O   0  0  0  0  0  0  0  0  0  1  0  0
  -22.2396   -2.7750   24.8162 F   0  0  0  0  0  0  0  0  0  0  0  0
  -19.6668   -6.5575   23.6001 F   0  0  0  0  0  0  0  0  0  0  0  0
  1  2  1  0  0  0  0
  1  5  2  0  0  0  0
  2  6  2  0  0  0  0
  3  8  2  0  0  0  0
  3 15  1  0  0  0  0
  4  9  1  0  0  0  0
  4 15  2  0  0  0  0
  5 17  1  0  0  0  0
  6 19  1  0  0  0  0
  7 10  2  0  0  0  0
  7 18  1  0  0  0  0
  8 21  1  0  0  0  0
  9 21  2  0  0  0  0
 10 22  1  0  0  0  0
 11 12  2  0  0  0  0
 11 23  1  0  0  0  0
 12 24  1  0  0  0  0
 13 20  1  0  0  0  0
 13 22  2  0  0  0  0
 14 24  2  0  0  0  0
 14 25  1  0  0  0  0
 15 26  1  0  0  0  0
 16 26  1  0  0  0  0
 16 27  2  0  0  0  0
 16 28  1  0  0  0  0
 17 19  2  0  0  0  0
 17 33  1  0  0  0  0
 18 20  2  0  0  0  0
 18 34  1  0  0  0  0
 19 48  1  0  0  0  0
 20 35  1  0  0  0  0
 21 89  1  0  0  0  0
 22 90  1  0  0  0  0
 23 25  2  0  0  0  0
 23 89  1  0  0  0  0
 24 91  1  0  0  0  0
 25 92  1  0  0  0  0
 26 72  2  0  0  0  0
 27 73  1  0  0  0  0
 27 76  1  0  0  0  0
 28 77  1  0  0  0  0
 28 84  2  0  0  0  0
 29 49  1  0  0  0  0
 29 78  1  0  0  0  0
 29 85  2  0  0  0  0
 30 68  1  0  0  0  0
 30 74  1  0  0  0  0
 30 86  2  0  0  0  0
 31 69  1  0  0  0  0
 31 79  1  0  0  0  0
 31 87  2  0  0  0  0
 32 75  1  0  0  0  0
 32 80  1  0  0  0  0
 32 88  2  0  0  0  0
 33 36  1  0  0  0  0
 34 49  1  0  0  0  0
 35 74  1  0  0  0  0
 36 39  1  0  0  0  0
 37 40  1  0  0  0  0
 37 42  1  0  0  0  0
 38 41  1  0  0  0  0
 38 45  1  0  0  0  0
 39 48  1  0  0  0  0
 40 50  1  0  0  0  0
 41 51  1  0  0  0  0
 42 52  1  0  0  0  0
 43 47  1  0  0  0  0
 43 53  1  0  0  0  0
 44 53  1  0  0  0  0
 44 54  1  0  0  0  0
 45 75  1  0  0  0  0
 46 51  1  0  0  0  0
 46 75  1  0  0  0  0
 47 81  1  0  0  0  0
 48 78  1  0  0  0  0
 49 74  1  0  0  0  0
 50 52  1  0  0  0  0
 50 55  1  0  0  0  0
 51 73  1  0  0  0  0
 52 81  1  0  0  0  0
 53 82  1  0  0  0  0
 54 70  1  0  0  0  0
 54 81  1  0  0  0  0
 56 62  1  0  0  0  0
 57 69  1  0  0  0  0
 58 71  1  0  0  0  0
 59 71  1  0  0  0  0
 60 71  1  0  0  0  0
 61 83  1  0  0  0  0
 62 63  1  0  0  0  0
 63 70  1  0  0  0  0
 64 67  1  0  0  0  0
 64 70  1  0  0  0  0
 65 66  1  0  0  0  0
 65 80  1  0  0  0  0
 66 82  1  0  0  0  0
 67 90  1  0  0  0  0
 68 71  1  0  0  0  0
 68 79  1  0  0  0  0
 69 83  1  0  0  0  0
 72 73  1  0  0  0  0
M  CHG  3  81   1  82   1  83   1
M  ISO  4  32 100  67 101  80 100  90 101
M  END
> <Batch ID>
0124

> <Smiles>
CCCC(C[101CH2:1][101O:1]c1ccc2c(c1)CN(C(=O)C(NC(=O)C(C)NC)C(C)(C)C)C(C(=O)NC1CCCc3ccccc31)C2)C1CC(NCC[100NH:0][100C:0](=O)N2CCCC(n3nc(-c4ccc(Oc5ccc(F)cc5F)cc4)c(C(N)=O)c3N)C2)CCN1C1CCCC1C

> <Shape>
0.260

> <Color>
0.078

> <Negative vol penalty>
0.000

$$$$

  -OEChem-04052320333D

 90100  0     1  0  0  0  0  0999 V2000
  -26.8311  -38.1890   26.7802 C   0  0  0  0  0  0  0  0  0  0  0  0
  -25.8748  -37.2932   27.2475 C   0  0  0  0  0  0  0  0  0  0  0  0
  -26.7321  -11.4688   20.8961 C   0  0  0  0  0  0  0  0  0  0  0  0
  -25.7564  -13.6175   20.3781 C   0  0  0  0  0  0  0  0  0  0  0  0
  -27.1835  -38.1900   25.4312 C   0  0  0  0  0  0  0  0  0  0  0  0
  -25.2695  -36.3985   26.3658 C   0  0  0  0  0  0  0  0  0  0  0  0
  -25.7028  -29.2858   27.4212 C   0  0  0  0  0  0  0  0  0  0  0  0
  -25.4642  -10.8879   20.8750 C   0  0  0  0  0  0  0  0  0  0  0  0
  -24.4884  -13.0366   20.3569 C   0  0  0  0  0  0  0  0  0  0  0  0
  -25.5619  -27.9203   27.6697 C   0  0  0  0  0  0  0  0  0  0  0  0
  -23.2493   -9.8257   18.5514 C   0  0  0  0  0  0  0  0  0  0  0  0
  -23.1020   -8.6153   17.8741 C   0  0  0  0  0  0  0  0  0  0  0  0
  -24.3545  -27.6557   25.5912 C   0  0  0  0  0  0  0  0  0  0  0  0
  -26.0746  -20.2844   20.9541 C   0  0  0  0  0  0  0  0  0  0  0  0
  -24.7870  -20.9019   22.8894 C   0  0  0  0  0  0  0  0  0  0  0  0
  -22.3740   -7.5585   19.9212 C   0  0  0  0  0  0  0  0  0  0  0  0
  -26.8782  -12.8336   20.6477 C   0  0  0  0  0  0  0  0  0  0  0  0
  -29.2874  -13.1066   19.8544 C   0  0  0  0  0  0  0  0  0  0  0  0
  -26.5891  -37.2883   24.5343 C   0  0  0  0  0  0  0  0  0  0  0  0
  -25.1828  -29.8394   26.2479 C   0  0  0  0  0  0  0  0  0  0  0  0
  -25.6132  -36.3883   25.0032 C   0  0  0  0  0  0  0  0  0  0  0  0
  -24.5034  -29.0206   25.3309 C   0  0  0  0  0  0  0  0  0  0  0  0
  -24.9376  -20.1338   21.7402 C   0  0  0  0  0  0  0  0  0  0  0  0
  -24.3423  -11.6718   20.6054 C   0  0  0  0  0  0  0  0  0  0  0  0
  -24.8892  -27.1074   26.7571 C   0  0  0  0  0  0  0  0  0  0  0  0
  -22.9590   -9.9025   19.9136 C   0  0  0  0  0  0  0  0  0  0  0  0
  -22.6644   -7.4817   18.5590 C   0  0  0  0  0  0  0  0  0  0  0  0
  -22.5213   -8.7689   20.5984 C   0  0  0  0  0  0  0  0  0  0  0  0
  -28.1877  -13.4344   20.6699 C   0  0  0  0  0  0  0  0  0  0  0  0
  -27.0240  -21.2095   21.3574 C   0  0  0  0  0  0  0  0  0  0  0  0
  -25.7941  -21.7992   23.2062 C   0  0  0  0  0  0  0  0  0  0  0  0
  -30.2848  -13.9570   20.2648 C   0  0  0  0  0  0  0  0  0  0  0  0
  -29.3974  -12.1214   18.8185 C   0  0  0  0  0  0  0  0  0  0  0  0
  -24.7041  -32.9107   24.1471 C   0  0  0  0  0  0  0  0  0  0  0  0
  -25.3659  -30.6119   22.2267 C   0  0  0  0  0  0  0  0  0  0  0  0
  -26.5331  -27.9133   20.4969 C   0  0  0  0  0  0  0  0  0  0  0  0
  -30.2316  -19.3217   22.9233 C   0  0  0  0  0  0  0  0  0  0  0  0
  -26.9679  -37.3588   23.0761 C   0  0  0  0  0  0  0  0  0  0  0  0
  -25.2574  -31.3159   25.9683 C   0  0  0  0  0  0  0  0  0  0  0  0
  -23.9303  -29.6658   24.0987 C   0  0  0  0  0  0  0  0  0  0  0  0
  -26.5520  -36.1256   22.2785 C   0  0  0  0  0  0  0  0  0  0  0  0
  -31.8101  -16.3595   24.1108 C   0  0  0  0  0  0  0  0  0  0  0  0
  -23.4678  -18.0969   22.3440 C   0  0  0  0  0  0  0  0  0  0  0  0
  -24.2674  -17.7115   21.1389 C   0  0  0  0  0  0  0  0  0  0  0  0
  -25.1107  -35.7431   22.5997 C   0  0  0  0  0  0  0  0  0  0  0  0
  -31.1599  -15.2444   23.2901 C   0  0  0  0  0  0  0  0  0  0  0  0
  -28.3327  -22.8300   19.9418 C   0  0  0  0  0  0  0  0  0  0  0  0
  -30.8118  -17.4629   24.4544 C   0  0  0  0  0  0  0  0  0  0  0  0
  -29.4460  -16.9176   22.4767 C   0  0  0  0  0  0  0  0  0  0  0  0
  -29.5807  -23.0518   19.1013 C   0  0  0  0  0  0  0  0  0  0  0  0
  -30.8160  -21.3243   20.4264 C   0  0  0  0  0  0  0  0  0  0  0  0
  -23.8848  -19.1532   21.3535 C   0  0  0  0  0  0  0  0  0  0  0  0
  -24.9522  -35.3856   24.0825 C   0  0  1  0  0  0  0  0  0  0  0  0
  -28.2795  -21.4025   20.5217 C   0  0  1  0  0  0  0  0  0  0  0  0
  -25.4305  -31.6390   24.4734 C   0  0  1  0  0  0  0  0  0  0  0  0
  -30.4271  -15.8091   22.0583 C   0  0  2  0  0  0  0  0  0  0  0  0
  -29.5818  -21.0738   21.2901 C   0  0  1  0  0  0  0  0  0  0  0  0
  -27.1305  -27.1694   18.1759 C   0  0  0  0  0  0  0  0  0  0  0  0
  -22.4028  -30.3513   21.5516 C   0  0  0  0  0  0  0  0  0  0  0  0
  -23.0337  -28.7777   19.7093 C   0  0  0  0  0  0  0  0  0  0  0  0
  -23.8385  -31.1384   19.6612 C   0  0  0  0  0  0  0  0  0  0  0  0
  -29.3458  -27.3990   21.2606 C   0  0  0  0  0  0  0  0  0  0  0  0
  -24.5774  -23.4697   26.3600 C   0  0  0  0  0  0  0  0  0  0  0  0
  -24.4809  -22.4608   25.2219 C   0  0  0  0  0  0  0  0  0  0  0  0
  -24.6922  -24.9088   25.8712 C   0  0  0  0  0  0  0  0  0  1  0  0
  -24.8376  -29.5219   21.3288 C   0  0  1  0  0  0  0  0  0  0  0  0
  -27.6443  -27.7775   19.4716 C   0  0  2  0  0  0  0  0  0  0  0  0
  -23.5359  -29.9420   20.5896 C   0  0  0  0  0  0  0  0  0  0  0  0
  -28.4606  -14.4164   21.5332 N   0  0  0  0  0  0  0  0  0  0  0  0
  -26.9127  -21.9735   22.4671 N   0  0  0  0  0  0  0  0  0  0  0  0
  -29.7431  -14.7128   21.2625 N   0  0  0  0  0  0  0  0  0  0  0  0
  -24.8917  -30.6316   23.5440 N   0  0  0  0  0  0  0  0  0  0  0  0
  -30.1526  -17.9562   23.2428 N   0  0  0  0  0  0  0  0  0  0  0  0
  -31.5636  -14.1244   19.8660 N   0  0  0  0  0  0  0  0  0  0  0  0
  -29.0808  -12.4947   17.5052 N   0  0  0  0  0  0  0  0  0  0  0  0
  -25.6300  -22.5579   24.3546 N   0  0  0  0  0  0  0  0  0  0  0  0
  -25.4570  -34.0536   24.3380 N   0  0  0  0  0  0  0  0  0  0  0  0
  -25.9365  -29.1552   20.4420 N   0  0  0  0  0  0  0  0  0  0  0  0
  -29.5846  -19.7045   21.7547 N   0  0  0  0  0  0  0  0  0  0  0  0
  -30.7858  -22.7284   19.9185 N   0  3  0  0  0  0  0  0  0  0  0  0
  -28.7329  -26.9074   19.9998 N   0  3  0  0  0  0  0  0  0  0  0  0
  -29.7497  -10.9406   19.0531 O   0  0  0  0  0  0  0  0  0  0  0  0
  -23.5459  -32.8601   23.7497 O   0  0  0  0  0  0  0  0  0  0  0  0
  -26.1728  -31.4285   21.7735 O   0  0  0  0  0  0  0  0  0  0  0  0
  -26.2227  -27.0069   21.2667 O   0  0  0  0  0  0  0  0  0  0  0  0
  -30.8387  -20.1383   23.6244 O   0  0  0  0  0  0  0  0  0  0  0  0
  -23.1049  -11.1052   20.5844 O   0  0  0  0  0  0  0  0  0  0  0  0
  -24.7592  -25.7744   27.0038 O   0  0  0  0  0  0  0  0  0  1  0  0
  -22.5215   -6.3197   17.9081 F   0  0  0  0  0  0  0  0  0  0  0  0
  -22.2397   -8.8369   21.9068 F   0  0  0  0  0  0  0  0  0  0  0  0
  1  2  1  0  0  0  0
  1  5  2  0  0  0  0
  2  6  2  0  0  0  0
  3  8  2  0  0  0  0
  3 17  1  0  0  0  0
  4  9  1  0  0  0  0
  4 17  2  0  0  0  0
  5 19  1  0  0  0  0
  6 21  1  0  0  0  0
  7 10  2  0  0  0  0
  7 20  1  0  0  0  0
  8 24  1  0  0  0  0
  9 24  2  0  0  0  0
 10 25  1  0  0  0  0
 11 12  2  0  0  0  0
 11 26  1  0  0  0  0
 12 27  1  0  0  0  0
 13 22  1  0  0  0  0
 13 25  2  0  0  0  0
 14 23  1  0  0  0  0
 14 30  2  0  0  0  0
 15 23  2  0  0  0  0
 15 31  1  0  0  0  0
 16 27  2  0  0  0  0
 16 28  1  0  0  0  0
 17 29  1  0  0  0  0
 18 29  1  0  0  0  0
 18 32  2  0  0  0  0
 18 33  1  0  0  0  0
 19 21  2  0  0  0  0
 19 38  1  0  0  0  0
 20 22  2  0  0  0  0
 20 39  1  0  0  0  0
 21 53  1  0  0  0  0
 22 40  1  0  0  0  0
 23 52  1  0  0  0  0
 24 87  1  0  0  0  0
 25 88  1  0  0  0  0
 26 28  2  0  0  0  0
 26 87  1  0  0  0  0
 27 89  1  0  0  0  0
 28 90  1  0  0  0  0
 29 69  2  0  0  0  0
 30 54  1  0  0  0  0
 30 70  1  0  0  0  0
 31 70  2  0  0  0  0
 31 76  1  0  0  0  0
 32 71  1  0  0  0  0
 32 74  1  0  0  0  0
 33 75  1  0  0  0  0
 33 82  2  0  0  0  0
 34 55  1  0  0  0  0
 34 77  1  0  0  0  0
 34 83  2  0  0  0  0
 35 66  1  0  0  0  0
 35 72  1  0  0  0  0
 35 84  2  0  0  0  0
 36 67  1  0  0  0  0
 36 78  1  0  0  0  0
 36 85  2  0  0  0  0
 37 73  1  0  0  0  0
 37 79  1  0  0  0  0
 37 86  2  0  0  0  0
 38 41  1  0  0  0  0
 39 55  1  0  0  0  0
 40 72  1  0  0  0  0
 41 45  1  0  0  0  0
 42 46  1  0  0  0  0
 42 48  1  0  0  0  0
 43 44  1  0  0  0  0
 43 52  1  0  0  0  0
 44 52  1  0  0  0  0
 45 53  1  0  0  0  0
 46 56  1  0  0  0  0
 47 50  1  0  0  0  0
 47 54  1  0  0  0  0
 48 73  1  0  0  0  0
 49 56  1  0  0  0  0
 49 73  1  0  0  0  0
 50 80  1  0  0  0  0
 51 57  1  0  0  0  0
 51 80  1  0  0  0  0
 53 77  1  0  0  0  0
 54 57  1  0  0  0  0
 55 72  1  0  0  0  0
 56 71  1  0  0  0  0
 57 79  1  0  0  0  0
 58 67  1  0  0  0  0
 59 68  1  0  0  0  0
 60 68  1  0  0  0  0
 61 68  1  0  0  0  0
 62 81  1  0  0  0  0
 63 64  1  0  0  0  0
 63 65  1  0  0  0  0
 64 76  1  0  0  0  0
 65 88  1  0  0  0  0
 66 68  1  0  0  0  0
 66 78  1  0  0  0  0
 67 81  1  0  0  0  0
 69 71  1  0  0  0  0
M  CHG  2  80   1  81   1
M  ISO  4  37 100  65 101  79 100  88 101
M  END
> <Batch ID>
0124

> <Smiles>
CNC(C)C(=O)NC(C(=O)N1Cc2cc([101O:1][101CH2:1]CCNc3cc(C4CC4)cc(C4CCNCC4[100NH:0][100C:0](=O)N4CCCC(n5nc(-c6ccc(Oc7ccc(F)cc7F)cc6)c(C(N)=O)c5N)C4)n3)ccc2CC1C(=O)NC1CCCc2ccccc21)C(C)(C)C

> <Shape>
0.330

> <Color>
0.055

> <Negative vol penalty>
0.000

$$$$

  -OEChem-04052320333D

 84 93  0     1  0  0  0  0  0999 V2000
  -26.4744  -32.4233   27.1337 C   0  0  0  0  0  0  0  0  0  0  0  0
  -27.3175  -31.5094   26.5097 C   0  0  0  0  0  0  0  0  0  0  0  0
  -24.0642   -9.7157   21.7133 C   0  0  0  0  0  0  0  0  0  0  0  0
  -24.6592  -10.9890   23.6784 C   0  0  0  0  0  0  0  0  0  0  0  0
  -25.0976  -32.3548   26.9254 C   0  0  0  0  0  0  0  0  0  0  0  0
  -26.7841  -30.5258   25.6776 C   0  0  0  0  0  0  0  0  0  0  0  0
  -29.3270  -28.2165   20.6075 C   0  0  0  0  0  0  0  0  0  0  0  0
  -30.7564  -18.9777   20.2158 C   0  0  0  0  0  0  0  0  0  0  0  0
  -23.6428   -8.6616   22.5238 C   0  0  0  0  0  0  0  0  0  0  0  0
  -24.2378   -9.9349   24.4890 C   0  0  0  0  0  0  0  0  0  0  0  0
  -30.0528  -27.0500   20.3698 C   0  0  0  0  0  0  0  0  0  0  0  0
  -31.0489  -20.2981   20.5571 C   0  0  0  0  0  0  0  0  0  0  0  0
  -20.9358   -7.8872   24.3960 C   0  0  0  0  0  0  0  0  0  0  0  0
  -19.7196   -7.2781   24.0871 C   0  0  0  0  0  0  0  0  0  0  0  0
  -28.0340  -25.9499   19.6395 C   0  0  0  0  0  0  0  0  0  0  0  0
  -28.6929  -20.7432   20.8544 C   0  0  0  0  0  0  0  0  0  0  0  0
  -20.8552   -5.1682   23.7767 C   0  0  0  0  0  0  0  0  0  0  0  0
  -24.5725  -10.8794   22.2906 C   0  0  0  0  0  0  0  0  0  0  0  0
  -24.2324  -13.0474   20.9899 C   0  0  0  0  0  0  0  0  0  0  0  0
  -24.5478  -31.3758   26.0827 C   0  0  0  0  0  0  0  0  0  0  0  0
  -27.9451  -28.2551   20.3729 C   0  0  0  0  0  0  0  0  0  0  0  0
  -25.3984  -30.4433   25.4588 C   0  0  0  0  0  0  0  0  0  0  0  0
  -27.2934  -27.1188   19.8726 C   0  0  0  0  0  0  0  0  0  0  0  0
  -28.4004  -19.4227   20.5130 C   0  0  0  0  0  0  0  0  0  0  0  0
  -29.4322  -18.5400   20.1937 C   0  0  0  0  0  0  0  0  0  0  0  0
  -23.7296   -8.7712   23.9117 C   0  0  0  0  0  0  0  0  0  0  0  0
  -29.4058  -25.9157   19.8885 C   0  0  0  0  0  0  0  0  0  0  0  0
  -30.0172  -21.1809   20.8765 C   0  0  0  0  0  0  0  0  0  0  0  0
  -22.1117   -7.1369   24.3952 C   0  0  0  0  0  0  0  0  0  0  0  0
  -19.6793   -5.9186   23.7775 C   0  0  0  0  0  0  0  0  0  0  0  0
  -22.0714   -5.7774   24.0856 C   0  0  0  0  0  0  0  0  0  0  0  0
  -25.0085  -11.9683   21.4539 C   0  0  0  0  0  0  0  0  0  0  0  0
  -25.1034  -13.7993   20.2400 C   0  0  0  0  0  0  0  0  0  0  0  0
  -22.8480  -13.3435   21.2167 C   0  0  0  0  0  0  0  0  0  0  0  0
  -25.3756  -28.7383   22.1808 C   0  0  0  0  0  0  0  0  0  0  0  0
  -23.8333  -28.6549   19.3284 C   0  0  0  0  0  0  0  0  0  0  0  0
  -23.8066  -27.6135   16.0785 C   0  0  0  0  0  0  0  0  0  0  0  0
  -30.0705  -16.2041   19.4993 C   0  0  0  0  0  0  0  0  0  0  0  0
  -23.0492  -31.3118   25.9254 C   0  0  0  0  0  0  0  0  0  0  0  0
  -27.1812  -29.5292   20.6090 C   0  0  0  0  0  0  0  0  0  0  0  0
  -25.8150  -27.1147   19.5852 C   0  0  0  0  0  0  0  0  0  0  0  0
  -22.5972  -30.4729   24.7329 C   0  0  0  0  0  0  0  0  0  0  0  0
  -24.9012  -19.1469   19.7186 C   0  0  0  0  0  0  0  0  0  0  0  0
  -29.7830  -12.7687   18.6088 C   0  0  0  0  0  0  0  0  0  0  0  0
  -25.7631  -20.0186   20.6516 C   0  0  0  0  0  0  0  0  0  0  0  0
  -26.2201  -18.6114   19.1289 C   0  0  0  0  0  0  0  0  0  0  0  0
  -23.3526  -29.1482   24.6951 C   0  0  0  0  0  0  0  0  0  0  0  0
  -28.4514  -12.3430   19.2314 C   0  0  0  0  0  0  0  0  0  0  0  0
  -30.5317  -13.7623   19.4954 C   0  0  0  0  0  0  0  0  0  0  0  0
  -28.4231  -14.5149   20.5233 C   0  0  0  0  0  0  0  0  0  0  0  0
  -26.8884  -18.9513   20.4954 C   0  0  0  0  0  0  0  0  0  0  0  0
  -24.8598  -29.3772   24.5295 C   0  0  1  0  0  0  0  0  0  0  0  0
  -25.6882  -29.2999   20.8226 C   0  0  1  0  0  0  0  0  0  0  0  0
  -27.6027  -13.5642   19.6364 C   0  0  2  0  0  0  0  0  0  0  0  0
  -22.3943  -27.6655   14.0048 C   0  0  0  0  0  0  0  0  0  0  0  0
  -22.0149  -26.5118   20.5160 C   0  0  0  0  0  0  0  0  0  0  0  0
  -21.2856  -25.9404   18.1901 C   0  0  0  0  0  0  0  0  0  0  0  0
  -20.8403  -28.2153   19.1115 C   0  0  0  0  0  0  0  0  0  0  0  0
  -25.8824  -29.0796   14.5616 C   0  0  0  0  0  0  0  0  0  0  0  0
  -31.2591  -24.5445   20.4725 C   0  0  0  0  0  0  0  0  0  1  0  0
  -31.4659  -23.0500   20.6245 C   0  0  0  0  0  0  0  0  0  0  0  0
  -23.2038  -27.5729   18.4846 C   0  0  1  0  0  0  0  0  0  0  0  0
  -23.5038  -28.3513   14.7868 C   0  0  2  0  0  0  0  0  0  0  0  0
  -21.8637  -27.0593   19.0827 C   0  0  0  0  0  0  0  0  0  0  0  0
  -26.2750  -12.0259   21.0337 N   0  0  0  0  0  0  0  0  0  0  0  0
  -26.3015  -13.1501   20.2978 N   0  0  0  0  0  0  0  0  0  0  0  0
  -25.1107  -28.3826   19.8381 N   0  0  0  0  0  0  0  0  0  0  0  0
  -29.6670  -14.8944   19.8351 N   0  0  0  0  0  0  0  0  0  0  0  0
  -24.9537  -14.9459   19.5433 N   0  0  0  0  0  0  0  0  0  0  0  0
  -22.0984  -12.4656   22.0115 N   0  0  0  0  0  0  0  0  0  0  0  0
  -29.1525  -17.1961   19.8425 N   0  0  0  0  0  0  0  0  0  0  0  0
  -25.1742  -29.6985   23.1539 N   0  0  0  0  0  0  0  0  0  0  0  0
  -23.0857  -28.1220   17.1382 N   0  0  0  0  0  0  0  0  0  0  0  0
  -24.7190  -28.4090   13.9261 N   0  3  0  0  0  0  0  0  0  0  0  0
  -22.2881  -14.3479   20.7154 O   0  0  0  0  0  0  0  0  0  0  0  0
  -25.3199  -27.5238   22.3342 O   0  0  0  0  0  0  0  0  0  0  0  0
  -23.2173  -29.7060   19.5219 O   0  0  0  0  0  0  0  0  0  0  0  0
  -24.6003  -26.6772   16.1405 O   0  0  0  0  0  0  0  0  0  0  0  0
  -31.1385  -16.4264   18.9232 O   0  0  0  0  0  0  0  0  0  0  0  0
  -23.3183   -7.7429   24.7029 O   0  0  0  0  0  0  0  0  0  0  0  0
  -30.1117  -24.7756   19.6562 O   0  0  0  0  0  0  0  0  0  1  0  0
  -30.3041  -22.4777   21.2127 O   0  0  0  0  0  0  0  0  0  0  0  0
  -18.5111   -5.3334   23.4824 F   0  0  0  0  0  0  0  0  0  0  0  0
  -23.1976   -5.0512   24.0844 F   0  0  0  0  0  0  0  0  0  0  0  0
  1  2  1  0  0  0  0
  1  5  2  0  0  0  0
  2  6  2  0  0  0  0
  3  9  2  0  0  0  0
  3 18  1  0  0  0  0
  4 10  1  0  0  0  0
  4 18  2  0  0  0  0
  5 20  1  0  0  0  0
  6 22  1  0  0  0  0
  7 11  2  0  0  0  0
  7 21  1  0  0  0  0
  8 12  2  0  0  0  0
  8 25  1  0  0  0  0
  9 26  1  0  0  0  0
 10 26  2  0  0  0  0
 11 27  1  0  0  0  0
 12 28  1  0  0  0  0
 13 14  2  0  0  0  0
 13 29  1  0  0  0  0
 14 30  1  0  0  0  0
 15 23  1  0  0  0  0
 15 27  2  0  0  0  0
 16 24  1  0  0  0  0
 16 28  2  0  0  0  0
 17 30  2  0  0  0  0
 17 31  1  0  0  0  0
 18 32  1  0  0  0  0
 19 32  1  0  0  0  0
 19 33  2  0  0  0  0
 19 34  1  0  0  0  0
 20 22  2  0  0  0  0
 20 39  1  0  0  0  0
 21 23  2  0  0  0  0
 21 40  1  0  0  0  0
 22 52  1  0  0  0  0
 23 41  1  0  0  0  0
 24 25  2  0  0  0  0
 24 51  1  0  0  0  0
 25 71  1  0  0  0  0
 26 80  1  0  0  0  0
 27 81  1  0  0  0  0
 28 82  1  0  0  0  0
 29 31  2  0  0  0  0
 29 80  1  0  0  0  0
 30 83  1  0  0  0  0
 31 84  1  0  0  0  0
 32 65  2  0  0  0  0
 33 66  1  0  0  0  0
 33 69  1  0  0  0  0
 34 70  1  0  0  0  0
 34 75  2  0  0  0  0
 35 53  1  0  0  0  0
 35 72  1  0  0  0  0
 35 76  2  0  0  0  0
 36 62  1  0  0  0  0
 36 67  1  0  0  0  0
 36 77  2  0  0  0  0
 37 63  1  0  0  0  0
 37 73  1  0  0  0  0
 37 78  2  0  0  0  0
 38 68  1  0  0  0  0
 38 71  1  0  0  0  0
 38 79  2  0  0  0  0
 39 42  1  0  0  0  0
 40 53  1  0  0  0  0
 41 67  1  0  0  0  0
 42 47  1  0  0  0  0
 43 45  1  0  0  0  0
 43 46  1  0  0  0  0
 44 48  1  0  0  0  0
 44 49  1  0  0  0  0
 45 51  1  0  0  0  0
 46 51  1  0  0  0  0
 47 52  1  0  0  0  0
 48 54  1  0  0  0  0
 49 68  1  0  0  0  0
 50 54  1  0  0  0  0
 50 68  1  0  0  0  0
 52 72  1  0  0  0  0
 53 67  1  0  0  0  0
 54 66  1  0  0  0  0
 55 63  1  0  0  0  0
 56 64  1  0  0  0  0
 57 64  1  0  0  0  0
 58 64  1  0  0  0  0
 59 74  1  0  0  0  0
 60 61  1  0  0  0  0
 60 81  1  0  0  0  0
 61 82  1  0  0  0  0
 62 64  1  0  0  0  0
 62 73  1  0  0  0  0
 63 74  1  0  0  0  0
 65 66  1  0  0  0  0
M  CHG  1  74   1
M  ISO  4  38 100  60 101  71 100  81 101
M  END
> <Batch ID>
0124

> <Smiles>
CNC(C)C(=O)NC(C(=O)N1Cc2cc([101O:1][101CH2:1]COc3ccc([100NH:0][100C:0](=O)N4CCCC(n5nc(-c6ccc(Oc7ccc(F)cc7F)cc6)c(C(N)=O)c5N)C4)c(C4CCC4)c3)ccc2CC1C(=O)NC1CCCc2ccccc21)C(C)(C)C

> <Shape>
0.306

> <Color>
0.120

> <Negative vol penalty>
0.000

$$$$

  -OEChem-04052320333D

 87 96  0     1  0  0  0  0  0999 V2000
  -17.2340  -27.7133   20.2847 C   0  0  0  0  0  0  0  0  0  0  0  0
  -18.5299  -27.4219   19.8711 C   0  0  0  0  0  0  0  0  0  0  0  0
  -23.9809  -12.1583   24.0031 C   0  0  0  0  0  0  0  0  0  0  0  0
  -24.6271  -10.1070   22.9023 C   0  0  0  0  0  0  0  0  0  0  0  0
  -17.0229  -28.4058   21.4763 C   0  0  0  0  0  0  0  0  0  0  0  0
  -19.6157  -27.8239   20.6483 C   0  0  0  0  0  0  0  0  0  0  0  0
  -23.0925  -24.1780   21.1622 C   0  0  0  0  0  0  0  0  0  0  0  0
  -23.5614  -11.4291   25.1157 C   0  0  0  0  0  0  0  0  0  0  0  0
  -24.2077   -9.3778   24.0150 C   0  0  0  0  0  0  0  0  0  0  0  0
  -23.9522  -23.9617   20.0861 C   0  0  0  0  0  0  0  0  0  0  0  0
  -21.2870   -8.2838   25.3203 C   0  0  0  0  0  0  0  0  0  0  0  0
  -20.5248   -7.1377   25.0942 C   0  0  0  0  0  0  0  0  0  0  0  0
  -25.6645  -25.2406   21.2048 C   0  0  0  0  0  0  0  0  0  0  0  0
  -22.2098   -5.8003   26.1939 C   0  0  0  0  0  0  0  0  0  0  0  0
  -24.5137  -11.4972   22.8964 C   0  0  0  0  0  0  0  0  0  0  0  0
  -24.1623  -13.0958   20.9397 C   0  0  0  0  0  0  0  0  0  0  0  0
  -18.1063  -28.8080   22.2733 C   0  0  0  0  0  0  0  0  0  0  0  0
  -23.5094  -24.9377   22.2647 C   0  0  0  0  0  0  0  0  0  0  0  0
  -19.4189  -28.5236   21.8510 C   0  0  0  0  0  0  0  0  0  0  0  0
  -24.8091  -25.4629   22.2947 C   0  0  0  0  0  0  0  0  0  0  0  0
  -23.6748  -10.0389   25.1217 C   0  0  0  0  0  0  0  0  0  0  0  0
  -25.2374  -24.4955   20.1060 C   0  0  0  0  0  0  0  0  0  0  0  0
  -22.5107   -8.1882   25.9830 C   0  0  0  0  0  0  0  0  0  0  0  0
  -20.9862   -5.8960   25.5311 C   0  0  0  0  0  0  0  0  0  0  0  0
  -22.9720   -6.9464   26.4199 C   0  0  0  0  0  0  0  0  0  0  0  0
  -24.9466  -12.2499   21.7465 C   0  0  0  0  0  0  0  0  0  0  0  0
  -25.0336  -13.5683   19.9889 C   0  0  0  0  0  0  0  0  0  0  0  0
  -22.7705  -13.4251   21.0406 C   0  0  0  0  0  0  0  0  0  0  0  0
  -22.5505  -27.6539   23.6087 C   0  0  0  0  0  0  0  0  0  0  0  0
  -24.7597  -26.8700   25.8509 C   0  0  0  0  0  0  0  0  0  0  0  0
  -28.1031  -25.5145   25.8924 C   0  0  0  0  0  0  0  0  0  0  0  0
  -29.9993  -15.6739   18.5558 C   0  0  0  0  0  0  0  0  0  0  0  0
  -17.8303  -29.5956   23.5296 C   0  0  0  0  0  0  0  0  0  0  0  0
  -22.5792  -25.1393   23.4294 C   0  0  0  0  0  0  0  0  0  0  0  0
  -25.3121  -26.2685   23.4637 C   0  0  0  0  0  0  0  0  0  0  0  0
  -19.0205  -29.6578   24.4834 C   0  0  0  0  0  0  0  0  0  0  0  0
  -29.7459  -12.1338   18.8386 C   0  0  0  0  0  0  0  0  0  0  0  0
  -29.0898  -19.1630   15.6489 C   0  0  0  0  0  0  0  0  0  0  0  0
  -20.2977  -29.9978   23.7218 C   0  0  0  0  0  0  0  0  0  0  0  0
  -28.4137  -11.9188   19.5590 C   0  0  0  0  0  0  0  0  0  0  0  0
  -28.8971  -17.8425   16.3827 C   0  0  0  0  0  0  0  0  0  0  0  0
  -30.3706  -24.5692   18.4584 C   0  0  0  0  0  0  0  0  0  0  0  0
  -30.4710  -13.3760   19.3518 C   0  0  0  0  0  0  0  0  0  0  0  0
  -28.4363  -20.3132   16.4114 C   0  0  0  0  0  0  0  0  0  0  0  0
  -28.3393  -14.4001   20.0452 C   0  0  0  0  0  0  0  0  0  0  0  0
  -31.8308  -24.1718   18.3567 C   0  0  0  0  0  0  0  0  0  0  0  0
  -20.6215  -28.9210   22.6792 C   0  0  1  0  0  0  0  0  0  0  0  0
  -22.9329  -26.3610   24.2720 C   0  0  1  0  0  0  0  0  0  0  0  0
  -29.6526  -23.2301   18.5809 C   0  0  2  0  0  0  0  0  0  0  0  0
  -27.5451  -13.1907   19.5229 C   0  0  2  0  0  0  0  0  0  0  0  0
  -29.3791  -17.9637   17.8270 C   0  0  1  0  0  0  0  0  0  0  0  0
  -30.3831  -22.3755   17.5461 C   0  0  2  0  0  0  0  0  0  0  0  0
  -28.7444  -19.1740   18.5418 C   0  0  2  0  0  0  0  0  0  0  0  0
  -29.3043  -24.1886   27.6521 C   0  0  0  0  0  0  0  0  0  0  0  0
  -25.8199  -29.5829   26.7597 C   0  0  0  0  0  0  0  0  0  0  0  0
  -28.0225  -28.4878   27.2263 C   0  0  0  0  0  0  0  0  0  0  0  0
  -25.9855  -27.7704   28.4748 C   0  0  0  0  0  0  0  0  0  0  0  0
  -28.7043  -23.3234   23.9959 C   0  0  0  0  0  0  0  0  0  0  0  0
  -28.5330  -19.9842   20.7376 C   0  0  0  0  0  0  0  0  0  0  0  0
  -28.1573  -23.3377   18.3281 C   0  0  0  0  0  0  0  0  0  0  0  0
  -30.3104  -20.8810   17.7954 C   0  0  0  0  0  0  0  0  0  0  0  0
  -27.4756  -24.2429   19.3428 C   0  0  0  0  0  0  0  0  0  1  0  0
  -26.2333  -27.1383   26.0394 C   0  0  1  0  0  0  0  0  0  0  0  0
  -28.5161  -24.1282   26.3530 C   0  0  2  0  0  0  0  0  0  0  0  0
  -26.5037  -28.2434   27.0991 C   0  0  0  0  0  0  0  0  0  0  0  0
  -26.2184  -12.1865   21.3434 N   0  0  0  0  0  0  0  0  0  0  0  0
  -26.2399  -12.9986   20.2728 N   0  0  0  0  0  0  0  0  0  0  0  0
  -24.3630  -26.4434   24.5756 N   0  0  0  0  0  0  0  0  0  0  0  0
  -29.5931  -14.5470   19.2894 N   0  0  0  0  0  0  0  0  0  0  0  0
  -28.9501  -20.4476   17.7963 N   0  0  1  0  0  0  0  0  0  0  0  0
  -24.8780  -14.4114   18.9461 N   0  0  0  0  0  0  0  0  0  0  0  0
  -22.0216  -12.8514   22.0772 N   0  0  0  0  0  0  0  0  0  0  0  0
  -21.2041  -27.7595   23.3163 N   0  0  0  0  0  0  0  0  0  0  0  0
  -26.8463  -25.8510   26.3488 N   0  0  0  0  0  0  0  0  0  0  0  0
  -29.1055  -16.7377   18.5431 N   0  0  0  0  0  0  0  0  0  0  0  0
  -31.8133  -22.8422   17.6565 N   0  3  0  0  0  0  0  0  0  0  0  0
  -29.3638  -23.4700   25.3190 N   0  3  0  0  0  0  0  0  0  0  0  0
  -22.2039  -14.1922   20.2258 O   0  0  0  0  0  0  0  0  0  0  0  0
  -23.4129  -28.4941   23.3806 O   0  0  0  0  0  0  0  0  0  0  0  0
  -23.9901  -27.0261   26.8021 O   0  0  0  0  0  0  0  0  0  0  0  0
  -28.8250  -26.2290   25.2003 O   0  0  0  0  0  0  0  0  0  0  0  0
  -31.0763  -15.7260   17.9522 O   0  0  0  0  0  0  0  0  0  0  0  0
  -23.2659   -9.3270   26.2073 O   0  0  0  0  0  0  0  0  0  0  0  0
  -26.0783  -24.2864   19.0567 O   0  0  0  0  0  0  0  0  0  1  0  0
  -29.3348  -19.2291   19.8462 O   0  0  0  0  0  0  0  0  0  0  0  0
  -20.2534   -4.7957   25.3154 F   0  0  0  0  0  0  0  0  0  0  0  0
  -24.1462   -6.8484   27.0582 F   0  0  0  0  0  0  0  0  0  0  0  0
  1  2  1  0  0  0  0
  1  5  2  0  0  0  0
  2  6  2  0  0  0  0
  3  8  2  0  0  0  0
  3 15  1  0  0  0  0
  4  9  1  0  0  0  0
  4 15  2  0  0  0  0
  5 17  1  0  0  0  0
  6 19  1  0  0  0  0
  7 10  2  0  0  0  0
  7 18  1  0  0  0  0
  8 21  1  0  0  0  0
  9 21  2  0  0  0  0
 10 22  1  0  0  0  0
 11 12  2  0  0  0  0
 11 23  1  0  0  0  0
 12 24  1  0  0  0  0
 13 20  1  0  0  0  0
 13 22  2  0  0  0  0
 14 24  2  0  0  0  0
 14 25  1  0  0  0  0
 15 26  1  0  0  0  0
 16 26  1  0  0  0  0
 16 27  2  0  0  0  0
 16 28  1  0  0  0  0
 17 19  2  0  0  0  0
 17 33  1  0  0  0  0
 18 20  2  0  0  0  0
 18 34  1  0  0  0  0
 19 47  1  0  0  0  0
 20 35  1  0  0  0  0
 21 83  1  0  0  0  0
 22 84  1  0  0  0  0
 23 25  2  0  0  0  0
 23 83  1  0  0  0  0
 24 86  1  0  0  0  0
 25 87  1  0  0  0  0
 26 66  2  0  0  0  0
 27 67  1  0  0  0  0
 27 71  1  0  0  0  0
 28 72  1  0  0  0  0
 28 78  2  0  0  0  0
 29 48  1  0  0  0  0
 29 73  1  0  0  0  0
 29 79  2  0  0  0  0
 30 63  1  0  0  0  0
 30 68  1  0  0  0  0
 30 80  2  0  0  0  0
 31 64  1  0  0  0  0
 31 74  1  0  0  0  0
 31 81  2  0  0  0  0
 32 69  1  0  0  0  0
 32 75  1  0  0  0  0
 32 82  2  0  0  0  0
 33 36  1  0  0  0  0
 34 48  1  0  0  0  0
 35 68  1  0  0  0  0
 36 39  1  0  0  0  0
 37 40  1  0  0  0  0
 37 43  1  0  0  0  0
 38 41  1  0  0  0  0
 38 44  1  0  0  0  0
 39 47  1  0  0  0  0
 40 50  1  0  0  0  0
 41 51  1  0  0  0  0
 42 46  1  0  0  0  0
 42 49  1  0  0  0  0
 43 69  1  0  0  0  0
 44 70  1  0  0  0  0
 45 50  1  0  0  0  0
 45 69  1  0  0  0  0
 46 76  1  0  0  0  0
 47 73  1  0  0  0  0
 48 68  1  0  0  0  0
 49 52  1  0  0  0  0
 49 60  1  0  0  0  0
 50 67  1  0  0  0  0
 51 53  1  0  0  0  0
 51 75  1  0  0  0  0
 52 61  1  0  0  0  0
 52 76  1  0  0  0  0
 53 70  1  0  0  0  0
 53 85  1  0  0  0  0
 54 64  1  0  0  0  0
 55 65  1  0  0  0  0
 56 65  1  0  0  0  0
 57 65  1  0  0  0  0
 58 77  1  0  0  0  0
 59 85  1  0  0  0  0
 60 62  1  0  0  0  0
 61 70  1  0  0  0  0
 62 84  1  0  0  0  0
 63 65  1  0  0  0  0
 63 74  1  0  0  0  0
 64 77  1  0  0  0  0
 66 67  1  0  0  0  0
M  CHG  2  76   1  77   1
M  ISO  4  32 100  62 101  75 100  84 101
M  END
> <Batch ID>
0124

> <Smiles>
CNC(C)C(=O)NC(C(=O)N1Cc2cc([101O:1][101CH2:1]CC3CCNC3CN3CCCC([100NH:0][100C:0](=O)N4CCCC(n5nc(-c6ccc(Oc7ccc(F)cc7F)cc6)c(C(N)=O)c5N)C4)C3OC)ccc2CC1C(=O)NC1CCCc2ccccc21)C(C)(C)C

> <Shape>
0.208

> <Color>
0.098

> <Negative vol penalty>
0.000

$$$$

  -OEChem-04052320333D

 87 96  0     1  0  0  0  0  0999 V2000
  -19.6959  -34.3287   21.7918 C   0  0  0  0  0  0  0  0  0  0  0  0
  -20.9871  -33.9431   21.4462 C   0  0  0  0  0  0  0  0  0  0  0  0
  -25.5921  -12.8861   19.3592 C   0  0  0  0  0  0  0  0  0  0  0  0
  -24.1361  -14.5329   20.3617 C   0  0  0  0  0  0  0  0  0  0  0  0
  -18.9538  -33.5554   22.6835 C   0  0  0  0  0  0  0  0  0  0  0  0
  -21.5374  -32.7843   21.9930 C   0  0  0  0  0  0  0  0  0  0  0  0
  -25.3851  -28.8876   19.2514 C   0  0  0  0  0  0  0  0  0  0  0  0
  -24.6156  -11.9081   19.5474 C   0  0  0  0  0  0  0  0  0  0  0  0
  -23.1595  -13.5549   20.5499 C   0  0  0  0  0  0  0  0  0  0  0  0
  -26.7709  -28.7442   19.3049 C   0  0  0  0  0  0  0  0  0  0  0  0
  -23.4611   -9.9975   22.0853 C   0  0  0  0  0  0  0  0  0  0  0  0
  -23.8688   -8.7657   22.5971 C   0  0  0  0  0  0  0  0  0  0  0  0
  -26.5228  -27.0319   20.9858 C   0  0  0  0  0  0  0  0  0  0  0  0
  -29.4541  -22.8420   20.1687 C   0  0  0  0  0  0  0  0  0  0  0  0
  -23.0536   -7.6681   20.6052 C   0  0  0  0  0  0  0  0  0  0  0  0
  -25.3524  -14.1985   19.7664 C   0  0  0  0  0  0  0  0  0  0  0  0
  -26.5268  -16.0403   18.4487 C   0  0  0  0  0  0  0  0  0  0  0  0
  -19.4917  -32.3814   23.2340 C   0  0  0  0  0  0  0  0  0  0  0  0
  -24.5569  -28.1106   20.0740 C   0  0  0  0  0  0  0  0  0  0  0  0
  -20.8022  -31.9953   22.8939 C   0  0  0  0  0  0  0  0  0  0  0  0
  -25.1267  -27.1655   20.9391 C   0  0  0  0  0  0  0  0  0  0  0  0
  -30.8446  -24.7733   20.5430 C   0  0  0  0  0  0  0  0  0  0  0  0
  -29.7824  -24.1637   19.8824 C   0  0  0  0  0  0  0  0  0  0  0  0
  -23.3993  -12.2424   20.1427 C   0  0  0  0  0  0  0  0  0  0  0  0
  -27.3401  -27.8183   20.1742 C   0  0  0  0  0  0  0  0  0  0  0  0
  -22.8495  -10.0646   20.8334 C   0  0  0  0  0  0  0  0  0  0  0  0
  -23.6651   -7.6010   21.8571 C   0  0  0  0  0  0  0  0  0  0  0  0
  -22.6458   -8.8999   20.0934 C   0  0  0  0  0  0  0  0  0  0  0  0
  -26.3610  -15.2091   19.5728 C   0  0  0  0  0  0  0  0  0  0  0  0
  -31.5577  -24.0399   21.4807 C   0  0  0  0  0  0  0  0  0  0  0  0
  -27.6163  -16.8185   18.7549 C   0  0  0  0  0  0  0  0  0  0  0  0
  -30.2025  -22.1575   21.1158 C   0  0  0  0  0  0  0  0  0  0  0  0
  -25.7641  -16.1034   17.2363 C   0  0  0  0  0  0  0  0  0  0  0  0
  -22.4700  -28.7371   22.3884 C   0  0  0  0  0  0  0  0  0  0  0  0
  -21.8989  -25.5493   22.2031 C   0  0  0  0  0  0  0  0  0  0  0  0
  -23.0315  -22.4486   21.3372 C   0  0  0  0  0  0  0  0  0  0  0  0
  -30.5038  -19.9681   22.3250 C   0  0  0  0  0  0  0  0  0  0  0  0
  -18.6687  -31.6034   24.2301 C   0  0  0  0  0  0  0  0  0  0  0  0
  -23.0627  -28.2585   19.9851 C   0  0  0  0  0  0  0  0  0  0  0  0
  -24.2806  -26.2928   21.8284 C   0  0  0  0  0  0  0  0  0  0  0  0
  -19.1868  -30.1886   24.4754 C   0  0  0  0  0  0  0  0  0  0  0  0
  -30.9773  -16.4447   22.5213 C   0  0  0  0  0  0  0  0  0  0  0  0
  -20.6972  -30.2027   24.6887 C   0  0  0  0  0  0  0  0  0  0  0  0
  -29.8322  -15.8776   21.6792 C   0  0  0  0  0  0  0  0  0  0  0  0
  -27.6759  -25.2020   16.8861 C   0  0  0  0  0  0  0  0  0  0  0  0
  -30.5463  -17.6843   23.3033 C   0  0  0  0  0  0  0  0  0  0  0  0
  -28.7841  -18.1771   21.6538 C   0  0  0  0  0  0  0  0  0  0  0  0
  -27.4688  -24.3883   15.6250 C   0  0  0  0  0  0  0  0  0  0  0  0
  -29.3867  -23.5489   16.8803 C   0  0  0  0  0  0  0  0  0  0  0  0
  -21.4248  -30.7316   23.4468 C   0  0  1  0  0  0  0  0  0  0  0  0
  -22.3390  -27.7779   21.2392 C   0  0  1  0  0  0  0  0  0  0  0  0
  -29.1883  -16.9657   20.7978 C   0  0  2  0  0  0  0  0  0  0  0  0
  -28.3927  -24.2268   17.8059 C   0  0  1  0  0  0  0  0  0  0  0  0
  -32.7075  -24.5991   22.2396 C   0  0  0  0  0  0  0  0  0  0  0  0
  -22.3537  -20.0324   21.3390 C   0  0  0  0  0  0  0  0  0  0  0  0
  -22.4164  -25.4089   25.2069 C   0  0  0  0  0  0  0  0  0  0  0  0
  -22.6665  -22.9284   24.9773 C   0  0  0  0  0  0  0  0  0  0  0  0
  -20.4950  -24.0187   24.4132 C   0  0  0  0  0  0  0  0  0  0  0  0
  -23.2397  -22.2680   18.3905 C   0  0  0  0  0  0  0  0  0  0  0  0
  -31.2197  -26.2043   20.2513 C   0  0  0  0  0  0  0  0  0  0  0  0
  -30.7682  -27.1915   21.3298 C   0  0  0  0  0  0  0  0  0  0  0  0
  -29.2533  -27.2732   21.4775 C   0  0  0  0  0  0  0  0  0  1  0  0
  -22.4720  -24.3202   22.8664 C   0  0  1  0  0  0  0  0  0  0  0  0
  -22.3880  -21.3271   20.5418 C   0  0  2  0  0  0  0  0  0  0  0  0
  -22.0288  -24.1867   24.3507 C   0  0  0  0  0  0  0  0  0  0  0  0
  -27.2723  -15.4378   20.5220 N   0  0  0  0  0  0  0  0  0  0  0  0
  -28.0214  -16.4214   19.9952 N   0  0  0  0  0  0  0  0  0  0  0  0
  -31.2203  -22.7687   21.7371 N   0  3  0  0  0  0  0  0  0  0  0  0
  -22.8250  -26.4792   21.7096 N   0  0  0  0  0  0  0  0  0  0  0  0
  -29.9494  -18.6730   22.4028 N   0  0  0  0  0  0  0  0  0  0  0  0
  -28.2580  -17.7969   18.0814 N   0  0  0  0  0  0  0  0  0  0  0  0
  -24.6763  -15.2326   17.0852 N   0  0  0  0  0  0  0  0  0  0  0  0
  -29.0271  -24.8692   18.9202 N   0  0  0  0  0  0  0  0  0  0  0  0
  -29.8728  -20.8115   21.4111 N   0  0  0  0  0  0  0  0  0  0  0  0
  -21.4886  -29.7092   22.4246 N   0  0  0  0  0  0  0  0  0  0  0  0
  -22.0942  -23.1892   22.0259 N   0  0  0  0  0  0  0  0  0  0  0  0
  -28.6823  -23.5066   15.5539 N   0  3  0  0  0  0  0  0  0  0  0  0
  -23.1470  -21.0836   19.2825 N   0  3  0  0  0  0  0  0  0  0  0  0
  -26.0490  -16.8968   16.3074 O   0  0  0  0  0  0  0  0  0  0  0  0
  -23.3923  -28.6041   23.1842 O   0  0  0  0  0  0  0  0  0  0  0  0
  -20.6748  -25.6762   22.1194 O   0  0  0  0  0  0  0  0  0  0  0  0
  -24.2446  -22.6456   21.3495 O   0  0  0  0  0  0  0  0  0  0  0  0
  -31.4843  -20.2958   22.9981 O   0  0  0  0  0  0  0  0  0  0  0  0
  -22.4460  -11.2884   20.3263 O   0  0  0  0  0  0  0  0  0  0  0  0
  -28.6924  -27.6767   20.2289 O   0  0  0  0  0  0  0  0  0  1  0  0
  -24.0580   -6.4183   22.3481 F   0  0  0  0  0  0  0  0  0  0  0  0
  -22.0599   -8.9583   18.8896 F   0  0  0  0  0  0  0  0  0  0  0  0
  1  2  1  0  0  0  0
  1  5  2  0  0  0  0
  2  6  2  0  0  0  0
  3  8  2  0  0  0  0
  3 16  1  0  0  0  0
  4  9  1  0  0  0  0
  4 16  2  0  0  0  0
  5 18  1  0  0  0  0
  6 20  1  0  0  0  0
  7 10  2  0  0  0  0
  7 19  1  0  0  0  0
  8 24  1  0  0  0  0
  9 24  2  0  0  0  0
 10 25  1  0  0  0  0
 11 12  2  0  0  0  0
 11 26  1  0  0  0  0
 12 27  1  0  0  0  0
 13 21  1  0  0  0  0
 13 25  2  0  0  0  0
 14 23  2  0  0  0  0
 14 32  1  0  0  0  0
 15 27  2  0  0  0  0
 15 28  1  0  0  0  0
 16 29  1  0  0  0  0
 17 29  1  0  0  0  0
 17 31  2  0  0  0  0
 17 33  1  0  0  0  0
 18 20  2  0  0  0  0
 18 38  1  0  0  0  0
 19 21  2  0  0  0  0
 19 39  1  0  0  0  0
 20 50  1  0  0  0  0
 21 40  1  0  0  0  0
 22 23  1  0  0  0  0
 22 30  2  0  0  0  0
 22 60  1  0  0  0  0
 23 73  1  0  0  0  0
 24 84  1  0  0  0  0
 25 85  1  0  0  0  0
 26 28  2  0  0  0  0
 26 84  1  0  0  0  0
 27 86  1  0  0  0  0
 28 87  1  0  0  0  0
 29 66  2  0  0  0  0
 30 54  1  0  0  0  0
 30 68  1  0  0  0  0
 31 67  1  0  0  0  0
 31 71  1  0  0  0  0
 32 68  2  0  0  0  0
 32 74  1  0  0  0  0
 33 72  1  0  0  0  0
 33 79  2  0  0  0  0
 34 51  1  0  0  0  0
 34 75  1  0  0  0  0
 34 80  2  0  0  0  0
 35 63  1  0  0  0  0
 35 69  1  0  0  0  0
 35 81  2  0  0  0  0
 36 64  1  0  0  0  0
 36 76  1  0  0  0  0
 36 82  2  0  0  0  0
 37 70  1  0  0  0  0
 37 74  1  0  0  0  0
 37 83  2  0  0  0  0
 38 41  1  0  0  0  0
 39 51  1  0  0  0  0
 40 69  1  0  0  0  0
 41 43  1  0  0  0  0
 42 44  1  0  0  0  0
 42 46  1  0  0  0  0
 43 50  1  0  0  0  0
 44 52  1  0  0  0  0
 45 48  1  0  0  0  0
 45 53  1  0  0  0  0
 46 70  1  0  0  0  0
 47 52  1  0  0  0  0
 47 70  1  0  0  0  0
 48 77  1  0  0  0  0
 49 53  1  0  0  0  0
 49 77  1  0  0  0  0
 50 75  1  0  0  0  0
 51 69  1  0  0  0  0
 52 67  1  0  0  0  0
 53 73  1  0  0  0  0
 55 64  1  0  0  0  0
 56 65  1  0  0  0  0
 57 65  1  0  0  0  0
 58 65  1  0  0  0  0
 59 78  1  0  0  0  0
 60 61  1  0  0  0  0
 61 62  1  0  0  0  0
 62 85  1  0  0  0  0
 63 65  1  0  0  0  0
 63 76  1  0  0  0  0
 64 78  1  0  0  0  0
 66 67  1  0  0  0  0
M  CHG  3  68   1  77   1  78   1
M  ISO  4  37 100  62 101  74 100  85 101
M  END
> <Batch ID>
0124

> <Smiles>
CNC(C)C(=O)NC(C(=O)N1Cc2cc([101O:1][101CH2:1]CCc3c(NC4CCNC4)cc([100NH:0][100C:0](=O)N4CCCC(n5nc(-c6ccc(Oc7ccc(F)cc7F)cc6)c(C(N)=O)c5N)C4)nc3C)ccc2CC1C(=O)NC1CCCc2ccccc21)C(C)(C)C

> <Shape>
0.235

> <Color>
0.076

> <Negative vol penalty>
0.000

$$$$

  -OEChem-04052320333D

 85 94  0     1  0  0  0  0  0999 V2000
  -19.3985  -27.8111   16.1284 C   0  0  0  0  0  0  0  0  0  0  0  0
  -20.7585  -27.6438   16.3691 C   0  0  0  0  0  0  0  0  0  0  0  0
  -24.2053   -9.1014   21.7248 C   0  0  0  0  0  0  0  0  0  0  0  0
  -23.1568  -10.1748   19.8313 C   0  0  0  0  0  0  0  0  0  0  0  0
  -18.7973  -29.0472   16.3618 C   0  0  0  0  0  0  0  0  0  0  0  0
  -21.5183  -28.7130   16.8424 C   0  0  0  0  0  0  0  0  0  0  0  0
  -27.7741  -21.1741   18.6600 C   0  0  0  0  0  0  0  0  0  0  0  0
  -30.1830  -21.0114   18.7500 C   0  0  0  0  0  0  0  0  0  0  0  0
  -24.6244  -27.3716   20.6104 C   0  0  0  0  0  0  0  0  0  0  0  0
  -27.8812  -22.4293   18.0613 C   0  0  0  0  0  0  0  0  0  0  0  0
  -30.2901  -22.2666   18.1512 C   0  0  0  0  0  0  0  0  0  0  0  0
  -22.9540   -8.9158   22.3125 C   0  0  0  0  0  0  0  0  0  0  0  0
  -21.9055   -9.9892   20.4189 C   0  0  0  0  0  0  0  0  0  0  0  0
  -25.7966  -26.7024   20.2616 C   0  0  0  0  0  0  0  0  0  0  0  0
  -20.3390   -6.7969   21.9875 C   0  0  0  0  0  0  0  0  0  0  0  0
  -20.0633   -5.5483   22.5447 C   0  0  0  0  0  0  0  0  0  0  0  0
  -27.0300  -28.7646   20.4741 C   0  0  0  0  0  0  0  0  0  0  0  0
  -19.7287   -6.5845   24.7014 C   0  0  0  0  0  0  0  0  0  0  0  0
  -24.3067   -9.7310   20.4842 C   0  0  0  0  0  0  0  0  0  0  0  0
  -26.2691   -9.0430   19.0066 C   0  0  0  0  0  0  0  0  0  0  0  0
  -28.9250  -20.4651   19.0045 C   0  0  0  0  0  0  0  0  0  0  0  0
  -19.5481  -30.1294   16.8473 C   0  0  0  0  0  0  0  0  0  0  0  0
  -24.6443  -28.7469   20.8836 C   0  0  0  0  0  0  0  0  0  0  0  0
  -20.9268  -29.9652   17.0812 C   0  0  0  0  0  0  0  0  0  0  0  0
  -25.8571  -29.4484   20.8287 C   0  0  0  0  0  0  0  0  0  0  0  0
  -29.1392  -22.9756   17.8069 C   0  0  0  0  0  0  0  0  0  0  0  0
  -21.8040   -9.3596   21.6595 C   0  0  0  0  0  0  0  0  0  0  0  0
  -26.9992  -27.3994   20.1905 C   0  0  0  0  0  0  0  0  0  0  0  0
  -20.3096   -7.9394   22.7873 C   0  0  0  0  0  0  0  0  0  0  0  0
  -19.7581   -5.4420   23.9016 C   0  0  0  0  0  0  0  0  0  0  0  0
  -20.0044   -7.8332   24.1442 C   0  0  0  0  0  0  0  0  0  0  0  0
  -25.5991   -9.9235   19.8770 C   0  0  0  0  0  0  0  0  0  0  0  0
  -27.4494   -9.6814   18.7139 C   0  0  0  0  0  0  0  0  0  0  0  0
  -25.8609   -7.7624   18.5072 C   0  0  0  0  0  0  0  0  0  0  0  0
  -23.2845  -31.3112   19.5877 C   0  0  0  0  0  0  0  0  0  0  0  0
  -24.6104  -32.8202   22.1347 C   0  0  0  0  0  0  0  0  0  0  0  0
  -27.0278  -32.8585   24.5433 C   0  0  0  0  0  0  0  0  0  0  0  0
  -28.6444  -15.6305   19.0595 C   0  0  0  0  0  0  0  0  0  0  0  0
  -18.8638  -31.4596   17.0395 C   0  0  0  0  0  0  0  0  0  0  0  0
  -23.3758  -29.4488   21.2845 C   0  0  0  0  0  0  0  0  0  0  0  0
  -25.9356  -30.9216   21.1324 C   0  0  0  0  0  0  0  0  0  0  0  0
  -19.6631  -32.4375   17.8970 C   0  0  0  0  0  0  0  0  0  0  0  0
  -30.5895  -12.7884   20.5247 C   0  0  0  0  0  0  0  0  0  0  0  0
  -21.1216  -32.4693   17.4516 C   0  0  0  0  0  0  0  0  0  0  0  0
  -29.5393  -11.6788   20.5075 C   0  0  0  0  0  0  0  0  0  0  0  0
  -29.9408  -14.1619   20.6505 C   0  0  0  0  0  0  0  0  0  0  0  0
  -29.9325  -16.7005   20.8847 C   0  0  0  0  0  0  0  0  0  0  0  0
  -29.5031  -18.0048   18.8293 C   0  0  0  0  0  0  0  0  0  0  0  0
  -27.8696  -13.3424   19.5721 C   0  0  0  0  0  0  0  0  0  0  0  0
  -29.2363  -17.7499   21.7329 C   0  0  0  0  0  0  0  0  0  0  0  0
  -21.7795  -31.0942   17.6182 C   0  0  1  0  0  0  0  0  0  0  0  0
  -28.8097  -19.1034   19.6540 C   0  0  1  0  0  0  0  0  0  0  0  0
  -23.4230  -30.9540   21.0406 C   0  0  1  0  0  0  0  0  0  0  0  0
  -28.4816  -11.9399   19.4219 C   0  0  2  0  0  0  0  0  0  0  0  0
  -27.8805  -34.2405   26.4565 C   0  0  0  0  0  0  0  0  0  0  0  0
  -25.8949  -34.7584   20.1589 C   0  0  0  0  0  0  0  0  0  0  0  0
  -27.4431  -35.4864   21.9868 C   0  0  0  0  0  0  0  0  0  0  0  0
  -24.9839  -35.8285   22.2276 C   0  0  0  0  0  0  0  0  0  0  0  0
  -26.5054  -30.6931   26.4920 C   0  0  0  0  0  0  0  0  0  0  0  0
  -29.2529  -24.3170   17.1650 C   0  0  0  0  0  0  0  0  0  0  0  0
  -29.2957  -25.4907   18.1563 C   0  0  0  0  0  0  0  0  0  0  0  0
  -28.0204  -25.6251   18.9803 C   0  0  0  0  0  0  0  0  0  1  0  0
  -25.9339  -33.4926   22.4089 C   0  0  1  0  0  0  0  0  0  0  0  0
  -26.9556  -33.1079   26.0390 C   0  0  2  0  0  0  0  0  0  0  0  0
  -26.0625  -34.8641   21.6879 C   0  0  0  0  0  0  0  0  0  0  0  0
  -26.2959  -11.0365   20.1214 N   0  0  0  0  0  0  0  0  0  0  0  0
  -27.4161  -10.8595   19.4003 N   0  0  0  0  0  0  0  0  0  0  0  0
  -24.6672  -31.5645   21.5136 N   0  0  0  0  0  0  0  0  0  0  0  0
  -28.9094  -14.3721   19.6252 N   0  0  0  0  0  0  0  0  0  0  0  0
  -29.4221  -16.7060   19.5141 N   0  0  0  0  0  0  0  0  0  0  0  0
  -28.5022   -9.3443   17.9390 N   0  0  0  0  0  0  0  0  0  0  0  0
  -24.6179   -7.2541   18.9083 N   0  0  0  0  0  0  0  0  0  0  0  0
  -22.1152  -30.8594   19.0063 N   0  0  0  0  0  0  0  0  0  0  0  0
  -26.0614  -33.5662   23.8603 N   0  0  0  0  0  0  0  0  0  0  0  0
  -29.3645  -19.0776   21.0571 N   0  3  0  0  0  0  0  0  0  0  0  0
  -27.3474  -31.8807   26.7882 N   0  3  0  0  0  0  0  0  0  0  0  0
  -26.5845   -7.0816   17.7415 O   0  0  0  0  0  0  0  0  0  0  0  0
  -24.1720  -31.9507   19.0354 O   0  0  0  0  0  0  0  0  0  0  0  0
  -23.5650  -33.3850   22.4660 O   0  0  0  0  0  0  0  0  0  0  0  0
  -27.8607  -32.1136   24.0317 O   0  0  0  0  0  0  0  0  0  0  0  0
  -27.7699  -15.7807   18.1972 O   0  0  0  0  0  0  0  0  0  0  0  0
  -20.5828   -9.1784   22.2325 O   0  0  0  0  0  0  0  0  0  0  0  0
  -28.1528  -26.7442   19.8472 O   0  0  0  0  0  0  0  0  0  1  0  0
  -19.4918   -4.2431   24.4362 F   0  0  0  0  0  0  0  0  0  0  0  0
  -19.9735   -8.9273   24.9173 F   0  0  0  0  0  0  0  0  0  0  0  0
  1  2  1  0  0  0  0
  1  5  2  0  0  0  0
  2  6  2  0  0  0  0
  3 12  2  0  0  0  0
  3 19  1  0  0  0  0
  4 13  1  0  0  0  0
  4 19  2  0  0  0  0
  5 22  1  0  0  0  0
  6 24  1  0  0  0  0
  7 10  2  0  0  0  0
  7 21  1  0  0  0  0
  8 11  1  0  0  0  0
  8 21  2  0  0  0  0
  9 14  2  0  0  0  0
  9 23  1  0  0  0  0
 10 26  1  0  0  0  0
 11 26  2  0  0  0  0
 12 27  1  0  0  0  0
 13 27  2  0  0  0  0
 14 28  1  0  0  0  0
 15 16  2  0  0  0  0
 15 29  1  0  0  0  0
 16 30  1  0  0  0  0
 17 25  1  0  0  0  0
 17 28  2  0  0  0  0
 18 30  2  0  0  0  0
 18 31  1  0  0  0  0
 19 32  1  0  0  0  0
 20 32  1  0  0  0  0
 20 33  2  0  0  0  0
 20 34  1  0  0  0  0
 21 52  1  0  0  0  0
 22 24  2  0  0  0  0
 22 39  1  0  0  0  0
 23 25  2  0  0  0  0
 23 40  1  0  0  0  0
 24 51  1  0  0  0  0
 25 41  1  0  0  0  0
 26 60  1  0  0  0  0
 27 82  1  0  0  0  0
 28 83  1  0  0  0  0
 29 31  2  0  0  0  0
 29 82  1  0  0  0  0
 30 84  1  0  0  0  0
 31 85  1  0  0  0  0
 32 66  2  0  0  0  0
 33 67  1  0  0  0  0
 33 71  1  0  0  0  0
 34 72  1  0  0  0  0
 34 77  2  0  0  0  0
 35 53  1  0  0  0  0
 35 73  1  0  0  0  0
 35 78  2  0  0  0  0
 36 63  1  0  0  0  0
 36 68  1  0  0  0  0
 36 79  2  0  0  0  0
 37 64  1  0  0  0  0
 37 74  1  0  0  0  0
 37 80  2  0  0  0  0
 38 69  1  0  0  0  0
 38 70  1  0  0  0  0
 38 81  2  0  0  0  0
 39 42  1  0  0  0  0
 40 53  1  0  0  0  0
 41 68  1  0  0  0  0
 42 44  1  0  0  0  0
 43 45  1  0  0  0  0
 43 46  1  0  0  0  0
 44 51  1  0  0  0  0
 45 54  1  0  0  0  0
 46 69  1  0  0  0  0
 47 50  1  0  0  0  0
 47 70  1  0  0  0  0
 48 52  1  0  0  0  0
 48 70  1  0  0  0  0
 49 54  1  0  0  0  0
 49 69  1  0  0  0  0
 50 75  1  0  0  0  0
 51 73  1  0  0  0  0
 52 75  1  0  0  0  0
 53 68  1  0  0  0  0
 54 67  1  0  0  0  0
 55 64  1  0  0  0  0
 56 65  1  0  0  0  0
 57 65  1  0  0  0  0
 58 65  1  0  0  0  0
 59 76  1  0  0  0  0
 60 61  1  0  0  0  0
 61 62  1  0  0  0  0
 62 83  1  0  0  0  0
 63 65  1  0  0  0  0
 63 74  1  0  0  0  0
 64 76  1  0  0  0  0
 66 67  1  0  0  0  0
M  CHG  2  75   1  76   1
M  ISO  4  38 100  62 101  70 100  83 101
M  END
> <Batch ID>
0124

> <Smiles>
CNC(C)C(=O)NC(C(=O)N1Cc2cc([101O:1][101CH2:1]CCc3ccc(C4C[100N:0]([100C:0](=O)N5CCCC(n6nc(-c7ccc(Oc8ccc(F)cc8F)cc7)c(C(N)=O)c6N)C5)CCN4)cc3)ccc2CC1C(=O)NC1CCCc2ccccc21)C(C)(C)C

> <Shape>
0.280

> <Color>
0.107

> <Negative vol penalty>
0.000

$$$$

  -OEChem-04052320333D

 83 91  0     1  0  0  0  0  0999 V2000
  -16.4863  -29.8078   24.1592 C   0  0  0  0  0  0  0  0  0  0  0  0
  -17.1727  -28.6263   23.8980 C   0  0  0  0  0  0  0  0  0  0  0  0
  -24.0484   -9.2889   21.9773 C   0  0  0  0  0  0  0  0  0  0  0  0
  -23.9657  -11.2274   23.4168 C   0  0  0  0  0  0  0  0  0  0  0  0
  -16.9587  -31.0151   23.6461 C   0  0  0  0  0  0  0  0  0  0  0  0
  -18.3313  -28.6512   23.1226 C   0  0  0  0  0  0  0  0  0  0  0  0
  -23.2780  -25.1009   23.7796 C   0  0  0  0  0  0  0  0  0  0  0  0
  -24.2126  -19.6885   20.3610 C   0  0  0  0  0  0  0  0  0  0  0  0
  -24.7562  -18.6456   19.6112 C   0  0  0  0  0  0  0  0  0  0  0  0
  -23.5183   -8.5052   23.0021 C   0  0  0  0  0  0  0  0  0  0  0  0
  -23.4354  -10.4438   24.4417 C   0  0  0  0  0  0  0  0  0  0  0  0
  -23.6932  -23.9407   23.1274 C   0  0  0  0  0  0  0  0  0  0  0  0
  -20.4836   -7.9166   24.3723 C   0  0  0  0  0  0  0  0  0  0  0  0
  -19.4585   -7.0290   24.0455 C   0  0  0  0  0  0  0  0  0  0  0  0
  -25.0659  -25.2680   21.6532 C   0  0  0  0  0  0  0  0  0  0  0  0
  -26.4300  -20.3354   21.0692 C   0  0  0  0  0  0  0  0  0  0  0  0
  -20.8211   -5.1796   24.7939 C   0  0  0  0  0  0  0  0  0  0  0  0
  -24.2722  -10.6500   22.1846 C   0  0  0  0  0  0  0  0  0  0  0  0
  -24.1069  -12.1638   20.1380 C   0  0  0  0  0  0  0  0  0  0  0  0
  -18.1290  -31.0562   22.8721 C   0  0  0  0  0  0  0  0  0  0  0  0
  -23.7459  -26.3563   23.3658 C   0  0  0  0  0  0  0  0  0  0  0  0
  -18.8191  -29.8600   22.5975 C   0  0  0  0  0  0  0  0  0  0  0  0
  -24.6570  -26.4424   22.3034 C   0  0  0  0  0  0  0  0  0  0  0  0
  -25.0495  -20.5335   21.0900 C   0  0  0  0  0  0  0  0  0  0  0  0
  -26.1368  -18.4476   19.5903 C   0  0  0  0  0  0  0  0  0  0  0  0
  -26.9737  -19.2925   20.3193 C   0  0  0  0  0  0  0  0  0  0  0  0
  -23.2117   -9.0826   24.2343 C   0  0  0  0  0  0  0  0  0  0  0  0
  -24.5850  -24.0244   22.0621 C   0  0  0  0  0  0  0  0  0  0  0  0
  -21.6776   -7.4357   24.9099 C   0  0  0  0  0  0  0  0  0  0  0  0
  -19.6272   -5.6605   24.2563 C   0  0  0  0  0  0  0  0  0  0  0  0
  -21.8463   -6.0672   25.1207 C   0  0  0  0  0  0  0  0  0  0  0  0
  -24.8204  -11.4599   21.1265 C   0  0  0  0  0  0  0  0  0  0  0  0
  -25.0783  -12.7697   19.3792 C   0  0  0  0  0  0  0  0  0  0  0  0
  -22.6924  -12.2612   19.9247 C   0  0  0  0  0  0  0  0  0  0  0  0
  -22.3877  -28.9858   22.2060 C   0  0  0  0  0  0  0  0  0  0  0  0
  -25.3849  -30.1923   22.4955 C   0  0  0  0  0  0  0  0  0  0  0  0
  -28.7418  -29.6017   22.6660 C   0  0  0  0  0  0  0  0  0  0  0  0
  -30.7058  -14.4500   20.5450 C   0  0  0  0  0  0  0  0  0  0  0  0
  -18.5747  -32.3784   22.2996 C   0  0  0  0  0  0  0  0  0  0  0  0
  -23.3091  -27.5961   24.0970 C   0  0  0  0  0  0  0  0  0  0  0  0
  -25.2048  -27.7643   21.8336 C   0  0  0  0  0  0  0  0  0  0  0  0
  -20.0171  -32.3706   21.7998 C   0  0  0  0  0  0  0  0  0  0  0  0
  -29.6225  -12.2257   17.9846 C   0  0  0  0  0  0  0  0  0  0  0  0
  -20.2829  -31.1280   20.9559 C   0  0  0  0  0  0  0  0  0  0  0  0
  -28.2046  -11.8408   18.4103 C   0  0  0  0  0  0  0  0  0  0  0  0
  -30.5497  -12.3837   19.1877 C   0  0  0  0  0  0  0  0  0  0  0  0
  -28.6438  -12.9227   20.6542 C   0  0  0  0  0  0  0  0  0  0  0  0
  -20.0933  -29.8496   21.7813 C   0  0  1  0  0  0  0  0  0  0  0  0
  -23.4509  -28.8642   23.2607 C   0  0  1  0  0  0  0  0  0  0  0  0
  -27.6582  -12.8067   19.4788 C   0  0  2  0  0  0  0  0  0  0  0  0
  -26.6958  -17.3236   18.7810 C   0  0  0  0  0  0  0  0  0  0  0  0
  -30.9434  -30.7897   22.8631 C   0  0  0  0  0  0  0  0  0  0  0  0
  -25.2064  -31.0049   19.5599 C   0  0  0  0  0  0  0  0  0  0  0  0
  -27.6928  -31.2986   19.5622 C   0  0  0  0  0  0  0  0  0  0  0  0
  -26.2708  -32.7075   21.0508 C   0  0  0  0  0  0  0  0  0  0  0  0
  -29.3719  -28.2537   25.2243 C   0  0  0  0  0  0  0  0  0  0  0  0
  -28.4548  -19.0995   20.3123 C   0  0  0  0  0  0  0  0  0  0  0  0
  -24.4643  -21.6550   21.8970 C   0  0  0  0  0  0  0  0  0  1  0  0
  -30.7087  -16.4930   21.9541 C   0  0  0  0  0  0  0  0  0  0  0  0
  -30.3675  -17.6985   21.0982 C   0  0  0  0  0  0  0  0  0  0  0  0
  -26.6000  -30.2622   21.6025 C   0  0  1  0  0  0  0  0  0  0  0  0
  -29.8079  -30.1152   23.6170 C   0  0  2  0  0  0  0  0  0  0  0  0
  -26.4309  -31.2934   20.4512 C   0  0  0  0  0  0  0  0  0  0  0  0
  -26.1431  -11.6043   21.0089 N   0  0  0  0  0  0  0  0  0  0  0  0
  -26.2683  -12.4058   19.9375 N   0  0  0  0  0  0  0  0  0  0  0  0
  -24.7428  -28.9485   22.5765 N   0  0  0  0  0  0  0  0  0  0  0  0
  -29.9743  -13.3136   20.1625 N   0  0  0  0  0  0  0  0  0  0  0  0
  -25.0221  -13.5728   18.2956 N   0  0  0  0  0  0  0  0  0  0  0  0
  -21.8363  -11.5757   20.7974 N   0  0  0  0  0  0  0  0  0  0  0  0
  -21.2400  -29.6246   22.6351 N   0  0  0  0  0  0  0  0  0  0  0  0
  -27.7360  -30.5262   22.4790 N   0  0  0  0  0  0  0  0  0  0  0  0
  -30.0849  -15.2823   21.4684 N   0  0  0  0  0  0  0  0  0  0  0  0
  -30.3754  -28.9914   24.4145 N   0  3  0  0  0  0  0  0  0  0  0  0
  -28.9018  -17.9438   21.1364 N   0  3  0  0  0  0  0  0  0  0  0  0
  -22.2028  -12.9229   18.9781 O   0  0  0  0  0  0  0  0  0  0  0  0
  -22.5940  -28.5348   21.0854 O   0  0  0  0  0  0  0  0  0  0  0  0
  -25.0230  -31.2021   23.1045 O   0  0  0  0  0  0  0  0  0  0  0  0
  -28.7977  -28.4929   22.1388 O   0  0  0  0  0  0  0  0  0  0  0  0
  -31.8267  -14.7070   20.0928 O   0  0  0  0  0  0  0  0  0  0  0  0
  -22.6941   -8.3183   25.2345 O   0  0  0  0  0  0  0  0  0  0  0  0
  -24.9914  -22.8936   21.4234 O   0  0  0  0  0  0  0  0  0  1  0  0
  -18.6421   -4.8084   23.9439 F   0  0  0  0  0  0  0  0  0  0  0  0
  -22.9906   -5.5994   25.6379 F   0  0  0  0  0  0  0  0  0  0  0  0
  1  2  1  0  0  0  0
  1  5  2  0  0  0  0
  2  6  2  0  0  0  0
  3 10  2  0  0  0  0
  3 18  1  0  0  0  0
  4 11  1  0  0  0  0
  4 18  2  0  0  0  0
  5 20  1  0  0  0  0
  6 22  1  0  0  0  0
  7 12  2  0  0  0  0
  7 21  1  0  0  0  0
  8  9  2  0  0  0  0
  8 24  1  0  0  0  0
  9 25  1  0  0  0  0
 10 27  1  0  0  0  0
 11 27  2  0  0  0  0
 12 28  1  0  0  0  0
 13 14  2  0  0  0  0
 13 29  1  0  0  0  0
 14 30  1  0  0  0  0
 15 23  1  0  0  0  0
 15 28  2  0  0  0  0
 16 24  2  0  0  0  0
 16 26  1  0  0  0  0
 17 30  2  0  0  0  0
 17 31  1  0  0  0  0
 18 32  1  0  0  0  0
 19 32  1  0  0  0  0
 19 33  2  0  0  0  0
 19 34  1  0  0  0  0
 20 22  2  0  0  0  0
 20 39  1  0  0  0  0
 21 23  2  0  0  0  0
 21 40  1  0  0  0  0
 22 48  1  0  0  0  0
 23 41  1  0  0  0  0
 24 58  1  0  0  0  0
 25 26  2  0  0  0  0
 25 51  1  0  0  0  0
 26 57  1  0  0  0  0
 27 80  1  0  0  0  0
 28 81  1  0  0  0  0
 29 31  2  0  0  0  0
 29 80  1  0  0  0  0
 30 82  1  0  0  0  0
 31 83  1  0  0  0  0
 32 64  2  0  0  0  0
 33 65  1  0  0  0  0
 33 68  1  0  0  0  0
 34 69  1  0  0  0  0
 34 75  2  0  0  0  0
 35 49  1  0  0  0  0
 35 70  1  0  0  0  0
 35 76  2  0  0  0  0
 36 61  1  0  0  0  0
 36 66  1  0  0  0  0
 36 77  2  0  0  0  0
 37 62  1  0  0  0  0
 37 71  1  0  0  0  0
 37 78  2  0  0  0  0
 38 67  1  0  0  0  0
 38 72  1  0  0  0  0
 38 79  2  0  0  0  0
 39 42  1  0  0  0  0
 40 49  1  0  0  0  0
 41 66  1  0  0  0  0
 42 44  1  0  0  0  0
 43 45  1  0  0  0  0
 43 46  1  0  0  0  0
 44 48  1  0  0  0  0
 45 50  1  0  0  0  0
 46 67  1  0  0  0  0
 47 50  1  0  0  0  0
 47 67  1  0  0  0  0
 48 70  1  0  0  0  0
 49 66  1  0  0  0  0
 50 65  1  0  0  0  0
 52 62  1  0  0  0  0
 53 63  1  0  0  0  0
 54 63  1  0  0  0  0
 55 63  1  0  0  0  0
 56 73  1  0  0  0  0
 57 74  1  0  0  0  0
 58 81  1  0  0  0  0
 59 60  1  0  0  0  0
 59 72  1  0  0  0  0
 60 74  1  0  0  0  0
 61 63  1  0  0  0  0
 61 71  1  0  0  0  0
 62 73  1  0  0  0  0
 64 65  1  0  0  0  0
M  CHG  2  73   1  74   1
M  ISO  4  38 100  58 101  72 100  81 101
M  END
> <Batch ID>
0124

> <Smiles>
CNC(C)C(=O)NC(C(=O)N1Cc2cc([101O:1][101CH2:1]c3ccc(C)c(CNCC[100NH:0][100C:0](=O)N4CCCC(n5nc(-c6ccc(Oc7ccc(F)cc7F)cc6)c(C(N)=O)c5N)C4)c3)ccc2CC1C(=O)NC1CCCc2ccccc21)C(C)(C)C

> <Shape>
0.256

> <Color>
0.100

> <Negative vol penalty>
0.000

$$$$

  -OEChem-04052320333D

 84 92  0     1  0  0  0  0  0999 V2000
  -27.5511  -18.7205   16.6375 C   0  0  0  0  0  0  0  0  0  0  0  0
  -26.6660  -19.7909   16.5585 C   0  0  0  0  0  0  0  0  0  0  0  0
  -23.7400  -15.1753   23.6491 C   0  0  0  0  0  0  0  0  0  0  0  0
  -22.1084  -14.7915   21.9092 C   0  0  0  0  0  0  0  0  0  0  0  0
  -28.4203  -18.6148   17.7226 C   0  0  0  0  0  0  0  0  0  0  0  0
  -26.6488  -20.7557   17.5651 C   0  0  0  0  0  0  0  0  0  0  0  0
  -25.5184  -27.7580   18.5679 C   0  0  0  0  0  0  0  0  0  0  0  0
  -23.8351  -13.8004   23.8633 C   0  0  0  0  0  0  0  0  0  0  0  0
  -22.2035  -13.4164   22.1233 C   0  0  0  0  0  0  0  0  0  0  0  0
  -24.7641  -28.6251   19.3572 C   0  0  0  0  0  0  0  0  0  0  0  0
  -22.2840   -9.7851   21.9651 C   0  0  0  0  0  0  0  0  0  0  0  0
  -22.3786   -8.9586   20.8455 C   0  0  0  0  0  0  0  0  0  0  0  0
  -26.3659  -28.3820   21.1445 C   0  0  0  0  0  0  0  0  0  0  0  0
  -24.4144  -10.0815   20.1887 C   0  0  0  0  0  0  0  0  0  0  0  0
  -22.8766  -15.6709   22.6721 C   0  0  0  0  0  0  0  0  0  0  0  0
  -23.5431  -17.8685   21.5611 C   0  0  0  0  0  0  0  0  0  0  0  0
  -28.4204  -19.5840   18.7381 C   0  0  0  0  0  0  0  0  0  0  0  0
  -26.6984  -27.1869   19.0657 C   0  0  0  0  0  0  0  0  0  0  0  0
  -27.5178  -20.6621   18.6655 C   0  0  0  0  0  0  0  0  0  0  0  0
  -27.1347  -27.5100   20.3585 C   0  0  0  0  0  0  0  0  0  0  0  0
  -23.0669  -12.9209   23.1004 C   0  0  0  0  0  0  0  0  0  0  0  0
  -25.1863  -28.9349   20.6467 C   0  0  0  0  0  0  0  0  0  0  0  0
  -23.2546  -10.7599   22.1965 C   0  0  0  0  0  0  0  0  0  0  0  0
  -23.4438   -9.1068   19.9573 C   0  0  0  0  0  0  0  0  0  0  0  0
  -24.3198  -10.9080   21.3083 C   0  0  0  0  0  0  0  0  0  0  0  0
  -22.7774  -17.0913   22.4508 C   0  0  0  0  0  0  0  0  0  0  0  0
  -23.0670  -19.1464   21.7244 C   0  0  0  0  0  0  0  0  0  0  0  0
  -24.5909  -17.4708   20.6669 C   0  0  0  0  0  0  0  0  0  0  0  0
  -27.6843  -24.2210   19.6449 C   0  0  0  0  0  0  0  0  0  0  0  0
  -30.5019  -25.6977   20.2796 C   0  0  0  0  0  0  0  0  0  0  0  0
  -32.1355  -28.5484   21.2023 C   0  0  0  0  0  0  0  0  0  0  0  0
  -18.8804  -22.6471   22.1309 C   0  0  0  0  0  0  0  0  0  0  0  0
  -29.3455  -19.4018   19.9153 C   0  0  0  0  0  0  0  0  0  0  0  0
  -27.5148  -26.2744   18.1920 C   0  0  0  0  0  0  0  0  0  0  0  0
  -28.4049  -26.9393   20.9325 C   0  0  0  0  0  0  0  0  0  0  0  0
  -29.5240  -20.6667   20.7511 C   0  0  0  0  0  0  0  0  0  0  0  0
  -19.9558  -21.0825   25.2120 C   0  0  0  0  0  0  0  0  0  0  0  0
  -28.1730  -21.3180   21.0290 C   0  0  0  0  0  0  0  0  0  0  0  0
  -18.3463  -27.2249   21.5456 C   0  0  0  0  0  0  0  0  0  0  0  0
  -20.8549  -19.9619   24.6865 C   0  0  0  0  0  0  0  0  0  0  0  0
  -19.3526  -28.3420   21.7914 C   0  0  0  0  0  0  0  0  0  0  0  0
  -18.7453  -21.2905   24.3067 C   0  0  0  0  0  0  0  0  0  0  0  0
  -19.9802  -20.4371   22.3521 C   0  0  0  0  0  0  0  0  0  0  0  0
  -18.9604  -26.2107   23.7617 C   0  0  0  0  0  0  0  0  0  0  0  0
  -27.4863  -21.7421   19.7251 C   0  0  1  0  0  0  0  0  0  0  0  0
  -28.4296  -25.3473   18.9864 C   0  0  1  0  0  0  0  0  0  0  0  0
  -18.7645  -25.9449   22.2705 C   0  0  1  0  0  0  0  0  0  0  0  0
  -21.2339  -20.1928   23.2116 C   0  0  2  0  0  0  0  0  0  0  0  0
  -19.5677  -28.6129   23.2851 C   0  0  2  0  0  0  0  0  0  0  0  0
  -34.4348  -29.4367   21.6730 C   0  0  0  0  0  0  0  0  0  0  0  0
  -20.1715  -30.9989   22.8349 C   0  0  0  0  0  0  0  0  0  0  0  0
  -30.4973  -24.2729   22.9777 C   0  0  0  0  0  0  0  0  0  0  0  0
  -32.2481  -25.8855   23.7538 C   0  0  0  0  0  0  0  0  0  0  0  0
  -32.7251  -24.3530   21.8441 C   0  0  0  0  0  0  0  0  0  0  0  0
  -20.2872  -27.4646   25.4354 C   0  0  0  0  0  0  0  0  0  0  0  0
  -31.9379  -30.5413   19.0232 C   0  0  0  0  0  0  0  0  0  0  0  0
  -17.7278  -24.8432   22.0578 C   0  0  0  0  0  0  0  0  0  0  0  0
  -23.1837  -30.0409   23.4410 C   0  0  0  0  0  0  0  0  0  0  0  0
  -21.9960  -29.2719   22.8612 C   0  0  0  0  0  0  0  0  0  0  0  0
  -24.5004  -29.5779   22.8312 C   0  0  0  0  0  0  0  0  0  1  0  0
  -31.1423  -26.2958   21.5088 C   0  0  1  0  0  0  0  0  0  0  0  0
  -33.3531  -29.2445   20.6215 C   0  0  2  0  0  0  0  0  0  0  0  0
  -20.6421  -29.6863   23.4665 C   0  0  2  0  0  0  0  0  0  0  0  0
  -31.6282  -25.2112   22.5113 C   0  0  0  0  0  0  0  0  0  0  0  0
  -21.8830  -17.8150   23.1291 N   0  0  0  0  0  0  0  0  0  0  0  0
  -22.0836  -19.0604   22.6656 N   0  0  0  0  0  0  0  0  0  0  0  0
  -29.1651  -26.0472   20.0416 N   0  0  0  0  0  0  0  0  0  0  0  0
  -19.1755  -21.5235   22.9208 N   0  0  0  0  0  0  0  0  0  0  0  0
  -23.3978  -20.3241   21.1534 N   0  0  0  0  0  0  0  0  0  0  0  0
  -24.9555  -16.1181   20.6244 N   0  0  0  0  0  0  0  0  0  0  0  0
  -28.0726  -22.9649   19.2197 N   0  0  0  0  0  0  0  0  0  0  0  0
  -32.1975  -27.1819   21.0292 N   0  0  0  0  0  0  0  0  0  0  0  0
  -18.1078  -23.6272   22.7417 N   0  0  0  0  0  0  0  0  0  0  0  0
  -19.9855  -27.3114   23.9639 N   0  3  1  0  0  0  0  0  0  0  0  0
  -32.9773  -30.5827   20.0838 N   0  3  0  0  0  0  0  0  0  0  0  0
  -25.1974  -18.2932   19.9394 O   0  0  0  0  0  0  0  0  0  0  0  0
  -26.8218  -24.4729   20.4782 O   0  0  0  0  0  0  0  0  0  0  0  0
  -31.1655  -24.9536   19.5533 O   0  0  0  0  0  0  0  0  0  0  0  0
  -31.2226  -29.1558   21.7575 O   0  0  0  0  0  0  0  0  0  0  0  0
  -19.2807  -22.7704   20.9683 O   0  0  0  0  0  0  0  0  0  0  0  0
  -23.1596  -11.5791   23.3090 O   0  0  0  0  0  0  0  0  0  0  0  0
  -24.4516  -29.7804   21.4195 O   0  0  0  0  0  0  0  0  0  1  0  0
  -23.5354   -8.3121   18.8830 F   0  0  0  0  0  0  0  0  0  0  0  0
  -25.2559  -11.8419   21.5260 F   0  0  0  0  0  0  0  0  0  0  0  0
  1  2  1  0  0  0  0
  1  5  2  0  0  0  0
  2  6  2  0  0  0  0
  3  8  2  0  0  0  0
  3 15  1  0  0  0  0
  4  9  1  0  0  0  0
  4 15  2  0  0  0  0
  5 17  1  0  0  0  0
  6 19  1  0  0  0  0
  7 10  2  0  0  0  0
  7 18  1  0  0  0  0
  8 21  1  0  0  0  0
  9 21  2  0  0  0  0
 10 22  1  0  0  0  0
 11 12  2  0  0  0  0
 11 23  1  0  0  0  0
 12 24  1  0  0  0  0
 13 20  1  0  0  0  0
 13 22  2  0  0  0  0
 14 24  2  0  0  0  0
 14 25  1  0  0  0  0
 15 26  1  0  0  0  0
 16 26  1  0  0  0  0
 16 27  2  0  0  0  0
 16 28  1  0  0  0  0
 17 19  2  0  0  0  0
 17 33  1  0  0  0  0
 18 20  2  0  0  0  0
 18 34  1  0  0  0  0
 19 45  1  0  0  0  0
 20 35  1  0  0  0  0
 21 81  1  0  0  0  0
 22 82  1  0  0  0  0
 23 25  2  0  0  0  0
 23 81  1  0  0  0  0
 24 83  1  0  0  0  0
 25 84  1  0  0  0  0
 26 65  2  0  0  0  0
 27 66  1  0  0  0  0
 27 69  1  0  0  0  0
 28 70  1  0  0  0  0
 28 76  2  0  0  0  0
 29 46  1  0  0  0  0
 29 71  1  0  0  0  0
 29 77  2  0  0  0  0
 30 61  1  0  0  0  0
 30 67  1  0  0  0  0
 30 78  2  0  0  0  0
 31 62  1  0  0  0  0
 31 72  1  0  0  0  0
 31 79  2  0  0  0  0
 32 68  1  0  0  0  0
 32 73  1  0  0  0  0
 32 80  2  0  0  0  0
 33 36  1  0  0  0  0
 34 46  1  0  0  0  0
 35 67  1  0  0  0  0
 36 38  1  0  0  0  0
 37 40  1  0  0  0  0
 37 42  1  0  0  0  0
 38 45  1  0  0  0  0
 39 41  1  0  0  0  0
 39 47  1  0  0  0  0
 40 48  1  0  0  0  0
 41 49  1  0  0  0  0
 42 68  1  0  0  0  0
 43 48  1  0  0  0  0
 43 68  1  0  0  0  0
 44 47  1  0  0  0  0
 44 74  1  0  0  0  0
 45 71  1  0  0  0  0
 46 67  1  0  0  0  0
 47 57  1  0  0  0  0
 48 66  1  0  0  0  0
 49 63  1  0  0  0  0
 49 74  1  0  0  0  0
 50 62  1  0  0  0  0
 51 63  1  0  0  0  0
 52 64  1  0  0  0  0
 53 64  1  0  0  0  0
 54 64  1  0  0  0  0
 55 74  1  0  0  0  0
 56 75  1  0  0  0  0
 57 73  1  0  0  0  0
 58 59  1  0  0  0  0
 58 60  1  0  0  0  0
 59 63  1  0  0  0  0
 60 82  1  0  0  0  0
 61 64  1  0  0  0  0
 61 72  1  0  0  0  0
 62 75  1  0  0  0  0
 65 66  1  0  0  0  0
M  CHG  2  74   1  75   1
M  ISO  4  32 100  60 101  73 100  82 101
M  END
> <Batch ID>
0124

> <Smiles>
CNC(C)C(=O)NC(C(=O)N1Cc2cc([101O:1][101CH2:1]CCC(C)C3CCC(C[100NH:0][100C:0](=O)N4CCCC(n5nc(-c6ccc(Oc7ccc(F)cc7F)cc6)c(C(N)=O)c5N)C4)CN3C)ccc2CC1C(=O)NC1CCCc2ccccc21)C(C)(C)C

> <Shape>
0.207

> <Color>
0.063

> <Negative vol penalty>
0.000

$$$$

  -OEChem-04052320333D

 89 98  0     1  0  0  0  0  0999 V2000
  -16.8351  -28.9700   20.0915 C   0  0  0  0  0  0  0  0  0  0  0  0
  -17.8687  -28.1185   19.7147 C   0  0  0  0  0  0  0  0  0  0  0  0
  -22.9468  -10.1100   19.9163 C   0  0  0  0  0  0  0  0  0  0  0  0
  -23.8771   -9.8188   22.1269 C   0  0  0  0  0  0  0  0  0  0  0  0
  -17.1111  -30.1054   20.8522 C   0  0  0  0  0  0  0  0  0  0  0  0
  -19.1792  -28.4026   20.0974 C   0  0  0  0  0  0  0  0  0  0  0  0
  -21.6270  -24.3197   21.8247 C   0  0  0  0  0  0  0  0  0  0  0  0
  -22.1744   -8.9617   20.0900 C   0  0  0  0  0  0  0  0  0  0  0  0
  -23.1047   -8.6704   22.3006 C   0  0  0  0  0  0  0  0  0  0  0  0
  -22.1071  -23.4169   20.8770 C   0  0  0  0  0  0  0  0  0  0  0  0
  -19.8995   -7.9182   23.0633 C   0  0  0  0  0  0  0  0  0  0  0  0
  -19.2321   -7.7657   24.2786 C   0  0  0  0  0  0  0  0  0  0  0  0
  -26.7566  -20.0084   21.8560 C   0  0  0  0  0  0  0  0  0  0  0  0
  -25.4327  -20.2406   21.4083 C   0  0  0  0  0  0  0  0  0  0  0  0
  -24.3115  -24.3726   21.0922 C   0  0  0  0  0  0  0  0  0  0  0  0
  -20.4400   -5.7130   24.6844 C   0  0  0  0  0  0  0  0  0  0  0  0
  -23.7982  -10.5386   20.9347 C   0  0  0  0  0  0  0  0  0  0  0  0
  -24.2396  -13.0469   21.0804 C   0  0  0  0  0  0  0  0  0  0  0  0
  -18.4243  -30.3983   21.2526 C   0  0  0  0  0  0  0  0  0  0  0  0
  -22.4846  -25.2645   22.4062 C   0  0  0  0  0  0  0  0  0  0  0  0
  -19.4731  -29.5437   20.8630 C   0  0  0  0  0  0  0  0  0  0  0  0
  -23.8404  -25.2846   22.0489 C   0  0  0  0  0  0  0  0  0  0  0  0
  -22.2533   -8.2418   21.2822 C   0  0  0  0  0  0  0  0  0  0  0  0
  -23.4489  -23.4451   20.5085 C   0  0  0  0  0  0  0  0  0  0  0  0
  -20.8372   -6.9681   22.6585 C   0  0  0  0  0  0  0  0  0  0  0  0
  -19.5023   -6.6631   25.0891 C   0  0  0  0  0  0  0  0  0  0  0  0
  -21.1074   -5.8655   23.4691 C   0  0  0  0  0  0  0  0  0  0  0  0
  -24.5968  -11.7245   20.7556 C   0  0  0  0  0  0  0  0  0  0  0  0
  -27.5226  -19.7266   20.7465 C   0  0  0  0  0  0  0  0  0  0  0  0
  -25.4299  -20.0934   20.0388 C   0  0  0  0  0  0  0  0  0  0  0  0
  -25.3328  -13.7962   20.7199 C   0  0  0  0  0  0  0  0  0  0  0  0
  -23.0280  -13.5527   21.6565 C   0  0  0  0  0  0  0  0  0  0  0  0
  -22.6155  -28.4400   22.4632 C   0  0  0  0  0  0  0  0  0  0  0  0
  -25.0384  -27.9140   24.5548 C   0  0  0  0  0  0  0  0  0  0  0  0
  -27.4598  -25.8063   25.7130 C   0  0  0  0  0  0  0  0  0  0  0  0
  -30.8543  -14.5965   20.5853 C   0  0  0  0  0  0  0  0  0  0  0  0
  -18.6799  -31.6626   22.0342 C   0  0  0  0  0  0  0  0  0  0  0  0
  -21.9570  -26.2140   23.4467 C   0  0  0  0  0  0  0  0  0  0  0  0
  -24.8067  -26.2659   22.6586 C   0  0  0  0  0  0  0  0  0  0  0  0
  -20.0454  -31.6916   22.7160 C   0  0  0  0  0  0  0  0  0  0  0  0
  -29.4371  -12.5525   18.0377 C   0  0  0  0  0  0  0  0  0  0  0  0
  -21.1358  -31.2469   21.7463 C   0  0  0  0  0  0  0  0  0  0  0  0
  -23.4109  -18.4507   16.2243 C   0  0  0  0  0  0  0  0  0  0  0  0
  -22.3737  -17.5792   16.8758 C   0  0  0  0  0  0  0  0  0  0  0  0
  -28.0250  -12.2591   18.5474 C   0  0  0  0  0  0  0  0  0  0  0  0
  -30.4510  -12.5976   19.1787 C   0  0  0  0  0  0  0  0  0  0  0  0
  -28.6929  -13.2240   20.7883 C   0  0  0  0  0  0  0  0  0  0  0  0
  -20.9044  -29.8046   21.2797 C   0  0  1  0  0  0  0  0  0  0  0  0
  -22.8085  -27.4710   23.5952 C   0  0  1  0  0  0  0  0  0  0  0  0
  -22.7693  -18.8819   17.5140 C   0  0  0  0  0  0  0  0  0  0  0  0
  -27.6260  -13.2240   19.6801 C   0  0  2  0  0  0  0  0  0  0  0  0
  -29.3082  -25.6699   27.4048 C   0  0  0  0  0  0  0  0  0  0  0  0
  -27.6305  -18.1145   18.0784 C   0  0  0  0  0  0  0  0  0  0  0  0
  -28.1519  -20.5769   17.8122 C   0  0  0  0  0  0  0  0  0  0  0  0
  -26.7795  -29.6953   22.7926 C   0  0  0  0  0  0  0  0  0  0  0  0
  -28.7897  -28.7704   23.9639 C   0  0  0  0  0  0  0  0  0  0  0  0
  -27.0771  -30.0490   25.2504 C   0  0  0  0  0  0  0  0  0  0  0  0
  -26.1893  -23.5139   27.0877 C   0  0  0  0  0  0  0  0  0  0  0  0
  -28.9625  -19.4112   20.6454 C   0  0  0  0  0  0  0  0  0  0  0  0
  -23.5629  -18.8887   18.7887 C   0  0  0  0  0  0  0  0  0  0  0  0
  -31.1069  -16.5816   22.0532 C   0  0  0  0  0  0  0  0  0  0  0  0
  -30.8034  -17.8392   21.2604 C   0  0  0  0  0  0  0  0  0  0  0  0
  -23.2753  -21.2945   19.5081 C   0  0  0  0  0  0  0  0  0  1  0  0
  -24.2832  -20.2292   19.0451 C   0  0  1  0  0  0  0  0  0  0  0  0
  -26.5306  -27.7190   24.4352 C   0  0  1  0  0  0  0  0  0  0  0  0
  -27.8410  -25.3873   27.1214 C   0  0  2  0  0  0  0  0  0  0  0  0
  -27.1257  -19.5443   18.2823 C   0  0  0  0  0  0  0  0  0  0  0  0
  -27.2758  -29.0411   24.0974 C   0  0  0  0  0  0  0  0  0  0  0  0
  -25.8211  -11.6355   20.2292 N   0  0  0  0  0  0  0  0  0  0  0  0
  -26.7056  -19.7808   19.6475 N   0  0  0  0  0  0  0  0  0  0  0  0
  -26.2427  -12.9115   20.2203 N   0  0  0  0  0  0  0  0  0  0  0  0
  -24.2414  -27.1779   23.6667 N   0  0  0  0  0  0  0  0  0  0  0  0
  -30.0142  -13.5321   20.2189 N   0  0  0  0  0  0  0  0  0  0  0  0
  -25.5949  -15.1189   20.7847 N   0  0  0  0  0  0  0  0  0  0  0  0
  -22.0058  -12.6453   21.9663 N   0  0  0  0  0  0  0  0  0  0  0  0
  -21.3115  -28.8697   22.3065 N   0  0  0  0  0  0  0  0  0  0  0  0
  -26.9613  -27.0915   25.6799 N   0  0  0  0  0  0  0  0  0  0  0  0
  -30.3614  -15.4389   21.5743 N   0  0  0  0  0  0  0  0  0  0  0  0
  -27.5980  -23.9293   27.3117 N   0  3  0  0  0  0  0  0  0  0  0  0
  -29.3692  -18.1907   21.4061 N   0  3  0  0  0  0  0  0  0  0  0  0
  -22.8506  -14.7752   21.8744 O   0  0  0  0  0  0  0  0  0  0  0  0
  -23.5785  -28.7742   21.7831 O   0  0  0  0  0  0  0  0  0  0  0  0
  -24.5959  -28.6854   25.4096 O   0  0  0  0  0  0  0  0  0  0  0  0
  -27.5944  -25.0688   24.7391 O   0  0  0  0  0  0  0  0  0  0  0  0
  -31.9594  -14.7854   20.0655 O   0  0  0  0  0  0  0  0  0  0  0  0
  -21.4996   -7.1213   21.4521 O   0  0  0  0  0  0  0  0  0  0  0  0
  -23.9200  -22.5654   19.5832 O   0  0  0  0  0  0  0  0  0  1  0  0
  -18.8624   -6.5176   26.2568 F   0  0  0  0  0  0  0  0  0  0  0  0
  -22.0080   -4.9501   23.0861 F   0  0  0  0  0  0  0  0  0  0  0  0
  1  2  1  0  0  0  0
  1  5  2  0  0  0  0
  2  6  2  0  0  0  0
  3  8  2  0  0  0  0
  3 17  1  0  0  0  0
  4  9  1  0  0  0  0
  4 17  2  0  0  0  0
  5 19  1  0  0  0  0
  6 21  1  0  0  0  0
  7 10  2  0  0  0  0
  7 20  1  0  0  0  0
  8 23  1  0  0  0  0
  9 23  2  0  0  0  0
 10 24  1  0  0  0  0
 11 12  2  0  0  0  0
 11 25  1  0  0  0  0
 12 26  1  0  0  0  0
 13 14  1  0  0  0  0
 13 29  2  0  0  0  0
 14 30  2  0  0  0  0
 15 22  1  0  0  0  0
 15 24  2  0  0  0  0
 16 26  2  0  0  0  0
 16 27  1  0  0  0  0
 17 28  1  0  0  0  0
 18 28  1  0  0  0  0
 18 31  2  0  0  0  0
 18 32  1  0  0  0  0
 19 21  2  0  0  0  0
 19 37  1  0  0  0  0
 20 22  2  0  0  0  0
 20 38  1  0  0  0  0
 21 48  1  0  0  0  0
 22 39  1  0  0  0  0
 23 86  1  0  0  0  0
 24 87  1  0  0  0  0
 25 27  2  0  0  0  0
 25 86  1  0  0  0  0
 26 88  1  0  0  0  0
 27 89  1  0  0  0  0
 28 69  2  0  0  0  0
 29 59  1  0  0  0  0
 29 70  1  0  0  0  0
 30 64  1  0  0  0  0
 30 70  1  0  0  0  0
 31 71  1  0  0  0  0
 31 74  1  0  0  0  0
 32 75  1  0  0  0  0
 32 81  2  0  0  0  0
 33 49  1  0  0  0  0
 33 76  1  0  0  0  0
 33 82  2  0  0  0  0
 34 65  1  0  0  0  0
 34 72  1  0  0  0  0
 34 83  2  0  0  0  0
 35 66  1  0  0  0  0
 35 77  1  0  0  0  0
 35 84  2  0  0  0  0
 36 73  1  0  0  0  0
 36 78  1  0  0  0  0
 36 85  2  0  0  0  0
 37 40  1  0  0  0  0
 38 49  1  0  0  0  0
 39 72  1  0  0  0  0
 40 42  1  0  0  0  0
 41 45  1  0  0  0  0
 41 46  1  0  0  0  0
 42 48  1  0  0  0  0
 43 44  1  0  0  0  0
 43 50  1  0  0  0  0
 44 50  1  0  0  0  0
 45 51  1  0  0  0  0
 46 73  1  0  0  0  0
 47 51  1  0  0  0  0
 47 73  1  0  0  0  0
 48 76  1  0  0  0  0
 49 72  1  0  0  0  0
 50 60  1  0  0  0  0
 51 71  1  0  0  0  0
 52 66  1  0  0  0  0
 53 67  1  0  0  0  0
 54 67  1  0  0  0  0
 55 68  1  0  0  0  0
 56 68  1  0  0  0  0
 57 68  1  0  0  0  0
 58 79  1  0  0  0  0
 59 80  1  0  0  0  0
 60 64  1  0  0  0  0
 61 62  1  0  0  0  0
 61 78  1  0  0  0  0
 62 80  1  0  0  0  0
 63 64  1  0  0  0  0
 63 87  1  0  0  0  0
 65 68  1  0  0  0  0
 65 77  1  0  0  0  0
 66 79  1  0  0  0  0
 67 70  1  0  0  0  0
 69 71  1  0  0  0  0
M  CHG  2  79   1  80   1
M  ISO  4  36 100  63 101  78 100  87 101
M  END
> <Batch ID>
0124

> <Smiles>
CNC(C)C(=O)NC(C(=O)N1Cc2cc([101O:1][101CH2:1]C(CC3CC3)c3ccc(CNCC[100NH:0][100C:0](=O)N4CCCC(n5nc(-c6ccc(Oc7ccc(F)cc7F)cc6)c(C(N)=O)c5N)C4)n3C(C)C)ccc2CC1C(=O)NC1CCCc2ccccc21)C(C)(C)C

> <Shape>
0.252

> <Color>
0.197

> <Negative vol penalty>
0.000

$$$$

  -OEChem-04052320333D

 80 88  0     1  0  0  0  0  0999 V2000
  -26.1558  -32.6192   22.5770 C   0  0  0  0  0  0  0  0  0  0  0  0
  -27.1034  -31.6987   23.0130 C   0  0  0  0  0  0  0  0  0  0  0  0
  -23.7091   -9.7945   21.3598 C   0  0  0  0  0  0  0  0  0  0  0  0
  -24.3192  -10.7716   23.4835 C   0  0  0  0  0  0  0  0  0  0  0  0
  -25.1014  -32.2014   21.7660 C   0  0  0  0  0  0  0  0  0  0  0  0
  -26.9966  -30.3595   22.6391 C   0  0  0  0  0  0  0  0  0  0  0  0
  -31.0441  -24.6533   21.0987 C   0  0  0  0  0  0  0  0  0  0  0  0
  -23.1650   -8.6943   22.0223 C   0  0  0  0  0  0  0  0  0  0  0  0
  -23.7750   -9.6714   24.1461 C   0  0  0  0  0  0  0  0  0  0  0  0
  -31.1976  -23.3140   21.4543 C   0  0  0  0  0  0  0  0  0  0  0  0
  -22.2240   -7.2886   26.4121 C   0  0  0  0  0  0  0  0  0  0  0  0
  -21.4191   -7.5335   27.5247 C   0  0  0  0  0  0  0  0  0  0  0  0
  -29.3782  -22.7217   19.9853 C   0  0  0  0  0  0  0  0  0  0  0  0
  -19.9003   -8.8092   26.1451 C   0  0  0  0  0  0  0  0  0  0  0  0
  -30.6844  -17.2147   23.3543 C   0  0  0  0  0  0  0  0  0  0  0  0
  -32.5653  -18.4819   21.8370 C   0  0  0  0  0  0  0  0  0  0  0  0
  -24.2863  -10.8332   22.0904 C   0  0  0  0  0  0  0  0  0  0  0  0
  -24.1877  -13.1599   21.0492 C   0  0  0  0  0  0  0  0  0  0  0  0
  -24.9870  -30.8583   21.3741 C   0  0  0  0  0  0  0  0  0  0  0  0
  -30.0477  -25.0389   20.1904 C   0  0  0  0  0  0  0  0  0  0  0  0
  -25.9389  -29.9232   21.8232 C   0  0  0  0  0  0  0  0  0  0  0  0
  -29.2158  -24.0662   19.6178 C   0  0  0  0  0  0  0  0  0  0  0  0
  -31.5616  -19.2456   22.4107 C   0  0  0  0  0  0  0  0  0  0  0  0
  -23.1979   -8.6327   23.4154 C   0  0  0  0  0  0  0  0  0  0  0  0
  -30.3627  -22.3483   20.8999 C   0  0  0  0  0  0  0  0  0  0  0  0
  -21.8671   -7.8040   25.1660 C   0  0  0  0  0  0  0  0  0  0  0  0
  -20.2573   -8.2938   27.3912 C   0  0  0  0  0  0  0  0  0  0  0  0
  -20.7052   -8.5643   25.0325 C   0  0  0  0  0  0  0  0  0  0  0  0
  -30.6071  -18.5923   23.1824 C   0  0  0  0  0  0  0  0  0  0  0  0
  -24.8491  -11.9697   21.4066 C   0  0  0  0  0  0  0  0  0  0  0  0
  -31.7272  -16.5419   22.7382 C   0  0  0  0  0  0  0  0  0  0  0  0
  -25.1514  -13.9145   20.4261 C   0  0  0  0  0  0  0  0  0  0  0  0
  -22.8241  -13.5487   21.2616 C   0  0  0  0  0  0  0  0  0  0  0  0
  -27.4875  -26.9174   20.3332 C   0  0  0  0  0  0  0  0  0  0  0  0
  -27.3483  -26.3128   17.1493 C   0  0  0  0  0  0  0  0  0  0  0  0
  -28.1522  -24.2466   14.5548 C   0  0  0  0  0  0  0  0  0  0  0  0
  -31.1282  -13.9931   20.7777 C   0  0  0  0  0  0  0  0  0  0  0  0
  -23.8035  -30.4451   20.5354 C   0  0  0  0  0  0  0  0  0  0  0  0
  -29.9125  -26.4843   19.7967 C   0  0  0  0  0  0  0  0  0  0  0  0
  -28.1439  -24.4255   18.6226 C   0  0  0  0  0  0  0  0  0  0  0  0
  -23.9715  -29.0785   19.8763 C   0  0  0  0  0  0  0  0  0  0  0  0
  -29.1622  -13.4832   17.8534 C   0  0  0  0  0  0  0  0  0  0  0  0
  -24.4921  -28.0597   20.8852 C   0  0  0  0  0  0  0  0  0  0  0  0
  -27.7742  -13.1449   18.4002 C   0  0  0  0  0  0  0  0  0  0  0  0
  -30.2705  -12.8997   18.7270 C   0  0  0  0  0  0  0  0  0  0  0  0
  -28.7971  -12.9174   20.7025 C   0  0  0  0  0  0  0  0  0  0  0  0
  -25.8711  -28.4665   21.4186 C   0  0  1  0  0  0  0  0  0  0  0  0
  -28.5291  -26.8288   19.2538 C   0  0  1  0  0  0  0  0  0  0  0  0
  -27.6472  -13.5317   19.8860 C   0  0  2  0  0  0  0  0  0  0  0  0
  -27.8683  -23.9977   12.0739 C   0  0  0  0  0  0  0  0  0  0  0  0
  -24.4603  -25.4236   17.5714 C   0  0  0  0  0  0  0  0  0  0  0  0
  -24.5446  -24.3214   15.3250 C   0  0  0  0  0  0  0  0  0  0  0  0
  -24.8403  -26.7912   15.5124 C   0  0  0  0  0  0  0  0  0  0  0  0
  -31.0741  -24.3418   14.0940 C   0  0  0  0  0  0  0  0  0  0  0  0
  -31.5403  -20.7284   22.1825 C   0  0  0  0  0  0  0  0  0  1  0  0
  -31.8412  -15.0628   22.9006 C   0  0  0  0  0  0  0  0  0  0  0  0
  -26.6949  -25.2584   16.2889 C   0  0  1  0  0  0  0  0  0  0  0  0
  -28.7533  -24.5304   13.1901 C   0  0  2  0  0  0  0  0  0  0  0  0
  -25.1539  -25.4418   16.1946 C   0  0  0  0  0  0  0  0  0  0  0  0
  -32.6731  -17.1420   21.9814 N   0  0  0  0  0  0  0  0  0  0  0  0
  -26.1337  -11.9639   21.0408 N   0  0  0  0  0  0  0  0  0  0  0  0
  -26.2872  -13.1597   20.4470 N   0  0  0  0  0  0  0  0  0  0  0  0
  -28.0470  -25.8527   18.2745 N   0  0  0  0  0  0  0  0  0  0  0  0
  -30.0928  -13.3055   20.1234 N   0  0  0  0  0  0  0  0  0  0  0  0
  -25.1297  -15.1434   19.8678 N   0  0  0  0  0  0  0  0  0  0  0  0
  -21.9686  -12.6536   21.9183 N   0  0  0  0  0  0  0  0  0  0  0  0
  -26.8989  -28.1625   20.4462 N   0  0  0  0  0  0  0  0  0  0  0  0
  -27.3813  -25.2986   15.0021 N   0  0  0  0  0  0  0  0  0  0  0  0
  -30.8754  -14.3463   22.0976 N   0  0  0  0  0  0  0  0  0  0  0  0
  -30.0946  -23.8916   13.0718 N   0  3  0  0  0  0  0  0  0  0  0  0
  -22.3733  -14.6503   20.8657 O   0  0  0  0  0  0  0  0  0  0  0  0
  -27.2355  -25.9289   21.0122 O   0  0  0  0  0  0  0  0  0  0  0  0
  -27.2487  -27.5003   16.8307 O   0  0  0  0  0  0  0  0  0  0  0  0
  -28.3441  -23.1951   15.1616 O   0  0  0  0  0  0  0  0  0  0  0  0
  -32.1964  -14.2763   20.2249 O   0  0  0  0  0  0  0  0  0  0  0  0
  -22.6668   -7.5593   24.0623 O   0  0  0  0  0  0  0  0  0  0  0  0
  -30.5099  -21.0405   21.2458 O   0  0  0  0  0  0  0  0  0  1  0  0
  -19.4837   -8.5276   28.4594 F   0  0  0  0  0  0  0  0  0  0  0  0
  -20.3566   -9.0611   23.8378 F   0  0  0  0  0  0  0  0  0  0  0  0
  -29.3194  -19.4563   23.9376 Cl  0  0  0  0  0  0  0  0  0  0  0  0
  1  2  1  0  0  0  0
  1  5  2  0  0  0  0
  2  6  2  0  0  0  0
  3  8  2  0  0  0  0
  3 17  1  0  0  0  0
  4  9  1  0  0  0  0
  4 17  2  0  0  0  0
  5 19  1  0  0  0  0
  6 21  1  0  0  0  0
  7 10  2  0  0  0  0
  7 20  1  0  0  0  0
  8 24  1  0  0  0  0
  9 24  2  0  0  0  0
 10 25  1  0  0  0  0
 11 12  2  0  0  0  0
 11 26  1  0  0  0  0
 12 27  1  0  0  0  0
 13 22  1  0  0  0  0
 13 25  2  0  0  0  0
 14 27  2  0  0  0  0
 14 28  1  0  0  0  0
 15 29  1  0  0  0  0
 15 31  2  0  0  0  0
 16 23  1  0  0  0  0
 16 60  2  0  0  0  0
 17 30  1  0  0  0  0
 18 30  1  0  0  0  0
 18 32  2  0  0  0  0
 18 33  1  0  0  0  0
 19 21  2  0  0  0  0
 19 38  1  0  0  0  0
 20 22  2  0  0  0  0
 20 39  1  0  0  0  0
 21 47  1  0  0  0  0
 22 40  1  0  0  0  0
 23 29  2  0  0  0  0
 23 55  1  0  0  0  0
 24 76  1  0  0  0  0
 25 77  1  0  0  0  0
 26 28  2  0  0  0  0
 26 76  1  0  0  0  0
 27 78  1  0  0  0  0
 28 79  1  0  0  0  0
 29 80  1  0  0  0  0
 30 61  2  0  0  0  0
 31 56  1  0  0  0  0
 31 60  1  0  0  0  0
 32 62  1  0  0  0  0
 32 65  1  0  0  0  0
 33 66  1  0  0  0  0
 33 71  2  0  0  0  0
 34 48  1  0  0  0  0
 34 67  1  0  0  0  0
 34 72  2  0  0  0  0
 35 57  1  0  0  0  0
 35 63  1  0  0  0  0
 35 73  2  0  0  0  0
 36 58  1  0  0  0  0
 36 68  1  0  0  0  0
 36 74  2  0  0  0  0
 37 64  1  0  0  0  0
 37 69  1  0  0  0  0
 37 75  2  0  0  0  0
 38 41  1  0  0  0  0
 39 48  1  0  0  0  0
 40 63  1  0  0  0  0
 41 43  1  0  0  0  0
 42 44  1  0  0  0  0
 42 45  1  0  0  0  0
 43 47  1  0  0  0  0
 44 49  1  0  0  0  0
 45 64  1  0  0  0  0
 46 49  1  0  0  0  0
 46 64  1  0  0  0  0
 47 67  1  0  0  0  0
 48 63  1  0  0  0  0
 49 62  1  0  0  0  0
 50 58  1  0  0  0  0
 51 59  1  0  0  0  0
 52 59  1  0  0  0  0
 53 59  1  0  0  0  0
 54 70  1  0  0  0  0
 55 77  1  0  0  0  0
 56 69  1  0  0  0  0
 57 59  1  0  0  0  0
 57 68  1  0  0  0  0
 58 70  1  0  0  0  0
 61 62  1  0  0  0  0
M  CHG  1  70   1
M  ISO  4  37 100  55 101  69 100  77 101
M  END
> <Batch ID>
0124

> <Smiles>
CNC(C)C(=O)NC(C(=O)N1Cc2cc([101O:1][101CH2:1]c3cnc(C[100NH:0][100C:0](=O)N4CCCC(n5nc(-c6ccc(Oc7ccc(F)cc7F)cc6)c(C(N)=O)c5N)C4)cc3Cl)ccc2CC1C(=O)NC1CCCc2ccccc21)C(C)(C)C

> <Shape>
0.256

> <Color>
0.150

> <Negative vol penalty>
0.000

$$$$

  -OEChem-04052320333D

 87 96  0     1  0  0  0  0  0999 V2000
  -26.0710  -21.3475   27.6632 C   0  0  0  0  0  0  0  0  0  0  0  0
  -25.2050  -20.9660   26.6434 C   0  0  0  0  0  0  0  0  0  0  0  0
  -30.8939  -20.3384   19.5617 C   0  0  0  0  0  0  0  0  0  0  0  0
  -28.5936  -19.9740   20.2040 C   0  0  0  0  0  0  0  0  0  0  0  0
  -26.1908  -22.6932   28.0075 C   0  0  0  0  0  0  0  0  0  0  0  0
  -24.4574  -21.9301   25.9681 C   0  0  0  0  0  0  0  0  0  0  0  0
  -24.5065  -21.2542   20.8659 C   0  0  0  0  0  0  0  0  0  0  0  0
  -30.5424  -21.5651   18.9984 C   0  0  0  0  0  0  0  0  0  0  0  0
  -28.2420  -21.2007   19.6408 C   0  0  0  0  0  0  0  0  0  0  0  0
  -23.6869  -20.2669   20.3205 C   0  0  0  0  0  0  0  0  0  0  0  0
  -30.3136  -24.9568   17.7105 C   0  0  0  0  0  0  0  0  0  0  0  0
  -31.1334  -26.0528   17.9795 C   0  0  0  0  0  0  0  0  0  0  0  0
  -22.0400  -21.9432   19.7767 C   0  0  0  0  0  0  0  0  0  0  0  0
  -30.6981  -25.7983   20.3424 C   0  0  0  0  0  0  0  0  0  0  0  0
  -29.9195  -19.5428   20.1644 C   0  0  0  0  0  0  0  0  0  0  0  0
  -31.1984  -18.0503   21.7906 C   0  0  0  0  0  0  0  0  0  0  0  0
  -25.4515  -23.6753   27.3295 C   0  0  0  0  0  0  0  0  0  0  0  0
  -24.0941  -22.5945   20.8804 C   0  0  0  0  0  0  0  0  0  0  0  0
  -24.5664  -23.2901   26.3046 C   0  0  0  0  0  0  0  0  0  0  0  0
  -22.8583  -22.9461   20.3185 C   0  0  0  0  0  0  0  0  0  0  0  0
  -29.2164  -21.9963   19.0380 C   0  0  0  0  0  0  0  0  0  0  0  0
  -22.4525  -20.6111   19.7778 C   0  0  0  0  0  0  0  0  0  0  0  0
  -29.6860  -24.2816   18.7573 C   0  0  0  0  0  0  0  0  0  0  0  0
  -31.3257  -26.4735   19.2954 C   0  0  0  0  0  0  0  0  0  0  0  0
  -29.8783  -24.7024   20.0733 C   0  0  0  0  0  0  0  0  0  0  0  0
  -30.2820  -18.2754   20.7460 C   0  0  0  0  0  0  0  0  0  0  0  0
  -31.1857  -16.6888   21.9713 C   0  0  0  0  0  0  0  0  0  0  0  0
  -31.9903  -18.9882   22.5316 C   0  0  0  0  0  0  0  0  0  0  0  0
  -23.5171  -24.8189   23.1085 C   0  0  0  0  0  0  0  0  0  0  0  0
  -21.5651  -14.1657   20.1191 C   0  0  0  0  0  0  0  0  0  0  0  0
  -23.1478  -26.6990   20.3915 C   0  0  0  0  0  0  0  0  0  0  0  0
  -23.2319  -29.4801   22.3658 C   0  0  0  0  0  0  0  0  0  0  0  0
  -27.1014  -12.4622   20.8289 C   0  0  0  0  0  0  0  0  0  0  0  0
  -25.5792  -25.1124   27.7689 C   0  0  0  0  0  0  0  0  0  0  0  0
  -25.0068  -23.6486   21.4464 C   0  0  0  0  0  0  0  0  0  0  0  0
  -22.3722  -24.3702   20.3062 C   0  0  0  0  0  0  0  0  0  0  0  0
  -25.0316  -26.1111   26.7525 C   0  0  0  0  0  0  0  0  0  0  0  0
  -18.6026  -17.6141   18.3588 C   0  0  0  0  0  0  0  0  0  0  0  0
  -19.2569  -18.4639   17.2856 C   0  0  0  0  0  0  0  0  0  0  0  0
  -30.4386  -12.6034   19.5960 C   0  0  0  0  0  0  0  0  0  0  0  0
  -23.6642  -25.6625   26.2468 C   0  0  0  0  0  0  0  0  0  0  0  0
  -30.8596  -14.0527   19.8452 C   0  0  0  0  0  0  0  0  0  0  0  0
  -19.6961  -17.4931   19.4103 C   0  0  0  0  0  0  0  0  0  0  0  0
  -20.6654  -17.8908   17.1877 C   0  0  0  0  0  0  0  0  0  0  0  0
  -23.2997  -14.0775   21.9297 C   0  0  0  0  0  0  0  0  0  0  0  0
  -28.9672  -12.5032   19.1999 C   0  0  0  0  0  0  0  0  0  0  0  0
  -28.4497  -14.6022   20.3831 C   0  0  0  0  0  0  0  0  0  0  0  0
  -22.8757  -11.7737   22.3125 C   0  0  0  0  0  0  0  0  0  0  0  0
  -23.7570  -24.3090   25.5320 C   0  0  1  0  0  0  0  0  0  0  0  0
  -24.2860  -24.9412   21.8235 C   0  0  1  0  0  0  0  0  0  0  0  0
  -21.8411  -13.8500   21.5521 C   0  0  2  0  0  0  0  0  0  0  0  0
  -23.9452  -12.7043   21.7701 C   0  0  2  0  0  0  0  0  0  0  0  0
  -29.9113  -14.7490   20.8398 C   0  0  2  0  0  0  0  0  0  0  0  0
  -21.0154  -17.3944   18.6112 C   0  0  0  0  0  0  0  0  0  0  0  0
  -23.3510  -31.9835   22.2383 C   0  0  0  0  0  0  0  0  0  0  0  0
  -26.1168  -26.5198   19.7145 C   0  0  0  0  0  0  0  0  0  0  0  0
  -26.3713  -28.8752   20.5242 C   0  0  0  0  0  0  0  0  0  0  0  0
  -24.8969  -28.3812   18.5736 C   0  0  0  0  0  0  0  0  0  0  0  0
  -20.6273  -29.7898   23.7367 C   0  0  0  0  0  0  0  0  0  0  0  0
  -25.2704  -12.5750   22.5004 C   0  0  0  0  0  0  0  0  0  0  0  0
  -22.0977  -18.2736   19.2496 C   0  0  0  0  0  0  0  0  0  1  0  0
  -21.5126  -15.9428   18.5625 C   0  0  0  0  0  0  0  0  0  0  0  0
  -24.1507  -27.7075   20.8934 C   0  0  1  0  0  0  0  0  0  0  0  0
  -22.4357  -30.7718   22.3211 C   0  0  2  0  0  0  0  0  0  0  0  0
  -25.3732  -27.8508   19.9435 C   0  0  0  0  0  0  0  0  0  0  0  0
  -29.7276  -17.1472   20.2945 N   0  0  0  0  0  0  0  0  0  0  0  0
  -30.2973  -16.2001   21.0591 N   0  0  0  0  0  0  0  0  0  0  0  0
  -23.3326  -25.3695   20.7920 N   0  0  0  0  0  0  0  0  0  0  0  0
  -28.1215  -13.1817   20.1849 N   0  0  0  0  0  0  0  0  0  0  0  0
  -31.8479  -15.8740   22.8197 N   0  0  0  0  0  0  0  0  0  0  0  0
  -31.4500  -19.5428   23.6999 N   0  0  0  0  0  0  0  0  0  0  0  0
  -24.2943  -24.4774   24.1988 N   0  0  0  0  0  0  0  0  0  0  0  0
  -23.4114  -28.9469   21.1069 N   0  0  0  0  0  0  0  0  0  0  0  0
  -26.3507  -13.1789   21.7527 N   0  0  0  0  0  0  0  0  0  0  0  0
  -21.6003  -12.3851   21.8128 N   0  3  0  0  0  0  0  0  0  0  0  0
  -21.5919  -30.9028   23.5425 N   0  3  0  0  0  0  0  0  0  0  0  0
  -33.1364  -19.3369   22.1596 O   0  0  0  0  0  0  0  0  0  0  0  0
  -22.3085  -25.0210   23.1110 O   0  0  0  0  0  0  0  0  0  0  0  0
  -21.2307  -13.3339   19.2864 O   0  0  0  0  0  0  0  0  0  0  0  0
  -22.2294  -27.0756   19.6581 O   0  0  0  0  0  0  0  0  0  0  0  0
  -23.6556  -28.9947   23.4124 O   0  0  0  0  0  0  0  0  0  0  0  0
  -26.8797  -11.2680   20.6015 O   0  0  0  0  0  0  0  0  0  0  0  0
  -28.8730  -23.1933   18.4887 O   0  0  0  0  0  0  0  0  0  0  0  0
  -21.6507  -19.6496   19.2443 O   0  0  0  0  0  0  0  0  0  1  0  0
  -21.7421  -15.5051   19.8878 O   0  0  0  0  0  0  0  0  0  0  0  0
  -32.1142  -27.5250   19.5538 F   0  0  0  0  0  0  0  0  0  0  0  0
  -29.2789  -24.0570   21.0833 F   0  0  0  0  0  0  0  0  0  0  0  0
  1  2  1  0  0  0  0
  1  5  2  0  0  0  0
  2  6  2  0  0  0  0
  3  8  2  0  0  0  0
  3 15  1  0  0  0  0
  4  9  1  0  0  0  0
  4 15  2  0  0  0  0
  5 17  1  0  0  0  0
  6 19  1  0  0  0  0
  7 10  2  0  0  0  0
  7 18  1  0  0  0  0
  8 21  1  0  0  0  0
  9 21  2  0  0  0  0
 10 22  1  0  0  0  0
 11 12  2  0  0  0  0
 11 23  1  0  0  0  0
 12 24  1  0  0  0  0
 13 20  1  0  0  0  0
 13 22  2  0  0  0  0
 14 24  2  0  0  0  0
 14 25  1  0  0  0  0
 15 26  1  0  0  0  0
 16 26  1  0  0  0  0
 16 27  2  0  0  0  0
 16 28  1  0  0  0  0
 17 19  2  0  0  0  0
 17 34  1  0  0  0  0
 18 20  2  0  0  0  0
 18 35  1  0  0  0  0
 19 49  1  0  0  0  0
 20 36  1  0  0  0  0
 21 83  1  0  0  0  0
 22 84  1  0  0  0  0
 23 25  2  0  0  0  0
 23 83  1  0  0  0  0
 24 86  1  0  0  0  0
 25 87  1  0  0  0  0
 26 66  2  0  0  0  0
 27 67  1  0  0  0  0
 27 70  1  0  0  0  0
 28 71  1  0  0  0  0
 28 77  2  0  0  0  0
 29 50  1  0  0  0  0
 29 72  1  0  0  0  0
 29 78  2  0  0  0  0
 30 51  1  0  0  0  0
 30 79  2  0  0  0  0
 30 85  1  0  0  0  0
 31 63  1  0  0  0  0
 31 68  1  0  0  0  0
 31 80  2  0  0  0  0
 32 64  1  0  0  0  0
 32 73  1  0  0  0  0
 32 81  2  0  0  0  0
 33 69  1  0  0  0  0
 33 74  1  0  0  0  0
 33 82  2  0  0  0  0
 34 37  1  0  0  0  0
 35 50  1  0  0  0  0
 36 68  1  0  0  0  0
 37 41  1  0  0  0  0
 38 39  1  0  0  0  0
 38 43  1  0  0  0  0
 39 44  1  0  0  0  0
 40 42  1  0  0  0  0
 40 46  1  0  0  0  0
 41 49  1  0  0  0  0
 42 53  1  0  0  0  0
 43 54  1  0  0  0  0
 44 54  1  0  0  0  0
 45 51  1  0  0  0  0
 45 52  1  0  0  0  0
 46 69  1  0  0  0  0
 47 53  1  0  0  0  0
 47 69  1  0  0  0  0
 48 52  1  0  0  0  0
 48 75  1  0  0  0  0
 49 72  1  0  0  0  0
 50 68  1  0  0  0  0
 51 75  1  0  0  0  0
 52 60  1  0  0  0  0
 53 67  1  0  0  0  0
 54 61  1  0  0  0  0
 54 62  1  0  0  0  0
 55 64  1  0  0  0  0
 56 65  1  0  0  0  0
 57 65  1  0  0  0  0
 58 65  1  0  0  0  0
 59 76  1  0  0  0  0
 60 74  1  0  0  0  0
 61 84  1  0  0  0  0
 62 85  1  0  0  0  0
 63 65  1  0  0  0  0
 63 73  1  0  0  0  0
 64 76  1  0  0  0  0
 66 67  1  0  0  0  0
M  CHG  2  75   1  76   1
M  ISO  4  33 100  61 101  74 100  84 101
M  END
> <Batch ID>
0124

> <Smiles>
CNC(C)C(=O)NC(C(=O)N1Cc2cc([101O:1][101CH2:1]C3(COC(=O)C4CC(C[100NH:0][100C:0](=O)N5CCCC(n6nc(-c7ccc(Oc8ccc(F)cc8F)cc7)c(C(N)=O)c6N)C5)CN4)CCCC3)ccc2CC1C(=O)NC1CCCc2ccccc21)C(C)(C)C

> <Shape>
0.231

> <Color>
0.065

> <Negative vol penalty>
0.000

$$$$

  -OEChem-04052320333D

 84 93  0     1  0  0  0  0  0999 V2000
  -21.9947  -12.2616   19.3360 C   0  0  0  0  0  0  0  0  0  0  0  0
  -21.8968  -13.6472   19.2587 C   0  0  0  0  0  0  0  0  0  0  0  0
  -19.7384  -19.3334   21.0965 C   0  0  0  0  0  0  0  0  0  0  0  0
  -25.1320  -29.5919   20.3597 C   0  0  0  0  0  0  0  0  0  0  0  0
  -25.5686  -27.2420   20.0070 C   0  0  0  0  0  0  0  0  0  0  0  0
  -23.0695  -11.6760   20.0036 C   0  0  0  0  0  0  0  0  0  0  0  0
  -22.8732  -14.4481   19.8499 C   0  0  0  0  0  0  0  0  0  0  0  0
  -24.3475  -18.2498   16.8469 C   0  0  0  0  0  0  0  0  0  0  0  0
  -26.4950  -29.8162   20.5530 C   0  0  0  0  0  0  0  0  0  0  0  0
  -26.9317  -27.4663   20.2002 C   0  0  0  0  0  0  0  0  0  0  0  0
  -23.5035  -19.3561   16.7593 C   0  0  0  0  0  0  0  0  0  0  0  0
  -29.5331  -28.6760   18.4141 C   0  0  0  0  0  0  0  0  0  0  0  0
  -30.4200  -28.0772   17.5195 C   0  0  0  0  0  0  0  0  0  0  0  0
  -20.0284  -19.9474   19.8831 C   0  0  0  0  0  0  0  0  0  0  0  0
  -19.4515  -20.1120   22.2122 C   0  0  0  0  0  0  0  0  0  0  0  0
  -24.9039  -20.5411   18.3257 C   0  0  0  0  0  0  0  0  0  0  0  0
  -31.4546  -26.8809   19.3459 C   0  0  0  0  0  0  0  0  0  0  0  0
  -24.6687  -28.3048   20.0868 C   0  0  0  0  0  0  0  0  0  0  0  0
  -22.5545  -28.1235   18.6710 C   0  0  0  0  0  0  0  0  0  0  0  0
  -24.0647  -12.4700   20.5950 C   0  0  0  0  0  0  0  0  0  0  0  0
  -25.4720  -18.2770   17.6844 C   0  0  0  0  0  0  0  0  0  0  0  0
  -23.9617  -13.8726   20.5272 C   0  0  0  0  0  0  0  0  0  0  0  0
  -25.7621  -19.4348   18.4202 C   0  0  0  0  0  0  0  0  0  0  0  0
  -27.3949  -28.7534   20.4732 C   0  0  0  0  0  0  0  0  0  0  0  0
  -23.7800  -20.5008   17.5009 C   0  0  0  0  0  0  0  0  0  0  0  0
  -29.6069  -28.3773   19.7747 C   0  0  0  0  0  0  0  0  0  0  0  0
  -31.3808  -27.1797   17.9853 C   0  0  0  0  0  0  0  0  0  0  0  0
  -30.5676  -27.4797   20.2405 C   0  0  0  0  0  0  0  0  0  0  0  0
  -23.2608  -28.0724   19.8876 C   0  0  0  0  0  0  0  0  0  0  0  0
  -20.0186  -21.3322   19.8383 C   0  0  0  0  0  0  0  0  0  0  0  0
  -19.4677  -21.4894   22.0632 C   0  0  0  0  0  0  0  0  0  0  0  0
  -21.2574  -27.8301   19.0143 C   0  0  0  0  0  0  0  0  0  0  0  0
  -23.0285  -28.4105   17.3486 C   0  0  0  0  0  0  0  0  0  0  0  0
  -26.4179  -16.6163   20.2242 C   0  0  0  0  0  0  0  0  0  0  0  0
  -29.1354  -18.3498   19.8596 C   0  0  0  0  0  0  0  0  0  0  0  0
  -30.6312  -21.1753   18.6656 C   0  0  0  0  0  0  0  0  0  0  0  0
  -18.8326  -24.7937   23.5697 C   0  0  0  0  0  0  0  0  0  0  0  0
  -25.1829  -11.7922   21.3466 C   0  0  0  0  0  0  0  0  0  0  0  0
  -26.3873  -17.0851   17.7473 C   0  0  0  0  0  0  0  0  0  0  0  0
  -26.9679  -19.5221   19.3185 C   0  0  0  0  0  0  0  0  0  0  0  0
  -26.3731  -12.7071   21.6234 C   0  0  0  0  0  0  0  0  0  0  0  0
  -18.1802  -28.1740   22.6617 C   0  0  0  0  0  0  0  0  0  0  0  0
  -25.8978  -14.0538   22.1595 C   0  0  0  0  0  0  0  0  0  0  0  0
  -19.3446  -28.5359   21.7380 C   0  0  0  0  0  0  0  0  0  0  0  0
  -21.2099  -23.9247   17.3811 C   0  0  0  0  0  0  0  0  0  0  0  0
  -18.6244  -27.2518   23.7950 C   0  0  0  0  0  0  0  0  0  0  0  0
  -20.4925  -26.3926   22.4364 C   0  0  0  0  0  0  0  0  0  0  0  0
  -19.7087  -24.1273   17.4184 C   0  0  0  0  0  0  0  0  0  0  0  0
  -25.0140  -14.7748   21.1345 C   0  0  1  0  0  0  0  0  0  0  0  0
  -20.3278  -22.0323   18.5393 C   0  0  2  0  0  0  0  0  0  0  0  0
  -27.2194  -17.0376   19.0251 C   0  0  1  0  0  0  0  0  0  0  0  0
  -21.4749  -23.0526   18.6040 C   0  0  1  0  0  0  0  0  0  0  0  0
  -20.0822  -27.2762   21.2458 C   0  0  2  0  0  0  0  0  0  0  0  0
  -32.8569  -22.3289   18.5535 C   0  0  0  0  0  0  0  0  0  0  0  0
  -28.8515  -19.1764   22.7830 C   0  0  0  0  0  0  0  0  0  0  0  0
  -30.4919  -21.0174   22.3493 C   0  0  0  0  0  0  0  0  0  0  0  0
  -31.1884  -18.6380   22.0733 C   0  0  0  0  0  0  0  0  0  0  0  0
  -30.6521  -21.0988   15.7072 C   0  0  0  0  0  0  0  0  0  0  0  0
  -19.1642  -22.3564   23.2395 C   0  0  0  0  0  0  0  0  0  0  0  0
  -22.8546  -22.4102   18.5751 C   0  0  0  0  0  0  0  0  0  1  0  0
  -29.6326  -19.6791   20.3740 C   0  0  1  0  0  0  0  0  0  0  0  0
  -31.8978  -21.3784   17.8539 C   0  0  2  0  0  0  0  0  0  0  0  0
  -30.0172  -19.6257   21.8796 C   0  0  0  0  0  0  0  0  0  0  0  0
  -22.4773  -27.7704   20.9264 N   0  0  0  0  0  0  0  0  0  0  0  0
  -19.7447  -22.1219   20.9009 N   0  0  0  0  0  0  0  0  0  0  0  0
  -21.2652  -27.6292   20.3633 N   0  0  0  0  0  0  0  0  0  0  0  0
  -27.8290  -18.3284   19.3510 N   0  0  0  0  0  0  0  0  0  0  0  0
  -19.3157  -26.0759   23.2608 N   0  0  0  0  0  0  0  0  0  0  0  0
  -20.1222  -27.7270   18.2909 N   0  0  0  0  0  0  0  0  0  0  0  0
  -24.3905  -28.6907   17.1733 N   0  0  0  0  0  0  0  0  0  0  0  0
  -25.8275  -15.3734   20.0980 N   0  0  0  0  0  0  0  0  0  0  0  0
  -30.7249  -20.0755   19.4919 N   0  0  0  0  0  0  0  0  0  0  0  0
  -19.5425  -23.7343   23.0178 N   0  0  0  0  0  0  0  0  0  0  0  0
  -19.1706  -22.8454   17.9858 N   0  3  0  0  0  0  0  0  0  0  0  0
  -31.5697  -21.9433   16.5145 N   0  3  0  0  0  0  0  0  0  0  0  0
  -22.2639  -28.4344   16.3545 O   0  0  0  0  0  0  0  0  0  0  0  0
  -26.3421  -17.3631   21.1929 O   0  0  0  0  0  0  0  0  0  0  0  0
  -29.8812  -17.3681   19.9009 O   0  0  0  0  0  0  0  0  0  0  0  0
  -29.6575  -21.9202   18.5784 O   0  0  0  0  0  0  0  0  0  0  0  0
  -17.8389  -24.6069   24.2801 O   0  0  0  0  0  0  0  0  0  0  0  0
  -28.7251  -28.9720   20.6615 O   0  0  0  0  0  0  0  0  0  0  0  0
  -22.9575  -21.5818   17.4178 O   0  0  0  0  0  0  0  0  0  1  0  0
  -32.2314  -26.6036   17.1259 F   0  0  0  0  0  0  0  0  0  0  0  0
  -30.6426  -27.1879   21.5463 F   0  0  0  0  0  0  0  0  0  0  0  0
  1  2  1  0  0  0  0
  1  6  2  0  0  0  0
  2  7  2  0  0  0  0
  3 14  2  0  0  0  0
  3 15  1  0  0  0  0
  4  9  2  0  0  0  0
  4 18  1  0  0  0  0
  5 10  1  0  0  0  0
  5 18  2  0  0  0  0
  6 20  1  0  0  0  0
  7 22  1  0  0  0  0
  8 11  2  0  0  0  0
  8 21  1  0  0  0  0
  9 24  1  0  0  0  0
 10 24  2  0  0  0  0
 11 25  1  0  0  0  0
 12 13  2  0  0  0  0
 12 26  1  0  0  0  0
 13 27  1  0  0  0  0
 14 30  1  0  0  0  0
 15 31  2  0  0  0  0
 16 23  1  0  0  0  0
 16 25  2  0  0  0  0
 17 27  2  0  0  0  0
 17 28  1  0  0  0  0
 18 29  1  0  0  0  0
 19 29  1  0  0  0  0
 19 32  2  0  0  0  0
 19 33  1  0  0  0  0
 20 22  2  0  0  0  0
 20 38  1  0  0  0  0
 21 23  2  0  0  0  0
 21 39  1  0  0  0  0
 22 49  1  0  0  0  0
 23 40  1  0  0  0  0
 24 81  1  0  0  0  0
 25 82  1  0  0  0  0
 26 28  2  0  0  0  0
 26 81  1  0  0  0  0
 27 83  1  0  0  0  0
 28 84  1  0  0  0  0
 29 64  2  0  0  0  0
 30 50  1  0  0  0  0
 30 65  2  0  0  0  0
 31 59  1  0  0  0  0
 31 65  1  0  0  0  0
 32 66  1  0  0  0  0
 32 69  1  0  0  0  0
 33 70  1  0  0  0  0
 33 76  2  0  0  0  0
 34 51  1  0  0  0  0
 34 71  1  0  0  0  0
 34 77  2  0  0  0  0
 35 61  1  0  0  0  0
 35 67  1  0  0  0  0
 35 78  2  0  0  0  0
 36 62  1  0  0  0  0
 36 72  1  0  0  0  0
 36 79  2  0  0  0  0
 37 68  1  0  0  0  0
 37 73  1  0  0  0  0
 37 80  2  0  0  0  0
 38 41  1  0  0  0  0
 39 51  1  0  0  0  0
 40 67  1  0  0  0  0
 41 43  1  0  0  0  0
 42 44  1  0  0  0  0
 42 46  1  0  0  0  0
 43 49  1  0  0  0  0
 44 53  1  0  0  0  0
 45 48  1  0  0  0  0
 45 52  1  0  0  0  0
 46 68  1  0  0  0  0
 47 53  1  0  0  0  0
 47 68  1  0  0  0  0
 48 74  1  0  0  0  0
 49 71  1  0  0  0  0
 50 52  1  0  0  0  0
 50 74  1  0  0  0  0
 51 67  1  0  0  0  0
 52 60  1  0  0  0  0
 53 66  1  0  0  0  0
 54 62  1  0  0  0  0
 55 63  1  0  0  0  0
 56 63  1  0  0  0  0
 57 63  1  0  0  0  0
 58 75  1  0  0  0  0
 59 73  1  0  0  0  0
 60 82  1  0  0  0  0
 61 63  1  0  0  0  0
 61 72  1  0  0  0  0
 62 75  1  0  0  0  0
 64 66  1  0  0  0  0
M  CHG  2  74   1  75   1
M  ISO  4  37 100  60 101  73 100  82 101
M  END
> <Batch ID>
0124

> <Smiles>
CNC(C)C(=O)NC(C(=O)N1Cc2cc([101O:1][101CH2:1]C3CCNC3c3cccc(C[100NH:0][100C:0](=O)N4CCCC(n5nc(-c6ccc(Oc7ccc(F)cc7F)cc6)c(C(N)=O)c5N)C4)n3)ccc2CC1C(=O)NC1CCCc2ccccc21)C(C)(C)C

> <Shape>
0.190

> <Color>
0.073

> <Negative vol penalty>
0.000

$$$$

  -OEChem-04052320333D

 84 92  0     1  0  0  0  0  0999 V2000
  -17.5785  -18.1781    9.6417 C   0  0  0  0  0  0  0  0  0  0  0  0
  -18.3416  -17.8670   10.7625 C   0  0  0  0  0  0  0  0  0  0  0  0
  -23.0633   -9.9037   19.9555 C   0  0  0  0  0  0  0  0  0  0  0  0
  -23.8415   -9.8997   22.2428 C   0  0  0  0  0  0  0  0  0  0  0  0
  -18.2051  -18.5826    8.4636 C   0  0  0  0  0  0  0  0  0  0  0  0
  -19.7318  -17.9590   10.7056 C   0  0  0  0  0  0  0  0  0  0  0  0
  -23.4977  -19.6490   15.2297 C   0  0  0  0  0  0  0  0  0  0  0  0
  -31.5064  -19.8616   19.7768 C   0  0  0  0  0  0  0  0  0  0  0  0
  -22.3004   -8.7648   20.2130 C   0  0  0  0  0  0  0  0  0  0  0  0
  -23.0785   -8.7607   22.5003 C   0  0  0  0  0  0  0  0  0  0  0  0
  -24.2721  -18.9166   16.1285 C   0  0  0  0  0  0  0  0  0  0  0  0
  -19.8663   -6.0689   20.3644 C   0  0  0  0  0  0  0  0  0  0  0  0
  -18.5561   -6.0443   19.8865 C   0  0  0  0  0  0  0  0  0  0  0  0
  -31.7318  -18.8415   20.6944 C   0  0  0  0  0  0  0  0  0  0  0  0
  -26.1858  -19.1778   14.6831 C   0  0  0  0  0  0  0  0  0  0  0  0
  -18.0374   -7.9990   21.2084 C   0  0  0  0  0  0  0  0  0  0  0  0
  -23.8339  -10.4712   20.9704 C   0  0  0  0  0  0  0  0  0  0  0  0
  -24.2212  -12.9894   20.8440 C   0  0  0  0  0  0  0  0  0  0  0  0
  -19.6031  -18.6889    8.3952 C   0  0  0  0  0  0  0  0  0  0  0  0
  -24.0598  -20.1428   14.0437 C   0  0  0  0  0  0  0  0  0  0  0  0
  -20.3777  -18.3639    9.5251 C   0  0  0  0  0  0  0  0  0  0  0  0
  -25.4170  -19.9183   13.7722 C   0  0  0  0  0  0  0  0  0  0  0  0
  -30.3078  -19.9041   19.0735 C   0  0  0  0  0  0  0  0  0  0  0  0
  -22.3080   -8.1933   21.4854 C   0  0  0  0  0  0  0  0  0  0  0  0
  -25.6156  -18.6784   15.8539 C   0  0  0  0  0  0  0  0  0  0  0  0
  -20.2621   -7.0585   21.2643 C   0  0  0  0  0  0  0  0  0  0  0  0
  -17.6416   -7.0094   20.3085 C   0  0  0  0  0  0  0  0  0  0  0  0
  -19.3476   -8.0236   21.6863 C   0  0  0  0  0  0  0  0  0  0  0  0
  -24.6227  -11.6474   20.7048 C   0  0  0  0  0  0  0  0  0  0  0  0
  -30.7346  -17.8958   20.8708 C   0  0  0  0  0  0  0  0  0  0  0  0
  -29.3744  -18.9107   19.3222 C   0  0  0  0  0  0  0  0  0  0  0  0
  -25.3240  -13.7182   20.4710 C   0  0  0  0  0  0  0  0  0  0  0  0
  -22.9638  -13.5291   21.2722 C   0  0  0  0  0  0  0  0  0  0  0  0
  -23.5258  -19.6779   10.9449 C   0  0  0  0  0  0  0  0  0  0  0  0
  -25.7131  -22.0499   10.6104 C   0  0  0  0  0  0  0  0  0  0  0  0
  -28.3455  -23.7714   11.9348 C   0  0  0  0  0  0  0  0  0  0  0  0
  -30.8269  -14.6364   20.6142 C   0  0  0  0  0  0  0  0  0  0  0  0
  -20.2378  -19.0848    7.0855 C   0  0  0  0  0  0  0  0  0  0  0  0
  -23.2177  -20.9539   13.0974 C   0  0  0  0  0  0  0  0  0  0  0  0
  -26.0734  -20.4440   12.5227 C   0  0  0  0  0  0  0  0  0  0  0  0
  -21.6955  -19.5173    7.2212 C   0  0  0  0  0  0  0  0  0  0  0  0
  -29.6266  -12.2702   18.2400 C   0  0  0  0  0  0  0  0  0  0  0  0
  -22.4665  -18.5299    8.0915 C   0  0  0  0  0  0  0  0  0  0  0  0
  -28.1875  -12.0035   18.6848 C   0  0  0  0  0  0  0  0  0  0  0  0
  -30.5572  -12.4756   19.4333 C   0  0  0  0  0  0  0  0  0  0  0  0
  -28.6803  -13.2434   20.8339 C   0  0  0  0  0  0  0  0  0  0  0  0
  -21.8868  -18.4754    9.5102 C   0  0  1  0  0  0  0  0  0  0  0  0
  -23.7657  -20.9698   11.6737 C   0  0  1  0  0  0  0  0  0  0  0  0
  -27.6938  -13.0852   19.6643 C   0  0  2  0  0  0  0  0  0  0  0  0
  -30.1216  -22.3980   18.7011 C   0  0  0  0  0  0  0  0  0  0  0  0
  -29.9472  -25.6307   11.4105 C   0  0  0  0  0  0  0  0  0  0  0  0
  -27.2638  -20.1879    8.7560 C   0  0  0  0  0  0  0  0  0  0  0  0
  -29.2521  -21.6844    9.0303 C   0  0  0  0  0  0  0  0  0  0  0  0
  -27.1611  -22.5684    7.9964 C   0  0  0  0  0  0  0  0  0  0  0  0
  -27.4068  -25.3838   14.2322 C   0  0  0  0  0  0  0  0  0  0  0  0
  -30.9421  -16.7870   21.8475 C   0  0  0  0  0  0  0  0  0  0  0  0
  -26.0195  -18.0414   18.1093 C   0  0  0  0  0  0  0  0  0  1  0  0
  -27.2688  -17.8692   18.9515 C   0  0  0  0  0  0  0  0  0  0  0  0
  -30.0561  -20.9921   18.0879 C   0  0  1  0  0  0  0  0  0  0  0  0
  -27.2162  -22.1077   10.4817 C   0  0  1  0  0  0  0  0  0  0  0  0
  -28.6190  -25.2600   12.0518 C   0  0  2  0  0  0  0  0  0  0  0  0
  -27.7107  -21.6254    9.0888 C   0  0  0  0  0  0  0  0  0  0  0  0
  -25.8822  -11.5277   20.2766 N   0  0  0  0  0  0  0  0  0  0  0  0
  -29.5575  -17.9041   20.2059 N   0  0  0  0  0  0  0  0  0  0  0  0
  -26.2816  -12.8040   20.1434 N   0  0  0  0  0  0  0  0  0  0  0  0
  -25.2067  -21.2260   11.6256 N   0  0  0  0  0  0  0  0  0  0  0  0
  -30.0327  -13.5153   20.3221 N   0  0  0  0  0  0  0  0  0  0  0  0
  -25.5582  -15.0455   20.3943 N   0  0  0  0  0  0  0  0  0  0  0  0
  -21.9380  -12.6391   21.6189 N   0  0  0  0  0  0  0  0  0  0  0  0
  -22.3175  -19.6250   10.2766 N   0  0  0  0  0  0  0  0  0  0  0  0
  -27.6018  -23.4754   10.8121 N   0  0  0  0  0  0  0  0  0  0  0  0
  -30.2516  -15.5772   21.4597 N   0  0  0  0  0  0  0  0  0  0  0  0
  -31.0022  -20.9719   16.9189 N   0  3  0  0  0  0  0  0  0  0  0  0
  -28.6586  -25.6683   13.4845 N   0  3  0  0  0  0  0  0  0  0  0  0
  -22.7506  -14.7639   21.3297 O   0  0  0  0  0  0  0  0  0  0  0  0
  -24.3748  -18.7951   10.9847 O   0  0  0  0  0  0  0  0  0  0  0  0
  -25.0144  -22.7168    9.8432 O   0  0  0  0  0  0  0  0  0  0  0  0
  -28.7541  -22.9525   12.7552 O   0  0  0  0  0  0  0  0  0  0  0  0
  -31.9622  -14.7904   20.1513 O   0  0  0  0  0  0  0  0  0  0  0  0
  -21.5634   -7.0821   21.7372 O   0  0  0  0  0  0  0  0  0  0  0  0
  -26.3735  -17.9633   16.7291 O   0  0  0  0  0  0  0  0  0  1  0  0
  -28.1814  -18.9174   18.6486 O   0  0  0  0  0  0  0  0  0  0  0  0
  -16.3839   -6.9865   19.8484 F   0  0  0  0  0  0  0  0  0  0  0  0
  -19.7222   -8.9774   22.5497 F   0  0  0  0  0  0  0  0  0  0  0  0
  1  2  1  0  0  0  0
  1  5  2  0  0  0  0
  2  6  2  0  0  0  0
  3  9  2  0  0  0  0
  3 17  1  0  0  0  0
  4 10  1  0  0  0  0
  4 17  2  0  0  0  0
  5 19  1  0  0  0  0
  6 21  1  0  0  0  0
  7 11  2  0  0  0  0
  7 20  1  0  0  0  0
  8 14  2  0  0  0  0
  8 23  1  0  0  0  0
  9 24  1  0  0  0  0
 10 24  2  0  0  0  0
 11 25  1  0  0  0  0
 12 13  2  0  0  0  0
 12 26  1  0  0  0  0
 13 27  1  0  0  0  0
 14 30  1  0  0  0  0
 15 22  1  0  0  0  0
 15 25  2  0  0  0  0
 16 27  2  0  0  0  0
 16 28  1  0  0  0  0
 17 29  1  0  0  0  0
 18 29  1  0  0  0  0
 18 32  2  0  0  0  0
 18 33  1  0  0  0  0
 19 21  2  0  0  0  0
 19 38  1  0  0  0  0
 20 22  2  0  0  0  0
 20 39  1  0  0  0  0
 21 47  1  0  0  0  0
 22 40  1  0  0  0  0
 23 31  2  0  0  0  0
 23 59  1  0  0  0  0
 24 80  1  0  0  0  0
 25 81  1  0  0  0  0
 26 28  2  0  0  0  0
 26 80  1  0  0  0  0
 27 83  1  0  0  0  0
 28 84  1  0  0  0  0
 29 63  2  0  0  0  0
 30 56  1  0  0  0  0
 30 64  2  0  0  0  0
 31 64  1  0  0  0  0
 31 82  1  0  0  0  0
 32 65  1  0  0  0  0
 32 68  1  0  0  0  0
 33 69  1  0  0  0  0
 33 75  2  0  0  0  0
 34 48  1  0  0  0  0
 34 70  1  0  0  0  0
 34 76  2  0  0  0  0
 35 60  1  0  0  0  0
 35 66  1  0  0  0  0
 35 77  2  0  0  0  0
 36 61  1  0  0  0  0
 36 71  1  0  0  0  0
 36 78  2  0  0  0  0
 37 67  1  0  0  0  0
 37 72  1  0  0  0  0
 37 79  2  0  0  0  0
 38 41  1  0  0  0  0
 39 48  1  0  0  0  0
 40 66  1  0  0  0  0
 41 43  1  0  0  0  0
 42 44  1  0  0  0  0
 42 45  1  0  0  0  0
 43 47  1  0  0  0  0
 44 49  1  0  0  0  0
 45 67  1  0  0  0  0
 46 49  1  0  0  0  0
 46 67  1  0  0  0  0
 47 70  1  0  0  0  0
 48 66  1  0  0  0  0
 49 65  1  0  0  0  0
 50 59  1  0  0  0  0
 51 61  1  0  0  0  0
 52 62  1  0  0  0  0
 53 62  1  0  0  0  0
 54 62  1  0  0  0  0
 55 74  1  0  0  0  0
 56 72  1  0  0  0  0
 57 58  1  0  0  0  0
 57 81  1  0  0  0  0
 58 82  1  0  0  0  0
 59 73  1  0  0  0  0
 60 62  1  0  0  0  0
 60 71  1  0  0  0  0
 61 74  1  0  0  0  0
 63 65  1  0  0  0  0
M  CHG  2  73   1  74   1
M  ISO  4  37 100  57 101  72 100  81 101
M  END
> <Batch ID>
0124

> <Smiles>
CNC(C)C(=O)NC(C(=O)N1Cc2cc([101O:1][101CH2:1]COc3nc(C[100NH:0][100C:0](=O)N4CCCC(n5nc(-c6ccc(Oc7ccc(F)cc7F)cc6)c(C(N)=O)c5N)C4)ccc3C(C)N)ccc2CC1C(=O)NC1CCCc2ccccc21)C(C)(C)C

> <Shape>
0.179

> <Color>
0.194

> <Negative vol penalty>
0.000

$$$$

  -OEChem-04052320333D

 88 99  0     1  0  0  0  0  0999 V2000
  -27.7998  -36.7651   23.4269 C   0  0  0  0  0  0  0  0  0  0  0  0
  -28.2681  -35.5169   23.0291 C   0  0  0  0  0  0  0  0  0  0  0  0
  -25.9619  -10.0144   23.2166 C   0  0  0  0  0  0  0  0  0  0  0  0
  -25.4512   -8.5812   21.3399 C   0  0  0  0  0  0  0  0  0  0  0  0
  -26.5636  -36.8744   24.0624 C   0  0  0  0  0  0  0  0  0  0  0  0
  -27.5009  -34.3772   23.2675 C   0  0  0  0  0  0  0  0  0  0  0  0
  -27.0819  -29.4106   19.7089 C   0  0  0  0  0  0  0  0  0  0  0  0
  -25.3966   -9.0799   24.0842 C   0  0  0  0  0  0  0  0  0  0  0  0
  -24.8860   -7.6466   22.2074 C   0  0  0  0  0  0  0  0  0  0  0  0
  -27.7027  -28.1634   19.7623 C   0  0  0  0  0  0  0  0  0  0  0  0
  -22.9853   -5.0455   23.8901 C   0  0  0  0  0  0  0  0  0  0  0  0
  -21.7622   -4.4814   23.5277 C   0  0  0  0  0  0  0  0  0  0  0  0
  -25.7890  -27.2675   20.9262 C   0  0  0  0  0  0  0  0  0  0  0  0
  -27.3922  -22.3483   20.5137 C   0  0  0  0  0  0  0  0  0  0  0  0
  -20.7524   -6.6762   23.5188 C   0  0  0  0  0  0  0  0  0  0  0  0
  -25.9892   -9.7651   21.8445 C   0  0  0  0  0  0  0  0  0  0  0  0
  -27.9149  -10.7995   20.5294 C   0  0  0  0  0  0  0  0  0  0  0  0
  -25.7765  -35.7366   24.3000 C   0  0  0  0  0  0  0  0  0  0  0  0
  -25.8125  -29.5987   20.2743 C   0  0  0  0  0  0  0  0  0  0  0  0
  -26.2536  -34.4713   23.9079 C   0  0  0  0  0  0  0  0  0  0  0  0
  -25.1532  -28.5175   20.8764 C   0  0  0  0  0  0  0  0  0  0  0  0
  -27.7473  -23.5881   21.1002 C   0  0  0  0  0  0  0  0  0  0  0  0
  -24.8587   -7.8960   23.5796 C   0  0  0  0  0  0  0  0  0  0  0  0
  -27.0575  -27.0923   20.3736 C   0  0  0  0  0  0  0  0  0  0  0  0
  -23.0920   -6.4250   24.0669 C   0  0  0  0  0  0  0  0  0  0  0  0
  -20.6458   -5.2967   23.3421 C   0  0  0  0  0  0  0  0  0  0  0  0
  -21.9756   -7.2404   23.8812 C   0  0  0  0  0  0  0  0  0  0  0  0
  -26.5725  -10.7304   20.9477 C   0  0  0  0  0  0  0  0  0  0  0  0
  -28.4183  -21.4648   20.7664 C   0  0  0  0  0  0  0  0  0  0  0  0
  -28.9797  -23.4244   21.6934 C   0  0  0  0  0  0  0  0  0  0  0  0
  -27.9570  -11.8845   19.6883 C   0  0  0  0  0  0  0  0  0  0  0  0
  -29.0246   -9.9581   20.8706 C   0  0  0  0  0  0  0  0  0  0  0  0
  -24.6437  -31.4086   22.6114 C   0  0  0  0  0  0  0  0  0  0  0  0
  -21.8048  -30.2273   21.5783 C   0  0  0  0  0  0  0  0  0  0  0  0
  -20.1178  -27.7407   19.9604 C   0  0  0  0  0  0  0  0  0  0  0  0
  -26.6458  -17.0233   18.3122 C   0  0  0  0  0  0  0  0  0  0  0  0
  -24.4682  -35.8991   25.0326 C   0  0  0  0  0  0  0  0  0  0  0  0
  -25.1451  -30.9437   20.1848 C   0  0  0  0  0  0  0  0  0  0  0  0
  -23.7811  -28.6621   21.4804 C   0  0  0  0  0  0  0  0  0  0  0  0
  -23.5480  -34.6871   24.9120 C   0  0  0  0  0  0  0  0  0  0  0  0
  -24.2385  -14.6316   17.6539 C   0  0  0  0  0  0  0  0  0  0  0  0
  -24.3255  -33.3992   25.1645 C   0  0  0  0  0  0  0  0  0  0  0  0
  -30.1981  -24.2150   23.8757 C   0  0  0  0  0  0  0  0  0  0  0  0
  -29.0994  -25.1987   23.6200 C   0  0  0  0  0  0  0  0  0  0  0  0
  -24.7322  -13.4005   18.4134 C   0  0  0  0  0  0  0  0  0  0  0  0
  -31.9517  -22.2023   21.6154 C   0  0  0  0  0  0  0  0  0  0  0  0
  -31.5863  -20.8893   20.9972 C   0  0  0  0  0  0  0  0  0  0  0  0
  -27.4688  -19.1267   20.9983 C   0  0  0  0  0  0  0  0  0  0  0  0
  -28.5991  -19.8244   18.8430 C   0  0  0  0  0  0  0  0  0  0  0  0
  -24.4458  -15.8989   18.4752 C   0  0  0  0  0  0  0  0  0  0  0  0
  -27.6034  -17.6629   20.5693 C   0  0  0  0  0  0  0  0  0  0  0  0
  -28.7302  -18.3486   18.4782 C   0  0  0  0  0  0  0  0  0  0  0  0
  -26.3696  -14.8943   19.6618 C   0  0  0  0  0  0  0  0  0  0  0  0
  -25.4392  -33.2147   24.1267 C   0  0  1  0  0  0  0  0  0  0  0  0
  -28.5645  -20.0074   20.3712 C   0  0  0  0  0  0  0  0  0  0  0  0
  -29.7633  -24.4981   22.4531 C   0  0  0  0  0  0  0  0  0  0  0  0
  -24.0698  -31.1490   21.2473 C   0  0  1  0  0  0  0  0  0  0  0  0
  -30.6265  -21.5596   21.9519 C   0  0  0  0  0  0  0  0  0  0  0  0
  -26.1900  -13.5816   18.8723 C   0  0  1  0  0  0  0  0  0  0  0  0
  -17.8000  -27.0343   19.3075 C   0  0  0  0  0  0  0  0  0  0  0  0
  -21.2619  -29.3603   24.4530 C   0  0  0  0  0  0  0  0  0  0  0  0
  -19.4484  -27.8674   23.5866 C   0  0  0  0  0  0  0  0  0  0  0  0
  -19.2880  -30.3362   23.2672 C   0  0  0  0  0  0  0  0  0  0  0  0
  -20.7803  -27.8210   17.0770 C   0  0  0  0  0  0  0  0  0  0  0  0
  -26.9368  -24.8220   21.0716 C   0  0  0  0  0  0  0  0  0  1  0  0
  -20.9655  -29.0174   21.9112 C   0  0  1  0  0  0  0  0  0  0  0  0
  -19.0522  -27.7841   18.8801 C   0  0  2  0  0  0  0  0  0  0  0  0
  -20.2676  -29.1428   23.2949 C   0  0  0  0  0  0  0  0  0  0  0  0
  -25.8165  -11.6948   20.4163 N   0  0  0  0  0  0  0  0  0  0  0  0
  -29.3779  -22.1300   21.4839 N   0  0  0  0  0  0  0  0  0  0  0  0
  -26.6868  -12.3803   19.6555 N   0  0  0  0  0  0  0  0  0  0  0  0
  -23.1728  -29.9985   21.3733 N   0  0  0  0  0  0  0  0  0  0  0  0
  -25.8408  -16.0328   18.8947 N   0  0  0  0  0  0  0  0  0  0  0  0
  -27.6735  -17.5553   19.1054 N   0  0  0  0  0  0  0  0  0  0  0  0
  -28.9563  -12.4535   18.9810 N   0  0  0  0  0  0  0  0  0  0  0  0
  -28.8063   -8.8876   21.7484 N   0  0  0  0  0  0  0  0  0  0  0  0
  -24.8895  -32.7428   22.8738 N   0  0  0  0  0  0  0  0  0  0  0  0
  -20.0465  -28.8378   20.7925 N   0  0  0  0  0  0  0  0  0  0  0  0
  -19.5633  -27.1674   17.6233 N   0  3  0  0  0  0  0  0  0  0  0  0
  -30.1791  -10.1598   20.4234 O   0  0  0  0  0  0  0  0  0  0  0  0
  -24.8471  -30.4681   23.3703 O   0  0  0  0  0  0  0  0  0  0  0  0
  -21.2652  -31.3335   21.4960 O   0  0  0  0  0  0  0  0  0  0  0  0
  -20.9298  -26.8233   20.0586 O   0  0  0  0  0  0  0  0  0  0  0  0
  -26.4586  -17.4094   17.1515 O   0  0  0  0  0  0  0  0  0  0  0  0
  -24.3072   -6.9837   24.4258 O   0  0  0  0  0  0  0  0  0  0  0  0
  -27.6645  -25.8676   20.4279 O   0  0  0  0  0  0  0  0  0  1  0  0
  -19.4716   -4.7550   22.9926 F   0  0  0  0  0  0  0  0  0  0  0  0
  -22.0722   -8.5665   24.0484 F   0  0  0  0  0  0  0  0  0  0  0  0
  1  2  1  0  0  0  0
  1  5  2  0  0  0  0
  2  6  2  0  0  0  0
  3  8  2  0  0  0  0
  3 16  1  0  0  0  0
  4  9  1  0  0  0  0
  4 16  2  0  0  0  0
  5 18  1  0  0  0  0
  6 20  1  0  0  0  0
  7 10  2  0  0  0  0
  7 19  1  0  0  0  0
  8 23  1  0  0  0  0
  9 23  2  0  0  0  0
 10 24  1  0  0  0  0
 11 12  2  0  0  0  0
 11 25  1  0  0  0  0
 12 26  1  0  0  0  0
 13 21  1  0  0  0  0
 13 24  2  0  0  0  0
 14 22  1  0  0  0  0
 14 29  2  0  0  0  0
 15 26  2  0  0  0  0
 15 27  1  0  0  0  0
 16 28  1  0  0  0  0
 17 28  1  0  0  0  0
 17 31  2  0  0  0  0
 17 32  1  0  0  0  0
 18 20  2  0  0  0  0
 18 37  1  0  0  0  0
 19 21  2  0  0  0  0
 19 38  1  0  0  0  0
 20 54  1  0  0  0  0
 21 39  1  0  0  0  0
 22 30  2  0  0  0  0
 22 65  1  0  0  0  0
 23 85  1  0  0  0  0
 24 86  1  0  0  0  0
 25 27  2  0  0  0  0
 25 85  1  0  0  0  0
 26 87  1  0  0  0  0
 27 88  1  0  0  0  0
 28 69  2  0  0  0  0
 29 55  1  0  0  0  0
 29 70  1  0  0  0  0
 30 56  1  0  0  0  0
 30 70  1  0  0  0  0
 31 71  1  0  0  0  0
 31 75  1  0  0  0  0
 32 76  1  0  0  0  0
 32 80  2  0  0  0  0
 33 57  1  0  0  0  0
 33 77  1  0  0  0  0
 33 81  2  0  0  0  0
 34 66  1  0  0  0  0
 34 72  1  0  0  0  0
 34 82  2  0  0  0  0
 35 67  1  0  0  0  0
 35 78  1  0  0  0  0
 35 83  2  0  0  0  0
 36 73  1  0  0  0  0
 36 74  1  0  0  0  0
 36 84  2  0  0  0  0
 37 40  1  0  0  0  0
 38 57  1  0  0  0  0
 39 72  1  0  0  0  0
 40 42  1  0  0  0  0
 41 45  1  0  0  0  0
 41 50  1  0  0  0  0
 42 54  1  0  0  0  0
 43 44  1  0  0  0  0
 43 56  1  0  0  0  0
 44 56  1  0  0  0  0
 45 59  1  0  0  0  0
 46 47  1  0  0  0  0
 46 58  1  0  0  0  0
 47 58  1  0  0  0  0
 48 51  1  0  0  0  0
 48 55  1  0  0  0  0
 49 52  1  0  0  0  0
 49 55  1  0  0  0  0
 50 73  1  0  0  0  0
 51 74  1  0  0  0  0
 52 74  1  0  0  0  0
 53 59  1  0  0  0  0
 53 73  1  0  0  0  0
 54 77  1  0  0  0  0
 57 72  1  0  0  0  0
 58 70  1  0  0  0  0
 59 71  1  0  0  0  0
 60 67  1  0  0  0  0
 61 68  1  0  0  0  0
 62 68  1  0  0  0  0
 63 68  1  0  0  0  0
 64 79  1  0  0  0  0
 65 86  1  0  0  0  0
 66 68  1  0  0  0  0
 66 78  1  0  0  0  0
 67 79  1  0  0  0  0
 69 71  1  0  0  0  0
M  CHG  1  79   1
M  ISO  4  36 100  65 101  74 100  86 101
M  END
> <Batch ID>
0124

> <Smiles>
CNC(C)C(=O)NC(C(=O)N1Cc2cc([101O:1][101CH2:1]c3cc(C4CC[100N:0]([100C:0](=O)N5CCCC(n6nc(-c7ccc(Oc8ccc(F)cc8F)cc7)c(C(N)=O)c6N)C5)CC4)n(C4CC4)c3C3CC3)ccc2CC1C(=O)NC1CCCc2ccccc21)C(C)(C)C

> <Shape>
0.295

> <Color>
0.070

> <Negative vol penalty>
0.000

$$$$

  -OEChem-04052320333D

 84 92  0     1  0  0  0  0  0999 V2000
  -28.8336  -23.7203   18.1098 C   0  0  0  0  0  0  0  0  0  0  0  0
  -27.6445  -24.4093   18.3203 C   0  0  0  0  0  0  0  0  0  0  0  0
  -26.0968  -13.3407   18.9682 C   0  0  0  0  0  0  0  0  0  0  0  0
  -24.9918  -13.7053   21.0855 C   0  0  0  0  0  0  0  0  0  0  0  0
  -29.9269  -23.9543   18.9412 C   0  0  0  0  0  0  0  0  0  0  0  0
  -27.5520  -25.3410   19.3548 C   0  0  0  0  0  0  0  0  0  0  0  0
  -23.4370  -28.0278   19.5811 C   0  0  0  0  0  0  0  0  0  0  0  0
  -26.0261  -11.9622   19.1687 C   0  0  0  0  0  0  0  0  0  0  0  0
  -24.9211  -12.3268   21.2860 C   0  0  0  0  0  0  0  0  0  0  0  0
  -22.2106  -27.4962   19.9776 C   0  0  0  0  0  0  0  0  0  0  0  0
  -23.0083   -9.7516   20.2227 C   0  0  0  0  0  0  0  0  0  0  0  0
  -21.7996   -9.2258   20.6789 C   0  0  0  0  0  0  0  0  0  0  0  0
  -22.7239  -22.4382   22.4563 C   0  0  0  0  0  0  0  0  0  0  0  0
  -21.4398  -22.9914   22.2277 C   0  0  0  0  0  0  0  0  0  0  0  0
  -22.4589  -28.5480   22.1343 C   0  0  0  0  0  0  0  0  0  0  0  0
  -22.9138   -8.3702   22.6446 C   0  0  0  0  0  0  0  0  0  0  0  0
  -25.5797  -14.2123   19.9266 C   0  0  0  0  0  0  0  0  0  0  0  0
  -24.7000  -16.4532   19.0826 C   0  0  0  0  0  0  0  0  0  0  0  0
  -29.8429  -24.8805   19.9939 C   0  0  0  0  0  0  0  0  0  0  0  0
  -24.1899  -28.8158   20.4635 C   0  0  0  0  0  0  0  0  0  0  0  0
  -28.6518  -25.6087   20.1898 C   0  0  0  0  0  0  0  0  0  0  0  0
  -23.6933  -29.0905   21.7457 C   0  0  0  0  0  0  0  0  0  0  0  0
  -25.4382  -11.4552   20.3275 C   0  0  0  0  0  0  0  0  0  0  0  0
  -21.7228  -27.7539   21.2554 C   0  0  0  0  0  0  0  0  0  0  0  0
  -24.1698   -9.5867   20.9773 C   0  0  0  0  0  0  0  0  0  0  0  0
  -21.7524   -8.5351   21.8899 C   0  0  0  0  0  0  0  0  0  0  0  0
  -24.1225   -8.8960   22.1883 C   0  0  0  0  0  0  0  0  0  0  0  0
  -25.6529  -15.6364   19.7204 C   0  0  0  0  0  0  0  0  0  0  0  0
  -23.2768  -23.1095   23.5244 C   0  0  0  0  0  0  0  0  0  0  0  0
  -21.2472  -23.9841   23.1631 C   0  0  0  0  0  0  0  0  0  0  0  0
  -25.2343  -17.7169   19.1448 C   0  0  0  0  0  0  0  0  0  0  0  0
  -23.4441  -16.1010   18.4874 C   0  0  0  0  0  0  0  0  0  0  0  0
  -27.0621  -28.5645   21.8018 C   0  0  0  0  0  0  0  0  0  0  0  0
  -26.3942  -31.5524   22.8739 C   0  0  0  0  0  0  0  0  0  0  0  0
  -24.0333  -33.8866   23.6639 C   0  0  0  0  0  0  0  0  0  0  0  0
  -27.8227  -21.7728   21.9725 C   0  0  0  0  0  0  0  0  0  0  0  0
  -31.0592  -25.1004   20.8585 C   0  0  0  0  0  0  0  0  0  0  0  0
  -25.4984  -29.4039   20.0112 C   0  0  0  0  0  0  0  0  0  0  0  0
  -24.4535  -29.9472   22.7237 C   0  0  0  0  0  0  0  0  0  0  0  0
  -30.7297  -25.7695   22.1889 C   0  0  0  0  0  0  0  0  0  0  0  0
  -29.8623  -19.2734   20.4661 C   0  0  0  0  0  0  0  0  0  0  0  0
  -29.8629  -26.9974   21.9527 C   0  0  0  0  0  0  0  0  0  0  0  0
  -28.8716  -18.1698   20.0911 C   0  0  0  0  0  0  0  0  0  0  0  0
  -29.4854  -19.9463   21.7841 C   0  0  0  0  0  0  0  0  0  0  0  0
  -27.1134  -19.3561   21.4696 C   0  0  0  0  0  0  0  0  0  0  0  0
  -28.5183  -26.6046   21.3277 C   0  0  1  0  0  0  0  0  0  0  0  0
  -26.4220  -29.7680   21.1696 C   0  0  1  0  0  0  0  0  0  0  0  0
  -27.4203  -18.6858   20.1195 C   0  0  2  0  0  0  0  0  0  0  0  0
  -19.0990  -24.3006   24.4181 C   0  0  0  0  0  0  0  0  0  0  0  0
  -23.7912  -36.2216   24.5508 C   0  0  0  0  0  0  0  0  0  0  0  0
  -27.0086  -30.5448   25.6876 C   0  0  0  0  0  0  0  0  0  0  0  0
  -25.8576  -32.5762   26.5912 C   0  0  0  0  0  0  0  0  0  0  0  0
  -27.8986  -32.8259   25.1789 C   0  0  0  0  0  0  0  0  0  0  0  0
  -22.5688  -24.9637   25.0487 C   0  0  0  0  0  0  0  0  0  0  0  0
  -22.7030  -34.8133   21.1880 C   0  0  0  0  0  0  0  0  0  0  0  0
  -24.5914  -22.9335   24.1753 C   0  0  0  0  0  0  0  0  0  0  0  0
  -25.7328  -23.7937   23.5825 C   0  0  0  0  0  0  0  0  0  0  0  0
  -19.2957  -25.2206   22.0766 C   0  0  0  0  0  0  0  0  0  0  0  0
  -26.0419  -23.4953   22.1170 C   0  0  0  0  0  0  0  0  0  0  0  0
  -20.1368  -25.9921   21.0639 C   0  0  0  0  0  0  0  0  0  1  0  0
  -20.0544  -24.8994   23.3788 C   0  0  2  0  0  0  0  0  0  0  0  0
  -25.7229  -32.1232   24.0997 C   0  0  1  0  0  0  0  0  0  0  0  0
  -23.9108  -35.3567   23.3057 C   0  0  2  0  0  0  0  0  0  0  0  0
  -26.6083  -31.9998   25.3718 C   0  0  0  0  0  0  0  0  0  0  0  0
  -26.7124  -16.3236   20.1555 N   0  0  0  0  0  0  0  0  0  0  0  0
  -22.3704  -24.0472   23.9457 N   0  0  0  0  0  0  0  0  0  0  0  0
  -26.4285  -17.5854   19.7905 N   0  0  0  0  0  0  0  0  0  0  0  0
  -25.7307  -30.4941   22.2369 N   0  0  0  0  0  0  0  0  0  0  0  0
  -28.0978  -20.4143   21.7448 N   0  0  0  0  0  0  0  0  0  0  0  0
  -24.7945  -18.9167   18.7095 N   0  0  0  0  0  0  0  0  0  0  0  0
  -23.0472  -14.7570   18.5108 N   0  0  0  0  0  0  0  0  0  0  0  0
  -27.8152  -27.8037   20.9281 N   0  0  0  0  0  0  0  0  0  0  0  0
  -25.3511  -33.4927   23.7610 N   0  0  0  0  0  0  0  0  0  0  0  0
  -26.4822  -22.1336   21.9109 N   0  0  0  0  0  0  0  0  0  0  0  0
  -22.7067  -35.5845   22.4577 N   0  3  0  0  0  0  0  0  0  0  0  0
  -22.7037  -16.9503   17.9361 O   0  0  0  0  0  0  0  0  0  0  0  0
  -26.8869  -28.3436   22.9944 O   0  0  0  0  0  0  0  0  0  0  0  0
  -27.4641  -32.0326   22.4914 O   0  0  0  0  0  0  0  0  0  0  0  0
  -23.0575  -33.1612   23.8436 O   0  0  0  0  0  0  0  0  0  0  0  0
  -28.7066  -22.6037   22.2077 O   0  0  0  0  0  0  0  0  0  0  0  0
  -25.3689  -10.1100   20.5234 O   0  0  0  0  0  0  0  0  0  0  0  0
  -20.5263  -27.2357   21.6452 O   0  0  0  0  0  0  0  0  0  1  0  0
  -20.5913   -8.0315   22.3286 F   0  0  0  0  0  0  0  0  0  0  0  0
  -25.2348   -8.7354   22.9182 F   0  0  0  0  0  0  0  0  0  0  0  0
  1  2  1  0  0  0  0
  1  5  2  0  0  0  0
  2  6  2  0  0  0  0
  3  8  2  0  0  0  0
  3 17  1  0  0  0  0
  4  9  1  0  0  0  0
  4 17  2  0  0  0  0
  5 19  1  0  0  0  0
  6 21  1  0  0  0  0
  7 10  2  0  0  0  0
  7 20  1  0  0  0  0
  8 23  1  0  0  0  0
  9 23  2  0  0  0  0
 10 24  1  0  0  0  0
 11 12  2  0  0  0  0
 11 25  1  0  0  0  0
 12 26  1  0  0  0  0
 13 14  1  0  0  0  0
 13 29  2  0  0  0  0
 14 30  2  0  0  0  0
 15 22  1  0  0  0  0
 15 24  2  0  0  0  0
 16 26  2  0  0  0  0
 16 27  1  0  0  0  0
 17 28  1  0  0  0  0
 18 28  1  0  0  0  0
 18 31  2  0  0  0  0
 18 32  1  0  0  0  0
 19 21  2  0  0  0  0
 19 37  1  0  0  0  0
 20 22  2  0  0  0  0
 20 38  1  0  0  0  0
 21 46  1  0  0  0  0
 22 39  1  0  0  0  0
 23 81  1  0  0  0  0
 24 82  1  0  0  0  0
 25 27  2  0  0  0  0
 25 81  1  0  0  0  0
 26 83  1  0  0  0  0
 27 84  1  0  0  0  0
 28 65  2  0  0  0  0
 29 56  1  0  0  0  0
 29 66  1  0  0  0  0
 30 61  1  0  0  0  0
 30 66  1  0  0  0  0
 31 67  1  0  0  0  0
 31 70  1  0  0  0  0
 32 71  1  0  0  0  0
 32 76  2  0  0  0  0
 33 47  1  0  0  0  0
 33 72  1  0  0  0  0
 33 77  2  0  0  0  0
 34 62  1  0  0  0  0
 34 68  1  0  0  0  0
 34 78  2  0  0  0  0
 35 63  1  0  0  0  0
 35 73  1  0  0  0  0
 35 79  2  0  0  0  0
 36 69  1  0  0  0  0
 36 74  1  0  0  0  0
 36 80  2  0  0  0  0
 37 40  1  0  0  0  0
 38 47  1  0  0  0  0
 39 68  1  0  0  0  0
 40 42  1  0  0  0  0
 41 43  1  0  0  0  0
 41 44  1  0  0  0  0
 42 46  1  0  0  0  0
 43 48  1  0  0  0  0
 44 69  1  0  0  0  0
 45 48  1  0  0  0  0
 45 69  1  0  0  0  0
 46 72  1  0  0  0  0
 47 68  1  0  0  0  0
 48 67  1  0  0  0  0
 49 61  1  0  0  0  0
 50 63  1  0  0  0  0
 51 64  1  0  0  0  0
 52 64  1  0  0  0  0
 53 64  1  0  0  0  0
 54 66  1  0  0  0  0
 55 75  1  0  0  0  0
 56 57  1  0  0  0  0
 57 59  1  0  0  0  0
 58 60  1  0  0  0  0
 58 61  1  0  0  0  0
 59 74  1  0  0  0  0
 60 82  1  0  0  0  0
 62 64  1  0  0  0  0
 62 73  1  0  0  0  0
 63 75  1  0  0  0  0
 65 67  1  0  0  0  0
M  CHG  1  75   1
M  ISO  4  36 100  60 101  74 100  82 101
M  END
> <Batch ID>
0124

> <Smiles>
CNC(C)C(=O)NC(C(=O)N1Cc2cc([101O:1][101CH2:1]CC(C)c3ccc(CCC[100NH:0][100C:0](=O)N4CCCC(n5nc(-c6ccc(Oc7ccc(F)cc7F)cc6)c(C(N)=O)c5N)C4)n3C)ccc2CC1C(=O)NC1CCCc2ccccc21)C(C)(C)C

> <Shape>
0.292

> <Color>
0.075

> <Negative vol penalty>
0.000

$$$$

  -OEChem-04052320333D

 86 95  0     1  0  0  0  0  0999 V2000
  -30.4864  -11.8252   19.6724 C   0  0  0  0  0  0  0  0  0  0  0  0
  -30.3679  -13.0938   20.2310 C   0  0  0  0  0  0  0  0  0  0  0  0
  -29.0433  -22.3482   20.9498 C   0  0  0  0  0  0  0  0  0  0  0  0
  -26.6625  -22.4129   20.5437 C   0  0  0  0  0  0  0  0  0  0  0  0
  -29.4117  -11.2651   18.9830 C   0  0  0  0  0  0  0  0  0  0  0  0
  -29.1748  -13.8036   20.0995 C   0  0  0  0  0  0  0  0  0  0  0  0
  -20.9340  -25.1046   23.5794 C   0  0  0  0  0  0  0  0  0  0  0  0
  -25.0655  -18.5129   23.5998 C   0  0  0  0  0  0  0  0  0  0  0  0
  -21.7142  -23.9771   23.8354 C   0  0  0  0  0  0  0  0  0  0  0  0
  -29.0332  -20.9627   20.7885 C   0  0  0  0  0  0  0  0  0  0  0  0
  -26.6524  -21.0274   20.3824 C   0  0  0  0  0  0  0  0  0  0  0  0
  -24.4414  -19.7455   23.4130 C   0  0  0  0  0  0  0  0  0  0  0  0
  -28.9548  -18.7533   18.2302 C   0  0  0  0  0  0  0  0  0  0  0  0
  -29.9579  -18.1847   17.4453 C   0  0  0  0  0  0  0  0  0  0  0  0
  -22.6248  -18.6454   22.2688 C   0  0  0  0  0  0  0  0  0  0  0  0
  -22.3786  -23.9097   21.5135 C   0  0  0  0  0  0  0  0  0  0  0  0
  -30.7004  -16.8807   19.3388 C   0  0  0  0  0  0  0  0  0  0  0  0
  -27.8580  -23.0733   20.8274 C   0  0  0  0  0  0  0  0  0  0  0  0
  -28.5916  -25.4439   20.2362 C   0  0  0  0  0  0  0  0  0  0  0  0
  -28.2016  -11.9644   18.8513 C   0  0  0  0  0  0  0  0  0  0  0  0
  -24.4783  -17.3366   23.1121 C   0  0  0  0  0  0  0  0  0  0  0  0
  -28.0834  -13.2529   19.4065 C   0  0  0  0  0  0  0  0  0  0  0  0
  -20.8760  -25.6347   22.2905 C   0  0  0  0  0  0  0  0  0  0  0  0
  -23.2423  -17.3989   22.4530 C   0  0  0  0  0  0  0  0  0  0  0  0
  -22.4365  -23.3796   22.8024 C   0  0  0  0  0  0  0  0  0  0  0  0
  -27.8378  -20.3023   20.5048 C   0  0  0  0  0  0  0  0  0  0  0  0
  -23.2223  -19.8123   22.7449 C   0  0  0  0  0  0  0  0  0  0  0  0
  -28.8245  -18.3856   19.5694 C   0  0  0  0  0  0  0  0  0  0  0  0
  -21.5983  -25.0373   21.2575 C   0  0  0  0  0  0  0  0  0  0  0  0
  -30.8307  -17.2484   17.9996 C   0  0  0  0  0  0  0  0  0  0  0  0
  -29.6972  -17.4493   20.1237 C   0  0  0  0  0  0  0  0  0  0  0  0
  -27.8677  -24.5044   20.9945 C   0  0  0  0  0  0  0  0  0  0  0  0
  -28.2612  -26.6578   20.7873 C   0  0  0  0  0  0  0  0  0  0  0  0
  -29.4831  -25.2377   19.1323 C   0  0  0  0  0  0  0  0  0  0  0  0
  -25.3185  -15.1220   20.9923 C   0  0  0  0  0  0  0  0  0  0  0  0
  -22.6333  -13.6441   22.0542 C   0  0  0  0  0  0  0  0  0  0  0  0
  -19.5704  -13.9140   23.5349 C   0  0  0  0  0  0  0  0  0  0  0  0
  -23.5019  -28.5746   23.8736 C   0  0  0  0  0  0  0  0  0  0  0  0
  -27.0837  -11.3374   18.0566 C   0  0  0  0  0  0  0  0  0  0  0  0
  -25.1513  -16.0118   23.3453 C   0  0  0  0  0  0  0  0  0  0  0  0
  -22.5603  -16.1628   21.9280 C   0  0  0  0  0  0  0  0  0  0  0  0
  -25.7279  -12.0011   18.2842 C   0  0  0  0  0  0  0  0  0  0  0  0
  -26.9040  -28.6485   24.9208 C   0  0  0  0  0  0  0  0  0  0  0  0
  -25.8582  -13.5193   18.2135 C   0  0  0  0  0  0  0  0  0  0  0  0
  -27.6021  -27.6796   23.9648 C   0  0  0  0  0  0  0  0  0  0  0  0
  -18.5446  -26.6630   22.3570 C   0  0  0  0  0  0  0  0  0  0  0  0
  -25.4993  -28.1709   25.2821 C   0  0  0  0  0  0  0  0  0  0  0  0
  -25.3268  -26.9091   23.1722 C   0  0  0  0  0  0  0  0  0  0  0  0
  -18.0011  -28.0788   22.3427 C   0  0  0  0  0  0  0  0  0  0  0  0
  -20.0262  -26.8566   22.0321 C   0  0  1  0  0  0  0  0  0  0  0  0
  -26.7972  -14.0439   19.3064 C   0  0  1  0  0  0  0  0  0  0  0  0
  -24.7136  -14.9368   22.3552 C   0  0  1  0  0  0  0  0  0  0  0  0
  -26.7256  -27.3764   22.7348 C   0  0  2  0  0  0  0  0  0  0  0  0
  -20.3911  -28.0807   22.8804 C   0  0  1  0  0  0  0  0  0  0  0  0
  -17.5921  -12.5374   24.2338 C   0  0  0  0  0  0  0  0  0  0  0  0
  -21.7277  -13.4731   19.1455 C   0  0  0  0  0  0  0  0  0  0  0  0
  -19.4136  -12.9857   19.9674 C   0  0  0  0  0  0  0  0  0  0  0  0
  -21.2802  -11.4189   20.4999 C   0  0  0  0  0  0  0  0  0  0  0  0
  -19.9179  -14.6487   26.3807 C   0  0  0  0  0  0  0  0  0  0  0  0
  -22.3217  -24.8694   18.9982 C   0  0  0  0  0  0  0  0  0  0  0  0
  -23.2753  -22.1665   23.0778 C   0  0  0  0  0  0  0  0  0  1  0  0
  -21.5672  -28.8811   22.3498 C   0  0  0  0  0  0  0  0  0  0  0  0
  -21.1760  -13.6625   21.6606 C   0  0  1  0  0  0  0  0  0  0  0  0
  -18.9247  -13.1308   24.6636 C   0  0  2  0  0  0  0  0  0  0  0  0
  -20.9129  -12.9088   20.3264 C   0  0  0  0  0  0  0  0  0  0  0  0
  -27.1329  -25.0726   21.9543 N   0  0  0  0  0  0  0  0  0  0  0  0
  -27.3935  -26.3823   21.8028 N   0  0  0  0  0  0  0  0  0  0  0  0
  -23.2611  -14.8919   22.1752 N   0  0  0  0  0  0  0  0  0  0  0  0
  -24.7194  -27.9026   24.0714 N   0  0  0  0  0  0  0  0  0  0  0  0
  -28.6312  -27.9233   20.4974 N   0  0  0  0  0  0  0  0  0  0  0  0
  -28.9519  -25.2394   17.8353 N   0  0  0  0  0  0  0  0  0  0  0  0
  -26.1190  -14.0720   20.5846 N   0  0  0  0  0  0  0  0  0  0  0  0
  -20.4381  -13.1323   22.8020 N   0  0  0  0  0  0  0  0  0  0  0  0
  -22.8292  -28.2669   22.6974 N   0  0  0  0  0  0  0  0  0  0  0  0
  -19.1399  -28.9256   22.8353 N   0  3  0  0  0  0  0  0  0  0  0  0
  -18.6878  -14.0159   25.8390 N   0  3  0  0  0  0  0  0  0  0  0  0
  -30.7116  -25.0410   19.2924 O   0  0  0  0  0  0  0  0  0  0  0  0
  -25.0757  -16.1414   20.3570 O   0  0  0  0  0  0  0  0  0  0  0  0
  -23.1921  -12.5627   22.2541 O   0  0  0  0  0  0  0  0  0  0  0  0
  -19.3264  -15.0997   23.3222 O   0  0  0  0  0  0  0  0  0  0  0  0
  -23.0505  -29.3923   24.6826 O   0  0  0  0  0  0  0  0  0  0  0  0
  -27.8276  -18.9504   20.3471 O   0  0  0  0  0  0  0  0  0  0  0  0
  -21.5527  -25.5424   19.9930 O   0  0  0  0  0  0  0  0  0  0  0  0
  -22.6112  -21.0141   22.5606 O   0  0  0  0  0  0  0  0  0  1  0  0
  -31.7930  -16.7013   17.2453 F   0  0  0  0  0  0  0  0  0  0  0  0
  -29.5762  -17.0913   21.4094 F   0  0  0  0  0  0  0  0  0  0  0  0
  1  2  1  0  0  0  0
  1  5  2  0  0  0  0
  2  6  2  0  0  0  0
  3 10  2  0  0  0  0
  3 18  1  0  0  0  0
  4 11  1  0  0  0  0
  4 18  2  0  0  0  0
  5 20  1  0  0  0  0
  6 22  1  0  0  0  0
  7  9  2  0  0  0  0
  7 23  1  0  0  0  0
  8 12  2  0  0  0  0
  8 21  1  0  0  0  0
  9 25  1  0  0  0  0
 10 26  1  0  0  0  0
 11 26  2  0  0  0  0
 12 27  1  0  0  0  0
 13 14  2  0  0  0  0
 13 28  1  0  0  0  0
 14 30  1  0  0  0  0
 15 24  1  0  0  0  0
 15 27  2  0  0  0  0
 16 25  2  0  0  0  0
 16 29  1  0  0  0  0
 17 30  2  0  0  0  0
 17 31  1  0  0  0  0
 18 32  1  0  0  0  0
 19 32  1  0  0  0  0
 19 33  2  0  0  0  0
 19 34  1  0  0  0  0
 20 22  2  0  0  0  0
 20 39  1  0  0  0  0
 21 24  2  0  0  0  0
 21 40  1  0  0  0  0
 22 51  1  0  0  0  0
 23 29  2  0  0  0  0
 23 50  1  0  0  0  0
 24 41  1  0  0  0  0
 25 61  1  0  0  0  0
 26 82  1  0  0  0  0
 27 84  1  0  0  0  0
 28 31  2  0  0  0  0
 28 82  1  0  0  0  0
 29 83  1  0  0  0  0
 30 85  1  0  0  0  0
 31 86  1  0  0  0  0
 32 66  2  0  0  0  0
 33 67  1  0  0  0  0
 33 70  1  0  0  0  0
 34 71  1  0  0  0  0
 34 77  2  0  0  0  0
 35 52  1  0  0  0  0
 35 72  1  0  0  0  0
 35 78  2  0  0  0  0
 36 63  1  0  0  0  0
 36 68  1  0  0  0  0
 36 79  2  0  0  0  0
 37 64  1  0  0  0  0
 37 73  1  0  0  0  0
 37 80  2  0  0  0  0
 38 69  1  0  0  0  0
 38 74  1  0  0  0  0
 38 81  2  0  0  0  0
 39 42  1  0  0  0  0
 40 52  1  0  0  0  0
 41 68  1  0  0  0  0
 42 44  1  0  0  0  0
 43 45  1  0  0  0  0
 43 47  1  0  0  0  0
 44 51  1  0  0  0  0
 45 53  1  0  0  0  0
 46 49  1  0  0  0  0
 46 50  1  0  0  0  0
 47 69  1  0  0  0  0
 48 53  1  0  0  0  0
 48 69  1  0  0  0  0
 49 75  1  0  0  0  0
 50 54  1  0  0  0  0
 51 72  1  0  0  0  0
 52 68  1  0  0  0  0
 53 67  1  0  0  0  0
 54 62  1  0  0  0  0
 54 75  1  0  0  0  0
 55 64  1  0  0  0  0
 56 65  1  0  0  0  0
 57 65  1  0  0  0  0
 58 65  1  0  0  0  0
 59 76  1  0  0  0  0
 60 83  1  0  0  0  0
 61 84  1  0  0  0  0
 62 74  1  0  0  0  0
 63 65  1  0  0  0  0
 63 73  1  0  0  0  0
 64 76  1  0  0  0  0
 66 67  1  0  0  0  0
M  CHG  2  75   1  76   1
M  ISO  4  38 100  61 101  74 100  84 101
M  END
> <Batch ID>
0124

> <Smiles>
CNC(C)C(=O)NC(C(=O)N1Cc2cc([101O:1][101CH2:1]c3ccc(C4CCNC4C[100NH:0][100C:0](=O)N4CCCC(n5nc(-c6ccc(Oc7ccc(F)cc7F)cc6)c(C(N)=O)c5N)C4)c(OC)c3)ccc2CC1C(=O)NC1CCCc2ccccc21)C(C)(C)C

> <Shape>
0.243

> <Color>
0.067

> <Negative vol penalty>
0.000

$$$$

  -OEChem-04052320333D

 88 97  0     1  0  0  0  0  0999 V2000
  -16.9335  -29.4408   24.2054 C   0  0  0  0  0  0  0  0  0  0  0  0
  -17.2749  -28.3217   23.4528 C   0  0  0  0  0  0  0  0  0  0  0  0
  -25.5318  -14.3560   20.3405 C   0  0  0  0  0  0  0  0  0  0  0  0
  -25.6664  -15.0374   22.6545 C   0  0  0  0  0  0  0  0  0  0  0  0
  -17.7038  -30.5997   24.1180 C   0  0  0  0  0  0  0  0  0  0  0  0
  -18.3862  -28.3612   22.6115 C   0  0  0  0  0  0  0  0  0  0  0  0
  -22.2125  -23.7495   21.3475 C   0  0  0  0  0  0  0  0  0  0  0  0
  -24.5778  -13.3962   20.6786 C   0  0  0  0  0  0  0  0  0  0  0  0
  -24.7123  -14.0777   22.9926 C   0  0  0  0  0  0  0  0  0  0  0  0
  -22.2925  -22.8647   20.2730 C   0  0  0  0  0  0  0  0  0  0  0  0
  -24.5296  -10.3102   22.0564 C   0  0  0  0  0  0  0  0  0  0  0  0
  -24.6743   -9.0340   21.5123 C   0  0  0  0  0  0  0  0  0  0  0  0
  -23.9477  -24.2814   19.2375 C   0  0  0  0  0  0  0  0  0  0  0  0
  -22.5173   -9.2446   20.4446 C   0  0  0  0  0  0  0  0  0  0  0  0
  -26.0761  -15.1766   21.3285 C   0  0  0  0  0  0  0  0  0  0  0  0
  -28.3194  -15.9446   20.3874 C   0  0  0  0  0  0  0  0  0  0  0  0
  -18.8307  -30.6502   23.2825 C   0  0  0  0  0  0  0  0  0  0  0  0
  -22.9929  -24.9144   21.3699 C   0  0  0  0  0  0  0  0  0  0  0  0
  -19.1715  -29.5223   22.5118 C   0  0  0  0  0  0  0  0  0  0  0  0
  -23.8777  -25.1780   20.3146 C   0  0  0  0  0  0  0  0  0  0  0  0
  -24.1680  -13.2571   22.0046 C   0  0  0  0  0  0  0  0  0  0  0  0
  -23.1581  -23.1320   19.2164 C   0  0  0  0  0  0  0  0  0  0  0  0
  -23.3787  -11.0536   21.7946 C   0  0  0  0  0  0  0  0  0  0  0  0
  -23.6681   -8.5012   20.7065 C   0  0  0  0  0  0  0  0  0  0  0  0
  -22.3726  -10.5209   20.9887 C   0  0  0  0  0  0  0  0  0  0  0  0
  -27.0621  -16.1678   20.9800 C   0  0  0  0  0  0  0  0  0  0  0  0
  -28.8678  -17.1977   20.2633 C   0  0  0  0  0  0  0  0  0  0  0  0
  -28.9364  -14.7145   19.9851 C   0  0  0  0  0  0  0  0  0  0  0  0
  -22.3700  -28.0310   21.4171 C   0  0  0  0  0  0  0  0  0  0  0  0
  -25.5847  -28.2721   21.7781 C   0  0  0  0  0  0  0  0  0  0  0  0
  -28.6636  -26.8695   21.3307 C   0  0  0  0  0  0  0  0  0  0  0  0
  -28.4230  -22.5918   18.9028 C   0  0  0  0  0  0  0  0  0  0  0  0
  -19.6051  -31.9408   23.1853 C   0  0  0  0  0  0  0  0  0  0  0  0
  -22.9146  -25.8451   22.5489 C   0  0  0  0  0  0  0  0  0  0  0  0
  -24.7519  -26.4044   20.3003 C   0  0  0  0  0  0  0  0  0  0  0  0
  -20.9851  -31.7770   22.5537 C   0  0  0  0  0  0  0  0  0  0  0  0
  -26.8135  -19.8542   13.6435 C   0  0  0  0  0  0  0  0  0  0  0  0
  -27.3913  -21.6418   22.1754 C   0  0  0  0  0  0  0  0  0  0  0  0
  -30.1501  -27.6326   15.6654 C   0  0  0  0  0  0  0  0  0  0  0  0
  -20.8962  -30.9282   21.2894 C   0  0  0  0  0  0  0  0  0  0  0  0
  -25.5331  -19.9942   14.4630 C   0  0  0  0  0  0  0  0  0  0  0  0
  -27.3115  -20.1158   22.1052 C   0  0  0  0  0  0  0  0  0  0  0  0
  -27.2709  -21.1969   13.0756 C   0  0  0  0  0  0  0  0  0  0  0  0
  -29.4138  -26.3073   15.7230 C   0  0  0  0  0  0  0  0  0  0  0  0
  -26.1320  -22.3909   15.0062 C   0  0  0  0  0  0  0  0  0  0  0  0
  -26.9444  -22.2911   20.8675 C   0  0  0  0  0  0  0  0  0  0  0  0
  -27.5594  -20.2735   19.5928 C   0  0  0  0  0  0  0  0  0  0  0  0
  -30.9871  -27.5078   14.4079 C   0  0  0  0  0  0  0  0  0  0  0  0
  -20.3841  -29.5180   21.6065 C   0  0  1  0  0  0  0  0  0  0  0  0
  -23.3778  -27.2618   22.2236 C   0  0  1  0  0  0  0  0  0  0  0  0
  -25.6786  -21.0378   15.5783 C   0  0  1  0  0  0  0  0  0  0  0  0
  -28.0532  -19.5718   20.8695 C   0  0  2  0  0  0  0  0  0  0  0  0
  -27.3878  -22.2890   14.1383 C   0  0  1  0  0  0  0  0  0  0  0  0
  -30.4948  -25.3057   15.3444 C   0  0  1  0  0  0  0  0  0  0  0  0
  -31.1536  -26.6133   21.5083 C   0  0  0  0  0  0  0  0  0  0  0  0
  -25.5858  -30.1643   19.3845 C   0  0  0  0  0  0  0  0  0  0  0  0
  -28.0599  -29.8249   19.2058 C   0  0  0  0  0  0  0  0  0  0  0  0
  -27.0891  -30.8541   21.2603 C   0  0  0  0  0  0  0  0  0  0  0  0
  -28.4484  -25.4344   23.9100 C   0  0  0  0  0  0  0  0  0  0  0  0
  -24.3649  -21.1924   16.3439 C   0  0  0  0  0  0  0  0  0  0  0  0
  -29.9673  -24.0178   14.7454 C   0  0  0  0  0  0  0  0  0  0  0  0
  -29.9081  -22.7305   16.9193 C   0  0  0  0  0  0  0  0  0  0  0  0
  -24.4905  -22.1866   17.4882 C   0  0  0  0  0  0  0  0  0  1  0  0
  -26.7607  -28.3831   20.8381 C   0  0  1  0  0  0  0  0  0  0  0  0
  -29.8423  -26.7056   22.2731 C   0  0  2  0  0  0  0  0  0  0  0  0
  -29.1010  -23.2011   15.7101 C   0  0  2  0  0  0  0  0  0  0  0  0
  -26.8561  -29.7844   20.1712 C   0  0  0  0  0  0  0  0  0  0  0  0
  -26.8256  -17.4610   21.2160 N   0  0  0  0  0  0  0  0  0  0  0  0
  -27.9419  -18.0617   20.7696 N   0  0  0  0  0  0  0  0  0  0  0  0
  -24.6347  -27.2871   21.4727 N   0  0  0  0  0  0  0  0  0  0  0  0
  -27.6872  -21.7323   19.7352 N   0  0  0  0  0  0  0  0  0  0  0  0
  -30.0470  -17.6338   19.7716 N   0  0  0  0  0  0  0  0  0  0  0  0
  -29.7308  -14.0300   20.9150 N   0  0  0  0  0  0  0  0  0  0  0  0
  -21.4415  -28.7134   22.1799 N   0  0  0  0  0  0  0  0  0  0  0  0
  -27.9390  -28.0083   21.6124 N   0  0  0  0  0  0  0  0  0  0  0  0
  -29.1029  -21.9799   17.8569 N   0  0  0  0  0  0  0  0  0  0  0  0
  -31.3295  -26.0464   14.3315 N   0  3  0  0  0  0  0  0  0  0  0  0
  -28.5668  -22.0071   15.0068 N   0  3  0  0  0  0  0  0  0  0  0  0
  -29.6856  -25.4679   23.0883 N   0  3  0  0  0  0  0  0  0  0  0  0
  -28.8010  -14.2449   18.8298 O   0  0  0  0  0  0  0  0  0  0  0  0
  -22.4313  -28.0085   20.1934 O   0  0  0  0  0  0  0  0  0  0  0  0
  -25.5153  -29.0265   22.7516 O   0  0  0  0  0  0  0  0  0  0  0  0
  -28.4129  -26.0695   20.4320 O   0  0  0  0  0  0  0  0  0  0  0  0
  -28.4748  -23.8134   19.0819 O   0  0  0  0  0  0  0  0  0  0  0  0
  -23.2369  -12.3208   22.3348 O   0  0  0  0  0  0  0  0  0  0  0  0
  -23.2376  -22.2704   18.1661 O   0  0  0  0  0  0  0  0  0  1  0  0
  -23.8079   -7.2763   20.1828 F   0  0  0  0  0  0  0  0  0  0  0  0
  -21.2652  -11.2308   20.7327 F   0  0  0  0  0  0  0  0  0  0  0  0
  1  2  1  0  0  0  0
  1  5  2  0  0  0  0
  2  6  2  0  0  0  0
  3  8  2  0  0  0  0
  3 15  1  0  0  0  0
  4  9  1  0  0  0  0
  4 15  2  0  0  0  0
  5 17  1  0  0  0  0
  6 19  1  0  0  0  0
  7 10  2  0  0  0  0
  7 18  1  0  0  0  0
  8 21  1  0  0  0  0
  9 21  2  0  0  0  0
 10 22  1  0  0  0  0
 11 12  2  0  0  0  0
 11 23  1  0  0  0  0
 12 24  1  0  0  0  0
 13 20  1  0  0  0  0
 13 22  2  0  0  0  0
 14 24  2  0  0  0  0
 14 25  1  0  0  0  0
 15 26  1  0  0  0  0
 16 26  1  0  0  0  0
 16 27  2  0  0  0  0
 16 28  1  0  0  0  0
 17 19  2  0  0  0  0
 17 33  1  0  0  0  0
 18 20  2  0  0  0  0
 18 34  1  0  0  0  0
 19 49  1  0  0  0  0
 20 35  1  0  0  0  0
 21 85  1  0  0  0  0
 22 86  1  0  0  0  0
 23 25  2  0  0  0  0
 23 85  1  0  0  0  0
 24 87  1  0  0  0  0
 25 88  1  0  0  0  0
 26 68  2  0  0  0  0
 27 69  1  0  0  0  0
 27 72  1  0  0  0  0
 28 73  1  0  0  0  0
 28 80  2  0  0  0  0
 29 50  1  0  0  0  0
 29 74  1  0  0  0  0
 29 81  2  0  0  0  0
 30 64  1  0  0  0  0
 30 70  1  0  0  0  0
 30 82  2  0  0  0  0
 31 65  1  0  0  0  0
 31 75  1  0  0  0  0
 31 83  2  0  0  0  0
 32 71  1  0  0  0  0
 32 76  1  0  0  0  0
 32 84  2  0  0  0  0
 33 36  1  0  0  0  0
 34 50  1  0  0  0  0
 35 70  1  0  0  0  0
 36 40  1  0  0  0  0
 37 41  1  0  0  0  0
 37 43  1  0  0  0  0
 38 42  1  0  0  0  0
 38 46  1  0  0  0  0
 39 44  1  0  0  0  0
 39 48  1  0  0  0  0
 40 49  1  0  0  0  0
 41 51  1  0  0  0  0
 42 52  1  0  0  0  0
 43 53  1  0  0  0  0
 44 54  1  0  0  0  0
 45 51  1  0  0  0  0
 45 53  1  0  0  0  0
 46 71  1  0  0  0  0
 47 52  1  0  0  0  0
 47 71  1  0  0  0  0
 48 77  1  0  0  0  0
 49 74  1  0  0  0  0
 50 70  1  0  0  0  0
 51 60  1  0  0  0  0
 52 69  1  0  0  0  0
 53 78  1  0  0  0  0
 54 61  1  0  0  0  0
 54 77  1  0  0  0  0
 55 65  1  0  0  0  0
 56 67  1  0  0  0  0
 57 67  1  0  0  0  0
 58 67  1  0  0  0  0
 59 79  1  0  0  0  0
 60 63  1  0  0  0  0
 61 66  1  0  0  0  0
 62 66  1  0  0  0  0
 62 76  1  0  0  0  0
 63 86  1  0  0  0  0
 64 67  1  0  0  0  0
 64 75  1  0  0  0  0
 65 79  1  0  0  0  0
 66 78  1  0  0  0  0
 68 69  1  0  0  0  0
M  CHG  3  77   1  78   1  79   1
M  ISO  4  32 100  63 101  76 100  86 101
M  END
> <Batch ID>
0124

> <Smiles>
CNC(C)C(=O)NC(C(=O)N1Cc2cc([101O:1][101CH2:1]CC3CCCC(NC(C[100NH:0][100C:0](=O)N4CCCC(n5nc(-c6ccc(Oc7ccc(F)cc7F)cc6)c(C(N)=O)c5N)C4)CC4CCCN4)C3)ccc2CC1C(=O)NC1CCCc2ccccc21)C(C)(C)C

> <Shape>
0.228

> <Color>
0.074

> <Negative vol penalty>
0.000

$$$$

  -OEChem-04052320333D

 82 90  0     1  0  0  0  0  0999 V2000
  -26.4230  -33.2552   25.5400 C   0  0  0  0  0  0  0  0  0  0  0  0
  -26.3354  -31.8751   25.3878 C   0  0  0  0  0  0  0  0  0  0  0  0
  -22.5779  -10.3462   20.5624 C   0  0  0  0  0  0  0  0  0  0  0  0
  -24.4219   -9.1956   21.6173 C   0  0  0  0  0  0  0  0  0  0  0  0
  -25.7512  -34.0970   24.6546 C   0  0  0  0  0  0  0  0  0  0  0  0
  -25.5751  -31.3360   24.3506 C   0  0  0  0  0  0  0  0  0  0  0  0
  -27.9595  -27.5691   21.9485 C   0  0  0  0  0  0  0  0  0  0  0  0
  -21.8201   -9.1762   20.6109 C   0  0  0  0  0  0  0  0  0  0  0  0
  -23.6641   -8.0256   21.6659 C   0  0  0  0  0  0  0  0  0  0  0  0
  -27.9750  -26.3236   22.5748 C   0  0  0  0  0  0  0  0  0  0  0  0
  -21.1877   -6.7413   23.5732 C   0  0  0  0  0  0  0  0  0  0  0  0
  -21.1971   -6.0138   24.7633 C   0  0  0  0  0  0  0  0  0  0  0  0
  -26.1693  -25.5925   21.1521 C   0  0  0  0  0  0  0  0  0  0  0  0
  -22.0977   -4.1042   23.5888 C   0  0  0  0  0  0  0  0  0  0  0  0
  -23.8789  -10.3559   21.0655 C   0  0  0  0  0  0  0  0  0  0  0  0
  -24.3568  -12.8010   21.6139 C   0  0  0  0  0  0  0  0  0  0  0  0
  -24.9901  -33.5682   23.6003 C   0  0  0  0  0  0  0  0  0  0  0  0
  -27.0399  -27.8398   20.9250 C   0  0  0  0  0  0  0  0  0  0  0  0
  -24.8914  -32.1716   23.4511 C   0  0  0  0  0  0  0  0  0  0  0  0
  -26.1458  -26.8414   20.5127 C   0  0  0  0  0  0  0  0  0  0  0  0
  -22.3632   -8.0159   21.1627 C   0  0  0  0  0  0  0  0  0  0  0  0
  -27.0779  -25.3360   22.1786 C   0  0  0  0  0  0  0  0  0  0  0  0
  -21.6332   -6.1502   22.3909 C   0  0  0  0  0  0  0  0  0  0  0  0
  -21.6521   -4.6952   24.7711 C   0  0  0  0  0  0  0  0  0  0  0  0
  -22.0882   -4.8317   22.3987 C   0  0  0  0  0  0  0  0  0  0  0  0
  -24.6624  -11.5641   21.0152 C   0  0  0  0  0  0  0  0  0  0  0  0
  -25.4083  -13.6164   21.2732 C   0  0  0  0  0  0  0  0  0  0  0  0
  -23.2239  -13.1791   22.4071 C   0  0  0  0  0  0  0  0  0  0  0  0
  -24.6593  -29.9102   20.5381 C   0  0  0  0  0  0  0  0  0  0  0  0
  -24.5930  -28.6774   17.5385 C   0  0  0  0  0  0  0  0  0  0  0  0
  -24.8697  -25.4133   16.0262 C   0  0  0  0  0  0  0  0  0  0  0  0
  -30.8850  -14.4940   20.6561 C   0  0  0  0  0  0  0  0  0  0  0  0
  -24.2432  -34.5172   22.6969 C   0  0  0  0  0  0  0  0  0  0  0  0
  -27.0538  -29.1795   20.2413 C   0  0  0  0  0  0  0  0  0  0  0  0
  -25.1523  -27.0748   19.4051 C   0  0  0  0  0  0  0  0  0  0  0  0
  -23.7631  -33.8722   21.3993 C   0  0  0  0  0  0  0  0  0  0  0  0
  -29.1667  -12.9305   17.9580 C   0  0  0  0  0  0  0  0  0  0  0  0
  -25.3645  -18.9453   21.2909 C   0  0  0  0  0  0  0  0  0  0  0  0
  -23.1031  -32.5268   21.6843 C   0  0  0  0  0  0  0  0  0  0  0  0
  -27.8197  -12.5324   18.5639 C   0  0  0  0  0  0  0  0  0  0  0  0
  -26.7009  -18.2607   21.5567 C   0  0  0  0  0  0  0  0  0  0  0  0
  -30.3050  -12.7796   18.9647 C   0  0  0  0  0  0  0  0  0  0  0  0
  -25.5275  -20.3568   21.8288 C   0  0  0  0  0  0  0  0  0  0  0  0
  -28.7488  -13.0817   20.8517 C   0  0  0  0  0  0  0  0  0  0  0  0
  -24.0967  -31.5493   22.3236 C   0  0  1  0  0  0  0  0  0  0  0  0
  -25.7307  -29.5168   19.5609 C   0  0  1  0  0  0  0  0  0  0  0  0
  -27.5619  -13.2704   19.8914 C   0  0  2  0  0  0  0  0  0  0  0  0
  -27.5782  -19.3275   22.2157 C   0  0  1  0  0  0  0  0  0  0  0  0
  -25.6545  -24.7351   13.7411 C   0  0  0  0  0  0  0  0  0  0  0  0
  -21.6338  -28.7958   16.8041 C   0  0  0  0  0  0  0  0  0  0  0  0
  -21.9801  -26.7723   15.3710 C   0  0  0  0  0  0  0  0  0  0  0  0
  -23.1971  -28.8876   14.8542 C   0  0  0  0  0  0  0  0  0  0  0  0
  -26.8946  -23.5661   17.1428 C   0  0  0  0  0  0  0  0  0  0  0  0
  -29.0419  -19.1786   21.8205 C   0  0  0  0  0  0  0  0  0  0  0  0
  -27.3770  -21.7447   22.5281 C   0  0  0  0  0  0  0  0  0  0  0  0
  -31.3222  -16.1820   22.4221 C   0  0  0  0  0  0  0  0  0  0  0  0
  -30.9413  -17.5590   21.9114 C   0  0  0  0  0  0  0  0  0  0  0  0
  -26.6914  -22.9959   22.0050 C   0  0  0  0  0  0  0  0  0  1  0  0
  -23.8806  -27.5255   16.8715 C   0  0  1  0  0  0  0  0  0  0  0  0
  -26.0338  -24.8876   15.2059 C   0  0  2  0  0  0  0  0  0  0  0  0
  -22.6794  -27.9947   16.0029 C   0  0  0  0  0  0  0  0  0  0  0  0
  -25.8174  -11.5870   20.3449 N   0  0  0  0  0  0  0  0  0  0  0  0
  -26.2469  -12.8483   20.5202 N   0  0  0  0  0  0  0  0  0  0  0  0
  -25.2008  -28.4030   18.7718 N   0  0  0  0  0  0  0  0  0  0  0  0
  -29.9988  -13.5040   20.2006 N   0  0  0  0  0  0  0  0  0  0  0  0
  -26.9728  -20.5818   21.7471 N   0  0  2  0  0  0  0  0  0  0  0  0
  -25.6881  -14.9083   21.5473 N   0  0  0  0  0  0  0  0  0  0  0  0
  -23.2946  -13.0096   23.7965 N   0  0  0  0  0  0  0  0  0  0  0  0
  -24.9843  -31.0023   21.3199 N   0  0  0  0  0  0  0  0  0  0  0  0
  -24.8998  -26.7877   16.1332 N   0  0  0  0  0  0  0  0  0  0  0  0
  -30.5164  -15.1366   21.8317 N   0  0  0  0  0  0  0  0  0  0  0  0
  -26.4706  -23.5583   15.7191 N   0  3  0  0  0  0  0  0  0  0  0  0
  -29.5301  -17.8623   22.2834 N   0  3  0  0  0  0  0  0  0  0  0  0
  -22.1737  -13.6380   21.8972 O   0  0  0  0  0  0  0  0  0  0  0  0
  -23.6145  -29.2712   20.5788 O   0  0  0  0  0  0  0  0  0  0  0  0
  -24.6156  -29.7781   16.9821 O   0  0  0  0  0  0  0  0  0  0  0  0
  -24.0168  -24.6786   16.5195 O   0  0  0  0  0  0  0  0  0  0  0  0
  -31.9249  -14.7875   20.0565 O   0  0  0  0  0  0  0  0  0  0  0  0
  -21.6239   -6.8741   21.2104 O   0  0  0  0  0  0  0  0  0  0  0  0
  -27.0905  -24.1197   22.7887 O   0  0  0  0  0  0  0  0  0  1  0  0
  -21.6626   -3.9972   25.9143 F   0  0  0  0  0  0  0  0  0  0  0  0
  -22.5186   -4.2589   21.2662 F   0  0  0  0  0  0  0  0  0  0  0  0
  1  2  1  0  0  0  0
  1  5  2  0  0  0  0
  2  6  2  0  0  0  0
  3  8  2  0  0  0  0
  3 15  1  0  0  0  0
  4  9  1  0  0  0  0
  4 15  2  0  0  0  0
  5 17  1  0  0  0  0
  6 19  1  0  0  0  0
  7 10  2  0  0  0  0
  7 18  1  0  0  0  0
  8 21  1  0  0  0  0
  9 21  2  0  0  0  0
 10 22  1  0  0  0  0
 11 12  2  0  0  0  0
 11 23  1  0  0  0  0
 12 24  1  0  0  0  0
 13 20  1  0  0  0  0
 13 22  2  0  0  0  0
 14 24  2  0  0  0  0
 14 25  1  0  0  0  0
 15 26  1  0  0  0  0
 16 26  1  0  0  0  0
 16 27  2  0  0  0  0
 16 28  1  0  0  0  0
 17 19  2  0  0  0  0
 17 33  1  0  0  0  0
 18 20  2  0  0  0  0
 18 34  1  0  0  0  0
 19 45  1  0  0  0  0
 20 35  1  0  0  0  0
 21 79  1  0  0  0  0
 22 80  1  0  0  0  0
 23 25  2  0  0  0  0
 23 79  1  0  0  0  0
 24 81  1  0  0  0  0
 25 82  1  0  0  0  0
 26 62  2  0  0  0  0
 27 63  1  0  0  0  0
 27 67  1  0  0  0  0
 28 68  1  0  0  0  0
 28 74  2  0  0  0  0
 29 46  1  0  0  0  0
 29 69  1  0  0  0  0
 29 75  2  0  0  0  0
 30 59  1  0  0  0  0
 30 64  1  0  0  0  0
 30 76  2  0  0  0  0
 31 60  1  0  0  0  0
 31 70  1  0  0  0  0
 31 77  2  0  0  0  0
 32 65  1  0  0  0  0
 32 71  1  0  0  0  0
 32 78  2  0  0  0  0
 33 36  1  0  0  0  0
 34 46  1  0  0  0  0
 35 64  1  0  0  0  0
 36 39  1  0  0  0  0
 37 40  1  0  0  0  0
 37 42  1  0  0  0  0
 38 41  1  0  0  0  0
 38 43  1  0  0  0  0
 39 45  1  0  0  0  0
 40 47  1  0  0  0  0
 41 48  1  0  0  0  0
 42 65  1  0  0  0  0
 43 66  1  0  0  0  0
 44 47  1  0  0  0  0
 44 65  1  0  0  0  0
 45 69  1  0  0  0  0
 46 64  1  0  0  0  0
 47 63  1  0  0  0  0
 48 54  1  0  0  0  0
 48 66  1  0  0  0  0
 49 60  1  0  0  0  0
 50 61  1  0  0  0  0
 51 61  1  0  0  0  0
 52 61  1  0  0  0  0
 53 72  1  0  0  0  0
 54 73  1  0  0  0  0
 55 58  1  0  0  0  0
 55 66  1  0  0  0  0
 56 57  1  0  0  0  0
 56 71  1  0  0  0  0
 57 73  1  0  0  0  0
 58 80  1  0  0  0  0
 59 61  1  0  0  0  0
 59 70  1  0  0  0  0
 60 72  1  0  0  0  0
 62 63  1  0  0  0  0
M  CHG  2  72   1  73   1
M  ISO  4  32 100  58 101  71 100  80 101
M  END
> <Batch ID>
0124

> <Smiles>
CNC(C)C(=O)NC(C(=O)N1Cc2cc([101O:1][101CH2:1]CN3CCCC3CNCC[100NH:0][100C:0](=O)N3CCCC(n4nc(-c5ccc(Oc6ccc(F)cc6F)cc5)c(C(N)=O)c4N)C3)ccc2CC1C(=O)NC1CCCc2ccccc21)C(C)(C)C

> <Shape>
0.320

> <Color>
0.165

> <Negative vol penalty>
0.000

$$$$

  -OEChem-04052320333D

 87 96  0     1  0  0  0  0  0999 V2000
  -30.8862  -21.7268   18.4737 C   0  0  0  0  0  0  0  0  0  0  0  0
  -29.6461  -21.8996   19.0801 C   0  0  0  0  0  0  0  0  0  0  0  0
  -22.6765  -10.3189   20.4144 C   0  0  0  0  0  0  0  0  0  0  0  0
  -24.5540   -9.2517   21.4976 C   0  0  0  0  0  0  0  0  0  0  0  0
  -31.8996  -22.6611   18.6834 C   0  0  0  0  0  0  0  0  0  0  0  0
  -29.4190  -23.0063   19.8975 C   0  0  0  0  0  0  0  0  0  0  0  0
  -24.9583  -25.2195   18.9762 C   0  0  0  0  0  0  0  0  0  0  0  0
  -21.8031   -9.6618   21.2809 C   0  0  0  0  0  0  0  0  0  0  0  0
  -23.6805   -8.5946   22.3642 C   0  0  0  0  0  0  0  0  0  0  0  0
  -23.8225  -24.6063   19.5032 C   0  0  0  0  0  0  0  0  0  0  0  0
  -21.6314   -5.9070   22.2707 C   0  0  0  0  0  0  0  0  0  0  0  0
  -21.8480   -4.5487   22.5022 C   0  0  0  0  0  0  0  0  0  0  0  0
  -23.8162  -26.1931   21.3201 C   0  0  0  0  0  0  0  0  0  0  0  0
  -22.1400   -4.9969   24.8583 C   0  0  0  0  0  0  0  0  0  0  0  0
  -24.0520  -10.1138   20.5227 C   0  0  0  0  0  0  0  0  0  0  0  0
  -24.9901  -10.6976   18.2234 C   0  0  0  0  0  0  0  0  0  0  0  0
  -31.6818  -23.7849   19.4961 C   0  0  0  0  0  0  0  0  0  0  0  0
  -25.5390  -26.3191   19.6243 C   0  0  0  0  0  0  0  0  0  0  0  0
  -30.4310  -23.9558   20.1193 C   0  0  0  0  0  0  0  0  0  0  0  0
  -24.9579  -26.8200   20.7980 C   0  0  0  0  0  0  0  0  0  0  0  0
  -22.3050   -8.7996   22.2558 C   0  0  0  0  0  0  0  0  0  0  0  0
  -23.2529  -25.0913   20.6768 C   0  0  0  0  0  0  0  0  0  0  0  0
  -21.6691   -6.8103   23.3330 C   0  0  0  0  0  0  0  0  0  0  0  0
  -22.1023   -4.0936   23.7960 C   0  0  0  0  0  0  0  0  0  0  0  0
  -21.9233   -6.3552   24.6268 C   0  0  0  0  0  0  0  0  0  0  0  0
  -24.9548  -10.7919   19.6276 C   0  0  0  0  0  0  0  0  0  0  0  0
  -26.0187  -11.5274   17.8493 C   0  0  0  0  0  0  0  0  0  0  0  0
  -24.1667   -9.9288   17.3365 C   0  0  0  0  0  0  0  0  0  0  0  0
  -28.3630  -26.8993   20.9630 C   0  0  0  0  0  0  0  0  0  0  0  0
  -27.1747  -29.9044   21.2453 C   0  0  0  0  0  0  0  0  0  0  0  0
  -24.0225  -31.4168   22.1362 C   0  0  0  0  0  0  0  0  0  0  0  0
  -28.5534  -16.2984   20.4309 C   0  0  0  0  0  0  0  0  0  0  0  0
  -32.8228  -24.7428   19.7311 C   0  0  0  0  0  0  0  0  0  0  0  0
  -26.7485  -26.9859   19.0286 C   0  0  0  0  0  0  0  0  0  0  0  0
  -25.5310  -28.0104   21.5212 C   0  0  0  0  0  0  0  0  0  0  0  0
  -32.3820  -26.0846   20.3106 C   0  0  0  0  0  0  0  0  0  0  0  0
  -30.1747  -13.2888   19.4356 C   0  0  0  0  0  0  0  0  0  0  0  0
  -19.6105  -20.9104   22.4064 C   0  0  0  0  0  0  0  0  0  0  0  0
  -31.4087  -25.8732   21.4659 C   0  0  0  0  0  0  0  0  0  0  0  0
  -20.9860  -20.7838   23.0544 C   0  0  0  0  0  0  0  0  0  0  0  0
  -26.5714  -20.3528   21.5572 C   0  0  0  0  0  0  0  0  0  0  0  0
  -25.6400  -18.1217   22.3061 C   0  0  0  0  0  0  0  0  0  0  0  0
  -29.0239  -12.2991   19.2453 C   0  0  0  0  0  0  0  0  0  0  0  0
  -26.2756  -20.9426   22.9368 C   0  0  0  0  0  0  0  0  0  0  0  0
  -25.3414  -18.7068   23.6873 C   0  0  0  0  0  0  0  0  0  0  0  0
  -29.9161  -14.2370   20.6044 C   0  0  0  0  0  0  0  0  0  0  0  0
  -27.4792  -13.9667   20.3550 C   0  0  0  0  0  0  0  0  0  0  0  0
  -18.9491  -22.2311   22.7555 C   0  0  0  0  0  0  0  0  0  0  0  0
  -30.1383  -25.1563   20.9930 C   0  0  1  0  0  0  0  0  0  0  0  0
  -27.5571  -27.7796   20.0502 C   0  0  1  0  0  0  0  0  0  0  0  0
  -26.8137  -18.8392   21.6264 C   0  0  0  0  0  0  0  0  0  0  0  0
  -21.8941  -21.9765   22.7093 C   0  0  1  0  0  0  0  0  0  0  0  0
  -27.6688  -13.0259   19.1528 C   0  0  2  0  0  0  0  0  0  0  0  0
  -25.1438  -20.2221   23.6684 C   0  0  0  0  0  0  0  0  0  0  0  0
  -21.2056  -23.3094   23.0630 C   0  0  1  0  0  0  0  0  0  0  0  0
  -23.0317  -33.6282   21.4838 C   0  0  0  0  0  0  0  0  0  0  0  0
  -28.4185  -30.9016   23.8470 C   0  0  0  0  0  0  0  0  0  0  0  0
  -26.3830  -32.3170   24.1962 C   0  0  0  0  0  0  0  0  0  0  0  0
  -27.8416  -32.7016   22.2094 C   0  0  0  0  0  0  0  0  0  0  0  0
  -21.5621  -30.1398   21.0995 C   0  0  0  0  0  0  0  0  0  0  0  0
  -27.0578  -18.2687   20.2304 C   0  0  0  0  0  0  0  0  0  0  0  0
  -23.2382  -21.8182   23.4247 C   0  0  0  0  0  0  0  0  0  0  0  0
  -21.9824  -24.5415   22.6106 C   0  0  0  0  0  0  0  0  0  1  0  0
  -26.3748  -30.6440   22.2904 C   0  0  1  0  0  0  0  0  0  0  0  0
  -23.0628  -32.1337   21.2037 C   0  0  2  0  0  0  0  0  0  0  0  0
  -27.2521  -31.6129   23.1324 C   0  0  0  0  0  0  0  0  0  0  0  0
  -25.8870  -11.6164   20.1126 N   0  0  0  0  0  0  0  0  0  0  0  0
  -26.5178  -12.0477   19.0071 N   0  0  0  0  0  0  0  0  0  0  0  0
  -26.7177  -28.6240   20.9026 N   0  0  0  0  0  0  0  0  0  0  0  0
  -28.6160  -14.8953   20.4553 N   0  0  0  0  0  0  0  0  0  0  0  0
  -26.5360  -11.8554   16.6463 N   0  0  0  0  0  0  0  0  0  0  0  0
  -24.5729   -8.6287   17.0064 N   0  0  0  0  0  0  0  0  0  0  0  0
  -29.2621  -26.0810   20.3062 N   0  0  0  0  0  0  0  0  0  0  0  0
  -25.2786  -31.2944   21.5807 N   0  0  0  0  0  0  0  0  0  0  0  0
  -27.2833  -16.8413   20.2799 N   0  0  0  0  0  0  0  0  0  0  0  0
  -19.8630  -23.3495   22.3813 N   0  3  0  0  0  0  0  0  0  0  0  0
  -23.8469  -20.5411   23.0046 N   0  3  0  0  0  0  0  0  0  0  0  0
  -21.6826  -31.5960   21.3676 N   0  3  0  0  0  0  0  0  0  0  0  0
  -23.1108  -10.3872   16.8382 O   0  0  0  0  0  0  0  0  0  0  0  0
  -28.1835  -26.9593   22.1738 O   0  0  0  0  0  0  0  0  0  0  0  0
  -28.1643  -30.4459   20.7461 O   0  0  0  0  0  0  0  0  0  0  0  0
  -23.6920  -31.0096   23.2477 O   0  0  0  0  0  0  0  0  0  0  0  0
  -29.5558  -17.0141   20.5305 O   0  0  0  0  0  0  0  0  0  0  0  0
  -21.4530   -8.1584   23.1016 O   0  0  0  0  0  0  0  0  0  0  0  0
  -22.1446  -24.4943   21.1936 O   0  0  0  0  0  0  0  0  0  1  0  0
  -22.3088   -2.7890   24.0184 F   0  0  0  0  0  0  0  0  0  0  0  0
  -21.9596   -7.2181   25.6515 F   0  0  0  0  0  0  0  0  0  0  0  0
  1  2  1  0  0  0  0
  1  5  2  0  0  0  0
  2  6  2  0  0  0  0
  3  8  2  0  0  0  0
  3 15  1  0  0  0  0
  4  9  1  0  0  0  0
  4 15  2  0  0  0  0
  5 17  1  0  0  0  0
  6 19  1  0  0  0  0
  7 10  2  0  0  0  0
  7 18  1  0  0  0  0
  8 21  1  0  0  0  0
  9 21  2  0  0  0  0
 10 22  1  0  0  0  0
 11 12  2  0  0  0  0
 11 23  1  0  0  0  0
 12 24  1  0  0  0  0
 13 20  1  0  0  0  0
 13 22  2  0  0  0  0
 14 24  2  0  0  0  0
 14 25  1  0  0  0  0
 15 26  1  0  0  0  0
 16 26  1  0  0  0  0
 16 27  2  0  0  0  0
 16 28  1  0  0  0  0
 17 19  2  0  0  0  0
 17 33  1  0  0  0  0
 18 20  2  0  0  0  0
 18 34  1  0  0  0  0
 19 49  1  0  0  0  0
 20 35  1  0  0  0  0
 21 84  1  0  0  0  0
 22 85  1  0  0  0  0
 23 25  2  0  0  0  0
 23 84  1  0  0  0  0
 24 86  1  0  0  0  0
 25 87  1  0  0  0  0
 26 67  2  0  0  0  0
 27 68  1  0  0  0  0
 27 71  1  0  0  0  0
 28 72  1  0  0  0  0
 28 79  2  0  0  0  0
 29 50  1  0  0  0  0
 29 73  1  0  0  0  0
 29 80  2  0  0  0  0
 30 64  1  0  0  0  0
 30 69  1  0  0  0  0
 30 81  2  0  0  0  0
 31 65  1  0  0  0  0
 31 74  1  0  0  0  0
 31 82  2  0  0  0  0
 32 70  1  0  0  0  0
 32 75  1  0  0  0  0
 32 83  2  0  0  0  0
 33 36  1  0  0  0  0
 34 50  1  0  0  0  0
 35 69  1  0  0  0  0
 36 39  1  0  0  0  0
 37 43  1  0  0  0  0
 37 46  1  0  0  0  0
 38 40  1  0  0  0  0
 38 48  1  0  0  0  0
 39 49  1  0  0  0  0
 40 52  1  0  0  0  0
 41 44  1  0  0  0  0
 41 51  1  0  0  0  0
 42 45  1  0  0  0  0
 42 51  1  0  0  0  0
 43 53  1  0  0  0  0
 44 54  1  0  0  0  0
 45 54  1  0  0  0  0
 46 70  1  0  0  0  0
 47 53  1  0  0  0  0
 47 70  1  0  0  0  0
 48 76  1  0  0  0  0
 49 73  1  0  0  0  0
 50 69  1  0  0  0  0
 51 61  1  0  0  0  0
 52 55  1  0  0  0  0
 52 62  1  0  0  0  0
 53 68  1  0  0  0  0
 54 77  1  0  0  0  0
 55 63  1  0  0  0  0
 55 76  1  0  0  0  0
 56 65  1  0  0  0  0
 57 66  1  0  0  0  0
 58 66  1  0  0  0  0
 59 66  1  0  0  0  0
 60 78  1  0  0  0  0
 61 75  1  0  0  0  0
 62 77  1  0  0  0  0
 63 85  1  0  0  0  0
 64 66  1  0  0  0  0
 64 74  1  0  0  0  0
 65 78  1  0  0  0  0
 67 68  1  0  0  0  0
M  CHG  3  76   1  77   1  78   1
M  ISO  4  32 100  63 101  75 100  85 101
M  END
> <Batch ID>
0124

> <Smiles>
CNC(C)C(=O)NC(C(=O)N1Cc2cc([101O:1][101CH2:1]C3NCCCC3CNC3CCC(C[100NH:0][100C:0](=O)N4CCCC(n5nc(-c6ccc(Oc7ccc(F)cc7F)cc6)c(C(N)=O)c5N)C4)CC3)ccc2CC1C(=O)NC1CCCc2ccccc21)C(C)(C)C

> <Shape>
0.270

> <Color>
0.073

> <Negative vol penalty>
0.000

$$$$

  -OEChem-04052320333D

 86 95  0     1  0  0  0  0  0999 V2000
  -22.8603  -21.9469   19.4268 C   0  0  0  0  0  0  0  0  0  0  0  0
  -23.3832  -20.8803   20.1509 C   0  0  0  0  0  0  0  0  0  0  0  0
  -23.0754   -9.8685   19.9408 C   0  0  0  0  0  0  0  0  0  0  0  0
  -23.8351   -9.8748   22.2342 C   0  0  0  0  0  0  0  0  0  0  0  0
  -23.2495  -23.2510   19.7296 C   0  0  0  0  0  0  0  0  0  0  0  0
  -24.2965  -21.1172   21.1776 C   0  0  0  0  0  0  0  0  0  0  0  0
  -26.3247  -18.5460   27.5488 C   0  0  0  0  0  0  0  0  0  0  0  0
  -32.6748  -17.4657   23.4352 C   0  0  0  0  0  0  0  0  0  0  0  0
  -32.0668  -16.5897   22.5359 C   0  0  0  0  0  0  0  0  0  0  0  0
  -22.3311   -8.7156   20.1905 C   0  0  0  0  0  0  0  0  0  0  0  0
  -23.0907   -8.7219   22.4840 C   0  0  0  0  0  0  0  0  0  0  0  0
  -27.4694  -18.1305   28.2278 C   0  0  0  0  0  0  0  0  0  0  0  0
  -21.1046   -5.9854   23.8199 C   0  0  0  0  0  0  0  0  0  0  0  0
  -20.3482   -5.9419   24.9911 C   0  0  0  0  0  0  0  0  0  0  0  0
  -30.5076  -18.3395   24.0492 C   0  0  0  0  0  0  0  0  0  0  0  0
  -28.0084  -20.4309   28.7144 C   0  0  0  0  0  0  0  0  0  0  0  0
  -19.1044   -7.8798   24.2597 C   0  0  0  0  0  0  0  0  0  0  0  0
  -23.8275  -10.4481   20.9627 C   0  0  0  0  0  0  0  0  0  0  0  0
  -24.1704  -12.9731   20.8431 C   0  0  0  0  0  0  0  0  0  0  0  0
  -24.1607  -23.5047   20.7669 C   0  0  0  0  0  0  0  0  0  0  0  0
  -26.0186  -19.9100   27.4380 C   0  0  0  0  0  0  0  0  0  0  0  0
  -24.6993  -22.4258   21.4937 C   0  0  0  0  0  0  0  0  0  0  0  0
  -29.8997  -17.4636   23.1499 C   0  0  0  0  0  0  0  0  0  0  0  0
  -26.8580  -20.8610   28.0357 C   0  0  0  0  0  0  0  0  0  0  0  0
  -31.8952  -18.3406   24.1918 C   0  0  0  0  0  0  0  0  0  0  0  0
  -30.6793  -16.5886   22.3933 C   0  0  0  0  0  0  0  0  0  0  0  0
  -22.3387   -8.1423   21.4621 C   0  0  0  0  0  0  0  0  0  0  0  0
  -28.3129  -19.0732   28.8082 C   0  0  0  0  0  0  0  0  0  0  0  0
  -20.8610   -6.9761   22.8687 C   0  0  0  0  0  0  0  0  0  0  0  0
  -19.3481   -6.8891   25.2109 C   0  0  0  0  0  0  0  0  0  0  0  0
  -19.8609   -7.9233   23.0886 C   0  0  0  0  0  0  0  0  0  0  0  0
  -24.5971  -11.6387   20.7052 C   0  0  0  0  0  0  0  0  0  0  0  0
  -25.2629  -13.7222   20.4800 C   0  0  0  0  0  0  0  0  0  0  0  0
  -22.9001  -13.4894   21.2620 C   0  0  0  0  0  0  0  0  0  0  0  0
  -25.6958  -21.9472   25.0195 C   0  0  0  0  0  0  0  0  0  0  0  0
  -24.7399  -23.9741   27.3647 C   0  0  0  0  0  0  0  0  0  0  0  0
  -24.8017  -24.8131   30.6721 C   0  0  0  0  0  0  0  0  0  0  0  0
  -30.7295  -14.7656   20.6554 C   0  0  0  0  0  0  0  0  0  0  0  0
  -24.5875  -24.9278   21.0263 C   0  0  0  0  0  0  0  0  0  0  0  0
  -24.7660  -20.3404   26.7253 C   0  0  0  0  0  0  0  0  0  0  0  0
  -26.5633  -22.3362   27.9627 C   0  0  0  0  0  0  0  0  0  0  0  0
  -25.2741  -25.1214   22.3759 C   0  0  0  0  0  0  0  0  0  0  0  0
  -29.6143  -12.3526   18.2866 C   0  0  0  0  0  0  0  0  0  0  0  0
  -27.8035  -17.6952   21.6578 C   0  0  0  0  0  0  0  0  0  0  0  0
  -27.7238  -18.7788   22.6872 C   0  0  0  0  0  0  0  0  0  0  0  0
  -26.3198  -24.0345   22.6037 C   0  0  0  0  0  0  0  0  0  0  0  0
  -28.1745  -12.0615   18.7160 C   0  0  0  0  0  0  0  0  0  0  0  0
  -30.5294  -12.5808   19.4884 C   0  0  0  0  0  0  0  0  0  0  0  0
  -28.6226  -13.3058   20.8696 C   0  0  0  0  0  0  0  0  0  0  0  0
  -28.4117  -17.4817   23.0177 C   0  0  0  0  0  0  0  0  0  0  0  0
  -25.6735  -22.6442   22.6310 C   0  0  1  0  0  0  0  0  0  0  0  0
  -24.8246  -21.7831   26.2326 C   0  0  1  0  0  0  0  0  0  0  0  0
  -27.6498  -13.1332   19.6917 C   0  0  2  0  0  0  0  0  0  0  0  0
  -23.9574  -26.5434   32.2816 C   0  0  0  0  0  0  0  0  0  0  0  0
  -30.0251  -16.4347   30.1497 C   0  0  0  0  0  0  0  0  0  0  0  0
  -26.8404  -25.9404   26.3491 C   0  0  0  0  0  0  0  0  0  0  0  0
  -26.6156  -27.1880   28.5080 C   0  0  0  0  0  0  0  0  0  0  0  0
  -24.6554  -26.9812   26.9791 C   0  0  0  0  0  0  0  0  0  0  0  0
  -23.2873  -22.7985   32.2236 C   0  0  0  0  0  0  0  0  0  0  0  0
  -32.5499  -19.2821   25.1609 C   0  0  0  0  0  0  0  0  0  0  0  0
  -32.7163  -18.7061   26.5635 C   0  0  0  0  0  0  0  0  0  0  0  0
  -31.4477  -17.7865   28.5087 C   0  0  0  0  0  0  0  0  0  0  0  0
  -25.4337  -24.9562   28.2774 C   0  0  1  0  0  0  0  0  0  0  0  0
  -23.6920  -25.1922   31.6361 C   0  0  2  0  0  0  0  0  0  0  0  0
  -30.0500  -17.4636   29.0269 C   0  0  2  0  0  0  0  0  0  1  0  0
  -25.8932  -26.2388   27.5283 C   0  0  0  0  0  0  0  0  0  0  0  0
  -25.8620  -11.5424   20.2870 N   0  0  0  0  0  0  0  0  0  0  0  0
  -26.2394  -12.8259   20.1589 N   0  0  0  0  0  0  0  0  0  0  0  0
  -25.3300  -22.7075   27.2495 N   0  0  0  0  0  0  0  0  0  0  0  0
  -29.9707  -13.6118   20.3659 N   0  0  0  0  0  0  0  0  0  0  0  0
  -25.4738  -15.0536   20.4072 N   0  0  0  0  0  0  0  0  0  0  0  0
  -21.8877  -12.5806   21.5990 N   0  0  0  0  0  0  0  0  0  0  0  0
  -30.0824  -15.6908   21.4739 N   0  0  0  0  0  0  0  0  0  0  0  0
  -25.0257  -22.4129   23.9044 N   0  0  0  0  0  0  0  0  0  0  0  0
  -24.5143  -25.2065   29.3822 N   0  0  0  0  0  0  0  0  0  0  0  0
  -23.5719  -24.1713   32.7151 N   0  3  0  0  0  0  0  0  0  0  0  0
  -31.3870  -18.4089   27.1627 N   0  3  0  0  0  0  0  0  0  0  0  0
  -22.6643  -14.7201   21.3195 O   0  0  0  0  0  0  0  0  0  0  0  0
  -26.8881  -21.6731   25.0903 O   0  0  0  0  0  0  0  0  0  0  0  0
  -23.7082  -24.3158   26.7811 O   0  0  0  0  0  0  0  0  0  0  0  0
  -25.8232  -24.2298   31.0285 O   0  0  0  0  0  0  0  0  0  0  0  0
  -31.8587  -14.9339   20.1879 O   0  0  0  0  0  0  0  0  0  0  0  0
  -21.6123   -7.0175   21.7061 O   0  0  0  0  0  0  0  0  0  0  0  0
  -29.4312  -18.6704   29.4709 O   0  0  0  0  0  0  0  0  0  1  0  0
  -18.6208   -6.8463   26.3349 F   0  0  0  0  0  0  0  0  0  0  0  0
  -19.6215   -8.8767   22.1778 F   0  0  0  0  0  0  0  0  0  0  0  0
  1  2  1  0  0  0  0
  1  5  2  0  0  0  0
  2  6  2  0  0  0  0
  3 10  2  0  0  0  0
  3 18  1  0  0  0  0
  4 11  1  0  0  0  0
  4 18  2  0  0  0  0
  5 20  1  0  0  0  0
  6 22  1  0  0  0  0
  7 12  2  0  0  0  0
  7 21  1  0  0  0  0
  8  9  2  0  0  0  0
  8 25  1  0  0  0  0
  9 26  1  0  0  0  0
 10 27  1  0  0  0  0
 11 27  2  0  0  0  0
 12 28  1  0  0  0  0
 13 14  2  0  0  0  0
 13 29  1  0  0  0  0
 14 30  1  0  0  0  0
 15 23  1  0  0  0  0
 15 25  2  0  0  0  0
 16 24  1  0  0  0  0
 16 28  2  0  0  0  0
 17 30  2  0  0  0  0
 17 31  1  0  0  0  0
 18 32  1  0  0  0  0
 19 32  1  0  0  0  0
 19 33  2  0  0  0  0
 19 34  1  0  0  0  0
 20 22  2  0  0  0  0
 20 39  1  0  0  0  0
 21 24  2  0  0  0  0
 21 40  1  0  0  0  0
 22 51  1  0  0  0  0
 23 26  2  0  0  0  0
 23 50  1  0  0  0  0
 24 41  1  0  0  0  0
 25 60  1  0  0  0  0
 26 73  1  0  0  0  0
 27 83  1  0  0  0  0
 28 84  1  0  0  0  0
 29 31  2  0  0  0  0
 29 83  1  0  0  0  0
 30 85  1  0  0  0  0
 31 86  1  0  0  0  0
 32 67  2  0  0  0  0
 33 68  1  0  0  0  0
 33 71  1  0  0  0  0
 34 72  1  0  0  0  0
 34 78  2  0  0  0  0
 35 52  1  0  0  0  0
 35 74  1  0  0  0  0
 35 79  2  0  0  0  0
 36 63  1  0  0  0  0
 36 69  1  0  0  0  0
 36 80  2  0  0  0  0
 37 64  1  0  0  0  0
 37 75  1  0  0  0  0
 37 81  2  0  0  0  0
 38 70  1  0  0  0  0
 38 73  1  0  0  0  0
 38 82  2  0  0  0  0
 39 42  1  0  0  0  0
 40 52  1  0  0  0  0
 41 69  1  0  0  0  0
 42 46  1  0  0  0  0
 43 47  1  0  0  0  0
 43 48  1  0  0  0  0
 44 45  1  0  0  0  0
 44 50  1  0  0  0  0
 45 50  1  0  0  0  0
 46 51  1  0  0  0  0
 47 53  1  0  0  0  0
 48 70  1  0  0  0  0
 49 53  1  0  0  0  0
 49 70  1  0  0  0  0
 51 74  1  0  0  0  0
 52 69  1  0  0  0  0
 53 68  1  0  0  0  0
 54 64  1  0  0  0  0
 55 65  1  0  0  0  0
 56 66  1  0  0  0  0
 57 66  1  0  0  0  0
 58 66  1  0  0  0  0
 59 76  1  0  0  0  0
 60 61  1  0  0  0  0
 61 77  1  0  0  0  0
 62 65  1  0  0  0  0
 62 77  1  0  0  0  0
 63 66  1  0  0  0  0
 63 75  1  0  0  0  0
 64 76  1  0  0  0  0
 65 84  1  0  0  0  0
 67 68  1  0  0  0  0
M  CHG  2  76   1  77   1
M  ISO  4  38 100  65 101  73 100  84 101
M  END
> <Batch ID>
0124

> <Smiles>
CNC(C)C(=O)NC(C(=O)N1Cc2cc([101O:1][101CH:1](C)CNCCc3ccc([100NH:0][100C:0](=O)N4CCCC(n5nc(-c6ccc(Oc7ccc(F)cc7F)cc6)c(C(N)=O)c5N)C4)c(C4CC4)c3)ccc2CC1C(=O)NC1CCCc2ccccc21)C(C)(C)C

> <Shape>
0.164

> <Color>
0.192

> <Negative vol penalty>
0.000

$$$$

  -OEChem-04052320333D

 89 98  0     1  0  0  0  0  0999 V2000
  -28.6613  -34.3428   25.0457 C   0  0  0  0  0  0  0  0  0  0  0  0
  -29.3418  -33.2639   24.4905 C   0  0  0  0  0  0  0  0  0  0  0  0
  -20.7944  -18.2068   22.7131 C   0  0  0  0  0  0  0  0  0  0  0  0
  -21.4325  -18.1515   20.3835 C   0  0  0  0  0  0  0  0  0  0  0  0
  -27.2972  -34.2411   25.3153 C   0  0  0  0  0  0  0  0  0  0  0  0
  -28.6587  -32.0821   24.2056 C   0  0  0  0  0  0  0  0  0  0  0  0
  -28.6055  -26.6519   19.5336 C   0  0  0  0  0  0  0  0  0  0  0  0
  -28.1765  -18.9786   20.5430 C   0  0  0  0  0  0  0  0  0  0  0  0
  -28.3852  -19.0140   18.1363 C   0  0  0  0  0  0  0  0  0  0  0  0
  -28.3466  -20.3625   20.5781 C   0  0  0  0  0  0  0  0  0  0  0  0
  -28.5552  -20.3980   18.1714 C   0  0  0  0  0  0  0  0  0  0  0  0
  -20.2713  -19.4881   22.5394 C   0  0  0  0  0  0  0  0  0  0  0  0
  -20.9093  -19.4328   20.2098 C   0  0  0  0  0  0  0  0  0  0  0  0
  -28.6231  -25.2582   19.5019 C   0  0  0  0  0  0  0  0  0  0  0  0
  -21.4468  -22.6498   22.3232 C   0  0  0  0  0  0  0  0  0  0  0  0
  -21.7505  -23.6093   23.2889 C   0  0  0  0  0  0  0  0  0  0  0  0
  -26.2506  -25.2243   19.9366 C   0  0  0  0  0  0  0  0  0  0  0  0
  -19.3965  -23.8788   23.7613 C   0  0  0  0  0  0  0  0  0  0  0  0
  -21.3751  -17.5385   21.6351 C   0  0  0  0  0  0  0  0  0  0  0  0
  -21.2384  -14.9913   21.6573 C   0  0  0  0  0  0  0  0  0  0  0  0
  -26.5950  -33.0608   25.0245 C   0  0  0  0  0  0  0  0  0  0  0  0
  -27.4103  -27.3433   19.7784 C   0  0  0  0  0  0  0  0  0  0  0  0
  -27.2841  -31.9640   24.4727 C   0  0  0  0  0  0  0  0  0  0  0  0
  -26.2200  -26.6269   19.9684 C   0  0  0  0  0  0  0  0  0  0  0  0
  -28.1959  -18.3043   19.3220 C   0  0  0  0  0  0  0  0  0  0  0  0
  -28.5359  -21.0723   19.3923 C   0  0  0  0  0  0  0  0  0  0  0  0
  -20.3287  -20.1011   21.2878 C   0  0  0  0  0  0  0  0  0  0  0  0
  -27.4461  -24.5441   19.7062 C   0  0  0  0  0  0  0  0  0  0  0  0
  -20.1180  -22.3048   22.0764 C   0  0  0  0  0  0  0  0  0  0  0  0
  -20.7253  -24.2238   24.0080 C   0  0  0  0  0  0  0  0  0  0  0  0
  -19.0928  -22.9193   22.7955 C   0  0  0  0  0  0  0  0  0  0  0  0
  -21.9161  -16.2151   21.8141 C   0  0  0  0  0  0  0  0  0  0  0  0
  -22.1847  -14.0363   21.9383 C   0  0  0  0  0  0  0  0  0  0  0  0
  -19.8753  -14.7401   21.2903 C   0  0  0  0  0  0  0  0  0  0  0  0
  -26.3907  -29.3295   22.0409 C   0  0  0  0  0  0  0  0  0  0  0  0
  -23.8027  -29.5878   20.1024 C   0  0  0  0  0  0  0  0  0  0  0  0
  -21.8678  -28.2073   17.6534 C   0  0  0  0  0  0  0  0  0  0  0  0
  -28.2858  -14.5516   21.7112 C   0  0  0  0  0  0  0  0  0  0  0  0
  -25.1308  -32.9816   25.3774 C   0  0  0  0  0  0  0  0  0  0  0  0
  -27.4031  -28.8474   19.7829 C   0  0  0  0  0  0  0  0  0  0  0  0
  -24.9068  -27.3221   20.2148 C   0  0  0  0  0  0  0  0  0  0  0  0
  -24.4024  -31.8243   24.6989 C   0  0  0  0  0  0  0  0  0  0  0  0
  -26.1629  -13.3240   24.4891 C   0  0  0  0  0  0  0  0  0  0  0  0
  -25.2129  -30.5379   24.8220 C   0  0  0  0  0  0  0  0  0  0  0  0
  -24.7898  -13.8912   24.1319 C   0  0  0  0  0  0  0  0  0  0  0  0
  -27.8555  -11.8813   19.2933 C   0  0  0  0  0  0  0  0  0  0  0  0
  -27.2939  -14.1915   23.9451 C   0  0  0  0  0  0  0  0  0  0  0  0
  -27.2132  -13.1017   19.9569 C   0  0  0  0  0  0  0  0  0  0  0  0
  -25.8348  -15.0099   22.1230 C   0  0  0  0  0  0  0  0  0  0  0  0
  -29.2424  -11.5288   19.8116 C   0  0  0  0  0  0  0  0  0  0  0  0
  -26.5728  -30.6739   24.1266 C   0  0  1  0  0  0  0  0  0  0  0  0
  -26.2245  -29.4370   20.5514 C   0  0  1  0  0  0  0  0  0  0  0  0
  -24.6738  -14.1342   22.6171 C   0  0  2  0  0  0  0  0  0  0  0  0
  -29.1631  -14.5666   19.3571 C   0  0  2  0  0  0  0  0  0  0  0  0
  -30.4824  -13.7747   19.5052 C   0  0  2  0  0  0  0  0  0  0  0  0
  -19.7980  -28.6372   16.3013 C   0  0  0  0  0  0  0  0  0  0  0  0
  -32.8790  -13.4774   18.7840 C   0  0  0  0  0  0  0  0  0  0  0  0
  -22.0797  -28.8669   22.5151 C   0  0  0  0  0  0  0  0  0  0  0  0
  -20.1962  -28.3839   20.9380 C   0  0  0  0  0  0  0  0  0  0  0  0
  -21.1477  -30.6858   21.0738 C   0  0  0  0  0  0  0  0  0  0  0  0
  -23.3815  -28.1717   15.1105 C   0  0  0  0  0  0  0  0  0  0  0  0
  -28.0121  -16.8081   19.2831 C   0  0  0  0  0  0  0  0  0  0  0  0
  -28.7160  -22.5523   19.4306 C   0  0  0  0  0  0  0  0  0  1  0  0
  -29.3531  -16.0909   19.3884 C   0  0  0  0  0  0  0  0  0  0  0  0
  -22.4912  -28.8527   19.9663 C   0  0  1  0  0  0  0  0  0  0  0  0
  -21.3103  -28.7844   16.3648 C   0  0  2  0  0  0  0  0  0  0  0  0
  -31.6190  -14.3100   18.6322 C   0  0  1  0  0  0  0  0  0  0  0  0
  -21.5036  -29.1839   21.1206 C   0  0  0  0  0  0  0  0  0  0  0  0
  -23.1943  -16.0552   22.1674 N   0  0  0  0  0  0  0  0  0  0  0  0
  -23.3271  -14.7196   22.2351 N   0  0  0  0  0  0  0  0  0  0  0  0
  -24.9525  -28.7936   20.2162 N   0  0  0  0  0  0  0  0  0  0  0  0
  -27.1349  -14.4442   22.5130 N   0  0  0  0  0  0  0  0  0  0  0  0
  -28.1568  -14.1514   20.3623 N   0  0  0  0  0  0  0  0  0  0  0  0
  -22.1426  -12.6871   21.9580 N   0  0  0  0  0  0  0  0  0  0  0  0
  -19.0391  -15.8358   21.0361 N   0  0  0  0  0  0  0  0  0  0  0  0
  -26.4222  -30.5475   22.6928 N   0  0  0  0  0  0  0  0  0  0  0  0
  -21.9826  -29.1681   18.6358 N   0  0  0  0  0  0  0  0  0  0  0  0
  -30.2804  -12.3353   19.0976 N   0  3  0  0  0  0  0  0  0  0  0  0
  -21.9003  -28.0874   15.1871 N   0  3  0  0  0  0  0  0  0  0  0  0
  -19.4082  -13.5789   21.2069 O   0  0  0  0  0  0  0  0  0  0  0  0
  -26.4820  -28.2234   22.5604 O   0  0  0  0  0  0  0  0  0  0  0  0
  -23.8075  -30.8214   20.1003 O   0  0  0  0  0  0  0  0  0  0  0  0
  -22.1678  -27.0219   17.7774 O   0  0  0  0  0  0  0  0  0  0  0  0
  -29.3495  -14.9795   22.1742 O   0  0  0  0  0  0  0  0  0  0  0  0
  -31.2008  -14.2971   17.2737 O   0  0  0  0  0  0  0  0  0  0  0  0
  -19.8182  -21.3513   21.1179 O   0  0  0  0  0  0  0  0  0  0  0  0
  -27.4607  -23.1743   19.6762 O   0  0  0  0  0  0  0  0  0  1  0  0
  -21.0172  -25.1442   24.9364 F   0  0  0  0  0  0  0  0  0  0  0  0
  -17.8144  -22.5911   22.5637 F   0  0  0  0  0  0  0  0  0  0  0  0
  1  2  1  0  0  0  0
  1  5  2  0  0  0  0
  2  6  2  0  0  0  0
  3 12  2  0  0  0  0
  3 19  1  0  0  0  0
  4 13  1  0  0  0  0
  4 19  2  0  0  0  0
  5 21  1  0  0  0  0
  6 23  1  0  0  0  0
  7 14  2  0  0  0  0
  7 22  1  0  0  0  0
  8 10  2  0  0  0  0
  8 25  1  0  0  0  0
  9 11  1  0  0  0  0
  9 25  2  0  0  0  0
 10 26  1  0  0  0  0
 11 26  2  0  0  0  0
 12 27  1  0  0  0  0
 13 27  2  0  0  0  0
 14 28  1  0  0  0  0
 15 16  2  0  0  0  0
 15 29  1  0  0  0  0
 16 30  1  0  0  0  0
 17 24  1  0  0  0  0
 17 28  2  0  0  0  0
 18 30  2  0  0  0  0
 18 31  1  0  0  0  0
 19 32  1  0  0  0  0
 20 32  1  0  0  0  0
 20 33  2  0  0  0  0
 20 34  1  0  0  0  0
 21 23  2  0  0  0  0
 21 39  1  0  0  0  0
 22 24  2  0  0  0  0
 22 40  1  0  0  0  0
 23 51  1  0  0  0  0
 24 41  1  0  0  0  0
 25 62  1  0  0  0  0
 26 63  1  0  0  0  0
 27 86  1  0  0  0  0
 28 87  1  0  0  0  0
 29 31  2  0  0  0  0
 29 86  1  0  0  0  0
 30 88  1  0  0  0  0
 31 89  1  0  0  0  0
 32 69  2  0  0  0  0
 33 70  1  0  0  0  0
 33 74  1  0  0  0  0
 34 75  1  0  0  0  0
 34 80  2  0  0  0  0
 35 52  1  0  0  0  0
 35 76  1  0  0  0  0
 35 81  2  0  0  0  0
 36 65  1  0  0  0  0
 36 71  1  0  0  0  0
 36 82  2  0  0  0  0
 37 66  1  0  0  0  0
 37 77  1  0  0  0  0
 37 83  2  0  0  0  0
 38 72  1  0  0  0  0
 38 73  1  0  0  0  0
 38 84  2  0  0  0  0
 39 42  1  0  0  0  0
 40 52  1  0  0  0  0
 41 71  1  0  0  0  0
 42 44  1  0  0  0  0
 43 45  1  0  0  0  0
 43 47  1  0  0  0  0
 44 51  1  0  0  0  0
 45 53  1  0  0  0  0
 46 48  1  0  0  0  0
 46 50  1  0  0  0  0
 47 72  1  0  0  0  0
 48 73  1  0  0  0  0
 49 53  1  0  0  0  0
 49 72  1  0  0  0  0
 50 78  1  0  0  0  0
 51 76  1  0  0  0  0
 52 71  1  0  0  0  0
 53 70  1  0  0  0  0
 54 55  1  0  0  0  0
 54 64  1  0  0  0  0
 54 73  1  0  0  0  0
 55 67  1  0  0  0  0
 55 78  1  0  0  0  0
 56 66  1  0  0  0  0
 57 67  1  0  0  0  0
 58 68  1  0  0  0  0
 59 68  1  0  0  0  0
 60 68  1  0  0  0  0
 61 79  1  0  0  0  0
 62 64  1  0  0  0  0
 63 87  1  0  0  0  0
 65 68  1  0  0  0  0
 65 77  1  0  0  0  0
 66 79  1  0  0  0  0
 67 85  1  0  0  0  0
 69 70  1  0  0  0  0
M  CHG  2  78   1  79   1
M  ISO  4  38 100  63 101  73 100  87 101
M  END
> <Batch ID>
0124

> <Smiles>
CNC(C)C(=O)NC(C(=O)N1Cc2cc([101O:1][101CH2:1]c3ccc(CCC4C(C(C)O)NCCC[100N:0]4[100C:0](=O)N4CCCC(n5nc(-c6ccc(Oc7ccc(F)cc7F)cc6)c(C(N)=O)c5N)C4)cc3)ccc2CC1C(=O)NC1CCCc2ccccc21)C(C)(C)C

> <Shape>
0.246

> <Color>
0.053

> <Negative vol penalty>
0.000

$$$$

  -OEChem-04052320333D

 91101  0     1  0  0  0  0  0999 V2000
  -29.5171  -36.5575   21.0026 C   0  0  0  0  0  0  0  0  0  0  0  0
  -29.7025  -35.2006   20.7579 C   0  0  0  0  0  0  0  0  0  0  0  0
  -28.7716  -12.8572   20.7402 C   0  0  0  0  0  0  0  0  0  0  0  0
  -27.8270  -13.1282   18.5330 C   0  0  0  0  0  0  0  0  0  0  0  0
  -28.5507  -36.9741   21.9171 C   0  0  0  0  0  0  0  0  0  0  0  0
  -28.9221  -34.2594   21.4284 C   0  0  0  0  0  0  0  0  0  0  0  0
  -26.9017  -28.9130   19.2283 C   0  0  0  0  0  0  0  0  0  0  0  0
  -30.0554  -12.9228   20.1988 C   0  0  0  0  0  0  0  0  0  0  0  0
  -29.1108  -13.1939   17.9917 C   0  0  0  0  0  0  0  0  0  0  0  0
  -27.3678  -27.6061   19.3650 C   0  0  0  0  0  0  0  0  0  0  0  0
  -31.5775  -11.0362   17.1605 C   0  0  0  0  0  0  0  0  0  0  0  0
  -31.8325  -10.2964   16.0059 C   0  0  0  0  0  0  0  0  0  0  0  0
  -25.8084  -27.2453   21.1698 C   0  0  0  0  0  0  0  0  0  0  0  0
  -32.3938  -12.3295   14.8273 C   0  0  0  0  0  0  0  0  0  0  0  0
  -27.6574  -12.9598   19.9073 C   0  0  0  0  0  0  0  0  0  0  0  0
  -25.7672  -11.8236   21.1895 C   0  0  0  0  0  0  0  0  0  0  0  0
  -27.7514  -36.0379   22.5920 C   0  0  0  0  0  0  0  0  0  0  0  0
  -25.8914  -29.4001   20.0699 C   0  0  0  0  0  0  0  0  0  0  0  0
  -27.9449  -34.6638   22.3538 C   0  0  0  0  0  0  0  0  0  0  0  0
  -25.3295  -28.5578   21.0400 C   0  0  0  0  0  0  0  0  0  0  0  0
  -30.2251  -13.0912   18.8246 C   0  0  0  0  0  0  0  0  0  0  0  0
  -26.8232  -26.7730   20.3378 C   0  0  0  0  0  0  0  0  0  0  0  0
  -31.7305  -12.4226   17.1486 C   0  0  0  0  0  0  0  0  0  0  0  0
  -32.2407  -10.9431   14.8393 C   0  0  0  0  0  0  0  0  0  0  0  0
  -32.1387  -13.0693   15.9820 C   0  0  0  0  0  0  0  0  0  0  0  0
  -26.3309  -12.8915   20.4658 C   0  0  0  0  0  0  0  0  0  0  0  0
  -24.4973  -12.2483   21.4950 C   0  0  0  0  0  0  0  0  0  0  0  0
  -26.3403  -10.5606   21.5531 C   0  0  0  0  0  0  0  0  0  0  0  0
  -25.6905  -31.7396   22.2123 C   0  0  0  0  0  0  0  0  0  0  0  0
  -22.5599  -30.8922   22.2682 C   0  0  0  0  0  0  0  0  0  0  0  0
  -20.1991  -28.4878   21.7272 C   0  0  0  0  0  0  0  0  0  0  0  0
  -24.7995  -17.3542   19.4218 C   0  0  0  0  0  0  0  0  0  0  0  0
  -26.7519  -36.5341   23.6066 C   0  0  0  0  0  0  0  0  0  0  0  0
  -25.3810  -30.8037   19.8919 C   0  0  0  0  0  0  0  0  0  0  0  0
  -24.2287  -29.0261   21.9551 C   0  0  0  0  0  0  0  0  0  0  0  0
  -25.7102  -35.4888   23.9970 C   0  0  0  0  0  0  0  0  0  0  0  0
  -22.5311  -14.7304   18.5635 C   0  0  0  0  0  0  0  0  0  0  0  0
  -25.2126  -20.1288   21.7198 C   0  0  0  0  0  0  0  0  0  0  0  0
  -29.3012  -16.7110   18.8344 C   0  0  0  0  0  0  0  0  0  0  0  0
  -26.3803  -34.1493   24.2859 C   0  0  0  0  0  0  0  0  0  0  0  0
  -29.7673  -23.1132   18.9772 C   0  0  0  0  0  0  0  0  0  0  0  0
  -29.0830  -23.4740   21.3810 C   0  0  0  0  0  0  0  0  0  0  0  0
  -30.1744  -21.6785   19.3085 C   0  0  0  0  0  0  0  0  0  0  0  0
  -29.4902  -22.0394   21.7122 C   0  0  0  0  0  0  0  0  0  0  0  0
  -22.1631  -14.0815   19.8932 C   0  0  0  0  0  0  0  0  0  0  0  0
  -26.6734  -19.8999   21.3580 C   0  0  0  0  0  0  0  0  0  0  0  0
  -27.8315  -17.0585   18.9544 C   0  0  0  0  0  0  0  0  0  0  0  0
  -22.7124  -16.2310   18.7315 C   0  0  0  0  0  0  0  0  0  0  0  0
  -24.6062  -18.7451   21.5448 C   0  0  0  0  0  0  0  0  0  0  0  0
  -23.4884  -15.9252   21.0747 C   0  0  0  0  0  0  0  0  0  0  0  0
  -29.9996  -18.0372   19.0669 C   0  0  0  0  0  0  0  0  0  0  0  0
  -27.1010  -33.6135   23.0429 C   0  0  1  0  0  0  0  0  0  0  0  0
  -24.7064  -31.3574   21.1432 C   0  0  1  0  0  0  0  0  0  0  0  0
  -28.6623  -23.6193   19.9131 C   0  0  0  0  0  0  0  0  0  0  0  0
  -30.5952  -21.5333   20.7763 C   0  0  0  0  0  0  0  0  0  0  0  0
  -23.1665  -14.4143   21.0091 C   0  0  2  0  0  0  0  0  0  0  0  0
  -26.5963  -18.8995   20.2013 C   0  0  1  0  0  0  0  0  0  0  0  0
  -27.8061  -17.9840   20.1621 C   0  0  2  0  0  0  0  0  0  0  0  0
  -18.8541  -29.6152   19.9334 C   0  0  0  0  0  0  0  0  0  0  0  0
  -31.9117  -20.0386   22.2877 C   0  0  0  0  0  0  0  0  0  0  0  0
  -30.0615  -17.8657   22.0429 C   0  0  0  0  0  0  0  0  0  0  0  0
  -22.8183  -30.6141   25.2957 C   0  0  0  0  0  0  0  0  0  0  0  0
  -20.6745  -29.3209   25.2900 C   0  0  0  0  0  0  0  0  0  0  0  0
  -20.6990  -31.6950   24.5245 C   0  0  0  0  0  0  0  0  0  0  0  0
  -17.6422  -27.7904   23.0442 C   0  0  0  0  0  0  0  0  0  0  0  0
  -28.3082  -25.0706   19.5944 C   0  0  0  0  0  0  0  0  0  1  0  0
  -21.7321  -29.9103   23.0617 C   0  0  1  0  0  0  0  0  0  0  0  0
  -18.8686  -28.5287   20.9974 C   0  0  2  0  0  0  0  0  0  0  0  0
  -30.9494  -20.0820   21.0950 C   0  0  1  0  0  0  0  0  0  0  0  0
  -29.7277  -19.1615   21.3120 C   0  0  1  0  0  0  0  0  0  0  0  0
  -21.5030  -30.3766   24.5272 C   0  0  0  0  0  0  0  0  0  0  0  0
  -25.4881  -13.9174   20.3201 N   0  0  0  0  0  0  0  0  0  0  0  0
  -24.3819  -13.4960   20.9564 N   0  0  0  0  0  0  0  0  0  0  0  0
  -23.7680  -30.4087   21.7461 N   0  0  0  0  0  0  0  0  0  0  0  0
  -23.7009  -16.5508   19.7616 N   0  0  0  0  0  0  0  0  0  0  0  0
  -25.3421  -18.1684   20.4186 N   0  0  0  0  0  0  0  0  0  0  0  0
  -23.4792  -11.6724   22.1689 N   0  0  0  0  0  0  0  0  0  0  0  0
  -27.6570  -10.2861   21.1589 N   0  0  0  0  0  0  0  0  0  0  0  0
  -26.1499  -33.0392   22.1155 N   0  0  0  0  0  0  0  0  0  0  0  0
  -20.5041  -29.7037   22.3016 N   0  0  0  0  0  0  0  0  0  0  0  0
  -29.0827  -18.8006   20.0087 N   0  3  1  0  0  0  0  0  0  0  0  0
  -17.7597  -28.7955   21.9566 N   0  3  0  0  0  0  0  0  0  0  0  0
  -25.6981   -9.6944   22.1940 O   0  0  0  0  0  0  0  0  0  0  0  0
  -26.0084  -30.9168   23.0630 O   0  0  0  0  0  0  0  0  0  0  0  0
  -22.1463  -32.0437   22.1111 O   0  0  0  0  0  0  0  0  0  0  0  0
  -20.8962  -27.4773   21.7852 O   0  0  0  0  0  0  0  0  0  0  0  0
  -25.2689  -17.3522   18.2760 O   0  0  0  0  0  0  0  0  0  0  0  0
  -31.4777  -13.1556   18.2960 O   0  0  0  0  0  0  0  0  0  0  0  0
  -27.2809  -25.4854   20.4751 O   0  0  0  0  0  0  0  0  0  1  0  0
  -32.4871  -10.2324   13.7309 F   0  0  0  0  0  0  0  0  0  0  0  0
  -32.2885  -14.4008   15.9648 F   0  0  0  0  0  0  0  0  0  0  0  0
  1  2  1  0  0  0  0
  1  5  2  0  0  0  0
  2  6  2  0  0  0  0
  3  8  2  0  0  0  0
  3 15  1  0  0  0  0
  4  9  1  0  0  0  0
  4 15  2  0  0  0  0
  5 17  1  0  0  0  0
  6 19  1  0  0  0  0
  7 10  2  0  0  0  0
  7 18  1  0  0  0  0
  8 21  1  0  0  0  0
  9 21  2  0  0  0  0
 10 22  1  0  0  0  0
 11 12  2  0  0  0  0
 11 23  1  0  0  0  0
 12 24  1  0  0  0  0
 13 20  1  0  0  0  0
 13 22  2  0  0  0  0
 14 24  2  0  0  0  0
 14 25  1  0  0  0  0
 15 26  1  0  0  0  0
 16 26  1  0  0  0  0
 16 27  2  0  0  0  0
 16 28  1  0  0  0  0
 17 19  2  0  0  0  0
 17 33  1  0  0  0  0
 18 20  2  0  0  0  0
 18 34  1  0  0  0  0
 19 52  1  0  0  0  0
 20 35  1  0  0  0  0
 21 88  1  0  0  0  0
 22 89  1  0  0  0  0
 23 25  2  0  0  0  0
 23 88  1  0  0  0  0
 24 90  1  0  0  0  0
 25 91  1  0  0  0  0
 26 72  2  0  0  0  0
 27 73  1  0  0  0  0
 27 77  1  0  0  0  0
 28 78  1  0  0  0  0
 28 83  2  0  0  0  0
 29 53  1  0  0  0  0
 29 79  1  0  0  0  0
 29 84  2  0  0  0  0
 30 67  1  0  0  0  0
 30 74  1  0  0  0  0
 30 85  2  0  0  0  0
 31 68  1  0  0  0  0
 31 80  1  0  0  0  0
 31 86  2  0  0  0  0
 32 75  1  0  0  0  0
 32 76  1  0  0  0  0
 32 87  2  0  0  0  0
 33 36  1  0  0  0  0
 34 53  1  0  0  0  0
 35 74  1  0  0  0  0
 36 40  1  0  0  0  0
 37 45  1  0  0  0  0
 37 48  1  0  0  0  0
 38 46  1  0  0  0  0
 38 49  1  0  0  0  0
 39 47  1  0  0  0  0
 39 51  1  0  0  0  0
 40 52  1  0  0  0  0
 41 43  1  0  0  0  0
 41 54  1  0  0  0  0
 42 44  1  0  0  0  0
 42 54  1  0  0  0  0
 43 55  1  0  0  0  0
 44 55  1  0  0  0  0
 45 56  1  0  0  0  0
 46 57  1  0  0  0  0
 47 58  1  0  0  0  0
 48 75  1  0  0  0  0
 49 76  1  0  0  0  0
 50 56  1  0  0  0  0
 50 75  1  0  0  0  0
 51 81  1  0  0  0  0
 52 79  1  0  0  0  0
 53 74  1  0  0  0  0
 54 66  1  0  0  0  0
 55 69  1  0  0  0  0
 56 73  1  0  0  0  0
 57 58  1  0  0  0  0
 57 76  1  0  0  0  0
 58 81  1  0  0  0  0
 59 68  1  0  0  0  0
 60 69  1  0  0  0  0
 61 70  1  0  0  0  0
 62 71  1  0  0  0  0
 63 71  1  0  0  0  0
 64 71  1  0  0  0  0
 65 82  1  0  0  0  0
 66 89  1  0  0  0  0
 67 71  1  0  0  0  0
 67 80  1  0  0  0  0
 68 82  1  0  0  0  0
 69 70  1  0  0  0  0
 70 81  1  0  0  0  0
 72 73  1  0  0  0  0
M  CHG  2  81   1  82   1
M  ISO  4  32 100  66 101  76 100  89 101
M  END
> <Batch ID>
0124

> <Smiles>
CNC(C)C(=O)NC(C(=O)N1Cc2cc([101O:1][101CH2:1]C3CCC(C(C)C(C)N4CCCC4C4CCC[100N:0]4[100C:0](=O)N4CCCC(n5nc(-c6ccc(Oc7ccc(F)cc7F)cc6)c(C(N)=O)c5N)C4)CC3)ccc2CC1C(=O)NC1CCCc2ccccc21)C(C)(C)C

> <Shape>
0.308

> <Color>
0.080

> <Negative vol penalty>
0.000

$$$$

  -OEChem-04052320333D

 80 88  0     1  0  0  0  0  0999 V2000
  -16.9534  -27.0667   14.2351 C   0  0  0  0  0  0  0  0  0  0  0  0
  -18.2434  -26.6947   14.5996 C   0  0  0  0  0  0  0  0  0  0  0  0
  -23.0000   -9.8949   19.9823 C   0  0  0  0  0  0  0  0  0  0  0  0
  -23.7303   -9.9444   22.2847 C   0  0  0  0  0  0  0  0  0  0  0  0
  -15.8898  -26.8346   15.1063 C   0  0  0  0  0  0  0  0  0  0  0  0
  -18.4708  -26.0913   15.8359 C   0  0  0  0  0  0  0  0  0  0  0  0
  -22.6127  -21.7652   17.1149 C   0  0  0  0  0  0  0  0  0  0  0  0
  -22.2348   -8.7597   20.2493 C   0  0  0  0  0  0  0  0  0  0  0  0
  -22.9651   -8.8091   22.5518 C   0  0  0  0  0  0  0  0  0  0  0  0
  -23.8841  -21.8229   17.6840 C   0  0  0  0  0  0  0  0  0  0  0  0
  -23.2106   -5.4708   22.0765 C   0  0  0  0  0  0  0  0  0  0  0  0
  -23.8005   -4.4533   22.8264 C   0  0  0  0  0  0  0  0  0  0  0  0
  -22.9367  -21.2965   19.8391 C   0  0  0  0  0  0  0  0  0  0  0  0
  -22.0802   -4.6936   24.5056 C   0  0  0  0  0  0  0  0  0  0  0  0
  -23.7478  -10.4873   21.0000 C   0  0  0  0  0  0  0  0  0  0  0  0
  -24.1310  -13.0033   20.8253 C   0  0  0  0  0  0  0  0  0  0  0  0
  -16.1029  -26.2192   16.3499 C   0  0  0  0  0  0  0  0  0  0  0  0
  -21.4904  -21.4830   17.9070 C   0  0  0  0  0  0  0  0  0  0  0  0
  -17.4093  -25.8519   16.7251 C   0  0  0  0  0  0  0  0  0  0  0  0
  -21.6524  -21.2333   19.2772 C   0  0  0  0  0  0  0  0  0  0  0  0
  -22.2173   -8.2168   21.5341 C   0  0  0  0  0  0  0  0  0  0  0  0
  -24.0459  -21.5914   19.0469 C   0  0  0  0  0  0  0  0  0  0  0  0
  -22.0555   -6.0998   22.5412 C   0  0  0  0  0  0  0  0  0  0  0  0
  -23.2353   -4.0647   24.0409 C   0  0  0  0  0  0  0  0  0  0  0  0
  -21.4903   -5.7112   23.7557 C   0  0  0  0  0  0  0  0  0  0  0  0
  -24.5389  -11.6596   20.7246 C   0  0  0  0  0  0  0  0  0  0  0  0
  -25.2395  -13.7269   20.4590 C   0  0  0  0  0  0  0  0  0  0  0  0
  -22.8636  -13.5485   21.2151 C   0  0  0  0  0  0  0  0  0  0  0  0
  -18.8309  -23.0488   18.6679 C   0  0  0  0  0  0  0  0  0  0  0  0
  -18.0498  -20.2413   20.0928 C   0  0  0  0  0  0  0  0  0  0  0  0
  -19.1013  -17.3145   21.4980 C   0  0  0  0  0  0  0  0  0  0  0  0
  -30.7358  -14.6650   20.6961 C   0  0  0  0  0  0  0  0  0  0  0  0
  -14.9288  -26.0319   17.2778 C   0  0  0  0  0  0  0  0  0  0  0  0
  -20.1291  -21.3981   17.2729 C   0  0  0  0  0  0  0  0  0  0  0  0
  -20.4824  -20.9063   20.1674 C   0  0  0  0  0  0  0  0  0  0  0  0
  -15.2001  -25.0473   18.4124 C   0  0  0  0  0  0  0  0  0  0  0  0
  -29.5915  -12.2426   18.3510 C   0  0  0  0  0  0  0  0  0  0  0  0
  -16.5514  -25.3365   19.0583 C   0  0  0  0  0  0  0  0  0  0  0  0
  -27.3479  -19.6341   19.4902 C   0  0  0  0  0  0  0  0  0  0  0  0
  -28.1441  -11.9815   18.7716 C   0  0  0  0  0  0  0  0  0  0  0  0
  -28.7980  -19.1540   19.5230 C   0  0  0  0  0  0  0  0  0  0  0  0
  -30.4964  -12.4775   19.5585 C   0  0  0  0  0  0  0  0  0  0  0  0
  -28.5888  -13.2706   20.9022 C   0  0  0  0  0  0  0  0  0  0  0  0
  -27.2972  -19.6004   22.0125 C   0  0  0  0  0  0  0  0  0  0  0  0
  -17.6926  -25.1725   18.0473 C   0  0  1  0  0  0  0  0  0  0  0  0
  -18.9922  -21.6094   18.2681 C   0  0  1  0  0  0  0  0  0  0  0  0
  -26.9849  -20.4166   20.7592 C   0  0  2  0  0  0  0  0  0  0  0  0
  -27.6272  -13.0833   19.7162 C   0  0  2  0  0  0  0  0  0  0  0  0
  -29.0971  -18.3470   20.7856 C   0  0  1  0  0  0  0  0  0  0  0  0
  -18.9305  -15.0306   22.5238 C   0  0  0  0  0  0  0  0  0  0  0  0
  -17.5393  -21.8254   22.6502 C   0  0  0  0  0  0  0  0  0  0  0  0
  -17.6123  -19.6679   23.9183 C   0  0  0  0  0  0  0  0  0  0  0  0
  -15.8600  -20.0326   22.1808 C   0  0  0  0  0  0  0  0  0  0  0  0
  -19.1520  -15.9941   18.8498 C   0  0  0  0  0  0  0  0  0  0  0  0
  -25.5252  -20.8171   20.7404 C   0  0  0  0  0  0  0  0  0  1  0  0
  -30.5684  -17.9741   20.8926 C   0  0  0  0  0  0  0  0  0  0  0  0
  -30.8197  -16.8429   21.8829 C   0  0  0  0  0  0  0  0  0  0  0  0
  -18.2537  -19.6458   21.4649 C   0  0  1  0  0  0  0  0  0  0  0  0
  -18.6496  -15.8796   21.2938 C   0  0  2  0  0  0  0  0  0  0  0  0
  -17.3383  -20.3010   22.5374 C   0  0  0  0  0  0  0  0  0  0  0  0
  -25.8073  -11.5343   20.3254 N   0  0  0  0  0  0  0  0  0  0  0  0
  -26.2061  -12.8085   20.1720 N   0  0  0  0  0  0  0  0  0  0  0  0
  -19.1709  -20.8410   19.5018 N   0  0  0  0  0  0  0  0  0  0  0  0
  -29.9508  -13.5351   20.4127 N   0  0  0  0  0  0  0  0  0  0  0  0
  -25.4718  -15.0529   20.3576 N   0  0  0  0  0  0  0  0  0  0  0  0
  -21.8331  -12.6633   21.5602 N   0  0  0  0  0  0  0  0  0  0  0  0
  -17.9894  -23.7708   17.8432 N   0  0  0  0  0  0  0  0  0  0  0  0
  -18.0656  -18.2066   21.3173 N   0  0  0  0  0  0  0  0  0  0  0  0
  -30.1406  -15.6227   21.5081 N   0  0  0  0  0  0  0  0  0  0  0  0
  -28.7295  -19.1748   21.9819 N   0  3  0  0  0  0  0  0  0  0  0  0
  -19.3596  -15.2734   20.1322 N   0  3  0  0  0  0  0  0  0  0  0  0
  -22.6461  -14.7836   21.2404 O   0  0  0  0  0  0  0  0  0  0  0  0
  -19.4246  -23.4725   19.6525 O   0  0  0  0  0  0  0  0  0  0  0  0
  -16.9386  -20.1705   19.5619 O   0  0  0  0  0  0  0  0  0  0  0  0
  -20.2564  -17.6137   21.7923 O   0  0  0  0  0  0  0  0  0  0  0  0
  -31.8801  -14.8120   20.2536 O   0  0  0  0  0  0  0  0  0  0  0  0
  -21.4706   -7.1092   21.7951 O   0  0  0  0  0  0  0  0  0  0  0  0
  -25.2857  -21.6477   19.6050 O   0  0  0  0  0  0  0  0  0  1  0  0
  -23.8010   -3.0866   24.7602 F   0  0  0  0  0  0  0  0  0  0  0  0
  -20.3801   -6.3109   24.2068 F   0  0  0  0  0  0  0  0  0  0  0  0
  1  2  1  0  0  0  0
  1  5  2  0  0  0  0
  2  6  2  0  0  0  0
  3  8  2  0  0  0  0
  3 15  1  0  0  0  0
  4  9  1  0  0  0  0
  4 15  2  0  0  0  0
  5 17  1  0  0  0  0
  6 19  1  0  0  0  0
  7 10  2  0  0  0  0
  7 18  1  0  0  0  0
  8 21  1  0  0  0  0
  9 21  2  0  0  0  0
 10 22  1  0  0  0  0
 11 12  2  0  0  0  0
 11 23  1  0  0  0  0
 12 24  1  0  0  0  0
 13 20  1  0  0  0  0
 13 22  2  0  0  0  0
 14 24  2  0  0  0  0
 14 25  1  0  0  0  0
 15 26  1  0  0  0  0
 16 26  1  0  0  0  0
 16 27  2  0  0  0  0
 16 28  1  0  0  0  0
 17 19  2  0  0  0  0
 17 33  1  0  0  0  0
 18 20  2  0  0  0  0
 18 34  1  0  0  0  0
 19 45  1  0  0  0  0
 20 35  1  0  0  0  0
 21 77  1  0  0  0  0
 22 78  1  0  0  0  0
 23 25  2  0  0  0  0
 23 77  1  0  0  0  0
 24 79  1  0  0  0  0
 25 80  1  0  0  0  0
 26 61  2  0  0  0  0
 27 62  1  0  0  0  0
 27 65  1  0  0  0  0
 28 66  1  0  0  0  0
 28 72  2  0  0  0  0
 29 46  1  0  0  0  0
 29 67  1  0  0  0  0
 29 73  2  0  0  0  0
 30 58  1  0  0  0  0
 30 63  1  0  0  0  0
 30 74  2  0  0  0  0
 31 59  1  0  0  0  0
 31 68  1  0  0  0  0
 31 75  2  0  0  0  0
 32 64  1  0  0  0  0
 32 69  1  0  0  0  0
 32 76  2  0  0  0  0
 33 36  1  0  0  0  0
 34 46  1  0  0  0  0
 35 63  1  0  0  0  0
 36 38  1  0  0  0  0
 37 40  1  0  0  0  0
 37 42  1  0  0  0  0
 38 45  1  0  0  0  0
 39 41  1  0  0  0  0
 39 47  1  0  0  0  0
 40 48  1  0  0  0  0
 41 49  1  0  0  0  0
 42 64  1  0  0  0  0
 43 48  1  0  0  0  0
 43 64  1  0  0  0  0
 44 47  1  0  0  0  0
 44 70  1  0  0  0  0
 45 67  1  0  0  0  0
 46 63  1  0  0  0  0
 47 55  1  0  0  0  0
 48 62  1  0  0  0  0
 49 56  1  0  0  0  0
 49 70  1  0  0  0  0
 50 59  1  0  0  0  0
 51 60  1  0  0  0  0
 52 60  1  0  0  0  0
 53 60  1  0  0  0  0
 54 71  1  0  0  0  0
 55 78  1  0  0  0  0
 56 57  1  0  0  0  0
 57 69  1  0  0  0  0
 58 60  1  0  0  0  0
 58 68  1  0  0  0  0
 59 71  1  0  0  0  0
 61 62  1  0  0  0  0
M  CHG  2  70   1  71   1
M  ISO  4  32 100  55 101  69 100  78 101
M  END
> <Batch ID>
0124

> <Smiles>
CNC(C)C(=O)NC(C(=O)N1Cc2cc([101O:1][101CH2:1]C3CCC(CC[100NH:0][100C:0](=O)N4CCCC(n5nc(-c6ccc(Oc7ccc(F)cc7F)cc6)c(C(N)=O)c5N)C4)NC3)ccc2CC1C(=O)NC1CCCc2ccccc21)C(C)(C)C

> <Shape>
0.201

> <Color>
0.197

> <Negative vol penalty>
0.000

$$$$

  -OEChem-04052320333D

 85 94  0     1  0  0  0  0  0999 V2000
  -34.9317  -33.6712   17.9734 C   0  0  0  0  0  0  0  0  0  0  0  0
  -34.2249  -32.5566   18.4132 C   0  0  0  0  0  0  0  0  0  0  0  0
  -24.7035   -8.9043   21.8875 C   0  0  0  0  0  0  0  0  0  0  0  0
  -24.3867   -8.3160   19.5657 C   0  0  0  0  0  0  0  0  0  0  0  0
  -34.7976  -34.8881   18.6404 C   0  0  0  0  0  0  0  0  0  0  0  0
  -33.3843  -32.6580   19.5212 C   0  0  0  0  0  0  0  0  0  0  0  0
  -28.9142  -30.3961   18.7821 C   0  0  0  0  0  0  0  0  0  0  0  0
  -29.8035  -24.0155   19.3096 C   0  0  0  0  0  0  0  0  0  0  0  0
  -23.5114   -8.2579   22.2139 C   0  0  0  0  0  0  0  0  0  0  0  0
  -23.1946   -7.6696   19.8922 C   0  0  0  0  0  0  0  0  0  0  0  0
  -28.8780  -29.0066   18.8909 C   0  0  0  0  0  0  0  0  0  0  0  0
  -29.6661  -22.6527   19.5731 C   0  0  0  0  0  0  0  0  0  0  0  0
  -22.4500   -5.0840   22.6967 C   0  0  0  0  0  0  0  0  0  0  0  0
  -22.4498   -4.2505   23.8151 C   0  0  0  0  0  0  0  0  0  0  0  0
  -27.9881  -29.2107   21.1238 C   0  0  0  0  0  0  0  0  0  0  0  0
  -27.4248  -24.3135   19.6096 C   0  0  0  0  0  0  0  0  0  0  0  0
  -20.7351   -5.6154   24.8320 C   0  0  0  0  0  0  0  0  0  0  0  0
  -25.1412   -8.9334   20.5633 C   0  0  0  0  0  0  0  0  0  0  0  0
  -27.6627   -9.0398   20.1914 C   0  0  0  0  0  0  0  0  0  0  0  0
  -33.9476  -35.0069   19.7513 C   0  0  0  0  0  0  0  0  0  0  0  0
  -28.4972  -31.2047   19.8492 C   0  0  0  0  0  0  0  0  0  0  0  0
  -33.2398  -33.8774   20.2046 C   0  0  0  0  0  0  0  0  0  0  0  0
  -28.0176  -30.6101   21.0251 C   0  0  0  0  0  0  0  0  0  0  0  0
  -28.6829  -24.8460   19.3279 C   0  0  0  0  0  0  0  0  0  0  0  0
  -27.2873  -22.9506   19.8731 C   0  0  0  0  0  0  0  0  0  0  0  0
  -22.7569   -7.6405   21.2163 C   0  0  0  0  0  0  0  0  0  0  0  0
  -28.4176  -28.4137   20.0630 C   0  0  0  0  0  0  0  0  0  0  0  0
  -28.4080  -22.1203   19.8548 C   0  0  0  0  0  0  0  0  0  0  0  0
  -21.5929   -6.1833   22.6459 C   0  0  0  0  0  0  0  0  0  0  0  0
  -21.5923   -4.5162   24.8827 C   0  0  0  0  0  0  0  0  0  0  0  0
  -20.7354   -6.4490   23.7135 C   0  0  0  0  0  0  0  0  0  0  0  0
  -26.3723   -9.6015   20.2254 C   0  0  0  0  0  0  0  0  0  0  0  0
  -28.4794  -10.0783   19.8160 C   0  0  0  0  0  0  0  0  0  0  0  0
  -28.0853   -7.6992   20.4739 C   0  0  0  0  0  0  0  0  0  0  0  0
  -29.9012  -33.3703   21.7046 C   0  0  0  0  0  0  0  0  0  0  0  0
  -26.8891  -33.7850   22.8349 C   0  0  0  0  0  0  0  0  0  0  0  0
  -23.7687  -32.4873   23.3100 C   0  0  0  0  0  0  0  0  0  0  0  0
  -28.1950  -15.8202   20.3977 C   0  0  0  0  0  0  0  0  0  0  0  0
  -33.8714  -36.3314   20.4687 C   0  0  0  0  0  0  0  0  0  0  0  0
  -28.5173  -32.7019   19.7061 C   0  0  0  0  0  0  0  0  0  0  0  0
  -27.5395  -31.4335   22.1921 C   0  0  0  0  0  0  0  0  0  0  0  0
  -32.6726  -36.4480   21.4065 C   0  0  0  0  0  0  0  0  0  0  0  0
  -28.4612  -14.1534   17.3199 C   0  0  0  0  0  0  0  0  0  0  0  0
  -32.5388  -35.1914   22.2607 C   0  0  0  0  0  0  0  0  0  0  0  0
  -28.0782  -12.7269   17.7132 C   0  0  0  0  0  0  0  0  0  0  0  0
  -29.8654  -19.0223   19.5591 C   0  0  0  0  0  0  0  0  0  0  0  0
  -27.5196  -19.0421   18.6071 C   0  0  0  0  0  0  0  0  0  0  0  0
  -27.5860  -15.1951   18.0190 C   0  0  0  0  0  0  0  0  0  0  0  0
  -29.4249  -17.9524   20.5569 C   0  0  0  0  0  0  0  0  0  0  0  0
  -27.1321  -17.9752   19.6284 C   0  0  0  0  0  0  0  0  0  0  0  0
  -27.1617  -13.6281   19.8848 C   0  0  0  0  0  0  0  0  0  0  0  0
  -32.2991  -33.9537   21.3876 C   0  0  1  0  0  0  0  0  0  0  0  0
  -28.5518  -33.4298   21.0464 C   0  0  1  0  0  0  0  0  0  0  0  0
  -28.0622  -12.5610   19.2432 C   0  0  1  0  0  0  0  0  0  0  0  0
  -28.7038  -19.8903   19.0739 C   0  0  0  0  0  0  0  0  0  0  0  0
  -25.9333  -22.3977   20.1741 C   0  0  0  0  0  0  0  0  0  0  0  0
  -21.5307  -33.0493   24.2962 C   0  0  0  0  0  0  0  0  0  0  0  0
  -28.0114  -33.3288   25.6353 C   0  0  0  0  0  0  0  0  0  0  0  0
  -25.6692  -32.9561   26.4376 C   0  0  0  0  0  0  0  0  0  0  0  0
  -26.3197  -35.1638   25.4755 C   0  0  0  0  0  0  0  0  0  0  0  0
  -22.4150  -32.2047   20.6934 C   0  0  0  0  0  0  0  0  0  0  0  0
  -28.8307  -26.3032   19.0476 C   0  0  0  0  0  0  0  0  0  1  0  0
  -26.0686  -33.1692   23.9423 C   0  0  1  0  0  0  0  0  0  0  0  0
  -22.3884  -33.0587   23.0404 C   0  0  2  0  0  0  0  0  0  0  0  0
  -26.5280  -33.6387   25.3516 C   0  0  0  0  0  0  0  0  0  0  0  0
  -26.3647  -10.8963   19.8978 N   0  0  0  0  0  0  0  0  0  0  0  0
  -27.6605  -11.1570   19.6545 N   0  0  0  0  0  0  0  0  0  0  0  0
  -27.5846  -32.8933   22.0060 N   0  0  0  0  0  0  0  0  0  0  0  0
  -27.5707  -14.9719   19.4709 N   0  0  0  0  0  0  0  0  0  0  0  0
  -28.2919  -17.1784   20.0507 N   0  0  0  0  0  0  0  0  0  0  0  0
  -29.8110  -10.1650   19.6116 N   0  0  0  0  0  0  0  0  0  0  0  0
  -27.1161   -6.7574   20.8455 N   0  0  0  0  0  0  0  0  0  0  0  0
  -30.9224  -33.9071   20.9440 N   0  0  0  0  0  0  0  0  0  0  0  0
  -24.6752  -33.4739   23.6358 N   0  0  0  0  0  0  0  0  0  0  0  0
  -21.6935  -32.2610   21.9908 N   0  3  0  0  0  0  0  0  0  0  0  0
  -29.2889   -7.3509   20.4149 O   0  0  0  0  0  0  0  0  0  0  0  0
  -30.0078  -32.8755   22.8206 O   0  0  0  0  0  0  0  0  0  0  0  0
  -26.9064  -35.0116   22.7054 O   0  0  0  0  0  0  0  0  0  0  0  0
  -24.0170  -31.2855   23.2422 O   0  0  0  0  0  0  0  0  0  0  0  0
  -28.6426  -15.3923   21.4690 O   0  0  0  0  0  0  0  0  0  0  0  0
  -21.5937   -7.0094   21.5345 O   0  0  0  0  0  0  0  0  0  0  0  0
  -28.2911  -20.7792   20.1097 O   0  0  0  0  0  0  0  0  0  0  0  0
  -28.3816  -27.0484   20.1728 O   0  0  0  0  0  0  0  0  0  1  0  0
  -21.5911   -3.7148   25.9560 F   0  0  0  0  0  0  0  0  0  0  0  0
  -19.9088   -7.5029   23.6700 F   0  0  0  0  0  0  0  0  0  0  0  0
  1  2  1  0  0  0  0
  1  5  2  0  0  0  0
  2  6  2  0  0  0  0
  3  9  2  0  0  0  0
  3 18  1  0  0  0  0
  4 10  1  0  0  0  0
  4 18  2  0  0  0  0
  5 20  1  0  0  0  0
  6 22  1  0  0  0  0
  7 11  2  0  0  0  0
  7 21  1  0  0  0  0
  8 12  2  0  0  0  0
  8 24  1  0  0  0  0
  9 26  1  0  0  0  0
 10 26  2  0  0  0  0
 11 27  1  0  0  0  0
 12 28  1  0  0  0  0
 13 14  2  0  0  0  0
 13 29  1  0  0  0  0
 14 30  1  0  0  0  0
 15 23  1  0  0  0  0
 15 27  2  0  0  0  0
 16 24  2  0  0  0  0
 16 25  1  0  0  0  0
 17 30  2  0  0  0  0
 17 31  1  0  0  0  0
 18 32  1  0  0  0  0
 19 32  1  0  0  0  0
 19 33  2  0  0  0  0
 19 34  1  0  0  0  0
 20 22  2  0  0  0  0
 20 39  1  0  0  0  0
 21 23  2  0  0  0  0
 21 40  1  0  0  0  0
 22 52  1  0  0  0  0
 23 41  1  0  0  0  0
 24 62  1  0  0  0  0
 25 28  2  0  0  0  0
 25 56  1  0  0  0  0
 26 81  1  0  0  0  0
 27 83  1  0  0  0  0
 28 82  1  0  0  0  0
 29 31  2  0  0  0  0
 29 81  1  0  0  0  0
 30 84  1  0  0  0  0
 31 85  1  0  0  0  0
 32 66  2  0  0  0  0
 33 67  1  0  0  0  0
 33 71  1  0  0  0  0
 34 72  1  0  0  0  0
 34 76  2  0  0  0  0
 35 53  1  0  0  0  0
 35 73  1  0  0  0  0
 35 77  2  0  0  0  0
 36 63  1  0  0  0  0
 36 68  1  0  0  0  0
 36 78  2  0  0  0  0
 37 64  1  0  0  0  0
 37 74  1  0  0  0  0
 37 79  2  0  0  0  0
 38 69  1  0  0  0  0
 38 70  1  0  0  0  0
 38 80  2  0  0  0  0
 39 42  1  0  0  0  0
 40 53  1  0  0  0  0
 41 68  1  0  0  0  0
 42 44  1  0  0  0  0
 43 45  1  0  0  0  0
 43 48  1  0  0  0  0
 44 52  1  0  0  0  0
 45 54  1  0  0  0  0
 46 49  1  0  0  0  0
 46 55  1  0  0  0  0
 47 50  1  0  0  0  0
 47 55  1  0  0  0  0
 48 69  1  0  0  0  0
 49 70  1  0  0  0  0
 50 70  1  0  0  0  0
 51 54  1  0  0  0  0
 51 69  1  0  0  0  0
 52 73  1  0  0  0  0
 53 68  1  0  0  0  0
 54 67  1  0  0  0  0
 55 82  1  0  0  0  0
 57 64  1  0  0  0  0
 58 65  1  0  0  0  0
 59 65  1  0  0  0  0
 60 65  1  0  0  0  0
 61 75  1  0  0  0  0
 62 83  1  0  0  0  0
 63 65  1  0  0  0  0
 63 74  1  0  0  0  0
 64 75  1  0  0  0  0
 66 67  1  0  0  0  0
M  CHG  1  75   1
M  ISO  4  38 100  62 101  70 100  83 101
M  END
> <Batch ID>
0124

> <Smiles>
CNC(C)C(=O)NC(C(=O)N1Cc2cc([101O:1][101CH2:1]c3ccc(OC4CC[100N:0]([100C:0](=O)N5CCCC(n6nc(-c7ccc(Oc8ccc(F)cc8F)cc7)c(C(N)=O)c6N)C5)CC4)c(C)c3)ccc2CC1C(=O)NC1CCCc2ccccc21)C(C)(C)C

> <Shape>
0.243

> <Color>
0.100

> <Negative vol penalty>
0.000

$$$$

  -OEChem-04052320333D

 90100  0     1  0  0  0  0  0999 V2000
  -26.0978  -34.9440   25.0689 C   0  0  0  0  0  0  0  0  0  0  0  0
  -26.6562  -33.6698   25.0556 C   0  0  0  0  0  0  0  0  0  0  0  0
  -22.6794  -10.1927   20.1911 C   0  0  0  0  0  0  0  0  0  0  0  0
  -24.2613   -9.5424   21.8976 C   0  0  0  0  0  0  0  0  0  0  0  0
  -24.7341  -35.1087   24.8300 C   0  0  0  0  0  0  0  0  0  0  0  0
  -25.8509  -32.5595   24.8045 C   0  0  0  0  0  0  0  0  0  0  0  0
  -27.4384  -27.4642   21.8006 C   0  0  0  0  0  0  0  0  0  0  0  0
  -26.8223  -21.2600   24.7439 C   0  0  0  0  0  0  0  0  0  0  0  0
  -27.4461  -20.1115   25.2293 C   0  0  0  0  0  0  0  0  0  0  0  0
  -21.9378   -9.0375   20.4383 C   0  0  0  0  0  0  0  0  0  0  0  0
  -23.5196   -8.3872   22.1448 C   0  0  0  0  0  0  0  0  0  0  0  0
  -27.8473  -26.2056   22.2392 C   0  0  0  0  0  0  0  0  0  0  0  0
  -20.6999   -7.5477   23.8076 C   0  0  0  0  0  0  0  0  0  0  0  0
  -20.4581   -7.2071   25.1384 C   0  0  0  0  0  0  0  0  0  0  0  0
  -27.8211  -20.8965   22.5699 C   0  0  0  0  0  0  0  0  0  0  0  0
  -25.5815  -25.4040   22.0323 C   0  0  0  0  0  0  0  0  0  0  0  0
  -21.6051   -5.1063   24.8092 C   0  0  0  0  0  0  0  0  0  0  0  0
  -29.6599  -17.4745   24.0748 C   0  0  0  0  0  0  0  0  0  0  0  0
  -28.4573  -19.7372   23.0410 C   0  0  0  0  0  0  0  0  0  0  0  0
  -23.8412  -10.4451   20.9207 C   0  0  0  0  0  0  0  0  0  0  0  0
  -24.1713  -12.9710   20.7842 C   0  0  0  0  0  0  0  0  0  0  0  0
  -23.9135  -34.0008   24.5662 C   0  0  0  0  0  0  0  0  0  0  0  0
  -26.0937  -27.7055   21.4843 C   0  0  0  0  0  0  0  0  0  0  0  0
  -24.4747  -32.7095   24.5631 C   0  0  0  0  0  0  0  0  0  0  0  0
  -25.1585  -26.6658   21.5874 C   0  0  0  0  0  0  0  0  0  0  0  0
  -27.0089  -21.6516   23.4186 C   0  0  0  0  0  0  0  0  0  0  0  0
  -29.8873  -17.8068   22.7497 C   0  0  0  0  0  0  0  0  0  0  0  0
  -28.2608  -19.3504   24.3852 C   0  0  0  0  0  0  0  0  0  0  0  0
  -29.2818  -18.9457   22.2301 C   0  0  0  0  0  0  0  0  0  0  0  0
  -22.3579   -8.1348   21.4151 C   0  0  0  0  0  0  0  0  0  0  0  0
  -26.9183  -25.1760   22.3579 C   0  0  0  0  0  0  0  0  0  0  0  0
  -21.3943   -6.6676   22.9776 C   0  0  0  0  0  0  0  0  0  0  0  0
  -20.9106   -5.9864   25.6393 C   0  0  0  0  0  0  0  0  0  0  0  0
  -21.8469   -5.4469   23.4784 C   0  0  0  0  0  0  0  0  0  0  0  0
  -24.6080  -11.6380   20.6654 C   0  0  0  0  0  0  0  0  0  0  0  0
  -25.2653  -13.7234   20.4327 C   0  0  0  0  0  0  0  0  0  0  0  0
  -22.8912  -13.4834   21.1773 C   0  0  0  0  0  0  0  0  0  0  0  0
  -23.8353  -29.6363   22.6139 C   0  0  0  0  0  0  0  0  0  0  0  0
  -22.1388  -28.4827   20.1012 C   0  0  0  0  0  0  0  0  0  0  0  0
  -21.6563  -25.9738   17.8386 C   0  0  0  0  0  0  0  0  0  0  0  0
  -30.7395  -14.7746   20.7039 C   0  0  0  0  0  0  0  0  0  0  0  0
  -22.4362  -34.2242   24.3606 C   0  0  0  0  0  0  0  0  0  0  0  0
  -25.6735  -29.0614   20.9870 C   0  0  0  0  0  0  0  0  0  0  0  0
  -23.7068  -26.8677   21.2409 C   0  0  0  0  0  0  0  0  0  0  0  0
  -21.7214  -33.0308   23.7320 C   0  0  0  0  0  0  0  0  0  0  0  0
  -29.6551  -12.3632   18.3195 C   0  0  0  0  0  0  0  0  0  0  0  0
  -22.1340  -31.7359   24.4247 C   0  0  0  0  0  0  0  0  0  0  0  0
  -28.2122  -12.0652   18.7308 C   0  0  0  0  0  0  0  0  0  0  0  0
  -31.1609  -20.3549   19.4286 C   0  0  0  0  0  0  0  0  0  0  0  0
  -30.5507  -12.5995   19.5336 C   0  0  0  0  0  0  0  0  0  0  0  0
  -30.1263  -20.5630   20.5320 C   0  0  0  0  0  0  0  0  0  0  0  0
  -28.6220  -13.3320   20.8817 C   0  0  0  0  0  0  0  0  0  0  0  0
  -30.5710  -19.6357   18.2285 C   0  0  0  0  0  0  0  0  0  0  0  0
  -23.6385  -31.4827   24.2700 C   0  0  1  0  0  0  0  0  0  0  0  0
  -24.1857  -29.3355   21.1840 C   0  0  1  0  0  0  0  0  0  0  0  0
  -27.6687  -13.1417   19.6895 C   0  0  2  0  0  0  0  0  0  0  0  0
  -28.9450  -18.4793   19.8039 C   0  0  2  0  0  0  0  0  0  0  0  0
  -27.6449  -19.0626   19.2580 C   0  0  0  0  0  0  0  0  0  0  0  0
  -20.1680  -25.2975   15.9347 C   0  0  0  0  0  0  0  0  0  0  0  0
  -19.9403  -27.7463   22.0847 C   0  0  0  0  0  0  0  0  0  0  0  0
  -18.9484  -26.2635   20.3280 C   0  0  0  0  0  0  0  0  0  0  0  0
  -19.1200  -28.7205   19.9323 C   0  0  0  0  0  0  0  0  0  0  0  0
  -23.9212  -25.9212   15.9343 C   0  0  0  0  0  0  0  0  0  0  0  0
  -30.7729  -16.9362   21.9228 C   0  0  0  0  0  0  0  0  0  0  0  0
  -26.3345  -22.8890   22.9036 C   0  0  0  0  0  0  0  0  0  1  0  0
  -21.2162  -27.3078   19.8834 C   0  0  1  0  0  0  0  0  0  0  0  0
  -21.4569  -25.9989   16.3339 C   0  0  2  0  0  0  0  0  0  0  0  0
  -19.8332  -27.5059   20.5656 C   0  0  0  0  0  0  0  0  0  0  0  0
  -25.8802  -11.5456   20.2692 N   0  0  0  0  0  0  0  0  0  0  0  0
  -26.2523  -12.8301   20.1360 N   0  0  0  0  0  0  0  0  0  0  0  0
  -28.8697  -18.2390   24.8401 N   0  3  0  0  0  0  0  0  0  0  0  0
  -29.5095  -19.2815   20.8962 N   0  0  3  0  0  0  0  0  0  0  0  0
  -23.3439  -28.2129   20.7652 N   0  0  0  0  0  0  0  0  0  0  0  0
  -29.9798  -13.6326   20.4011 N   0  0  0  0  0  0  0  0  0  0  0  0
  -25.4697  -15.0553   20.3516 N   0  0  0  0  0  0  0  0  0  0  0  0
  -22.6619  -13.7376   22.5364 N   0  0  0  0  0  0  0  0  0  0  0  0
  -23.9320  -30.9738   22.9474 N   0  0  0  0  0  0  0  0  0  0  0  0
  -21.1471  -27.1051   18.4403 N   0  0  0  0  0  0  0  0  0  0  0  0
  -30.1212  -15.7074   21.5276 N   0  0  0  0  0  0  0  0  0  0  0  0
  -29.9496  -18.3578   18.6853 N   0  3  0  0  0  0  0  0  0  0  0  0
  -22.5931  -25.3197   15.6494 N   0  3  0  0  0  0  0  0  0  0  0  0
  -21.9721  -13.6935   20.3498 O   0  0  0  0  0  0  0  0  0  0  0  0
  -23.5006  -28.7228   23.3589 O   0  0  0  0  0  0  0  0  0  0  0  0
  -21.8059  -29.5973   19.6909 O   0  0  0  0  0  0  0  0  0  0  0  0
  -22.2053  -25.0419   18.4223 O   0  0  0  0  0  0  0  0  0  0  0  0
  -31.8819  -14.9525   20.2679 O   0  0  0  0  0  0  0  0  0  0  0  0
  -21.6344   -7.0075   21.6568 O   0  0  0  0  0  0  0  0  0  0  0  0
  -27.3147  -23.9468   22.7865 O   0  0  0  0  0  0  0  0  0  1  0  0
  -20.6796   -5.6602   26.9177 F   0  0  0  0  0  0  0  0  0  0  0  0
  -22.5156   -4.5979   22.6861 F   0  0  0  0  0  0  0  0  0  0  0  0
  1  2  1  0  0  0  0
  1  5  2  0  0  0  0
  2  6  2  0  0  0  0
  3 10  2  0  0  0  0
  3 20  1  0  0  0  0
  4 11  1  0  0  0  0
  4 20  2  0  0  0  0
  5 22  1  0  0  0  0
  6 24  1  0  0  0  0
  7 12  2  0  0  0  0
  7 23  1  0  0  0  0
  8  9  2  0  0  0  0
  8 26  1  0  0  0  0
  9 28  1  0  0  0  0
 10 30  1  0  0  0  0
 11 30  2  0  0  0  0
 12 31  1  0  0  0  0
 13 14  2  0  0  0  0
 13 32  1  0  0  0  0
 14 33  1  0  0  0  0
 15 19  1  0  0  0  0
 15 26  2  0  0  0  0
 16 25  1  0  0  0  0
 16 31  2  0  0  0  0
 17 33  2  0  0  0  0
 17 34  1  0  0  0  0
 18 27  1  0  0  0  0
 18 71  2  0  0  0  0
 19 28  2  0  0  0  0
 19 29  1  0  0  0  0
 20 35  1  0  0  0  0
 21 35  1  0  0  0  0
 21 36  2  0  0  0  0
 21 37  1  0  0  0  0
 22 24  2  0  0  0  0
 22 42  1  0  0  0  0
 23 25  2  0  0  0  0
 23 43  1  0  0  0  0
 24 54  1  0  0  0  0
 25 44  1  0  0  0  0
 26 65  1  0  0  0  0
 27 29  2  0  0  0  0
 27 64  1  0  0  0  0
 28 71  1  0  0  0  0
 29 72  1  0  0  0  0
 30 87  1  0  0  0  0
 31 88  1  0  0  0  0
 32 34  2  0  0  0  0
 32 87  1  0  0  0  0
 33 89  1  0  0  0  0
 34 90  1  0  0  0  0
 35 69  2  0  0  0  0
 36 70  1  0  0  0  0
 36 75  1  0  0  0  0
 37 76  1  0  0  0  0
 37 82  2  0  0  0  0
 38 55  1  0  0  0  0
 38 77  1  0  0  0  0
 38 83  2  0  0  0  0
 39 66  1  0  0  0  0
 39 73  1  0  0  0  0
 39 84  2  0  0  0  0
 40 67  1  0  0  0  0
 40 78  1  0  0  0  0
 40 85  2  0  0  0  0
 41 74  1  0  0  0  0
 41 79  1  0  0  0  0
 41 86  2  0  0  0  0
 42 45  1  0  0  0  0
 43 55  1  0  0  0  0
 44 73  1  0  0  0  0
 45 47  1  0  0  0  0
 46 48  1  0  0  0  0
 46 50  1  0  0  0  0
 47 54  1  0  0  0  0
 48 56  1  0  0  0  0
 49 51  1  0  0  0  0
 49 53  1  0  0  0  0
 50 74  1  0  0  0  0
 51 72  1  0  0  0  0
 52 56  1  0  0  0  0
 52 74  1  0  0  0  0
 53 80  1  0  0  0  0
 54 77  1  0  0  0  0
 55 73  1  0  0  0  0
 56 70  1  0  0  0  0
 57 58  1  0  0  0  0
 57 72  1  0  0  0  0
 57 80  1  0  0  0  0
 59 67  1  0  0  0  0
 60 68  1  0  0  0  0
 61 68  1  0  0  0  0
 62 68  1  0  0  0  0
 63 81  1  0  0  0  0
 64 79  1  0  0  0  0
 65 88  1  0  0  0  0
 66 68  1  0  0  0  0
 66 78  1  0  0  0  0
 67 81  1  0  0  0  0
 69 70  1  0  0  0  0
M  CHG  3  71   1  80   1  81   1
M  ISO  4  41 100  65 101  79 100  88 101
M  END
> <Batch ID>
0124

> <Smiles>
CNC(C)C(=O)NC(C(=O)N1Cc2cc([101O:1][101CH2:1]c3ccc4ncc(C[100NH:0][100C:0](=O)N5CCCC(n6nc(-c7ccc(Oc8ccc(F)cc8F)cc7)c(C(N)=O)c6N)C5)c(N5CCCNC5C)c4c3)ccc2CC1C(=O)NC1CCCc2ccccc21)C(C)(C)C

> <Shape>
0.332

> <Color>
0.188

> <Negative vol penalty>
0.000

$$$$

  -OEChem-04052320333D

 85 94  0     1  0  0  0  0  0999 V2000
  -26.1791  -10.7937   20.2996 C   0  0  0  0  0  0  0  0  0  0  0  0
  -26.9108  -11.8300   19.7286 C   0  0  0  0  0  0  0  0  0  0  0  0
  -19.8522  -28.8553   22.6129 C   0  0  0  0  0  0  0  0  0  0  0  0
  -20.4827  -26.5359   22.8574 C   0  0  0  0  0  0  0  0  0  0  0  0
  -24.8781  -11.0236   20.7453 C   0  0  0  0  0  0  0  0  0  0  0  0
  -26.3415  -13.0967   19.6019 C   0  0  0  0  0  0  0  0  0  0  0  0
  -29.2118  -18.4863   20.0695 C   0  0  0  0  0  0  0  0  0  0  0  0
  -31.2617  -23.4854   21.9299 C   0  0  0  0  0  0  0  0  0  0  0  0
  -18.5057  -28.4922   22.6406 C   0  0  0  0  0  0  0  0  0  0  0  0
  -19.1362  -26.1727   22.8851 C   0  0  0  0  0  0  0  0  0  0  0  0
  -29.7089  -19.3704   19.1129 C   0  0  0  0  0  0  0  0  0  0  0  0
  -15.8691  -24.5965   22.6587 C   0  0  0  0  0  0  0  0  0  0  0  0
  -15.4779  -23.4984   21.8928 C   0  0  0  0  0  0  0  0  0  0  0  0
  -31.4332  -23.0384   20.6245 C   0  0  0  0  0  0  0  0  0  0  0  0
  -27.6690  -20.6511   19.2453 C   0  0  0  0  0  0  0  0  0  0  0  0
  -16.2393  -24.6213   19.8937 C   0  0  0  0  0  0  0  0  0  0  0  0
  -20.8407  -27.8771   22.7213 C   0  0  0  0  0  0  0  0  0  0  0  0
  -23.0447  -28.5881   23.7912 C   0  0  0  0  0  0  0  0  0  0  0  0
  -24.2961  -12.2961   20.6329 C   0  0  0  0  0  0  0  0  0  0  0  0
  -27.9330  -18.6722   20.6141 C   0  0  0  0  0  0  0  0  0  0  0  0
  -25.0311  -13.3435   20.0454 C   0  0  0  0  0  0  0  0  0  0  0  0
  -30.8682  -24.7984   22.1632 C   0  0  0  0  0  0  0  0  0  0  0  0
  -27.1590  -19.7695   20.2105 C   0  0  0  0  0  0  0  0  0  0  0  0
  -18.1477  -27.1509   22.7767 C   0  0  0  0  0  0  0  0  0  0  0  0
  -28.9364  -20.4514   18.6985 C   0  0  0  0  0  0  0  0  0  0  0  0
  -16.4454  -25.7071   22.0421 C   0  0  0  0  0  0  0  0  0  0  0  0
  -15.6630  -23.5107   20.5103 C   0  0  0  0  0  0  0  0  0  0  0  0
  -16.6305  -25.7195   20.6596 C   0  0  0  0  0  0  0  0  0  0  0  0
  -22.2318  -28.2515   22.6922 C   0  0  0  0  0  0  0  0  0  0  0  0
  -31.2003  -23.9366   19.5956 C   0  0  0  0  0  0  0  0  0  0  0  0
  -30.6608  -25.6179   21.0653 C   0  0  0  0  0  0  0  0  0  0  0  0
  -24.2720  -28.8627   23.2391 C   0  0  0  0  0  0  0  0  0  0  0  0
  -22.7195  -28.6472   25.1863 C   0  0  0  0  0  0  0  0  0  0  0  0
  -25.2399  -16.9840   20.6421 C   0  0  0  0  0  0  0  0  0  0  0  0
  -24.2496  -19.3282   22.6537 C   0  0  0  0  0  0  0  0  0  0  0  0
  -24.5881  -22.5441   23.7446 C   0  0  0  0  0  0  0  0  0  0  0  0
  -28.4002  -27.6253   19.6933 C   0  0  0  0  0  0  0  0  0  0  0  0
  -22.8699  -12.4846   21.0858 C   0  0  0  0  0  0  0  0  0  0  0  0
  -27.4220  -17.7247   21.6647 C   0  0  0  0  0  0  0  0  0  0  0  0
  -25.7880  -20.0249   20.7793 C   0  0  0  0  0  0  0  0  0  0  0  0
  -22.4736  -13.9489   21.2568 C   0  0  0  0  0  0  0  0  0  0  0  0
  -25.6458  -29.4812   18.4103 C   0  0  0  0  0  0  0  0  0  0  0  0
  -30.3556  -24.2911   24.6439 C   0  0  0  0  0  0  0  0  0  0  0  0
  -29.3074  -25.2500   24.1727 C   0  0  0  0  0  0  0  0  0  0  0  0
  -22.9306  -14.7694   20.0548 C   0  0  0  0  0  0  0  0  0  0  0  0
  -24.5777  -29.3492   19.4974 C   0  0  0  0  0  0  0  0  0  0  0  0
  -26.4615  -28.1988   18.2618 C   0  0  0  0  0  0  0  0  0  0  0  0
  -25.9974  -27.5687   20.5988 C   0  0  0  0  0  0  0  0  0  0  0  0
  -30.6834  -25.2846   23.5592 C   0  0  0  0  0  0  0  0  0  0  0  0
  -24.4571  -14.7375   19.9132 C   0  0  1  0  0  0  0  0  0  0  0  0
  -25.9004  -17.7185   21.7743 C   0  0  1  0  0  0  0  0  0  0  0  0
  -25.1858  -28.8559   20.8241 C   0  0  2  0  0  0  0  0  0  0  0  0
  -32.5042  -24.2719   17.4796 C   0  0  0  0  0  0  0  0  0  0  0  0
  -24.2013  -24.5716   25.1717 C   0  0  0  0  0  0  0  0  0  0  0  0
  -21.8419  -19.7126   20.8193 C   0  0  0  0  0  0  0  0  0  0  0  0
  -21.4375  -21.9205   21.9283 C   0  0  0  0  0  0  0  0  0  0  0  0
  -21.3189  -19.8163   23.2627 C   0  0  0  0  0  0  0  0  0  0  0  0
  -26.6834  -21.7315   25.6702 C   0  0  0  0  0  0  0  0  0  0  0  0
  -30.2390  -27.0386   21.2533 C   0  0  0  0  0  0  0  0  0  0  0  0
  -30.0820  -23.5807   17.3283 C   0  0  0  0  0  0  0  0  0  0  0  0
  -28.9703  -22.6681   17.8378 C   0  0  0  0  0  0  0  0  0  1  0  0
  -31.3775  -23.4825   18.1569 C   0  0  2  0  0  0  0  0  0  0  0  0
  -23.5696  -20.6653   22.4846 C   0  0  1  0  0  0  0  0  0  0  0  0
  -24.6818  -23.1291   25.1422 C   0  0  2  0  0  0  0  0  0  0  0  0
  -22.0670  -20.5231   22.1114 C   0  0  0  0  0  0  0  0  0  0  0  0
  -22.8874  -28.3067   21.5298 N   0  0  0  0  0  0  0  0  0  0  0  0
  -30.8172  -25.2194   19.7830 N   0  0  0  0  0  0  0  0  0  0  0  0
  -24.1252  -28.6813   21.8953 N   0  0  0  0  0  0  0  0  0  0  0  0
  -25.3300  -19.0669   21.7990 N   0  0  0  0  0  0  0  0  0  0  0  0
  -27.0116  -27.7859   19.5552 N   0  0  0  0  0  0  0  0  0  0  0  0
  -25.4516  -29.2393   23.7768 N   0  0  0  0  0  0  0  0  0  0  0  0
  -21.4118  -28.3341   25.5814 N   0  0  0  0  0  0  0  0  0  0  0  0
  -25.0724  -15.6315   20.8706 N   0  0  0  0  0  0  0  0  0  0  0  0
  -23.8114  -21.4051   23.7186 N   0  0  0  0  0  0  0  0  0  0  0  0
  -28.8386  -27.2383   20.9537 N   0  0  0  0  0  0  0  0  0  0  0  0
  -26.0911  -23.0931   25.6254 N   0  3  0  0  0  0  0  0  0  0  0  0
  -23.5593  -28.9841   26.0551 O   0  0  0  0  0  0  0  0  0  0  0  0
  -24.9056  -17.5990   19.6363 O   0  0  0  0  0  0  0  0  0  0  0  0
  -23.8419  -18.5473   23.5172 O   0  0  0  0  0  0  0  0  0  0  0  0
  -25.1449  -23.0493   22.7723 O   0  0  0  0  0  0  0  0  0  0  0  0
  -29.1911  -27.8182   18.7637 O   0  0  0  0  0  0  0  0  0  0  0  0
  -16.8340  -26.7963   22.8039 O   0  0  0  0  0  0  0  0  0  0  0  0
  -29.4189  -21.3154   17.7645 O   0  0  0  0  0  0  0  0  0  1  0  0
  -15.2887  -22.4555   19.7752 F   0  0  0  0  0  0  0  0  0  0  0  0
  -17.1846  -26.7831   20.0618 F   0  0  0  0  0  0  0  0  0  0  0  0
  1  2  1  0  0  0  0
  1  5  2  0  0  0  0
  2  6  2  0  0  0  0
  3  9  2  0  0  0  0
  3 17  1  0  0  0  0
  4 10  1  0  0  0  0
  4 17  2  0  0  0  0
  5 19  1  0  0  0  0
  6 21  1  0  0  0  0
  7 11  2  0  0  0  0
  7 20  1  0  0  0  0
  8 14  2  0  0  0  0
  8 22  1  0  0  0  0
  9 24  1  0  0  0  0
 10 24  2  0  0  0  0
 11 25  1  0  0  0  0
 12 13  2  0  0  0  0
 12 26  1  0  0  0  0
 13 27  1  0  0  0  0
 14 30  1  0  0  0  0
 15 23  1  0  0  0  0
 15 25  2  0  0  0  0
 16 27  2  0  0  0  0
 16 28  1  0  0  0  0
 17 29  1  0  0  0  0
 18 29  1  0  0  0  0
 18 32  2  0  0  0  0
 18 33  1  0  0  0  0
 19 21  2  0  0  0  0
 19 38  1  0  0  0  0
 20 23  2  0  0  0  0
 20 39  1  0  0  0  0
 21 50  1  0  0  0  0
 22 31  2  0  0  0  0
 22 49  1  0  0  0  0
 23 40  1  0  0  0  0
 24 82  1  0  0  0  0
 25 83  1  0  0  0  0
 26 28  2  0  0  0  0
 26 82  1  0  0  0  0
 27 84  1  0  0  0  0
 28 85  1  0  0  0  0
 29 66  2  0  0  0  0
 30 62  1  0  0  0  0
 30 67  2  0  0  0  0
 31 59  1  0  0  0  0
 31 67  1  0  0  0  0
 32 68  1  0  0  0  0
 32 71  1  0  0  0  0
 33 72  1  0  0  0  0
 33 77  2  0  0  0  0
 34 51  1  0  0  0  0
 34 73  1  0  0  0  0
 34 78  2  0  0  0  0
 35 63  1  0  0  0  0
 35 69  1  0  0  0  0
 35 79  2  0  0  0  0
 36 64  1  0  0  0  0
 36 74  1  0  0  0  0
 36 80  2  0  0  0  0
 37 70  1  0  0  0  0
 37 75  1  0  0  0  0
 37 81  2  0  0  0  0
 38 41  1  0  0  0  0
 39 51  1  0  0  0  0
 40 69  1  0  0  0  0
 41 45  1  0  0  0  0
 42 46  1  0  0  0  0
 42 47  1  0  0  0  0
 43 44  1  0  0  0  0
 43 49  1  0  0  0  0
 44 49  1  0  0  0  0
 45 50  1  0  0  0  0
 46 52  1  0  0  0  0
 47 70  1  0  0  0  0
 48 52  1  0  0  0  0
 48 70  1  0  0  0  0
 50 73  1  0  0  0  0
 51 69  1  0  0  0  0
 52 68  1  0  0  0  0
 53 62  1  0  0  0  0
 54 64  1  0  0  0  0
 55 65  1  0  0  0  0
 56 65  1  0  0  0  0
 57 65  1  0  0  0  0
 58 76  1  0  0  0  0
 59 75  1  0  0  0  0
 60 61  1  0  0  0  0
 60 62  1  0  0  0  0
 61 83  1  0  0  0  0
 63 65  1  0  0  0  0
 63 74  1  0  0  0  0
 64 76  1  0  0  0  0
 66 68  1  0  0  0  0
M  CHG  1  76   1
M  ISO  4  37 100  61 101  75 100  83 101
M  END
> <Batch ID>
0124

> <Smiles>
CNC(C)C(=O)NC(C(=O)N1Cc2cc([101O:1][101CH2:1]CC(C)c3ccc(C4CC4)c(C[100NH:0][100C:0](=O)N4CCCC(n5nc(-c6ccc(Oc7ccc(F)cc7F)cc6)c(C(N)=O)c5N)C4)n3)ccc2CC1C(=O)NC1CCCc2ccccc21)C(C)(C)C

> <Shape>
0.226

> <Color>
0.070

> <Negative vol penalty>
0.000

$$$$

  -OEChem-04052320333D

 82 90  0     1  0  0  0  0  0999 V2000
  -28.8410  -12.8644   18.5152 C   0  0  0  0  0  0  0  0  0  0  0  0
  -28.3974  -14.1435   18.1950 C   0  0  0  0  0  0  0  0  0  0  0  0
  -29.4321  -24.8240   18.8459 C   0  0  0  0  0  0  0  0  0  0  0  0
  -28.0602  -23.6493   20.4507 C   0  0  0  0  0  0  0  0  0  0  0  0
  -28.0518  -12.0323   19.3082 C   0  0  0  0  0  0  0  0  0  0  0  0
  -27.1638  -14.5909   18.6667 C   0  0  0  0  0  0  0  0  0  0  0  0
  -25.7100  -20.3029   20.3297 C   0  0  0  0  0  0  0  0  0  0  0  0
  -30.3659  -23.7886   18.8862 C   0  0  0  0  0  0  0  0  0  0  0  0
  -28.9940  -22.6139   20.4910 C   0  0  0  0  0  0  0  0  0  0  0  0
  -25.0528  -21.3356   19.6624 C   0  0  0  0  0  0  0  0  0  0  0  0
  -30.8420  -19.4932   20.7448 C   0  0  0  0  0  0  0  0  0  0  0  0
  -30.3628  -18.1843   20.6925 C   0  0  0  0  0  0  0  0  0  0  0  0
  -22.9824  -20.6945   20.7215 C   0  0  0  0  0  0  0  0  0  0  0  0
  -29.3609  -18.6370   18.5411 C   0  0  0  0  0  0  0  0  0  0  0  0
  -28.2792  -24.7544   19.6282 C   0  0  0  0  0  0  0  0  0  0  0  0
  -26.2077  -25.9378   18.7249 C   0  0  0  0  0  0  0  0  0  0  0  0
  -26.8122  -12.4733   19.7978 C   0  0  0  0  0  0  0  0  0  0  0  0
  -25.0049  -19.4500   21.1911 C   0  0  0  0  0  0  0  0  0  0  0  0
  -26.3567  -13.7635   19.4658 C   0  0  0  0  0  0  0  0  0  0  0  0
  -23.6335  -19.6533   21.4006 C   0  0  0  0  0  0  0  0  0  0  0  0
  -30.1469  -22.6836   19.7088 C   0  0  0  0  0  0  0  0  0  0  0  0
  -23.6883  -21.5297   19.8560 C   0  0  0  0  0  0  0  0  0  0  0  0
  -30.5806  -20.3741   19.6952 C   0  0  0  0  0  0  0  0  0  0  0  0
  -29.6223  -17.7562   19.5907 C   0  0  0  0  0  0  0  0  0  0  0  0
  -29.8401  -19.9459   18.5934 C   0  0  0  0  0  0  0  0  0  0  0  0
  -27.3145  -25.8238   19.5874 C   0  0  0  0  0  0  0  0  0  0  0  0
  -25.6127  -27.1223   19.0846 C   0  0  0  0  0  0  0  0  0  0  0  0
  -25.7576  -25.0521   17.6912 C   0  0  0  0  0  0  0  0  0  0  0  0
  -24.3911  -16.3318   21.2528 C   0  0  0  0  0  0  0  0  0  0  0  0
  -23.0948  -17.0399   24.1408 C   0  0  0  0  0  0  0  0  0  0  0  0
  -21.6941  -19.3799   26.1925 C   0  0  0  0  0  0  0  0  0  0  0  0
  -23.7957  -30.6654   22.9950 C   0  0  0  0  0  0  0  0  0  0  0  0
  -25.9730  -11.5208   20.6122 C   0  0  0  0  0  0  0  0  0  0  0  0
  -25.7338  -18.3573   21.9241 C   0  0  0  0  0  0  0  0  0  0  0  0
  -22.8350  -18.7779   22.3305 C   0  0  0  0  0  0  0  0  0  0  0  0
  -24.8474  -12.2066   21.3823 C   0  0  0  0  0  0  0  0  0  0  0  0
  -27.2389  -30.8393   22.1057 C   0  0  0  0  0  0  0  0  0  0  0  0
  -24.1022  -13.1851   20.4800 C   0  0  0  0  0  0  0  0  0  0  0  0
  -20.9568  -25.6450   21.5445 C   0  0  0  0  0  0  0  0  0  0  0  0
  -20.1652  -26.4888   19.2933 C   0  0  0  0  0  0  0  0  0  0  0  0
  -27.4753  -29.5569   21.3059 C   0  0  0  0  0  0  0  0  0  0  0  0
  -19.8067  -26.3846   22.2293 C   0  0  0  0  0  0  0  0  0  0  0  0
  -19.0137  -27.2310   19.9732 C   0  0  0  0  0  0  0  0  0  0  0  0
  -26.2587  -30.6150   23.2550 C   0  0  0  0  0  0  0  0  0  0  0  0
  -25.2065  -28.7326   22.0620 C   0  0  0  0  0  0  0  0  0  0  0  0
  -25.0356  -14.2939   19.9790 C   0  0  1  0  0  0  0  0  0  0  0  0
  -24.8148  -17.2287   22.3814 C   0  0  1  0  0  0  0  0  0  0  0  0
  -20.6057  -25.2608   20.1010 C   0  0  0  0  0  0  0  0  0  0  0  0
  -26.1450  -28.9221   20.8580 C   0  0  2  0  0  0  0  0  0  0  0  0
  -19.3051  -27.5871   21.4306 C   0  0  0  0  0  0  0  0  0  0  0  0
  -20.6994  -19.6515   28.4803 C   0  0  0  0  0  0  0  0  0  0  0  0
  -20.5400  -15.6692   23.1901 C   0  0  0  0  0  0  0  0  0  0  0  0
  -19.3245  -16.7819   25.0750 C   0  0  0  0  0  0  0  0  0  0  0  0
  -21.1696  -15.1746   25.5594 C   0  0  0  0  0  0  0  0  0  0  0  0
  -23.7546  -21.3527   26.9809 C   0  0  0  0  0  0  0  0  0  0  0  0
  -21.7880  -24.5680   19.4256 C   0  0  0  0  0  0  0  0  0  0  0  0
  -21.3405  -30.5812   22.6428 C   0  0  0  0  0  0  0  0  0  0  0  0
  -20.2742  -29.5036   22.7054 C   0  0  0  0  0  0  0  0  0  0  0  0
  -21.9162  -23.1159   19.8598 C   0  0  0  0  0  0  0  0  0  1  0  0
  -21.7273  -17.4569   24.6255 C   0  0  1  0  0  0  0  0  0  0  0  0
  -21.9652  -19.7403   27.6420 C   0  0  2  0  0  0  0  0  0  0  0  0
  -20.7047  -16.2861   24.5934 C   0  0  0  0  0  0  0  0  0  0  0  0
  -27.4189  -26.8539   20.4313 N   0  0  0  0  0  0  0  0  0  0  0  0
  -26.3701  -27.6264   20.1008 N   0  0  0  0  0  0  0  0  0  0  0  0
  -23.5914  -17.7192   23.0193 N   0  0  0  0  0  0  0  0  0  0  0  0
  -25.0175  -30.0124   22.7628 N   0  0  0  0  0  0  0  0  0  0  0  0
  -24.5209  -27.7716   18.6276 N   0  0  0  0  0  0  0  0  0  0  0  0
  -26.4856  -23.8783   17.4532 N   0  0  0  0  0  0  0  0  0  0  0  0
  -25.2538  -15.2783   21.0171 N   0  0  0  0  0  0  0  0  0  0  0  0
  -21.9237  -18.0426   25.9472 N   0  0  0  0  0  0  0  0  0  0  0  0
  -22.6683  -30.0296   22.4896 N   0  0  0  0  0  0  0  0  0  0  0  0
  -20.3288  -28.6707   21.4772 N   0  3  0  0  0  0  0  0  0  0  0  0
  -22.4971  -21.1290   27.7397 N   0  3  0  0  0  0  0  0  0  0  0  0
  -24.7494  -25.3025   16.9881 O   0  0  0  0  0  0  0  0  0  0  0  0
  -23.3573  -16.5765   20.6421 O   0  0  0  0  0  0  0  0  0  0  0  0
  -23.7031  -16.1494   24.7396 O   0  0  0  0  0  0  0  0  0  0  0  0
  -21.3130  -20.2017   25.3618 O   0  0  0  0  0  0  0  0  0  0  0  0
  -23.7161  -31.7383   23.6027 O   0  0  0  0  0  0  0  0  0  0  0  0
  -31.0577  -21.6730   19.7482 O   0  0  0  0  0  0  0  0  0  0  0  0
  -23.0442  -22.5366   19.2053 O   0  0  0  0  0  0  0  0  0  1  0  0
  -29.1635  -16.4988   19.5400 F   0  0  0  0  0  0  0  0  0  0  0  0
  -29.5868  -20.7872   17.5815 F   0  0  0  0  0  0  0  0  0  0  0  0
  1  2  1  0  0  0  0
  1  5  2  0  0  0  0
  2  6  2  0  0  0  0
  3  8  2  0  0  0  0
  3 15  1  0  0  0  0
  4  9  1  0  0  0  0
  4 15  2  0  0  0  0
  5 17  1  0  0  0  0
  6 19  1  0  0  0  0
  7 10  2  0  0  0  0
  7 18  1  0  0  0  0
  8 21  1  0  0  0  0
  9 21  2  0  0  0  0
 10 22  1  0  0  0  0
 11 12  2  0  0  0  0
 11 23  1  0  0  0  0
 12 24  1  0  0  0  0
 13 20  1  0  0  0  0
 13 22  2  0  0  0  0
 14 24  2  0  0  0  0
 14 25  1  0  0  0  0
 15 26  1  0  0  0  0
 16 26  1  0  0  0  0
 16 27  2  0  0  0  0
 16 28  1  0  0  0  0
 17 19  2  0  0  0  0
 17 33  1  0  0  0  0
 18 20  2  0  0  0  0
 18 34  1  0  0  0  0
 19 46  1  0  0  0  0
 20 35  1  0  0  0  0
 21 79  1  0  0  0  0
 22 80  1  0  0  0  0
 23 25  2  0  0  0  0
 23 79  1  0  0  0  0
 24 81  1  0  0  0  0
 25 82  1  0  0  0  0
 26 63  2  0  0  0  0
 27 64  1  0  0  0  0
 27 67  1  0  0  0  0
 28 68  1  0  0  0  0
 28 74  2  0  0  0  0
 29 47  1  0  0  0  0
 29 69  1  0  0  0  0
 29 75  2  0  0  0  0
 30 60  1  0  0  0  0
 30 65  1  0  0  0  0
 30 76  2  0  0  0  0
 31 61  1  0  0  0  0
 31 70  1  0  0  0  0
 31 77  2  0  0  0  0
 32 66  1  0  0  0  0
 32 71  1  0  0  0  0
 32 78  2  0  0  0  0
 33 36  1  0  0  0  0
 34 47  1  0  0  0  0
 35 65  1  0  0  0  0
 36 38  1  0  0  0  0
 37 41  1  0  0  0  0
 37 44  1  0  0  0  0
 38 46  1  0  0  0  0
 39 42  1  0  0  0  0
 39 48  1  0  0  0  0
 40 43  1  0  0  0  0
 40 48  1  0  0  0  0
 41 49  1  0  0  0  0
 42 50  1  0  0  0  0
 43 50  1  0  0  0  0
 44 66  1  0  0  0  0
 45 49  1  0  0  0  0
 45 66  1  0  0  0  0
 46 69  1  0  0  0  0
 47 65  1  0  0  0  0
 48 56  1  0  0  0  0
 49 64  1  0  0  0  0
 50 72  1  0  0  0  0
 51 61  1  0  0  0  0
 52 62  1  0  0  0  0
 53 62  1  0  0  0  0
 54 62  1  0  0  0  0
 55 73  1  0  0  0  0
 56 59  1  0  0  0  0
 57 58  1  0  0  0  0
 57 71  1  0  0  0  0
 58 72  1  0  0  0  0
 59 80  1  0  0  0  0
 60 62  1  0  0  0  0
 60 70  1  0  0  0  0
 61 73  1  0  0  0  0
 63 64  1  0  0  0  0
M  CHG  2  72   1  73   1
M  ISO  4  32 100  59 101  71 100  80 101
M  END
> <Batch ID>
0124

> <Smiles>
CNC(C)C(=O)NC(C(=O)N1Cc2cc([101O:1][101CH2:1]CC3CCC(NCC[100NH:0][100C:0](=O)N4CCCC(n5nc(-c6ccc(Oc7ccc(F)cc7F)cc6)c(C(N)=O)c5N)C4)CC3)ccc2CC1C(=O)NC1CCCc2ccccc21)C(C)(C)C

> <Shape>
0.231

> <Color>
0.055

> <Negative vol penalty>
0.000

$$$$

  -OEChem-04052320333D

 89 98  0     1  0  0  0  0  0999 V2000
  -32.2103  -30.8511   14.9907 C   0  0  0  0  0  0  0  0  0  0  0  0
  -31.6168  -29.6249   15.2726 C   0  0  0  0  0  0  0  0  0  0  0  0
  -28.5866  -16.7654   21.0985 C   0  0  0  0  0  0  0  0  0  0  0  0
  -27.0265  -17.6267   19.4671 C   0  0  0  0  0  0  0  0  0  0  0  0
  -32.3146  -31.8196   15.9883 C   0  0  0  0  0  0  0  0  0  0  0  0
  -31.1281  -29.3660   16.5527 C   0  0  0  0  0  0  0  0  0  0  0  0
  -22.5383  -21.3519   24.5098 C   0  0  0  0  0  0  0  0  0  0  0  0
  -23.0237  -19.2023   23.5194 C   0  0  0  0  0  0  0  0  0  0  0  0
  -26.1979  -26.0370   18.0076 C   0  0  0  0  0  0  0  0  0  0  0  0
  -29.3207  -17.9489   21.0213 C   0  0  0  0  0  0  0  0  0  0  0  0
  -27.7607  -18.8102   19.3899 C   0  0  0  0  0  0  0  0  0  0  0  0
  -22.8123  -21.9747   23.2922 C   0  0  0  0  0  0  0  0  0  0  0  0
  -23.2976  -19.8252   22.3018 C   0  0  0  0  0  0  0  0  0  0  0  0
  -26.0491  -24.7174   18.4322 C   0  0  0  0  0  0  0  0  0  0  0  0
  -30.6006  -19.8880   17.9053 C   0  0  0  0  0  0  0  0  0  0  0  0
  -30.8624  -20.4067   16.6373 C   0  0  0  0  0  0  0  0  0  0  0  0
  -25.9939  -25.4675   20.7243 C   0  0  0  0  0  0  0  0  0  0  0  0
  -29.6874  -22.4345   17.2242 C   0  0  0  0  0  0  0  0  0  0  0  0
  -27.4395  -16.6043   20.3214 C   0  0  0  0  0  0  0  0  0  0  0  0
  -27.1334  -14.0805   20.1107 C   0  0  0  0  0  0  0  0  0  0  0  0
  -22.6441  -19.9657   24.6234 C   0  0  0  0  0  0  0  0  0  0  0  0
  -31.8183  -31.5760   17.2787 C   0  0  0  0  0  0  0  0  0  0  0  0
  -26.2569  -27.0825   18.9403 C   0  0  0  0  0  0  0  0  0  0  0  0
  -31.2270  -30.3316   17.5689 C   0  0  0  0  0  0  0  0  0  0  0  0
  -26.1409  -26.7998   20.3087 C   0  0  0  0  0  0  0  0  0  0  0  0
  -28.9078  -18.9713   20.1671 C   0  0  0  0  0  0  0  0  0  0  0  0
  -23.1919  -21.2114   22.1882 C   0  0  0  0  0  0  0  0  0  0  0  0
  -25.9500  -24.4322   19.7909 C   0  0  0  0  0  0  0  0  0  0  0  0
  -29.8822  -20.6425   18.8329 C   0  0  0  0  0  0  0  0  0  0  0  0
  -30.4058  -21.6799   16.2967 C   0  0  0  0  0  0  0  0  0  0  0  0
  -29.4256  -21.9157   18.4923 C   0  0  0  0  0  0  0  0  0  0  0  0
  -26.6810  -15.3817   20.4002 C   0  0  0  0  0  0  0  0  0  0  0  0
  -26.0418  -13.2787   20.3388 C   0  0  0  0  0  0  0  0  0  0  0  0
  -28.4250  -13.6362   19.6746 C   0  0  0  0  0  0  0  0  0  0  0  0
  -28.4328  -29.2589   19.7355 C   0  0  0  0  0  0  0  0  0  0  0  0
  -26.0441  -30.3935   21.6141 C   0  0  0  0  0  0  0  0  0  0  0  0
  -23.1458  -29.7736   23.3060 C   0  0  0  0  0  0  0  0  0  0  0  0
  -21.1873  -13.8855   23.7909 C   0  0  0  0  0  0  0  0  0  0  0  0
  -31.9962  -32.6357   18.3369 C   0  0  0  0  0  0  0  0  0  0  0  0
  -26.3909  -28.5031   18.4646 C   0  0  0  0  0  0  0  0  0  0  0  0
  -26.1782  -27.8881   21.3492 C   0  0  0  0  0  0  0  0  0  0  0  0
  -31.1166  -32.4228   19.5662 C   0  0  0  0  0  0  0  0  0  0  0  0
  -21.2585  -13.3575   20.2705 C   0  0  0  0  0  0  0  0  0  0  0  0
  -21.1453  -18.3307   25.8416 C   0  0  0  0  0  0  0  0  0  0  0  0
  -23.5832  -18.5709   26.5150 C   0  0  0  0  0  0  0  0  0  0  0  0
  -31.1842  -30.9698   20.0258 C   0  0  0  0  0  0  0  0  0  0  0  0
  -22.6971  -13.6990   19.8784 C   0  0  0  0  0  0  0  0  0  0  0  0
  -20.8425  -17.6582   27.1821 C   0  0  0  0  0  0  0  0  0  0  0  0
  -23.2784  -17.8977   27.8548 C   0  0  0  0  0  0  0  0  0  0  0  0
  -20.7455  -14.2685   21.3837 C   0  0  0  0  0  0  0  0  0  0  0  0
  -23.0401  -14.6638   22.1915 C   0  0  0  0  0  0  0  0  0  0  0  0
  -22.3453  -19.2876   25.9484 C   0  0  0  0  0  0  0  0  0  0  0  0
  -30.6627  -30.0225   18.9386 C   0  0  1  0  0  0  0  0  0  0  0  0
  -26.9554  -29.4389   19.5290 C   0  0  1  0  0  0  0  0  0  0  0  0
  -23.6206  -13.7355   21.1110 C   0  0  2  0  0  0  0  0  0  0  0  0
  -22.0615  -16.9740   27.8004 C   0  0  0  0  0  0  0  0  0  0  0  0
  -21.4482  -30.8885   24.7800 C   0  0  0  0  0  0  0  0  0  0  0  0
  -27.9896  -30.2487   23.9601 C   0  0  0  0  0  0  0  0  0  0  0  0
  -26.0304  -30.4444   25.5066 C   0  0  0  0  0  0  0  0  0  0  0  0
  -26.5545  -32.2965   23.9199 C   0  0  0  0  0  0  0  0  0  0  0  0
  -20.9654  -29.2767   21.3675 C   0  0  0  0  0  0  0  0  0  0  0  0
  -21.7879  -13.5313   26.1727 C   0  0  0  0  0  0  0  0  0  0  0  0
  -21.3350  -14.7256   26.9917 C   0  0  0  0  0  0  0  0  0  0  0  0
  -24.4160  -21.1916   20.1493 C   0  0  0  0  0  0  0  0  0  0  0  0
  -25.1275  -22.2493   19.3280 C   0  0  0  0  0  0  0  0  0  1  0  0
  -25.5840  -30.1385   23.0291 C   0  0  1  0  0  0  0  0  0  0  0  0
  -21.8268  -30.5235   23.3530 C   0  0  2  0  0  0  0  0  0  0  0  0
  -26.5408  -30.7611   24.0847 C   0  0  0  0  0  0  0  0  0  0  0  0
  -25.4016  -15.4096   20.7829 N   0  0  0  0  0  0  0  0  0  0  0  0
  -25.0408  -14.1160   20.7353 N   0  0  0  0  0  0  0  0  0  0  0  0
  -26.3169  -29.2605   20.8346 N   0  0  0  0  0  0  0  0  0  0  0  0
  -21.6657  -14.2568   22.5235 N   0  0  0  0  0  0  0  0  0  0  0  0
  -25.8501  -11.9464   20.2367 N   0  0  0  0  0  0  0  0  0  0  0  0
  -29.4331  -14.5921   19.4898 N   0  0  0  0  0  0  0  0  0  0  0  0
  -29.2160  -30.0384   18.9058 N   0  0  0  0  0  0  0  0  0  0  0  0
  -24.2111  -30.6260   23.1060 N   0  0  0  0  0  0  0  0  0  0  0  0
  -22.1265  -13.8950   24.8148 N   0  0  0  0  0  0  0  0  0  0  0  0
  -22.4009  -15.7595   27.0042 N   0  3  0  0  0  0  0  0  0  0  0  0
  -20.7354  -29.6885   22.7762 N   0  3  0  0  0  0  0  0  0  0  0  0
  -28.6729  -12.4292   19.4395 O   0  0  0  0  0  0  0  0  0  0  0  0
  -28.8325  -28.4721   20.5858 O   0  0  0  0  0  0  0  0  0  0  0  0
  -26.1505  -31.5551   21.2128 O   0  0  0  0  0  0  0  0  0  0  0  0
  -23.2238  -28.5541   23.4375 O   0  0  0  0  0  0  0  0  0  0  0  0
  -20.0116  -13.5637   23.9937 O   0  0  0  0  0  0  0  0  0  0  0  0
  -29.6238  -20.1264   20.0917 O   0  0  0  0  0  0  0  0  0  0  0  0
  -23.4597  -21.8232   20.9920 O   0  0  0  0  0  0  0  0  0  0  0  0
  -25.8053  -23.1450   20.2081 O   0  0  0  0  0  0  0  0  0  1  0  0
  -30.6586  -22.1785   15.0795 F   0  0  0  0  0  0  0  0  0  0  0  0
  -28.7359  -22.6458   19.3795 F   0  0  0  0  0  0  0  0  0  0  0  0
  1  2  1  0  0  0  0
  1  5  2  0  0  0  0
  2  6  2  0  0  0  0
  3 10  2  0  0  0  0
  3 19  1  0  0  0  0
  4 11  1  0  0  0  0
  4 19  2  0  0  0  0
  5 22  1  0  0  0  0
  6 24  1  0  0  0  0
  7 12  2  0  0  0  0
  7 21  1  0  0  0  0
  8 13  1  0  0  0  0
  8 21  2  0  0  0  0
  9 14  2  0  0  0  0
  9 23  1  0  0  0  0
 10 26  1  0  0  0  0
 11 26  2  0  0  0  0
 12 27  1  0  0  0  0
 13 27  2  0  0  0  0
 14 28  1  0  0  0  0
 15 16  2  0  0  0  0
 15 29  1  0  0  0  0
 16 30  1  0  0  0  0
 17 25  1  0  0  0  0
 17 28  2  0  0  0  0
 18 30  2  0  0  0  0
 18 31  1  0  0  0  0
 19 32  1  0  0  0  0
 20 32  1  0  0  0  0
 20 33  2  0  0  0  0
 20 34  1  0  0  0  0
 21 52  1  0  0  0  0
 22 24  2  0  0  0  0
 22 39  1  0  0  0  0
 23 25  2  0  0  0  0
 23 40  1  0  0  0  0
 24 53  1  0  0  0  0
 25 41  1  0  0  0  0
 26 85  1  0  0  0  0
 27 86  1  0  0  0  0
 28 87  1  0  0  0  0
 29 31  2  0  0  0  0
 29 85  1  0  0  0  0
 30 88  1  0  0  0  0
 31 89  1  0  0  0  0
 32 69  2  0  0  0  0
 33 70  1  0  0  0  0
 33 73  1  0  0  0  0
 34 74  1  0  0  0  0
 34 80  2  0  0  0  0
 35 54  1  0  0  0  0
 35 75  1  0  0  0  0
 35 81  2  0  0  0  0
 36 66  1  0  0  0  0
 36 71  1  0  0  0  0
 36 82  2  0  0  0  0
 37 67  1  0  0  0  0
 37 76  1  0  0  0  0
 37 83  2  0  0  0  0
 38 72  1  0  0  0  0
 38 77  1  0  0  0  0
 38 84  2  0  0  0  0
 39 42  1  0  0  0  0
 40 54  1  0  0  0  0
 41 71  1  0  0  0  0
 42 46  1  0  0  0  0
 43 47  1  0  0  0  0
 43 50  1  0  0  0  0
 44 48  1  0  0  0  0
 44 52  1  0  0  0  0
 45 49  1  0  0  0  0
 45 52  1  0  0  0  0
 46 53  1  0  0  0  0
 47 55  1  0  0  0  0
 48 56  1  0  0  0  0
 49 56  1  0  0  0  0
 50 72  1  0  0  0  0
 51 55  1  0  0  0  0
 51 72  1  0  0  0  0
 53 75  1  0  0  0  0
 54 71  1  0  0  0  0
 55 70  1  0  0  0  0
 56 78  1  0  0  0  0
 57 67  1  0  0  0  0
 58 68  1  0  0  0  0
 59 68  1  0  0  0  0
 60 68  1  0  0  0  0
 61 79  1  0  0  0  0
 62 63  1  0  0  0  0
 62 77  1  0  0  0  0
 63 78  1  0  0  0  0
 64 65  1  0  0  0  0
 64 86  1  0  0  0  0
 65 87  1  0  0  0  0
 66 68  1  0  0  0  0
 66 76  1  0  0  0  0
 67 79  1  0  0  0  0
 69 70  1  0  0  0  0
M  CHG  2  78   1  79   1
M  ISO  4  38 100  65 101  77 100  87 101
M  END
> <Batch ID>
0124

> <Smiles>
CNC(C)C(=O)NC(C(=O)N1Cc2cc([101O:1][101CH2:1]COc3ccc(C4CCC(NCC[100NH:0][100C:0](=O)N5CCCC(n6nc(-c7ccc(Oc8ccc(F)cc8F)cc7)c(C(N)=O)c6N)C5)CC4)cc3)ccc2CC1C(=O)NC1CCCc2ccccc21)C(C)(C)C

> <Shape>
0.215

> <Color>
0.094

> <Negative vol penalty>
0.000

$$$$

  -OEChem-04052320333D

 91101  0     1  0  0  0  0  0999 V2000
  -34.2645  -34.2188   31.9873 C   0  0  0  0  0  0  0  0  0  0  0  0
  -34.1049  -33.0351   31.2740 C   0  0  0  0  0  0  0  0  0  0  0  0
  -23.3012   -9.6698   19.9927 C   0  0  0  0  0  0  0  0  0  0  0  0
  -23.8547   -9.9386   22.3291 C   0  0  0  0  0  0  0  0  0  0  0  0
  -33.1631  -35.0378   32.2321 C   0  0  0  0  0  0  0  0  0  0  0  0
  -32.8433  -32.6691   30.8061 C   0  0  0  0  0  0  0  0  0  0  0  0
  -31.5637  -29.7130   25.5974 C   0  0  0  0  0  0  0  0  0  0  0  0
  -30.2171  -22.0273   25.0139 C   0  0  0  0  0  0  0  0  0  0  0  0
  -29.0807  -22.8752   23.0577 C   0  0  0  0  0  0  0  0  0  0  0  0
  -30.6777  -23.3117   25.3031 C   0  0  0  0  0  0  0  0  0  0  0  0
  -29.5413  -24.1597   23.3469 C   0  0  0  0  0  0  0  0  0  0  0  0
  -22.6257   -8.4860   20.2889 C   0  0  0  0  0  0  0  0  0  0  0  0
  -23.1791   -8.7547   22.6253 C   0  0  0  0  0  0  0  0  0  0  0  0
  -31.2957  -28.3731   25.3209 C   0  0  0  0  0  0  0  0  0  0  0  0
  -19.9785   -7.7516   23.0381 C   0  0  0  0  0  0  0  0  0  0  0  0
  -19.1270   -7.7522   24.1428 C   0  0  0  0  0  0  0  0  0  0  0  0
  -28.9296  -28.8302   25.4298 C   0  0  0  0  0  0  0  0  0  0  0  0
  -20.4390   -5.9941   25.1551 C   0  0  0  0  0  0  0  0  0  0  0  0
  -23.9158  -10.3961   21.0128 C   0  0  0  0  0  0  0  0  0  0  0  0
  -24.0791  -12.9206   20.6846 C   0  0  0  0  0  0  0  0  0  0  0  0
  -31.8891  -34.6864   31.7586 C   0  0  0  0  0  0  0  0  0  0  0  0
  -30.5150  -30.6209   25.8033 C   0  0  0  0  0  0  0  0  0  0  0  0
  -31.7235  -33.4835   31.0459 C   0  0  0  0  0  0  0  0  0  0  0  0
  -29.1870  -30.1816   25.7062 C   0  0  0  0  0  0  0  0  0  0  0  0
  -29.4187  -21.8090   23.8912 C   0  0  0  0  0  0  0  0  0  0  0  0
  -30.3398  -24.3779   24.4696 C   0  0  0  0  0  0  0  0  0  0  0  0
  -22.5646   -8.0284   21.6052 C   0  0  0  0  0  0  0  0  0  0  0  0
  -29.9785  -27.9308   25.2399 C   0  0  0  0  0  0  0  0  0  0  0  0
  -21.0603   -6.8722   22.9918 C   0  0  0  0  0  0  0  0  0  0  0  0
  -19.3572   -6.8735   25.2013 C   0  0  0  0  0  0  0  0  0  0  0  0
  -21.2906   -5.9935   24.0503 C   0  0  0  0  0  0  0  0  0  0  0  0
  -24.6143  -11.6188   20.7074 C   0  0  0  0  0  0  0  0  0  0  0  0
  -25.1404  -13.7222   20.3418 C   0  0  0  0  0  0  0  0  0  0  0  0
  -22.7421  -13.3656   20.9497 C   0  0  0  0  0  0  0  0  0  0  0  0
  -29.5689  -32.4421   28.2306 C   0  0  0  0  0  0  0  0  0  0  0  0
  -27.4517  -33.5728   26.0485 C   0  0  0  0  0  0  0  0  0  0  0  0
  -25.7077  -33.0488   23.1622 C   0  0  0  0  0  0  0  0  0  0  0  0
  -30.4961  -15.1980   20.8747 C   0  0  0  0  0  0  0  0  0  0  0  0
  -30.7200  -35.5802   32.0887 C   0  0  0  0  0  0  0  0  0  0  0  0
  -30.8207  -32.0685   26.0743 C   0  0  0  0  0  0  0  0  0  0  0  0
  -28.0251  -31.1204   25.8991 C   0  0  0  0  0  0  0  0  0  0  0  0
  -29.4840  -35.3065   31.2356 C   0  0  0  0  0  0  0  0  0  0  0  0
  -27.4054  -17.4623   26.9491 C   0  0  0  0  0  0  0  0  0  0  0  0
  -28.6260  -17.4153   27.8699 C   0  0  0  0  0  0  0  0  0  0  0  0
  -29.7514  -12.5297   18.6381 C   0  0  0  0  0  0  0  0  0  0  0  0
  -29.2082  -33.8081   31.1608 C   0  0  0  0  0  0  0  0  0  0  0  0
  -27.9454  -17.3799   25.5246 C   0  0  0  0  0  0  0  0  0  0  0  0
  -29.8401  -17.2882   26.9556 C   0  0  0  0  0  0  0  0  0  0  0  0
  -28.3073  -12.1585   18.9795 C   0  0  0  0  0  0  0  0  0  0  0  0
  -29.9871  -18.4902   20.8459 C   0  0  0  0  0  0  0  0  0  0  0  0
  -30.5410  -12.9285   19.8829 C   0  0  0  0  0  0  0  0  0  0  0  0
  -28.4763  -13.6199   21.0373 C   0  0  0  0  0  0  0  0  0  0  0  0
  -30.2852  -19.8015   21.5501 C   0  0  0  0  0  0  0  0  0  0  0  0
  -30.3755  -33.0645   30.5006 C   0  0  1  0  0  0  0  0  0  0  0  0
  -29.6794  -32.7991   26.7752 C   0  0  1  0  0  0  0  0  0  0  0  0
  -29.3746  -17.9011   25.6387 C   0  0  0  0  0  0  0  0  0  0  0  0
  -27.6246  -13.2644   19.8066 C   0  0  2  0  0  0  0  0  0  0  0  0
  -30.2941  -17.4463   21.9059 C   0  0  1  0  0  0  0  0  0  0  0  0
  -29.6679  -18.0509   23.1590 C   0  0  1  0  0  0  0  0  0  0  0  0
  -24.0279  -34.1392   21.6501 C   0  0  0  0  0  0  0  0  0  0  0  0
  -31.6758  -18.0254   24.6661 C   0  0  0  0  0  0  0  0  0  0  0  0
  -25.2388  -32.9325   28.0492 C   0  0  0  0  0  0  0  0  0  0  0  0
  -23.5859  -33.1340   26.1795 C   0  0  0  0  0  0  0  0  0  0  0  0
  -24.9597  -35.1068   26.8454 C   0  0  0  0  0  0  0  0  0  0  0  0
  -27.5831  -33.0290   20.8728 C   0  0  0  0  0  0  0  0  0  0  0  0
  -28.9258  -20.4361   23.5813 C   0  0  0  0  0  0  0  0  0  0  0  0
  -30.8343  -25.7596   24.7823 C   0  0  0  0  0  0  0  0  0  1  0  0
  -26.0573  -33.1907   25.6142 C   0  0  1  0  0  0  0  0  0  0  0  0
  -25.5054  -33.9195   21.9353 C   0  0  2  0  0  0  0  0  0  0  0  0
  -30.2482  -17.5168   24.4574 C   0  0  1  0  0  0  0  0  0  0  0  0
  -24.9821  -33.5727   26.6703 C   0  0  0  0  0  0  0  0  0  0  0  0
  -25.9145  -11.5904   20.4031 N   0  0  0  0  0  0  0  0  0  0  0  0
  -26.2052  -12.8844   20.1858 N   0  0  0  0  0  0  0  0  0  0  0  0
  -28.3754  -32.5248   26.1681 N   0  0  0  0  0  0  0  0  0  0  0  0
  -29.8404  -13.9819   20.6214 N   0  0  0  0  0  0  0  0  0  0  0  0
  -25.2573  -15.0550   20.1615 N   0  0  0  0  0  0  0  0  0  0  0  0
  -21.7746  -12.4097   21.2881 N   0  0  0  0  0  0  0  0  0  0  0  0
  -30.3352  -33.2345   29.0640 N   0  0  0  0  0  0  0  0  0  0  0  0
  -25.8547  -33.8044   24.3062 N   0  0  0  0  0  0  0  0  0  0  0  0
  -29.7584  -16.1446   21.5750 N   0  0  0  0  0  0  0  0  0  0  0  0
  -29.9772  -19.5432   23.0203 N   0  3  2  0  0  0  0  0  0  0  0  0
  -26.1252  -33.2817   20.7395 N   0  3  0  0  0  0  0  0  0  0  0  0
  -22.4114  -14.5731   20.8723 O   0  0  0  0  0  0  0  0  0  0  0  0
  -28.8411  -31.5174   28.5723 O   0  0  0  0  0  0  0  0  0  0  0  0
  -27.7137  -34.7583   26.2665 O   0  0  0  0  0  0  0  0  0  0  0  0
  -25.7292  -31.8210   23.1114 O   0  0  0  0  0  0  0  0  0  0  0  0
  -31.6513  -15.4254   20.4996 O   0  0  0  0  0  0  0  0  0  0  0  0
  -21.9053   -6.8734   21.8947 O   0  0  0  0  0  0  0  0  0  0  0  0
  -29.7141  -26.6234   24.9707 O   0  0  0  0  0  0  0  0  0  1  0  0
  -18.5403   -6.8752   26.2628 F   0  0  0  0  0  0  0  0  0  0  0  0
  -22.3289   -5.1472   24.0121 F   0  0  0  0  0  0  0  0  0  0  0  0
  1  2  1  0  0  0  0
  1  5  2  0  0  0  0
  2  6  2  0  0  0  0
  3 12  2  0  0  0  0
  3 19  1  0  0  0  0
  4 13  1  0  0  0  0
  4 19  2  0  0  0  0
  5 21  1  0  0  0  0
  6 23  1  0  0  0  0
  7 14  2  0  0  0  0
  7 22  1  0  0  0  0
  8 10  2  0  0  0  0
  8 25  1  0  0  0  0
  9 11  1  0  0  0  0
  9 25  2  0  0  0  0
 10 26  1  0  0  0  0
 11 26  2  0  0  0  0
 12 27  1  0  0  0  0
 13 27  2  0  0  0  0
 14 28  1  0  0  0  0
 15 16  2  0  0  0  0
 15 29  1  0  0  0  0
 16 30  1  0  0  0  0
 17 24  1  0  0  0  0
 17 28  2  0  0  0  0
 18 30  2  0  0  0  0
 18 31  1  0  0  0  0
 19 32  1  0  0  0  0
 20 32  1  0  0  0  0
 20 33  2  0  0  0  0
 20 34  1  0  0  0  0
 21 23  2  0  0  0  0
 21 39  1  0  0  0  0
 22 24  2  0  0  0  0
 22 40  1  0  0  0  0
 23 54  1  0  0  0  0
 24 41  1  0  0  0  0
 25 66  1  0  0  0  0
 26 67  1  0  0  0  0
 27 88  1  0  0  0  0
 28 89  1  0  0  0  0
 29 31  2  0  0  0  0
 29 88  1  0  0  0  0
 30 90  1  0  0  0  0
 31 91  1  0  0  0  0
 32 72  2  0  0  0  0
 33 73  1  0  0  0  0
 33 76  1  0  0  0  0
 34 77  1  0  0  0  0
 34 83  2  0  0  0  0
 35 55  1  0  0  0  0
 35 78  1  0  0  0  0
 35 84  2  0  0  0  0
 36 68  1  0  0  0  0
 36 74  1  0  0  0  0
 36 85  2  0  0  0  0
 37 69  1  0  0  0  0
 37 79  1  0  0  0  0
 37 86  2  0  0  0  0
 38 75  1  0  0  0  0
 38 80  1  0  0  0  0
 38 87  2  0  0  0  0
 39 42  1  0  0  0  0
 40 55  1  0  0  0  0
 41 74  1  0  0  0  0
 42 46  1  0  0  0  0
 43 44  1  0  0  0  0
 43 47  1  0  0  0  0
 44 48  1  0  0  0  0
 45 49  1  0  0  0  0
 45 51  1  0  0  0  0
 46 54  1  0  0  0  0
 47 56  1  0  0  0  0
 48 56  1  0  0  0  0
 49 57  1  0  0  0  0
 50 53  1  0  0  0  0
 50 58  1  0  0  0  0
 51 75  1  0  0  0  0
 52 57  1  0  0  0  0
 52 75  1  0  0  0  0
 53 81  1  0  0  0  0
 54 78  1  0  0  0  0
 55 74  1  0  0  0  0
 56 70  1  0  0  0  0
 57 73  1  0  0  0  0
 58 59  1  0  0  0  0
 58 80  1  0  0  0  0
 59 70  1  0  0  0  0
 59 81  1  0  0  0  0
 60 69  1  0  0  0  0
 61 70  1  0  0  0  0
 62 71  1  0  0  0  0
 63 71  1  0  0  0  0
 64 71  1  0  0  0  0
 65 82  1  0  0  0  0
 66 81  1  0  0  0  0
 67 89  1  0  0  0  0
 68 71  1  0  0  0  0
 68 79  1  0  0  0  0
 69 82  1  0  0  0  0
 72 73  1  0  0  0  0
M  CHG  2  81   1  82   1
M  ISO  4  38 100  67 101  80 100  89 101
M  END
> <Batch ID>
0124

> <Smiles>
CNC(C)C(=O)NC(C(=O)N1Cc2cc([101O:1][101CH2:1]c3ccc(CN4CCC([100NH:0][100C:0](=O)N5CCCC(n6nc(-c7ccc(Oc8ccc(F)cc8F)cc7)c(C(N)=O)c6N)C5)C4C(C)C4CCCC4)cc3)ccc2CC1C(=O)NC1CCCc2ccccc21)C(C)(C)C

> <Shape>
0.229

> <Color>
0.183

> <Negative vol penalty>
0.000

$$$$

  -OEChem-04052320333D

 81 90  0     1  0  0  0  0  0999 V2000
  -29.1495  -11.3754   19.9023 C   0  0  0  0  0  0  0  0  0  0  0  0
  -29.2781  -12.6954   19.4824 C   0  0  0  0  0  0  0  0  0  0  0  0
  -19.2744  -27.0360   22.0297 C   0  0  0  0  0  0  0  0  0  0  0  0
  -20.0384  -29.2921   22.4335 C   0  0  0  0  0  0  0  0  0  0  0  0
  -27.9064  -10.8922   20.3085 C   0  0  0  0  0  0  0  0  0  0  0  0
  -28.1632  -13.5329   19.4674 C   0  0  0  0  0  0  0  0  0  0  0  0
  -29.1449  -18.1093   21.4007 C   0  0  0  0  0  0  0  0  0  0  0  0
  -18.1556  -27.2718   22.8286 C   0  0  0  0  0  0  0  0  0  0  0  0
  -18.9196  -29.5280   23.2325 C   0  0  0  0  0  0  0  0  0  0  0  0
  -29.8253  -19.0124   20.5851 C   0  0  0  0  0  0  0  0  0  0  0  0
  -17.4348  -27.4034   26.1282 C   0  0  0  0  0  0  0  0  0  0  0  0
  -17.0825  -26.4221   27.0547 C   0  0  0  0  0  0  0  0  0  0  0  0
  -27.7363  -20.0940   20.0506 C   0  0  0  0  0  0  0  0  0  0  0  0
  -14.9306  -26.1826   25.9828 C   0  0  0  0  0  0  0  0  0  0  0  0
  -20.2158  -28.0461   21.8322 C   0  0  0  0  0  0  0  0  0  0  0  0
  -21.4860  -28.0129   19.6201 C   0  0  0  0  0  0  0  0  0  0  0  0
  -26.7776  -11.7269   20.3077 C   0  0  0  0  0  0  0  0  0  0  0  0
  -27.7515  -18.1851   21.5390 C   0  0  0  0  0  0  0  0  0  0  0  0
  -26.9035  -13.0600   19.8727 C   0  0  0  0  0  0  0  0  0  0  0  0
  -27.0410  -19.1922   20.8705 C   0  0  0  0  0  0  0  0  0  0  0  0
  -17.9782  -28.5178   23.4300 C   0  0  0  0  0  0  0  0  0  0  0  0
  -29.1207  -20.0032   19.9076 C   0  0  0  0  0  0  0  0  0  0  0  0
  -16.5350  -27.7744   25.1290 C   0  0  0  0  0  0  0  0  0  0  0  0
  -15.8305  -25.8116   26.9820 C   0  0  0  0  0  0  0  0  0  0  0  0
  -15.2829  -27.1640   25.0563 C   0  0  0  0  0  0  0  0  0  0  0  0
  -21.3720  -27.8029   21.0074 C   0  0  0  0  0  0  0  0  0  0  0  0
  -22.7711  -27.6324   19.3196 C   0  0  0  0  0  0  0  0  0  0  0  0
  -30.0205  -24.5844   18.5229 C   0  0  0  0  0  0  0  0  0  0  0  0
  -20.5169  -28.5077   18.6865 C   0  0  0  0  0  0  0  0  0  0  0  0
  -25.3223  -16.2470   20.8707 C   0  0  0  0  0  0  0  0  0  0  0  0
  -23.5891  -18.5355   22.3810 C   0  0  0  0  0  0  0  0  0  0  0  0
  -23.3182  -21.7958   23.3526 C   0  0  0  0  0  0  0  0  0  0  0  0
  -27.6873  -27.4605   22.5840 C   0  0  0  0  0  0  0  0  0  0  0  0
  -25.4452  -11.1463   20.7106 C   0  0  0  0  0  0  0  0  0  0  0  0
  -27.0356  -17.2199   22.4436 C   0  0  0  0  0  0  0  0  0  0  0  0
  -25.5468  -19.3290   21.0015 C   0  0  0  0  0  0  0  0  0  0  0  0
  -24.3889  -12.2037   21.0208 C   0  0  0  0  0  0  0  0  0  0  0  0
  -26.2399  -24.6762   20.7811 C   0  0  0  0  0  0  0  0  0  0  0  0
  -24.3749  -13.2781   19.9380 C   0  0  0  0  0  0  0  0  0  0  0  0
  -24.8275  -25.1945   20.5042 C   0  0  0  0  0  0  0  0  0  0  0  0
  -28.7332  -22.5620   17.6089 C   0  0  0  0  0  0  0  0  0  0  0  0
  -31.5353  -27.1969   19.4576 C   0  0  0  0  0  0  0  0  0  0  0  0
  -26.7303  -25.1164   22.1573 C   0  0  0  0  0  0  0  0  0  0  0  0
  -25.2808  -27.1089   22.1072 C   0  0  0  0  0  0  0  0  0  0  0  0
  -25.7225  -14.0062   19.8659 C   0  0  1  0  0  0  0  0  0  0  0  0
  -30.0036  -23.1679   18.1420 C   0  0  2  0  0  0  0  0  0  0  0  0
  -25.5554  -17.0702   22.1059 C   0  0  1  0  0  0  0  0  0  0  0  0
  -31.2869  -26.9799   20.9245 C   0  0  2  0  0  0  0  0  0  0  0  0
  -30.3486  -26.3877   19.9068 C   0  0  2  0  0  0  0  0  0  0  0  0
  -24.7364  -26.7165   20.7216 C   0  0  2  0  0  0  0  0  0  0  0  0
  -29.2194  -22.1904   18.9789 C   0  0  2  0  0  0  0  0  0  1  0  0
  -21.7706  -23.3759   24.5381 C   0  0  0  0  0  0  0  0  0  0  0  0
  -21.8052  -18.6399   19.9077 C   0  0  0  0  0  0  0  0  0  0  0  0
  -20.9071  -20.8262   20.7335 C   0  0  0  0  0  0  0  0  0  0  0  0
  -20.5787  -18.7549   22.0842 C   0  0  0  0  0  0  0  0  0  0  0  0
  -25.3206  -22.3617   25.4572 C   0  0  0  0  0  0  0  0  0  0  0  0
  -30.8410  -28.1120   21.7839 C   0  0  0  0  0  0  0  0  0  0  0  0
  -30.1167  -27.6563   23.0496 C   0  0  0  0  0  0  0  0  0  0  0  0
  -22.8787  -19.7964   21.9514 C   0  0  1  0  0  0  0  0  0  0  0  0
  -22.9462  -22.4224   24.6843 C   0  0  2  0  0  0  0  0  0  0  0  0
  -21.5704  -19.5008   21.1650 C   0  0  0  0  0  0  0  0  0  0  0  0
  -22.4951  -27.3259   21.5507 N   0  0  0  0  0  0  0  0  0  0  0  0
  -30.3970  -24.9434   19.7000 N   0  0  0  0  0  0  0  0  0  0  0  0
  -23.3270  -27.2329   20.4993 N   0  0  0  0  0  0  0  0  0  0  0  0
  -24.8913  -18.3576   21.8927 N   0  0  0  0  0  0  0  0  0  0  0  0
  -26.6349  -26.5767   22.2927 N   0  0  0  0  0  0  0  0  0  0  0  0
  -23.4684  -27.6039   18.1641 N   0  0  0  0  0  0  0  0  0  0  0  0
  -19.2448  -28.8523   19.1634 N   0  0  0  0  0  0  0  0  0  0  0  0
  -25.8364  -14.9664   20.9427 N   0  0  0  0  0  0  0  0  0  0  0  0
  -22.6828  -20.5871   23.1616 N   0  0  0  0  0  0  0  0  0  0  0  0
  -28.9365  -26.8756   22.7519 N   0  0  0  0  0  0  0  0  0  0  0  0
  -24.1015  -23.1824   25.2399 N   0  3  0  0  0  0  0  0  0  0  0  0
  -20.7662  -28.6249   17.4627 O   0  0  0  0  0  0  0  0  0  0  0  0
  -24.7193  -16.7369   19.9231 O   0  0  0  0  0  0  0  0  0  0  0  0
  -23.0125  -17.7412   23.1282 O   0  0  0  0  0  0  0  0  0  0  0  0
  -24.0921  -22.3273   22.5594 O   0  0  0  0  0  0  0  0  0  0  0  0
  -27.5267  -28.6818   22.6820 O   0  0  0  0  0  0  0  0  0  0  0  0
  -16.8865  -28.7483   24.2095 O   0  0  0  0  0  0  0  0  0  0  0  0
  -29.7822  -20.8856   19.1104 O   0  0  0  0  0  0  0  0  0  1  0  0
  -15.4929  -24.8681   27.8709 F   0  0  0  0  0  0  0  0  0  0  0  0
  -14.4146  -27.5154   24.0980 F   0  0  0  0  0  0  0  0  0  0  0  0
  1  2  1  0  0  0  0
  1  5  2  0  0  0  0
  2  6  2  0  0  0  0
  3  8  2  0  0  0  0
  3 15  1  0  0  0  0
  4  9  1  0  0  0  0
  4 15  2  0  0  0  0
  5 17  1  0  0  0  0
  6 19  1  0  0  0  0
  7 10  2  0  0  0  0
  7 18  1  0  0  0  0
  8 21  1  0  0  0  0
  9 21  2  0  0  0  0
 10 22  1  0  0  0  0
 11 12  2  0  0  0  0
 11 23  1  0  0  0  0
 12 24  1  0  0  0  0
 13 20  1  0  0  0  0
 13 22  2  0  0  0  0
 14 24  2  0  0  0  0
 14 25  1  0  0  0  0
 15 26  1  0  0  0  0
 16 26  1  0  0  0  0
 16 27  2  0  0  0  0
 16 29  1  0  0  0  0
 17 19  2  0  0  0  0
 17 34  1  0  0  0  0
 18 20  2  0  0  0  0
 18 35  1  0  0  0  0
 19 45  1  0  0  0  0
 20 36  1  0  0  0  0
 21 78  1  0  0  0  0
 22 79  1  0  0  0  0
 23 25  2  0  0  0  0
 23 78  1  0  0  0  0
 24 80  1  0  0  0  0
 25 81  1  0  0  0  0
 26 62  2  0  0  0  0
 27 64  1  0  0  0  0
 27 67  1  0  0  0  0
 28 46  1  0  0  0  0
 28 63  2  0  0  0  0
 29 68  1  0  0  0  0
 29 73  2  0  0  0  0
 30 47  1  0  0  0  0
 30 69  1  0  0  0  0
 30 74  2  0  0  0  0
 31 59  1  0  0  0  0
 31 65  1  0  0  0  0
 31 75  2  0  0  0  0
 32 60  1  0  0  0  0
 32 70  1  0  0  0  0
 32 76  2  0  0  0  0
 33 66  1  0  0  0  0
 33 71  1  0  0  0  0
 33 77  2  0  0  0  0
 34 37  1  0  0  0  0
 35 47  1  0  0  0  0
 36 65  1  0  0  0  0
 37 39  1  0  0  0  0
 38 40  1  0  0  0  0
 38 43  1  0  0  0  0
 39 45  1  0  0  0  0
 40 50  1  0  0  0  0
 41 46  1  0  0  0  0
 41 51  1  0  0  0  0
 42 48  1  0  0  0  0
 42 49  1  0  0  0  0
 43 66  1  0  0  0  0
 44 50  1  0  0  0  0
 44 66  1  0  0  0  0
 45 69  1  0  0  0  0
 46 51  1  0  0  0  0
 47 65  1  0  0  0  0
 48 49  1  0  0  0  0
 48 57  1  0  0  0  0
 49 63  1  0  0  0  0
 50 64  1  0  0  0  0
 51 79  1  0  0  0  0
 52 60  1  0  0  0  0
 53 61  1  0  0  0  0
 54 61  1  0  0  0  0
 55 61  1  0  0  0  0
 56 72  1  0  0  0  0
 57 58  1  0  0  0  0
 58 71  1  0  0  0  0
 59 61  1  0  0  0  0
 59 70  1  0  0  0  0
 60 72  1  0  0  0  0
 62 64  1  0  0  0  0
M  CHG  1  72   1
M  ISO  4  33 100  51 101  71 100  79 101
M  END
> <Batch ID>
0124

> <Smiles>
CNC(C)C(=O)NC(C(=O)N1Cc2cc([101O:1][101CH:1]3CC3C=NC3CC3CC[100NH:0][100C:0](=O)N3CCCC(n4nc(-c5ccc(Oc6ccc(F)cc6F)cc5)c(C(N)=O)c4N)C3)ccc2CC1C(=O)NC1CCCc2ccccc21)C(C)(C)C

> <Shape>
0.204

> <Color>
0.066

> <Negative vol penalty>
0.000

$$$$

  -OEChem-04052320333D

 88 97  0     1  0  0  0  0  0999 V2000
  -16.7973  -28.5906   24.1697 C   0  0  0  0  0  0  0  0  0  0  0  0
  -17.4120  -27.7704   23.2291 C   0  0  0  0  0  0  0  0  0  0  0  0
  -22.6296  -15.3919   24.1037 C   0  0  0  0  0  0  0  0  0  0  0  0
  -22.2229  -16.3770   21.9355 C   0  0  0  0  0  0  0  0  0  0  0  0
  -17.2908  -29.8736   24.4029 C   0  0  0  0  0  0  0  0  0  0  0  0
  -18.5201  -28.2332   22.5202 C   0  0  0  0  0  0  0  0  0  0  0  0
  -22.2272  -24.7940   22.2481 C   0  0  0  0  0  0  0  0  0  0  0  0
  -21.5365  -16.0849   24.6237 C   0  0  0  0  0  0  0  0  0  0  0  0
  -21.1298  -17.0701   22.4554 C   0  0  0  0  0  0  0  0  0  0  0  0
  -22.0734  -23.7640   21.3211 C   0  0  0  0  0  0  0  0  0  0  0  0
  -20.5928  -19.8427   24.3142 C   0  0  0  0  0  0  0  0  0  0  0  0
  -20.4610  -21.1904   23.9794 C   0  0  0  0  0  0  0  0  0  0  0  0
  -23.5410  -24.9239   19.7979 C   0  0  0  0  0  0  0  0  0  0  0  0
  -18.3190  -20.7281   22.9619 C   0  0  0  0  0  0  0  0  0  0  0  0
  -29.0966  -21.5635   17.9586 C   0  0  0  0  0  0  0  0  0  0  0  0
  -22.9729  -15.5380   22.7596 C   0  0  0  0  0  0  0  0  0  0  0  0
  -24.0981  -13.5409   21.6402 C   0  0  0  0  0  0  0  0  0  0  0  0
  -18.4114  -30.3488   23.7035 C   0  0  0  0  0  0  0  0  0  0  0  0
  -23.0317  -25.9038   21.9520 C   0  0  0  0  0  0  0  0  0  0  0  0
  -19.0282  -29.5242   22.7433 C   0  0  0  0  0  0  0  0  0  0  0  0
  -23.7054  -25.9654   20.7238 C   0  0  0  0  0  0  0  0  0  0  0  0
  -28.5625  -20.2985   17.9907 C   0  0  0  0  0  0  0  0  0  0  0  0
  -20.7866  -16.9240   23.7996 C   0  0  0  0  0  0  0  0  0  0  0  0
  -22.7280  -23.8302   20.0947 C   0  0  0  0  0  0  0  0  0  0  0  0
  -19.5877  -18.9377   23.9728 C   0  0  0  0  0  0  0  0  0  0  0  0
  -19.3241  -21.6331   23.3033 C   0  0  0  0  0  0  0  0  0  0  0  0
  -18.4509  -19.3804   23.2966 C   0  0  0  0  0  0  0  0  0  0  0  0
  -24.1023  -14.8228   22.2221 C   0  0  0  0  0  0  0  0  0  0  0  0
  -29.6695  -19.4447   17.8254 C   0  0  0  0  0  0  0  0  0  0  0  0
  -25.4079  -13.3175   21.2921 C   0  0  0  0  0  0  0  0  0  0  0  0
  -23.0078  -12.6332   21.4328 C   0  0  0  0  0  0  0  0  0  0  0  0
  -22.5225  -29.0267   21.6497 C   0  0  0  0  0  0  0  0  0  0  0  0
  -25.7524  -29.1311   21.3691 C   0  0  0  0  0  0  0  0  0  0  0  0
  -28.6454  -27.5052   20.5727 C   0  0  0  0  0  0  0  0  0  0  0  0
  -29.9751  -16.9807   20.0381 C   0  0  0  0  0  0  0  0  0  0  0  0
  -18.8798  -31.7600   23.9557 C   0  0  0  0  0  0  0  0  0  0  0  0
  -23.2086  -26.9937   22.9734 C   0  0  0  0  0  0  0  0  0  0  0  0
  -24.5967  -27.1254   20.3656 C   0  0  0  0  0  0  0  0  0  0  0  0
  -20.2864  -32.0378   23.4317 C   0  0  0  0  0  0  0  0  0  0  0  0
  -29.8712  -14.4768   22.5673 C   0  0  0  0  0  0  0  0  0  0  0  0
  -20.4428  -31.5017   22.0122 C   0  0  0  0  0  0  0  0  0  0  0  0
  -28.3805  -14.1659   22.7131 C   0  0  0  0  0  0  0  0  0  0  0  0
  -26.5996  -20.4149   19.5175 C   0  0  0  0  0  0  0  0  0  0  0  0
  -26.2810  -20.4847   17.0115 C   0  0  0  0  0  0  0  0  0  0  0  0
  -30.1141  -15.9588   22.2905 C   0  0  0  0  0  0  0  0  0  0  0  0
  -27.8744  -16.1946   21.2894 C   0  0  0  0  0  0  0  0  0  0  0  0
  -25.1226  -20.0825   19.6863 C   0  0  0  0  0  0  0  0  0  0  0  0
  -24.8065  -20.1515   17.1994 C   0  0  0  0  0  0  0  0  0  0  0  0
  -27.1358  -19.9283   18.1615 C   0  0  0  0  0  0  0  0  0  0  0  0
  -20.2474  -29.9813   21.9720 C   0  0  1  0  0  0  0  0  0  0  0  0
  -23.6427  -28.3218   22.3609 C   0  0  1  0  0  0  0  0  0  0  0  0
  -27.5759  -14.7024   21.5139 C   0  0  2  0  0  0  0  0  0  0  0  0
  -31.1235  -27.8625   20.4039 C   0  0  0  0  0  0  0  0  0  0  0  0
  -31.5175  -23.2659   18.9741 C   0  0  0  0  0  0  0  0  0  0  0  0
  -31.1971  -23.3369   16.4644 C   0  0  0  0  0  0  0  0  0  0  0  0
  -25.3512  -30.6653   18.7623 C   0  0  0  0  0  0  0  0  0  0  0  0
  -27.7340  -30.1627   18.1810 C   0  0  0  0  0  0  0  0  0  0  0  0
  -27.2059  -31.5242   20.2034 C   0  0  0  0  0  0  0  0  0  0  0  0
  -29.2001  -25.4340   22.6127 C   0  0  0  0  0  0  0  0  0  0  0  0
  -29.6758  -17.9719   17.7827 C   0  0  0  0  0  0  0  0  0  0  0  0
  -22.8591  -20.4845   18.7202 C   0  0  0  0  0  0  0  0  0  0  0  0
  -22.3408  -21.5169   19.7018 C   0  0  0  0  0  0  0  0  0  1  0  0
  -26.7293  -29.0413   20.2216 C   0  0  1  0  0  0  0  0  0  0  0  0
  -29.9775  -27.4078   21.2942 C   0  0  2  0  0  0  0  0  0  0  0  0
  -31.4263  -22.4452   17.6861 C   0  0  0  0  0  0  0  0  0  0  0  0
  -26.7368  -30.3273   19.3477 C   0  0  0  0  0  0  0  0  0  0  0  0
  -25.3183  -15.3750   22.2443 N   0  0  0  0  0  0  0  0  0  0  0  0
  -30.8200  -20.1111   17.6976 N   0  0  0  0  0  0  0  0  0  0  0  0
  -30.4388  -21.3970   17.7825 N   0  0  0  0  0  0  0  0  0  0  0  0
  -26.0904  -14.4355   21.6721 N   0  0  0  0  0  0  0  0  0  0  0  0
  -24.7326  -28.1693   21.3949 N   0  0  0  0  0  0  0  0  0  0  0  0
  -29.3232  -16.4042   21.1407 N   0  0  0  0  0  0  0  0  0  0  0  0
  -26.0308  -12.2758   20.7012 N   0  0  0  0  0  0  0  0  0  0  0  0
  -21.7272  -13.0209   21.8500 N   0  0  0  0  0  0  0  0  0  0  0  0
  -21.4337  -29.3064   22.4534 N   0  0  0  0  0  0  0  0  0  0  0  0
  -28.0225  -28.7120   20.8112 N   0  0  0  0  0  0  0  0  0  0  0  0
  -29.1520  -17.3695   18.9883 N   0  0  0  0  0  0  0  0  0  0  0  0
  -24.3211  -20.6702   18.5401 N   0  3  0  0  0  0  0  0  0  0  0  0
  -30.2377  -26.0017   21.7138 N   0  3  0  0  0  0  0  0  0  0  0  0
  -23.1673  -11.5049   20.9085 O   0  0  0  0  0  0  0  0  0  0  0  0
  -22.6380  -29.2982   20.4603 O   0  0  0  0  0  0  0  0  0  0  0  0
  -25.8934  -30.0174   22.2153 O   0  0  0  0  0  0  0  0  0  0  0  0
  -28.2035  -26.6026   19.8652 O   0  0  0  0  0  0  0  0  0  0  0  0
  -31.2006  -17.1325   19.9905 O   0  0  0  0  0  0  0  0  0  0  0  0
  -19.7197  -17.6003   24.3065 O   0  0  0  0  0  0  0  0  0  0  0  0
  -22.5791  -22.8266   19.1878 O   0  0  0  0  0  0  0  0  0  1  0  0
  -19.1970  -22.9275   22.9832 F   0  0  0  0  0  0  0  0  0  0  0  0
  -17.4814  -18.5159   22.9670 F   0  0  0  0  0  0  0  0  0  0  0  0
  1  2  1  0  0  0  0
  1  5  2  0  0  0  0
  2  6  2  0  0  0  0
  3  8  2  0  0  0  0
  3 16  1  0  0  0  0
  4  9  1  0  0  0  0
  4 16  2  0  0  0  0
  5 18  1  0  0  0  0
  6 20  1  0  0  0  0
  7 10  2  0  0  0  0
  7 19  1  0  0  0  0
  8 23  1  0  0  0  0
  9 23  2  0  0  0  0
 10 24  1  0  0  0  0
 11 12  2  0  0  0  0
 11 25  1  0  0  0  0
 12 26  1  0  0  0  0
 13 21  1  0  0  0  0
 13 24  2  0  0  0  0
 14 26  2  0  0  0  0
 14 27  1  0  0  0  0
 15 22  2  0  0  0  0
 15 69  1  0  0  0  0
 16 28  1  0  0  0  0
 17 28  1  0  0  0  0
 17 30  2  0  0  0  0
 17 31  1  0  0  0  0
 18 20  2  0  0  0  0
 18 36  1  0  0  0  0
 19 21  2  0  0  0  0
 19 37  1  0  0  0  0
 20 50  1  0  0  0  0
 21 38  1  0  0  0  0
 22 29  1  0  0  0  0
 22 49  1  0  0  0  0
 23 85  1  0  0  0  0
 24 86  1  0  0  0  0
 25 27  2  0  0  0  0
 25 85  1  0  0  0  0
 26 87  1  0  0  0  0
 27 88  1  0  0  0  0
 28 67  2  0  0  0  0
 29 60  1  0  0  0  0
 29 68  2  0  0  0  0
 30 70  1  0  0  0  0
 30 73  1  0  0  0  0
 31 74  1  0  0  0  0
 31 80  2  0  0  0  0
 32 51  1  0  0  0  0
 32 75  1  0  0  0  0
 32 81  2  0  0  0  0
 33 63  1  0  0  0  0
 33 71  1  0  0  0  0
 33 82  2  0  0  0  0
 34 64  1  0  0  0  0
 34 76  1  0  0  0  0
 34 83  2  0  0  0  0
 35 72  1  0  0  0  0
 35 77  1  0  0  0  0
 35 84  2  0  0  0  0
 36 39  1  0  0  0  0
 37 51  1  0  0  0  0
 38 71  1  0  0  0  0
 39 41  1  0  0  0  0
 40 42  1  0  0  0  0
 40 45  1  0  0  0  0
 41 50  1  0  0  0  0
 42 52  1  0  0  0  0
 43 47  1  0  0  0  0
 43 49  1  0  0  0  0
 44 48  1  0  0  0  0
 44 49  1  0  0  0  0
 45 72  1  0  0  0  0
 46 52  1  0  0  0  0
 46 72  1  0  0  0  0
 47 78  1  0  0  0  0
 48 78  1  0  0  0  0
 50 75  1  0  0  0  0
 51 71  1  0  0  0  0
 52 70  1  0  0  0  0
 53 64  1  0  0  0  0
 54 65  1  0  0  0  0
 55 65  1  0  0  0  0
 56 66  1  0  0  0  0
 57 66  1  0  0  0  0
 58 66  1  0  0  0  0
 59 79  1  0  0  0  0
 60 77  1  0  0  0  0
 61 62  1  0  0  0  0
 61 78  1  0  0  0  0
 62 86  1  0  0  0  0
 63 66  1  0  0  0  0
 63 76  1  0  0  0  0
 64 79  1  0  0  0  0
 65 69  1  0  0  0  0
 67 70  1  0  0  0  0
 68 69  1  0  0  0  0
M  CHG  2  78   1  79   1
M  ISO  4  35 100  62 101  77 100  86 101
M  END
> <Batch ID>
0124

> <Smiles>
CNC(C)C(=O)NC(C(=O)N1Cc2cc([101O:1][101CH2:1]CN3CCC(c4cn(C(C)C)nc4C[100NH:0][100C:0](=O)N4CCCC(n5nc(-c6ccc(Oc7ccc(F)cc7F)cc6)c(C(N)=O)c5N)C4)CC3)ccc2CC1C(=O)NC1CCCc2ccccc21)C(C)(C)C

> <Shape>
0.214

> <Color>
0.087

> <Negative vol penalty>
0.000

$$$$

  -OEChem-04052320333D

 86 94  0     1  0  0  0  0  0999 V2000
  -25.3495  -17.7010   22.5516 C   0  0  0  0  0  0  0  0  0  0  0  0
  -25.8835  -18.8072   21.8984 C   0  0  0  0  0  0  0  0  0  0  0  0
  -26.5872  -12.9143   21.7203 C   0  0  0  0  0  0  0  0  0  0  0  0
  -26.0437  -14.1544   19.7194 C   0  0  0  0  0  0  0  0  0  0  0  0
  -23.9798  -17.6358   22.8037 C   0  0  0  0  0  0  0  0  0  0  0  0
  -25.0477  -19.8484   21.4958 C   0  0  0  0  0  0  0  0  0  0  0  0
  -26.9627  -24.4083   22.5843 C   0  0  0  0  0  0  0  0  0  0  0  0
  -25.3073  -12.3600   21.7245 C   0  0  0  0  0  0  0  0  0  0  0  0
  -24.7637  -13.6001   19.7236 C   0  0  0  0  0  0  0  0  0  0  0  0
  -27.9628  -24.8959   21.7442 C   0  0  0  0  0  0  0  0  0  0  0  0
  -23.6552   -9.8945   20.1043 C   0  0  0  0  0  0  0  0  0  0  0  0
  -23.5431   -8.5240   20.3380 C   0  0  0  0  0  0  0  0  0  0  0  0
  -26.3324  -26.2615   20.6058 C   0  0  0  0  0  0  0  0  0  0  0  0
  -31.6953  -24.0985   16.7417 C   0  0  0  0  0  0  0  0  0  0  0  0
  -22.1904   -8.9675   22.2901 C   0  0  0  0  0  0  0  0  0  0  0  0
  -29.5506  -23.8351   17.3750 C   0  0  0  0  0  0  0  0  0  0  0  0
  -26.9554  -13.8116   20.7178 C   0  0  0  0  0  0  0  0  0  0  0  0
  -29.4252  -13.8698   20.0818 C   0  0  0  0  0  0  0  0  0  0  0  0
  -23.1283  -18.6810   22.4127 C   0  0  0  0  0  0  0  0  0  0  0  0
  -25.6358  -24.8361   22.4341 C   0  0  0  0  0  0  0  0  0  0  0  0
  -23.6651  -19.7964   21.7418 C   0  0  0  0  0  0  0  0  0  0  0  0
  -25.3177  -25.7798   21.4469 C   0  0  0  0  0  0  0  0  0  0  0  0
  -30.5655  -24.7616   17.2812 C   0  0  0  0  0  0  0  0  0  0  0  0
  -24.3955  -12.7028   20.7261 C   0  0  0  0  0  0  0  0  0  0  0  0
  -27.6473  -25.8205   20.7529 C   0  0  0  0  0  0  0  0  0  0  0  0
  -23.0349  -10.8016   20.9636 C   0  0  0  0  0  0  0  0  0  0  0  0
  -22.8106   -8.0604   21.4308 C   0  0  0  0  0  0  0  0  0  0  0  0
  -22.3025  -10.3380   22.0564 C   0  0  0  0  0  0  0  0  0  0  0  0
  -28.2773  -14.3850   20.7132 C   0  0  0  0  0  0  0  0  0  0  0  0
  -31.3363  -22.7869   16.5221 C   0  0  0  0  0  0  0  0  0  0  0  0
  -30.4142  -14.7768   20.3743 C   0  0  0  0  0  0  0  0  0  0  0  0
  -29.5833  -12.6779   19.3007 C   0  0  0  0  0  0  0  0  0  0  0  0
  -22.8843  -23.4079   21.7317 C   0  0  0  0  0  0  0  0  0  0  0  0
  -21.6486  -26.3382   22.3710 C   0  0  0  0  0  0  0  0  0  0  0  0
  -22.1409  -29.7093   22.5715 C   0  0  0  0  0  0  0  0  0  0  0  0
  -32.2041  -20.0415   20.8490 C   0  0  0  0  0  0  0  0  0  0  0  0
  -21.6476  -18.5440   22.6648 C   0  0  0  0  0  0  0  0  0  0  0  0
  -24.5733  -24.3208   23.3657 C   0  0  0  0  0  0  0  0  0  0  0  0
  -23.9121  -26.2864   21.2577 C   0  0  0  0  0  0  0  0  0  0  0  0
  -20.8841  -19.8599   22.5395 C   0  0  0  0  0  0  0  0  0  0  0  0
  -30.4739  -18.6470   23.6308 C   0  0  0  0  0  0  0  0  0  0  0  0
  -21.3033  -20.6020   21.2744 C   0  0  0  0  0  0  0  0  0  0  0  0
  -29.8381  -17.3754   23.0661 C   0  0  0  0  0  0  0  0  0  0  0  0
  -30.4776  -19.7791   22.6059 C   0  0  0  0  0  0  0  0  0  0  0  0
  -30.4529  -18.1657   20.7431 C   0  0  0  0  0  0  0  0  0  0  0  0
  -22.7946  -20.9571   21.3117 C   0  0  1  0  0  0  0  0  0  0  0  0
  -23.1656  -24.4373   22.7894 C   0  0  1  0  0  0  0  0  0  0  0  0
  -30.4766  -16.9788   21.7213 C   0  0  2  0  0  0  0  0  0  0  0  0
  -20.9342  -31.8494   23.0825 C   0  0  0  0  0  0  0  0  0  0  0  0
  -28.0674  -21.5373   15.8989 C   0  0  0  0  0  0  0  0  0  0  0  0
  -28.8319  -20.9367   18.2358 C   0  0  0  0  0  0  0  0  0  0  0  0
  -20.3016  -26.2291   19.6354 C   0  0  0  0  0  0  0  0  0  0  0  0
  -19.9253  -28.6988   19.7996 C   0  0  0  0  0  0  0  0  0  0  0  0
  -18.8754  -27.1657   21.4638 C   0  0  0  0  0  0  0  0  0  0  0  0
  -23.9258  -30.3059   24.8556 C   0  0  0  0  0  0  0  0  0  0  0  0
  -30.4872  -26.2137   17.6800 C   0  0  0  0  0  0  0  0  0  0  0  0
  -32.1287  -21.6660   15.9754 C   0  0  0  0  0  0  0  0  0  0  0  0
  -30.8782  -26.4744   19.1362 C   0  0  0  0  0  0  0  0  0  0  0  0
  -33.8783  -20.1662   19.0212 C   0  0  0  0  0  0  0  0  0  0  0  0
  -33.4744  -21.2489   18.0380 C   0  0  0  0  0  0  0  0  0  0  0  0
  -29.9453  -25.8078   20.1406 C   0  0  0  0  0  0  0  0  0  1  0  0
  -21.3676  -27.5801   21.5600 C   0  0  1  0  0  0  0  0  0  0  0  0
  -21.7792  -30.7179   23.6468 C   0  0  2  0  0  0  0  0  0  0  0  0
  -29.2615  -21.4147   16.8475 C   0  0  0  0  0  0  0  0  0  0  0  0
  -20.1437  -27.4076   20.6168 C   0  0  0  0  0  0  0  0  0  0  0  0
  -28.5138  -15.5304   21.3583 N   0  0  0  0  0  0  0  0  0  0  0  0
  -30.0305  -22.6383   16.9104 N   0  0  0  0  0  0  0  0  0  0  0  0
  -29.8218  -15.7424   21.1338 N   0  0  0  0  0  0  0  0  0  0  0  0
  -22.9073  -25.7478   22.1893 N   0  0  0  0  0  0  0  0  0  0  0  0
  -31.0980  -19.3384   21.3542 N   0  0  0  0  0  0  0  0  0  0  0  0
  -31.7242  -14.8347   20.0534 N   0  0  0  0  0  0  0  0  0  0  0  0
  -28.4644  -11.8587   19.0978 N   0  0  0  0  0  0  0  0  0  0  0  0
  -23.0200  -22.1032   22.1662 N   0  0  0  0  0  0  0  0  0  0  0  0
  -21.2341  -28.6719   22.5184 N   0  0  0  0  0  0  0  0  0  0  0  0
  -32.7356  -19.5537   19.6614 N   0  0  0  0  0  0  0  0  0  0  0  0
  -23.0128  -31.3047   24.2426 N   0  3  0  0  0  0  0  0  0  0  0  0
  -32.5722  -20.6793   17.0067 N   0  3  0  0  0  0  0  0  0  0  0  0
  -30.6880  -12.3407   18.8113 O   0  0  0  0  0  0  0  0  0  0  0  0
  -22.5663  -23.7705   20.6051 O   0  0  0  0  0  0  0  0  0  0  0  0
  -20.7859  -25.9119   23.1428 O   0  0  0  0  0  0  0  0  0  0  0  0
  -23.1271  -29.8315   21.8482 O   0  0  0  0  0  0  0  0  0  0  0  0
  -32.6858  -21.0274   21.4171 O   0  0  0  0  0  0  0  0  0  0  0  0
  -23.1465  -12.1619   20.7298 O   0  0  0  0  0  0  0  0  0  0  0  0
  -28.6214  -26.2976   19.9311 O   0  0  0  0  0  0  0  0  0  1  0  0
  -22.7018   -6.7442   21.6542 F   0  0  0  0  0  0  0  0  0  0  0  0
  -21.7034  -11.2046   22.8847 F   0  0  0  0  0  0  0  0  0  0  0  0
  1  2  1  0  0  0  0
  1  5  2  0  0  0  0
  2  6  2  0  0  0  0
  3  8  2  0  0  0  0
  3 17  1  0  0  0  0
  4  9  1  0  0  0  0
  4 17  2  0  0  0  0
  5 19  1  0  0  0  0
  6 21  1  0  0  0  0
  7 10  2  0  0  0  0
  7 20  1  0  0  0  0
  8 24  1  0  0  0  0
  9 24  2  0  0  0  0
 10 25  1  0  0  0  0
 11 12  2  0  0  0  0
 11 26  1  0  0  0  0
 12 27  1  0  0  0  0
 13 22  1  0  0  0  0
 13 25  2  0  0  0  0
 14 23  1  0  0  0  0
 14 30  2  0  0  0  0
 15 27  2  0  0  0  0
 15 28  1  0  0  0  0
 16 23  2  0  0  0  0
 16 67  1  0  0  0  0
 17 29  1  0  0  0  0
 18 29  1  0  0  0  0
 18 31  2  0  0  0  0
 18 32  1  0  0  0  0
 19 21  2  0  0  0  0
 19 37  1  0  0  0  0
 20 22  2  0  0  0  0
 20 38  1  0  0  0  0
 21 46  1  0  0  0  0
 22 39  1  0  0  0  0
 23 56  1  0  0  0  0
 24 83  1  0  0  0  0
 25 84  1  0  0  0  0
 26 28  2  0  0  0  0
 26 83  1  0  0  0  0
 27 85  1  0  0  0  0
 28 86  1  0  0  0  0
 29 66  2  0  0  0  0
 30 57  1  0  0  0  0
 30 67  1  0  0  0  0
 31 68  1  0  0  0  0
 31 71  1  0  0  0  0
 32 72  1  0  0  0  0
 32 78  2  0  0  0  0
 33 47  1  0  0  0  0
 33 73  1  0  0  0  0
 33 79  2  0  0  0  0
 34 62  1  0  0  0  0
 34 69  1  0  0  0  0
 34 80  2  0  0  0  0
 35 63  1  0  0  0  0
 35 74  1  0  0  0  0
 35 81  2  0  0  0  0
 36 70  1  0  0  0  0
 36 75  1  0  0  0  0
 36 82  2  0  0  0  0
 37 40  1  0  0  0  0
 38 47  1  0  0  0  0
 39 69  1  0  0  0  0
 40 42  1  0  0  0  0
 41 43  1  0  0  0  0
 41 44  1  0  0  0  0
 42 46  1  0  0  0  0
 43 48  1  0  0  0  0
 44 70  1  0  0  0  0
 45 48  1  0  0  0  0
 45 70  1  0  0  0  0
 46 73  1  0  0  0  0
 47 69  1  0  0  0  0
 48 68  1  0  0  0  0
 49 63  1  0  0  0  0
 50 64  1  0  0  0  0
 51 64  1  0  0  0  0
 52 65  1  0  0  0  0
 53 65  1  0  0  0  0
 54 65  1  0  0  0  0
 55 76  1  0  0  0  0
 56 58  1  0  0  0  0
 57 77  1  0  0  0  0
 58 61  1  0  0  0  0
 59 60  1  0  0  0  0
 59 75  1  0  0  0  0
 60 77  1  0  0  0  0
 61 84  1  0  0  0  0
 62 65  1  0  0  0  0
 62 74  1  0  0  0  0
 63 76  1  0  0  0  0
 64 67  1  0  0  0  0
 66 68  1  0  0  0  0
M  CHG  2  76   1  77   1
M  ISO  4  36 100  61 101  75 100  84 101
M  END
> <Batch ID>
0124

> <Smiles>
CNC(C)C(=O)NC(C(=O)N1Cc2cc([101O:1][101CH2:1]CCc3cc(CNCC[100NH:0][100C:0](=O)N4CCCC(n5nc(-c6ccc(Oc7ccc(F)cc7F)cc6)c(C(N)=O)c5N)C4)n(C(C)C)c3)ccc2CC1C(=O)NC1CCCc2ccccc21)C(C)(C)C

> <Shape>
0.238

> <Color>
0.073

> <Negative vol penalty>
0.000

$$$$

  -OEChem-04052320333D

 86 95  0     1  0  0  0  0  0999 V2000
  -30.2465  -33.1337   25.4108 C   0  0  0  0  0  0  0  0  0  0  0  0
  -29.7257  -31.9094   25.0045 C   0  0  0  0  0  0  0  0  0  0  0  0
  -23.5126   -9.6035   20.0248 C   0  0  0  0  0  0  0  0  0  0  0  0
  -24.1497   -9.8810   22.3387 C   0  0  0  0  0  0  0  0  0  0  0  0
  -29.3994  -34.2275   25.5839 C   0  0  0  0  0  0  0  0  0  0  0  0
  -28.3571  -31.7778   24.7720 C   0  0  0  0  0  0  0  0  0  0  0  0
  -27.3461  -29.2509   20.5015 C   0  0  0  0  0  0  0  0  0  0  0  0
  -28.3383  -18.7891   22.1351 C   0  0  0  0  0  0  0  0  0  0  0  0
  -22.9715   -8.3532   20.3237 C   0  0  0  0  0  0  0  0  0  0  0  0
  -23.6084   -8.6307   22.6377 C   0  0  0  0  0  0  0  0  0  0  0  0
  -27.4658  -27.8624   20.5397 C   0  0  0  0  0  0  0  0  0  0  0  0
  -20.5452   -7.3080   23.1742 C   0  0  0  0  0  0  0  0  0  0  0  0
  -19.7522   -7.2031   24.3168 C   0  0  0  0  0  0  0  0  0  0  0  0
  -28.2830  -20.1749   22.0351 C   0  0  0  0  0  0  0  0  0  0  0  0
  -25.0736  -27.6690   20.7835 C   0  0  0  0  0  0  0  0  0  0  0  0
  -21.2777   -5.5645   25.2251 C   0  0  0  0  0  0  0  0  0  0  0  0
  -30.0330  -18.7884   20.4664 C   0  0  0  0  0  0  0  0  0  0  0  0
  -24.1018  -10.3675   21.0323 C   0  0  0  0  0  0  0  0  0  0  0  0
  -24.0009  -12.9016   20.7571 C   0  0  0  0  0  0  0  0  0  0  0  0
  -28.0211  -34.1118   25.3440 C   0  0  0  0  0  0  0  0  0  0  0  0
  -26.0883  -29.8603   20.6151 C   0  0  0  0  0  0  0  0  0  0  0  0
  -27.4905  -32.8707   24.9433 C   0  0  0  0  0  0  0  0  0  0  0  0
  -24.9404  -29.0653   20.7439 C   0  0  0  0  0  0  0  0  0  0  0  0
  -29.2273  -18.0752   21.3393 C   0  0  0  0  0  0  0  0  0  0  0  0
  -23.0193   -7.8668   21.6301 C   0  0  0  0  0  0  0  0  0  0  0  0
  -26.3298  -27.0713   20.6837 C   0  0  0  0  0  0  0  0  0  0  0  0
  -21.7045   -6.5410   23.0569 C   0  0  0  0  0  0  0  0  0  0  0  0
  -20.1184   -6.3314   25.3423 C   0  0  0  0  0  0  0  0  0  0  0  0
  -22.0707   -5.6693   24.0824 C   0  0  0  0  0  0  0  0  0  0  0  0
  -24.6615  -11.6589   20.7241 C   0  0  0  0  0  0  0  0  0  0  0  0
  -29.1311  -20.7941   21.1312 C   0  0  0  0  0  0  0  0  0  0  0  0
  -24.9607  -13.8107   20.3847 C   0  0  0  0  0  0  0  0  0  0  0  0
  -22.6412  -13.2068   21.0943 C   0  0  0  0  0  0  0  0  0  0  0  0
  -24.7436  -31.8599   22.6882 C   0  0  0  0  0  0  0  0  0  0  0  0
  -22.3152  -31.8392   20.5376 C   0  0  0  0  0  0  0  0  0  0  0  0
  -20.6957  -30.2128   18.0119 C   0  0  0  0  0  0  0  0  0  0  0  0
  -30.1443  -15.8210   20.6881 C   0  0  0  0  0  0  0  0  0  0  0  0
  -27.1383  -35.3096   25.5902 C   0  0  0  0  0  0  0  0  0  0  0  0
  -25.9734  -31.3584   20.5452 C   0  0  0  0  0  0  0  0  0  0  0  0
  -23.5649  -29.6698   20.8495 C   0  0  0  0  0  0  0  0  0  0  0  0
  -25.7530  -35.1849   24.9612 C   0  0  0  0  0  0  0  0  0  0  0  0
  -29.5843  -13.1119   18.4466 C   0  0  0  0  0  0  0  0  0  0  0  0
  -31.1209  -23.6624   20.9208 C   0  0  0  0  0  0  0  0  0  0  0  0
  -25.1541  -33.8135   25.2566 C   0  0  0  0  0  0  0  0  0  0  0  0
  -30.1117  -23.0492   21.8776 C   0  0  0  0  0  0  0  0  0  0  0  0
  -28.1993  -12.5946   18.8420 C   0  0  0  0  0  0  0  0  0  0  0  0
  -30.3869  -13.5704   19.6629 C   0  0  0  0  0  0  0  0  0  0  0  0
  -28.3190  -14.0242   20.9227 C   0  0  0  0  0  0  0  0  0  0  0  0
  -30.2890  -23.9953   19.7036 C   0  0  0  0  0  0  0  0  0  0  0  0
  -26.0149  -32.6949   24.6573 C   0  0  1  0  0  0  0  0  0  0  0  0
  -29.0980  -22.2986   20.9957 C   0  0  1  0  0  0  0  0  0  0  0  0
  -24.6955  -31.8903   21.1867 C   0  0  1  0  0  0  0  0  0  0  0  0
  -27.4487  -13.6113   19.7244 C   0  0  2  0  0  0  0  0  0  0  0  0
  -18.7210  -30.4272   16.4783 C   0  0  0  0  0  0  0  0  0  0  0  0
  -27.6988  -21.6595   18.2301 C   0  0  0  0  0  0  0  0  0  0  0  0
  -20.4521  -31.0953   22.8366 C   0  0  0  0  0  0  0  0  0  0  0  0
  -18.7466  -30.4046   21.1388 C   0  0  0  0  0  0  0  0  0  0  0  0
  -19.5166  -32.7752   21.2375 C   0  0  0  0  0  0  0  0  0  0  0  0
  -22.4157  -30.1817   15.6037 C   0  0  0  0  0  0  0  0  0  0  0  0
  -27.1134  -23.7385   19.5399 C   0  0  0  0  0  0  0  0  0  0  0  0
  -27.5253  -25.1342   19.9949 C   0  0  0  0  0  0  0  0  0  1  0  0
  -21.0756  -31.0023   20.3329 C   0  0  1  0  0  0  0  0  0  0  0  0
  -20.2083  -30.6904   16.6559 C   0  0  2  0  0  0  0  0  0  0  0  0
  -28.1874  -23.0140   18.7260 C   0  0  1  0  0  0  0  0  0  0  0  0
  -19.9737  -31.3077   21.3864 C   0  0  0  0  0  0  0  0  0  0  0  0
  -30.0078  -20.1343   20.3414 N   0  0  0  0  0  0  0  0  0  0  0  0
  -25.9420  -11.7652   20.3593 N   0  0  0  0  0  0  0  0  0  0  0  0
  -26.0937  -13.0855   20.1597 N   0  0  0  0  0  0  0  0  0  0  0  0
  -23.5052  -31.1393   20.7823 N   0  0  0  0  0  0  0  0  0  0  0  0
  -29.6148  -14.5353   20.4488 N   0  0  0  0  0  0  0  0  0  0  0  0
  -24.9376  -15.1517   20.2310 N   0  0  0  0  0  0  0  0  0  0  0  0
  -21.7895  -12.1536   21.4543 N   0  0  0  0  0  0  0  0  0  0  0  0
  -29.3066  -16.6628   21.4191 N   0  0  0  0  0  0  0  0  0  0  0  0
  -25.7843  -32.5879   23.2325 N   0  0  0  0  0  0  0  0  0  0  0  0
  -20.6589  -31.2209   18.9519 N   0  0  0  0  0  0  0  0  0  0  0  0
  -29.3986  -22.7852   19.5732 N   0  3  1  0  0  0  0  0  0  0  0  0
  -20.9431  -29.9896   15.5651 N   0  3  0  0  0  0  0  0  0  0  0  0
  -22.1904  -14.3769   21.0611 O   0  0  0  0  0  0  0  0  0  0  0  0
  -23.8982  -31.2242   23.3070 O   0  0  0  0  0  0  0  0  0  0  0  0
  -22.2321  -33.0683   20.4754 O   0  0  0  0  0  0  0  0  0  0  0  0
  -21.0681  -29.0598   18.2177 O   0  0  0  0  0  0  0  0  0  0  0  0
  -31.2473  -16.1601   20.2516 O   0  0  0  0  0  0  0  0  0  0  0  0
  -22.4911   -6.6468   21.9222 O   0  0  0  0  0  0  0  0  0  0  0  0
  -26.4438  -25.7158   20.7219 O   0  0  0  0  0  0  0  0  0  1  0  0
  -19.3576   -6.2320   26.4403 F   0  0  0  0  0  0  0  0  0  0  0  0
  -23.1838   -4.9308   23.9760 F   0  0  0  0  0  0  0  0  0  0  0  0
  1  2  1  0  0  0  0
  1  5  2  0  0  0  0
  2  6  2  0  0  0  0
  3  9  2  0  0  0  0
  3 18  1  0  0  0  0
  4 10  1  0  0  0  0
  4 18  2  0  0  0  0
  5 20  1  0  0  0  0
  6 22  1  0  0  0  0
  7 11  2  0  0  0  0
  7 21  1  0  0  0  0
  8 14  2  0  0  0  0
  8 24  1  0  0  0  0
  9 25  1  0  0  0  0
 10 25  2  0  0  0  0
 11 26  1  0  0  0  0
 12 13  2  0  0  0  0
 12 27  1  0  0  0  0
 13 28  1  0  0  0  0
 14 31  1  0  0  0  0
 15 23  1  0  0  0  0
 15 26  2  0  0  0  0
 16 28  2  0  0  0  0
 16 29  1  0  0  0  0
 17 24  2  0  0  0  0
 17 66  1  0  0  0  0
 18 30  1  0  0  0  0
 19 30  1  0  0  0  0
 19 32  2  0  0  0  0
 19 33  1  0  0  0  0
 20 22  2  0  0  0  0
 20 38  1  0  0  0  0
 21 23  2  0  0  0  0
 21 39  1  0  0  0  0
 22 50  1  0  0  0  0
 23 40  1  0  0  0  0
 24 73  1  0  0  0  0
 25 83  1  0  0  0  0
 26 84  1  0  0  0  0
 27 29  2  0  0  0  0
 27 83  1  0  0  0  0
 28 85  1  0  0  0  0
 29 86  1  0  0  0  0
 30 67  2  0  0  0  0
 31 51  1  0  0  0  0
 31 66  2  0  0  0  0
 32 68  1  0  0  0  0
 32 71  1  0  0  0  0
 33 72  1  0  0  0  0
 33 78  2  0  0  0  0
 34 52  1  0  0  0  0
 34 74  1  0  0  0  0
 34 79  2  0  0  0  0
 35 62  1  0  0  0  0
 35 69  1  0  0  0  0
 35 80  2  0  0  0  0
 36 63  1  0  0  0  0
 36 75  1  0  0  0  0
 36 81  2  0  0  0  0
 37 70  1  0  0  0  0
 37 73  1  0  0  0  0
 37 82  2  0  0  0  0
 38 41  1  0  0  0  0
 39 52  1  0  0  0  0
 40 69  1  0  0  0  0
 41 44  1  0  0  0  0
 42 46  1  0  0  0  0
 42 47  1  0  0  0  0
 43 45  1  0  0  0  0
 43 49  1  0  0  0  0
 44 50  1  0  0  0  0
 45 51  1  0  0  0  0
 46 53  1  0  0  0  0
 47 70  1  0  0  0  0
 48 53  1  0  0  0  0
 48 70  1  0  0  0  0
 49 76  1  0  0  0  0
 50 74  1  0  0  0  0
 51 76  1  0  0  0  0
 52 69  1  0  0  0  0
 53 68  1  0  0  0  0
 54 63  1  0  0  0  0
 55 64  1  0  0  0  0
 56 65  1  0  0  0  0
 57 65  1  0  0  0  0
 58 65  1  0  0  0  0
 59 77  1  0  0  0  0
 60 61  1  0  0  0  0
 60 64  1  0  0  0  0
 61 84  1  0  0  0  0
 62 65  1  0  0  0  0
 62 75  1  0  0  0  0
 63 77  1  0  0  0  0
 64 76  1  0  0  0  0
 67 68  1  0  0  0  0
M  CHG  2  76   1  77   1
M  ISO  4  37 100  61 101  73 100  84 101
M  END
> <Batch ID>
0124

> <Smiles>
CNC(C)C(=O)NC(C(=O)N1Cc2cc([101O:1][101CH2:1]CC(C)N3CCCC3c3ccc([100NH:0][100C:0](=O)N4CCCC(n5nc(-c6ccc(Oc7ccc(F)cc7F)cc6)c(C(N)=O)c5N)C4)cn3)ccc2CC1C(=O)NC1CCCc2ccccc21)C(C)(C)C

> <Shape>
0.360

> <Color>
0.185

> <Negative vol penalty>
0.000

$$$$

  -OEChem-04052320333D

 87 96  0     1  0  0  0  0  0999 V2000
  -31.5570  -33.8807   20.1592 C   0  0  0  0  0  0  0  0  0  0  0  0
  -31.1340  -32.5554   20.1714 C   0  0  0  0  0  0  0  0  0  0  0  0
  -23.6527  -13.1355   20.6985 C   0  0  0  0  0  0  0  0  0  0  0  0
  -26.0356  -12.7593   20.8305 C   0  0  0  0  0  0  0  0  0  0  0  0
  -30.9891  -34.8006   21.0396 C   0  0  0  0  0  0  0  0  0  0  0  0
  -30.1435  -32.1491   21.0649 C   0  0  0  0  0  0  0  0  0  0  0  0
  -26.6495  -29.2031   18.8835 C   0  0  0  0  0  0  0  0  0  0  0  0
  -23.4579  -11.7913   20.3815 C   0  0  0  0  0  0  0  0  0  0  0  0
  -25.8408  -11.4150   20.5135 C   0  0  0  0  0  0  0  0  0  0  0  0
  -26.9888  -27.8687   18.6640 C   0  0  0  0  0  0  0  0  0  0  0  0
  -22.3013   -8.3798   19.8920 C   0  0  0  0  0  0  0  0  0  0  0  0
  -21.2717   -7.7022   20.5448 C   0  0  0  0  0  0  0  0  0  0  0  0
  -25.7553  -27.2366   20.6383 C   0  0  0  0  0  0  0  0  0  0  0  0
  -22.3217   -8.1567   22.6727 C   0  0  0  0  0  0  0  0  0  0  0  0
  -24.9415  -13.6196   20.9230 C   0  0  0  0  0  0  0  0  0  0  0  0
  -24.6235  -15.7052   22.3570 C   0  0  0  0  0  0  0  0  0  0  0  0
  -29.9843  -34.4075   21.9377 C   0  0  0  0  0  0  0  0  0  0  0  0
  -25.8683  -29.5661   19.9901 C   0  0  0  0  0  0  0  0  0  0  0  0
  -29.5626  -33.0643   21.9590 C   0  0  0  0  0  0  0  0  0  0  0  0
  -25.4053  -28.5759   20.8682 C   0  0  0  0  0  0  0  0  0  0  0  0
  -24.5520  -10.9309   20.2890 C   0  0  0  0  0  0  0  0  0  0  0  0
  -26.5441  -26.8856   19.5431 C   0  0  0  0  0  0  0  0  0  0  0  0
  -23.3412   -8.9459   20.6295 C   0  0  0  0  0  0  0  0  0  0  0  0
  -21.2819   -7.5906   21.9351 C   0  0  0  0  0  0  0  0  0  0  0  0
  -23.3514   -8.8343   22.0198 C   0  0  0  0  0  0  0  0  0  0  0  0
  -25.1434  -15.0083   21.2499 C   0  0  0  0  0  0  0  0  0  0  0  0
  -25.1026  -16.9844   22.2134 C   0  0  0  0  0  0  0  0  0  0  0  0
  -23.7827  -15.2381   23.4203 C   0  0  0  0  0  0  0  0  0  0  0  0
  -26.3158  -31.4012   22.5466 C   0  0  0  0  0  0  0  0  0  0  0  0
  -23.1750  -30.7756   23.0626 C   0  0  0  0  0  0  0  0  0  0  0  0
  -20.9855  -27.9178   22.8248 C   0  0  0  0  0  0  0  0  0  0  0  0
  -29.9306  -18.9668   19.2111 C   0  0  0  0  0  0  0  0  0  0  0  0
  -29.4337  -35.4273   22.9028 C   0  0  0  0  0  0  0  0  0  0  0  0
  -25.4887  -31.0066   20.1980 C   0  0  0  0  0  0  0  0  0  0  0  0
  -24.5471  -28.9110   22.0598 C   0  0  0  0  0  0  0  0  0  0  0  0
  -28.1246  -34.9987   23.5606 C   0  0  0  0  0  0  0  0  0  0  0  0
  -26.2548  -19.0201   18.0867 C   0  0  0  0  0  0  0  0  0  0  0  0
  -28.2230  -33.5600   24.0580 C   0  0  0  0  0  0  0  0  0  0  0  0
  -29.9921  -23.7960   20.4296 C   0  0  0  0  0  0  0  0  0  0  0  0
  -30.0849  -24.1919   17.9335 C   0  0  0  0  0  0  0  0  0  0  0  0
  -25.7193  -18.9842   19.5150 C   0  0  0  0  0  0  0  0  0  0  0  0
  -28.5436  -24.2748   20.4480 C   0  0  0  0  0  0  0  0  0  0  0  0
  -28.6363  -24.6702   17.9589 C   0  0  0  0  0  0  0  0  0  0  0  0
  -32.7092  -19.5257   17.4563 C   0  0  0  0  0  0  0  0  0  0  0  0
  -27.7190  -19.4478   18.0632 C   0  0  0  0  0  0  0  0  0  0  0  0
  -27.9028  -17.6579   19.7909 C   0  0  0  0  0  0  0  0  0  0  0  0
  -34.0054  -20.3136   17.3956 C   0  0  0  0  0  0  0  0  0  0  0  0
  -28.4730  -32.5906   22.8964 C   0  0  1  0  0  0  0  0  0  0  0  0
  -25.1176  -31.3241   21.6432 C   0  0  1  0  0  0  0  0  0  0  0  0
  -30.3726  -23.1985   19.0678 C   0  0  0  0  0  0  0  0  0  0  0  0
  -26.6053  -18.1441   20.4605 C   0  0  2  0  0  0  0  0  0  0  0  0
  -31.8607  -20.3229   18.4320 C   0  0  1  0  0  0  0  0  0  0  0  0
  -28.2606  -25.2597   19.3168 C   0  0  0  0  0  0  0  0  0  1  0  0
  -32.1137  -21.7622   17.9936 C   0  0  1  0  0  0  0  0  0  0  0  0
  -18.5127  -27.7864   22.4178 C   0  0  0  0  0  0  0  0  0  0  0  0
  -35.8177  -23.9991   15.3849 C   0  0  0  0  0  0  0  0  0  0  0  0
  -35.8906  -23.6423   17.8700 C   0  0  0  0  0  0  0  0  0  0  0  0
  -22.9702  -30.7124   26.1063 C   0  0  0  0  0  0  0  0  0  0  0  0
  -21.1068  -29.0561   25.8770 C   0  0  0  0  0  0  0  0  0  0  0  0
  -20.8568  -31.3510   24.9316 C   0  0  0  0  0  0  0  0  0  0  0  0
  -21.3461  -26.1198   20.5019 C   0  0  0  0  0  0  0  0  0  0  0  0
  -31.8405  -22.7762   19.0554 C   0  0  0  0  0  0  0  0  0  0  0  0
  -33.9578  -22.6815   16.5197 C   0  0  0  0  0  0  0  0  0  0  0  0
  -22.4048  -29.7051   23.7973 C   0  0  1  0  0  0  0  0  0  0  0  0
  -19.8958  -27.6913   21.7925 C   0  0  2  0  0  0  0  0  0  0  0  0
  -35.4441  -23.0561   16.5297 C   0  0  0  0  0  0  0  0  0  0  0  0
  -21.8602  -30.2009   25.1666 C   0  0  0  0  0  0  0  0  0  0  0  0
  -25.8950  -15.7807   20.4610 N   0  0  0  0  0  0  0  0  0  0  0  0
  -25.8509  -16.9763   21.0731 N   0  0  0  0  0  0  0  0  0  0  0  0
  -24.2081  -30.3342   22.2238 N   0  0  0  0  0  0  0  0  0  0  0  0
  -28.5540  -18.7281   19.0333 N   0  0  0  0  0  0  0  0  0  0  0  0
  -24.9525  -18.1041   22.9524 N   0  0  0  0  0  0  0  0  0  0  0  0
  -24.3889  -14.7206   24.5732 N   0  0  0  0  0  0  0  0  0  0  0  0
  -27.2468  -32.3491   22.1668 N   0  0  0  0  0  0  0  0  0  0  0  0
  -21.3729  -29.2401   22.8768 N   0  0  0  0  0  0  0  0  0  0  0  0
  -30.4646  -19.9524   18.3848 N   0  0  0  0  0  0  0  0  0  0  0  0
  -33.5996  -21.7577   17.6437 N   0  3  2  0  0  0  0  0  0  0  0  0
  -20.0403  -26.3430   21.1742 N   0  3  0  0  0  0  0  0  0  0  0  0
  -22.5309  -15.2633   23.3434 O   0  0  0  0  0  0  0  0  0  0  0  0
  -26.3895  -30.6568   23.5173 O   0  0  0  0  0  0  0  0  0  0  0  0
  -22.8665  -31.9593   23.2215 O   0  0  0  0  0  0  0  0  0  0  0  0
  -21.4443  -27.0130   23.5186 O   0  0  0  0  0  0  0  0  0  0  0  0
  -30.6215  -18.3543   20.0308 O   0  0  0  0  0  0  0  0  0  0  0  0
  -24.3623   -9.6191   19.9799 O   0  0  0  0  0  0  0  0  0  0  0  0
  -26.8743  -25.5825   19.3315 O   0  0  0  0  0  0  0  0  0  1  0  0
  -20.2922   -6.9411   22.5620 F   0  0  0  0  0  0  0  0  0  0  0  0
  -24.3471   -9.3771   22.7338 F   0  0  0  0  0  0  0  0  0  0  0  0
  1  2  1  0  0  0  0
  1  5  2  0  0  0  0
  2  6  2  0  0  0  0
  3  8  2  0  0  0  0
  3 15  1  0  0  0  0
  4  9  1  0  0  0  0
  4 15  2  0  0  0  0
  5 17  1  0  0  0  0
  6 19  1  0  0  0  0
  7 10  2  0  0  0  0
  7 18  1  0  0  0  0
  8 21  1  0  0  0  0
  9 21  2  0  0  0  0
 10 22  1  0  0  0  0
 11 12  2  0  0  0  0
 11 23  1  0  0  0  0
 12 24  1  0  0  0  0
 13 20  1  0  0  0  0
 13 22  2  0  0  0  0
 14 24  2  0  0  0  0
 14 25  1  0  0  0  0
 15 26  1  0  0  0  0
 16 26  1  0  0  0  0
 16 27  2  0  0  0  0
 16 28  1  0  0  0  0
 17 19  2  0  0  0  0
 17 33  1  0  0  0  0
 18 20  2  0  0  0  0
 18 34  1  0  0  0  0
 19 48  1  0  0  0  0
 20 35  1  0  0  0  0
 21 84  1  0  0  0  0
 22 85  1  0  0  0  0
 23 25  2  0  0  0  0
 23 84  1  0  0  0  0
 24 86  1  0  0  0  0
 25 87  1  0  0  0  0
 26 68  2  0  0  0  0
 27 69  1  0  0  0  0
 27 72  1  0  0  0  0
 28 73  1  0  0  0  0
 28 79  2  0  0  0  0
 29 49  1  0  0  0  0
 29 74  1  0  0  0  0
 29 80  2  0  0  0  0
 30 64  1  0  0  0  0
 30 70  1  0  0  0  0
 30 81  2  0  0  0  0
 31 65  1  0  0  0  0
 31 75  1  0  0  0  0
 31 82  2  0  0  0  0
 32 71  1  0  0  0  0
 32 76  1  0  0  0  0
 32 83  2  0  0  0  0
 33 36  1  0  0  0  0
 34 49  1  0  0  0  0
 35 70  1  0  0  0  0
 36 38  1  0  0  0  0
 37 41  1  0  0  0  0
 37 45  1  0  0  0  0
 38 48  1  0  0  0  0
 39 42  1  0  0  0  0
 39 50  1  0  0  0  0
 40 43  1  0  0  0  0
 40 50  1  0  0  0  0
 41 51  1  0  0  0  0
 42 53  1  0  0  0  0
 43 53  1  0  0  0  0
 44 47  1  0  0  0  0
 44 52  1  0  0  0  0
 45 71  1  0  0  0  0
 46 51  1  0  0  0  0
 46 71  1  0  0  0  0
 47 77  1  0  0  0  0
 48 74  1  0  0  0  0
 49 70  1  0  0  0  0
 50 62  1  0  0  0  0
 51 69  1  0  0  0  0
 52 54  1  0  0  0  0
 52 76  1  0  0  0  0
 53 85  1  0  0  0  0
 54 62  1  0  0  0  0
 54 77  1  0  0  0  0
 55 65  1  0  0  0  0
 56 66  1  0  0  0  0
 57 66  1  0  0  0  0
 58 67  1  0  0  0  0
 59 67  1  0  0  0  0
 60 67  1  0  0  0  0
 61 78  1  0  0  0  0
 63 66  1  0  0  0  0
 63 77  1  0  0  0  0
 64 67  1  0  0  0  0
 64 75  1  0  0  0  0
 65 78  1  0  0  0  0
 68 69  1  0  0  0  0
M  CHG  2  77   1  78   1
M  ISO  4  32 100  53 101  76 100  85 101
M  END
> <Batch ID>
0124

> <Smiles>
CNC(C)C(=O)NC(C(=O)N1Cc2cc([101O:1][101CH:1]3CCC(CC4C([100NH:0][100C:0](=O)N5CCCC(n6nc(-c7ccc(Oc8ccc(F)cc8F)cc7)c(C(N)=O)c6N)C5)CCN4CC(C)C)CC3)ccc2CC1C(=O)NC1CCCc2ccccc21)C(C)(C)C

> <Shape>
0.264

> <Color>
0.093

> <Negative vol penalty>
0.000

$$$$

  -OEChem-04052320333D

 85 94  0     1  0  0  0  0  0999 V2000
  -17.2338  -30.8839   23.5362 C   0  0  0  0  0  0  0  0  0  0  0  0
  -18.5583  -31.2179   23.2724 C   0  0  0  0  0  0  0  0  0  0  0  0
  -22.9101  -13.1513   20.3809 C   0  0  0  0  0  0  0  0  0  0  0  0
  -22.6477  -15.1682   21.6849 C   0  0  0  0  0  0  0  0  0  0  0  0
  -16.8564  -29.5440   23.6149 C   0  0  0  0  0  0  0  0  0  0  0  0
  -19.5065  -30.2122   23.0884 C   0  0  0  0  0  0  0  0  0  0  0  0
  -25.4901  -28.7846   19.4177 C   0  0  0  0  0  0  0  0  0  0  0  0
  -31.4333  -22.6233   20.5448 C   0  0  0  0  0  0  0  0  0  0  0  0
  -22.0034  -12.4951   21.2133 C   0  0  0  0  0  0  0  0  0  0  0  0
  -21.7410  -14.5120   22.5173 C   0  0  0  0  0  0  0  0  0  0  0  0
  -26.7983  -28.3465   19.6187 C   0  0  0  0  0  0  0  0  0  0  0  0
  -22.0218  -11.0553   24.2712 C   0  0  0  0  0  0  0  0  0  0  0  0
  -22.3534   -9.7720   24.7055 C   0  0  0  0  0  0  0  0  0  0  0  0
  -31.3250  -21.5682   21.4439 C   0  0  0  0  0  0  0  0  0  0  0  0
  -26.0158  -26.0660   19.6988 C   0  0  0  0  0  0  0  0  0  0  0  0
  -20.3644   -8.8998   23.6472 C   0  0  0  0  0  0  0  0  0  0  0  0
  -23.2323  -14.4879   20.6167 C   0  0  0  0  0  0  0  0  0  0  0  0
  -23.8783  -15.8872   18.5839 C   0  0  0  0  0  0  0  0  0  0  0  0
  -17.7985  -28.5213   23.4222 C   0  0  0  0  0  0  0  0  0  0  0  0
  -24.4318  -27.8661   19.3666 C   0  0  0  0  0  0  0  0  0  0  0  0
  -19.1416  -28.8574   23.1660 C   0  0  0  0  0  0  0  0  0  0  0  0
  -24.6954  -26.4949   19.4945 C   0  0  0  0  0  0  0  0  0  0  0  0
  -30.5038  -22.7534   19.5190 C   0  0  0  0  0  0  0  0  0  0  0  0
  -21.4188  -13.1755   22.2815 C   0  0  0  0  0  0  0  0  0  0  0  0
  -27.0610  -26.9873   19.7622 C   0  0  0  0  0  0  0  0  0  0  0  0
  -20.8614  -11.2610   23.5250 C   0  0  0  0  0  0  0  0  0  0  0  0
  -21.5248   -8.6942   24.3935 C   0  0  0  0  0  0  0  0  0  0  0  0
  -20.0327  -10.1832   23.2129 C   0  0  0  0  0  0  0  0  0  0  0  0
  -24.1692  -15.1661   19.7575 C   0  0  0  0  0  0  0  0  0  0  0  0
  -30.2773  -20.6773   21.2752 C   0  0  0  0  0  0  0  0  0  0  0  0
  -29.4930  -21.8094   19.4363 C   0  0  0  0  0  0  0  0  0  0  0  0
  -25.1005  -16.3325   18.1428 C   0  0  0  0  0  0  0  0  0  0  0  0
  -22.6163  -16.1327   17.9494 C   0  0  0  0  0  0  0  0  0  0  0  0
  -21.8128  -27.3629   21.0962 C   0  0  0  0  0  0  0  0  0  0  0  0
  -21.1747  -25.1814   18.7819 C   0  0  0  0  0  0  0  0  0  0  0  0
  -22.3645  -23.1205   16.3357 C   0  0  0  0  0  0  0  0  0  0  0  0
  -30.2889  -17.4253   20.9243 C   0  0  0  0  0  0  0  0  0  0  0  0
  -17.3527  -27.0875   23.5637 C   0  0  0  0  0  0  0  0  0  0  0  0
  -23.0296  -28.3526   19.1224 C   0  0  0  0  0  0  0  0  0  0  0  0
  -23.5971  -25.4665   19.4270 C   0  0  0  0  0  0  0  0  0  0  0  0
  -18.3442  -26.0813   22.9851 C   0  0  0  0  0  0  0  0  0  0  0  0
  -29.7466  -15.1921   18.2049 C   0  0  0  0  0  0  0  0  0  0  0  0
  -19.7636  -26.4108   23.4364 C   0  0  0  0  0  0  0  0  0  0  0  0
  -26.2469  -20.8947   19.3418 C   0  0  0  0  0  0  0  0  0  0  0  0
  -26.0681  -20.9533   17.8504 C   0  0  0  0  0  0  0  0  0  0  0  0
  -28.2294  -14.9972   18.1886 C   0  0  0  0  0  0  0  0  0  0  0  0
  -30.2846  -15.3139   19.6289 C   0  0  0  0  0  0  0  0  0  0  0  0
  -28.1122  -16.1525   20.4359 C   0  0  0  0  0  0  0  0  0  0  0  0
  -20.1943  -27.7948   22.9360 C   0  0  1  0  0  0  0  0  0  0  0  0
  -21.9646  -27.3709   19.6014 C   0  0  1  0  0  0  0  0  0  0  0  0
  -27.4410  -20.7722   18.4363 C   0  0  0  0  0  0  0  0  0  0  0  0
  -27.5160  -16.0805   19.0197 C   0  0  2  0  0  0  0  0  0  0  0  0
  -21.6063  -21.4319   14.6413 C   0  0  0  0  0  0  0  0  0  0  0  0
  -20.8282  -23.1150   21.0000 C   0  0  0  0  0  0  0  0  0  0  0  0
  -21.0217  -21.3215   19.2639 C   0  0  0  0  0  0  0  0  0  0  0  0
  -19.1440  -22.9603   19.1576 C   0  0  0  0  0  0  0  0  0  0  0  0
  -23.3772  -24.7530   14.0844 C   0  0  0  0  0  0  0  0  0  0  0  0
  -30.6168  -23.8948   18.5401 C   0  0  0  0  0  0  0  0  0  0  0  0
  -28.4647  -21.9007   18.3569 C   0  0  0  0  0  0  0  0  0  0  0  0
  -30.1298  -19.5342   22.2231 C   0  0  0  0  0  0  0  0  0  0  0  0
  -30.1499  -25.2384   19.1042 C   0  0  0  0  0  0  0  0  0  0  0  0
  -28.6688  -25.2605   19.4638 C   0  0  0  0  0  0  0  0  0  1  0  0
  -21.4850  -23.7183   18.5770 C   0  0  1  0  0  0  0  0  0  0  0  0
  -21.9189  -22.8972   14.9018 C   0  0  2  0  0  0  0  0  0  0  0  0
  -20.6404  -22.7981   19.5029 C   0  0  0  0  0  0  0  0  0  0  0  0
  -25.4738  -15.1514   20.0436 N   0  0  0  0  0  0  0  0  0  0  0  0
  -29.3552  -20.7711   20.2910 N   0  0  0  0  0  0  0  0  0  0  0  0
  -26.0135  -15.8687   19.0436 N   0  0  0  0  0  0  0  0  0  0  0  0
  -22.2421  -25.9924   19.1930 N   0  0  0  0  0  0  0  0  0  0  0  0
  -29.5671  -16.3592   20.3627 N   0  0  0  0  0  0  0  0  0  0  0  0
  -25.4724  -17.0714   17.0760 N   0  0  0  0  0  0  0  0  0  0  0  0
  -21.4592  -15.6021   18.5359 N   0  0  0  0  0  0  0  0  0  0  0  0
  -20.5571  -27.7359   21.5362 N   0  0  0  0  0  0  0  0  0  0  0  0
  -21.3064  -23.4587   17.1526 N   0  0  0  0  0  0  0  0  0  0  0  0
  -29.5314  -18.3760   21.5975 N   0  0  0  0  0  0  0  0  0  0  0  0
  -22.9870  -23.3254   13.9548 N   0  3  0  0  0  0  0  0  0  0  0  0
  -22.5194  -16.7889   16.8848 O   0  0  0  0  0  0  0  0  0  0  0  0
  -22.7641  -27.0408   21.7984 O   0  0  0  0  0  0  0  0  0  0  0  0
  -20.0293  -25.5910   18.5776 O   0  0  0  0  0  0  0  0  0  0  0  0
  -23.5337  -23.0028   16.6959 O   0  0  0  0  0  0  0  0  0  0  0  0
  -31.5167  -17.5255   20.8281 O   0  0  0  0  0  0  0  0  0  0  0  0
  -20.5339  -12.5355   23.0938 O   0  0  0  0  0  0  0  0  0  0  0  0
  -28.3369  -26.5570   19.9591 O   0  0  0  0  0  0  0  0  0  1  0  0
  -21.8442   -7.4617   24.8093 F   0  0  0  0  0  0  0  0  0  0  0  0
  -18.9173  -10.3743   22.4952 F   0  0  0  0  0  0  0  0  0  0  0  0
  1  2  1  0  0  0  0
  1  5  2  0  0  0  0
  2  6  2  0  0  0  0
  3  9  2  0  0  0  0
  3 17  1  0  0  0  0
  4 10  1  0  0  0  0
  4 17  2  0  0  0  0
  5 19  1  0  0  0  0
  6 21  1  0  0  0  0
  7 11  2  0  0  0  0
  7 20  1  0  0  0  0
  8 14  2  0  0  0  0
  8 23  1  0  0  0  0
  9 24  1  0  0  0  0
 10 24  2  0  0  0  0
 11 25  1  0  0  0  0
 12 13  2  0  0  0  0
 12 26  1  0  0  0  0
 13 27  1  0  0  0  0
 14 30  1  0  0  0  0
 15 22  1  0  0  0  0
 15 25  2  0  0  0  0
 16 27  2  0  0  0  0
 16 28  1  0  0  0  0
 17 29  1  0  0  0  0
 18 29  1  0  0  0  0
 18 32  2  0  0  0  0
 18 33  1  0  0  0  0
 19 21  2  0  0  0  0
 19 38  1  0  0  0  0
 20 22  2  0  0  0  0
 20 39  1  0  0  0  0
 21 49  1  0  0  0  0
 22 40  1  0  0  0  0
 23 31  2  0  0  0  0
 23 58  1  0  0  0  0
 24 82  1  0  0  0  0
 25 83  1  0  0  0  0
 26 28  2  0  0  0  0
 26 82  1  0  0  0  0
 27 84  1  0  0  0  0
 28 85  1  0  0  0  0
 29 66  2  0  0  0  0
 30 60  1  0  0  0  0
 30 67  2  0  0  0  0
 31 59  1  0  0  0  0
 31 67  1  0  0  0  0
 32 68  1  0  0  0  0
 32 71  1  0  0  0  0
 33 72  1  0  0  0  0
 33 77  2  0  0  0  0
 34 50  1  0  0  0  0
 34 73  1  0  0  0  0
 34 78  2  0  0  0  0
 35 63  1  0  0  0  0
 35 69  1  0  0  0  0
 35 79  2  0  0  0  0
 36 64  1  0  0  0  0
 36 74  1  0  0  0  0
 36 80  2  0  0  0  0
 37 70  1  0  0  0  0
 37 75  1  0  0  0  0
 37 81  2  0  0  0  0
 38 41  1  0  0  0  0
 39 50  1  0  0  0  0
 40 69  1  0  0  0  0
 41 43  1  0  0  0  0
 42 46  1  0  0  0  0
 42 47  1  0  0  0  0
 43 49  1  0  0  0  0
 44 45  1  0  0  0  0
 44 51  1  0  0  0  0
 45 51  1  0  0  0  0
 46 52  1  0  0  0  0
 47 70  1  0  0  0  0
 48 52  1  0  0  0  0
 48 70  1  0  0  0  0
 49 73  1  0  0  0  0
 50 69  1  0  0  0  0
 51 59  1  0  0  0  0
 52 68  1  0  0  0  0
 53 64  1  0  0  0  0
 54 65  1  0  0  0  0
 55 65  1  0  0  0  0
 56 65  1  0  0  0  0
 57 76  1  0  0  0  0
 58 61  1  0  0  0  0
 60 75  1  0  0  0  0
 61 62  1  0  0  0  0
 62 83  1  0  0  0  0
 63 65  1  0  0  0  0
 63 74  1  0  0  0  0
 64 76  1  0  0  0  0
 66 68  1  0  0  0  0
M  CHG  1  76   1
M  ISO  4  37 100  62 101  75 100  83 101
M  END
> <Batch ID>
0124

> <Smiles>
CNC(C)C(=O)NC(C(=O)N1Cc2cc([101O:1][101CH2:1]CCc3ccc(C[100NH:0][100C:0](=O)N4CCCC(n5nc(-c6ccc(Oc7ccc(F)cc7F)cc6)c(C(N)=O)c5N)C4)nc3CC3CC3)ccc2CC1C(=O)NC1CCCc2ccccc21)C(C)(C)C

> <Shape>
0.216

> <Color>
0.084

> <Negative vol penalty>
0.000

$$$$

  -OEChem-04052320333D

 88 97  0     1  0  0  0  0  0999 V2000
  -18.6812  -30.3298   26.7549 C   0  0  0  0  0  0  0  0  0  0  0  0
  -20.0241  -29.9664   26.7519 C   0  0  0  0  0  0  0  0  0  0  0  0
  -32.2321  -24.9947   18.3426 C   0  0  0  0  0  0  0  0  0  0  0  0
  -22.3972  -11.8363   21.3949 C   0  0  0  0  0  0  0  0  0  0  0  0
  -22.4148  -12.6594   19.1235 C   0  0  0  0  0  0  0  0  0  0  0  0
  -17.9070  -30.1426   25.6105 C   0  0  0  0  0  0  0  0  0  0  0  0
  -20.5934  -29.4147   25.6048 C   0  0  0  0  0  0  0  0  0  0  0  0
  -26.7854  -29.1655   22.0113 C   0  0  0  0  0  0  0  0  0  0  0  0
  -31.8403  -23.6589   18.2547 C   0  0  0  0  0  0  0  0  0  0  0  0
  -31.4524  -25.9047   19.0565 C   0  0  0  0  0  0  0  0  0  0  0  0
  -21.0040  -11.9022   21.4081 C   0  0  0  0  0  0  0  0  0  0  0  0
  -21.0215  -12.7252   19.1366 C   0  0  0  0  0  0  0  0  0  0  0  0
  -27.6766  -28.2437   21.4638 C   0  0  0  0  0  0  0  0  0  0  0  0
  -18.4253  -10.5859   18.8154 C   0  0  0  0  0  0  0  0  0  0  0  0
  -17.7442  -10.0927   17.7025 C   0  0  0  0  0  0  0  0  0  0  0  0
  -26.2625  -28.0401   19.5201 C   0  0  0  0  0  0  0  0  0  0  0  0
  -29.8889  -24.1431   19.5944 C   0  0  0  0  0  0  0  0  0  0  0  0
  -29.1918  -19.2047   18.1072 C   0  0  0  0  0  0  0  0  0  0  0  0
  -16.7709  -12.2727   17.3320 C   0  0  0  0  0  0  0  0  0  0  0  0
  -28.1807  -17.7886   16.4858 C   0  0  0  0  0  0  0  0  0  0  0  0
  -23.1026  -12.2149   20.2527 C   0  0  0  0  0  0  0  0  0  0  0  0
  -25.3380  -11.0542   19.8484 C   0  0  0  0  0  0  0  0  0  0  0  0
  -18.4695  -29.5972   24.4457 C   0  0  0  0  0  0  0  0  0  0  0  0
  -25.6186  -29.5239   21.3211 C   0  0  0  0  0  0  0  0  0  0  0  0
  -19.8257  -29.2188   24.4442 C   0  0  0  0  0  0  0  0  0  0  0  0
  -25.3594  -28.9686   20.0599 C   0  0  0  0  0  0  0  0  0  0  0  0
  -30.6687  -23.2331   18.8806 C   0  0  0  0  0  0  0  0  0  0  0  0
  -30.2808  -25.4789   19.6824 C   0  0  0  0  0  0  0  0  0  0  0  0
  -28.6790  -17.9577   17.7675 C   0  0  0  0  0  0  0  0  0  0  0  0
  -29.1907  -20.2300   17.1680 C   0  0  0  0  0  0  0  0  0  0  0  0
  -20.3161  -12.3467   20.2789 C   0  0  0  0  0  0  0  0  0  0  0  0
  -27.4138  -27.6787   20.2193 C   0  0  0  0  0  0  0  0  0  0  0  0
  -18.2791  -11.9225   19.1866 C   0  0  0  0  0  0  0  0  0  0  0  0
  -16.9170  -10.9361   16.9608 C   0  0  0  0  0  0  0  0  0  0  0  0
  -17.4520  -12.7659   18.4449 C   0  0  0  0  0  0  0  0  0  0  0  0
  -24.5418  -12.1476   20.2387 C   0  0  0  0  0  0  0  0  0  0  0  0
  -28.6697  -19.9591   15.9130 C   0  0  0  0  0  0  0  0  0  0  0  0
  -26.6289  -11.4921   20.0162 C   0  0  0  0  0  0  0  0  0  0  0  0
  -24.9457   -9.7584   19.3764 C   0  0  0  0  0  0  0  0  0  0  0  0
  -22.5032  -29.2696   21.8983 C   0  0  0  0  0  0  0  0  0  0  0  0
  -22.2524  -31.0168   19.1768 C   0  0  0  0  0  0  0  0  0  0  0  0
  -23.6504  -31.9901   16.2196 C   0  0  0  0  0  0  0  0  0  0  0  0
  -29.1310  -16.9184   20.0174 C   0  0  0  0  0  0  0  0  0  0  0  0
  -17.5812  -29.3700   23.2482 C   0  0  0  0  0  0  0  0  0  0  0  0
  -24.6808  -30.5399   21.9134 C   0  0  0  0  0  0  0  0  0  0  0  0
  -24.1310  -29.3353   19.2692 C   0  0  0  0  0  0  0  0  0  0  0  0
  -18.3537  -29.1261   21.9544 C   0  0  0  0  0  0  0  0  0  0  0  0
  -29.2435  -14.5211   22.6475 C   0  0  0  0  0  0  0  0  0  0  0  0
  -19.4745  -28.1172   22.1839 C   0  0  0  0  0  0  0  0  0  0  0  0
  -28.1270  -13.5375   22.2895 C   0  0  0  0  0  0  0  0  0  0  0  0
  -28.8673  -15.9590   22.2945 C   0  0  0  0  0  0  0  0  0  0  0  0
  -27.3119  -15.1798   20.5501 C   0  0  0  0  0  0  0  0  0  0  0  0
  -20.4856  -28.6401   23.2114 C   0  0  1  0  0  0  0  0  0  0  0  0
  -23.2650  -30.4443   21.3531 C   0  0  1  0  0  0  0  0  0  0  0  0
  -27.6706  -13.7108   20.8276 C   0  0  2  0  0  0  0  0  0  0  0  0
  -27.5214  -22.0297   15.0881 C   0  0  0  0  0  0  0  0  0  0  0  0
  -23.1904  -33.3934   14.1907 C   0  0  0  0  0  0  0  0  0  0  0  0
  -20.3750  -28.8594   18.1133 C   0  0  0  0  0  0  0  0  0  0  0  0
  -20.7096  -29.7985   15.8167 C   0  0  0  0  0  0  0  0  0  0  0  0
  -19.6700  -31.2027   17.5972 C   0  0  0  0  0  0  0  0  0  0  0  0
  -25.9727  -33.7427   16.7623 C   0  0  0  0  0  0  0  0  0  0  0  0
  -30.2512  -21.8043   18.7873 C   0  0  0  0  0  0  0  0  0  0  0  0
  -29.4418  -26.4580   20.4497 C   0  0  0  0  0  0  0  0  0  1  0  0
  -28.6419  -21.0199   14.8608 C   0  0  0  0  0  0  0  0  0  0  0  0
  -22.1444  -30.6950   17.7059 C   0  0  1  0  0  0  0  0  0  0  0  0
  -23.8057  -33.3585   15.5810 C   0  0  2  0  0  0  0  0  0  0  0  0
  -20.7470  -30.1303   17.3238 C   0  0  0  0  0  0  0  0  0  0  0  0
  -28.1628  -18.7606   15.5464 N   0  0  0  0  0  0  0  0  0  0  0  0
  -25.2664  -13.2010   20.6255 N   0  0  0  0  0  0  0  0  0  0  0  0
  -26.5313  -12.7714   20.4791 N   0  0  0  0  0  0  0  0  0  0  0  0
  -23.2414  -30.3284   19.8936 N   0  0  0  0  0  0  0  0  0  0  0  0
  -28.4496  -16.0473   20.8936 N   0  0  0  0  0  0  0  0  0  0  0  0
  -27.8266  -10.9039   19.8116 N   0  0  0  0  0  0  0  0  0  0  0  0
  -23.5779   -9.4743   19.2636 N   0  0  0  0  0  0  0  0  0  0  0  0
  -28.6666  -16.8933   18.7027 N   0  0  0  0  0  0  0  0  0  0  0  0
  -29.7000  -21.4778   17.4966 N   0  0  0  0  0  0  0  0  0  0  0  0
  -21.3660  -29.6147   22.6034 N   0  0  0  0  0  0  0  0  0  0  0  0
  -22.5115  -31.9139   16.9933 N   0  0  0  0  0  0  0  0  0  0  0  0
  -25.2480  -33.7157   15.4657 N   0  3  0  0  0  0  0  0  0  0  0  0
  -25.7831   -8.8730   19.0794 O   0  0  0  0  0  0  0  0  0  0  0  0
  -22.9157  -28.1340   21.6932 O   0  0  0  0  0  0  0  0  0  0  0  0
  -21.4921  -31.8536   19.6702 O   0  0  0  0  0  0  0  0  0  0  0  0
  -24.4565  -31.0788   16.0463 O   0  0  0  0  0  0  0  0  0  0  0  0
  -30.0760  -17.6139   20.3987 O   0  0  0  0  0  0  0  0  0  0  0  0
  -18.9566  -12.4109   20.2913 O   0  0  0  0  0  0  0  0  0  0  0  0
  -28.2817  -26.7782   19.6829 O   0  0  0  0  0  0  0  0  0  1  0  0
  -16.2643  -10.4627   15.8913 F   0  0  0  0  0  0  0  0  0  0  0  0
  -17.3086  -14.0512   18.7960 F   0  0  0  0  0  0  0  0  0  0  0  0
  1  2  1  0  0  0  0
  1  6  2  0  0  0  0
  2  7  2  0  0  0  0
  3  9  2  0  0  0  0
  3 10  1  0  0  0  0
  4 11  2  0  0  0  0
  4 21  1  0  0  0  0
  5 12  1  0  0  0  0
  5 21  2  0  0  0  0
  6 23  1  0  0  0  0
  7 25  1  0  0  0  0
  8 13  2  0  0  0  0
  8 24  1  0  0  0  0
  9 27  1  0  0  0  0
 10 28  2  0  0  0  0
 11 31  1  0  0  0  0
 12 31  2  0  0  0  0
 13 32  1  0  0  0  0
 14 15  2  0  0  0  0
 14 33  1  0  0  0  0
 15 34  1  0  0  0  0
 16 26  1  0  0  0  0
 16 32  2  0  0  0  0
 17 27  2  0  0  0  0
 17 28  1  0  0  0  0
 18 29  2  0  0  0  0
 18 30  1  0  0  0  0
 19 34  2  0  0  0  0
 19 35  1  0  0  0  0
 20 29  1  0  0  0  0
 20 68  2  0  0  0  0
 21 36  1  0  0  0  0
 22 36  1  0  0  0  0
 22 38  2  0  0  0  0
 22 39  1  0  0  0  0
 23 25  2  0  0  0  0
 23 44  1  0  0  0  0
 24 26  2  0  0  0  0
 24 45  1  0  0  0  0
 25 53  1  0  0  0  0
 26 46  1  0  0  0  0
 27 62  1  0  0  0  0
 28 63  1  0  0  0  0
 29 75  1  0  0  0  0
 30 37  2  0  0  0  0
 30 76  1  0  0  0  0
 31 85  1  0  0  0  0
 32 86  1  0  0  0  0
 33 35  2  0  0  0  0
 33 85  1  0  0  0  0
 34 87  1  0  0  0  0
 35 88  1  0  0  0  0
 36 69  2  0  0  0  0
 37 64  1  0  0  0  0
 37 68  1  0  0  0  0
 38 70  1  0  0  0  0
 38 73  1  0  0  0  0
 39 74  1  0  0  0  0
 39 80  2  0  0  0  0
 40 54  1  0  0  0  0
 40 77  1  0  0  0  0
 40 81  2  0  0  0  0
 41 65  1  0  0  0  0
 41 71  1  0  0  0  0
 41 82  2  0  0  0  0
 42 66  1  0  0  0  0
 42 78  1  0  0  0  0
 42 83  2  0  0  0  0
 43 72  1  0  0  0  0
 43 75  1  0  0  0  0
 43 84  2  0  0  0  0
 44 47  1  0  0  0  0
 45 54  1  0  0  0  0
 46 71  1  0  0  0  0
 47 49  1  0  0  0  0
 48 50  1  0  0  0  0
 48 51  1  0  0  0  0
 49 53  1  0  0  0  0
 50 55  1  0  0  0  0
 51 72  1  0  0  0  0
 52 55  1  0  0  0  0
 52 72  1  0  0  0  0
 53 77  1  0  0  0  0
 54 71  1  0  0  0  0
 55 70  1  0  0  0  0
 56 64  1  0  0  0  0
 57 66  1  0  0  0  0
 58 67  1  0  0  0  0
 59 67  1  0  0  0  0
 60 67  1  0  0  0  0
 61 79  1  0  0  0  0
 62 76  1  0  0  0  0
 63 86  1  0  0  0  0
 65 67  1  0  0  0  0
 65 78  1  0  0  0  0
 66 79  1  0  0  0  0
 69 70  1  0  0  0  0
M  CHG  1  79   1
M  ISO  4  43 100  63 101  75 100  86 101
M  END
> <Batch ID>
0124

> <Smiles>
CCc1ncc([100NH:0][100C:0](=O)N2CCCC(n3nc(-c4ccc(Oc5ccc(F)cc5F)cc4)c(C(N)=O)c3N)C2)cc1NCc1cccc([101CH2:1][101O:1]c2ccc3c(c2)CN(C(=O)C(NC(=O)C(C)NC)C(C)(C)C)C(C(=O)NC2CCCc4ccccc42)C3)c1

> <Shape>
0.236

> <Color>
0.088

> <Negative vol penalty>
0.000

$$$$

  -OEChem-04052320333D

 84 93  0     1  0  0  0  0  0999 V2000
  -38.0757  -29.3262   27.3512 C   0  0  0  0  0  0  0  0  0  0  0  0
  -37.6027  -28.4187   26.4088 C   0  0  0  0  0  0  0  0  0  0  0  0
  -23.0727   -9.8694   19.9430 C   0  0  0  0  0  0  0  0  0  0  0  0
  -23.8346   -9.8781   22.2357 C   0  0  0  0  0  0  0  0  0  0  0  0
  -38.5876  -28.8669   28.5640 C   0  0  0  0  0  0  0  0  0  0  0  0
  -37.6423  -27.0512   26.6782 C   0  0  0  0  0  0  0  0  0  0  0  0
  -33.3378  -24.6981   25.4218 C   0  0  0  0  0  0  0  0  0  0  0  0
  -32.3650  -19.6889   20.5982 C   0  0  0  0  0  0  0  0  0  0  0  0
  -22.3295   -8.7161   20.1944 C   0  0  0  0  0  0  0  0  0  0  0  0
  -23.0913   -8.7249   22.4871 C   0  0  0  0  0  0  0  0  0  0  0  0
  -33.1357  -24.4187   24.0709 C   0  0  0  0  0  0  0  0  0  0  0  0
  -33.0272  -20.8728   20.9230 C   0  0  0  0  0  0  0  0  0  0  0  0
  -19.3828   -7.9195   21.6488 C   0  0  0  0  0  0  0  0  0  0  0  0
  -18.0755   -7.8725   21.1648 C   0  0  0  0  0  0  0  0  0  0  0  0
  -33.8387  -22.1413   24.4429 C   0  0  0  0  0  0  0  0  0  0  0  0
  -31.3818  -21.3237   22.6337 C   0  0  0  0  0  0  0  0  0  0  0  0
  -18.6347   -5.9287   19.8433 C   0  0  0  0  0  0  0  0  0  0  0  0
  -23.8254  -10.4504   20.9637 C   0  0  0  0  0  0  0  0  0  0  0  0
  -24.1662  -12.9755   20.8417 C   0  0  0  0  0  0  0  0  0  0  0  0
  -38.6246  -27.4935   28.8524 C   0  0  0  0  0  0  0  0  0  0  0  0
  -33.8030  -23.7023   26.2927 C   0  0  0  0  0  0  0  0  0  0  0  0
  -38.1564  -26.5729   27.8955 C   0  0  0  0  0  0  0  0  0  0  0  0
  -34.0434  -22.4099   25.8049 C   0  0  0  0  0  0  0  0  0  0  0  0
  -30.7197  -20.1398   22.3089 C   0  0  0  0  0  0  0  0  0  0  0  0
  -31.2113  -19.3224   21.2911 C   0  0  0  0  0  0  0  0  0  0  0  0
  -22.3387   -8.1439   21.4664 C   0  0  0  0  0  0  0  0  0  0  0  0
  -33.3889  -23.1409   23.5807 C   0  0  0  0  0  0  0  0  0  0  0  0
  -32.5355  -21.6902   21.9407 C   0  0  0  0  0  0  0  0  0  1  0  0
  -20.3161   -6.9712   21.2301 C   0  0  0  0  0  0  0  0  0  0  0  0
  -17.7014   -6.8771   20.2620 C   0  0  0  0  0  0  0  0  0  0  0  0
  -19.9420   -5.9758   20.3273 C   0  0  0  0  0  0  0  0  0  0  0  0
  -24.5938  -11.6413   20.7045 C   0  0  0  0  0  0  0  0  0  0  0  0
  -25.2578  -13.7252   20.4770 C   0  0  0  0  0  0  0  0  0  0  0  0
  -22.8959  -13.4912   21.2614 C   0  0  0  0  0  0  0  0  0  0  0  0
  -36.3932  -23.3321   28.0975 C   0  0  0  0  0  0  0  0  0  0  0  0
  -34.8175  -20.6928   29.1337 C   0  0  0  0  0  0  0  0  0  0  0  0
  -32.4637  -18.2980   28.5243 C   0  0  0  0  0  0  0  0  0  0  0  0
  -30.7413  -14.7462   20.6598 C   0  0  0  0  0  0  0  0  0  0  0  0
  -39.2305  -27.0419   30.1576 C   0  0  0  0  0  0  0  0  0  0  0  0
  -33.9903  -24.0126   27.7525 C   0  0  0  0  0  0  0  0  0  0  0  0
  -34.5245  -21.3002   26.7025 C   0  0  0  0  0  0  0  0  0  0  0  0
  -38.8917  -25.5981   30.5192 C   0  0  0  0  0  0  0  0  0  0  0  0
  -29.6024  -12.3598   18.2756 C   0  0  0  0  0  0  0  0  0  0  0  0
  -39.0900  -24.6851   29.3134 C   0  0  0  0  0  0  0  0  0  0  0  0
  -28.1655  -12.0658   18.7100 C   0  0  0  0  0  0  0  0  0  0  0  0
  -28.3172  -20.7689   23.0637 C   0  0  0  0  0  0  0  0  0  0  0  0
  -30.5206  -12.5817   19.4755 C   0  0  0  0  0  0  0  0  0  0  0  0
  -28.6198  -13.3130   20.8634 C   0  0  0  0  0  0  0  0  0  0  0  0
  -27.4006  -20.2641   24.1592 C   0  0  0  0  0  0  0  0  0  0  0  0
  -29.7011  -19.5794   24.5772 C   0  0  0  0  0  0  0  0  0  0  0  0
  -29.4706  -19.7625   23.0756 C   0  0  2  0  0  0  0  0  0  0  0  0
  -38.1597  -25.0831   28.1611 C   0  0  1  0  0  0  0  0  0  0  0  0
  -34.9576  -23.0588   28.4468 C   0  0  1  0  0  0  0  0  0  0  0  0
  -27.6446  -13.1373   19.6867 C   0  0  2  0  0  0  0  0  0  0  0  0
  -31.4258  -16.2520   29.5413 C   0  0  0  0  0  0  0  0  0  0  0  0
  -37.3107  -19.0810   28.4295 C   0  0  0  0  0  0  0  0  0  0  0  0
  -35.9188  -17.0038   28.5564 C   0  0  0  0  0  0  0  0  0  0  0  0
  -36.2196  -18.4272   30.5827 C   0  0  0  0  0  0  0  0  0  0  0  0
  -29.7752  -19.5349   28.5543 C   0  0  0  0  0  0  0  0  0  0  0  0
  -30.5199  -18.0499   20.9266 C   0  0  0  0  0  0  0  0  0  0  0  0
  -30.8075  -16.8976   21.8953 C   0  0  0  0  0  0  0  0  0  0  0  0
  -34.7483  -19.2490   28.6980 C   0  0  1  0  0  0  0  0  0  0  0  0
  -31.3288  -17.7608   29.3775 C   0  0  2  0  0  0  0  0  0  0  0  0
  -36.0421  -18.4615   29.0491 C   0  0  0  0  0  0  0  0  0  0  0  0
  -25.8583  -11.5457   20.2852 N   0  0  0  0  0  0  0  0  0  0  0  0
  -26.2347  -12.8293   20.1557 N   0  0  0  0  0  0  0  0  0  0  0  0
  -34.6986  -21.6549   28.1208 N   0  0  0  0  0  0  0  0  0  0  0  0
  -29.9704  -13.6106   20.3613 N   0  0  0  0  0  0  0  0  0  0  0  0
  -25.4677  -15.0567   20.4029 N   0  0  0  0  0  0  0  0  0  0  0  0
  -21.8846  -12.5819   21.6002 N   0  0  0  0  0  0  0  0  0  0  0  0
  -36.8150  -24.6101   28.4109 N   0  0  0  0  0  0  0  0  0  0  0  0
  -33.5348  -18.7006   29.2937 N   0  0  0  0  0  0  0  0  0  0  0  0
  -30.1426  -15.6754   21.5018 N   0  0  0  0  0  0  0  0  0  0  0  0
  -28.3366  -19.7129   25.1901 N   0  3  0  0  0  0  0  0  0  0  0  0
  -30.0144  -18.0822   28.7531 N   0  3  0  0  0  0  0  0  0  0  0  0
  -22.6593  -14.7218   21.3182 O   0  0  0  0  0  0  0  0  0  0  0  0
  -37.0686  -22.4483   27.5833 O   0  0  0  0  0  0  0  0  0  0  0  0
  -34.9641  -20.9572   30.3296 O   0  0  0  0  0  0  0  0  0  0  0  0
  -32.4072  -18.3514   27.2977 O   0  0  0  0  0  0  0  0  0  0  0  0
  -31.8768  -14.9218   20.2051 O   0  0  0  0  0  0  0  0  0  0  0  0
  -21.6134   -7.0187   21.7122 O   0  0  0  0  0  0  0  0  0  0  0  0
  -33.1932  -22.8657   22.2624 O   0  0  0  0  0  0  0  0  0  1  0  0
  -16.4455   -6.8312   19.7985 F   0  0  0  0  0  0  0  0  0  0  0  0
  -20.8339   -5.0613   19.9223 F   0  0  0  0  0  0  0  0  0  0  0  0
  1  2  1  0  0  0  0
  1  5  2  0  0  0  0
  2  6  2  0  0  0  0
  3  9  2  0  0  0  0
  3 18  1  0  0  0  0
  4 10  1  0  0  0  0
  4 18  2  0  0  0  0
  5 20  1  0  0  0  0
  6 22  1  0  0  0  0
  7 11  2  0  0  0  0
  7 21  1  0  0  0  0
  8 12  2  0  0  0  0
  8 25  1  0  0  0  0
  9 26  1  0  0  0  0
 10 26  2  0  0  0  0
 11 27  1  0  0  0  0
 12 28  1  0  0  0  0
 13 14  2  0  0  0  0
 13 29  1  0  0  0  0
 14 30  1  0  0  0  0
 15 23  1  0  0  0  0
 15 27  2  0  0  0  0
 16 24  1  0  0  0  0
 16 28  2  0  0  0  0
 17 30  2  0  0  0  0
 17 31  1  0  0  0  0
 18 32  1  0  0  0  0
 19 32  1  0  0  0  0
 19 33  2  0  0  0  0
 19 34  1  0  0  0  0
 20 22  2  0  0  0  0
 20 39  1  0  0  0  0
 21 23  2  0  0  0  0
 21 40  1  0  0  0  0
 22 52  1  0  0  0  0
 23 41  1  0  0  0  0
 24 25  2  0  0  0  0
 24 51  1  0  0  0  0
 25 60  1  0  0  0  0
 26 81  1  0  0  0  0
 27 82  1  0  0  0  0
 28 82  1  0  0  0  0
 29 31  2  0  0  0  0
 29 81  1  0  0  0  0
 30 83  1  0  0  0  0
 31 84  1  0  0  0  0
 32 65  2  0  0  0  0
 33 66  1  0  0  0  0
 33 69  1  0  0  0  0
 34 70  1  0  0  0  0
 34 76  2  0  0  0  0
 35 53  1  0  0  0  0
 35 71  1  0  0  0  0
 35 77  2  0  0  0  0
 36 62  1  0  0  0  0
 36 67  1  0  0  0  0
 36 78  2  0  0  0  0
 37 63  1  0  0  0  0
 37 72  1  0  0  0  0
 37 79  2  0  0  0  0
 38 68  1  0  0  0  0
 38 73  1  0  0  0  0
 38 80  2  0  0  0  0
 39 42  1  0  0  0  0
 40 53  1  0  0  0  0
 41 67  1  0  0  0  0
 42 44  1  0  0  0  0
 43 45  1  0  0  0  0
 43 47  1  0  0  0  0
 44 52  1  0  0  0  0
 45 54  1  0  0  0  0
 46 49  1  0  0  0  0
 46 51  1  0  0  0  0
 47 68  1  0  0  0  0
 48 54  1  0  0  0  0
 48 68  1  0  0  0  0
 49 74  1  0  0  0  0
 50 51  1  0  0  0  0
 50 74  1  0  0  0  0
 52 71  1  0  0  0  0
 53 67  1  0  0  0  0
 54 66  1  0  0  0  0
 55 63  1  0  0  0  0
 56 64  1  0  0  0  0
 57 64  1  0  0  0  0
 58 64  1  0  0  0  0
 59 75  1  0  0  0  0
 60 61  1  0  0  0  0
 61 73  1  0  0  0  0
 62 64  1  0  0  0  0
 62 72  1  0  0  0  0
 63 75  1  0  0  0  0
 65 66  1  0  0  0  0
M  CHG  2  74   1  75   1
M  ISO  4  28 101  38 100  73 100  82 101
M  END
> <Batch ID>
0124

> <Smiles>
CNC(C)C(=O)NC(C(=O)N1Cc2cc([101O:1][101c:1]3ccc(CC[100NH:0][100C:0](=O)N4CCCC(n5nc(-c6ccc(Oc7ccc(F)cc7F)cc6)c(C(N)=O)c5N)C4)c(C4CCNC4)c3)ccc2CC1C(=O)NC1CCCc2ccccc21)C(C)(C)C

> <Shape>
0.150

> <Color>
0.187

> <Negative vol penalty>
0.000

$$$$

  -OEChem-04052320333D

 86 95  0     1  0  0  0  0  0999 V2000
  -26.7148  -37.3337   26.6660 C   0  0  0  0  0  0  0  0  0  0  0  0
  -26.6578  -36.0251   27.1348 C   0  0  0  0  0  0  0  0  0  0  0  0
  -24.2912   -9.5990   21.9724 C   0  0  0  0  0  0  0  0  0  0  0  0
  -22.6964  -10.2828   20.2913 C   0  0  0  0  0  0  0  0  0  0  0  0
  -26.0233  -37.6890   25.5086 C   0  0  0  0  0  0  0  0  0  0  0  0
  -25.9083  -35.0713   26.4471 C   0  0  0  0  0  0  0  0  0  0  0  0
  -30.4474  -22.1540   20.4023 C   0  0  0  0  0  0  0  0  0  0  0  0
  -29.2118  -21.1483   22.2187 C   0  0  0  0  0  0  0  0  0  0  0  0
  -28.9845  -29.0865   23.8760 C   0  0  0  0  0  0  0  0  0  0  0  0
  -29.8052  -23.3695   20.6385 C   0  0  0  0  0  0  0  0  0  0  0  0
  -28.5696  -22.3639   22.4548 C   0  0  0  0  0  0  0  0  0  0  0  0
  -23.7250   -8.3243   21.9910 C   0  0  0  0  0  0  0  0  0  0  0  0
  -22.1303   -9.0081   20.3098 C   0  0  0  0  0  0  0  0  0  0  0  0
  -29.4572  -27.8183   23.5379 C   0  0  0  0  0  0  0  0  0  0  0  0
  -21.0028   -6.8276   23.3227 C   0  0  0  0  0  0  0  0  0  0  0  0
  -20.7635   -6.2436   24.5666 C   0  0  0  0  0  0  0  0  0  0  0  0
  -27.3019  -27.2540   22.5974 C   0  0  0  0  0  0  0  0  0  0  0  0
  -22.2289   -4.4117   23.9883 C   0  0  0  0  0  0  0  0  0  0  0  0
  -23.7768  -10.5783   21.1226 C   0  0  0  0  0  0  0  0  0  0  0  0
  -24.4612  -12.7965   22.1802 C   0  0  0  0  0  0  0  0  0  0  0  0
  -30.1506  -21.0434   21.1924 C   0  0  0  0  0  0  0  0  0  0  0  0
  -25.2728  -36.7368   24.8010 C   0  0  0  0  0  0  0  0  0  0  0  0
  -27.6718  -29.4492   23.5619 C   0  0  0  0  0  0  0  0  0  0  0  0
  -25.2050  -35.4146   25.2800 C   0  0  0  0  0  0  0  0  0  0  0  0
  -26.8267  -28.5273   22.9224 C   0  0  0  0  0  0  0  0  0  0  0  0
  -28.8663  -23.4745   21.6647 C   0  0  0  0  0  0  0  0  0  0  0  0
  -22.6447   -8.0289   21.1596 C   0  0  0  0  0  0  0  0  0  0  0  0
  -28.6178  -26.9043   22.9004 C   0  0  0  0  0  0  0  0  0  0  0  0
  -21.8550   -6.2036   22.4115 C   0  0  0  0  0  0  0  0  0  0  0  0
  -21.3766   -5.0357   24.8994 C   0  0  0  0  0  0  0  0  0  0  0  0
  -22.4681   -4.9958   22.7444 C   0  0  0  0  0  0  0  0  0  0  0  0
  -24.3608  -11.8953   21.1034 C   0  0  0  0  0  0  0  0  0  0  0  0
  -25.0902  -13.8964   21.6500 C   0  0  0  0  0  0  0  0  0  0  0  0
  -24.0249  -12.6523   23.5384 C   0  0  0  0  0  0  0  0  0  0  0  0
  -25.0196  -32.1011   23.6552 C   0  0  0  0  0  0  0  0  0  0  0  0
  -24.8091  -30.7264   20.9210 C   0  0  0  0  0  0  0  0  0  0  0  0
  -25.1823  -29.2411   17.8727 C   0  0  0  0  0  0  0  0  0  0  0  0
  -29.0963  -16.1607   18.4926 C   0  0  0  0  0  0  0  0  0  0  0  0
  -24.5038  -37.1791   23.5813 C   0  0  0  0  0  0  0  0  0  0  0  0
  -27.1014  -30.7826   23.9622 C   0  0  0  0  0  0  0  0  0  0  0  0
  -25.4115  -28.9489   22.6351 C   0  0  0  0  0  0  0  0  0  0  0  0
  -24.0365  -36.0214   22.7030 C   0  0  0  0  0  0  0  0  0  0  0  0
  -26.1216  -15.1025   16.8471 C   0  0  0  0  0  0  0  0  0  0  0  0
  -23.4069  -34.9246   23.5559 C   0  0  0  0  0  0  0  0  0  0  0  0
  -32.3262  -17.8502   21.8313 C   0  0  0  0  0  0  0  0  0  0  0  0
  -25.4102  -14.2435   17.8940 C   0  0  0  0  0  0  0  0  0  0  0  0
  -31.2891  -16.8175   21.3993 C   0  0  0  0  0  0  0  0  0  0  0  0
  -29.8204  -18.6561   20.4948 C   0  0  0  0  0  0  0  0  0  0  0  0
  -27.6377  -14.9314   16.9122 C   0  0  0  0  0  0  0  0  0  0  0  0
  -27.5184  -14.2982   19.2910 C   0  0  0  0  0  0  0  0  0  0  0  0
  -30.8506  -19.7172   20.9355 C   0  0  2  0  0  0  0  0  0  0  0  0
  -24.4229  -34.3457   24.5480 C   0  0  1  0  0  0  0  0  0  0  0  0
  -26.0967  -31.3412   22.9386 C   0  0  1  0  0  0  0  0  0  0  0  0
  -31.6914  -19.2174   22.1412 C   0  0  2  0  0  0  0  0  0  0  0  0
  -25.9908  -14.4794   19.3013 C   0  0  2  0  0  0  0  0  0  0  0  0
  -30.4856  -17.3105   20.1976 C   0  0  2  0  0  0  0  0  0  0  0  0
  -24.2029  -29.2123   15.5625 C   0  0  0  0  0  0  0  0  0  0  0  0
  -22.4455  -29.0943   21.9475 C   0  0  0  0  0  0  0  0  0  0  0  0
  -22.0576  -28.3122   19.6010 C   0  0  0  0  0  0  0  0  0  0  0  0
  -21.8767  -30.7386   20.1511 C   0  0  0  0  0  0  0  0  0  0  0  0
  -27.7312  -30.1247   16.6555 C   0  0  0  0  0  0  0  0  0  0  0  0
  -28.1773  -24.7828   21.9192 C   0  0  0  0  0  0  0  0  0  1  0  0
  -32.7956  -20.2099   22.5248 C   0  0  0  0  0  0  0  0  0  0  0  0
  -24.1565  -29.6471   20.0947 C   0  0  1  0  0  0  0  0  0  0  0  0
  -25.2587  -29.8212   16.4719 C   0  0  2  0  0  0  0  0  0  0  0  0
  -22.6592  -29.4439   20.4612 C   0  0  0  0  0  0  0  0  0  0  0  0
  -24.8840  -12.3807   19.9743 N   0  0  0  0  0  0  0  0  0  0  0  0
  -25.3191  -13.5989   20.3388 N   0  0  0  0  0  0  0  0  0  0  0  0
  -25.3916  -30.3311   22.1314 N   0  0  0  0  0  0  0  0  0  0  0  0
  -28.1247  -15.1704   18.2730 N   0  0  0  0  0  0  0  0  0  0  0  0
  -25.4642  -15.0794   22.1821 N   0  0  0  0  0  0  0  0  0  0  0  0
  -22.7277  -13.0658   23.8709 N   0  0  0  0  0  0  0  0  0  0  0  0
  -25.3212  -33.4315   23.8758 N   0  0  0  0  0  0  0  0  0  0  0  0
  -24.3868  -30.0059   18.6995 N   0  0  0  0  0  0  0  0  0  0  0  0
  -29.4982  -16.3270   19.8123 N   0  0  0  0  0  0  0  0  0  0  0  0
  -26.5995  -29.5605   15.8758 N   0  3  0  0  0  0  0  0  0  0  0  0
  -24.7693  -12.1862   24.4340 O   0  0  0  0  0  0  0  0  0  0  0  0
  -23.9892  -31.5244   23.9832 O   0  0  0  0  0  0  0  0  0  0  0  0
  -24.7992  -31.8900   20.5096 O   0  0  0  0  0  0  0  0  0  0  0  0
  -25.7667  -28.2106   18.1997 O   0  0  0  0  0  0  0  0  0  0  0  0
  -29.5667  -16.8496   17.5809 O   0  0  0  0  0  0  0  0  0  0  0  0
  -33.4557  -19.7166   23.6733 O   0  0  0  0  0  0  0  0  0  0  0  0
  -22.0922   -6.7851   21.1773 O   0  0  0  0  0  0  0  0  0  0  0  0
  -29.0871  -25.6694   22.5691 O   0  0  0  0  0  0  0  0  0  1  0  0
  -21.1480   -4.4758   26.0946 F   0  0  0  0  0  0  0  0  0  0  0  0
  -23.2888   -4.3922   21.8737 F   0  0  0  0  0  0  0  0  0  0  0  0
  1  2  1  0  0  0  0
  1  5  2  0  0  0  0
  2  6  2  0  0  0  0
  3 12  2  0  0  0  0
  3 19  1  0  0  0  0
  4 13  1  0  0  0  0
  4 19  2  0  0  0  0
  5 22  1  0  0  0  0
  6 24  1  0  0  0  0
  7 10  2  0  0  0  0
  7 21  1  0  0  0  0
  8 11  1  0  0  0  0
  8 21  2  0  0  0  0
  9 14  2  0  0  0  0
  9 23  1  0  0  0  0
 10 26  1  0  0  0  0
 11 26  2  0  0  0  0
 12 27  1  0  0  0  0
 13 27  2  0  0  0  0
 14 28  1  0  0  0  0
 15 16  2  0  0  0  0
 15 29  1  0  0  0  0
 16 30  1  0  0  0  0
 17 25  1  0  0  0  0
 17 28  2  0  0  0  0
 18 30  2  0  0  0  0
 18 31  1  0  0  0  0
 19 32  1  0  0  0  0
 20 32  1  0  0  0  0
 20 33  2  0  0  0  0
 20 34  1  0  0  0  0
 21 51  1  0  0  0  0
 22 24  2  0  0  0  0
 22 39  1  0  0  0  0
 23 25  2  0  0  0  0
 23 40  1  0  0  0  0
 24 52  1  0  0  0  0
 25 41  1  0  0  0  0
 26 62  1  0  0  0  0
 27 83  1  0  0  0  0
 28 84  1  0  0  0  0
 29 31  2  0  0  0  0
 29 83  1  0  0  0  0
 30 85  1  0  0  0  0
 31 86  1  0  0  0  0
 32 67  2  0  0  0  0
 33 68  1  0  0  0  0
 33 71  1  0  0  0  0
 34 72  1  0  0  0  0
 34 77  2  0  0  0  0
 35 53  1  0  0  0  0
 35 73  1  0  0  0  0
 35 78  2  0  0  0  0
 36 64  1  0  0  0  0
 36 69  1  0  0  0  0
 36 79  2  0  0  0  0
 37 65  1  0  0  0  0
 37 74  1  0  0  0  0
 37 80  2  0  0  0  0
 38 70  1  0  0  0  0
 38 75  1  0  0  0  0
 38 81  2  0  0  0  0
 39 42  1  0  0  0  0
 40 53  1  0  0  0  0
 41 69  1  0  0  0  0
 42 44  1  0  0  0  0
 43 46  1  0  0  0  0
 43 49  1  0  0  0  0
 44 52  1  0  0  0  0
 45 47  1  0  0  0  0
 45 54  1  0  0  0  0
 46 55  1  0  0  0  0
 47 56  1  0  0  0  0
 48 51  1  0  0  0  0
 48 56  1  0  0  0  0
 49 70  1  0  0  0  0
 50 55  1  0  0  0  0
 50 70  1  0  0  0  0
 51 54  1  0  0  0  0
 52 73  1  0  0  0  0
 53 69  1  0  0  0  0
 54 63  1  0  0  0  0
 55 68  1  0  0  0  0
 56 75  1  0  0  0  0
 57 65  1  0  0  0  0
 58 66  1  0  0  0  0
 59 66  1  0  0  0  0
 60 66  1  0  0  0  0
 61 76  1  0  0  0  0
 62 84  1  0  0  0  0
 63 82  1  0  0  0  0
 64 66  1  0  0  0  0
 64 74  1  0  0  0  0
 65 76  1  0  0  0  0
 67 68  1  0  0  0  0
M  CHG  1  76   1
M  ISO  4  38 100  62 101  75 100  84 101
M  END
> <Batch ID>
0124

> <Smiles>
CNC(C)C(=O)NC(C(=O)N1Cc2cc([101O:1][101CH2:1]c3ccc(C4CC([100NH:0][100C:0](=O)N5CCCC(n6nc(-c7ccc(Oc8ccc(F)cc8F)cc7)c(C(N)=O)c6N)C5)CCC4CO)cc3)ccc2CC1C(=O)NC1CCCc2ccccc21)C(C)(C)C

> <Shape>
0.300

> <Color>
0.090

> <Negative vol penalty>
0.000

$$$$

  -OEChem-04052320333D

 90 99  0     1  0  0  0  0  0999 V2000
  -26.5411  -24.4857   17.8680 C   0  0  0  0  0  0  0  0  0  0  0  0
  -17.7625  -24.8494   23.5511 C   0  0  0  0  0  0  0  0  0  0  0  0
  -19.1265  -24.6298   23.3881 C   0  0  0  0  0  0  0  0  0  0  0  0
  -27.8901  -24.8387   17.8357 C   0  0  0  0  0  0  0  0  0  0  0  0
  -26.0352  -23.7621   18.9479 C   0  0  0  0  0  0  0  0  0  0  0  0
  -22.9397   -9.7734   19.9524 C   0  0  0  0  0  0  0  0  0  0  0  0
  -24.6201   -8.9306   21.4700 C   0  0  0  0  0  0  0  0  0  0  0  0
  -17.2166  -26.0952   23.2446 C   0  0  0  0  0  0  0  0  0  0  0  0
  -19.9454  -25.6557   22.9175 C   0  0  0  0  0  0  0  0  0  0  0  0
  -24.2521  -26.0662   25.5498 C   0  0  0  0  0  0  0  0  0  0  0  0
  -28.7333  -24.4679   18.8832 C   0  0  0  0  0  0  0  0  0  0  0  0
  -26.8784  -23.3913   19.9954 C   0  0  0  0  0  0  0  0  0  0  0  0
  -21.9375   -9.2889   20.7928 C   0  0  0  0  0  0  0  0  0  0  0  0
  -23.6179   -8.4461   22.3105 C   0  0  0  0  0  0  0  0  0  0  0  0
  -25.2595  -25.1437   25.2704 C   0  0  0  0  0  0  0  0  0  0  0  0
  -21.5349   -5.7855   22.4274 C   0  0  0  0  0  0  0  0  0  0  0  0
  -21.6829   -4.4949   22.9353 C   0  0  0  0  0  0  0  0  0  0  0  0
  -26.3743  -26.7856   23.8991 C   0  0  0  0  0  0  0  0  0  0  0  0
  -21.6541   -5.3766   25.1845 C   0  0  0  0  0  0  0  0  0  0  0  0
  -24.2810   -9.5943   20.2909 C   0  0  0  0  0  0  0  0  0  0  0  0
  -25.5454   -9.7387   18.0800 C   0  0  0  0  0  0  0  0  0  0  0  0
  -18.0308  -27.1398   22.7791 C   0  0  0  0  0  0  0  0  0  0  0  0
  -24.2927  -27.3540   24.9961 C   0  0  0  0  0  0  0  0  0  0  0  0
  -19.4097  -26.9162   22.6032 C   0  0  0  0  0  0  0  0  0  0  0  0
  -25.3676  -27.7234   24.1750 C   0  0  0  0  0  0  0  0  0  0  0  0
  -28.2275  -23.7443   19.9630 C   0  0  0  0  0  0  0  0  0  0  0  0
  -22.2766   -8.6252   21.9719 C   0  0  0  0  0  0  0  0  0  0  0  0
  -26.3193  -25.5024   24.4426 C   0  0  0  0  0  0  0  0  0  0  0  0
  -21.4466   -6.8718   23.2981 C   0  0  0  0  0  0  0  0  0  0  0  0
  -21.7425   -4.2904   24.3138 C   0  0  0  0  0  0  0  0  0  0  0  0
  -21.5062   -6.6673   24.6766 C   0  0  0  0  0  0  0  0  0  0  0  0
  -25.3167  -10.0941   19.4228 C   0  0  0  0  0  0  0  0  0  0  0  0
  -26.6367  -10.4852   17.7082 C   0  0  0  0  0  0  0  0  0  0  0  0
  -24.8348   -8.8162   17.2434 C   0  0  0  0  0  0  0  0  0  0  0  0
  -22.4252  -29.0091   23.0272 C   0  0  0  0  0  0  0  0  0  0  0  0
  -24.4828  -31.4172   23.7267 C   0  0  0  0  0  0  0  0  0  0  0  0
  -27.5904  -32.3597   24.7762 C   0  0  0  0  0  0  0  0  0  0  0  0
  -28.9053  -15.6587   19.6930 C   0  0  0  0  0  0  0  0  0  0  0  0
  -17.3876  -28.4548   22.4160 C   0  0  0  0  0  0  0  0  0  0  0  0
  -23.2122  -28.3460   25.3287 C   0  0  0  0  0  0  0  0  0  0  0  0
  -25.4684  -29.0999   23.5721 C   0  0  0  0  0  0  0  0  0  0  0  0
  -18.3843  -29.6029   22.2785 C   0  0  0  0  0  0  0  0  0  0  0  0
  -30.5734  -12.5184   19.5136 C   0  0  0  0  0  0  0  0  0  0  0  0
  -19.5867  -29.1692   21.4462 C   0  0  0  0  0  0  0  0  0  0  0  0
  -29.4360  -11.5089   19.3488 C   0  0  0  0  0  0  0  0  0  0  0  0
  -30.1781  -13.6682   20.4375 C   0  0  0  0  0  0  0  0  0  0  0  0
  -27.7939  -13.3525   19.8994 C   0  0  0  0  0  0  0  0  0  0  0  0
  -30.4792  -19.3401   21.7861 C   0  0  0  0  0  0  0  0  0  0  0  0
  -30.9735  -21.7048   21.7315 C   0  0  0  0  0  0  0  0  0  0  0  0
  -20.3346  -28.0116   22.1187 C   0  0  1  0  0  0  0  0  0  0  0  0
  -23.0882  -29.4629   24.2969 C   0  0  1  0  0  0  0  0  0  0  0  0
  -28.1257  -12.2036   18.9319 C   0  0  2  0  0  0  0  0  0  0  0  0
  -29.2580  -19.5303   20.8854 C   0  0  1  0  0  0  0  0  0  0  0  0
  -29.7697  -21.9798   20.8291 C   0  0  2  0  0  0  0  0  0  0  0  0
  -28.9888  -34.3975   25.2112 C   0  0  0  0  0  0  0  0  0  0  0  0
  -25.7580  -17.9321   20.7106 C   0  0  0  0  0  0  0  0  0  0  0  0
  -24.8775  -31.7844   20.7235 C   0  0  0  0  0  0  0  0  0  0  0  0
  -26.9306  -33.1256   21.2278 C   0  0  0  0  0  0  0  0  0  0  0  0
  -24.7011  -33.9153   22.0207 C   0  0  0  0  0  0  0  0  0  0  0  0
  -27.9100  -31.6722   27.6370 C   0  0  0  0  0  0  0  0  0  0  0  0
  -28.1438  -18.5473   21.2138 C   0  0  0  0  0  0  0  0  0  0  0  0
  -28.4409  -23.3387   22.4745 C   0  0  0  0  0  0  0  0  0  0  0  0
  -27.5025  -17.5546   18.9204 C   0  0  0  0  0  0  0  0  0  0  0  0
  -27.9545  -24.7199   22.9033 C   0  0  0  0  0  0  0  0  0  1  0  0
  -29.1452  -23.3400   21.1039 C   0  0  2  0  0  0  0  0  0  0  0  0
  -25.7791  -31.9204   23.1389 C   0  0  1  0  0  0  0  0  0  0  0  0
  -28.0389  -33.3737   25.8131 C   0  0  2  0  0  0  0  0  0  0  0  0
  -27.0766  -18.4306   20.1084 C   0  0  1  0  0  0  0  0  0  0  0  0
  -25.5695  -32.6598   21.7873 C   0  0  0  0  0  0  0  0  0  0  0  0
  -26.1925  -10.9962   19.8737 N   0  0  0  0  0  0  0  0  0  0  0  0
  -26.9821  -11.2138   18.8083 N   0  0  0  0  0  0  0  0  0  0  0  0
  -31.5015  -20.3549   21.5239 N   0  0  0  0  0  0  0  0  0  0  0  0
  -24.3841  -30.0323   23.9219 N   0  0  0  0  0  0  0  0  0  0  0  0
  -28.9285  -14.2851   19.9859 N   0  0  0  0  0  0  0  0  0  0  0  0
  -27.3250  -10.5829   16.5510 N   0  0  0  0  0  0  0  0  0  0  0  0
  -23.7370   -8.1329   17.7841 N   0  0  0  0  0  0  0  0  0  0  0  0
  -21.1521  -28.5027   23.2072 N   0  0  0  0  0  0  0  0  0  0  0  0
  -26.4079  -32.7340   24.1739 N   0  0  0  0  0  0  0  0  0  0  0  0
  -27.6828  -16.1620   19.2653 N   0  0  0  0  0  0  0  0  0  0  0  0
  -28.7342  -20.9231   21.0836 N   0  3  0  0  0  0  0  0  0  0  0  0
  -28.7366  -32.6899   26.9385 N   0  3  0  0  0  0  0  0  0  0  0  0
  -25.1736   -8.5920   16.0566 O   0  0  0  0  0  0  0  0  0  0  0  0
  -23.0237  -29.1121   21.9628 O   0  0  0  0  0  0  0  0  0  0  0  0
  -23.5934  -32.2240   24.0090 O   0  0  0  0  0  0  0  0  0  0  0  0
  -28.2274  -31.3396   24.5231 O   0  0  0  0  0  0  0  0  0  0  0  0
  -29.9017  -16.3819   19.7994 O   0  0  0  0  0  0  0  0  0  0  0  0
  -21.2989   -8.1524   22.7924 O   0  0  0  0  0  0  0  0  0  0  0  0
  -27.3035  -24.6037   24.1678 O   0  0  0  0  0  0  0  0  0  1  0  0
  -21.8830   -3.0508   24.8013 F   0  0  0  0  0  0  0  0  0  0  0  0
  -21.4207   -7.7067   25.5181 F   0  0  0  0  0  0  0  0  0  0  0  0
  1  4  1  0  0  0  0
  1  5  2  0  0  0  0
  2  3  1  0  0  0  0
  2  8  2  0  0  0  0
  3  9  2  0  0  0  0
  4 11  2  0  0  0  0
  5 12  1  0  0  0  0
  6 13  2  0  0  0  0
  6 20  1  0  0  0  0
  7 14  1  0  0  0  0
  7 20  2  0  0  0  0
  8 22  1  0  0  0  0
  9 24  1  0  0  0  0
 10 15  2  0  0  0  0
 10 23  1  0  0  0  0
 11 26  1  0  0  0  0
 12 26  2  0  0  0  0
 13 27  1  0  0  0  0
 14 27  2  0  0  0  0
 15 28  1  0  0  0  0
 16 17  2  0  0  0  0
 16 29  1  0  0  0  0
 17 30  1  0  0  0  0
 18 25  1  0  0  0  0
 18 28  2  0  0  0  0
 19 30  2  0  0  0  0
 19 31  1  0  0  0  0
 20 32  1  0  0  0  0
 21 32  1  0  0  0  0
 21 33  2  0  0  0  0
 21 34  1  0  0  0  0
 22 24  2  0  0  0  0
 22 39  1  0  0  0  0
 23 25  2  0  0  0  0
 23 40  1  0  0  0  0
 24 50  1  0  0  0  0
 25 41  1  0  0  0  0
 26 65  1  0  0  0  0
 27 87  1  0  0  0  0
 28 88  1  0  0  0  0
 29 31  2  0  0  0  0
 29 87  1  0  0  0  0
 30 89  1  0  0  0  0
 31 90  1  0  0  0  0
 32 70  2  0  0  0  0
 33 71  1  0  0  0  0
 33 75  1  0  0  0  0
 34 76  1  0  0  0  0
 34 82  2  0  0  0  0
 35 51  1  0  0  0  0
 35 77  1  0  0  0  0
 35 83  2  0  0  0  0
 36 66  1  0  0  0  0
 36 73  1  0  0  0  0
 36 84  2  0  0  0  0
 37 67  1  0  0  0  0
 37 78  1  0  0  0  0
 37 85  2  0  0  0  0
 38 74  1  0  0  0  0
 38 79  1  0  0  0  0
 38 86  2  0  0  0  0
 39 42  1  0  0  0  0
 40 51  1  0  0  0  0
 41 73  1  0  0  0  0
 42 44  1  0  0  0  0
 43 45  1  0  0  0  0
 43 46  1  0  0  0  0
 44 50  1  0  0  0  0
 45 52  1  0  0  0  0
 46 74  1  0  0  0  0
 47 52  1  0  0  0  0
 47 74  1  0  0  0  0
 48 53  1  0  0  0  0
 48 72  1  0  0  0  0
 49 54  1  0  0  0  0
 49 72  1  0  0  0  0
 50 77  1  0  0  0  0
 51 73  1  0  0  0  0
 52 71  1  0  0  0  0
 53 61  1  0  0  0  0
 53 80  1  0  0  0  0
 54 65  1  0  0  0  0
 54 80  1  0  0  0  0
 55 67  1  0  0  0  0
 56 68  1  0  0  0  0
 57 69  1  0  0  0  0
 58 69  1  0  0  0  0
 59 69  1  0  0  0  0
 60 81  1  0  0  0  0
 61 68  1  0  0  0  0
 62 64  1  0  0  0  0
 62 65  1  0  0  0  0
 63 68  1  0  0  0  0
 63 79  1  0  0  0  0
 64 88  1  0  0  0  0
 66 69  1  0  0  0  0
 66 78  1  0  0  0  0
 67 81  1  0  0  0  0
 70 71  1  0  0  0  0
M  CHG  2  80   1  81   1
M  ISO  4  38 100  64 101  79 100  88 101
M  END
> <Batch ID>
0124

> <Smiles>
CNC(C)C(=O)NC(C(=O)N1Cc2cc([101O:1][101CH2:1]CC(c3ccccc3)C3CNCC(CC(C)C[100NH:0][100C:0](=O)N4CCCC(n5nc(-c6ccc(Oc7ccc(F)cc7F)cc6)c(C(N)=O)c5N)C4)N3)ccc2CC1C(=O)NC1CCCc2ccccc21)C(C)(C)C

> <Shape>
0.307

> <Color>
0.096

> <Negative vol penalty>
0.000

$$$$

  -OEChem-04052320333D

 84 92  0     1  0  0  0  0  0999 V2000
  -19.0687  -24.1873   23.1012 C   0  0  0  0  0  0  0  0  0  0  0  0
  -20.4162  -24.3072   22.7768 C   0  0  0  0  0  0  0  0  0  0  0  0
  -23.8420  -14.3894   21.5092 C   0  0  0  0  0  0  0  0  0  0  0  0
  -24.9354  -14.7110   19.3789 C   0  0  0  0  0  0  0  0  0  0  0  0
  -18.2364  -25.3043   23.0418 C   0  0  0  0  0  0  0  0  0  0  0  0
  -20.9320  -25.5442   22.3917 C   0  0  0  0  0  0  0  0  0  0  0  0
  -25.3526  -26.5878   24.6311 C   0  0  0  0  0  0  0  0  0  0  0  0
  -24.3031  -13.0736   21.5473 C   0  0  0  0  0  0  0  0  0  0  0  0
  -25.3967  -13.3952   19.4171 C   0  0  0  0  0  0  0  0  0  0  0  0
  -26.4888  -25.9628   24.1192 C   0  0  0  0  0  0  0  0  0  0  0  0
  -23.4726  -10.1026   20.1661 C   0  0  0  0  0  0  0  0  0  0  0  0
  -22.5675   -9.1100   20.5417 C   0  0  0  0  0  0  0  0  0  0  0  0
  -27.0462  -27.9765   22.9137 C   0  0  0  0  0  0  0  0  0  0  0  0
  -23.9842   -8.5248   22.4092 C   0  0  0  0  0  0  0  0  0  0  0  0
  -24.1581  -15.2081   20.4250 C   0  0  0  0  0  0  0  0  0  0  0  0
  -23.9508  -17.5904   21.3135 C   0  0  0  0  0  0  0  0  0  0  0  0
  -18.7444  -26.5576   22.6651 C   0  0  0  0  0  0  0  0  0  0  0  0
  -25.0482  -27.9106   24.2788 C   0  0  0  0  0  0  0  0  0  0  0  0
  -20.1055  -26.6787   22.3259 C   0  0  0  0  0  0  0  0  0  0  0  0
  -25.9069  -28.6169   23.4244 C   0  0  0  0  0  0  0  0  0  0  0  0
  -25.0805  -12.5765   20.5013 C   0  0  0  0  0  0  0  0  0  0  0  0
  -27.3343  -26.6561   23.2581 C   0  0  0  0  0  0  0  0  0  0  0  0
  -24.6336  -10.3062   20.9120 C   0  0  0  0  0  0  0  0  0  0  0  0
  -22.8232   -8.3211   21.6632 C   0  0  0  0  0  0  0  0  0  0  0  0
  -24.8894   -9.5173   22.0335 C   0  0  0  0  0  0  0  0  0  0  0  0
  -23.6815  -16.5673   20.3847 C   0  0  0  0  0  0  0  0  0  0  0  0
  -23.2720  -18.6816   20.8286 C   0  0  0  0  0  0  0  0  0  0  0  0
  -24.7437  -17.5574   22.5076 C   0  0  0  0  0  0  0  0  0  0  0  0
  -22.6371  -29.3328   22.7731 C   0  0  0  0  0  0  0  0  0  0  0  0
  -24.2087  -32.0377   23.6310 C   0  0  0  0  0  0  0  0  0  0  0  0
  -27.1531  -33.5228   24.5093 C   0  0  0  0  0  0  0  0  0  0  0  0
  -21.4536  -20.2452   15.3423 C   0  0  0  0  0  0  0  0  0  0  0  0
  -17.7960  -27.7264   22.5699 C   0  0  0  0  0  0  0  0  0  0  0  0
  -23.8331  -28.5794   24.8606 C   0  0  0  0  0  0  0  0  0  0  0  0
  -25.6357  -30.0454   23.0314 C   0  0  0  0  0  0  0  0  0  0  0  0
  -18.5006  -29.0795   22.5141 C   0  0  0  0  0  0  0  0  0  0  0  0
  -19.4220  -19.8494   18.2393 C   0  0  0  0  0  0  0  0  0  0  0  0
  -19.6518  -29.0411   21.5141 C   0  0  0  0  0  0  0  0  0  0  0  0
  -30.0854  -25.6835   19.3732 C   0  0  0  0  0  0  0  0  0  0  0  0
  -28.6900  -24.0555   20.7131 C   0  0  0  0  0  0  0  0  0  0  0  0
  -20.3076  -19.0557   19.2015 C   0  0  0  0  0  0  0  0  0  0  0  0
  -28.9548  -25.8140   18.3518 C   0  0  0  0  0  0  0  0  0  0  0  0
  -27.5581  -24.1841   19.6931 C   0  0  0  0  0  0  0  0  0  0  0  0
  -19.6263  -19.4097   16.7913 C   0  0  0  0  0  0  0  0  0  0  0  0
  -21.9124  -18.6369   17.2915 C   0  0  0  0  0  0  0  0  0  0  0  0
  -20.7076  -28.0088   21.9276 C   0  0  1  0  0  0  0  0  0  0  0  0
  -23.3447  -29.7605   24.0277 C   0  0  1  0  0  0  0  0  0  0  0  0
  -29.5898  -25.2983   20.7746 C   0  0  0  0  0  0  0  0  0  0  0  0
  -21.7826  -19.0832   18.7579 C   0  0  2  0  0  0  0  0  0  0  0  0
  -28.0956  -24.5464   18.3042 C   0  0  0  0  0  0  0  0  0  0  0  0
  -28.1309  -35.7535   25.1137 C   0  0  0  0  0  0  0  0  0  0  0  0
  -24.1311  -32.8645   20.6949 C   0  0  0  0  0  0  0  0  0  0  0  0
  -25.8999  -34.5633   21.1987 C   0  0  0  0  0  0  0  0  0  0  0  0
  -23.6731  -34.7160   22.3125 C   0  0  0  0  0  0  0  0  0  0  0  0
  -27.9726  -32.5679   27.1881 C   0  0  0  0  0  0  0  0  0  0  0  0
  -28.8889  -26.4698   21.4680 C   0  0  0  0  0  0  0  0  0  1  0  0
  -23.3900  -21.0058   13.9892 C   0  0  0  0  0  0  0  0  0  0  0  0
  -26.4502  -23.4464   16.9465 C   0  0  0  0  0  0  0  0  0  0  0  0
  -23.7888  -22.4054   14.4185 C   0  0  0  0  0  0  0  0  0  0  0  0
  -25.3487  -23.6472   15.9229 C   0  0  0  0  0  0  0  0  0  0  0  0
  -25.2831  -32.8940   23.0053 C   0  0  1  0  0  0  0  0  0  0  0  0
  -27.5044  -34.4719   25.6408 C   0  0  2  0  0  0  0  0  0  0  0  0
  -24.7511  -33.7319   21.8085 C   0  0  0  0  0  0  0  0  0  0  0  0
  -22.8930  -16.9723   19.3856 N   0  0  0  0  0  0  0  0  0  0  0  0
  -22.6609  -18.2620   19.6838 N   0  0  0  0  0  0  0  0  0  0  0  0
  -24.4318  -30.6535   23.6215 N   0  0  0  0  0  0  0  0  0  0  0  0
  -21.0459  -19.4601   16.4334 N   0  0  0  0  0  0  0  0  0  0  0  0
  -23.1441  -19.9495   21.2743 N   0  0  0  0  0  0  0  0  0  0  0  0
  -26.1064  -17.8710   22.4136 N   0  0  0  0  0  0  0  0  0  0  0  0
  -21.5340  -28.5307   22.9949 N   0  0  0  0  0  0  0  0  0  0  0  0
  -25.8513  -33.6910   24.0871 N   0  0  0  0  0  0  0  0  0  0  0  0
  -22.8172  -20.2421   15.0752 N   0  0  0  0  0  0  0  0  0  0  0  0
  -26.9944  -24.7304   17.3594 N   0  0  0  0  0  0  0  0  0  0  0  0
  -28.4687  -33.8277   26.5768 N   0  3  0  0  0  0  0  0  0  0  0  0
  -24.8386  -22.3293   15.4707 N   0  3  0  0  0  0  0  0  0  0  0  0
  -24.2616  -17.2427   23.6221 O   0  0  0  0  0  0  0  0  0  0  0  0
  -23.0597  -29.7044   21.6845 O   0  0  0  0  0  0  0  0  0  0  0  0
  -23.2116  -32.5776   24.1168 O   0  0  0  0  0  0  0  0  0  0  0  0
  -27.9546  -32.7156   24.0439 O   0  0  0  0  0  0  0  0  0  0  0  0
  -20.6618  -20.9046   14.6603 O   0  0  0  0  0  0  0  0  0  0  0  0
  -25.5309  -11.2926   20.5383 O   0  0  0  0  0  0  0  0  0  0  0  0
  -28.4437  -26.0482   22.7566 O   0  0  0  0  0  0  0  0  0  1  0  0
  -21.9531   -7.3690   22.0247 F   0  0  0  0  0  0  0  0  0  0  0  0
  -26.0024   -9.7091   22.7548 F   0  0  0  0  0  0  0  0  0  0  0  0
  1  2  1  0  0  0  0
  1  5  2  0  0  0  0
  2  6  2  0  0  0  0
  3  8  2  0  0  0  0
  3 15  1  0  0  0  0
  4  9  1  0  0  0  0
  4 15  2  0  0  0  0
  5 17  1  0  0  0  0
  6 19  1  0  0  0  0
  7 10  2  0  0  0  0
  7 18  1  0  0  0  0
  8 21  1  0  0  0  0
  9 21  2  0  0  0  0
 10 22  1  0  0  0  0
 11 12  2  0  0  0  0
 11 23  1  0  0  0  0
 12 24  1  0  0  0  0
 13 20  1  0  0  0  0
 13 22  2  0  0  0  0
 14 24  2  0  0  0  0
 14 25  1  0  0  0  0
 15 26  1  0  0  0  0
 16 26  1  0  0  0  0
 16 27  2  0  0  0  0
 16 28  1  0  0  0  0
 17 19  2  0  0  0  0
 17 33  1  0  0  0  0
 18 20  2  0  0  0  0
 18 34  1  0  0  0  0
 19 46  1  0  0  0  0
 20 35  1  0  0  0  0
 21 81  1  0  0  0  0
 22 82  1  0  0  0  0
 23 25  2  0  0  0  0
 23 81  1  0  0  0  0
 24 83  1  0  0  0  0
 25 84  1  0  0  0  0
 26 64  2  0  0  0  0
 27 65  1  0  0  0  0
 27 68  1  0  0  0  0
 28 69  1  0  0  0  0
 28 76  2  0  0  0  0
 29 47  1  0  0  0  0
 29 70  1  0  0  0  0
 29 77  2  0  0  0  0
 30 61  1  0  0  0  0
 30 66  1  0  0  0  0
 30 78  2  0  0  0  0
 31 62  1  0  0  0  0
 31 71  1  0  0  0  0
 31 79  2  0  0  0  0
 32 67  1  0  0  0  0
 32 72  1  0  0  0  0
 32 80  2  0  0  0  0
 33 36  1  0  0  0  0
 34 47  1  0  0  0  0
 35 66  1  0  0  0  0
 36 38  1  0  0  0  0
 37 41  1  0  0  0  0
 37 44  1  0  0  0  0
 38 46  1  0  0  0  0
 39 42  1  0  0  0  0
 39 48  1  0  0  0  0
 40 43  1  0  0  0  0
 40 48  1  0  0  0  0
 41 49  1  0  0  0  0
 42 50  1  0  0  0  0
 43 50  1  0  0  0  0
 44 67  1  0  0  0  0
 45 49  1  0  0  0  0
 45 67  1  0  0  0  0
 46 70  1  0  0  0  0
 47 66  1  0  0  0  0
 48 56  1  0  0  0  0
 49 65  1  0  0  0  0
 50 73  1  0  0  0  0
 51 62  1  0  0  0  0
 52 63  1  0  0  0  0
 53 63  1  0  0  0  0
 54 63  1  0  0  0  0
 55 74  1  0  0  0  0
 56 82  1  0  0  0  0
 57 59  1  0  0  0  0
 57 72  1  0  0  0  0
 58 60  1  0  0  0  0
 58 73  1  0  0  0  0
 59 75  1  0  0  0  0
 60 75  1  0  0  0  0
 61 63  1  0  0  0  0
 61 71  1  0  0  0  0
 62 74  1  0  0  0  0
 64 65  1  0  0  0  0
M  CHG  2  74   1  75   1
M  ISO  4  32 100  56 101  72 100  82 101
M  END
> <Batch ID>
0124

> <Smiles>
CNC(C)C(=O)NC(C(=O)N1Cc2cc([101O:1][101CH2:1]C3CCC(NCCNCC[100NH:0][100C:0](=O)N4CCCC(n5nc(-c6ccc(Oc7ccc(F)cc7F)cc6)c(C(N)=O)c5N)C4)CC3)ccc2CC1C(=O)NC1CCCc2ccccc21)C(C)(C)C

> <Shape>
0.220

> <Color>
0.081

> <Negative vol penalty>
0.000

$$$$

  -OEChem-04052320333D

 83 91  0     1  0  0  0  0  0999 V2000
  -22.5576  -32.5935   28.1845 C   0  0  0  0  0  0  0  0  0  0  0  0
  -22.5101  -31.2041   28.1325 C   0  0  0  0  0  0  0  0  0  0  0  0
  -22.8364  -10.3200   20.1080 C   0  0  0  0  0  0  0  0  0  0  0  0
  -24.2369   -9.8854   22.0281 C   0  0  0  0  0  0  0  0  0  0  0  0
  -22.7250  -33.3286   27.0116 C   0  0  0  0  0  0  0  0  0  0  0  0
  -22.6289  -30.5489   26.9073 C   0  0  0  0  0  0  0  0  0  0  0  0
  -25.3369  -25.1560   25.8637 C   0  0  0  0  0  0  0  0  0  0  0  0
  -22.4154   -8.9903   20.1141 C   0  0  0  0  0  0  0  0  0  0  0  0
  -23.8158   -8.5556   22.0342 C   0  0  0  0  0  0  0  0  0  0  0  0
  -24.8315  -23.8642   25.7237 C   0  0  0  0  0  0  0  0  0  0  0  0
  -21.1092   -6.8064   23.0516 C   0  0  0  0  0  0  0  0  0  0  0  0
  -20.7583   -6.2449   24.2792 C   0  0  0  0  0  0  0  0  0  0  0  0
  -24.8407  -24.1271   23.3258 C   0  0  0  0  0  0  0  0  0  0  0  0
  -22.4818   -4.5738   24.0077 C   0  0  0  0  0  0  0  0  0  0  0  0
  -26.7648  -19.7053   23.6619 C   0  0  0  0  0  0  0  0  0  0  0  0
  -23.7473  -10.7676   21.0650 C   0  0  0  0  0  0  0  0  0  0  0  0
  -23.5909  -13.2237   21.7362 C   0  0  0  0  0  0  0  0  0  0  0  0
  -22.8556  -32.6817   25.7726 C   0  0  0  0  0  0  0  0  0  0  0  0
  -25.5881  -25.9484   24.7344 C   0  0  0  0  0  0  0  0  0  0  0  0
  -22.7968  -31.2760   25.7166 C   0  0  0  0  0  0  0  0  0  0  0  0
  -25.3516  -25.4277   23.4541 C   0  0  0  0  0  0  0  0  0  0  0  0
  -25.3968  -19.5706   23.5740 C   0  0  0  0  0  0  0  0  0  0  0  0
  -25.0877  -19.2639   22.2259 C   0  0  0  0  0  0  0  0  0  0  0  0
  -22.9050   -8.1081   21.0772 C   0  0  0  0  0  0  0  0  0  0  0  0
  -24.5806  -23.3506   24.4547 C   0  0  0  0  0  0  0  0  0  0  0  0
  -22.1464   -6.2515   22.3019 C   0  0  0  0  0  0  0  0  0  0  0  0
  -21.4446   -5.1287   24.7573 C   0  0  0  0  0  0  0  0  0  0  0  0
  -22.8327   -5.1352   22.7799 C   0  0  0  0  0  0  0  0  0  0  0  0
  -24.1831  -12.1409   21.0589 C   0  0  0  0  0  0  0  0  0  0  0  0
  -26.2762  -19.2203   21.5310 C   0  0  0  0  0  0  0  0  0  0  0  0
  -24.3750  -14.3031   21.4097 C   0  0  0  0  0  0  0  0  0  0  0  0
  -22.4355  -13.2514   22.5847 C   0  0  0  0  0  0  0  0  0  0  0  0
  -24.4702  -28.7164   23.6426 C   0  0  0  0  0  0  0  0  0  0  0  0
  -26.7828  -28.3210   21.4026 C   0  0  0  0  0  0  0  0  0  0  0  0
  -28.8195  -26.1871   19.6864 C   0  0  0  0  0  0  0  0  0  0  0  0
  -29.3957  -16.6258   20.6725 C   0  0  0  0  0  0  0  0  0  0  0  0
  -22.9874  -33.5204   24.5261 C   0  0  0  0  0  0  0  0  0  0  0  0
  -26.1583  -27.3302   24.9013 C   0  0  0  0  0  0  0  0  0  0  0  0
  -25.6235  -26.2303   22.2089 C   0  0  0  0  0  0  0  0  0  0  0  0
  -23.4812  -32.7358   23.3133 C   0  0  0  0  0  0  0  0  0  0  0  0
  -28.0280  -14.7909   17.9450 C   0  0  0  0  0  0  0  0  0  0  0  0
  -22.7205  -31.4200   23.1829 C   0  0  0  0  0  0  0  0  0  0  0  0
  -26.8615  -14.0230   18.5691 C   0  0  0  0  0  0  0  0  0  0  0  0
  -29.2103  -14.8997   18.9054 C   0  0  0  0  0  0  0  0  0  0  0  0
  -27.7161  -14.6913   20.8542 C   0  0  0  0  0  0  0  0  0  0  0  0
  -22.9468  -30.5281   24.4096 C   0  0  1  0  0  0  0  0  0  0  0  0
  -25.8924  -28.2352   23.7024 C   0  0  1  0  0  0  0  0  0  0  0  0
  -26.4793  -14.6038   19.9438 C   0  0  2  0  0  0  0  0  0  0  0  0
  -23.7400  -19.0329   21.6659 C   0  0  0  0  0  0  0  0  0  0  0  0
  -26.5362  -18.9447   20.1021 C   0  0  0  0  0  0  0  0  0  0  0  0
  -24.6569  -18.6738   25.8056 C   0  0  0  0  0  0  0  0  0  0  0  0
  -30.5742  -26.1539   17.8928 C   0  0  0  0  0  0  0  0  0  0  0  0
  -24.6205  -28.7016   19.2836 C   0  0  0  0  0  0  0  0  0  0  0  0
  -26.1989  -27.7326   17.5989 C   0  0  0  0  0  0  0  0  0  0  0  0
  -26.7856  -29.8486   18.7825 C   0  0  0  0  0  0  0  0  0  0  0  0
  -30.8483  -25.0720   21.5301 C   0  0  0  0  0  0  0  0  0  0  0  0
  -28.6991  -19.5437   22.0965 C   0  0  0  0  0  0  0  0  0  0  0  0
  -29.4537  -18.2852   22.5170 C   0  0  0  0  0  0  0  0  0  0  0  0
  -24.4413  -21.1390   25.3181 C   0  0  0  0  0  0  0  0  0  1  0  0
  -24.4101  -19.7257   24.7205 C   0  0  1  0  0  0  0  0  0  0  0  0
  -26.8565  -27.6605   20.0471 C   0  0  1  0  0  0  0  0  0  0  0  0
  -30.3070  -26.2362   19.3876 C   0  0  2  0  0  0  0  0  0  0  0  0
  -26.1083  -28.4712   18.9514 C   0  0  0  0  0  0  0  0  0  0  0  0
  -25.2601  -12.4998   20.3552 N   0  0  0  0  0  0  0  0  0  0  0  0
  -27.2890  -19.4898   22.4140 N   0  0  0  0  0  0  0  0  0  0  0  0
  -25.3509  -13.8201   20.5884 N   0  0  0  0  0  0  0  0  0  0  0  0
  -26.1749  -27.5782   22.4246 N   0  0  0  0  0  0  0  0  0  0  0  0
  -28.7807  -15.4590   20.1894 N   0  0  0  0  0  0  0  0  0  0  0  0
  -24.3179  -15.6088   21.7478 N   0  0  0  0  0  0  0  0  0  0  0  0
  -21.7467  -12.0526   22.8147 N   0  0  0  0  0  0  0  0  0  0  0  0
  -24.2434  -29.8891   24.3375 N   0  0  0  0  0  0  0  0  0  0  0  0
  -28.2737  -27.4504   19.7719 N   0  0  0  0  0  0  0  0  0  0  0  0
  -28.9248  -17.0926   21.8936 N   0  0  0  0  0  0  0  0  0  0  0  0
  -31.0068  -25.1012   20.0533 N   0  3  0  0  0  0  0  0  0  0  0  0
  -22.0164  -14.3107   23.1096 O   0  0  0  0  0  0  0  0  0  0  0  0
  -23.6404  -28.0724   23.0115 O   0  0  0  0  0  0  0  0  0  0  0  0
  -27.2539  -29.4514   21.5509 O   0  0  0  0  0  0  0  0  0  0  0  0
  -28.2025  -25.1333   19.8261 O   0  0  0  0  0  0  0  0  0  0  0  0
  -30.2939  -17.2115   20.0583 O   0  0  0  0  0  0  0  0  0  0  0  0
  -22.4941   -6.8105   21.0836 O   0  0  0  0  0  0  0  0  0  0  0  0
  -24.0868  -22.0902   24.3152 O   0  0  0  0  0  0  0  0  0  1  0  0
  -21.1085   -4.5906   25.9370 F   0  0  0  0  0  0  0  0  0  0  0  0
  -23.8308   -4.5984   22.0647 F   0  0  0  0  0  0  0  0  0  0  0  0
  1  2  1  0  0  0  0
  1  5  2  0  0  0  0
  2  6  2  0  0  0  0
  3  8  2  0  0  0  0
  3 16  1  0  0  0  0
  4  9  1  0  0  0  0
  4 16  2  0  0  0  0
  5 18  1  0  0  0  0
  6 20  1  0  0  0  0
  7 10  2  0  0  0  0
  7 19  1  0  0  0  0
  8 24  1  0  0  0  0
  9 24  2  0  0  0  0
 10 25  1  0  0  0  0
 11 12  2  0  0  0  0
 11 26  1  0  0  0  0
 12 27  1  0  0  0  0
 13 21  1  0  0  0  0
 13 25  2  0  0  0  0
 14 27  2  0  0  0  0
 14 28  1  0  0  0  0
 15 22  2  0  0  0  0
 15 65  1  0  0  0  0
 16 29  1  0  0  0  0
 17 29  1  0  0  0  0
 17 31  2  0  0  0  0
 17 32  1  0  0  0  0
 18 20  2  0  0  0  0
 18 37  1  0  0  0  0
 19 21  2  0  0  0  0
 19 38  1  0  0  0  0
 20 46  1  0  0  0  0
 21 39  1  0  0  0  0
 22 23  1  0  0  0  0
 22 60  1  0  0  0  0
 23 30  2  0  0  0  0
 23 49  1  0  0  0  0
 24 80  1  0  0  0  0
 25 81  1  0  0  0  0
 26 28  2  0  0  0  0
 26 80  1  0  0  0  0
 27 82  1  0  0  0  0
 28 83  1  0  0  0  0
 29 64  2  0  0  0  0
 30 50  1  0  0  0  0
 30 65  1  0  0  0  0
 31 66  1  0  0  0  0
 31 69  1  0  0  0  0
 32 70  1  0  0  0  0
 32 75  2  0  0  0  0
 33 47  1  0  0  0  0
 33 71  1  0  0  0  0
 33 76  2  0  0  0  0
 34 61  1  0  0  0  0
 34 67  1  0  0  0  0
 34 77  2  0  0  0  0
 35 62  1  0  0  0  0
 35 72  1  0  0  0  0
 35 78  2  0  0  0  0
 36 68  1  0  0  0  0
 36 73  1  0  0  0  0
 36 79  2  0  0  0  0
 37 40  1  0  0  0  0
 38 47  1  0  0  0  0
 39 67  1  0  0  0  0
 40 42  1  0  0  0  0
 41 43  1  0  0  0  0
 41 44  1  0  0  0  0
 42 46  1  0  0  0  0
 43 48  1  0  0  0  0
 44 68  1  0  0  0  0
 45 48  1  0  0  0  0
 45 68  1  0  0  0  0
 46 71  1  0  0  0  0
 47 67  1  0  0  0  0
 48 66  1  0  0  0  0
 51 60  1  0  0  0  0
 52 62  1  0  0  0  0
 53 63  1  0  0  0  0
 54 63  1  0  0  0  0
 55 63  1  0  0  0  0
 56 74  1  0  0  0  0
 57 58  1  0  0  0  0
 57 65  1  0  0  0  0
 58 73  1  0  0  0  0
 59 60  1  0  0  0  0
 59 81  1  0  0  0  0
 61 63  1  0  0  0  0
 61 72  1  0  0  0  0
 62 74  1  0  0  0  0
 64 66  1  0  0  0  0
M  CHG  1  74   1
M  ISO  4  36 100  59 101  73 100  81 101
M  END
> <Batch ID>
0124

> <Smiles>
CNC(C)C(=O)NC(C(=O)N1Cc2cc([101O:1][101CH2:1]C(C)c3cn(CC[100NH:0][100C:0](=O)N4CCCC(n5nc(-c6ccc(Oc7ccc(F)cc7F)cc6)c(C(N)=O)c5N)C4)c(C)c3C)ccc2CC1C(=O)NC1CCCc2ccccc21)C(C)(C)C

> <Shape>
0.229

> <Color>
0.090

> <Negative vol penalty>
0.000

$$$$

  -OEChem-04052320333D

 83 91  0     1  0  0  0  0  0999 V2000
  -27.9611  -26.1869   22.4226 C   0  0  0  0  0  0  0  0  0  0  0  0
  -26.8566  -25.4712   21.9719 C   0  0  0  0  0  0  0  0  0  0  0  0
  -24.8612  -28.6550   21.6812 C   0  0  0  0  0  0  0  0  0  0  0  0
  -23.8695  -30.0200   19.9520 C   0  0  0  0  0  0  0  0  0  0  0  0
  -29.2284  -25.9034   21.9153 C   0  0  0  0  0  0  0  0  0  0  0  0
  -27.0187  -24.4721   21.0127 C   0  0  0  0  0  0  0  0  0  0  0  0
  -23.8707  -19.2366   20.5818 C   0  0  0  0  0  0  0  0  0  0  0  0
  -25.6768  -29.7226   22.0563 C   0  0  0  0  0  0  0  0  0  0  0  0
  -24.6850  -31.0877   20.3271 C   0  0  0  0  0  0  0  0  0  0  0  0
  -22.7844  -18.8574   19.7944 C   0  0  0  0  0  0  0  0  0  0  0  0
  -25.3803  -32.5731   23.8506 C   0  0  0  0  0  0  0  0  0  0  0  0
  -25.5050  -32.8462   25.2128 C   0  0  0  0  0  0  0  0  0  0  0  0
  -24.2960  -17.8682   18.1958 C   0  0  0  0  0  0  0  0  0  0  0  0
  -27.8881  -32.4755   25.0689 C   0  0  0  0  0  0  0  0  0  0  0  0
  -23.9576  -28.8037   20.6290 C   0  0  0  0  0  0  0  0  0  0  0  0
  -21.8329  -27.3957   20.7348 C   0  0  0  0  0  0  0  0  0  0  0  0
  -29.4075  -24.8938   20.9565 C   0  0  0  0  0  0  0  0  0  0  0  0
  -25.1806  -18.9436   20.1759 C   0  0  0  0  0  0  0  0  0  0  0  0
  -28.2894  -24.1757   20.4911 C   0  0  0  0  0  0  0  0  0  0  0  0
  -25.3971  -18.2425   18.9811 C   0  0  0  0  0  0  0  0  0  0  0  0
  -25.5887  -30.9389   21.3793 C   0  0  0  0  0  0  0  0  0  0  0  0
  -22.9971  -18.1756   18.5999 C   0  0  0  0  0  0  0  0  0  0  0  0
  -26.5095  -32.2511   23.0976 C   0  0  0  0  0  0  0  0  0  0  0  0
  -26.7588  -32.7974   25.8219 C   0  0  0  0  0  0  0  0  0  0  0  0
  -27.7633  -32.2023   23.7068 C   0  0  0  0  0  0  0  0  0  0  0  0
  -23.1153  -27.7010   20.2407 C   0  0  0  0  0  0  0  0  0  0  0  0
  -21.4625  -26.2631   20.0520 C   0  0  0  0  0  0  0  0  0  0  0  0
  -21.0469  -28.0753   21.7228 C   0  0  0  0  0  0  0  0  0  0  0  0
  -27.7411  -20.6766   19.4384 C   0  0  0  0  0  0  0  0  0  0  0  0
  -29.1805  -17.7735   19.2876 C   0  0  0  0  0  0  0  0  0  0  0  0
  -28.8681  -14.4045   18.8421 C   0  0  0  0  0  0  0  0  0  0  0  0
  -23.0508  -24.1588   14.7695 C   0  0  0  0  0  0  0  0  0  0  0  0
  -30.7900  -24.6555   20.4028 C   0  0  0  0  0  0  0  0  0  0  0  0
  -26.3403  -19.3360   21.0497 C   0  0  0  0  0  0  0  0  0  0  0  0
  -26.7828  -17.8860   18.5107 C   0  0  0  0  0  0  0  0  0  0  0  0
  -30.9295  -23.3270   19.6639 C   0  0  0  0  0  0  0  0  0  0  0  0
  -23.3181  -22.3999   17.9211 C   0  0  0  0  0  0  0  0  0  0  0  0
  -29.7583  -23.1221   18.7084 C   0  0  0  0  0  0  0  0  0  0  0  0
  -23.1721  -23.5469   18.9228 C   0  0  0  0  0  0  0  0  0  0  0  0
  -19.7938  -21.7633   12.4979 C   0  0  0  0  0  0  0  0  0  0  0  0
  -24.1152  -22.8350   16.6949 C   0  0  0  0  0  0  0  0  0  0  0  0
  -23.4215  -25.1805   16.9969 C   0  0  0  0  0  0  0  0  0  0  0  0
  -19.3027  -21.2374   11.1573 C   0  0  0  0  0  0  0  0  0  0  0  0
  -20.4875  -19.0655   11.5510 C   0  0  0  0  0  0  0  0  0  0  0  0
  -28.4283  -23.0678   19.4697 C   0  0  1  0  0  0  0  0  0  0  0  0
  -27.6566  -19.4384   20.2853 C   0  0  1  0  0  0  0  0  0  0  0  0
  -21.1025  -21.1008   12.9634 C   0  0  1  0  0  0  0  0  0  0  0  0
  -21.0145  -19.5560   12.9038 C   0  0  1  0  0  0  0  0  0  0  0  0
  -22.6056  -24.8107   18.2489 C   0  0  2  0  0  0  0  0  0  0  0  0
  -30.2265  -12.2972   18.7355 C   0  0  0  0  0  0  0  0  0  0  0  0
  -30.1229  -18.5256   16.4847 C   0  0  0  0  0  0  0  0  0  0  0  0
  -30.6254  -16.1065   16.0801 C   0  0  0  0  0  0  0  0  0  0  0  0
  -31.8317  -17.3454   17.8782 C   0  0  0  0  0  0  0  0  0  0  0  0
  -27.4502  -13.2355   21.1620 C   0  0  0  0  0  0  0  0  0  0  0  0
  -22.2964  -21.6191   12.1511 C   0  0  0  0  0  0  0  0  0  0  0  0
  -20.1660  -19.0067   14.0591 C   0  0  0  0  0  0  0  0  0  0  0  0
  -20.9100  -19.0952   15.3919 C   0  0  0  0  0  0  0  0  0  0  0  0
  -20.0437  -18.5833   16.5464 C   0  0  0  0  0  0  0  0  0  0  0  0
  -22.7440  -23.0029   12.5954 C   0  0  0  0  0  0  0  0  0  0  0  0
  -20.7760  -18.6308   17.8818 C   0  0  0  0  0  0  0  0  0  1  0  0
  -29.3982  -16.7430   18.2061 C   0  0  1  0  0  0  0  0  0  0  0  0
  -29.4210  -13.2290   19.6275 C   0  0  2  0  0  0  0  0  0  0  0  0
  -30.4684  -17.1884   17.1699 C   0  0  0  0  0  0  0  0  0  0  0  0
  -23.5316  -26.8323   19.3155 N   0  0  0  0  0  0  0  0  0  0  0  0
  -22.5050  -25.9700   19.2228 N   0  0  0  0  0  0  0  0  0  0  0  0
  -27.8844  -18.2969   19.3968 N   0  0  0  0  0  0  0  0  0  0  0  0
  -23.5131  -24.0314   16.0899 N   0  0  0  0  0  0  0  0  0  0  0  0
  -20.3500  -25.4991   20.0859 N   0  0  0  0  0  0  0  0  0  0  0  0
  -21.5784  -29.2236   22.3255 N   0  0  0  0  0  0  0  0  0  0  0  0
  -28.2580  -21.7753   20.0981 N   0  0  0  0  0  0  0  0  0  0  0  0
  -29.7125  -15.4934   18.8903 N   0  0  0  0  0  0  0  0  0  0  0  0
  -23.1801  -23.0270   13.9738 N   0  0  0  0  0  0  0  0  0  0  0  0
  -19.2043  -19.7502   11.2127 N   0  3  0  0  0  0  0  0  0  0  0  0
  -28.3103  -12.4479   20.2417 N   0  3  0  0  0  0  0  0  0  0  0  0
  -19.9137  -27.6667   22.0729 O   0  0  0  0  0  0  0  0  0  0  0  0
  -27.3666  -20.6377   18.2722 O   0  0  0  0  0  0  0  0  0  0  0  0
  -30.1240  -18.0968   20.0136 O   0  0  0  0  0  0  0  0  0  0  0  0
  -27.7962  -14.3598   18.2425 O   0  0  0  0  0  0  0  0  0  0  0  0
  -22.5543  -25.2028   14.3330 O   0  0  0  0  0  0  0  0  0  0  0  0
  -26.3841  -31.9810   21.7452 O   0  0  0  0  0  0  0  0  0  0  0  0
  -21.9385  -17.8049   17.8292 O   0  0  0  0  0  0  0  0  0  1  0  0
  -26.8787  -33.0612   27.1297 F   0  0  0  0  0  0  0  0  0  0  0  0
  -28.8519  -31.8948   22.9883 F   0  0  0  0  0  0  0  0  0  0  0  0
  1  2  1  0  0  0  0
  1  5  2  0  0  0  0
  2  6  2  0  0  0  0
  3  8  2  0  0  0  0
  3 15  1  0  0  0  0
  4  9  1  0  0  0  0
  4 15  2  0  0  0  0
  5 17  1  0  0  0  0
  6 19  1  0  0  0  0
  7 10  2  0  0  0  0
  7 18  1  0  0  0  0
  8 21  1  0  0  0  0
  9 21  2  0  0  0  0
 10 22  1  0  0  0  0
 11 12  2  0  0  0  0
 11 23  1  0  0  0  0
 12 24  1  0  0  0  0
 13 20  1  0  0  0  0
 13 22  2  0  0  0  0
 14 24  2  0  0  0  0
 14 25  1  0  0  0  0
 15 26  1  0  0  0  0
 16 26  1  0  0  0  0
 16 27  2  0  0  0  0
 16 28  1  0  0  0  0
 17 19  2  0  0  0  0
 17 33  1  0  0  0  0
 18 20  2  0  0  0  0
 18 34  1  0  0  0  0
 19 45  1  0  0  0  0
 20 35  1  0  0  0  0
 21 80  1  0  0  0  0
 22 81  1  0  0  0  0
 23 25  2  0  0  0  0
 23 80  1  0  0  0  0
 24 82  1  0  0  0  0
 25 83  1  0  0  0  0
 26 64  2  0  0  0  0
 27 65  1  0  0  0  0
 27 68  1  0  0  0  0
 28 69  1  0  0  0  0
 28 75  2  0  0  0  0
 29 46  1  0  0  0  0
 29 70  1  0  0  0  0
 29 76  2  0  0  0  0
 30 61  1  0  0  0  0
 30 66  1  0  0  0  0
 30 77  2  0  0  0  0
 31 62  1  0  0  0  0
 31 71  1  0  0  0  0
 31 78  2  0  0  0  0
 32 67  1  0  0  0  0
 32 72  1  0  0  0  0
 32 79  2  0  0  0  0
 33 36  1  0  0  0  0
 34 46  1  0  0  0  0
 35 66  1  0  0  0  0
 36 38  1  0  0  0  0
 37 39  1  0  0  0  0
 37 41  1  0  0  0  0
 38 45  1  0  0  0  0
 39 49  1  0  0  0  0
 40 43  1  0  0  0  0
 40 47  1  0  0  0  0
 41 67  1  0  0  0  0
 42 49  1  0  0  0  0
 42 67  1  0  0  0  0
 43 73  1  0  0  0  0
 44 48  1  0  0  0  0
 44 73  1  0  0  0  0
 45 70  1  0  0  0  0
 46 66  1  0  0  0  0
 47 48  1  0  0  0  0
 47 55  1  0  0  0  0
 48 56  1  0  0  0  0
 49 65  1  0  0  0  0
 50 62  1  0  0  0  0
 51 63  1  0  0  0  0
 52 63  1  0  0  0  0
 53 63  1  0  0  0  0
 54 74  1  0  0  0  0
 55 59  1  0  0  0  0
 56 57  1  0  0  0  0
 57 58  1  0  0  0  0
 58 60  1  0  0  0  0
 59 72  1  0  0  0  0
 60 81  1  0  0  0  0
 61 63  1  0  0  0  0
 61 71  1  0  0  0  0
 62 74  1  0  0  0  0
 64 65  1  0  0  0  0
M  CHG  2  73   1  74   1
M  ISO  4  32 100  60 101  72 100  81 101
M  END
> <Batch ID>
0124

> <Smiles>
CNC(C)C(=O)NC(C(=O)N1Cc2cc([101O:1][101CH2:1]CCCC3CNCCC3CC[100NH:0][100C:0](=O)N3CCCC(n4nc(-c5ccc(Oc6ccc(F)cc6F)cc5)c(C(N)=O)c4N)C3)ccc2CC1C(=O)NC1CCCc2ccccc21)C(C)(C)C

> <Shape>
0.208

> <Color>
0.051

> <Negative vol penalty>
0.000

$$$$

  -OEChem-04052320333D

 87 96  0     1  0  0  0  0  0999 V2000
  -32.9401  -33.6199   21.1441 C   0  0  0  0  0  0  0  0  0  0  0  0
  -31.5729  -33.3837   21.0435 C   0  0  0  0  0  0  0  0  0  0  0  0
  -27.5279  -13.0376   18.4012 C   0  0  0  0  0  0  0  0  0  0  0  0
  -28.2905  -12.0647   20.4770 C   0  0  0  0  0  0  0  0  0  0  0  0
  -33.8377  -32.8275   20.4297 C   0  0  0  0  0  0  0  0  0  0  0  0
  -31.1023  -32.3555   20.2276 C   0  0  0  0  0  0  0  0  0  0  0  0
  -26.2167  -28.8018   21.2317 C   0  0  0  0  0  0  0  0  0  0  0  0
  -28.6888  -12.5948   17.7672 C   0  0  0  0  0  0  0  0  0  0  0  0
  -29.4514  -11.6219   19.8430 C   0  0  0  0  0  0  0  0  0  0  0  0
  -24.9082  -28.8490   20.7529 C   0  0  0  0  0  0  0  0  0  0  0  0
  -32.4499   -9.9225   18.6859 C   0  0  0  0  0  0  0  0  0  0  0  0
  -32.8686   -8.6159   18.9367 C   0  0  0  0  0  0  0  0  0  0  0  0
  -25.4859  -27.2572   19.0349 C   0  0  0  0  0  0  0  0  0  0  0  0
  -30.7820   -7.7777   18.0531 C   0  0  0  0  0  0  0  0  0  0  0  0
  -27.3288  -12.7726   19.7561 C   0  0  0  0  0  0  0  0  0  0  0  0
  -24.9110  -12.5370   20.5349 C   0  0  0  0  0  0  0  0  0  0  0  0
  -33.3784  -31.7829   19.6121 C   0  0  0  0  0  0  0  0  0  0  0  0
  -27.1740  -27.9889   20.6079 C   0  0  0  0  0  0  0  0  0  0  0  0
  -31.9945  -31.5492   19.5005 C   0  0  0  0  0  0  0  0  0  0  0  0
  -26.8052  -27.1995   19.5093 C   0  0  0  0  0  0  0  0  0  0  0  0
  -29.6505  -11.8870   18.4881 C   0  0  0  0  0  0  0  0  0  0  0  0
  -24.5433  -28.0788   19.6525 C   0  0  0  0  0  0  0  0  0  0  0  0
  -31.1972  -10.1568   18.1188 C   0  0  0  0  0  0  0  0  0  0  0  0
  -32.0347   -7.5434   18.6203 C   0  0  0  0  0  0  0  0  0  0  0  0
  -30.3633   -9.0844   17.8024 C   0  0  0  0  0  0  0  0  0  0  0  0
  -26.1301  -13.2301   20.4117 C   0  0  0  0  0  0  0  0  0  0  0  0
  -24.0982  -13.3938   21.2361 C   0  0  0  0  0  0  0  0  0  0  0  0
  -24.5461  -11.2349   20.0583 C   0  0  0  0  0  0  0  0  0  0  0  0
  -29.9264  -28.5126   19.1067 C   0  0  0  0  0  0  0  0  0  0  0  0
  -30.0814  -25.2726   19.0825 C   0  0  0  0  0  0  0  0  0  0  0  0
  -28.4243  -22.2918   19.2076 C   0  0  0  0  0  0  0  0  0  0  0  0
  -22.0001  -18.2287   22.2567 C   0  0  0  0  0  0  0  0  0  0  0  0
  -34.3842  -30.9834   18.8222 C   0  0  0  0  0  0  0  0  0  0  0  0
  -28.5746  -27.9288   21.1531 C   0  0  0  0  0  0  0  0  0  0  0  0
  -27.7901  -26.2949   18.8165 C   0  0  0  0  0  0  0  0  0  0  0  0
  -33.8246  -29.6741   18.2719 C   0  0  0  0  0  0  0  0  0  0  0  0
  -18.4881  -28.6203   23.3723 C   0  0  0  0  0  0  0  0  0  0  0  0
  -25.1542  -17.6742   23.7017 C   0  0  0  0  0  0  0  0  0  0  0  0
  -32.4638  -29.9061   17.6228 C   0  0  0  0  0  0  0  0  0  0  0  0
  -18.0163  -27.3450   22.6435 C   0  0  0  0  0  0  0  0  0  0  0  0
  -19.5713  -28.7571   22.2823 C   0  0  0  0  0  0  0  0  0  0  0  0
  -25.5990  -16.4026   22.9798 C   0  0  0  0  0  0  0  0  0  0  0  0
  -24.4483  -18.6512   22.7598 C   0  0  0  0  0  0  0  0  0  0  0  0
  -22.3980  -20.7307   22.3374 C   0  0  0  0  0  0  0  0  0  0  0  0
  -20.3210  -19.7561   23.2451 C   0  0  0  0  0  0  0  0  0  0  0  0
  -23.7637  -16.7826   21.2906 C   0  0  0  0  0  0  0  0  0  0  0  0
  -21.5836  -21.6228   21.4061 C   0  0  0  0  0  0  0  0  0  0  0  0
  -19.4784  -20.6118   22.3133 C   0  0  0  0  0  0  0  0  0  0  0  0
  -31.4467  -30.4275   18.6451 C   0  0  1  0  0  0  0  0  0  0  0  0
  -29.5967  -27.4568   20.1237 C   0  0  1  0  0  0  0  0  0  0  0  0
  -19.4561  -27.2238   22.0799 C   0  0  0  0  0  0  0  0  0  0  0  0
  -24.4240  -15.7566   22.2244 C   0  0  1  0  0  0  0  0  0  0  0  0
  -28.8172  -19.8146   19.1271 C   0  0  0  0  0  0  0  0  0  0  0  0
  -30.5053  -25.4403   16.0655 C   0  0  0  0  0  0  0  0  0  0  0  0
  -29.9428  -23.0049   15.9214 C   0  0  0  0  0  0  0  0  0  0  0  0
  -31.9340  -23.7481   17.2273 C   0  0  0  0  0  0  0  0  0  0  0  0
  -27.2987  -21.9082   21.9177 C   0  0  0  0  0  0  0  0  0  0  0  0
  -19.8774  -24.2659   21.3549 C   0  0  0  0  0  0  0  0  0  0  0  0
  -19.0764  -25.2766   20.5238 C   0  0  0  0  0  0  0  0  0  0  0  0
  -19.4115  -22.8266   21.1656 C   0  0  0  0  0  0  0  0  0  0  0  0
  -21.2715  -26.8260   18.8170 C   0  0  0  0  0  0  0  0  0  0  0  0
  -22.7609  -26.9445   18.5606 C   0  0  0  0  0  0  0  0  0  1  0  0
  -29.6180  -24.1872   18.1412 C   0  0  1  0  0  0  0  0  0  0  0  0
  -28.6717  -21.0352   20.0225 C   0  0  2  0  0  0  0  0  0  0  0  0
  -19.5886  -26.7156   20.6594 C   0  0  2  0  0  0  0  0  0  0  0  0
  -30.4817  -24.1135   16.8505 C   0  0  0  0  0  0  0  0  0  0  0  0
  -26.0989  -14.4346   20.9882 N   0  0  0  0  0  0  0  0  0  0  0  0
  -24.8504  -14.5050   21.4804 N   0  0  0  0  0  0  0  0  0  0  0  0
  -29.1489  -26.2756   19.3830 N   0  0  0  0  0  0  0  0  0  0  0  0
  -23.3624  -17.9802   22.0318 N   0  0  0  0  0  0  0  0  0  0  0  0
  -21.6505  -19.5170   22.6880 N   0  0  0  0  0  0  0  0  0  0  0  0
  -22.8205  -13.2976   21.6612 N   0  0  0  0  0  0  0  0  0  0  0  0
  -25.5021  -10.4882   19.3563 N   0  0  0  0  0  0  0  0  0  0  0  0
  -30.9655  -29.3450   19.4766 N   0  0  0  0  0  0  0  0  0  0  0  0
  -29.5993  -22.9530   18.9189 N   0  0  0  0  0  0  0  0  0  0  0  0
  -20.2267  -21.8894   22.0122 N   0  3  0  0  0  0  0  0  0  0  0  0
  -27.5401  -20.7963   20.9625 N   0  3  0  0  0  0  0  0  0  0  0  0
  -21.0283  -26.7785   20.2821 N   0  3  0  0  0  0  0  0  0  0  0  0
  -23.4008  -10.7548   20.2350 O   0  0  0  0  0  0  0  0  0  0  0  0
  -29.2864  -28.5671   18.0631 O   0  0  0  0  0  0  0  0  0  0  0  0
  -31.2260  -25.2282   19.5401 O   0  0  0  0  0  0  0  0  0  0  0  0
  -27.3013  -22.6490   18.8585 O   0  0  0  0  0  0  0  0  0  0  0  0
  -21.1457  -17.3508   22.0816 O   0  0  0  0  0  0  0  0  0  0  0  0
  -30.7833  -11.4546   17.8697 O   0  0  0  0  0  0  0  0  0  0  0  0
  -23.2577  -28.1239   19.1793 O   0  0  0  0  0  0  0  0  0  1  0  0
  -32.4376   -6.2886   18.8597 F   0  0  0  0  0  0  0  0  0  0  0  0
  -29.1593   -9.3031   17.2563 F   0  0  0  0  0  0  0  0  0  0  0  0
  1  2  1  0  0  0  0
  1  5  2  0  0  0  0
  2  6  2  0  0  0  0
  3  8  2  0  0  0  0
  3 15  1  0  0  0  0
  4  9  1  0  0  0  0
  4 15  2  0  0  0  0
  5 17  1  0  0  0  0
  6 19  1  0  0  0  0
  7 10  2  0  0  0  0
  7 18  1  0  0  0  0
  8 21  1  0  0  0  0
  9 21  2  0  0  0  0
 10 22  1  0  0  0  0
 11 12  2  0  0  0  0
 11 23  1  0  0  0  0
 12 24  1  0  0  0  0
 13 20  1  0  0  0  0
 13 22  2  0  0  0  0
 14 24  2  0  0  0  0
 14 25  1  0  0  0  0
 15 26  1  0  0  0  0
 16 26  1  0  0  0  0
 16 27  2  0  0  0  0
 16 28  1  0  0  0  0
 17 19  2  0  0  0  0
 17 33  1  0  0  0  0
 18 20  2  0  0  0  0
 18 34  1  0  0  0  0
 19 49  1  0  0  0  0
 20 35  1  0  0  0  0
 21 84  1  0  0  0  0
 22 85  1  0  0  0  0
 23 25  2  0  0  0  0
 23 84  1  0  0  0  0
 24 86  1  0  0  0  0
 25 87  1  0  0  0  0
 26 67  2  0  0  0  0
 27 68  1  0  0  0  0
 27 72  1  0  0  0  0
 28 73  1  0  0  0  0
 28 79  2  0  0  0  0
 29 50  1  0  0  0  0
 29 74  1  0  0  0  0
 29 80  2  0  0  0  0
 30 63  1  0  0  0  0
 30 69  1  0  0  0  0
 30 81  2  0  0  0  0
 31 64  1  0  0  0  0
 31 75  1  0  0  0  0
 31 82  2  0  0  0  0
 32 70  1  0  0  0  0
 32 71  1  0  0  0  0
 32 83  2  0  0  0  0
 33 36  1  0  0  0  0
 34 50  1  0  0  0  0
 35 69  1  0  0  0  0
 36 39  1  0  0  0  0
 37 40  1  0  0  0  0
 37 41  1  0  0  0  0
 38 42  1  0  0  0  0
 38 43  1  0  0  0  0
 39 49  1  0  0  0  0
 40 51  1  0  0  0  0
 41 51  1  0  0  0  0
 42 52  1  0  0  0  0
 43 70  1  0  0  0  0
 44 47  1  0  0  0  0
 44 71  1  0  0  0  0
 45 48  1  0  0  0  0
 45 71  1  0  0  0  0
 46 52  1  0  0  0  0
 46 70  1  0  0  0  0
 47 76  1  0  0  0  0
 48 76  1  0  0  0  0
 49 74  1  0  0  0  0
 50 69  1  0  0  0  0
 51 65  1  0  0  0  0
 52 68  1  0  0  0  0
 53 64  1  0  0  0  0
 54 66  1  0  0  0  0
 55 66  1  0  0  0  0
 56 66  1  0  0  0  0
 57 77  1  0  0  0  0
 58 59  1  0  0  0  0
 58 60  1  0  0  0  0
 59 65  1  0  0  0  0
 60 76  1  0  0  0  0
 61 62  1  0  0  0  0
 61 78  1  0  0  0  0
 62 85  1  0  0  0  0
 63 66  1  0  0  0  0
 63 75  1  0  0  0  0
 64 77  1  0  0  0  0
 65 78  1  0  0  0  0
 67 68  1  0  0  0  0
M  CHG  3  76   1  77   1  78   1
M  ISO  4  32 100  62 101  71 100  85 101
M  END
> <Batch ID>
0124

> <Smiles>
CNC(C)C(=O)NC(C(=O)N1Cc2cc([101O:1][101CH2:1]CNC(CCCN3CC[100N:0]([100C:0](=O)N4CCCC(n5nc(-c6ccc(Oc7ccc(F)cc7F)cc6)c(C(N)=O)c5N)C4)CC3)C3CCC3)ccc2CC1C(=O)NC1CCCc2ccccc21)C(C)(C)C

> <Shape>
0.241

> <Color>
0.075

> <Negative vol penalty>
0.000

$$$$

  -OEChem-04052320333D

 85 93  0     1  0  0  0  0  0999 V2000
  -16.8904  -20.6114   28.7967 C   0  0  0  0  0  0  0  0  0  0  0  0
  -17.8470  -20.4997   27.7928 C   0  0  0  0  0  0  0  0  0  0  0  0
  -23.0418   -9.9368   19.9143 C   0  0  0  0  0  0  0  0  0  0  0  0
  -23.8779   -9.8224   22.1781 C   0  0  0  0  0  0  0  0  0  0  0  0
  -15.9637  -21.6525   28.7623 C   0  0  0  0  0  0  0  0  0  0  0  0
  -17.8766  -21.4285   26.7531 C   0  0  0  0  0  0  0  0  0  0  0  0
  -22.5670  -23.0274   25.7096 C   0  0  0  0  0  0  0  0  0  0  0  0
  -22.3021   -8.7738   20.1287 C   0  0  0  0  0  0  0  0  0  0  0  0
  -23.1382   -8.6594   22.3926 C   0  0  0  0  0  0  0  0  0  0  0  0
  -23.3786  -22.1754   24.9619 C   0  0  0  0  0  0  0  0  0  0  0  0
  -19.9289   -7.8383   23.0607 C   0  0  0  0  0  0  0  0  0  0  0  0
  -19.2113   -7.7389   24.2527 C   0  0  0  0  0  0  0  0  0  0  0  0
  -26.2105  -19.0686   19.7043 C   0  0  0  0  0  0  0  0  0  0  0  0
  -25.0058  -19.7362   20.0363 C   0  0  0  0  0  0  0  0  0  0  0  0
  -22.8962  -23.4643   22.9807 C   0  0  0  0  0  0  0  0  0  0  0  0
  -20.4690   -5.7630   24.8451 C   0  0  0  0  0  0  0  0  0  0  0  0
  -23.8297  -10.4611   20.9390 C   0  0  0  0  0  0  0  0  0  0  0  0
  -24.1773  -12.9883   20.9393 C   0  0  0  0  0  0  0  0  0  0  0  0
  -15.9880  -22.6001   27.7268 C   0  0  0  0  0  0  0  0  0  0  0  0
  -21.9041  -24.0997   25.0954 C   0  0  0  0  0  0  0  0  0  0  0  0
  -16.9485  -22.4825   26.7040 C   0  0  0  0  0  0  0  0  0  0  0  0
  -22.0788  -24.3300   23.7233 C   0  0  0  0  0  0  0  0  0  0  0  0
  -22.3503   -8.1351   21.3678 C   0  0  0  0  0  0  0  0  0  0  0  0
  -23.5410  -22.3920   23.5967 C   0  0  0  0  0  0  0  0  0  0  0  0
  -20.9165   -6.8999   22.7609 C   0  0  0  0  0  0  0  0  0  0  0  0
  -19.4814   -6.7013   25.1449 C   0  0  0  0  0  0  0  0  0  0  0  0
  -21.1865   -5.8623   23.6531 C   0  0  0  0  0  0  0  0  0  0  0  0
  -24.5944  -11.6621   20.7180 C   0  0  0  0  0  0  0  0  0  0  0  0
  -27.2403  -19.7510   20.3134 C   0  0  0  0  0  0  0  0  0  0  0  0
  -25.3362  -20.8065   20.8380 C   0  0  0  0  0  0  0  0  0  0  0  0
  -25.2596  -13.7533   20.5791 C   0  0  0  0  0  0  0  0  0  0  0  0
  -22.9235  -13.4843   21.4270 C   0  0  0  0  0  0  0  0  0  0  0  0
  -18.8596  -24.9153   24.6837 C   0  0  0  0  0  0  0  0  0  0  0  0
  -20.1563  -27.6261   23.4622 C   0  0  0  0  0  0  0  0  0  0  0  0
  -22.8356  -29.1522   21.9994 C   0  0  0  0  0  0  0  0  0  0  0  0
  -30.7506  -14.7491   20.6361 C   0  0  0  0  0  0  0  0  0  0  0  0
  -14.9360  -23.6806   27.7067 C   0  0  0  0  0  0  0  0  0  0  0  0
  -21.0535  -25.0256   25.9209 C   0  0  0  0  0  0  0  0  0  0  0  0
  -21.4053  -25.4791   23.0200 C   0  0  0  0  0  0  0  0  0  0  0  0
  -15.2713  -24.8399   26.7719 C   0  0  0  0  0  0  0  0  0  0  0  0
  -29.5245  -12.4950   18.1679 C   0  0  0  0  0  0  0  0  0  0  0  0
  -15.7486  -24.3156   25.4212 C   0  0  0  0  0  0  0  0  0  0  0  0
  -28.1011  -12.1822   18.6329 C   0  0  0  0  0  0  0  0  0  0  0  0
  -30.4821  -12.6508   19.3472 C   0  0  0  0  0  0  0  0  0  0  0  0
  -28.6306  -13.3127   20.8331 C   0  0  0  0  0  0  0  0  0  0  0  0
  -17.0284  -23.4846   25.5729 C   0  0  1  0  0  0  0  0  0  0  0  0
  -20.0170  -25.7808   25.0946 C   0  0  1  0  0  0  0  0  0  0  0  0
  -27.6170  -13.2019   19.6813 C   0  0  2  0  0  0  0  0  0  0  0  0
  -23.5836  -31.3650   21.0822 C   0  0  0  0  0  0  0  0  0  0  0  0
  -28.9127  -23.8518   21.7876 C   0  0  0  0  0  0  0  0  0  0  0  0
  -27.0883  -23.5975   20.0926 C   0  0  0  0  0  0  0  0  0  0  0  0
  -18.4691  -27.1581   20.9633 C   0  0  0  0  0  0  0  0  0  0  0  0
  -19.9276  -28.7965   19.7564 C   0  0  0  0  0  0  0  0  0  0  0  0
  -18.5775  -29.5400   21.7178 C   0  0  0  0  0  0  0  0  0  0  0  0
  -25.0432  -29.3498   23.9605 C   0  0  0  0  0  0  0  0  0  0  0  0
  -28.6933  -19.4838   20.2969 C   0  0  0  0  0  0  0  0  0  0  0  0
  -24.4537  -21.8420   21.4706 C   0  0  0  0  0  0  0  0  0  1  0  0
  -27.4461  -21.7711   21.7762 C   0  0  0  0  0  0  0  0  0  0  0  0
  -30.8662  -16.8321   21.9805 C   0  0  0  0  0  0  0  0  0  0  0  0
  -30.5567  -18.0242   21.0943 C   0  0  0  0  0  0  0  0  0  0  0  0
  -20.6032  -28.0740   22.0915 C   0  0  1  0  0  0  0  0  0  0  0  0
  -23.5395  -30.4620   22.3050 C   0  0  2  0  0  0  0  0  0  0  0  0
  -28.1339  -22.8547   20.9268 C   0  0  0  0  0  0  0  0  0  0  0  0
  -19.4056  -28.3693   21.1448 C   0  0  0  0  0  0  0  0  0  0  0  0
  -25.8442  -11.5855   20.2531 N   0  0  0  0  0  0  0  0  0  0  0  0
  -26.6971  -20.8057   20.9996 N   0  0  0  0  0  0  0  0  0  0  0  0
  -26.2217  -12.8731   20.1792 N   0  0  0  0  0  0  0  0  0  0  0  0
  -20.5788  -26.3527   23.8692 N   0  0  0  0  0  0  0  0  0  0  0  0
  -29.9655  -13.6329   20.3035 N   0  0  0  0  0  0  0  0  0  0  0  0
  -25.4727  -15.0863   20.5686 N   0  0  0  0  0  0  0  0  0  0  0  0
  -21.9199  -12.5610   21.7502 N   0  0  0  0  0  0  0  0  0  0  0  0
  -18.1757  -24.3501   25.7431 N   0  0  0  0  0  0  0  0  0  0  0  0
  -21.4919  -29.2114   22.3033 N   0  0  0  0  0  0  0  0  0  0  0  0
  -30.1835  -15.6341   21.5451 N   0  0  0  0  0  0  0  0  0  0  0  0
  -24.9382  -30.2064   22.7513 N   0  3  0  0  0  0  0  0  0  0  0  0
  -29.1060  -18.3304   21.1532 N   0  3  0  0  0  0  0  0  0  0  0  0
  -22.6942  -14.7108   21.5562 O   0  0  0  0  0  0  0  0  0  0  0  0
  -18.6049  -24.7721   23.4936 O   0  0  0  0  0  0  0  0  0  0  0  0
  -19.4641  -28.3813   24.1493 O   0  0  0  0  0  0  0  0  0  0  0  0
  -23.4185  -28.1755   21.5338 O   0  0  0  0  0  0  0  0  0  0  0  0
  -31.8714  -14.9456   20.1544 O   0  0  0  0  0  0  0  0  0  0  0  0
  -21.6285   -7.0004   21.5774 O   0  0  0  0  0  0  0  0  0  0  0  0
  -24.3321  -21.5614   22.8644 O   0  0  0  0  0  0  0  0  0  1  0  0
  -18.7933   -6.6069   26.2902 F   0  0  0  0  0  0  0  0  0  0  0  0
  -22.1349   -4.9585   23.3711 F   0  0  0  0  0  0  0  0  0  0  0  0
  1  2  1  0  0  0  0
  1  5  2  0  0  0  0
  2  6  2  0  0  0  0
  3  8  2  0  0  0  0
  3 17  1  0  0  0  0
  4  9  1  0  0  0  0
  4 17  2  0  0  0  0
  5 19  1  0  0  0  0
  6 21  1  0  0  0  0
  7 10  2  0  0  0  0
  7 20  1  0  0  0  0
  8 23  1  0  0  0  0
  9 23  2  0  0  0  0
 10 24  1  0  0  0  0
 11 12  2  0  0  0  0
 11 25  1  0  0  0  0
 12 26  1  0  0  0  0
 13 14  1  0  0  0  0
 13 29  2  0  0  0  0
 14 30  2  0  0  0  0
 15 22  1  0  0  0  0
 15 24  2  0  0  0  0
 16 26  2  0  0  0  0
 16 27  1  0  0  0  0
 17 28  1  0  0  0  0
 18 28  1  0  0  0  0
 18 31  2  0  0  0  0
 18 32  1  0  0  0  0
 19 21  2  0  0  0  0
 19 37  1  0  0  0  0
 20 22  2  0  0  0  0
 20 38  1  0  0  0  0
 21 46  1  0  0  0  0
 22 39  1  0  0  0  0
 23 82  1  0  0  0  0
 24 83  1  0  0  0  0
 25 27  2  0  0  0  0
 25 82  1  0  0  0  0
 26 84  1  0  0  0  0
 27 85  1  0  0  0  0
 28 65  2  0  0  0  0
 29 56  1  0  0  0  0
 29 66  1  0  0  0  0
 30 57  1  0  0  0  0
 30 66  1  0  0  0  0
 31 67  1  0  0  0  0
 31 70  1  0  0  0  0
 32 71  1  0  0  0  0
 32 77  2  0  0  0  0
 33 47  1  0  0  0  0
 33 72  1  0  0  0  0
 33 78  2  0  0  0  0
 34 61  1  0  0  0  0
 34 68  1  0  0  0  0
 34 79  2  0  0  0  0
 35 62  1  0  0  0  0
 35 73  1  0  0  0  0
 35 80  2  0  0  0  0
 36 69  1  0  0  0  0
 36 74  1  0  0  0  0
 36 81  2  0  0  0  0
 37 40  1  0  0  0  0
 38 47  1  0  0  0  0
 39 68  1  0  0  0  0
 40 42  1  0  0  0  0
 41 43  1  0  0  0  0
 41 44  1  0  0  0  0
 42 46  1  0  0  0  0
 43 48  1  0  0  0  0
 44 69  1  0  0  0  0
 45 48  1  0  0  0  0
 45 69  1  0  0  0  0
 46 72  1  0  0  0  0
 47 68  1  0  0  0  0
 48 67  1  0  0  0  0
 49 62  1  0  0  0  0
 50 63  1  0  0  0  0
 51 63  1  0  0  0  0
 52 64  1  0  0  0  0
 53 64  1  0  0  0  0
 54 64  1  0  0  0  0
 55 75  1  0  0  0  0
 56 76  1  0  0  0  0
 57 83  1  0  0  0  0
 58 63  1  0  0  0  0
 58 66  1  0  0  0  0
 59 60  1  0  0  0  0
 59 74  1  0  0  0  0
 60 76  1  0  0  0  0
 61 64  1  0  0  0  0
 61 73  1  0  0  0  0
 62 75  1  0  0  0  0
 65 67  1  0  0  0  0
M  CHG  2  75   1  76   1
M  ISO  4  36 100  57 101  74 100  83 101
M  END
> <Batch ID>
0124

> <Smiles>
CNC(C)C(=O)NC(C(=O)N1Cc2cc([101O:1][101CH2:1]c3ccc(CNCC[100NH:0][100C:0](=O)N4CCCC(n5nc(-c6ccc(Oc7ccc(F)cc7F)cc6)c(C(N)=O)c5N)C4)n3CC(C)C)ccc2CC1C(=O)NC1CCCc2ccccc21)C(C)(C)C

> <Shape>
0.287

> <Color>
0.210

> <Negative vol penalty>
0.000

$$$$

  -OEChem-04052320333D

 80 88  0     1  0  0  0  0  0999 V2000
  -22.0762  -11.4347   19.2014 C   0  0  0  0  0  0  0  0  0  0  0  0
  -21.8235  -12.7712   19.4933 C   0  0  0  0  0  0  0  0  0  0  0  0
  -25.1819  -28.2756   19.0403 C   0  0  0  0  0  0  0  0  0  0  0  0
  -25.6853  -29.2419   21.1966 C   0  0  0  0  0  0  0  0  0  0  0  0
  -23.3084  -10.8713   19.5305 C   0  0  0  0  0  0  0  0  0  0  0  0
  -22.8026  -13.5449   20.1155 C   0  0  0  0  0  0  0  0  0  0  0  0
  -23.3114  -18.1126   17.9888 C   0  0  0  0  0  0  0  0  0  0  0  0
  -26.4489  -27.6931   19.0055 C   0  0  0  0  0  0  0  0  0  0  0  0
  -26.9523  -28.6594   21.1619 C   0  0  0  0  0  0  0  0  0  0  0  0
  -22.3558  -19.0752   18.3115 C   0  0  0  0  0  0  0  0  0  0  0  0
  -28.3070  -25.6126   21.7116 C   0  0  0  0  0  0  0  0  0  0  0  0
  -28.7590  -24.9784   22.8688 C   0  0  0  0  0  0  0  0  0  0  0  0
  -23.8857  -20.0528   19.8999 C   0  0  0  0  0  0  0  0  0  0  0  0
  -30.6382  -26.4938   22.9654 C   0  0  0  0  0  0  0  0  0  0  0  0
  -24.8002  -29.0501   20.1358 C   0  0  0  0  0  0  0  0  0  0  0  0
  -22.9557  -30.5764   19.2551 C   0  0  0  0  0  0  0  0  0  0  0  0
  -24.3065  -11.6411   20.1484 C   0  0  0  0  0  0  0  0  0  0  0  0
  -24.5594  -18.1063   18.6282 C   0  0  0  0  0  0  0  0  0  0  0  0
  -24.0488  -12.9910   20.4544 C   0  0  0  0  0  0  0  0  0  0  0  0
  -24.8563  -19.0906   19.5817 C   0  0  0  0  0  0  0  0  0  0  0  0
  -27.3340  -27.8850   20.0663 C   0  0  0  0  0  0  0  0  0  0  0  0
  -22.6418  -20.0437   19.2692 C   0  0  0  0  0  0  0  0  0  0  0  0
  -29.0207  -26.6874   21.1813 C   0  0  0  0  0  0  0  0  0  0  0  0
  -29.9245  -25.4189   23.4957 C   0  0  0  0  0  0  0  0  0  0  0  0
  -30.1862  -27.1280   21.8082 C   0  0  0  0  0  0  0  0  0  0  0  0
  -23.4918  -29.6525   20.1720 C   0  0  0  0  0  0  0  0  0  0  0  0
  -21.6935  -30.8380   19.7296 C   0  0  0  0  0  0  0  0  0  0  0  0
  -23.5457  -31.1472   18.0797 C   0  0  0  0  0  0  0  0  0  0  0  0
  -26.1138  -16.0549   20.4935 C   0  0  0  0  0  0  0  0  0  0  0  0
  -28.5274  -18.1990   20.1786 C   0  0  0  0  0  0  0  0  0  0  0  0
  -29.4839  -21.4102   19.5302 C   0  0  0  0  0  0  0  0  0  0  0  0
  -17.8981  -27.7215   23.1549 C   0  0  0  0  0  0  0  0  0  0  0  0
  -25.6057  -10.9757   20.5279 C   0  0  0  0  0  0  0  0  0  0  0  0
  -25.5891  -17.0773   18.2496 C   0  0  0  0  0  0  0  0  0  0  0  0
  -26.1887  -19.1397   20.2822 C   0  0  0  0  0  0  0  0  0  0  0  0
  -26.7254  -11.9631   20.8467 C   0  0  0  0  0  0  0  0  0  0  0  0
  -19.1771  -30.9817   23.7963 C   0  0  0  0  0  0  0  0  0  0  0  0
  -26.2182  -13.0652   21.7713 C   0  0  0  0  0  0  0  0  0  0  0  0
  -20.3796  -31.0941   22.8574 C   0  0  0  0  0  0  0  0  0  0  0  0
  -20.2931  -22.4584   22.7470 C   0  0  0  0  0  0  0  0  0  0  0  0
  -19.7564  -22.9442   20.3332 C   0  0  0  0  0  0  0  0  0  0  0  0
  -19.0289  -29.5689   24.3567 C   0  0  0  0  0  0  0  0  0  0  0  0
  -20.1857  -28.6135   22.4016 C   0  0  0  0  0  0  0  0  0  0  0  0
  -18.9044  -22.9380   23.1458 C   0  0  0  0  0  0  0  0  0  0  0  0
  -18.3702  -23.4210   20.7441 C   0  0  0  0  0  0  0  0  0  0  0  0
  -25.0945  -13.8694   21.1064 C   0  0  1  0  0  0  0  0  0  0  0  0
  -26.6382  -16.8545   19.3345 C   0  0  1  0  0  0  0  0  0  0  0  0
  -20.3178  -21.9103   21.3157 C   0  0  0  0  0  0  0  0  0  0  0  0
  -20.3436  -30.0061   21.7674 C   0  0  2  0  0  0  0  0  0  0  0  0
  -31.5219  -22.8670   19.3830 C   0  0  0  0  0  0  0  0  0  0  0  0
  -28.6913  -18.2734   23.2245 C   0  0  0  0  0  0  0  0  0  0  0  0
  -30.0278  -20.3816   23.0316 C   0  0  0  0  0  0  0  0  0  0  0  0
  -30.9049  -18.2578   22.0608 C   0  0  0  0  0  0  0  0  0  0  0  0
  -28.9791  -22.0276   16.6801 C   0  0  0  0  0  0  0  0  0  0  0  0
  -21.7332  -21.4969   20.9180 C   0  0  0  0  0  0  0  0  0  1  0  0
  -16.8855  -25.8759   21.8404 C   0  0  0  0  0  0  0  0  0  0  0  0
  -17.1038  -24.5603   22.5639 C   0  0  0  0  0  0  0  0  0  0  0  0
  -28.9693  -19.4298   20.9329 C   0  0  1  0  0  0  0  0  0  0  0  0
  -30.5557  -21.9770   18.6168 C   0  0  2  0  0  0  0  0  0  0  0  0
  -29.6224  -19.0838   22.3008 C   0  0  0  0  0  0  0  0  0  0  0  0
  -22.6400  -29.3477   21.1547 N   0  0  0  0  0  0  0  0  0  0  0  0
  -21.5559  -30.0844   20.8580 N   0  0  0  0  0  0  0  0  0  0  0  0
  -27.1601  -18.1083   19.8821 N   0  0  0  0  0  0  0  0  0  0  0  0
  -18.9996  -28.5851   23.2718 N   0  0  0  0  0  0  0  0  0  0  0  0
  -20.6991  -31.6368   19.2874 N   0  0  0  0  0  0  0  0  0  0  0  0
  -24.2671  -32.3421   18.2070 N   0  0  0  0  0  0  0  0  0  0  0  0
  -25.6417  -14.8036   20.1460 N   0  0  0  0  0  0  0  0  0  0  0  0
  -29.8380  -20.1737   20.0272 N   0  0  0  0  0  0  0  0  0  0  0  0
  -17.9472  -26.8239   22.0953 N   0  0  0  0  0  0  0  0  0  0  0  0
  -18.4217  -23.9649   22.1508 N   0  3  0  0  0  0  0  0  0  0  0  0
  -29.9351  -22.7845   17.5288 N   0  3  0  0  0  0  0  0  0  0  0  0
  -23.4227  -30.6221   16.9471 O   0  0  0  0  0  0  0  0  0  0  0  0
  -26.1371  -16.5369   21.6199 O   0  0  0  0  0  0  0  0  0  0  0  0
  -29.3658  -17.3529   19.8578 O   0  0  0  0  0  0  0  0  0  0  0  0
  -28.4389  -22.0065   19.7810 O   0  0  0  0  0  0  0  0  0  0  0  0
  -16.9392  -27.7518   23.9337 O   0  0  0  0  0  0  0  0  0  0  0  0
  -28.5703  -27.3166   20.0328 O   0  0  0  0  0  0  0  0  0  0  0  0
  -21.7107  -20.9840   19.5865 O   0  0  0  0  0  0  0  0  0  1  0  0
  -30.3576  -24.8107   24.6078 F   0  0  0  0  0  0  0  0  0  0  0  0
  -30.8754  -28.1608   21.3041 F   0  0  0  0  0  0  0  0  0  0  0  0
  1  2  1  0  0  0  0
  1  5  2  0  0  0  0
  2  6  2  0  0  0  0
  3  8  2  0  0  0  0
  3 15  1  0  0  0  0
  4  9  1  0  0  0  0
  4 15  2  0  0  0  0
  5 17  1  0  0  0  0
  6 19  1  0  0  0  0
  7 10  2  0  0  0  0
  7 18  1  0  0  0  0
  8 21  1  0  0  0  0
  9 21  2  0  0  0  0
 10 22  1  0  0  0  0
 11 12  2  0  0  0  0
 11 23  1  0  0  0  0
 12 24  1  0  0  0  0
 13 20  1  0  0  0  0
 13 22  2  0  0  0  0
 14 24  2  0  0  0  0
 14 25  1  0  0  0  0
 15 26  1  0  0  0  0
 16 26  1  0  0  0  0
 16 27  2  0  0  0  0
 16 28  1  0  0  0  0
 17 19  2  0  0  0  0
 17 33  1  0  0  0  0
 18 20  2  0  0  0  0
 18 34  1  0  0  0  0
 19 46  1  0  0  0  0
 20 35  1  0  0  0  0
 21 77  1  0  0  0  0
 22 78  1  0  0  0  0
 23 25  2  0  0  0  0
 23 77  1  0  0  0  0
 24 79  1  0  0  0  0
 25 80  1  0  0  0  0
 26 61  2  0  0  0  0
 27 62  1  0  0  0  0
 27 65  1  0  0  0  0
 28 66  1  0  0  0  0
 28 72  2  0  0  0  0
 29 47  1  0  0  0  0
 29 67  1  0  0  0  0
 29 73  2  0  0  0  0
 30 58  1  0  0  0  0
 30 63  1  0  0  0  0
 30 74  2  0  0  0  0
 31 59  1  0  0  0  0
 31 68  1  0  0  0  0
 31 75  2  0  0  0  0
 32 64  1  0  0  0  0
 32 69  1  0  0  0  0
 32 76  2  0  0  0  0
 33 36  1  0  0  0  0
 34 47  1  0  0  0  0
 35 63  1  0  0  0  0
 36 38  1  0  0  0  0
 37 39  1  0  0  0  0
 37 42  1  0  0  0  0
 38 46  1  0  0  0  0
 39 49  1  0  0  0  0
 40 44  1  0  0  0  0
 40 48  1  0  0  0  0
 41 45  1  0  0  0  0
 41 48  1  0  0  0  0
 42 64  1  0  0  0  0
 43 49  1  0  0  0  0
 43 64  1  0  0  0  0
 44 70  1  0  0  0  0
 45 70  1  0  0  0  0
 46 67  1  0  0  0  0
 47 63  1  0  0  0  0
 48 55  1  0  0  0  0
 49 62  1  0  0  0  0
 50 59  1  0  0  0  0
 51 60  1  0  0  0  0
 52 60  1  0  0  0  0
 53 60  1  0  0  0  0
 54 71  1  0  0  0  0
 55 78  1  0  0  0  0
 56 57  1  0  0  0  0
 56 69  1  0  0  0  0
 57 70  1  0  0  0  0
 58 60  1  0  0  0  0
 58 68  1  0  0  0  0
 59 71  1  0  0  0  0
 61 62  1  0  0  0  0
M  CHG  2  70   1  71   1
M  ISO  4  32 100  55 101  69 100  78 101
M  END
> <Batch ID>
0124

> <Smiles>
CNC(C)C(=O)NC(C(=O)N1Cc2cc([101O:1][101CH2:1]C3CCN(CC[100NH:0][100C:0](=O)N4CCCC(n5nc(-c6ccc(Oc7ccc(F)cc7F)cc6)c(C(N)=O)c5N)C4)CC3)ccc2CC1C(=O)NC1CCCc2ccccc21)C(C)(C)C

> <Shape>
0.237

> <Color>
0.075

> <Negative vol penalty>
0.000

$$$$

  -OEChem-04052320333D

 87 97  0     1  0  0  0  0  0999 V2000
  -27.5677  -20.6705   27.4163 C   0  0  0  0  0  0  0  0  0  0  0  0
  -27.8014  -21.7688   26.5966 C   0  0  0  0  0  0  0  0  0  0  0  0
  -26.8854  -12.9065   19.5325 C   0  0  0  0  0  0  0  0  0  0  0  0
  -25.7758  -13.2746   21.6468 C   0  0  0  0  0  0  0  0  0  0  0  0
  -26.2778  -20.1582   27.5379 C   0  0  0  0  0  0  0  0  0  0  0  0
  -26.7433  -22.3625   25.9074 C   0  0  0  0  0  0  0  0  0  0  0  0
  -27.7118  -26.5378   23.4924 C   0  0  0  0  0  0  0  0  0  0  0  0
  -25.8319  -12.0898   19.1218 C   0  0  0  0  0  0  0  0  0  0  0  0
  -24.7222  -12.4580   21.2361 C   0  0  0  0  0  0  0  0  0  0  0  0
  -28.4677  -26.5732   22.3214 C   0  0  0  0  0  0  0  0  0  0  0  0
  -24.0937   -9.1465   20.9719 C   0  0  0  0  0  0  0  0  0  0  0  0
  -23.6126   -8.2035   21.8801 C   0  0  0  0  0  0  0  0  0  0  0  0
  -26.4468  -26.8454   21.0324 C   0  0  0  0  0  0  0  0  0  0  0  0
  -21.4297   -9.2355   21.7951 C   0  0  0  0  0  0  0  0  0  0  0  0
  -26.8574  -13.4989   20.7950 C   0  0  0  0  0  0  0  0  0  0  0  0
  -29.2997  -13.9802   21.3532 C   0  0  0  0  0  0  0  0  0  0  0  0
  -25.2061  -20.7388   26.8398 C   0  0  0  0  0  0  0  0  0  0  0  0
  -26.3146  -26.6451   23.4412 C   0  0  0  0  0  0  0  0  0  0  0  0
  -25.4302  -21.8749   26.0357 C   0  0  0  0  0  0  0  0  0  0  0  0
  -25.6758  -26.8136   22.2044 C   0  0  0  0  0  0  0  0  0  0  0  0
  -24.7503  -11.8656   19.9735 C   0  0  0  0  0  0  0  0  0  0  0  0
  -27.8349  -26.7242   21.0909 C   0  0  0  0  0  0  0  0  0  0  0  0
  -23.2429  -10.1340   20.4753 C   0  0  0  0  0  0  0  0  0  0  0  0
  -22.2806   -8.2480   22.2917 C   0  0  0  0  0  0  0  0  0  0  0  0
  -21.9109  -10.1785   20.8868 C   0  0  0  0  0  0  0  0  0  0  0  0
  -27.9457  -14.3421   21.2201 C   0  0  0  0  0  0  0  0  0  0  0  0
  -29.9211  -15.1274   21.7824 C   0  0  0  0  0  0  0  0  0  0  0  0
  -29.9385  -12.7198   21.1104 C   0  0  0  0  0  0  0  0  0  0  0  0
  -23.8887  -24.7611   24.2591 C   0  0  0  0  0  0  0  0  0  0  0  0
  -22.1149  -27.3649   23.4868 C   0  0  0  0  0  0  0  0  0  0  0  0
  -21.8600  -30.2796   21.7301 C   0  0  0  0  0  0  0  0  0  0  0  0
  -28.5846  -20.9381   21.2347 C   0  0  0  0  0  0  0  0  0  0  0  0
  -23.8289  -20.1487   27.0138 C   0  0  0  0  0  0  0  0  0  0  0  0
  -25.5158  -26.6319   24.7156 C   0  0  0  0  0  0  0  0  0  0  0  0
  -24.1800  -26.9536   22.0970 C   0  0  0  0  0  0  0  0  0  0  0  0
  -22.8611  -20.5620   25.9098 C   0  0  0  0  0  0  0  0  0  0  0  0
  -28.7545  -24.7807   14.7012 C   0  0  0  0  0  0  0  0  0  0  0  0
  -29.0887  -19.1335   24.2622 C   0  0  0  0  0  0  0  0  0  0  0  0
  -33.0530  -21.1503   17.3366 C   0  0  0  0  0  0  0  0  0  0  0  0
  -22.9079  -22.0702   25.7154 C   0  0  0  0  0  0  0  0  0  0  0  0
  -28.9751  -17.6682   23.8379 C   0  0  0  0  0  0  0  0  0  0  0  0
  -29.3683  -23.4868   15.2834 C   0  0  0  0  0  0  0  0  0  0  0  0
  -29.2720  -25.5038   15.9656 C   0  0  0  0  0  0  0  0  0  0  0  0
  -32.4799  -22.5630   17.2526 C   0  0  0  0  0  0  0  0  0  0  0  0
  -31.0509  -26.8359   19.8064 C   0  0  0  0  0  0  0  0  0  0  0  0
  -28.1173  -20.0221   23.4884 C   0  0  0  0  0  0  0  0  0  0  0  0
  -28.0951  -18.4429   21.5964 C   0  0  0  0  0  0  0  0  0  0  0  0
  -32.6472  -20.4583   18.6264 C   0  0  0  0  0  0  0  0  0  0  0  0
  -24.3000  -22.5182   25.2526 C   0  0  1  0  0  0  0  0  0  0  0  0
  -24.0584  -26.2339   24.5032 C   0  0  1  0  0  0  0  0  0  0  0  0
  -30.5563  -26.0258   18.6401 C   0  0  2  0  0  0  0  0  0  0  0  0
  -29.0946  -17.5162   22.3095 C   0  0  2  0  0  0  0  0  0  0  0  0
  -30.3492  -24.4006   16.0497 C   0  0  0  0  0  0  0  0  0  0  0  0
  -30.9561  -22.5629   17.4420 C   0  0  1  0  0  0  0  0  0  0  0  0
  -29.7923  -26.0217   19.9372 C   0  0  2  0  0  0  0  0  0  1  0  0
  -30.5567  -21.8583   18.7499 C   0  0  1  0  0  0  0  0  0  0  0  0
  -20.2757  -32.1707   21.2709 C   0  0  0  0  0  0  0  0  0  0  0  0
  -20.5046  -25.5607   21.6262 C   0  0  0  0  0  0  0  0  0  0  0  0
  -19.6073  -27.6198   20.5201 C   0  0  0  0  0  0  0  0  0  0  0  0
  -19.1377  -27.1971   22.9333 C   0  0  0  0  0  0  0  0  0  0  0  0
  -23.7297  -32.2745   22.8631 C   0  0  0  0  0  0  0  0  0  0  0  0
  -31.2976  -24.8095   18.2045 C   0  0  0  0  0  0  0  0  0  0  0  0
  -29.0482  -21.7029   18.9197 C   0  0  0  0  0  0  0  0  0  0  0  0
  -21.4664  -27.8807   22.2250 C   0  0  1  0  0  0  0  0  0  0  0  0
  -21.4149  -31.6703   22.1453 C   0  0  2  0  0  0  0  0  0  0  0  0
  -20.2070  -27.0600   21.8277 C   0  0  0  0  0  0  0  0  0  0  0  0
  -27.7196  -15.6192   21.5392 N   0  0  0  0  0  0  0  0  0  0  0  0
  -28.9398  -16.0699   21.8771 N   0  0  0  0  0  0  0  0  0  0  0  0
  -23.4422  -26.9283   23.3708 N   0  0  0  0  0  0  0  0  0  0  0  0
  -28.2831  -19.8314   22.0454 N   0  0  0  0  0  0  0  0  0  0  0  0
  -31.2057  -15.4118   22.0845 N   0  0  0  0  0  0  0  0  0  0  0  0
  -30.0335  -11.8043   22.1673 N   0  0  0  0  0  0  0  0  0  0  0  0
  -24.3649  -23.9627   25.2815 N   0  0  0  0  0  0  0  0  0  0  0  0
  -21.2091  -29.2992   22.4487 N   0  0  0  0  0  0  0  0  0  0  0  0
  -28.7314  -20.6688   19.8795 N   0  0  0  0  0  0  0  0  0  0  0  0
  -30.4583  -23.9401   17.4263 N   0  0  1  0  0  0  0  0  0  0  0  0
  -31.1595  -20.4784   18.7486 N   0  3  0  0  0  0  0  0  0  0  0  0
  -22.5486  -32.6313   22.0357 N   0  3  0  0  0  0  0  0  0  0  0  0
  -30.4257  -12.4210   19.9937 O   0  0  0  0  0  0  0  0  0  0  0  0
  -23.3631  -24.3774   23.2207 O   0  0  0  0  0  0  0  0  0  0  0  0
  -21.4699  -27.3564   24.5383 O   0  0  0  0  0  0  0  0  0  0  0  0
  -22.6984  -30.0826   20.8533 O   0  0  0  0  0  0  0  0  0  0  0  0
  -28.7186  -22.0807   21.6860 O   0  0  0  0  0  0  0  0  0  0  0  0
  -23.7219  -11.0690   19.5730 O   0  0  0  0  0  0  0  0  0  0  0  0
  -28.5702  -26.7584   19.9463 O   0  0  0  0  0  0  0  0  0  1  0  0
  -21.8182   -7.3415   23.1627 F   0  0  0  0  0  0  0  0  0  0  0  0
  -21.0884  -11.1241   20.4123 F   0  0  0  0  0  0  0  0  0  0  0  0
  1  2  1  0  0  0  0
  1  5  2  0  0  0  0
  2  6  2  0  0  0  0
  3  8  2  0  0  0  0
  3 15  1  0  0  0  0
  4  9  1  0  0  0  0
  4 15  2  0  0  0  0
  5 17  1  0  0  0  0
  6 19  1  0  0  0  0
  7 10  2  0  0  0  0
  7 18  1  0  0  0  0
  8 21  1  0  0  0  0
  9 21  2  0  0  0  0
 10 22  1  0  0  0  0
 11 12  2  0  0  0  0
 11 23  1  0  0  0  0
 12 24  1  0  0  0  0
 13 20  1  0  0  0  0
 13 22  2  0  0  0  0
 14 24  2  0  0  0  0
 14 25  1  0  0  0  0
 15 26  1  0  0  0  0
 16 26  1  0  0  0  0
 16 27  2  0  0  0  0
 16 28  1  0  0  0  0
 17 19  2  0  0  0  0
 17 33  1  0  0  0  0
 18 20  2  0  0  0  0
 18 34  1  0  0  0  0
 19 49  1  0  0  0  0
 20 35  1  0  0  0  0
 21 84  1  0  0  0  0
 22 85  1  0  0  0  0
 23 25  2  0  0  0  0
 23 84  1  0  0  0  0
 24 86  1  0  0  0  0
 25 87  1  0  0  0  0
 26 67  2  0  0  0  0
 27 68  1  0  0  0  0
 27 71  1  0  0  0  0
 28 72  1  0  0  0  0
 28 79  2  0  0  0  0
 29 50  1  0  0  0  0
 29 73  1  0  0  0  0
 29 80  2  0  0  0  0
 30 64  1  0  0  0  0
 30 69  1  0  0  0  0
 30 81  2  0  0  0  0
 31 65  1  0  0  0  0
 31 74  1  0  0  0  0
 31 82  2  0  0  0  0
 32 70  1  0  0  0  0
 32 75  1  0  0  0  0
 32 83  2  0  0  0  0
 33 36  1  0  0  0  0
 34 50  1  0  0  0  0
 35 69  1  0  0  0  0
 36 40  1  0  0  0  0
 37 42  1  0  0  0  0
 37 43  1  0  0  0  0
 38 41  1  0  0  0  0
 38 46  1  0  0  0  0
 39 44  1  0  0  0  0
 39 48  1  0  0  0  0
 40 49  1  0  0  0  0
 41 52  1  0  0  0  0
 42 53  1  0  0  0  0
 43 53  1  0  0  0  0
 44 54  1  0  0  0  0
 45 51  1  0  0  0  0
 45 55  1  0  0  0  0
 46 70  1  0  0  0  0
 47 52  1  0  0  0  0
 47 70  1  0  0  0  0
 48 77  1  0  0  0  0
 49 73  1  0  0  0  0
 50 69  1  0  0  0  0
 51 55  1  0  0  0  0
 51 62  1  0  0  0  0
 52 68  1  0  0  0  0
 53 76  1  0  0  0  0
 54 56  1  0  0  0  0
 54 76  1  0  0  0  0
 55 85  1  0  0  0  0
 56 63  1  0  0  0  0
 56 77  1  0  0  0  0
 57 65  1  0  0  0  0
 58 66  1  0  0  0  0
 59 66  1  0  0  0  0
 60 66  1  0  0  0  0
 61 78  1  0  0  0  0
 62 76  1  0  0  0  0
 63 75  1  0  0  0  0
 64 66  1  0  0  0  0
 64 74  1  0  0  0  0
 65 78  1  0  0  0  0
 67 68  1  0  0  0  0
M  CHG  2  77   1  78   1
M  ISO  4  32 100  55 101  75 100  85 101
M  END
> <Batch ID>
0124

> <Smiles>
CNC(C)C(=O)NC(C(=O)N1Cc2cc([101O:1][101CH:1]3CC3CN(C3CCC3)C3CCCNC3C[100NH:0][100C:0](=O)N3CCCC(n4nc(-c5ccc(Oc6ccc(F)cc6F)cc5)c(C(N)=O)c4N)C3)ccc2CC1C(=O)NC1CCCc2ccccc21)C(C)(C)C

> <Shape>
0.255

> <Color>
0.063

> <Negative vol penalty>
0.000

$$$$

  -OEChem-04052320333D

 85 93  0     1  0  0  0  0  0999 V2000
  -16.5552  -27.4876   25.9273 C   0  0  0  0  0  0  0  0  0  0  0  0
  -17.0536  -26.2282   25.6096 C   0  0  0  0  0  0  0  0  0  0  0  0
  -23.1544   -9.7649   19.9714 C   0  0  0  0  0  0  0  0  0  0  0  0
  -23.8049   -9.9313   22.2922 C   0  0  0  0  0  0  0  0  0  0  0  0
  -16.9823  -28.6058   25.2124 C   0  0  0  0  0  0  0  0  0  0  0  0
  -17.9788  -26.0862   24.5759 C   0  0  0  0  0  0  0  0  0  0  0  0
  -22.6199  -22.0993   24.3111 C   0  0  0  0  0  0  0  0  0  0  0  0
  -22.4231   -8.6124   20.2590 C   0  0  0  0  0  0  0  0  0  0  0  0
  -23.0735   -8.7789   22.5798 C   0  0  0  0  0  0  0  0  0  0  0  0
  -22.7605  -20.8641   23.6799 C   0  0  0  0  0  0  0  0  0  0  0  0
  -19.8374   -7.9452   23.0827 C   0  0  0  0  0  0  0  0  0  0  0  0
  -19.0270   -7.9602   24.2178 C   0  0  0  0  0  0  0  0  0  0  0  0
  -23.8249  -21.9494   21.8068 C   0  0  0  0  0  0  0  0  0  0  0  0
  -26.0792  -19.3020   20.4032 C   0  0  0  0  0  0  0  0  0  0  0  0
  -20.2713   -6.1013   25.1308 C   0  0  0  0  0  0  0  0  0  0  0  0
  -25.2025  -20.4097   18.6499 C   0  0  0  0  0  0  0  0  0  0  0  0
  -23.8453  -10.4243   20.9880 C   0  0  0  0  0  0  0  0  0  0  0  0
  -24.1411  -12.9444   20.7253 C   0  0  0  0  0  0  0  0  0  0  0  0
  -17.9205  -28.4787   24.1759 C   0  0  0  0  0  0  0  0  0  0  0  0
  -23.0716  -23.2720   23.6890 C   0  0  0  0  0  0  0  0  0  0  0  0
  -18.4179  -27.2036   23.8456 C   0  0  0  0  0  0  0  0  0  0  0  0
  -23.6912  -23.1978   22.4333 C   0  0  0  0  0  0  0  0  0  0  0  0
  -24.8731  -19.7640   19.8211 C   0  0  0  0  0  0  0  0  0  0  0  0
  -22.3826   -8.1194   21.5632 C   0  0  0  0  0  0  0  0  0  0  0  0
  -23.3605  -20.7894   22.4263 C   0  0  0  0  0  0  0  0  0  0  0  0
  -20.8647   -7.0082   22.9715 C   0  0  0  0  0  0  0  0  0  0  0  0
  -19.2439   -7.0383   25.2419 C   0  0  0  0  0  0  0  0  0  0  0  0
  -21.0817   -6.0863   23.9956 C   0  0  0  0  0  0  0  0  0  0  0  0
  -24.6014  -11.6145   20.6915 C   0  0  0  0  0  0  0  0  0  0  0  0
  -27.1091  -19.6796   19.5700 C   0  0  0  0  0  0  0  0  0  0  0  0
  -25.2337  -13.6951   20.3661 C   0  0  0  0  0  0  0  0  0  0  0  0
  -22.8421  -13.4555   21.0522 C   0  0  0  0  0  0  0  0  0  0  0  0
  -21.6891  -25.9478   22.6730 C   0  0  0  0  0  0  0  0  0  0  0  0
  -24.7525  -26.8588   22.1182 C   0  0  0  0  0  0  0  0  0  0  0  0
  -27.9839  -25.9415   21.5157 C   0  0  0  0  0  0  0  0  0  0  0  0
  -30.6807  -14.8508   20.7412 C   0  0  0  0  0  0  0  0  0  0  0  0
  -18.3165  -29.7101   23.4003 C   0  0  0  0  0  0  0  0  0  0  0  0
  -22.9366  -24.5934   24.3949 C   0  0  0  0  0  0  0  0  0  0  0  0
  -24.2113  -24.4250   21.7320 C   0  0  0  0  0  0  0  0  0  0  0  0
  -19.5817  -29.5240   22.5666 C   0  0  0  0  0  0  0  0  0  0  0  0
  -29.7057  -12.2975   18.4594 C   0  0  0  0  0  0  0  0  0  0  0  0
  -19.5233  -28.2102   21.7937 C   0  0  0  0  0  0  0  0  0  0  0  0
  -28.2556  -11.9979   18.8436 C   0  0  0  0  0  0  0  0  0  0  0  0
  -30.5604  -12.6134   19.6848 C   0  0  0  0  0  0  0  0  0  0  0  0
  -28.5809  -13.3845   20.9341 C   0  0  0  0  0  0  0  0  0  0  0  0
  -19.4413  -27.0123   22.7475 C   0  0  1  0  0  0  0  0  0  0  0  0
  -22.9689  -25.7852   23.4432 C   0  0  1  0  0  0  0  0  0  0  0  0
  -27.6671  -13.1149   19.7263 C   0  0  2  0  0  0  0  0  0  0  0  0
  -22.8359  -18.2856   19.9075 C   0  0  0  0  0  0  0  0  0  0  0  0
  -30.2554  -26.9093   21.0670 C   0  0  0  0  0  0  0  0  0  0  0  0
  -27.1505  -22.4423   17.3337 C   0  0  0  0  0  0  0  0  0  0  0  0
  -26.9267  -20.2616   16.0685 C   0  0  0  0  0  0  0  0  0  0  0  0
  -23.9117  -27.4990   19.2558 C   0  0  0  0  0  0  0  0  0  0  0  0
  -26.3347  -27.5377   18.6267 C   0  0  0  0  0  0  0  0  0  0  0  0
  -25.4534  -29.1748   20.2898 C   0  0  0  0  0  0  0  0  0  0  0  0
  -29.1213  -24.7000   23.9496 C   0  0  0  0  0  0  0  0  0  0  0  0
  -28.5638  -19.4548   19.6989 C   0  0  0  0  0  0  0  0  0  0  0  0
  -30.6444  -17.0747   21.8422 C   0  0  0  0  0  0  0  0  0  0  0  0
  -30.3847  -18.1496   20.8032 C   0  0  0  0  0  0  0  0  0  0  0  0
  -23.4807  -19.5822   20.3807 C   0  0  1  0  0  0  0  0  0  1  0  0
  -25.7064  -26.7484   20.9534 C   0  0  1  0  0  0  0  0  0  0  0  0
  -29.2932  -26.4026   22.1302 C   0  0  2  0  0  0  0  0  0  0  0  0
  -27.2981  -20.9209   17.3982 C   0  0  0  0  0  0  0  0  0  0  0  0
  -25.3401  -27.7169   19.7935 C   0  0  0  0  0  0  0  0  0  0  0  0
  -25.8863  -11.5223   20.3385 N   0  0  0  0  0  0  0  0  0  0  0  0
  -26.5644  -20.3525   18.5077 N   0  0  0  0  0  0  0  0  0  0  0  0
  -26.2427  -12.8039   20.1471 N   0  0  0  0  0  0  0  0  0  0  0  0
  -24.0503  -25.6944   22.4601 N   0  0  0  0  0  0  0  0  0  0  0  0
  -29.9479  -13.6817   20.4782 N   0  0  0  0  0  0  0  0  0  0  0  0
  -25.4203  -15.0241   20.2192 N   0  0  0  0  0  0  0  0  0  0  0  0
  -21.8340  -12.5457   21.3993 N   0  0  0  0  0  0  0  0  0  0  0  0
  -20.7427  -26.7258   23.3122 N   0  0  0  0  0  0  0  0  0  0  0  0
  -27.0437  -26.9500   21.5004 N   0  0  0  0  0  0  0  0  0  0  0  0
  -30.0237  -15.8158   21.4948 N   0  0  0  0  0  0  0  0  0  0  0  0
  -29.9473  -25.2793   22.8591 N   0  3  0  0  0  0  0  0  0  0  0  0
  -28.9281  -18.4181   20.7119 N   0  3  0  0  0  0  0  0  0  0  0  0
  -22.5784  -14.6815   21.0212 O   0  0  0  0  0  0  0  0  0  0  0  0
  -21.5696  -25.4086   21.5791 O   0  0  0  0  0  0  0  0  0  0  0  0
  -24.6400  -27.9365   22.7076 O   0  0  0  0  0  0  0  0  0  0  0  0
  -27.8136  -24.8018   21.0883 O   0  0  0  0  0  0  0  0  0  0  0  0
  -31.8330  -15.0242   20.3300 O   0  0  0  0  0  0  0  0  0  0  0  0
  -21.6689   -6.9951   21.8442 O   0  0  0  0  0  0  0  0  0  0  0  0
  -23.4985  -19.5852   21.8076 O   0  0  0  0  0  0  0  0  0  1  0  0
  -18.4666   -7.0538   26.3326 F   0  0  0  0  0  0  0  0  0  0  0  0
  -22.0678   -5.1845   23.8950 F   0  0  0  0  0  0  0  0  0  0  0  0
  1  2  1  0  0  0  0
  1  5  2  0  0  0  0
  2  6  2  0  0  0  0
  3  8  2  0  0  0  0
  3 17  1  0  0  0  0
  4  9  1  0  0  0  0
  4 17  2  0  0  0  0
  5 19  1  0  0  0  0
  6 21  1  0  0  0  0
  7 10  2  0  0  0  0
  7 20  1  0  0  0  0
  8 24  1  0  0  0  0
  9 24  2  0  0  0  0
 10 25  1  0  0  0  0
 11 12  2  0  0  0  0
 11 26  1  0  0  0  0
 12 27  1  0  0  0  0
 13 22  1  0  0  0  0
 13 25  2  0  0  0  0
 14 23  1  0  0  0  0
 14 30  2  0  0  0  0
 15 27  2  0  0  0  0
 15 28  1  0  0  0  0
 16 23  2  0  0  0  0
 16 66  1  0  0  0  0
 17 29  1  0  0  0  0
 18 29  1  0  0  0  0
 18 31  2  0  0  0  0
 18 32  1  0  0  0  0
 19 21  2  0  0  0  0
 19 37  1  0  0  0  0
 20 22  2  0  0  0  0
 20 38  1  0  0  0  0
 21 46  1  0  0  0  0
 22 39  1  0  0  0  0
 23 60  1  0  0  0  0
 24 82  1  0  0  0  0
 25 83  1  0  0  0  0
 26 28  2  0  0  0  0
 26 82  1  0  0  0  0
 27 84  1  0  0  0  0
 28 85  1  0  0  0  0
 29 65  2  0  0  0  0
 30 57  1  0  0  0  0
 30 66  1  0  0  0  0
 31 67  1  0  0  0  0
 31 70  1  0  0  0  0
 32 71  1  0  0  0  0
 32 77  2  0  0  0  0
 33 47  1  0  0  0  0
 33 72  1  0  0  0  0
 33 78  2  0  0  0  0
 34 61  1  0  0  0  0
 34 68  1  0  0  0  0
 34 79  2  0  0  0  0
 35 62  1  0  0  0  0
 35 73  1  0  0  0  0
 35 80  2  0  0  0  0
 36 69  1  0  0  0  0
 36 74  1  0  0  0  0
 36 81  2  0  0  0  0
 37 40  1  0  0  0  0
 38 47  1  0  0  0  0
 39 68  1  0  0  0  0
 40 42  1  0  0  0  0
 41 43  1  0  0  0  0
 41 44  1  0  0  0  0
 42 46  1  0  0  0  0
 43 48  1  0  0  0  0
 44 69  1  0  0  0  0
 45 48  1  0  0  0  0
 45 69  1  0  0  0  0
 46 72  1  0  0  0  0
 47 68  1  0  0  0  0
 48 67  1  0  0  0  0
 49 60  1  0  0  0  0
 50 62  1  0  0  0  0
 51 63  1  0  0  0  0
 52 63  1  0  0  0  0
 53 64  1  0  0  0  0
 54 64  1  0  0  0  0
 55 64  1  0  0  0  0
 56 75  1  0  0  0  0
 57 76  1  0  0  0  0
 58 59  1  0  0  0  0
 58 74  1  0  0  0  0
 59 76  1  0  0  0  0
 60 83  1  0  0  0  0
 61 64  1  0  0  0  0
 61 73  1  0  0  0  0
 62 75  1  0  0  0  0
 63 66  1  0  0  0  0
 65 67  1  0  0  0  0
M  CHG  2  75   1  76   1
M  ISO  4  36 100  60 101  74 100  83 101
M  END
> <Batch ID>
0124

> <Smiles>
CNC(C)C(=O)NC(C(=O)N1Cc2cc([101O:1][101CH:1](C)c3cc(CNCC[100NH:0][100C:0](=O)N4CCCC(n5nc(-c6ccc(Oc7ccc(F)cc7F)cc6)c(C(N)=O)c5N)C4)n(C(C)C)c3)ccc2CC1C(=O)NC1CCCc2ccccc21)C(C)(C)C

> <Shape>
0.285

> <Color>
0.197

> <Negative vol penalty>
0.000

$$$$

  -OEChem-04052320333D

 81 89  0     1  0  0  0  0  0999 V2000
  -18.6327  -32.9981   23.9045 C   0  0  0  0  0  0  0  0  0  0  0  0
  -19.9682  -32.6096   23.9309 C   0  0  0  0  0  0  0  0  0  0  0  0
  -26.5974  -18.3931   20.5877 C   0  0  0  0  0  0  0  0  0  0  0  0
  -28.8133  -17.8747   21.3991 C   0  0  0  0  0  0  0  0  0  0  0  0
  -17.6341  -32.0443   23.7120 C   0  0  0  0  0  0  0  0  0  0  0  0
  -20.3060  -31.2668   23.7659 C   0  0  0  0  0  0  0  0  0  0  0  0
  -24.1900  -30.6177   20.5818 C   0  0  0  0  0  0  0  0  0  0  0  0
  -31.3242  -30.1696   20.8452 C   0  0  0  0  0  0  0  0  0  0  0  0
  -32.1617  -29.0752   20.6298 C   0  0  0  0  0  0  0  0  0  0  0  0
  -26.3177  -17.0308   20.4811 C   0  0  0  0  0  0  0  0  0  0  0  0
  -28.5335  -16.5123   21.2925 C   0  0  0  0  0  0  0  0  0  0  0  0
  -25.4684  -30.8709   21.0770 C   0  0  0  0  0  0  0  0  0  0  0  0
  -28.3957  -14.1811   18.8476 C   0  0  0  0  0  0  0  0  0  0  0  0
  -29.3669  -13.3634   18.2699 C   0  0  0  0  0  0  0  0  0  0  0  0
  -25.8096  -28.5034   21.3899 C   0  0  0  0  0  0  0  0  0  0  0  0
  -30.4222  -29.0927   22.8108 C   0  0  0  0  0  0  0  0  0  0  0  0
  -29.5020  -12.0806   20.3128 C   0  0  0  0  0  0  0  0  0  0  0  0
  -27.8453  -18.8151   21.0466 C   0  0  0  0  0  0  0  0  0  0  0  0
  -27.9195  -21.0499   22.2746 C   0  0  0  0  0  0  0  0  0  0  0  0
  -17.9603  -30.6905   23.5348 C   0  0  0  0  0  0  0  0  0  0  0  0
  -23.7068  -29.3040   20.4970 C   0  0  0  0  0  0  0  0  0  0  0  0
  -19.3107  -30.2938   23.5721 C   0  0  0  0  0  0  0  0  0  0  0  0
  -24.5256  -28.2360   20.8908 C   0  0  0  0  0  0  0  0  0  0  0  0
  -30.4545  -30.1784   21.9357 C   0  0  0  0  0  0  0  0  0  0  0  0
  -32.1294  -27.9895   21.5050 C   0  0  0  0  0  0  0  0  0  0  0  0
  -31.2597  -27.9982   22.5955 C   0  0  0  0  0  0  0  0  0  0  0  0
  -27.2857  -16.0904   20.8335 C   0  0  0  0  0  0  0  0  0  0  0  0
  -26.2774  -29.8139   21.4839 C   0  0  0  0  0  0  0  0  0  0  0  0
  -27.9778  -13.9487   20.1580 C   0  0  0  0  0  0  0  0  0  0  0  0
  -29.9200  -12.3131   19.0024 C   0  0  0  0  0  0  0  0  0  0  0  0
  -28.5309  -12.8984   20.8905 C   0  0  0  0  0  0  0  0  0  0  0  0
  -28.1350  -20.2223   21.1564 C   0  0  0  0  0  0  0  0  0  0  0  0
  -28.3568  -22.2888   21.8743 C   0  0  0  0  0  0  0  0  0  0  0  0
  -27.3728  -20.7275   23.5603 C   0  0  0  0  0  0  0  0  0  0  0  0
  -21.2804  -27.7178   21.8008 C   0  0  0  0  0  0  0  0  0  0  0  0
  -22.2542  -25.3595   19.7977 C   0  0  0  0  0  0  0  0  0  0  0  0
  -24.7776  -23.9721   17.9662 C   0  0  0  0  0  0  0  0  0  0  0  0
  -32.1229  -25.5359   19.3409 C   0  0  0  0  0  0  0  0  0  0  0  0
  -16.8435  -29.6893   23.3771 C   0  0  0  0  0  0  0  0  0  0  0  0
  -22.3355  -29.0457   19.9355 C   0  0  0  0  0  0  0  0  0  0  0  0
  -24.0616  -26.8059   20.8010 C   0  0  0  0  0  0  0  0  0  0  0  0
  -17.3075  -28.3395   22.8358 C   0  0  0  0  0  0  0  0  0  0  0  0
  -29.6461  -24.0032   17.2933 C   0  0  0  0  0  0  0  0  0  0  0  0
  -18.5571  -27.8694   23.5736 C   0  0  0  0  0  0  0  0  0  0  0  0
  -29.0192  -22.9475   18.2058 C   0  0  0  0  0  0  0  0  0  0  0  0
  -31.1466  -24.1431   17.5400 C   0  0  0  0  0  0  0  0  0  0  0  0
  -30.8957  -23.3394   19.8562 C   0  0  0  0  0  0  0  0  0  0  0  0
  -19.7185  -28.8503   23.3720 C   0  0  1  0  0  0  0  0  0  0  0  0
  -21.7528  -27.7059   20.3745 C   0  0  1  0  0  0  0  0  0  0  0  0
  -29.3734  -23.2019   19.6834 C   0  0  2  0  0  0  0  0  0  0  0  0
  -31.2075  -26.8469   23.5455 C   0  0  0  0  0  0  0  0  0  0  0  0
  -25.2815  -22.0263   16.4637 C   0  0  0  0  0  0  0  0  0  0  0  0
  -22.3798  -23.5186   22.2277 C   0  0  0  0  0  0  0  0  0  0  0  0
  -23.7602  -21.9331   20.8681 C   0  0  0  0  0  0  0  0  0  0  0  0
  -21.4255  -22.4659   20.1697 C   0  0  0  0  0  0  0  0  0  0  0  0
  -25.4299  -25.7488   15.6910 C   0  0  0  0  0  0  0  0  0  0  0  0
  -29.5479  -31.3627   22.1682 C   0  0  0  0  0  0  0  0  0  0  0  0
  -33.0346  -26.8284   21.2534 C   0  0  0  0  0  0  0  0  0  0  0  0
  -28.2028  -31.2097   21.4666 C   0  0  0  0  0  0  0  0  0  1  0  0
  -23.2317  -24.2129   19.8915 C   0  0  1  0  0  0  0  0  0  0  0  0
  -24.8265  -23.4758   16.5324 C   0  0  2  0  0  0  0  0  0  0  0  0
  -22.7076  -23.0596   20.7929 C   0  0  0  0  0  0  0  0  0  0  0  0
  -28.6678  -20.8800   20.1232 N   0  0  0  0  0  0  0  0  0  0  0  0
  -28.7906  -22.1340   20.5905 N   0  0  0  0  0  0  0  0  0  0  0  0
  -22.7107  -26.6052   20.2512 N   0  0  0  0  0  0  0  0  0  0  0  0
  -31.4146  -24.3844   18.9598 N   0  0  0  0  0  0  0  0  0  0  0  0
  -28.4088  -23.4846   22.4986 N   0  0  0  0  0  0  0  0  0  0  0  0
  -26.9735  -19.4065   23.8044 N   0  0  0  0  0  0  0  0  0  0  0  0
  -20.3127  -28.6682   22.0651 N   0  0  0  0  0  0  0  0  0  0  0  0
  -23.5247  -23.8130   18.5194 N   0  0  0  0  0  0  0  0  0  0  0  0
  -32.3283  -25.6915   20.7063 N   0  0  0  0  0  0  0  0  0  0  0  0
  -25.7708  -24.3034   15.7297 N   0  3  0  0  0  0  0  0  0  0  0  0
  -27.2271  -21.5892   24.4602 O   0  0  0  0  0  0  0  0  0  0  0  0
  -21.7573  -26.9225   22.6019 O   0  0  0  0  0  0  0  0  0  0  0  0
  -21.1296  -25.1589   19.3323 O   0  0  0  0  0  0  0  0  0  0  0  0
  -25.7544  -24.4494   18.5395 O   0  0  0  0  0  0  0  0  0  0  0  0
  -32.5366  -26.3668   18.5252 O   0  0  0  0  0  0  0  0  0  0  0  0
  -27.0130  -14.7609   20.7299 O   0  0  0  0  0  0  0  0  0  0  0  0
  -27.5254  -30.0583   21.9682 O   0  0  0  0  0  0  0  0  0  1  0  0
  -30.8514  -11.5270   18.4470 F   0  0  0  0  0  0  0  0  0  0  0  0
  -28.1325  -12.6695   22.1494 F   0  0  0  0  0  0  0  0  0  0  0  0
  1  2  1  0  0  0  0
  1  5  2  0  0  0  0
  2  6  2  0  0  0  0
  3 10  2  0  0  0  0
  3 18  1  0  0  0  0
  4 11  1  0  0  0  0
  4 18  2  0  0  0  0
  5 20  1  0  0  0  0
  6 22  1  0  0  0  0
  7 12  2  0  0  0  0
  7 21  1  0  0  0  0
  8  9  2  0  0  0  0
  8 24  1  0  0  0  0
  9 25  1  0  0  0  0
 10 27  1  0  0  0  0
 11 27  2  0  0  0  0
 12 28  1  0  0  0  0
 13 14  2  0  0  0  0
 13 29  1  0  0  0  0
 14 30  1  0  0  0  0
 15 23  1  0  0  0  0
 15 28  2  0  0  0  0
 16 24  2  0  0  0  0
 16 26  1  0  0  0  0
 17 30  2  0  0  0  0
 17 31  1  0  0  0  0
 18 32  1  0  0  0  0
 19 32  1  0  0  0  0
 19 33  2  0  0  0  0
 19 34  1  0  0  0  0
 20 22  2  0  0  0  0
 20 39  1  0  0  0  0
 21 23  2  0  0  0  0
 21 40  1  0  0  0  0
 22 48  1  0  0  0  0
 23 41  1  0  0  0  0
 24 57  1  0  0  0  0
 25 26  2  0  0  0  0
 25 58  1  0  0  0  0
 26 51  1  0  0  0  0
 27 78  1  0  0  0  0
 28 79  1  0  0  0  0
 29 31  2  0  0  0  0
 29 78  1  0  0  0  0
 30 80  1  0  0  0  0
 31 81  1  0  0  0  0
 32 63  2  0  0  0  0
 33 64  1  0  0  0  0
 33 67  1  0  0  0  0
 34 68  1  0  0  0  0
 34 73  2  0  0  0  0
 35 49  1  0  0  0  0
 35 69  1  0  0  0  0
 35 74  2  0  0  0  0
 36 60  1  0  0  0  0
 36 65  1  0  0  0  0
 36 75  2  0  0  0  0
 37 61  1  0  0  0  0
 37 70  1  0  0  0  0
 37 76  2  0  0  0  0
 38 66  1  0  0  0  0
 38 71  1  0  0  0  0
 38 77  2  0  0  0  0
 39 42  1  0  0  0  0
 40 49  1  0  0  0  0
 41 65  1  0  0  0  0
 42 44  1  0  0  0  0
 43 45  1  0  0  0  0
 43 46  1  0  0  0  0
 44 48  1  0  0  0  0
 45 50  1  0  0  0  0
 46 66  1  0  0  0  0
 47 50  1  0  0  0  0
 47 66  1  0  0  0  0
 48 69  1  0  0  0  0
 49 65  1  0  0  0  0
 50 64  1  0  0  0  0
 52 61  1  0  0  0  0
 53 62  1  0  0  0  0
 54 62  1  0  0  0  0
 55 62  1  0  0  0  0
 56 72  1  0  0  0  0
 57 59  1  0  0  0  0
 58 71  1  0  0  0  0
 59 79  1  0  0  0  0
 60 62  1  0  0  0  0
 60 70  1  0  0  0  0
 61 72  1  0  0  0  0
 63 64  1  0  0  0  0
M  CHG  1  72   1
M  ISO  4  38 100  59 101  71 100  79 101
M  END
> <Batch ID>
0124

> <Smiles>
CNC(C)C(=O)NC(C(=O)N1Cc2cc([101O:1][101CH2:1]Cc3ccc(C[100NH:0][100C:0](=O)N4CCCC(n5nc(-c6ccc(Oc7ccc(F)cc7F)cc6)c(C(N)=O)c5N)C4)c(C)c3)ccc2CC1C(=O)NC1CCCc2ccccc21)C(C)(C)C

> <Shape>
0.240

> <Color>
0.061

> <Negative vol penalty>
0.000

$$$$

  -OEChem-04052320333D

 81 89  0     1  0  0  0  0  0999 V2000
  -16.7547  -28.8208   24.5026 C   0  0  0  0  0  0  0  0  0  0  0  0
  -17.8190  -27.9267   24.5585 C   0  0  0  0  0  0  0  0  0  0  0  0
  -29.2186  -24.0664   24.8617 C   0  0  0  0  0  0  0  0  0  0  0  0
  -24.5997  -13.9259   19.9765 C   0  0  0  0  0  0  0  0  0  0  0  0
  -26.4514  -13.9401   21.5284 C   0  0  0  0  0  0  0  0  0  0  0  0
  -16.7368  -29.8216   23.5319 C   0  0  0  0  0  0  0  0  0  0  0  0
  -18.8656  -28.0321   23.6430 C   0  0  0  0  0  0  0  0  0  0  0  0
  -23.4116  -27.5906   25.8300 C   0  0  0  0  0  0  0  0  0  0  0  0
  -29.6397  -23.9052   23.5417 C   0  0  0  0  0  0  0  0  0  0  0  0
  -27.8675  -23.9372   25.1835 C   0  0  0  0  0  0  0  0  0  0  0  0
  -24.5646  -12.5326   20.0312 C   0  0  0  0  0  0  0  0  0  0  0  0
  -26.4162  -12.5467   21.5831 C   0  0  0  0  0  0  0  0  0  0  0  0
  -23.8380  -26.3045   26.1584 C   0  0  0  0  0  0  0  0  0  0  0  0
  -23.7533   -8.9890   20.0411 C   0  0  0  0  0  0  0  0  0  0  0  0
  -22.5071   -8.3764   20.1724 C   0  0  0  0  0  0  0  0  0  0  0  0
  -25.2009  -26.2547   24.1686 C   0  0  0  0  0  0  0  0  0  0  0  0
  -22.1570   -9.5367   22.2625 C   0  0  0  0  0  0  0  0  0  0  0  0
  -25.5432  -14.6297   20.7251 C   0  0  0  0  0  0  0  0  0  0  0  0
  -24.8819  -16.9704   21.4940 C   0  0  0  0  0  0  0  0  0  0  0  0
  -17.7883  -29.9453   22.6102 C   0  0  0  0  0  0  0  0  0  0  0  0
  -23.8690  -28.2153   24.6608 C   0  0  0  0  0  0  0  0  0  0  0  0
  -18.8610  -29.0346   22.6583 C   0  0  0  0  0  0  0  0  0  0  0  0
  -24.7808  -27.5498   23.8290 C   0  0  0  0  0  0  0  0  0  0  0  0
  -28.7097  -23.6149   22.5435 C   0  0  0  0  0  0  0  0  0  0  0  0
  -26.9375  -23.6468   24.1853 C   0  0  0  0  0  0  0  0  0  0  0  0
  -27.3585  -23.4857   22.8653 C   0  0  0  0  0  0  0  0  0  0  0  0
  -25.4727  -11.8430   20.8345 C   0  0  0  0  0  0  0  0  0  0  0  0
  -24.7305  -25.6352   25.3262 C   0  0  0  0  0  0  0  0  0  0  0  0
  -24.2014   -9.8754   21.0205 C   0  0  0  0  0  0  0  0  0  0  0  0
  -21.7089   -8.6503   21.2830 C   0  0  0  0  0  0  0  0  0  0  0  0
  -23.4032  -10.1492   22.1311 C   0  0  0  0  0  0  0  0  0  0  0  0
  -25.5804  -16.0690   20.6686 C   0  0  0  0  0  0  0  0  0  0  0  0
  -25.2546  -18.2117   21.0393 C   0  0  0  0  0  0  0  0  0  0  0  0
  -23.9772  -16.7092   22.5751 C   0  0  0  0  0  0  0  0  0  0  0  0
  -22.4891  -29.3037   22.0123 C   0  0  0  0  0  0  0  0  0  0  0  0
  -25.4750  -30.3977   21.3722 C   0  0  0  0  0  0  0  0  0  0  0  0
  -28.8368  -30.1135   21.8863 C   0  0  0  0  0  0  0  0  0  0  0  0
  -29.1747  -21.7817   19.2975 C   0  0  0  0  0  0  0  0  0  0  0  0
  -17.7017  -31.0137   21.5492 C   0  0  0  0  0  0  0  0  0  0  0  0
  -23.4203  -29.6133   24.3346 C   0  0  0  0  0  0  0  0  0  0  0  0
  -25.3174  -28.1844   22.5728 C   0  0  0  0  0  0  0  0  0  0  0  0
  -19.0318  -31.2898   20.8529 C   0  0  0  0  0  0  0  0  0  0  0  0
  -27.7884  -19.5691   16.8770 C   0  0  0  0  0  0  0  0  0  0  0  0
  -19.7111  -29.9813   20.4613 C   0  0  0  0  0  0  0  0  0  0  0  0
  -27.0385  -18.5328   17.7158 C   0  0  0  0  0  0  0  0  0  0  0  0
  -29.0784  -20.0202   17.5585 C   0  0  0  0  0  0  0  0  0  0  0  0
  -28.1611  -19.4715   19.7791 C   0  0  0  0  0  0  0  0  0  0  0  0
  -20.0268  -29.1319   21.6984 C   0  0  1  0  0  0  0  0  0  0  0  0
  -23.5519  -29.9527   22.8531 C   0  0  1  0  0  0  0  0  0  0  0  0
  -26.8251  -19.0276   19.1590 C   0  0  2  0  0  0  0  0  0  0  0  0
  -26.3613  -23.1744   21.7949 C   0  0  0  0  0  0  0  0  0  0  0  0
  -25.1174  -22.0855   24.9551 C   0  0  0  0  0  0  0  0  0  0  0  0
  -31.0276  -31.1244   21.1963 C   0  0  0  0  0  0  0  0  0  0  0  0
  -25.2934  -28.9546   18.6900 C   0  0  0  0  0  0  0  0  0  0  0  0
  -27.7770  -29.1867   18.4758 C   0  0  0  0  0  0  0  0  0  0  0  0
  -26.3406  -31.2232   18.5851 C   0  0  0  0  0  0  0  0  0  0  0  0
  -29.4754  -30.9122   24.6635 C   0  0  0  0  0  0  0  0  0  0  0  0
  -29.1867  -23.4467   21.1378 C   0  0  0  0  0  0  0  0  0  0  0  0
  -25.4796  -23.5117   24.5609 C   0  0  1  0  0  0  0  0  0  1  0  0
  -26.6908  -29.8400   20.6722 C   0  0  1  0  0  0  0  0  0  0  0  0
  -29.8970  -31.1497   22.2131 C   0  0  2  0  0  0  0  0  0  0  0  0
  -26.5140  -29.7881   19.1284 C   0  0  0  0  0  0  0  0  0  0  0  0
  -26.3392  -16.6851   19.7583 N   0  0  0  0  0  0  0  0  0  0  0  0
  -26.1197  -17.9870   20.0090 N   0  0  0  0  0  0  0  0  0  0  0  0
  -24.8439  -29.5502   22.2937 N   0  0  0  0  0  0  0  0  0  0  0  0
  -28.8066  -20.4790   18.9229 N   0  0  0  0  0  0  0  0  0  0  0  0
  -24.9234  -19.4626   21.4241 N   0  0  0  0  0  0  0  0  0  0  0  0
  -23.7049  -15.3760   22.9111 N   0  0  0  0  0  0  0  0  0  0  0  0
  -21.1996  -29.6420   22.3758 N   0  0  0  0  0  0  0  0  0  0  0  0
  -27.8232  -30.6449   21.1173 N   0  0  0  0  0  0  0  0  0  0  0  0
  -28.8753  -22.1384   20.6067 N   0  0  0  0  0  0  0  0  0  0  0  0
  -30.4734  -30.8930   23.5632 N   0  3  0  0  0  0  0  0  0  0  0  0
  -23.4139  -17.6305   23.2134 O   0  0  0  0  0  0  0  0  0  0  0  0
  -22.8149  -28.5529   21.1003 O   0  0  0  0  0  0  0  0  0  0  0  0
  -25.1034  -31.5458   21.1162 O   0  0  0  0  0  0  0  0  0  0  0  0
  -28.9033  -28.9482   22.2713 O   0  0  0  0  0  0  0  0  0  0  0  0
  -29.7244  -22.5704   18.5212 O   0  0  0  0  0  0  0  0  0  0  0  0
  -25.4386  -10.4834   20.8883 O   0  0  0  0  0  0  0  0  0  0  0  0
  -25.1478  -24.3795   25.6440 O   0  0  0  0  0  0  0  0  0  1  0  0
  -20.5115   -8.0631   21.4083 F   0  0  0  0  0  0  0  0  0  0  0  0
  -23.8279  -11.0008   23.0747 F   0  0  0  0  0  0  0  0  0  0  0  0
  1  2  1  0  0  0  0
  1  6  2  0  0  0  0
  2  7  2  0  0  0  0
  3  9  1  0  0  0  0
  3 10  2  0  0  0  0
  4 11  2  0  0  0  0
  4 18  1  0  0  0  0
  5 12  1  0  0  0  0
  5 18  2  0  0  0  0
  6 20  1  0  0  0  0
  7 22  1  0  0  0  0
  8 13  2  0  0  0  0
  8 21  1  0  0  0  0
  9 24  2  0  0  0  0
 10 25  1  0  0  0  0
 11 27  1  0  0  0  0
 12 27  2  0  0  0  0
 13 28  1  0  0  0  0
 14 15  2  0  0  0  0
 14 29  1  0  0  0  0
 15 30  1  0  0  0  0
 16 23  1  0  0  0  0
 16 28  2  0  0  0  0
 17 30  2  0  0  0  0
 17 31  1  0  0  0  0
 18 32  1  0  0  0  0
 19 32  1  0  0  0  0
 19 33  2  0  0  0  0
 19 34  1  0  0  0  0
 20 22  2  0  0  0  0
 20 39  1  0  0  0  0
 21 23  2  0  0  0  0
 21 40  1  0  0  0  0
 22 48  1  0  0  0  0
 23 41  1  0  0  0  0
 24 26  1  0  0  0  0
 24 58  1  0  0  0  0
 25 26  2  0  0  0  0
 25 59  1  0  0  0  0
 26 51  1  0  0  0  0
 27 78  1  0  0  0  0
 28 79  1  0  0  0  0
 29 31  2  0  0  0  0
 29 78  1  0  0  0  0
 30 80  1  0  0  0  0
 31 81  1  0  0  0  0
 32 63  2  0  0  0  0
 33 64  1  0  0  0  0
 33 67  1  0  0  0  0
 34 68  1  0  0  0  0
 34 73  2  0  0  0  0
 35 49  1  0  0  0  0
 35 69  1  0  0  0  0
 35 74  2  0  0  0  0
 36 60  1  0  0  0  0
 36 65  1  0  0  0  0
 36 75  2  0  0  0  0
 37 61  1  0  0  0  0
 37 70  1  0  0  0  0
 37 76  2  0  0  0  0
 38 66  1  0  0  0  0
 38 71  1  0  0  0  0
 38 77  2  0  0  0  0
 39 42  1  0  0  0  0
 40 49  1  0  0  0  0
 41 65  1  0  0  0  0
 42 44  1  0  0  0  0
 43 45  1  0  0  0  0
 43 46  1  0  0  0  0
 44 48  1  0  0  0  0
 45 50  1  0  0  0  0
 46 66  1  0  0  0  0
 47 50  1  0  0  0  0
 47 66  1  0  0  0  0
 48 69  1  0  0  0  0
 49 65  1  0  0  0  0
 50 64  1  0  0  0  0
 52 59  1  0  0  0  0
 53 61  1  0  0  0  0
 54 62  1  0  0  0  0
 55 62  1  0  0  0  0
 56 62  1  0  0  0  0
 57 72  1  0  0  0  0
 58 71  1  0  0  0  0
 59 79  1  0  0  0  0
 60 62  1  0  0  0  0
 60 70  1  0  0  0  0
 61 72  1  0  0  0  0
 63 64  1  0  0  0  0
M  CHG  1  72   1
M  ISO  4  38 100  59 101  71 100  79 101
M  END
> <Batch ID>
0124

> <Smiles>
CNC(C)C(=O)NC(C(=O)N1Cc2cc([101O:1][101CH:1](C)c3cccc(C[100NH:0][100C:0](=O)N4CCCC(n5nc(-c6ccc(Oc7ccc(F)cc7F)cc6)c(C(N)=O)c5N)C4)c3C)ccc2CC1C(=O)NC1CCCc2ccccc21)C(C)(C)C

> <Shape>
0.202

> <Color>
0.078

> <Negative vol penalty>
0.000

$$$$

  -OEChem-04052320333D

 87 96  0     1  0  0  0  0  0999 V2000
  -22.2852  -10.8454   20.3472 C   0  0  0  0  0  0  0  0  0  0  0  0
  -21.7188  -12.1042   20.5207 C   0  0  0  0  0  0  0  0  0  0  0  0
  -28.1634  -22.4393   23.0952 C   0  0  0  0  0  0  0  0  0  0  0  0
  -29.4992  -23.7980   24.5807 C   0  0  0  0  0  0  0  0  0  0  0  0
  -23.6693  -10.6901   20.4118 C   0  0  0  0  0  0  0  0  0  0  0  0
  -22.5362  -13.2083   20.7599 C   0  0  0  0  0  0  0  0  0  0  0  0
  -18.9875  -25.8945   21.3349 C   0  0  0  0  0  0  0  0  0  0  0  0
  -21.6178  -18.9524   18.8448 C   0  0  0  0  0  0  0  0  0  0  0  0
  -19.2783  -24.6976   20.6804 C   0  0  0  0  0  0  0  0  0  0  0  0
  -28.3791  -21.3313   23.9146 C   0  0  0  0  0  0  0  0  0  0  0  0
  -29.7149  -22.6900   25.4001 C   0  0  0  0  0  0  0  0  0  0  0  0
  -21.0862  -20.0772   19.4740 C   0  0  0  0  0  0  0  0  0  0  0  0
  -30.8462  -19.0894   24.4729 C   0  0  0  0  0  0  0  0  0  0  0  0
  -31.1796  -17.8835   23.8564 C   0  0  0  0  0  0  0  0  0  0  0  0
  -23.3155  -20.8122   20.0302 C   0  0  0  0  0  0  0  0  0  0  0  0
  -19.7729  -23.6567   22.8038 C   0  0  0  0  0  0  0  0  0  0  0  0
  -29.2112  -16.8537   24.8063 C   0  0  0  0  0  0  0  0  0  0  0  0
  -28.7235  -23.6726   23.4282 C   0  0  0  0  0  0  0  0  0  0  0  0
  -28.8562  -24.9541   21.2264 C   0  0  0  0  0  0  0  0  0  0  0  0
  -24.5047  -11.7945   20.6423 C   0  0  0  0  0  0  0  0  0  0  0  0
  -23.0040  -18.7431   18.8130 C   0  0  0  0  0  0  0  0  0  0  0  0
  -23.9327  -13.0674   20.8289 C   0  0  0  0  0  0  0  0  0  0  0  0
  -19.0894  -25.9726   22.7239 C   0  0  0  0  0  0  0  0  0  0  0  0
  -23.8623  -19.6853   19.3977 C   0  0  0  0  0  0  0  0  0  0  0  0
  -19.6710  -23.5787   21.4149 C   0  0  0  0  0  0  0  0  0  0  0  0
  -19.4820  -24.8537   23.4583 C   0  0  0  0  0  0  0  0  0  0  0  0
  -29.1548  -21.4566   25.0671 C   0  0  0  0  0  0  0  0  0  0  0  0
  -21.9349  -21.0059   20.0693 C   0  0  0  0  0  0  0  0  0  0  0  0
  -29.6954  -19.1775   25.2562 C   0  0  0  0  0  0  0  0  0  0  0  0
  -30.3621  -16.7656   24.0231 C   0  0  0  0  0  0  0  0  0  0  0  0
  -28.8779  -18.0597   25.4229 C   0  0  0  0  0  0  0  0  0  0  0  0
  -28.5015  -24.8174   22.5819 C   0  0  0  0  0  0  0  0  0  0  0  0
  -28.4317  -26.2151   20.8858 C   0  0  0  0  0  0  0  0  0  0  0  0
  -29.5108  -24.0242   20.3532 C   0  0  0  0  0  0  0  0  0  0  0  0
  -24.9603  -16.5013   19.9313 C   0  0  0  0  0  0  0  0  0  0  0  0
  -27.1932  -18.1755   18.2780 C   0  0  0  0  0  0  0  0  0  0  0  0
  -28.1580  -21.1480   16.9067 C   0  0  0  0  0  0  0  0  0  0  0  0
  -24.1784  -29.8157   23.0760 C   0  0  0  0  0  0  0  0  0  0  0  0
  -25.9921  -11.5696   20.7507 C   0  0  0  0  0  0  0  0  0  0  0  0
  -23.5631  -17.5383   18.1070 C   0  0  0  0  0  0  0  0  0  0  0  0
  -25.3588  -19.5173   19.3734 C   0  0  0  0  0  0  0  0  0  0  0  0
  -26.8120  -12.8520   20.6352 C   0  0  0  0  0  0  0  0  0  0  0  0
  -27.6512  -30.5409   22.7752 C   0  0  0  0  0  0  0  0  0  0  0  0
  -26.2140  -13.9486   21.5107 C   0  0  0  0  0  0  0  0  0  0  0  0
  -28.2950  -29.1686   22.5692 C   0  0  0  0  0  0  0  0  0  0  0  0
  -26.4721  -30.4716   23.7432 C   0  0  0  0  0  0  0  0  0  0  0  0
  -19.2262  -29.6853   23.6057 C   0  0  0  0  0  0  0  0  0  0  0  0
  -26.0872  -28.1011   23.1898 C   0  0  0  0  0  0  0  0  0  0  0  0
  -17.7681  -30.0205   23.3335 C   0  0  0  0  0  0  0  0  0  0  0  0
  -17.2774  -27.6005   23.1745 C   0  0  0  0  0  0  0  0  0  0  0  0
  -18.7658  -27.2923   23.4172 C   0  0  2  0  0  0  0  0  0  0  0  0
  -24.7876  -14.2935   21.0656 C   0  0  1  0  0  0  0  0  0  0  0  0
  -24.9633  -17.1635   18.5826 C   0  0  1  0  0  0  0  0  0  0  0  0
  -27.2461  -28.1102   22.1782 C   0  0  2  0  0  0  0  0  0  0  0  0
  -19.5986  -24.9135   24.9462 C   0  0  0  0  0  0  0  0  0  0  0  0
  -30.0510  -22.2169   15.6532 C   0  0  0  0  0  0  0  0  0  0  0  0
  -28.8236  -18.3033   20.8539 C   0  0  0  0  0  0  0  0  0  0  0  0
  -30.1813  -20.1360   19.8214 C   0  0  0  0  0  0  0  0  0  0  0  0
  -30.1663  -17.8647   18.7901 C   0  0  0  0  0  0  0  0  0  0  0  0
  -26.4264  -21.7664   14.5877 C   0  0  0  0  0  0  0  0  0  0  0  0
  -19.9841  -22.2913   20.7107 C   0  0  0  0  0  0  0  0  0  1  0  0
  -21.0486  -28.1683   23.2811 C   0  0  0  0  0  0  0  0  0  0  0  0
  -21.9381  -29.0088   22.3768 C   0  0  0  0  0  0  0  0  0  0  0  0
  -28.1147  -19.3290   18.5931 C   0  0  1  0  0  0  0  0  0  0  0  0
  -28.7195  -21.4911   15.5387 C   0  0  2  0  0  0  0  0  0  0  0  0
  -29.2933  -18.9107   19.5170 C   0  0  0  0  0  0  0  0  0  0  0  0
  -27.8983  -25.9049   23.0692 N   0  0  0  0  0  0  0  0  0  0  0  0
  -27.8707  -26.7370   22.0142 N   0  0  0  0  0  0  0  0  0  0  0  0
  -25.8568  -18.3198   18.6766 N   0  0  0  0  0  0  0  0  0  0  0  0
  -25.5135  -29.4502   23.3145 N   0  0  0  0  0  0  0  0  0  0  0  0
  -19.6332  -28.4153   22.9767 N   0  0  2  0  0  0  0  0  0  0  0  0
  -28.4874  -26.9175   19.7343 N   0  0  0  0  0  0  0  0  0  0  0  0
  -30.9101  -24.0489   20.2788 N   0  0  0  0  0  0  0  0  0  0  0  0
  -24.8149  -15.1279   19.8835 N   0  0  0  0  0  0  0  0  0  0  0  0
  -28.5298  -19.8825   17.3086 N   0  0  0  0  0  0  0  0  0  0  0  0
  -23.3374  -28.7882   22.6668 N   0  0  0  0  0  0  0  0  0  0  0  0
  -16.9236  -28.8957   23.8190 N   0  3  0  0  0  0  0  0  0  0  0  0
  -27.7701  -22.3654   14.7935 N   0  3  0  0  0  0  0  0  0  0  0  0
  -28.8728  -23.2069   19.6471 O   0  0  0  0  0  0  0  0  0  0  0  0
  -25.0825  -17.1855   20.9406 O   0  0  0  0  0  0  0  0  0  0  0  0
  -27.6411  -17.1860   17.6932 O   0  0  0  0  0  0  0  0  0  0  0  0
  -27.4625  -21.9262   17.5556 O   0  0  0  0  0  0  0  0  0  0  0  0
  -23.7677  -30.9732   23.2120 O   0  0  0  0  0  0  0  0  0  0  0  0
  -29.3653  -20.3757   25.8670 O   0  0  0  0  0  0  0  0  0  0  0  0
  -21.4186  -22.1044   20.6847 O   0  0  0  0  0  0  0  0  0  1  0  0
  -30.6815  -15.6080   23.4297 F   0  0  0  0  0  0  0  0  0  0  0  0
  -27.7704  -18.1386   26.1732 F   0  0  0  0  0  0  0  0  0  0  0  0
  1  2  1  0  0  0  0
  1  5  2  0  0  0  0
  2  6  2  0  0  0  0
  3 10  2  0  0  0  0
  3 18  1  0  0  0  0
  4 11  1  0  0  0  0
  4 18  2  0  0  0  0
  5 20  1  0  0  0  0
  6 22  1  0  0  0  0
  7  9  2  0  0  0  0
  7 23  1  0  0  0  0
  8 12  2  0  0  0  0
  8 21  1  0  0  0  0
  9 25  1  0  0  0  0
 10 27  1  0  0  0  0
 11 27  2  0  0  0  0
 12 28  1  0  0  0  0
 13 14  2  0  0  0  0
 13 29  1  0  0  0  0
 14 30  1  0  0  0  0
 15 24  1  0  0  0  0
 15 28  2  0  0  0  0
 16 25  2  0  0  0  0
 16 26  1  0  0  0  0
 17 30  2  0  0  0  0
 17 31  1  0  0  0  0
 18 32  1  0  0  0  0
 19 32  1  0  0  0  0
 19 33  2  0  0  0  0
 19 34  1  0  0  0  0
 20 22  2  0  0  0  0
 20 39  1  0  0  0  0
 21 24  2  0  0  0  0
 21 40  1  0  0  0  0
 22 52  1  0  0  0  0
 23 26  2  0  0  0  0
 23 51  1  0  0  0  0
 24 41  1  0  0  0  0
 25 61  1  0  0  0  0
 26 55  1  0  0  0  0
 27 84  1  0  0  0  0
 28 85  1  0  0  0  0
 29 31  2  0  0  0  0
 29 84  1  0  0  0  0
 30 86  1  0  0  0  0
 31 87  1  0  0  0  0
 32 67  2  0  0  0  0
 33 68  1  0  0  0  0
 33 72  1  0  0  0  0
 34 73  1  0  0  0  0
 34 79  2  0  0  0  0
 35 53  1  0  0  0  0
 35 74  1  0  0  0  0
 35 80  2  0  0  0  0
 36 64  1  0  0  0  0
 36 69  1  0  0  0  0
 36 81  2  0  0  0  0
 37 65  1  0  0  0  0
 37 75  1  0  0  0  0
 37 82  2  0  0  0  0
 38 70  1  0  0  0  0
 38 76  1  0  0  0  0
 38 83  2  0  0  0  0
 39 42  1  0  0  0  0
 40 53  1  0  0  0  0
 41 69  1  0  0  0  0
 42 44  1  0  0  0  0
 43 45  1  0  0  0  0
 43 46  1  0  0  0  0
 44 52  1  0  0  0  0
 45 54  1  0  0  0  0
 46 70  1  0  0  0  0
 47 49  1  0  0  0  0
 47 71  1  0  0  0  0
 48 54  1  0  0  0  0
 48 70  1  0  0  0  0
 49 77  1  0  0  0  0
 50 51  1  0  0  0  0
 50 77  1  0  0  0  0
 51 71  1  0  0  0  0
 52 74  1  0  0  0  0
 53 69  1  0  0  0  0
 54 68  1  0  0  0  0
 56 65  1  0  0  0  0
 57 66  1  0  0  0  0
 58 66  1  0  0  0  0
 59 66  1  0  0  0  0
 60 78  1  0  0  0  0
 61 85  1  0  0  0  0
 62 63  1  0  0  0  0
 62 71  1  0  0  0  0
 63 76  1  0  0  0  0
 64 66  1  0  0  0  0
 64 75  1  0  0  0  0
 65 78  1  0  0  0  0
 67 68  1  0  0  0  0
M  CHG  2  77   1  78   1
M  ISO  4  38 100  61 101  76 100  85 101
M  END
> <Batch ID>
0124

> <Smiles>
CNC(C)C(=O)NC(C(=O)N1Cc2cc([101O:1][101CH2:1]c3ccc(C4CNCCN4CC[100NH:0][100C:0](=O)N4CCCC(n5nc(-c6ccc(Oc7ccc(F)cc7F)cc6)c(C(N)=O)c5N)C4)c(C)c3)ccc2CC1C(=O)NC1CCCc2ccccc21)C(C)(C)C

> <Shape>
0.214

> <Color>
0.065

> <Negative vol penalty>
0.000

$$$$
