
  -OEChem-04052320353D

 93103  0     1  0  0  0  0  0999 V2000
  -25.6976  -31.4056   29.0360 C   0  0  0  0  0  0  0  0  0  0  0  0
  -26.3044  -30.6850   28.0123 C   0  0  0  0  0  0  0  0  0  0  0  0
  -22.9811   -9.6351   21.5124 C   0  0  0  0  0  0  0  0  0  0  0  0
  -24.3307  -10.4162   23.3578 C   0  0  0  0  0  0  0  0  0  0  0  0
  -24.3208  -31.6239   29.0120 C   0  0  0  0  0  0  0  0  0  0  0  0
  -25.5345  -30.1813   26.9645 C   0  0  0  0  0  0  0  0  0  0  0  0
  -27.6606  -30.9716   22.4368 C   0  0  0  0  0  0  0  0  0  0  0  0
  -28.8687  -19.8847   20.1429 C   0  0  0  0  0  0  0  0  0  0  0  0
  -28.5733  -18.5404   19.9168 C   0  0  0  0  0  0  0  0  0  0  0  0
  -22.3587   -8.7157   22.3567 C   0  0  0  0  0  0  0  0  0  0  0  0
  -23.7083   -9.4968   24.2021 C   0  0  0  0  0  0  0  0  0  0  0  0
  -28.7046  -30.1248   22.0671 C   0  0  0  0  0  0  0  0  0  0  0  0
  -23.0639   -5.6969   23.7034 C   0  0  0  0  0  0  0  0  0  0  0  0
  -22.8987   -4.3943   23.2327 C   0  0  0  0  0  0  0  0  0  0  0  0
  -30.9182  -17.9922   20.1120 C   0  0  0  0  0  0  0  0  0  0  0  0
  -27.1759  -28.8409   20.7130 C   0  0  0  0  0  0  0  0  0  0  0  0
  -20.5045   -4.6108   23.4738 C   0  0  0  0  0  0  0  0  0  0  0  0
  -23.9671  -10.4854   22.0129 C   0  0  0  0  0  0  0  0  0  0  0  0
  -23.9980  -12.4739   20.4152 C   0  0  0  0  0  0  0  0  0  0  0  0
  -23.5350  -31.1309   27.9584 C   0  0  0  0  0  0  0  0  0  0  0  0
  -26.3619  -30.7525   21.9552 C   0  0  0  0  0  0  0  0  0  0  0  0
  -24.1456  -30.3920   26.9271 C   0  0  0  0  0  0  0  0  0  0  0  0
  -31.2137  -19.3366   20.3380 C   0  0  0  0  0  0  0  0  0  0  0  0
  -26.1176  -29.6879   21.0761 C   0  0  0  0  0  0  0  0  0  0  0  0
  -30.1889  -20.2828   20.3535 C   0  0  0  0  0  0  0  0  0  0  0  0
  -29.5980  -17.5941   19.9014 C   0  0  0  0  0  0  0  0  0  0  0  0
  -22.7223   -8.6466   23.7016 C   0  0  0  0  0  0  0  0  0  0  0  0
  -28.4618  -29.0576   21.2074 C   0  0  0  0  0  0  0  0  0  0  0  0
  -21.9494   -6.4564   24.0594 C   0  0  0  0  0  0  0  0  0  0  0  0
  -21.6191   -3.8512   23.1178 C   0  0  0  0  0  0  0  0  0  0  0  0
  -20.6697   -5.9134   23.9446 C   0  0  0  0  0  0  0  0  0  0  0  0
  -24.6108  -11.4349   21.1411 C   0  0  0  0  0  0  0  0  0  0  0  0
  -25.0325  -13.0834   19.7483 C   0  0  0  0  0  0  0  0  0  0  0  0
  -22.6171  -12.8541   20.3499 C   0  0  0  0  0  0  0  0  0  0  0  0
  -23.5565  -30.0850   23.2923 C   0  0  0  0  0  0  0  0  0  0  0  0
  -22.4620  -30.4646   20.2624 C   0  0  0  0  0  0  0  0  0  0  0  0
  -23.1263  -30.4211   16.9152 C   0  0  0  0  0  0  0  0  0  0  0  0
  -30.1964  -15.1625   19.6268 C   0  0  0  0  0  0  0  0  0  0  0  0
  -22.0436  -31.3516   28.0002 C   0  0  0  0  0  0  0  0  0  0  0  0
  -25.2520  -31.6909   22.3422 C   0  0  0  0  0  0  0  0  0  0  0  0
  -24.7454  -29.4216   20.5151 C   0  0  0  0  0  0  0  0  0  0  0  0
  -21.3536  -31.1052   26.6610 C   0  0  0  0  0  0  0  0  0  0  0  0
  -29.8487  -11.6541   19.1291 C   0  0  0  0  0  0  0  0  0  0  0  0
  -21.8412  -29.7993   26.0415 C   0  0  0  0  0  0  0  0  0  0  0  0
  -34.8107  -19.3768   21.5403 C   0  0  0  0  0  0  0  0  0  0  0  0
  -35.0051  -19.3950   20.0238 C   0  0  0  0  0  0  0  0  0  0  0  0
  -30.1473  -24.6503   19.9161 C   0  0  0  0  0  0  0  0  0  0  0  0
  -28.2335  -24.7471   21.5666 C   0  0  0  0  0  0  0  0  0  0  0  0
  -28.4046  -11.3698   19.5485 C   0  0  0  0  0  0  0  0  0  0  0  0
  -30.4094  -26.1368   20.1386 C   0  0  0  0  0  0  0  0  0  0  0  0
  -28.5005  -26.2335   21.7840 C   0  0  0  0  0  0  0  0  0  0  0  0
  -30.4939  -12.7249   20.0071 C   0  0  0  0  0  0  0  0  0  0  0  0
  -28.2913  -13.6932   20.5365 C   0  0  0  0  0  0  0  0  0  0  0  0
  -32.6528  -19.7446   20.5660 C   0  0  1  0  0  0  0  0  0  0  0  0
  -23.3478  -29.8508   25.7606 C   0  0  1  0  0  0  0  0  0  0  0  0
  -23.8664  -31.0686   22.1995 C   0  0  1  0  0  0  0  0  0  0  0  0
  -29.5072  -23.9986   21.1498 C   0  0  0  0  0  0  0  0  0  0  0  0
  -33.3322  -19.0544   21.7635 C   0  0  2  0  0  0  0  0  0  0  0  0
  -33.5997  -19.3878   19.4013 C   0  0  1  0  0  0  0  0  0  0  0  0
  -27.5784  -12.6677   19.6399 C   0  0  2  0  0  0  0  0  0  0  0  0
  -29.1415  -26.8769   20.5562 C   0  0  0  0  0  0  0  0  0  1  0  0
  -32.8314  -19.5411   23.1165 C   0  0  0  0  0  0  0  0  0  0  0  0
  -22.0222  -30.7338   14.6835 C   0  0  0  0  0  0  0  0  0  0  0  0
  -21.1765  -27.7090   20.5150 C   0  0  0  0  0  0  0  0  0  0  0  0
  -20.9270  -27.6739   18.0240 C   0  0  0  0  0  0  0  0  0  0  0  0
  -19.7586  -29.4205   19.3683 C   0  0  0  0  0  0  0  0  0  0  0  0
  -24.8854  -32.7017   16.2345 C   0  0  0  0  0  0  0  0  0  0  0  0
  -30.4836  -21.7418   20.5950 C   0  0  0  0  0  0  0  0  0  0  0  0
  -29.2045  -22.5249   20.8852 C   0  0  0  0  0  0  0  0  0  0  0  0
  -33.4828  -20.3399   18.2174 C   0  0  0  0  0  0  0  0  0  0  0  0
  -22.2661  -29.5539   19.0745 C   0  0  1  0  0  0  0  0  0  0  0  0
  -22.7928  -31.4059   15.8092 C   0  0  2  0  0  0  0  0  0  0  0  0
  -21.0576  -28.5929   19.2574 C   0  0  0  0  0  0  0  0  0  0  0  0
  -25.9322  -11.3842   20.9528 N   0  0  0  0  0  0  0  0  0  0  0  0
  -26.1582  -12.3988   20.1011 N   0  0  0  0  0  0  0  0  0  0  0  0
  -23.6918  -30.3634   20.9281 N   0  0  0  0  0  0  0  0  0  0  0  0
  -29.6576  -13.9266   20.0430 N   0  0  0  0  0  0  0  0  0  0  0  0
  -25.0800  -14.1326   18.9002 N   0  0  0  0  0  0  0  0  0  0  0  0
  -22.1387  -13.7945   21.2724 N   0  0  0  0  0  0  0  0  0  0  0  0
  -29.2982  -16.2281   19.6737 N   0  0  0  0  0  0  0  0  0  0  0  0
  -23.6129  -30.6213   24.5646 N   0  0  0  0  0  0  0  0  0  0  0  0
  -22.1676  -30.4222   17.9062 N   0  0  0  0  0  0  0  0  0  0  0  0
  -34.4809  -19.9571   17.1965 N   0  3  0  0  0  0  0  0  0  0  0  0
  -24.0411  -31.9892   15.2413 N   0  3  0  0  0  0  0  0  0  0  0  0
  -21.8270  -12.3620   19.5090 O   0  0  0  0  0  0  0  0  0  0  0  0
  -23.2849  -28.9257   23.0025 O   0  0  0  0  0  0  0  0  0  0  0  0
  -21.5600  -31.2424   20.5833 O   0  0  0  0  0  0  0  0  0  0  0  0
  -24.1344  -29.7182   16.8996 O   0  0  0  0  0  0  0  0  0  0  0  0
  -31.3603  -15.2625   19.2304 O   0  0  0  0  0  0  0  0  0  0  0  0
  -22.1150   -7.7497   24.5259 O   0  0  0  0  0  0  0  0  0  0  0  0
  -29.4790  -28.2291   20.8455 O   0  0  0  0  0  0  0  0  0  1  0  0
  -21.4605   -2.6009   22.6643 F   0  0  0  0  0  0  0  0  0  0  0  0
  -19.5951   -6.6386   24.2839 F   0  0  0  0  0  0  0  0  0  0  0  0
  1  2  1  0  0  0  0
  1  5  2  0  0  0  0
  2  6  2  0  0  0  0
  3 10  2  0  0  0  0
  3 18  1  0  0  0  0
  4 11  1  0  0  0  0
  4 18  2  0  0  0  0
  5 20  1  0  0  0  0
  6 22  1  0  0  0  0
  7 12  2  0  0  0  0
  7 21  1  0  0  0  0
  8  9  2  0  0  0  0
  8 25  1  0  0  0  0
  9 26  1  0  0  0  0
 10 27  1  0  0  0  0
 11 27  2  0  0  0  0
 12 28  1  0  0  0  0
 13 14  2  0  0  0  0
 13 29  1  0  0  0  0
 14 30  1  0  0  0  0
 15 23  1  0  0  0  0
 15 26  2  0  0  0  0
 16 24  1  0  0  0  0
 16 28  2  0  0  0  0
 17 30  2  0  0  0  0
 17 31  1  0  0  0  0
 18 32  1  0  0  0  0
 19 32  1  0  0  0  0
 19 33  2  0  0  0  0
 19 34  1  0  0  0  0
 20 22  2  0  0  0  0
 20 39  1  0  0  0  0
 21 24  2  0  0  0  0
 21 40  1  0  0  0  0
 22 55  1  0  0  0  0
 23 25  2  0  0  0  0
 23 54  1  0  0  0  0
 24 41  1  0  0  0  0
 25 68  1  0  0  0  0
 26 80  1  0  0  0  0
 27 90  1  0  0  0  0
 28 91  1  0  0  0  0
 29 31  2  0  0  0  0
 29 90  1  0  0  0  0
 30 92  1  0  0  0  0
 31 93  1  0  0  0  0
 32 74  2  0  0  0  0
 33 75  1  0  0  0  0
 33 78  1  0  0  0  0
 34 79  1  0  0  0  0
 34 85  2  0  0  0  0
 35 56  1  0  0  0  0
 35 81  1  0  0  0  0
 35 86  2  0  0  0  0
 36 71  1  0  0  0  0
 36 76  1  0  0  0  0
 36 87  2  0  0  0  0
 37 72  1  0  0  0  0
 37 82  1  0  0  0  0
 37 88  2  0  0  0  0
 38 77  1  0  0  0  0
 38 80  1  0  0  0  0
 38 89  2  0  0  0  0
 39 42  1  0  0  0  0
 40 56  1  0  0  0  0
 41 76  1  0  0  0  0
 42 44  1  0  0  0  0
 43 49  1  0  0  0  0
 43 52  1  0  0  0  0
 44 55  1  0  0  0  0
 45 46  1  0  0  0  0
 45 58  1  0  0  0  0
 46 59  1  0  0  0  0
 47 50  1  0  0  0  0
 47 57  1  0  0  0  0
 48 51  1  0  0  0  0
 48 57  1  0  0  0  0
 49 60  1  0  0  0  0
 50 61  1  0  0  0  0
 51 61  1  0  0  0  0
 52 77  1  0  0  0  0
 53 60  1  0  0  0  0
 53 77  1  0  0  0  0
 54 58  1  0  0  0  0
 54 59  1  0  0  0  0
 55 81  1  0  0  0  0
 56 76  1  0  0  0  0
 57 69  1  0  0  0  0
 58 62  1  0  0  0  0
 59 70  1  0  0  0  0
 60 75  1  0  0  0  0
 61 91  1  0  0  0  0
 63 72  1  0  0  0  0
 64 73  1  0  0  0  0
 65 73  1  0  0  0  0
 66 73  1  0  0  0  0
 67 84  1  0  0  0  0
 68 69  1  0  0  0  0
 70 83  1  0  0  0  0
 71 73  1  0  0  0  0
 71 82  1  0  0  0  0
 72 84  1  0  0  0  0
 74 75  1  0  0  0  0
M  CHG  2  83   1  84   1
M  ISO  4  38 100  61 101  80 100  91 101
M  END
> <Batch ID>
0125

> <Smiles>
CNC(C)C(=O)NC(C(=O)N1Cc2cc([101O:1][101CH:1]3CCC(CCc4ccc([100NH:0][100C:0](=O)N5CCCC(n6nc(-c7ccc(Oc8ccc(F)cc8F)cc7)c(C(N)=O)c6N)C5)cc4C4C(C)CCC4CN)CC3)ccc2CC1C(=O)NC1CCCc2ccccc21)C(C)(C)C

> <Shape>
0.297

> <Color>
0.108

> <Negative vol penalty>
0.000

$$$$

  -OEChem-04052320353D

 84 92  0     1  0  0  0  0  0999 V2000
  -12.9646  -21.6145   21.4710 C   0  0  0  0  0  0  0  0  0  0  0  0
  -13.5062  -22.8959   21.4860 C   0  0  0  0  0  0  0  0  0  0  0  0
  -29.6732  -20.3091   18.0803 C   0  0  0  0  0  0  0  0  0  0  0  0
  -28.4138  -20.4488   20.1374 C   0  0  0  0  0  0  0  0  0  0  0  0
  -13.4616  -20.6388   22.3340 C   0  0  0  0  0  0  0  0  0  0  0  0
  -14.5444  -23.2025   22.3649 C   0  0  0  0  0  0  0  0  0  0  0  0
  -19.2173  -27.0289   21.3506 C   0  0  0  0  0  0  0  0  0  0  0  0
  -30.1256  -19.0406   18.4434 C   0  0  0  0  0  0  0  0  0  0  0  0
  -28.8662  -19.1802   20.5005 C   0  0  0  0  0  0  0  0  0  0  0  0
  -19.4391  -28.3561   21.7155 C   0  0  0  0  0  0  0  0  0  0  0  0
  -28.1362  -15.9675   19.7482 C   0  0  0  0  0  0  0  0  0  0  0  0
  -27.2003  -15.0698   20.2618 C   0  0  0  0  0  0  0  0  0  0  0  0
  -20.7017  -27.6119   23.6315 C   0  0  0  0  0  0  0  0  0  0  0  0
  -23.0947  -29.9752   20.7460 C   0  0  0  0  0  0  0  0  0  0  0  0
  -25.7528  -30.6823   21.2120 C   0  0  0  0  0  0  0  0  0  0  0  0
  -28.4625  -14.9299   22.3171 C   0  0  0  0  0  0  0  0  0  0  0  0
  -28.8173  -21.0132   18.9273 C   0  0  0  0  0  0  0  0  0  0  0  0
  -27.1887  -22.6354   17.8211 C   0  0  0  0  0  0  0  0  0  0  0  0
  -14.5129  -20.9309   23.2172 C   0  0  0  0  0  0  0  0  0  0  0  0
  -19.7277  -25.9814   22.1307 C   0  0  0  0  0  0  0  0  0  0  0  0
  -15.0550  -22.2301   23.2415 C   0  0  0  0  0  0  0  0  0  0  0  0
  -20.4872  -26.2723   23.2729 C   0  0  0  0  0  0  0  0  0  0  0  0
  -23.3927  -31.0927   21.5257 C   0  0  0  0  0  0  0  0  0  0  0  0
  -24.1258  -29.2111   20.1994 C   0  0  0  0  0  0  0  0  0  0  0  0
  -24.7217  -31.4463   21.7587 C   0  0  0  0  0  0  0  0  0  0  0  0
  -25.4549  -29.5647   20.4324 C   0  0  0  0  0  0  0  0  0  0  0  0
  -29.7221  -18.4761   19.6534 C   0  0  0  0  0  0  0  0  0  0  0  0
  -20.1789  -28.6478   22.8577 C   0  0  0  0  0  0  0  0  0  0  0  0
  -29.2353  -16.3463   20.5190 C   0  0  0  0  0  0  0  0  0  0  0  0
  -27.3634  -14.5510   21.5463 C   0  0  0  0  0  0  0  0  0  0  0  0
  -29.3984  -15.8275   21.8035 C   0  0  0  0  0  0  0  0  0  0  0  0
  -28.3501  -22.3238   18.5531 C   0  0  0  0  0  0  0  0  0  0  0  0
  -27.1955  -24.0060   17.7332 C   0  0  0  0  0  0  0  0  0  0  0  0
  -26.1926  -21.7637   17.2700 C   0  0  0  0  0  0  0  0  0  0  0  0
  -18.4488  -23.5869   23.7843 C   0  0  0  0  0  0  0  0  0  0  0  0
  -21.5481  -22.7064   24.1601 C   0  0  0  0  0  0  0  0  0  0  0  0
  -24.8345  -23.6247   24.2157 C   0  0  0  0  0  0  0  0  0  0  0  0
  -27.8839  -29.0308   20.0311 C   0  0  0  0  0  0  0  0  0  0  0  0
  -14.9851  -19.8565   24.1644 C   0  0  0  0  0  0  0  0  0  0  0  0
  -19.5023  -24.5554   21.7087 C   0  0  0  0  0  0  0  0  0  0  0  0
  -21.0742  -25.1844   24.1332 C   0  0  0  0  0  0  0  0  0  0  0  0
  -16.3386  -20.1587   24.8023 C   0  0  0  0  0  0  0  0  0  0  0  0
  -30.8088  -27.3619   18.8749 C   0  0  0  0  0  0  0  0  0  0  0  0
  -16.3795  -21.5956   25.3124 C   0  0  0  0  0  0  0  0  0  0  0  0
  -30.3344  -25.9281   18.6279 C   0  0  0  0  0  0  0  0  0  0  0  0
  -30.1345  -27.9796   20.0987 C   0  0  0  0  0  0  0  0  0  0  0  0
  -28.1929  -26.4839   19.8495 C   0  0  0  0  0  0  0  0  0  0  0  0
  -16.1988  -22.5945   24.1630 C   0  0  1  0  0  0  0  0  0  0  0  0
  -19.6335  -23.5636   22.8605 C   0  0  1  0  0  0  0  0  0  0  0  0
  -28.7959  -25.8423   18.5892 C   0  0  2  0  0  0  0  0  0  0  0  0
  -23.7775  -28.0193   19.3681 C   0  0  0  0  0  0  0  0  0  0  0  0
  -25.8322  -33.7089   21.7931 C   0  0  0  0  0  0  0  0  0  0  0  0
  -25.8544  -32.2624   23.8576 C   0  0  0  0  0  0  0  0  0  0  0  0
  -27.3264  -23.3530   24.3337 C   0  0  0  0  0  0  0  0  0  0  0  0
  -21.0347  -22.6419   27.1672 C   0  0  0  0  0  0  0  0  0  0  0  0
  -23.5133  -22.6506   27.5201 C   0  0  0  0  0  0  0  0  0  0  0  0
  -22.4346  -20.7564   26.3072 C   0  0  0  0  0  0  0  0  0  0  0  0
  -25.0486  -23.2496   21.2879 C   0  0  0  0  0  0  0  0  0  0  0  0
  -22.2614  -31.9031   22.1064 C   0  0  0  0  0  0  0  0  0  0  0  0
  -22.0303  -31.6570   23.5989 C   0  0  0  0  0  0  0  0  0  0  0  0
  -21.6065  -30.2277   23.9167 C   0  0  0  0  0  0  0  0  0  1  0  0
  -25.0648  -32.6384   22.5904 C   0  0  0  0  0  0  0  0  0  0  0  0
  -22.6297  -23.0060   25.1698 C   0  0  1  0  0  0  0  0  0  0  0  0
  -26.0613  -23.0176   23.5593 C   0  0  2  0  0  0  0  0  0  0  0  0
  -22.3905  -22.2844   26.5261 C   0  0  0  0  0  0  0  0  0  0  0  0
  -29.0444  -23.4093   18.9051 N   0  0  0  0  0  0  0  0  0  0  0  0
  -28.3171  -24.4162   18.3920 N   0  0  0  0  0  0  0  0  0  0  0  0
  -20.8208  -23.8059   23.6825 N   0  0  0  0  0  0  0  0  0  0  0  0
  -28.6785  -27.8656   19.9902 N   0  0  0  0  0  0  0  0  0  0  0  0
  -26.3515  -24.8884   17.1575 N   0  0  0  0  0  0  0  0  0  0  0  0
  -26.3391  -20.3818   17.4526 N   0  0  0  0  0  0  0  0  0  0  0  0
  -26.5161  -28.8014   19.8857 N   0  0  0  0  0  0  0  0  0  0  0  0
  -17.4294  -22.7308   23.4137 N   0  0  0  0  0  0  0  0  0  0  0  0
  -23.8941  -22.6654   24.5267 N   0  0  0  0  0  0  0  0  0  0  0  0
  -26.2118  -23.5306   22.1682 N   0  3  0  0  0  0  0  0  0  0  0  0
  -25.2107  -22.1964   16.6203 O   0  0  0  0  0  0  0  0  0  0  0  0
  -18.4594  -24.3258   24.7619 O   0  0  0  0  0  0  0  0  0  0  0  0
  -21.3604  -21.5408   23.8029 O   0  0  0  0  0  0  0  0  0  0  0  0
  -24.7233  -24.8290   24.4344 O   0  0  0  0  0  0  0  0  0  0  0  0
  -28.3826  -30.1523   20.1566 O   0  0  0  0  0  0  0  0  0  0  0  0
  -30.1632  -17.2383   20.0079 O   0  0  0  0  0  0  0  0  0  0  0  0
  -20.3963  -29.9423   23.2166 O   0  0  0  0  0  0  0  0  0  1  0  0
  -26.4638  -13.6901   22.0400 F   0  0  0  0  0  0  0  0  0  0  0  0
  -30.4517  -16.1887   22.5492 F   0  0  0  0  0  0  0  0  0  0  0  0
  1  2  1  0  0  0  0
  1  5  2  0  0  0  0
  2  6  2  0  0  0  0
  3  8  2  0  0  0  0
  3 17  1  0  0  0  0
  4  9  1  0  0  0  0
  4 17  2  0  0  0  0
  5 19  1  0  0  0  0
  6 21  1  0  0  0  0
  7 10  2  0  0  0  0
  7 20  1  0  0  0  0
  8 27  1  0  0  0  0
  9 27  2  0  0  0  0
 10 28  1  0  0  0  0
 11 12  2  0  0  0  0
 11 29  1  0  0  0  0
 12 30  1  0  0  0  0
 13 22  1  0  0  0  0
 13 28  2  0  0  0  0
 14 23  1  0  0  0  0
 14 24  2  0  0  0  0
 15 25  1  0  0  0  0
 15 26  2  0  0  0  0
 16 30  2  0  0  0  0
 16 31  1  0  0  0  0
 17 32  1  0  0  0  0
 18 32  1  0  0  0  0
 18 33  2  0  0  0  0
 18 34  1  0  0  0  0
 19 21  2  0  0  0  0
 19 39  1  0  0  0  0
 20 22  2  0  0  0  0
 20 40  1  0  0  0  0
 21 48  1  0  0  0  0
 22 41  1  0  0  0  0
 23 25  2  0  0  0  0
 23 59  1  0  0  0  0
 24 26  1  0  0  0  0
 24 51  1  0  0  0  0
 25 62  1  0  0  0  0
 26 72  1  0  0  0  0
 27 81  1  0  0  0  0
 28 82  1  0  0  0  0
 29 31  2  0  0  0  0
 29 81  1  0  0  0  0
 30 83  1  0  0  0  0
 31 84  1  0  0  0  0
 32 66  2  0  0  0  0
 33 67  1  0  0  0  0
 33 70  1  0  0  0  0
 34 71  1  0  0  0  0
 34 76  2  0  0  0  0
 35 49  1  0  0  0  0
 35 73  1  0  0  0  0
 35 77  2  0  0  0  0
 36 63  1  0  0  0  0
 36 68  1  0  0  0  0
 36 78  2  0  0  0  0
 37 64  1  0  0  0  0
 37 74  1  0  0  0  0
 37 79  2  0  0  0  0
 38 69  1  0  0  0  0
 38 72  1  0  0  0  0
 38 80  2  0  0  0  0
 39 42  1  0  0  0  0
 40 49  1  0  0  0  0
 41 68  1  0  0  0  0
 42 44  1  0  0  0  0
 43 45  1  0  0  0  0
 43 46  1  0  0  0  0
 44 48  1  0  0  0  0
 45 50  1  0  0  0  0
 46 69  1  0  0  0  0
 47 50  1  0  0  0  0
 47 69  1  0  0  0  0
 48 73  1  0  0  0  0
 49 68  1  0  0  0  0
 50 67  1  0  0  0  0
 52 62  1  0  0  0  0
 53 62  1  0  0  0  0
 54 64  1  0  0  0  0
 55 65  1  0  0  0  0
 56 65  1  0  0  0  0
 57 65  1  0  0  0  0
 58 75  1  0  0  0  0
 59 60  1  0  0  0  0
 60 61  1  0  0  0  0
 61 82  1  0  0  0  0
 63 65  1  0  0  0  0
 63 74  1  0  0  0  0
 64 75  1  0  0  0  0
 66 67  1  0  0  0  0
M  CHG  1  75   1
M  ISO  4  38 100  61 101  72 100  82 101
M  END
> <Batch ID>
0125

> <Smiles>
CNC(C)C(=O)NC(C(=O)N1Cc2cc([101O:1][101CH2:1]CCc3cc(C)c([100NH:0][100C:0](=O)N4CCCC(n5nc(-c6ccc(Oc7ccc(F)cc7F)cc6)c(C(N)=O)c5N)C4)cc3C(C)C)ccc2CC1C(=O)NC1CCCc2ccccc21)C(C)(C)C

> <Shape>
0.221

> <Color>
0.060

> <Negative vol penalty>
0.000

$$$$

  -OEChem-04052320353D

 86 95  0     1  0  0  0  0  0999 V2000
  -26.9366  -33.0942   20.9825 C   0  0  0  0  0  0  0  0  0  0  0  0
  -27.9234  -32.1171   21.0660 C   0  0  0  0  0  0  0  0  0  0  0  0
  -20.5228  -20.2883   20.3934 C   0  0  0  0  0  0  0  0  0  0  0  0
  -22.1728  -20.4739   22.1484 C   0  0  0  0  0  0  0  0  0  0  0  0
  -25.5944  -32.7235   20.9108 C   0  0  0  0  0  0  0  0  0  0  0  0
  -27.5685  -30.7687   21.0790 C   0  0  0  0  0  0  0  0  0  0  0  0
  -29.9276  -24.3539   18.9339 C   0  0  0  0  0  0  0  0  0  0  0  0
  -30.4142  -17.0735   21.0515 C   0  0  0  0  0  0  0  0  0  0  0  0
  -28.2530  -16.7724   22.0887 C   0  0  0  0  0  0  0  0  0  0  0  0
  -29.9876  -18.2884   20.5153 C   0  0  0  0  0  0  0  0  0  0  0  0
  -27.8264  -17.9874   21.5525 C   0  0  0  0  0  0  0  0  0  0  0  0
  -19.7486  -21.2663   21.0177 C   0  0  0  0  0  0  0  0  0  0  0  0
  -21.3986  -21.4519   22.7728 C   0  0  0  0  0  0  0  0  0  0  0  0
  -30.1729  -23.0749   19.4316 C   0  0  0  0  0  0  0  0  0  0  0  0
  -20.0299  -24.2557   24.6393 C   0  0  0  0  0  0  0  0  0  0  0  0
  -20.6805  -25.3963   25.1099 C   0  0  0  0  0  0  0  0  0  0  0  0
  -27.8276  -22.5504   19.2230 C   0  0  0  0  0  0  0  0  0  0  0  0
  -21.4280  -25.8952   22.8673 C   0  0  0  0  0  0  0  0  0  0  0  0
  -21.7349  -19.8921   20.9588 C   0  0  0  0  0  0  0  0  0  0  0  0
  -23.5398  -19.0804   19.3490 C   0  0  0  0  0  0  0  0  0  0  0  0
  -25.2235  -31.3696   20.9132 C   0  0  0  0  0  0  0  0  0  0  0  0
  -28.6265  -24.7451   18.5866 C   0  0  0  0  0  0  0  0  0  0  0  0
  -26.2200  -30.3795   21.0086 C   0  0  0  0  0  0  0  0  0  0  0  0
  -27.5688  -23.8341   18.7187 C   0  0  0  0  0  0  0  0  0  0  0  0
  -29.5469  -16.3154   21.8382 C   0  0  0  0  0  0  0  0  0  0  0  0
  -28.6937  -18.7454   20.7658 C   0  0  0  0  0  0  0  0  0  0  0  0
  -20.1865  -21.8481   22.2074 C   0  0  0  0  0  0  0  0  0  0  0  0
  -29.1224  -22.1739   19.5789 C   0  0  0  0  0  0  0  0  0  0  0  0
  -20.0785  -23.9348   23.2826 C   0  0  0  0  0  0  0  0  0  0  0  0
  -21.3795  -26.2160   24.2239 C   0  0  0  0  0  0  0  0  0  0  0  0
  -20.7775  -24.7546   22.3967 C   0  0  0  0  0  0  0  0  0  0  0  0
  -22.5348  -18.8815   20.3146 C   0  0  0  0  0  0  0  0  0  0  0  0
  -23.9920  -17.8164   19.0587 C   0  0  0  0  0  0  0  0  0  0  0  0
  -24.0215  -20.2988   18.7667 C   0  0  0  0  0  0  0  0  0  0  0  0
  -26.6130  -26.9871   19.5981 C   0  0  0  0  0  0  0  0  0  0  0  0
  -24.8130  -25.9425   17.1099 C   0  0  0  0  0  0  0  0  0  0  0  0
  -24.0470  -23.4156   14.9477 C   0  0  0  0  0  0  0  0  0  0  0  0
  -25.6163  -12.7337   20.6937 C   0  0  0  0  0  0  0  0  0  0  0  0
  -23.7570  -31.0186   20.8816 C   0  0  0  0  0  0  0  0  0  0  0  0
  -28.3827  -26.1194   18.0260 C   0  0  0  0  0  0  0  0  0  0  0  0
  -26.1569  -24.1981   18.3412 C   0  0  0  0  0  0  0  0  0  0  0  0
  -23.4875  -29.5595   20.5231 C   0  0  0  0  0  0  0  0  0  0  0  0
  -29.4144  -11.7209   18.2459 C   0  0  0  0  0  0  0  0  0  0  0  0
  -30.6167  -12.5564   18.6781 C   0  0  0  0  0  0  0  0  0  0  0  0
  -22.1207  -13.2842   20.3009 C   0  0  0  0  0  0  0  0  0  0  0  0
  -24.4015  -28.6359   21.3222 C   0  0  0  0  0  0  0  0  0  0  0  0
  -21.9994  -14.8054   20.1962 C   0  0  0  0  0  0  0  0  0  0  0  0
  -28.0928  -12.4045   18.5946 C   0  0  0  0  0  0  0  0  0  0  0  0
  -30.5500  -12.9136   20.1617 C   0  0  0  0  0  0  0  0  0  0  0  0
  -23.2143  -12.8715   21.2836 C   0  0  0  0  0  0  0  0  0  0  0  0
  -24.4156  -14.9927   20.9213 C   0  0  0  0  0  0  0  0  0  0  0  0
  -25.8763  -28.9058   21.0004 C   0  0  1  0  0  0  0  0  0  0  0  0
  -26.9383  -26.5831   18.1879 C   0  0  1  0  0  0  0  0  0  0  0  0
  -23.3633  -15.4576   19.9001 C   0  0  2  0  0  0  0  0  0  0  0  0
  -28.0202  -12.7588   20.0835 C   0  0  1  0  0  0  0  0  0  0  0  0
  -29.2297  -13.6060   20.4976 C   0  0  1  0  0  0  0  0  0  0  0  0
  -22.5063  -22.8453   13.0508 C   0  0  0  0  0  0  0  0  0  0  0  0
  -22.5196  -25.5704   19.0877 C   0  0  0  0  0  0  0  0  0  0  0  0
  -21.3701  -24.1457   17.3798 C   0  0  0  0  0  0  0  0  0  0  0  0
  -21.8488  -26.5430   16.8836 C   0  0  0  0  0  0  0  0  0  0  0  0
  -26.3077  -23.0009   13.0833 C   0  0  0  0  0  0  0  0  0  0  0  0
  -30.0021  -15.0164   22.4119 C   0  0  0  0  0  0  0  0  0  0  0  0
  -28.2362  -20.0532   20.1900 C   0  0  0  0  0  0  0  0  0  1  0  0
  -23.7543  -24.8820   16.9273 C   0  0  1  0  0  0  0  0  0  0  0  0
  -23.8680  -23.3993   13.4404 C   0  0  2  0  0  0  0  0  0  0  0  0
  -22.3994  -25.2787   17.5786 C   0  0  0  0  0  0  0  0  0  0  0  0
  -22.3585  -17.5926   20.6173 N   0  0  0  0  0  0  0  0  0  0  0  0
  -23.2587  -16.9702   19.8374 N   0  0  0  0  0  0  0  0  0  0  0  0
  -25.9684  -25.5556   17.8035 N   0  0  0  0  0  0  0  0  0  0  0  0
  -24.4822  -13.5231   20.9462 N   0  0  0  0  0  0  0  0  0  0  0  0
  -24.9413  -17.3574   18.2158 N   0  0  0  0  0  0  0  0  0  0  0  0
  -23.4466  -21.5090   19.1781 N   0  0  0  0  0  0  0  0  0  0  0  0
  -26.2341  -28.3092   19.7313 N   0  0  0  0  0  0  0  0  0  0  0  0
  -23.6756  -24.6264   15.4931 N   0  0  0  0  0  0  0  0  0  0  0  0
  -26.7754  -13.4306   20.3749 N   0  0  0  0  0  0  0  0  0  0  0  0
  -29.1854  -13.8542   21.9650 N   0  3  0  0  0  0  0  0  0  0  0  0
  -24.9184  -22.5558   12.8031 N   0  3  0  0  0  0  0  0  0  0  0  0
  -24.9234  -20.3127   17.8949 O   0  0  0  0  0  0  0  0  0  0  0  0
  -26.6980  -26.1601   20.4984 O   0  0  0  0  0  0  0  0  0  0  0  0
  -24.6249  -27.0707   16.6477 O   0  0  0  0  0  0  0  0  0  0  0  0
  -24.4703  -22.4496   15.5787 O   0  0  0  0  0  0  0  0  0  0  0  0
  -25.5960  -11.4992   20.7431 O   0  0  0  0  0  0  0  0  0  0  0  0
  -19.4314  -22.8026   22.8169 O   0  0  0  0  0  0  0  0  0  0  0  0
  -29.3590  -20.9251   20.0651 O   0  0  0  0  0  0  0  0  0  1  0  0
  -22.0029  -27.3121   24.6757 F   0  0  0  0  0  0  0  0  0  0  0  0
  -20.8267  -24.4522   21.0921 F   0  0  0  0  0  0  0  0  0  0  0  0
  1  2  1  0  0  0  0
  1  5  2  0  0  0  0
  2  6  2  0  0  0  0
  3 12  2  0  0  0  0
  3 19  1  0  0  0  0
  4 13  1  0  0  0  0
  4 19  2  0  0  0  0
  5 21  1  0  0  0  0
  6 23  1  0  0  0  0
  7 14  2  0  0  0  0
  7 22  1  0  0  0  0
  8 10  2  0  0  0  0
  8 25  1  0  0  0  0
  9 11  1  0  0  0  0
  9 25  2  0  0  0  0
 10 26  1  0  0  0  0
 11 26  2  0  0  0  0
 12 27  1  0  0  0  0
 13 27  2  0  0  0  0
 14 28  1  0  0  0  0
 15 16  2  0  0  0  0
 15 29  1  0  0  0  0
 16 30  1  0  0  0  0
 17 24  1  0  0  0  0
 17 28  2  0  0  0  0
 18 30  2  0  0  0  0
 18 31  1  0  0  0  0
 19 32  1  0  0  0  0
 20 32  1  0  0  0  0
 20 33  2  0  0  0  0
 20 34  1  0  0  0  0
 21 23  2  0  0  0  0
 21 39  1  0  0  0  0
 22 24  2  0  0  0  0
 22 40  1  0  0  0  0
 23 52  1  0  0  0  0
 24 41  1  0  0  0  0
 25 62  1  0  0  0  0
 26 63  1  0  0  0  0
 27 83  1  0  0  0  0
 28 84  1  0  0  0  0
 29 31  2  0  0  0  0
 29 83  1  0  0  0  0
 30 85  1  0  0  0  0
 31 86  1  0  0  0  0
 32 67  2  0  0  0  0
 33 68  1  0  0  0  0
 33 71  1  0  0  0  0
 34 72  1  0  0  0  0
 34 78  2  0  0  0  0
 35 53  1  0  0  0  0
 35 73  1  0  0  0  0
 35 79  2  0  0  0  0
 36 64  1  0  0  0  0
 36 69  1  0  0  0  0
 36 80  2  0  0  0  0
 37 65  1  0  0  0  0
 37 74  1  0  0  0  0
 37 81  2  0  0  0  0
 38 70  1  0  0  0  0
 38 75  1  0  0  0  0
 38 82  2  0  0  0  0
 39 42  1  0  0  0  0
 40 53  1  0  0  0  0
 41 69  1  0  0  0  0
 42 46  1  0  0  0  0
 43 44  1  0  0  0  0
 43 48  1  0  0  0  0
 44 49  1  0  0  0  0
 45 47  1  0  0  0  0
 45 50  1  0  0  0  0
 46 52  1  0  0  0  0
 47 54  1  0  0  0  0
 48 55  1  0  0  0  0
 49 56  1  0  0  0  0
 50 70  1  0  0  0  0
 51 54  1  0  0  0  0
 51 70  1  0  0  0  0
 52 73  1  0  0  0  0
 53 69  1  0  0  0  0
 54 68  1  0  0  0  0
 55 56  1  0  0  0  0
 55 75  1  0  0  0  0
 56 76  1  0  0  0  0
 57 65  1  0  0  0  0
 58 66  1  0  0  0  0
 59 66  1  0  0  0  0
 60 66  1  0  0  0  0
 61 77  1  0  0  0  0
 62 76  1  0  0  0  0
 63 84  1  0  0  0  0
 64 66  1  0  0  0  0
 64 74  1  0  0  0  0
 65 77  1  0  0  0  0
 67 68  1  0  0  0  0
M  CHG  2  76   1  77   1
M  ISO  4  38 100  63 101  75 100  84 101
M  END
> <Batch ID>
0125

> <Smiles>
CNC(C)C(=O)NC(C(=O)N1Cc2cc([101O:1][101CH2:1]c3ccc(CNC4CCCCC4[100NH:0][100C:0](=O)N4CCCC(n5nc(-c6ccc(Oc7ccc(F)cc7F)cc6)c(C(N)=O)c5N)C4)cc3)ccc2CC1C(=O)NC1CCCc2ccccc21)C(C)(C)C

> <Shape>
0.231

> <Color>
0.066

> <Negative vol penalty>
0.000

$$$$

  -OEChem-04052320353D

 82 91  0     1  0  0  0  0  0999 V2000
  -28.2954  -19.6504   23.6901 C   0  0  0  0  0  0  0  0  0  0  0  0
  -28.0230  -18.2914   23.8148 C   0  0  0  0  0  0  0  0  0  0  0  0
  -31.2510  -32.2415   24.0160 C   0  0  0  0  0  0  0  0  0  0  0  0
  -31.3987  -30.8601   23.9425 C   0  0  0  0  0  0  0  0  0  0  0  0
  -29.2561  -20.0895   22.7787 C   0  0  0  0  0  0  0  0  0  0  0  0
  -28.7102  -17.3661   23.0286 C   0  0  0  0  0  0  0  0  0  0  0  0
  -22.9144   -9.8870   20.0462 C   0  0  0  0  0  0  0  0  0  0  0  0
  -23.6141  -10.0155   22.3550 C   0  0  0  0  0  0  0  0  0  0  0  0
  -30.1950  -32.8648   23.3526 C   0  0  0  0  0  0  0  0  0  0  0  0
  -30.4896  -30.1011   23.2064 C   0  0  0  0  0  0  0  0  0  0  0  0
  -31.6836  -25.0295   19.9877 C   0  0  0  0  0  0  0  0  0  0  0  0
  -31.6149  -18.6712   20.2704 C   0  0  0  0  0  0  0  0  0  0  0  0
  -31.3425  -17.3121   20.3952 C   0  0  0  0  0  0  0  0  0  0  0  0
  -22.1105   -8.7886   20.3509 C   0  0  0  0  0  0  0  0  0  0  0  0
  -22.8102   -8.9170   22.6598 C   0  0  0  0  0  0  0  0  0  0  0  0
  -31.5254  -23.6752   20.2783 C   0  0  0  0  0  0  0  0  0  0  0  0
  -22.9578   -5.5550   22.3342 C   0  0  0  0  0  0  0  0  0  0  0  0
  -23.5053   -4.5540   23.1366 C   0  0  0  0  0  0  0  0  0  0  0  0
  -29.4024  -23.6837   19.1328 C   0  0  0  0  0  0  0  0  0  0  0  0
  -21.7704   -4.9206   24.7776 C   0  0  0  0  0  0  0  0  0  0  0  0
  -29.9575  -19.1723   21.9792 C   0  0  0  0  0  0  0  0  0  0  0  0
  -29.6804  -17.7902   22.1061 C   0  0  0  0  0  0  0  0  0  0  0  0
  -23.6662  -10.5004   21.0483 C   0  0  0  0  0  0  0  0  0  0  0  0
  -24.1302  -12.9934   20.7698 C   0  0  0  0  0  0  0  0  0  0  0  0
  -29.2781  -32.1140   22.6000 C   0  0  0  0  0  0  0  0  0  0  0  0
  -30.6957  -25.7249   19.2757 C   0  0  0  0  0  0  0  0  0  0  0  0
  -29.4195  -30.7148   22.5334 C   0  0  0  0  0  0  0  0  0  0  0  0
  -29.5517  -25.0462   18.8323 C   0  0  0  0  0  0  0  0  0  0  0  0
  -30.9277  -19.5964   21.0566 C   0  0  0  0  0  0  0  0  0  0  0  0
  -30.3818  -16.8730   21.3066 C   0  0  0  0  0  0  0  0  0  0  0  0
  -22.0584   -8.3036   21.6577 C   0  0  0  0  0  0  0  0  0  0  0  0
  -30.3833  -23.0027   19.8534 C   0  0  0  0  0  0  0  0  0  0  0  0
  -21.8167   -6.2389   22.7535 C   0  0  0  0  0  0  0  0  0  0  0  0
  -22.9115   -4.2368   24.3583 C   0  0  0  0  0  0  0  0  0  0  0  0
  -21.2229   -5.9217   23.9752 C   0  0  0  0  0  0  0  0  0  0  0  0
  -24.4972  -11.6348   20.7340 C   0  0  0  0  0  0  0  0  0  0  0  0
  -25.2657  -13.6659   20.3892 C   0  0  0  0  0  0  0  0  0  0  0  0
  -22.8752  -13.5938   21.1163 C   0  0  0  0  0  0  0  0  0  0  0  0
  -28.7941  -28.1927   19.9064 C   0  0  0  0  0  0  0  0  0  0  0  0
  -27.9881  -27.8703   16.7809 C   0  0  0  0  0  0  0  0  0  0  0  0
  -27.7781  -25.8530   14.0363 C   0  0  0  0  0  0  0  0  0  0  0  0
  -30.7689  -14.4712   20.6523 C   0  0  0  0  0  0  0  0  0  0  0  0
  -28.1252  -32.8272   21.9390 C   0  0  0  0  0  0  0  0  0  0  0  0
  -30.8938  -27.1793   18.9472 C   0  0  0  0  0  0  0  0  0  0  0  0
  -28.4711  -25.7422   18.0471 C   0  0  0  0  0  0  0  0  0  0  0  0
  -27.4225  -31.9909   20.8727 C   0  0  0  0  0  0  0  0  0  0  0  0
  -29.6032  -11.9550   18.4192 C   0  0  0  0  0  0  0  0  0  0  0  0
  -27.1569  -30.5806   21.3896 C   0  0  0  0  0  0  0  0  0  0  0  0
  -28.1407  -11.7592   18.8253 C   0  0  0  0  0  0  0  0  0  0  0  0
  -30.4966  -12.2232   19.6289 C   0  0  0  0  0  0  0  0  0  0  0  0
  -28.5910  -13.1260   20.9028 C   0  0  0  0  0  0  0  0  0  0  0  0
  -28.4683  -29.8597   21.7246 C   0  0  1  0  0  0  0  0  0  0  0  0
  -29.5860  -27.9107   18.6610 C   0  0  1  0  0  0  0  0  0  0  0  0
  -27.6419  -12.9174   19.7114 C   0  0  2  0  0  0  0  0  0  0  0  0
  -27.0434  -25.8616   11.6368 C   0  0  0  0  0  0  0  0  0  0  0  0
  -25.0738  -27.7398   17.6753 C   0  0  0  0  0  0  0  0  0  0  0  0
  -24.4964  -26.8142   15.4219 C   0  0  0  0  0  0  0  0  0  0  0  0
  -25.4731  -29.1014   15.6159 C   0  0  0  0  0  0  0  0  0  0  0  0
  -30.5042  -25.2130   13.0784 C   0  0  0  0  0  0  0  0  0  0  0  0
  -31.2705  -21.0455   20.8722 C   0  0  0  0  0  0  0  0  0  1  0  0
  -26.9454  -27.0864   16.0211 C   0  0  1  0  0  0  0  0  0  0  0  0
  -28.2064  -26.0647   12.5954 C   0  0  2  0  0  0  0  0  0  0  0  0
  -25.5164  -27.6725   16.2000 C   0  0  0  0  0  0  0  0  0  0  0  0
  -25.7666  -11.4532   20.3600 N   0  0  0  0  0  0  0  0  0  0  0  0
  -26.2070  -12.7066   20.1572 N   0  0  0  0  0  0  0  0  0  0  0  0
  -28.7080  -27.1658   17.7563 N   0  0  0  0  0  0  0  0  0  0  0  0
  -29.9646  -13.3357   20.4189 N   0  0  0  0  0  0  0  0  0  0  0  0
  -25.5407  -14.9784   20.2336 N   0  0  0  0  0  0  0  0  0  0  0  0
  -21.8129  -12.7567   21.4840 N   0  0  0  0  0  0  0  0  0  0  0  0
  -30.1451  -15.4783   21.3880 N   0  0  0  0  0  0  0  0  0  0  0  0
  -29.1111  -29.3920   20.5152 N   0  0  0  0  0  0  0  0  0  0  0  0
  -27.4015  -27.0360   14.6363 N   0  0  0  0  0  0  0  0  0  0  0  0
  -29.2888  -25.1074   12.2307 N   0  3  0  0  0  0  0  0  0  0  0  0
  -22.6960  -14.8349   21.0845 O   0  0  0  0  0  0  0  0  0  0  0  0
  -27.9565  -27.3828   20.2861 O   0  0  0  0  0  0  0  0  0  0  0  0
  -28.1625  -29.0619   16.5138 O   0  0  0  0  0  0  0  0  0  0  0  0
  -27.7742  -24.7481   14.5745 O   0  0  0  0  0  0  0  0  0  0  0  0
  -31.9164  -14.5562   20.2075 O   0  0  0  0  0  0  0  0  0  0  0  0
  -21.2739   -7.2319   21.9554 O   0  0  0  0  0  0  0  0  0  0  0  0
  -30.2260  -21.6809   20.1362 O   0  0  0  0  0  0  0  0  0  1  0  0
  -23.4365   -3.2744   25.1280 F   0  0  0  0  0  0  0  0  0  0  0  0
  -20.1258   -6.5744   24.3828 F   0  0  0  0  0  0  0  0  0  0  0  0
  1  2  1  0  0  0  0
  1  5  2  0  0  0  0
  2  6  2  0  0  0  0
  3  4  1  0  0  0  0
  3  9  2  0  0  0  0
  4 10  2  0  0  0  0
  5 21  1  0  0  0  0
  6 22  1  0  0  0  0
  7 14  2  0  0  0  0
  7 23  1  0  0  0  0
  8 15  1  0  0  0  0
  8 23  2  0  0  0  0
  9 25  1  0  0  0  0
 10 27  1  0  0  0  0
 11 16  2  0  0  0  0
 11 26  1  0  0  0  0
 12 13  2  0  0  0  0
 12 29  1  0  0  0  0
 13 30  1  0  0  0  0
 14 31  1  0  0  0  0
 15 31  2  0  0  0  0
 16 32  1  0  0  0  0
 17 18  2  0  0  0  0
 17 33  1  0  0  0  0
 18 34  1  0  0  0  0
 19 28  1  0  0  0  0
 19 32  2  0  0  0  0
 20 34  2  0  0  0  0
 20 35  1  0  0  0  0
 21 22  1  0  0  0  0
 21 29  2  0  0  0  0
 22 30  2  0  0  0  0
 23 36  1  0  0  0  0
 24 36  1  0  0  0  0
 24 37  2  0  0  0  0
 24 38  1  0  0  0  0
 25 27  2  0  0  0  0
 25 43  1  0  0  0  0
 26 28  2  0  0  0  0
 26 44  1  0  0  0  0
 27 52  1  0  0  0  0
 28 45  1  0  0  0  0
 29 60  1  0  0  0  0
 30 70  1  0  0  0  0
 31 79  1  0  0  0  0
 32 80  1  0  0  0  0
 33 35  2  0  0  0  0
 33 79  1  0  0  0  0
 34 81  1  0  0  0  0
 35 82  1  0  0  0  0
 36 64  2  0  0  0  0
 37 65  1  0  0  0  0
 37 68  1  0  0  0  0
 38 69  1  0  0  0  0
 38 74  2  0  0  0  0
 39 53  1  0  0  0  0
 39 71  1  0  0  0  0
 39 75  2  0  0  0  0
 40 61  1  0  0  0  0
 40 66  1  0  0  0  0
 40 76  2  0  0  0  0
 41 62  1  0  0  0  0
 41 72  1  0  0  0  0
 41 77  2  0  0  0  0
 42 67  1  0  0  0  0
 42 70  1  0  0  0  0
 42 78  2  0  0  0  0
 43 46  1  0  0  0  0
 44 53  1  0  0  0  0
 45 66  1  0  0  0  0
 46 48  1  0  0  0  0
 47 49  1  0  0  0  0
 47 50  1  0  0  0  0
 48 52  1  0  0  0  0
 49 54  1  0  0  0  0
 50 67  1  0  0  0  0
 51 54  1  0  0  0  0
 51 67  1  0  0  0  0
 52 71  1  0  0  0  0
 53 66  1  0  0  0  0
 54 65  1  0  0  0  0
 55 62  1  0  0  0  0
 56 63  1  0  0  0  0
 57 63  1  0  0  0  0
 58 63  1  0  0  0  0
 59 73  1  0  0  0  0
 60 80  1  0  0  0  0
 61 63  1  0  0  0  0
 61 72  1  0  0  0  0
 62 73  1  0  0  0  0
 64 65  1  0  0  0  0
M  CHG  1  73   1
M  ISO  4  42 100  60 101  70 100  80 101
M  END
> <Batch ID>
0125

> <Smiles>
CNC(C)C(=O)NC(C(=O)N1Cc2cc([101O:1][101CH2:1]c3ccc([100NH:0][100C:0](=O)N4CCCC(n5nc(-c6ccc(Oc7ccc(F)cc7F)cc6)c(C(N)=O)c5N)C4)c4ccccc34)ccc2CC1C(=O)NC1CCCc2ccccc21)C(C)(C)C

> <Shape>
0.275

> <Color>
0.212

> <Negative vol penalty>
0.000

$$$$

  -OEChem-04052320353D

 85 94  0     1  0  0  0  0  0999 V2000
  -18.8866   -8.8946   22.1343 C   0  0  0  0  0  0  0  0  0  0  0  0
  -18.8471   -9.7395   21.0297 C   0  0  0  0  0  0  0  0  0  0  0  0
  -28.5651  -19.6606   14.6145 C   0  0  0  0  0  0  0  0  0  0  0  0
  -22.3749  -28.1281   23.2723 C   0  0  0  0  0  0  0  0  0  0  0  0
  -23.2722  -30.0113   22.0535 C   0  0  0  0  0  0  0  0  0  0  0  0
  -19.6898   -9.2158   23.2278 C   0  0  0  0  0  0  0  0  0  0  0  0
  -19.6099  -10.9067   21.0185 C   0  0  0  0  0  0  0  0  0  0  0  0
  -29.0074  -20.0021   15.8925 C   0  0  0  0  0  0  0  0  0  0  0  0
  -23.2138  -15.1776   16.5366 C   0  0  0  0  0  0  0  0  0  0  0  0
  -27.2107  -19.7587   14.2958 C   0  0  0  0  0  0  0  0  0  0  0  0
  -21.0830  -28.5087   22.9094 C   0  0  0  0  0  0  0  0  0  0  0  0
  -21.9803  -30.3919   21.6905 C   0  0  0  0  0  0  0  0  0  0  0  0
  -23.3102  -16.5197   16.1715 C   0  0  0  0  0  0  0  0  0  0  0  0
  -18.7963  -30.8002   23.8812 C   0  0  0  0  0  0  0  0  0  0  0  0
  -17.8156  -30.7895   24.8729 C   0  0  0  0  0  0  0  0  0  0  0  0
  -26.7408  -20.5397   16.5333 C   0  0  0  0  0  0  0  0  0  0  0  0
  -24.7217  -16.9324   18.0837 C   0  0  0  0  0  0  0  0  0  0  0  0
  -16.5429  -29.1803   23.5971 C   0  0  0  0  0  0  0  0  0  0  0  0
  -23.4695  -28.8794   22.8444 C   0  0  0  0  0  0  0  0  0  0  0  0
  -25.3200  -28.3665   24.5238 C   0  0  0  0  0  0  0  0  0  0  0  0
  -28.0953  -20.4416   16.8519 C   0  0  0  0  0  0  0  0  0  0  0  0
  -20.4703  -10.3826   23.2259 C   0  0  0  0  0  0  0  0  0  0  0  0
  -23.8629  -14.7043   17.6860 C   0  0  0  0  0  0  0  0  0  0  0  0
  -20.4233  -11.2445   22.1135 C   0  0  0  0  0  0  0  0  0  0  0  0
  -24.6341  -15.5833   18.4598 C   0  0  0  0  0  0  0  0  0  0  0  0
  -26.2985  -20.1983   15.2552 C   0  0  0  0  0  0  0  0  0  0  0  0
  -20.8857  -29.6406   22.1184 C   0  0  0  0  0  0  0  0  0  0  0  0
  -24.0618  -17.3979   16.9466 C   0  0  0  0  0  0  0  0  0  0  0  0
  -18.6503  -30.0010   22.7473 C   0  0  0  0  0  0  0  0  0  0  0  0
  -16.6889  -29.9795   24.7310 C   0  0  0  0  0  0  0  0  0  0  0  0
  -17.5237  -29.1910   22.6053 C   0  0  0  0  0  0  0  0  0  0  0  0
  -24.8043  -28.4871   23.2195 C   0  0  0  0  0  0  0  0  0  0  0  0
  -26.6221  -27.9690   24.3428 C   0  0  0  0  0  0  0  0  0  0  0  0
  -24.6792  -28.5935   25.7862 C   0  0  0  0  0  0  0  0  0  0  0  0
  -22.9110  -13.3862   20.4173 C   0  0  0  0  0  0  0  0  0  0  0  0
  -26.0984  -13.0340   20.9063 C   0  0  0  0  0  0  0  0  0  0  0  0
  -29.2700  -14.0825   20.2073 C   0  0  0  0  0  0  0  0  0  0  0  0
  -29.4234  -25.0750   19.9123 C   0  0  0  0  0  0  0  0  0  0  0  0
  -21.2866  -10.7119   24.4506 C   0  0  0  0  0  0  0  0  0  0  0  0
  -23.7709  -13.2482   18.0514 C   0  0  0  0  0  0  0  0  0  0  0  0
  -25.3668  -15.1209   19.6918 C   0  0  0  0  0  0  0  0  0  0  0  0
  -22.3523  -11.7767   24.2040 C   0  0  0  0  0  0  0  0  0  0  0  0
  -28.4693  -20.2805   20.7150 C   0  0  0  0  0  0  0  0  0  0  0  0
  -30.2342  -28.2852   21.2213 C   0  0  0  0  0  0  0  0  0  0  0  0
  -27.9673  -19.9054   19.3223 C   0  0  0  0  0  0  0  0  0  0  0  0
  -21.7636  -12.9520   23.4301 C   0  0  0  0  0  0  0  0  0  0  0  0
  -28.9811  -28.6901   21.9995 C   0  0  0  0  0  0  0  0  0  0  0  0
  -28.2182  -21.7541   21.0273 C   0  0  0  0  0  0  0  0  0  0  0  0
  -28.3187  -22.2992   18.5594 C   0  0  0  0  0  0  0  0  0  0  0  0
  -29.8850  -27.5084   19.9538 C   0  0  0  0  0  0  0  0  0  0  0  0
  -27.7628  -26.7407   20.9440 C   0  0  0  0  0  0  0  0  0  0  0  0
  -28.5777  -20.8145   18.2422 C   0  0  2  0  0  0  0  0  0  0  0  0
  -21.2555  -12.5070   22.0535 C   0  0  1  0  0  0  0  0  0  0  0  0
  -24.0526  -12.9835   19.5272 C   0  0  1  0  0  0  0  0  0  0  0  0
  -28.0664  -27.4780   22.2594 C   0  0  2  0  0  0  0  0  0  0  0  0
  -28.8263  -22.6665   19.9587 C   0  0  1  0  0  0  0  0  0  0  0  0
  -31.6683  -13.6268   20.7884 C   0  0  0  0  0  0  0  0  0  0  0  0
  -25.7188  -14.4572   23.5784 C   0  0  0  0  0  0  0  0  0  0  0  0
  -28.1953  -14.8158   23.6600 C   0  0  0  0  0  0  0  0  0  0  0  0
  -27.2720  -12.4985   23.6511 C   0  0  0  0  0  0  0  0  0  0  0  0
  -29.9375  -13.3901   17.4084 C   0  0  0  0  0  0  0  0  0  0  0  0
  -24.8328  -20.3038   14.9105 C   0  0  0  0  0  0  0  0  0  0  0  0
  -24.0744  -19.0133   15.2012 C   0  0  0  0  0  0  0  0  0  1  0  0
  -27.1833  -13.8761   21.5330 C   0  0  1  0  0  0  0  0  0  0  0  0
  -30.5255  -13.3148   19.8348 C   0  0  2  0  0  0  0  0  0  0  0  0
  -27.0771  -13.9213   23.0836 C   0  0  0  0  0  0  0  0  0  0  0  0
  -25.7053  -28.1903   22.2793 N   0  0  0  0  0  0  0  0  0  0  0  0
  -26.8004  -27.8794   22.9936 N   0  0  0  0  0  0  0  0  0  0  0  0
  -25.2409  -13.6893   20.0112 N   0  0  0  0  0  0  0  0  0  0  0  0
  -29.0172  -26.3713   20.2696 N   0  0  0  0  0  0  0  0  0  0  0  0
  -27.6207  -27.6908   25.2077 N   0  0  0  0  0  0  0  0  0  0  0  0
  -23.3374  -28.9982   25.7912 N   0  0  0  0  0  0  0  0  0  0  0  0
  -22.3620  -12.3411   21.1356 N   0  0  0  0  0  0  0  0  0  0  0  0
  -28.4489  -13.3474   21.0360 N   0  0  0  0  0  0  0  0  0  0  0  0
  -28.5452  -24.0538   20.2540 N   0  0  0  0  0  0  0  0  0  0  0  0
  -30.9572  -13.6673   18.4526 N   0  3  0  0  0  0  0  0  0  0  0  0
  -25.2836  -28.4578   26.8770 O   0  0  0  0  0  0  0  0  0  0  0  0
  -22.5556  -14.5584   20.4511 O   0  0  0  0  0  0  0  0  0  0  0  0
  -26.0193  -11.8373   21.1946 O   0  0  0  0  0  0  0  0  0  0  0  0
  -29.0423  -15.2218   19.8065 O   0  0  0  0  0  0  0  0  0  0  0  0
  -30.4921  -24.8442   19.3366 O   0  0  0  0  0  0  0  0  0  0  0  0
  -19.6252  -30.0121   21.7639 O   0  0  0  0  0  0  0  0  0  0  0  0
  -24.1569  -18.7085   16.5929 O   0  0  0  0  0  0  0  0  0  1  0  0
  -15.7480  -29.9682   25.6842 F   0  0  0  0  0  0  0  0  0  0  0  0
  -17.3784  -28.4201   21.5188 F   0  0  0  0  0  0  0  0  0  0  0  0
  1  2  1  0  0  0  0
  1  6  2  0  0  0  0
  2  7  2  0  0  0  0
  3  8  1  0  0  0  0
  3 10  2  0  0  0  0
  4 11  2  0  0  0  0
  4 19  1  0  0  0  0
  5 12  1  0  0  0  0
  5 19  2  0  0  0  0
  6 22  1  0  0  0  0
  7 24  1  0  0  0  0
  8 21  2  0  0  0  0
  9 13  2  0  0  0  0
  9 23  1  0  0  0  0
 10 26  1  0  0  0  0
 11 27  1  0  0  0  0
 12 27  2  0  0  0  0
 13 28  1  0  0  0  0
 14 15  2  0  0  0  0
 14 29  1  0  0  0  0
 15 30  1  0  0  0  0
 16 21  1  0  0  0  0
 16 26  2  0  0  0  0
 17 25  1  0  0  0  0
 17 28  2  0  0  0  0
 18 30  2  0  0  0  0
 18 31  1  0  0  0  0
 19 32  1  0  0  0  0
 20 32  1  0  0  0  0
 20 33  2  0  0  0  0
 20 34  1  0  0  0  0
 21 52  1  0  0  0  0
 22 24  2  0  0  0  0
 22 39  1  0  0  0  0
 23 25  2  0  0  0  0
 23 40  1  0  0  0  0
 24 53  1  0  0  0  0
 25 41  1  0  0  0  0
 26 62  1  0  0  0  0
 27 82  1  0  0  0  0
 28 83  1  0  0  0  0
 29 31  2  0  0  0  0
 29 82  1  0  0  0  0
 30 84  1  0  0  0  0
 31 85  1  0  0  0  0
 32 67  2  0  0  0  0
 33 68  1  0  0  0  0
 33 71  1  0  0  0  0
 34 72  1  0  0  0  0
 34 77  2  0  0  0  0
 35 54  1  0  0  0  0
 35 73  1  0  0  0  0
 35 78  2  0  0  0  0
 36 64  1  0  0  0  0
 36 69  1  0  0  0  0
 36 79  2  0  0  0  0
 37 65  1  0  0  0  0
 37 74  1  0  0  0  0
 37 80  2  0  0  0  0
 38 70  1  0  0  0  0
 38 75  1  0  0  0  0
 38 81  2  0  0  0  0
 39 42  1  0  0  0  0
 40 54  1  0  0  0  0
 41 69  1  0  0  0  0
 42 46  1  0  0  0  0
 43 45  1  0  0  0  0
 43 48  1  0  0  0  0
 44 47  1  0  0  0  0
 44 50  1  0  0  0  0
 45 52  1  0  0  0  0
 46 53  1  0  0  0  0
 47 55  1  0  0  0  0
 48 56  1  0  0  0  0
 49 52  1  0  0  0  0
 49 56  1  0  0  0  0
 50 70  1  0  0  0  0
 51 55  1  0  0  0  0
 51 70  1  0  0  0  0
 53 73  1  0  0  0  0
 54 69  1  0  0  0  0
 55 68  1  0  0  0  0
 56 75  1  0  0  0  0
 57 65  1  0  0  0  0
 58 66  1  0  0  0  0
 59 66  1  0  0  0  0
 60 66  1  0  0  0  0
 61 76  1  0  0  0  0
 62 63  1  0  0  0  0
 63 83  1  0  0  0  0
 64 66  1  0  0  0  0
 64 74  1  0  0  0  0
 65 76  1  0  0  0  0
 67 68  1  0  0  0  0
M  CHG  1  76   1
M  ISO  4  38 100  63 101  75 100  83 101
M  END
> <Batch ID>
0125

> <Smiles>
CNC(C)C(=O)NC(C(=O)N1Cc2cc([101O:1][101CH2:1]Cc3cccc(C4CCCC([100NH:0][100C:0](=O)N5CCCC(n6nc(-c7ccc(Oc8ccc(F)cc8F)cc7)c(C(N)=O)c6N)C5)C4)c3)ccc2CC1C(=O)NC1CCCc2ccccc21)C(C)(C)C

> <Shape>
0.228

> <Color>
0.064

> <Negative vol penalty>
0.000

$$$$

  -OEChem-04052320353D

 85 93  0     1  0  0  0  0  0999 V2000
  -32.4638  -17.5462   14.8827 C   0  0  0  0  0  0  0  0  0  0  0  0
  -32.0012  -18.8494   15.0351 C   0  0  0  0  0  0  0  0  0  0  0  0
  -23.2048  -17.6038   21.8679 C   0  0  0  0  0  0  0  0  0  0  0  0
  -25.2897  -18.7541   21.4592 C   0  0  0  0  0  0  0  0  0  0  0  0
  -32.1810  -16.5890   15.8561 C   0  0  0  0  0  0  0  0  0  0  0  0
  -31.2544  -19.1957   16.1606 C   0  0  0  0  0  0  0  0  0  0  0  0
  -31.3112  -24.5641   19.1074 C   0  0  0  0  0  0  0  0  0  0  0  0
  -23.2964  -29.3232   20.0838 C   0  0  0  0  0  0  0  0  0  0  0  0
  -23.6855  -16.4886   21.1818 C   0  0  0  0  0  0  0  0  0  0  0  0
  -25.7705  -17.6389   20.7731 C   0  0  0  0  0  0  0  0  0  0  0  0
  -30.4651  -25.6710   19.0565 C   0  0  0  0  0  0  0  0  0  0  0  0
  -24.5388  -29.0938   19.4927 C   0  0  0  0  0  0  0  0  0  0  0  0
  -24.4984  -13.2055   19.8493 C   0  0  0  0  0  0  0  0  0  0  0  0
  -24.2896  -11.9514   20.4231 C   0  0  0  0  0  0  0  0  0  0  0  0
  -25.6365  -29.7954   21.5274 C   0  0  0  0  0  0  0  0  0  0  0  0
  -29.2674  -24.8362   20.9769 C   0  0  0  0  0  0  0  0  0  0  0  0
  -25.5482  -12.6324   22.3696 C   0  0  0  0  0  0  0  0  0  0  0  0
  -24.0069  -18.7366   22.0066 C   0  0  0  0  0  0  0  0  0  0  0  0
  -24.3941  -30.0249   22.1185 C   0  0  0  0  0  0  0  0  0  0  0  0
  -23.6321  -20.1585   24.0912 C   0  0  0  0  0  0  0  0  0  0  0  0
  -31.4386  -16.9261   16.9988 C   0  0  0  0  0  0  0  0  0  0  0  0
  -31.1346  -23.5777   20.0884 C   0  0  0  0  0  0  0  0  0  0  0  0
  -30.9602  -18.2417   17.1496 C   0  0  0  0  0  0  0  0  0  0  0  0
  -30.1142  -23.7190   21.0396 C   0  0  0  0  0  0  0  0  0  0  0  0
  -23.2240  -29.7888   21.3967 C   0  0  0  0  0  0  0  0  0  0  0  0
  -24.9684  -16.5061   20.6344 C   0  0  0  0  0  0  0  0  0  0  0  0
  -25.7088  -29.3298   20.2144 C   0  0  0  0  0  0  0  0  0  0  0  0
  -29.4412  -25.8058   19.9895 C   0  0  0  0  0  0  0  0  0  0  0  0
  -25.2322  -14.1731   20.5357 C   0  0  0  0  0  0  0  0  0  0  0  0
  -24.8145  -11.6649   21.6832 C   0  0  0  0  0  0  0  0  0  0  0  0
  -25.7571  -13.8865   21.7958 C   0  0  0  0  0  0  0  0  0  0  0  0
  -23.5106  -19.8891   22.7148 C   0  0  0  0  0  0  0  0  0  0  0  0
  -23.0003  -21.3660   24.2618 C   0  0  0  0  0  0  0  0  0  0  0  0
  -24.3472  -30.5108   23.4909 C   0  0  0  0  0  0  0  0  0  0  0  0
  -24.2600  -19.3862   25.1232 C   0  0  0  0  0  0  0  0  0  0  0  0
  -30.4533  -20.4732   20.0507 C   0  0  0  0  0  0  0  0  0  0  0  0
  -30.9848  -20.7154   23.2415 C   0  0  0  0  0  0  0  0  0  0  0  0
  -31.0797  -22.6934   26.0209 C   0  0  0  0  0  0  0  0  0  0  0  0
  -22.1331  -26.5418   22.7106 C   0  0  0  0  0  0  0  0  0  0  0  0
  -31.1177  -15.8456   18.0009 C   0  0  0  0  0  0  0  0  0  0  0  0
  -32.0725  -22.4032   20.1461 C   0  0  0  0  0  0  0  0  0  0  0  0
  -29.8952  -22.6983   22.1253 C   0  0  0  0  0  0  0  0  0  0  0  0
  -30.6390  -16.3853   19.3462 C   0  0  0  0  0  0  0  0  0  0  0  0
  -20.0792  -24.0309   21.1063 C   0  0  0  0  0  0  0  0  0  0  0  0
  -29.5881  -17.4719   19.1421 C   0  0  0  0  0  0  0  0  0  0  0  0
  -20.8074  -22.7447   21.5009 C   0  0  0  0  0  0  0  0  0  0  0  0
  -21.0654  -25.1612   20.8274 C   0  0  0  0  0  0  0  0  0  0  0  0
  -22.7339  -24.1655   22.3434 C   0  0  0  0  0  0  0  0  0  0  0  0
  -30.1681  -18.6621   18.3686 C   0  0  1  0  0  0  0  0  0  0  0  0
  -31.4794  -21.2002   20.8730 C   0  0  1  0  0  0  0  0  0  0  0  0
  -21.7907  -22.9908   22.6605 C   0  0  2  0  0  0  0  0  0  0  0  0
  -24.9723  -29.6518   24.5499 C   0  0  0  0  0  0  0  0  0  0  0  0
  -31.5091  -22.5998   28.4916 C   0  0  0  0  0  0  0  0  0  0  0  0
  -28.2416  -19.4492   23.6679 C   0  0  0  0  0  0  0  0  0  0  0  0
  -28.3215  -20.2427   26.0411 C   0  0  0  0  0  0  0  0  0  0  0  0
  -30.0250  -18.6197   25.2126 C   0  0  0  0  0  0  0  0  0  0  0  0
  -33.3599  -24.5686   25.8131 C   0  0  0  0  0  0  0  0  0  0  0  0
  -21.8804  -30.0261   22.0052 C   0  0  0  0  0  0  0  0  0  0  0  0
  -21.4333  -28.9099   22.9551 C   0  0  0  0  0  0  0  0  0  0  0  0
  -26.9897  -28.0826   18.6462 C   0  0  0  0  0  0  0  0  0  0  0  0
  -28.3739  -27.4633   18.6594 C   0  0  0  0  0  0  0  0  0  1  0  0
  -30.1311  -21.0269   24.4469 C   0  0  1  0  0  0  0  0  0  0  0  0
  -32.1180  -22.8389   27.1187 C   0  0  2  0  0  0  0  0  0  0  0  0
  -29.1824  -19.8531   24.8206 C   0  0  0  0  0  0  0  0  0  0  0  0
  -22.8532  -20.8483   22.0577 N   0  0  0  0  0  0  0  0  0  0  0  0
  -22.5558  -21.7321   23.0254 N   0  0  0  0  0  0  0  0  0  0  0  0
  -30.8344  -21.5646   22.1360 N   0  0  0  0  0  0  0  0  0  0  0  0
  -21.9601  -25.3564   21.9770 N   0  0  0  0  0  0  0  0  0  0  0  0
  -22.7871  -22.1398   25.3473 N   0  0  0  0  0  0  0  0  0  0  0  0
  -24.8621  -18.1695   24.7747 N   0  0  0  0  0  0  0  0  0  0  0  0
  -30.9788  -19.4848   19.2406 N   0  0  0  0  0  0  0  0  0  0  0  0
  -31.0520  -21.4127   25.5106 N   0  0  0  0  0  0  0  0  0  0  0  0
  -21.3685  -27.6250   22.2949 N   0  0  0  0  0  0  0  0  0  0  0  0
  -32.7059  -24.2081   27.0974 N   0  3  0  0  0  0  0  0  0  0  0  0
  -23.8291  -31.5703   23.8455 O   0  0  0  0  0  0  0  0  0  0  0  0
  -24.2720  -19.7560   26.3218 O   0  0  0  0  0  0  0  0  0  0  0  0
  -29.2719  -20.7849   20.1454 O   0  0  0  0  0  0  0  0  0  0  0  0
  -31.7619  -19.7582   23.2819 O   0  0  0  0  0  0  0  0  0  0  0  0
  -30.3621  -23.6218   25.6554 O   0  0  0  0  0  0  0  0  0  0  0  0
  -22.9082  -26.6274   23.6693 O   0  0  0  0  0  0  0  0  0  0  0  0
  -25.4379  -15.4180   19.9650 O   0  0  0  0  0  0  0  0  0  0  0  0
  -26.9289  -29.1053   19.6331 O   0  0  0  0  0  0  0  0  0  0  0  0
  -28.6135  -26.8849   19.9417 O   0  0  0  0  0  0  0  0  0  1  0  0
  -24.6126  -10.4610   22.2347 F   0  0  0  0  0  0  0  0  0  0  0  0
  -26.4618  -14.8124   22.4606 F   0  0  0  0  0  0  0  0  0  0  0  0
  1  2  1  0  0  0  0
  1  5  2  0  0  0  0
  2  6  2  0  0  0  0
  3  9  2  0  0  0  0
  3 18  1  0  0  0  0
  4 10  1  0  0  0  0
  4 18  2  0  0  0  0
  5 21  1  0  0  0  0
  6 23  1  0  0  0  0
  7 11  2  0  0  0  0
  7 22  1  0  0  0  0
  8 12  2  0  0  0  0
  8 25  1  0  0  0  0
  9 26  1  0  0  0  0
 10 26  2  0  0  0  0
 11 28  1  0  0  0  0
 12 27  1  0  0  0  0
 13 14  2  0  0  0  0
 13 29  1  0  0  0  0
 14 30  1  0  0  0  0
 15 19  1  0  0  0  0
 15 27  2  0  0  0  0
 16 24  1  0  0  0  0
 16 28  2  0  0  0  0
 17 30  2  0  0  0  0
 17 31  1  0  0  0  0
 18 32  1  0  0  0  0
 19 25  2  0  0  0  0
 19 34  1  0  0  0  0
 20 32  1  0  0  0  0
 20 33  2  0  0  0  0
 20 35  1  0  0  0  0
 21 23  2  0  0  0  0
 21 40  1  0  0  0  0
 22 24  2  0  0  0  0
 22 41  1  0  0  0  0
 23 49  1  0  0  0  0
 24 42  1  0  0  0  0
 25 58  1  0  0  0  0
 26 81  1  0  0  0  0
 27 82  1  0  0  0  0
 28 83  1  0  0  0  0
 29 31  2  0  0  0  0
 29 81  1  0  0  0  0
 30 84  1  0  0  0  0
 31 85  1  0  0  0  0
 32 65  2  0  0  0  0
 33 66  1  0  0  0  0
 33 69  1  0  0  0  0
 34 52  1  0  0  0  0
 34 75  2  0  0  0  0
 35 70  1  0  0  0  0
 35 76  2  0  0  0  0
 36 50  1  0  0  0  0
 36 71  1  0  0  0  0
 36 77  2  0  0  0  0
 37 62  1  0  0  0  0
 37 67  1  0  0  0  0
 37 78  2  0  0  0  0
 38 63  1  0  0  0  0
 38 72  1  0  0  0  0
 38 79  2  0  0  0  0
 39 68  1  0  0  0  0
 39 73  1  0  0  0  0
 39 80  2  0  0  0  0
 40 43  1  0  0  0  0
 41 50  1  0  0  0  0
 42 67  1  0  0  0  0
 43 45  1  0  0  0  0
 44 46  1  0  0  0  0
 44 47  1  0  0  0  0
 45 49  1  0  0  0  0
 46 51  1  0  0  0  0
 47 68  1  0  0  0  0
 48 51  1  0  0  0  0
 48 68  1  0  0  0  0
 49 71  1  0  0  0  0
 50 67  1  0  0  0  0
 51 66  1  0  0  0  0
 53 63  1  0  0  0  0
 54 64  1  0  0  0  0
 55 64  1  0  0  0  0
 56 64  1  0  0  0  0
 57 74  1  0  0  0  0
 58 59  1  0  0  0  0
 59 73  1  0  0  0  0
 60 61  1  0  0  0  0
 60 82  1  0  0  0  0
 61 83  1  0  0  0  0
 62 64  1  0  0  0  0
 62 72  1  0  0  0  0
 63 74  1  0  0  0  0
 65 66  1  0  0  0  0
M  CHG  1  74   1
M  ISO  4  39 100  61 101  73 100  83 101
M  END
> <Batch ID>
0125

> <Smiles>
CNC(C)C(=O)NC(C(=O)N1Cc2cc([101O:1][101CH2:1]COc3ccc(CC[100NH:0][100C:0](=O)N4CCCC(n5nc(-c6ccc(Oc7ccc(F)cc7F)cc6)c(C(N)=O)c5N)C4)c(C(C)=O)c3)ccc2CC1C(=O)NC1CCCc2ccccc21)C(C)(C)C

> <Shape>
0.175

> <Color>
0.091

> <Negative vol penalty>
0.000

$$$$

  -OEChem-04052320353D

 88 97  0     1  0  0  0  0  0999 V2000
  -19.9553  -23.2832   23.0663 C   0  0  0  0  0  0  0  0  0  0  0  0
  -21.3013  -23.0210   22.8318 C   0  0  0  0  0  0  0  0  0  0  0  0
  -23.0933   -9.9291   19.9452 C   0  0  0  0  0  0  0  0  0  0  0  0
  -23.8088   -9.9797   22.2522 C   0  0  0  0  0  0  0  0  0  0  0  0
  -19.2759  -24.2024   22.2679 C   0  0  0  0  0  0  0  0  0  0  0  0
  -21.9684  -23.6770   21.7979 C   0  0  0  0  0  0  0  0  0  0  0  0
  -27.8224  -25.4757   21.7515 C   0  0  0  0  0  0  0  0  0  0  0  0
  -22.3601   -8.7698   20.1980 C   0  0  0  0  0  0  0  0  0  0  0  0
  -23.0756   -8.8204   22.5051 C   0  0  0  0  0  0  0  0  0  0  0  0
  -28.9738  -24.9080   21.2076 C   0  0  0  0  0  0  0  0  0  0  0  0
  -21.6832   -5.6731   23.6738 C   0  0  0  0  0  0  0  0  0  0  0  0
  -22.2968   -4.6681   24.4215 C   0  0  0  0  0  0  0  0  0  0  0  0
  -27.0863  -19.6704   20.0170 C   0  0  0  0  0  0  0  0  0  0  0  0
  -28.7227  -26.2914   19.2474 C   0  0  0  0  0  0  0  0  0  0  0  0
  -29.2987  -20.2335   19.2412 C   0  0  0  0  0  0  0  0  0  0  0  0
  -24.0354   -4.4886   22.7535 C   0  0  0  0  0  0  0  0  0  0  0  0
  -23.8177  -10.5341   20.9723 C   0  0  0  0  0  0  0  0  0  0  0  0
  -24.1283  -13.0616   20.8215 C   0  0  0  0  0  0  0  0  0  0  0  0
  -19.9375  -24.8772   21.2299 C   0  0  0  0  0  0  0  0  0  0  0  0
  -27.1052  -26.4493   21.0414 C   0  0  0  0  0  0  0  0  0  0  0  0
  -21.2969  -24.6051   20.9840 C   0  0  0  0  0  0  0  0  0  0  0  0
  -26.5344  -20.6472   19.1762 C   0  0  0  0  0  0  0  0  0  0  0  0
  -27.5639  -26.8717   19.7856 C   0  0  0  0  0  0  0  0  0  0  0  0
  -27.3750  -21.4503   18.3788 C   0  0  0  0  0  0  0  0  0  0  0  0
  -28.4640  -19.4640   20.0466 C   0  0  0  0  0  0  0  0  0  0  0  0
  -22.3512   -8.2154   21.4780 C   0  0  0  0  0  0  0  0  0  0  0  0
  -29.4225  -25.3137   19.9542 C   0  0  0  0  0  0  0  0  0  0  0  0
  -22.2456   -6.0858   22.4659 C   0  0  0  0  0  0  0  0  0  0  0  0
  -28.7575  -21.2170   18.4115 C   0  0  0  0  0  0  0  0  0  0  0  0
  -23.4729   -4.0759   23.9614 C   0  0  0  0  0  0  0  0  0  0  0  0
  -23.4217   -5.4936   22.0057 C   0  0  0  0  0  0  0  0  0  0  0  0
  -24.5757  -11.7314   20.7116 C   0  0  0  0  0  0  0  0  0  0  0  0
  -25.2172  -13.8205   20.4679 C   0  0  0  0  0  0  0  0  0  0  0  0
  -22.8433  -13.5662   21.2085 C   0  0  0  0  0  0  0  0  0  0  0  0
  -24.1620  -26.6485   19.8575 C   0  0  0  0  0  0  0  0  0  0  0  0
  -25.0536  -29.6965   19.1963 C   0  0  0  0  0  0  0  0  0  0  0  0
  -27.5816  -31.9142   18.6150 C   0  0  0  0  0  0  0  0  0  0  0  0
  -30.6823  -14.9163   20.7453 C   0  0  0  0  0  0  0  0  0  0  0  0
  -19.1493  -25.8271   20.3633 C   0  0  0  0  0  0  0  0  0  0  0  0
  -25.8800  -27.0712   21.6536 C   0  0  0  0  0  0  0  0  0  0  0  0
  -25.0407  -20.8635   19.1618 C   0  0  0  0  0  0  0  0  0  0  0  0
  -26.8414  -27.9281   18.9916 C   0  0  0  0  0  0  0  0  0  0  0  0
  -20.0242  -26.7575   19.5272 C   0  0  0  0  0  0  0  0  0  0  0  0
  -24.5943  -21.5663   17.8799 C   0  0  0  0  0  0  0  0  0  0  0  0
  -29.6224  -12.4821   18.3729 C   0  0  0  0  0  0  0  0  0  0  0  0
  -21.1435  -25.9726   18.8504 C   0  0  0  0  0  0  0  0  0  0  0  0
  -28.1809  -12.1753   18.7827 C   0  0  0  0  0  0  0  0  0  0  0  0
  -25.4568  -22.7968   17.6247 C   0  0  0  0  0  0  0  0  0  0  0  0
  -30.5133  -12.7328   19.5876 C   0  0  0  0  0  0  0  0  0  0  0  0
  -28.5758  -13.4581   20.9269 C   0  0  0  0  0  0  0  0  0  0  0  0
  -22.0616  -25.3151   19.8879 C   0  0  1  0  0  0  0  0  0  0  0  0
  -24.9405  -27.6836   20.6193 C   0  0  1  0  0  0  0  0  0  0  0  0
  -27.6268  -13.2533   19.7336 C   0  0  2  0  0  0  0  0  0  0  0  0
  -27.9978  -34.3275   18.0668 C   0  0  0  0  0  0  0  0  0  0  0  0
  -24.2156  -29.1824   16.3078 C   0  0  0  0  0  0  0  0  0  0  0  0
  -25.5067  -31.2220   15.6435 C   0  0  0  0  0  0  0  0  0  0  0  0
  -23.5669  -31.4275   17.1984 C   0  0  0  0  0  0  0  0  0  0  0  0
  -29.1080  -32.3390   21.1147 C   0  0  0  0  0  0  0  0  0  0  0  0
  -31.4701  -23.4831   17.5946 C   0  0  0  0  0  0  0  0  0  0  0  0
  -30.4155  -18.2122   20.9688 C   0  0  0  0  0  0  0  0  0  0  0  0
  -30.6959  -17.0853   21.9513 C   0  0  0  0  0  0  0  0  0  0  0  0
  -30.6138  -24.6732   17.9981 C   0  0  0  0  0  0  0  0  0  1  0  0
  -30.9170  -22.1745   18.1366 C   0  0  0  0  0  0  0  0  0  0  0  0
  -25.7163  -30.3872   18.0290 C   0  0  1  0  0  0  0  0  0  0  0  0
  -27.8572  -33.2973   19.1767 C   0  0  2  0  0  0  0  0  0  0  0  0
  -24.7642  -30.5334   16.8086 C   0  0  0  0  0  0  0  0  0  0  0  0
  -25.8495  -11.6466   20.3189 N   0  0  0  0  0  0  0  0  0  0  0  0
  -26.2118  -12.9332   20.1788 N   0  0  0  0  0  0  0  0  0  0  0  0
  -26.8557  -22.4252   17.5349 N   0  0  0  0  0  0  0  0  0  0  0  0
  -25.6451  -28.5015   19.6299 N   0  0  0  0  0  0  0  0  0  0  0  0
  -29.9323  -13.7665   20.4476 N   0  0  0  0  0  0  0  0  0  0  0  0
  -25.4113  -15.1535   20.3792 N   0  0  0  0  0  0  0  0  0  0  0  0
  -21.8372  -12.6485   21.5399 N   0  0  0  0  0  0  0  0  0  0  0  0
  -29.0118  -18.4755   20.8900 N   0  0  0  0  0  0  0  0  0  0  0  0
  -22.9670  -26.2923   20.4531 N   0  0  0  0  0  0  0  0  0  0  0  0
  -26.2297  -31.6530   18.5414 N   0  0  0  0  0  0  0  0  0  0  0  0
  -30.0548  -15.8491   21.5620 N   0  0  0  0  0  0  0  0  0  0  0  0
  -29.1161  -33.2911   19.9743 N   0  3  0  0  0  0  0  0  0  0  0  0
  -22.5896  -14.7943   21.2431 O   0  0  0  0  0  0  0  0  0  0  0  0
  -24.6113  -26.2069   18.8065 O   0  0  0  0  0  0  0  0  0  0  0  0
  -24.0523  -30.2025   19.7093 O   0  0  0  0  0  0  0  0  0  0  0  0
  -28.4759  -31.1442   18.2721 O   0  0  0  0  0  0  0  0  0  0  0  0
  -31.8243  -15.1005   20.3108 O   0  0  0  0  0  0  0  0  0  0  0  0
  -21.6357   -7.0843   21.7251 O   0  0  0  0  0  0  0  0  0  0  0  0
  -30.5457  -24.7607   19.4207 O   0  0  0  0  0  0  0  0  0  1  0  0
  -29.6060  -21.9590   17.6318 O   0  0  0  0  0  0  0  0  0  0  0  0
  -24.0628   -3.1119   24.6803 F   0  0  0  0  0  0  0  0  0  0  0  0
  -23.9674   -5.8867   20.8466 F   0  0  0  0  0  0  0  0  0  0  0  0
  1  2  1  0  0  0  0
  1  5  2  0  0  0  0
  2  6  2  0  0  0  0
  3  8  2  0  0  0  0
  3 17  1  0  0  0  0
  4  9  1  0  0  0  0
  4 17  2  0  0  0  0
  5 19  1  0  0  0  0
  6 21  1  0  0  0  0
  7 10  2  0  0  0  0
  7 20  1  0  0  0  0
  8 26  1  0  0  0  0
  9 26  2  0  0  0  0
 10 27  1  0  0  0  0
 11 12  2  0  0  0  0
 11 28  1  0  0  0  0
 12 30  1  0  0  0  0
 13 22  2  0  0  0  0
 13 25  1  0  0  0  0
 14 23  1  0  0  0  0
 14 27  2  0  0  0  0
 15 25  2  0  0  0  0
 15 29  1  0  0  0  0
 16 30  2  0  0  0  0
 16 31  1  0  0  0  0
 17 32  1  0  0  0  0
 18 32  1  0  0  0  0
 18 33  2  0  0  0  0
 18 34  1  0  0  0  0
 19 21  2  0  0  0  0
 19 39  1  0  0  0  0
 20 23  2  0  0  0  0
 20 40  1  0  0  0  0
 21 51  1  0  0  0  0
 22 24  1  0  0  0  0
 22 41  1  0  0  0  0
 23 42  1  0  0  0  0
 24 29  2  0  0  0  0
 24 69  1  0  0  0  0
 25 74  1  0  0  0  0
 26 84  1  0  0  0  0
 27 85  1  0  0  0  0
 28 31  2  0  0  0  0
 28 84  1  0  0  0  0
 29 86  1  0  0  0  0
 30 87  1  0  0  0  0
 31 88  1  0  0  0  0
 32 67  2  0  0  0  0
 33 68  1  0  0  0  0
 33 72  1  0  0  0  0
 34 73  1  0  0  0  0
 34 79  2  0  0  0  0
 35 52  1  0  0  0  0
 35 75  1  0  0  0  0
 35 80  2  0  0  0  0
 36 64  1  0  0  0  0
 36 70  1  0  0  0  0
 36 81  2  0  0  0  0
 37 65  1  0  0  0  0
 37 76  1  0  0  0  0
 37 82  2  0  0  0  0
 38 71  1  0  0  0  0
 38 77  1  0  0  0  0
 38 83  2  0  0  0  0
 39 43  1  0  0  0  0
 40 52  1  0  0  0  0
 41 44  1  0  0  0  0
 42 70  1  0  0  0  0
 43 46  1  0  0  0  0
 44 48  1  0  0  0  0
 45 47  1  0  0  0  0
 45 49  1  0  0  0  0
 46 51  1  0  0  0  0
 47 53  1  0  0  0  0
 48 69  1  0  0  0  0
 49 71  1  0  0  0  0
 50 53  1  0  0  0  0
 50 71  1  0  0  0  0
 51 75  1  0  0  0  0
 52 70  1  0  0  0  0
 53 68  1  0  0  0  0
 54 65  1  0  0  0  0
 55 66  1  0  0  0  0
 56 66  1  0  0  0  0
 57 66  1  0  0  0  0
 58 78  1  0  0  0  0
 59 62  1  0  0  0  0
 59 63  1  0  0  0  0
 60 61  1  0  0  0  0
 60 74  1  0  0  0  0
 61 77  1  0  0  0  0
 62 85  1  0  0  0  0
 63 86  1  0  0  0  0
 64 66  1  0  0  0  0
 64 76  1  0  0  0  0
 65 78  1  0  0  0  0
 67 68  1  0  0  0  0
M  CHG  1  78   1
M  ISO  4  38 100  62 101  77 100  85 101
M  END
> <Batch ID>
0125

> <Smiles>
CNC(C)C(=O)NC(C(=O)N1Cc2cc([101O:1][101CH2:1]CCOc3cc(NCC[100NH:0][100C:0](=O)N4CCCC(n5nc(-c6ccc(Oc7ccc(F)cc7F)cc6)c(C(N)=O)c5N)C4)cc4c3NCCC4)ccc2CC1C(=O)NC1CCCc2ccccc21)C(C)(C)C

> <Shape>
0.295

> <Color>
0.215

> <Negative vol penalty>
0.000

$$$$

  -OEChem-04052320353D

 89 98  0     1  0  0  0  0  0999 V2000
  -29.2341  -30.7690   26.6612 C   0  0  0  0  0  0  0  0  0  0  0  0
  -28.4040  -29.7429   26.2216 C   0  0  0  0  0  0  0  0  0  0  0  0
  -26.4283  -13.0484   21.3016 C   0  0  0  0  0  0  0  0  0  0  0  0
  -24.9439  -14.6340   20.2436 C   0  0  0  0  0  0  0  0  0  0  0  0
  -29.1764  -32.0210   26.0502 C   0  0  0  0  0  0  0  0  0  0  0  0
  -27.5149  -29.9684   25.1713 C   0  0  0  0  0  0  0  0  0  0  0  0
  -27.5119  -26.2023   21.7858 C   0  0  0  0  0  0  0  0  0  0  0  0
  -25.6556  -11.9966   20.8095 C   0  0  0  0  0  0  0  0  0  0  0  0
  -24.1711  -13.5822   19.7515 C   0  0  0  0  0  0  0  0  0  0  0  0
  -26.8107  -25.0450   22.1214 C   0  0  0  0  0  0  0  0  0  0  0  0
  -22.7425  -10.4696   21.5886 C   0  0  0  0  0  0  0  0  0  0  0  0
  -22.4291   -9.4312   22.4655 C   0  0  0  0  0  0  0  0  0  0  0  0
  -24.9610  -25.7774   20.7571 C   0  0  0  0  0  0  0  0  0  0  0  0
  -23.5543   -7.8637   21.0115 C   0  0  0  0  0  0  0  0  0  0  0  0
  -26.0724  -14.3671   21.0187 C   0  0  0  0  0  0  0  0  0  0  0  0
  -27.9712  -16.0666   20.8996 C   0  0  0  0  0  0  0  0  0  0  0  0
  -28.2930  -32.2591   24.9856 C   0  0  0  0  0  0  0  0  0  0  0  0
  -26.9377  -27.1626   20.9406 C   0  0  0  0  0  0  0  0  0  0  0  0
  -27.4444  -31.2250   24.5464 C   0  0  0  0  0  0  0  0  0  0  0  0
  -25.6581  -26.9448   20.4102 C   0  0  0  0  0  0  0  0  0  0  0  0
  -24.5270  -12.2634   20.0344 C   0  0  0  0  0  0  0  0  0  0  0  0
  -25.5338  -24.8337   21.6094 C   0  0  0  0  0  0  0  0  0  0  0  0
  -23.4618  -10.2051   20.4231 C   0  0  0  0  0  0  0  0  0  0  0  0
  -22.8350   -8.1283   22.1770 C   0  0  0  0  0  0  0  0  0  0  0  0
  -23.8677   -8.9022   20.1346 C   0  0  0  0  0  0  0  0  0  0  0  0
  -26.8699  -15.4541   21.5272 C   0  0  0  0  0  0  0  0  0  0  0  0
  -28.3750  -17.0364   21.7844 C   0  0  0  0  0  0  0  0  0  0  0  0
  -28.5750  -15.7843   19.6302 C   0  0  0  0  0  0  0  0  0  0  0  0
  -26.1176  -30.2182   21.2480 C   0  0  0  0  0  0  0  0  0  0  0  0
  -25.5013  -29.9684   18.0731 C   0  0  0  0  0  0  0  0  0  0  0  0
  -24.7331  -27.9641   15.4199 C   0  0  0  0  0  0  0  0  0  0  0  0
  -25.5275  -20.0650   26.0938 C   0  0  0  0  0  0  0  0  0  0  0  0
  -28.2329  -33.6425   24.3877 C   0  0  0  0  0  0  0  0  0  0  0  0
  -27.7179  -28.3931   20.5668 C   0  0  0  0  0  0  0  0  0  0  0  0
  -25.0050  -27.9354   19.4825 C   0  0  0  0  0  0  0  0  0  0  0  0
  -27.5288  -33.6910   23.0342 C   0  0  0  0  0  0  0  0  0  0  0  0
  -28.4377  -18.0469   26.4605 C   0  0  0  0  0  0  0  0  0  0  0  0
  -26.2239  -32.9025   23.0826 C   0  0  0  0  0  0  0  0  0  0  0  0
  -28.4653  -17.2088   25.1811 C   0  0  0  0  0  0  0  0  0  0  0  0
  -22.6136  -21.6059   25.6288 C   0  0  0  0  0  0  0  0  0  0  0  0
  -21.7310  -22.5615   24.8176 C   0  0  0  0  0  0  0  0  0  0  0  0
  -19.1788  -28.5559   23.0894 C   0  0  0  0  0  0  0  0  0  0  0  0
  -17.9688  -27.6369   23.0251 C   0  0  0  0  0  0  0  0  0  0  0  0
  -27.0109  -18.2771   26.9537 C   0  0  0  0  0  0  0  0  0  0  0  0
  -26.1211  -18.0108   24.6710 C   0  0  0  0  0  0  0  0  0  0  0  0
  -26.4842  -31.4236   23.3936 C   0  0  1  0  0  0  0  0  0  0  0  0
  -26.8309  -29.5467   20.1087 C   0  0  1  0  0  0  0  0  0  0  0  0
  -23.8607  -22.4448   23.7172 C   0  0  1  0  0  0  0  0  0  0  0  0
  -27.5353  -17.7990   24.1041 C   0  0  2  0  0  0  0  0  0  0  0  0
  -24.0403  -21.7786   25.0884 C   0  0  2  0  0  0  0  0  0  0  0  0
  -22.7088  -23.4035   24.0109 C   0  0  1  0  0  0  0  0  0  0  0  0
  -20.3034  -27.7961   22.3755 C   0  0  2  0  0  0  0  0  0  0  0  0
  -18.5602  -26.2634   22.7354 C   0  0  1  0  0  0  0  0  0  0  0  0
  -20.9597  -28.6471   21.2940 C   0  0  0  0  0  0  0  0  0  0  0  0
  -24.2546  -28.0522   12.9581 C   0  0  0  0  0  0  0  0  0  0  0  0
  -16.3647  -25.1052   23.1119 C   0  0  0  0  0  0  0  0  0  0  0  0
  -17.0034  -25.8666   20.8063 C   0  0  0  0  0  0  0  0  0  0  0  0
  -22.7099  -31.0533   18.6570 C   0  0  0  0  0  0  0  0  0  0  0  0
  -21.9959  -30.2355   16.4010 C   0  0  0  0  0  0  0  0  0  0  0  0
  -23.7754  -31.9734   16.5900 C   0  0  0  0  0  0  0  0  0  0  0  0
  -27.0539  -26.2392   14.7892 C   0  0  0  0  0  0  0  0  0  0  0  0
  -25.1133  -23.1297   23.2142 C   0  0  0  0  0  0  0  0  0  1  0  0
  -20.5939  -25.4962   21.6287 C   0  0  0  0  0  0  0  0  0  0  0  0
  -21.1625  -25.0644   22.9672 C   0  0  0  0  0  0  0  0  0  0  0  0
  -24.2982  -29.5879   17.2443 C   0  0  1  0  0  0  0  0  0  0  0  0
  -25.3233  -27.8699   14.0245 C   0  0  2  0  0  0  0  0  0  0  0  0
  -17.5215  -25.3230   22.1372 C   0  0  0  0  0  0  0  0  0  0  0  0
  -23.2061  -30.6946   17.2421 C   0  0  0  0  0  0  0  0  0  0  0  0
  -26.5920  -15.9897   22.7188 N   0  0  0  0  0  0  0  0  0  0  0  0
  -27.5244  -16.9489   22.8470 N   0  0  0  0  0  0  0  0  0  0  0  0
  -25.8056  -29.1259   19.1517 N   0  0  0  0  0  0  0  0  0  0  0  0
  -26.1814  -18.8394   25.8853 N   0  0  0  0  0  0  0  0  0  0  0  0
  -19.6538  -26.5990   21.8105 N   0  0  2  0  0  0  0  0  0  0  0  0
  -29.3712  -17.9468   21.7495 N   0  0  0  0  0  0  0  0  0  0  0  0
  -28.0346  -14.7549   18.8474 N   0  0  0  0  0  0  0  0  0  0  0  0
  -26.9607  -30.7352   22.2132 N   0  0  0  0  0  0  0  0  0  0  0  0
  -24.8062  -29.2470   15.9199 N   0  0  0  0  0  0  0  0  0  0  0  0
  -24.7668  -20.5299   25.0280 N   0  0  0  0  0  0  0  0  0  0  0  0
  -22.0797  -23.9036   22.7741 N   0  3  0  0  0  0  0  0  0  0  0  0
  -25.9667  -26.5409   13.8228 N   0  3  0  0  0  0  0  0  0  0  0  0
  -29.5746  -16.4149   19.2100 O   0  0  0  0  0  0  0  0  0  0  0  0
  -24.8931  -30.2653   21.2505 O   0  0  0  0  0  0  0  0  0  0  0  0
  -26.1514  -30.9720   17.7702 O   0  0  0  0  0  0  0  0  0  0  0  0
  -24.2517  -26.9971   16.0062 O   0  0  0  0  0  0  0  0  0  0  0  0
  -25.6195  -20.7006   27.1495 O   0  0  0  0  0  0  0  0  0  0  0  0
  -23.7729  -11.2373   19.5539 O   0  0  0  0  0  0  0  0  0  0  0  0
  -24.8469  -23.7053   21.9359 O   0  0  0  0  0  0  0  0  0  1  0  0
  -22.5353   -7.1314   23.0200 F   0  0  0  0  0  0  0  0  0  0  0  0
  -24.5600   -8.6421   19.0170 F   0  0  0  0  0  0  0  0  0  0  0  0
  1  2  1  0  0  0  0
  1  5  2  0  0  0  0
  2  6  2  0  0  0  0
  3  8  2  0  0  0  0
  3 15  1  0  0  0  0
  4  9  1  0  0  0  0
  4 15  2  0  0  0  0
  5 17  1  0  0  0  0
  6 19  1  0  0  0  0
  7 10  2  0  0  0  0
  7 18  1  0  0  0  0
  8 21  1  0  0  0  0
  9 21  2  0  0  0  0
 10 22  1  0  0  0  0
 11 12  2  0  0  0  0
 11 23  1  0  0  0  0
 12 24  1  0  0  0  0
 13 20  1  0  0  0  0
 13 22  2  0  0  0  0
 14 24  2  0  0  0  0
 14 25  1  0  0  0  0
 15 26  1  0  0  0  0
 16 26  1  0  0  0  0
 16 27  2  0  0  0  0
 16 28  1  0  0  0  0
 17 19  2  0  0  0  0
 17 33  1  0  0  0  0
 18 20  2  0  0  0  0
 18 34  1  0  0  0  0
 19 46  1  0  0  0  0
 20 35  1  0  0  0  0
 21 86  1  0  0  0  0
 22 87  1  0  0  0  0
 23 25  2  0  0  0  0
 23 86  1  0  0  0  0
 24 88  1  0  0  0  0
 25 89  1  0  0  0  0
 26 69  2  0  0  0  0
 27 70  1  0  0  0  0
 27 74  1  0  0  0  0
 28 75  1  0  0  0  0
 28 81  2  0  0  0  0
 29 47  1  0  0  0  0
 29 76  1  0  0  0  0
 29 82  2  0  0  0  0
 30 65  1  0  0  0  0
 30 71  1  0  0  0  0
 30 83  2  0  0  0  0
 31 66  1  0  0  0  0
 31 77  1  0  0  0  0
 31 84  2  0  0  0  0
 32 72  1  0  0  0  0
 32 78  1  0  0  0  0
 32 85  2  0  0  0  0
 33 36  1  0  0  0  0
 34 47  1  0  0  0  0
 35 71  1  0  0  0  0
 36 38  1  0  0  0  0
 37 39  1  0  0  0  0
 37 44  1  0  0  0  0
 38 46  1  0  0  0  0
 39 49  1  0  0  0  0
 40 41  1  0  0  0  0
 40 50  1  0  0  0  0
 41 51  1  0  0  0  0
 42 43  1  0  0  0  0
 42 52  1  0  0  0  0
 43 53  1  0  0  0  0
 44 72  1  0  0  0  0
 45 49  1  0  0  0  0
 45 72  1  0  0  0  0
 46 76  1  0  0  0  0
 47 71  1  0  0  0  0
 48 50  1  0  0  0  0
 48 51  1  0  0  0  0
 48 62  1  0  0  0  0
 49 70  1  0  0  0  0
 50 78  1  0  0  0  0
 51 79  1  0  0  0  0
 52 54  1  0  0  0  0
 52 73  1  0  0  0  0
 53 67  1  0  0  0  0
 53 73  1  0  0  0  0
 55 66  1  0  0  0  0
 56 67  1  0  0  0  0
 57 67  1  0  0  0  0
 58 68  1  0  0  0  0
 59 68  1  0  0  0  0
 60 68  1  0  0  0  0
 61 80  1  0  0  0  0
 62 87  1  0  0  0  0
 63 64  1  0  0  0  0
 63 73  1  0  0  0  0
 64 79  1  0  0  0  0
 65 68  1  0  0  0  0
 65 77  1  0  0  0  0
 66 80  1  0  0  0  0
 69 70  1  0  0  0  0
M  CHG  2  79   1  80   1
M  ISO  4  32 100  62 101  78 100  87 101
M  END
> <Batch ID>
0125

> <Smiles>
CNC(C)C(=O)NC(C(=O)N1Cc2cc([101O:1][101CH2:1]C3C(NCCN4C(C)CCC4C(C)C)CCC3[100NH:0][100C:0](=O)N3CCCC(n4nc(-c5ccc(Oc6ccc(F)cc6F)cc5)c(C(N)=O)c4N)C3)ccc2CC1C(=O)NC1CCCc2ccccc21)C(C)(C)C

> <Shape>
0.220

> <Color>
0.063

> <Negative vol penalty>
0.000

$$$$

  -OEChem-04052320353D

 82 90  0     1  0  0  0  0  0999 V2000
  -29.5118  -26.3868   11.0283 C   0  0  0  0  0  0  0  0  0  0  0  0
  -30.1233  -25.5787   11.9814 C   0  0  0  0  0  0  0  0  0  0  0  0
  -23.0714   -9.8739   19.9355 C   0  0  0  0  0  0  0  0  0  0  0  0
  -23.8363   -9.8686   22.2272 C   0  0  0  0  0  0  0  0  0  0  0  0
  -28.8154  -27.5272   11.4262 C   0  0  0  0  0  0  0  0  0  0  0  0
  -30.0397  -25.9112   13.3330 C   0  0  0  0  0  0  0  0  0  0  0  0
  -29.6801  -22.0366   18.0621 C   0  0  0  0  0  0  0  0  0  0  0  0
  -22.3270   -8.7202   20.1813 C   0  0  0  0  0  0  0  0  0  0  0  0
  -23.0918   -8.7149   22.4731 C   0  0  0  0  0  0  0  0  0  0  0  0
  -30.6379  -21.5490   18.9501 C   0  0  0  0  0  0  0  0  0  0  0  0
  -21.1072   -5.9730   23.8002 C   0  0  0  0  0  0  0  0  0  0  0  0
  -20.3534   -5.9243   24.9728 C   0  0  0  0  0  0  0  0  0  0  0  0
  -30.0266  -23.2584   20.5387 C   0  0  0  0  0  0  0  0  0  0  0  0
  -29.7623  -17.6970   22.7407 C   0  0  0  0  0  0  0  0  0  0  0  0
  -19.1091   -7.8664   24.2537 C   0  0  0  0  0  0  0  0  0  0  0  0
  -32.2431  -18.5227   21.9600 C   0  0  0  0  0  0  0  0  0  0  0  0
  -23.8261  -10.4481   20.9585 C   0  0  0  0  0  0  0  0  0  0  0  0
  -24.1701  -12.9735   20.8504 C   0  0  0  0  0  0  0  0  0  0  0  0
  -28.7150  -27.8686   12.7841 C   0  0  0  0  0  0  0  0  0  0  0  0
  -28.8945  -23.1474   18.4019 C   0  0  0  0  0  0  0  0  0  0  0  0
  -29.3424  -27.0580   13.7493 C   0  0  0  0  0  0  0  0  0  0  0  0
  -29.0577  -23.7566   19.6543 C   0  0  0  0  0  0  0  0  0  0  0  0
  -30.2401  -18.9277   23.1768 C   0  0  0  0  0  0  0  0  0  0  0  0
  -31.5032  -19.3558   22.7835 C   0  0  0  0  0  0  0  0  0  0  0  0
  -22.3372   -8.1407   21.4500 C   0  0  0  0  0  0  0  0  0  0  0  0
  -30.8133  -22.1617   20.1874 C   0  0  0  0  0  0  0  0  0  0  0  0
  -20.8620   -6.9685   22.8543 C   0  0  0  0  0  0  0  0  0  0  0  0
  -19.3544   -6.8709   25.1996 C   0  0  0  0  0  0  0  0  0  0  0  0
  -19.8629   -7.9151   23.0811 C   0  0  0  0  0  0  0  0  0  0  0  0
  -24.5958  -11.6395   20.7050 C   0  0  0  0  0  0  0  0  0  0  0  0
  -30.5800  -16.9382   21.9189 C   0  0  0  0  0  0  0  0  0  0  0  0
  -25.2622  -13.7237   20.4885 C   0  0  0  0  0  0  0  0  0  0  0  0
  -22.9011  -13.4884   21.2747 C   0  0  0  0  0  0  0  0  0  0  0  0
  -28.5034  -26.0676   17.2088 C   0  0  0  0  0  0  0  0  0  0  0  0
  -26.1608  -26.2451   19.4456 C   0  0  0  0  0  0  0  0  0  0  0  0
  -24.8961  -25.1266   22.4114 C   0  0  0  0  0  0  0  0  0  0  0  0
  -30.7298  -14.7632   20.6566 C   0  0  0  0  0  0  0  0  0  0  0  0
  -27.9916  -29.1369   13.1622 C   0  0  0  0  0  0  0  0  0  0  0  0
  -27.8472  -23.6447   17.4437 C   0  0  0  0  0  0  0  0  0  0  0  0
  -28.2257  -24.9394   20.0753 C   0  0  0  0  0  0  0  0  0  0  0  0
  -27.6327  -29.2148   14.6439 C   0  0  0  0  0  0  0  0  0  0  0  0
  -29.6079  -12.3624   18.2786 C   0  0  0  0  0  0  0  0  0  0  0  0
  -28.8285  -28.8192   15.5043 C   0  0  0  0  0  0  0  0  0  0  0  0
  -28.1689  -12.0700   18.7099 C   0  0  0  0  0  0  0  0  0  0  0  0
  -30.5258  -12.5843   19.4794 C   0  0  0  0  0  0  0  0  0  0  0  0
  -28.6226  -13.3036   20.8684 C   0  0  0  0  0  0  0  0  0  0  0  0
  -29.2530  -27.3720   15.2270 C   0  0  1  0  0  0  0  0  0  0  0  0
  -27.4579  -25.0997   17.6863 C   0  0  1  0  0  0  0  0  0  0  0  0
  -27.6470  -13.1372   19.6919 C   0  0  2  0  0  0  0  0  0  0  0  0
  -29.0765  -19.0853   25.4073 C   0  0  0  0  0  0  0  0  0  0  0  0
  -28.0704  -20.1948   23.3795 C   0  0  0  0  0  0  0  0  0  0  0  0
  -22.9879  -25.4877   24.0006 C   0  0  0  0  0  0  0  0  0  0  0  0
  -27.4795  -28.8096   20.4425 C   0  0  0  0  0  0  0  0  0  0  0  0
  -26.1405  -28.5974   22.5473 C   0  0  0  0  0  0  0  0  0  0  0  0
  -24.9813  -28.8862   20.3575 C   0  0  0  0  0  0  0  0  0  0  0  0
  -23.9455  -22.3430   22.0851 C   0  0  0  0  0  0  0  0  0  0  0  0
  -32.0709  -20.6821   23.2274 C   0  0  0  0  0  0  0  0  0  0  0  0
  -31.4838  -21.8540   22.4483 C   0  0  0  0  0  0  0  0  0  1  0  0
  -29.3836  -19.7703   24.0627 C   0  0  0  0  0  0  0  0  0  0  0  0
  -26.0924  -26.6785   20.8900 C   0  0  1  0  0  0  0  0  0  0  0  0
  -23.4976  -24.6909   22.8099 C   0  0  2  0  0  0  0  0  0  0  0  0
  -26.1906  -28.2219   21.0509 C   0  0  0  0  0  0  0  0  0  0  0  0
  -31.8125  -17.3206   21.5160 N   0  0  0  0  0  0  0  0  0  0  0  0
  -25.8597  -11.5446   20.2835 N   0  0  0  0  0  0  0  0  0  0  0  0
  -26.2375  -12.8284   20.1608 N   0  0  0  0  0  0  0  0  0  0  0  0
  -27.2193  -25.3926   19.1010 N   0  0  0  0  0  0  0  0  0  0  0  0
  -29.9698  -13.6112   20.3632 N   0  0  0  0  0  0  0  0  0  0  0  0
  -25.4737  -15.0553   20.4217 N   0  0  0  0  0  0  0  0  0  0  0  0
  -21.8890  -12.5785   21.6096 N   0  0  0  0  0  0  0  0  0  0  0  0
  -30.0851  -15.6848   21.4810 N   0  0  0  0  0  0  0  0  0  0  0  0
  -28.3575  -26.4471   15.8881 N   0  0  0  0  0  0  0  0  0  0  0  0
  -24.8692  -26.0978   21.4330 N   0  0  0  0  0  0  0  0  0  0  0  0
  -23.4891  -23.2456   23.1732 N   0  3  0  0  0  0  0  0  0  0  0  0
  -22.6661  -14.7189   21.3387 O   0  0  0  0  0  0  0  0  0  0  0  0
  -29.3768  -26.4435   17.9818 O   0  0  0  0  0  0  0  0  0  0  0  0
  -25.3024  -26.6423   18.6537 O   0  0  0  0  0  0  0  0  0  0  0  0
  -25.9109  -24.6554   22.9202 O   0  0  0  0  0  0  0  0  0  0  0  0
  -31.8580  -14.9332   20.1873 O   0  0  0  0  0  0  0  0  0  0  0  0
  -21.6107   -7.0151   21.6903 O   0  0  0  0  0  0  0  0  0  0  0  0
  -31.7479  -21.6881   21.0558 O   0  0  0  0  0  0  0  0  0  1  0  0
  -18.6296   -6.8230   26.3250 F   0  0  0  0  0  0  0  0  0  0  0  0
  -19.6220   -8.8731   22.1756 F   0  0  0  0  0  0  0  0  0  0  0  0
  1  2  1  0  0  0  0
  1  5  2  0  0  0  0
  2  6  2  0  0  0  0
  3  8  2  0  0  0  0
  3 17  1  0  0  0  0
  4  9  1  0  0  0  0
  4 17  2  0  0  0  0
  5 19  1  0  0  0  0
  6 21  1  0  0  0  0
  7 10  2  0  0  0  0
  7 20  1  0  0  0  0
  8 25  1  0  0  0  0
  9 25  2  0  0  0  0
 10 26  1  0  0  0  0
 11 12  2  0  0  0  0
 11 27  1  0  0  0  0
 12 28  1  0  0  0  0
 13 22  1  0  0  0  0
 13 26  2  0  0  0  0
 14 23  1  0  0  0  0
 14 31  2  0  0  0  0
 15 28  2  0  0  0  0
 15 29  1  0  0  0  0
 16 24  1  0  0  0  0
 16 63  2  0  0  0  0
 17 30  1  0  0  0  0
 18 30  1  0  0  0  0
 18 32  2  0  0  0  0
 18 33  1  0  0  0  0
 19 21  2  0  0  0  0
 19 38  1  0  0  0  0
 20 22  2  0  0  0  0
 20 39  1  0  0  0  0
 21 47  1  0  0  0  0
 22 40  1  0  0  0  0
 23 24  2  0  0  0  0
 23 59  1  0  0  0  0
 24 57  1  0  0  0  0
 25 79  1  0  0  0  0
 26 80  1  0  0  0  0
 27 29  2  0  0  0  0
 27 79  1  0  0  0  0
 28 81  1  0  0  0  0
 29 82  1  0  0  0  0
 30 64  2  0  0  0  0
 31 63  1  0  0  0  0
 31 70  1  0  0  0  0
 32 65  1  0  0  0  0
 32 68  1  0  0  0  0
 33 69  1  0  0  0  0
 33 74  2  0  0  0  0
 34 48  1  0  0  0  0
 34 71  1  0  0  0  0
 34 75  2  0  0  0  0
 35 60  1  0  0  0  0
 35 66  1  0  0  0  0
 35 76  2  0  0  0  0
 36 61  1  0  0  0  0
 36 72  1  0  0  0  0
 36 77  2  0  0  0  0
 37 67  1  0  0  0  0
 37 70  1  0  0  0  0
 37 78  2  0  0  0  0
 38 41  1  0  0  0  0
 39 48  1  0  0  0  0
 40 66  1  0  0  0  0
 41 43  1  0  0  0  0
 42 44  1  0  0  0  0
 42 45  1  0  0  0  0
 43 47  1  0  0  0  0
 44 49  1  0  0  0  0
 45 67  1  0  0  0  0
 46 49  1  0  0  0  0
 46 67  1  0  0  0  0
 47 71  1  0  0  0  0
 48 66  1  0  0  0  0
 49 65  1  0  0  0  0
 50 59  1  0  0  0  0
 51 59  1  0  0  0  0
 52 61  1  0  0  0  0
 53 62  1  0  0  0  0
 54 62  1  0  0  0  0
 55 62  1  0  0  0  0
 56 73  1  0  0  0  0
 57 58  1  0  0  0  0
 58 80  1  0  0  0  0
 60 62  1  0  0  0  0
 60 72  1  0  0  0  0
 61 73  1  0  0  0  0
 64 65  1  0  0  0  0
M  CHG  1  73   1
M  ISO  4  37 100  58 101  70 100  80 101
M  END
> <Batch ID>
0125

> <Smiles>
CNC(C)C(=O)NC(C(=O)N1Cc2cc([101O:1][101CH2:1]Cc3cnc([100NH:0][100C:0](=O)N4CCCC(n5nc(-c6ccc(Oc7ccc(F)cc7F)cc6)c(C(N)=O)c5N)C4)cc3C(C)C)ccc2CC1C(=O)NC1CCCc2ccccc21)C(C)(C)C

> <Shape>
0.248

> <Color>
0.192

> <Negative vol penalty>
0.000

$$$$

  -OEChem-04052320353D

 81 89  0     1  0  0  0  0  0999 V2000
  -28.8118  -11.4412   19.6607 C   0  0  0  0  0  0  0  0  0  0  0  0
  -28.8960  -12.8208   19.5024 C   0  0  0  0  0  0  0  0  0  0  0  0
  -20.3390  -25.3135   23.4369 C   0  0  0  0  0  0  0  0  0  0  0  0
  -20.6095  -26.7133   21.4864 C   0  0  0  0  0  0  0  0  0  0  0  0
  -27.6090  -10.8583   20.0572 C   0  0  0  0  0  0  0  0  0  0  0  0
  -27.7769  -13.6182   19.7395 C   0  0  0  0  0  0  0  0  0  0  0  0
  -28.8737  -17.7456   22.4609 C   0  0  0  0  0  0  0  0  0  0  0  0
  -19.1293  -25.9461   23.7232 C   0  0  0  0  0  0  0  0  0  0  0  0
  -19.3997  -27.3459   21.7727 C   0  0  0  0  0  0  0  0  0  0  0  0
  -29.4795  -18.8076   21.7909 C   0  0  0  0  0  0  0  0  0  0  0  0
  -18.2760  -29.7346   23.8851 C   0  0  0  0  0  0  0  0  0  0  0  0
  -18.2357  -31.1261   23.7978 C   0  0  0  0  0  0  0  0  0  0  0  0
  -27.3460  -19.9238   21.6435 C   0  0  0  0  0  0  0  0  0  0  0  0
  -30.1311  -23.8650   20.3245 C   0  0  0  0  0  0  0  0  0  0  0  0
  -30.7593  -24.8813   18.2373 C   0  0  0  0  0  0  0  0  0  0  0  0
  -16.5201  -30.9703   22.1038 C   0  0  0  0  0  0  0  0  0  0  0  0
  -21.0792  -25.6972   22.3186 C   0  0  0  0  0  0  0  0  0  0  0  0
  -22.5229  -23.8992   21.2273 C   0  0  0  0  0  0  0  0  0  0  0  0
  -26.4772  -11.6499   20.3086 C   0  0  0  0  0  0  0  0  0  0  0  0
  -27.4952  -17.7598   22.7180 C   0  0  0  0  0  0  0  0  0  0  0  0
  -26.5574  -13.0452   20.1384 C   0  0  0  0  0  0  0  0  0  0  0  0
  -26.7256  -18.8619   22.3192 C   0  0  0  0  0  0  0  0  0  0  0  0
  -30.8794  -24.8015   19.6202 C   0  0  0  0  0  0  0  0  0  0  0  0
  -18.6596  -26.9622   22.8910 C   0  0  0  0  0  0  0  0  0  0  0  0
  -28.7152  -19.8956   21.3795 C   0  0  0  0  0  0  0  0  0  0  0  0
  -17.4384  -28.9609   23.0816 C   0  0  0  0  0  0  0  0  0  0  0  0
  -17.3578  -31.7440   22.9073 C   0  0  0  0  0  0  0  0  0  0  0  0
  -16.5605  -29.5788   22.1910 C   0  0  0  0  0  0  0  0  0  0  0  0
  -22.3292  -25.0445   22.0227 C   0  0  0  0  0  0  0  0  0  0  0  0
  -29.2838  -23.0380   19.6049 C   0  0  0  0  0  0  0  0  0  0  0  0
  -29.8841  -24.0087   17.6110 C   0  0  0  0  0  0  0  0  0  0  0  0
  -23.8790  -23.6839   21.2598 C   0  0  0  0  0  0  0  0  0  0  0  0
  -21.5627  -23.1014   20.5221 C   0  0  0  0  0  0  0  0  0  0  0  0
  -25.0358  -15.9347   21.8671 C   0  0  0  0  0  0  0  0  0  0  0  0
  -23.4107  -17.8391   23.9298 C   0  0  0  0  0  0  0  0  0  0  0  0
  -23.1926  -20.8366   25.5466 C   0  0  0  0  0  0  0  0  0  0  0  0
  -28.7467  -26.6364   21.2520 C   0  0  0  0  0  0  0  0  0  0  0  0
  -25.1859  -10.9700   20.6895 C   0  0  0  0  0  0  0  0  0  0  0  0
  -26.8615  -16.6187   23.4655 C   0  0  0  0  0  0  0  0  0  0  0  0
  -25.2456  -18.9349   22.5889 C   0  0  0  0  0  0  0  0  0  0  0  0
  -24.1494  -11.9204   21.2834 C   0  0  0  0  0  0  0  0  0  0  0  0
  -27.5532  -25.0464   24.2760 C   0  0  0  0  0  0  0  0  0  0  0  0
  -24.0404  -13.1864   20.4395 C   0  0  0  0  0  0  0  0  0  0  0  0
  -26.0914  -24.7713   23.9185 C   0  0  0  0  0  0  0  0  0  0  0  0
  -28.0212  -26.3803   23.7016 C   0  0  0  0  0  0  0  0  0  0  0  0
  -26.3793  -26.2400   21.8691 C   0  0  0  0  0  0  0  0  0  0  0  0
  -25.3721  -13.9461   20.4101 C   0  0  1  0  0  0  0  0  0  0  0  0
  -25.3603  -16.5035   23.2194 C   0  0  1  0  0  0  0  0  0  0  0  0
  -25.8527  -24.8951   22.4019 C   0  0  2  0  0  0  0  0  0  0  0  0
  -21.7321  -22.1152   27.1372 C   0  0  0  0  0  0  0  0  0  0  0  0
  -21.4341  -18.3869   21.6707 C   0  0  0  0  0  0  0  0  0  0  0  0
  -20.5876  -20.3457   22.9802 C   0  0  0  0  0  0  0  0  0  0  0  0
  -20.3846  -18.0417   23.9143 C   0  0  0  0  0  0  0  0  0  0  0  0
  -25.3522  -21.0237   27.5616 C   0  0  0  0  0  0  0  0  0  0  0  0
  -31.8068  -25.7165   20.3451 C   0  0  0  0  0  0  0  0  0  0  0  0
  -28.4609  -22.0155   20.3321 C   0  0  0  0  0  0  0  0  0  1  0  0
  -31.1522  -27.0307   20.7881 C   0  0  0  0  0  0  0  0  0  0  0  0
  -22.6583  -19.1428   23.8146 C   0  0  1  0  0  0  0  0  0  0  0  0
  -22.9232  -21.1795   27.0007 C   0  0  2  0  0  0  0  0  0  0  0  0
  -21.2937  -18.9773   23.0880 C   0  0  0  0  0  0  0  0  0  0  0  0
  -23.4710  -25.5233   22.5240 N   0  0  0  0  0  0  0  0  0  0  0  0
  -29.1405  -23.0858   18.2615 N   0  0  0  0  0  0  0  0  0  0  0  0
  -24.3950  -24.6746   22.0424 N   0  0  0  0  0  0  0  0  0  0  0  0
  -24.6711  -17.7918   23.3174 N   0  0  0  0  0  0  0  0  0  0  0  0
  -27.7829  -26.4262   22.2521 N   0  0  0  0  0  0  0  0  0  0  0  0
  -29.7726  -24.1018   16.2014 N   0  0  0  0  0  0  0  0  0  0  0  0
  -24.6684  -22.7457   20.6950 N   0  0  0  0  0  0  0  0  0  0  0  0
  -20.2107  -23.4632   20.5952 N   0  0  0  0  0  0  0  0  0  0  0  0
  -25.5641  -14.6775   21.6440 N   0  0  0  0  0  0  0  0  0  0  0  0
  -22.5534  -19.6746   25.1691 N   0  0  0  0  0  0  0  0  0  0  0  0
  -30.0508  -26.8107   21.6989 N   0  0  0  0  0  0  0  0  0  0  0  0
  -24.1131  -21.8421   27.6057 N   0  3  0  0  0  0  0  0  0  0  0  0
  -21.8921  -22.0878   19.8606 O   0  0  0  0  0  0  0  0  0  0  0  0
  -24.3551  -16.5875   21.0846 O   0  0  0  0  0  0  0  0  0  0  0  0
  -22.9020  -16.8998   24.5466 O   0  0  0  0  0  0  0  0  0  0  0  0
  -23.8963  -21.5321   24.8176 O   0  0  0  0  0  0  0  0  0  0  0  0
  -28.4667  -26.6615   20.0486 O   0  0  0  0  0  0  0  0  0  0  0  0
  -17.4790  -27.5795   23.1699 O   0  0  0  0  0  0  0  0  0  0  0  0
  -29.3039  -20.9332   20.7248 O   0  0  0  0  0  0  0  0  0  1  0  0
  -17.3181  -33.0803   22.8247 F   0  0  0  0  0  0  0  0  0  0  0  0
  -15.7525  -28.8408   21.4175 F   0  0  0  0  0  0  0  0  0  0  0  0
  1  2  1  0  0  0  0
  1  5  2  0  0  0  0
  2  6  2  0  0  0  0
  3  8  2  0  0  0  0
  3 17  1  0  0  0  0
  4  9  1  0  0  0  0
  4 17  2  0  0  0  0
  5 19  1  0  0  0  0
  6 21  1  0  0  0  0
  7 10  2  0  0  0  0
  7 20  1  0  0  0  0
  8 24  1  0  0  0  0
  9 24  2  0  0  0  0
 10 25  1  0  0  0  0
 11 12  2  0  0  0  0
 11 26  1  0  0  0  0
 12 27  1  0  0  0  0
 13 22  1  0  0  0  0
 13 25  2  0  0  0  0
 14 23  2  0  0  0  0
 14 30  1  0  0  0  0
 15 23  1  0  0  0  0
 15 31  2  0  0  0  0
 16 27  2  0  0  0  0
 16 28  1  0  0  0  0
 17 29  1  0  0  0  0
 18 29  1  0  0  0  0
 18 32  2  0  0  0  0
 18 33  1  0  0  0  0
 19 21  2  0  0  0  0
 19 38  1  0  0  0  0
 20 22  2  0  0  0  0
 20 39  1  0  0  0  0
 21 47  1  0  0  0  0
 22 40  1  0  0  0  0
 23 55  1  0  0  0  0
 24 78  1  0  0  0  0
 25 79  1  0  0  0  0
 26 28  2  0  0  0  0
 26 78  1  0  0  0  0
 27 80  1  0  0  0  0
 28 81  1  0  0  0  0
 29 61  2  0  0  0  0
 30 56  1  0  0  0  0
 30 62  2  0  0  0  0
 31 62  1  0  0  0  0
 31 66  1  0  0  0  0
 32 63  1  0  0  0  0
 32 67  1  0  0  0  0
 33 68  1  0  0  0  0
 33 73  2  0  0  0  0
 34 48  1  0  0  0  0
 34 69  1  0  0  0  0
 34 74  2  0  0  0  0
 35 58  1  0  0  0  0
 35 64  1  0  0  0  0
 35 75  2  0  0  0  0
 36 59  1  0  0  0  0
 36 70  1  0  0  0  0
 36 76  2  0  0  0  0
 37 65  1  0  0  0  0
 37 71  1  0  0  0  0
 37 77  2  0  0  0  0
 38 41  1  0  0  0  0
 39 48  1  0  0  0  0
 40 64  1  0  0  0  0
 41 43  1  0  0  0  0
 42 44  1  0  0  0  0
 42 45  1  0  0  0  0
 43 47  1  0  0  0  0
 44 49  1  0  0  0  0
 45 65  1  0  0  0  0
 46 49  1  0  0  0  0
 46 65  1  0  0  0  0
 47 69  1  0  0  0  0
 48 64  1  0  0  0  0
 49 63  1  0  0  0  0
 50 59  1  0  0  0  0
 51 60  1  0  0  0  0
 52 60  1  0  0  0  0
 53 60  1  0  0  0  0
 54 72  1  0  0  0  0
 55 57  1  0  0  0  0
 56 79  1  0  0  0  0
 57 71  1  0  0  0  0
 58 60  1  0  0  0  0
 58 70  1  0  0  0  0
 59 72  1  0  0  0  0
 61 63  1  0  0  0  0
M  CHG  1  72   1
M  ISO  4  37 100  56 101  71 100  79 101
M  END
> <Batch ID>
0125

> <Smiles>
CNC(C)C(=O)NC(C(=O)N1Cc2cc([101O:1][101CH2:1]c3cc(CC[100NH:0][100C:0](=O)N4CCCC(n5nc(-c6ccc(Oc7ccc(F)cc7F)cc6)c(C(N)=O)c5N)C4)cc(N)n3)ccc2CC1C(=O)NC1CCCc2ccccc21)C(C)(C)C

> <Shape>
0.207

> <Color>
0.070

> <Negative vol penalty>
0.000

$$$$

  -OEChem-04052320353D

 82 90  0     1  0  0  0  0  0999 V2000
  -28.5859  -10.1681   17.0749 C   0  0  0  0  0  0  0  0  0  0  0  0
  -27.5601  -11.0471   16.7426 C   0  0  0  0  0  0  0  0  0  0  0  0
  -23.6640  -30.0325   20.5603 C   0  0  0  0  0  0  0  0  0  0  0  0
  -22.8971  -27.7463   20.4104 C   0  0  0  0  0  0  0  0  0  0  0  0
  -29.4202  -10.4489   18.1561 C   0  0  0  0  0  0  0  0  0  0  0  0
  -27.3673  -12.2071   17.4921 C   0  0  0  0  0  0  0  0  0  0  0  0
  -25.4699  -17.6515   15.4274 C   0  0  0  0  0  0  0  0  0  0  0  0
  -22.3588  -30.4538   20.8139 C   0  0  0  0  0  0  0  0  0  0  0  0
  -21.5918  -28.1676   20.6642 C   0  0  0  0  0  0  0  0  0  0  0  0
  -24.2207  -18.2707   15.4259 C   0  0  0  0  0  0  0  0  0  0  0  0
  -19.7478  -29.0816   23.3447 C   0  0  0  0  0  0  0  0  0  0  0  0
  -18.9997  -28.3493   24.2664 C   0  0  0  0  0  0  0  0  0  0  0  0
  -24.8078  -19.4463   17.4489 C   0  0  0  0  0  0  0  0  0  0  0  0
  -17.3653  -27.8643   22.5545 C   0  0  0  0  0  0  0  0  0  0  0  0
  -24.3322  -24.5087   14.0951 C   0  0  0  0  0  0  0  0  0  0  0  0
  -24.1041  -22.2832   13.9959 C   0  0  0  0  0  0  0  0  0  0  0  0
  -23.9332  -28.6787   20.3584 C   0  0  0  0  0  0  0  0  0  0  0  0
  -26.2491  -27.8560   21.0419 C   0  0  0  0  0  0  0  0  0  0  0  0
  -29.2436  -11.6177   18.9133 C   0  0  0  0  0  0  0  0  0  0  0  0
  -26.3948  -17.9172   16.4473 C   0  0  0  0  0  0  0  0  0  0  0  0
  -28.1992  -12.5031   18.5853 C   0  0  0  0  0  0  0  0  0  0  0  0
  -26.0690  -18.8311   17.4596 C   0  0  0  0  0  0  0  0  0  0  0  0
  -23.0567  -24.2067   14.5184 C   0  0  0  0  0  0  0  0  0  0  0  0
  -22.9123  -22.7987   14.4556 C   0  0  0  0  0  0  0  0  0  0  0  0
  -21.3226  -29.5214   20.8659 C   0  0  0  0  0  0  0  0  0  0  0  0
  -23.8884  -19.1661   16.4384 C   0  0  0  0  0  0  0  0  0  0  0  0
  -19.3046  -29.2054   22.0278 C   0  0  0  0  0  0  0  0  0  0  0  0
  -17.8085  -27.7406   23.8714 C   0  0  0  0  0  0  0  0  0  0  0  0
  -18.1134  -28.5967   21.6328 C   0  0  0  0  0  0  0  0  0  0  0  0
  -25.2812  -28.2430   20.0957 C   0  0  0  0  0  0  0  0  0  0  0  0
  -27.3534  -27.5339   20.2913 C   0  0  0  0  0  0  0  0  0  0  0  0
  -26.1582  -27.7933   22.4714 C   0  0  0  0  0  0  0  0  0  0  0  0
  -27.8174  -16.1767   18.6946 C   0  0  0  0  0  0  0  0  0  0  0  0
  -29.4542  -18.9242   19.2373 C   0  0  0  0  0  0  0  0  0  0  0  0
  -29.5656  -22.3265   18.9940 C   0  0  0  0  0  0  0  0  0  0  0  0
  -28.0458  -25.7175   14.6281 C   0  0  0  0  0  0  0  0  0  0  0  0
  -30.1408  -11.8549   20.1022 C   0  0  0  0  0  0  0  0  0  0  0  0
  -27.7482  -17.2614   16.4199 C   0  0  0  0  0  0  0  0  0  0  0  0
  -27.0341  -19.1661   18.5663 C   0  0  0  0  0  0  0  0  0  0  0  0
  -30.1050  -13.2922   20.6152 C   0  0  0  0  0  0  0  0  0  0  0  0
  -29.5029  -28.5882   16.1490 C   0  0  0  0  0  0  0  0  0  0  0  0
  -28.6651  -13.7831   20.7279 C   0  0  0  0  0  0  0  0  0  0  0  0
  -28.6735  -28.7903   17.4183 C   0  0  0  0  0  0  0  0  0  0  0  0
  -28.6444  -28.0944   14.9865 C   0  0  0  0  0  0  0  0  0  0  0  0
  -27.0200  -27.0879   16.5428 C   0  0  0  0  0  0  0  0  0  0  0  0
  -27.9738  -13.7840   19.3590 C   0  0  1  0  0  0  0  0  0  0  0  0
  -28.4177  -17.2154   17.7899 C   0  0  1  0  0  0  0  0  0  0  0  0
  -27.8523  -27.5319   17.7579 C   0  0  2  0  0  0  0  0  0  0  0  0
  -22.0366  -25.1801   14.9563 C   0  0  0  0  0  0  0  0  0  0  0  0
  -30.5246  -24.6410   19.1377 C   0  0  0  0  0  0  0  0  0  0  0  0
  -28.6192  -18.6966   22.1632 C   0  0  0  0  0  0  0  0  0  0  0  0
  -29.2574  -21.0993   22.4599 C   0  0  0  0  0  0  0  0  0  0  0  0
  -30.9856  -19.4230   21.8072 C   0  0  0  0  0  0  0  0  0  0  0  0
  -30.6982  -22.1519   16.2653 C   0  0  0  0  0  0  0  0  0  0  0  0
  -21.6864  -22.0005   14.8210 C   0  0  0  0  0  0  0  0  0  0  0  0
  -21.4765  -21.8499   16.3292 C   0  0  0  0  0  0  0  0  0  0  0  0
  -26.3166  -23.2142   13.2975 C   0  0  0  0  0  0  0  0  0  0  0  0
  -27.3578  -23.3434   14.4063 C   0  0  0  0  0  0  0  0  0  0  0  0
  -22.5914  -21.0729   17.0195 C   0  0  0  0  0  0  0  0  0  1  0  0
  -29.2485  -20.1358   20.1141 C   0  0  1  0  0  0  0  0  0  0  0  0
  -30.6510  -23.2660   18.5003 C   0  0  2  0  0  0  0  0  0  0  0  0
  -29.5085  -19.8311   21.6165 C   0  0  0  0  0  0  0  0  0  0  0  0
  -25.7311  -28.1738   18.8400 N   0  0  0  0  0  0  0  0  0  0  0  0
  -24.9598  -23.3317   13.7805 N   0  0  0  0  0  0  0  0  0  0  0  0
  -26.9939  -27.7398   18.9919 N   0  0  0  0  0  0  0  0  0  0  0  0
  -28.3424  -18.4943   18.4991 N   0  0  0  0  0  0  0  0  0  0  0  0
  -27.8926  -26.8982   15.3735 N   0  0  0  0  0  0  0  0  0  0  0  0
  -28.5871  -27.0975   20.6227 N   0  0  0  0  0  0  0  0  0  0  0  0
  -24.9503  -28.1594   23.0807 N   0  0  0  0  0  0  0  0  0  0  0  0
  -28.3973  -14.9277   18.5798 N   0  0  0  0  0  0  0  0  0  0  0  0
  -30.0957  -21.1875   19.5624 N   0  0  0  0  0  0  0  0  0  0  0  0
  -27.3020  -24.6287   15.0662 N   0  0  0  0  0  0  0  0  0  0  0  0
  -30.5657  -23.4241   17.0209 N   0  3  0  0  0  0  0  0  0  0  0  0
  -27.1248  -27.4393   23.1882 O   0  0  0  0  0  0  0  0  0  0  0  0
  -26.8973  -16.4860   19.4426 O   0  0  0  0  0  0  0  0  0  0  0  0
  -30.5624  -18.3837   19.2030 O   0  0  0  0  0  0  0  0  0  0  0  0
  -28.3674  -22.5794   18.8894 O   0  0  0  0  0  0  0  0  0  0  0  0
  -28.7943  -25.6381   13.6481 O   0  0  0  0  0  0  0  0  0  0  0  0
  -20.0489  -29.9321   21.1137 O   0  0  0  0  0  0  0  0  0  0  0  0
  -22.6696  -19.7713   16.4397 O   0  0  0  0  0  0  0  0  0  1  0  0
  -17.0910  -27.0361   24.7562 F   0  0  0  0  0  0  0  0  0  0  0  0
  -17.6831  -28.7111   20.3688 F   0  0  0  0  0  0  0  0  0  0  0  0
  1  2  1  0  0  0  0
  1  5  2  0  0  0  0
  2  6  2  0  0  0  0
  3  8  2  0  0  0  0
  3 17  1  0  0  0  0
  4  9  1  0  0  0  0
  4 17  2  0  0  0  0
  5 19  1  0  0  0  0
  6 21  1  0  0  0  0
  7 10  2  0  0  0  0
  7 20  1  0  0  0  0
  8 25  1  0  0  0  0
  9 25  2  0  0  0  0
 10 26  1  0  0  0  0
 11 12  2  0  0  0  0
 11 27  1  0  0  0  0
 12 28  1  0  0  0  0
 13 22  1  0  0  0  0
 13 26  2  0  0  0  0
 14 28  2  0  0  0  0
 14 29  1  0  0  0  0
 15 23  2  0  0  0  0
 15 64  1  0  0  0  0
 16 24  2  0  0  0  0
 16 64  1  0  0  0  0
 17 30  1  0  0  0  0
 18 30  1  0  0  0  0
 18 31  2  0  0  0  0
 18 32  1  0  0  0  0
 19 21  2  0  0  0  0
 19 37  1  0  0  0  0
 20 22  2  0  0  0  0
 20 38  1  0  0  0  0
 21 46  1  0  0  0  0
 22 39  1  0  0  0  0
 23 24  1  0  0  0  0
 23 49  1  0  0  0  0
 24 55  1  0  0  0  0
 25 79  1  0  0  0  0
 26 80  1  0  0  0  0
 27 29  2  0  0  0  0
 27 79  1  0  0  0  0
 28 81  1  0  0  0  0
 29 82  1  0  0  0  0
 30 63  2  0  0  0  0
 31 65  1  0  0  0  0
 31 68  1  0  0  0  0
 32 69  1  0  0  0  0
 32 74  2  0  0  0  0
 33 47  1  0  0  0  0
 33 70  1  0  0  0  0
 33 75  2  0  0  0  0
 34 60  1  0  0  0  0
 34 66  1  0  0  0  0
 34 76  2  0  0  0  0
 35 61  1  0  0  0  0
 35 71  1  0  0  0  0
 35 77  2  0  0  0  0
 36 67  1  0  0  0  0
 36 72  1  0  0  0  0
 36 78  2  0  0  0  0
 37 40  1  0  0  0  0
 38 47  1  0  0  0  0
 39 66  1  0  0  0  0
 40 42  1  0  0  0  0
 41 43  1  0  0  0  0
 41 44  1  0  0  0  0
 42 46  1  0  0  0  0
 43 48  1  0  0  0  0
 44 67  1  0  0  0  0
 45 48  1  0  0  0  0
 45 67  1  0  0  0  0
 46 70  1  0  0  0  0
 47 66  1  0  0  0  0
 48 65  1  0  0  0  0
 50 61  1  0  0  0  0
 51 62  1  0  0  0  0
 52 62  1  0  0  0  0
 53 62  1  0  0  0  0
 54 73  1  0  0  0  0
 55 56  1  0  0  0  0
 56 59  1  0  0  0  0
 57 58  1  0  0  0  0
 57 64  1  0  0  0  0
 58 72  1  0  0  0  0
 59 80  1  0  0  0  0
 60 62  1  0  0  0  0
 60 71  1  0  0  0  0
 61 73  1  0  0  0  0
 63 65  1  0  0  0  0
M  CHG  1  73   1
M  ISO  4  36 100  59 101  72 100  80 101
M  END
> <Batch ID>
0125

> <Smiles>
CNC(C)C(=O)NC(C(=O)N1Cc2cc([101O:1][101CH2:1]CCc3cn(CC[100NH:0][100C:0](=O)N4CCCC(n5nc(-c6ccc(Oc7ccc(F)cc7F)cc6)c(C(N)=O)c5N)C4)cc3C)ccc2CC1C(=O)NC1CCCc2ccccc21)C(C)(C)C

> <Shape>
0.206

> <Color>
0.073

> <Negative vol penalty>
0.000

$$$$

  -OEChem-04052320353D

 85 93  0     1  0  0  0  0  0999 V2000
  -27.9764  -25.1802   16.2289 C   0  0  0  0  0  0  0  0  0  0  0  0
  -26.8078  -25.3175   16.9711 C   0  0  0  0  0  0  0  0  0  0  0  0
  -25.3167  -16.2433   20.7657 C   0  0  0  0  0  0  0  0  0  0  0  0
  -23.8575  -16.2092   22.6910 C   0  0  0  0  0  0  0  0  0  0  0  0
  -29.1814  -25.6696   16.7312 C   0  0  0  0  0  0  0  0  0  0  0  0
  -26.8437  -25.9434   18.2166 C   0  0  0  0  0  0  0  0  0  0  0  0
  -23.0478  -29.2357   18.8465 C   0  0  0  0  0  0  0  0  0  0  0  0
  -25.7427  -14.9495   21.0656 C   0  0  0  0  0  0  0  0  0  0  0  0
  -24.2835  -14.9152   22.9909 C   0  0  0  0  0  0  0  0  0  0  0  0
  -21.7938  -28.7102   19.1548 C   0  0  0  0  0  0  0  0  0  0  0  0
  -24.5823  -11.7956   20.6923 C   0  0  0  0  0  0  0  0  0  0  0  0
  -24.6628  -10.8801   19.6430 C   0  0  0  0  0  0  0  0  0  0  0  0
  -22.1494  -29.2420   21.4807 C   0  0  0  0  0  0  0  0  0  0  0  0
  -27.0249  -10.6016   20.0672 C   0  0  0  0  0  0  0  0  0  0  0  0
  -24.3741  -16.8732   21.5785 C   0  0  0  0  0  0  0  0  0  0  0  0
  -22.8484  -18.5804   20.4535 C   0  0  0  0  0  0  0  0  0  0  0  0
  -29.2304  -26.3105   17.9792 C   0  0  0  0  0  0  0  0  0  0  0  0
  -23.8680  -29.7592   19.8563 C   0  0  0  0  0  0  0  0  0  0  0  0
  -28.0507  -26.4407   18.7367 C   0  0  0  0  0  0  0  0  0  0  0  0
  -23.4124  -29.7758   21.1823 C   0  0  0  0  0  0  0  0  0  0  0  0
  -25.2261  -14.2854   22.1782 C   0  0  0  0  0  0  0  0  0  0  0  0
  -21.3456  -28.7107   20.4725 C   0  0  0  0  0  0  0  0  0  0  0  0
  -25.7231  -12.1142   21.4290 C   0  0  0  0  0  0  0  0  0  0  0  0
  -25.8840  -10.2831   19.3305 C   0  0  0  0  0  0  0  0  0  0  0  0
  -26.9444  -11.5172   21.1165 C   0  0  0  0  0  0  0  0  0  0  0  0
  -23.9341  -18.2100   21.2695 C   0  0  0  0  0  0  0  0  0  0  0  0
  -22.8510  -19.9536   20.4809 C   0  0  0  0  0  0  0  0  0  0  0  0
  -21.9205  -17.7567   19.7350 C   0  0  0  0  0  0  0  0  0  0  0  0
  -26.7366  -29.0337   21.0176 C   0  0  0  0  0  0  0  0  0  0  0  0
  -26.2965  -31.7482   22.7380 C   0  0  0  0  0  0  0  0  0  0  0  0
  -24.1174  -33.9983   24.0928 C   0  0  0  0  0  0  0  0  0  0  0  0
  -24.9119  -23.9490   24.4356 C   0  0  0  0  0  0  0  0  0  0  0  0
  -30.5646  -26.7812   18.5017 C   0  0  0  0  0  0  0  0  0  0  0  0
  -25.2070  -30.3467   19.5035 C   0  0  0  0  0  0  0  0  0  0  0  0
  -24.2461  -30.3447   22.3002 C   0  0  0  0  0  0  0  0  0  0  0  0
  -30.4512  -27.7651   19.6632 C   0  0  0  0  0  0  0  0  0  0  0  0
  -25.8031  -23.6829   20.9988 C   0  0  0  0  0  0  0  0  0  0  0  0
  -29.4451  -27.2614   20.6932 C   0  0  0  0  0  0  0  0  0  0  0  0
  -17.4158  -24.0953   24.6796 C   0  0  0  0  0  0  0  0  0  0  0  0
  -25.3272  -22.2835   20.6049 C   0  0  0  0  0  0  0  0  0  0  0  0
  -18.7280  -23.4797   25.1588 C   0  0  0  0  0  0  0  0  0  0  0  0
  -20.0179  -25.2081   23.8456 C   0  0  0  0  0  0  0  0  0  0  0  0
  -26.3427  -23.7142   22.4271 C   0  0  0  0  0  0  0  0  0  0  0  0
  -24.9454  -21.7836   23.0550 C   0  0  0  0  0  0  0  0  0  0  0  0
  -28.0448  -27.1357   20.0809 C   0  0  1  0  0  0  0  0  0  0  0  0
  -26.1721  -30.3857   20.6843 C   0  0  1  0  0  0  0  0  0  0  0  0
  -17.5671  -24.7882   23.3133 C   0  0  2  0  0  0  0  0  0  0  0  0
  -18.7036  -25.8412   23.3510 C   0  0  2  0  0  0  0  0  0  0  0  0
  -24.3409  -21.7139   21.6422 C   0  0  2  0  0  0  0  0  0  0  0  0
  -19.8311  -24.5296   25.1992 C   0  0  2  0  0  0  0  0  0  0  0  0
  -24.0534  -36.0908   25.4766 C   0  0  0  0  0  0  0  0  0  0  0  0
  -15.1679  -24.2982   22.7587 C   0  0  0  0  0  0  0  0  0  0  0  0
  -15.7768  -26.4427   23.9137 C   0  0  0  0  0  0  0  0  0  0  0  0
  -26.8838  -30.1071   25.2424 C   0  0  0  0  0  0  0  0  0  0  0  0
  -25.8921  -31.9593   26.6041 C   0  0  0  0  0  0  0  0  0  0  0  0
  -27.9228  -32.3818   25.2183 C   0  0  0  0  0  0  0  0  0  0  0  0
  -22.8158  -35.5325   21.9223 C   0  0  0  0  0  0  0  0  0  0  0  0
  -18.9393  -26.4996   21.9886 C   0  0  0  0  0  0  0  0  0  0  0  0
  -23.4157  -24.0373   26.4137 C   0  0  0  0  0  0  0  0  0  0  0  0
  -22.1580  -24.8101   26.0628 C   0  0  0  0  0  0  0  0  0  0  0  0
  -19.9631  -27.6214   22.0719 C   0  0  0  0  0  0  0  0  0  1  0  0
  -25.6864  -32.0767   24.0793 C   0  0  1  0  0  0  0  0  0  0  0  0
  -24.0923  -35.5160   24.0692 C   0  0  2  0  0  0  0  0  0  0  0  0
  -16.2216  -25.3922   22.9010 C   0  0  0  0  0  0  0  0  0  0  0  0
  -26.5811  -31.6187   25.2655 C   0  0  0  0  0  0  0  0  0  0  0  0
  -24.5796  -19.2630   21.7781 N   0  0  0  0  0  0  0  0  0  0  0  0
  -23.8975  -20.3085   21.2803 N   0  0  0  0  0  0  0  0  0  0  0  0
  -25.5505  -30.9017   21.9056 N   0  0  0  0  0  0  0  0  0  0  0  0
  -25.3587  -23.1620   23.3613 N   0  0  0  0  0  0  0  0  0  0  0  0
  -22.0602  -20.8800   19.8989 N   0  0  0  0  0  0  0  0  0  0  0  0
  -22.0611  -16.3646   19.8160 N   0  0  0  0  0  0  0  0  0  0  0  0
  -27.4206  -28.4372   19.9756 N   0  0  0  0  0  0  0  0  0  0  0  0
  -25.4059  -33.5083   24.0604 N   0  0  0  0  0  0  0  0  0  0  0  0
  -23.9746  -23.3520   25.2697 N   0  0  0  0  0  0  0  0  0  0  0  0
  -21.1070  -23.8716   25.5881 N   0  3  0  0  0  0  0  0  0  0  0  0
  -22.8937  -36.0027   23.3293 N   0  3  0  0  0  0  0  0  0  0  0  0
  -21.0041  -18.2411   19.0285 O   0  0  0  0  0  0  0  0  0  0  0  0
  -26.5655  -28.5669   22.1376 O   0  0  0  0  0  0  0  0  0  0  0  0
  -27.3911  -32.2307   22.4371 O   0  0  0  0  0  0  0  0  0  0  0  0
  -23.0963  -33.3159   24.1395 O   0  0  0  0  0  0  0  0  0  0  0  0
  -25.3143  -25.1005   24.6335 O   0  0  0  0  0  0  0  0  0  0  0  0
  -25.6414  -13.0227   22.4709 O   0  0  0  0  0  0  0  0  0  0  0  0
  -20.1222  -28.1978   20.7762 O   0  0  0  0  0  0  0  0  0  1  0  0
  -25.9609   -9.4028   18.3239 F   0  0  0  0  0  0  0  0  0  0  0  0
  -28.0435  -11.8184   21.8214 F   0  0  0  0  0  0  0  0  0  0  0  0
  1  2  1  0  0  0  0
  1  5  2  0  0  0  0
  2  6  2  0  0  0  0
  3  8  2  0  0  0  0
  3 15  1  0  0  0  0
  4  9  1  0  0  0  0
  4 15  2  0  0  0  0
  5 17  1  0  0  0  0
  6 19  1  0  0  0  0
  7 10  2  0  0  0  0
  7 18  1  0  0  0  0
  8 21  1  0  0  0  0
  9 21  2  0  0  0  0
 10 22  1  0  0  0  0
 11 12  2  0  0  0  0
 11 23  1  0  0  0  0
 12 24  1  0  0  0  0
 13 20  1  0  0  0  0
 13 22  2  0  0  0  0
 14 24  2  0  0  0  0
 14 25  1  0  0  0  0
 15 26  1  0  0  0  0
 16 26  1  0  0  0  0
 16 27  2  0  0  0  0
 16 28  1  0  0  0  0
 17 19  2  0  0  0  0
 17 33  1  0  0  0  0
 18 20  2  0  0  0  0
 18 34  1  0  0  0  0
 19 45  1  0  0  0  0
 20 35  1  0  0  0  0
 21 82  1  0  0  0  0
 22 83  1  0  0  0  0
 23 25  2  0  0  0  0
 23 82  1  0  0  0  0
 24 84  1  0  0  0  0
 25 85  1  0  0  0  0
 26 66  2  0  0  0  0
 27 67  1  0  0  0  0
 27 70  1  0  0  0  0
 28 71  1  0  0  0  0
 28 77  2  0  0  0  0
 29 46  1  0  0  0  0
 29 72  1  0  0  0  0
 29 78  2  0  0  0  0
 30 62  1  0  0  0  0
 30 68  1  0  0  0  0
 30 79  2  0  0  0  0
 31 63  1  0  0  0  0
 31 73  1  0  0  0  0
 31 80  2  0  0  0  0
 32 69  1  0  0  0  0
 32 74  1  0  0  0  0
 32 81  2  0  0  0  0
 33 36  1  0  0  0  0
 34 46  1  0  0  0  0
 35 68  1  0  0  0  0
 36 38  1  0  0  0  0
 37 40  1  0  0  0  0
 37 43  1  0  0  0  0
 38 45  1  0  0  0  0
 39 41  1  0  0  0  0
 39 47  1  0  0  0  0
 40 49  1  0  0  0  0
 41 50  1  0  0  0  0
 42 48  1  0  0  0  0
 42 50  1  0  0  0  0
 43 69  1  0  0  0  0
 44 49  1  0  0  0  0
 44 69  1  0  0  0  0
 45 72  1  0  0  0  0
 46 68  1  0  0  0  0
 47 48  1  0  0  0  0
 47 64  1  0  0  0  0
 48 58  1  0  0  0  0
 49 67  1  0  0  0  0
 50 75  1  0  0  0  0
 51 63  1  0  0  0  0
 52 64  1  0  0  0  0
 53 64  1  0  0  0  0
 54 65  1  0  0  0  0
 55 65  1  0  0  0  0
 56 65  1  0  0  0  0
 57 76  1  0  0  0  0
 58 61  1  0  0  0  0
 59 60  1  0  0  0  0
 59 74  1  0  0  0  0
 60 75  1  0  0  0  0
 61 83  1  0  0  0  0
 62 65  1  0  0  0  0
 62 73  1  0  0  0  0
 63 76  1  0  0  0  0
 66 67  1  0  0  0  0
M  CHG  2  75   1  76   1
M  ISO  4  32 100  61 101  74 100  83 101
M  END
> <Batch ID>
0125

> <Smiles>
CNC(C)C(=O)NC(C(=O)N1Cc2cc([101O:1][101CH2:1]CC3CC(NCC[100NH:0][100C:0](=O)N4CCCC(n5nc(-c6ccc(Oc7ccc(F)cc7F)cc6)c(C(N)=O)c5N)C4)CCC3C(C)C)ccc2CC1C(=O)NC1CCCc2ccccc21)C(C)(C)C

> <Shape>
0.225

> <Color>
0.055

> <Negative vol penalty>
0.000

$$$$

  -OEChem-04052320353D

 87 96  0     1  0  0  0  0  0999 V2000
  -14.9346  -29.5204   25.3493 C   0  0  0  0  0  0  0  0  0  0  0  0
  -15.9521  -28.6265   25.6673 C   0  0  0  0  0  0  0  0  0  0  0  0
  -23.2793  -10.2323   22.0282 C   0  0  0  0  0  0  0  0  0  0  0  0
  -24.8754  -10.7778   23.7579 C   0  0  0  0  0  0  0  0  0  0  0  0
  -15.1539  -30.5143   24.3964 C   0  0  0  0  0  0  0  0  0  0  0  0
  -17.1893  -28.7255   25.0317 C   0  0  0  0  0  0  0  0  0  0  0  0
  -22.6836  -27.5468   27.4667 C   0  0  0  0  0  0  0  0  0  0  0  0
  -22.7430   -9.2317   22.8386 C   0  0  0  0  0  0  0  0  0  0  0  0
  -24.3392   -9.7772   24.5683 C   0  0  0  0  0  0  0  0  0  0  0  0
  -23.5163  -26.4302   27.4065 C   0  0  0  0  0  0  0  0  0  0  0  0
  -20.6357   -9.0236   25.4746 C   0  0  0  0  0  0  0  0  0  0  0  0
  -19.2465   -8.9383   25.5658 C   0  0  0  0  0  0  0  0  0  0  0  0
  -24.7399  -27.4479   25.5937 C   0  0  0  0  0  0  0  0  0  0  0  0
  -19.3268   -6.6897   24.6857 C   0  0  0  0  0  0  0  0  0  0  0  0
  -24.3455  -11.0054   22.4878 C   0  0  0  0  0  0  0  0  0  0  0  0
  -24.2305  -13.1627   21.1312 C   0  0  0  0  0  0  0  0  0  0  0  0
  -16.3975  -30.6315   23.7559 C   0  0  0  0  0  0  0  0  0  0  0  0
  -22.8663  -28.6194   26.5822 C   0  0  0  0  0  0  0  0  0  0  0  0
  -17.4251  -29.7211   24.0684 C   0  0  0  0  0  0  0  0  0  0  0  0
  -23.9098  -28.5781   25.6465 C   0  0  0  0  0  0  0  0  0  0  0  0
  -23.2729   -9.0041   24.1086 C   0  0  0  0  0  0  0  0  0  0  0  0
  -24.5428  -26.3793   26.4680 C   0  0  0  0  0  0  0  0  0  0  0  0
  -21.3705   -7.9420   24.9889 C   0  0  0  0  0  0  0  0  0  0  0  0
  -18.5920   -7.7714   25.1713 C   0  0  0  0  0  0  0  0  0  0  0  0
  -20.7160   -6.7750   24.5945 C   0  0  0  0  0  0  0  0  0  0  0  0
  -24.9003  -12.0388   21.6510 C   0  0  0  0  0  0  0  0  0  0  0  0
  -25.1889  -13.8292   20.4075 C   0  0  0  0  0  0  0  0  0  0  0  0
  -22.8643  -13.5680   21.2886 C   0  0  0  0  0  0  0  0  0  0  0  0
  -21.1021  -29.9855   24.3183 C   0  0  0  0  0  0  0  0  0  0  0  0
  -23.5447  -32.1189   24.2474 C   0  0  0  0  0  0  0  0  0  0  0  0
  -26.8354  -32.7771   24.8673 C   0  0  0  0  0  0  0  0  0  0  0  0
  -31.1650  -13.9974   20.7378 C   0  0  0  0  0  0  0  0  0  0  0  0
  -16.5723  -31.6925   22.6984 C   0  0  0  0  0  0  0  0  0  0  0  0
  -21.9764  -29.8283   26.6777 C   0  0  0  0  0  0  0  0  0  0  0  0
  -24.1608  -29.7123   24.6878 C   0  0  0  0  0  0  0  0  0  0  0  0
  -18.0319  -31.9637   22.3429 C   0  0  0  0  0  0  0  0  0  0  0  0
  -29.2021  -13.0695   17.9160 C   0  0  0  0  0  0  0  0  0  0  0  0
  -18.7835  -30.6525   22.1363 C   0  0  0  0  0  0  0  0  0  0  0  0
  -28.3099  -23.9831   24.4700 C   0  0  0  0  0  0  0  0  0  0  0  0
  -26.2751  -22.7889   25.3862 C   0  0  0  0  0  0  0  0  0  0  0  0
  -27.8166  -12.8016   18.5063 C   0  0  0  0  0  0  0  0  0  0  0  0
  -29.0989  -22.6747   24.5181 C   0  0  0  0  0  0  0  0  0  0  0  0
  -27.0647  -21.4809   25.4339 C   0  0  0  0  0  0  0  0  0  0  0  0
  -28.4879  -18.9087   22.5038 C   0  0  0  0  0  0  0  0  0  0  0  0
  -28.8470  -17.7765   24.7379 C   0  0  0  0  0  0  0  0  0  0  0  0
  -30.3146  -12.6217   18.8614 C   0  0  0  0  0  0  0  0  0  0  0  0
  -28.8415  -12.9058   20.8166 C   0  0  0  0  0  0  0  0  0  0  0  0
  -29.9168  -18.5563   22.1068 C   0  0  0  0  0  0  0  0  0  0  0  0
  -30.2730  -17.4330   24.3233 C   0  0  0  0  0  0  0  0  0  0  0  0
  -18.7888  -29.8117   23.4187 C   0  0  1  0  0  0  0  0  0  0  0  0
  -21.9309  -30.6403   25.3870 C   0  0  1  0  0  0  0  0  0  0  0  0
  -27.1938  -24.0115   25.5242 C   0  0  0  0  0  0  0  0  0  0  0  0
  -27.6872  -13.3917   19.9234 C   0  0  2  0  0  0  0  0  0  0  0  0
  -28.1684  -21.4729   24.3799 C   0  0  0  0  0  0  0  0  0  0  0  0
  -28.2886  -19.0012   24.0155 C   0  0  0  0  0  0  0  0  0  0  0  0
  -28.5512  -34.5978   24.6710 C   0  0  0  0  0  0  0  0  0  0  0  0
  -23.7312  -31.6159   21.2437 C   0  0  0  0  0  0  0  0  0  0  0  0
  -25.9951  -32.6844   21.2758 C   0  0  0  0  0  0  0  0  0  0  0  0
  -23.9826  -34.0111   21.9179 C   0  0  0  0  0  0  0  0  0  0  0  0
  -27.2933  -32.8202   27.7909 C   0  0  0  0  0  0  0  0  0  0  0  0
  -26.3881  -25.3051   25.4207 C   0  0  0  0  0  0  0  0  0  1  0  0
  -31.8709  -15.3586   22.6892 C   0  0  0  0  0  0  0  0  0  0  0  0
  -31.6979  -16.8314   22.3679 C   0  0  0  0  0  0  0  0  0  0  0  0
  -24.8460  -32.2294   23.4902 C   0  0  1  0  0  0  0  0  0  0  0  0
  -27.5155  -33.9389   25.5688 C   0  0  2  0  0  0  0  0  0  0  0  0
  -24.6330  -32.6128   21.9985 C   0  0  0  0  0  0  0  0  0  0  0  0
  -26.1848  -11.9907   21.2881 N   0  0  0  0  0  0  0  0  0  0  0  0
  -26.3299  -13.0926   20.5326 N   0  0  0  0  0  0  0  0  0  0  0  0
  -23.2598  -30.8695   24.8163 N   0  0  0  0  0  0  0  0  0  0  0  0
  -30.1343  -13.2178   20.1874 N   0  0  0  0  0  0  0  0  0  0  0  0
  -25.1584  -14.9677   19.6826 N   0  0  0  0  0  0  0  0  0  0  0  0
  -22.0152  -12.7678   22.0652 N   0  0  0  0  0  0  0  0  0  0  0  0
  -19.7635  -30.3264   24.3565 N   0  0  0  0  0  0  0  0  0  0  0  0
  -25.6740  -33.1704   24.2367 N   0  0  0  0  0  0  0  0  0  0  0  0
  -30.9100  -14.5302   21.9955 N   0  0  0  0  0  0  0  0  0  0  0  0
  -30.3406  -17.2951   22.8210 N   0  3  0  0  0  0  0  0  0  0  0  0
  -28.9663  -20.2269   24.5277 N   0  3  0  0  0  0  0  0  0  0  0  0
  -28.1983  -33.4684   26.8071 N   0  3  0  0  0  0  0  0  0  0  0  0
  -22.4057  -14.6002   20.7429 O   0  0  0  0  0  0  0  0  0  0  0  0
  -21.6377  -29.2283   23.5174 O   0  0  0  0  0  0  0  0  0  0  0  0
  -22.8114  -33.1068   24.3369 O   0  0  0  0  0  0  0  0  0  0  0  0
  -27.2910  -31.6356   24.8747 O   0  0  0  0  0  0  0  0  0  0  0  0
  -32.2311  -14.2077   20.1496 O   0  0  0  0  0  0  0  0  0  0  0  0
  -22.7498   -8.0279   24.8998 O   0  0  0  0  0  0  0  0  0  0  0  0
  -25.3566  -25.2904   26.4066 O   0  0  0  0  0  0  0  0  0  1  0  0
  -17.2580   -7.6890   25.2604 F   0  0  0  0  0  0  0  0  0  0  0  0
  -21.4167   -5.7322   24.1282 F   0  0  0  0  0  0  0  0  0  0  0  0
  1  2  1  0  0  0  0
  1  5  2  0  0  0  0
  2  6  2  0  0  0  0
  3  8  2  0  0  0  0
  3 15  1  0  0  0  0
  4  9  1  0  0  0  0
  4 15  2  0  0  0  0
  5 17  1  0  0  0  0
  6 19  1  0  0  0  0
  7 10  2  0  0  0  0
  7 18  1  0  0  0  0
  8 21  1  0  0  0  0
  9 21  2  0  0  0  0
 10 22  1  0  0  0  0
 11 12  2  0  0  0  0
 11 23  1  0  0  0  0
 12 24  1  0  0  0  0
 13 20  1  0  0  0  0
 13 22  2  0  0  0  0
 14 24  2  0  0  0  0
 14 25  1  0  0  0  0
 15 26  1  0  0  0  0
 16 26  1  0  0  0  0
 16 27  2  0  0  0  0
 16 28  1  0  0  0  0
 17 19  2  0  0  0  0
 17 33  1  0  0  0  0
 18 20  2  0  0  0  0
 18 34  1  0  0  0  0
 19 50  1  0  0  0  0
 20 35  1  0  0  0  0
 21 84  1  0  0  0  0
 22 85  1  0  0  0  0
 23 25  2  0  0  0  0
 23 84  1  0  0  0  0
 24 86  1  0  0  0  0
 25 87  1  0  0  0  0
 26 67  2  0  0  0  0
 27 68  1  0  0  0  0
 27 71  1  0  0  0  0
 28 72  1  0  0  0  0
 28 79  2  0  0  0  0
 29 51  1  0  0  0  0
 29 73  1  0  0  0  0
 29 80  2  0  0  0  0
 30 64  1  0  0  0  0
 30 69  1  0  0  0  0
 30 81  2  0  0  0  0
 31 65  1  0  0  0  0
 31 74  1  0  0  0  0
 31 82  2  0  0  0  0
 32 70  1  0  0  0  0
 32 75  1  0  0  0  0
 32 83  2  0  0  0  0
 33 36  1  0  0  0  0
 34 51  1  0  0  0  0
 35 69  1  0  0  0  0
 36 38  1  0  0  0  0
 37 41  1  0  0  0  0
 37 46  1  0  0  0  0
 38 50  1  0  0  0  0
 39 42  1  0  0  0  0
 39 52  1  0  0  0  0
 40 43  1  0  0  0  0
 40 52  1  0  0  0  0
 41 53  1  0  0  0  0
 42 54  1  0  0  0  0
 43 54  1  0  0  0  0
 44 48  1  0  0  0  0
 44 55  1  0  0  0  0
 45 49  1  0  0  0  0
 45 55  1  0  0  0  0
 46 70  1  0  0  0  0
 47 53  1  0  0  0  0
 47 70  1  0  0  0  0
 48 76  1  0  0  0  0
 49 76  1  0  0  0  0
 50 73  1  0  0  0  0
 51 69  1  0  0  0  0
 52 61  1  0  0  0  0
 53 68  1  0  0  0  0
 54 77  1  0  0  0  0
 55 77  1  0  0  0  0
 56 65  1  0  0  0  0
 57 66  1  0  0  0  0
 58 66  1  0  0  0  0
 59 66  1  0  0  0  0
 60 78  1  0  0  0  0
 61 85  1  0  0  0  0
 62 63  1  0  0  0  0
 62 75  1  0  0  0  0
 63 76  1  0  0  0  0
 64 66  1  0  0  0  0
 64 74  1  0  0  0  0
 65 78  1  0  0  0  0
 67 68  1  0  0  0  0
M  CHG  3  76   1  77   1  78   1
M  ISO  4  32 100  61 101  75 100  85 101
M  END
> <Batch ID>
0125

> <Smiles>
CNC(C)C(=O)NC(C(=O)N1Cc2cc([101O:1][101CH2:1]C3CCC(NC4CCN(CC[100NH:0][100C:0](=O)N5CCCC(n6nc(-c7ccc(Oc8ccc(F)cc8F)cc7)c(C(N)=O)c6N)C5)CC4)CC3)ccc2CC1C(=O)NC1CCCc2ccccc21)C(C)(C)C

> <Shape>
0.242

> <Color>
0.133

> <Negative vol penalty>
0.000

$$$$

  -OEChem-04052320353D

 79 87  0     1  0  0  0  0  0999 V2000
  -33.3592  -30.1525   11.5273 C   0  0  0  0  0  0  0  0  0  0  0  0
  -33.1612  -28.9243   12.1499 C   0  0  0  0  0  0  0  0  0  0  0  0
  -23.1060   -9.8254   19.9314 C   0  0  0  0  0  0  0  0  0  0  0  0
  -23.8819   -9.8390   22.2193 C   0  0  0  0  0  0  0  0  0  0  0  0
  -33.1059  -31.3342   12.2226 C   0  0  0  0  0  0  0  0  0  0  0  0
  -32.7107  -28.8771   13.4688 C   0  0  0  0  0  0  0  0  0  0  0  0
  -28.9865  -24.6899   15.9393 C   0  0  0  0  0  0  0  0  0  0  0  0
  -28.8955  -19.8289   20.0091 C   0  0  0  0  0  0  0  0  0  0  0  0
  -22.4027   -8.6462   20.1768 C   0  0  0  0  0  0  0  0  0  0  0  0
  -23.1785   -8.6597   22.4649 C   0  0  0  0  0  0  0  0  0  0  0  0
  -29.2321  -23.5536   16.7088 C   0  0  0  0  0  0  0  0  0  0  0  0
  -19.9831   -7.7500   23.0832 C   0  0  0  0  0  0  0  0  0  0  0  0
  -19.2365   -7.6754   24.2590 C   0  0  0  0  0  0  0  0  0  0  0  0
  -29.1090  -18.8017   20.9217 C   0  0  0  0  0  0  0  0  0  0  0  0
  -28.8276  -24.8318   18.7143 C   0  0  0  0  0  0  0  0  0  0  0  0
  -20.5469   -5.7744   24.9705 C   0  0  0  0  0  0  0  0  0  0  0  0
  -31.1275  -19.5394   19.2402 C   0  0  0  0  0  0  0  0  0  0  0  0
  -23.8456  -10.4218   20.9526 C   0  0  0  0  0  0  0  0  0  0  0  0
  -24.1025  -12.9579   20.8514 C   0  0  0  0  0  0  0  0  0  0  0  0
  -32.6429  -31.3013   13.5475 C   0  0  0  0  0  0  0  0  0  0  0  0
  -28.6697  -25.9104   16.5530 C   0  0  0  0  0  0  0  0  0  0  0  0
  -32.4523  -30.0594   14.1829 C   0  0  0  0  0  0  0  0  0  0  0  0
  -28.5759  -25.9815   17.9502 C   0  0  0  0  0  0  0  0  0  0  0  0
  -29.9189  -20.2108   19.1488 C   0  0  0  0  0  0  0  0  0  0  0  0
  -22.4389   -8.0633   21.4436 C   0  0  0  0  0  0  0  0  0  0  0  0
  -29.1555  -23.6251   18.0967 C   0  0  0  0  0  0  0  0  0  0  0  0
  -21.0117   -6.8368   22.8510 C   0  0  0  0  0  0  0  0  0  0  0  0
  -19.5183   -6.6876   25.2027 C   0  0  0  0  0  0  0  0  0  0  0  0
  -21.2935   -5.8490   23.7946 C   0  0  0  0  0  0  0  0  0  0  0  0
  -24.5728  -11.6397   20.6995 C   0  0  0  0  0  0  0  0  0  0  0  0
  -30.3538  -18.1933   20.9336 C   0  0  0  0  0  0  0  0  0  0  0  0
  -25.1665  -13.7462   20.4868 C   0  0  0  0  0  0  0  0  0  0  0  0
  -22.8187  -13.4277   21.2835 C   0  0  0  0  0  0  0  0  0  0  0  0
  -30.0191  -28.7865   16.6553 C   0  0  0  0  0  0  0  0  0  0  0  0
  -27.3018  -29.5760   18.2411 C   0  0  0  0  0  0  0  0  0  0  0  0
  -24.6543  -28.5567   20.1382 C   0  0  0  0  0  0  0  0  0  0  0  0
  -30.6146  -14.9457   20.6453 C   0  0  0  0  0  0  0  0  0  0  0  0
  -32.4281  -32.6054   14.2740 C   0  0  0  0  0  0  0  0  0  0  0  0
  -28.3813  -27.1206   15.7076 C   0  0  0  0  0  0  0  0  0  0  0  0
  -28.2195  -27.2629   18.6569 C   0  0  0  0  0  0  0  0  0  0  0  0
  -31.5950  -32.4644   15.5453 C   0  0  0  0  0  0  0  0  0  0  0  0
  -29.5395  -12.5441   18.2466 C   0  0  0  0  0  0  0  0  0  0  0  0
  -32.0856  -31.2834   16.3768 C   0  0  0  0  0  0  0  0  0  0  0  0
  -28.1158  -12.1992   18.6871 C   0  0  0  0  0  0  0  0  0  0  0  0
  -30.4575  -12.7856   19.4429 C   0  0  0  0  0  0  0  0  0  0  0  0
  -28.5426  -13.4416   20.8488 C   0  0  0  0  0  0  0  0  0  0  0  0
  -31.9409  -29.9667   15.6042 C   0  0  1  0  0  0  0  0  0  0  0  0
  -28.5717  -28.4341   16.4598 C   0  0  1  0  0  0  0  0  0  0  0  0
  -27.5663  -13.2443   19.6766 C   0  0  2  0  0  0  0  0  0  0  0  0
  -22.6202  -29.4361   21.3157 C   0  0  0  0  0  0  0  0  0  0  0  0
  -29.0711  -30.6775   20.4696 C   0  0  0  0  0  0  0  0  0  0  0  0
  -27.0699  -30.6564   21.9739 C   0  0  0  0  0  0  0  0  0  0  0  0
  -27.0761  -32.0855   19.9292 C   0  0  0  0  0  0  0  0  0  0  0  0
  -22.8396  -26.9054   18.4831 C   0  0  0  0  0  0  0  0  0  0  0  0
  -29.7203  -21.3156   18.1532 C   0  0  0  0  0  0  0  0  0  1  0  0
  -30.6179  -17.0871   21.8997 C   0  0  0  0  0  0  0  0  0  0  0  0
  -26.8702  -29.5772   19.6877 C   0  0  1  0  0  0  0  0  0  0  0  0
  -23.1672  -28.8409   20.0276 C   0  0  2  0  0  0  0  0  0  0  0  0
  -27.5304  -30.7253   20.5022 C   0  0  0  0  0  0  0  0  0  0  0  0
  -31.3722  -18.5370   20.1136 N   0  0  0  0  0  0  0  0  0  0  0  0
  -25.8371  -11.5894   20.2716 N   0  0  0  0  0  0  0  0  0  0  0  0
  -26.1702  -12.8859   20.1514 N   0  0  0  0  0  0  0  0  0  0  0  0
  -27.9527  -28.4202   17.7868 N   0  0  0  0  0  0  0  0  0  0  0  0
  -29.8795  -13.7879   20.3413 N   0  0  0  0  0  0  0  0  0  0  0  0
  -25.3320  -15.0845   20.4234 N   0  0  0  0  0  0  0  0  0  0  0  0
  -21.8400  -12.4826   21.6202 N   0  0  0  0  0  0  0  0  0  0  0  0
  -30.5643  -29.5206   15.6192 N   0  0  0  0  0  0  0  0  0  0  0  0
  -25.4117  -29.6133   19.6785 N   0  0  0  0  0  0  0  0  0  0  0  0
  -29.9910  -15.8471   21.4993 N   0  0  0  0  0  0  0  0  0  0  0  0
  -22.4201  -27.5849   19.7359 N   0  3  0  0  0  0  0  0  0  0  0  0
  -22.5421  -14.6492   21.3528 O   0  0  0  0  0  0  0  0  0  0  0  0
  -30.5981  -28.4209   17.6715 O   0  0  0  0  0  0  0  0  0  0  0  0
  -27.0636  -30.5612   17.5381 O   0  0  0  0  0  0  0  0  0  0  0  0
  -25.0995  -27.5043   20.5907 O   0  0  0  0  0  0  0  0  0  0  0  0
  -31.7407  -15.1625   20.1852 O   0  0  0  0  0  0  0  0  0  0  0  0
  -21.7526   -6.9127   21.6835 O   0  0  0  0  0  0  0  0  0  0  0  0
  -29.3954  -22.5176   18.8502 O   0  0  0  0  0  0  0  0  0  1  0  0
  -18.8022   -6.6170   26.3324 F   0  0  0  0  0  0  0  0  0  0  0  0
  -22.2812   -4.9697   23.5777 F   0  0  0  0  0  0  0  0  0  0  0  0
  1  2  1  0  0  0  0
  1  5  2  0  0  0  0
  2  6  2  0  0  0  0
  3  9  2  0  0  0  0
  3 18  1  0  0  0  0
  4 10  1  0  0  0  0
  4 18  2  0  0  0  0
  5 20  1  0  0  0  0
  6 22  1  0  0  0  0
  7 11  2  0  0  0  0
  7 21  1  0  0  0  0
  8 14  2  0  0  0  0
  8 24  1  0  0  0  0
  9 25  1  0  0  0  0
 10 25  2  0  0  0  0
 11 26  1  0  0  0  0
 12 13  2  0  0  0  0
 12 27  1  0  0  0  0
 13 28  1  0  0  0  0
 14 31  1  0  0  0  0
 15 23  1  0  0  0  0
 15 26  2  0  0  0  0
 16 28  2  0  0  0  0
 16 29  1  0  0  0  0
 17 24  2  0  0  0  0
 17 60  1  0  0  0  0
 18 30  1  0  0  0  0
 19 30  1  0  0  0  0
 19 32  2  0  0  0  0
 19 33  1  0  0  0  0
 20 22  2  0  0  0  0
 20 38  1  0  0  0  0
 21 23  2  0  0  0  0
 21 39  1  0  0  0  0
 22 47  1  0  0  0  0
 23 40  1  0  0  0  0
 24 55  1  0  0  0  0
 25 76  1  0  0  0  0
 26 77  1  0  0  0  0
 27 29  2  0  0  0  0
 27 76  1  0  0  0  0
 28 78  1  0  0  0  0
 29 79  1  0  0  0  0
 30 61  2  0  0  0  0
 31 56  1  0  0  0  0
 31 60  2  0  0  0  0
 32 62  1  0  0  0  0
 32 65  1  0  0  0  0
 33 66  1  0  0  0  0
 33 71  2  0  0  0  0
 34 48  1  0  0  0  0
 34 67  1  0  0  0  0
 34 72  2  0  0  0  0
 35 57  1  0  0  0  0
 35 63  1  0  0  0  0
 35 73  2  0  0  0  0
 36 58  1  0  0  0  0
 36 68  1  0  0  0  0
 36 74  2  0  0  0  0
 37 64  1  0  0  0  0
 37 69  1  0  0  0  0
 37 75  2  0  0  0  0
 38 41  1  0  0  0  0
 39 48  1  0  0  0  0
 40 63  1  0  0  0  0
 41 43  1  0  0  0  0
 42 44  1  0  0  0  0
 42 45  1  0  0  0  0
 43 47  1  0  0  0  0
 44 49  1  0  0  0  0
 45 64  1  0  0  0  0
 46 49  1  0  0  0  0
 46 64  1  0  0  0  0
 47 67  1  0  0  0  0
 48 63  1  0  0  0  0
 49 62  1  0  0  0  0
 50 58  1  0  0  0  0
 51 59  1  0  0  0  0
 52 59  1  0  0  0  0
 53 59  1  0  0  0  0
 54 70  1  0  0  0  0
 55 77  1  0  0  0  0
 56 69  1  0  0  0  0
 57 59  1  0  0  0  0
 57 68  1  0  0  0  0
 58 70  1  0  0  0  0
 61 62  1  0  0  0  0
M  CHG  1  70   1
M  ISO  4  37 100  55 101  69 100  77 101
M  END
> <Batch ID>
0125

> <Smiles>
CNC(C)C(=O)NC(C(=O)N1Cc2cc([101O:1][101CH2:1]c3ccc(C[100NH:0][100C:0](=O)N4CCCC(n5nc(-c6ccc(Oc7ccc(F)cc7F)cc6)c(C(N)=O)c5N)C4)nc3)ccc2CC1C(=O)NC1CCCc2ccccc21)C(C)(C)C

> <Shape>
0.282

> <Color>
0.213

> <Negative vol penalty>
0.000

$$$$

  -OEChem-04052320353D

 85 94  0     1  0  0  0  0  0999 V2000
  -20.7506  -29.1705   25.5729 C   0  0  0  0  0  0  0  0  0  0  0  0
  -21.9072  -28.5913   25.0608 C   0  0  0  0  0  0  0  0  0  0  0  0
  -26.8748  -17.9199   19.5465 C   0  0  0  0  0  0  0  0  0  0  0  0
  -29.0609  -17.7450   20.5601 C   0  0  0  0  0  0  0  0  0  0  0  0
  -19.5374  -29.0106   24.9046 C   0  0  0  0  0  0  0  0  0  0  0  0
  -21.8510  -27.8510   23.8804 C   0  0  0  0  0  0  0  0  0  0  0  0
  -31.9321  -24.8148   22.4683 C   0  0  0  0  0  0  0  0  0  0  0  0
  -25.6346  -28.9678   20.7051 C   0  0  0  0  0  0  0  0  0  0  0  0
  -30.7029  -25.4615   22.3509 C   0  0  0  0  0  0  0  0  0  0  0  0
  -26.7584  -16.5299   19.5576 C   0  0  0  0  0  0  0  0  0  0  0  0
  -28.9445  -16.3550   20.5713 C   0  0  0  0  0  0  0  0  0  0  0  0
  -26.8839  -28.4151   20.9838 C   0  0  0  0  0  0  0  0  0  0  0  0
  -26.0199  -14.1101   21.8008 C   0  0  0  0  0  0  0  0  0  0  0  0
  -24.8118  -13.5642   22.2343 C   0  0  0  0  0  0  0  0  0  0  0  0
  -31.7842  -27.2538   21.1691 C   0  0  0  0  0  0  0  0  0  0  0  0
  -26.4909  -26.7064   19.3270 C   0  0  0  0  0  0  0  0  0  0  0  0
  -24.5235  -12.4964   20.0863 C   0  0  0  0  0  0  0  0  0  0  0  0
  -28.0261  -18.5274   20.0476 C   0  0  0  0  0  0  0  0  0  0  0  0
  -27.3051  -20.8925   20.6754 C   0  0  0  0  0  0  0  0  0  0  0  0
  -19.4682  -28.2761   23.7103 C   0  0  0  0  0  0  0  0  0  0  0  0
  -24.7981  -28.3865   19.7413 C   0  0  0  0  0  0  0  0  0  0  0  0
  -33.1163  -25.3764   21.9440 C   0  0  0  0  0  0  0  0  0  0  0  0
  -20.6356  -27.6801   23.1962 C   0  0  0  0  0  0  0  0  0  0  0  0
  -33.0377  -26.6181   21.2825 C   0  0  0  0  0  0  0  0  0  0  0  0
  -25.2326  -27.2551   19.0361 C   0  0  0  0  0  0  0  0  0  0  0  0
  -30.6290  -26.6840   21.7006 C   0  0  0  0  0  0  0  0  0  0  0  0
  -27.7932  -15.7475   20.0700 C   0  0  0  0  0  0  0  0  0  0  0  0
  -27.3110  -27.2825   20.2968 C   0  0  0  0  0  0  0  0  0  0  0  0
  -26.4799  -13.8492   20.5100 C   0  0  0  0  0  0  0  0  0  0  0  0
  -24.0635  -12.7573   21.3771 C   0  0  0  0  0  0  0  0  0  0  0  0
  -25.7316  -13.0423   19.6528 C   0  0  0  0  0  0  0  0  0  0  0  0
  -28.1472  -19.9631   20.0358 C   0  0  0  0  0  0  0  0  0  0  0  0
  -27.8427  -22.1165   20.3602 C   0  0  0  0  0  0  0  0  0  0  0  0
  -26.1413  -20.6694   21.4824 C   0  0  0  0  0  0  0  0  0  0  0  0
  -21.9118  -27.0557   19.7852 C   0  0  0  0  0  0  0  0  0  0  0  0
  -22.3230  -26.9852   16.5684 C   0  0  0  0  0  0  0  0  0  0  0  0
  -24.4789  -26.9636   13.9229 C   0  0  0  0  0  0  0  0  0  0  0  0
  -33.3582  -23.8765   18.8329 C   0  0  0  0  0  0  0  0  0  0  0  0
  -18.1256  -28.0911   23.0487 C   0  0  0  0  0  0  0  0  0  0  0  0
  -23.4646  -29.0104   19.4334 C   0  0  0  0  0  0  0  0  0  0  0  0
  -34.2264  -27.3022   20.6525 C   0  0  0  0  0  0  0  0  0  0  0  0
  -24.3808  -26.6050   17.9777 C   0  0  0  0  0  0  0  0  0  0  0  0
  -18.2200  -27.6061   21.6043 C   0  0  0  0  0  0  0  0  0  0  0  0
  -35.3495  -27.6309   21.6293 C   0  0  0  0  0  0  0  0  0  0  0  0
  -36.2298  -26.4367   21.9761 C   0  0  0  0  0  0  0  0  0  0  0  0
  -30.3685  -24.3317   16.9537 C   0  0  0  0  0  0  0  0  0  0  0  0
  -35.5282  -25.3696   22.8089 C   0  0  0  0  0  0  0  0  0  0  0  0
  -19.2098  -26.4509   21.4927 C   0  0  0  0  0  0  0  0  0  0  0  0
  -29.3842  -23.3475   17.5882 C   0  0  0  0  0  0  0  0  0  0  0  0
  -31.7875  -23.7682   16.9204 C   0  0  0  0  0  0  0  0  0  0  0  0
  -31.3157  -22.3195   18.8575 C   0  0  0  0  0  0  0  0  0  0  0  0
  -34.4003  -24.5835   22.1209 C   0  0  2  0  0  0  0  0  0  0  0  0
  -20.6197  -26.8906   21.9052 C   0  0  1  0  0  0  0  0  0  0  0  0
  -22.4807  -28.0338   18.7966 C   0  0  1  0  0  0  0  0  0  0  0  0
  -29.8817  -22.8657   18.9643 C   0  0  2  0  0  0  0  0  0  0  0  0
  -24.5197  -26.8638   11.4158 C   0  0  0  0  0  0  0  0  0  0  0  0
  -35.7835  -22.7350   21.1247 C   0  0  0  0  0  0  0  0  0  0  0  0
  -21.6967  -24.0010   16.6794 C   0  0  0  0  0  0  0  0  0  0  0  0
  -22.6655  -23.7831   14.3811 C   0  0  0  0  0  0  0  0  0  0  0  0
  -20.6569  -25.2143   14.7555 C   0  0  0  0  0  0  0  0  0  0  0  0
  -25.8141  -29.5973   13.7241 C   0  0  0  0  0  0  0  0  0  0  0  0
  -29.3191  -27.3834   21.5669 C   0  0  0  0  0  0  0  0  0  1  0  0
  -22.9114  -26.0004   15.5871 C   0  0  1  0  0  0  0  0  0  0  0  0
  -24.5035  -27.7700   12.6370 C   0  0  2  0  0  0  0  0  0  0  0  0
  -34.8320  -23.8838   20.8296 C   0  0  1  0  0  0  0  0  0  0  0  0
  -21.9981  -24.7606   15.3721 C   0  0  0  0  0  0  0  0  0  0  0  0
  -29.1437  -20.5467   19.3648 N   0  0  0  0  0  0  0  0  0  0  0  0
  -28.9313  -21.8560   19.5810 N   0  0  0  0  0  0  0  0  0  0  0  0
  -23.0825  -27.2485   17.7171 N   0  0  0  0  0  0  0  0  0  0  0  0
  -32.1992  -23.3309   18.2565 N   0  0  0  0  0  0  0  0  0  0  0  0
  -27.4855  -23.3795   20.6761 N   0  0  0  0  0  0  0  0  0  0  0  0
  -26.3069  -20.5139   22.8654 N   0  0  0  0  0  0  0  0  0  0  0  0
  -21.2448  -27.6468   20.8413 N   0  0  0  0  0  0  0  0  0  0  0  0
  -23.1914  -26.7546   14.3701 N   0  0  0  0  0  0  0  0  0  0  0  0
  -33.6736  -23.4122   20.1040 N   0  0  0  0  0  0  0  0  0  0  0  0
  -25.7135  -28.6388   12.5935 N   0  3  0  0  0  0  0  0  0  0  0  0
  -24.9902  -20.5932   20.9896 O   0  0  0  0  0  0  0  0  0  0  0  0
  -22.0653  -25.8537   19.6027 O   0  0  0  0  0  0  0  0  0  0  0  0
  -21.2330  -27.5073   16.3212 O   0  0  0  0  0  0  0  0  0  0  0  0
  -25.4995  -26.5565   14.4735 O   0  0  0  0  0  0  0  0  0  0  0  0
  -34.0569  -24.7190   18.2595 O   0  0  0  0  0  0  0  0  0  0  0  0
  -27.6799  -14.3912   20.0813 O   0  0  0  0  0  0  0  0  0  0  0  0
  -28.5379  -26.7370   20.5693 O   0  0  0  0  0  0  0  0  0  1  0  0
  -22.9041  -12.2319   21.7941 F   0  0  0  0  0  0  0  0  0  0  0  0
  -26.1689  -12.7871   18.4120 F   0  0  0  0  0  0  0  0  0  0  0  0
  1  2  1  0  0  0  0
  1  5  2  0  0  0  0
  2  6  2  0  0  0  0
  3 10  2  0  0  0  0
  3 18  1  0  0  0  0
  4 11  1  0  0  0  0
  4 18  2  0  0  0  0
  5 20  1  0  0  0  0
  6 23  1  0  0  0  0
  7  9  2  0  0  0  0
  7 22  1  0  0  0  0
  8 12  2  0  0  0  0
  8 21  1  0  0  0  0
  9 26  1  0  0  0  0
 10 27  1  0  0  0  0
 11 27  2  0  0  0  0
 12 28  1  0  0  0  0
 13 14  2  0  0  0  0
 13 29  1  0  0  0  0
 14 30  1  0  0  0  0
 15 24  1  0  0  0  0
 15 26  2  0  0  0  0
 16 25  1  0  0  0  0
 16 28  2  0  0  0  0
 17 30  2  0  0  0  0
 17 31  1  0  0  0  0
 18 32  1  0  0  0  0
 19 32  1  0  0  0  0
 19 33  2  0  0  0  0
 19 34  1  0  0  0  0
 20 23  2  0  0  0  0
 20 39  1  0  0  0  0
 21 25  2  0  0  0  0
 21 40  1  0  0  0  0
 22 24  2  0  0  0  0
 22 52  1  0  0  0  0
 23 53  1  0  0  0  0
 24 41  1  0  0  0  0
 25 42  1  0  0  0  0
 26 62  1  0  0  0  0
 27 82  1  0  0  0  0
 28 83  1  0  0  0  0
 29 31  2  0  0  0  0
 29 82  1  0  0  0  0
 30 84  1  0  0  0  0
 31 85  1  0  0  0  0
 32 67  2  0  0  0  0
 33 68  1  0  0  0  0
 33 71  1  0  0  0  0
 34 72  1  0  0  0  0
 34 77  2  0  0  0  0
 35 54  1  0  0  0  0
 35 73  1  0  0  0  0
 35 78  2  0  0  0  0
 36 63  1  0  0  0  0
 36 69  1  0  0  0  0
 36 79  2  0  0  0  0
 37 64  1  0  0  0  0
 37 74  1  0  0  0  0
 37 80  2  0  0  0  0
 38 70  1  0  0  0  0
 38 75  1  0  0  0  0
 38 81  2  0  0  0  0
 39 43  1  0  0  0  0
 40 54  1  0  0  0  0
 41 44  1  0  0  0  0
 42 69  1  0  0  0  0
 43 48  1  0  0  0  0
 44 45  1  0  0  0  0
 45 47  1  0  0  0  0
 46 49  1  0  0  0  0
 46 50  1  0  0  0  0
 47 52  1  0  0  0  0
 48 53  1  0  0  0  0
 49 55  1  0  0  0  0
 50 70  1  0  0  0  0
 51 55  1  0  0  0  0
 51 70  1  0  0  0  0
 52 65  1  0  0  0  0
 53 73  1  0  0  0  0
 54 69  1  0  0  0  0
 55 68  1  0  0  0  0
 56 64  1  0  0  0  0
 57 65  1  0  0  0  0
 58 66  1  0  0  0  0
 59 66  1  0  0  0  0
 60 66  1  0  0  0  0
 61 76  1  0  0  0  0
 62 83  1  0  0  0  0
 63 66  1  0  0  0  0
 63 74  1  0  0  0  0
 64 76  1  0  0  0  0
 65 75  1  0  0  0  0
 67 68  1  0  0  0  0
M  CHG  1  76   1
M  ISO  4  38 100  62 101  75 100  83 101
M  END
> <Batch ID>
0125

> <Smiles>
CNC(C)C(=O)NC(C(=O)N1Cc2cc([101O:1][101CH2:1]c3ccc4c(c3)CCCCC4C(C)[100NH:0][100C:0](=O)N3CCCC(n4nc(-c5ccc(Oc6ccc(F)cc6F)cc5)c(C(N)=O)c4N)C3)ccc2CC1C(=O)NC1CCCc2ccccc21)C(C)(C)C

> <Shape>
0.222

> <Color>
0.074

> <Negative vol penalty>
0.000

$$$$

  -OEChem-04052320353D

 80 88  0     1  0  0  0  0  0999 V2000
  -24.0582  -29.2997   22.9899 C   0  0  0  0  0  0  0  0  0  0  0  0
  -24.3226  -27.9487   23.1844 C   0  0  0  0  0  0  0  0  0  0  0  0
  -21.2229  -23.6643   19.5041 C   0  0  0  0  0  0  0  0  0  0  0  0
  -23.1535  -23.0364   20.8140 C   0  0  0  0  0  0  0  0  0  0  0  0
  -24.4483  -29.9187   21.8042 C   0  0  0  0  0  0  0  0  0  0  0  0
  -24.9875  -27.2190   22.1983 C   0  0  0  0  0  0  0  0  0  0  0  0
  -26.3272  -21.2830   21.8891 C   0  0  0  0  0  0  0  0  0  0  0  0
  -21.1682  -24.8880   20.1713 C   0  0  0  0  0  0  0  0  0  0  0  0
  -23.0988  -24.2601   21.4812 C   0  0  0  0  0  0  0  0  0  0  0  0
  -25.7459  -20.1219   21.3815 C   0  0  0  0  0  0  0  0  0  0  0  0
  -20.0827  -26.0524   23.1529 C   0  0  0  0  0  0  0  0  0  0  0  0
  -18.8352  -26.4944   23.5933 C   0  0  0  0  0  0  0  0  0  0  0  0
  -27.0721  -20.3409   19.3784 C   0  0  0  0  0  0  0  0  0  0  0  0
  -19.0524  -28.4725   22.2233 C   0  0  0  0  0  0  0  0  0  0  0  0
  -26.4696  -13.2484   20.5122 C   0  0  0  0  0  0  0  0  0  0  0  0
  -24.7628  -11.7620   20.7230 C   0  0  0  0  0  0  0  0  0  0  0  0
  -22.2155  -22.7385   19.8255 C   0  0  0  0  0  0  0  0  0  0  0  0
  -22.9788  -21.1804   17.9553 C   0  0  0  0  0  0  0  0  0  0  0  0
  -25.1072  -29.1926   20.7984 C   0  0  0  0  0  0  0  0  0  0  0  0
  -27.2790  -21.9889   21.1393 C   0  0  0  0  0  0  0  0  0  0  0  0
  -25.4105  -27.8314   21.0047 C   0  0  0  0  0  0  0  0  0  0  0  0
  -27.6659  -21.5092   19.8798 C   0  0  0  0  0  0  0  0  0  0  0  0
  -25.5827  -14.3033   20.4408 C   0  0  0  0  0  0  0  0  0  0  0  0
  -22.1061  -25.1859   21.1598 C   0  0  0  0  0  0  0  0  0  0  0  0
  -26.1162  -19.6523   20.1247 C   0  0  0  0  0  0  0  0  0  0  0  0
  -20.8151  -26.8205   22.2478 C   0  0  0  0  0  0  0  0  0  0  0  0
  -18.3200  -27.7044   23.1285 C   0  0  0  0  0  0  0  0  0  0  0  0
  -20.2999  -28.0306   21.7830 C   0  0  0  0  0  0  0  0  0  0  0  0
  -22.2722  -21.4740   19.1370 C   0  0  0  0  0  0  0  0  0  0  0  0
  -24.2469  -13.9668   20.5238 C   0  0  0  0  0  0  0  0  0  0  0  0
  -22.7112  -19.8547   17.7157 C   0  0  0  0  0  0  0  0  0  0  0  0
  -23.8033  -22.0300   17.1466 C   0  0  0  0  0  0  0  0  0  0  0  0
  -27.4398  -24.9117   19.9002 C   0  0  0  0  0  0  0  0  0  0  0  0
  -30.4689  -24.0119   19.1671 C   0  0  0  0  0  0  0  0  0  0  0  0
  -32.1058  -21.0520   17.9113 C   0  0  0  0  0  0  0  0  0  0  0  0
  -21.8969  -14.8744   20.5253 C   0  0  0  0  0  0  0  0  0  0  0  0
  -25.5139  -29.9143   19.5379 C   0  0  0  0  0  0  0  0  0  0  0  0
  -27.9164  -23.2249   21.7124 C   0  0  0  0  0  0  0  0  0  0  0  0
  -28.6980  -22.2192   19.0436 C   0  0  0  0  0  0  0  0  0  0  0  0
  -25.8103  -28.9670   18.3798 C   0  0  0  0  0  0  0  0  0  0  0  0
  -19.1736  -16.7010   19.1380 C   0  0  0  0  0  0  0  0  0  0  0  0
  -26.7545  -27.8655   18.8379 C   0  0  0  0  0  0  0  0  0  0  0  0
  -19.7625  -18.0898   18.8801 C   0  0  0  0  0  0  0  0  0  0  0  0
  -19.7264  -16.0796   20.4195 C   0  0  0  0  0  0  0  0  0  0  0  0
  -21.7805  -17.4291   20.2506 C   0  0  0  0  0  0  0  0  0  0  0  0
  -26.1053  -27.0104   19.9334 C   0  0  1  0  0  0  0  0  0  0  0  0
  -28.4974  -24.1472   20.6451 C   0  0  1  0  0  0  0  0  0  0  0  0
  -21.3027  -18.0682   18.9365 C   0  0  2  0  0  0  0  0  0  0  0  0
  -34.4587  -20.2349   18.2168 C   0  0  0  0  0  0  0  0  0  0  0  0
  -31.0049  -25.4575   16.5341 C   0  0  0  0  0  0  0  0  0  0  0  0
  -32.5253  -23.5753   15.8906 C   0  0  0  0  0  0  0  0  0  0  0  0
  -33.0481  -24.9704   17.8914 C   0  0  0  0  0  0  0  0  0  0  0  0
  -31.1864  -18.4422   18.9615 C   0  0  0  0  0  0  0  0  0  0  0  0
  -26.0779  -15.7189   20.2847 C   0  0  0  0  0  0  0  0  0  0  0  0
  -25.9199  -16.2739   18.8674 C   0  0  0  0  0  0  0  0  0  0  0  0
  -26.3435  -17.7325   18.7395 C   0  0  0  0  0  0  0  0  0  1  0  0
  -31.1268  -23.3301   17.9919 C   0  0  1  0  0  0  0  0  0  0  0  0
  -33.0174  -20.1190   18.6878 C   0  0  2  0  0  0  0  0  0  0  0  0
  -31.8991  -24.3283   17.0838 C   0  0  0  0  0  0  0  0  0  0  0  0
  -26.0929  -11.9607   20.6538 N   0  0  0  0  0  0  0  0  0  0  0  0
  -23.7999  -12.7018   20.6655 N   0  0  0  0  0  0  0  0  0  0  0  0
  -21.6058  -20.4197   19.6148 N   0  0  0  0  0  0  0  0  0  0  0  0
  -21.8923  -19.4506   18.7288 N   0  0  0  0  0  0  0  0  0  0  0  0
  -29.2878  -23.4267   19.6449 N   0  0  0  0  0  0  0  0  0  0  0  0
  -21.1907  -16.0895   20.4002 N   0  0  0  0  0  0  0  0  0  0  0  0
  -23.0989  -19.0069   16.7393 N   0  0  0  0  0  0  0  0  0  0  0  0
  -23.9718  -23.3655   17.5370 N   0  0  0  0  0  0  0  0  0  0  0  0
  -23.2838  -15.0042   20.4603 N   0  0  0  0  0  0  0  0  0  0  0  0
  -27.0991  -26.1162   20.4854 N   0  0  0  0  0  0  0  0  0  0  0  0
  -31.9545  -22.2654   18.5485 N   0  0  0  0  0  0  0  0  0  0  0  0
  -32.5791  -18.7050   18.5160 N   0  3  0  0  0  0  0  0  0  0  0  0
  -24.3604  -21.6214   16.0996 O   0  0  0  0  0  0  0  0  0  0  0  0
  -26.9690  -24.4440   18.8701 O   0  0  0  0  0  0  0  0  0  0  0  0
  -30.9879  -25.0223   19.6482 O   0  0  0  0  0  0  0  0  0  0  0  0
  -31.5833  -20.7373   16.8443 O   0  0  0  0  0  0  0  0  0  0  0  0
  -21.3134  -13.7947   20.6514 O   0  0  0  0  0  0  0  0  0  0  0  0
  -22.0532  -26.3800   21.8109 O   0  0  0  0  0  0  0  0  0  0  0  0
  -25.5498  -18.5196   19.6266 O   0  0  0  0  0  0  0  0  0  1  0  0
  -17.1213  -28.1279   23.5503 F   0  0  0  0  0  0  0  0  0  0  0  0
  -20.9984  -28.7722   20.9124 F   0  0  0  0  0  0  0  0  0  0  0  0
  1  2  1  0  0  0  0
  1  5  2  0  0  0  0
  2  6  2  0  0  0  0
  3  8  2  0  0  0  0
  3 17  1  0  0  0  0
  4  9  1  0  0  0  0
  4 17  2  0  0  0  0
  5 19  1  0  0  0  0
  6 21  1  0  0  0  0
  7 10  2  0  0  0  0
  7 20  1  0  0  0  0
  8 24  1  0  0  0  0
  9 24  2  0  0  0  0
 10 25  1  0  0  0  0
 11 12  2  0  0  0  0
 11 26  1  0  0  0  0
 12 27  1  0  0  0  0
 13 22  1  0  0  0  0
 13 25  2  0  0  0  0
 14 27  2  0  0  0  0
 14 28  1  0  0  0  0
 15 23  1  0  0  0  0
 15 60  2  0  0  0  0
 16 60  1  0  0  0  0
 16 61  2  0  0  0  0
 17 29  1  0  0  0  0
 18 29  1  0  0  0  0
 18 31  2  0  0  0  0
 18 32  1  0  0  0  0
 19 21  2  0  0  0  0
 19 37  1  0  0  0  0
 20 22  2  0  0  0  0
 20 38  1  0  0  0  0
 21 46  1  0  0  0  0
 22 39  1  0  0  0  0
 23 30  2  0  0  0  0
 23 54  1  0  0  0  0
 24 77  1  0  0  0  0
 25 78  1  0  0  0  0
 26 28  2  0  0  0  0
 26 77  1  0  0  0  0
 27 79  1  0  0  0  0
 28 80  1  0  0  0  0
 29 62  2  0  0  0  0
 30 61  1  0  0  0  0
 30 68  1  0  0  0  0
 31 63  1  0  0  0  0
 31 66  1  0  0  0  0
 32 67  1  0  0  0  0
 32 72  2  0  0  0  0
 33 47  1  0  0  0  0
 33 69  1  0  0  0  0
 33 73  2  0  0  0  0
 34 57  1  0  0  0  0
 34 64  1  0  0  0  0
 34 74  2  0  0  0  0
 35 58  1  0  0  0  0
 35 70  1  0  0  0  0
 35 75  2  0  0  0  0
 36 65  1  0  0  0  0
 36 68  1  0  0  0  0
 36 76  2  0  0  0  0
 37 40  1  0  0  0  0
 38 47  1  0  0  0  0
 39 64  1  0  0  0  0
 40 42  1  0  0  0  0
 41 43  1  0  0  0  0
 41 44  1  0  0  0  0
 42 46  1  0  0  0  0
 43 48  1  0  0  0  0
 44 65  1  0  0  0  0
 45 48  1  0  0  0  0
 45 65  1  0  0  0  0
 46 69  1  0  0  0  0
 47 64  1  0  0  0  0
 48 63  1  0  0  0  0
 49 58  1  0  0  0  0
 50 59  1  0  0  0  0
 51 59  1  0  0  0  0
 52 59  1  0  0  0  0
 53 71  1  0  0  0  0
 54 55  1  0  0  0  0
 55 56  1  0  0  0  0
 56 78  1  0  0  0  0
 57 59  1  0  0  0  0
 57 70  1  0  0  0  0
 58 71  1  0  0  0  0
 62 63  1  0  0  0  0
M  CHG  1  71   1
M  ISO  4  36 100  56 101  68 100  78 101
M  END
> <Batch ID>
0125

> <Smiles>
CNC(C)C(=O)NC(C(=O)N1Cc2cc([101O:1][101CH2:1]CCc3cncnc3[100NH:0][100C:0](=O)N3CCCC(n4nc(-c5ccc(Oc6ccc(F)cc6F)cc5)c(C(N)=O)c4N)C3)ccc2CC1C(=O)NC1CCCc2ccccc21)C(C)(C)C

> <Shape>
0.184

> <Color>
0.086

> <Negative vol penalty>
0.000

$$$$

  -OEChem-04052320353D

 84 93  0     1  0  0  0  0  0999 V2000
  -27.5829  -36.4104   25.3210 C   0  0  0  0  0  0  0  0  0  0  0  0
  -28.2145  -35.4416   24.5478 C   0  0  0  0  0  0  0  0  0  0  0  0
  -24.6463   -9.0427   21.3756 C   0  0  0  0  0  0  0  0  0  0  0  0
  -23.2981  -10.9992   21.8130 C   0  0  0  0  0  0  0  0  0  0  0  0
  -26.3834  -36.1127   25.9663 C   0  0  0  0  0  0  0  0  0  0  0  0
  -27.6475  -34.1740   24.4204 C   0  0  0  0  0  0  0  0  0  0  0  0
  -28.6660  -21.1622   20.0098 C   0  0  0  0  0  0  0  0  0  0  0  0
  -26.9877  -28.7988   19.7313 C   0  0  0  0  0  0  0  0  0  0  0  0
  -28.6577  -22.5576   20.0321 C   0  0  0  0  0  0  0  0  0  0  0  0
  -23.9801   -8.3566   22.3910 C   0  0  0  0  0  0  0  0  0  0  0  0
  -22.6318  -10.3131   22.8284 C   0  0  0  0  0  0  0  0  0  0  0  0
  -27.1869  -27.4222   19.6359 C   0  0  0  0  0  0  0  0  0  0  0  0
  -21.0188   -6.7772   22.8027 C   0  0  0  0  0  0  0  0  0  0  0  0
  -20.6020   -5.4727   22.5382 C   0  0  0  0  0  0  0  0  0  0  0  0
  -26.6359  -22.5650   18.7218 C   0  0  0  0  0  0  0  0  0  0  0  0
  -25.0711  -27.0461   20.7318 C   0  0  0  0  0  0  0  0  0  0  0  0
  -21.9678   -4.6668   24.3610 C   0  0  0  0  0  0  0  0  0  0  0  0
  -24.3053  -10.3640   21.0866 C   0  0  0  0  0  0  0  0  0  0  0  0
  -24.6385  -11.1333   18.6773 C   0  0  0  0  0  0  0  0  0  0  0  0
  -25.7964  -34.8439   25.8389 C   0  0  0  0  0  0  0  0  0  0  0  0
  -25.8318  -29.3102   20.3385 C   0  0  0  0  0  0  0  0  0  0  0  0
  -26.4397  -33.8587   25.0658 C   0  0  0  0  0  0  0  0  0  0  0  0
  -27.6497  -20.4454   19.3575 C   0  0  0  0  0  0  0  0  0  0  0  0
  -26.6415  -21.1621   18.6805 C   0  0  0  0  0  0  0  0  0  0  0  0
  -24.8584  -28.4295   20.8314 C   0  0  0  0  0  0  0  0  0  0  0  0
  -27.6398  -23.2586   19.3941 C   0  0  0  0  0  0  0  0  0  0  0  0
  -22.9728   -8.9917   23.1174 C   0  0  0  0  0  0  0  0  0  0  0  0
  -26.2299  -26.5456   20.1387 C   0  0  0  0  0  0  0  0  0  0  0  0
  -21.9101   -7.0266   23.8463 C   0  0  0  0  0  0  0  0  0  0  0  0
  -21.0765   -4.4174   23.3173 C   0  0  0  0  0  0  0  0  0  0  0  0
  -22.3846   -5.9714   24.6254 C   0  0  0  0  0  0  0  0  0  0  0  0
  -24.9936  -11.0735   20.0383 C   0  0  0  0  0  0  0  0  0  0  0  0
  -25.6028  -11.9267   18.1055 C   0  0  0  0  0  0  0  0  0  0  0  0
  -23.5355  -10.5261   17.9914 C   0  0  0  0  0  0  0  0  0  0  0  0
  -25.2499  -31.1259   22.8819 C   0  0  0  0  0  0  0  0  0  0  0  0
  -22.2007  -31.0108   21.7813 C   0  0  0  0  0  0  0  0  0  0  0  0
  -19.8473  -29.3688   19.9341 C   0  0  0  0  0  0  0  0  0  0  0  0
  -29.1905  -16.1961   20.2855 C   0  0  0  0  0  0  0  0  0  0  0  0
  -24.5232  -34.5540   26.5937 C   0  0  0  0  0  0  0  0  0  0  0  0
  -25.6193  -30.7976   20.4097 C   0  0  0  0  0  0  0  0  0  0  0  0
  -25.5316  -20.4483   17.9485 C   0  0  0  0  0  0  0  0  0  0  0  0
  -23.5907  -28.9278   21.4742 C   0  0  0  0  0  0  0  0  0  0  0  0
  -23.7957  -33.3046   26.1037 C   0  0  0  0  0  0  0  0  0  0  0  0
  -30.1831  -13.2111   18.6178 C   0  0  0  0  0  0  0  0  0  0  0  0
  -24.7760  -32.1484   25.9335 C   0  0  0  0  0  0  0  0  0  0  0  0
  -28.9336  -12.3301   18.6700 C   0  0  0  0  0  0  0  0  0  0  0  0
  -30.3432  -14.0393   19.8908 C   0  0  0  0  0  0  0  0  0  0  0  0
  -27.9154  -13.9667   20.3082 C   0  0  0  0  0  0  0  0  0  0  0  0
  -25.9129  -19.0338   17.5431 C   0  0  0  0  0  0  0  0  0  0  0  0
  -25.8431  -32.4799   24.8833 C   0  0  1  0  0  0  0  0  0  0  0  0
  -27.6779  -18.9292   19.3179 C   0  0  1  0  0  0  0  0  0  0  0  0
  -24.6452  -31.2101   21.5090 C   0  0  1  0  0  0  0  0  0  0  0  0
  -27.6809  -13.1542   19.0232 C   0  0  2  0  0  0  0  0  0  0  0  0
  -17.4355  -29.4974   19.2532 C   0  0  0  0  0  0  0  0  0  0  0  0
  -26.7807  -18.6478   21.6499 C   0  0  0  0  0  0  0  0  0  0  0  0
  -21.3690  -30.0460   24.5538 C   0  0  0  0  0  0  0  0  0  0  0  0
  -19.1938  -29.2984   23.5648 C   0  0  0  0  0  0  0  0  0  0  0  0
  -19.8176  -31.7133   23.5206 C   0  0  0  0  0  0  0  0  0  0  0  0
  -20.5472  -29.5550   17.0646 C   0  0  0  0  0  0  0  0  0  0  0  0
  -27.6271  -24.7587   19.4242 C   0  0  0  0  0  0  0  0  0  1  0  0
  -21.0205  -30.0944   21.9961 C   0  0  1  0  0  0  0  0  0  0  0  0
  -18.8657  -29.8611   18.8860 C   0  0  2  0  0  0  0  0  0  0  0  0
  -27.8943  -18.2747   20.6835 C   0  0  1  0  0  0  0  0  0  0  0  0
  -20.3749  -30.2783   23.3985 C   0  0  0  0  0  0  0  0  0  0  0  0
  -26.0974  -11.7730   20.3144 N   0  0  0  0  0  0  0  0  0  0  0  0
  -26.4443  -12.2798   19.1191 N   0  0  0  0  0  0  0  0  0  0  0  0
  -23.4319  -30.3905   21.5258 N   0  0  0  0  0  0  0  0  0  0  0  0
  -29.1213  -14.7980   20.1684 N   0  0  0  0  0  0  0  0  0  0  0  0
  -25.8047  -12.3497   16.8395 N   0  0  0  0  0  0  0  0  0  0  0  0
  -22.6390   -9.7422   18.7304 N   0  0  0  0  0  0  0  0  0  0  0  0
  -25.3015  -32.3349   23.5491 N   0  0  0  0  0  0  0  0  0  0  0  0
  -20.1090  -30.3348   20.8825 N   0  0  0  0  0  0  0  0  0  0  0  0
  -27.9856  -16.8385   20.5429 N   0  0  0  0  0  0  0  0  0  0  0  0
  -26.4128  -18.3230   18.7534 N   0  3  0  0  0  0  0  0  0  0  0  0
  -19.1784  -29.2579   17.5596 N   0  3  0  0  0  0  0  0  0  0  0  0
  -23.3598  -10.6608   16.7567 O   0  0  0  0  0  0  0  0  0  0  0  0
  -25.6395  -30.0439   23.3052 O   0  0  0  0  0  0  0  0  0  0  0  0
  -22.0350  -32.2322   21.8310 O   0  0  0  0  0  0  0  0  0  0  0  0
  -20.3305  -28.2388   19.9156 O   0  0  0  0  0  0  0  0  0  0  0  0
  -30.2468  -16.8256   20.1639 O   0  0  0  0  0  0  0  0  0  0  0  0
  -22.3223   -8.3225   24.1081 O   0  0  0  0  0  0  0  0  0  0  0  0
  -26.4222  -25.2015   20.0474 O   0  0  0  0  0  0  0  0  0  1  0  0
  -20.6750   -3.1649   23.0642 F   0  0  0  0  0  0  0  0  0  0  0  0
  -23.2401   -6.2050   25.6301 F   0  0  0  0  0  0  0  0  0  0  0  0
  1  2  1  0  0  0  0
  1  5  2  0  0  0  0
  2  6  2  0  0  0  0
  3 10  2  0  0  0  0
  3 18  1  0  0  0  0
  4 11  1  0  0  0  0
  4 18  2  0  0  0  0
  5 20  1  0  0  0  0
  6 22  1  0  0  0  0
  7  9  2  0  0  0  0
  7 23  1  0  0  0  0
  8 12  2  0  0  0  0
  8 21  1  0  0  0  0
  9 26  1  0  0  0  0
 10 27  1  0  0  0  0
 11 27  2  0  0  0  0
 12 28  1  0  0  0  0
 13 14  2  0  0  0  0
 13 29  1  0  0  0  0
 14 30  1  0  0  0  0
 15 24  1  0  0  0  0
 15 26  2  0  0  0  0
 16 25  1  0  0  0  0
 16 28  2  0  0  0  0
 17 30  2  0  0  0  0
 17 31  1  0  0  0  0
 18 32  1  0  0  0  0
 19 32  1  0  0  0  0
 19 33  2  0  0  0  0
 19 34  1  0  0  0  0
 20 22  2  0  0  0  0
 20 39  1  0  0  0  0
 21 25  2  0  0  0  0
 21 40  1  0  0  0  0
 22 50  1  0  0  0  0
 23 24  2  0  0  0  0
 23 51  1  0  0  0  0
 24 41  1  0  0  0  0
 25 42  1  0  0  0  0
 26 60  1  0  0  0  0
 27 81  1  0  0  0  0
 28 82  1  0  0  0  0
 29 31  2  0  0  0  0
 29 81  1  0  0  0  0
 30 83  1  0  0  0  0
 31 84  1  0  0  0  0
 32 65  2  0  0  0  0
 33 66  1  0  0  0  0
 33 69  1  0  0  0  0
 34 70  1  0  0  0  0
 34 76  2  0  0  0  0
 35 52  1  0  0  0  0
 35 71  1  0  0  0  0
 35 77  2  0  0  0  0
 36 61  1  0  0  0  0
 36 67  1  0  0  0  0
 36 78  2  0  0  0  0
 37 62  1  0  0  0  0
 37 72  1  0  0  0  0
 37 79  2  0  0  0  0
 38 68  1  0  0  0  0
 38 73  1  0  0  0  0
 38 80  2  0  0  0  0
 39 43  1  0  0  0  0
 40 52  1  0  0  0  0
 41 49  1  0  0  0  0
 42 67  1  0  0  0  0
 43 45  1  0  0  0  0
 44 46  1  0  0  0  0
 44 47  1  0  0  0  0
 45 50  1  0  0  0  0
 46 53  1  0  0  0  0
 47 68  1  0  0  0  0
 48 53  1  0  0  0  0
 48 68  1  0  0  0  0
 49 74  1  0  0  0  0
 50 71  1  0  0  0  0
 51 63  1  0  0  0  0
 51 74  1  0  0  0  0
 52 67  1  0  0  0  0
 53 66  1  0  0  0  0
 54 62  1  0  0  0  0
 55 63  1  0  0  0  0
 56 64  1  0  0  0  0
 57 64  1  0  0  0  0
 58 64  1  0  0  0  0
 59 75  1  0  0  0  0
 60 82  1  0  0  0  0
 61 64  1  0  0  0  0
 61 72  1  0  0  0  0
 62 75  1  0  0  0  0
 63 73  1  0  0  0  0
 65 66  1  0  0  0  0
M  CHG  2  74   1  75   1
M  ISO  4  38 100  60 101  73 100  82 101
M  END
> <Batch ID>
0125

> <Smiles>
CNC(C)C(=O)NC(C(=O)N1Cc2cc([101O:1][101CH2:1]c3ccc4c(c3)CCNC4C(C)[100NH:0][100C:0](=O)N3CCCC(n4nc(-c5ccc(Oc6ccc(F)cc6F)cc5)c(C(N)=O)c4N)C3)ccc2CC1C(=O)NC1CCCc2ccccc21)C(C)(C)C

> <Shape>
0.310

> <Color>
0.092

> <Negative vol penalty>
0.000

$$$$

  -OEChem-04052320353D

 80 88  0     1  0  0  0  0  0999 V2000
  -33.0265  -30.3445   11.5396 C   0  0  0  0  0  0  0  0  0  0  0  0
  -32.8653  -29.1067   12.1538 C   0  0  0  0  0  0  0  0  0  0  0  0
  -23.1222   -9.8468   19.9281 C   0  0  0  0  0  0  0  0  0  0  0  0
  -23.8944   -9.8563   22.2174 C   0  0  0  0  0  0  0  0  0  0  0  0
  -32.7637  -31.5141   12.2515 C   0  0  0  0  0  0  0  0  0  0  0  0
  -32.4423  -29.0378   13.4808 C   0  0  0  0  0  0  0  0  0  0  0  0
  -28.8518  -24.7535   15.9827 C   0  0  0  0  0  0  0  0  0  0  0  0
  -31.1769  -19.6264   19.1702 C   0  0  0  0  0  0  0  0  0  0  0  0
  -31.4004  -18.5942   20.0812 C   0  0  0  0  0  0  0  0  0  0  0  0
  -22.4161   -8.6687   20.1711 C   0  0  0  0  0  0  0  0  0  0  0  0
  -23.1882   -8.6782   22.4605 C   0  0  0  0  0  0  0  0  0  0  0  0
  -29.1352  -23.6151   16.7359 C   0  0  0  0  0  0  0  0  0  0  0  0
  -19.9899   -7.7745   23.0726 C   0  0  0  0  0  0  0  0  0  0  0  0
  -19.2411   -7.7002   24.2470 C   0  0  0  0  0  0  0  0  0  0  0  0
  -28.7455  -24.8657   18.7616 C   0  0  0  0  0  0  0  0  0  0  0  0
  -28.9200  -19.8683   19.9978 C   0  0  0  0  0  0  0  0  0  0  0  0
  -20.5464   -5.7957   24.9586 C   0  0  0  0  0  0  0  0  0  0  0  0
  -23.8615  -10.4405   20.9512 C   0  0  0  0  0  0  0  0  0  0  0  0
  -24.1238  -12.9761   20.8531 C   0  0  0  0  0  0  0  0  0  0  0  0
  -32.3280  -31.4593   13.5849 C   0  0  0  0  0  0  0  0  0  0  0  0
  -28.5232  -25.9615   16.6146 C   0  0  0  0  0  0  0  0  0  0  0  0
  -32.1747  -30.2079   14.2116 C   0  0  0  0  0  0  0  0  0  0  0  0
  -28.4559  -26.0174   18.0140 C   0  0  0  0  0  0  0  0  0  0  0  0
  -29.9367  -20.2636   19.1285 C   0  0  0  0  0  0  0  0  0  0  0  0
  -30.3837  -18.1990   20.9506 C   0  0  0  0  0  0  0  0  0  0  0  0
  -29.1435  -18.8361   20.9089 C   0  0  0  0  0  0  0  0  0  0  0  0
  -22.4490   -8.0844   21.4373 C   0  0  0  0  0  0  0  0  0  0  0  0
  -29.0849  -23.6718   18.1256 C   0  0  0  0  0  0  0  0  0  0  0  0
  -21.0168   -6.8594   22.8411 C   0  0  0  0  0  0  0  0  0  0  0  0
  -19.5193   -6.7108   25.1901 C   0  0  0  0  0  0  0  0  0  0  0  0
  -21.2951   -5.8700   23.7841 C   0  0  0  0  0  0  0  0  0  0  0  0
  -24.5916  -11.6571   20.7006 C   0  0  0  0  0  0  0  0  0  0  0  0
  -25.1900  -13.7626   20.4911 C   0  0  0  0  0  0  0  0  0  0  0  0
  -22.8402  -13.4481   21.2836 C   0  0  0  0  0  0  0  0  0  0  0  0
  -29.8171  -28.8630   16.7188 C   0  0  0  0  0  0  0  0  0  0  0  0
  -27.1168  -29.5827   18.3658 C   0  0  0  0  0  0  0  0  0  0  0  0
  -24.5285  -28.4926   20.3045 C   0  0  0  0  0  0  0  0  0  0  0  0
  -30.6403  -14.9505   20.6599 C   0  0  0  0  0  0  0  0  0  0  0  0
  -32.1019  -32.7519   14.3284 C   0  0  0  0  0  0  0  0  0  0  0  0
  -28.1941  -27.1737   15.7871 C   0  0  0  0  0  0  0  0  0  0  0  0
  -28.0884  -27.2846   18.7403 C   0  0  0  0  0  0  0  0  0  0  0  0
  -31.2972  -32.5821   15.6144 C   0  0  0  0  0  0  0  0  0  0  0  0
  -29.5642  -12.5538   18.2569 C   0  0  0  0  0  0  0  0  0  0  0  0
  -31.8277  -31.4033   16.4243 C   0  0  0  0  0  0  0  0  0  0  0  0
  -28.1390  -12.2114   18.6947 C   0  0  0  0  0  0  0  0  0  0  0  0
  -30.4807  -12.7920   19.4549 C   0  0  0  0  0  0  0  0  0  0  0  0
  -28.5649  -13.4506   20.8584 C   0  0  0  0  0  0  0  0  0  0  0  0
  -31.6938  -30.0914   15.6417 C   0  0  1  0  0  0  0  0  0  0  0  0
  -28.3733  -28.4835   16.5485 C   0  0  1  0  0  0  0  0  0  0  0  0
  -27.5901  -13.2566   19.6844 C   0  0  2  0  0  0  0  0  0  0  0  0
  -28.0400  -18.4297   21.8297 C   0  0  0  0  0  0  0  0  0  0  0  0
  -22.5013  -29.3198   21.5308 C   0  0  0  0  0  0  0  0  0  0  0  0
  -28.9081  -30.6981   20.5697 C   0  0  0  0  0  0  0  0  0  0  0  0
  -26.9381  -30.6226   22.1129 C   0  0  0  0  0  0  0  0  0  0  0  0
  -26.8751  -32.0710   20.0829 C   0  0  0  0  0  0  0  0  0  0  0  0
  -22.7142  -26.8212   18.6693 C   0  0  0  0  0  0  0  0  0  0  0  0
  -30.6461  -17.0906   21.9166 C   0  0  0  0  0  0  0  0  0  0  0  0
  -29.6964  -21.3736   18.1480 C   0  0  0  0  0  0  0  0  0  1  0  0
  -26.7142  -29.5615   19.8206 C   0  0  1  0  0  0  0  0  0  0  0  0
  -23.0341  -28.7480   20.2262 C   0  0  2  0  0  0  0  0  0  0  0  0
  -27.3677  -30.7148   20.6332 C   0  0  0  0  0  0  0  0  0  0  0  0
  -25.8565  -11.6047   20.2747 N   0  0  0  0  0  0  0  0  0  0  0  0
  -26.1925  -12.9005   20.1565 N   0  0  0  0  0  0  0  0  0  0  0  0
  -27.7813  -28.4446   17.8872 N   0  0  0  0  0  0  0  0  0  0  0  0
  -29.9033  -13.7947   20.3535 N   0  0  0  0  0  0  0  0  0  0  0  0
  -25.3584  -15.1006   20.4295 N   0  0  0  0  0  0  0  0  0  0  0  0
  -21.8590  -12.5048   21.6177 N   0  0  0  0  0  0  0  0  0  0  0  0
  -30.3268  -29.6176   15.6794 N   0  0  0  0  0  0  0  0  0  0  0  0
  -25.2555  -29.5684   19.8406 N   0  0  0  0  0  0  0  0  0  0  0  0
  -30.0172  -15.8524   21.5138 N   0  0  0  0  0  0  0  0  0  0  0  0
  -22.3064  -27.4801   19.9368 N   0  3  0  0  0  0  0  0  0  0  0  0
  -22.5661  -14.6702   21.3538 O   0  0  0  0  0  0  0  0  0  0  0  0
  -30.4234  -28.4994   17.7197 O   0  0  0  0  0  0  0  0  0  0  0  0
  -26.8452  -30.5697   17.6774 O   0  0  0  0  0  0  0  0  0  0  0  0
  -25.0034  -27.4451   20.7377 O   0  0  0  0  0  0  0  0  0  0  0  0
  -31.7677  -15.1655   20.2020 O   0  0  0  0  0  0  0  0  0  0  0  0
  -21.7598   -6.9350   21.6749 O   0  0  0  0  0  0  0  0  0  0  0  0
  -29.3617  -22.5622   18.8632 O   0  0  0  0  0  0  0  0  0  1  0  0
  -18.8012   -6.6405   26.3186 F   0  0  0  0  0  0  0  0  0  0  0  0
  -22.2813   -4.9888   23.5678 F   0  0  0  0  0  0  0  0  0  0  0  0
  1  2  1  0  0  0  0
  1  5  2  0  0  0  0
  2  6  2  0  0  0  0
  3 10  2  0  0  0  0
  3 18  1  0  0  0  0
  4 11  1  0  0  0  0
  4 18  2  0  0  0  0
  5 20  1  0  0  0  0
  6 22  1  0  0  0  0
  7 12  2  0  0  0  0
  7 21  1  0  0  0  0
  8  9  2  0  0  0  0
  8 24  1  0  0  0  0
  9 25  1  0  0  0  0
 10 27  1  0  0  0  0
 11 27  2  0  0  0  0
 12 28  1  0  0  0  0
 13 14  2  0  0  0  0
 13 29  1  0  0  0  0
 14 30  1  0  0  0  0
 15 23  1  0  0  0  0
 15 28  2  0  0  0  0
 16 24  2  0  0  0  0
 16 26  1  0  0  0  0
 17 30  2  0  0  0  0
 17 31  1  0  0  0  0
 18 32  1  0  0  0  0
 19 32  1  0  0  0  0
 19 33  2  0  0  0  0
 19 34  1  0  0  0  0
 20 22  2  0  0  0  0
 20 39  1  0  0  0  0
 21 23  2  0  0  0  0
 21 40  1  0  0  0  0
 22 48  1  0  0  0  0
 23 41  1  0  0  0  0
 24 58  1  0  0  0  0
 25 26  2  0  0  0  0
 25 57  1  0  0  0  0
 26 51  1  0  0  0  0
 27 77  1  0  0  0  0
 28 78  1  0  0  0  0
 29 31  2  0  0  0  0
 29 77  1  0  0  0  0
 30 79  1  0  0  0  0
 31 80  1  0  0  0  0
 32 62  2  0  0  0  0
 33 63  1  0  0  0  0
 33 66  1  0  0  0  0
 34 67  1  0  0  0  0
 34 72  2  0  0  0  0
 35 49  1  0  0  0  0
 35 68  1  0  0  0  0
 35 73  2  0  0  0  0
 36 59  1  0  0  0  0
 36 64  1  0  0  0  0
 36 74  2  0  0  0  0
 37 60  1  0  0  0  0
 37 69  1  0  0  0  0
 37 75  2  0  0  0  0
 38 65  1  0  0  0  0
 38 70  1  0  0  0  0
 38 76  2  0  0  0  0
 39 42  1  0  0  0  0
 40 49  1  0  0  0  0
 41 64  1  0  0  0  0
 42 44  1  0  0  0  0
 43 45  1  0  0  0  0
 43 46  1  0  0  0  0
 44 48  1  0  0  0  0
 45 50  1  0  0  0  0
 46 65  1  0  0  0  0
 47 50  1  0  0  0  0
 47 65  1  0  0  0  0
 48 68  1  0  0  0  0
 49 64  1  0  0  0  0
 50 63  1  0  0  0  0
 52 60  1  0  0  0  0
 53 61  1  0  0  0  0
 54 61  1  0  0  0  0
 55 61  1  0  0  0  0
 56 71  1  0  0  0  0
 57 70  1  0  0  0  0
 58 78  1  0  0  0  0
 59 61  1  0  0  0  0
 59 69  1  0  0  0  0
 60 71  1  0  0  0  0
 62 63  1  0  0  0  0
M  CHG  1  71   1
M  ISO  4  38 100  58 101  70 100  78 101
M  END
> <Batch ID>
0125

> <Smiles>
CNC(C)C(=O)NC(C(=O)N1Cc2cc([101O:1][101CH2:1]c3ccc(C[100NH:0][100C:0](=O)N4CCCC(n5nc(-c6ccc(Oc7ccc(F)cc7F)cc6)c(C(N)=O)c5N)C4)c(C)c3)ccc2CC1C(=O)NC1CCCc2ccccc21)C(C)(C)C

> <Shape>
0.284

> <Color>
0.215

> <Negative vol penalty>
0.000

$$$$

  -OEChem-04052320353D

 79 87  0     1  0  0  0  0  0999 V2000
  -14.7966  -27.7488   22.0626 C   0  0  0  0  0  0  0  0  0  0  0  0
  -15.5522  -27.7831   20.8950 C   0  0  0  0  0  0  0  0  0  0  0  0
  -26.4764  -13.4297   19.2418 C   0  0  0  0  0  0  0  0  0  0  0  0
  -26.6142  -12.8873   21.5921 C   0  0  0  0  0  0  0  0  0  0  0  0
  -15.3039  -28.3045   23.2364 C   0  0  0  0  0  0  0  0  0  0  0  0
  -16.8151  -28.3741   20.9002 C   0  0  0  0  0  0  0  0  0  0  0  0
  -22.6768  -24.6138   19.0585 C   0  0  0  0  0  0  0  0  0  0  0  0
  -25.1583  -12.9742   19.2139 C   0  0  0  0  0  0  0  0  0  0  0  0
  -25.2961  -12.4318   21.5643 C   0  0  0  0  0  0  0  0  0  0  0  0
  -23.8178  -24.0212   18.5169 C   0  0  0  0  0  0  0  0  0  0  0  0
  -23.6385   -9.6607   20.5624 C   0  0  0  0  0  0  0  0  0  0  0  0
  -23.3576   -8.4503   21.1960 C   0  0  0  0  0  0  0  0  0  0  0  0
  -25.1092  -25.9949   19.0505 C   0  0  0  0  0  0  0  0  0  0  0  0
  -21.8047   -9.5787   22.6631 C   0  0  0  0  0  0  0  0  0  0  0  0
  -27.2044  -13.3862   20.4309 C   0  0  0  0  0  0  0  0  0  0  0  0
  -29.6506  -13.3668   19.7075 C   0  0  0  0  0  0  0  0  0  0  0  0
  -16.5777  -28.8941   23.2583 C   0  0  0  0  0  0  0  0  0  0  0  0
  -22.7513  -25.8947   19.6127 C   0  0  0  0  0  0  0  0  0  0  0  0
  -17.3394  -28.9394   22.0751 C   0  0  0  0  0  0  0  0  0  0  0  0
  -23.9725  -26.5886   19.6057 C   0  0  0  0  0  0  0  0  0  0  0  0
  -24.5681  -12.4753   20.3752 C   0  0  0  0  0  0  0  0  0  0  0  0
  -25.0308  -24.7102   18.5127 C   0  0  0  0  0  0  0  0  0  0  0  0
  -23.0025  -10.8302   20.9791 C   0  0  0  0  0  0  0  0  0  0  0  0
  -22.4407   -8.4093   22.2464 C   0  0  0  0  0  0  0  0  0  0  0  0
  -22.0856  -10.7892   22.0294 C   0  0  0  0  0  0  0  0  0  0  0  0
  -28.5662  -13.8560   20.4601 C   0  0  0  0  0  0  0  0  0  0  0  0
  -30.7158  -14.1418   20.0964 C   0  0  0  0  0  0  0  0  0  0  0  0
  -29.6914  -12.3067   18.7431 C   0  0  0  0  0  0  0  0  0  0  0  0
  -20.9517  -28.6998   21.3356 C   0  0  0  0  0  0  0  0  0  0  0  0
  -23.7087  -28.4635   22.6597 C   0  0  0  0  0  0  0  0  0  0  0  0
  -26.3601  -28.4902   24.8060 C   0  0  0  0  0  0  0  0  0  0  0  0
  -31.1229  -19.6562   22.3933 C   0  0  0  0  0  0  0  0  0  0  0  0
  -17.0641  -29.5238   24.5395 C   0  0  0  0  0  0  0  0  0  0  0  0
  -21.5342  -26.5962   20.1515 C   0  0  0  0  0  0  0  0  0  0  0  0
  -23.9977  -27.9781   20.1816 C   0  0  0  0  0  0  0  0  0  0  0  0
  -18.5658  -29.7978   24.5518 C   0  0  0  0  0  0  0  0  0  0  0  0
  -32.3622  -16.6426   23.8281 C   0  0  0  0  0  0  0  0  0  0  0  0
  -18.9978  -30.4622   23.2484 C   0  0  0  0  0  0  0  0  0  0  0  0
  -30.8213  -22.6970   18.4929 C   0  0  0  0  0  0  0  0  0  0  0  0
  -29.7030  -23.6686   20.5407 C   0  0  0  0  0  0  0  0  0  0  0  0
  -31.6277  -15.5425   23.0597 C   0  0  0  0  0  0  0  0  0  0  0  0
  -30.7162  -21.2964   19.0973 C   0  0  0  0  0  0  0  0  0  0  0  0
  -29.5966  -22.2698   21.1490 C   0  0  0  0  0  0  0  0  0  0  0  0
  -31.4698  -17.8593   24.0628 C   0  0  0  0  0  0  0  0  0  0  0  0
  -30.1140  -17.3155   22.0780 C   0  0  0  0  0  0  0  0  0  0  0  0
  -18.7239  -29.5496   22.0468 C   0  0  1  0  0  0  0  0  0  0  0  0
  -21.8417  -27.4921   21.3647 C   0  0  1  0  0  0  0  0  0  0  0  0
  -29.7387  -23.6575   19.0057 C   0  0  0  0  0  0  0  0  0  0  0  0
  -30.9909  -16.0901   21.7683 C   0  0  2  0  0  0  0  0  0  0  0  0
  -30.6990  -21.3468   20.6266 C   0  0  0  0  0  0  0  0  0  0  0  0
  -27.6299  -30.0079   26.3493 C   0  0  0  0  0  0  0  0  0  0  0  0
  -25.0424  -29.7857   20.2562 C   0  0  0  0  0  0  0  0  0  0  0  0
  -26.8834  -30.5340   21.7790 C   0  0  0  0  0  0  0  0  0  0  0  0
  -24.5509  -31.3326   22.1587 C   0  0  0  0  0  0  0  0  0  0  0  0
  -25.7341  -26.8105   27.1610 C   0  0  0  0  0  0  0  0  0  0  0  0
  -28.3660  -23.3325   18.4103 C   0  0  0  0  0  0  0  0  0  0  0  0
  -27.3998  -24.4994   18.5459 C   0  0  0  0  0  0  0  0  0  1  0  0
  -25.1413  -28.9326   22.6910 C   0  0  1  0  0  0  0  0  0  0  0  0
  -26.4988  -28.9984   26.2298 C   0  0  2  0  0  0  0  0  0  0  0  0
  -25.3979  -30.1186   21.7190 C   0  0  0  0  0  0  0  0  0  0  0  0
  -28.9109  -14.8637   21.2663 N   0  0  0  0  0  0  0  0  0  0  0  0
  -30.2239  -15.0139   21.0224 N   0  0  0  0  0  0  0  0  0  0  0  0
  -23.2151  -28.0201   21.4268 N   0  0  0  0  0  0  0  0  0  0  0  0
  -30.8985  -18.3302   22.7988 N   0  0  0  0  0  0  0  0  0  0  0  0
  -32.0159  -14.1554   19.7331 N   0  0  0  0  0  0  0  0  0  0  0  0
  -29.9689  -11.0075   19.1896 N   0  0  0  0  0  0  0  0  0  0  0  0
  -19.7318  -28.5149   21.9579 N   0  0  0  0  0  0  0  0  0  0  0  0
  -25.4436  -29.2283   24.0873 N   0  0  0  0  0  0  0  0  0  0  0  0
  -30.5514  -20.0191   21.1799 N   0  0  0  0  0  0  0  0  0  0  0  0
  -26.7784  -27.8671   27.1586 N   0  3  0  0  0  0  0  0  0  0  0  0
  -29.5039  -12.5083   17.5192 O   0  0  0  0  0  0  0  0  0  0  0  0
  -21.3424  -29.7253   20.7903 O   0  0  0  0  0  0  0  0  0  0  0  0
  -23.0414  -28.4937   23.6975 O   0  0  0  0  0  0  0  0  0  0  0  0
  -27.0034  -27.5365   24.3736 O   0  0  0  0  0  0  0  0  0  0  0  0
  -31.7881  -20.4558   23.0605 O   0  0  0  0  0  0  0  0  0  0  0  0
  -23.2819  -12.0310   20.3484 O   0  0  0  0  0  0  0  0  0  0  0  0
  -26.1418  -24.1241   17.9865 O   0  0  0  0  0  0  0  0  0  1  0  0
  -22.1698   -7.2466   22.8538 F   0  0  0  0  0  0  0  0  0  0  0  0
  -21.4706  -11.9092   22.4334 F   0  0  0  0  0  0  0  0  0  0  0  0
  1  2  1  0  0  0  0
  1  5  2  0  0  0  0
  2  6  2  0  0  0  0
  3  8  2  0  0  0  0
  3 15  1  0  0  0  0
  4  9  1  0  0  0  0
  4 15  2  0  0  0  0
  5 17  1  0  0  0  0
  6 19  1  0  0  0  0
  7 10  2  0  0  0  0
  7 18  1  0  0  0  0
  8 21  1  0  0  0  0
  9 21  2  0  0  0  0
 10 22  1  0  0  0  0
 11 12  2  0  0  0  0
 11 23  1  0  0  0  0
 12 24  1  0  0  0  0
 13 20  1  0  0  0  0
 13 22  2  0  0  0  0
 14 24  2  0  0  0  0
 14 25  1  0  0  0  0
 15 26  1  0  0  0  0
 16 26  1  0  0  0  0
 16 27  2  0  0  0  0
 16 28  1  0  0  0  0
 17 19  2  0  0  0  0
 17 33  1  0  0  0  0
 18 20  2  0  0  0  0
 18 34  1  0  0  0  0
 19 46  1  0  0  0  0
 20 35  1  0  0  0  0
 21 76  1  0  0  0  0
 22 77  1  0  0  0  0
 23 25  2  0  0  0  0
 23 76  1  0  0  0  0
 24 78  1  0  0  0  0
 25 79  1  0  0  0  0
 26 61  2  0  0  0  0
 27 62  1  0  0  0  0
 27 65  1  0  0  0  0
 28 66  1  0  0  0  0
 28 71  2  0  0  0  0
 29 47  1  0  0  0  0
 29 67  1  0  0  0  0
 29 72  2  0  0  0  0
 30 58  1  0  0  0  0
 30 63  1  0  0  0  0
 30 73  2  0  0  0  0
 31 59  1  0  0  0  0
 31 68  1  0  0  0  0
 31 74  2  0  0  0  0
 32 64  1  0  0  0  0
 32 69  1  0  0  0  0
 32 75  2  0  0  0  0
 33 36  1  0  0  0  0
 34 47  1  0  0  0  0
 35 63  1  0  0  0  0
 36 38  1  0  0  0  0
 37 41  1  0  0  0  0
 37 44  1  0  0  0  0
 38 46  1  0  0  0  0
 39 42  1  0  0  0  0
 39 48  1  0  0  0  0
 40 43  1  0  0  0  0
 40 48  1  0  0  0  0
 41 49  1  0  0  0  0
 42 50  1  0  0  0  0
 43 50  1  0  0  0  0
 44 64  1  0  0  0  0
 45 49  1  0  0  0  0
 45 64  1  0  0  0  0
 46 67  1  0  0  0  0
 47 63  1  0  0  0  0
 48 56  1  0  0  0  0
 49 62  1  0  0  0  0
 50 69  1  0  0  0  0
 51 59  1  0  0  0  0
 52 60  1  0  0  0  0
 53 60  1  0  0  0  0
 54 60  1  0  0  0  0
 55 70  1  0  0  0  0
 56 57  1  0  0  0  0
 57 77  1  0  0  0  0
 58 60  1  0  0  0  0
 58 68  1  0  0  0  0
 59 70  1  0  0  0  0
 61 62  1  0  0  0  0
M  CHG  1  70   1
M  ISO  4  32 100  57 101  69 100  77 101
M  END
> <Batch ID>
0125

> <Smiles>
CNC(C)C(=O)NC(C(=O)N1Cc2cc([101O:1][101CH2:1]CC3CCC([100NH:0][100C:0](=O)N4CCCC(n5nc(-c6ccc(Oc7ccc(F)cc7F)cc6)c(C(N)=O)c5N)C4)CC3)ccc2CC1C(=O)NC1CCCc2ccccc21)C(C)(C)C

> <Shape>
0.296

> <Color>
0.069

> <Negative vol penalty>
0.000

$$$$

  -OEChem-04052320353D

 84 93  0     1  0  0  0  0  0999 V2000
  -20.4067  -30.9741   22.6355 C   0  0  0  0  0  0  0  0  0  0  0  0
  -21.6794  -30.4200   22.5432 C   0  0  0  0  0  0  0  0  0  0  0  0
  -26.0756  -15.4741   19.6087 C   0  0  0  0  0  0  0  0  0  0  0  0
  -28.2793  -14.7827   20.3177 C   0  0  0  0  0  0  0  0  0  0  0  0
  -19.2866  -30.1443   22.6625 C   0  0  0  0  0  0  0  0  0  0  0  0
  -21.8329  -29.0355   22.4788 C   0  0  0  0  0  0  0  0  0  0  0  0
  -31.3730  -25.4523   18.7760 C   0  0  0  0  0  0  0  0  0  0  0  0
  -25.1645  -27.6126   18.9404 C   0  0  0  0  0  0  0  0  0  0  0  0
  -31.9339  -24.4153   18.0307 C   0  0  0  0  0  0  0  0  0  0  0  0
  -25.5940  -14.1876   19.8507 C   0  0  0  0  0  0  0  0  0  0  0  0
  -27.7977  -13.4961   20.5598 C   0  0  0  0  0  0  0  0  0  0  0  0
  -26.5175  -27.7408   19.2515 C   0  0  0  0  0  0  0  0  0  0  0  0
  -24.6472  -12.3440   22.5223 C   0  0  0  0  0  0  0  0  0  0  0  0
  -23.4348  -12.2227   23.2014 C   0  0  0  0  0  0  0  0  0  0  0  0
  -26.6166  -25.3858   19.7646 C   0  0  0  0  0  0  0  0  0  0  0  0
  -33.6628  -24.1525   19.6976 C   0  0  0  0  0  0  0  0  0  0  0  0
  -22.4900  -11.0588   21.3067 C   0  0  0  0  0  0  0  0  0  0  0  0
  -27.4183  -15.7717   19.8422 C   0  0  0  0  0  0  0  0  0  0  0  0
  -27.9623  -18.1759   20.4988 C   0  0  0  0  0  0  0  0  0  0  0  0
  -19.4259  -28.7493   22.5887 C   0  0  0  0  0  0  0  0  0  0  0  0
  -24.5237  -26.3701   19.0498 C   0  0  0  0  0  0  0  0  0  0  0  0
  -20.7137  -28.1862   22.5062 C   0  0  0  0  0  0  0  0  0  0  0  0
  -31.9570  -25.8395   19.9821 C   0  0  0  0  0  0  0  0  0  0  0  0
  -25.2560  -25.2439   19.4518 C   0  0  0  0  0  0  0  0  0  0  0  0
  -33.0788  -23.7653   18.4915 C   0  0  0  0  0  0  0  0  0  0  0  0
  -33.1019  -25.1896   20.4429 C   0  0  0  0  0  0  0  0  0  0  0  0
  -26.4550  -13.1987   20.3263 C   0  0  0  0  0  0  0  0  0  0  0  0
  -27.2430  -26.6280   19.6665 C   0  0  0  0  0  0  0  0  0  0  0  0
  -24.7809  -11.8227   21.2354 C   0  0  0  0  0  0  0  0  0  0  0  0
  -22.3563  -11.5801   22.5936 C   0  0  0  0  0  0  0  0  0  0  0  0
  -23.7023  -11.1801   20.6276 C   0  0  0  0  0  0  0  0  0  0  0  0
  -27.9165  -17.1003   19.5918 C   0  0  0  0  0  0  0  0  0  0  0  0
  -28.5177  -19.2069   19.7811 C   0  0  0  0  0  0  0  0  0  0  0  0
  -27.5408  -18.2376   21.8678 C   0  0  0  0  0  0  0  0  0  0  0  0
  -22.1192  -25.2316   20.7893 C   0  0  0  0  0  0  0  0  0  0  0  0
  -22.5398  -22.6005   18.9392 C   0  0  0  0  0  0  0  0  0  0  0  0
  -24.6221  -20.7430   16.9744 C   0  0  0  0  0  0  0  0  0  0  0  0
  -32.3598  -21.1480   16.2292 C   0  0  0  0  0  0  0  0  0  0  0  0
  -18.1883  -27.8910   22.6690 C   0  0  0  0  0  0  0  0  0  0  0  0
  -23.0701  -26.2430   18.6848 C   0  0  0  0  0  0  0  0  0  0  0  0
  -24.6198  -23.8835   19.5660 C   0  0  0  0  0  0  0  0  0  0  0  0
  -18.4161  -26.4503   22.2188 C   0  0  0  0  0  0  0  0  0  0  0  0
  -29.4537  -19.6411   14.8291 C   0  0  0  0  0  0  0  0  0  0  0  0
  -19.6876  -25.8892   22.8476 C   0  0  0  0  0  0  0  0  0  0  0  0
  -28.8024  -18.9297   16.0164 C   0  0  0  0  0  0  0  0  0  0  0  0
  -31.2344  -28.3108   20.0979 C   0  0  0  0  0  0  0  0  0  0  0  0
  -32.2355  -28.0989   21.1901 C   0  0  0  0  0  0  0  0  0  0  0  0
  -30.9778  -19.5790   14.9008 C   0  0  0  0  0  0  0  0  0  0  0  0
  -30.9073  -19.3532   17.3539 C   0  0  0  0  0  0  0  0  0  0  0  0
  -20.9196  -26.6901   22.4094 C   0  0  1  0  0  0  0  0  0  0  0  0
  -22.3966  -25.0335   19.3259 C   0  0  1  0  0  0  0  0  0  0  0  0
  -29.3713  -19.4374   17.3550 C   0  0  2  0  0  0  0  0  0  0  0  0
  -31.3407  -26.9497   20.7618 C   0  0  0  0  0  0  0  0  0  0  0  0
  -33.7455  -25.5842   21.7319 C   0  0  0  0  0  0  0  0  0  0  0  0
  -24.6936  -18.6241   15.6318 C   0  0  0  0  0  0  0  0  0  0  0  0
  -22.7649  -20.9794   21.5143 C   0  0  0  0  0  0  0  0  0  0  0  0
  -23.7604  -19.1154   20.1716 C   0  0  0  0  0  0  0  0  0  0  0  0
  -21.4332  -19.8823   19.7040 C   0  0  0  0  0  0  0  0  0  0  0  0
  -25.1753  -22.2138   14.4665 C   0  0  0  0  0  0  0  0  0  0  0  0
  -33.6781  -22.6557   17.6949 C   0  0  0  0  0  0  0  0  0  0  0  0
  -30.2388  -26.5367   21.6913 C   0  0  0  0  0  0  0  0  0  0  0  0
  -29.0878  -25.8618   20.9572 C   0  0  0  0  0  0  0  0  0  1  0  0
  -23.3799  -21.3499   19.0343 C   0  0  1  0  0  0  0  0  0  0  0  0
  -24.4246  -20.1206   15.6039 C   0  0  2  0  0  0  0  0  0  0  0  0
  -22.8464  -20.3576   20.1059 C   0  0  0  0  0  0  0  0  0  0  0  0
  -28.4037  -17.4185   18.3895 N   0  0  0  0  0  0  0  0  0  0  0  0
  -28.7609  -18.7057   18.5361 N   0  0  0  0  0  0  0  0  0  0  0  0
  -23.1945  -23.8117   19.2041 N   0  0  0  0  0  0  0  0  0  0  0  0
  -31.4530  -20.0759   16.1944 N   0  0  0  0  0  0  0  0  0  0  0  0
  -28.8168  -20.4841   20.0997 N   0  0  0  0  0  0  0  0  0  0  0  0
  -26.9916  -17.0872   22.4503 N   0  0  0  0  0  0  0  0  0  0  0  0
  -21.3126  -26.3187   21.0670 N   0  0  0  0  0  0  0  0  0  0  0  0
  -23.4421  -20.7965   17.6858 N   0  0  0  0  0  0  0  0  0  0  0  0
  -32.7545  -21.5611   17.4958 N   0  0  0  0  0  0  0  0  0  0  0  0
  -25.3465  -20.7455   14.6136 N   0  3  0  0  0  0  0  0  0  0  0  0
  -27.6328  -19.2867   22.5494 O   0  0  0  0  0  0  0  0  0  0  0  0
  -22.6002  -24.4548   21.6060 O   0  0  0  0  0  0  0  0  0  0  0  0
  -21.3483  -22.5069   18.6339 O   0  0  0  0  0  0  0  0  0  0  0  0
  -25.7145  -21.1386   17.3752 O   0  0  0  0  0  0  0  0  0  0  0  0
  -32.7819  -21.7000   15.2074 O   0  0  0  0  0  0  0  0  0  0  0  0
  -25.9854  -11.9432   20.5628 O   0  0  0  0  0  0  0  0  0  0  0  0
  -28.5636  -26.7505   19.9713 O   0  0  0  0  0  0  0  0  0  1  0  0
  -21.1926  -11.4624   23.2464 F   0  0  0  0  0  0  0  0  0  0  0  0
  -23.8252  -10.6763   19.3919 F   0  0  0  0  0  0  0  0  0  0  0  0
  1  2  1  0  0  0  0
  1  5  2  0  0  0  0
  2  6  2  0  0  0  0
  3 10  2  0  0  0  0
  3 18  1  0  0  0  0
  4 11  1  0  0  0  0
  4 18  2  0  0  0  0
  5 20  1  0  0  0  0
  6 22  1  0  0  0  0
  7  9  2  0  0  0  0
  7 23  1  0  0  0  0
  8 12  2  0  0  0  0
  8 21  1  0  0  0  0
  9 25  1  0  0  0  0
 10 27  1  0  0  0  0
 11 27  2  0  0  0  0
 12 28  1  0  0  0  0
 13 14  2  0  0  0  0
 13 29  1  0  0  0  0
 14 30  1  0  0  0  0
 15 24  1  0  0  0  0
 15 28  2  0  0  0  0
 16 25  2  0  0  0  0
 16 26  1  0  0  0  0
 17 30  2  0  0  0  0
 17 31  1  0  0  0  0
 18 32  1  0  0  0  0
 19 32  1  0  0  0  0
 19 33  2  0  0  0  0
 19 34  1  0  0  0  0
 20 22  2  0  0  0  0
 20 39  1  0  0  0  0
 21 24  2  0  0  0  0
 21 40  1  0  0  0  0
 22 50  1  0  0  0  0
 23 26  2  0  0  0  0
 23 53  1  0  0  0  0
 24 41  1  0  0  0  0
 25 60  1  0  0  0  0
 26 54  1  0  0  0  0
 27 81  1  0  0  0  0
 28 82  1  0  0  0  0
 29 31  2  0  0  0  0
 29 81  1  0  0  0  0
 30 83  1  0  0  0  0
 31 84  1  0  0  0  0
 32 66  2  0  0  0  0
 33 67  1  0  0  0  0
 33 70  1  0  0  0  0
 34 71  1  0  0  0  0
 34 76  2  0  0  0  0
 35 51  1  0  0  0  0
 35 72  1  0  0  0  0
 35 77  2  0  0  0  0
 36 63  1  0  0  0  0
 36 68  1  0  0  0  0
 36 78  2  0  0  0  0
 37 64  1  0  0  0  0
 37 73  1  0  0  0  0
 37 79  2  0  0  0  0
 38 69  1  0  0  0  0
 38 74  1  0  0  0  0
 38 80  2  0  0  0  0
 39 42  1  0  0  0  0
 40 51  1  0  0  0  0
 41 68  1  0  0  0  0
 42 44  1  0  0  0  0
 43 45  1  0  0  0  0
 43 48  1  0  0  0  0
 44 50  1  0  0  0  0
 45 52  1  0  0  0  0
 46 47  1  0  0  0  0
 46 53  1  0  0  0  0
 47 53  1  0  0  0  0
 48 69  1  0  0  0  0
 49 52  1  0  0  0  0
 49 69  1  0  0  0  0
 50 72  1  0  0  0  0
 51 68  1  0  0  0  0
 52 67  1  0  0  0  0
 53 61  1  0  0  0  0
 55 64  1  0  0  0  0
 56 65  1  0  0  0  0
 57 65  1  0  0  0  0
 58 65  1  0  0  0  0
 59 75  1  0  0  0  0
 60 74  1  0  0  0  0
 61 62  1  0  0  0  0
 62 82  1  0  0  0  0
 63 65  1  0  0  0  0
 63 73  1  0  0  0  0
 64 75  1  0  0  0  0
 66 67  1  0  0  0  0
M  CHG  1  75   1
M  ISO  4  38 100  62 101  74 100  82 101
M  END
> <Batch ID>
0125

> <Smiles>
CNC(C)C(=O)NC(C(=O)N1Cc2cc([101O:1][101CH2:1]CC3(c4ccc(C[100NH:0][100C:0](=O)N5CCCC(n6nc(-c7ccc(Oc8ccc(F)cc8F)cc7)c(C(N)=O)c6N)C5)cc4C)CC3)ccc2CC1C(=O)NC1CCCc2ccccc21)C(C)(C)C

> <Shape>
0.209

> <Color>
0.070

> <Negative vol penalty>
0.000

$$$$

  -OEChem-04052320353D

 84 93  0     1  0  0  0  0  0999 V2000
  -22.9125  -10.1736   21.7945 C   0  0  0  0  0  0  0  0  0  0  0  0
  -22.5291  -11.2991   22.5168 C   0  0  0  0  0  0  0  0  0  0  0  0
  -24.5026  -28.7573   19.9317 C   0  0  0  0  0  0  0  0  0  0  0  0
  -24.4421  -27.8480   22.1693 C   0  0  0  0  0  0  0  0  0  0  0  0
  -24.0022  -10.2411   20.9273 C   0  0  0  0  0  0  0  0  0  0  0  0
  -23.2359  -12.4925   22.3733 C   0  0  0  0  0  0  0  0  0  0  0  0
  -22.2807  -19.5915   22.4573 C   0  0  0  0  0  0  0  0  0  0  0  0
  -27.0810  -19.2781   25.7177 C   0  0  0  0  0  0  0  0  0  0  0  0
  -23.1949  -29.2180   20.0836 C   0  0  0  0  0  0  0  0  0  0  0  0
  -23.1344  -28.3088   22.3212 C   0  0  0  0  0  0  0  0  0  0  0  0
  -22.7907  -20.7398   23.0616 C   0  0  0  0  0  0  0  0  0  0  0  0
  -20.0322  -27.3599   21.3689 C   0  0  0  0  0  0  0  0  0  0  0  0
  -19.0993  -26.4887   21.9314 C   0  0  0  0  0  0  0  0  0  0  0  0
  -26.2850  -20.3950   25.9460 C   0  0  0  0  0  0  0  0  0  0  0  0
  -24.6076  -20.7607   21.4749 C   0  0  0  0  0  0  0  0  0  0  0  0
  -18.7197  -28.0565   23.7301 C   0  0  0  0  0  0  0  0  0  0  0  0
  -25.1262  -28.0722   20.9746 C   0  0  0  0  0  0  0  0  0  0  0  0
  -27.6635  -28.2854   21.1307 C   0  0  0  0  0  0  0  0  0  0  0  0
  -24.7168  -11.4386   20.7658 C   0  0  0  0  0  0  0  0  0  0  0  0
  -22.9375  -19.0120   21.3623 C   0  0  0  0  0  0  0  0  0  0  0  0
  -24.3371  -12.5757   21.5042 C   0  0  0  0  0  0  0  0  0  0  0  0
  -27.9569  -19.2645   24.6379 C   0  0  0  0  0  0  0  0  0  0  0  0
  -24.1025  -19.6065   20.8569 C   0  0  0  0  0  0  0  0  0  0  0  0
  -22.5107  -28.9939   21.2783 C   0  0  0  0  0  0  0  0  0  0  0  0
  -23.9558  -21.3229   22.5723 C   0  0  0  0  0  0  0  0  0  0  0  0
  -20.3089  -28.5794   21.9870 C   0  0  0  0  0  0  0  0  0  0  0  0
  -18.4430  -26.8370   23.1119 C   0  0  0  0  0  0  0  0  0  0  0  0
  -19.6526  -28.9277   23.1676 C   0  0  0  0  0  0  0  0  0  0  0  0
  -26.4769  -27.5955   20.8181 C   0  0  0  0  0  0  0  0  0  0  0  0
  -26.4016  -21.4641   25.0724 C   0  0  0  0  0  0  0  0  0  0  0  0
  -27.9985  -20.3841   23.8227 C   0  0  0  0  0  0  0  0  0  0  0  0
  -28.6677  -27.4078   20.8022 C   0  0  0  0  0  0  0  0  0  0  0  0
  -27.8421  -29.6019   21.6700 C   0  0  0  0  0  0  0  0  0  0  0  0
  -24.3180  -16.2037   20.8041 C   0  0  0  0  0  0  0  0  0  0  0  0
  -24.5831  -17.3726   17.7899 C   0  0  0  0  0  0  0  0  0  0  0  0
  -24.7299  -20.0987   15.7421 C   0  0  0  0  0  0  0  0  0  0  0  0
  -28.8907  -21.4393   20.3806 C   0  0  0  0  0  0  0  0  0  0  0  0
  -25.9169  -11.4502   19.8524 C   0  0  0  0  0  0  0  0  0  0  0  0
  -22.3599  -17.7886   20.7049 C   0  0  0  0  0  0  0  0  0  0  0  0
  -24.8343  -19.0350   19.6710 C   0  0  0  0  0  0  0  0  0  0  0  0
  -26.3818  -12.8545   19.4754 C   0  0  0  0  0  0  0  0  0  0  0  0
  -29.6588  -23.7962   17.8248 C   0  0  0  0  0  0  0  0  0  0  0  0
  -29.7129  -17.5702   25.4859 C   0  0  0  0  0  0  0  0  0  0  0  0
  -30.3058  -18.2452   24.2888 C   0  0  0  0  0  0  0  0  0  0  0  0
  -26.4465  -13.7454   20.7119 C   0  0  0  0  0  0  0  0  0  0  0  0
  -29.0375  -25.0994   18.3304 C   0  0  0  0  0  0  0  0  0  0  0  0
  -28.8017  -22.5850   18.1861 C   0  0  0  0  0  0  0  0  0  0  0  0
  -27.8456  -23.7713   20.1232 C   0  0  0  0  0  0  0  0  0  0  0  0
  -28.8121  -18.0709   24.3865 C   0  0  0  0  0  0  0  0  0  0  0  0
  -25.0634  -13.8951   21.3570 C   0  0  1  0  0  0  0  0  0  0  0  0
  -23.3934  -16.9891   19.9176 C   0  0  1  0  0  0  0  0  0  0  0  0
  -28.7021  -25.0153   19.8316 C   0  0  2  0  0  0  0  0  0  0  0  0
  -24.9867  -20.7384   13.3291 C   0  0  0  0  0  0  0  0  0  0  0  0
  -23.3971  -23.8821   24.7556 C   0  0  0  0  0  0  0  0  0  0  0  0
  -27.5659  -16.7486   17.9443 C   0  0  0  0  0  0  0  0  0  0  0  0
  -27.9094  -18.2398   15.9628 C   0  0  0  0  0  0  0  0  0  0  0  0
  -26.4964  -16.1948   15.7525 C   0  0  0  0  0  0  0  0  0  0  0  0
  -22.0888  -21.4333   15.6946 C   0  0  0  0  0  0  0  0  0  0  0  0
  -25.5525  -22.6942   25.2904 C   0  0  0  0  0  0  0  0  0  0  0  0
  -28.9184  -20.4271   22.6464 C   0  0  0  0  0  0  0  0  0  0  0  0
  -25.6163  -18.1821   17.0441 C   0  0  1  0  0  0  0  0  0  0  0  0
  -24.0058  -20.4273   14.4489 C   0  0  2  0  0  0  0  0  0  0  0  0
  -24.2100  -22.6092   24.5564 C   0  0  2  0  0  0  0  0  0  1  0  0
  -26.8845  -17.3512   16.6995 C   0  0  0  0  0  0  0  0  0  0  0  0
  -26.7045  -26.3738   20.3284 N   0  0  0  0  0  0  0  0  0  0  0  0
  -27.2409  -21.4875   24.0128 N   0  0  0  0  0  0  0  0  0  0  0  0
  -28.0458  -26.2893   20.3307 N   0  0  0  0  0  0  0  0  0  0  0  0
  -24.2335  -17.8344   19.0667 N   0  0  0  0  0  0  0  0  0  0  0  0
  -28.5210  -22.5633   19.6237 N   0  0  0  0  0  0  0  0  0  0  0  0
  -30.0132  -27.4916   20.8734 N   0  0  0  0  0  0  0  0  0  0  0  0
  -26.7032  -30.3692   21.9502 N   0  0  0  0  0  0  0  0  0  0  0  0
  -24.2569  -14.8369   20.6106 N   0  0  0  0  0  0  0  0  0  0  0  0
  -24.9350  -18.7424   15.8821 N   0  0  0  0  0  0  0  0  0  0  0  0
  -28.5940  -21.5031   21.7365 N   0  0  0  0  0  0  0  0  0  0  0  0
  -23.1183  -21.6095   14.6382 N   0  3  0  0  0  0  0  0  0  0  0  0
  -28.9783  -30.0896   21.8813 O   0  0  0  0  0  0  0  0  0  0  0  0
  -25.0350  -16.7942   21.6035 O   0  0  0  0  0  0  0  0  0  0  0  0
  -24.0987  -16.3715   17.2562 O   0  0  0  0  0  0  0  0  0  0  0  0
  -25.0819  -20.9594   16.5457 O   0  0  0  0  0  0  0  0  0  0  0  0
  -29.4489  -20.4542   19.8856 O   0  0  0  0  0  0  0  0  0  0  0  0
  -21.2347  -29.4436   21.4270 O   0  0  0  0  0  0  0  0  0  0  0  0
  -24.4561  -22.4434   23.1606 O   0  0  0  0  0  0  0  0  0  1  0  0
  -17.5461  -26.0010   23.6511 F   0  0  0  0  0  0  0  0  0  0  0  0
  -19.9134  -30.0984   23.7653 F   0  0  0  0  0  0  0  0  0  0  0  0
  1  2  1  0  0  0  0
  1  5  2  0  0  0  0
  2  6  2  0  0  0  0
  3  9  2  0  0  0  0
  3 17  1  0  0  0  0
  4 10  1  0  0  0  0
  4 17  2  0  0  0  0
  5 19  1  0  0  0  0
  6 21  1  0  0  0  0
  7 11  2  0  0  0  0
  7 20  1  0  0  0  0
  8 14  2  0  0  0  0
  8 22  1  0  0  0  0
  9 24  1  0  0  0  0
 10 24  2  0  0  0  0
 11 25  1  0  0  0  0
 12 13  2  0  0  0  0
 12 26  1  0  0  0  0
 13 27  1  0  0  0  0
 14 30  1  0  0  0  0
 15 23  1  0  0  0  0
 15 25  2  0  0  0  0
 16 27  2  0  0  0  0
 16 28  1  0  0  0  0
 17 29  1  0  0  0  0
 18 29  1  0  0  0  0
 18 32  2  0  0  0  0
 18 33  1  0  0  0  0
 19 21  2  0  0  0  0
 19 38  1  0  0  0  0
 20 23  2  0  0  0  0
 20 39  1  0  0  0  0
 21 50  1  0  0  0  0
 22 31  2  0  0  0  0
 22 49  1  0  0  0  0
 23 40  1  0  0  0  0
 24 81  1  0  0  0  0
 25 82  1  0  0  0  0
 26 28  2  0  0  0  0
 26 81  1  0  0  0  0
 27 83  1  0  0  0  0
 28 84  1  0  0  0  0
 29 65  2  0  0  0  0
 30 59  1  0  0  0  0
 30 66  2  0  0  0  0
 31 60  1  0  0  0  0
 31 66  1  0  0  0  0
 32 67  1  0  0  0  0
 32 70  1  0  0  0  0
 33 71  1  0  0  0  0
 33 76  2  0  0  0  0
 34 51  1  0  0  0  0
 34 72  1  0  0  0  0
 34 77  2  0  0  0  0
 35 61  1  0  0  0  0
 35 68  1  0  0  0  0
 35 78  2  0  0  0  0
 36 62  1  0  0  0  0
 36 73  1  0  0  0  0
 36 79  2  0  0  0  0
 37 69  1  0  0  0  0
 37 74  1  0  0  0  0
 37 80  2  0  0  0  0
 38 41  1  0  0  0  0
 39 51  1  0  0  0  0
 40 68  1  0  0  0  0
 41 45  1  0  0  0  0
 42 46  1  0  0  0  0
 42 47  1  0  0  0  0
 43 44  1  0  0  0  0
 43 49  1  0  0  0  0
 44 49  1  0  0  0  0
 45 50  1  0  0  0  0
 46 52  1  0  0  0  0
 47 69  1  0  0  0  0
 48 52  1  0  0  0  0
 48 69  1  0  0  0  0
 50 72  1  0  0  0  0
 51 68  1  0  0  0  0
 52 67  1  0  0  0  0
 53 62  1  0  0  0  0
 54 63  1  0  0  0  0
 55 64  1  0  0  0  0
 56 64  1  0  0  0  0
 57 64  1  0  0  0  0
 58 75  1  0  0  0  0
 59 63  1  0  0  0  0
 60 74  1  0  0  0  0
 61 64  1  0  0  0  0
 61 73  1  0  0  0  0
 62 75  1  0  0  0  0
 63 82  1  0  0  0  0
 65 67  1  0  0  0  0
M  CHG  1  75   1
M  ISO  4  37 100  63 101  74 100  82 101
M  END
> <Batch ID>
0125

> <Smiles>
CNC(C)C(=O)NC(C(=O)N1Cc2cc([101O:1][101CH:1](C)Cc3ccc(C4CC4)c(C[100NH:0][100C:0](=O)N4CCCC(n5nc(-c6ccc(Oc7ccc(F)cc7F)cc6)c(C(N)=O)c5N)C4)n3)ccc2CC1C(=O)NC1CCCc2ccccc21)C(C)(C)C

> <Shape>
0.217

> <Color>
0.064

> <Negative vol penalty>
0.000

$$$$

  -OEChem-04052320353D

 84 92  0     1  0  0  0  0  0999 V2000
  -18.9131  -17.4461   21.3753 C   0  0  0  0  0  0  0  0  0  0  0  0
  -20.1595  -17.9358   20.9986 C   0  0  0  0  0  0  0  0  0  0  0  0
  -23.0970   -9.7746   19.9991 C   0  0  0  0  0  0  0  0  0  0  0  0
  -23.7168   -9.9782   22.3254 C   0  0  0  0  0  0  0  0  0  0  0  0
  -17.8232  -18.3111   21.4638 C   0  0  0  0  0  0  0  0  0  0  0  0
  -20.3165  -19.2908   20.7090 C   0  0  0  0  0  0  0  0  0  0  0  0
  -25.2478  -22.7466   21.8251 C   0  0  0  0  0  0  0  0  0  0  0  0
  -22.3540   -8.6324   20.2970 C   0  0  0  0  0  0  0  0  0  0  0  0
  -22.9736   -8.8360   22.6234 C   0  0  0  0  0  0  0  0  0  0  0  0
  -26.3071  -23.1582   21.0174 C   0  0  0  0  0  0  0  0  0  0  0  0
  -23.3393   -5.4857   22.3549 C   0  0  0  0  0  0  0  0  0  0  0  0
  -23.9231   -4.5319   23.1887 C   0  0  0  0  0  0  0  0  0  0  0  0
  -25.1674  -25.2419   20.5951 C   0  0  0  0  0  0  0  0  0  0  0  0
  -22.1196   -4.8120   24.7717 C   0  0  0  0  0  0  0  0  0  0  0  0
  -23.7785  -10.4475   21.0133 C   0  0  0  0  0  0  0  0  0  0  0  0
  -24.0953  -12.9605   20.7098 C   0  0  0  0  0  0  0  0  0  0  0  0
  -17.9691  -19.6790   21.1845 C   0  0  0  0  0  0  0  0  0  0  0  0
  -24.1336  -23.5764   22.0154 C   0  0  0  0  0  0  0  0  0  0  0  0
  -19.2273  -20.1746   20.7925 C   0  0  0  0  0  0  0  0  0  0  0  0
  -24.0965  -24.8395   21.4077 C   0  0  0  0  0  0  0  0  0  0  0  0
  -22.2922   -8.1631   21.6092 C   0  0  0  0  0  0  0  0  0  0  0  0
  -26.2656  -24.4048   20.3999 C   0  0  0  0  0  0  0  0  0  0  0  0
  -22.1457   -6.1026   22.7295 C   0  0  0  0  0  0  0  0  0  0  0  0
  -23.3132   -4.1951   24.3971 C   0  0  0  0  0  0  0  0  0  0  0  0
  -21.5358   -5.7658   23.9379 C   0  0  0  0  0  0  0  0  0  0  0  0
  -24.5468  -11.6271   20.7060 C   0  0  0  0  0  0  0  0  0  0  0  0
  -25.1979  -13.6973   20.3524 C   0  0  0  0  0  0  0  0  0  0  0  0
  -22.7954  -13.4860   21.0096 C   0  0  0  0  0  0  0  0  0  0  0  0
  -21.0301  -23.3483   21.3676 C   0  0  0  0  0  0  0  0  0  0  0  0
  -29.0077  -23.4377   18.6184 C   0  0  0  0  0  0  0  0  0  0  0  0
  -20.8785  -26.1377   23.0165 C   0  0  0  0  0  0  0  0  0  0  0  0
  -22.4772  -28.9480   24.1088 C   0  0  0  0  0  0  0  0  0  0  0  0
  -30.7504  -14.5364   21.2611 C   0  0  0  0  0  0  0  0  0  0  0  0
  -16.7515  -20.5668   21.2480 C   0  0  0  0  0  0  0  0  0  0  0  0
  -23.0113  -23.1288   22.9111 C   0  0  0  0  0  0  0  0  0  0  0  0
  -22.9323  -25.7764   21.5963 C   0  0  0  0  0  0  0  0  0  0  0  0
  -17.0848  -22.0559   21.2877 C   0  0  0  0  0  0  0  0  0  0  0  0
  -29.6831  -12.2726   18.5267 C   0  0  0  0  0  0  0  0  0  0  0  0
  -18.1334  -22.3966   20.2336 C   0  0  0  0  0  0  0  0  0  0  0  0
  -28.2363  -11.9592   18.9036 C   0  0  0  0  0  0  0  0  0  0  0  0
  -31.5489  -17.9126   21.2434 C   0  0  0  0  0  0  0  0  0  0  0  0
  -29.5062  -17.4987   19.8156 C   0  0  0  0  0  0  0  0  0  0  0  0
  -30.5310  -12.5950   19.7531 C   0  0  0  0  0  0  0  0  0  0  0  0
  -31.0723  -16.8113   22.1866 C   0  0  0  0  0  0  0  0  0  0  0  0
  -29.0826  -16.3836   20.7762 C   0  0  0  0  0  0  0  0  0  0  0  0
  -28.5261  -13.3751   20.9756 C   0  0  0  0  0  0  0  0  0  0  0  0
  -19.4430  -21.6425   20.4944 C   0  0  1  0  0  0  0  0  0  0  0  0
  -21.6945  -23.8426   22.6214 C   0  0  1  0  0  0  0  0  0  0  0  0
  -27.6357  -13.0895   19.7569 C   0  0  2  0  0  0  0  0  0  0  0  0
  -30.3566  -18.5469   20.5300 C   0  0  0  0  0  0  0  0  0  0  0  0
  -27.4557  -24.8438   17.2121 C   0  0  0  0  0  0  0  0  0  0  0  0
  -22.0825  -31.0619   25.4023 C   0  0  0  0  0  0  0  0  0  0  0  0
  -19.4286  -27.3345   20.6134 C   0  0  0  0  0  0  0  0  0  0  0  0
  -19.9070  -29.6085   21.5453 C   0  0  0  0  0  0  0  0  0  0  0  0
  -18.4961  -28.0056   22.8347 C   0  0  0  0  0  0  0  0  0  0  0  0
  -24.4778  -28.2043   26.1590 C   0  0  0  0  0  0  0  0  0  0  0  0
  -29.4691  -22.4793   17.5294 C   0  0  0  0  0  0  0  0  0  0  0  0
  -30.4526  -21.4198   18.0238 C   0  0  0  0  0  0  0  0  0  0  0  0
  -29.8291  -20.5019   19.0677 C   0  0  0  0  0  0  0  0  0  0  0  0
  -27.6013  -24.0086   18.4725 C   0  0  2  0  0  0  0  0  0  1  0  0
  -20.9851  -27.5998   22.6561 C   0  0  1  0  0  0  0  0  0  0  0  0
  -22.5305  -29.6104   25.4737 C   0  0  2  0  0  0  0  0  0  0  0  0
  -19.7254  -28.1189   21.9071 C   0  0  0  0  0  0  0  0  0  0  0  0
  -25.8357  -11.5201   20.3726 N   0  0  0  0  0  0  0  0  0  0  0  0
  -26.2036  -12.7956   20.1633 N   0  0  0  0  0  0  0  0  0  0  0  0
  -21.8566  -25.2906   22.4763 N   0  0  0  0  0  0  0  0  0  0  0  0
  -29.9164  -13.6387   20.5738 N   0  0  0  0  0  0  0  0  0  0  0  0
  -30.2495  -15.8289   21.4783 N   0  0  0  0  0  0  0  0  0  0  0  0
  -25.3957  -15.0221   20.1845 N   0  0  0  0  0  0  0  0  0  0  0  0
  -21.7765  -12.5893   21.3587 N   0  0  0  0  0  0  0  0  0  0  0  0
  -20.1847  -22.2732   21.5652 N   0  0  0  0  0  0  0  0  0  0  0  0
  -21.2748  -28.3065   23.8991 N   0  0  0  0  0  0  0  0  0  0  0  0
  -30.8544  -19.5300   19.5333 N   0  3  0  0  0  0  0  0  0  0  0  0
  -23.9190  -29.5731   26.0137 N   0  3  0  0  0  0  0  0  0  0  0  0
  -22.5407  -14.7130   20.9530 O   0  0  0  0  0  0  0  0  0  0  0  0
  -21.2657  -23.9023   20.3003 O   0  0  0  0  0  0  0  0  0  0  0  0
  -29.7325  -23.7473   19.5643 O   0  0  0  0  0  0  0  0  0  0  0  0
  -19.9655  -25.7621   23.7560 O   0  0  0  0  0  0  0  0  0  0  0  0
  -23.4076  -28.9981   23.3073 O   0  0  0  0  0  0  0  0  0  0  0  0
  -31.8751  -14.2024   21.6543 O   0  0  0  0  0  0  0  0  0  0  0  0
  -21.5670   -7.0487   21.9003 O   0  0  0  0  0  0  0  0  0  0  0  0
  -27.3062  -24.8120   19.6041 O   0  0  0  0  0  0  0  0  0  1  0  0
  -23.8731   -3.2781   25.1969 F   0  0  0  0  0  0  0  0  0  0  0  0
  -20.3884   -6.3542   24.3027 F   0  0  0  0  0  0  0  0  0  0  0  0
  1  2  1  0  0  0  0
  1  5  2  0  0  0  0
  2  6  2  0  0  0  0
  3  8  2  0  0  0  0
  3 15  1  0  0  0  0
  4  9  1  0  0  0  0
  4 15  2  0  0  0  0
  5 17  1  0  0  0  0
  6 19  1  0  0  0  0
  7 10  2  0  0  0  0
  7 18  1  0  0  0  0
  8 21  1  0  0  0  0
  9 21  2  0  0  0  0
 10 22  1  0  0  0  0
 11 12  2  0  0  0  0
 11 23  1  0  0  0  0
 12 24  1  0  0  0  0
 13 20  1  0  0  0  0
 13 22  2  0  0  0  0
 14 24  2  0  0  0  0
 14 25  1  0  0  0  0
 15 26  1  0  0  0  0
 16 26  1  0  0  0  0
 16 27  2  0  0  0  0
 16 28  1  0  0  0  0
 17 19  2  0  0  0  0
 17 34  1  0  0  0  0
 18 20  2  0  0  0  0
 18 35  1  0  0  0  0
 19 47  1  0  0  0  0
 20 36  1  0  0  0  0
 21 81  1  0  0  0  0
 22 82  1  0  0  0  0
 23 25  2  0  0  0  0
 23 81  1  0  0  0  0
 24 83  1  0  0  0  0
 25 84  1  0  0  0  0
 26 64  2  0  0  0  0
 27 65  1  0  0  0  0
 27 69  1  0  0  0  0
 28 70  1  0  0  0  0
 28 75  2  0  0  0  0
 29 48  1  0  0  0  0
 29 71  1  0  0  0  0
 29 76  2  0  0  0  0
 30 57  1  0  0  0  0
 30 60  1  0  0  0  0
 30 77  2  0  0  0  0
 31 61  1  0  0  0  0
 31 66  1  0  0  0  0
 31 78  2  0  0  0  0
 32 62  1  0  0  0  0
 32 72  1  0  0  0  0
 32 79  2  0  0  0  0
 33 67  1  0  0  0  0
 33 68  1  0  0  0  0
 33 80  2  0  0  0  0
 34 37  1  0  0  0  0
 35 48  1  0  0  0  0
 36 66  1  0  0  0  0
 37 39  1  0  0  0  0
 38 40  1  0  0  0  0
 38 43  1  0  0  0  0
 39 47  1  0  0  0  0
 40 49  1  0  0  0  0
 41 44  1  0  0  0  0
 41 50  1  0  0  0  0
 42 45  1  0  0  0  0
 42 50  1  0  0  0  0
 43 67  1  0  0  0  0
 44 68  1  0  0  0  0
 45 68  1  0  0  0  0
 46 49  1  0  0  0  0
 46 67  1  0  0  0  0
 47 71  1  0  0  0  0
 48 66  1  0  0  0  0
 49 65  1  0  0  0  0
 50 73  1  0  0  0  0
 51 60  1  0  0  0  0
 52 62  1  0  0  0  0
 53 63  1  0  0  0  0
 54 63  1  0  0  0  0
 55 63  1  0  0  0  0
 56 74  1  0  0  0  0
 57 58  1  0  0  0  0
 58 59  1  0  0  0  0
 59 73  1  0  0  0  0
 60 82  1  0  0  0  0
 61 63  1  0  0  0  0
 61 72  1  0  0  0  0
 62 74  1  0  0  0  0
 64 65  1  0  0  0  0
M  CHG  2  73   1  74   1
M  ISO  4  33 100  60 101  68 100  82 101
M  END
> <Batch ID>
0125

> <Smiles>
CNC(C)C(=O)NC(C(=O)N1Cc2cc([101O:1][101CH:1](C)C(=O)CCCNC3CC[100N:0]([100C:0](=O)N4CCCC(n5nc(-c6ccc(Oc7ccc(F)cc7F)cc6)c(C(N)=O)c5N)C4)CC3)ccc2CC1C(=O)NC1CCCc2ccccc21)C(C)(C)C

> <Shape>
0.278

> <Color>
0.204

> <Negative vol penalty>
0.000

$$$$

  -OEChem-04052320353D

 81 89  0     1  0  0  0  0  0999 V2000
  -21.0713  -25.6182   22.3551 C   0  0  0  0  0  0  0  0  0  0  0  0
  -21.0046  -24.3648   21.7550 C   0  0  0  0  0  0  0  0  0  0  0  0
  -28.9919  -26.5157   18.8124 C   0  0  0  0  0  0  0  0  0  0  0  0
  -27.0899  -25.5290   19.9286 C   0  0  0  0  0  0  0  0  0  0  0  0
  -22.1105  -25.9134   23.2364 C   0  0  0  0  0  0  0  0  0  0  0  0
  -21.9779  -23.4063   22.0351 C   0  0  0  0  0  0  0  0  0  0  0  0
  -21.1749  -17.3470   22.4174 C   0  0  0  0  0  0  0  0  0  0  0  0
  -27.1068  -12.9445   18.1484 C   0  0  0  0  0  0  0  0  0  0  0  0
  -27.3367  -13.3946   20.5110 C   0  0  0  0  0  0  0  0  0  0  0  0
  -28.2582  -13.6898   17.8944 C   0  0  0  0  0  0  0  0  0  0  0  0
  -28.4882  -14.1398   20.2570 C   0  0  0  0  0  0  0  0  0  0  0  0
  -28.2612  -27.6848   18.6006 C   0  0  0  0  0  0  0  0  0  0  0  0
  -26.3591  -26.6981   19.7169 C   0  0  0  0  0  0  0  0  0  0  0  0
  -21.4006  -16.3119   21.5111 C   0  0  0  0  0  0  0  0  0  0  0  0
  -24.1110  -29.5545   19.7886 C   0  0  0  0  0  0  0  0  0  0  0  0
  -23.3666  -30.0571   20.8558 C   0  0  0  0  0  0  0  0  0  0  0  0
  -23.5544  -15.9070   22.5192 C   0  0  0  0  0  0  0  0  0  0  0  0
  -25.3879  -30.2814   22.1601 C   0  0  0  0  0  0  0  0  0  0  0  0
  -28.4062  -25.4378   19.4764 C   0  0  0  0  0  0  0  0  0  0  0  0
  -29.9707  -23.9223   20.8043 C   0  0  0  0  0  0  0  0  0  0  0  0
  -23.0916  -24.9548   23.5349 C   0  0  0  0  0  0  0  0  0  0  0  0
  -22.1435  -17.6776   23.3760 C   0  0  0  0  0  0  0  0  0  0  0  0
  -23.0320  -23.6895   22.9202 C   0  0  0  0  0  0  0  0  0  0  0  0
  -23.3375  -16.9450   23.4381 C   0  0  0  0  0  0  0  0  0  0  0  0
  -26.6460  -12.7970   19.4567 C   0  0  0  0  0  0  0  0  0  0  0  0
  -28.9489  -14.2874   18.9487 C   0  0  0  0  0  0  0  0  0  0  0  0
  -26.9448  -27.7760   19.0528 C   0  0  0  0  0  0  0  0  0  0  0  0
  -22.5917  -15.5936   21.5600 C   0  0  0  0  0  0  0  0  0  0  0  0
  -25.4938  -29.4152   19.9072 C   0  0  0  0  0  0  0  0  0  0  0  0
  -24.0050  -30.4206   22.0415 C   0  0  0  0  0  0  0  0  0  0  0  0
  -26.1323  -29.7787   21.0929 C   0  0  0  0  0  0  0  0  0  0  0  0
  -29.1604  -24.2296   19.6949 C   0  0  0  0  0  0  0  0  0  0  0  0
  -30.4615  -22.6683   20.5341 C   0  0  0  0  0  0  0  0  0  0  0  0
  -30.2542  -24.7007   21.9745 C   0  0  0  0  0  0  0  0  0  0  0  0
  -23.8813  -20.2625   24.0099 C   0  0  0  0  0  0  0  0  0  0  0  0
  -24.8017  -18.5323   26.5949 C   0  0  0  0  0  0  0  0  0  0  0  0
  -25.2115  -15.4636   28.0306 C   0  0  0  0  0  0  0  0  0  0  0  0
  -29.6774  -17.5009   18.9124 C   0  0  0  0  0  0  0  0  0  0  0  0
  -24.2222  -25.3361   24.4574 C   0  0  0  0  0  0  0  0  0  0  0  0
  -21.8735  -18.7794   24.3637 C   0  0  0  0  0  0  0  0  0  0  0  0
  -24.4008  -17.2471   24.4612 C   0  0  0  0  0  0  0  0  0  0  0  0
  -25.0043  -24.1381   24.9899 C   0  0  0  0  0  0  0  0  0  0  0  0
  -30.3126  -19.9155   16.2925 C   0  0  0  0  0  0  0  0  0  0  0  0
  -25.3332  -23.1696   23.8582 C   0  0  0  0  0  0  0  0  0  0  0  0
  -30.1342  -21.2351   17.0454 C   0  0  0  0  0  0  0  0  0  0  0  0
  -29.3116  -18.8672   16.7695 C   0  0  0  0  0  0  0  0  0  0  0  0
  -29.1658  -19.9246   18.9908 C   0  0  0  0  0  0  0  0  0  0  0  0
  -24.0550  -22.6148   23.2179 C   0  0  1  0  0  0  0  0  0  0  0  0
  -23.1461  -19.3667   24.9663 C   0  0  1  0  0  0  0  0  0  0  0  0
  -30.1637  -21.0189   18.5700 C   0  0  2  0  0  0  0  0  0  0  0  0
  -26.0192  -14.3668   30.1383 C   0  0  0  0  0  0  0  0  0  0  0  0
  -27.6893  -19.0363   25.7477 C   0  0  0  0  0  0  0  0  0  0  0  0
  -28.3885  -17.1823   27.2780 C   0  0  0  0  0  0  0  0  0  0  0  0
  -27.2780  -19.2131   28.2082 C   0  0  0  0  0  0  0  0  0  0  0  0
  -22.5574  -14.2672   28.5628 C   0  0  0  0  0  0  0  0  0  0  0  0
  -25.4015  -11.9915   19.7322 C   0  0  0  0  0  0  0  0  0  0  0  0
  -30.1809  -15.0826   18.6764 C   0  0  0  0  0  0  0  0  0  0  0  0
  -24.1137  -12.8175   19.7007 C   0  0  0  0  0  0  0  0  0  0  0  0
  -24.0570  -13.8891   20.7832 C   0  0  0  0  0  0  0  0  0  1  0  0
  -25.9104  -17.5494   26.8838 C   0  0  1  0  0  0  0  0  0  0  0  0
  -24.8171  -14.9294   29.3958 C   0  0  2  0  0  0  0  0  0  0  0  0
  -27.2975  -18.2406   27.0088 C   0  0  0  0  0  0  0  0  0  0  0  0
  -29.1354  -23.2499   18.7874 N   0  0  0  0  0  0  0  0  0  0  0  0
  -29.9362  -22.3147   19.3262 N   0  0  0  0  0  0  0  0  0  0  0  0
  -24.0927  -18.3376   25.4010 N   0  0  0  0  0  0  0  0  0  0  0  0
  -29.4038  -18.6958   18.2263 N   0  0  0  0  0  0  0  0  0  0  0  0
  -31.2870  -21.8447   21.2143 N   0  0  0  0  0  0  0  0  0  0  0  0
  -29.6671  -25.9678   22.0925 N   0  0  0  0  0  0  0  0  0  0  0  0
  -23.4779  -21.5834   24.0532 N   0  0  0  0  0  0  0  0  0  0  0  0
  -25.5014  -16.8109   28.0737 N   0  0  0  0  0  0  0  0  0  0  0  0
  -29.8838  -16.3817   18.1151 N   0  0  0  0  0  0  0  0  0  0  0  0
  -23.8028  -13.8467   29.2551 N   0  3  0  0  0  0  0  0  0  0  0  0
  -31.0190  -24.2916   22.8808 O   0  0  0  0  0  0  0  0  0  0  0  0
  -24.7513  -19.7905   23.2874 O   0  0  0  0  0  0  0  0  0  0  0  0
  -24.5684  -19.4353   27.4023 O   0  0  0  0  0  0  0  0  0  0  0  0
  -25.2613  -14.7556   27.0272 O   0  0  0  0  0  0  0  0  0  0  0  0
  -29.7387  -17.4369   20.1450 O   0  0  0  0  0  0  0  0  0  0  0  0
  -26.2315  -28.9167   18.8466 O   0  0  0  0  0  0  0  0  0  0  0  0
  -22.8148  -14.5832   20.6761 O   0  0  0  0  0  0  0  0  0  1  0  0
  -23.2902  -30.9048   23.0656 F   0  0  0  0  0  0  0  0  0  0  0  0
  -27.4606  -29.6483   21.2123 F   0  0  0  0  0  0  0  0  0  0  0  0
  1  2  1  0  0  0  0
  1  5  2  0  0  0  0
  2  6  2  0  0  0  0
  3 12  2  0  0  0  0
  3 19  1  0  0  0  0
  4 13  1  0  0  0  0
  4 19  2  0  0  0  0
  5 21  1  0  0  0  0
  6 23  1  0  0  0  0
  7 14  2  0  0  0  0
  7 22  1  0  0  0  0
  8 10  2  0  0  0  0
  8 25  1  0  0  0  0
  9 11  1  0  0  0  0
  9 25  2  0  0  0  0
 10 26  1  0  0  0  0
 11 26  2  0  0  0  0
 12 27  1  0  0  0  0
 13 27  2  0  0  0  0
 14 28  1  0  0  0  0
 15 16  2  0  0  0  0
 15 29  1  0  0  0  0
 16 30  1  0  0  0  0
 17 24  1  0  0  0  0
 17 28  2  0  0  0  0
 18 30  2  0  0  0  0
 18 31  1  0  0  0  0
 19 32  1  0  0  0  0
 20 32  1  0  0  0  0
 20 33  2  0  0  0  0
 20 34  1  0  0  0  0
 21 23  2  0  0  0  0
 21 39  1  0  0  0  0
 22 24  2  0  0  0  0
 22 40  1  0  0  0  0
 23 48  1  0  0  0  0
 24 41  1  0  0  0  0
 25 56  1  0  0  0  0
 26 57  1  0  0  0  0
 27 78  1  0  0  0  0
 28 79  1  0  0  0  0
 29 31  2  0  0  0  0
 29 78  1  0  0  0  0
 30 80  1  0  0  0  0
 31 81  1  0  0  0  0
 32 63  2  0  0  0  0
 33 64  1  0  0  0  0
 33 67  1  0  0  0  0
 34 68  1  0  0  0  0
 34 73  2  0  0  0  0
 35 49  1  0  0  0  0
 35 69  1  0  0  0  0
 35 74  2  0  0  0  0
 36 60  1  0  0  0  0
 36 65  1  0  0  0  0
 36 75  2  0  0  0  0
 37 61  1  0  0  0  0
 37 70  1  0  0  0  0
 37 76  2  0  0  0  0
 38 66  1  0  0  0  0
 38 71  1  0  0  0  0
 38 77  2  0  0  0  0
 39 42  1  0  0  0  0
 40 49  1  0  0  0  0
 41 65  1  0  0  0  0
 42 44  1  0  0  0  0
 43 45  1  0  0  0  0
 43 46  1  0  0  0  0
 44 48  1  0  0  0  0
 45 50  1  0  0  0  0
 46 66  1  0  0  0  0
 47 50  1  0  0  0  0
 47 66  1  0  0  0  0
 48 69  1  0  0  0  0
 49 65  1  0  0  0  0
 50 64  1  0  0  0  0
 51 61  1  0  0  0  0
 52 62  1  0  0  0  0
 53 62  1  0  0  0  0
 54 62  1  0  0  0  0
 55 72  1  0  0  0  0
 56 58  1  0  0  0  0
 57 71  1  0  0  0  0
 58 59  1  0  0  0  0
 59 79  1  0  0  0  0
 60 62  1  0  0  0  0
 60 70  1  0  0  0  0
 61 72  1  0  0  0  0
 63 64  1  0  0  0  0
M  CHG  1  72   1
M  ISO  4  38 100  59 101  71 100  79 101
M  END
> <Batch ID>
0125

> <Smiles>
CNC(C)C(=O)NC(C(=O)N1Cc2cc([101O:1][101CH2:1]CCc3ccc(C[100NH:0][100C:0](=O)N4CCCC(n5nc(-c6ccc(Oc7ccc(F)cc7F)cc6)c(C(N)=O)c5N)C4)cc3)ccc2CC1C(=O)NC1CCCc2ccccc21)C(C)(C)C

> <Shape>
0.179

> <Color>
0.068

> <Negative vol penalty>
0.000

$$$$

  -OEChem-04052320353D

 89 98  0     1  0  0  0  0  0999 V2000
  -19.9053   -8.7974   19.5528 C   0  0  0  0  0  0  0  0  0  0  0  0
  -19.7481  -10.1392   19.8848 C   0  0  0  0  0  0  0  0  0  0  0  0
  -24.5484  -30.3930   21.1769 C   0  0  0  0  0  0  0  0  0  0  0  0
  -24.4614  -27.9849   21.0018 C   0  0  0  0  0  0  0  0  0  0  0  0
  -21.0939   -8.1382   19.8636 C   0  0  0  0  0  0  0  0  0  0  0  0
  -20.7791  -10.8224   20.5288 C   0  0  0  0  0  0  0  0  0  0  0  0
  -22.3081  -16.7087   19.8077 C   0  0  0  0  0  0  0  0  0  0  0  0
  -23.1556  -30.4470   21.1267 C   0  0  0  0  0  0  0  0  0  0  0  0
  -23.0685  -28.0389   20.9517 C   0  0  0  0  0  0  0  0  0  0  0  0
  -22.0159  -17.8515   20.5508 C   0  0  0  0  0  0  0  0  0  0  0  0
  -20.5122  -28.4201   23.1290 C   0  0  0  0  0  0  0  0  0  0  0  0
  -19.8013  -27.5126   23.9142 C   0  0  0  0  0  0  0  0  0  0  0  0
  -24.1236  -17.6337   21.7036 C   0  0  0  0  0  0  0  0  0  0  0  0
  -25.4476  -22.9044   21.0050 C   0  0  0  0  0  0  0  0  0  0  0  0
  -18.7645  -26.6069   21.9287 C   0  0  0  0  0  0  0  0  0  0  0  0
  -24.5548  -22.1543   22.9312 C   0  0  0  0  0  0  0  0  0  0  0  0
  -25.2014  -29.1619   21.1144 C   0  0  0  0  0  0  0  0  0  0  0  0
  -27.4725  -29.5625   22.2050 C   0  0  0  0  0  0  0  0  0  0  0  0
  -22.1437   -8.8163   20.5030 C   0  0  0  0  0  0  0  0  0  0  0  0
  -23.5075  -16.0123   20.0150 C   0  0  0  0  0  0  0  0  0  0  0  0
  -21.9824  -10.1714   20.8496 C   0  0  0  0  0  0  0  0  0  0  0  0
  -24.4299  -16.4837   20.9601 C   0  0  0  0  0  0  0  0  0  0  0  0
  -25.7283  -22.5922   22.3581 C   0  0  0  0  0  0  0  0  0  0  0  0
  -22.4156  -29.2700   21.0141 C   0  0  0  0  0  0  0  0  0  0  0  0
  -22.9223  -18.3126   21.5009 C   0  0  0  0  0  0  0  0  0  0  0  0
  -20.3493  -28.4212   21.7436 C   0  0  0  0  0  0  0  0  0  0  0  0
  -18.9275  -26.6060   23.3141 C   0  0  0  0  0  0  0  0  0  0  0  0
  -19.4755  -27.5145   21.1435 C   0  0  0  0  0  0  0  0  0  0  0  0
  -26.6402  -29.1055   21.1656 C   0  0  0  0  0  0  0  0  0  0  0  0
  -24.1110  -22.6479   20.7925 C   0  0  0  0  0  0  0  0  0  0  0  0
  -28.7459  -29.2815   21.7740 C   0  0  0  0  0  0  0  0  0  0  0  0
  -27.1254  -30.1853   23.4489 C   0  0  0  0  0  0  0  0  0  0  0  0
  -24.2601  -13.0780   20.9778 C   0  0  0  0  0  0  0  0  0  0  0  0
  -27.2721  -14.0283   20.2380 C   0  0  0  0  0  0  0  0  0  0  0  0
  -29.4732  -16.5989   19.7984 C   0  0  0  0  0  0  0  0  0  0  0  0
  -30.9566  -25.2435   17.9453 C   0  0  0  0  0  0  0  0  0  0  0  0
  -23.3918   -8.0491   20.8611 C   0  0  0  0  0  0  0  0  0  0  0  0
  -23.8199  -14.7965   19.1864 C   0  0  0  0  0  0  0  0  0  0  0  0
  -25.7406  -15.7839   21.2064 C   0  0  0  0  0  0  0  0  0  0  0  0
  -24.5787   -8.9443   21.2079 C   0  0  0  0  0  0  0  0  0  0  0  0
  -31.3195  -28.7811   17.7719 C   0  0  0  0  0  0  0  0  0  0  0  0
  -27.8679  -21.4000   22.9937 C   0  0  0  0  0  0  0  0  0  0  0  0
  -27.8968  -23.8903   22.4916 C   0  0  0  0  0  0  0  0  0  0  0  0
  -24.1502  -10.0516   22.1656 C   0  0  0  0  0  0  0  0  0  0  0  0
  -30.2365  -29.3066   18.7158 C   0  0  0  0  0  0  0  0  0  0  0  0
  -29.2184  -21.5281   23.7014 C   0  0  0  0  0  0  0  0  0  0  0  0
  -29.2475  -24.0163   23.1994 C   0  0  0  0  0  0  0  0  0  0  0  0
  -30.8551  -27.5378   17.0166 C   0  0  0  0  0  0  0  0  0  0  0  0
  -29.2677  -26.9720   18.8150 C   0  0  0  0  0  0  0  0  0  0  0  0
  -27.0738  -22.7165   23.0501 C   0  0  0  0  0  0  0  0  0  0  0  0
  -23.0873  -10.9532   21.5263 C   0  0  1  0  0  0  0  0  0  0  0  0
  -24.8412  -13.8725   19.8426 C   0  0  1  0  0  0  0  0  0  0  0  0
  -29.7097  -28.1926   19.6403 C   0  0  2  0  0  0  0  0  0  0  0  0
  -30.0468  -22.7132   23.2057 C   0  0  0  0  0  0  0  0  0  0  0  0
  -23.3000  -22.7988   19.5667 C   0  0  0  0  0  0  0  0  0  0  0  0
  -31.8741  -17.0617   19.2335 C   0  0  0  0  0  0  0  0  0  0  0  0
  -28.0935  -13.1922   23.0551 C   0  0  0  0  0  0  0  0  0  0  0  0
  -30.1937  -14.5234   22.7626 C   0  0  0  0  0  0  0  0  0  0  0  0
  -29.7313  -12.5816   21.2665 C   0  0  0  0  0  0  0  0  0  0  0  0
  -28.7296  -18.1232   17.3729 C   0  0  0  0  0  0  0  0  0  0  0  0
  -32.0905  -22.8846   19.9879 C   0  0  0  0  0  0  0  0  0  0  0  0
  -22.1409  -21.7901   22.1937 C   0  0  0  0  0  0  0  0  0  0  0  0
  -30.9461  -22.9903   18.9857 C   0  0  0  0  0  0  0  0  0  0  0  0
  -31.6659  -23.2899   21.3937 C   0  0  0  0  0  0  0  0  0  0  0  0
  -21.8243  -20.4196   21.6052 C   0  0  0  0  0  0  0  0  0  1  0  0
  -28.3928  -14.7082   20.9867 C   0  0  1  0  0  0  0  0  0  0  0  0
  -30.4641  -16.8978   18.6878 C   0  0  2  0  0  0  0  0  0  0  0  0
  -29.0774  -13.7637   22.0147 C   0  0  0  0  0  0  0  0  0  0  0  0
  -27.3272  -28.5746   20.1506 N   0  0  0  0  0  0  0  0  0  0  0  0
  -23.5784  -22.1926   21.9703 N   0  0  0  0  0  0  0  0  0  0  0  0
  -28.6046  -28.6963   20.5502 N   0  0  0  0  0  0  0  0  0  0  0  0
  -25.9974  -14.5959   20.3757 N   0  0  0  0  0  0  0  0  0  0  0  0
  -30.3693  -26.5194   17.9510 N   0  0  0  0  0  0  0  0  0  0  0  0
  -29.9616  -29.4803   22.3263 N   0  0  0  0  0  0  0  0  0  0  0  0
  -25.7699  -30.3999   23.7334 N   0  0  0  0  0  0  0  0  0  0  0  0
  -23.7005  -11.8744   20.5936 N   0  0  0  0  0  0  0  0  0  0  0  0
  -29.2956  -15.2428   19.9730 N   0  0  0  0  0  0  0  0  0  0  0  0
  -30.4412  -24.3400   18.8667 N   0  0  0  0  0  0  0  0  0  0  0  0
  -30.5354  -22.4291   21.8255 N   0  3  0  0  0  0  0  0  0  0  0  0
  -30.0853  -18.1532   17.9797 N   0  3  0  0  0  0  0  0  0  0  0  0
  -27.9925  -30.5560   24.2762 O   0  0  0  0  0  0  0  0  0  0  0  0
  -24.3166  -13.5233   22.1181 O   0  0  0  0  0  0  0  0  0  0  0  0
  -27.5197  -13.0345   19.5505 O   0  0  0  0  0  0  0  0  0  0  0  0
  -28.9156  -17.4803   20.4486 O   0  0  0  0  0  0  0  0  0  0  0  0
  -31.8759  -24.9341   17.1798 O   0  0  0  0  0  0  0  0  0  0  0  0
  -21.0564  -29.3223   20.9654 O   0  0  0  0  0  0  0  0  0  0  0  0
  -22.6392  -19.4275   22.2281 O   0  0  0  0  0  0  0  0  0  1  0  0
  -18.2460  -25.7335   24.0681 F   0  0  0  0  0  0  0  0  0  0  0  0
  -19.3156  -27.5100   19.8130 F   0  0  0  0  0  0  0  0  0  0  0  0
  1  2  1  0  0  0  0
  1  5  2  0  0  0  0
  2  6  2  0  0  0  0
  3  8  2  0  0  0  0
  3 17  1  0  0  0  0
  4  9  1  0  0  0  0
  4 17  2  0  0  0  0
  5 19  1  0  0  0  0
  6 21  1  0  0  0  0
  7 10  2  0  0  0  0
  7 20  1  0  0  0  0
  8 24  1  0  0  0  0
  9 24  2  0  0  0  0
 10 25  1  0  0  0  0
 11 12  2  0  0  0  0
 11 26  1  0  0  0  0
 12 27  1  0  0  0  0
 13 22  1  0  0  0  0
 13 25  2  0  0  0  0
 14 23  1  0  0  0  0
 14 30  2  0  0  0  0
 15 27  2  0  0  0  0
 15 28  1  0  0  0  0
 16 23  2  0  0  0  0
 16 70  1  0  0  0  0
 17 29  1  0  0  0  0
 18 29  1  0  0  0  0
 18 31  2  0  0  0  0
 18 32  1  0  0  0  0
 19 21  2  0  0  0  0
 19 37  1  0  0  0  0
 20 22  2  0  0  0  0
 20 38  1  0  0  0  0
 21 51  1  0  0  0  0
 22 39  1  0  0  0  0
 23 50  1  0  0  0  0
 24 86  1  0  0  0  0
 25 87  1  0  0  0  0
 26 28  2  0  0  0  0
 26 86  1  0  0  0  0
 27 88  1  0  0  0  0
 28 89  1  0  0  0  0
 29 69  2  0  0  0  0
 30 55  1  0  0  0  0
 30 70  1  0  0  0  0
 31 71  1  0  0  0  0
 31 74  1  0  0  0  0
 32 75  1  0  0  0  0
 32 81  2  0  0  0  0
 33 52  1  0  0  0  0
 33 76  1  0  0  0  0
 33 82  2  0  0  0  0
 34 66  1  0  0  0  0
 34 72  1  0  0  0  0
 34 83  2  0  0  0  0
 35 67  1  0  0  0  0
 35 77  1  0  0  0  0
 35 84  2  0  0  0  0
 36 73  1  0  0  0  0
 36 78  1  0  0  0  0
 36 85  2  0  0  0  0
 37 40  1  0  0  0  0
 38 52  1  0  0  0  0
 39 72  1  0  0  0  0
 40 44  1  0  0  0  0
 41 45  1  0  0  0  0
 41 48  1  0  0  0  0
 42 46  1  0  0  0  0
 42 50  1  0  0  0  0
 43 47  1  0  0  0  0
 43 50  1  0  0  0  0
 44 51  1  0  0  0  0
 45 53  1  0  0  0  0
 46 54  1  0  0  0  0
 47 54  1  0  0  0  0
 48 73  1  0  0  0  0
 49 53  1  0  0  0  0
 49 73  1  0  0  0  0
 51 76  1  0  0  0  0
 52 72  1  0  0  0  0
 53 71  1  0  0  0  0
 54 79  1  0  0  0  0
 56 67  1  0  0  0  0
 57 68  1  0  0  0  0
 58 68  1  0  0  0  0
 59 68  1  0  0  0  0
 60 80  1  0  0  0  0
 61 63  1  0  0  0  0
 61 64  1  0  0  0  0
 62 65  1  0  0  0  0
 62 70  1  0  0  0  0
 63 78  1  0  0  0  0
 64 79  1  0  0  0  0
 65 87  1  0  0  0  0
 66 68  1  0  0  0  0
 66 77  1  0  0  0  0
 67 80  1  0  0  0  0
 69 71  1  0  0  0  0
M  CHG  2  79   1  80   1
M  ISO  4  36 100  65 101  78 100  87 101
M  END
> <Batch ID>
0125

> <Smiles>
CNC(C)C(=O)NC(C(=O)N1Cc2cc([101O:1][101CH2:1]Cn3cc(C4CCC(NCCC[100NH:0][100C:0](=O)N5CCCC(n6nc(-c7ccc(Oc8ccc(F)cc8F)cc7)c(C(N)=O)c6N)C5)CC4)cc3C)ccc2CC1C(=O)NC1CCCc2ccccc21)C(C)(C)C

> <Shape>
0.280

> <Color>
0.039

> <Negative vol penalty>
0.000

$$$$

  -OEChem-04052320353D

 85 93  0     1  0  0  0  0  0999 V2000
  -17.0022  -30.4682   23.3978 C   0  0  0  0  0  0  0  0  0  0  0  0
  -18.0046  -30.5926   24.3544 C   0  0  0  0  0  0  0  0  0  0  0  0
  -25.6301  -18.5951   20.4235 C   0  0  0  0  0  0  0  0  0  0  0  0
  -27.6952  -17.8009   21.3939 C   0  0  0  0  0  0  0  0  0  0  0  0
  -17.0860  -29.4704   22.4277 C   0  0  0  0  0  0  0  0  0  0  0  0
  -19.0909  -29.7185   24.3421 C   0  0  0  0  0  0  0  0  0  0  0  0
  -26.0946  -29.4958   25.8303 C   0  0  0  0  0  0  0  0  0  0  0  0
  -25.2078  -17.2779   20.2441 C   0  0  0  0  0  0  0  0  0  0  0  0
  -27.2729  -16.4837   21.2145 C   0  0  0  0  0  0  0  0  0  0  0  0
  -27.0167  -28.7506   26.5639 C   0  0  0  0  0  0  0  0  0  0  0  0
  -27.0815  -14.2519   18.6820 C   0  0  0  0  0  0  0  0  0  0  0  0
  -35.1650  -24.6461   24.4865 C   0  0  0  0  0  0  0  0  0  0  0  0
  -27.9995  -13.3430   18.1559 C   0  0  0  0  0  0  0  0  0  0  0  0
  -34.4433  -24.9249   25.6418 C   0  0  0  0  0  0  0  0  0  0  0  0
  -27.0954  -27.1152   24.7923 C   0  0  0  0  0  0  0  0  0  0  0  0
  -27.8129  -11.9979   20.1542 C   0  0  0  0  0  0  0  0  0  0  0  0
  -26.8738  -18.8566   20.9984 C   0  0  0  0  0  0  0  0  0  0  0  0
  -27.0956  -21.0333   22.3102 C   0  0  0  0  0  0  0  0  0  0  0  0
  -18.1787  -28.5897   22.3976 C   0  0  0  0  0  0  0  0  0  0  0  0
  -25.6571  -29.0500   24.5748 C   0  0  0  0  0  0  0  0  0  0  0  0
  -19.1888  -28.7071   23.3714 C   0  0  0  0  0  0  0  0  0  0  0  0
  -26.1697  -27.8579   24.0436 C   0  0  0  0  0  0  0  0  0  0  0  0
  -26.0292  -16.2222   20.6396 C   0  0  0  0  0  0  0  0  0  0  0  0
  -27.5151  -27.5586   26.0462 C   0  0  0  0  0  0  0  0  0  0  0  0
  -26.5292  -14.0339   19.9442 C   0  0  0  0  0  0  0  0  0  0  0  0
  -34.6763  -25.0581   23.2517 C   0  0  0  0  0  0  0  0  0  0  0  0
  -28.3651  -12.2160   18.8920 C   0  0  0  0  0  0  0  0  0  0  0  0
  -26.8949  -12.9069   20.6803 C   0  0  0  0  0  0  0  0  0  0  0  0
  -27.3109  -20.2171   21.1835 C   0  0  0  0  0  0  0  0  0  0  0  0
  -33.4705  -25.7402   23.2263 C   0  0  0  0  0  0  0  0  0  0  0  0
  -33.2480  -25.6131   25.5094 C   0  0  0  0  0  0  0  0  0  0  0  0
  -27.7033  -22.2235   21.9931 C   0  0  0  0  0  0  0  0  0  0  0  0
  -26.4079  -20.7416   23.5340 C   0  0  0  0  0  0  0  0  0  0  0  0
  -22.8493  -28.2039   23.3484 C   0  0  0  0  0  0  0  0  0  0  0  0
  -24.5434  -28.0432   20.5868 C   0  0  0  0  0  0  0  0  0  0  0  0
  -27.5730  -27.6529   19.0650 C   0  0  0  0  0  0  0  0  0  0  0  0
  -32.0164  -25.0794   19.8986 C   0  0  0  0  0  0  0  0  0  0  0  0
  -18.2020  -27.4969   21.3583 C   0  0  0  0  0  0  0  0  0  0  0  0
  -24.6822  -29.8790   23.7843 C   0  0  0  0  0  0  0  0  0  0  0  0
  -25.7473  -27.3460   22.6915 C   0  0  0  0  0  0  0  0  0  0  0  0
  -19.5733  -26.8486   21.1868 C   0  0  0  0  0  0  0  0  0  0  0  0
  -29.5662  -23.9011   17.5997 C   0  0  0  0  0  0  0  0  0  0  0  0
  -20.1831  -26.5216   22.5462 C   0  0  0  0  0  0  0  0  0  0  0  0
  -28.7478  -22.9009   18.4181 C   0  0  0  0  0  0  0  0  0  0  0  0
  -31.0462  -23.8590   17.9735 C   0  0  0  0  0  0  0  0  0  0  0  0
  -30.5084  -23.0269   20.2300 C   0  0  0  0  0  0  0  0  0  0  0  0
  -20.3953  -27.7936   23.3759 C   0  0  1  0  0  0  0  0  0  0  0  0
  -23.9172  -29.0695   22.7418 C   0  0  1  0  0  0  0  0  0  0  0  0
  -29.0007  -23.0719   19.9281 C   0  0  2  0  0  0  0  0  0  0  0  0
  -32.0682  -27.4857   22.0651 C   0  0  0  0  0  0  0  0  0  0  0  0
  -29.2472  -27.5707   17.1975 C   0  0  0  0  0  0  0  0  0  0  0  0
  -23.4870  -25.2004   20.2507 C   0  0  0  0  0  0  0  0  0  0  0  0
  -25.2779  -24.8111   18.5449 C   0  0  0  0  0  0  0  0  0  0  0  0
  -23.5353  -26.5511   18.1464 C   0  0  0  0  0  0  0  0  0  0  0  0
  -28.1125  -30.5560   19.2655 C   0  0  0  0  0  0  0  0  0  0  0  0
  -36.6046  -24.0812   22.2604 C   0  0  0  0  0  0  0  0  0  0  0  0
  -30.6007  -26.7970   27.7812 C   0  0  0  0  0  0  0  0  0  0  0  0
  -29.2859  -27.5465   27.6336 C   0  0  0  0  0  0  0  0  0  1  0  0
  -31.3002  -26.6069   26.4444 C   0  0  0  0  0  0  0  0  0  0  0  0
  -32.9016  -26.2045   21.9257 C   0  0  2  0  0  0  0  0  0  0  0  0
  -25.3308  -26.9686   19.8767 C   0  0  1  0  0  0  0  0  0  0  0  0
  -28.2503  -28.4348   17.9539 C   0  0  2  0  0  0  0  0  0  0  0  0
  -24.4145  -25.8912   19.2310 C   0  0  0  0  0  0  0  0  0  0  0  0
  -28.0013  -20.8365   20.2225 N   0  0  0  0  0  0  0  0  0  0  0  0
  -32.7412  -26.0294   24.3273 N   0  0  0  0  0  0  0  0  0  0  0  0
  -28.2250  -22.0546   20.7443 N   0  0  0  0  0  0  0  0  0  0  0  0
  -24.7874  -28.1890   21.9598 N   0  0  0  0  0  0  0  0  0  0  0  0
  -31.2173  -24.0287   19.4184 N   0  0  0  0  0  0  0  0  0  0  0  0
  -27.8369  -23.3876   22.6634 N   0  0  0  0  0  0  0  0  0  0  0  0
  -25.8419  -19.4697   23.6955 N   0  0  0  0  0  0  0  0  0  0  0  0
  -21.5705  -28.5045   22.9196 N   0  0  0  0  0  0  0  0  0  0  0  0
  -26.2008  -27.6583   18.9301 N   0  0  0  0  0  0  0  0  0  0  0  0
  -32.1204  -25.1726   21.2810 N   0  0  0  0  0  0  0  0  0  0  0  0
  -28.9767  -29.6088   18.5151 N   0  3  0  0  0  0  0  0  0  0  0  0
  -26.2843  -21.5894   24.4502 O   0  0  0  0  0  0  0  0  0  0  0  0
  -23.1624  -27.3272   24.1453 O   0  0  0  0  0  0  0  0  0  0  0  0
  -23.7465  -28.7326   19.9455 O   0  0  0  0  0  0  0  0  0  0  0  0
  -28.1989  -27.0904   19.9607 O   0  0  0  0  0  0  0  0  0  0  0  0
  -32.5900  -25.8786   19.1508 O   0  0  0  0  0  0  0  0  0  0  0  0
  -25.6173  -14.9367   20.4648 O   0  0  0  0  0  0  0  0  0  0  0  0
  -35.3731  -24.7907   22.1179 O   0  0  0  0  0  0  0  0  0  0  0  0
  -28.4147  -26.8289   26.7604 O   0  0  0  0  0  0  0  0  0  1  0  0
  -32.5183  -25.8995   26.6337 O   0  0  0  0  0  0  0  0  0  0  0  0
  -29.2455  -11.3425   18.3860 F   0  0  0  0  0  0  0  0  0  0  0  0
  -26.3668  -12.6914   21.8929 F   0  0  0  0  0  0  0  0  0  0  0  0
  1  2  1  0  0  0  0
  1  5  2  0  0  0  0
  2  6  2  0  0  0  0
  3  8  2  0  0  0  0
  3 17  1  0  0  0  0
  4  9  1  0  0  0  0
  4 17  2  0  0  0  0
  5 19  1  0  0  0  0
  6 21  1  0  0  0  0
  7 10  2  0  0  0  0
  7 20  1  0  0  0  0
  8 23  1  0  0  0  0
  9 23  2  0  0  0  0
 10 24  1  0  0  0  0
 11 13  2  0  0  0  0
 11 25  1  0  0  0  0
 12 14  2  0  0  0  0
 12 26  1  0  0  0  0
 13 27  1  0  0  0  0
 14 31  1  0  0  0  0
 15 22  1  0  0  0  0
 15 24  2  0  0  0  0
 16 27  2  0  0  0  0
 16 28  1  0  0  0  0
 17 29  1  0  0  0  0
 18 29  1  0  0  0  0
 18 32  2  0  0  0  0
 18 33  1  0  0  0  0
 19 21  2  0  0  0  0
 19 38  1  0  0  0  0
 20 22  2  0  0  0  0
 20 39  1  0  0  0  0
 21 47  1  0  0  0  0
 22 40  1  0  0  0  0
 23 80  1  0  0  0  0
 24 82  1  0  0  0  0
 25 28  2  0  0  0  0
 25 80  1  0  0  0  0
 26 30  2  0  0  0  0
 26 81  1  0  0  0  0
 27 84  1  0  0  0  0
 28 85  1  0  0  0  0
 29 64  2  0  0  0  0
 30 60  1  0  0  0  0
 30 65  1  0  0  0  0
 31 65  2  0  0  0  0
 31 83  1  0  0  0  0
 32 66  1  0  0  0  0
 32 69  1  0  0  0  0
 33 70  1  0  0  0  0
 33 75  2  0  0  0  0
 34 48  1  0  0  0  0
 34 71  1  0  0  0  0
 34 76  2  0  0  0  0
 35 61  1  0  0  0  0
 35 67  1  0  0  0  0
 35 77  2  0  0  0  0
 36 62  1  0  0  0  0
 36 72  1  0  0  0  0
 36 78  2  0  0  0  0
 37 68  1  0  0  0  0
 37 73  1  0  0  0  0
 37 79  2  0  0  0  0
 38 41  1  0  0  0  0
 39 48  1  0  0  0  0
 40 67  1  0  0  0  0
 41 43  1  0  0  0  0
 42 44  1  0  0  0  0
 42 45  1  0  0  0  0
 43 47  1  0  0  0  0
 44 49  1  0  0  0  0
 45 68  1  0  0  0  0
 46 49  1  0  0  0  0
 46 68  1  0  0  0  0
 47 71  1  0  0  0  0
 48 67  1  0  0  0  0
 49 66  1  0  0  0  0
 50 60  1  0  0  0  0
 51 62  1  0  0  0  0
 52 63  1  0  0  0  0
 53 63  1  0  0  0  0
 54 63  1  0  0  0  0
 55 74  1  0  0  0  0
 56 81  1  0  0  0  0
 57 58  1  0  0  0  0
 57 59  1  0  0  0  0
 58 82  1  0  0  0  0
 59 83  1  0  0  0  0
 60 73  1  0  0  0  0
 61 63  1  0  0  0  0
 61 72  1  0  0  0  0
 62 74  1  0  0  0  0
 64 66  1  0  0  0  0
M  CHG  1  74   1
M  ISO  4  37 100  58 101  73 100  82 101
M  END
> <Batch ID>
0125

> <Smiles>
CNC(C)C(=O)NC(C(=O)N1Cc2cc([101O:1][101CH2:1]CCOc3ccc(OC)c(C(C)[100NH:0][100C:0](=O)N4CCCC(n5nc(-c6ccc(Oc7ccc(F)cc7F)cc6)c(C(N)=O)c5N)C4)n3)ccc2CC1C(=O)NC1CCCc2ccccc21)C(C)(C)C

> <Shape>
0.233

> <Color>
0.080

> <Negative vol penalty>
0.000

$$$$

  -OEChem-04052320353D

 85 93  0     1  0  0  0  0  0999 V2000
  -11.7514  -24.7107   22.2772 C   0  0  0  0  0  0  0  0  0  0  0  0
  -12.7252  -23.7306   22.4402 C   0  0  0  0  0  0  0  0  0  0  0  0
  -23.0139   -9.9659   19.9445 C   0  0  0  0  0  0  0  0  0  0  0  0
  -23.8028   -9.9109   22.2274 C   0  0  0  0  0  0  0  0  0  0  0  0
  -12.0464  -25.8735   21.5667 C   0  0  0  0  0  0  0  0  0  0  0  0
  -13.9943  -23.9123   21.8917 C   0  0  0  0  0  0  0  0  0  0  0  0
  -20.8811  -22.3720   23.1231 C   0  0  0  0  0  0  0  0  0  0  0  0
  -22.2375   -8.8325   20.1855 C   0  0  0  0  0  0  0  0  0  0  0  0
  -23.0263   -8.7775   22.4684 C   0  0  0  0  0  0  0  0  0  0  0  0
  -21.9862  -21.8009   22.4936 C   0  0  0  0  0  0  0  0  0  0  0  0
  -19.2843   -8.1042   21.6625 C   0  0  0  0  0  0  0  0  0  0  0  0
  -17.9706   -8.1068   21.1939 C   0  0  0  0  0  0  0  0  0  0  0  0
  -22.4063  -23.8849   21.3537 C   0  0  0  0  0  0  0  0  0  0  0  0
  -26.6458  -20.0522   21.1005 C   0  0  0  0  0  0  0  0  0  0  0  0
  -18.4521   -6.1696   19.8329 C   0  0  0  0  0  0  0  0  0  0  0  0
  -23.7966  -10.5051   20.9655 C   0  0  0  0  0  0  0  0  0  0  0  0
  -24.2160  -13.0200   20.8821 C   0  0  0  0  0  0  0  0  0  0  0  0
  -13.3227  -26.0738   21.0175 C   0  0  0  0  0  0  0  0  0  0  0  0
  -20.5232  -23.7028   22.8638 C   0  0  0  0  0  0  0  0  0  0  0  0
  -14.3062  -25.0782   21.1720 C   0  0  0  0  0  0  0  0  0  0  0  0
  -21.2976  -24.4713   21.9831 C   0  0  0  0  0  0  0  0  0  0  0  0
  -25.3521  -20.2233   20.5490 C   0  0  0  0  0  0  0  0  0  0  0  0
  -22.2436   -8.2383   21.4474 C   0  0  0  0  0  0  0  0  0  0  0  0
  -22.7473  -22.5565   21.6066 C   0  0  0  0  0  0  0  0  0  0  0  0
  -20.1821   -7.1343   21.2162 C   0  0  0  0  0  0  0  0  0  0  0  0
  -17.5545   -7.1395   20.2791 C   0  0  0  0  0  0  0  0  0  0  0  0
  -19.7659   -6.1670   20.3014 C   0  0  0  0  0  0  0  0  0  0  0  0
  -24.5994  -11.6756   20.7170 C   0  0  0  0  0  0  0  0  0  0  0  0
  -27.4822  -19.6678   20.0759 C   0  0  0  0  0  0  0  0  0  0  0  0
  -25.4373  -19.9381   19.2041 C   0  0  0  0  0  0  0  0  0  0  0  0
  -25.3265  -13.7410   20.5166 C   0  0  0  0  0  0  0  0  0  0  0  0
  -22.9678  -13.5681   21.3261 C   0  0  0  0  0  0  0  0  0  0  0  0
  -17.9730  -25.1390   21.6238 C   0  0  0  0  0  0  0  0  0  0  0  0
  -19.5515  -27.8354   22.4956 C   0  0  0  0  0  0  0  0  0  0  0  0
  -22.5249  -29.3461   23.2192 C   0  0  0  0  0  0  0  0  0  0  0  0
  -30.8415  -14.5853   20.6490 C   0  0  0  0  0  0  0  0  0  0  0  0
  -13.5802  -27.3259   20.2171 C   0  0  0  0  0  0  0  0  0  0  0  0
  -19.3439  -24.3121   23.5713 C   0  0  0  0  0  0  0  0  0  0  0  0
  -20.9675  -25.9105   21.6861 C   0  0  0  0  0  0  0  0  0  0  0  0
  -15.0628  -27.6080   19.9878 C   0  0  0  0  0  0  0  0  0  0  0  0
  -29.5993  -12.2776   18.2389 C   0  0  0  0  0  0  0  0  0  0  0  0
  -15.7842  -26.3411   19.5391 C   0  0  0  0  0  0  0  0  0  0  0  0
  -28.1590  -12.0216   18.6860 C   0  0  0  0  0  0  0  0  0  0  0  0
  -30.5381  -12.4496   19.4310 C   0  0  0  0  0  0  0  0  0  0  0  0
  -28.6780  -13.2164   20.8544 C   0  0  0  0  0  0  0  0  0  0  0  0
  -15.7020  -25.2497   20.6131 C   0  0  1  0  0  0  0  0  0  0  0  0
  -18.7679  -25.5209   22.8404 C   0  0  1  0  0  0  0  0  0  0  0  0
  -27.6840  -13.0920   19.6871 C   0  0  2  0  0  0  0  0  0  0  0  0
  -24.3925  -19.9573   18.1582 C   0  0  0  0  0  0  0  0  0  0  0  0
  -23.5014  -31.5672   23.8601 C   0  0  0  0  0  0  0  0  0  0  0  0
  -27.7681  -17.7947   17.5987 C   0  0  0  0  0  0  0  0  0  0  0  0
  -28.2946  -20.2230   17.1165 C   0  0  0  0  0  0  0  0  0  0  0  0
  -19.2273  -28.8047   19.6207 C   0  0  0  0  0  0  0  0  0  0  0  0
  -20.9952  -30.5189   20.0730 C   0  0  0  0  0  0  0  0  0  0  0  0
  -18.8598  -30.5619   21.3618 C   0  0  0  0  0  0  0  0  0  0  0  0
  -23.5710  -28.2796   25.7740 C   0  0  0  0  0  0  0  0  0  0  0  0
  -24.1210  -20.6396   21.2989 C   0  0  0  0  0  0  0  0  0  1  0  0
  -28.9270  -19.3598   20.0984 C   0  0  0  0  0  0  0  0  0  0  0  0
  -30.9906  -16.7118   21.9197 C   0  0  0  0  0  0  0  0  0  0  0  0
  -30.7323  -17.8789   20.9852 C   0  0  0  0  0  0  0  0  0  0  0  0
  -20.5560  -28.7475   21.8337 C   0  0  1  0  0  0  0  0  0  0  0  0
  -22.9443  -30.2462   24.3674 C   0  0  2  0  0  0  0  0  0  0  0  0
  -27.2449  -19.2322   17.6233 C   0  0  0  0  0  0  0  0  0  0  0  0
  -19.9149  -29.6306   20.7262 C   0  0  0  0  0  0  0  0  0  0  0  0
  -25.8552  -11.5473   20.2805 N   0  0  0  0  0  0  0  0  0  0  0  0
  -26.7367  -19.6014   18.9278 N   0  0  0  0  0  0  0  0  0  0  0  0
  -26.2706  -12.8205   20.1681 N   0  0  0  0  0  0  0  0  0  0  0  0
  -19.8013  -26.4592   22.3978 N   0  0  0  0  0  0  0  0  0  0  0  0
  -30.0314  -13.4799   20.3408 N   0  0  0  0  0  0  0  0  0  0  0  0
  -25.5777  -15.0663   20.4625 N   0  0  0  0  0  0  0  0  0  0  0  0
  -21.9322  -12.6855   21.6619 N   0  0  0  0  0  0  0  0  0  0  0  0
  -16.6449  -25.5167   21.6781 N   0  0  0  0  0  0  0  0  0  0  0  0
  -21.1908  -29.5034   22.9079 N   0  0  0  0  0  0  0  0  0  0  0  0
  -30.2825  -15.5181   21.5139 N   0  0  0  0  0  0  0  0  0  0  0  0
  -23.9918  -29.5800   25.1918 N   0  3  0  0  0  0  0  0  0  0  0  0
  -29.2901  -18.2274   21.0038 N   0  3  0  0  0  0  0  0  0  0  0  0
  -22.7711  -14.8044   21.4066 O   0  0  0  0  0  0  0  0  0  0  0  0
  -18.5241  -24.5468   20.7034 O   0  0  0  0  0  0  0  0  0  0  0  0
  -18.5848  -28.3261   23.0841 O   0  0  0  0  0  0  0  0  0  0  0  0
  -23.3037  -28.5828   22.6524 O   0  0  0  0  0  0  0  0  0  0  0  0
  -31.9765  -14.7328   20.1833 O   0  0  0  0  0  0  0  0  0  0  0  0
  -21.4858   -7.1325   21.6830 O   0  0  0  0  0  0  0  0  0  0  0  0
  -23.8262  -22.0013   20.9903 O   0  0  0  0  0  0  0  0  0  1  0  0
  -16.2924   -7.1413   19.8304 F   0  0  0  0  0  0  0  0  0  0  0  0
  -20.6235   -5.2319   19.8700 F   0  0  0  0  0  0  0  0  0  0  0  0
  1  2  1  0  0  0  0
  1  5  2  0  0  0  0
  2  6  2  0  0  0  0
  3  8  2  0  0  0  0
  3 16  1  0  0  0  0
  4  9  1  0  0  0  0
  4 16  2  0  0  0  0
  5 18  1  0  0  0  0
  6 20  1  0  0  0  0
  7 10  2  0  0  0  0
  7 19  1  0  0  0  0
  8 23  1  0  0  0  0
  9 23  2  0  0  0  0
 10 24  1  0  0  0  0
 11 12  2  0  0  0  0
 11 25  1  0  0  0  0
 12 26  1  0  0  0  0
 13 21  1  0  0  0  0
 13 24  2  0  0  0  0
 14 22  1  0  0  0  0
 14 29  2  0  0  0  0
 15 26  2  0  0  0  0
 15 27  1  0  0  0  0
 16 28  1  0  0  0  0
 17 28  1  0  0  0  0
 17 31  2  0  0  0  0
 17 32  1  0  0  0  0
 18 20  2  0  0  0  0
 18 37  1  0  0  0  0
 19 21  2  0  0  0  0
 19 38  1  0  0  0  0
 20 46  1  0  0  0  0
 21 39  1  0  0  0  0
 22 30  2  0  0  0  0
 22 57  1  0  0  0  0
 23 82  1  0  0  0  0
 24 83  1  0  0  0  0
 25 27  2  0  0  0  0
 25 82  1  0  0  0  0
 26 84  1  0  0  0  0
 27 85  1  0  0  0  0
 28 65  2  0  0  0  0
 29 58  1  0  0  0  0
 29 66  1  0  0  0  0
 30 49  1  0  0  0  0
 30 66  1  0  0  0  0
 31 67  1  0  0  0  0
 31 70  1  0  0  0  0
 32 71  1  0  0  0  0
 32 77  2  0  0  0  0
 33 47  1  0  0  0  0
 33 72  1  0  0  0  0
 33 78  2  0  0  0  0
 34 61  1  0  0  0  0
 34 68  1  0  0  0  0
 34 79  2  0  0  0  0
 35 62  1  0  0  0  0
 35 73  1  0  0  0  0
 35 80  2  0  0  0  0
 36 69  1  0  0  0  0
 36 74  1  0  0  0  0
 36 81  2  0  0  0  0
 37 40  1  0  0  0  0
 38 47  1  0  0  0  0
 39 68  1  0  0  0  0
 40 42  1  0  0  0  0
 41 43  1  0  0  0  0
 41 44  1  0  0  0  0
 42 46  1  0  0  0  0
 43 48  1  0  0  0  0
 44 69  1  0  0  0  0
 45 48  1  0  0  0  0
 45 69  1  0  0  0  0
 46 72  1  0  0  0  0
 47 68  1  0  0  0  0
 48 67  1  0  0  0  0
 50 62  1  0  0  0  0
 51 63  1  0  0  0  0
 52 63  1  0  0  0  0
 53 64  1  0  0  0  0
 54 64  1  0  0  0  0
 55 64  1  0  0  0  0
 56 75  1  0  0  0  0
 57 83  1  0  0  0  0
 58 76  1  0  0  0  0
 59 60  1  0  0  0  0
 59 74  1  0  0  0  0
 60 76  1  0  0  0  0
 61 64  1  0  0  0  0
 61 73  1  0  0  0  0
 62 75  1  0  0  0  0
 63 66  1  0  0  0  0
 65 67  1  0  0  0  0
M  CHG  2  75   1  76   1
M  ISO  4  36 100  57 101  74 100  83 101
M  END
> <Batch ID>
0125

> <Smiles>
CNC(C)C(=O)NC(C(=O)N1Cc2cc([101O:1][101CH2:1]c3cc(CNCC[100NH:0][100C:0](=O)N4CCCC(n5nc(-c6ccc(Oc7ccc(F)cc7F)cc6)c(C(N)=O)c5N)C4)n(C(C)C)c3C)ccc2CC1C(=O)NC1CCCc2ccccc21)C(C)(C)C

> <Shape>
0.252

> <Color>
0.217

> <Negative vol penalty>
0.000

$$$$

  -OEChem-04052320353D

 84 93  0     1  0  0  0  0  0999 V2000
  -20.3338  -30.2945   24.9338 C   0  0  0  0  0  0  0  0  0  0  0  0
  -21.5973  -29.8031   24.6213 C   0  0  0  0  0  0  0  0  0  0  0  0
  -28.2616  -17.7077   18.3848 C   0  0  0  0  0  0  0  0  0  0  0  0
  -28.6681  -17.3202   20.7346 C   0  0  0  0  0  0  0  0  0  0  0  0
  -19.2007  -29.7111   24.3684 C   0  0  0  0  0  0  0  0  0  0  0  0
  -21.7282  -28.7273   23.7438 C   0  0  0  0  0  0  0  0  0  0  0  0
  -25.4001  -29.4406   20.3300 C   0  0  0  0  0  0  0  0  0  0  0  0
  -28.4153  -16.3443   18.1334 C   0  0  0  0  0  0  0  0  0  0  0  0
  -28.8217  -15.9568   20.4832 C   0  0  0  0  0  0  0  0  0  0  0  0
  -26.7128  -29.2435   20.7562 C   0  0  0  0  0  0  0  0  0  0  0  0
  -28.9641  -12.3240   20.5140 C   0  0  0  0  0  0  0  0  0  0  0  0
  -28.3284  -11.4294   21.3748 C   0  0  0  0  0  0  0  0  0  0  0  0
  -26.7059  -27.0535   19.7447 C   0  0  0  0  0  0  0  0  0  0  0  0
  -31.8417  -29.0118   21.3238 C   0  0  0  0  0  0  0  0  0  0  0  0
  -26.1891  -12.3894   20.7925 C   0  0  0  0  0  0  0  0  0  0  0  0
  -28.3881  -18.1956   19.6854 C   0  0  0  0  0  0  0  0  0  0  0  0
  -27.0376  -20.2811   20.2638 C   0  0  0  0  0  0  0  0  0  0  0  0
  -19.3185  -28.6339   23.4760 C   0  0  0  0  0  0  0  0  0  0  0  0
  -24.7256  -28.4397   19.6162 C   0  0  0  0  0  0  0  0  0  0  0  0
  -20.5956  -28.1281   23.1669 C   0  0  0  0  0  0  0  0  0  0  0  0
  -25.3856  -27.2414   19.3083 C   0  0  0  0  0  0  0  0  0  0  0  0
  -30.6692  -28.5228   21.9508 C   0  0  0  0  0  0  0  0  0  0  0  0
  -28.6953  -15.4688   19.1826 C   0  0  0  0  0  0  0  0  0  0  0  0
  -27.3649  -28.0487   20.4661 C   0  0  0  0  0  0  0  0  0  0  0  0
  -28.2124  -13.2514   19.7925 C   0  0  0  0  0  0  0  0  0  0  0  0
  -26.9409  -11.4621   21.5141 C   0  0  0  0  0  0  0  0  0  0  0  0
  -26.8249  -13.2840   19.9317 C   0  0  0  0  0  0  0  0  0  0  0  0
  -28.2301  -19.6040   19.9457 C   0  0  0  0  0  0  0  0  0  0  0  0
  -31.0641  -27.6293   22.9219 C   0  0  0  0  0  0  0  0  0  0  0  0
  -32.9175  -28.4021   21.9308 C   0  0  0  0  0  0  0  0  0  0  0  0
  -27.4172  -21.5924   20.4152 C   0  0  0  0  0  0  0  0  0  0  0  0
  -25.7058  -19.7704   20.4095 C   0  0  0  0  0  0  0  0  0  0  0  0
  -22.1208  -26.6902   20.1240 C   0  0  0  0  0  0  0  0  0  0  0  0
  -22.6885  -25.6716   17.0971 C   0  0  0  0  0  0  0  0  0  0  0  0
  -24.9361  -25.1991   14.5729 C   0  0  0  0  0  0  0  0  0  0  0  0
  -32.5710  -24.0462   21.9228 C   0  0  0  0  0  0  0  0  0  0  0  0
  -18.0622  -28.0057   22.9267 C   0  0  0  0  0  0  0  0  0  0  0  0
  -23.3188  -28.6784   19.1404 C   0  0  0  0  0  0  0  0  0  0  0  0
  -24.7126  -26.1435   18.5273 C   0  0  0  0  0  0  0  0  0  0  0  0
  -18.3084  -27.1104   21.7151 C   0  0  0  0  0  0  0  0  0  0  0  0
  -30.6923  -24.7406   18.9086 C   0  0  0  0  0  0  0  0  0  0  0  0
  -19.4908  -26.1809   21.9696 C   0  0  0  0  0  0  0  0  0  0  0  0
  -29.1511  -27.6144   24.7142 C   0  0  0  0  0  0  0  0  0  0  0  0
  -30.3406  -26.9695   25.3541 C   0  0  0  0  0  0  0  0  0  0  0  0
  -29.7290  -23.5528   18.8701 C   0  0  0  0  0  0  0  0  0  0  0  0
  -32.0672  -24.3211   19.4202 C   0  0  0  0  0  0  0  0  0  0  0  0
  -31.0897  -22.4671   20.7167 C   0  0  0  0  0  0  0  0  0  0  0  0
  -20.7800  -26.9786   22.2001 C   0  0  1  0  0  0  0  0  0  0  0  0
  -30.1381  -26.8487   23.8581 C   0  0  0  0  0  0  0  0  0  0  0  0
  -22.5538  -27.3874   18.8655 C   0  0  1  0  0  0  0  0  0  0  0  0
  -29.6753  -22.8307   20.2295 C   0  0  2  0  0  0  0  0  0  0  0  0
  -34.3636  -28.5501   21.6656 C   0  0  0  0  0  0  0  0  0  0  0  0
  -25.1117  -24.3126   12.2318 C   0  0  0  0  0  0  0  0  0  0  0  0
  -34.1370  -27.5893   24.6674 C   0  0  0  0  0  0  0  0  0  0  0  0
  -22.5945  -22.8180   18.1733 C   0  0  0  0  0  0  0  0  0  0  0  0
  -23.6934  -22.0576   16.0561 C   0  0  0  0  0  0  0  0  0  0  0  0
  -21.4483  -23.1419   15.9742 C   0  0  0  0  0  0  0  0  0  0  0  0
  -25.7931  -27.8280   13.5177 C   0  0  0  0  0  0  0  0  0  0  0  0
  -29.2615  -28.9149   21.6101 C   0  0  0  0  0  0  0  0  0  1  0  0
  -34.0737  -25.7047   22.9943 C   0  0  0  0  0  0  0  0  0  0  0  0
  -23.4870  -24.5495   16.4787 C   0  0  1  0  0  0  0  0  0  0  0  0
  -24.8784  -25.5425   13.0953 C   0  0  2  0  0  0  0  0  0  0  0  0
  -33.2360  -26.7327   23.7714 C   0  0  2  0  0  0  0  0  0  0  0  0
  -22.8181  -23.1615   16.6870 C   0  0  0  0  0  0  0  0  0  0  0  0
  -29.2880  -20.4178   19.8974 N   0  0  0  0  0  0  0  0  0  0  0  0
  -32.4328  -27.5637   22.9004 N   0  0  0  0  0  0  0  0  0  0  0  0
  -28.7616  -21.6199   20.1871 N   0  0  0  0  0  0  0  0  0  0  0  0
  -23.3348  -26.4219   18.0896 N   0  0  0  0  0  0  0  0  0  0  0  0
  -31.9477  -23.6566   20.7257 N   0  0  0  0  0  0  0  0  0  0  0  0
  -26.7288  -22.7130   20.7198 N   0  0  0  0  0  0  0  0  0  0  0  0
  -25.4918  -18.3984   20.2195 N   0  0  0  0  0  0  0  0  0  0  0  0
  -21.3110  -27.4557   20.9412 N   0  0  0  0  0  0  0  0  0  0  0  0
  -23.6862  -24.9130   15.0800 N   0  0  0  0  0  0  0  0  0  0  0  0
  -33.3721  -25.1787   21.8444 N   0  0  0  0  0  0  0  0  0  0  0  0
  -25.9166  -26.5571   12.7583 N   0  3  0  0  0  0  0  0  0  0  0  0
  -24.7315  -20.5116   20.6835 O   0  0  0  0  0  0  0  0  0  0  0  0
  -22.4924  -25.5421   20.3372 O   0  0  0  0  0  0  0  0  0  0  0  0
  -21.5363  -25.8794   16.7086 O   0  0  0  0  0  0  0  0  0  0  0  0
  -25.9856  -25.1825   15.2123 O   0  0  0  0  0  0  0  0  0  0  0  0
  -32.4204  -23.4328   22.9850 O   0  0  0  0  0  0  0  0  0  0  0  0
  -28.8450  -14.1384   18.9376 O   0  0  0  0  0  0  0  0  0  0  0  0
  -28.6460  -27.8534   20.8815 O   0  0  0  0  0  0  0  0  0  1  0  0
  -26.3303  -10.6019   22.3396 F   0  0  0  0  0  0  0  0  0  0  0  0
  -26.0973  -14.1719   19.2402 F   0  0  0  0  0  0  0  0  0  0  0  0
  1  2  1  0  0  0  0
  1  5  2  0  0  0  0
  2  6  2  0  0  0  0
  3  8  2  0  0  0  0
  3 16  1  0  0  0  0
  4  9  1  0  0  0  0
  4 16  2  0  0  0  0
  5 18  1  0  0  0  0
  6 20  1  0  0  0  0
  7 10  2  0  0  0  0
  7 19  1  0  0  0  0
  8 23  1  0  0  0  0
  9 23  2  0  0  0  0
 10 24  1  0  0  0  0
 11 12  2  0  0  0  0
 11 25  1  0  0  0  0
 12 26  1  0  0  0  0
 13 21  1  0  0  0  0
 13 24  2  0  0  0  0
 14 22  1  0  0  0  0
 14 30  2  0  0  0  0
 15 26  2  0  0  0  0
 15 27  1  0  0  0  0
 16 28  1  0  0  0  0
 17 28  1  0  0  0  0
 17 31  2  0  0  0  0
 17 32  1  0  0  0  0
 18 20  2  0  0  0  0
 18 37  1  0  0  0  0
 19 21  2  0  0  0  0
 19 38  1  0  0  0  0
 20 48  1  0  0  0  0
 21 39  1  0  0  0  0
 22 29  2  0  0  0  0
 22 59  1  0  0  0  0
 23 81  1  0  0  0  0
 24 82  1  0  0  0  0
 25 27  2  0  0  0  0
 25 81  1  0  0  0  0
 26 83  1  0  0  0  0
 27 84  1  0  0  0  0
 28 65  2  0  0  0  0
 29 49  1  0  0  0  0
 29 66  1  0  0  0  0
 30 52  1  0  0  0  0
 30 66  1  0  0  0  0
 31 67  1  0  0  0  0
 31 70  1  0  0  0  0
 32 71  1  0  0  0  0
 32 76  2  0  0  0  0
 33 50  1  0  0  0  0
 33 72  1  0  0  0  0
 33 77  2  0  0  0  0
 34 61  1  0  0  0  0
 34 68  1  0  0  0  0
 34 78  2  0  0  0  0
 35 62  1  0  0  0  0
 35 73  1  0  0  0  0
 35 79  2  0  0  0  0
 36 69  1  0  0  0  0
 36 74  1  0  0  0  0
 36 80  2  0  0  0  0
 37 40  1  0  0  0  0
 38 50  1  0  0  0  0
 39 68  1  0  0  0  0
 40 42  1  0  0  0  0
 41 45  1  0  0  0  0
 41 46  1  0  0  0  0
 42 48  1  0  0  0  0
 43 44  1  0  0  0  0
 43 49  1  0  0  0  0
 44 49  1  0  0  0  0
 45 51  1  0  0  0  0
 46 69  1  0  0  0  0
 47 51  1  0  0  0  0
 47 69  1  0  0  0  0
 48 72  1  0  0  0  0
 50 68  1  0  0  0  0
 51 67  1  0  0  0  0
 53 62  1  0  0  0  0
 54 63  1  0  0  0  0
 55 64  1  0  0  0  0
 56 64  1  0  0  0  0
 57 64  1  0  0  0  0
 58 75  1  0  0  0  0
 59 82  1  0  0  0  0
 60 63  1  0  0  0  0
 60 74  1  0  0  0  0
 61 64  1  0  0  0  0
 61 73  1  0  0  0  0
 62 75  1  0  0  0  0
 63 66  1  0  0  0  0
 65 67  1  0  0  0  0
M  CHG  1  75   1
M  ISO  4  36 100  59 101  74 100  82 101
M  END
> <Batch ID>
0125

> <Smiles>
CNC(C)C(=O)NC(C(=O)N1Cc2cc([101O:1][101CH2:1]c3cc(C)n(C(C)C[100NH:0][100C:0](=O)N4CCCC(n5nc(-c6ccc(Oc7ccc(F)cc7F)cc6)c(C(N)=O)c5N)C4)c3C3CC3)ccc2CC1C(=O)NC1CCCc2ccccc21)C(C)(C)C

> <Shape>
0.228

> <Color>
0.062

> <Negative vol penalty>
0.000

$$$$

  -OEChem-04052320353D

 84 93  0     1  0  0  0  0  0999 V2000
  -32.2704  -13.6046   21.0533 C   0  0  0  0  0  0  0  0  0  0  0  0
  -31.6454  -14.8279   21.2730 C   0  0  0  0  0  0  0  0  0  0  0  0
  -28.9611  -25.9054   19.7780 C   0  0  0  0  0  0  0  0  0  0  0  0
  -26.9842  -24.7806   18.9632 C   0  0  0  0  0  0  0  0  0  0  0  0
  -31.5708  -12.5657   20.4408 C   0  0  0  0  0  0  0  0  0  0  0  0
  -30.3206  -15.0134   20.8793 C   0  0  0  0  0  0  0  0  0  0  0  0
  -26.0777  -18.4011   23.7125 C   0  0  0  0  0  0  0  0  0  0  0  0
  -29.7128  -24.7541   19.5436 C   0  0  0  0  0  0  0  0  0  0  0  0
  -27.7359  -23.6293   18.7287 C   0  0  0  0  0  0  0  0  0  0  0  0
  -25.6029  -19.6921   23.4852 C   0  0  0  0  0  0  0  0  0  0  0  0
  -28.9958  -21.0654   20.5371 C   0  0  0  0  0  0  0  0  0  0  0  0
  -28.4564  -19.8452   20.9442 C   0  0  0  0  0  0  0  0  0  0  0  0
  -23.3679  -23.5822   20.9565 C   0  0  0  0  0  0  0  0  0  0  0  0
  -23.7664  -18.7857   22.2104 C   0  0  0  0  0  0  0  0  0  0  0  0
  -21.2503  -23.2168   22.0365 C   0  0  0  0  0  0  0  0  0  0  0  0
  -28.5200  -19.0556   18.6617 C   0  0  0  0  0  0  0  0  0  0  0  0
  -23.0152  -24.9167   20.8360 C   0  0  0  0  0  0  0  0  0  0  0  0
  -27.5968  -25.9187   19.4879 C   0  0  0  0  0  0  0  0  0  0  0  0
  -26.5856  -28.1676   18.8341 C   0  0  0  0  0  0  0  0  0  0  0  0
  -30.2338  -12.7354   20.0481 C   0  0  0  0  0  0  0  0  0  0  0  0
  -25.4054  -17.2915   23.1803 C   0  0  0  0  0  0  0  0  0  0  0  0
  -29.6029  -13.9762   20.2597 C   0  0  0  0  0  0  0  0  0  0  0  0
  -24.2334  -17.4816   22.4344 C   0  0  0  0  0  0  0  0  0  0  0  0
  -22.4631  -22.7226   21.5694 C   0  0  0  0  0  0  0  0  0  0  0  0
  -29.1003  -23.6160   19.0189 C   0  0  0  0  0  0  0  0  0  0  0  0
  -24.4487  -19.8847   22.7317 C   0  0  0  0  0  0  0  0  0  0  0  0
  -29.2973  -21.2808   19.1923 C   0  0  0  0  0  0  0  0  0  0  0  0
  -28.2185  -18.8403   20.0065 C   0  0  0  0  0  0  0  0  0  0  0  0
  -29.0594  -20.2759   18.2546 C   0  0  0  0  0  0  0  0  0  0  0  0
  -26.8196  -27.1075   19.7303 C   0  0  0  0  0  0  0  0  0  0  0  0
  -20.9924  -24.5677   21.8679 C   0  0  0  0  0  0  0  0  0  0  0  0
  -25.7960  -29.0440   19.5376 C   0  0  0  0  0  0  0  0  0  0  0  0
  -27.0412  -28.3443   17.4862 C   0  0  0  0  0  0  0  0  0  0  0  0
  -26.1555  -14.9907   21.1193 C   0  0  0  0  0  0  0  0  0  0  0  0
  -23.2594  -13.8108   21.9814 C   0  0  0  0  0  0  0  0  0  0  0  0
  -20.1444  -14.4108   23.2396 C   0  0  0  0  0  0  0  0  0  0  0  0
  -22.0333  -28.3473   24.1428 C   0  0  0  0  0  0  0  0  0  0  0  0
  -29.5333  -11.5986   19.3468 C   0  0  0  0  0  0  0  0  0  0  0  0
  -25.9156  -15.9038   23.4569 C   0  0  0  0  0  0  0  0  0  0  0  0
  -23.4634  -16.3225   21.8581 C   0  0  0  0  0  0  0  0  0  0  0  0
  -28.0156  -11.7554   19.2987 C   0  0  0  0  0  0  0  0  0  0  0  0
  -17.7012  -28.0663   22.8435 C   0  0  0  0  0  0  0  0  0  0  0  0
  -24.8700  -30.4943   24.0019 C   0  0  0  0  0  0  0  0  0  0  0  0
  -27.6383  -13.1694   18.8685 C   0  0  0  0  0  0  0  0  0  0  0  0
  -25.6702  -29.9655   22.8103 C   0  0  0  0  0  0  0  0  0  0  0  0
  -17.8645  -26.6086   22.4070 C   0  0  0  0  0  0  0  0  0  0  0  0
  -19.0833  -28.5373   23.3055 C   0  0  0  0  0  0  0  0  0  0  0  0
  -24.2011  -29.3629   24.7794 C   0  0  0  0  0  0  0  0  0  0  0  0
  -24.1659  -27.9322   22.7731 C   0  0  0  0  0  0  0  0  0  0  0  0
  -28.1593  -14.2080   19.8692 C   0  0  1  0  0  0  0  0  0  0  0  0
  -25.4383  -14.8769   22.4347 C   0  0  1  0  0  0  0  0  0  0  0  0
  -24.8130  -29.0407   21.9253 C   0  0  2  0  0  0  0  0  0  0  0  0
  -19.3680  -26.4255   22.2360 C   0  0  1  0  0  0  0  0  0  0  0  0
  -19.9342  -27.2717   23.3707 C   0  0  1  0  0  0  0  0  0  0  0  0
  -17.9862  -13.2549   23.7906 C   0  0  0  0  0  0  0  0  0  0  0  0
  -22.5514  -13.7236   19.0147 C   0  0  0  0  0  0  0  0  0  0  0  0
  -20.1458  -13.4882   19.6671 C   0  0  0  0  0  0  0  0  0  0  0  0
  -21.7926  -11.7346   20.3272 C   0  0  0  0  0  0  0  0  0  0  0  0
  -20.3632  -15.1173   26.1052 C   0  0  0  0  0  0  0  0  0  0  0  0
  -22.7954  -21.2680   21.7271 C   0  0  0  0  0  0  0  0  0  1  0  0
  -21.8443  -13.9819   21.4844 C   0  0  1  0  0  0  0  0  0  0  0  0
  -19.3401  -13.7055   24.3167 C   0  0  2  0  0  0  0  0  0  0  0  0
  -21.5989  -13.2543   20.1324 C   0  0  0  0  0  0  0  0  0  0  0  0
  -21.8465  -25.4334   21.2775 N   0  0  0  0  0  0  0  0  0  0  0  0
  -26.2268  -27.2917   20.9130 N   0  0  0  0  0  0  0  0  0  0  0  0
  -25.6125  -28.4778   20.7648 N   0  0  0  0  0  0  0  0  0  0  0  0
  -24.0059  -14.9855   22.1509 N   0  0  0  0  0  0  0  0  0  0  0  0
  -23.4023  -28.5241   23.8827 N   0  0  0  0  0  0  0  0  0  0  0  0
  -25.2478  -30.2361   19.2201 N   0  0  0  0  0  0  0  0  0  0  0  0
  -27.8444  -27.3471   16.9162 N   0  0  0  0  0  0  0  0  0  0  0  0
  -19.7516  -25.0560   22.3475 N   0  0  0  0  0  0  0  0  0  0  0  0
  -27.3161  -14.2445   21.0448 N   0  0  0  0  0  0  0  0  0  0  0  0
  -20.9745  -13.5381   22.5683 N   0  0  0  0  0  0  0  0  0  0  0  0
  -21.3486  -27.5426   23.2404 N   0  0  0  0  0  0  0  0  0  0  0  0
  -19.1149  -14.6161   25.4748 N   0  3  0  0  0  0  0  0  0  0  0  0
  -26.7584  -29.3642   16.8129 O   0  0  0  0  0  0  0  0  0  0  0  0
  -25.6895  -15.7017   20.2366 O   0  0  0  0  0  0  0  0  0  0  0  0
  -23.6845  -12.6771   22.2175 O   0  0  0  0  0  0  0  0  0  0  0  0
  -20.0434  -15.6146   23.0136 O   0  0  0  0  0  0  0  0  0  0  0  0
  -21.4623  -28.8723   25.1047 O   0  0  0  0  0  0  0  0  0  0  0  0
  -29.8335  -22.4924   18.7898 O   0  0  0  0  0  0  0  0  0  0  0  0
  -23.9834  -21.1438   22.5078 O   0  0  0  0  0  0  0  0  0  1  0  0
  -27.7020  -17.6680   20.3978 F   0  0  0  0  0  0  0  0  0  0  0  0
  -29.3481  -20.4765   16.9615 F   0  0  0  0  0  0  0  0  0  0  0  0
  1  2  1  0  0  0  0
  1  5  2  0  0  0  0
  2  6  2  0  0  0  0
  3  8  2  0  0  0  0
  3 18  1  0  0  0  0
  4  9  1  0  0  0  0
  4 18  2  0  0  0  0
  5 20  1  0  0  0  0
  6 22  1  0  0  0  0
  7 10  2  0  0  0  0
  7 21  1  0  0  0  0
  8 25  1  0  0  0  0
  9 25  2  0  0  0  0
 10 26  1  0  0  0  0
 11 12  2  0  0  0  0
 11 27  1  0  0  0  0
 12 28  1  0  0  0  0
 13 17  2  0  0  0  0
 13 24  1  0  0  0  0
 14 23  1  0  0  0  0
 14 26  2  0  0  0  0
 15 24  2  0  0  0  0
 15 31  1  0  0  0  0
 16 28  2  0  0  0  0
 16 29  1  0  0  0  0
 17 64  1  0  0  0  0
 18 30  1  0  0  0  0
 19 30  1  0  0  0  0
 19 32  2  0  0  0  0
 19 33  1  0  0  0  0
 20 22  2  0  0  0  0
 20 38  1  0  0  0  0
 21 23  2  0  0  0  0
 21 39  1  0  0  0  0
 22 50  1  0  0  0  0
 23 40  1  0  0  0  0
 24 60  1  0  0  0  0
 25 81  1  0  0  0  0
 26 82  1  0  0  0  0
 27 29  2  0  0  0  0
 27 81  1  0  0  0  0
 28 83  1  0  0  0  0
 29 84  1  0  0  0  0
 30 65  2  0  0  0  0
 31 64  2  0  0  0  0
 31 71  1  0  0  0  0
 32 66  1  0  0  0  0
 32 69  1  0  0  0  0
 33 70  1  0  0  0  0
 33 76  2  0  0  0  0
 34 51  1  0  0  0  0
 34 72  1  0  0  0  0
 34 77  2  0  0  0  0
 35 61  1  0  0  0  0
 35 67  1  0  0  0  0
 35 78  2  0  0  0  0
 36 62  1  0  0  0  0
 36 73  1  0  0  0  0
 36 79  2  0  0  0  0
 37 68  1  0  0  0  0
 37 74  1  0  0  0  0
 37 80  2  0  0  0  0
 38 41  1  0  0  0  0
 39 51  1  0  0  0  0
 40 67  1  0  0  0  0
 41 44  1  0  0  0  0
 42 46  1  0  0  0  0
 42 47  1  0  0  0  0
 43 45  1  0  0  0  0
 43 48  1  0  0  0  0
 44 50  1  0  0  0  0
 45 52  1  0  0  0  0
 46 53  1  0  0  0  0
 47 54  1  0  0  0  0
 48 68  1  0  0  0  0
 49 52  1  0  0  0  0
 49 68  1  0  0  0  0
 50 72  1  0  0  0  0
 51 67  1  0  0  0  0
 52 66  1  0  0  0  0
 53 54  1  0  0  0  0
 53 71  1  0  0  0  0
 54 74  1  0  0  0  0
 55 62  1  0  0  0  0
 56 63  1  0  0  0  0
 57 63  1  0  0  0  0
 58 63  1  0  0  0  0
 59 75  1  0  0  0  0
 60 82  1  0  0  0  0
 61 63  1  0  0  0  0
 61 73  1  0  0  0  0
 62 75  1  0  0  0  0
 65 66  1  0  0  0  0
M  CHG  1  75   1
M  ISO  4  37 100  60 101  74 100  82 101
M  END
> <Batch ID>
0125

> <Smiles>
CNC(C)C(=O)NC(C(=O)N1Cc2cc([101O:1][101CH2:1]c3ccnc(NC4CCCC4[100NH:0][100C:0](=O)N4CCCC(n5nc(-c6ccc(Oc7ccc(F)cc7F)cc6)c(C(N)=O)c5N)C4)c3)ccc2CC1C(=O)NC1CCCc2ccccc21)C(C)(C)C

> <Shape>
0.248

> <Color>
0.070

> <Negative vol penalty>
0.000

$$$$

  -OEChem-04052320353D

 83 92  0     1  0  0  0  0  0999 V2000
  -19.4562  -24.7513   24.2813 C   0  0  0  0  0  0  0  0  0  0  0  0
  -20.7745  -24.8820   23.8565 C   0  0  0  0  0  0  0  0  0  0  0  0
  -24.8043  -11.0954   21.0666 C   0  0  0  0  0  0  0  0  0  0  0  0
  -23.2448  -12.8521   21.6317 C   0  0  0  0  0  0  0  0  0  0  0  0
  -18.5194  -25.7309   23.9547 C   0  0  0  0  0  0  0  0  0  0  0  0
  -21.1565  -25.9919   23.1038 C   0  0  0  0  0  0  0  0  0  0  0  0
  -25.5292  -27.9990   24.6837 C   0  0  0  0  0  0  0  0  0  0  0  0
  -24.2225  -10.2695   22.0282 C   0  0  0  0  0  0  0  0  0  0  0  0
  -22.6629  -12.0261   22.5934 C   0  0  0  0  0  0  0  0  0  0  0  0
  -26.7023  -27.3477   24.3053 C   0  0  0  0  0  0  0  0  0  0  0  0
  -21.4596   -8.3412   22.3134 C   0  0  0  0  0  0  0  0  0  0  0  0
  -21.1922   -7.0195   21.9566 C   0  0  0  0  0  0  0  0  0  0  0  0
  -27.0239  -28.9636   22.5433 C   0  0  0  0  0  0  0  0  0  0  0  0
  -22.6449   -6.2480   23.7262 C   0  0  0  0  0  0  0  0  0  0  0  0
  -24.3155  -12.3868   20.8683 C   0  0  0  0  0  0  0  0  0  0  0  0
  -25.0120  -12.9992   18.4919 C   0  0  0  0  0  0  0  0  0  0  0  0
  -18.8923  -26.8582   23.2058 C   0  0  0  0  0  0  0  0  0  0  0  0
  -25.0881  -29.1331   23.9867 C   0  0  0  0  0  0  0  0  0  0  0  0
  -20.2235  -26.9869   22.7657 C   0  0  0  0  0  0  0  0  0  0  0  0
  -25.8462  -29.6290   22.9165 C   0  0  0  0  0  0  0  0  0  0  0  0
  -23.1518  -10.7347   22.7916 C   0  0  0  0  0  0  0  0  0  0  0  0
  -27.4484  -27.8282   23.2331 C   0  0  0  0  0  0  0  0  0  0  0  0
  -22.3198   -8.6163   23.3765 C   0  0  0  0  0  0  0  0  0  0  0  0
  -21.7849   -5.9729   22.6630 C   0  0  0  0  0  0  0  0  0  0  0  0
  -22.9124   -7.5697   24.0829 C   0  0  0  0  0  0  0  0  0  0  0  0
  -24.9165  -13.2407   19.8755 C   0  0  0  0  0  0  0  0  0  0  0  0
  -25.6627  -14.1020   17.9949 C   0  0  0  0  0  0  0  0  0  0  0  0
  -24.5533  -11.8783   17.7244 C   0  0  0  0  0  0  0  0  0  0  0  0
  -22.5031  -29.8546   22.2836 C   0  0  0  0  0  0  0  0  0  0  0  0
  -23.8364  -32.8114   22.2371 C   0  0  0  0  0  0  0  0  0  0  0  0
  -25.8643  -35.5555   22.3002 C   0  0  0  0  0  0  0  0  0  0  0  0
  -26.0300  -19.6626   19.9442 C   0  0  0  0  0  0  0  0  0  0  0  0
  -17.8338  -27.8673   22.8370 C   0  0  0  0  0  0  0  0  0  0  0  0
  -23.8346  -29.8400   24.4243 C   0  0  0  0  0  0  0  0  0  0  0  0
  -25.4267  -30.8547   22.1483 C   0  0  0  0  0  0  0  0  0  0  0  0
  -18.4035  -29.1990   22.3548 C   0  0  0  0  0  0  0  0  0  0  0  0
  -30.7515  -27.6476   20.2858 C   0  0  0  0  0  0  0  0  0  0  0  0
  -28.8237  -17.4681   19.2539 C   0  0  0  0  0  0  0  0  0  0  0  0
  -19.5190  -28.9665   21.3408 C   0  0  0  0  0  0  0  0  0  0  0  0
  -25.1145  -24.1094   20.9300 C   0  0  0  0  0  0  0  0  0  0  0  0
  -26.5330  -24.4711   18.8697 C   0  0  0  0  0  0  0  0  0  0  0  0
  -28.1337  -16.1037   19.2044 C   0  0  0  0  0  0  0  0  0  0  0  0
  -25.7139  -22.7131   21.1002 C   0  0  0  0  0  0  0  0  0  0  0  0
  -27.1343  -23.0751   19.0358 C   0  0  0  0  0  0  0  0  0  0  0  0
  -30.3243  -26.4693   21.1785 C   0  0  0  0  0  0  0  0  0  0  0  0
  -29.7442  -28.5261   21.0483 C   0  0  0  0  0  0  0  0  0  0  0  0
  -28.2089  -18.3598   20.3286 C   0  0  0  0  0  0  0  0  0  0  0  0
  -26.0456  -17.1928   20.1498 C   0  0  0  0  0  0  0  0  0  0  0  0
  -20.6820  -28.1887   21.9686 C   0  0  1  0  0  0  0  0  0  0  0  0
  -23.2080  -30.6845   23.3191 C   0  0  1  0  0  0  0  0  0  0  0  0
  -26.0482  -25.0803   20.1930 C   0  0  0  0  0  0  0  0  0  0  0  0
  -26.6068  -16.2525   19.0676 C   0  0  2  0  0  0  0  0  0  0  0  0
  -26.1708  -22.1331   19.7599 C   0  0  0  0  0  0  0  0  0  0  0  0
  -29.0016  -27.2293   21.4771 C   0  0  0  0  0  0  0  0  0  1  0  0
  -25.9986  -37.9249   21.4846 C   0  0  0  0  0  0  0  0  0  0  0  0
  -24.5049  -31.8063   19.4348 C   0  0  0  0  0  0  0  0  0  0  0  0
  -25.5274  -34.0403   18.9530 C   0  0  0  0  0  0  0  0  0  0  0  0
  -23.0979  -33.8730   19.4937 C   0  0  0  0  0  0  0  0  0  0  0  0
  -25.9880  -36.6206   25.0587 C   0  0  0  0  0  0  0  0  0  0  0  0
  -27.2194  -25.5191   21.0763 C   0  0  0  0  0  0  0  0  0  0  0  0
  -27.8265  -26.8334   20.5916 C   0  0  0  0  0  0  0  0  0  0  0  0
  -24.8026  -33.5343   21.3299 C   0  0  1  0  0  0  0  0  0  0  0  0
  -25.5801  -37.0108   22.6256 C   0  0  2  0  0  0  0  0  0  0  0  0
  -24.4923  -33.2978   19.8248 C   0  0  0  0  0  0  0  0  0  0  0  0
  -25.4631  -14.4053   20.2345 N   0  0  0  0  0  0  0  0  0  0  0  0
  -25.9083  -14.9055   19.0693 N   0  0  0  0  0  0  0  0  0  0  0  0
  -24.1905  -31.5071   22.6105 N   0  0  0  0  0  0  0  0  0  0  0  0
  -26.7572  -18.4752   20.1303 N   0  0  0  0  0  0  0  0  0  0  0  0
  -26.0432  -14.4530   16.7482 N   0  0  0  0  0  0  0  0  0  0  0  0
  -23.2565  -11.9174   17.1941 N   0  0  0  0  0  0  0  0  0  0  0  0
  -21.4898  -29.0638   22.7909 N   0  0  0  0  0  0  0  0  0  0  0  0
  -24.7707  -34.9359   21.7335 N   0  0  0  0  0  0  0  0  0  0  0  0
  -26.7777  -20.8338   19.9456 N   0  0  0  0  0  0  0  0  0  0  0  0
  -26.3201  -37.4214   23.8523 N   0  3  0  0  0  0  0  0  0  0  0  0
  -25.2662  -10.8649   17.5289 O   0  0  0  0  0  0  0  0  0  0  0  0
  -22.8516  -29.9276   21.1111 O   0  0  0  0  0  0  0  0  0  0  0  0
  -22.8091  -33.3854   22.6067 O   0  0  0  0  0  0  0  0  0  0  0  0
  -26.9493  -35.0229   22.5228 O   0  0  0  0  0  0  0  0  0  0  0  0
  -24.8048  -19.6777   19.7832 O   0  0  0  0  0  0  0  0  0  0  0  0
  -22.5836   -9.9289   23.7299 O   0  0  0  0  0  0  0  0  0  0  0  0
  -28.5935  -27.1939   22.8612 O   0  0  0  0  0  0  0  0  0  1  0  0
  -21.5268   -4.7037   22.3213 F   0  0  0  0  0  0  0  0  0  0  0  0
  -23.7386   -7.8277   25.1059 F   0  0  0  0  0  0  0  0  0  0  0  0
  1  2  1  0  0  0  0
  1  5  2  0  0  0  0
  2  6  2  0  0  0  0
  3  8  2  0  0  0  0
  3 15  1  0  0  0  0
  4  9  1  0  0  0  0
  4 15  2  0  0  0  0
  5 17  1  0  0  0  0
  6 19  1  0  0  0  0
  7 10  2  0  0  0  0
  7 18  1  0  0  0  0
  8 21  1  0  0  0  0
  9 21  2  0  0  0  0
 10 22  1  0  0  0  0
 11 12  2  0  0  0  0
 11 23  1  0  0  0  0
 12 24  1  0  0  0  0
 13 20  1  0  0  0  0
 13 22  2  0  0  0  0
 14 24  2  0  0  0  0
 14 25  1  0  0  0  0
 15 26  1  0  0  0  0
 16 26  1  0  0  0  0
 16 27  2  0  0  0  0
 16 28  1  0  0  0  0
 17 19  2  0  0  0  0
 17 33  1  0  0  0  0
 18 20  2  0  0  0  0
 18 34  1  0  0  0  0
 19 49  1  0  0  0  0
 20 35  1  0  0  0  0
 21 80  1  0  0  0  0
 22 81  1  0  0  0  0
 23 25  2  0  0  0  0
 23 80  1  0  0  0  0
 24 82  1  0  0  0  0
 25 83  1  0  0  0  0
 26 65  2  0  0  0  0
 27 66  1  0  0  0  0
 27 69  1  0  0  0  0
 28 70  1  0  0  0  0
 28 75  2  0  0  0  0
 29 50  1  0  0  0  0
 29 71  1  0  0  0  0
 29 76  2  0  0  0  0
 30 62  1  0  0  0  0
 30 67  1  0  0  0  0
 30 77  2  0  0  0  0
 31 63  1  0  0  0  0
 31 72  1  0  0  0  0
 31 78  2  0  0  0  0
 32 68  1  0  0  0  0
 32 73  1  0  0  0  0
 32 79  2  0  0  0  0
 33 36  1  0  0  0  0
 34 50  1  0  0  0  0
 35 67  1  0  0  0  0
 36 39  1  0  0  0  0
 37 45  1  0  0  0  0
 37 46  1  0  0  0  0
 38 42  1  0  0  0  0
 38 47  1  0  0  0  0
 39 49  1  0  0  0  0
 40 43  1  0  0  0  0
 40 51  1  0  0  0  0
 41 44  1  0  0  0  0
 41 51  1  0  0  0  0
 42 52  1  0  0  0  0
 43 53  1  0  0  0  0
 44 53  1  0  0  0  0
 45 54  1  0  0  0  0
 46 54  1  0  0  0  0
 47 68  1  0  0  0  0
 48 52  1  0  0  0  0
 48 68  1  0  0  0  0
 49 71  1  0  0  0  0
 50 67  1  0  0  0  0
 51 60  1  0  0  0  0
 52 66  1  0  0  0  0
 53 73  1  0  0  0  0
 54 61  1  0  0  0  0
 54 81  1  0  0  0  0
 55 63  1  0  0  0  0
 56 64  1  0  0  0  0
 57 64  1  0  0  0  0
 58 64  1  0  0  0  0
 59 74  1  0  0  0  0
 60 61  1  0  0  0  0
 62 64  1  0  0  0  0
 62 72  1  0  0  0  0
 63 74  1  0  0  0  0
 65 66  1  0  0  0  0
M  CHG  1  74   1
M  ISO  4  32 100  54 101  73 100  81 101
M  END
> <Batch ID>
0125

> <Smiles>
CNC(C)C(=O)NC(C(=O)N1Cc2cc([101O:1][101C:1]3(CCC4CCC([100NH:0][100C:0](=O)N5CCCC(n6nc(-c7ccc(Oc8ccc(F)cc8F)cc7)c(C(N)=O)c6N)C5)CC4)CCC3)ccc2CC1C(=O)NC1CCCc2ccccc21)C(C)(C)C

> <Shape>
0.252

> <Color>
0.101

> <Negative vol penalty>
0.000

$$$$

  -OEChem-04052320353D

 83 92  0     1  0  0  0  0  0999 V2000
  -30.0355  -22.0630   14.6649 C   0  0  0  0  0  0  0  0  0  0  0  0
  -29.9497  -22.0223   16.0528 C   0  0  0  0  0  0  0  0  0  0  0  0
  -32.0057  -20.5524   23.4572 C   0  0  0  0  0  0  0  0  0  0  0  0
  -23.0143   -9.9520   19.9165 C   0  0  0  0  0  0  0  0  0  0  0  0
  -23.7148   -9.9344   22.2286 C   0  0  0  0  0  0  0  0  0  0  0  0
  -29.8785  -23.2746   13.9932 C   0  0  0  0  0  0  0  0  0  0  0  0
  -29.7080  -23.1935   16.7700 C   0  0  0  0  0  0  0  0  0  0  0  0
  -26.2277  -22.5686   20.3952 C   0  0  0  0  0  0  0  0  0  0  0  0
  -31.2176  -21.3722   24.2645 C   0  0  0  0  0  0  0  0  0  0  0  0
  -22.2456   -8.8099   20.1407 C   0  0  0  0  0  0  0  0  0  0  0  0
  -22.9461   -8.7923   22.4528 C   0  0  0  0  0  0  0  0  0  0  0  0
  -26.6384  -21.9420   21.5709 C   0  0  0  0  0  0  0  0  0  0  0  0
  -23.1973   -5.4689   21.8842 C   0  0  0  0  0  0  0  0  0  0  0  0
  -23.7773   -4.4299   22.6118 C   0  0  0  0  0  0  0  0  0  0  0  0
  -29.4350  -19.7419   24.1859 C   0  0  0  0  0  0  0  0  0  0  0  0
  -29.7420  -17.6691   22.9128 C   0  0  0  0  0  0  0  0  0  0  0  0
  -26.8326  -24.0943   22.6430 C   0  0  0  0  0  0  0  0  0  0  0  0
  -22.0355   -4.6223   24.2750 C   0  0  0  0  0  0  0  0  0  0  0  0
  -32.2580  -18.4572   22.1969 C   0  0  0  0  0  0  0  0  0  0  0  0
  -31.5126  -19.3167   23.0064 C   0  0  0  0  0  0  0  0  0  0  0  0
  -30.2148  -18.9038   23.3723 C   0  0  0  0  0  0  0  0  0  0  0  0
  -23.7490  -10.5142   20.9605 C   0  0  0  0  0  0  0  0  0  0  0  0
  -24.1347  -13.0340   20.8637 C   0  0  0  0  0  0  0  0  0  0  0  0
  -29.6252  -24.4597   14.7018 C   0  0  0  0  0  0  0  0  0  0  0  0
  -26.1266  -23.9658   20.3311 C   0  0  0  0  0  0  0  0  0  0  0  0
  -29.5489  -24.4223   16.1072 C   0  0  0  0  0  0  0  0  0  0  0  0
  -26.4178  -24.7360   21.4660 C   0  0  0  0  0  0  0  0  0  0  0  0
  -29.9351  -20.9679   24.6281 C   0  0  0  0  0  0  0  0  0  0  0  0
  -22.2115   -8.2300   21.4088 C   0  0  0  0  0  0  0  0  0  0  0  0
  -26.9437  -22.7050   22.6942 C   0  0  0  0  0  0  0  0  0  0  0  0
  -22.0364   -6.0848   22.3520 C   0  0  0  0  0  0  0  0  0  0  0  0
  -23.1964   -4.0066   23.8073 C   0  0  0  0  0  0  0  0  0  0  0  0
  -21.4555   -5.6614   23.5474 C   0  0  0  0  0  0  0  0  0  0  0  0
  -24.5437  -11.6937   20.7294 C   0  0  0  0  0  0  0  0  0  0  0  0
  -30.5727  -16.8991   22.1132 C   0  0  0  0  0  0  0  0  0  0  0  0
  -25.2479  -13.7674   20.5329 C   0  0  0  0  0  0  0  0  0  0  0  0
  -22.8624  -13.5684   21.2528 C   0  0  0  0  0  0  0  0  0  0  0  0
  -27.5397  -26.2408   18.6190 C   0  0  0  0  0  0  0  0  0  0  0  0
  -25.3802  -28.1548   20.1008 C   0  0  0  0  0  0  0  0  0  0  0  0
  -23.3176  -28.6711   22.7702 C   0  0  0  0  0  0  0  0  0  0  0  0
  -30.7241  -14.7224   20.8540 C   0  0  0  0  0  0  0  0  0  0  0  0
  -29.5097  -25.7533   13.9351 C   0  0  0  0  0  0  0  0  0  0  0  0
  -25.6564  -24.6248   19.0634 C   0  0  0  0  0  0  0  0  0  0  0  0
  -26.3058  -26.2379   21.4552 C   0  0  0  0  0  0  0  0  0  0  0  0
  -28.8836  -26.8867   14.7437 C   0  0  0  0  0  0  0  0  0  0  0  0
  -29.6320  -12.3397   18.4441 C   0  0  0  0  0  0  0  0  0  0  0  0
  -29.5099  -26.9608   16.1326 C   0  0  0  0  0  0  0  0  0  0  0  0
  -28.1772  -12.0695   18.8349 C   0  0  0  0  0  0  0  0  0  0  0  0
  -30.5195  -12.5472   19.6702 C   0  0  0  0  0  0  0  0  0  0  0  0
  -28.5895  -13.2954   21.0061 C   0  0  0  0  0  0  0  0  0  0  0  0
  -29.2633  -25.6674   16.9186 C   0  0  1  0  0  0  0  0  0  0  0  0
  -26.0835  -26.0853   18.9552 C   0  0  1  0  0  0  0  0  0  0  0  0
  -27.6447  -13.1444   19.8027 C   0  0  2  0  0  0  0  0  0  0  0  0
  -21.7073  -30.3448   23.7206 C   0  0  0  0  0  0  0  0  0  0  0  0
  -27.7207  -29.9043   20.9791 C   0  0  0  0  0  0  0  0  0  0  0  0
  -26.2034  -30.9678   22.6628 C   0  0  0  0  0  0  0  0  0  0  0  0
  -25.6975  -31.1683   20.2284 C   0  0  0  0  0  0  0  0  0  0  0  0
  -21.0725  -26.7458   22.6620 C   0  0  0  0  0  0  0  0  0  0  0  0
  -29.0839  -21.8566   25.5021 C   0  0  0  0  0  0  0  0  0  0  0  0
  -28.2329  -22.8260   24.6890 C   0  0  0  0  0  0  0  0  0  1  0  0
  -25.3578  -28.9464   21.3860 C   0  0  1  0  0  0  0  0  0  0  0  0
  -21.8657  -29.1067   22.8518 C   0  0  2  0  0  0  0  0  0  0  0  0
  -26.2489  -30.2185   21.3140 C   0  0  0  0  0  0  0  0  0  0  0  0
  -31.8195  -17.2613   21.7431 N   0  0  0  0  0  0  0  0  0  0  0  0
  -25.8172  -11.5794   20.3432 N   0  0  0  0  0  0  0  0  0  0  0  0
  -26.2181  -12.8572   20.2320 N   0  0  0  0  0  0  0  0  0  0  0  0
  -25.8479  -26.8360   20.1902 N   0  0  0  0  0  0  0  0  0  0  0  0
  -29.9548  -13.5823   20.5388 N   0  0  0  0  0  0  0  0  0  0  0  0
  -25.4817  -15.0956   20.4730 N   0  0  0  0  0  0  0  0  0  0  0  0
  -21.8275  -12.6741   21.5587 N   0  0  0  0  0  0  0  0  0  0  0  0
  -30.0709  -15.6536   21.6608 N   0  0  0  0  0  0  0  0  0  0  0  0
  -27.9105  -25.6381   17.4321 N   0  0  0  0  0  0  0  0  0  0  0  0
  -23.9535  -29.2162   21.6748 N   0  0  0  0  0  0  0  0  0  0  0  0
  -21.0297  -28.0168   23.4300 N   0  3  0  0  0  0  0  0  0  0  0  0
  -22.6448  -14.8024   21.3111 O   0  0  0  0  0  0  0  0  0  0  0  0
  -28.2723  -26.8628   19.3793 O   0  0  0  0  0  0  0  0  0  0  0  0
  -24.9901  -28.6845   19.0573 O   0  0  0  0  0  0  0  0  0  0  0  0
  -23.8368  -27.9252   23.5976 O   0  0  0  0  0  0  0  0  0  0  0  0
  -31.8674  -14.8751   20.4166 O   0  0  0  0  0  0  0  0  0  0  0  0
  -21.4613   -7.1157   21.6280 O   0  0  0  0  0  0  0  0  0  0  0  0
  -27.3455  -22.0960   23.8429 O   0  0  0  0  0  0  0  0  0  1  0  0
  -23.7527   -3.0077   24.5051 F   0  0  0  0  0  0  0  0  0  0  0  0
  -20.3395   -6.2484   24.0012 F   0  0  0  0  0  0  0  0  0  0  0  0
  1  2  1  0  0  0  0
  1  6  2  0  0  0  0
  2  7  2  0  0  0  0
  3  9  2  0  0  0  0
  3 20  1  0  0  0  0
  4 10  2  0  0  0  0
  4 22  1  0  0  0  0
  5 11  1  0  0  0  0
  5 22  2  0  0  0  0
  6 24  1  0  0  0  0
  7 26  1  0  0  0  0
  8 12  2  0  0  0  0
  8 25  1  0  0  0  0
  9 28  1  0  0  0  0
 10 29  1  0  0  0  0
 11 29  2  0  0  0  0
 12 30  1  0  0  0  0
 13 14  2  0  0  0  0
 13 31  1  0  0  0  0
 14 32  1  0  0  0  0
 15 21  1  0  0  0  0
 15 28  2  0  0  0  0
 16 21  1  0  0  0  0
 16 35  2  0  0  0  0
 17 27  1  0  0  0  0
 17 30  2  0  0  0  0
 18 32  2  0  0  0  0
 18 33  1  0  0  0  0
 19 20  1  0  0  0  0
 19 64  2  0  0  0  0
 20 21  2  0  0  0  0
 22 34  1  0  0  0  0
 23 34  1  0  0  0  0
 23 36  2  0  0  0  0
 23 37  1  0  0  0  0
 24 26  2  0  0  0  0
 24 42  1  0  0  0  0
 25 27  2  0  0  0  0
 25 43  1  0  0  0  0
 26 51  1  0  0  0  0
 27 44  1  0  0  0  0
 28 59  1  0  0  0  0
 29 80  1  0  0  0  0
 30 81  1  0  0  0  0
 31 33  2  0  0  0  0
 31 80  1  0  0  0  0
 32 82  1  0  0  0  0
 33 83  1  0  0  0  0
 34 65  2  0  0  0  0
 35 64  1  0  0  0  0
 35 71  1  0  0  0  0
 36 66  1  0  0  0  0
 36 69  1  0  0  0  0
 37 70  1  0  0  0  0
 37 75  2  0  0  0  0
 38 52  1  0  0  0  0
 38 72  1  0  0  0  0
 38 76  2  0  0  0  0
 39 61  1  0  0  0  0
 39 67  1  0  0  0  0
 39 77  2  0  0  0  0
 40 62  1  0  0  0  0
 40 73  1  0  0  0  0
 40 78  2  0  0  0  0
 41 68  1  0  0  0  0
 41 71  1  0  0  0  0
 41 79  2  0  0  0  0
 42 45  1  0  0  0  0
 43 52  1  0  0  0  0
 44 67  1  0  0  0  0
 45 47  1  0  0  0  0
 46 48  1  0  0  0  0
 46 49  1  0  0  0  0
 47 51  1  0  0  0  0
 48 53  1  0  0  0  0
 49 68  1  0  0  0  0
 50 53  1  0  0  0  0
 50 68  1  0  0  0  0
 51 72  1  0  0  0  0
 52 67  1  0  0  0  0
 53 66  1  0  0  0  0
 54 62  1  0  0  0  0
 55 63  1  0  0  0  0
 56 63  1  0  0  0  0
 57 63  1  0  0  0  0
 58 74  1  0  0  0  0
 59 60  1  0  0  0  0
 60 81  1  0  0  0  0
 61 63  1  0  0  0  0
 61 73  1  0  0  0  0
 62 74  1  0  0  0  0
 65 66  1  0  0  0  0
M  CHG  1  74   1
M  ISO  4  41 100  60 101  71 100  81 101
M  END
> <Batch ID>
0125

> <Smiles>
CNC(C)C(=O)NC(C(=O)N1Cc2cc([101O:1][101CH2:1]Cc3ccc4cnc([100NH:0][100C:0](=O)N5CCCC(n6nc(-c7ccc(Oc8ccc(F)cc8F)cc7)c(C(N)=O)c6N)C5)cc4c3)ccc2CC1C(=O)NC1CCCc2ccccc21)C(C)(C)C

> <Shape>
0.300

> <Color>
0.222

> <Negative vol penalty>
0.000

$$$$

  -OEChem-04052320353D

 88 97  0     1  0  0  0  0  0999 V2000
  -22.7125  -21.8033   24.2556 C   0  0  0  0  0  0  0  0  0  0  0  0
  -23.7028  -22.6117   23.7091 C   0  0  0  0  0  0  0  0  0  0  0  0
  -24.4725   -9.4317   21.7338 C   0  0  0  0  0  0  0  0  0  0  0  0
  -22.7882  -10.3582   20.2702 C   0  0  0  0  0  0  0  0  0  0  0  0
  -21.5716  -22.3820   24.8075 C   0  0  0  0  0  0  0  0  0  0  0  0
  -23.5581  -23.9994   23.7249 C   0  0  0  0  0  0  0  0  0  0  0  0
  -27.4084  -26.6653   22.2176 C   0  0  0  0  0  0  0  0  0  0  0  0
  -24.5839  -25.8421   15.8582 C   0  0  0  0  0  0  0  0  0  0  0  0
  -23.5271  -25.0072   16.2213 C   0  0  0  0  0  0  0  0  0  0  0  0
  -23.7029   -8.2789   21.8896 C   0  0  0  0  0  0  0  0  0  0  0  0
  -22.0186   -9.2053   20.4260 C   0  0  0  0  0  0  0  0  0  0  0  0
  -27.7953  -26.7413   20.8804 C   0  0  0  0  0  0  0  0  0  0  0  0
  -20.9915   -7.3154   23.6628 C   0  0  0  0  0  0  0  0  0  0  0  0
  -20.8425   -6.8060   24.9527 C   0  0  0  0  0  0  0  0  0  0  0  0
  -26.8095  -28.9376   20.7263 C   0  0  0  0  0  0  0  0  0  0  0  0
  -24.6197  -26.7673   18.0897 C   0  0  0  0  0  0  0  0  0  0  0  0
  -21.8650   -4.7322   24.2517 C   0  0  0  0  0  0  0  0  0  0  0  0
  -24.0151  -10.4714   20.9241 C   0  0  0  0  0  0  0  0  0  0  0  0
  -26.1144  -11.7506   20.2428 C   0  0  0  0  0  0  0  0  0  0  0  0
  -21.4079  -23.7771   24.8184 C   0  0  0  0  0  0  0  0  0  0  0  0
  -26.7084  -27.7221   22.8173 C   0  0  0  0  0  0  0  0  0  0  0  0
  -22.4249  -24.6035   24.2988 C   0  0  0  0  0  0  0  0  0  0  0  0
  -26.4171  -28.8736   22.0721 C   0  0  0  0  0  0  0  0  0  0  0  0
  -25.1303  -26.7221   16.7924 C   0  0  0  0  0  0  0  0  0  0  0  0
  -23.0166  -25.0524   17.5186 C   0  0  0  0  0  0  0  0  0  0  0  0
  -23.5629  -25.9325   18.4528 C   0  0  0  0  0  0  0  0  0  0  0  0
  -22.4760   -8.1656   21.2357 C   0  0  0  0  0  0  0  0  0  0  0  0
  -27.4934  -27.8764   20.1337 C   0  0  0  0  0  0  0  0  0  0  0  0
  -21.5771   -6.5332   22.6673 C   0  0  0  0  0  0  0  0  0  0  0  0
  -21.2793   -5.5144   25.2472 C   0  0  0  0  0  0  0  0  0  0  0  0
  -22.0139   -5.2417   22.9618 C   0  0  0  0  0  0  0  0  0  0  0  0
  -24.8093  -11.6628   20.7632 C   0  0  0  0  0  0  0  0  0  0  0  0
  -26.4183  -13.0888   20.3018 C   0  0  0  0  0  0  0  0  0  0  0  0
  -26.9750  -10.7152   19.7499 C   0  0  0  0  0  0  0  0  0  0  0  0
  -23.8371  -28.0450   24.1421 C   0  0  0  0  0  0  0  0  0  0  0  0
  -24.9434  -31.0018   24.8876 C   0  0  0  0  0  0  0  0  0  0  0  0
  -26.8596  -33.5857   23.2538 C   0  0  0  0  0  0  0  0  0  0  0  0
  -23.0030  -17.9042   20.2449 C   0  0  0  0  0  0  0  0  0  0  0  0
  -20.1567  -24.3507   25.4355 C   0  0  0  0  0  0  0  0  0  0  0  0
  -26.3216  -27.6357   24.2682 C   0  0  0  0  0  0  0  0  0  0  0  0
  -25.6854  -30.0441   22.6746 C   0  0  0  0  0  0  0  0  0  0  0  0
  -19.8901  -25.7907   25.0095 C   0  0  0  0  0  0  0  0  0  0  0  0
  -25.4210  -17.0488   22.7981 C   0  0  0  0  0  0  0  0  0  0  0  0
  -21.1494  -26.6262   25.1847 C   0  0  0  0  0  0  0  0  0  0  0  0
  -25.6591  -15.5659   22.5070 C   0  0  0  0  0  0  0  0  0  0  0  0
  -21.6488  -21.3429   20.4717 C   0  0  0  0  0  0  0  0  0  0  0  0
  -23.5029  -20.8196   18.8444 C   0  0  0  0  0  0  0  0  0  0  0  0
  -23.9591  -17.4272   22.5797 C   0  0  0  0  0  0  0  0  0  0  0  0
  -23.6707  -15.6182   20.9311 C   0  0  0  0  0  0  0  0  0  0  0  0
  -21.1471  -22.4369   19.5383 C   0  0  0  0  0  0  0  0  0  0  0  0
  -22.9925  -21.9172   17.9199 C   0  0  0  0  0  0  0  0  0  0  0  0
  -22.2752  -26.1140   24.2773 C   0  0  1  0  0  0  0  0  0  0  0  0
  -25.1616  -28.5570   24.6332 C   0  0  1  0  0  0  0  0  0  0  0  0
  -25.1347  -15.1776   21.1119 C   0  0  2  0  0  0  0  0  0  0  0  0
  -22.3788  -20.2406   19.7036 C   0  0  0  0  0  0  0  0  0  0  0  0
  -23.0325  -25.9986   19.8475 C   0  0  0  0  0  0  0  0  0  0  0  0
  -28.3346  -35.3756   24.2118 C   0  0  0  0  0  0  0  0  0  0  0  0
  -22.4370  -32.7364   24.7496 C   0  0  0  0  0  0  0  0  0  0  0  0
  -23.8885  -34.6568   24.0612 C   0  0  0  0  0  0  0  0  0  0  0  0
  -24.2117  -33.5884   26.2921 C   0  0  0  0  0  0  0  0  0  0  0  0
  -29.1640  -32.7311   21.6051 C   0  0  0  0  0  0  0  0  0  0  0  0
  -26.2723  -27.6248   16.3995 C   0  0  0  0  0  0  0  0  0  0  0  0
  -21.8841  -24.1498   17.8838 C   0  0  0  0  0  0  0  0  0  0  0  0
  -27.6532  -27.0083   16.6332 C   0  0  0  0  0  0  0  0  0  0  0  0
  -27.9481  -26.7270   18.1019 C   0  0  0  0  0  0  0  0  0  1  0  0
  -24.9319  -32.3501   24.2088 C   0  0  1  0  0  0  0  0  0  0  0  0
  -28.2859  -33.9974   23.5709 C   0  0  2  0  0  0  0  0  0  0  0  0
  -23.8672  -33.3087   24.8129 C   0  0  0  0  0  0  0  0  0  0  0  0
  -24.3180  -12.8506   21.1264 N   0  0  0  0  0  0  0  0  0  0  0  0
  -25.3197  -13.6974   20.8337 N   0  0  0  0  0  0  0  0  0  0  0  0
  -25.3229  -29.9092   24.0951 N   0  0  0  0  0  0  0  0  0  0  0  0
  -23.5279  -17.0476   21.2269 N   0  0  0  0  0  0  0  0  0  0  0  0
  -27.5154  -13.7924   19.9503 N   0  0  0  0  0  0  0  0  0  0  0  0
  -26.9143  -10.3876   18.3885 N   0  0  0  0  0  0  0  0  0  0  0  0
  -23.5050  -26.7925   24.6221 N   0  0  0  0  0  0  0  0  0  0  0  0
  -26.2990  -32.8546   24.2797 N   0  0  0  0  0  0  0  0  0  0  0  0
  -22.8940  -19.2412   20.6072 N   0  0  0  0  0  0  0  0  0  0  0  0
  -22.3035  -22.9838   18.7364 N   0  3  0  0  0  0  0  0  0  0  0  0
  -29.1049  -34.0286   22.3262 N   0  3  0  0  0  0  0  0  0  0  0  0
  -27.7624  -10.0875   20.4978 O   0  0  0  0  0  0  0  0  0  0  0  0
  -23.1654  -28.7359   23.3850 O   0  0  0  0  0  0  0  0  0  0  0  0
  -24.6343  -30.9219   26.0791 O   0  0  0  0  0  0  0  0  0  0  0  0
  -26.2975  -33.8861   22.2029 O   0  0  0  0  0  0  0  0  0  0  0  0
  -22.6616  -17.5076   19.1254 O   0  0  0  0  0  0  0  0  0  0  0  0
  -21.7249   -7.0407   21.3874 O   0  0  0  0  0  0  0  0  0  0  0  0
  -27.8693  -27.9529   18.8280 O   0  0  0  0  0  0  0  0  0  1  0  0
  -21.1376   -5.0259   26.4863 F   0  0  0  0  0  0  0  0  0  0  0  0
  -22.5783   -4.4859   22.0099 F   0  0  0  0  0  0  0  0  0  0  0  0
  1  2  1  0  0  0  0
  1  5  2  0  0  0  0
  2  6  2  0  0  0  0
  3 10  2  0  0  0  0
  3 18  1  0  0  0  0
  4 11  1  0  0  0  0
  4 18  2  0  0  0  0
  5 20  1  0  0  0  0
  6 22  1  0  0  0  0
  7 12  2  0  0  0  0
  7 21  1  0  0  0  0
  8  9  2  0  0  0  0
  8 24  1  0  0  0  0
  9 25  1  0  0  0  0
 10 27  1  0  0  0  0
 11 27  2  0  0  0  0
 12 28  1  0  0  0  0
 13 14  2  0  0  0  0
 13 29  1  0  0  0  0
 14 30  1  0  0  0  0
 15 23  1  0  0  0  0
 15 28  2  0  0  0  0
 16 24  2  0  0  0  0
 16 26  1  0  0  0  0
 17 30  2  0  0  0  0
 17 31  1  0  0  0  0
 18 32  1  0  0  0  0
 19 32  1  0  0  0  0
 19 33  2  0  0  0  0
 19 34  1  0  0  0  0
 20 22  2  0  0  0  0
 20 39  1  0  0  0  0
 21 23  2  0  0  0  0
 21 40  1  0  0  0  0
 22 52  1  0  0  0  0
 23 41  1  0  0  0  0
 24 62  1  0  0  0  0
 25 26  2  0  0  0  0
 25 63  1  0  0  0  0
 26 56  1  0  0  0  0
 27 85  1  0  0  0  0
 28 86  1  0  0  0  0
 29 31  2  0  0  0  0
 29 85  1  0  0  0  0
 30 87  1  0  0  0  0
 31 88  1  0  0  0  0
 32 69  2  0  0  0  0
 33 70  1  0  0  0  0
 33 73  1  0  0  0  0
 34 74  1  0  0  0  0
 34 80  2  0  0  0  0
 35 53  1  0  0  0  0
 35 75  1  0  0  0  0
 35 81  2  0  0  0  0
 36 66  1  0  0  0  0
 36 71  1  0  0  0  0
 36 82  2  0  0  0  0
 37 67  1  0  0  0  0
 37 76  1  0  0  0  0
 37 83  2  0  0  0  0
 38 72  1  0  0  0  0
 38 77  1  0  0  0  0
 38 84  2  0  0  0  0
 39 42  1  0  0  0  0
 40 53  1  0  0  0  0
 41 71  1  0  0  0  0
 42 44  1  0  0  0  0
 43 45  1  0  0  0  0
 43 48  1  0  0  0  0
 44 52  1  0  0  0  0
 45 54  1  0  0  0  0
 46 50  1  0  0  0  0
 46 55  1  0  0  0  0
 47 51  1  0  0  0  0
 47 55  1  0  0  0  0
 48 72  1  0  0  0  0
 49 54  1  0  0  0  0
 49 72  1  0  0  0  0
 50 78  1  0  0  0  0
 51 78  1  0  0  0  0
 52 75  1  0  0  0  0
 53 71  1  0  0  0  0
 54 70  1  0  0  0  0
 55 77  1  0  0  0  0
 57 67  1  0  0  0  0
 58 68  1  0  0  0  0
 59 68  1  0  0  0  0
 60 68  1  0  0  0  0
 61 79  1  0  0  0  0
 62 64  1  0  0  0  0
 63 78  1  0  0  0  0
 64 65  1  0  0  0  0
 65 86  1  0  0  0  0
 66 68  1  0  0  0  0
 66 76  1  0  0  0  0
 67 79  1  0  0  0  0
 69 70  1  0  0  0  0
M  CHG  2  78   1  79   1
M  ISO  4  38 100  65 101  77 100  86 101
M  END
> <Batch ID>
0125

> <Smiles>
CNC(C)C(=O)NC(C(=O)N1Cc2cc([101O:1][101CH2:1]CCc3ccc(CN4CCC([100NH:0][100C:0](=O)N5CCCC(n6nc(-c7ccc(Oc8ccc(F)cc8F)cc7)c(C(N)=O)c6N)C5)CC4)c(C)c3)ccc2CC1C(=O)NC1CCCc2ccccc21)C(C)(C)C

> <Shape>
0.212

> <Color>
0.094

> <Negative vol penalty>
0.000

$$$$

  -OEChem-04052320353D

 83 91  0     1  0  0  0  0  0999 V2000
  -28.2267  -10.4605   20.0445 C   0  0  0  0  0  0  0  0  0  0  0  0
  -28.5678  -11.6461   19.4017 C   0  0  0  0  0  0  0  0  0  0  0  0
  -20.4291  -25.0773   20.6002 C   0  0  0  0  0  0  0  0  0  0  0  0
  -20.2421  -26.8034   18.9201 C   0  0  0  0  0  0  0  0  0  0  0  0
  -26.9647  -10.3189   20.6199 C   0  0  0  0  0  0  0  0  0  0  0  0
  -27.6465  -12.6906   19.3329 C   0  0  0  0  0  0  0  0  0  0  0  0
  -29.7231  -17.1857   20.3945 C   0  0  0  0  0  0  0  0  0  0  0  0
  -29.0327  -24.6286   18.8517 C   0  0  0  0  0  0  0  0  0  0  0  0
  -19.5127  -24.2945   19.8981 C   0  0  0  0  0  0  0  0  0  0  0  0
  -19.3257  -26.0206   18.2179 C   0  0  0  0  0  0  0  0  0  0  0  0
  -30.4754  -17.7927   19.3898 C   0  0  0  0  0  0  0  0  0  0  0  0
  -17.4959  -21.6896   18.3612 C   0  0  0  0  0  0  0  0  0  0  0  0
  -17.7915  -20.3365   18.1955 C   0  0  0  0  0  0  0  0  0  0  0  0
  -29.4950  -23.8660   17.7850 C   0  0  0  0  0  0  0  0  0  0  0  0
  -28.5969  -19.2044   18.8445 C   0  0  0  0  0  0  0  0  0  0  0  0
  -19.8180  -20.9234   17.0183 C   0  0  0  0  0  0  0  0  0  0  0  0
  -20.7938  -26.3317   20.1113 C   0  0  0  0  0  0  0  0  0  0  0  0
  -21.6128  -27.6239   22.1526 C   0  0  0  0  0  0  0  0  0  0  0  0
  -26.0309  -11.3658   20.5666 C   0  0  0  0  0  0  0  0  0  0  0  0
  -28.3963  -17.5766   20.6248 C   0  0  0  0  0  0  0  0  0  0  0  0
  -26.3703  -12.5625   19.9070 C   0  0  0  0  0  0  0  0  0  0  0  0
  -27.8307  -18.6026   19.8543 C   0  0  0  0  0  0  0  0  0  0  0  0
  -29.9420  -25.2276   19.7165 C   0  0  0  0  0  0  0  0  0  0  0  0
  -18.9610  -24.7661   18.7069 C   0  0  0  0  0  0  0  0  0  0  0  0
  -29.9114  -18.8003   18.6127 C   0  0  0  0  0  0  0  0  0  0  0  0
  -18.3613  -22.6596   17.8554 C   0  0  0  0  0  0  0  0  0  0  0  0
  -18.9526  -19.9534   17.5241 C   0  0  0  0  0  0  0  0  0  0  0  0
  -19.5224  -22.2765   17.1840 C   0  0  0  0  0  0  0  0  0  0  0  0
  -21.7400  -27.1410   20.8364 C   0  0  0  0  0  0  0  0  0  0  0  0
  -30.8653  -23.7339   17.6279 C   0  0  0  0  0  0  0  0  0  0  0  0
  -31.2922  -25.0344   19.4731 C   0  0  0  0  0  0  0  0  0  0  0  0
  -22.7685  -28.3331   22.3714 C   0  0  0  0  0  0  0  0  0  0  0  0
  -20.5454  -27.4471   23.0935 C   0  0  0  0  0  0  0  0  0  0  0  0
  -25.5724  -16.1248   20.4779 C   0  0  0  0  0  0  0  0  0  0  0  0
  -24.5043  -18.9273   21.7139 C   0  0  0  0  0  0  0  0  0  0  0  0
  -24.9942  -22.2769   22.1459 C   0  0  0  0  0  0  0  0  0  0  0  0
  -28.2513  -28.0312   19.9843 C   0  0  0  0  0  0  0  0  0  0  0  0
  -24.6623  -11.1487   21.1620 C   0  0  0  0  0  0  0  0  0  0  0  0
  -27.6068  -16.9304   21.7301 C   0  0  0  0  0  0  0  0  0  0  0  0
  -26.4170  -19.0728   20.0750 C   0  0  0  0  0  0  0  0  0  0  0  0
  -23.8773  -12.4411   21.3716 C   0  0  0  0  0  0  0  0  0  0  0  0
  -26.1011  -30.8681   20.0566 C   0  0  0  0  0  0  0  0  0  0  0  0
  -23.9580  -13.3222   20.1291 C   0  0  0  0  0  0  0  0  0  0  0  0
  -24.7281  -30.2781   20.3834 C   0  0  0  0  0  0  0  0  0  0  0  0
  -26.9125  -29.9424   19.1529 C   0  0  0  0  0  0  0  0  0  0  0  0
  -25.6837  -27.9715   19.9772 C   0  0  0  0  0  0  0  0  0  0  0  0
  -25.4071  -13.7273   19.8332 C   0  0  1  0  0  0  0  0  0  0  0  0
  -26.0984  -17.0519   21.5368 C   0  0  1  0  0  0  0  0  0  0  0  0
  -24.8502  -28.8436   20.9317 C   0  0  2  0  0  0  0  0  0  0  0  0
  -32.3144  -25.6562   20.3671 C   0  0  0  0  0  0  0  0  0  0  0  0
  -29.2505  -25.2200   22.1421 C   0  0  0  0  0  0  0  0  0  0  0  0
  -24.5852  -24.5978   23.0081 C   0  0  0  0  0  0  0  0  0  0  0  0
  -22.5161  -19.0447   19.4024 C   0  0  0  0  0  0  0  0  0  0  0  0
  -22.1659  -21.4694   19.9183 C   0  0  0  0  0  0  0  0  0  0  0  0
  -21.5834  -19.7379   21.6169 C   0  0  0  0  0  0  0  0  0  0  0  0
  -26.6139  -21.7855   24.5737 C   0  0  0  0  0  0  0  0  0  0  0  0
  -31.4019  -22.9154   16.4809 C   0  0  0  0  0  0  0  0  0  0  0  0
  -31.6050  -21.4373   16.8211 C   0  0  0  0  0  0  0  0  0  0  0  0
  -30.3396  -20.7548   17.3273 C   0  0  0  0  0  0  0  0  0  1  0  0
  -29.4527  -26.0447   20.8618 C   0  0  2  0  0  0  0  0  0  0  0  0
  -24.0155  -20.2334   21.1358 C   0  0  1  0  0  0  0  0  0  0  0  0
  -24.9025  -23.1575   23.3790 C   0  0  2  0  0  0  0  0  0  0  0  0
  -22.5962  -20.1114   20.5127 C   0  0  0  0  0  0  0  0  0  0  0  0
  -22.8860  -27.5123   20.2595 N   0  0  0  0  0  0  0  0  0  0  0  0
  -31.7791  -24.3006   18.4474 N   0  0  0  0  0  0  0  0  0  0  0  0
  -23.4894  -28.2360   21.2177 N   0  0  0  0  0  0  0  0  0  0  0  0
  -25.6836  -18.4057   21.1635 N   0  0  0  0  0  0  0  0  0  0  0  0
  -26.9917  -28.5985   19.7306 N   0  0  0  0  0  0  0  0  0  0  0  0
  -23.2281  -29.0241   23.4361 N   0  0  0  0  0  0  0  0  0  0  0  0
  -20.5928  -26.3454   23.9585 N   0  0  0  0  0  0  0  0  0  0  0  0
  -25.8269  -14.7889   20.7228 N   0  0  0  0  0  0  0  0  0  0  0  0
  -24.1145  -21.2170   22.2087 N   0  0  0  0  0  0  0  0  0  0  0  0
  -28.2366  -26.7570   20.5384 N   0  0  0  0  0  0  0  0  0  0  0  0
  -26.1915  -23.1378   24.1267 N   0  3  0  0  0  0  0  0  0  0  0  0
  -19.5699  -28.2334   23.1538 O   0  0  0  0  0  0  0  0  0  0  0  0
  -24.9782  -16.5871   19.5110 O   0  0  0  0  0  0  0  0  0  0  0  0
  -23.8672  -18.3932   22.6252 O   0  0  0  0  0  0  0  0  0  0  0  0
  -25.7663  -22.5083   21.2181 O   0  0  0  0  0  0  0  0  0  0  0  0
  -29.3106  -28.6189   19.7405 O   0  0  0  0  0  0  0  0  0  0  0  0
  -18.0669  -24.0025   18.0214 O   0  0  0  0  0  0  0  0  0  0  0  0
  -30.6433  -19.3940   17.6310 O   0  0  0  0  0  0  0  0  0  1  0  0
  -19.2371  -18.6541   17.3664 F   0  0  0  0  0  0  0  0  0  0  0  0
  -20.3582  -23.2038   16.6969 F   0  0  0  0  0  0  0  0  0  0  0  0
  1  2  1  0  0  0  0
  1  5  2  0  0  0  0
  2  6  2  0  0  0  0
  3  9  2  0  0  0  0
  3 17  1  0  0  0  0
  4 10  1  0  0  0  0
  4 17  2  0  0  0  0
  5 19  1  0  0  0  0
  6 21  1  0  0  0  0
  7 11  2  0  0  0  0
  7 20  1  0  0  0  0
  8 14  2  0  0  0  0
  8 23  1  0  0  0  0
  9 24  1  0  0  0  0
 10 24  2  0  0  0  0
 11 25  1  0  0  0  0
 12 13  2  0  0  0  0
 12 26  1  0  0  0  0
 13 27  1  0  0  0  0
 14 30  1  0  0  0  0
 15 22  1  0  0  0  0
 15 25  2  0  0  0  0
 16 27  2  0  0  0  0
 16 28  1  0  0  0  0
 17 29  1  0  0  0  0
 18 29  1  0  0  0  0
 18 32  2  0  0  0  0
 18 33  1  0  0  0  0
 19 21  2  0  0  0  0
 19 38  1  0  0  0  0
 20 22  2  0  0  0  0
 20 39  1  0  0  0  0
 21 47  1  0  0  0  0
 22 40  1  0  0  0  0
 23 31  2  0  0  0  0
 23 60  1  0  0  0  0
 24 80  1  0  0  0  0
 25 81  1  0  0  0  0
 26 28  2  0  0  0  0
 26 80  1  0  0  0  0
 27 82  1  0  0  0  0
 28 83  1  0  0  0  0
 29 64  2  0  0  0  0
 30 57  1  0  0  0  0
 30 65  2  0  0  0  0
 31 50  1  0  0  0  0
 31 65  1  0  0  0  0
 32 66  1  0  0  0  0
 32 69  1  0  0  0  0
 33 70  1  0  0  0  0
 33 75  2  0  0  0  0
 34 48  1  0  0  0  0
 34 71  1  0  0  0  0
 34 76  2  0  0  0  0
 35 61  1  0  0  0  0
 35 67  1  0  0  0  0
 35 77  2  0  0  0  0
 36 62  1  0  0  0  0
 36 72  1  0  0  0  0
 36 78  2  0  0  0  0
 37 68  1  0  0  0  0
 37 73  1  0  0  0  0
 37 79  2  0  0  0  0
 38 41  1  0  0  0  0
 39 48  1  0  0  0  0
 40 67  1  0  0  0  0
 41 43  1  0  0  0  0
 42 44  1  0  0  0  0
 42 45  1  0  0  0  0
 43 47  1  0  0  0  0
 44 49  1  0  0  0  0
 45 68  1  0  0  0  0
 46 49  1  0  0  0  0
 46 68  1  0  0  0  0
 47 71  1  0  0  0  0
 48 67  1  0  0  0  0
 49 66  1  0  0  0  0
 51 60  1  0  0  0  0
 52 62  1  0  0  0  0
 53 63  1  0  0  0  0
 54 63  1  0  0  0  0
 55 63  1  0  0  0  0
 56 74  1  0  0  0  0
 57 58  1  0  0  0  0
 58 59  1  0  0  0  0
 59 81  1  0  0  0  0
 60 73  1  0  0  0  0
 61 63  1  0  0  0  0
 61 72  1  0  0  0  0
 62 74  1  0  0  0  0
 64 66  1  0  0  0  0
M  CHG  1  74   1
M  ISO  4  37 100  59 101  73 100  81 101
M  END
> <Batch ID>
0125

> <Smiles>
CNC(C)C(=O)NC(C(=O)N1Cc2cc([101O:1][101CH2:1]CCc3ccc(C(C)[100NH:0][100C:0](=O)N4CCCC(n5nc(-c6ccc(Oc7ccc(F)cc7F)cc6)c(C(N)=O)c5N)C4)c(C)n3)ccc2CC1C(=O)NC1CCCc2ccccc21)C(C)(C)C

> <Shape>
0.219

> <Color>
0.055

> <Negative vol penalty>
0.000

$$$$

  -OEChem-04052320353D

 87 96  0     1  0  0  0  0  0999 V2000
  -22.6138  -10.2102   18.1401 C   0  0  0  0  0  0  0  0  0  0  0  0
  -22.1565  -11.5228   18.1997 C   0  0  0  0  0  0  0  0  0  0  0  0
  -30.2880  -26.7436   21.7486 C   0  0  0  0  0  0  0  0  0  0  0  0
  -28.7603  -26.6043   23.6151 C   0  0  0  0  0  0  0  0  0  0  0  0
  -23.7519   -9.8367   18.8537 C   0  0  0  0  0  0  0  0  0  0  0  0
  -22.8365  -12.4623   18.9738 C   0  0  0  0  0  0  0  0  0  0  0  0
  -19.8331  -24.1343   21.4320 C   0  0  0  0  0  0  0  0  0  0  0  0
  -23.5520  -18.4194   17.7464 C   0  0  0  0  0  0  0  0  0  0  0  0
  -20.3457  -22.9663   20.8677 C   0  0  0  0  0  0  0  0  0  0  0  0
  -31.3584  -26.4880   22.6056 C   0  0  0  0  0  0  0  0  0  0  0  0
  -29.8307  -26.3486   24.4722 C   0  0  0  0  0  0  0  0  0  0  0  0
  -22.8806  -19.5565   18.1936 C   0  0  0  0  0  0  0  0  0  0  0  0
  -33.2251  -28.2052   24.8397 C   0  0  0  0  0  0  0  0  0  0  0  0
  -34.3666  -28.9950   24.7031 C   0  0  0  0  0  0  0  0  0  0  0  0
  -24.5746  -19.8866   19.8790 C   0  0  0  0  0  0  0  0  0  0  0  0
  -21.1072  -24.2260   18.9519 C   0  0  0  0  0  0  0  0  0  0  0  0
  -35.6749  -27.0211   24.2243 C   0  0  0  0  0  0  0  0  0  0  0  0
  -28.9890  -26.8018   22.2534 C   0  0  0  0  0  0  0  0  0  0  0  0
  -27.4816  -26.3015   20.2571 C   0  0  0  0  0  0  0  0  0  0  0  0
  -24.4517  -10.7744   19.6292 C   0  0  0  0  0  0  0  0  0  0  0  0
  -24.7360  -18.0005   18.3702 C   0  0  0  0  0  0  0  0  0  0  0  0
  -23.9842  -12.1007   19.6995 C   0  0  0  0  0  0  0  0  0  0  0  0
  -19.9574  -25.3483   20.7562 C   0  0  0  0  0  0  0  0  0  0  0  0
  -25.2605  -18.7453   19.4362 C   0  0  0  0  0  0  0  0  0  0  0  0
  -20.9828  -23.0121   19.6277 C   0  0  0  0  0  0  0  0  0  0  0  0
  -20.5945  -25.3941   19.5162 C   0  0  0  0  0  0  0  0  0  0  0  0
  -31.1298  -26.2904   23.9674 C   0  0  0  0  0  0  0  0  0  0  0  0
  -23.3903  -20.2886   19.2619 C   0  0  0  0  0  0  0  0  0  0  0  0
  -33.3084  -26.8234   24.6687 C   0  0  0  0  0  0  0  0  0  0  0  0
  -35.5916  -28.4030   24.3953 C   0  0  0  0  0  0  0  0  0  0  0  0
  -34.5334  -26.2313   24.3610 C   0  0  0  0  0  0  0  0  0  0  0  0
  -27.8829  -27.0664   21.3687 C   0  0  0  0  0  0  0  0  0  0  0  0
  -26.3900  -26.9687   19.7572 C   0  0  0  0  0  0  0  0  0  0  0  0
  -18.4681  -28.5063   23.4211 C   0  0  0  0  0  0  0  0  0  0  0  0
  -28.0450  -25.0955   19.7242 C   0  0  0  0  0  0  0  0  0  0  0  0
  -25.6365  -15.3958   19.9541 C   0  0  0  0  0  0  0  0  0  0  0  0
  -28.5429  -16.8350   19.8891 C   0  0  0  0  0  0  0  0  0  0  0  0
  -30.3395  -19.7255   19.6371 C   0  0  0  0  0  0  0  0  0  0  0  0
  -22.3954  -30.6805   22.2304 C   0  0  0  0  0  0  0  0  0  0  0  0
  -25.6496  -10.3126   20.4207 C   0  0  0  0  0  0  0  0  0  0  0  0
  -25.4625  -16.7869   17.8587 C   0  0  0  0  0  0  0  0  0  0  0  0
  -26.5389  -18.3492   20.1271 C   0  0  0  0  0  0  0  0  0  0  0  0
  -26.5285  -11.4569   20.9190 C   0  0  0  0  0  0  0  0  0  0  0  0
  -24.5036  -31.3542   19.4415 C   0  0  0  0  0  0  0  0  0  0  0  0
  -25.6724  -12.5560   21.5403 C   0  0  0  0  0  0  0  0  0  0  0  0
  -25.5725  -30.2626   19.5188 C   0  0  0  0  0  0  0  0  0  0  0  0
  -20.4158  -27.3431   22.2601 C   0  0  0  0  0  0  0  0  0  0  0  0
  -24.0833  -31.8318   20.8297 C   0  0  0  0  0  0  0  0  0  0  0  0
  -18.1529  -26.3059   22.2309 C   0  0  0  0  0  0  0  0  0  0  0  0
  -24.7219  -29.6701   21.8262 C   0  0  0  0  0  0  0  0  0  0  0  0
  -19.3923  -26.6054   21.3900 C   0  0  2  0  0  0  0  0  0  0  0  0
  -24.7089  -13.1546   20.5083 C   0  0  1  0  0  0  0  0  0  0  0  0
  -19.8228  -28.6707   22.7349 C   0  0  2  0  0  0  0  0  0  0  0  0
  -26.3854  -16.1602   18.8994 C   0  0  1  0  0  0  0  0  0  0  0  0
  -25.1375  -29.1170   20.4523 C   0  0  2  0  0  0  0  0  0  0  0  0
  -20.7391  -26.6821   18.7739 C   0  0  0  0  0  0  0  0  0  0  0  0
  -32.6959  -20.5883   19.6561 C   0  0  0  0  0  0  0  0  0  0  0  0
  -28.6417  -16.4912   22.9193 C   0  0  0  0  0  0  0  0  0  0  0  0
  -30.4977  -18.1705   22.9794 C   0  0  0  0  0  0  0  0  0  0  0  0
  -30.7999  -16.0237   21.7454 C   0  0  0  0  0  0  0  0  0  0  0  0
  -30.0921  -20.7980   16.8898 C   0  0  0  0  0  0  0  0  0  0  0  0
  -21.5340  -21.7555   19.0206 C   0  0  0  0  0  0  0  0  0  1  0  0
  -20.8080  -29.4011   23.6455 C   0  0  0  0  0  0  0  0  0  0  0  0
  -29.2780  -17.8006   20.7870 C   0  0  1  0  0  0  0  0  0  0  0  0
  -31.5471  -20.0906   18.7928 C   0  0  2  0  0  0  0  0  0  0  0  0
  -29.7792  -17.1281   22.0962 C   0  0  0  0  0  0  0  0  0  0  0  0
  -27.1094  -28.1377   21.5637 N   0  0  0  0  0  0  0  0  0  0  0  0
  -26.2112  -28.0508   20.5679 N   0  0  0  0  0  0  0  0  0  0  0  0
  -17.6927  -27.4449   23.0057 N   0  0  0  0  0  0  0  0  0  0  0  0
  -27.2092  -17.1515   19.5944 N   0  0  0  0  0  0  0  0  0  0  0  0
  -23.6809  -30.6973   21.6645 N   0  0  0  0  0  0  0  0  0  0  0  0
  -25.5755  -26.7295   18.7076 N   0  0  0  0  0  0  0  0  0  0  0  0
  -29.1655  -24.5437   20.3600 N   0  0  0  0  0  0  0  0  0  0  0  0
  -25.4098  -14.0708   19.6344 N   0  0  0  0  0  0  0  0  0  0  0  0
  -30.3371  -18.3884   19.9739 N   0  0  0  0  0  0  0  0  0  0  0  0
  -22.0927  -29.5657   23.0026 N   0  0  0  0  0  0  0  0  0  0  0  0
  -31.1933  -21.1613   17.8184 N   0  3  0  0  0  0  0  0  0  0  0  0
  -18.0505  -29.3326   24.2350 O   0  0  0  0  0  0  0  0  0  0  0  0
  -27.5787  -24.5332   18.7045 O   0  0  0  0  0  0  0  0  0  0  0  0
  -25.2912  -15.9657   20.9826 O   0  0  0  0  0  0  0  0  0  0  0  0
  -29.1324  -15.8404   19.4592 O   0  0  0  0  0  0  0  0  0  0  0  0
  -29.4858  -20.5454   19.9682 O   0  0  0  0  0  0  0  0  0  0  0  0
  -21.5762  -31.5889   22.0557 O   0  0  0  0  0  0  0  0  0  0  0  0
  -32.1740  -26.0407   24.8039 O   0  0  0  0  0  0  0  0  0  0  0  0
  -22.7366  -21.3985   19.7008 O   0  0  0  0  0  0  0  0  0  1  0  0
  -36.6874  -29.1617   24.2626 F   0  0  0  0  0  0  0  0  0  0  0  0
  -34.6194  -24.9044   24.1943 F   0  0  0  0  0  0  0  0  0  0  0  0
  1  2  1  0  0  0  0
  1  5  2  0  0  0  0
  2  6  2  0  0  0  0
  3 10  2  0  0  0  0
  3 18  1  0  0  0  0
  4 11  1  0  0  0  0
  4 18  2  0  0  0  0
  5 20  1  0  0  0  0
  6 22  1  0  0  0  0
  7  9  2  0  0  0  0
  7 23  1  0  0  0  0
  8 12  2  0  0  0  0
  8 21  1  0  0  0  0
  9 25  1  0  0  0  0
 10 27  1  0  0  0  0
 11 27  2  0  0  0  0
 12 28  1  0  0  0  0
 13 14  2  0  0  0  0
 13 29  1  0  0  0  0
 14 30  1  0  0  0  0
 15 24  1  0  0  0  0
 15 28  2  0  0  0  0
 16 25  2  0  0  0  0
 16 26  1  0  0  0  0
 17 30  2  0  0  0  0
 17 31  1  0  0  0  0
 18 32  1  0  0  0  0
 19 32  1  0  0  0  0
 19 33  2  0  0  0  0
 19 35  1  0  0  0  0
 20 22  2  0  0  0  0
 20 40  1  0  0  0  0
 21 24  2  0  0  0  0
 21 41  1  0  0  0  0
 22 52  1  0  0  0  0
 23 26  2  0  0  0  0
 23 51  1  0  0  0  0
 24 42  1  0  0  0  0
 25 62  1  0  0  0  0
 26 56  1  0  0  0  0
 27 84  1  0  0  0  0
 28 85  1  0  0  0  0
 29 31  2  0  0  0  0
 29 84  1  0  0  0  0
 30 86  1  0  0  0  0
 31 87  1  0  0  0  0
 32 67  2  0  0  0  0
 33 68  1  0  0  0  0
 33 72  1  0  0  0  0
 34 53  1  0  0  0  0
 34 69  1  0  0  0  0
 34 78  2  0  0  0  0
 35 73  1  0  0  0  0
 35 79  2  0  0  0  0
 36 54  1  0  0  0  0
 36 74  1  0  0  0  0
 36 80  2  0  0  0  0
 37 64  1  0  0  0  0
 37 70  1  0  0  0  0
 37 81  2  0  0  0  0
 38 65  1  0  0  0  0
 38 75  1  0  0  0  0
 38 82  2  0  0  0  0
 39 71  1  0  0  0  0
 39 76  1  0  0  0  0
 39 83  2  0  0  0  0
 40 43  1  0  0  0  0
 41 54  1  0  0  0  0
 42 70  1  0  0  0  0
 43 45  1  0  0  0  0
 44 46  1  0  0  0  0
 44 48  1  0  0  0  0
 45 52  1  0  0  0  0
 46 55  1  0  0  0  0
 47 51  1  0  0  0  0
 47 53  1  0  0  0  0
 48 71  1  0  0  0  0
 49 51  1  0  0  0  0
 49 69  1  0  0  0  0
 50 55  1  0  0  0  0
 50 71  1  0  0  0  0
 52 74  1  0  0  0  0
 53 63  1  0  0  0  0
 54 70  1  0  0  0  0
 55 68  1  0  0  0  0
 57 65  1  0  0  0  0
 58 66  1  0  0  0  0
 59 66  1  0  0  0  0
 60 66  1  0  0  0  0
 61 77  1  0  0  0  0
 62 85  1  0  0  0  0
 63 76  1  0  0  0  0
 64 66  1  0  0  0  0
 64 75  1  0  0  0  0
 65 77  1  0  0  0  0
 67 68  1  0  0  0  0
M  CHG  1  77   1
M  ISO  4  39 100  62 101  76 100  85 101
M  END
> <Batch ID>
0125

> <Smiles>
CNC(C)C(=O)NC(C(=O)N1Cc2cc([101O:1][101CH2:1]c3ccc(C4CNC(=O)C(C[100NH:0][100C:0](=O)N5CCCC(n6nc(-c7ccc(Oc8ccc(F)cc8F)cc7)c(C(N)=O)c6N)C5)C4)c(C)c3)ccc2CC1C(=O)NC1CCCc2ccccc21)C(C)(C)C

> <Shape>
0.223

> <Color>
0.077

> <Negative vol penalty>
0.000

$$$$

  -OEChem-04052320353D

 89 98  0     1  0  0  0  0  0999 V2000
  -16.8756  -17.7793   23.4483 C   0  0  0  0  0  0  0  0  0  0  0  0
  -18.0426  -18.5342   23.5096 C   0  0  0  0  0  0  0  0  0  0  0  0
  -23.0746   -9.8677   19.9423 C   0  0  0  0  0  0  0  0  0  0  0  0
  -23.8384   -9.8750   22.2343 C   0  0  0  0  0  0  0  0  0  0  0  0
  -15.8409  -18.0230   24.3504 C   0  0  0  0  0  0  0  0  0  0  0  0
  -18.1751  -19.5340   24.4724 C   0  0  0  0  0  0  0  0  0  0  0  0
  -22.6979  -19.4520   26.7488 C   0  0  0  0  0  0  0  0  0  0  0  0
  -26.7674  -22.7815   23.1364 C   0  0  0  0  0  0  0  0  0  0  0  0
  -27.8332  -23.4761   22.5644 C   0  0  0  0  0  0  0  0  0  0  0  0
  -22.3321   -8.7140   20.1933 C   0  0  0  0  0  0  0  0  0  0  0  0
  -23.0958   -8.7212   22.4854 C   0  0  0  0  0  0  0  0  0  0  0  0
  -23.7736  -19.9949   26.0475 C   0  0  0  0  0  0  0  0  0  0  0  0
  -21.1153   -5.9823   23.8250 C   0  0  0  0  0  0  0  0  0  0  0  0
  -20.3611   -5.9379   24.9974 C   0  0  0  0  0  0  0  0  0  0  0  0
  -23.5769  -22.0278   27.3313 C   0  0  0  0  0  0  0  0  0  0  0  0
  -28.3251  -21.4051   24.3677 C   0  0  0  0  0  0  0  0  0  0  0  0
  -19.1137   -7.8743   24.2683 C   0  0  0  0  0  0  0  0  0  0  0  0
  -23.8278  -10.4482   20.9628 C   0  0  0  0  0  0  0  0  0  0  0  0
  -24.1674  -12.9737   20.8426 C   0  0  0  0  0  0  0  0  0  0  0  0
  -15.9646  -19.0199   25.3310 C   0  0  0  0  0  0  0  0  0  0  0  0
  -22.0456  -20.1983   27.7408 C   0  0  0  0  0  0  0  0  0  0  0  0
  -17.1405  -19.7922   25.3877 C   0  0  0  0  0  0  0  0  0  0  0  0
  -22.4948  -21.4911   28.0455 C   0  0  0  0  0  0  0  0  0  0  0  0
  -27.0133  -21.7461   24.0381 C   0  0  0  0  0  0  0  0  0  0  0  0
  -29.1450  -23.1352   22.8940 C   0  0  0  0  0  0  0  0  0  0  0  0
  -29.3909  -22.0997   23.7957 C   0  0  0  0  0  0  0  0  0  0  0  0
  -22.3426   -8.1407   21.4649 C   0  0  0  0  0  0  0  0  0  0  0  0
  -24.2115  -21.2840   26.3367 C   0  0  0  0  0  0  0  0  0  0  0  0
  -20.8689   -6.9727   22.8742 C   0  0  0  0  0  0  0  0  0  0  0  0
  -19.3603   -6.8839   25.2191 C   0  0  0  0  0  0  0  0  0  0  0  0
  -19.8680   -7.9187   23.0958 C   0  0  0  0  0  0  0  0  0  0  0  0
  -24.5955  -11.6398   20.7039 C   0  0  0  0  0  0  0  0  0  0  0  0
  -25.2583  -13.7241   20.4776 C   0  0  0  0  0  0  0  0  0  0  0  0
  -22.8972  -13.4884   21.2637 C   0  0  0  0  0  0  0  0  0  0  0  0
  -19.0913  -21.3018   28.1388 C   0  0  0  0  0  0  0  0  0  0  0  0
  -20.2275  -22.1757   31.0487 C   0  0  0  0  0  0  0  0  0  0  0  0
  -22.9211  -22.9689   32.9884 C   0  0  0  0  0  0  0  0  0  0  0  0
  -30.7415  -14.7475   20.6568 C   0  0  0  0  0  0  0  0  0  0  0  0
  -14.8003  -19.2785   26.2542 C   0  0  0  0  0  0  0  0  0  0  0  0
  -20.9037  -19.5883   28.5067 C   0  0  0  0  0  0  0  0  0  0  0  0
  -21.8415  -22.3260   29.1154 C   0  0  0  0  0  0  0  0  0  0  0  0
  -15.1697  -20.1044   27.4838 C   0  0  0  0  0  0  0  0  0  0  0  0
  -29.6018  -12.3625   18.2715 C   0  0  0  0  0  0  0  0  0  0  0  0
  -16.0143  -21.3098   27.0832 C   0  0  0  0  0  0  0  0  0  0  0  0
  -28.1653  -12.0675   18.7069 C   0  0  0  0  0  0  0  0  0  0  0  0
  -30.5339  -18.0050   20.8734 C   0  0  0  0  0  0  0  0  0  0  0  0
  -30.3813  -17.3111   23.3049 C   0  0  0  0  0  0  0  0  0  0  0  0
  -31.1898  -19.3217   21.2914 C   0  0  0  0  0  0  0  0  0  0  0  0
  -31.0383  -18.6278   23.7211 C   0  0  0  0  0  0  0  0  0  0  0  0
  -30.5208  -12.5838   19.4709 C   0  0  0  0  0  0  0  0  0  0  0  0
  -28.6208  -13.3132   20.8608 C   0  0  0  0  0  0  0  0  0  0  0  0
  -17.3317  -20.8690   26.4337 C   0  0  1  0  0  0  0  0  0  0  0  0
  -19.9862  -20.6291   29.1410 C   0  0  1  0  0  0  0  0  0  0  0  0
  -27.6448  -13.1380   19.6848 C   0  0  2  0  0  0  0  0  0  0  0  0
  -30.8064  -16.8954   21.8931 C   0  0  0  0  0  0  0  0  0  0  0  0
  -30.7545  -19.7248   22.6980 C   0  0  0  0  0  0  0  0  0  0  0  0
  -30.2699  -23.8923   22.2680 C   0  0  0  0  0  0  0  0  0  0  0  0
  -33.6521  -21.9432   23.7350 C   0  0  0  0  0  0  0  0  0  0  0  0
  -23.5314  -23.6766   35.3174 C   0  0  0  0  0  0  0  0  0  0  0  0
  -19.2435  -25.0002   30.4457 C   0  0  0  0  0  0  0  0  0  0  0  0
  -20.6872  -25.8276   32.3164 C   0  0  0  0  0  0  0  0  0  0  0  0
  -18.8307  -24.2297   32.7888 C   0  0  0  0  0  0  0  0  0  0  0  0
  -24.5683  -20.5478   33.4170 C   0  0  0  0  0  0  0  0  0  0  0  0
  -30.7870  -21.7168   24.1633 C   0  0  0  0  0  0  0  0  0  0  0  0
  -25.8666  -20.9988   24.6529 C   0  0  0  0  0  0  0  0  0  1  0  0
  -32.9212  -20.6488   23.4527 C   0  0  0  0  0  0  0  0  0  0  0  0
  -20.9069  -23.4029   31.6066 C   0  0  1  0  0  0  0  0  0  0  0  0
  -23.3393  -22.5019   34.3709 C   0  0  2  0  0  0  0  0  0  0  0  0
  -19.9284  -24.6004   31.7678 C   0  0  0  0  0  0  0  0  0  0  0  0
  -25.8597  -11.5450   20.2835 N   0  0  0  0  0  0  0  0  0  0  0  0
  -26.2353  -12.8289   20.1547 N   0  0  0  0  0  0  0  0  0  0  0  0
  -20.7250  -21.6878   29.8320 N   0  0  0  0  0  0  0  0  0  0  0  0
  -29.9709  -13.6118   20.3580 N   0  0  0  0  0  0  0  0  0  0  0  0
  -25.4675  -15.0557   20.4044 N   0  0  0  0  0  0  0  0  0  0  0  0
  -21.8866  -12.5784   21.6026 N   0  0  0  0  0  0  0  0  0  0  0  0
  -18.2720  -20.4328   27.4437 N   0  0  0  0  0  0  0  0  0  0  0  0
  -21.5495  -22.9850   32.8479 N   0  0  0  0  0  0  0  0  0  0  0  0
  -30.1431  -15.6757   21.5000 N   0  0  0  0  0  0  0  0  0  0  0  0
  -24.6204  -21.7442   34.2962 N   0  3  0  0  0  0  0  0  0  0  0  0
  -31.4893  -20.9550   23.0951 N   0  3  1  0  0  0  0  0  0  0  0  0
  -22.6600  -14.7188   21.3217 O   0  0  0  0  0  0  0  0  0  0  0  0
  -19.1395  -22.5191   28.0070 O   0  0  0  0  0  0  0  0  0  0  0  0
  -19.2946  -21.6644   31.6731 O   0  0  0  0  0  0  0  0  0  0  0  0
  -23.7301  -23.2911   32.1211 O   0  0  0  0  0  0  0  0  0  0  0  0
  -31.8766  -14.9240   20.2012 O   0  0  0  0  0  0  0  0  0  0  0  0
  -21.6180   -7.0150   21.7103 O   0  0  0  0  0  0  0  0  0  0  0  0
  -25.2608  -21.8166   25.6532 O   0  0  0  0  0  0  0  0  0  1  0  0
  -18.6350   -6.8402   26.3444 F   0  0  0  0  0  0  0  0  0  0  0  0
  -19.6258   -8.8718   22.1855 F   0  0  0  0  0  0  0  0  0  0  0  0
  1  2  1  0  0  0  0
  1  5  2  0  0  0  0
  2  6  2  0  0  0  0
  3 10  2  0  0  0  0
  3 18  1  0  0  0  0
  4 11  1  0  0  0  0
  4 18  2  0  0  0  0
  5 20  1  0  0  0  0
  6 22  1  0  0  0  0
  7 12  2  0  0  0  0
  7 21  1  0  0  0  0
  8  9  2  0  0  0  0
  8 24  1  0  0  0  0
  9 25  1  0  0  0  0
 10 27  1  0  0  0  0
 11 27  2  0  0  0  0
 12 28  1  0  0  0  0
 13 14  2  0  0  0  0
 13 29  1  0  0  0  0
 14 30  1  0  0  0  0
 15 23  1  0  0  0  0
 15 28  2  0  0  0  0
 16 24  2  0  0  0  0
 16 26  1  0  0  0  0
 17 30  2  0  0  0  0
 17 31  1  0  0  0  0
 18 32  1  0  0  0  0
 19 32  1  0  0  0  0
 19 33  2  0  0  0  0
 19 34  1  0  0  0  0
 20 22  2  0  0  0  0
 20 39  1  0  0  0  0
 21 23  2  0  0  0  0
 21 40  1  0  0  0  0
 22 52  1  0  0  0  0
 23 41  1  0  0  0  0
 24 65  1  0  0  0  0
 25 26  2  0  0  0  0
 25 57  1  0  0  0  0
 26 64  1  0  0  0  0
 27 86  1  0  0  0  0
 28 87  1  0  0  0  0
 29 31  2  0  0  0  0
 29 86  1  0  0  0  0
 30 88  1  0  0  0  0
 31 89  1  0  0  0  0
 32 70  2  0  0  0  0
 33 71  1  0  0  0  0
 33 74  1  0  0  0  0
 34 75  1  0  0  0  0
 34 81  2  0  0  0  0
 35 53  1  0  0  0  0
 35 76  1  0  0  0  0
 35 82  2  0  0  0  0
 36 67  1  0  0  0  0
 36 72  1  0  0  0  0
 36 83  2  0  0  0  0
 37 68  1  0  0  0  0
 37 77  1  0  0  0  0
 37 84  2  0  0  0  0
 38 73  1  0  0  0  0
 38 78  1  0  0  0  0
 38 85  2  0  0  0  0
 39 42  1  0  0  0  0
 40 53  1  0  0  0  0
 41 72  1  0  0  0  0
 42 44  1  0  0  0  0
 43 45  1  0  0  0  0
 43 50  1  0  0  0  0
 44 52  1  0  0  0  0
 45 54  1  0  0  0  0
 46 48  1  0  0  0  0
 46 55  1  0  0  0  0
 47 49  1  0  0  0  0
 47 55  1  0  0  0  0
 48 56  1  0  0  0  0
 49 56  1  0  0  0  0
 50 73  1  0  0  0  0
 51 54  1  0  0  0  0
 51 73  1  0  0  0  0
 52 76  1  0  0  0  0
 53 72  1  0  0  0  0
 54 71  1  0  0  0  0
 55 78  1  0  0  0  0
 56 80  1  0  0  0  0
 58 66  1  0  0  0  0
 59 68  1  0  0  0  0
 60 69  1  0  0  0  0
 61 69  1  0  0  0  0
 62 69  1  0  0  0  0
 63 79  1  0  0  0  0
 64 80  1  0  0  0  0
 65 87  1  0  0  0  0
 66 80  1  0  0  0  0
 67 69  1  0  0  0  0
 67 77  1  0  0  0  0
 68 79  1  0  0  0  0
 70 71  1  0  0  0  0
M  CHG  2  79   1  80   1
M  ISO  4  38 100  65 101  78 100  87 101
M  END
> <Batch ID>
0125

> <Smiles>
CCN(Cc1cc([101CH2:1][101O:1]c2ccc3c(c2)CN(C(=O)C(NC(=O)C(C)NC)C(C)(C)C)C(C(=O)NC2CCCc4ccccc42)C3)ccc1C)C1CCC([100NH:0][100C:0](=O)N2CCCC(n3nc(-c4ccc(Oc5ccc(F)cc5F)cc4)c(C(N)=O)c3N)C2)CC1

> <Shape>
0.166

> <Color>
0.187

> <Negative vol penalty>
0.000

$$$$

  -OEChem-04052320353D

 79 87  0     1  0  0  0  0  0999 V2000
  -26.2557  -33.1308   18.4077 C   0  0  0  0  0  0  0  0  0  0  0  0
  -26.8579  -31.9800   18.9060 C   0  0  0  0  0  0  0  0  0  0  0  0
  -23.1007   -9.8373   19.9341 C   0  0  0  0  0  0  0  0  0  0  0  0
  -23.8695   -9.8462   22.2244 C   0  0  0  0  0  0  0  0  0  0  0  0
  -25.3740  -33.0446   17.3311 C   0  0  0  0  0  0  0  0  0  0  0  0
  -26.5779  -30.7420   18.3287 C   0  0  0  0  0  0  0  0  0  0  0  0
  -30.4333  -26.0292   17.6725 C   0  0  0  0  0  0  0  0  0  0  0  0
  -29.1411  -18.7571   21.0185 C   0  0  0  0  0  0  0  0  0  0  0  0
  -31.3554  -18.5679   20.0707 C   0  0  0  0  0  0  0  0  0  0  0  0
  -28.8580  -19.8089   20.1472 C   0  0  0  0  0  0  0  0  0  0  0  0
  -31.0723  -19.6197   19.1994 C   0  0  0  0  0  0  0  0  0  0  0  0
  -22.3825   -8.6671   20.1797 C   0  0  0  0  0  0  0  0  0  0  0  0
  -23.1512   -8.6760   22.4701 C   0  0  0  0  0  0  0  0  0  0  0  0
  -30.6269  -24.8652   18.4152 C   0  0  0  0  0  0  0  0  0  0  0  0
  -19.9432   -7.8061   23.0802 C   0  0  0  0  0  0  0  0  0  0  0  0
  -19.1920   -7.7429   24.2538 C   0  0  0  0  0  0  0  0  0  0  0  0
  -29.1880  -23.6642   16.8965 C   0  0  0  0  0  0  0  0  0  0  0  0
  -20.4772   -5.8277   24.9732 C   0  0  0  0  0  0  0  0  0  0  0  0
  -23.8443  -10.4268   20.9564 C   0  0  0  0  0  0  0  0  0  0  0  0
  -24.1320  -12.9594   20.8509 C   0  0  0  0  0  0  0  0  0  0  0  0
  -25.0904  -31.8062   16.7341 C   0  0  0  0  0  0  0  0  0  0  0  0
  -29.6055  -26.0219   16.5406 C   0  0  0  0  0  0  0  0  0  0  0  0
  -25.6905  -30.6389   17.2439 C   0  0  0  0  0  0  0  0  0  0  0  0
  -28.9876  -24.8287   16.1397 C   0  0  0  0  0  0  0  0  0  0  0  0
  -30.3898  -18.1366   20.9803 C   0  0  0  0  0  0  0  0  0  0  0  0
  -29.8236  -20.2402   19.2377 C   0  0  0  0  0  0  0  0  0  0  0  0
  -22.4077   -8.0864   21.4477 C   0  0  0  0  0  0  0  0  0  0  0  0
  -30.0019  -23.6832   18.0289 C   0  0  0  0  0  0  0  0  0  0  0  0
  -20.9613   -6.8801   22.8531 C   0  0  0  0  0  0  0  0  0  0  0  0
  -19.4590   -6.7537   25.2003 C   0  0  0  0  0  0  0  0  0  0  0  0
  -21.2283   -5.8909   23.7996 C   0  0  0  0  0  0  0  0  0  0  0  0
  -24.5869  -11.6354   20.7032 C   0  0  0  0  0  0  0  0  0  0  0  0
  -25.2065  -13.7341   20.4881 C   0  0  0  0  0  0  0  0  0  0  0  0
  -22.8525  -13.4455   21.2780 C   0  0  0  0  0  0  0  0  0  0  0  0
  -26.9174  -27.5054   15.7179 C   0  0  0  0  0  0  0  0  0  0  0  0
  -27.4575  -26.0678   12.8607 C   0  0  0  0  0  0  0  0  0  0  0  0
  -28.9270  -23.5185   11.1320 C   0  0  0  0  0  0  0  0  0  0  0  0
  -30.6681  -14.8682   20.6614 C   0  0  0  0  0  0  0  0  0  0  0  0
  -24.0943  -31.7568   15.6028 C   0  0  0  0  0  0  0  0  0  0  0  0
  -29.4283  -27.2796   15.7349 C   0  0  0  0  0  0  0  0  0  0  0  0
  -28.1054  -24.7632   14.9207 C   0  0  0  0  0  0  0  0  0  0  0  0
  -24.1397  -30.4546   14.8075 C   0  0  0  0  0  0  0  0  0  0  0  0
  -29.5717  -12.4749   18.2642 C   0  0  0  0  0  0  0  0  0  0  0  0
  -24.1751  -29.2550   15.7492 C   0  0  0  0  0  0  0  0  0  0  0  0
  -28.1426  -12.1480   18.7009 C   0  0  0  0  0  0  0  0  0  0  0  0
  -30.4888  -12.7077   19.4629 C   0  0  0  0  0  0  0  0  0  0  0  0
  -28.5776  -13.3896   20.8614 C   0  0  0  0  0  0  0  0  0  0  0  0
  -25.4311  -29.2809   16.6286 C   0  0  1  0  0  0  0  0  0  0  0  0
  -28.1542  -27.2771   14.8958 C   0  0  1  0  0  0  0  0  0  0  0  0
  -27.6026  -13.2017   19.6865 C   0  0  2  0  0  0  0  0  0  0  0  0
  -29.1577  -22.5866    8.8134 C   0  0  0  0  0  0  0  0  0  0  0  0
  -24.6287  -24.9379   13.0360 C   0  0  0  0  0  0  0  0  0  0  0  0
  -25.2453  -23.3033   11.2426 C   0  0  0  0  0  0  0  0  0  0  0  0
  -25.2883  -25.7512   10.7649 C   0  0  0  0  0  0  0  0  0  0  0  0
  -31.8638  -23.8847   11.1519 C   0  0  0  0  0  0  0  0  0  0  0  0
  -30.6933  -17.0120   21.9115 C   0  0  0  0  0  0  0  0  0  0  0  0
  -29.5177  -21.3705   18.2996 C   0  0  0  0  0  0  0  0  0  1  0  0
  -27.0774  -24.7449   12.2408 C   0  0  1  0  0  0  0  0  0  0  0  0
  -29.7581  -23.5105    9.8616 C   0  0  2  0  0  0  0  0  0  0  0  0
  -25.5749  -24.6857   11.8452 C   0  0  0  0  0  0  0  0  0  0  0  0
  -25.8518  -11.5690   20.2794 N   0  0  0  0  0  0  0  0  0  0  0  0
  -26.2008  -12.8611   20.1576 N   0  0  0  0  0  0  0  0  0  0  0  0
  -27.9582  -26.0208   14.1695 N   0  0  0  0  0  0  0  0  0  0  0  0
  -29.9201  -13.7188   20.3574 N   0  0  0  0  0  0  0  0  0  0  0  0
  -25.3883  -15.0702   20.4226 N   0  0  0  0  0  0  0  0  0  0  0  0
  -21.8615  -12.5130   21.6135 N   0  0  0  0  0  0  0  0  0  0  0  0
  -26.5846  -28.8373   15.8756 N   0  0  0  0  0  0  0  0  0  0  0  0
  -27.9970  -24.5365   11.1275 N   0  0  0  0  0  0  0  0  0  0  0  0
  -30.0528  -15.7789   21.5116 N   0  0  0  0  0  0  0  0  0  0  0  0
  -31.1456  -23.0516   10.1533 N   0  3  0  0  0  0  0  0  0  0  0  0
  -22.5905  -14.6704   21.3440 O   0  0  0  0  0  0  0  0  0  0  0  0
  -26.3092  -26.5444   16.1741 O   0  0  0  0  0  0  0  0  0  0  0  0
  -27.3221  -27.1040   12.2052 O   0  0  0  0  0  0  0  0  0  0  0  0
  -29.0845  -22.7010   12.0361 O   0  0  0  0  0  0  0  0  0  0  0  0
  -31.7982  -15.0706   20.2045 O   0  0  0  0  0  0  0  0  0  0  0  0
  -21.7068   -6.9447   21.6878 O   0  0  0  0  0  0  0  0  0  0  0  0
  -30.1886  -22.5458   18.7524 O   0  0  0  0  0  0  0  0  0  1  0  0
  -18.7385   -6.6940   26.3279 F   0  0  0  0  0  0  0  0  0  0  0  0
  -22.2060   -4.9993   23.5875 F   0  0  0  0  0  0  0  0  0  0  0  0
  1  2  1  0  0  0  0
  1  5  2  0  0  0  0
  2  6  2  0  0  0  0
  3 12  2  0  0  0  0
  3 19  1  0  0  0  0
  4 13  1  0  0  0  0
  4 19  2  0  0  0  0
  5 21  1  0  0  0  0
  6 23  1  0  0  0  0
  7 14  2  0  0  0  0
  7 22  1  0  0  0  0
  8 10  2  0  0  0  0
  8 25  1  0  0  0  0
  9 11  1  0  0  0  0
  9 25  2  0  0  0  0
 10 26  1  0  0  0  0
 11 26  2  0  0  0  0
 12 27  1  0  0  0  0
 13 27  2  0  0  0  0
 14 28  1  0  0  0  0
 15 16  2  0  0  0  0
 15 29  1  0  0  0  0
 16 30  1  0  0  0  0
 17 24  1  0  0  0  0
 17 28  2  0  0  0  0
 18 30  2  0  0  0  0
 18 31  1  0  0  0  0
 19 32  1  0  0  0  0
 20 32  1  0  0  0  0
 20 33  2  0  0  0  0
 20 34  1  0  0  0  0
 21 23  2  0  0  0  0
 21 39  1  0  0  0  0
 22 24  2  0  0  0  0
 22 40  1  0  0  0  0
 23 48  1  0  0  0  0
 24 41  1  0  0  0  0
 25 56  1  0  0  0  0
 26 57  1  0  0  0  0
 27 76  1  0  0  0  0
 28 77  1  0  0  0  0
 29 31  2  0  0  0  0
 29 76  1  0  0  0  0
 30 78  1  0  0  0  0
 31 79  1  0  0  0  0
 32 61  2  0  0  0  0
 33 62  1  0  0  0  0
 33 65  1  0  0  0  0
 34 66  1  0  0  0  0
 34 71  2  0  0  0  0
 35 49  1  0  0  0  0
 35 67  1  0  0  0  0
 35 72  2  0  0  0  0
 36 58  1  0  0  0  0
 36 63  1  0  0  0  0
 36 73  2  0  0  0  0
 37 59  1  0  0  0  0
 37 68  1  0  0  0  0
 37 74  2  0  0  0  0
 38 64  1  0  0  0  0
 38 69  1  0  0  0  0
 38 75  2  0  0  0  0
 39 42  1  0  0  0  0
 40 49  1  0  0  0  0
 41 63  1  0  0  0  0
 42 44  1  0  0  0  0
 43 45  1  0  0  0  0
 43 46  1  0  0  0  0
 44 48  1  0  0  0  0
 45 50  1  0  0  0  0
 46 64  1  0  0  0  0
 47 50  1  0  0  0  0
 47 64  1  0  0  0  0
 48 67  1  0  0  0  0
 49 63  1  0  0  0  0
 50 62  1  0  0  0  0
 51 59  1  0  0  0  0
 52 60  1  0  0  0  0
 53 60  1  0  0  0  0
 54 60  1  0  0  0  0
 55 70  1  0  0  0  0
 56 69  1  0  0  0  0
 57 77  1  0  0  0  0
 58 60  1  0  0  0  0
 58 68  1  0  0  0  0
 59 70  1  0  0  0  0
 61 62  1  0  0  0  0
M  CHG  1  70   1
M  ISO  4  38 100  57 101  69 100  77 101
M  END
> <Batch ID>
0125

> <Smiles>
CNC(C)C(=O)NC(C(=O)N1Cc2cc([101O:1][101CH2:1]c3ccc(C[100NH:0][100C:0](=O)N4CCCC(n5nc(-c6ccc(Oc7ccc(F)cc7F)cc6)c(C(N)=O)c5N)C4)cc3)ccc2CC1C(=O)NC1CCCc2ccccc21)C(C)(C)C

> <Shape>
0.232

> <Color>
0.203

> <Negative vol penalty>
0.000

$$$$

  -OEChem-04052320353D

 85 94  0     1  0  0  0  0  0999 V2000
  -27.6535  -37.0111   18.0041 C   0  0  0  0  0  0  0  0  0  0  0  0
  -27.8136  -35.6546   17.7403 C   0  0  0  0  0  0  0  0  0  0  0  0
  -23.4655  -10.4184   23.3659 C   0  0  0  0  0  0  0  0  0  0  0  0
  -23.8269  -12.3193   24.8127 C   0  0  0  0  0  0  0  0  0  0  0  0
  -27.4848  -37.4497   19.3167 C   0  0  0  0  0  0  0  0  0  0  0  0
  -27.8062  -34.7359   18.7892 C   0  0  0  0  0  0  0  0  0  0  0  0
  -30.1598  -22.4753   20.0474 C   0  0  0  0  0  0  0  0  0  0  0  0
  -28.0262  -21.5575   19.3821 C   0  0  0  0  0  0  0  0  0  0  0  0
  -25.5881  -29.0287   18.6688 C   0  0  0  0  0  0  0  0  0  0  0  0
  -29.5348  -23.6704   20.4034 C   0  0  0  0  0  0  0  0  0  0  0  0
  -27.4011  -22.7526   19.7382 C   0  0  0  0  0  0  0  0  0  0  0  0
  -22.7690   -9.7731   24.3877 C   0  0  0  0  0  0  0  0  0  0  0  0
  -23.1304  -11.6740   25.8345 C   0  0  0  0  0  0  0  0  0  0  0  0
  -26.2005  -27.7878   18.4995 C   0  0  0  0  0  0  0  0  0  0  0  0
  -19.6787   -9.8895   25.7551 C   0  0  0  0  0  0  0  0  0  0  0  0
  -18.4780   -9.2611   25.4247 C   0  0  0  0  0  0  0  0  0  0  0  0
  -26.2856  -27.5098   20.8942 C   0  0  0  0  0  0  0  0  0  0  0  0
  -19.3807   -7.1464   26.1664 C   0  0  0  0  0  0  0  0  0  0  0  0
  -23.9945  -11.6915   23.5784 C   0  0  0  0  0  0  0  0  0  0  0  0
  -24.1820  -13.2104   21.5374 C   0  0  0  0  0  0  0  0  0  0  0  0
  -29.4056  -21.4189   19.5367 C   0  0  0  0  0  0  0  0  0  0  0  0
  -27.4656  -36.5349   20.3814 C   0  0  0  0  0  0  0  0  0  0  0  0
  -25.3293  -29.5252   19.9545 C   0  0  0  0  0  0  0  0  0  0  0  0
  -27.6384  -35.1627   20.1175 C   0  0  0  0  0  0  0  0  0  0  0  0
  -25.6675  -28.7562   21.0771 C   0  0  0  0  0  0  0  0  0  0  0  0
  -28.1554  -23.8090   20.2489 C   0  0  0  0  0  0  0  0  0  0  0  0
  -22.6014  -10.4009   25.6220 C   0  0  0  0  0  0  0  0  0  0  0  0
  -26.5520  -27.0294   19.6123 C   0  0  0  0  0  0  0  0  0  0  0  0
  -20.7304   -9.1463   26.2910 C   0  0  0  0  0  0  0  0  0  0  0  0
  -18.3290   -7.8896   25.6304 C   0  0  0  0  0  0  0  0  0  0  0  0
  -20.5814   -7.7747   26.4967 C   0  0  0  0  0  0  0  0  0  0  0  0
  -24.7146  -12.3584   22.5235 C   0  0  0  0  0  0  0  0  0  0  0  0
  -25.2671  -13.5807   20.7812 C   0  0  0  0  0  0  0  0  0  0  0  0
  -22.8276  -13.6296   21.3242 C   0  0  0  0  0  0  0  0  0  0  0  0
  -26.2749  -32.0693   21.6090 C   0  0  0  0  0  0  0  0  0  0  0  0
  -24.1112  -30.9841   23.7684 C   0  0  0  0  0  0  0  0  0  0  0  0
  -22.3351  -28.3514   25.0178 C   0  0  0  0  0  0  0  0  0  0  0  0
  -30.5606  -15.3023   20.3805 C   0  0  0  0  0  0  0  0  0  0  0  0
  -27.3276  -37.0610   21.7881 C   0  0  0  0  0  0  0  0  0  0  0  0
  -24.6437  -30.8538   20.1197 C   0  0  0  0  0  0  0  0  0  0  0  0
  -25.3928  -29.2351   22.4784 C   0  0  0  0  0  0  0  0  0  0  0  0
  -26.9564  -35.9863   22.8067 C   0  0  0  0  0  0  0  0  0  0  0  0
  -30.6370  -18.6124   17.1786 C   0  0  0  0  0  0  0  0  0  0  0  0
  -30.0023  -11.8029   20.7254 C   0  0  0  0  0  0  0  0  0  0  0  0
  -29.9421  -19.8902   17.6307 C   0  0  0  0  0  0  0  0  0  0  0  0
  -27.8245  -34.7467   22.6151 C   0  0  0  0  0  0  0  0  0  0  0  0
  -28.5355  -11.7064   21.1484 C   0  0  0  0  0  0  0  0  0  0  0  0
  -30.1155  -17.4037   17.9443 C   0  0  0  0  0  0  0  0  0  0  0  0
  -30.6877  -13.0217   21.3392 C   0  0  0  0  0  0  0  0  0  0  0  0
  -28.5354  -14.2085   21.5202 C   0  0  0  0  0  0  0  0  0  0  0  0
  -30.0868  -20.1145   19.1479 C   0  0  2  0  0  0  0  0  0  0  0  0
  -27.6111  -34.1330   21.2261 C   0  0  1  0  0  0  0  0  0  0  0  0
  -24.8942  -31.4899   21.4835 C   0  0  1  0  0  0  0  0  0  0  0  0
  -29.5886  -18.8821   19.9599 C   0  0  1  0  0  0  0  0  0  0  0  0
  -27.7869  -13.0261   20.8814 C   0  0  2  0  0  0  0  0  0  0  0  0
  -30.2736  -17.5873   19.4556 C   0  0  1  0  0  0  0  0  0  0  0  0
  -29.8399  -19.0754   21.4651 C   0  0  0  0  0  0  0  0  0  0  0  0
  -20.6766  -27.7662   26.8079 C   0  0  0  0  0  0  0  0  0  0  0  0
  -26.3356  -31.0737   25.8550 C   0  0  0  0  0  0  0  0  0  0  0  0
  -24.9218  -29.6196   27.3230 C   0  0  0  0  0  0  0  0  0  0  0  0
  -24.1128  -31.8854   26.6642 C   0  0  0  0  0  0  0  0  0  0  0  0
  -20.3150  -27.4992   23.0298 C   0  0  0  0  0  0  0  0  0  0  0  0
  -27.4836  -25.0942   20.6337 C   0  0  0  0  0  0  0  0  0  1  0  0
  -24.1553  -30.0352   24.9417 C   0  0  1  0  0  0  0  0  0  0  0  0
  -20.8644  -28.2016   25.3629 C   0  0  2  0  0  0  0  0  0  0  0  0
  -24.8884  -30.6450   26.1698 C   0  0  0  0  0  0  0  0  0  0  0  0
  -26.0353  -12.1968   22.4067 N   0  0  0  0  0  0  0  0  0  0  0  0
  -26.3417  -12.9522   21.3383 N   0  0  0  0  0  0  0  0  0  0  0  0
  -24.7264  -30.5433   22.5881 N   0  0  0  0  0  0  0  0  0  0  0  0
  -29.9286  -14.2402   21.0480 N   0  0  0  0  0  0  0  0  0  0  0  0
  -25.3973  -14.3793   19.7006 N   0  0  0  0  0  0  0  0  0  0  0  0
  -21.8365  -13.1550   22.1942 N   0  0  0  0  0  0  0  0  0  0  0  0
  -26.3743  -33.3822   21.1899 N   0  0  0  0  0  0  0  0  0  0  0  0
  -22.7740  -29.6452   25.2034 N   0  0  0  0  0  0  0  0  0  0  0  0
  -29.7676  -16.4173   20.1382 N   0  0  0  0  0  0  0  0  0  0  0  0
  -20.2258  -27.1857   24.4792 N   0  3  0  0  0  0  0  0  0  0  0  0
  -22.5033  -14.3891   20.3800 O   0  0  0  0  0  0  0  0  0  0  0  0
  -27.1825  -31.3768   22.0545 O   0  0  0  0  0  0  0  0  0  0  0  0
  -23.5453  -32.0732   23.8923 O   0  0  0  0  0  0  0  0  0  0  0  0
  -23.0263  -27.4135   24.6264 O   0  0  0  0  0  0  0  0  0  0  0  0
  -31.7423  -15.2579   20.0220 O   0  0  0  0  0  0  0  0  0  0  0  0
  -21.9216   -9.7717   26.6192 O   0  0  0  0  0  0  0  0  0  0  0  0
  -27.1505  -25.8180   19.4499 O   0  0  0  0  0  0  0  0  0  1  0  0
  -17.1754   -7.2866   25.3146 F   0  0  0  0  0  0  0  0  0  0  0  0
  -21.5878   -7.0557   27.0124 F   0  0  0  0  0  0  0  0  0  0  0  0
  1  2  1  0  0  0  0
  1  5  2  0  0  0  0
  2  6  2  0  0  0  0
  3 12  2  0  0  0  0
  3 19  1  0  0  0  0
  4 13  1  0  0  0  0
  4 19  2  0  0  0  0
  5 22  1  0  0  0  0
  6 24  1  0  0  0  0
  7 10  2  0  0  0  0
  7 21  1  0  0  0  0
  8 11  1  0  0  0  0
  8 21  2  0  0  0  0
  9 14  2  0  0  0  0
  9 23  1  0  0  0  0
 10 26  1  0  0  0  0
 11 26  2  0  0  0  0
 12 27  1  0  0  0  0
 13 27  2  0  0  0  0
 14 28  1  0  0  0  0
 15 16  2  0  0  0  0
 15 29  1  0  0  0  0
 16 30  1  0  0  0  0
 17 25  1  0  0  0  0
 17 28  2  0  0  0  0
 18 30  2  0  0  0  0
 18 31  1  0  0  0  0
 19 32  1  0  0  0  0
 20 32  1  0  0  0  0
 20 33  2  0  0  0  0
 20 34  1  0  0  0  0
 21 51  1  0  0  0  0
 22 24  2  0  0  0  0
 22 39  1  0  0  0  0
 23 25  2  0  0  0  0
 23 40  1  0  0  0  0
 24 52  1  0  0  0  0
 25 41  1  0  0  0  0
 26 63  1  0  0  0  0
 27 82  1  0  0  0  0
 28 83  1  0  0  0  0
 29 31  2  0  0  0  0
 29 82  1  0  0  0  0
 30 84  1  0  0  0  0
 31 85  1  0  0  0  0
 32 67  2  0  0  0  0
 33 68  1  0  0  0  0
 33 71  1  0  0  0  0
 34 72  1  0  0  0  0
 34 77  2  0  0  0  0
 35 53  1  0  0  0  0
 35 73  1  0  0  0  0
 35 78  2  0  0  0  0
 36 64  1  0  0  0  0
 36 69  1  0  0  0  0
 36 79  2  0  0  0  0
 37 65  1  0  0  0  0
 37 74  1  0  0  0  0
 37 80  2  0  0  0  0
 38 70  1  0  0  0  0
 38 75  1  0  0  0  0
 38 81  2  0  0  0  0
 39 42  1  0  0  0  0
 40 53  1  0  0  0  0
 41 69  1  0  0  0  0
 42 46  1  0  0  0  0
 43 45  1  0  0  0  0
 43 48  1  0  0  0  0
 44 47  1  0  0  0  0
 44 49  1  0  0  0  0
 45 51  1  0  0  0  0
 46 52  1  0  0  0  0
 47 55  1  0  0  0  0
 48 56  1  0  0  0  0
 49 70  1  0  0  0  0
 50 55  1  0  0  0  0
 50 70  1  0  0  0  0
 51 54  1  0  0  0  0
 52 73  1  0  0  0  0
 53 69  1  0  0  0  0
 54 56  1  0  0  0  0
 54 57  1  0  0  0  0
 55 68  1  0  0  0  0
 56 75  1  0  0  0  0
 58 65  1  0  0  0  0
 59 66  1  0  0  0  0
 60 66  1  0  0  0  0
 61 66  1  0  0  0  0
 62 76  1  0  0  0  0
 63 83  1  0  0  0  0
 64 66  1  0  0  0  0
 64 74  1  0  0  0  0
 65 76  1  0  0  0  0
 67 68  1  0  0  0  0
M  CHG  1  76   1
M  ISO  4  38 100  63 101  75 100  83 101
M  END
> <Batch ID>
0125

> <Smiles>
CNC(C)C(=O)NC(C(=O)N1Cc2cc([101O:1][101CH2:1]c3ccc(C4CCCC([100NH:0][100C:0](=O)N5CCCC(n6nc(-c7ccc(Oc8ccc(F)cc8F)cc7)c(C(N)=O)c6N)C5)C4C)cc3)ccc2CC1C(=O)NC1CCCc2ccccc21)C(C)(C)C

> <Shape>
0.249

> <Color>
0.128

> <Negative vol penalty>
0.000

$$$$

  -OEChem-04052320353D

 85 94  0     1  0  0  0  0  0999 V2000
  -27.5789  -36.5585   19.3801 C   0  0  0  0  0  0  0  0  0  0  0  0
  -27.5181  -35.1821   19.1941 C   0  0  0  0  0  0  0  0  0  0  0  0
  -23.0127  -13.1630   21.5884 C   0  0  0  0  0  0  0  0  0  0  0  0
  -24.8744  -14.7023   21.5459 C   0  0  0  0  0  0  0  0  0  0  0  0
  -26.9297  -37.1405   20.4668 C   0  0  0  0  0  0  0  0  0  0  0  0
  -26.7982  -34.3885   20.0879 C   0  0  0  0  0  0  0  0  0  0  0  0
  -26.2863  -29.6318   18.9415 C   0  0  0  0  0  0  0  0  0  0  0  0
  -23.8524  -12.1354   21.1590 C   0  0  0  0  0  0  0  0  0  0  0  0
  -25.7142  -13.6746   21.1165 C   0  0  0  0  0  0  0  0  0  0  0  0
  -27.3398  -28.7215   19.0136 C   0  0  0  0  0  0  0  0  0  0  0  0
  -26.4009  -12.0623   18.2252 C   0  0  0  0  0  0  0  0  0  0  0  0
  -27.2803  -12.3386   17.1784 C   0  0  0  0  0  0  0  0  0  0  0  0
  -26.4315  -27.8422   21.0681 C   0  0  0  0  0  0  0  0  0  0  0  0
  -29.1526  -11.8172   18.6135 C   0  0  0  0  0  0  0  0  0  0  0  0
  -23.5236  -14.4465   21.7818 C   0  0  0  0  0  0  0  0  0  0  0  0
  -21.9152  -15.5579   23.4205 C   0  0  0  0  0  0  0  0  0  0  0  0
  -26.2121  -36.3516   21.3809 C   0  0  0  0  0  0  0  0  0  0  0  0
  -25.3017  -29.6615   19.9395 C   0  0  0  0  0  0  0  0  0  0  0  0
  -26.1162  -34.9599   21.1774 C   0  0  0  0  0  0  0  0  0  0  0  0
  -25.3651  -28.7521   21.0050 C   0  0  0  0  0  0  0  0  0  0  0  0
  -25.2032  -12.3912   20.9231 C   0  0  0  0  0  0  0  0  0  0  0  0
  -27.4141  -27.8284   20.0785 C   0  0  0  0  0  0  0  0  0  0  0  0
  -26.8974  -11.6634   19.4663 C   0  0  0  0  0  0  0  0  0  0  0  0
  -28.6561  -12.2161   17.3725 C   0  0  0  0  0  0  0  0  0  0  0  0
  -28.2732  -11.5408   19.6604 C   0  0  0  0  0  0  0  0  0  0  0  0
  -22.6565  -15.5086   22.2248 C   0  0  0  0  0  0  0  0  0  0  0  0
  -21.2610  -16.7645   23.3694 C   0  0  0  0  0  0  0  0  0  0  0  0
  -21.8261  -14.5989   24.4826 C   0  0  0  0  0  0  0  0  0  0  0  0
  -24.3115  -31.8223   22.0499 C   0  0  0  0  0  0  0  0  0  0  0  0
  -22.0260  -29.6039   22.6642 C   0  0  0  0  0  0  0  0  0  0  0  0
  -21.0699  -26.3289   22.5789 C   0  0  0  0  0  0  0  0  0  0  0  0
  -22.7852  -21.6550   19.8081 C   0  0  0  0  0  0  0  0  0  0  0  0
  -25.5217  -37.0344   22.5352 C   0  0  0  0  0  0  0  0  0  0  0  0
  -24.1572  -30.6316   19.8331 C   0  0  0  0  0  0  0  0  0  0  0  0
  -24.3223  -28.7296   22.0915 C   0  0  0  0  0  0  0  0  0  0  0  0
  -25.1618  -36.0747   23.6646 C   0  0  0  0  0  0  0  0  0  0  0  0
  -32.5725  -25.4351   20.7360 C   0  0  0  0  0  0  0  0  0  0  0  0
  -31.9739  -24.1139   21.2065 C   0  0  0  0  0  0  0  0  0  0  0  0
  -19.6152  -19.7934   19.9631 C   0  0  0  0  0  0  0  0  0  0  0  0
  -24.4470  -34.8551   23.1024 C   0  0  0  0  0  0  0  0  0  0  0  0
  -31.4894  -26.4593   20.4054 C   0  0  0  0  0  0  0  0  0  0  0  0
  -19.8808  -18.5804   20.8567 C   0  0  0  0  0  0  0  0  0  0  0  0
  -25.6818  -23.0364   20.4500 C   0  0  0  0  0  0  0  0  0  0  0  0
  -26.3083  -21.2986   18.7167 C   0  0  0  0  0  0  0  0  0  0  0  0
  -30.9769  -23.5600   20.1923 C   0  0  0  0  0  0  0  0  0  0  0  0
  -26.8288  -23.9270   19.9702 C   0  0  0  0  0  0  0  0  0  0  0  0
  -27.4541  -22.1908   18.2374 C   0  0  0  0  0  0  0  0  0  0  0  0
  -20.4550  -21.0054   20.3424 C   0  0  0  0  0  0  0  0  0  0  0  0
  -22.2957  -19.3784   20.8280 C   0  0  0  0  0  0  0  0  0  0  0  0
  -25.3647  -34.0733   22.1539 C   0  0  1  0  0  0  0  0  0  0  0  0
  -23.4902  -30.9182   21.1749 C   0  0  1  0  0  0  0  0  0  0  0  0
  -30.4813  -25.9188   19.3759 C   0  0  1  0  0  0  0  0  0  0  0  0
  -21.1946  -18.6892   21.6486 C   0  0  2  0  0  0  0  0  0  0  0  0
  -25.1734  -22.1258   19.3286 C   0  0  0  0  0  0  0  0  0  0  0  0
  -27.9531  -23.0891   19.3665 C   0  0  0  0  0  0  0  0  0  0  0  0
  -29.8892  -24.5861   19.8704 C   0  0  1  0  0  0  0  0  0  0  0  0
  -19.1603  -24.8178   23.1850 C   0  0  0  0  0  0  0  0  0  0  0  0
  -22.8258  -29.7761   25.6037 C   0  0  0  0  0  0  0  0  0  0  0  0
  -21.5986  -27.6285   25.9914 C   0  0  0  0  0  0  0  0  0  0  0  0
  -20.3613  -29.6445   25.1991 C   0  0  0  0  0  0  0  0  0  0  0  0
  -20.6880  -25.4915   19.7661 C   0  0  0  0  0  0  0  0  0  0  0  0
  -29.4088  -26.9766   19.1030 C   0  0  0  0  0  0  0  0  0  1  0  0
  -21.9014  -28.4292   23.6043 C   0  0  1  0  0  0  0  0  0  0  0  0
  -19.7949  -25.6641   22.0924 C   0  0  2  0  0  0  0  0  0  0  0  0
  -21.6927  -28.8710   25.0804 C   0  0  0  0  0  0  0  0  0  0  0  0
  -22.4893  -16.5972   21.4691 N   0  0  0  0  0  0  0  0  0  0  0  0
  -21.6353  -17.3419   22.1918 N   0  0  0  0  0  0  0  0  0  0  0  0
  -23.2262  -29.7018   21.9462 N   0  0  0  0  0  0  0  0  0  0  0  0
  -21.8866  -20.6951   20.3126 N   0  0  0  0  0  0  0  0  0  0  0  0
  -20.4078  -17.3773   24.2173 N   0  0  0  0  0  0  0  0  0  0  0  0
  -22.5639  -13.4121   24.3749 N   0  0  0  0  0  0  0  0  0  0  0  0
  -24.5907  -33.0515   21.4838 N   0  0  0  0  0  0  0  0  0  0  0  0
  -20.8300  -27.5934   23.0735 N   0  0  0  0  0  0  0  0  0  0  0  0
  -24.1218  -21.2659   19.8154 N   0  0  0  0  0  0  0  0  0  0  0  0
  -28.9978  -24.0011   18.8299 N   0  3  0  0  0  0  0  0  0  0  0  0
  -20.0825  -24.7847   20.9241 N   0  3  0  0  0  0  0  0  0  0  0  0
  -21.1004  -14.7814   25.4894 O   0  0  0  0  0  0  0  0  0  0  0  0
  -24.6643  -31.4340   23.1574 O   0  0  0  0  0  0  0  0  0  0  0  0
  -21.0898  -30.4010   22.5652 O   0  0  0  0  0  0  0  0  0  0  0  0
  -22.1683  -25.7797   22.5289 O   0  0  0  0  0  0  0  0  0  0  0  0
  -22.4251  -22.7576   19.3847 O   0  0  0  0  0  0  0  0  0  0  0  0
  -26.0230  -11.3886   20.5044 O   0  0  0  0  0  0  0  0  0  0  0  0
  -28.4417  -26.9393   20.1517 O   0  0  0  0  0  0  0  0  0  1  0  0
  -29.5004  -12.4800   16.3667 F   0  0  0  0  0  0  0  0  0  0  0  0
  -28.7560  -11.1569   20.8501 F   0  0  0  0  0  0  0  0  0  0  0  0
  1  2  1  0  0  0  0
  1  5  2  0  0  0  0
  2  6  2  0  0  0  0
  3  8  2  0  0  0  0
  3 15  1  0  0  0  0
  4  9  1  0  0  0  0
  4 15  2  0  0  0  0
  5 17  1  0  0  0  0
  6 19  1  0  0  0  0
  7 10  2  0  0  0  0
  7 18  1  0  0  0  0
  8 21  1  0  0  0  0
  9 21  2  0  0  0  0
 10 22  1  0  0  0  0
 11 12  2  0  0  0  0
 11 23  1  0  0  0  0
 12 24  1  0  0  0  0
 13 20  1  0  0  0  0
 13 22  2  0  0  0  0
 14 24  2  0  0  0  0
 14 25  1  0  0  0  0
 15 26  1  0  0  0  0
 16 26  1  0  0  0  0
 16 27  2  0  0  0  0
 16 28  1  0  0  0  0
 17 19  2  0  0  0  0
 17 33  1  0  0  0  0
 18 20  2  0  0  0  0
 18 34  1  0  0  0  0
 19 50  1  0  0  0  0
 20 35  1  0  0  0  0
 21 82  1  0  0  0  0
 22 83  1  0  0  0  0
 23 25  2  0  0  0  0
 23 82  1  0  0  0  0
 24 84  1  0  0  0  0
 25 85  1  0  0  0  0
 26 66  2  0  0  0  0
 27 67  1  0  0  0  0
 27 70  1  0  0  0  0
 28 71  1  0  0  0  0
 28 77  2  0  0  0  0
 29 51  1  0  0  0  0
 29 72  1  0  0  0  0
 29 78  2  0  0  0  0
 30 63  1  0  0  0  0
 30 68  1  0  0  0  0
 30 79  2  0  0  0  0
 31 64  1  0  0  0  0
 31 73  1  0  0  0  0
 31 80  2  0  0  0  0
 32 69  1  0  0  0  0
 32 74  1  0  0  0  0
 32 81  2  0  0  0  0
 33 36  1  0  0  0  0
 34 51  1  0  0  0  0
 35 68  1  0  0  0  0
 36 40  1  0  0  0  0
 37 38  1  0  0  0  0
 37 41  1  0  0  0  0
 38 45  1  0  0  0  0
 39 42  1  0  0  0  0
 39 48  1  0  0  0  0
 40 50  1  0  0  0  0
 41 52  1  0  0  0  0
 42 53  1  0  0  0  0
 43 46  1  0  0  0  0
 43 54  1  0  0  0  0
 44 47  1  0  0  0  0
 44 54  1  0  0  0  0
 45 56  1  0  0  0  0
 46 55  1  0  0  0  0
 47 55  1  0  0  0  0
 48 69  1  0  0  0  0
 49 53  1  0  0  0  0
 49 69  1  0  0  0  0
 50 72  1  0  0  0  0
 51 68  1  0  0  0  0
 52 56  1  0  0  0  0
 52 62  1  0  0  0  0
 53 67  1  0  0  0  0
 54 74  1  0  0  0  0
 55 75  1  0  0  0  0
 56 75  1  0  0  0  0
 57 64  1  0  0  0  0
 58 65  1  0  0  0  0
 59 65  1  0  0  0  0
 60 65  1  0  0  0  0
 61 76  1  0  0  0  0
 62 83  1  0  0  0  0
 63 65  1  0  0  0  0
 63 73  1  0  0  0  0
 64 76  1  0  0  0  0
 66 67  1  0  0  0  0
M  CHG  2  75   1  76   1
M  ISO  4  32 100  62 101  74 100  83 101
M  END
> <Batch ID>
0125

> <Smiles>
CNC(C)C(=O)NC(C(=O)N1Cc2cc([101O:1][101CH2:1]C3CCCCC3NC3CCC([100NH:0][100C:0](=O)N4CCCC(n5nc(-c6ccc(Oc7ccc(F)cc7F)cc6)c(C(N)=O)c5N)C4)CC3)ccc2CC1C(=O)NC1CCCc2ccccc21)C(C)(C)C

> <Shape>
0.236

> <Color>
0.067

> <Negative vol penalty>
0.000

$$$$

  -OEChem-04052320353D

 90 99  0     1  0  0  0  0  0999 V2000
  -28.6714  -20.9063   21.0859 C   0  0  0  0  0  0  0  0  0  0  0  0
  -31.0712  -26.8144   24.7358 C   0  0  0  0  0  0  0  0  0  0  0  0
  -31.5605  -25.6934   24.0730 C   0  0  0  0  0  0  0  0  0  0  0  0
  -23.0401   -9.8292   19.9855 C   0  0  0  0  0  0  0  0  0  0  0  0
  -23.7918   -9.8770   22.2811 C   0  0  0  0  0  0  0  0  0  0  0  0
  -29.9109  -27.4401   24.2818 C   0  0  0  0  0  0  0  0  0  0  0  0
  -30.8891  -25.1968   22.9563 C   0  0  0  0  0  0  0  0  0  0  0  0
  -34.0306  -24.0367   19.1576 C   0  0  0  0  0  0  0  0  0  0  0  0
  -22.2747   -8.6959   20.2597 C   0  0  0  0  0  0  0  0  0  0  0  0
  -23.0262   -8.7437   22.5553 C   0  0  0  0  0  0  0  0  0  0  0  0
  -34.7356  -22.8381   19.2579 C   0  0  0  0  0  0  0  0  0  0  0  0
  -22.7859   -5.3755   20.6314 C   0  0  0  0  0  0  0  0  0  0  0  0
  -22.8376   -4.3229   19.7177 C   0  0  0  0  0  0  0  0  0  0  0  0
  -33.1488  -21.7878   17.7752 C   0  0  0  0  0  0  0  0  0  0  0  0
  -29.8481  -17.6155   22.6064 C   0  0  0  0  0  0  0  0  0  0  0  0
  -20.4577   -4.5231   19.3525 C   0  0  0  0  0  0  0  0  0  0  0  0
  -23.7987  -10.4198   20.9962 C   0  0  0  0  0  0  0  0  0  0  0  0
  -24.1866  -12.9348   20.8178 C   0  0  0  0  0  0  0  0  0  0  0  0
  -29.2303  -26.9566   23.1532 C   0  0  0  0  0  0  0  0  0  0  0  0
  -32.8713  -24.1171   18.3727 C   0  0  0  0  0  0  0  0  0  0  0  0
  -29.7178  -25.8158   22.4876 C   0  0  0  0  0  0  0  0  0  0  0  0
  -32.4324  -22.9893   17.6646 C   0  0  0  0  0  0  0  0  0  0  0  0
  -30.3437  -18.8509   23.0080 C   0  0  0  0  0  0  0  0  0  0  0  0
  -31.6152  -19.2470   22.6085 C   0  0  0  0  0  0  0  0  0  0  0  0
  -22.2677   -8.1531   21.5446 C   0  0  0  0  0  0  0  0  0  0  0  0
  -34.2931  -21.7126   18.5689 C   0  0  0  0  0  0  0  0  0  0  0  0
  -21.5702   -6.0019   20.9057 C   0  0  0  0  0  0  0  0  0  0  0  0
  -21.6735   -3.8967   19.0782 C   0  0  0  0  0  0  0  0  0  0  0  0
  -20.4061   -5.5757   20.2663 C   0  0  0  0  0  0  0  0  0  0  0  0
  -24.5901  -11.5902   20.7134 C   0  0  0  0  0  0  0  0  0  0  0  0
  -30.6572  -16.8194   21.8118 C   0  0  0  0  0  0  0  0  0  0  0  0
  -32.3453  -18.3777   21.8139 C   0  0  0  0  0  0  0  0  0  0  0  0
  -25.2934  -13.6557   20.4413 C   0  0  0  0  0  0  0  0  0  0  0  0
  -22.9241  -13.4832   21.2193 C   0  0  0  0  0  0  0  0  0  0  0  0
  -29.8104  -24.7496   18.9510 C   0  0  0  0  0  0  0  0  0  0  0  0
  -29.5780  -24.6295   15.7177 C   0  0  0  0  0  0  0  0  0  0  0  0
  -30.8449  -23.4857   12.7625 C   0  0  0  0  0  0  0  0  0  0  0  0
  -30.7769  -14.6068   20.6133 C   0  0  0  0  0  0  0  0  0  0  0  0
  -27.9538  -27.6382   22.7281 C   0  0  0  0  0  0  0  0  0  0  0  0
  -32.1372  -25.4245   18.2537 C   0  0  0  0  0  0  0  0  0  0  0  0
  -31.2051  -23.0286   16.7924 C   0  0  0  0  0  0  0  0  0  0  0  0
  -27.5100  -27.2728   21.3139 C   0  0  0  0  0  0  0  0  0  0  0  0
  -29.6276  -12.1578   18.2983 C   0  0  0  0  0  0  0  0  0  0  0  0
  -27.5910  -25.7644   21.1020 C   0  0  0  0  0  0  0  0  0  0  0  0
  -28.1814  -11.9024   18.7289 C   0  0  0  0  0  0  0  0  0  0  0  0
  -29.1296  -19.0515   25.1991 C   0  0  0  0  0  0  0  0  0  0  0  0
  -30.5424  -12.3986   19.4979 C   0  0  0  0  0  0  0  0  0  0  0  0
  -27.6089  -19.0534   25.2408 C   0  0  0  0  0  0  0  0  0  0  0  0
  -28.6438  -13.1898   20.8539 C   0  0  0  0  0  0  0  0  0  0  0  0
  -29.4951  -19.7290   23.8674 C   0  0  2  0  0  0  0  0  0  0  0  0
  -29.0315  -25.2619   21.2578 C   0  0  1  0  0  0  0  0  0  0  0  0
  -30.6800  -25.2556   17.8350 C   0  0  1  0  0  0  0  0  0  0  0  0
  -27.6723  -13.0061   19.6766 C   0  0  2  0  0  0  0  0  0  0  0  0
  -28.1395  -20.0333   23.2073 C   0  0  2  0  0  0  0  0  0  0  0  0
  -32.1647  -20.5699   23.0297 C   0  0  0  0  0  0  0  0  0  0  0  0
  -30.4163  -23.5213   10.2901 C   0  0  0  0  0  0  0  0  0  0  0  0
  -27.3358  -22.5920   16.0796 C   0  0  0  0  0  0  0  0  0  0  0  0
  -27.6041  -21.9724   13.6687 C   0  0  0  0  0  0  0  0  0  0  0  0
  -26.9234  -24.2903   14.2907 C   0  0  0  0  0  0  0  0  0  0  0  0
  -33.4259  -24.8272   12.2169 C   0  0  0  0  0  0  0  0  0  0  0  0
  -28.1471  -21.3132   22.3844 C   0  0  0  0  0  0  0  0  0  0  0  0
  -35.7001  -18.7937   20.1438 C   0  0  0  0  0  0  0  0  0  0  0  0
  -34.3071  -18.1919   20.2834 C   0  0  0  0  0  0  0  0  0  0  0  0
  -35.6764  -20.2957   19.8861 C   0  0  0  0  0  0  0  0  0  1  0  0
  -29.3032  -23.5440   14.7052 C   0  0  1  0  0  0  0  0  0  0  0  0
  -31.1352  -24.1919   11.4504 C   0  0  2  0  0  0  0  0  0  0  0  0
  -27.8137  -23.0981   14.7039 C   0  0  0  0  0  0  0  0  0  0  0  0
  -29.0866  -20.6093   20.0437 N   0  0  0  0  0  0  0  0  0  0  0  0
  -25.8546  -11.4617   20.3027 N   0  0  0  0  0  0  0  0  0  0  0  0
  -31.8975  -17.1699   21.4038 N   0  0  0  0  0  0  0  0  0  0  0  0
  -26.2550  -12.7349   20.1455 N   0  0  0  0  0  0  0  0  0  0  0  0
  -27.2340  -20.1517   24.3545 N   0  0  0  0  0  0  0  0  0  0  0  0
  -30.5181  -24.3283   16.7134 N   0  0  0  0  0  0  0  0  0  0  0  0
  -29.9989  -13.4598   20.3484 N   0  0  0  0  0  0  0  0  0  0  0  0
  -25.5280  -14.9811   20.3376 N   0  0  0  0  0  0  0  0  0  0  0  0
  -21.8947  -12.6006   21.5739 N   0  0  0  0  0  0  0  0  0  0  0  0
  -30.1434  -15.5625   21.4069 N   0  0  0  0  0  0  0  0  0  0  0  0
  -33.6131  -18.7667   21.4104 N   0  0  0  0  0  0  0  0  0  0  0  0
  -29.8022  -25.5604   20.0698 N   0  0  0  0  0  0  0  0  0  0  0  0
  -29.7755  -24.0534   13.4223 N   0  0  0  0  0  0  0  0  0  0  0  0
  -32.5983  -24.1784   11.1676 N   0  3  0  0  0  0  0  0  0  0  0  0
  -22.7099  -14.7188   21.2465 O   0  0  0  0  0  0  0  0  0  0  0  0
  -29.1914  -23.7018   18.8070 O   0  0  0  0  0  0  0  0  0  0  0  0
  -28.9858  -25.7076   15.6243 O   0  0  0  0  0  0  0  0  0  0  0  0
  -31.4988  -22.5241   13.1603 O   0  0  0  0  0  0  0  0  0  0  0  0
  -31.9105  -14.7440   20.1464 O   0  0  0  0  0  0  0  0  0  0  0  0
  -21.5207   -7.0473   21.8125 O   0  0  0  0  0  0  0  0  0  0  0  0
  -34.9790  -20.5412   18.6656 O   0  0  0  0  0  0  0  0  0  1  0  0
  -21.7235   -2.8869   18.1996 F   0  0  0  0  0  0  0  0  0  0  0  0
  -19.2354   -6.1744   20.5249 F   0  0  0  0  0  0  0  0  0  0  0  0
  1 61  1  0  0  0  0
  1 68  3  0  0  0  0
  2  3  1  0  0  0  0
  2  6  2  0  0  0  0
  3  7  2  0  0  0  0
  4  9  2  0  0  0  0
  4 17  1  0  0  0  0
  5 10  1  0  0  0  0
  5 17  2  0  0  0  0
  6 19  1  0  0  0  0
  7 21  1  0  0  0  0
  8 11  2  0  0  0  0
  8 20  1  0  0  0  0
  9 25  1  0  0  0  0
 10 25  2  0  0  0  0
 11 26  1  0  0  0  0
 12 13  2  0  0  0  0
 12 27  1  0  0  0  0
 13 28  1  0  0  0  0
 14 22  1  0  0  0  0
 14 26  2  0  0  0  0
 15 23  2  0  0  0  0
 15 31  1  0  0  0  0
 16 28  2  0  0  0  0
 16 29  1  0  0  0  0
 17 30  1  0  0  0  0
 18 30  1  0  0  0  0
 18 33  2  0  0  0  0
 18 34  1  0  0  0  0
 19 21  2  0  0  0  0
 19 39  1  0  0  0  0
 20 22  2  0  0  0  0
 20 40  1  0  0  0  0
 21 51  1  0  0  0  0
 22 41  1  0  0  0  0
 23 24  1  0  0  0  0
 23 50  1  0  0  0  0
 24 32  2  0  0  0  0
 24 55  1  0  0  0  0
 25 87  1  0  0  0  0
 26 88  1  0  0  0  0
 27 29  2  0  0  0  0
 27 87  1  0  0  0  0
 28 89  1  0  0  0  0
 29 90  1  0  0  0  0
 30 69  2  0  0  0  0
 31 70  2  0  0  0  0
 31 77  1  0  0  0  0
 32 70  1  0  0  0  0
 32 78  1  0  0  0  0
 33 71  1  0  0  0  0
 33 75  1  0  0  0  0
 34 76  1  0  0  0  0
 34 82  2  0  0  0  0
 35 52  1  0  0  0  0
 35 79  1  0  0  0  0
 35 83  2  0  0  0  0
 36 65  1  0  0  0  0
 36 73  1  0  0  0  0
 36 84  2  0  0  0  0
 37 66  1  0  0  0  0
 37 80  1  0  0  0  0
 37 85  2  0  0  0  0
 38 74  1  0  0  0  0
 38 77  1  0  0  0  0
 38 86  2  0  0  0  0
 39 42  1  0  0  0  0
 40 52  1  0  0  0  0
 41 73  1  0  0  0  0
 42 44  1  0  0  0  0
 43 45  1  0  0  0  0
 43 47  1  0  0  0  0
 44 51  1  0  0  0  0
 45 53  1  0  0  0  0
 46 48  1  0  0  0  0
 46 50  1  0  0  0  0
 47 74  1  0  0  0  0
 48 72  1  0  0  0  0
 49 53  1  0  0  0  0
 49 74  1  0  0  0  0
 50 54  1  0  0  0  0
 51 79  1  0  0  0  0
 52 73  1  0  0  0  0
 53 71  1  0  0  0  0
 54 61  1  0  0  0  0
 54 72  1  0  0  0  0
 56 66  1  0  0  0  0
 57 67  1  0  0  0  0
 58 67  1  0  0  0  0
 59 67  1  0  0  0  0
 60 81  1  0  0  0  0
 62 63  1  0  0  0  0
 62 64  1  0  0  0  0
 63 78  1  0  0  0  0
 64 88  1  0  0  0  0
 65 67  1  0  0  0  0
 65 80  1  0  0  0  0
 66 81  1  0  0  0  0
 69 71  1  0  0  0  0
M  CHG  1  81   1
M  ISO  4  38 100  64 101  77 100  88 101
M  END
> <Batch ID>
0125

> <Smiles>
CNC(C)C(=O)NC(C(=O)N1Cc2cc([101O:1][101CH2:1]CCNc3nc([100NH:0][100C:0](=O)N4CCCC(n5nc(-c6ccc(Oc7ccc(F)cc7F)cc6)c(C(N)=O)c5N)C4)cc(C4CCNC4CC#N)c3C)ccc2CC1C(=O)NC1CCCc2ccccc21)C(C)(C)C

> <Shape>
0.221

> <Color>
0.209

> <Negative vol penalty>
0.000

$$$$

  -OEChem-04052320353D

 86 95  0     1  0  0  0  0  0999 V2000
  -27.7705  -35.9576   24.2947 C   0  0  0  0  0  0  0  0  0  0  0  0
  -28.5401  -34.8398   24.6007 C   0  0  0  0  0  0  0  0  0  0  0  0
  -22.3324  -15.2071   21.4197 C   0  0  0  0  0  0  0  0  0  0  0  0
  -23.9586  -16.9462   21.8300 C   0  0  0  0  0  0  0  0  0  0  0  0
  -31.6902  -20.0453   19.5712 C   0  0  0  0  0  0  0  0  0  0  0  0
  -26.3793  -35.8780   24.3389 C   0  0  0  0  0  0  0  0  0  0  0  0
  -27.9188  -33.6419   24.9523 C   0  0  0  0  0  0  0  0  0  0  0  0
  -29.0614  -27.6212   21.1659 C   0  0  0  0  0  0  0  0  0  0  0  0
  -21.5135  -15.7378   22.4164 C   0  0  0  0  0  0  0  0  0  0  0  0
  -23.1397  -17.4769   22.8266 C   0  0  0  0  0  0  0  0  0  0  0  0
  -29.3926  -26.3809   20.6198 C   0  0  0  0  0  0  0  0  0  0  0  0
  -20.3701  -19.4048   23.0080 C   0  0  0  0  0  0  0  0  0  0  0  0
  -20.1849  -20.7872   23.0246 C   0  0  0  0  0  0  0  0  0  0  0  0
  -31.1183  -21.1075   18.8781 C   0  0  0  0  0  0  0  0  0  0  0  0
  -27.7912  -25.3007   22.0747 C   0  0  0  0  0  0  0  0  0  0  0  0
  -21.1283  -20.8867   25.2466 C   0  0  0  0  0  0  0  0  0  0  0  0
  -23.5551  -15.8113   21.1266 C   0  0  0  0  0  0  0  0  0  0  0  0
  -31.0179  -19.4025   20.6284 C   0  0  0  0  0  0  0  0  0  0  0  0
  -24.0869  -15.0999   18.7352 C   0  0  0  0  0  0  0  0  0  0  0  0
  -25.7404  -34.6759   24.6818 C   0  0  0  0  0  0  0  0  0  0  0  0
  -28.0817  -27.7078   22.1589 C   0  0  0  0  0  0  0  0  0  0  0  0
  -26.5177  -33.5466   25.0024 C   0  0  0  0  0  0  0  0  0  0  0  0
  -27.4464  -26.5418   22.6166 C   0  0  0  0  0  0  0  0  0  0  0  0
  -21.9171  -16.8727   23.1198 C   0  0  0  0  0  0  0  0  0  0  0  0
  -28.7593  -25.2236   21.0733 C   0  0  0  0  0  0  0  0  0  0  0  0
  -20.9342  -18.7633   24.1107 C   0  0  0  0  0  0  0  0  0  0  0  0
  -20.5641  -21.5282   24.1439 C   0  0  0  0  0  0  0  0  0  0  0  0
  -21.3134  -19.5043   25.2300 C   0  0  0  0  0  0  0  0  0  0  0  0
  -24.4017  -15.2633   20.0975 C   0  0  0  0  0  0  0  0  0  0  0  0
  -29.7461  -19.9075   20.9341 C   0  0  0  0  0  0  0  0  0  0  0  0
  -29.8611  -21.5149   19.2589 C   0  0  0  0  0  0  0  0  0  0  0  0
  -25.2159  -14.5425   18.1863 C   0  0  0  0  0  0  0  0  0  0  0  0
  -31.4553  -17.8510   22.5849 C   0  0  0  0  0  0  0  0  0  0  0  0
  -31.6579  -18.2425   21.3106 C   0  0  0  0  0  0  0  0  0  0  0  0
  -22.8817  -15.4232   18.0290 C   0  0  0  0  0  0  0  0  0  0  0  0
  -26.1110  -29.9132   24.4673 C   0  0  0  0  0  0  0  0  0  0  0  0
  -24.1690  -27.8042   23.3761 C   0  0  0  0  0  0  0  0  0  0  0  0
  -21.4446  -26.0745   22.2701 C   0  0  0  0  0  0  0  0  0  0  0  0
  -30.9906  -14.6362   19.7659 C   0  0  0  0  0  0  0  0  0  0  0  0
  -24.2346  -34.6513   24.7620 C   0  0  0  0  0  0  0  0  0  0  0  0
  -27.7369  -29.0152   22.8190 C   0  0  0  0  0  0  0  0  0  0  0  0
  -26.4233  -26.6789   23.7109 C   0  0  0  0  0  0  0  0  0  0  0  0
  -28.9093  -19.3752   22.0640 C   0  0  0  0  0  0  0  0  0  0  0  0
  -30.5728  -18.3695   23.6804 C   0  0  0  0  0  0  0  0  0  0  0  0
  -23.6485  -33.2419   24.7796 C   0  0  0  0  0  0  0  0  0  0  0  0
  -29.6431  -19.5385   23.3867 C   0  0  0  0  0  0  0  0  0  0  0  0
  -28.9427  -11.7598   19.3079 C   0  0  0  0  0  0  0  0  0  0  0  0
  -24.4070  -32.3606   25.7669 C   0  0  0  0  0  0  0  0  0  0  0  0
  -27.5183  -12.3168   19.3354 C   0  0  0  0  0  0  0  0  0  0  0  0
  -29.8557  -12.4964   20.2856 C   0  0  0  0  0  0  0  0  0  0  0  0
  -28.4544  -14.5195   20.1543 C   0  0  0  0  0  0  0  0  0  0  0  0
  -25.8802  -32.2226   25.3642 C   0  0  1  0  0  0  0  0  0  0  0  0
  -26.2490  -29.1263   23.1972 C   0  0  1  0  0  0  0  0  0  0  0  0
  -27.5102  -13.8454   19.1442 C   0  0  2  0  0  0  0  0  0  0  0  0
  -19.1351  -25.3822   22.9661 C   0  0  0  0  0  0  0  0  0  0  0  0
  -25.3624  -25.6734   25.2036 C   0  0  0  0  0  0  0  0  0  0  0  0
  -23.1736  -24.4622   25.1028 C   0  0  0  0  0  0  0  0  0  0  0  0
  -23.2845  -26.7549   26.0796 C   0  0  0  0  0  0  0  0  0  0  0  0
  -20.2017  -27.5365   20.0169 C   0  0  0  0  0  0  0  0  0  0  0  0
  -29.1942  -22.6607   18.5372 C   0  0  0  0  0  0  0  0  0  0  0  0
  -32.6313  -17.4294   20.4805 C   0  0  0  0  0  0  0  0  0  0  0  0
  -31.9802  -16.8505   19.2402 C   0  0  0  0  0  0  0  0  0  0  0  0
  -29.5134  -24.0099   19.1718 C   0  0  0  0  0  0  0  0  0  1  0  0
  -23.5162  -26.4603   23.5793 C   0  0  1  0  0  0  0  0  0  0  0  0
  -19.9687  -26.4290   22.2435 C   0  0  2  0  0  0  0  0  0  0  0  0
  -23.8484  -25.8439   24.9674 C   0  0  0  0  0  0  0  0  0  0  0  0
  -25.6341  -14.8434   20.3959 N   0  0  0  0  0  0  0  0  0  0  0  0
  -29.1694  -20.9451   20.2637 N   0  0  0  0  0  0  0  0  0  0  0  0
  -26.1036  -14.4107   19.2134 N   0  0  0  0  0  0  0  0  0  0  0  0
  -25.5663  -27.8468   23.4539 N   0  0  0  0  0  0  0  0  0  0  0  0
  -29.8034  -13.9413   20.0500 N   0  0  0  0  0  0  0  0  0  0  0  0
  -25.5259  -14.1571   16.9302 N   0  0  0  0  0  0  0  0  0  0  0  0
  -21.8190  -15.9900   18.7456 N   0  0  0  0  0  0  0  0  0  0  0  0
  -26.0205  -31.2788   24.2760 N   0  0  0  0  0  0  0  0  0  0  0  0
  -22.0909  -26.6583   23.3390 N   0  0  0  0  0  0  0  0  0  0  0  0
  -30.8513  -16.0016   19.5493 N   0  0  0  0  0  0  0  0  0  0  0  0
  -19.4847  -26.5267   20.8374 N   0  3  0  0  0  0  0  0  0  0  0  0
  -22.7452  -15.2003   16.8021 O   0  0  0  0  0  0  0  0  0  0  0  0
  -26.0868  -29.3257   25.5424 O   0  0  0  0  0  0  0  0  0  0  0  0
  -23.4613  -28.7919   23.1598 O   0  0  0  0  0  0  0  0  0  0  0  0
  -21.9706  -25.3491   21.4289 O   0  0  0  0  0  0  0  0  0  0  0  0
  -32.0923  -14.0799   19.7042 O   0  0  0  0  0  0  0  0  0  0  0  0
  -21.1181  -17.3909   24.0923 O   0  0  0  0  0  0  0  0  0  0  0  0
  -29.0841  -24.0166   20.5326 O   0  0  0  0  0  0  0  0  0  1  0  0
  -20.3877  -22.8559   24.1592 F   0  0  0  0  0  0  0  0  0  0  0  0
  -21.8570  -18.8938   26.2918 F   0  0  0  0  0  0  0  0  0  0  0  0
  1  2  1  0  0  0  0
  1  6  2  0  0  0  0
  2  7  2  0  0  0  0
  3  9  2  0  0  0  0
  3 17  1  0  0  0  0
  4 10  1  0  0  0  0
  4 17  2  0  0  0  0
  5 14  2  0  0  0  0
  5 18  1  0  0  0  0
  6 20  1  0  0  0  0
  7 22  1  0  0  0  0
  8 11  2  0  0  0  0
  8 21  1  0  0  0  0
  9 24  1  0  0  0  0
 10 24  2  0  0  0  0
 11 25  1  0  0  0  0
 12 13  2  0  0  0  0
 12 26  1  0  0  0  0
 13 27  1  0  0  0  0
 14 31  1  0  0  0  0
 15 23  1  0  0  0  0
 15 25  2  0  0  0  0
 16 27  2  0  0  0  0
 16 28  1  0  0  0  0
 17 29  1  0  0  0  0
 18 30  2  0  0  0  0
 18 34  1  0  0  0  0
 19 29  1  0  0  0  0
 19 32  2  0  0  0  0
 19 35  1  0  0  0  0
 20 22  2  0  0  0  0
 20 40  1  0  0  0  0
 21 23  2  0  0  0  0
 21 41  1  0  0  0  0
 22 52  1  0  0  0  0
 23 42  1  0  0  0  0
 24 83  1  0  0  0  0
 25 84  1  0  0  0  0
 26 28  2  0  0  0  0
 26 83  1  0  0  0  0
 27 85  1  0  0  0  0
 28 86  1  0  0  0  0
 29 67  2  0  0  0  0
 30 43  1  0  0  0  0
 30 68  1  0  0  0  0
 31 60  1  0  0  0  0
 31 68  2  0  0  0  0
 32 69  1  0  0  0  0
 32 72  1  0  0  0  0
 33 34  2  0  0  0  0
 33 44  1  0  0  0  0
 34 61  1  0  0  0  0
 35 73  1  0  0  0  0
 35 78  2  0  0  0  0
 36 53  1  0  0  0  0
 36 74  1  0  0  0  0
 36 79  2  0  0  0  0
 37 64  1  0  0  0  0
 37 70  1  0  0  0  0
 37 80  2  0  0  0  0
 38 65  1  0  0  0  0
 38 75  1  0  0  0  0
 38 81  2  0  0  0  0
 39 71  1  0  0  0  0
 39 76  1  0  0  0  0
 39 82  2  0  0  0  0
 40 45  1  0  0  0  0
 41 53  1  0  0  0  0
 42 70  1  0  0  0  0
 43 46  1  0  0  0  0
 44 46  1  0  0  0  0
 45 48  1  0  0  0  0
 47 49  1  0  0  0  0
 47 50  1  0  0  0  0
 48 52  1  0  0  0  0
 49 54  1  0  0  0  0
 50 71  1  0  0  0  0
 51 54  1  0  0  0  0
 51 71  1  0  0  0  0
 52 74  1  0  0  0  0
 53 70  1  0  0  0  0
 54 69  1  0  0  0  0
 55 65  1  0  0  0  0
 56 66  1  0  0  0  0
 57 66  1  0  0  0  0
 58 66  1  0  0  0  0
 59 77  1  0  0  0  0
 60 63  1  0  0  0  0
 61 62  1  0  0  0  0
 62 76  1  0  0  0  0
 63 84  1  0  0  0  0
 64 66  1  0  0  0  0
 64 75  1  0  0  0  0
 65 77  1  0  0  0  0
 67 69  1  0  0  0  0
M  CHG  1  77   1
M  ISO  4  39 100  63 101  76 100  84 101
M  END
> <Batch ID>
0125

> <Smiles>
CNC(C)C(=O)NC(C(=O)N1Cc2cc([101O:1][101CH2:1]Cc3ccc4c(n3)CCCC=C4CC[100NH:0][100C:0](=O)N3CCCC(n4nc(-c5ccc(Oc6ccc(F)cc6F)cc5)c(C(N)=O)c4N)C3)ccc2CC1C(=O)NC1CCCc2ccccc21)C(C)(C)C

> <Shape>
0.226

> <Color>
0.073

> <Negative vol penalty>
0.000

$$$$

  -OEChem-04052320353D

 84 92  0     1  0  0  0  0  0999 V2000
  -20.9771  -30.6538   14.8542 C   0  0  0  0  0  0  0  0  0  0  0  0
  -22.2267  -30.2071   15.2718 C   0  0  0  0  0  0  0  0  0  0  0  0
  -22.5724  -13.5025   22.8475 C   0  0  0  0  0  0  0  0  0  0  0  0
  -22.5618  -15.0746   21.0129 C   0  0  0  0  0  0  0  0  0  0  0  0
  -20.3672  -31.7247   15.5061 C   0  0  0  0  0  0  0  0  0  0  0  0
  -22.8676  -30.8319   16.3410 C   0  0  0  0  0  0  0  0  0  0  0  0
  -24.8801  -27.5218   19.6026 C   0  0  0  0  0  0  0  0  0  0  0  0
  -21.4912  -14.1685   23.4245 C   0  0  0  0  0  0  0  0  0  0  0  0
  -21.4805  -15.7406   21.5899 C   0  0  0  0  0  0  0  0  0  0  0  0
  -26.0855  -26.9227   19.2394 C   0  0  0  0  0  0  0  0  0  0  0  0
  -18.1418  -14.3255   22.9884 C   0  0  0  0  0  0  0  0  0  0  0  0
  -17.0905  -13.5512   23.4791 C   0  0  0  0  0  0  0  0  0  0  0  0
  -27.2753  -28.4744   20.6522 C   0  0  0  0  0  0  0  0  0  0  0  0
  -17.4493  -14.4635   25.6873 C   0  0  0  0  0  0  0  0  0  0  0  0
  -23.1078  -13.9556   21.6417 C   0  0  0  0  0  0  0  0  0  0  0  0
  -24.1757  -12.2001   20.1300 C   0  0  0  0  0  0  0  0  0  0  0  0
  -20.9967  -32.3568   16.5900 C   0  0  0  0  0  0  0  0  0  0  0  0
  -24.8641  -28.6104   20.4863 C   0  0  0  0  0  0  0  0  0  0  0  0
  -22.2661  -31.9132   17.0072 C   0  0  0  0  0  0  0  0  0  0  0  0
  -26.0681  -29.0839   21.0270 C   0  0  0  0  0  0  0  0  0  0  0  0
  -20.9452  -15.2875   22.7957 C   0  0  0  0  0  0  0  0  0  0  0  0
  -27.2836  -27.4009   19.7620 C   0  0  0  0  0  0  0  0  0  0  0  0
  -18.8469  -15.1688   23.8472 C   0  0  0  0  0  0  0  0  0  0  0  0
  -16.7442  -13.6202   24.8285 C   0  0  0  0  0  0  0  0  0  0  0  0
  -18.5006  -15.2378   25.1966 C   0  0  0  0  0  0  0  0  0  0  0  0
  -24.2251  -13.2684   21.0454 C   0  0  0  0  0  0  0  0  0  0  0  0
  -25.4928  -11.9085   19.8713 C   0  0  0  0  0  0  0  0  0  0  0  0
  -23.0409  -11.5312   19.5639 C   0  0  0  0  0  0  0  0  0  0  0  0
  -23.9423  -31.6461   20.2893 C   0  0  0  0  0  0  0  0  0  0  0  0
  -24.6147  -31.6496   23.4627 C   0  0  0  0  0  0  0  0  0  0  0  0
  -26.3409  -30.2637   26.0600 C   0  0  0  0  0  0  0  0  0  0  0  0
  -30.5216  -15.1438   20.1781 C   0  0  0  0  0  0  0  0  0  0  0  0
  -20.3193  -33.5409   17.2331 C   0  0  0  0  0  0  0  0  0  0  0  0
  -23.5532  -29.2284   20.8889 C   0  0  0  0  0  0  0  0  0  0  0  0
  -26.1034  -30.2369   21.9952 C   0  0  0  0  0  0  0  0  0  0  0  0
  -20.8984  -33.9073   18.5971 C   0  0  0  0  0  0  0  0  0  0  0  0
  -29.8324  -12.0920   21.8776 C   0  0  0  0  0  0  0  0  0  0  0  0
  -22.4226  -33.9302   18.5412 C   0  0  0  0  0  0  0  0  0  0  0  0
  -31.9817  -18.8489   18.1108 C   0  0  0  0  0  0  0  0  0  0  0  0
  -29.5280  -18.9550   18.6980 C   0  0  0  0  0  0  0  0  0  0  0  0
  -32.1629  -20.2815   18.6094 C   0  0  0  0  0  0  0  0  0  0  0  0
  -29.7093  -20.3874   19.1969 C   0  0  0  0  0  0  0  0  0  0  0  0
  -28.3127  -11.9511   21.7744 C   0  0  0  0  0  0  0  0  0  0  0  0
  -30.2533  -13.5492   22.0547 C   0  0  0  0  0  0  0  0  0  0  0  0
  -28.2041  -14.3341   20.9329 C   0  0  0  0  0  0  0  0  0  0  0  0
  -22.9822  -32.5491   18.1790 C   0  0  1  0  0  0  0  0  0  0  0  0
  -23.6983  -30.6598   21.3963 C   0  0  1  0  0  0  0  0  0  0  0  0
  -30.8226  -18.1422   18.8249 C   0  0  0  0  0  0  0  0  0  0  0  0
  -30.8681  -21.0940   18.4823 C   0  0  0  0  0  0  0  0  0  0  0  0
  -27.7345  -12.8883   20.6972 C   0  0  2  0  0  0  0  0  0  0  0  0
  -26.7137  -30.5058   28.5298 C   0  0  0  0  0  0  0  0  0  0  0  0
  -32.2080  -23.1942   18.2929 C   0  0  0  0  0  0  0  0  0  0  0  0
  -30.1269  -24.8965   20.8714 C   0  0  0  0  0  0  0  0  0  0  0  0
  -26.4067  -34.0660   22.9529 C   0  0  0  0  0  0  0  0  0  0  0  0
  -27.4573  -33.6714   25.1909 C   0  0  0  0  0  0  0  0  0  0  0  0
  -25.0269  -34.2110   25.0336 C   0  0  0  0  0  0  0  0  0  0  0  0
  -25.2869  -27.5519   26.6024 C   0  0  0  0  0  0  0  0  0  0  0  0
  -30.6293  -16.7310   18.2733 C   0  0  0  0  0  0  0  0  0  0  0  0
  -29.7363  -23.2885   18.9272 C   0  0  0  0  0  0  0  0  0  0  0  0
  -28.4281  -25.4287   19.0862 C   0  0  0  0  0  0  0  0  0  1  0  0
  -25.8414  -31.9342   24.2953 C   0  0  1  0  0  0  0  0  0  0  0  0
  -25.8973  -29.8233   27.4433 C   0  0  2  0  0  0  0  0  0  0  0  0
  -31.0607  -22.5058   19.0327 C   0  0  1  0  0  0  0  0  0  0  0  0
  -29.7798  -24.7607   19.3854 C   0  0  1  0  0  0  0  0  0  0  0  0
  -26.1829  -33.4501   24.3484 C   0  0  0  0  0  0  0  0  0  0  0  0
  -25.4745  -13.6308   21.3481 N   0  0  0  0  0  0  0  0  0  0  0  0
  -26.2225  -12.7854   20.6188 N   0  0  0  0  0  0  0  0  0  0  0  0
  -24.7962  -30.8118   22.3532 N   0  0  0  0  0  0  0  0  0  0  0  0
  -29.6730  -14.3845   21.0005 N   0  0  0  0  0  0  0  0  0  0  0  0
  -26.0863  -10.9900   19.0798 N   0  0  0  0  0  0  0  0  0  0  0  0
  -21.7591  -11.9575   19.9377 N   0  0  0  0  0  0  0  0  0  0  0  0
  -22.9483  -31.6723   19.3298 N   0  0  0  0  0  0  0  0  0  0  0  0
  -25.5976  -31.3305   25.6008 N   0  0  0  0  0  0  0  0  0  0  0  0
  -29.8906  -15.9026   19.2000 N   0  0  0  0  0  0  0  0  0  0  0  0
  -26.0553  -28.3489   27.5930 N   0  3  0  0  0  0  0  0  0  0  0  0
  -23.1600  -10.5728   18.7635 O   0  0  0  0  0  0  0  0  0  0  0  0
  -24.9567  -32.3335   20.3053 O   0  0  0  0  0  0  0  0  0  0  0  0
  -23.5338  -32.1465   23.7888 O   0  0  0  0  0  0  0  0  0  0  0  0
  -27.2577  -29.7186   25.4495 O   0  0  0  0  0  0  0  0  0  0  0  0
  -31.7510  -15.1413   20.3027 O   0  0  0  0  0  0  0  0  0  0  0  0
  -19.8899  -15.9375   23.3583 O   0  0  0  0  0  0  0  0  0  0  0  0
  -28.4616  -26.8184   19.4087 O   0  0  0  0  0  0  0  0  0  1  0  0
  -15.7336  -12.8778   25.2993 F   0  0  0  0  0  0  0  0  0  0  0  0
  -19.1736  -16.0469   26.0262 F   0  0  0  0  0  0  0  0  0  0  0  0
  1  2  1  0  0  0  0
  1  5  2  0  0  0  0
  2  6  2  0  0  0  0
  3  8  2  0  0  0  0
  3 15  1  0  0  0  0
  4  9  1  0  0  0  0
  4 15  2  0  0  0  0
  5 17  1  0  0  0  0
  6 19  1  0  0  0  0
  7 10  2  0  0  0  0
  7 18  1  0  0  0  0
  8 21  1  0  0  0  0
  9 21  2  0  0  0  0
 10 22  1  0  0  0  0
 11 12  2  0  0  0  0
 11 23  1  0  0  0  0
 12 24  1  0  0  0  0
 13 20  1  0  0  0  0
 13 22  2  0  0  0  0
 14 24  2  0  0  0  0
 14 25  1  0  0  0  0
 15 26  1  0  0  0  0
 16 26  1  0  0  0  0
 16 27  2  0  0  0  0
 16 28  1  0  0  0  0
 17 19  2  0  0  0  0
 17 33  1  0  0  0  0
 18 20  2  0  0  0  0
 18 34  1  0  0  0  0
 19 46  1  0  0  0  0
 20 35  1  0  0  0  0
 21 81  1  0  0  0  0
 22 82  1  0  0  0  0
 23 25  2  0  0  0  0
 23 81  1  0  0  0  0
 24 83  1  0  0  0  0
 25 84  1  0  0  0  0
 26 66  2  0  0  0  0
 27 67  1  0  0  0  0
 27 70  1  0  0  0  0
 28 71  1  0  0  0  0
 28 76  2  0  0  0  0
 29 47  1  0  0  0  0
 29 72  1  0  0  0  0
 29 77  2  0  0  0  0
 30 61  1  0  0  0  0
 30 68  1  0  0  0  0
 30 78  2  0  0  0  0
 31 62  1  0  0  0  0
 31 73  1  0  0  0  0
 31 79  2  0  0  0  0
 32 69  1  0  0  0  0
 32 74  1  0  0  0  0
 32 80  2  0  0  0  0
 33 36  1  0  0  0  0
 34 47  1  0  0  0  0
 35 68  1  0  0  0  0
 36 38  1  0  0  0  0
 37 43  1  0  0  0  0
 37 44  1  0  0  0  0
 38 46  1  0  0  0  0
 39 41  1  0  0  0  0
 39 48  1  0  0  0  0
 40 42  1  0  0  0  0
 40 48  1  0  0  0  0
 41 49  1  0  0  0  0
 42 49  1  0  0  0  0
 43 50  1  0  0  0  0
 44 69  1  0  0  0  0
 45 50  1  0  0  0  0
 45 69  1  0  0  0  0
 46 72  1  0  0  0  0
 47 68  1  0  0  0  0
 48 58  1  0  0  0  0
 49 63  1  0  0  0  0
 50 67  1  0  0  0  0
 51 62  1  0  0  0  0
 52 63  1  0  0  0  0
 53 64  1  0  0  0  0
 54 65  1  0  0  0  0
 55 65  1  0  0  0  0
 56 65  1  0  0  0  0
 57 75  1  0  0  0  0
 58 74  1  0  0  0  0
 59 63  1  0  0  0  0
 59 64  1  0  0  0  0
 60 64  1  0  0  0  0
 60 82  1  0  0  0  0
 61 65  1  0  0  0  0
 61 73  1  0  0  0  0
 62 75  1  0  0  0  0
 66 67  1  0  0  0  0
M  CHG  1  75   1
M  ISO  4  32 100  60 101  74 100  82 101
M  END
> <Batch ID>
0125

> <Smiles>
CNC(C)C(=O)NC(C(=O)N1Cc2cc([101O:1][101CH2:1]C(C)CC(C)C3CCC(C[100NH:0][100C:0](=O)N4CCCC(n5nc(-c6ccc(Oc7ccc(F)cc7F)cc6)c(C(N)=O)c5N)C4)CC3)ccc2CC1C(=O)NC1CCCc2ccccc21)C(C)(C)C

> <Shape>
0.259

> <Color>
0.104

> <Negative vol penalty>
0.000

$$$$

  -OEChem-04052320353D

 83 91  0     1  0  0  0  0  0999 V2000
  -23.4387  -13.6077   20.8777 C   0  0  0  0  0  0  0  0  0  0  0  0
  -23.1516  -14.9332   21.1876 C   0  0  0  0  0  0  0  0  0  0  0  0
  -29.1939  -17.3046   19.2564 C   0  0  0  0  0  0  0  0  0  0  0  0
  -30.4101  -17.9174   21.2520 C   0  0  0  0  0  0  0  0  0  0  0  0
  -24.1915  -13.3055   19.7438 C   0  0  0  0  0  0  0  0  0  0  0  0
  -23.6182  -15.9574   20.3643 C   0  0  0  0  0  0  0  0  0  0  0  0
  -21.8163  -22.4717   17.9908 C   0  0  0  0  0  0  0  0  0  0  0  0
  -29.8632  -16.0813   19.2241 C   0  0  0  0  0  0  0  0  0  0  0  0
  -31.0794  -16.6940   21.2198 C   0  0  0  0  0  0  0  0  0  0  0  0
  -22.3324  -23.7632   17.8929 C   0  0  0  0  0  0  0  0  0  0  0  0
  -30.9896  -12.6484   18.8216 C   0  0  0  0  0  0  0  0  0  0  0  0
  -30.2340  -11.5021   18.5756 C   0  0  0  0  0  0  0  0  0  0  0  0
  -23.5565  -23.1177   15.9170 C   0  0  0  0  0  0  0  0  0  0  0  0
  -28.9160  -11.9469   20.5510 C   0  0  0  0  0  0  0  0  0  0  0  0
  -29.4674  -18.2227   20.2703 C   0  0  0  0  0  0  0  0  0  0  0  0
  -27.5626  -19.7752   20.9554 C   0  0  0  0  0  0  0  0  0  0  0  0
  -24.6595  -14.3259   18.9009 C   0  0  0  0  0  0  0  0  0  0  0  0
  -22.1757  -21.4889   17.0573 C   0  0  0  0  0  0  0  0  0  0  0  0
  -24.3792  -15.6686   19.2188 C   0  0  0  0  0  0  0  0  0  0  0  0
  -23.0417  -21.8152   16.0039 C   0  0  0  0  0  0  0  0  0  0  0  0
  -30.8059  -15.7760   20.2058 C   0  0  0  0  0  0  0  0  0  0  0  0
  -23.2049  -24.0856   16.8576 C   0  0  0  0  0  0  0  0  0  0  0  0
  -30.7085  -13.4440   19.9324 C   0  0  0  0  0  0  0  0  0  0  0  0
  -29.1972  -11.1513   19.4403 C   0  0  0  0  0  0  0  0  0  0  0  0
  -29.6717  -13.0933   20.7970 C   0  0  0  0  0  0  0  0  0  0  0  0
  -28.7767  -19.4868   20.3038 C   0  0  0  0  0  0  0  0  0  0  0  0
  -27.3358  -21.1030   20.6869 C   0  0  0  0  0  0  0  0  0  0  0  0
  -26.7157  -18.9194   21.7338 C   0  0  0  0  0  0  0  0  0  0  0  0
  -23.6730  -18.6893   17.2115 C   0  0  0  0  0  0  0  0  0  0  0  0
  -22.8465  -18.5156   14.0795 C   0  0  0  0  0  0  0  0  0  0  0  0
  -22.0014  -20.1595   11.2107 C   0  0  0  0  0  0  0  0  0  0  0  0
  -30.2107  -26.0847   20.0304 C   0  0  0  0  0  0  0  0  0  0  0  0
  -25.5096  -13.9529   17.7122 C   0  0  0  0  0  0  0  0  0  0  0  0
  -21.5894  -20.1077   17.1614 C   0  0  0  0  0  0  0  0  0  0  0  0
  -23.4428  -20.8019   14.9642 C   0  0  0  0  0  0  0  0  0  0  0  0
  -25.6490  -15.0752   16.6869 C   0  0  0  0  0  0  0  0  0  0  0  0
  -28.9170  -24.2816   17.2462 C   0  0  0  0  0  0  0  0  0  0  0  0
  -25.9726  -16.3947   17.3804 C   0  0  0  0  0  0  0  0  0  0  0  0
  -25.5540  -26.9401   20.2832 C   0  0  0  0  0  0  0  0  0  0  0  0
  -26.3547  -28.9161   18.9192 C   0  0  0  0  0  0  0  0  0  0  0  0
  -28.6361  -22.8882   17.8114 C   0  0  0  0  0  0  0  0  0  0  0  0
  -25.8196  -27.7187   21.5723 C   0  0  0  0  0  0  0  0  0  0  0  0
  -26.6228  -29.6990   20.2054 C   0  0  0  0  0  0  0  0  0  0  0  0
  -30.1745  -24.8956   17.8576 C   0  0  0  0  0  0  0  0  0  0  0  0
  -29.9117  -23.5373   19.8971 C   0  0  0  0  0  0  0  0  0  0  0  0
  -24.8467  -16.8060   18.3368 C   0  0  1  0  0  0  0  0  0  0  0  0
  -22.4270  -19.0480   16.4523 C   0  0  1  0  0  0  0  0  0  0  0  0
  -25.2424  -27.8762   19.1080 C   0  0  0  0  0  0  0  0  0  0  0  0
  -28.6221  -22.9003   19.3518 C   0  0  2  0  0  0  0  0  0  0  0  0
  -26.8879  -28.7997   21.4123 C   0  0  0  0  0  0  0  0  0  0  0  0
  -21.4204  -19.7503    8.8040 C   0  0  0  0  0  0  0  0  0  0  0  0
  -24.7616  -28.0161   16.6508 C   0  0  0  0  0  0  0  0  0  0  0  0
  -25.7877  -17.9887   13.4617 C   0  0  0  0  0  0  0  0  0  0  0  0
  -25.3097  -18.5323   11.0650 C   0  0  0  0  0  0  0  0  0  0  0  0
  -24.1799  -16.5916   12.1512 C   0  0  0  0  0  0  0  0  0  0  0  0
  -19.3223  -21.3758   11.5300 C   0  0  0  0  0  0  0  0  0  0  0  0
  -30.2119  -27.1337   22.2796 C   0  0  0  0  0  0  0  0  0  0  0  0
  -28.8567  -27.7621   22.5456 C   0  0  0  0  0  0  0  0  0  0  0  0
  -23.8847  -26.0712   17.9762 C   0  0  0  0  0  0  0  0  0  1  0  0
  -23.4865  -18.9402   12.7798 C   0  0  1  0  0  0  0  0  0  0  0  0
  -20.8794  -19.9334   10.2134 C   0  0  2  0  0  0  0  0  0  0  0  0
  -25.0298  -27.0760   17.8240 C   0  0  2  0  0  0  0  0  0  0  0  0
  -24.6851  -18.0320   12.3850 C   0  0  0  0  0  0  0  0  0  0  0  0
  -29.2855  -20.5462   19.6690 N   0  0  0  0  0  0  0  0  0  0  0  0
  -28.3867  -21.5131   19.9204 N   0  0  0  0  0  0  0  0  0  0  0  0
  -22.8479  -19.4634   15.1127 N   0  0  0  0  0  0  0  0  0  0  0  0
  -30.0970  -24.8781   19.3203 N   0  0  0  0  0  0  0  0  0  0  0  0
  -26.3418  -21.9479   21.0340 N   0  0  0  0  0  0  0  0  0  0  0  0
  -27.0978  -17.5826   21.9105 N   0  0  0  0  0  0  0  0  0  0  0  0
  -23.7345  -17.3640   17.5978 N   0  0  0  0  0  0  0  0  0  0  0  0
  -22.4148  -18.9789   11.7907 N   0  0  0  0  0  0  0  0  0  0  0  0
  -30.1200  -25.9799   21.4130 N   0  0  0  0  0  0  0  0  0  0  0  0
  -28.2234  -28.1535   21.2606 N   0  3  0  0  0  0  0  0  0  0  0  0
  -19.9463  -21.0954   10.2113 N   0  3  0  0  0  0  0  0  0  0  0  0
  -25.6432  -19.3238   22.2434 O   0  0  0  0  0  0  0  0  0  0  0  0
  -24.5169  -19.5508   17.4293 O   0  0  0  0  0  0  0  0  0  0  0  0
  -22.3569  -17.3872   14.1723 O   0  0  0  0  0  0  0  0  0  0  0  0
  -22.4671  -21.2717   11.4485 O   0  0  0  0  0  0  0  0  0  0  0  0
  -30.3752  -27.1753   19.4732 O   0  0  0  0  0  0  0  0  0  0  0  0
  -31.4591  -14.5822   20.1748 O   0  0  0  0  0  0  0  0  0  0  0  0
  -23.7106  -25.3452   16.7600 O   0  0  0  0  0  0  0  0  0  1  0  0
  -28.4706  -10.0513   19.2031 F   0  0  0  0  0  0  0  0  0  0  0  0
  -29.3961  -13.8543   21.8651 F   0  0  0  0  0  0  0  0  0  0  0  0
  1  2  1  0  0  0  0
  1  5  2  0  0  0  0
  2  6  2  0  0  0  0
  3  8  2  0  0  0  0
  3 15  1  0  0  0  0
  4  9  1  0  0  0  0
  4 15  2  0  0  0  0
  5 17  1  0  0  0  0
  6 19  1  0  0  0  0
  7 10  2  0  0  0  0
  7 18  1  0  0  0  0
  8 21  1  0  0  0  0
  9 21  2  0  0  0  0
 10 22  1  0  0  0  0
 11 12  2  0  0  0  0
 11 23  1  0  0  0  0
 12 24  1  0  0  0  0
 13 20  1  0  0  0  0
 13 22  2  0  0  0  0
 14 24  2  0  0  0  0
 14 25  1  0  0  0  0
 15 26  1  0  0  0  0
 16 26  1  0  0  0  0
 16 27  2  0  0  0  0
 16 28  1  0  0  0  0
 17 19  2  0  0  0  0
 17 33  1  0  0  0  0
 18 20  2  0  0  0  0
 18 34  1  0  0  0  0
 19 46  1  0  0  0  0
 20 35  1  0  0  0  0
 21 80  1  0  0  0  0
 22 81  1  0  0  0  0
 23 25  2  0  0  0  0
 23 80  1  0  0  0  0
 24 82  1  0  0  0  0
 25 83  1  0  0  0  0
 26 64  2  0  0  0  0
 27 65  1  0  0  0  0
 27 68  1  0  0  0  0
 28 69  1  0  0  0  0
 28 75  2  0  0  0  0
 29 47  1  0  0  0  0
 29 70  1  0  0  0  0
 29 76  2  0  0  0  0
 30 60  1  0  0  0  0
 30 66  1  0  0  0  0
 30 77  2  0  0  0  0
 31 61  1  0  0  0  0
 31 71  1  0  0  0  0
 31 78  2  0  0  0  0
 32 67  1  0  0  0  0
 32 72  1  0  0  0  0
 32 79  2  0  0  0  0
 33 36  1  0  0  0  0
 34 47  1  0  0  0  0
 35 66  1  0  0  0  0
 36 38  1  0  0  0  0
 37 41  1  0  0  0  0
 37 44  1  0  0  0  0
 38 46  1  0  0  0  0
 39 42  1  0  0  0  0
 39 48  1  0  0  0  0
 40 43  1  0  0  0  0
 40 48  1  0  0  0  0
 41 49  1  0  0  0  0
 42 50  1  0  0  0  0
 43 50  1  0  0  0  0
 44 67  1  0  0  0  0
 45 49  1  0  0  0  0
 45 67  1  0  0  0  0
 46 70  1  0  0  0  0
 47 66  1  0  0  0  0
 48 62  1  0  0  0  0
 49 65  1  0  0  0  0
 50 73  1  0  0  0  0
 51 61  1  0  0  0  0
 52 62  1  0  0  0  0
 53 63  1  0  0  0  0
 54 63  1  0  0  0  0
 55 63  1  0  0  0  0
 56 74  1  0  0  0  0
 57 58  1  0  0  0  0
 57 72  1  0  0  0  0
 58 73  1  0  0  0  0
 59 62  1  0  0  0  0
 59 81  1  0  0  0  0
 60 63  1  0  0  0  0
 60 71  1  0  0  0  0
 61 74  1  0  0  0  0
 64 65  1  0  0  0  0
M  CHG  2  73   1  74   1
M  ISO  4  32 100  59 101  72 100  81 101
M  END
> <Batch ID>
0125

> <Smiles>
CNC(C)C(=O)NC(C(=O)N1Cc2cc([101O:1][101CH2:1]C(C)C3CCC(NCC[100NH:0][100C:0](=O)N4CCCC(n5nc(-c6ccc(Oc7ccc(F)cc7F)cc6)c(C(N)=O)c5N)C4)CC3)ccc2CC1C(=O)NC1CCCc2ccccc21)C(C)(C)C

> <Shape>
0.203

> <Color>
0.059

> <Negative vol penalty>
0.000

$$$$

  -OEChem-04052320353D

 82 91  0     1  0  0  0  0  0999 V2000
  -20.6914  -27.5283   19.4574 C   0  0  0  0  0  0  0  0  0  0  0  0
  -21.3090  -26.4724   20.1200 C   0  0  0  0  0  0  0  0  0  0  0  0
  -23.2834   -9.8054   19.9106 C   0  0  0  0  0  0  0  0  0  0  0  0
  -23.7426   -9.9347   22.2790 C   0  0  0  0  0  0  0  0  0  0  0  0
  -21.3829  -28.2311   18.4716 C   0  0  0  0  0  0  0  0  0  0  0  0
  -22.6182  -26.1180   19.7964 C   0  0  0  0  0  0  0  0  0  0  0  0
  -30.2125  -17.3642   25.9810 C   0  0  0  0  0  0  0  0  0  0  0  0
  -29.3214  -16.6379   23.8560 C   0  0  0  0  0  0  0  0  0  0  0  0
  -26.9103  -24.0004   23.6174 C   0  0  0  0  0  0  0  0  0  0  0  0
  -29.6033  -18.6075   25.8116 C   0  0  0  0  0  0  0  0  0  0  0  0
  -28.7121  -17.8812   23.6866 C   0  0  0  0  0  0  0  0  0  0  0  0
  -22.5554   -8.6334   20.1157 C   0  0  0  0  0  0  0  0  0  0  0  0
  -23.0146   -8.7627   22.4842 C   0  0  0  0  0  0  0  0  0  0  0  0
  -27.3627  -22.7120   23.8986 C   0  0  0  0  0  0  0  0  0  0  0  0
  -20.9743   -6.0014   23.6800 C   0  0  0  0  0  0  0  0  0  0  0  0
  -20.0763   -5.9732   24.7470 C   0  0  0  0  0  0  0  0  0  0  0  0
  -29.1677  -23.0091   22.3260 C   0  0  0  0  0  0  0  0  0  0  0  0
  -18.8670   -7.8270   23.7782 C   0  0  0  0  0  0  0  0  0  0  0  0
  -23.8770  -10.4560   20.9922 C   0  0  0  0  0  0  0  0  0  0  0  0
  -24.1407  -12.9864   20.8037 C   0  0  0  0  0  0  0  0  0  0  0  0
  -30.0717  -16.3794   25.0032 C   0  0  0  0  0  0  0  0  0  0  0  0
  -22.7046  -27.8913   18.1426 C   0  0  0  0  0  0  0  0  0  0  0  0
  -27.5780  -24.8002   22.6788 C   0  0  0  0  0  0  0  0  0  0  0  0
  -23.3276  -26.8160   18.8044 C   0  0  0  0  0  0  0  0  0  0  0  0
  -28.7233  -24.3083   22.0366 C   0  0  0  0  0  0  0  0  0  0  0  0
  -28.8530  -18.8660   24.6644 C   0  0  0  0  0  0  0  0  0  0  0  0
  -22.4210   -8.1121   21.4025 C   0  0  0  0  0  0  0  0  0  0  0  0
  -28.4899  -22.2151   23.2507 C   0  0  0  0  0  0  0  0  0  0  0  0
  -20.8187   -6.9424   22.6622 C   0  0  0  0  0  0  0  0  0  0  0  0
  -19.0227   -6.8860   24.7961 C   0  0  0  0  0  0  0  0  0  0  0  0
  -19.7651   -7.8552   22.7113 C   0  0  0  0  0  0  0  0  0  0  0  0
  -24.6296  -11.6664   20.7809 C   0  0  0  0  0  0  0  0  0  0  0  0
  -25.2428  -13.7652   20.5484 C   0  0  0  0  0  0  0  0  0  0  0  0
  -22.8094  -13.4656   21.0353 C   0  0  0  0  0  0  0  0  0  0  0  0
  -26.7889  -26.1360   19.9045 C   0  0  0  0  0  0  0  0  0  0  0  0
  -29.7244  -27.4910   20.1668 C   0  0  0  0  0  0  0  0  0  0  0  0
  -32.8711  -27.3554   21.4810 C   0  0  0  0  0  0  0  0  0  0  0  0
  -31.1150  -12.9071   21.3439 C   0  0  0  0  0  0  0  0  0  0  0  0
  -23.3954  -28.6498   17.0370 C   0  0  0  0  0  0  0  0  0  0  0  0
  -27.0929  -26.1977   22.4064 C   0  0  0  0  0  0  0  0  0  0  0  0
  -29.4877  -25.1342   21.0357 C   0  0  0  0  0  0  0  0  0  0  0  0
  -24.9088  -28.4517   17.0158 C   0  0  0  0  0  0  0  0  0  0  0  0
  -29.4569  -13.6632   18.2852 C   0  0  0  0  0  0  0  0  0  0  0  0
  -25.2558  -26.9733   17.1603 C   0  0  0  0  0  0  0  0  0  0  0  0
  -27.9876  -13.3563   18.5800 C   0  0  0  0  0  0  0  0  0  0  0  0
  -32.2075  -14.9931   25.4515 C   0  0  0  0  0  0  0  0  0  0  0  0
  -30.3907  -12.6789   18.9860 C   0  0  0  0  0  0  0  0  0  0  0  0
  -28.7093  -12.2452   20.7348 C   0  0  0  0  0  0  0  0  0  0  0  0
  -30.7229  -15.0511   25.1836 C   0  0  2  0  0  0  0  0  0  0  0  0
  -24.7552  -26.4174   18.4989 C   0  0  1  0  0  0  0  0  0  0  0  0
  -27.5491  -26.7354   21.0536 C   0  0  1  0  0  0  0  0  0  0  0  0
  -31.6741  -14.5525   24.1209 C   0  0  2  0  0  0  0  0  0  0  0  0
  -27.7311  -13.2451   20.0949 C   0  0  2  0  0  0  0  0  0  0  0  0
  -35.0590  -28.5844   21.4848 C   0  0  0  0  0  0  0  0  0  0  0  0
  -30.3380  -26.4022   17.3833 C   0  0  0  0  0  0  0  0  0  0  0  0
  -32.7659  -26.8171   17.8323 C   0  0  0  0  0  0  0  0  0  0  0  0
  -31.1614  -28.7268   17.7991 C   0  0  0  0  0  0  0  0  0  0  0  0
  -32.7359  -27.8231   24.4003 C   0  0  0  0  0  0  0  0  0  0  0  0
  -28.1954  -20.2024   24.4829 C   0  0  0  0  0  0  0  0  0  1  0  0
  -31.6856  -13.1093   23.7507 C   0  0  0  0  0  0  0  0  0  0  0  0
  -31.1209  -27.1076   19.7404 C   0  0  1  0  0  0  0  0  0  0  0  0
  -33.7175  -28.4050   22.1784 C   0  0  2  0  0  0  0  0  0  0  0  0
  -31.3312  -27.2469   18.2062 C   0  0  0  0  0  0  0  0  0  0  0  0
  -25.9403  -11.6063   20.5305 N   0  0  0  0  0  0  0  0  0  0  0  0
  -26.2843  -12.8982   20.3937 N   0  0  0  0  0  0  0  0  0  0  0  0
  -28.9703  -26.4921   20.7987 N   0  0  0  0  0  0  0  0  0  0  0  0
  -30.0963  -12.6218   20.4199 N   0  0  0  0  0  0  0  0  0  0  0  0
  -25.4130  -15.1003   20.4431 N   0  0  0  0  0  0  0  0  0  0  0  0
  -21.7959  -12.5296   21.2822 N   0  0  0  0  0  0  0  0  0  0  0  0
  -25.6351  -26.8212   19.5746 N   0  0  0  0  0  0  0  0  0  0  0  0
  -32.0300  -27.9175   20.5441 N   0  0  0  0  0  0  0  0  0  0  0  0
  -30.7498  -12.8365   22.6827 N   0  0  0  0  0  0  0  0  0  0  0  0
  -33.9691  -28.0110   23.5935 N   0  3  0  0  0  0  0  0  0  0  0  0
  -22.5238  -14.6867   21.0073 O   0  0  0  0  0  0  0  0  0  0  0  0
  -27.2182  -25.1273   19.3567 O   0  0  0  0  0  0  0  0  0  0  0  0
  -29.3202  -28.6368   19.9538 O   0  0  0  0  0  0  0  0  0  0  0  0
  -32.9509  -26.1563   21.7388 O   0  0  0  0  0  0  0  0  0  0  0  0
  -32.2634  -13.2082   21.0011 O   0  0  0  0  0  0  0  0  0  0  0  0
  -21.7106   -6.9686   21.6031 O   0  0  0  0  0  0  0  0  0  0  0  0
  -28.9332  -20.9576   23.5228 O   0  0  0  0  0  0  0  0  0  1  0  0
  -18.1595   -6.8578   25.8200 F   0  0  0  0  0  0  0  0  0  0  0  0
  -19.6098   -8.7607   21.7357 F   0  0  0  0  0  0  0  0  0  0  0  0
  1  2  1  0  0  0  0
  1  5  2  0  0  0  0
  2  6  2  0  0  0  0
  3 12  2  0  0  0  0
  3 19  1  0  0  0  0
  4 13  1  0  0  0  0
  4 19  2  0  0  0  0
  5 22  1  0  0  0  0
  6 24  1  0  0  0  0
  7 10  2  0  0  0  0
  7 21  1  0  0  0  0
  8 11  1  0  0  0  0
  8 21  2  0  0  0  0
  9 14  2  0  0  0  0
  9 23  1  0  0  0  0
 10 26  1  0  0  0  0
 11 26  2  0  0  0  0
 12 27  1  0  0  0  0
 13 27  2  0  0  0  0
 14 28  1  0  0  0  0
 15 16  2  0  0  0  0
 15 29  1  0  0  0  0
 16 30  1  0  0  0  0
 17 25  1  0  0  0  0
 17 28  2  0  0  0  0
 18 30  2  0  0  0  0
 18 31  1  0  0  0  0
 19 32  1  0  0  0  0
 20 32  1  0  0  0  0
 20 33  2  0  0  0  0
 20 34  1  0  0  0  0
 21 49  1  0  0  0  0
 22 24  2  0  0  0  0
 22 39  1  0  0  0  0
 23 25  2  0  0  0  0
 23 40  1  0  0  0  0
 24 50  1  0  0  0  0
 25 41  1  0  0  0  0
 26 59  1  0  0  0  0
 27 79  1  0  0  0  0
 28 80  1  0  0  0  0
 29 31  2  0  0  0  0
 29 79  1  0  0  0  0
 30 81  1  0  0  0  0
 31 82  1  0  0  0  0
 32 64  2  0  0  0  0
 33 65  1  0  0  0  0
 33 68  1  0  0  0  0
 34 69  1  0  0  0  0
 34 74  2  0  0  0  0
 35 51  1  0  0  0  0
 35 70  1  0  0  0  0
 35 75  2  0  0  0  0
 36 61  1  0  0  0  0
 36 66  1  0  0  0  0
 36 76  2  0  0  0  0
 37 62  1  0  0  0  0
 37 71  1  0  0  0  0
 37 77  2  0  0  0  0
 38 67  1  0  0  0  0
 38 72  1  0  0  0  0
 38 78  2  0  0  0  0
 39 42  1  0  0  0  0
 40 51  1  0  0  0  0
 41 66  1  0  0  0  0
 42 44  1  0  0  0  0
 43 45  1  0  0  0  0
 43 47  1  0  0  0  0
 44 50  1  0  0  0  0
 45 53  1  0  0  0  0
 46 49  1  0  0  0  0
 46 52  1  0  0  0  0
 47 67  1  0  0  0  0
 48 53  1  0  0  0  0
 48 67  1  0  0  0  0
 49 52  1  0  0  0  0
 50 70  1  0  0  0  0
 51 66  1  0  0  0  0
 52 60  1  0  0  0  0
 53 65  1  0  0  0  0
 54 62  1  0  0  0  0
 55 63  1  0  0  0  0
 56 63  1  0  0  0  0
 57 63  1  0  0  0  0
 58 73  1  0  0  0  0
 59 80  1  0  0  0  0
 60 72  1  0  0  0  0
 61 63  1  0  0  0  0
 61 71  1  0  0  0  0
 62 73  1  0  0  0  0
 64 65  1  0  0  0  0
M  CHG  1  73   1
M  ISO  4  38 100  59 101  72 100  80 101
M  END
> <Batch ID>
0125

> <Smiles>
CNC(C)C(=O)NC(C(=O)N1Cc2cc([101O:1][101CH2:1]c3ccc(C4CC4C[100NH:0][100C:0](=O)N4CCCC(n5nc(-c6ccc(Oc7ccc(F)cc7F)cc6)c(C(N)=O)c5N)C4)cc3)ccc2CC1C(=O)NC1CCCc2ccccc21)C(C)(C)C

> <Shape>
0.207

> <Color>
0.182

> <Negative vol penalty>
0.000

$$$$

  -OEChem-04052320353D

 82 91  0     1  0  0  0  0  0999 V2000
  -40.8988  -25.4071   18.3384 C   0  0  0  0  0  0  0  0  0  0  0  0
  -40.0781  -24.7050   19.2153 C   0  0  0  0  0  0  0  0  0  0  0  0
  -23.0181   -9.8515   20.0529 C   0  0  0  0  0  0  0  0  0  0  0  0
  -23.6990  -10.0559   22.3619 C   0  0  0  0  0  0  0  0  0  0  0  0
  -40.4123  -26.5384   17.6847 C   0  0  0  0  0  0  0  0  0  0  0  0
  -38.7707  -25.1346   19.4399 C   0  0  0  0  0  0  0  0  0  0  0  0
  -35.4357  -21.3242   19.3755 C   0  0  0  0  0  0  0  0  0  0  0  0
  -22.2522   -8.7320   20.3778 C   0  0  0  0  0  0  0  0  0  0  0  0
  -22.9331   -8.9364   22.6868 C   0  0  0  0  0  0  0  0  0  0  0  0
  -35.3609  -20.5242   20.5149 C   0  0  0  0  0  0  0  0  0  0  0  0
  -21.4443   -5.9185   24.0602 C   0  0  0  0  0  0  0  0  0  0  0  0
  -22.0208   -4.9574   24.8904 C   0  0  0  0  0  0  0  0  0  0  0  0
  -33.4021  -21.7369   21.2303 C   0  0  0  0  0  0  0  0  0  0  0  0
  -31.9868  -16.7177   22.3673 C   0  0  0  0  0  0  0  0  0  0  0  0
  -23.7799   -4.6132   23.2705 C   0  0  0  0  0  0  0  0  0  0  0  0
  -31.6934  -18.5808   23.8162 C   0  0  0  0  0  0  0  0  0  0  0  0
  -23.7415  -10.5135   21.0449 C   0  0  0  0  0  0  0  0  0  0  0  0
  -24.1177  -13.0148   20.7135 C   0  0  0  0  0  0  0  0  0  0  0  0
  -39.0951  -26.9765   17.8940 C   0  0  0  0  0  0  0  0  0  0  0  0
  -34.4991  -22.3454   19.1601 C   0  0  0  0  0  0  0  0  0  0  0  0
  -38.2665  -26.2737   18.7894 C   0  0  0  0  0  0  0  0  0  0  0  0
  -33.4657  -22.5467   20.0862 C   0  0  0  0  0  0  0  0  0  0  0  0
  -32.5460  -17.6737   23.2079 C   0  0  0  0  0  0  0  0  0  0  0  0
  -30.6115  -16.6983   22.1635 C   0  0  0  0  0  0  0  0  0  0  0  0
  -22.2097   -8.2744   21.6947 C   0  0  0  0  0  0  0  0  0  0  0  0
  -34.3458  -20.7324   21.4439 C   0  0  0  0  0  0  0  0  0  0  0  0
  -22.0355   -6.2270   22.8350 C   0  0  0  0  0  0  0  0  0  0  0  0
  -23.1886   -4.3047   24.4956 C   0  0  0  0  0  0  0  0  0  0  0  0
  -23.2033   -5.5744   22.4402 C   0  0  0  0  0  0  0  0  0  0  0  0
  -24.5333  -11.6698   20.7098 C   0  0  0  0  0  0  0  0  0  0  0  0
  -29.8455  -17.6489   22.8188 C   0  0  0  0  0  0  0  0  0  0  0  0
  -25.2306  -13.7191   20.3238 C   0  0  0  0  0  0  0  0  0  0  0  0
  -22.8399  -13.5772   21.0400 C   0  0  0  0  0  0  0  0  0  0  0  0
  -34.6529  -25.5081   18.8824 C   0  0  0  0  0  0  0  0  0  0  0  0
  -31.5042  -25.2078   18.1628 C   0  0  0  0  0  0  0  0  0  0  0  0
  -28.6369  -23.3741   18.4142 C   0  0  0  0  0  0  0  0  0  0  0  0
  -30.6998  -14.7271   20.5974 C   0  0  0  0  0  0  0  0  0  0  0  0
  -38.6290  -28.2323   17.2009 C   0  0  0  0  0  0  0  0  0  0  0  0
  -34.5779  -23.1822   17.9127 C   0  0  0  0  0  0  0  0  0  0  0  0
  -32.4235  -23.6164   19.8913 C   0  0  0  0  0  0  0  0  0  0  0  0
  -37.1122  -28.4044   17.2076 C   0  0  0  0  0  0  0  0  0  0  0  0
  -29.6382  -12.1220   18.4148 C   0  0  0  0  0  0  0  0  0  0  0  0
  -36.5505  -28.1352   18.6000 C   0  0  0  0  0  0  0  0  0  0  0  0
  -27.7864  -18.4089   21.4563 C   0  0  0  0  0  0  0  0  0  0  0  0
  -27.6186  -18.9600   22.8377 C   0  0  0  0  0  0  0  0  0  0  0  0
  -28.1812  -11.8828   18.8176 C   0  0  0  0  0  0  0  0  0  0  0  0
  -30.5143  -12.4487   19.6229 C   0  0  0  0  0  0  0  0  0  0  0  0
  -28.5700  -13.3104   20.8665 C   0  0  0  0  0  0  0  0  0  0  0  0
  -36.8345  -26.6940   19.0402 C   0  0  1  0  0  0  0  0  0  0  0  0
  -28.3617  -17.6684   22.6324 C   0  0  0  0  0  0  0  0  0  0  0  0
  -33.8739  -24.5286   18.0510 C   0  0  1  0  0  0  0  0  0  0  0  0
  -27.6361  -13.0416   19.6751 C   0  0  2  0  0  0  0  0  0  0  0  0
  -26.2155  -23.4040   17.7561 C   0  0  0  0  0  0  0  0  0  0  0  0
  -30.9369  -27.2563   20.3519 C   0  0  0  0  0  0  0  0  0  0  0  0
  -28.5373  -26.5440   20.2999 C   0  0  0  0  0  0  0  0  0  0  0  0
  -29.5818  -27.5511   18.2707 C   0  0  0  0  0  0  0  0  0  0  0  0
  -28.9178  -20.8917   16.8275 C   0  0  0  0  0  0  0  0  0  0  0  0
  -34.0350  -17.7220   23.4504 C   0  0  0  0  0  0  0  0  0  0  0  0
  -34.7570  -18.6162   22.4482 C   0  0  0  0  0  0  0  0  0  1  0  0
  -30.2213  -25.2038   18.9586 C   0  0  1  0  0  0  0  0  0  0  0  0
  -27.6162  -22.9527   17.3726 C   0  0  2  0  0  0  0  0  0  0  0  0
  -29.8400  -26.6198   19.4752 C   0  0  0  0  0  0  0  0  0  0  0  0
  -30.3528  -18.5931   23.6427 N   0  0  0  0  0  0  0  0  0  0  0  0
  -25.8105  -11.5257   20.3464 N   0  0  0  0  0  0  0  0  0  0  0  0
  -26.2070  -12.7893   20.1181 N   0  0  0  0  0  0  0  0  0  0  0  0
  -32.5469  -24.4127   18.6591 N   0  0  0  0  0  0  0  0  0  0  0  0
  -29.9380  -13.5586   20.3851 N   0  0  0  0  0  0  0  0  0  0  0  0
  -25.4594  -15.0368   20.1405 N   0  0  0  0  0  0  0  0  0  0  0  0
  -21.8061  -12.7108   21.4208 N   0  0  0  0  0  0  0  0  0  0  0  0
  -30.0360  -15.7271   21.3072 N   0  0  0  0  0  0  0  0  0  0  0  0
  -35.9175  -25.7786   18.3956 N   0  0  0  0  0  0  0  0  0  0  0  0
  -29.2124  -24.5880   18.1034 N   0  0  0  0  0  0  0  0  0  0  0  0
  -27.6083  -21.4697   17.2254 N   0  3  0  0  0  0  0  0  0  0  0  0
  -22.6167  -14.8101   20.9796 O   0  0  0  0  0  0  0  0  0  0  0  0
  -34.1437  -25.9845   19.8901 O   0  0  0  0  0  0  0  0  0  0  0  0
  -31.5759  -25.8857   17.1347 O   0  0  0  0  0  0  0  0  0  0  0  0
  -28.8949  -22.6963   19.4064 O   0  0  0  0  0  0  0  0  0  0  0  0
  -31.8462  -14.8433   20.1567 O   0  0  0  0  0  0  0  0  0  0  0  0
  -21.4623   -7.1821   22.0122 O   0  0  0  0  0  0  0  0  0  0  0  0
  -34.2708  -19.9534   22.5572 O   0  0  0  0  0  0  0  0  0  1  0  0
  -23.7430   -3.3828   25.2937 F   0  0  0  0  0  0  0  0  0  0  0  0
  -23.7765   -5.8673   21.2648 F   0  0  0  0  0  0  0  0  0  0  0  0
  1  2  1  0  0  0  0
  1  5  2  0  0  0  0
  2  6  2  0  0  0  0
  3  8  2  0  0  0  0
  3 17  1  0  0  0  0
  4  9  1  0  0  0  0
  4 17  2  0  0  0  0
  5 19  1  0  0  0  0
  6 21  1  0  0  0  0
  7 10  2  0  0  0  0
  7 20  1  0  0  0  0
  8 25  1  0  0  0  0
  9 25  2  0  0  0  0
 10 26  1  0  0  0  0
 11 12  2  0  0  0  0
 11 27  1  0  0  0  0
 12 28  1  0  0  0  0
 13 22  1  0  0  0  0
 13 26  2  0  0  0  0
 14 23  2  0  0  0  0
 14 24  1  0  0  0  0
 15 28  2  0  0  0  0
 15 29  1  0  0  0  0
 16 23  1  0  0  0  0
 16 63  2  0  0  0  0
 17 30  1  0  0  0  0
 18 30  1  0  0  0  0
 18 32  2  0  0  0  0
 18 33  1  0  0  0  0
 19 21  2  0  0  0  0
 19 38  1  0  0  0  0
 20 22  2  0  0  0  0
 20 39  1  0  0  0  0
 21 49  1  0  0  0  0
 22 40  1  0  0  0  0
 23 58  1  0  0  0  0
 24 31  2  0  0  0  0
 24 70  1  0  0  0  0
 25 79  1  0  0  0  0
 26 80  1  0  0  0  0
 27 29  2  0  0  0  0
 27 79  1  0  0  0  0
 28 81  1  0  0  0  0
 29 82  1  0  0  0  0
 30 64  2  0  0  0  0
 31 50  1  0  0  0  0
 31 63  1  0  0  0  0
 32 65  1  0  0  0  0
 32 68  1  0  0  0  0
 33 69  1  0  0  0  0
 33 74  2  0  0  0  0
 34 51  1  0  0  0  0
 34 71  1  0  0  0  0
 34 75  2  0  0  0  0
 35 60  1  0  0  0  0
 35 66  1  0  0  0  0
 35 76  2  0  0  0  0
 36 61  1  0  0  0  0
 36 72  1  0  0  0  0
 36 77  2  0  0  0  0
 37 67  1  0  0  0  0
 37 70  1  0  0  0  0
 37 78  2  0  0  0  0
 38 41  1  0  0  0  0
 39 51  1  0  0  0  0
 40 66  1  0  0  0  0
 41 43  1  0  0  0  0
 42 46  1  0  0  0  0
 42 47  1  0  0  0  0
 43 49  1  0  0  0  0
 44 45  1  0  0  0  0
 44 50  1  0  0  0  0
 45 50  1  0  0  0  0
 46 52  1  0  0  0  0
 47 67  1  0  0  0  0
 48 52  1  0  0  0  0
 48 67  1  0  0  0  0
 49 71  1  0  0  0  0
 51 66  1  0  0  0  0
 52 65  1  0  0  0  0
 53 61  1  0  0  0  0
 54 62  1  0  0  0  0
 55 62  1  0  0  0  0
 56 62  1  0  0  0  0
 57 73  1  0  0  0  0
 58 59  1  0  0  0  0
 59 80  1  0  0  0  0
 60 62  1  0  0  0  0
 60 72  1  0  0  0  0
 61 73  1  0  0  0  0
 64 65  1  0  0  0  0
M  CHG  1  73   1
M  ISO  4  37 100  59 101  70 100  80 101
M  END
> <Batch ID>
0125

> <Smiles>
CNC(C)C(=O)NC(C(=O)N1Cc2cc([101O:1][101CH2:1]Cc3cnc(C4CC4)c([100NH:0][100C:0](=O)N4CCCC(n5nc(-c6ccc(Oc7ccc(F)cc7F)cc6)c(C(N)=O)c5N)C4)c3)ccc2CC1C(=O)NC1CCCc2ccccc21)C(C)(C)C

> <Shape>
0.238

> <Color>
0.214

> <Negative vol penalty>
0.000

$$$$

  -OEChem-04052320353D

 84 92  0     1  0  0  0  0  0999 V2000
  -22.1360  -18.4706   24.5041 C   0  0  0  0  0  0  0  0  0  0  0  0
  -23.0734  -19.3877   24.0399 C   0  0  0  0  0  0  0  0  0  0  0  0
  -24.4905   -9.7638   21.6063 C   0  0  0  0  0  0  0  0  0  0  0  0
  -24.7751  -10.9474   23.6932 C   0  0  0  0  0  0  0  0  0  0  0  0
  -20.7752  -18.7141   24.3227 C   0  0  0  0  0  0  0  0  0  0  0  0
  -22.6506  -20.5485   23.3931 C   0  0  0  0  0  0  0  0  0  0  0  0
  -25.1203  -24.6714   24.9891 C   0  0  0  0  0  0  0  0  0  0  0  0
  -24.1536   -8.6066   22.3084 C   0  0  0  0  0  0  0  0  0  0  0  0
  -24.4381   -9.7902   24.3954 C   0  0  0  0  0  0  0  0  0  0  0  0
  -26.4080  -24.8735   24.4946 C   0  0  0  0  0  0  0  0  0  0  0  0
  -21.4450   -7.3604   23.9032 C   0  0  0  0  0  0  0  0  0  0  0  0
  -20.3431   -6.6300   23.4584 C   0  0  0  0  0  0  0  0  0  0  0  0
  -25.5401  -26.4629   22.9010 C   0  0  0  0  0  0  0  0  0  0  0  0
  -27.4653  -19.9864   20.9159 C   0  0  0  0  0  0  0  0  0  0  0  0
  -21.7622   -4.7079   23.0992 C   0  0  0  0  0  0  0  0  0  0  0  0
  -24.8013  -10.9342   22.2986 C   0  0  0  0  0  0  0  0  0  0  0  0
  -24.2750  -13.1359   21.1227 C   0  0  0  0  0  0  0  0  0  0  0  0
  -20.3352  -19.8830   23.6819 C   0  0  0  0  0  0  0  0  0  0  0  0
  -24.0294  -25.3565   24.4351 C   0  0  0  0  0  0  0  0  0  0  0  0
  -21.2827  -20.8072   23.2018 C   0  0  0  0  0  0  0  0  0  0  0  0
  -24.2398  -26.2696   23.3920 C   0  0  0  0  0  0  0  0  0  0  0  0
  -27.4036  -21.3697   20.7894 C   0  0  0  0  0  0  0  0  0  0  0  0
  -28.4929  -22.0645   20.2757 C   0  0  0  0  0  0  0  0  0  0  0  0
  -24.1273   -8.6198   23.7030 C   0  0  0  0  0  0  0  0  0  0  0  0
  -26.6177  -25.7672   23.4484 C   0  0  0  0  0  0  0  0  0  0  0  0
  -22.7055   -6.7647   23.9459 C   0  0  0  0  0  0  0  0  0  0  0  0
  -20.5016   -5.3037   23.0565 C   0  0  0  0  0  0  0  0  0  0  0  0
  -22.8641   -5.4384   23.5440 C   0  0  0  0  0  0  0  0  0  0  0  0
  -25.1500  -12.1297   21.5739 C   0  0  0  0  0  0  0  0  0  0  0  0
  -29.6115  -21.3352   19.9060 C   0  0  0  0  0  0  0  0  0  0  0  0
  -28.6298  -19.3501   20.5173 C   0  0  0  0  0  0  0  0  0  0  0  0
  -25.0916  -14.0456   20.4964 C   0  0  0  0  0  0  0  0  0  0  0  0
  -22.8513  -13.2392   21.2577 C   0  0  0  0  0  0  0  0  0  0  0  0
  -21.3674  -24.4911   22.9289 C   0  0  0  0  0  0  0  0  0  0  0  0
  -20.6840  -27.6552   23.1382 C   0  0  0  0  0  0  0  0  0  0  0  0
  -21.8334  -30.8525   23.4591 C   0  0  0  0  0  0  0  0  0  0  0  0
  -29.7438  -17.0996   20.3159 C   0  0  0  0  0  0  0  0  0  0  0  0
  -18.8554  -20.0800   23.4669 C   0  0  0  0  0  0  0  0  0  0  0  0
  -22.6502  -25.1473   24.9977 C   0  0  0  0  0  0  0  0  0  0  0  0
  -23.1051  -27.0452   22.7760 C   0  0  0  0  0  0  0  0  0  0  0  0
  -18.4781  -21.5140   23.1043 C   0  0  0  0  0  0  0  0  0  0  0  0
  -29.9687  -13.7333   19.1780 C   0  0  0  0  0  0  0  0  0  0  0  0
  -19.4106  -22.0547   22.0250 C   0  0  0  0  0  0  0  0  0  0  0  0
  -28.6631  -13.0988   19.6628 C   0  0  0  0  0  0  0  0  0  0  0  0
  -30.5175  -14.7418   20.1858 C   0  0  0  0  0  0  0  0  0  0  0  0
  -28.2619  -15.1452   21.0904 C   0  0  0  0  0  0  0  0  0  0  0  0
  -20.8625  -22.0898   22.5173 C   0  0  1  0  0  0  0  0  0  0  0  0
  -21.5422  -25.5142   24.0153 C   0  0  1  0  0  0  0  0  0  0  0  0
  -27.6365  -14.1703   20.0795 C   0  0  2  0  0  0  0  0  0  0  0  0
  -26.1620  -22.0837   21.2110 C   0  0  0  0  0  0  0  0  0  0  0  0
  -30.8125  -22.0279   19.3490 C   0  0  0  0  0  0  0  0  0  0  0  0
  -21.0388  -33.2306   23.5603 C   0  0  0  0  0  0  0  0  0  0  0  0
  -30.5135  -26.2832   21.7039 C   0  0  0  0  0  0  0  0  0  0  0  0
  -20.2269  -27.6282   20.1216 C   0  0  0  0  0  0  0  0  0  0  0  0
  -20.3800  -30.1271   20.1462 C   0  0  0  0  0  0  0  0  0  0  0  0
  -18.5665  -28.9778   21.4162 C   0  0  0  0  0  0  0  0  0  0  0  0
  -22.9404  -31.2287   26.1779 C   0  0  0  0  0  0  0  0  0  0  0  0
  -28.4552  -23.5569   20.1265 C   0  0  0  0  0  0  0  0  0  0  0  0
  -27.9896  -26.3144   21.5845 C   0  0  0  0  0  0  0  0  0  1  0  0
  -20.9427  -28.8644   22.2723 C   0  0  1  0  0  0  0  0  0  0  0  0
  -21.4018  -31.9920   24.3644 C   0  0  2  0  0  0  0  0  0  0  0  0
  -29.2780  -25.7482   20.9982 C   0  0  2  0  0  0  0  0  0  0  0  0
  -20.0503  -28.8835   20.9992 C   0  0  0  0  0  0  0  0  0  0  0  0
  -26.4248  -12.3764   21.2607 N   0  0  0  0  0  0  0  0  0  0  0  0
  -29.7084  -19.9912   20.0140 N   0  0  0  0  0  0  0  0  0  0  0  0
  -26.3567  -13.5481   20.6060 N   0  0  0  0  0  0  0  0  0  0  0  0
  -21.7743  -26.8012   23.3565 N   0  0  0  0  0  0  0  0  0  0  0  0
  -29.4913  -15.7281   20.5304 N   0  0  0  0  0  0  0  0  0  0  0  0
  -24.8436  -15.2144   19.8682 N   0  0  0  0  0  0  0  0  0  0  0  0
  -22.1680  -12.2167   21.9299 N   0  0  0  0  0  0  0  0  0  0  0  0
  -28.6828  -17.9404   20.6505 N   0  0  0  0  0  0  0  0  0  0  0  0
  -21.0722  -23.2232   23.3923 N   0  0  0  0  0  0  0  0  0  0  0  0
  -20.7763  -30.0282   23.1361 N   0  0  0  0  0  0  0  0  0  0  0  0
  -22.4994  -32.3487   25.3073 N   0  3  0  0  0  0  0  0  0  0  0  0
  -29.2581  -24.2650   21.1557 N   0  3  0  0  0  0  0  0  0  0  0  0
  -22.2024  -14.2013   20.7816 O   0  0  0  0  0  0  0  0  0  0  0  0
  -21.4897  -24.8274   21.7569 O   0  0  0  0  0  0  0  0  0  0  0  0
  -19.5578  -27.4788   23.6097 O   0  0  0  0  0  0  0  0  0  0  0  0
  -22.9918  -30.7101   23.0737 O   0  0  0  0  0  0  0  0  0  0  0  0
  -30.8118  -17.4966   19.8430 O   0  0  0  0  0  0  0  0  0  0  0  0
  -23.7984   -7.4909   24.3885 O   0  0  0  0  0  0  0  0  0  0  0  0
  -27.8736  -25.9659   22.9634 O   0  0  0  0  0  0  0  0  0  1  0  0
  -19.4431   -4.6019   22.6308 F   0  0  0  0  0  0  0  0  0  0  0  0
  -24.0724   -4.8603   23.5840 F   0  0  0  0  0  0  0  0  0  0  0  0
  1  2  1  0  0  0  0
  1  5  2  0  0  0  0
  2  6  2  0  0  0  0
  3  8  2  0  0  0  0
  3 16  1  0  0  0  0
  4  9  1  0  0  0  0
  4 16  2  0  0  0  0
  5 18  1  0  0  0  0
  6 20  1  0  0  0  0
  7 10  2  0  0  0  0
  7 19  1  0  0  0  0
  8 24  1  0  0  0  0
  9 24  2  0  0  0  0
 10 25  1  0  0  0  0
 11 12  2  0  0  0  0
 11 26  1  0  0  0  0
 12 27  1  0  0  0  0
 13 21  1  0  0  0  0
 13 25  2  0  0  0  0
 14 22  2  0  0  0  0
 14 31  1  0  0  0  0
 15 27  2  0  0  0  0
 15 28  1  0  0  0  0
 16 29  1  0  0  0  0
 17 29  1  0  0  0  0
 17 32  2  0  0  0  0
 17 33  1  0  0  0  0
 18 20  2  0  0  0  0
 18 38  1  0  0  0  0
 19 21  2  0  0  0  0
 19 39  1  0  0  0  0
 20 47  1  0  0  0  0
 21 40  1  0  0  0  0
 22 23  1  0  0  0  0
 22 50  1  0  0  0  0
 23 30  2  0  0  0  0
 23 58  1  0  0  0  0
 24 81  1  0  0  0  0
 25 82  1  0  0  0  0
 26 28  2  0  0  0  0
 26 81  1  0  0  0  0
 27 83  1  0  0  0  0
 28 84  1  0  0  0  0
 29 64  2  0  0  0  0
 30 51  1  0  0  0  0
 30 65  1  0  0  0  0
 31 65  2  0  0  0  0
 31 71  1  0  0  0  0
 32 66  1  0  0  0  0
 32 69  1  0  0  0  0
 33 70  1  0  0  0  0
 33 76  2  0  0  0  0
 34 48  1  0  0  0  0
 34 72  1  0  0  0  0
 34 77  2  0  0  0  0
 35 60  1  0  0  0  0
 35 67  1  0  0  0  0
 35 78  2  0  0  0  0
 36 61  1  0  0  0  0
 36 73  1  0  0  0  0
 36 79  2  0  0  0  0
 37 68  1  0  0  0  0
 37 71  1  0  0  0  0
 37 80  2  0  0  0  0
 38 41  1  0  0  0  0
 39 48  1  0  0  0  0
 40 67  1  0  0  0  0
 41 43  1  0  0  0  0
 42 44  1  0  0  0  0
 42 45  1  0  0  0  0
 43 47  1  0  0  0  0
 44 49  1  0  0  0  0
 45 68  1  0  0  0  0
 46 49  1  0  0  0  0
 46 68  1  0  0  0  0
 47 72  1  0  0  0  0
 48 67  1  0  0  0  0
 49 66  1  0  0  0  0
 52 61  1  0  0  0  0
 53 62  1  0  0  0  0
 54 63  1  0  0  0  0
 55 63  1  0  0  0  0
 56 63  1  0  0  0  0
 57 74  1  0  0  0  0
 58 75  1  0  0  0  0
 59 62  1  0  0  0  0
 59 82  1  0  0  0  0
 60 63  1  0  0  0  0
 60 73  1  0  0  0  0
 61 74  1  0  0  0  0
 62 75  1  0  0  0  0
 64 66  1  0  0  0  0
M  CHG  2  74   1  75   1
M  ISO  4  37 100  59 101  71 100  82 101
M  END
> <Batch ID>
0125

> <Smiles>
CNC(C)C(=O)NC(C(=O)N1Cc2cc([101O:1][101CH2:1]C(C)NCc3c(C)cc([100NH:0][100C:0](=O)N4CCCC(n5nc(-c6ccc(Oc7ccc(F)cc7F)cc6)c(C(N)=O)c5N)C4)nc3C)ccc2CC1C(=O)NC1CCCc2ccccc21)C(C)(C)C

> <Shape>
0.239

> <Color>
0.117

> <Negative vol penalty>
0.000

$$$$

  -OEChem-04052320353D

 83 91  0     1  0  0  0  0  0999 V2000
  -32.5355  -29.8051   32.0178 C   0  0  0  0  0  0  0  0  0  0  0  0
  -32.5728  -28.6351   31.2661 C   0  0  0  0  0  0  0  0  0  0  0  0
  -23.0775   -9.8647   19.9395 C   0  0  0  0  0  0  0  0  0  0  0  0
  -23.8359   -9.8723   22.2333 C   0  0  0  0  0  0  0  0  0  0  0  0
  -31.6675  -30.8355   31.6590 C   0  0  0  0  0  0  0  0  0  0  0  0
  -31.7413  -28.4944   30.1556 C   0  0  0  0  0  0  0  0  0  0  0  0
  -33.0249  -25.5420   24.9458 C   0  0  0  0  0  0  0  0  0  0  0  0
  -22.3345   -8.7109   20.1889 C   0  0  0  0  0  0  0  0  0  0  0  0
  -23.0929   -8.7185   22.4828 C   0  0  0  0  0  0  0  0  0  0  0  0
  -32.7018  -24.2658   24.4868 C   0  0  0  0  0  0  0  0  0  0  0  0
  -19.8651   -7.9178   23.0832 C   0  0  0  0  0  0  0  0  0  0  0  0
  -19.1074   -7.8772   24.2536 C   0  0  0  0  0  0  0  0  0  0  0  0
  -30.8162  -25.1797   23.2915 C   0  0  0  0  0  0  0  0  0  0  0  0
  -32.0523  -16.6165   22.5558 C   0  0  0  0  0  0  0  0  0  0  0  0
  -29.8768  -17.4585   23.1412 C   0  0  0  0  0  0  0  0  0  0  0  0
  -20.3500   -5.9408   24.9908 C   0  0  0  0  0  0  0  0  0  0  0  0
  -23.8283  -10.4454   20.9617 C   0  0  0  0  0  0  0  0  0  0  0  0
  -24.1680  -12.9709   20.8419 C   0  0  0  0  0  0  0  0  0  0  0  0
  -30.8319  -30.7112   30.5379 C   0  0  0  0  0  0  0  0  0  0  0  0
  -32.2384  -26.6469   24.5894 C   0  0  0  0  0  0  0  0  0  0  0  0
  -30.8603  -29.5235   29.7822 C   0  0  0  0  0  0  0  0  0  0  0  0
  -31.1330  -26.4692   23.7452 C   0  0  0  0  0  0  0  0  0  0  0  0
  -30.6713  -16.5950   22.3953 C   0  0  0  0  0  0  0  0  0  0  0  0
  -22.3422   -8.1378   21.4606 C   0  0  0  0  0  0  0  0  0  0  0  0
  -31.5956  -24.0840   23.6619 C   0  0  0  0  0  0  0  0  0  0  0  0
  -20.8652   -6.9699   22.8666 C   0  0  0  0  0  0  0  0  0  0  0  0
  -19.3499   -6.8887   25.2075 C   0  0  0  0  0  0  0  0  0  0  0  0
  -21.1077   -5.9814   23.8204 C   0  0  0  0  0  0  0  0  0  0  0  0
  -24.5965  -11.6370   20.7045 C   0  0  0  0  0  0  0  0  0  0  0  0
  -32.5853  -17.5130   23.4679 C   0  0  0  0  0  0  0  0  0  0  0  0
  -30.5072  -18.3172   24.0273 C   0  0  0  0  0  0  0  0  0  0  0  0
  -25.2597  -13.7213   20.4794 C   0  0  0  0  0  0  0  0  0  0  0  0
  -22.8968  -13.4855   21.2600 C   0  0  0  0  0  0  0  0  0  0  0  0
  -30.4788  -28.7570   26.1878 C   0  0  0  0  0  0  0  0  0  0  0  0
  -30.1971  -30.1471   23.2705 C   0  0  0  0  0  0  0  0  0  0  0  0
  -30.2873  -29.8031   19.8764 C   0  0  0  0  0  0  0  0  0  0  0  0
  -30.7248  -14.7718   20.6577 C   0  0  0  0  0  0  0  0  0  0  0  0
  -29.8763  -31.8330   30.2168 C   0  0  0  0  0  0  0  0  0  0  0  0
  -32.6159  -28.0209   25.0711 C   0  0  0  0  0  0  0  0  0  0  0  0
  -30.2682  -27.6256   23.3169 C   0  0  0  0  0  0  0  0  0  0  0  0
  -29.2973  -31.7550   28.8065 C   0  0  0  0  0  0  0  0  0  0  0  0
  -29.6141  -12.3570   18.2886 C   0  0  0  0  0  0  0  0  0  0  0  0
  -28.8251  -30.3371   28.5010 C   0  0  0  0  0  0  0  0  0  0  0  0
  -28.1745  -12.0641   18.7172 C   0  0  0  0  0  0  0  0  0  0  0  0
  -30.5282  -12.5866   19.4909 C   0  0  0  0  0  0  0  0  0  0  0  0
  -28.6198  -13.3093   20.8709 C   0  0  0  0  0  0  0  0  0  0  0  0
  -29.9916  -29.3432   28.5563 C   0  0  1  0  0  0  0  0  0  0  0  0
  -31.4454  -28.9993   25.0632 C   0  0  1  0  0  0  0  0  0  0  0  0
  -27.6478  -13.1352   19.6924 C   0  0  2  0  0  0  0  0  0  0  0  0
  -34.0634  -17.5632   23.6663 C   0  0  0  0  0  0  0  0  0  0  0  0
  -29.8701  -19.0691   26.3557 C   0  0  0  0  0  0  0  0  0  0  0  0
  -29.9797  -31.1083   17.7552 C   0  0  0  0  0  0  0  0  0  0  0  0
  -27.1723  -30.0681   23.6635 C   0  0  0  0  0  0  0  0  0  0  0  0
  -26.9125  -30.4766   21.2071 C   0  0  0  0  0  0  0  0  0  0  0  0
  -28.0366  -32.1804   22.6410 C   0  0  0  0  0  0  0  0  0  0  0  0
  -33.0714  -29.2845   19.0166 C   0  0  0  0  0  0  0  0  0  0  0  0
  -29.6299  -21.0893   23.1444 C   0  0  0  0  0  0  0  0  0  0  0  0
  -29.8980  -22.5707   22.9663 C   0  0  0  0  0  0  0  0  0  1  0  0
  -29.6754  -19.2697   24.8549 C   0  0  1  0  0  0  0  0  0  0  0  0
  -29.2364  -30.0185   22.1132 C   0  0  1  0  0  0  0  0  0  0  0  0
  -30.9737  -30.6229   18.7987 C   0  0  2  0  0  0  0  0  0  0  0  0
  -27.8544  -30.6636   22.4157 C   0  0  0  0  0  0  0  0  0  0  0  0
  -25.8617  -11.5423   20.2870 N   0  0  0  0  0  0  0  0  0  0  0  0
  -31.8457  -18.3669   24.2104 N   0  0  0  0  0  0  0  0  0  0  0  0
  -26.2376  -12.8262   20.1589 N   0  0  0  0  0  0  0  0  0  0  0  0
  -30.6746  -28.9485   23.8193 N   0  0  0  0  0  0  0  0  0  0  0  0
  -29.9678  -13.6169   20.3679 N   0  0  0  0  0  0  0  0  0  0  0  0
  -25.4690  -15.0530   20.4065 N   0  0  0  0  0  0  0  0  0  0  0  0
  -21.8854  -12.5755   21.5966 N   0  0  0  0  0  0  0  0  0  0  0  0
  -30.0761  -15.6962   21.4757 N   0  0  0  0  0  0  0  0  0  0  0  0
  -30.7895  -29.4329   27.3523 N   0  0  0  0  0  0  0  0  0  0  0  0
  -29.9176  -30.5818   20.9526 N   0  0  0  0  0  0  0  0  0  0  0  0
  -32.0152  -29.8074   18.1122 N   0  3  0  0  0  0  0  0  0  0  0  0
  -29.9528  -20.6970   24.5394 N   0  3  0  0  0  0  0  0  0  0  0  0
  -22.6594  -14.7160   21.3172 O   0  0  0  0  0  0  0  0  0  0  0  0
  -29.5211  -28.0131   26.0116 O   0  0  0  0  0  0  0  0  0  0  0  0
  -30.5179  -31.2699   23.6683 O   0  0  0  0  0  0  0  0  0  0  0  0
  -30.0948  -28.5937   19.7721 O   0  0  0  0  0  0  0  0  0  0  0  0
  -31.8541  -14.9415   20.1908 O   0  0  0  0  0  0  0  0  0  0  0  0
  -21.6171   -7.0121   21.7044 O   0  0  0  0  0  0  0  0  0  0  0  0
  -31.2777  -22.8394   23.2130 O   0  0  0  0  0  0  0  0  0  1  0  0
  -18.6232   -6.8508   26.3321 F   0  0  0  0  0  0  0  0  0  0  0  0
  -22.0679   -5.0688   23.6184 F   0  0  0  0  0  0  0  0  0  0  0  0
  1  2  1  0  0  0  0
  1  5  2  0  0  0  0
  2  6  2  0  0  0  0
  3  8  2  0  0  0  0
  3 17  1  0  0  0  0
  4  9  1  0  0  0  0
  4 17  2  0  0  0  0
  5 19  1  0  0  0  0
  6 21  1  0  0  0  0
  7 10  2  0  0  0  0
  7 20  1  0  0  0  0
  8 24  1  0  0  0  0
  9 24  2  0  0  0  0
 10 25  1  0  0  0  0
 11 12  2  0  0  0  0
 11 26  1  0  0  0  0
 12 27  1  0  0  0  0
 13 22  1  0  0  0  0
 13 25  2  0  0  0  0
 14 23  1  0  0  0  0
 14 30  2  0  0  0  0
 15 23  2  0  0  0  0
 15 31  1  0  0  0  0
 16 27  2  0  0  0  0
 16 28  1  0  0  0  0
 17 29  1  0  0  0  0
 18 29  1  0  0  0  0
 18 32  2  0  0  0  0
 18 33  1  0  0  0  0
 19 21  2  0  0  0  0
 19 38  1  0  0  0  0
 20 22  2  0  0  0  0
 20 39  1  0  0  0  0
 21 47  1  0  0  0  0
 22 40  1  0  0  0  0
 23 70  1  0  0  0  0
 24 80  1  0  0  0  0
 25 81  1  0  0  0  0
 26 28  2  0  0  0  0
 26 80  1  0  0  0  0
 27 82  1  0  0  0  0
 28 83  1  0  0  0  0
 29 63  2  0  0  0  0
 30 50  1  0  0  0  0
 30 64  1  0  0  0  0
 31 59  1  0  0  0  0
 31 64  2  0  0  0  0
 32 65  1  0  0  0  0
 32 68  1  0  0  0  0
 33 69  1  0  0  0  0
 33 75  2  0  0  0  0
 34 48  1  0  0  0  0
 34 71  1  0  0  0  0
 34 76  2  0  0  0  0
 35 60  1  0  0  0  0
 35 66  1  0  0  0  0
 35 77  2  0  0  0  0
 36 61  1  0  0  0  0
 36 72  1  0  0  0  0
 36 78  2  0  0  0  0
 37 67  1  0  0  0  0
 37 70  1  0  0  0  0
 37 79  2  0  0  0  0
 38 41  1  0  0  0  0
 39 48  1  0  0  0  0
 40 66  1  0  0  0  0
 41 43  1  0  0  0  0
 42 44  1  0  0  0  0
 42 45  1  0  0  0  0
 43 47  1  0  0  0  0
 44 49  1  0  0  0  0
 45 67  1  0  0  0  0
 46 49  1  0  0  0  0
 46 67  1  0  0  0  0
 47 71  1  0  0  0  0
 48 66  1  0  0  0  0
 49 65  1  0  0  0  0
 51 59  1  0  0  0  0
 52 61  1  0  0  0  0
 53 62  1  0  0  0  0
 54 62  1  0  0  0  0
 55 62  1  0  0  0  0
 56 73  1  0  0  0  0
 57 58  1  0  0  0  0
 57 74  1  0  0  0  0
 58 81  1  0  0  0  0
 59 74  1  0  0  0  0
 60 62  1  0  0  0  0
 60 72  1  0  0  0  0
 61 73  1  0  0  0  0
 63 65  1  0  0  0  0
M  CHG  2  73   1  74   1
M  ISO  4  37 100  58 101  70 100  81 101
M  END
> <Batch ID>
0125

> <Smiles>
CNC(C)C(=O)NC(C(=O)N1Cc2cc([101O:1][101CH2:1]CNC(C)c3cc([100NH:0][100C:0](=O)N4CCCC(n5nc(-c6ccc(Oc7ccc(F)cc7F)cc6)c(C(N)=O)c5N)C4)cc(C)n3)ccc2CC1C(=O)NC1CCCc2ccccc21)C(C)(C)C

> <Shape>
0.197

> <Color>
0.188

> <Negative vol penalty>
0.000

$$$$

  -OEChem-04052320353D

 80 88  0     1  0  0  0  0  0999 V2000
  -26.3357  -28.4925   27.9835 C   0  0  0  0  0  0  0  0  0  0  0  0
  -27.0635  -27.4678   27.3872 C   0  0  0  0  0  0  0  0  0  0  0  0
  -23.0017   -9.8911   19.9832 C   0  0  0  0  0  0  0  0  0  0  0  0
  -23.7257   -9.9478   22.2875 C   0  0  0  0  0  0  0  0  0  0  0  0
  -25.2891  -29.0980   27.2893 C   0  0  0  0  0  0  0  0  0  0  0  0
  -26.7445  -27.0473   26.0965 C   0  0  0  0  0  0  0  0  0  0  0  0
  -30.8426  -26.4248   23.1874 C   0  0  0  0  0  0  0  0  0  0  0  0
  -22.2358   -8.7567   20.2518 C   0  0  0  0  0  0  0  0  0  0  0  0
  -22.9598   -8.8134   22.5561 C   0  0  0  0  0  0  0  0  0  0  0  0
  -31.5859  -25.2603   23.3753 C   0  0  0  0  0  0  0  0  0  0  0  0
  -23.2065   -5.4736   22.0919 C   0  0  0  0  0  0  0  0  0  0  0  0
  -23.7943   -4.4585   22.8465 C   0  0  0  0  0  0  0  0  0  0  0  0
  -30.5224  -24.2774   21.4461 C   0  0  0  0  0  0  0  0  0  0  0  0
  -29.7588  -17.7020   22.6611 C   0  0  0  0  0  0  0  0  0  0  0  0
  -22.0694   -4.7041   24.5204 C   0  0  0  0  0  0  0  0  0  0  0  0
  -32.2651  -18.4664   21.8998 C   0  0  0  0  0  0  0  0  0  0  0  0
  -23.7468  -10.4866   21.0011 C   0  0  0  0  0  0  0  0  0  0  0  0
  -24.1305  -13.0020   20.8195 C   0  0  0  0  0  0  0  0  0  0  0  0
  -24.9633  -28.6913   25.9858 C   0  0  0  0  0  0  0  0  0  0  0  0
  -29.9241  -26.5204   22.1321 C   0  0  0  0  0  0  0  0  0  0  0  0
  -25.6917  -27.6471   25.3847 C   0  0  0  0  0  0  0  0  0  0  0  0
  -29.7706  -25.4451   21.2454 C   0  0  0  0  0  0  0  0  0  0  0  0
  -30.2473  -18.9390   23.0667 C   0  0  0  0  0  0  0  0  0  0  0  0
  -31.5234  -19.3360   22.6831 C   0  0  0  0  0  0  0  0  0  0  0  0
  -22.2148   -8.2179   21.5382 C   0  0  0  0  0  0  0  0  0  0  0  0
  -31.4238  -24.1853   22.5063 C   0  0  0  0  0  0  0  0  0  0  0  0
  -22.0501   -6.1040   22.5514 C   0  0  0  0  0  0  0  0  0  0  0  0
  -23.2258   -4.0737   24.0608 C   0  0  0  0  0  0  0  0  0  0  0  0
  -21.4816   -5.7192   23.7657 C   0  0  0  0  0  0  0  0  0  0  0  0
  -24.5386  -11.6581   20.7242 C   0  0  0  0  0  0  0  0  0  0  0  0
  -30.5794  -16.9056   21.8786 C   0  0  0  0  0  0  0  0  0  0  0  0
  -25.2400  -13.7245   20.4541 C   0  0  0  0  0  0  0  0  0  0  0  0
  -22.8620  -13.5485   21.2042 C   0  0  0  0  0  0  0  0  0  0  0  0
  -26.7793  -26.9342   21.9261 C   0  0  0  0  0  0  0  0  0  0  0  0
  -27.4038  -27.1156   18.7481 C   0  0  0  0  0  0  0  0  0  0  0  0
  -29.4770  -26.3303   16.1535 C   0  0  0  0  0  0  0  0  0  0  0  0
  -30.7188  -14.6896   20.6885 C   0  0  0  0  0  0  0  0  0  0  0  0
  -23.7932  -29.3436   25.2930 C   0  0  0  0  0  0  0  0  0  0  0  0
  -29.1495  -27.7934   21.9272 C   0  0  0  0  0  0  0  0  0  0  0  0
  -28.8124  -25.5049   20.0849 C   0  0  0  0  0  0  0  0  0  0  0  0
  -23.7607  -29.0942   23.7873 C   0  0  0  0  0  0  0  0  0  0  0  0
  -29.6032  -12.2308   18.3676 C   0  0  0  0  0  0  0  0  0  0  0  0
  -24.0076  -27.6196   23.4850 C   0  0  0  0  0  0  0  0  0  0  0  0
  -28.1526  -11.9731   18.7817 C   0  0  0  0  0  0  0  0  0  0  0  0
  -30.5030  -12.4775   19.5773 C   0  0  0  0  0  0  0  0  0  0  0  0
  -28.5864  -13.2682   20.9081 C   0  0  0  0  0  0  0  0  0  0  0  0
  -25.3919  -27.1799   23.9768 C   0  0  1  0  0  0  0  0  0  0  0  0
  -27.8680  -27.5903   21.1248 C   0  0  1  0  0  0  0  0  0  0  0  0
  -27.6295  -13.0785   19.7198 C   0  0  2  0  0  0  0  0  0  0  0  0
  -29.3880  -19.8216   23.9098 C   0  0  0  0  0  0  0  0  0  0  0  0
  -29.7034  -26.5826   13.6670 C   0  0  0  0  0  0  0  0  0  0  0  0
  -25.3051  -24.9389   18.3387 C   0  0  0  0  0  0  0  0  0  0  0  0
  -26.2361  -24.5702   16.0440 C   0  0  0  0  0  0  0  0  0  0  0  0
  -25.2441  -26.7786   16.6457 C   0  0  0  0  0  0  0  0  0  0  0  0
  -32.0022  -27.8505   16.4209 C   0  0  0  0  0  0  0  0  0  0  0  0
  -32.1031  -20.6673   23.0950 C   0  0  0  0  0  0  0  0  0  0  0  0
  -31.5476  -21.8222   22.2688 C   0  0  0  0  0  0  0  0  0  1  0  0
  -27.4841  -26.1203   17.6158 C   0  0  1  0  0  0  0  0  0  0  0  0
  -30.0437  -27.1742   15.0260 C   0  0  2  0  0  0  0  0  0  0  0  0
  -26.0841  -25.5998   17.1840 C   0  0  0  0  0  0  0  0  0  0  0  0
  -31.8245  -17.2571   21.4863 N   0  0  0  0  0  0  0  0  0  0  0  0
  -25.8082  -11.5315   20.3289 N   0  0  0  0  0  0  0  0  0  0  0  0
  -26.2074  -12.8052   20.1726 N   0  0  0  0  0  0  0  0  0  0  0  0
  -28.0732  -26.7687   19.9302 N   0  0  0  0  0  0  0  0  0  0  0  0
  -29.9468  -13.5400   20.4179 N   0  0  0  0  0  0  0  0  0  0  0  0
  -25.4727  -15.0501   20.3491 N   0  0  0  0  0  0  0  0  0  0  0  0
  -21.8306  -12.6645   21.5492 N   0  0  0  0  0  0  0  0  0  0  0  0
  -30.0735  -15.6462   21.4716 N   0  0  0  0  0  0  0  0  0  0  0  0
  -26.4197  -27.6315   23.0636 N   0  0  0  0  0  0  0  0  0  0  0  0
  -28.2333  -26.7753   16.5490 N   0  0  0  0  0  0  0  0  0  0  0  0
  -31.5268  -27.2642   15.1413 N   0  3  0  0  0  0  0  0  0  0  0  0
  -22.6445  -14.7837   21.2251 O   0  0  0  0  0  0  0  0  0  0  0  0
  -26.2999  -25.8745   21.5401 O   0  0  0  0  0  0  0  0  0  0  0  0
  -26.7765  -28.1654   18.5871 O   0  0  0  0  0  0  0  0  0  0  0  0
  -30.0760  -25.3701   16.6327 O   0  0  0  0  0  0  0  0  0  0  0  0
  -31.8575  -14.8283   20.2347 O   0  0  0  0  0  0  0  0  0  0  0  0
  -21.4673   -7.1111   21.8006 O   0  0  0  0  0  0  0  0  0  0  0  0
  -32.1475  -23.0473   22.6878 O   0  0  0  0  0  0  0  0  0  1  0  0
  -23.7895   -3.0978   24.7847 F   0  0  0  0  0  0  0  0  0  0  0  0
  -20.3701   -6.3204   24.2118 F   0  0  0  0  0  0  0  0  0  0  0  0
  1  2  1  0  0  0  0
  1  5  2  0  0  0  0
  2  6  2  0  0  0  0
  3  8  2  0  0  0  0
  3 17  1  0  0  0  0
  4  9  1  0  0  0  0
  4 17  2  0  0  0  0
  5 19  1  0  0  0  0
  6 21  1  0  0  0  0
  7 10  2  0  0  0  0
  7 20  1  0  0  0  0
  8 25  1  0  0  0  0
  9 25  2  0  0  0  0
 10 26  1  0  0  0  0
 11 12  2  0  0  0  0
 11 27  1  0  0  0  0
 12 28  1  0  0  0  0
 13 22  1  0  0  0  0
 13 26  2  0  0  0  0
 14 23  1  0  0  0  0
 14 31  2  0  0  0  0
 15 28  2  0  0  0  0
 15 29  1  0  0  0  0
 16 24  1  0  0  0  0
 16 61  2  0  0  0  0
 17 30  1  0  0  0  0
 18 30  1  0  0  0  0
 18 32  2  0  0  0  0
 18 33  1  0  0  0  0
 19 21  2  0  0  0  0
 19 38  1  0  0  0  0
 20 22  2  0  0  0  0
 20 39  1  0  0  0  0
 21 47  1  0  0  0  0
 22 40  1  0  0  0  0
 23 24  2  0  0  0  0
 23 50  1  0  0  0  0
 24 56  1  0  0  0  0
 25 77  1  0  0  0  0
 26 78  1  0  0  0  0
 27 29  2  0  0  0  0
 27 77  1  0  0  0  0
 28 79  1  0  0  0  0
 29 80  1  0  0  0  0
 30 62  2  0  0  0  0
 31 61  1  0  0  0  0
 31 68  1  0  0  0  0
 32 63  1  0  0  0  0
 32 66  1  0  0  0  0
 33 67  1  0  0  0  0
 33 72  2  0  0  0  0
 34 48  1  0  0  0  0
 34 69  1  0  0  0  0
 34 73  2  0  0  0  0
 35 58  1  0  0  0  0
 35 64  1  0  0  0  0
 35 74  2  0  0  0  0
 36 59  1  0  0  0  0
 36 70  1  0  0  0  0
 36 75  2  0  0  0  0
 37 65  1  0  0  0  0
 37 68  1  0  0  0  0
 37 76  2  0  0  0  0
 38 41  1  0  0  0  0
 39 48  1  0  0  0  0
 40 64  1  0  0  0  0
 41 43  1  0  0  0  0
 42 44  1  0  0  0  0
 42 45  1  0  0  0  0
 43 47  1  0  0  0  0
 44 49  1  0  0  0  0
 45 65  1  0  0  0  0
 46 49  1  0  0  0  0
 46 65  1  0  0  0  0
 47 69  1  0  0  0  0
 48 64  1  0  0  0  0
 49 63  1  0  0  0  0
 51 59  1  0  0  0  0
 52 60  1  0  0  0  0
 53 60  1  0  0  0  0
 54 60  1  0  0  0  0
 55 71  1  0  0  0  0
 56 57  1  0  0  0  0
 57 78  1  0  0  0  0
 58 60  1  0  0  0  0
 58 70  1  0  0  0  0
 59 71  1  0  0  0  0
 62 63  1  0  0  0  0
M  CHG  1  71   1
M  ISO  4  37 100  57 101  68 100  78 101
M  END
> <Batch ID>
0125

> <Smiles>
CNC(C)C(=O)NC(C(=O)N1Cc2cc([101O:1][101CH2:1]Cc3cnc([100NH:0][100C:0](=O)N4CCCC(n5nc(-c6ccc(Oc7ccc(F)cc7F)cc6)c(C(N)=O)c5N)C4)cc3C)ccc2CC1C(=O)NC1CCCc2ccccc21)C(C)(C)C

> <Shape>
0.239

> <Color>
0.202

> <Negative vol penalty>
0.000

$$$$

  -OEChem-04052320352D

  0  0  0     0  0  0  0  0  0999 V2000
M  END
$$$$

  -OEChem-04052320353D

 85 94  0     1  0  0  0  0  0999 V2000
  -23.2070  -29.4208   24.3177 C   0  0  0  0  0  0  0  0  0  0  0  0
  -23.6381  -28.1184   24.0867 C   0  0  0  0  0  0  0  0  0  0  0  0
  -22.7562  -22.3228   23.6874 C   0  0  0  0  0  0  0  0  0  0  0  0
  -21.8003  -21.4466   21.6489 C   0  0  0  0  0  0  0  0  0  0  0  0
  -23.5183  -30.4289   23.4063 C   0  0  0  0  0  0  0  0  0  0  0  0
  -24.3799  -27.8232   22.9434 C   0  0  0  0  0  0  0  0  0  0  0  0
  -28.8880  -23.7085   22.4406 C   0  0  0  0  0  0  0  0  0  0  0  0
  -28.1154  -18.1340   19.4350 C   0  0  0  0  0  0  0  0  0  0  0  0
  -30.1358  -17.6698   20.6757 C   0  0  0  0  0  0  0  0  0  0  0  0
  -28.2291  -16.9029   18.7892 C   0  0  0  0  0  0  0  0  0  0  0  0
  -30.2495  -16.4387   20.0300 C   0  0  0  0  0  0  0  0  0  0  0  0
  -22.5170  -23.6224   23.2410 C   0  0  0  0  0  0  0  0  0  0  0  0
  -21.5611  -22.7463   21.2024 C   0  0  0  0  0  0  0  0  0  0  0  0
  -28.9148  -22.4009   21.9578 C   0  0  0  0  0  0  0  0  0  0  0  0
  -19.2879  -25.1867   21.7476 C   0  0  0  0  0  0  0  0  0  0  0  0
  -18.0424  -25.4566   21.1806 C   0  0  0  0  0  0  0  0  0  0  0  0
  -29.6642  -23.2143   19.8139 C   0  0  0  0  0  0  0  0  0  0  0  0
  -19.1211  -26.0958   19.1154 C   0  0  0  0  0  0  0  0  0  0  0  0
  -22.3979  -21.2348   22.8914 C   0  0  0  0  0  0  0  0  0  0  0  0
  -21.7788  -19.0793   24.1071 C   0  0  0  0  0  0  0  0  0  0  0  0
  -24.2725  -30.1478   22.2562 C   0  0  0  0  0  0  0  0  0  0  0  0
  -29.2391  -24.7817   21.6090 C   0  0  0  0  0  0  0  0  0  0  0  0
  -24.7004  -28.8282   22.0151 C   0  0  0  0  0  0  0  0  0  0  0  0
  -29.6434  -24.5344   20.2894 C   0  0  0  0  0  0  0  0  0  0  0  0
  -29.0688  -18.5175   20.3782 C   0  0  0  0  0  0  0  0  0  0  0  0
  -29.2961  -16.0552   19.0867 C   0  0  0  0  0  0  0  0  0  0  0  0
  -21.9195  -23.8342   21.9985 C   0  0  0  0  0  0  0  0  0  0  0  0
  -29.3002  -22.1539   20.6434 C   0  0  0  0  0  0  0  0  0  0  0  0
  -20.4500  -25.3714   20.9986 C   0  0  0  0  0  0  0  0  0  0  0  0
  -17.9590  -25.9112   19.8646 C   0  0  0  0  0  0  0  0  0  0  0  0
  -20.3666  -25.8259   19.6825 C   0  0  0  0  0  0  0  0  0  0  0  0
  -22.6451  -19.8921   23.3518 C   0  0  0  0  0  0  0  0  0  0  0  0
  -22.4738  -17.9079   24.2837 C   0  0  0  0  0  0  0  0  0  0  0  0
  -20.4633  -19.3582   24.6046 C   0  0  0  0  0  0  0  0  0  0  0  0
  -27.7261  -27.3466   20.4976 C   0  0  0  0  0  0  0  0  0  0  0  0
  -30.6627  -28.0969   19.3418 C   0  0  0  0  0  0  0  0  0  0  0  0
  -33.7451  -27.0232   18.3453 C   0  0  0  0  0  0  0  0  0  0  0  0
  -26.7265  -15.3385   21.0949 C   0  0  0  0  0  0  0  0  0  0  0  0
  -24.5438  -31.2613   21.2759 C   0  0  0  0  0  0  0  0  0  0  0  0
  -29.2306  -26.1840   22.1530 C   0  0  0  0  0  0  0  0  0  0  0  0
  -30.0494  -25.6497   19.3621 C   0  0  0  0  0  0  0  0  0  0  0  0
  -25.6536  -30.9381   20.2787 C   0  0  0  0  0  0  0  0  0  0  0  0
  -28.7614  -11.2141   19.6049 C   0  0  0  0  0  0  0  0  0  0  0  0
  -26.9391  -16.2142   24.6000 C   0  0  0  0  0  0  0  0  0  0  0  0
  -25.4603  -29.5402   19.6996 C   0  0  0  0  0  0  0  0  0  0  0  0
  -29.4386  -12.2110   18.6620 C   0  0  0  0  0  0  0  0  0  0  0  0
  -25.7671  -17.1870   24.7421 C   0  0  0  0  0  0  0  0  0  0  0  0
  -28.0344  -12.0449   20.6632 C   0  0  0  0  0  0  0  0  0  0  0  0
  -27.6390  -16.3846   23.2549 C   0  0  0  0  0  0  0  0  0  0  0  0
  -25.5698  -17.2242   22.2124 C   0  0  0  0  0  0  0  0  0  0  0  0
  -25.5283  -28.4733   20.7990 C   0  0  1  0  0  0  0  0  0  0  0  0
  -29.1140  -27.2464   21.0645 C   0  0  1  0  0  0  0  0  0  0  0  0
  -29.3351  -13.5669   19.3629 C   0  0  2  0  0  0  0  0  0  0  0  0
  -24.8066  -17.0862   23.5423 C   0  0  2  0  0  0  0  0  0  0  0  0
  -27.9940  -13.4569   20.0899 C   0  0  2  0  0  0  0  0  0  0  0  0
  -30.6996  -14.6307   17.5520 C   0  0  0  0  0  0  0  0  0  0  0  0
  -35.9184  -27.8648   17.4146 C   0  0  0  0  0  0  0  0  0  0  0  0
  -29.3673  -28.3976   16.5956 C   0  0  0  0  0  0  0  0  0  0  0  0
  -31.6543  -28.2911   15.5823 C   0  0  0  0  0  0  0  0  0  0  0  0
  -31.0690  -30.1465   17.1435 C   0  0  0  0  0  0  0  0  0  0  0  0
  -35.2587  -26.0645   20.7009 C   0  0  0  0  0  0  0  0  0  0  0  0
  -28.9472  -19.8416   21.0734 C   0  0  0  0  0  0  0  0  0  1  0  0
  -29.4161  -14.7383   18.3970 C   0  0  2  0  0  0  0  0  0  0  0  0
  -31.4115  -27.8158   18.0614 C   0  0  1  0  0  0  0  0  0  0  0  0
  -35.1406  -27.5214   18.6755 C   0  0  2  0  0  0  0  0  0  0  0  0
  -30.8661  -28.6417   16.8623 C   0  0  0  0  0  0  0  0  0  0  0  0
  -23.8023  -19.2882   23.0682 N   0  0  0  0  0  0  0  0  0  0  0  0
  -23.6679  -18.0835   23.6485 N   0  0  0  0  0  0  0  0  0  0  0  0
  -30.0186  -27.0040   19.9388 N   0  0  0  0  0  0  0  0  0  0  0  0
  -26.6728  -16.2592   22.1546 N   0  0  0  0  0  0  0  0  0  0  0  0
  -22.1740  -16.7551   24.9190 N   0  0  0  0  0  0  0  0  0  0  0  0
  -19.8977  -20.6113   24.3321 N   0  0  0  0  0  0  0  0  0  0  0  0
  -26.9028  -28.2240   21.1771 N   0  0  0  0  0  0  0  0  0  0  0  0
  -32.8219  -28.0474   18.3542 N   0  0  0  0  0  0  0  0  0  0  0  0
  -27.8063  -14.4642   21.1102 N   0  0  0  0  0  0  0  0  0  0  0  0
  -35.8981  -26.4803   19.4261 N   0  3  0  0  0  0  0  0  0  0  0  0
  -19.8154  -18.5271   25.2850 O   0  0  0  0  0  0  0  0  0  0  0  0
  -27.4250  -26.6786   19.5154 O   0  0  0  0  0  0  0  0  0  0  0  0
  -30.6557  -29.2424   19.7992 O   0  0  0  0  0  0  0  0  0  0  0  0
  -33.4994  -25.8442   18.1002 O   0  0  0  0  0  0  0  0  0  0  0  0
  -25.8719  -15.2951   20.2034 O   0  0  0  0  0  0  0  0  0  0  0  0
  -21.6857  -25.1022   21.5626 O   0  0  0  0  0  0  0  0  0  0  0  0
  -29.3267  -20.8785   20.1694 O   0  0  0  0  0  0  0  0  0  1  0  0
  -16.7628  -26.1689   19.3197 F   0  0  0  0  0  0  0  0  0  0  0  0
  -21.4795  -26.0042   18.9575 F   0  0  0  0  0  0  0  0  0  0  0  0
  1  2  1  0  0  0  0
  1  5  2  0  0  0  0
  2  6  2  0  0  0  0
  3 12  2  0  0  0  0
  3 19  1  0  0  0  0
  4 13  1  0  0  0  0
  4 19  2  0  0  0  0
  5 21  1  0  0  0  0
  6 23  1  0  0  0  0
  7 14  2  0  0  0  0
  7 22  1  0  0  0  0
  8 10  2  0  0  0  0
  8 25  1  0  0  0  0
  9 11  1  0  0  0  0
  9 25  2  0  0  0  0
 10 26  1  0  0  0  0
 11 26  2  0  0  0  0
 12 27  1  0  0  0  0
 13 27  2  0  0  0  0
 14 28  1  0  0  0  0
 15 16  2  0  0  0  0
 15 29  1  0  0  0  0
 16 30  1  0  0  0  0
 17 24  1  0  0  0  0
 17 28  2  0  0  0  0
 18 30  2  0  0  0  0
 18 31  1  0  0  0  0
 19 32  1  0  0  0  0
 20 32  1  0  0  0  0
 20 33  2  0  0  0  0
 20 34  1  0  0  0  0
 21 23  2  0  0  0  0
 21 39  1  0  0  0  0
 22 24  2  0  0  0  0
 22 40  1  0  0  0  0
 23 51  1  0  0  0  0
 24 41  1  0  0  0  0
 25 62  1  0  0  0  0
 26 63  1  0  0  0  0
 27 82  1  0  0  0  0
 28 83  1  0  0  0  0
 29 31  2  0  0  0  0
 29 82  1  0  0  0  0
 30 84  1  0  0  0  0
 31 85  1  0  0  0  0
 32 67  2  0  0  0  0
 33 68  1  0  0  0  0
 33 71  1  0  0  0  0
 34 72  1  0  0  0  0
 34 77  2  0  0  0  0
 35 52  1  0  0  0  0
 35 73  1  0  0  0  0
 35 78  2  0  0  0  0
 36 64  1  0  0  0  0
 36 69  1  0  0  0  0
 36 79  2  0  0  0  0
 37 65  1  0  0  0  0
 37 74  1  0  0  0  0
 37 80  2  0  0  0  0
 38 70  1  0  0  0  0
 38 75  1  0  0  0  0
 38 81  2  0  0  0  0
 39 42  1  0  0  0  0
 40 52  1  0  0  0  0
 41 69  1  0  0  0  0
 42 45  1  0  0  0  0
 43 46  1  0  0  0  0
 43 48  1  0  0  0  0
 44 47  1  0  0  0  0
 44 49  1  0  0  0  0
 45 51  1  0  0  0  0
 46 53  1  0  0  0  0
 47 54  1  0  0  0  0
 48 55  1  0  0  0  0
 49 70  1  0  0  0  0
 50 54  1  0  0  0  0
 50 70  1  0  0  0  0
 51 73  1  0  0  0  0
 52 69  1  0  0  0  0
 53 55  1  0  0  0  0
 53 63  1  0  0  0  0
 54 68  1  0  0  0  0
 55 75  1  0  0  0  0
 56 63  1  0  0  0  0
 57 65  1  0  0  0  0
 58 66  1  0  0  0  0
 59 66  1  0  0  0  0
 60 66  1  0  0  0  0
 61 76  1  0  0  0  0
 62 83  1  0  0  0  0
 64 66  1  0  0  0  0
 64 74  1  0  0  0  0
 65 76  1  0  0  0  0
 67 68  1  0  0  0  0
M  CHG  1  76   1
M  ISO  4  38 100  62 101  75 100  83 101
M  END
> <Batch ID>
0125

> <Smiles>
CNC(C)C(=O)NC(C(=O)N1Cc2cc([101O:1][101CH2:1]c3ccc(C(C)C4CCCC4[100NH:0][100C:0](=O)N4CCCC(n5nc(-c6ccc(Oc7ccc(F)cc7F)cc6)c(C(N)=O)c5N)C4)cc3)ccc2CC1C(=O)NC1CCCc2ccccc21)C(C)(C)C

> <Shape>
0.204

> <Color>
0.068

> <Negative vol penalty>
0.000

$$$$

  -OEChem-04052320353D

 82 90  0     1  0  0  0  0  0999 V2000
  -32.1771  -21.9850   23.2470 C   0  0  0  0  0  0  0  0  0  0  0  0
  -30.8307  -22.3067   23.3850 C   0  0  0  0  0  0  0  0  0  0  0  0
  -28.1793  -28.7595   21.1330 C   0  0  0  0  0  0  0  0  0  0  0  0
  -26.9032  -27.5874   19.4493 C   0  0  0  0  0  0  0  0  0  0  0  0
  -32.5808  -21.0896   22.2575 C   0  0  0  0  0  0  0  0  0  0  0  0
  -29.8873  -21.7340   22.5327 C   0  0  0  0  0  0  0  0  0  0  0  0
  -24.1417  -20.1455   23.9366 C   0  0  0  0  0  0  0  0  0  0  0  0
  -29.2778  -27.9412   20.8701 C   0  0  0  0  0  0  0  0  0  0  0  0
  -28.0018  -26.7691   19.1864 C   0  0  0  0  0  0  0  0  0  0  0  0
  -22.9175  -20.7828   23.7394 C   0  0  0  0  0  0  0  0  0  0  0  0
  -30.9091  -26.9789   17.4764 C   0  0  0  0  0  0  0  0  0  0  0  0
  -31.2347  -26.7431   16.1408 C   0  0  0  0  0  0  0  0  0  0  0  0
  -22.5844  -19.5052   21.7205 C   0  0  0  0  0  0  0  0  0  0  0  0
  -30.9113  -24.3730   16.4804 C   0  0  0  0  0  0  0  0  0  0  0  0
  -26.9919  -28.5825   20.4227 C   0  0  0  0  0  0  0  0  0  0  0  0
  -25.5425  -30.6534   20.0783 C   0  0  0  0  0  0  0  0  0  0  0  0
  -31.6408  -20.4982   21.3989 C   0  0  0  0  0  0  0  0  0  0  0  0
  -24.6023  -19.1895   23.0198 C   0  0  0  0  0  0  0  0  0  0  0  0
  -30.2790  -20.8309   21.5298 C   0  0  0  0  0  0  0  0  0  0  0  0
  -23.8136  -18.8553   21.9097 C   0  0  0  0  0  0  0  0  0  0  0  0
  -29.1891  -26.9461   19.8968 C   0  0  0  0  0  0  0  0  0  0  0  0
  -22.1400  -20.4648   22.6297 C   0  0  0  0  0  0  0  0  0  0  0  0
  -30.5847  -25.9118   18.3141 C   0  0  0  0  0  0  0  0  0  0  0  0
  -31.2357  -25.4402   15.6427 C   0  0  0  0  0  0  0  0  0  0  0  0
  -30.5858  -24.6088   17.8161 C   0  0  0  0  0  0  0  0  0  0  0  0
  -25.8565  -29.4271   20.6943 C   0  0  0  0  0  0  0  0  0  0  0  0
  -24.3759  -31.0527   20.6832 C   0  0  0  0  0  0  0  0  0  0  0  0
  -26.2428  -31.3676   19.0510 C   0  0  0  0  0  0  0  0  0  0  0  0
  -27.1244  -18.9556   21.0995 C   0  0  0  0  0  0  0  0  0  0  0  0
  -25.9455  -15.9830   20.5557 C   0  0  0  0  0  0  0  0  0  0  0  0
  -23.2490  -13.8911   20.5549 C   0  0  0  0  0  0  0  0  0  0  0  0
  -19.9817  -28.0627   23.4403 C   0  0  0  0  0  0  0  0  0  0  0  0
  -32.1304  -19.5723   20.3137 C   0  0  0  0  0  0  0  0  0  0  0  0
  -25.9127  -18.4916   23.2611 C   0  0  0  0  0  0  0  0  0  0  0  0
  -24.2535  -17.8213   20.9068 C   0  0  0  0  0  0  0  0  0  0  0  0
  -31.0246  -18.7219   19.6939 C   0  0  0  0  0  0  0  0  0  0  0  0
  -21.9764  -30.6769   24.8054 C   0  0  0  0  0  0  0  0  0  0  0  0
  -29.8074  -19.5824   19.3701 C   0  0  0  0  0  0  0  0  0  0  0  0
  -23.1687  -30.7637   23.8510 C   0  0  0  0  0  0  0  0  0  0  0  0
  -19.3452  -25.2853   20.0226 C   0  0  0  0  0  0  0  0  0  0  0  0
  -21.5107  -29.2352   24.9971 C   0  0  0  0  0  0  0  0  0  0  0  0
  -22.4097  -28.5947   22.7936 C   0  0  0  0  0  0  0  0  0  0  0  0
  -19.5664  -23.8386   19.6267 C   0  0  0  0  0  0  0  0  0  0  0  0
  -29.2228  -20.2114   20.6405 C   0  0  1  0  0  0  0  0  0  0  0  0
  -26.5210  -17.9067   21.9902 C   0  0  1  0  0  0  0  0  0  0  0  0
  -18.7441  -25.4107   21.4323 C   0  0  1  0  0  0  0  0  0  0  0  0
  -19.6110  -24.6536   22.4777 C   0  0  2  0  0  0  0  0  0  0  0  0
  -22.8798  -30.0345   22.5250 C   0  0  2  0  0  0  0  0  0  0  0  0
  -19.8457  -23.1884   22.0380 C   0  0  2  0  0  0  0  0  0  0  0  0
  -22.5887  -11.5288   20.0247 C   0  0  0  0  0  0  0  0  0  0  0  0
  -17.8888  -23.6565   24.0241 C   0  0  0  0  0  0  0  0  0  0  0  0
  -26.0295  -16.6309   17.5753 C   0  0  0  0  0  0  0  0  0  0  0  0
  -24.5131  -14.6785   17.1791 C   0  0  0  0  0  0  0  0  0  0  0  0
  -26.7775  -14.3176   18.1614 C   0  0  0  0  0  0  0  0  0  0  0  0
  -22.4045  -13.3783   23.3446 C   0  0  0  0  0  0  0  0  0  0  0  0
  -18.5677  -26.8955   21.7678 C   0  0  0  0  0  0  0  0  0  0  0  0
  -20.8170  -22.4183   22.9292 C   0  0  0  0  0  0  0  0  0  1  0  0
  -24.9700  -15.3832   19.5720 C   0  0  1  0  0  0  0  0  0  0  0  0
  -23.0619  -12.4887   21.1052 C   0  0  2  0  0  0  0  0  0  0  0  0
  -18.9728  -24.7053   23.8731 C   0  0  1  0  0  0  0  0  0  0  0  0
  -25.5649  -15.2735   18.1396 C   0  0  0  0  0  0  0  0  0  0  0  0
  -24.9617  -29.0709   21.6197 N   0  0  0  0  0  0  0  0  0  0  0  0
  -24.0740  -30.0795   21.5897 N   0  0  0  0  0  0  0  0  0  0  0  0
  -25.5452  -17.1712   21.1832 N   0  0  0  0  0  0  0  0  0  0  0  0
  -21.2523  -28.6012   23.7020 N   0  0  0  0  0  0  0  0  0  0  0  0
  -23.5892  -32.1380   20.5229 N   0  0  0  0  0  0  0  0  0  0  0  0
  -27.4253  -30.8151   18.5404 N   0  0  0  0  0  0  0  0  0  0  0  0
  -28.4487  -19.2356   21.3775 N   0  0  0  0  0  0  0  0  0  0  0  0
  -24.5466  -14.1089   20.1423 N   0  0  0  0  0  0  0  0  0  0  0  0
  -19.8194  -27.4859   22.1866 N   0  0  0  0  0  0  0  0  0  0  0  0
  -20.4263  -23.1850   20.6504 N   0  3  0  0  0  0  0  0  0  0  0  0
  -22.0549  -12.4934   22.2037 N   0  3  0  0  0  0  0  0  0  0  0  0
  -25.8407  -32.4713   18.6108 O   0  0  0  0  0  0  0  0  0  0  0  0
  -26.4397  -19.4716   20.2240 O   0  0  0  0  0  0  0  0  0  0  0  0
  -27.0198  -15.4142   20.7652 O   0  0  0  0  0  0  0  0  0  0  0  0
  -22.3346  -14.7100   20.4934 O   0  0  0  0  0  0  0  0  0  0  0  0
  -19.0585  -28.0983   24.2610 O   0  0  0  0  0  0  0  0  0  0  0  0
  -19.9860  -24.4921   24.8445 O   0  0  0  0  0  0  0  0  0  0  0  0
  -30.2610  -26.1476   19.6397 O   0  0  0  0  0  0  0  0  0  0  0  0
  -20.9450  -21.0859   22.4345 O   0  0  0  0  0  0  0  0  0  1  0  0
  -31.5469  -25.2140   14.3597 F   0  0  0  0  0  0  0  0  0  0  0  0
  -30.2739  -23.5797   18.6157 F   0  0  0  0  0  0  0  0  0  0  0  0
  1  2  1  0  0  0  0
  1  5  2  0  0  0  0
  2  6  2  0  0  0  0
  3  8  2  0  0  0  0
  3 15  1  0  0  0  0
  4  9  1  0  0  0  0
  4 15  2  0  0  0  0
  5 17  1  0  0  0  0
  6 19  1  0  0  0  0
  7 10  2  0  0  0  0
  7 18  1  0  0  0  0
  8 21  1  0  0  0  0
  9 21  2  0  0  0  0
 10 22  1  0  0  0  0
 11 12  2  0  0  0  0
 11 23  1  0  0  0  0
 12 24  1  0  0  0  0
 13 20  1  0  0  0  0
 13 22  2  0  0  0  0
 14 24  2  0  0  0  0
 14 25  1  0  0  0  0
 15 26  1  0  0  0  0
 16 26  1  0  0  0  0
 16 27  2  0  0  0  0
 16 28  1  0  0  0  0
 17 19  2  0  0  0  0
 17 33  1  0  0  0  0
 18 20  2  0  0  0  0
 18 34  1  0  0  0  0
 19 44  1  0  0  0  0
 20 35  1  0  0  0  0
 21 79  1  0  0  0  0
 22 80  1  0  0  0  0
 23 25  2  0  0  0  0
 23 79  1  0  0  0  0
 24 81  1  0  0  0  0
 25 82  1  0  0  0  0
 26 62  2  0  0  0  0
 27 63  1  0  0  0  0
 27 66  1  0  0  0  0
 28 67  1  0  0  0  0
 28 73  2  0  0  0  0
 29 45  1  0  0  0  0
 29 68  1  0  0  0  0
 29 74  2  0  0  0  0
 30 58  1  0  0  0  0
 30 64  1  0  0  0  0
 30 75  2  0  0  0  0
 31 59  1  0  0  0  0
 31 69  1  0  0  0  0
 31 76  2  0  0  0  0
 32 65  1  0  0  0  0
 32 70  1  0  0  0  0
 32 77  2  0  0  0  0
 33 36  1  0  0  0  0
 34 45  1  0  0  0  0
 35 64  1  0  0  0  0
 36 38  1  0  0  0  0
 37 39  1  0  0  0  0
 37 41  1  0  0  0  0
 38 44  1  0  0  0  0
 39 48  1  0  0  0  0
 40 43  1  0  0  0  0
 40 46  1  0  0  0  0
 41 65  1  0  0  0  0
 42 48  1  0  0  0  0
 42 65  1  0  0  0  0
 43 71  1  0  0  0  0
 44 68  1  0  0  0  0
 45 64  1  0  0  0  0
 46 47  1  0  0  0  0
 46 56  1  0  0  0  0
 47 49  1  0  0  0  0
 47 60  1  0  0  0  0
 48 63  1  0  0  0  0
 49 57  1  0  0  0  0
 49 71  1  0  0  0  0
 50 59  1  0  0  0  0
 51 60  1  0  0  0  0
 52 61  1  0  0  0  0
 53 61  1  0  0  0  0
 54 61  1  0  0  0  0
 55 72  1  0  0  0  0
 56 70  1  0  0  0  0
 57 80  1  0  0  0  0
 58 61  1  0  0  0  0
 58 69  1  0  0  0  0
 59 72  1  0  0  0  0
 60 78  1  0  0  0  0
 62 63  1  0  0  0  0
M  CHG  2  71   1  72   1
M  ISO  4  32 100  57 101  70 100  80 101
M  END
> <Batch ID>
0125

> <Smiles>
CNC(C)C(=O)NC(C(=O)N1Cc2cc([101O:1][101CH2:1]C3NCCC(C[100NH:0][100C:0](=O)N4CCCC(n5nc(-c6ccc(Oc7ccc(F)cc7F)cc6)c(C(N)=O)c5N)C4)C3C(C)O)ccc2CC1C(=O)NC1CCCc2ccccc21)C(C)(C)C

> <Shape>
0.223

> <Color>
0.062

> <Negative vol penalty>
0.000

$$$$

  -OEChem-04052320353D

 83 91  0     1  0  0  0  0  0999 V2000
  -33.5882  -31.1484   16.8816 C   0  0  0  0  0  0  0  0  0  0  0  0
  -32.9714  -29.9181   17.0852 C   0  0  0  0  0  0  0  0  0  0  0  0
  -22.7963  -10.5605   21.2878 C   0  0  0  0  0  0  0  0  0  0  0  0
  -24.5733   -8.9618   21.6394 C   0  0  0  0  0  0  0  0  0  0  0  0
  -33.4849  -32.1472   17.8489 C   0  0  0  0  0  0  0  0  0  0  0  0
  -32.2519  -29.6855   18.2568 C   0  0  0  0  0  0  0  0  0  0  0  0
  -27.1885  -26.2930   18.8554 C   0  0  0  0  0  0  0  0  0  0  0  0
  -21.8640   -9.5230   21.2826 C   0  0  0  0  0  0  0  0  0  0  0  0
  -23.6410   -7.9243   21.6342 C   0  0  0  0  0  0  0  0  0  0  0  0
  -26.9826  -24.9832   19.2866 C   0  0  0  0  0  0  0  0  0  0  0  0
  -21.4012   -6.5798   23.7781 C   0  0  0  0  0  0  0  0  0  0  0  0
  -21.5145   -5.6037   24.7680 C   0  0  0  0  0  0  0  0  0  0  0  0
  -26.4796  -25.7977   21.5009 C   0  0  0  0  0  0  0  0  0  0  0  0
  -21.8030   -3.9122   23.0672 C   0  0  0  0  0  0  0  0  0  0  0  0
  -24.1510  -10.2799   21.4661 C   0  0  0  0  0  0  0  0  0  0  0  0
  -25.1633  -12.4467   22.3536 C   0  0  0  0  0  0  0  0  0  0  0  0
  -32.7557  -31.9301   19.0286 C   0  0  0  0  0  0  0  0  0  0  0  0
  -27.0520  -27.3659   19.7480 C   0  0  0  0  0  0  0  0  0  0  0  0
  -32.1400  -30.6819   19.2414 C   0  0  0  0  0  0  0  0  0  0  0  0
  -26.6819  -27.1203   21.0779 C   0  0  0  0  0  0  0  0  0  0  0  0
  -22.2863   -8.2050   21.4558 C   0  0  0  0  0  0  0  0  0  0  0  0
  -26.6309  -24.7352   20.6102 C   0  0  0  0  0  0  0  0  0  0  0  0
  -21.4887   -6.2221   22.4327 C   0  0  0  0  0  0  0  0  0  0  0  0
  -21.7154   -4.2699   24.4126 C   0  0  0  0  0  0  0  0  0  0  0  0
  -21.6896   -4.8883   22.0773 C   0  0  0  0  0  0  0  0  0  0  0  0
  -25.1147  -11.3511   21.4711 C   0  0  0  0  0  0  0  0  0  0  0  0
  -26.2563  -13.1701   21.9430 C   0  0  0  0  0  0  0  0  0  0  0  0
  -24.2978  -12.7808   23.4468 C   0  0  0  0  0  0  0  0  0  0  0  0
  -29.0014  -29.6113   20.8712 C   0  0  0  0  0  0  0  0  0  0  0  0
  -26.2807  -30.7471   22.2239 C   0  0  0  0  0  0  0  0  0  0  0  0
  -23.1234  -30.1130   23.3535 C   0  0  0  0  0  0  0  0  0  0  0  0
  -31.5682  -13.4240   20.2506 C   0  0  0  0  0  0  0  0  0  0  0  0
  -32.7118  -33.0235   20.0665 C   0  0  0  0  0  0  0  0  0  0  0  0
  -27.2515  -28.7749   19.2606 C   0  0  0  0  0  0  0  0  0  0  0  0
  -26.5028  -28.2386   22.0707 C   0  0  0  0  0  0  0  0  0  0  0  0
  -31.6175  -32.8268   21.1125 C   0  0  0  0  0  0  0  0  0  0  0  0
  -29.0945  -12.7672   17.7755 C   0  0  0  0  0  0  0  0  0  0  0  0
  -31.6195  -31.3895   21.6234 C   0  0  0  0  0  0  0  0  0  0  0  0
  -28.8702  -19.9938   21.8168 C   0  0  0  0  0  0  0  0  0  0  0  0
  -27.8833  -19.9024   24.1394 C   0  0  0  0  0  0  0  0  0  0  0  0
  -28.3925  -21.4375   21.6707 C   0  0  0  0  0  0  0  0  0  0  0  0
  -27.4056  -21.3460   23.9932 C   0  0  0  0  0  0  0  0  0  0  0  0
  -27.8451  -12.4247   18.5889 C   0  0  0  0  0  0  0  0  0  0  0  0
  -30.3633  -12.2378   18.4402 C   0  0  0  0  0  0  0  0  0  0  0  0
  -29.2934  -12.3039   20.6593 C   0  0  0  0  0  0  0  0  0  0  0  0
  -31.3299  -30.4001   20.4882 C   0  0  1  0  0  0  0  0  0  0  0  0
  -27.5878  -29.7530   20.3820 C   0  0  1  0  0  0  0  0  0  0  0  0
  -29.1266  -19.6273   23.2840 C   0  0  0  0  0  0  0  0  0  0  0  0
  -27.1492  -21.7124   22.5259 C   0  0  0  0  0  0  0  0  0  0  0  0
  -27.9939  -12.8655   20.0575 C   0  0  2  0  0  0  0  0  0  0  0  0
  -21.1584  -31.2325   24.4412 C   0  0  0  0  0  0  0  0  0  0  0  0
  -27.7455  -30.7123   24.9004 C   0  0  0  0  0  0  0  0  0  0  0  0
  -25.5246  -30.9096   26.0392 C   0  0  0  0  0  0  0  0  0  0  0  0
  -26.3119  -32.7263   24.5218 C   0  0  0  0  0  0  0  0  0  0  0  0
  -21.3606  -29.5131   21.0531 C   0  0  0  0  0  0  0  0  0  0  0  0
  -29.5545  -18.1662   23.4083 C   0  0  0  0  0  0  0  0  0  0  0  0
  -26.7212  -23.1735   22.4015 C   0  0  0  0  0  0  0  0  0  1  0  0
  -32.6455  -14.5866   22.1603 C   0  0  0  0  0  0  0  0  0  0  0  0
  -30.8514  -17.9153   22.6611 C   0  0  0  0  0  0  0  0  0  0  0  0
  -32.4268  -16.0825   22.0306 C   0  0  0  0  0  0  0  0  0  0  0  0
  -25.5635  -30.5230   23.5332 C   0  0  1  0  0  0  0  0  0  0  0  0
  -21.8077  -30.8350   23.1247 C   0  0  2  0  0  0  0  0  0  0  0  0
  -26.2915  -31.1964   24.7307 C   0  0  0  0  0  0  0  0  0  0  0  0
  -26.0984  -11.3724   20.5679 N   0  0  0  0  0  0  0  0  0  0  0  0
  -26.7755  -12.4904   20.8807 N   0  0  0  0  0  0  0  0  0  0  0  0
  -26.7151  -29.5983   21.5476 N   0  0  0  0  0  0  0  0  0  0  0  0
  -30.4448  -12.6931   19.8301 N   0  0  0  0  0  0  0  0  0  0  0  0
  -26.8142  -14.3150   22.3906 N   0  0  0  0  0  0  0  0  0  0  0  0
  -24.6108  -12.2885   24.7212 N   0  0  0  0  0  0  0  0  0  0  0  0
  -29.9159  -30.3835   20.1806 N   0  0  0  0  0  0  0  0  0  0  0  0
  -24.1935  -30.9823   23.3320 N   0  0  0  0  0  0  0  0  0  0  0  0
  -31.5628  -13.8226   21.5817 N   0  0  0  0  0  0  0  0  0  0  0  0
  -20.8598  -29.9602   22.3784 N   0  3  0  0  0  0  0  0  0  0  0  0
  -31.1978  -16.4780   22.7719 N   0  3  0  0  0  0  0  0  0  0  0  0
  -23.2682  -13.4810   23.2950 O   0  0  0  0  0  0  0  0  0  0  0  0
  -29.2443  -28.8582   21.8070 O   0  0  0  0  0  0  0  0  0  0  0  0
  -26.4431  -31.8987   21.8128 O   0  0  0  0  0  0  0  0  0  0  0  0
  -23.1943  -28.8998   23.5369 O   0  0  0  0  0  0  0  0  0  0  0  0
  -32.5041  -13.7053   19.4944 O   0  0  0  0  0  0  0  0  0  0  0  0
  -21.3768   -7.1924   21.4510 O   0  0  0  0  0  0  0  0  0  0  0  0
  -26.4299  -23.4577   21.0338 O   0  0  0  0  0  0  0  0  0  1  0  0
  -21.8258   -3.3330   25.3635 F   0  0  0  0  0  0  0  0  0  0  0  0
  -21.7757   -4.5387   20.7864 F   0  0  0  0  0  0  0  0  0  0  0  0
  1  2  1  0  0  0  0
  1  5  2  0  0  0  0
  2  6  2  0  0  0  0
  3  8  2  0  0  0  0
  3 15  1  0  0  0  0
  4  9  1  0  0  0  0
  4 15  2  0  0  0  0
  5 17  1  0  0  0  0
  6 19  1  0  0  0  0
  7 10  2  0  0  0  0
  7 18  1  0  0  0  0
  8 21  1  0  0  0  0
  9 21  2  0  0  0  0
 10 22  1  0  0  0  0
 11 12  2  0  0  0  0
 11 23  1  0  0  0  0
 12 24  1  0  0  0  0
 13 20  1  0  0  0  0
 13 22  2  0  0  0  0
 14 24  2  0  0  0  0
 14 25  1  0  0  0  0
 15 26  1  0  0  0  0
 16 26  1  0  0  0  0
 16 27  2  0  0  0  0
 16 28  1  0  0  0  0
 17 19  2  0  0  0  0
 17 33  1  0  0  0  0
 18 20  2  0  0  0  0
 18 34  1  0  0  0  0
 19 46  1  0  0  0  0
 20 35  1  0  0  0  0
 21 80  1  0  0  0  0
 22 81  1  0  0  0  0
 23 25  2  0  0  0  0
 23 80  1  0  0  0  0
 24 82  1  0  0  0  0
 25 83  1  0  0  0  0
 26 64  2  0  0  0  0
 27 65  1  0  0  0  0
 27 68  1  0  0  0  0
 28 69  1  0  0  0  0
 28 75  2  0  0  0  0
 29 47  1  0  0  0  0
 29 70  1  0  0  0  0
 29 76  2  0  0  0  0
 30 61  1  0  0  0  0
 30 66  1  0  0  0  0
 30 77  2  0  0  0  0
 31 62  1  0  0  0  0
 31 71  1  0  0  0  0
 31 78  2  0  0  0  0
 32 67  1  0  0  0  0
 32 72  1  0  0  0  0
 32 79  2  0  0  0  0
 33 36  1  0  0  0  0
 34 47  1  0  0  0  0
 35 66  1  0  0  0  0
 36 38  1  0  0  0  0
 37 43  1  0  0  0  0
 37 44  1  0  0  0  0
 38 46  1  0  0  0  0
 39 41  1  0  0  0  0
 39 48  1  0  0  0  0
 40 42  1  0  0  0  0
 40 48  1  0  0  0  0
 41 49  1  0  0  0  0
 42 49  1  0  0  0  0
 43 50  1  0  0  0  0
 44 67  1  0  0  0  0
 45 50  1  0  0  0  0
 45 67  1  0  0  0  0
 46 70  1  0  0  0  0
 47 66  1  0  0  0  0
 48 56  1  0  0  0  0
 49 57  1  0  0  0  0
 50 65  1  0  0  0  0
 51 62  1  0  0  0  0
 52 63  1  0  0  0  0
 53 63  1  0  0  0  0
 54 63  1  0  0  0  0
 55 73  1  0  0  0  0
 56 59  1  0  0  0  0
 57 81  1  0  0  0  0
 58 60  1  0  0  0  0
 58 72  1  0  0  0  0
 59 74  1  0  0  0  0
 60 74  1  0  0  0  0
 61 63  1  0  0  0  0
 61 71  1  0  0  0  0
 62 73  1  0  0  0  0
 64 65  1  0  0  0  0
M  CHG  2  73   1  74   1
M  ISO  4  32 100  57 101  72 100  81 101
M  END
> <Batch ID>
0125

> <Smiles>
CNC(C)C(=O)NC(C(=O)N1Cc2cc([101O:1][101CH2:1]C3CCC(CCNCC[100NH:0][100C:0](=O)N4CCCC(n5nc(-c6ccc(Oc7ccc(F)cc7F)cc6)c(C(N)=O)c5N)C4)CC3)ccc2CC1C(=O)NC1CCCc2ccccc21)C(C)(C)C

> <Shape>
0.291

> <Color>
0.154

> <Negative vol penalty>
0.000

$$$$

  -OEChem-04052320353D

 89 98  0     1  0  0  0  0  0999 V2000
  -41.4290  -25.5193   10.9087 C   0  0  0  0  0  0  0  0  0  0  0  0
  -40.6460  -24.6831   11.6980 C   0  0  0  0  0  0  0  0  0  0  0  0
  -22.6709  -10.1818   20.1917 C   0  0  0  0  0  0  0  0  0  0  0  0
  -24.3082   -9.4541   21.8125 C   0  0  0  0  0  0  0  0  0  0  0  0
  -41.0548  -26.8490   10.7195 C   0  0  0  0  0  0  0  0  0  0  0  0
  -39.4887  -25.1765   12.2995 C   0  0  0  0  0  0  0  0  0  0  0  0
  -35.5598  -22.0150   11.8375 C   0  0  0  0  0  0  0  0  0  0  0  0
  -21.9386   -9.0144   20.4072 C   0  0  0  0  0  0  0  0  0  0  0  0
  -23.5758   -8.2867   22.0281 C   0  0  0  0  0  0  0  0  0  0  0  0
  -35.5253  -20.9133   12.6913 C   0  0  0  0  0  0  0  0  0  0  0  0
  -20.8126   -7.3620   23.7398 C   0  0  0  0  0  0  0  0  0  0  0  0
  -20.6146   -6.9574   25.0599 C   0  0  0  0  0  0  0  0  0  0  0  0
  -33.9533  -22.0694   14.1096 C   0  0  0  0  0  0  0  0  0  0  0  0
  -21.7517   -4.8775   24.5931 C   0  0  0  0  0  0  0  0  0  0  0  0
  -23.8557  -10.4016   20.8943 C   0  0  0  0  0  0  0  0  0  0  0  0
  -24.1793  -12.9319   20.8685 C   0  0  0  0  0  0  0  0  0  0  0  0
  -39.8873  -27.3563   11.3111 C   0  0  0  0  0  0  0  0  0  0  0  0
  -34.7985  -23.1583   12.1196 C   0  0  0  0  0  0  0  0  0  0  0  0
  -39.0993  -26.5146   12.1191 C   0  0  0  0  0  0  0  0  0  0  0  0
  -33.9780  -23.1833   13.2564 C   0  0  0  0  0  0  0  0  0  0  0  0
  -22.3911   -8.0668   21.3254 C   0  0  0  0  0  0  0  0  0  0  0  0
  -34.7241  -20.9415   13.8291 C   0  0  0  0  0  0  0  0  0  0  0  0
  -21.4801   -6.5243   22.8463 C   0  0  0  0  0  0  0  0  0  0  0  0
  -21.0842   -5.7152   25.4866 C   0  0  0  0  0  0  0  0  0  0  0  0
  -21.9497   -5.2821   23.2729 C   0  0  0  0  0  0  0  0  0  0  0  0
  -24.6129  -11.6071   20.6717 C   0  0  0  0  0  0  0  0  0  0  0  0
  -25.2607  -13.7028   20.5180 C   0  0  0  0  0  0  0  0  0  0  0  0
  -22.9124  -13.4219   21.3272 C   0  0  0  0  0  0  0  0  0  0  0  0
  -35.4684  -26.2049   12.7304 C   0  0  0  0  0  0  0  0  0  0  0  0
  -32.2430  -26.5315   12.6181 C   0  0  0  0  0  0  0  0  0  0  0  0
  -28.8508  -26.1614   12.6679 C   0  0  0  0  0  0  0  0  0  0  0  0
  -30.7401  -14.7524   20.6606 C   0  0  0  0  0  0  0  0  0  0  0  0
  -39.5488  -28.8131   11.1163 C   0  0  0  0  0  0  0  0  0  0  0  0
  -34.8263  -24.3280   11.1744 C   0  0  0  0  0  0  0  0  0  0  0  0
  -33.1260  -24.3787   13.5934 C   0  0  0  0  0  0  0  0  0  0  0  0
  -38.1077  -29.1580   11.4833 C   0  0  0  0  0  0  0  0  0  0  0  0
  -29.5801  -12.4554   18.1999 C   0  0  0  0  0  0  0  0  0  0  0  0
  -37.7353  -28.5361   12.8255 C   0  0  0  0  0  0  0  0  0  0  0  0
  -28.1516  -12.1348   18.6433 C   0  0  0  0  0  0  0  0  0  0  0  0
  -31.2338  -17.5158   16.6046 C   0  0  0  0  0  0  0  0  0  0  0  0
  -35.2174  -20.7878   20.0791 C   0  0  0  0  0  0  0  0  0  0  0  0
  -30.5147  -12.6354   19.3941 C   0  0  0  0  0  0  0  0  0  0  0  0
  -29.7449  -17.5332   16.2593 C   0  0  0  0  0  0  0  0  0  0  0  0
  -28.6306  -13.2980   20.8379 C   0  0  0  0  0  0  0  0  0  0  0  0
  -29.2021  -18.7612   18.2706 C   0  0  0  0  0  0  0  0  0  0  0  0
  -36.1621  -20.2571   21.1381 C   0  0  0  0  0  0  0  0  0  0  0  0
  -34.3290  -18.6894   20.7627 C   0  0  0  0  0  0  0  0  0  0  0  0
  -37.8237  -27.0062   12.7681 C   0  0  1  0  0  0  0  0  0  0  0  0
  -34.4051  -25.6382   11.8326 C   0  0  1  0  0  0  0  0  0  0  0  0
  -31.6145  -18.7065   17.4973 C   0  0  1  0  0  0  0  0  0  0  0  0
  -27.6390  -13.1629   19.6697 C   0  0  2  0  0  0  0  0  0  0  0  0
  -34.5880  -19.5221   19.5201 C   0  0  1  0  0  0  0  0  0  0  0  0
  -30.6693  -18.8165   18.7081 C   0  0  2  0  0  0  0  0  0  0  0  0
  -26.7317  -27.4638   13.0008 C   0  0  0  0  0  0  0  0  0  0  0  0
  -32.7476  -26.5787   15.6270 C   0  0  0  0  0  0  0  0  0  0  0  0
  -30.2992  -26.9810   15.9609 C   0  0  0  0  0  0  0  0  0  0  0  0
  -31.6768  -28.6471   14.7163 C   0  0  0  0  0  0  0  0  0  0  0  0
  -27.8935  -25.5238    9.9410 C   0  0  0  0  0  0  0  0  0  0  0  0
  -33.9747  -18.6798   16.6232 C   0  0  0  0  0  0  0  0  0  0  0  0
  -30.8117  -16.8531   21.9801 C   0  0  0  0  0  0  0  0  0  0  0  0
  -30.5071  -18.0309   21.0733 C   0  0  0  0  0  0  0  0  0  0  0  0
  -33.8463  -19.9650   15.8119 C   0  0  0  0  0  0  0  0  0  1  0  0
  -31.1229  -26.4344   13.6256 C   0  0  1  0  0  0  0  0  0  0  0  0
  -27.7419  -26.9452   11.9892 C   0  0  2  0  0  0  0  0  0  0  0  0
  -33.0934  -18.6504   17.8805 C   0  0  1  0  0  0  0  0  0  0  0  0
  -31.4707  -27.1375   14.9680 C   0  0  0  0  0  0  0  0  0  0  0  0
  -25.8716  -11.5367   20.2302 N   0  0  0  0  0  0  0  0  0  0  0  0
  -26.2381  -12.8270   20.1467 N   0  0  0  0  0  0  0  0  0  0  0  0
  -28.9094  -17.5777   17.4591 N   0  0  0  0  0  0  0  0  0  0  0  0
  -33.1924  -25.5000   12.6416 N   0  0  0  0  0  0  0  0  0  0  0  0
  -29.9717  -13.6244   20.3284 N   0  0  0  0  0  0  0  0  0  0  0  0
  -25.4613  -15.0375   20.4942 N   0  0  0  0  0  0  0  0  0  0  0  0
  -21.9118  -12.4930   21.6442 N   0  0  0  0  0  0  0  0  0  0  0  0
  -36.6674  -26.4582   12.0919 N   0  0  0  0  0  0  0  0  0  0  0  0
  -29.9334  -26.9617   12.9656 N   0  0  0  0  0  0  0  0  0  0  0  0
  -30.1484  -15.6431   21.5479 N   0  0  0  0  0  0  0  0  0  0  0  0
  -33.3936  -19.7744   18.7674 N   0  0  0  0  0  0  0  0  0  0  0  0
  -35.4570  -19.0503   21.6872 N   0  3  0  0  0  0  0  0  0  0  0  0
  -30.9121  -17.7110   19.6814 N   0  3  0  0  0  0  0  0  0  0  0  0
  -27.0242  -26.0833   11.0079 N   0  3  0  0  0  0  0  0  0  0  0  0
  -22.6691  -14.6476   21.4366 O   0  0  0  0  0  0  0  0  0  0  0  0
  -35.2189  -26.3994   13.9143 O   0  0  0  0  0  0  0  0  0  0  0  0
  -32.2705  -27.4836   11.8343 O   0  0  0  0  0  0  0  0  0  0  0  0
  -28.7636  -24.9602   12.9130 O   0  0  0  0  0  0  0  0  0  0  0  0
  -31.8675  -14.9535   20.1966 O   0  0  0  0  0  0  0  0  0  0  0  0
  -21.6766   -6.9276   21.5362 O   0  0  0  0  0  0  0  0  0  0  0  0
  -34.6890  -19.8679   14.6644 O   0  0  0  0  0  0  0  0  0  1  0  0
  -20.8953   -5.3275   26.7547 F   0  0  0  0  0  0  0  0  0  0  0  0
  -22.5928   -4.4734   22.4195 F   0  0  0  0  0  0  0  0  0  0  0  0
  1  2  1  0  0  0  0
  1  5  2  0  0  0  0
  2  6  2  0  0  0  0
  3  8  2  0  0  0  0
  3 15  1  0  0  0  0
  4  9  1  0  0  0  0
  4 15  2  0  0  0  0
  5 17  1  0  0  0  0
  6 19  1  0  0  0  0
  7 10  2  0  0  0  0
  7 18  1  0  0  0  0
  8 21  1  0  0  0  0
  9 21  2  0  0  0  0
 10 22  1  0  0  0  0
 11 12  2  0  0  0  0
 11 23  1  0  0  0  0
 12 24  1  0  0  0  0
 13 20  1  0  0  0  0
 13 22  2  0  0  0  0
 14 24  2  0  0  0  0
 14 25  1  0  0  0  0
 15 26  1  0  0  0  0
 16 26  1  0  0  0  0
 16 27  2  0  0  0  0
 16 28  1  0  0  0  0
 17 19  2  0  0  0  0
 17 33  1  0  0  0  0
 18 20  2  0  0  0  0
 18 34  1  0  0  0  0
 19 48  1  0  0  0  0
 20 35  1  0  0  0  0
 21 86  1  0  0  0  0
 22 87  1  0  0  0  0
 23 25  2  0  0  0  0
 23 86  1  0  0  0  0
 24 88  1  0  0  0  0
 25 89  1  0  0  0  0
 26 67  2  0  0  0  0
 27 68  1  0  0  0  0
 27 72  1  0  0  0  0
 28 73  1  0  0  0  0
 28 81  2  0  0  0  0
 29 49  1  0  0  0  0
 29 74  1  0  0  0  0
 29 82  2  0  0  0  0
 30 63  1  0  0  0  0
 30 70  1  0  0  0  0
 30 83  2  0  0  0  0
 31 64  1  0  0  0  0
 31 75  1  0  0  0  0
 31 84  2  0  0  0  0
 32 71  1  0  0  0  0
 32 76  1  0  0  0  0
 32 85  2  0  0  0  0
 33 36  1  0  0  0  0
 34 49  1  0  0  0  0
 35 70  1  0  0  0  0
 36 38  1  0  0  0  0
 37 39  1  0  0  0  0
 37 42  1  0  0  0  0
 38 48  1  0  0  0  0
 39 51  1  0  0  0  0
 40 43  1  0  0  0  0
 40 50  1  0  0  0  0
 41 46  1  0  0  0  0
 41 52  1  0  0  0  0
 42 71  1  0  0  0  0
 43 69  1  0  0  0  0
 44 51  1  0  0  0  0
 44 71  1  0  0  0  0
 45 53  1  0  0  0  0
 45 69  1  0  0  0  0
 46 78  1  0  0  0  0
 47 52  1  0  0  0  0
 47 78  1  0  0  0  0
 48 74  1  0  0  0  0
 49 70  1  0  0  0  0
 50 53  1  0  0  0  0
 50 65  1  0  0  0  0
 51 68  1  0  0  0  0
 52 77  1  0  0  0  0
 53 79  1  0  0  0  0
 54 64  1  0  0  0  0
 55 66  1  0  0  0  0
 56 66  1  0  0  0  0
 57 66  1  0  0  0  0
 58 80  1  0  0  0  0
 59 62  1  0  0  0  0
 59 65  1  0  0  0  0
 60 61  1  0  0  0  0
 60 76  1  0  0  0  0
 61 79  1  0  0  0  0
 62 87  1  0  0  0  0
 63 66  1  0  0  0  0
 63 75  1  0  0  0  0
 64 80  1  0  0  0  0
 65 77  1  0  0  0  0
 67 68  1  0  0  0  0
M  CHG  3  78   1  79   1  80   1
M  ISO  4  32 100  62 101  76 100  87 101
M  END
> <Batch ID>
0125

> <Smiles>
CNC(C)C(=O)NC(C(=O)N1Cc2cc([101O:1][101CH2:1]CC(NC3CCNC3)C3CCNCC3NCC[100NH:0][100C:0](=O)N3CCCC(n4nc(-c5ccc(Oc6ccc(F)cc6F)cc5)c(C(N)=O)c4N)C3)ccc2CC1C(=O)NC1CCCc2ccccc21)C(C)(C)C

> <Shape>
0.197

> <Color>
0.171

> <Negative vol penalty>
0.000

$$$$

  -OEChem-04052320353D

 82 90  0     1  0  0  0  0  0999 V2000
  -33.9222  -31.5312   18.8806 C   0  0  0  0  0  0  0  0  0  0  0  0
  -33.6837  -30.1641   18.7830 C   0  0  0  0  0  0  0  0  0  0  0  0
  -23.0391   -9.8616   19.9564 C   0  0  0  0  0  0  0  0  0  0  0  0
  -23.7832   -9.8920   22.2548 C   0  0  0  0  0  0  0  0  0  0  0  0
  -33.8038  -32.1722   20.1131 C   0  0  0  0  0  0  0  0  0  0  0  0
  -33.3277  -29.4369   19.9183 C   0  0  0  0  0  0  0  0  0  0  0  0
  -29.4863  -26.2510   19.0589 C   0  0  0  0  0  0  0  0  0  0  0  0
  -22.2996   -8.7067   20.2110 C   0  0  0  0  0  0  0  0  0  0  0  0
  -23.0437   -8.7370   22.5094 C   0  0  0  0  0  0  0  0  0  0  0  0
  -29.7827  -25.0599   18.3977 C   0  0  0  0  0  0  0  0  0  0  0  0
  -23.3559   -5.4120   21.9822 C   0  0  0  0  0  0  0  0  0  0  0  0
  -23.9718   -4.3961   22.7129 C   0  0  0  0  0  0  0  0  0  0  0  0
  -29.7897  -23.8958   20.5106 C   0  0  0  0  0  0  0  0  0  0  0  0
  -22.2579   -4.5750   24.4063 C   0  0  0  0  0  0  0  0  0  0  0  0
  -23.7810  -10.4543   20.9783 C   0  0  0  0  0  0  0  0  0  0  0  0
  -24.1104  -12.9801   20.8392 C   0  0  0  0  0  0  0  0  0  0  0  0
  -33.4367  -31.4543   21.2622 C   0  0  0  0  0  0  0  0  0  0  0  0
  -29.3499  -26.2756   20.4543 C   0  0  0  0  0  0  0  0  0  0  0  0
  -33.2055  -30.0686   21.1676 C   0  0  0  0  0  0  0  0  0  0  0  0
  -29.4890  -25.0880   21.1868 C   0  0  0  0  0  0  0  0  0  0  0  0
  -22.3019   -8.1444   21.4875 C   0  0  0  0  0  0  0  0  0  0  0  0
  -29.9373  -23.8826   19.1238 C   0  0  0  0  0  0  0  0  0  0  0  0
  -22.1910   -6.0096   22.4635 C   0  0  0  0  0  0  0  0  0  0  0  0
  -23.4228   -3.9776   23.9250 C   0  0  0  0  0  0  0  0  0  0  0  0
  -21.6419   -5.5910   23.6755 C   0  0  0  0  0  0  0  0  0  0  0  0
  -24.5455  -11.6470   20.7157 C   0  0  0  0  0  0  0  0  0  0  0  0
  -25.2010  -13.7323   20.4771 C   0  0  0  0  0  0  0  0  0  0  0  0
  -22.8343  -13.4927   21.2451 C   0  0  0  0  0  0  0  0  0  0  0  0
  -30.8740  -27.7346   22.8317 C   0  0  0  0  0  0  0  0  0  0  0  0
  -28.5048  -26.4370   24.6278 C   0  0  0  0  0  0  0  0  0  0  0  0
  -26.1428  -23.9995   24.9837 C   0  0  0  0  0  0  0  0  0  0  0  0
  -30.6779  -14.7820   20.6941 C   0  0  0  0  0  0  0  0  0  0  0  0
  -33.3674  -32.1819   22.5814 C   0  0  0  0  0  0  0  0  0  0  0  0
  -29.0036  -27.5635   21.1499 C   0  0  0  0  0  0  0  0  0  0  0  0
  -29.3326  -25.0572   22.6845 C   0  0  0  0  0  0  0  0  0  0  0  0
  -32.6205  -31.4085   23.6651 C   0  0  0  0  0  0  0  0  0  0  0  0
  -29.5692  -12.3714   18.3199 C   0  0  0  0  0  0  0  0  0  0  0  0
  -33.0856  -29.9561   23.7011 C   0  0  0  0  0  0  0  0  0  0  0  0
  -27.8178  -20.0901   17.2970 C   0  0  0  0  0  0  0  0  0  0  0  0
  -28.1304  -12.0738   18.7455 C   0  0  0  0  0  0  0  0  0  0  0  0
  -28.7485  -21.2976   17.2425 C   0  0  0  0  0  0  0  0  0  0  0  0
  -29.9848  -20.4504   19.2689 C   0  0  0  0  0  0  0  0  0  0  0  0
  -30.4769  -12.6072   19.5251 C   0  0  0  0  0  0  0  0  0  0  0  0
  -28.5619  -13.3398   20.8925 C   0  0  0  0  0  0  0  0  0  0  0  0
  -32.7930  -29.2500   22.3717 C   0  0  1  0  0  0  0  0  0  0  0  0
  -29.3949  -27.5701   22.6244 C   0  0  1  0  0  0  0  0  0  0  0  0
  -28.4987  -18.8693   17.9413 C   0  0  1  0  0  0  0  0  0  0  0  0
  -27.5968  -13.1502   19.7098 C   0  0  2  0  0  0  0  0  0  0  0  0
  -29.0484  -19.2440   19.3304 C   0  0  1  0  0  0  0  0  0  0  0  0
  -29.2961  -21.6513   18.6220 C   0  0  1  0  0  0  0  0  0  1  0  0
  -27.5127  -17.6992   17.9926 C   0  0  0  0  0  0  0  0  0  0  0  0
  -24.3859  -23.1764   26.5752 C   0  0  0  0  0  0  0  0  0  0  0  0
  -30.9493  -16.9767   23.4218 C   0  0  0  0  0  0  0  0  0  0  0  0
  -30.6778  -25.2385   26.4031 C   0  0  0  0  0  0  0  0  0  0  0  0
  -28.9504  -23.6988   27.3588 C   0  0  0  0  0  0  0  0  0  0  0  0
  -28.7128  -26.1659   27.6413 C   0  0  0  0  0  0  0  0  0  0  0  0
  -23.9843  -24.4289   23.0050 C   0  0  0  0  0  0  0  0  0  0  0  0
  -29.9700  -18.1629   21.3848 C   0  0  0  0  0  0  0  0  0  0  0  0
  -28.3151  -25.1347   25.3674 C   0  0  1  0  0  0  0  0  0  0  0  0
  -24.6781  -24.0660   25.3769 C   0  0  2  0  0  0  0  0  0  0  0  0
  -30.7240  -16.9432   21.9132 C   0  0  2  0  0  0  0  0  0  0  0  0
  -29.1689  -25.0601   26.6646 C   0  0  0  0  0  0  0  0  0  0  0  0
  -25.8137  -11.5544   20.3069 N   0  0  0  0  0  0  0  0  0  0  0  0
  -26.1848  -12.8388   20.1703 N   0  0  0  0  0  0  0  0  0  0  0  0
  -29.0002  -26.3432   23.3195 N   0  0  0  0  0  0  0  0  0  0  0  0
  -29.9149  -13.6402   20.3986 N   0  0  0  0  0  0  0  0  0  0  0  0
  -25.4049  -15.0642   20.3942 N   0  0  0  0  0  0  0  0  0  0  0  0
  -21.8249  -12.5810   21.5832 N   0  0  0  0  0  0  0  0  0  0  0  0
  -31.3931  -28.8933   22.2863 N   0  0  0  0  0  0  0  0  0  0  0  0
  -26.8796  -24.9961   25.5881 N   0  0  0  0  0  0  0  0  0  0  0  0
  -30.0681  -15.7147   21.5242 N   0  0  0  0  0  0  0  0  0  0  0  0
  -29.8077  -18.1004   19.9092 N   0  3  0  0  0  0  0  0  0  0  0  0
  -23.8170  -23.6253   24.2432 N   0  3  0  0  0  0  0  0  0  0  0  0
  -22.5912  -14.7224   21.2904 O   0  0  0  0  0  0  0  0  0  0  0  0
  -31.4977  -26.8748   23.4427 O   0  0  0  0  0  0  0  0  0  0  0  0
  -28.2172  -27.4979   25.1876 O   0  0  0  0  0  0  0  0  0  0  0  0
  -26.5895  -23.1465   24.2199 O   0  0  0  0  0  0  0  0  0  0  0  0
  -31.8160  -14.9596   20.2468 O   0  0  0  0  0  0  0  0  0  0  0  0
  -21.5802   -7.0175   21.7364 O   0  0  0  0  0  0  0  0  0  0  0  0
  -30.2273  -22.7187   18.4810 O   0  0  0  0  0  0  0  0  0  1  0  0
  -24.0136   -3.0009   24.6259 F   0  0  0  0  0  0  0  0  0  0  0  0
  -20.5223   -6.1605   24.1425 F   0  0  0  0  0  0  0  0  0  0  0  0
  1  2  1  0  0  0  0
  1  5  2  0  0  0  0
  2  6  2  0  0  0  0
  3  8  2  0  0  0  0
  3 15  1  0  0  0  0
  4  9  1  0  0  0  0
  4 15  2  0  0  0  0
  5 17  1  0  0  0  0
  6 19  1  0  0  0  0
  7 10  2  0  0  0  0
  7 18  1  0  0  0  0
  8 21  1  0  0  0  0
  9 21  2  0  0  0  0
 10 22  1  0  0  0  0
 11 12  2  0  0  0  0
 11 23  1  0  0  0  0
 12 24  1  0  0  0  0
 13 20  1  0  0  0  0
 13 22  2  0  0  0  0
 14 24  2  0  0  0  0
 14 25  1  0  0  0  0
 15 26  1  0  0  0  0
 16 26  1  0  0  0  0
 16 27  2  0  0  0  0
 16 28  1  0  0  0  0
 17 19  2  0  0  0  0
 17 33  1  0  0  0  0
 18 20  2  0  0  0  0
 18 34  1  0  0  0  0
 19 45  1  0  0  0  0
 20 35  1  0  0  0  0
 21 79  1  0  0  0  0
 22 80  1  0  0  0  0
 23 25  2  0  0  0  0
 23 79  1  0  0  0  0
 24 81  1  0  0  0  0
 25 82  1  0  0  0  0
 26 63  2  0  0  0  0
 27 64  1  0  0  0  0
 27 67  1  0  0  0  0
 28 68  1  0  0  0  0
 28 74  2  0  0  0  0
 29 46  1  0  0  0  0
 29 69  1  0  0  0  0
 29 75  2  0  0  0  0
 30 59  1  0  0  0  0
 30 65  1  0  0  0  0
 30 76  2  0  0  0  0
 31 60  1  0  0  0  0
 31 70  1  0  0  0  0
 31 77  2  0  0  0  0
 32 66  1  0  0  0  0
 32 71  1  0  0  0  0
 32 78  2  0  0  0  0
 33 36  1  0  0  0  0
 34 46  1  0  0  0  0
 35 65  1  0  0  0  0
 36 38  1  0  0  0  0
 37 40  1  0  0  0  0
 37 43  1  0  0  0  0
 38 45  1  0  0  0  0
 39 41  1  0  0  0  0
 39 47  1  0  0  0  0
 40 48  1  0  0  0  0
 41 50  1  0  0  0  0
 42 49  1  0  0  0  0
 42 50  1  0  0  0  0
 43 66  1  0  0  0  0
 44 48  1  0  0  0  0
 44 66  1  0  0  0  0
 45 69  1  0  0  0  0
 46 65  1  0  0  0  0
 47 49  1  0  0  0  0
 47 51  1  0  0  0  0
 48 64  1  0  0  0  0
 49 72  1  0  0  0  0
 50 80  1  0  0  0  0
 52 60  1  0  0  0  0
 53 61  1  0  0  0  0
 54 62  1  0  0  0  0
 55 62  1  0  0  0  0
 56 62  1  0  0  0  0
 57 73  1  0  0  0  0
 58 61  1  0  0  0  0
 58 72  1  0  0  0  0
 59 62  1  0  0  0  0
 59 70  1  0  0  0  0
 60 73  1  0  0  0  0
 61 71  1  0  0  0  0
 63 64  1  0  0  0  0
M  CHG  2  72   1  73   1
M  ISO  4  32 100  50 101  71 100  80 101
M  END
> <Batch ID>
0125

> <Smiles>
CNC(C)C(=O)NC(C(=O)N1Cc2cc([101O:1][101CH:1]3CCC(C)C(NCC(C)[100NH:0][100C:0](=O)N4CCCC(n5nc(-c6ccc(Oc7ccc(F)cc7F)cc6)c(C(N)=O)c5N)C4)C3)ccc2CC1C(=O)NC1CCCc2ccccc21)C(C)(C)C

> <Shape>
0.265

> <Color>
0.200

> <Negative vol penalty>
0.000

$$$$

  -OEChem-04052320353D

 85 93  0     1  0  0  0  0  0999 V2000
  -22.6249  -17.8782   24.5042 C   0  0  0  0  0  0  0  0  0  0  0  0
  -23.7053  -18.5763   23.9742 C   0  0  0  0  0  0  0  0  0  0  0  0
  -25.7877  -14.0296   21.3202 C   0  0  0  0  0  0  0  0  0  0  0  0
  -27.0597  -13.4097   19.3620 C   0  0  0  0  0  0  0  0  0  0  0  0
  -21.3235  -18.2926   24.2240 C   0  0  0  0  0  0  0  0  0  0  0  0
  -23.4849  -19.6886   23.1627 C   0  0  0  0  0  0  0  0  0  0  0  0
  -26.9231  -24.7460   22.8350 C   0  0  0  0  0  0  0  0  0  0  0  0
  -24.7909  -13.1230   20.9598 C   0  0  0  0  0  0  0  0  0  0  0  0
  -26.0630  -12.5029   19.0016 C   0  0  0  0  0  0  0  0  0  0  0  0
  -27.9130  -25.1509   21.9406 C   0  0  0  0  0  0  0  0  0  0  0  0
  -22.0793  -10.7111   20.7469 C   0  0  0  0  0  0  0  0  0  0  0  0
  -21.5572   -9.8901   21.7464 C   0  0  0  0  0  0  0  0  0  0  0  0
  -26.2695  -26.4071   20.6996 C   0  0  0  0  0  0  0  0  0  0  0  0
  -30.8333  -24.9252   17.5066 C   0  0  0  0  0  0  0  0  0  0  0  0
  -23.7547   -8.9637   22.1334 C   0  0  0  0  0  0  0  0  0  0  0  0
  -26.9221  -14.1730   20.5213 C   0  0  0  0  0  0  0  0  0  0  0  0
  -29.0764  -14.8603   21.7021 C   0  0  0  0  0  0  0  0  0  0  0  0
  -21.0872  -19.4164   23.4165 C   0  0  0  0  0  0  0  0  0  0  0  0
  -25.5946  -25.1605   22.6618 C   0  0  0  0  0  0  0  0  0  0  0  0
  -22.1791  -20.1176   22.8703 C   0  0  0  0  0  0  0  0  0  0  0  0
  -25.2650  -26.0082   21.5946 C   0  0  0  0  0  0  0  0  0  0  0  0
  -31.4804  -26.0992   17.8758 C   0  0  0  0  0  0  0  0  0  0  0  0
  -31.5805  -23.7977   17.1847 C   0  0  0  0  0  0  0  0  0  0  0  0
  -24.9285  -12.3596   19.8005 C   0  0  0  0  0  0  0  0  0  0  0  0
  -27.5857  -25.9792   20.8711 C   0  0  0  0  0  0  0  0  0  0  0  0
  -23.4392  -10.6583   20.4406 C   0  0  0  0  0  0  0  0  0  0  0  0
  -22.3949   -9.0164   22.4396 C   0  0  0  0  0  0  0  0  0  0  0  0
  -24.2768   -9.7846   21.1339 C   0  0  0  0  0  0  0  0  0  0  0  0
  -27.9519  -15.1099   20.8928 C   0  0  0  0  0  0  0  0  0  0  0  0
  -32.8656  -26.0938   17.9073 C   0  0  0  0  0  0  0  0  0  0  0  0
  -32.9612  -23.8954   17.2470 C   0  0  0  0  0  0  0  0  0  0  0  0
  -29.7384  -16.0628   21.7504 C   0  0  0  0  0  0  0  0  0  0  0  0
  -29.4861  -13.6497   22.3520 C   0  0  0  0  0  0  0  0  0  0  0  0
  -22.8335  -23.6781   22.1302 C   0  0  0  0  0  0  0  0  0  0  0  0
  -21.6082  -26.6578   22.5076 C   0  0  0  0  0  0  0  0  0  0  0  0
  -22.1056  -30.0318   22.3855 C   0  0  0  0  0  0  0  0  0  0  0  0
  -29.8837  -20.6257   18.0068 C   0  0  0  0  0  0  0  0  0  0  0  0
  -19.6622  -19.7981   23.1029 C   0  0  0  0  0  0  0  0  0  0  0  0
  -24.5435  -24.7366   23.6507 C   0  0  0  0  0  0  0  0  0  0  0  0
  -23.8575  -26.4976   21.3762 C   0  0  0  0  0  0  0  0  0  0  0  0
  -19.5196  -21.2099   22.5400 C   0  0  0  0  0  0  0  0  0  0  0  0
  -28.9597  -20.7787   21.5026 C   0  0  0  0  0  0  0  0  0  0  0  0
  -20.5567  -21.4568   21.4490 C   0  0  0  0  0  0  0  0  0  0  0  0
  -28.7032  -19.3031   21.8142 C   0  0  0  0  0  0  0  0  0  0  0  0
  -28.4843  -21.1377   20.0978 C   0  0  0  0  0  0  0  0  0  0  0  0
  -28.8132  -18.8207   19.3253 C   0  0  0  0  0  0  0  0  0  0  0  0
  -21.9810  -21.3439   22.0059 C   0  0  1  0  0  0  0  0  0  0  0  0
  -23.1287  -24.8015   23.0834 C   0  0  1  0  0  0  0  0  0  0  0  0
  -29.2924  -18.3894   20.7233 C   0  0  2  0  0  0  0  0  0  0  0  0
  -33.6152  -27.3261   18.2953 C   0  0  0  0  0  0  0  0  0  0  0  0
  -33.8516  -21.6909   18.0431 C   0  0  0  0  0  0  0  0  0  0  0  0
  -30.0269  -22.6982   15.5297 C   0  0  0  0  0  0  0  0  0  0  0  0
  -20.9069  -32.2127   22.7088 C   0  0  0  0  0  0  0  0  0  0  0  0
  -20.2270  -26.2956   19.8111 C   0  0  0  0  0  0  0  0  0  0  0  0
  -19.8547  -28.7706   19.7479 C   0  0  0  0  0  0  0  0  0  0  0  0
  -18.8245  -27.4020   21.5613 C   0  0  0  0  0  0  0  0  0  0  0  0
  -23.9192  -30.8362   24.5815 C   0  0  0  0  0  0  0  0  0  0  0  0
  -30.6759  -27.3254   18.2261 C   0  0  0  0  0  0  0  0  0  0  0  0
  -33.8139  -22.7152   16.9132 C   0  0  0  0  0  0  0  0  0  0  0  0
  -30.5954  -27.6005   19.7292 C   0  0  0  0  0  0  0  0  0  0  0  0
  -29.8765  -26.5037   20.5062 C   0  0  0  0  0  0  0  0  0  1  0  0
  -30.8933  -22.5369   16.7881 C   0  0  2  0  0  0  0  0  0  0  0  0
  -21.3180  -27.8188   21.5875 C   0  0  1  0  0  0  0  0  0  0  0  0
  -21.7581  -31.1374   23.3660 C   0  0  2  0  0  0  0  0  0  0  0  0
  -20.0823  -27.5612   20.6797 C   0  0  0  0  0  0  0  0  0  0  0  0
  -27.8991  -16.3718   20.4584 N   0  0  0  0  0  0  0  0  0  0  0  0
  -33.6254  -25.0183   17.6013 N   0  0  0  0  0  0  0  0  0  0  0  0
  -28.9987  -16.9260   20.9967 N   0  0  0  0  0  0  0  0  0  0  0  0
  -22.8640  -26.0505   22.3664 N   0  0  0  0  0  0  0  0  0  0  0  0
  -29.0961  -20.2429   19.1052 N   0  0  0  0  0  0  0  0  0  0  0  0
  -30.8751  -16.4555   22.3636 N   0  0  0  0  0  0  0  0  0  0  0  0
  -28.6903  -12.5064   22.1980 N   0  0  0  0  0  0  0  0  0  0  0  0
  -22.3341  -22.5417   22.7374 N   0  0  0  0  0  0  0  0  0  0  0  0
  -21.1973  -28.9958   22.4410 N   0  0  0  0  0  0  0  0  0  0  0  0
  -30.0985  -21.9913   17.8659 N   0  0  0  0  0  0  0  0  0  0  0  0
  -22.9995  -31.7750   23.8890 N   0  3  0  0  0  0  0  0  0  0  0  0
  -30.5183  -13.5882   23.0622 O   0  0  0  0  0  0  0  0  0  0  0  0
  -23.0420  -23.8315   20.9324 O   0  0  0  0  0  0  0  0  0  0  0  0
  -20.7548  -26.3072   23.3265 O   0  0  0  0  0  0  0  0  0  0  0  0
  -23.0827  -30.0839   21.6418 O   0  0  0  0  0  0  0  0  0  0  0  0
  -30.3650  -19.8101   17.2129 O   0  0  0  0  0  0  0  0  0  0  0  0
  -23.9562  -11.4746   19.4486 O   0  0  0  0  0  0  0  0  0  0  0  0
  -28.5499  -26.3754   19.9963 O   0  0  0  0  0  0  0  0  0  1  0  0
  -21.8936   -8.2292   23.4005 F   0  0  0  0  0  0  0  0  0  0  0  0
  -25.5843   -9.7304   20.8449 F   0  0  0  0  0  0  0  0  0  0  0  0
  1  2  1  0  0  0  0
  1  5  2  0  0  0  0
  2  6  2  0  0  0  0
  3  8  2  0  0  0  0
  3 16  1  0  0  0  0
  4  9  1  0  0  0  0
  4 16  2  0  0  0  0
  5 18  1  0  0  0  0
  6 20  1  0  0  0  0
  7 10  2  0  0  0  0
  7 19  1  0  0  0  0
  8 24  1  0  0  0  0
  9 24  2  0  0  0  0
 10 25  1  0  0  0  0
 11 12  2  0  0  0  0
 11 26  1  0  0  0  0
 12 27  1  0  0  0  0
 13 21  1  0  0  0  0
 13 25  2  0  0  0  0
 14 22  2  0  0  0  0
 14 23  1  0  0  0  0
 15 27  2  0  0  0  0
 15 28  1  0  0  0  0
 16 29  1  0  0  0  0
 17 29  1  0  0  0  0
 17 32  2  0  0  0  0
 17 33  1  0  0  0  0
 18 20  2  0  0  0  0
 18 38  1  0  0  0  0
 19 21  2  0  0  0  0
 19 39  1  0  0  0  0
 20 47  1  0  0  0  0
 21 40  1  0  0  0  0
 22 30  1  0  0  0  0
 22 58  1  0  0  0  0
 23 31  2  0  0  0  0
 23 62  1  0  0  0  0
 24 82  1  0  0  0  0
 25 83  1  0  0  0  0
 26 28  2  0  0  0  0
 26 82  1  0  0  0  0
 27 84  1  0  0  0  0
 28 85  1  0  0  0  0
 29 66  2  0  0  0  0
 30 50  1  0  0  0  0
 30 67  2  0  0  0  0
 31 59  1  0  0  0  0
 31 67  1  0  0  0  0
 32 68  1  0  0  0  0
 32 71  1  0  0  0  0
 33 72  1  0  0  0  0
 33 77  2  0  0  0  0
 34 48  1  0  0  0  0
 34 73  1  0  0  0  0
 34 78  2  0  0  0  0
 35 63  1  0  0  0  0
 35 69  1  0  0  0  0
 35 79  2  0  0  0  0
 36 64  1  0  0  0  0
 36 74  1  0  0  0  0
 36 80  2  0  0  0  0
 37 70  1  0  0  0  0
 37 75  1  0  0  0  0
 37 81  2  0  0  0  0
 38 41  1  0  0  0  0
 39 48  1  0  0  0  0
 40 69  1  0  0  0  0
 41 43  1  0  0  0  0
 42 44  1  0  0  0  0
 42 45  1  0  0  0  0
 43 47  1  0  0  0  0
 44 49  1  0  0  0  0
 45 70  1  0  0  0  0
 46 49  1  0  0  0  0
 46 70  1  0  0  0  0
 47 73  1  0  0  0  0
 48 69  1  0  0  0  0
 49 68  1  0  0  0  0
 51 59  1  0  0  0  0
 52 62  1  0  0  0  0
 53 64  1  0  0  0  0
 54 65  1  0  0  0  0
 55 65  1  0  0  0  0
 56 65  1  0  0  0  0
 57 76  1  0  0  0  0
 58 60  1  0  0  0  0
 60 61  1  0  0  0  0
 61 83  1  0  0  0  0
 62 75  1  0  0  0  0
 63 65  1  0  0  0  0
 63 74  1  0  0  0  0
 64 76  1  0  0  0  0
 66 68  1  0  0  0  0
M  CHG  1  76   1
M  ISO  4  37 100  61 101  75 100  83 101
M  END
> <Batch ID>
0125

> <Smiles>
CCc1nc(C)c(CC[101CH2:1][101O:1]c2ccc3c(c2)CN(C(=O)C(NC(=O)C(C)NC)C(C)(C)C)C(C(=O)NC2CCCc4ccccc42)C3)cc1C(C)[100NH:0][100C:0](=O)N1CCCC(n2nc(-c3ccc(Oc4ccc(F)cc4F)cc3)c(C(N)=O)c2N)C1

> <Shape>
0.239

> <Color>
0.050

> <Negative vol penalty>
0.000

$$$$

  -OEChem-04052320353D

 87 96  0     1  0  0  0  0  0999 V2000
  -34.0272  -25.3123   25.6915 C   0  0  0  0  0  0  0  0  0  0  0  0
  -33.0665  -24.7838   24.8351 C   0  0  0  0  0  0  0  0  0  0  0  0
  -23.0061  -10.0280   19.8820 C   0  0  0  0  0  0  0  0  0  0  0  0
  -23.8331   -9.8281   22.1433 C   0  0  0  0  0  0  0  0  0  0  0  0
  -33.9223  -26.6334   26.1246 C   0  0  0  0  0  0  0  0  0  0  0  0
  -31.9997  -25.5760   24.4122 C   0  0  0  0  0  0  0  0  0  0  0  0
  -31.0950  -25.1279   19.4498 C   0  0  0  0  0  0  0  0  0  0  0  0
  -22.2218   -8.8896   20.0682 C   0  0  0  0  0  0  0  0  0  0  0  0
  -23.0488   -8.6897   22.3295 C   0  0  0  0  0  0  0  0  0  0  0  0
  -30.4081  -23.9904   19.0279 C   0  0  0  0  0  0  0  0  0  0  0  0
  -19.8091   -7.9773   22.9752 C   0  0  0  0  0  0  0  0  0  0  0  0
  -19.0861   -7.8776   24.1639 C   0  0  0  0  0  0  0  0  0  0  0  0
  -28.3689  -25.2735   18.9079 C   0  0  0  0  0  0  0  0  0  0  0  0
  -28.8068  -20.6065   18.2889 C   0  0  0  0  0  0  0  0  0  0  0  0
  -20.2657   -5.8413   24.7106 C   0  0  0  0  0  0  0  0  0  0  0  0
  -28.8821  -20.6599   21.0159 C   0  0  0  0  0  0  0  0  0  0  0  0
  -23.8117  -10.4972   20.9195 C   0  0  0  0  0  0  0  0  0  0  0  0
  -24.2563  -13.0085   20.9798 C   0  0  0  0  0  0  0  0  0  0  0  0
  -32.8589  -27.4451   25.6991 C   0  0  0  0  0  0  0  0  0  0  0  0
  -30.4206  -26.3463   19.6146 C   0  0  0  0  0  0  0  0  0  0  0  0
  -31.8798  -26.9088   24.8411 C   0  0  0  0  0  0  0  0  0  0  0  0
  -29.0501  -26.4257   19.3294 C   0  0  0  0  0  0  0  0  0  0  0  0
  -29.0486  -19.4290   18.9877 C   0  0  0  0  0  0  0  0  0  0  0  0
  -29.0892  -19.4477   20.3775 C   0  0  0  0  0  0  0  0  0  0  0  0
  -22.2432   -8.2205   21.2919 C   0  0  0  0  0  0  0  0  0  0  0  0
  -29.0443  -24.0623   18.7597 C   0  0  0  0  0  0  0  0  0  0  0  0
  -20.7604   -7.0090   22.6542 C   0  0  0  0  0  0  0  0  0  0  0  0
  -19.3144   -6.8096   25.0316 C   0  0  0  0  0  0  0  0  0  0  0  0
  -20.9887   -5.9410   23.5219 C   0  0  0  0  0  0  0  0  0  0  0  0
  -24.6225  -11.6728   20.7276 C   0  0  0  0  0  0  0  0  0  0  0  0
  -28.6133  -21.7670   19.0207 C   0  0  0  0  0  0  0  0  0  1  0  0
  -25.3679  -13.7395   20.6388 C   0  0  0  0  0  0  0  0  0  0  0  0
  -23.0217  -13.5408   21.4779 C   0  0  0  0  0  0  0  0  0  0  0  0
  -29.8611  -28.2862   22.0696 C   0  0  0  0  0  0  0  0  0  0  0  0
  -28.6067  -30.1990   19.7697 C   0  0  0  0  0  0  0  0  0  0  0  0
  -27.2047  -30.4652   16.6696 C   0  0  0  0  0  0  0  0  0  0  0  0
  -30.8930  -14.5215   20.7241 C   0  0  0  0  0  0  0  0  0  0  0  0
  -32.7620  -28.8528   26.2316 C   0  0  0  0  0  0  0  0  0  0  0  0
  -31.1814  -27.5706   20.0446 C   0  0  0  0  0  0  0  0  0  0  0  0
  -28.2839  -27.7146   19.4712 C   0  0  0  0  0  0  0  0  0  0  0  0
  -31.8048  -29.7393   25.4390 C   0  0  0  0  0  0  0  0  0  0  0  0
  -29.5855  -12.3750   18.2023 C   0  0  0  0  0  0  0  0  0  0  0  0
  -30.4919  -29.0078   25.1783 C   0  0  0  0  0  0  0  0  0  0  0  0
  -25.9308  -14.2103   14.5403 C   0  0  0  0  0  0  0  0  0  0  0  0
  -27.2746  -14.6652   14.0433 C   0  0  0  0  0  0  0  0  0  0  0  0
  -28.1504  -12.1064   18.6585 C   0  0  0  0  0  0  0  0  0  0  0  0
  -30.5463  -12.4660   19.3857 C   0  0  0  0  0  0  0  0  0  0  0  0
  -28.7190  -13.1635   20.8852 C   0  0  0  0  0  0  0  0  0  0  0  0
  -30.7214  -27.7441   24.3405 C   0  0  1  0  0  0  0  0  0  0  0  0
  -30.2904  -28.6375   20.6732 C   0  0  1  0  0  0  0  0  0  0  0  0
  -26.9974  -14.6142   15.5202 C   0  0  0  0  0  0  0  0  0  0  0  0
  -27.7039  -13.1190   19.7302 C   0  0  2  0  0  0  0  0  0  0  0  0
  -26.2481  -32.1537   15.0787 C   0  0  0  0  0  0  0  0  0  0  0  0
  -26.0583  -30.3281   21.4427 C   0  0  0  0  0  0  0  0  0  0  0  0
  -24.8592  -31.1945   19.4229 C   0  0  0  0  0  0  0  0  0  0  0  0
  -26.7400  -32.5018   20.4109 C   0  0  0  0  0  0  0  0  0  0  0  0
  -29.2456  -29.8569   14.6145 C   0  0  0  0  0  0  0  0  0  0  0  0
  -29.3433  -18.2161   21.1754 C   0  0  0  0  0  0  0  0  0  0  0  0
  -29.2607  -18.1609   18.2294 C   0  0  0  0  0  0  0  0  0  0  0  0
  -26.8576  -15.9010   16.3173 C   0  0  0  0  0  0  0  0  0  0  0  0
  -30.8265  -17.8010   21.2571 C   0  0  0  0  0  0  0  0  0  0  0  0
  -31.0863  -16.5662   22.1174 C   0  0  0  0  0  0  0  0  0  0  0  0
  -28.2016  -16.3607   16.8596 C   0  0  0  0  0  0  0  0  0  0  0  0
  -27.2415  -30.3695   19.1483 C   0  0  1  0  0  0  0  0  0  0  0  0
  -27.4964  -31.3992   15.5090 C   0  0  2  0  0  0  0  0  0  0  0  0
  -26.2385  -31.0736   20.1053 C   0  0  0  0  0  0  0  0  0  0  0  0
  -28.6445  -21.8242   20.3711 N   0  0  0  0  0  0  0  0  0  0  0  0
  -25.8693  -11.5590   20.2621 N   0  0  0  0  0  0  0  0  0  0  0  0
  -26.2961  -12.8326   20.2190 N   0  0  0  0  0  0  0  0  0  0  0  0
  -29.0708  -28.8825   19.9006 N   0  0  0  0  0  0  0  0  0  0  0  0
  -30.0662  -13.4444   20.3646 N   0  0  0  0  0  0  0  0  0  0  0  0
  -25.6322  -15.0632   20.6598 N   0  0  0  0  0  0  0  0  0  0  0  0
  -21.9827  -12.6494   21.7784 N   0  0  0  0  0  0  0  0  0  0  0  0
  -30.9098  -28.0884   22.9476 N   0  0  0  0  0  0  0  0  0  0  0  0
  -27.4524  -31.0678   17.8848 N   0  0  0  0  0  0  0  0  0  0  0  0
  -30.3588  -15.4059   21.6532 N   0  0  0  0  0  0  0  0  0  0  0  0
  -28.0064  -30.6288   14.3397 N   0  3  0  0  0  0  0  0  0  0  0  0
  -28.0050  -17.5933   17.6666 N   0  3  0  0  0  0  0  0  0  0  0  0
  -22.8395  -14.7718   21.6359 O   0  0  0  0  0  0  0  0  0  0  0  0
  -28.6670  -28.2024   22.3316 O   0  0  0  0  0  0  0  0  0  0  0  0
  -29.2410  -31.1975   20.1193 O   0  0  0  0  0  0  0  0  0  0  0  0
  -26.7943  -29.3172   16.5139 O   0  0  0  0  0  0  0  0  0  0  0  0
  -32.0214  -14.6859   20.2481 O   0  0  0  0  0  0  0  0  0  0  0  0
  -21.4779   -7.1098   21.4741 O   0  0  0  0  0  0  0  0  0  0  0  0
  -28.3713  -22.9534   18.3485 O   0  0  0  0  0  0  0  0  0  1  0  0
  -18.6212   -6.7149   26.1738 F   0  0  0  0  0  0  0  0  0  0  0  0
  -21.9021   -5.0082   23.2194 F   0  0  0  0  0  0  0  0  0  0  0  0
  1  2  1  0  0  0  0
  1  5  2  0  0  0  0
  2  6  2  0  0  0  0
  3  8  2  0  0  0  0
  3 17  1  0  0  0  0
  4  9  1  0  0  0  0
  4 17  2  0  0  0  0
  5 19  1  0  0  0  0
  6 21  1  0  0  0  0
  7 10  2  0  0  0  0
  7 20  1  0  0  0  0
  8 25  1  0  0  0  0
  9 25  2  0  0  0  0
 10 26  1  0  0  0  0
 11 12  2  0  0  0  0
 11 27  1  0  0  0  0
 12 28  1  0  0  0  0
 13 22  1  0  0  0  0
 13 26  2  0  0  0  0
 14 23  2  0  0  0  0
 14 31  1  0  0  0  0
 15 28  2  0  0  0  0
 15 29  1  0  0  0  0
 16 24  2  0  0  0  0
 16 67  1  0  0  0  0
 17 30  1  0  0  0  0
 18 30  1  0  0  0  0
 18 32  2  0  0  0  0
 18 33  1  0  0  0  0
 19 21  2  0  0  0  0
 19 38  1  0  0  0  0
 20 22  2  0  0  0  0
 20 39  1  0  0  0  0
 21 49  1  0  0  0  0
 22 40  1  0  0  0  0
 23 24  1  0  0  0  0
 23 59  1  0  0  0  0
 24 58  1  0  0  0  0
 25 84  1  0  0  0  0
 26 85  1  0  0  0  0
 27 29  2  0  0  0  0
 27 84  1  0  0  0  0
 28 86  1  0  0  0  0
 29 87  1  0  0  0  0
 30 68  2  0  0  0  0
 31 67  2  0  0  0  0
 31 85  1  0  0  0  0
 32 69  1  0  0  0  0
 32 72  1  0  0  0  0
 33 73  1  0  0  0  0
 33 79  2  0  0  0  0
 34 50  1  0  0  0  0
 34 74  1  0  0  0  0
 34 80  2  0  0  0  0
 35 64  1  0  0  0  0
 35 70  1  0  0  0  0
 35 81  2  0  0  0  0
 36 65  1  0  0  0  0
 36 75  1  0  0  0  0
 36 82  2  0  0  0  0
 37 71  1  0  0  0  0
 37 76  1  0  0  0  0
 37 83  2  0  0  0  0
 38 41  1  0  0  0  0
 39 50  1  0  0  0  0
 40 70  1  0  0  0  0
 41 43  1  0  0  0  0
 42 46  1  0  0  0  0
 42 47  1  0  0  0  0
 43 49  1  0  0  0  0
 44 45  1  0  0  0  0
 44 51  1  0  0  0  0
 45 51  1  0  0  0  0
 46 52  1  0  0  0  0
 47 71  1  0  0  0  0
 48 52  1  0  0  0  0
 48 71  1  0  0  0  0
 49 74  1  0  0  0  0
 50 70  1  0  0  0  0
 51 60  1  0  0  0  0
 52 69  1  0  0  0  0
 53 65  1  0  0  0  0
 54 66  1  0  0  0  0
 55 66  1  0  0  0  0
 56 66  1  0  0  0  0
 57 77  1  0  0  0  0
 58 61  1  0  0  0  0
 59 78  1  0  0  0  0
 60 63  1  0  0  0  0
 61 62  1  0  0  0  0
 62 76  1  0  0  0  0
 63 78  1  0  0  0  0
 64 66  1  0  0  0  0
 64 75  1  0  0  0  0
 65 77  1  0  0  0  0
 68 69  1  0  0  0  0
M  CHG  2  77   1  78   1
M  ISO  4  31 101  37 100  76 100  85 101
M  END
> <Batch ID>
0125

> <Smiles>
CNC(C)C(=O)NC(C(=O)N1Cc2cc([101O:1][101c:1]3cc(CNCCC4CC4)c(CCC[100NH:0][100C:0](=O)N4CCCC(n5nc(-c6ccc(Oc7ccc(F)cc7F)cc6)c(C(N)=O)c5N)C4)cn3)ccc2CC1C(=O)NC1CCCc2ccccc21)C(C)(C)C

> <Shape>
0.303

> <Color>
0.194

> <Negative vol penalty>
0.000

$$$$

  -OEChem-04052320353D

 85 93  0     1  0  0  0  0  0999 V2000
  -22.3405  -10.8135   19.0856 C   0  0  0  0  0  0  0  0  0  0  0  0
  -21.9101  -12.1306   19.2094 C   0  0  0  0  0  0  0  0  0  0  0  0
  -29.6250  -28.7595   21.1564 C   0  0  0  0  0  0  0  0  0  0  0  0
  -28.4433  -27.8201   23.0427 C   0  0  0  0  0  0  0  0  0  0  0  0
  -23.5793  -10.4347   19.6012 C   0  0  0  0  0  0  0  0  0  0  0  0
  -22.7179  -13.0696   19.8498 C   0  0  0  0  0  0  0  0  0  0  0  0
  -23.2642  -19.0104   18.4663 C   0  0  0  0  0  0  0  0  0  0  0  0
  -30.7816  -28.8575   21.9298 C   0  0  0  0  0  0  0  0  0  0  0  0
  -29.6000  -27.9180   23.8161 C   0  0  0  0  0  0  0  0  0  0  0  0
  -22.6865  -20.1570   19.0097 C   0  0  0  0  0  0  0  0  0  0  0  0
  -32.0222  -30.9176   24.3049 C   0  0  0  0  0  0  0  0  0  0  0  0
  -32.7495  -32.1057   24.2342 C   0  0  0  0  0  0  0  0  0  0  0  0
  -24.6422  -20.4839   20.3838 C   0  0  0  0  0  0  0  0  0  0  0  0
  -34.6750  -30.8799   23.4423 C   0  0  0  0  0  0  0  0  0  0  0  0
  -28.4557  -28.2408   21.7129 C   0  0  0  0  0  0  0  0  0  0  0  0
  -26.8584  -27.0496   20.1201 C   0  0  0  0  0  0  0  0  0  0  0  0
  -24.4069  -11.3717   20.2397 C   0  0  0  0  0  0  0  0  0  0  0  0
  -24.5328  -18.5851   18.8862 C   0  0  0  0  0  0  0  0  0  0  0  0
  -23.9684  -12.7027   20.3756 C   0  0  0  0  0  0  0  0  0  0  0  0
  -25.2348  -19.3330   19.8423 C   0  0  0  0  0  0  0  0  0  0  0  0
  -30.7692  -28.4367   23.2596 C   0  0  0  0  0  0  0  0  0  0  0  0
  -23.3742  -20.8923   19.9707 C   0  0  0  0  0  0  0  0  0  0  0  0
  -32.6213  -29.7106   23.9444 C   0  0  0  0  0  0  0  0  0  0  0  0
  -34.0759  -32.0869   23.8028 C   0  0  0  0  0  0  0  0  0  0  0  0
  -33.9477  -29.6918   23.5131 C   0  0  0  0  0  0  0  0  0  0  0  0
  -27.2604  -28.1399   20.9147 C   0  0  0  0  0  0  0  0  0  0  0  0
  -25.6639  -27.4470   19.5708 C   0  0  0  0  0  0  0  0  0  0  0  0
  -27.5067  -25.7901   19.8984 C   0  0  0  0  0  0  0  0  0  0  0  0
  -25.6660  -15.9842   20.3196 C   0  0  0  0  0  0  0  0  0  0  0  0
  -28.5314  -17.3956   19.7545 C   0  0  0  0  0  0  0  0  0  0  0  0
  -30.2830  -20.2674   19.1785 C   0  0  0  0  0  0  0  0  0  0  0  0
  -21.4952  -31.3859   21.2907 C   0  0  0  0  0  0  0  0  0  0  0  0
  -25.7170  -10.9046   20.8229 C   0  0  0  0  0  0  0  0  0  0  0  0
  -25.1535  -17.3610   18.2708 C   0  0  0  0  0  0  0  0  0  0  0  0
  -26.6080  -18.9302   20.3121 C   0  0  0  0  0  0  0  0  0  0  0  0
  -26.6762  -12.0444   21.1562 C   0  0  0  0  0  0  0  0  0  0  0  0
  -23.2880  -31.3722   18.2146 C   0  0  0  0  0  0  0  0  0  0  0  0
  -25.9454  -13.1561   21.9026 C   0  0  0  0  0  0  0  0  0  0  0  0
  -24.4731  -30.4438   18.4861 C   0  0  0  0  0  0  0  0  0  0  0  0
  -22.9295  -32.2040   19.4440 C   0  0  0  0  0  0  0  0  0  0  0  0
  -23.8790  -30.4948   20.9444 C   0  0  0  0  0  0  0  0  0  0  0  0
  -17.9277  -29.3335   23.4620 C   0  0  0  0  0  0  0  0  0  0  0  0
  -24.8270  -13.7558   21.0418 C   0  0  1  0  0  0  0  0  0  0  0  0
  -26.2331  -16.7336   19.1473 C   0  0  1  0  0  0  0  0  0  0  0  0
  -24.2422  -29.5950   19.7508 C   0  0  2  0  0  0  0  0  0  0  0  0
  -17.7126  -26.9546   23.0296 C   0  0  2  0  0  0  0  0  0  0  0  0
  -19.2073  -29.4181   22.6329 C   0  0  1  0  0  0  0  0  0  0  0  0
  -18.9989  -26.9603   22.1809 C   0  0  2  0  0  0  0  0  0  0  0  0
  -16.3182  -26.1386   21.1223 C   0  0  0  0  0  0  0  0  0  0  0  0
  -32.6159  -21.1083   18.7938 C   0  0  0  0  0  0  0  0  0  0  0  0
  -29.1353  -17.0737   22.7280 C   0  0  0  0  0  0  0  0  0  0  0  0
  -30.9883  -18.7360   22.4605 C   0  0  0  0  0  0  0  0  0  0  0  0
  -31.0618  -16.5773   21.2126 C   0  0  0  0  0  0  0  0  0  0  0  0
  -29.5861  -21.3214   16.5023 C   0  0  0  0  0  0  0  0  0  0  0  0
  -16.7126  -25.9037   22.5423 C   0  0  0  0  0  0  0  0  0  0  0  0
  -19.8024  -25.6736   22.2777 C   0  0  0  0  0  0  0  0  0  0  0  0
  -20.1756  -30.4585   23.1769 C   0  0  0  0  0  0  0  0  0  0  0  0
  -21.0763  -25.7572   21.4520 C   0  0  0  0  0  0  0  0  0  0  0  0
  -23.0403  -24.3950   20.7268 C   0  0  0  0  0  0  0  0  0  0  0  0
  -23.7002  -23.0450   20.9276 C   0  0  0  0  0  0  0  0  0  1  0  0
  -29.4146  -18.3610   20.5075 C   0  0  1  0  0  0  0  0  0  0  0  0
  -31.3345  -20.6148   18.1402 C   0  0  2  0  0  0  0  0  0  0  0  0
  -30.1233  -17.6938   21.7199 C   0  0  0  0  0  0  0  0  0  0  0  0
  -26.3919  -29.1539   20.8763 N   0  0  0  0  0  0  0  0  0  0  0  0
  -25.4323  -28.7025   20.0508 N   0  0  0  0  0  0  0  0  0  0  0  0
  -17.0509  -28.2682   22.9742 N   0  0  0  0  0  0  0  0  0  0  0  0
  -27.1697  -17.7223   19.6851 N   0  0  0  0  0  0  0  0  0  0  0  0
  -22.7219  -31.3392   20.6081 N   0  0  0  0  0  0  0  0  0  0  0  0
  -24.7997  -26.8416   18.7288 N   0  0  0  0  0  0  0  0  0  0  0  0
  -28.7281  -25.5452   20.5406 N   0  0  0  0  0  0  0  0  0  0  0  0
  -25.3783  -14.6589   20.0544 N   0  0  0  0  0  0  0  0  0  0  0  0
  -30.3267  -18.9329   19.5229 N   0  0  0  0  0  0  0  0  0  0  0  0
  -21.3792  -30.5295   22.3787 N   0  0  0  0  0  0  0  0  0  0  0  0
  -19.8809  -28.0789   22.6712 N   0  3  0  0  0  0  0  0  0  0  0  0
  -30.8305  -21.6814   17.2295 N   0  3  0  0  0  0  0  0  0  0  0  0
  -21.8019  -24.4614   21.5431 N   0  3  0  0  0  0  0  0  0  0  0  0
  -27.0254  -24.9145   19.1399 O   0  0  0  0  0  0  0  0  0  0  0  0
  -25.5029  -16.5649   21.3863 O   0  0  0  0  0  0  0  0  0  0  0  0
  -29.0325  -16.3924   19.2406 O   0  0  0  0  0  0  0  0  0  0  0  0
  -29.5036  -21.0976   19.6409 O   0  0  0  0  0  0  0  0  0  0  0  0
  -20.5698  -32.1316   20.9521 O   0  0  0  0  0  0  0  0  0  0  0  0
  -31.8977  -28.5320   24.0145 O   0  0  0  0  0  0  0  0  0  0  0  0
  -22.8124  -22.0116   20.5032 O   0  0  0  0  0  0  0  0  0  1  0  0
  -34.7737  -33.2281   23.7335 F   0  0  0  0  0  0  0  0  0  0  0  0
  -34.5283  -28.5354   23.1644 F   0  0  0  0  0  0  0  0  0  0  0  0
  1  2  1  0  0  0  0
  1  5  2  0  0  0  0
  2  6  2  0  0  0  0
  3  8  2  0  0  0  0
  3 15  1  0  0  0  0
  4  9  1  0  0  0  0
  4 15  2  0  0  0  0
  5 17  1  0  0  0  0
  6 19  1  0  0  0  0
  7 10  2  0  0  0  0
  7 18  1  0  0  0  0
  8 21  1  0  0  0  0
  9 21  2  0  0  0  0
 10 22  1  0  0  0  0
 11 12  2  0  0  0  0
 11 23  1  0  0  0  0
 12 24  1  0  0  0  0
 13 20  1  0  0  0  0
 13 22  2  0  0  0  0
 14 24  2  0  0  0  0
 14 25  1  0  0  0  0
 15 26  1  0  0  0  0
 16 26  1  0  0  0  0
 16 27  2  0  0  0  0
 16 28  1  0  0  0  0
 17 19  2  0  0  0  0
 17 33  1  0  0  0  0
 18 20  2  0  0  0  0
 18 34  1  0  0  0  0
 19 43  1  0  0  0  0
 20 35  1  0  0  0  0
 21 82  1  0  0  0  0
 22 83  1  0  0  0  0
 23 25  2  0  0  0  0
 23 82  1  0  0  0  0
 24 84  1  0  0  0  0
 25 85  1  0  0  0  0
 26 64  2  0  0  0  0
 27 65  1  0  0  0  0
 27 69  1  0  0  0  0
 28 70  1  0  0  0  0
 28 77  2  0  0  0  0
 29 44  1  0  0  0  0
 29 71  1  0  0  0  0
 29 78  2  0  0  0  0
 30 61  1  0  0  0  0
 30 67  1  0  0  0  0
 30 79  2  0  0  0  0
 31 62  1  0  0  0  0
 31 72  1  0  0  0  0
 31 80  2  0  0  0  0
 32 68  1  0  0  0  0
 32 73  1  0  0  0  0
 32 81  2  0  0  0  0
 33 36  1  0  0  0  0
 34 44  1  0  0  0  0
 35 67  1  0  0  0  0
 36 38  1  0  0  0  0
 37 39  1  0  0  0  0
 37 40  1  0  0  0  0
 38 43  1  0  0  0  0
 39 45  1  0  0  0  0
 40 68  1  0  0  0  0
 41 45  1  0  0  0  0
 41 68  1  0  0  0  0
 42 47  1  0  0  0  0
 42 66  1  0  0  0  0
 43 71  1  0  0  0  0
 44 67  1  0  0  0  0
 45 65  1  0  0  0  0
 46 48  1  0  0  0  0
 46 55  1  0  0  0  0
 46 66  1  0  0  0  0
 47 57  1  0  0  0  0
 47 74  1  0  0  0  0
 48 56  1  0  0  0  0
 48 74  1  0  0  0  0
 49 55  1  0  0  0  0
 50 62  1  0  0  0  0
 51 63  1  0  0  0  0
 52 63  1  0  0  0  0
 53 63  1  0  0  0  0
 54 75  1  0  0  0  0
 56 58  1  0  0  0  0
 57 73  1  0  0  0  0
 58 76  1  0  0  0  0
 59 60  1  0  0  0  0
 59 76  1  0  0  0  0
 60 83  1  0  0  0  0
 61 63  1  0  0  0  0
 61 72  1  0  0  0  0
 62 75  1  0  0  0  0
 64 65  1  0  0  0  0
M  CHG  3  74   1  75   1  76   1
M  ISO  4  32 100  60 101  73 100  83 101
M  END
> <Batch ID>
0125

> <Smiles>
CCC1NCC(C[100NH:0][100C:0](=O)N2CCCC(n3nc(-c4ccc(Oc5ccc(F)cc5F)cc4)c(C(N)=O)c3N)C2)NC1CCNC[101CH2:1][101O:1]c1ccc2c(c1)CN(C(=O)C(NC(=O)C(C)NC)C(C)(C)C)C(C(=O)NC1CCCc3ccccc31)C2

> <Shape>
0.234

> <Color>
0.066

> <Negative vol penalty>
0.000

$$$$

  -OEChem-04052320353D

 81 89  0     1  0  0  0  0  0999 V2000
  -27.9770  -21.1789   27.5499 C   0  0  0  0  0  0  0  0  0  0  0  0
  -28.1772  -21.7753   26.3091 C   0  0  0  0  0  0  0  0  0  0  0  0
  -23.9255  -15.3042   25.7967 C   0  0  0  0  0  0  0  0  0  0  0  0
  -23.1785  -17.4674   25.0223 C   0  0  0  0  0  0  0  0  0  0  0  0
  -26.6850  -21.0419   28.0559 C   0  0  0  0  0  0  0  0  0  0  0  0
  -27.0854  -22.2341   25.5730 C   0  0  0  0  0  0  0  0  0  0  0  0
  -27.8705  -26.8277   23.5914 C   0  0  0  0  0  0  0  0  0  0  0  0
  -30.0766  -22.6302   18.4317 C   0  0  0  0  0  0  0  0  0  0  0  0
  -29.9460  -21.4133   19.1007 C   0  0  0  0  0  0  0  0  0  0  0  0
  -23.2502  -15.5021   27.0010 C   0  0  0  0  0  0  0  0  0  0  0  0
  -22.5031  -17.6653   26.2266 C   0  0  0  0  0  0  0  0  0  0  0  0
  -28.6634  -26.9005   22.4469 C   0  0  0  0  0  0  0  0  0  0  0  0
  -23.7407  -17.2015   29.8813 C   0  0  0  0  0  0  0  0  0  0  0  0
  -24.4129  -16.8809   31.0607 C   0  0  0  0  0  0  0  0  0  0  0  0
  -26.6768  -27.0599   21.0879 C   0  0  0  0  0  0  0  0  0  0  0  0
  -28.3613  -23.5876   19.8381 C   0  0  0  0  0  0  0  0  0  0  0  0
  -22.6944  -15.2715   31.6026 C   0  0  0  0  0  0  0  0  0  0  0  0
  -23.8897  -16.2869   24.8074 C   0  0  0  0  0  0  0  0  0  0  0  0
  -24.0812  -15.4892   22.3919 C   0  0  0  0  0  0  0  0  0  0  0  0
  -25.5776  -21.5080   27.3300 C   0  0  0  0  0  0  0  0  0  0  0  0
  -26.4721  -26.8597   23.4916 C   0  0  0  0  0  0  0  0  0  0  0  0
  -25.7773  -22.1020   26.0691 C   0  0  0  0  0  0  0  0  0  0  0  0
  -25.8684  -26.9901   22.2328 C   0  0  0  0  0  0  0  0  0  0  0  0
  -29.2843  -23.7175   18.8004 C   0  0  0  0  0  0  0  0  0  0  0  0
  -28.2306  -22.3707   20.5072 C   0  0  0  0  0  0  0  0  0  0  0  0
  -29.0230  -21.2835   20.1384 C   0  0  0  0  0  0  0  0  0  0  0  0
  -22.5389  -16.6826   27.2159 C   0  0  0  0  0  0  0  0  0  0  0  0
  -28.0665  -27.0137   21.1947 C   0  0  0  0  0  0  0  0  0  0  0  0
  -22.5453  -16.5571   29.5625 C   0  0  0  0  0  0  0  0  0  0  0  0
  -23.8898  -15.9159   31.9213 C   0  0  0  0  0  0  0  0  0  0  0  0
  -22.0222  -15.5921   30.4232 C   0  0  0  0  0  0  0  0  0  0  0  0
  -24.5877  -16.0833   23.5633 C   0  0  0  0  0  0  0  0  0  0  0  0
  -25.1283  -15.5339   21.5040 C   0  0  0  0  0  0  0  0  0  0  0  0
  -22.7807  -14.9457   22.1296 C   0  0  0  0  0  0  0  0  0  0  0  0
  -24.1239  -24.8502   24.2343 C   0  0  0  0  0  0  0  0  0  0  0  0
  -22.2408  -27.3526   23.3892 C   0  0  0  0  0  0  0  0  0  0  0  0
  -21.8909  -30.2445   21.6111 C   0  0  0  0  0  0  0  0  0  0  0  0
  -29.9057  -19.0875   21.0015 C   0  0  0  0  0  0  0  0  0  0  0  0
  -24.1963  -21.2951   27.8968 C   0  0  0  0  0  0  0  0  0  0  0  0
  -25.6315  -26.8071   24.7378 C   0  0  0  0  0  0  0  0  0  0  0  0
  -24.3719  -27.0491   22.0733 C   0  0  0  0  0  0  0  0  0  0  0  0
  -23.1232  -22.1456   27.2219 C   0  0  0  0  0  0  0  0  0  0  0  0
  -29.9149  -15.5448   21.3562 C   0  0  0  0  0  0  0  0  0  0  0  0
  -23.2648  -22.0785   25.7046 C   0  0  0  0  0  0  0  0  0  0  0  0
  -28.5019  -15.2262   21.8500 C   0  0  0  0  0  0  0  0  0  0  0  0
  -30.4405  -16.8522   21.9462 C   0  0  0  0  0  0  0  0  0  0  0  0
  -28.1467  -17.6947   22.2591 C   0  0  0  0  0  0  0  0  0  0  0  0
  -24.6203  -22.6346   25.2519 C   0  0  1  0  0  0  0  0  0  0  0  0
  -24.2058  -26.3307   24.4772 C   0  0  1  0  0  0  0  0  0  0  0  0
  -27.5494  -16.4199   21.6413 C   0  0  2  0  0  0  0  0  0  0  0  0
  -27.2316  -22.2594   21.6130 C   0  0  0  0  0  0  0  0  0  0  0  0
  -20.2243  -32.0463   21.0887 C   0  0  0  0  0  0  0  0  0  0  0  0
  -20.7950  -25.4593   21.4827 C   0  0  0  0  0  0  0  0  0  0  0  0
  -19.8274  -27.4639   20.3367 C   0  0  0  0  0  0  0  0  0  0  0  0
  -19.2978  -27.0234   22.7342 C   0  0  0  0  0  0  0  0  0  0  0  0
  -23.6105  -32.3402   22.7985 C   0  0  0  0  0  0  0  0  0  0  0  0
  -29.4239  -25.0322   18.0755 C   0  0  0  0  0  0  0  0  0  0  0  0
  -30.4579  -25.9724   18.6988 C   0  0  0  0  0  0  0  0  0  0  0  0
  -30.0976  -26.4142   20.1124 C   0  0  0  0  0  0  0  0  0  1  0  0
  -21.6097  -27.8293   22.1034 C   0  0  1  0  0  0  0  0  0  0  0  0
  -21.3577  -31.6104   22.0041 C   0  0  2  0  0  0  0  0  0  0  0  0
  -20.4107  -26.9409   21.6668 C   0  0  0  0  0  0  0  0  0  0  0  0
  -25.8577  -16.4764   23.4346 N   0  0  0  0  0  0  0  0  0  0  0  0
  -26.1581  -16.1285   22.1718 N   0  0  0  0  0  0  0  0  0  0  0  0
  -23.5928  -26.9877   23.3210 N   0  0  0  0  0  0  0  0  0  0  0  0
  -29.4883  -17.9388   21.7064 N   0  0  0  0  0  0  0  0  0  0  0  0
  -25.2592  -15.1220   20.2251 N   0  0  0  0  0  0  0  0  0  0  0  0
  -21.8233  -14.9805   23.1526 N   0  0  0  0  0  0  0  0  0  0  0  0
  -28.9052  -20.0390   20.8056 N   0  0  0  0  0  0  0  0  0  0  0  0
  -24.6066  -24.0816   25.2762 N   0  0  0  0  0  0  0  0  0  0  0  0
  -21.2691  -29.2325   22.3115 N   0  0  0  0  0  0  0  0  0  0  0  0
  -22.4414  -32.6307   21.9291 N   0  3  0  0  0  0  0  0  0  0  0  0
  -22.4817  -14.4292   21.0263 O   0  0  0  0  0  0  0  0  0  0  0  0
  -23.6559  -24.4359   23.1803 O   0  0  0  0  0  0  0  0  0  0  0  0
  -21.5612  -27.3125   24.4179 O   0  0  0  0  0  0  0  0  0  0  0  0
  -22.7685  -30.0903   20.7646 O   0  0  0  0  0  0  0  0  0  0  0  0
  -31.0581  -19.2056   20.5774 O   0  0  0  0  0  0  0  0  0  0  0  0
  -21.8796  -16.8760   28.3909 O   0  0  0  0  0  0  0  0  0  0  0  0
  -28.8381  -27.0842   20.0760 O   0  0  0  0  0  0  0  0  0  1  0  0
  -24.5362  -15.6070   33.0531 F   0  0  0  0  0  0  0  0  0  0  0  0
  -20.8748  -14.9688   30.1217 F   0  0  0  0  0  0  0  0  0  0  0  0
  1  2  1  0  0  0  0
  1  5  2  0  0  0  0
  2  6  2  0  0  0  0
  3 10  2  0  0  0  0
  3 18  1  0  0  0  0
  4 11  1  0  0  0  0
  4 18  2  0  0  0  0
  5 20  1  0  0  0  0
  6 22  1  0  0  0  0
  7 12  2  0  0  0  0
  7 21  1  0  0  0  0
  8  9  2  0  0  0  0
  8 24  1  0  0  0  0
  9 26  1  0  0  0  0
 10 27  1  0  0  0  0
 11 27  2  0  0  0  0
 12 28  1  0  0  0  0
 13 14  2  0  0  0  0
 13 29  1  0  0  0  0
 14 30  1  0  0  0  0
 15 23  1  0  0  0  0
 15 28  2  0  0  0  0
 16 24  2  0  0  0  0
 16 25  1  0  0  0  0
 17 30  2  0  0  0  0
 17 31  1  0  0  0  0
 18 32  1  0  0  0  0
 19 32  1  0  0  0  0
 19 33  2  0  0  0  0
 19 34  1  0  0  0  0
 20 22  2  0  0  0  0
 20 39  1  0  0  0  0
 21 23  2  0  0  0  0
 21 40  1  0  0  0  0
 22 48  1  0  0  0  0
 23 41  1  0  0  0  0
 24 57  1  0  0  0  0
 25 26  2  0  0  0  0
 25 51  1  0  0  0  0
 26 69  1  0  0  0  0
 27 78  1  0  0  0  0
 28 79  1  0  0  0  0
 29 31  2  0  0  0  0
 29 78  1  0  0  0  0
 30 80  1  0  0  0  0
 31 81  1  0  0  0  0
 32 63  2  0  0  0  0
 33 64  1  0  0  0  0
 33 67  1  0  0  0  0
 34 68  1  0  0  0  0
 34 73  2  0  0  0  0
 35 49  1  0  0  0  0
 35 70  1  0  0  0  0
 35 74  2  0  0  0  0
 36 60  1  0  0  0  0
 36 65  1  0  0  0  0
 36 75  2  0  0  0  0
 37 61  1  0  0  0  0
 37 71  1  0  0  0  0
 37 76  2  0  0  0  0
 38 66  1  0  0  0  0
 38 69  1  0  0  0  0
 38 77  2  0  0  0  0
 39 42  1  0  0  0  0
 40 49  1  0  0  0  0
 41 65  1  0  0  0  0
 42 44  1  0  0  0  0
 43 45  1  0  0  0  0
 43 46  1  0  0  0  0
 44 48  1  0  0  0  0
 45 50  1  0  0  0  0
 46 66  1  0  0  0  0
 47 50  1  0  0  0  0
 47 66  1  0  0  0  0
 48 70  1  0  0  0  0
 49 65  1  0  0  0  0
 50 64  1  0  0  0  0
 52 61  1  0  0  0  0
 53 62  1  0  0  0  0
 54 62  1  0  0  0  0
 55 62  1  0  0  0  0
 56 72  1  0  0  0  0
 57 58  1  0  0  0  0
 58 59  1  0  0  0  0
 59 79  1  0  0  0  0
 60 62  1  0  0  0  0
 60 71  1  0  0  0  0
 61 72  1  0  0  0  0
 63 64  1  0  0  0  0
M  CHG  1  72   1
M  ISO  4  38 100  59 101  69 100  79 101
M  END
> <Batch ID>
0125

> <Smiles>
CNC(C)C(=O)NC(C(=O)N1Cc2cc([101O:1][101CH2:1]CCc3ccc([100NH:0][100C:0](=O)N4CCCC(n5nc(-c6ccc(Oc7ccc(F)cc7F)cc6)c(C(N)=O)c5N)C4)c(C)c3)ccc2CC1C(=O)NC1CCCc2ccccc21)C(C)(C)C

> <Shape>
0.176

> <Color>
0.090

> <Negative vol penalty>
0.000

$$$$

  -OEChem-04052320353D

 80 88  0     1  0  0  0  0  0999 V2000
  -22.0762  -11.4347   19.2014 C   0  0  0  0  0  0  0  0  0  0  0  0
  -21.8235  -12.7712   19.4933 C   0  0  0  0  0  0  0  0  0  0  0  0
  -25.1819  -28.2756   19.0403 C   0  0  0  0  0  0  0  0  0  0  0  0
  -25.6853  -29.2419   21.1966 C   0  0  0  0  0  0  0  0  0  0  0  0
  -23.3084  -10.8713   19.5305 C   0  0  0  0  0  0  0  0  0  0  0  0
  -22.8026  -13.5449   20.1155 C   0  0  0  0  0  0  0  0  0  0  0  0
  -23.3114  -18.1126   17.9888 C   0  0  0  0  0  0  0  0  0  0  0  0
  -26.4489  -27.6931   19.0055 C   0  0  0  0  0  0  0  0  0  0  0  0
  -26.9523  -28.6594   21.1619 C   0  0  0  0  0  0  0  0  0  0  0  0
  -22.3558  -19.0752   18.3115 C   0  0  0  0  0  0  0  0  0  0  0  0
  -28.3070  -25.6126   21.7116 C   0  0  0  0  0  0  0  0  0  0  0  0
  -28.7590  -24.9784   22.8688 C   0  0  0  0  0  0  0  0  0  0  0  0
  -23.8857  -20.0528   19.8999 C   0  0  0  0  0  0  0  0  0  0  0  0
  -30.6382  -26.4938   22.9654 C   0  0  0  0  0  0  0  0  0  0  0  0
  -24.8002  -29.0501   20.1358 C   0  0  0  0  0  0  0  0  0  0  0  0
  -22.9557  -30.5764   19.2551 C   0  0  0  0  0  0  0  0  0  0  0  0
  -24.3065  -11.6411   20.1484 C   0  0  0  0  0  0  0  0  0  0  0  0
  -24.5594  -18.1063   18.6282 C   0  0  0  0  0  0  0  0  0  0  0  0
  -24.0488  -12.9910   20.4544 C   0  0  0  0  0  0  0  0  0  0  0  0
  -24.8563  -19.0906   19.5817 C   0  0  0  0  0  0  0  0  0  0  0  0
  -27.3340  -27.8850   20.0663 C   0  0  0  0  0  0  0  0  0  0  0  0
  -22.6418  -20.0437   19.2692 C   0  0  0  0  0  0  0  0  0  0  0  0
  -29.0207  -26.6874   21.1813 C   0  0  0  0  0  0  0  0  0  0  0  0
  -29.9245  -25.4189   23.4957 C   0  0  0  0  0  0  0  0  0  0  0  0
  -30.1862  -27.1280   21.8082 C   0  0  0  0  0  0  0  0  0  0  0  0
  -23.4918  -29.6525   20.1720 C   0  0  0  0  0  0  0  0  0  0  0  0
  -21.6935  -30.8380   19.7296 C   0  0  0  0  0  0  0  0  0  0  0  0
  -23.5457  -31.1472   18.0797 C   0  0  0  0  0  0  0  0  0  0  0  0
  -26.1138  -16.0549   20.4935 C   0  0  0  0  0  0  0  0  0  0  0  0
  -28.5274  -18.1990   20.1786 C   0  0  0  0  0  0  0  0  0  0  0  0
  -29.4839  -21.4102   19.5302 C   0  0  0  0  0  0  0  0  0  0  0  0
  -17.8981  -27.7215   23.1549 C   0  0  0  0  0  0  0  0  0  0  0  0
  -25.6057  -10.9757   20.5279 C   0  0  0  0  0  0  0  0  0  0  0  0
  -25.5891  -17.0773   18.2496 C   0  0  0  0  0  0  0  0  0  0  0  0
  -26.1887  -19.1397   20.2822 C   0  0  0  0  0  0  0  0  0  0  0  0
  -26.7254  -11.9631   20.8467 C   0  0  0  0  0  0  0  0  0  0  0  0
  -19.1771  -30.9817   23.7963 C   0  0  0  0  0  0  0  0  0  0  0  0
  -26.2182  -13.0652   21.7713 C   0  0  0  0  0  0  0  0  0  0  0  0
  -20.3796  -31.0941   22.8574 C   0  0  0  0  0  0  0  0  0  0  0  0
  -20.2931  -22.4584   22.7470 C   0  0  0  0  0  0  0  0  0  0  0  0
  -19.7564  -22.9442   20.3332 C   0  0  0  0  0  0  0  0  0  0  0  0
  -19.0289  -29.5689   24.3567 C   0  0  0  0  0  0  0  0  0  0  0  0
  -20.1857  -28.6135   22.4016 C   0  0  0  0  0  0  0  0  0  0  0  0
  -18.9044  -22.9380   23.1458 C   0  0  0  0  0  0  0  0  0  0  0  0
  -18.3702  -23.4210   20.7441 C   0  0  0  0  0  0  0  0  0  0  0  0
  -25.0945  -13.8694   21.1064 C   0  0  1  0  0  0  0  0  0  0  0  0
  -26.6382  -16.8545   19.3345 C   0  0  1  0  0  0  0  0  0  0  0  0
  -20.3178  -21.9103   21.3157 C   0  0  0  0  0  0  0  0  0  0  0  0
  -20.3436  -30.0061   21.7674 C   0  0  2  0  0  0  0  0  0  0  0  0
  -31.5219  -22.8670   19.3830 C   0  0  0  0  0  0  0  0  0  0  0  0
  -28.6913  -18.2734   23.2245 C   0  0  0  0  0  0  0  0  0  0  0  0
  -30.0278  -20.3816   23.0316 C   0  0  0  0  0  0  0  0  0  0  0  0
  -30.9049  -18.2578   22.0608 C   0  0  0  0  0  0  0  0  0  0  0  0
  -28.9791  -22.0276   16.6801 C   0  0  0  0  0  0  0  0  0  0  0  0
  -21.7332  -21.4969   20.9180 C   0  0  0  0  0  0  0  0  0  1  0  0
  -16.8855  -25.8759   21.8404 C   0  0  0  0  0  0  0  0  0  0  0  0
  -17.1038  -24.5603   22.5639 C   0  0  0  0  0  0  0  0  0  0  0  0
  -28.9693  -19.4298   20.9329 C   0  0  1  0  0  0  0  0  0  0  0  0
  -30.5557  -21.9770   18.6168 C   0  0  2  0  0  0  0  0  0  0  0  0
  -29.6224  -19.0838   22.3008 C   0  0  0  0  0  0  0  0  0  0  0  0
  -22.6400  -29.3477   21.1547 N   0  0  0  0  0  0  0  0  0  0  0  0
  -21.5559  -30.0844   20.8580 N   0  0  0  0  0  0  0  0  0  0  0  0
  -27.1601  -18.1083   19.8821 N   0  0  0  0  0  0  0  0  0  0  0  0
  -18.9996  -28.5851   23.2718 N   0  0  0  0  0  0  0  0  0  0  0  0
  -20.6991  -31.6368   19.2874 N   0  0  0  0  0  0  0  0  0  0  0  0
  -24.2671  -32.3421   18.2070 N   0  0  0  0  0  0  0  0  0  0  0  0
  -25.6417  -14.8036   20.1460 N   0  0  0  0  0  0  0  0  0  0  0  0
  -29.8380  -20.1737   20.0272 N   0  0  0  0  0  0  0  0  0  0  0  0
  -17.9472  -26.8239   22.0953 N   0  0  0  0  0  0  0  0  0  0  0  0
  -18.4217  -23.9649   22.1508 N   0  3  0  0  0  0  0  0  0  0  0  0
  -29.9351  -22.7845   17.5288 N   0  3  0  0  0  0  0  0  0  0  0  0
  -23.4227  -30.6221   16.9471 O   0  0  0  0  0  0  0  0  0  0  0  0
  -26.1371  -16.5369   21.6199 O   0  0  0  0  0  0  0  0  0  0  0  0
  -29.3658  -17.3529   19.8578 O   0  0  0  0  0  0  0  0  0  0  0  0
  -28.4389  -22.0065   19.7810 O   0  0  0  0  0  0  0  0  0  0  0  0
  -16.9392  -27.7518   23.9337 O   0  0  0  0  0  0  0  0  0  0  0  0
  -28.5703  -27.3166   20.0328 O   0  0  0  0  0  0  0  0  0  0  0  0
  -21.7107  -20.9840   19.5865 O   0  0  0  0  0  0  0  0  0  1  0  0
  -30.3576  -24.8107   24.6078 F   0  0  0  0  0  0  0  0  0  0  0  0
  -30.8754  -28.1608   21.3041 F   0  0  0  0  0  0  0  0  0  0  0  0
  1  2  1  0  0  0  0
  1  5  2  0  0  0  0
  2  6  2  0  0  0  0
  3  8  2  0  0  0  0
  3 15  1  0  0  0  0
  4  9  1  0  0  0  0
  4 15  2  0  0  0  0
  5 17  1  0  0  0  0
  6 19  1  0  0  0  0
  7 10  2  0  0  0  0
  7 18  1  0  0  0  0
  8 21  1  0  0  0  0
  9 21  2  0  0  0  0
 10 22  1  0  0  0  0
 11 12  2  0  0  0  0
 11 23  1  0  0  0  0
 12 24  1  0  0  0  0
 13 20  1  0  0  0  0
 13 22  2  0  0  0  0
 14 24  2  0  0  0  0
 14 25  1  0  0  0  0
 15 26  1  0  0  0  0
 16 26  1  0  0  0  0
 16 27  2  0  0  0  0
 16 28  1  0  0  0  0
 17 19  2  0  0  0  0
 17 33  1  0  0  0  0
 18 20  2  0  0  0  0
 18 34  1  0  0  0  0
 19 46  1  0  0  0  0
 20 35  1  0  0  0  0
 21 77  1  0  0  0  0
 22 78  1  0  0  0  0
 23 25  2  0  0  0  0
 23 77  1  0  0  0  0
 24 79  1  0  0  0  0
 25 80  1  0  0  0  0
 26 61  2  0  0  0  0
 27 62  1  0  0  0  0
 27 65  1  0  0  0  0
 28 66  1  0  0  0  0
 28 72  2  0  0  0  0
 29 47  1  0  0  0  0
 29 67  1  0  0  0  0
 29 73  2  0  0  0  0
 30 58  1  0  0  0  0
 30 63  1  0  0  0  0
 30 74  2  0  0  0  0
 31 59  1  0  0  0  0
 31 68  1  0  0  0  0
 31 75  2  0  0  0  0
 32 64  1  0  0  0  0
 32 69  1  0  0  0  0
 32 76  2  0  0  0  0
 33 36  1  0  0  0  0
 34 47  1  0  0  0  0
 35 63  1  0  0  0  0
 36 38  1  0  0  0  0
 37 39  1  0  0  0  0
 37 42  1  0  0  0  0
 38 46  1  0  0  0  0
 39 49  1  0  0  0  0
 40 44  1  0  0  0  0
 40 48  1  0  0  0  0
 41 45  1  0  0  0  0
 41 48  1  0  0  0  0
 42 64  1  0  0  0  0
 43 49  1  0  0  0  0
 43 64  1  0  0  0  0
 44 70  1  0  0  0  0
 45 70  1  0  0  0  0
 46 67  1  0  0  0  0
 47 63  1  0  0  0  0
 48 55  1  0  0  0  0
 49 62  1  0  0  0  0
 50 59  1  0  0  0  0
 51 60  1  0  0  0  0
 52 60  1  0  0  0  0
 53 60  1  0  0  0  0
 54 71  1  0  0  0  0
 55 78  1  0  0  0  0
 56 57  1  0  0  0  0
 56 69  1  0  0  0  0
 57 70  1  0  0  0  0
 58 60  1  0  0  0  0
 58 68  1  0  0  0  0
 59 71  1  0  0  0  0
 61 62  1  0  0  0  0
M  CHG  2  70   1  71   1
M  ISO  4  32 100  55 101  69 100  78 101
M  END
> <Batch ID>
0125

> <Smiles>
CNC(C)C(=O)NC(C(=O)N1Cc2cc([101O:1][101CH2:1]C3CCN(CC[100NH:0][100C:0](=O)N4CCCC(n5nc(-c6ccc(Oc7ccc(F)cc7F)cc6)c(C(N)=O)c5N)C4)CC3)ccc2CC1C(=O)NC1CCCc2ccccc21)C(C)(C)C

> <Shape>
0.237

> <Color>
0.075

> <Negative vol penalty>
0.000

$$$$

  -OEChem-04052320353D

 84 92  0     1  0  0  0  0  0999 V2000
  -21.2060  -13.7433   24.8637 C   0  0  0  0  0  0  0  0  0  0  0  0
  -22.3775  -13.5469   25.5879 C   0  0  0  0  0  0  0  0  0  0  0  0
  -23.2014   -9.8513   19.9521 C   0  0  0  0  0  0  0  0  0  0  0  0
  -23.9119   -9.9301   22.2599 C   0  0  0  0  0  0  0  0  0  0  0  0
  -20.8628  -15.0229   24.4290 C   0  0  0  0  0  0  0  0  0  0  0  0
  -23.2071  -14.6298   25.8768 C   0  0  0  0  0  0  0  0  0  0  0  0
  -24.8078  -14.6234   30.6812 C   0  0  0  0  0  0  0  0  0  0  0  0
  -22.5099   -8.6668   20.2054 C   0  0  0  0  0  0  0  0  0  0  0  0
  -23.2203   -8.7455   22.5133 C   0  0  0  0  0  0  0  0  0  0  0  0
  -25.8458  -13.7509   31.0054 C   0  0  0  0  0  0  0  0  0  0  0  0
  -20.0232   -7.7985   23.0632 C   0  0  0  0  0  0  0  0  0  0  0  0
  -19.2448   -7.7387   24.2190 C   0  0  0  0  0  0  0  0  0  0  0  0
  -27.4149  -15.5784   30.8734 C   0  0  0  0  0  0  0  0  0  0  0  0
  -20.5640   -5.8761   25.0112 C   0  0  0  0  0  0  0  0  0  0  0  0
  -23.9024  -10.4830   20.9794 C   0  0  0  0  0  0  0  0  0  0  0  0
  -24.1225  -13.0199   20.8260 C   0  0  0  0  0  0  0  0  0  0  0  0
  -21.6837  -16.1235   24.7210 C   0  0  0  0  0  0  0  0  0  0  0  0
  -25.0675  -15.9801   30.4397 C   0  0  0  0  0  0  0  0  0  0  0  0
  -22.8752  -15.9251   25.4444 C   0  0  0  0  0  0  0  0  0  0  0  0
  -26.3781  -16.4665   30.5489 C   0  0  0  0  0  0  0  0  0  0  0  0
  -22.5193   -8.1138   21.4859 C   0  0  0  0  0  0  0  0  0  0  0  0
  -27.1500  -14.2278   31.0986 C   0  0  0  0  0  0  0  0  0  0  0  0
  -21.0720   -6.8970   22.8812 C   0  0  0  0  0  0  0  0  0  0  0  0
  -19.5152   -6.7776   25.1931 C   0  0  0  0  0  0  0  0  0  0  0  0
  -21.3424   -5.9358   23.8553 C   0  0  0  0  0  0  0  0  0  0  0  0
  -24.6175  -11.7064   20.7183 C   0  0  0  0  0  0  0  0  0  0  0  0
  -25.1840  -13.8168   20.4729 C   0  0  0  0  0  0  0  0  0  0  0  0
  -22.8198  -13.4786   21.2109 C   0  0  0  0  0  0  0  0  0  0  0  0
  -24.7237  -17.9203   27.9454 C   0  0  0  0  0  0  0  0  0  0  0  0
  -30.0875  -11.7558   28.4337 C   0  0  0  0  0  0  0  0  0  0  0  0
  -25.6322  -20.1883   30.0792 C   0  0  0  0  0  0  0  0  0  0  0  0
  -27.2642  -20.9513   32.9777 C   0  0  0  0  0  0  0  0  0  0  0  0
  -30.9475  -14.0591   20.9607 C   0  0  0  0  0  0  0  0  0  0  0  0
  -21.2951  -17.4803   24.1892 C   0  0  0  0  0  0  0  0  0  0  0  0
  -23.9329  -16.9135   30.1173 C   0  0  0  0  0  0  0  0  0  0  0  0
  -26.7068  -17.9183   30.3190 C   0  0  0  0  0  0  0  0  0  0  0  0
  -22.0386  -18.6329   24.8593 C   0  0  0  0  0  0  0  0  0  0  0  0
  -29.3577  -13.1288   17.9137 C   0  0  0  0  0  0  0  0  0  0  0  0
  -23.5304  -18.3269   24.9466 C   0  0  0  0  0  0  0  0  0  0  0  0
  -27.9272  -12.7893   18.3363 C   0  0  0  0  0  0  0  0  0  0  0  0
  -30.3746  -12.7011   18.9696 C   0  0  0  0  0  0  0  0  0  0  0  0
  -30.1255  -13.7651   26.9616 C   0  0  0  0  0  0  0  0  0  0  0  0
  -28.6793  -12.8727   20.7501 C   0  0  0  0  0  0  0  0  0  0  0  0
  -32.2727  -12.5707   25.4465 C   0  0  0  0  0  0  0  0  0  0  0  0
  -23.7885  -17.0785   25.7989 C   0  0  1  0  0  0  0  0  0  0  0  0
  -24.3854  -18.1743   29.3872 C   0  0  1  0  0  0  0  0  0  0  0  0
  -30.9334  -12.6120   27.5500 C   0  0  2  0  0  0  0  0  0  0  0  0
  -27.6133  -13.3354   19.7422 C   0  0  2  0  0  0  0  0  0  0  0  0
  -31.4204  -13.7253   24.9183 C   0  0  2  0  0  0  0  0  0  0  0  0
  -27.8692  -22.8954   34.4447 C   0  0  0  0  0  0  0  0  0  0  0  0
  -27.8029  -21.0056   28.0969 C   0  0  0  0  0  0  0  0  0  0  0  0
  -28.9328  -22.2486   29.9534 C   0  0  0  0  0  0  0  0  0  0  0  0
  -26.6435  -22.9155   29.2204 C   0  0  0  0  0  0  0  0  0  0  0  0
  -25.7625  -19.8369   35.2716 C   0  0  0  0  0  0  0  0  0  0  0  0
  -32.2403  -14.5976   23.9695 C   0  0  0  0  0  0  0  0  0  0  0  0
  -31.3691  -15.3949   23.0093 C   0  0  0  0  0  0  0  0  0  0  0  0
  -29.3963  -11.4076   30.7966 C   0  0  0  0  0  0  0  0  0  0  0  0
  -28.0223  -12.0171   31.0102 C   0  0  0  0  0  0  0  0  0  1  0  0
  -26.9522  -20.7709   30.5232 C   0  0  1  0  0  0  0  0  0  0  0  0
  -26.8555  -21.7950   34.1717 C   0  0  2  0  0  0  0  0  0  0  0  0
  -27.5773  -21.7073   29.4510 C   0  0  0  0  0  0  0  0  0  0  0  0
  -25.8940  -11.6668   20.3272 N   0  0  0  0  0  0  0  0  0  0  0  0
  -26.2101  -12.9654   20.1860 N   0  0  0  0  0  0  0  0  0  0  0  0
  -30.9144  -14.5604   26.0171 N   0  0  0  0  0  0  0  0  0  0  0  0
  -25.5641  -18.7901   30.0002 N   0  0  0  0  0  0  0  0  0  0  0  0
  -30.0202  -13.2535   20.2793 N   0  0  0  0  0  0  0  0  0  0  0  0
  -25.3303  -15.1558   20.3829 N   0  0  0  0  0  0  0  0  0  0  0  0
  -21.8468  -12.5257   21.5422 N   0  0  0  0  0  0  0  0  0  0  0  0
  -23.6801  -17.3963   27.2066 N   0  0  0  0  0  0  0  0  0  0  0  0
  -30.1356  -12.1001   29.7748 N   0  0  0  0  0  0  0  0  0  0  0  0
  -26.7022  -21.4162   31.8075 N   0  0  0  0  0  0  0  0  0  0  0  0
  -30.5293  -14.5472   22.1926 N   0  0  0  0  0  0  0  0  0  0  0  0
  -31.4664  -11.7797   26.4251 N   0  3  0  0  0  0  0  0  0  0  0  0
  -26.7432  -20.9463   35.3916 N   0  3  0  0  0  0  0  0  0  0  0  0
  -22.5223  -14.6967   21.2438 O   0  0  0  0  0  0  0  0  0  0  0  0
  -25.8477  -18.1818   27.5334 O   0  0  0  0  0  0  0  0  0  0  0  0
  -29.4313  -10.8444   27.9434 O   0  0  0  0  0  0  0  0  0  0  0  0
  -24.6938  -20.9456   29.8192 O   0  0  0  0  0  0  0  0  0  0  0  0
  -28.0105  -19.9795   33.0730 O   0  0  0  0  0  0  0  0  0  0  0  0
  -32.0631  -14.3281   20.5025 O   0  0  0  0  0  0  0  0  0  0  0  0
  -21.8444   -6.9581   21.7335 O   0  0  0  0  0  0  0  0  0  0  0  0
  -28.1652  -13.3783   31.4142 O   0  0  0  0  0  0  0  0  0  1  0  0
  -18.7685   -6.7214   26.3037 F   0  0  0  0  0  0  0  0  0  0  0  0
  -22.3494   -5.0679   23.6867 F   0  0  0  0  0  0  0  0  0  0  0  0
  1  2  1  0  0  0  0
  1  5  2  0  0  0  0
  2  6  2  0  0  0  0
  3  8  2  0  0  0  0
  3 15  1  0  0  0  0
  4  9  1  0  0  0  0
  4 15  2  0  0  0  0
  5 17  1  0  0  0  0
  6 19  1  0  0  0  0
  7 10  2  0  0  0  0
  7 18  1  0  0  0  0
  8 21  1  0  0  0  0
  9 21  2  0  0  0  0
 10 22  1  0  0  0  0
 11 12  2  0  0  0  0
 11 23  1  0  0  0  0
 12 24  1  0  0  0  0
 13 20  1  0  0  0  0
 13 22  2  0  0  0  0
 14 24  2  0  0  0  0
 14 25  1  0  0  0  0
 15 26  1  0  0  0  0
 16 26  1  0  0  0  0
 16 27  2  0  0  0  0
 16 28  1  0  0  0  0
 17 19  2  0  0  0  0
 17 34  1  0  0  0  0
 18 20  2  0  0  0  0
 18 35  1  0  0  0  0
 19 45  1  0  0  0  0
 20 36  1  0  0  0  0
 21 81  1  0  0  0  0
 22 82  1  0  0  0  0
 23 25  2  0  0  0  0
 23 81  1  0  0  0  0
 24 83  1  0  0  0  0
 25 84  1  0  0  0  0
 26 62  2  0  0  0  0
 27 63  1  0  0  0  0
 27 67  1  0  0  0  0
 28 68  1  0  0  0  0
 28 75  2  0  0  0  0
 29 46  1  0  0  0  0
 29 69  1  0  0  0  0
 29 76  2  0  0  0  0
 30 47  1  0  0  0  0
 30 70  1  0  0  0  0
 30 77  2  0  0  0  0
 31 59  1  0  0  0  0
 31 65  1  0  0  0  0
 31 78  2  0  0  0  0
 32 60  1  0  0  0  0
 32 71  1  0  0  0  0
 32 79  2  0  0  0  0
 33 66  1  0  0  0  0
 33 72  1  0  0  0  0
 33 80  2  0  0  0  0
 34 37  1  0  0  0  0
 35 46  1  0  0  0  0
 36 65  1  0  0  0  0
 37 39  1  0  0  0  0
 38 40  1  0  0  0  0
 38 41  1  0  0  0  0
 39 45  1  0  0  0  0
 40 48  1  0  0  0  0
 41 66  1  0  0  0  0
 42 47  1  0  0  0  0
 42 64  1  0  0  0  0
 43 48  1  0  0  0  0
 43 66  1  0  0  0  0
 44 49  1  0  0  0  0
 44 73  1  0  0  0  0
 45 69  1  0  0  0  0
 46 65  1  0  0  0  0
 47 73  1  0  0  0  0
 48 63  1  0  0  0  0
 49 55  1  0  0  0  0
 49 64  1  0  0  0  0
 50 60  1  0  0  0  0
 51 61  1  0  0  0  0
 52 61  1  0  0  0  0
 53 61  1  0  0  0  0
 54 74  1  0  0  0  0
 55 56  1  0  0  0  0
 56 72  1  0  0  0  0
 57 58  1  0  0  0  0
 57 70  1  0  0  0  0
 58 82  1  0  0  0  0
 59 61  1  0  0  0  0
 59 71  1  0  0  0  0
 60 74  1  0  0  0  0
 62 63  1  0  0  0  0
M  CHG  2  73   1  74   1
M  ISO  4  33 100  58 101  72 100  82 101
M  END
> <Batch ID>
0125

> <Smiles>
CNC(C)C(=O)NC(C(=O)N1Cc2cc([101O:1][101CH2:1]CNC(=O)C3CNC(CC[100NH:0][100C:0](=O)N4CCCC(n5nc(-c6ccc(Oc7ccc(F)cc7F)cc6)c(C(N)=O)c5N)C4)CN3)ccc2CC1C(=O)NC1CCCc2ccccc21)C(C)(C)C

> <Shape>
0.152

> <Color>
0.170

> <Negative vol penalty>
0.000

$$$$

  -OEChem-04052320353D

 78 86  0     1  0  0  0  0  0999 V2000
  -16.4975  -30.7047   20.2000 C   0  0  0  0  0  0  0  0  0  0  0  0
  -17.7391  -31.3256   20.1089 C   0  0  0  0  0  0  0  0  0  0  0  0
  -26.3352  -12.8313   19.4465 C   0  0  0  0  0  0  0  0  0  0  0  0
  -25.5049  -13.0837   21.7012 C   0  0  0  0  0  0  0  0  0  0  0  0
  -16.2270  -29.8418   21.2613 C   0  0  0  0  0  0  0  0  0  0  0  0
  -18.7106  -31.0849   21.0798 C   0  0  0  0  0  0  0  0  0  0  0  0
  -25.1374  -28.3615   19.2991 C   0  0  0  0  0  0  0  0  0  0  0  0
  -25.2587  -11.9978   19.1433 C   0  0  0  0  0  0  0  0  0  0  0  0
  -24.4283  -12.2503   21.3981 C   0  0  0  0  0  0  0  0  0  0  0  0
  -26.4643  -28.0402   19.0122 C   0  0  0  0  0  0  0  0  0  0  0  0
  -23.8582   -8.9329   21.0804 C   0  0  0  0  0  0  0  0  0  0  0  0
  -23.5261   -7.9415   22.0036 C   0  0  0  0  0  0  0  0  0  0  0  0
  -26.9830  -28.0265   21.3741 C   0  0  0  0  0  0  0  0  0  0  0  0
  -21.3246   -8.9062   22.2477 C   0  0  0  0  0  0  0  0  0  0  0  0
  -26.4584  -13.3743   20.7255 C   0  0  0  0  0  0  0  0  0  0  0  0
  -28.9393  -13.9113   20.9791 C   0  0  0  0  0  0  0  0  0  0  0  0
  -17.1991  -29.5829   22.2404 C   0  0  0  0  0  0  0  0  0  0  0  0
  -24.7243  -28.5015   20.6270 C   0  0  0  0  0  0  0  0  0  0  0  0
  -18.4525  -30.2188   22.1559 C   0  0  0  0  0  0  0  0  0  0  0  0
  -25.6524  -28.3359   21.6682 C   0  0  0  0  0  0  0  0  0  0  0  0
  -24.3052  -11.7073   20.1191 C   0  0  0  0  0  0  0  0  0  0  0  0
  -27.3848  -27.8734   20.0471 C   0  0  0  0  0  0  0  0  0  0  0  0
  -22.9235   -9.9111   20.7409 C   0  0  0  0  0  0  0  0  0  0  0  0
  -22.2593   -7.9281   22.5873 C   0  0  0  0  0  0  0  0  0  0  0  0
  -21.6567   -9.8977   21.3245 C   0  0  0  0  0  0  0  0  0  0  0  0
  -27.5705  -14.2349   21.0394 C   0  0  0  0  0  0  0  0  0  0  0  0
  -29.5814  -15.0605   21.3709 C   0  0  0  0  0  0  0  0  0  0  0  0
  -29.5736  -12.6819   20.6025 C   0  0  0  0  0  0  0  0  0  0  0  0
  -21.9057  -29.2106   22.9994 C   0  0  0  0  0  0  0  0  0  0  0  0
  -23.5582  -26.9392   24.2325 C   0  0  0  0  0  0  0  0  0  0  0  0
  -25.3943  -24.1802   25.0412 C   0  0  0  0  0  0  0  0  0  0  0  0
  -29.1137  -20.7060   20.8037 C   0  0  0  0  0  0  0  0  0  0  0  0
  -16.8441  -28.6795   23.3948 C   0  0  0  0  0  0  0  0  0  0  0  0
  -23.3192  -28.9073   20.9804 C   0  0  0  0  0  0  0  0  0  0  0  0
  -25.1709  -28.5303   23.0800 C   0  0  0  0  0  0  0  0  0  0  0  0
  -18.0581  -28.1866   24.1781 C   0  0  0  0  0  0  0  0  0  0  0  0
  -28.2726  -19.0854   23.9284 C   0  0  0  0  0  0  0  0  0  0  0  0
  -19.0086  -29.3426   24.4730 C   0  0  0  0  0  0  0  0  0  0  0  0
  -29.7562  -24.9457   19.0161 C   0  0  0  0  0  0  0  0  0  0  0  0
  -31.3035  -25.1437   21.0047 C   0  0  0  0  0  0  0  0  0  0  0  0
  -28.1394  -17.6264   23.4881 C   0  0  0  0  0  0  0  0  0  0  0  0
  -29.0235  -23.7901   19.6985 C   0  0  0  0  0  0  0  0  0  0  0  0
  -30.5740  -23.9879   21.6903 C   0  0  0  0  0  0  0  0  0  0  0  0
  -27.7342  -20.0357   22.8629 C   0  0  0  0  0  0  0  0  0  0  0  0
  -28.2211  -18.4100   21.0758 C   0  0  0  0  0  0  0  0  0  0  0  0
  -19.5409  -29.9638   23.1759 C   0  0  1  0  0  0  0  0  0  0  0  0
  -22.8114  -28.2555   22.2790 C   0  0  1  0  0  0  0  0  0  0  0  0
  -30.4193  -25.9098   20.0103 C   0  0  0  0  0  0  0  0  0  0  0  0
  -28.7687  -17.4002   22.1007 C   0  0  2  0  0  0  0  0  0  0  0  0
  -29.9399  -23.0419   20.6690 C   0  0  0  0  0  0  0  0  0  0  0  0
  -26.0654  -22.1178   26.3035 C   0  0  0  0  0  0  0  0  0  0  0  0
  -24.9032  -28.9532   26.0868 C   0  0  0  0  0  0  0  0  0  0  0  0
  -25.9130  -27.0282   27.3289 C   0  0  0  0  0  0  0  0  0  0  0  0
  -23.4339  -27.2910   27.2413 C   0  0  0  0  0  0  0  0  0  0  0  0
  -23.6442  -22.4586   23.3883 C   0  0  0  0  0  0  0  0  0  0  0  0
  -29.3854  -26.7818   20.7280 C   0  0  0  0  0  0  0  0  0  1  0  0
  -24.6760  -26.5514   25.1671 C   0  0  1  0  0  0  0  0  0  0  0  0
  -24.9799  -22.7853   25.4735 C   0  0  2  0  0  0  0  0  0  0  0  0
  -24.7359  -27.4590   26.4281 C   0  0  0  0  0  0  0  0  0  0  0  0
  -27.3548  -15.4912   21.4383 N   0  0  0  0  0  0  0  0  0  0  0  0
  -28.5965  -15.9671   21.6323 N   0  0  0  0  0  0  0  0  0  0  0  0
  -23.8550  -27.8956   23.2539 N   0  0  0  0  0  0  0  0  0  0  0  0
  -28.3871  -19.7805   21.5711 N   0  0  0  0  0  0  0  0  0  0  0  0
  -30.8866  -15.3738   21.5141 N   0  0  0  0  0  0  0  0  0  0  0  0
  -29.8313  -11.7304   21.5988 N   0  0  0  0  0  0  0  0  0  0  0  0
  -20.5825  -29.1344   22.6087 N   0  0  0  0  0  0  0  0  0  0  0  0
  -24.4907  -25.1341   25.4592 N   0  0  0  0  0  0  0  0  0  0  0  0
  -29.2183  -21.9835   21.3400 N   0  0  0  0  0  0  0  0  0  0  0  0
  -24.7085  -21.9329   24.2816 N   0  3  0  0  0  0  0  0  0  0  0  0
  -29.9170  -12.4412   19.4202 O   0  0  0  0  0  0  0  0  0  0  0  0
  -22.3717  -29.9610   23.8488 O   0  0  0  0  0  0  0  0  0  0  0  0
  -22.4494  -26.4141   24.3678 O   0  0  0  0  0  0  0  0  0  0  0  0
  -26.4193  -24.4019   24.4001 O   0  0  0  0  0  0  0  0  0  0  0  0
  -29.6357  -20.4139   19.7223 O   0  0  0  0  0  0  0  0  0  0  0  0
  -23.2544  -10.8942   19.8235 O   0  0  0  0  0  0  0  0  0  0  0  0
  -28.6776  -27.5554   19.7601 O   0  0  0  0  0  0  0  0  0  1  0  0
  -21.9401   -6.9750   23.4727 F   0  0  0  0  0  0  0  0  0  0  0  0
  -20.7541  -10.8341   21.0014 F   0  0  0  0  0  0  0  0  0  0  0  0
  1  2  1  0  0  0  0
  1  5  2  0  0  0  0
  2  6  2  0  0  0  0
  3  8  2  0  0  0  0
  3 15  1  0  0  0  0
  4  9  1  0  0  0  0
  4 15  2  0  0  0  0
  5 17  1  0  0  0  0
  6 19  1  0  0  0  0
  7 10  2  0  0  0  0
  7 18  1  0  0  0  0
  8 21  1  0  0  0  0
  9 21  2  0  0  0  0
 10 22  1  0  0  0  0
 11 12  2  0  0  0  0
 11 23  1  0  0  0  0
 12 24  1  0  0  0  0
 13 20  1  0  0  0  0
 13 22  2  0  0  0  0
 14 24  2  0  0  0  0
 14 25  1  0  0  0  0
 15 26  1  0  0  0  0
 16 26  1  0  0  0  0
 16 27  2  0  0  0  0
 16 28  1  0  0  0  0
 17 19  2  0  0  0  0
 17 33  1  0  0  0  0
 18 20  2  0  0  0  0
 18 34  1  0  0  0  0
 19 46  1  0  0  0  0
 20 35  1  0  0  0  0
 21 75  1  0  0  0  0
 22 76  1  0  0  0  0
 23 25  2  0  0  0  0
 23 75  1  0  0  0  0
 24 77  1  0  0  0  0
 25 78  1  0  0  0  0
 26 60  2  0  0  0  0
 27 61  1  0  0  0  0
 27 64  1  0  0  0  0
 28 65  1  0  0  0  0
 28 70  2  0  0  0  0
 29 47  1  0  0  0  0
 29 66  1  0  0  0  0
 29 71  2  0  0  0  0
 30 57  1  0  0  0  0
 30 62  1  0  0  0  0
 30 72  2  0  0  0  0
 31 58  1  0  0  0  0
 31 67  1  0  0  0  0
 31 73  2  0  0  0  0
 32 63  1  0  0  0  0
 32 68  1  0  0  0  0
 32 74  2  0  0  0  0
 33 36  1  0  0  0  0
 34 47  1  0  0  0  0
 35 62  1  0  0  0  0
 36 38  1  0  0  0  0
 37 41  1  0  0  0  0
 37 44  1  0  0  0  0
 38 46  1  0  0  0  0
 39 42  1  0  0  0  0
 39 48  1  0  0  0  0
 40 43  1  0  0  0  0
 40 48  1  0  0  0  0
 41 49  1  0  0  0  0
 42 50  1  0  0  0  0
 43 50  1  0  0  0  0
 44 63  1  0  0  0  0
 45 49  1  0  0  0  0
 45 63  1  0  0  0  0
 46 66  1  0  0  0  0
 47 62  1  0  0  0  0
 48 56  1  0  0  0  0
 49 61  1  0  0  0  0
 50 68  1  0  0  0  0
 51 58  1  0  0  0  0
 52 59  1  0  0  0  0
 53 59  1  0  0  0  0
 54 59  1  0  0  0  0
 55 69  1  0  0  0  0
 56 76  1  0  0  0  0
 57 59  1  0  0  0  0
 57 67  1  0  0  0  0
 58 69  1  0  0  0  0
 60 61  1  0  0  0  0
M  CHG  1  69   1
M  ISO  4  32 100  56 101  68 100  76 101
M  END
> <Batch ID>
0125

> <Smiles>
CNC(C)C(=O)NC(C(=O)N1Cc2cc([101O:1][101CH2:1]C3CCC([100NH:0][100C:0](=O)N4CCCC(n5nc(-c6ccc(Oc7ccc(F)cc7F)cc6)c(C(N)=O)c5N)C4)CC3)ccc2CC1C(=O)NC1CCCc2ccccc21)C(C)(C)C

> <Shape>
0.270

> <Color>
0.106

> <Negative vol penalty>
0.000

$$$$

  -OEChem-04052320353D

 83 91  0     1  0  0  0  0  0999 V2000
  -38.9061  -28.1656   16.2231 C   0  0  0  0  0  0  0  0  0  0  0  0
  -38.0350  -28.6187   17.2087 C   0  0  0  0  0  0  0  0  0  0  0  0
  -23.1994   -9.8132   19.9314 C   0  0  0  0  0  0  0  0  0  0  0  0
  -23.5780   -9.9946   22.3107 C   0  0  0  0  0  0  0  0  0  0  0  0
  -38.5293  -27.1112   15.3924 C   0  0  0  0  0  0  0  0  0  0  0  0
  -36.7860  -28.0183   17.3633 C   0  0  0  0  0  0  0  0  0  0  0  0
  -33.5723  -24.7122   23.6696 C   0  0  0  0  0  0  0  0  0  0  0  0
  -22.4382   -8.6632   20.1402 C   0  0  0  0  0  0  0  0  0  0  0  0
  -22.8167   -8.8446   22.5195 C   0  0  0  0  0  0  0  0  0  0  0  0
  -32.9614  -23.9610   24.6739 C   0  0  0  0  0  0  0  0  0  0  0  0
  -23.2321   -5.4998   22.2545 C   0  0  0  0  0  0  0  0  0  0  0  0
  -23.7350   -4.5404   23.1333 C   0  0  0  0  0  0  0  0  0  0  0  0
  -31.7424  -22.7035   23.0063 C   0  0  0  0  0  0  0  0  0  0  0  0
  -21.7780   -4.7916   24.5275 C   0  0  0  0  0  0  0  0  0  0  0  0
  -23.7694  -10.4789   21.0167 C   0  0  0  0  0  0  0  0  0  0  0  0
  -24.0971  -12.9970   20.7733 C   0  0  0  0  0  0  0  0  0  0  0  0
  -37.2789  -26.4911   15.5433 C   0  0  0  0  0  0  0  0  0  0  0  0
  -33.2819  -24.4513   22.3276 C   0  0  0  0  0  0  0  0  0  0  0  0
  -36.3916  -26.9554   16.5330 C   0  0  0  0  0  0  0  0  0  0  0  0
  -32.3607  -23.4443   21.9956 C   0  0  0  0  0  0  0  0  0  0  0  0
  -22.2468   -8.1789   21.4343 C   0  0  0  0  0  0  0  0  0  0  0  0
  -32.0485  -22.9593   24.3430 C   0  0  0  0  0  0  0  0  0  0  0  0
  -22.0021   -6.1052   22.5123 C   0  0  0  0  0  0  0  0  0  0  0  0
  -23.0080   -4.1863   24.2698 C   0  0  0  0  0  0  0  0  0  0  0  0
  -21.2751   -5.7511   23.6487 C   0  0  0  0  0  0  0  0  0  0  0  0
  -24.5563  -11.6666   20.8015 C   0  0  0  0  0  0  0  0  0  0  0  0
  -25.2249  -13.7446   20.5377 C   0  0  0  0  0  0  0  0  0  0  0  0
  -22.7697  -13.5112   20.9448 C   0  0  0  0  0  0  0  0  0  0  0  0
  -33.9143  -25.3193   18.7328 C   0  0  0  0  0  0  0  0  0  0  0  0
  -33.7329  -22.2612   18.8925 C   0  0  0  0  0  0  0  0  0  0  0  0
  -33.8842  -18.9197   19.5625 C   0  0  0  0  0  0  0  0  0  0  0  0
  -31.0444  -12.7796   21.5641 C   0  0  0  0  0  0  0  0  0  0  0  0
  -36.8970  -25.3860   14.5908 C   0  0  0  0  0  0  0  0  0  0  0  0
  -33.8698  -25.2765   21.2154 C   0  0  0  0  0  0  0  0  0  0  0  0
  -32.0527  -23.2219   20.5400 C   0  0  0  0  0  0  0  0  0  0  0  0
  -35.7058  -24.5575   15.0652 C   0  0  0  0  0  0  0  0  0  0  0  0
  -29.5125  -13.4910   18.4298 C   0  0  0  0  0  0  0  0  0  0  0  0
  -34.5829  -25.4676   15.5527 C   0  0  0  0  0  0  0  0  0  0  0  0
  -28.0272  -13.2242   18.6797 C   0  0  0  0  0  0  0  0  0  0  0  0
  -31.5338  -14.4960   24.3778 C   0  0  0  0  0  0  0  0  0  0  0  0
  -30.3984  -12.5053   19.1884 C   0  0  0  0  0  0  0  0  0  0  0  0
  -28.6472  -12.1546   20.8866 C   0  0  0  0  0  0  0  0  0  0  0  0
  -31.1382  -12.3243   25.2605 C   0  0  0  0  0  0  0  0  0  0  0  0
  -35.0381  -26.3135   16.7480 C   0  0  1  0  0  0  0  0  0  0  0  0
  -34.1483  -24.4602   19.9405 C   0  0  1  0  0  0  0  0  0  0  0  0
  -27.7151  -13.1585   20.1869 C   0  0  2  0  0  0  0  0  0  0  0  0
  -31.5270  -13.0300   23.9746 C   0  0  1  0  0  0  0  0  0  0  0  0
  -32.2289  -14.4630   25.7339 C   0  0  1  0  0  0  0  0  0  0  0  0
  -34.1881  -16.6971   18.4379 C   0  0  0  0  0  0  0  0  0  0  0  0
  -30.3268  -20.7144   27.5604 C   0  0  0  0  0  0  0  0  0  0  0  0
  -30.8678  -22.3985   17.8551 C   0  0  0  0  0  0  0  0  0  0  0  0
  -30.9113  -19.9070   17.6129 C   0  0  0  0  0  0  0  0  0  0  0  0
  -32.4924  -21.3144   16.2931 C   0  0  0  0  0  0  0  0  0  0  0  0
  -36.3367  -18.3395   21.1141 C   0  0  0  0  0  0  0  0  0  0  0  0
  -31.8472  -15.6046   26.6546 C   0  0  0  0  0  0  0  0  0  0  0  0
  -32.2276  -16.9574   26.0512 C   0  0  0  0  0  0  0  0  0  0  0  0
  -31.8722  -18.1490   26.9472 C   0  0  0  0  0  0  0  0  0  0  0  0
  -32.1872  -19.5056   26.3067 C   0  0  0  0  0  0  0  0  0  0  0  0
  -32.2096  -22.0271   26.5253 C   0  0  0  0  0  0  0  0  0  1  0  0
  -32.8581  -21.0383   18.7794 C   0  0  1  0  0  0  0  0  0  0  0  0
  -34.8796  -17.8525   19.1447 C   0  0  2  0  0  0  0  0  0  0  0  0
  -31.8167  -20.7059   27.2042 C   0  0  1  0  0  0  0  0  0  0  0  0
  -31.7877  -21.1768   17.6603 C   0  0  0  0  0  0  0  0  0  0  0  0
  -25.8732  -11.5712   20.5998 N   0  0  0  0  0  0  0  0  0  0  0  0
  -26.2511  -12.8513   20.4425 N   0  0  0  0  0  0  0  0  0  0  0  0
  -33.2927  -23.2767   19.7501 N   0  0  0  0  0  0  0  0  0  0  0  0
  -30.0526  -12.4924   20.6118 N   0  0  0  0  0  0  0  0  0  0  0  0
  -25.4291  -15.0724   20.4047 N   0  0  0  0  0  0  0  0  0  0  0  0
  -21.7270  -12.6044   21.1792 N   0  0  0  0  0  0  0  0  0  0  0  0
  -35.0407  -25.5191   17.9577 N   0  0  0  0  0  0  0  0  0  0  0  0
  -33.7608  -19.9054   18.6061 N   0  0  0  0  0  0  0  0  0  0  0  0
  -30.6309  -12.7521   22.8904 N   0  0  0  0  0  0  0  0  0  0  0  0
  -31.7993  -13.1466   26.3332 N   0  3  0  0  0  0  0  0  0  0  0  0
  -35.5932  -17.3144   20.3373 N   0  3  0  0  0  0  0  0  0  0  0  0
  -22.5132  -14.7371   20.8756 O   0  0  0  0  0  0  0  0  0  0  0  0
  -32.7942  -25.7674   18.5180 O   0  0  0  0  0  0  0  0  0  0  0  0
  -34.7758  -22.3196   18.2350 O   0  0  0  0  0  0  0  0  0  0  0  0
  -33.2742  -18.8809   20.6287 O   0  0  0  0  0  0  0  0  0  0  0  0
  -32.2107  -13.0463   21.2550 O   0  0  0  0  0  0  0  0  0  0  0  0
  -21.5038   -7.0569   21.6384 O   0  0  0  0  0  0  0  0  0  0  0  0
  -31.4591  -22.2267   25.3282 O   0  0  0  0  0  0  0  0  0  1  0  0
  -23.4903   -3.2639   25.1128 F   0  0  0  0  0  0  0  0  0  0  0  0
  -20.0923   -6.3283   23.9010 F   0  0  0  0  0  0  0  0  0  0  0  0
  1  2  1  0  0  0  0
  1  5  2  0  0  0  0
  2  6  2  0  0  0  0
  3  8  2  0  0  0  0
  3 15  1  0  0  0  0
  4  9  1  0  0  0  0
  4 15  2  0  0  0  0
  5 17  1  0  0  0  0
  6 19  1  0  0  0  0
  7 10  2  0  0  0  0
  7 18  1  0  0  0  0
  8 21  1  0  0  0  0
  9 21  2  0  0  0  0
 10 22  1  0  0  0  0
 11 12  2  0  0  0  0
 11 23  1  0  0  0  0
 12 24  1  0  0  0  0
 13 20  1  0  0  0  0
 13 22  2  0  0  0  0
 14 24  2  0  0  0  0
 14 25  1  0  0  0  0
 15 26  1  0  0  0  0
 16 26  1  0  0  0  0
 16 27  2  0  0  0  0
 16 28  1  0  0  0  0
 17 19  2  0  0  0  0
 17 33  1  0  0  0  0
 18 20  2  0  0  0  0
 18 34  1  0  0  0  0
 19 44  1  0  0  0  0
 20 35  1  0  0  0  0
 21 80  1  0  0  0  0
 22 81  1  0  0  0  0
 23 25  2  0  0  0  0
 23 80  1  0  0  0  0
 24 82  1  0  0  0  0
 25 83  1  0  0  0  0
 26 64  2  0  0  0  0
 27 65  1  0  0  0  0
 27 68  1  0  0  0  0
 28 69  1  0  0  0  0
 28 75  2  0  0  0  0
 29 45  1  0  0  0  0
 29 70  1  0  0  0  0
 29 76  2  0  0  0  0
 30 60  1  0  0  0  0
 30 66  1  0  0  0  0
 30 77  2  0  0  0  0
 31 61  1  0  0  0  0
 31 71  1  0  0  0  0
 31 78  2  0  0  0  0
 32 67  1  0  0  0  0
 32 72  1  0  0  0  0
 32 79  2  0  0  0  0
 33 36  1  0  0  0  0
 34 45  1  0  0  0  0
 35 66  1  0  0  0  0
 36 38  1  0  0  0  0
 37 39  1  0  0  0  0
 37 41  1  0  0  0  0
 38 44  1  0  0  0  0
 39 46  1  0  0  0  0
 40 47  1  0  0  0  0
 40 48  1  0  0  0  0
 41 67  1  0  0  0  0
 42 46  1  0  0  0  0
 42 67  1  0  0  0  0
 43 47  1  0  0  0  0
 43 73  1  0  0  0  0
 44 70  1  0  0  0  0
 45 66  1  0  0  0  0
 46 65  1  0  0  0  0
 47 72  1  0  0  0  0
 48 55  1  0  0  0  0
 48 73  1  0  0  0  0
 49 61  1  0  0  0  0
 50 62  1  0  0  0  0
 51 63  1  0  0  0  0
 52 63  1  0  0  0  0
 53 63  1  0  0  0  0
 54 74  1  0  0  0  0
 55 56  1  0  0  0  0
 56 57  1  0  0  0  0
 57 58  1  0  0  0  0
 58 62  1  0  0  0  0
 59 62  1  0  0  0  0
 59 81  1  0  0  0  0
 60 63  1  0  0  0  0
 60 71  1  0  0  0  0
 61 74  1  0  0  0  0
 64 65  1  0  0  0  0
M  CHG  2  73   1  74   1
M  ISO  4  32 100  59 101  72 100  81 101
M  END
> <Batch ID>
0125

> <Smiles>
CNC(C)C(=O)NC(C(=O)N1Cc2cc([101O:1][101CH2:1]C(C)CCCCC3CC([100NH:0][100C:0](=O)N4CCCC(n5nc(-c6ccc(Oc7ccc(F)cc7F)cc6)c(C(N)=O)c5N)C4)CN3)ccc2CC1C(=O)NC1CCCc2ccccc21)C(C)(C)C

> <Shape>
0.149

> <Color>
0.175

> <Negative vol penalty>
0.000

$$$$

  -OEChem-04052320353D

 85 94  0     1  0  0  0  0  0999 V2000
  -25.8159  -33.2489   26.6044 C   0  0  0  0  0  0  0  0  0  0  0  0
  -26.4202  -32.3623   25.7189 C   0  0  0  0  0  0  0  0  0  0  0  0
  -26.3228  -13.1428   19.2379 C   0  0  0  0  0  0  0  0  0  0  0  0
  -26.3376  -12.6466   21.6024 C   0  0  0  0  0  0  0  0  0  0  0  0
  -24.5780  -32.9372   27.1652 C   0  0  0  0  0  0  0  0  0  0  0  0
  -25.7874  -31.1628   25.3945 C   0  0  0  0  0  0  0  0  0  0  0  0
  -25.9247  -30.1746   20.4296 C   0  0  0  0  0  0  0  0  0  0  0  0
  -25.0748  -12.5317   19.1175 C   0  0  0  0  0  0  0  0  0  0  0  0
  -25.0895  -12.0356   21.4819 C   0  0  0  0  0  0  0  0  0  0  0  0
  -27.1195  -29.6758   19.9125 C   0  0  0  0  0  0  0  0  0  0  0  0
  -23.8583   -9.0744   20.4114 C   0  0  0  0  0  0  0  0  0  0  0  0
  -23.6742   -7.8460   21.0460 C   0  0  0  0  0  0  0  0  0  0  0  0
  -26.2000  -27.4460   19.9551 C   0  0  0  0  0  0  0  0  0  0  0  0
  -21.8866   -8.7954   22.3652 C   0  0  0  0  0  0  0  0  0  0  0  0
  -26.9543  -13.2002   20.4804 C   0  0  0  0  0  0  0  0  0  0  0  0
  -29.4350  -13.4673   19.9489 C   0  0  0  0  0  0  0  0  0  0  0  0
  -23.9253  -31.7377   26.8400 C   0  0  0  0  0  0  0  0  0  0  0  0
  -24.8607  -29.3100   20.7241 C   0  0  0  0  0  0  0  0  0  0  0  0
  -24.5403  -30.8341   25.9525 C   0  0  0  0  0  0  0  0  0  0  0  0
  -24.9919  -27.9367   20.4735 C   0  0  0  0  0  0  0  0  0  0  0  0
  -24.4581  -11.9782   20.2395 C   0  0  0  0  0  0  0  0  0  0  0  0
  -27.2584  -28.3110   19.6779 C   0  0  0  0  0  0  0  0  0  0  0  0
  -23.0566  -10.1634   20.7538 C   0  0  0  0  0  0  0  0  0  0  0  0
  -22.6883   -7.7064   22.0228 C   0  0  0  0  0  0  0  0  0  0  0  0
  -22.0708  -10.0238   21.7307 C   0  0  0  0  0  0  0  0  0  0  0  0
  -28.2439  -13.8307   20.6053 C   0  0  0  0  0  0  0  0  0  0  0  0
  -30.3662  -14.3690   20.4032 C   0  0  0  0  0  0  0  0  0  0  0  0
  -29.6780  -12.4093   19.0123 C   0  0  0  0  0  0  0  0  0  0  0  0
  -23.2803  -28.5163   23.3654 C   0  0  0  0  0  0  0  0  0  0  0  0
  -21.4076  -26.8770   21.2850 C   0  0  0  0  0  0  0  0  0  0  0  0
  -21.1015  -25.3431   18.2518 C   0  0  0  0  0  0  0  0  0  0  0  0
  -29.9305  -19.9171   22.6121 C   0  0  0  0  0  0  0  0  0  0  0  0
  -22.6103  -31.4226   27.5080 C   0  0  0  0  0  0  0  0  0  0  0  0
  -23.5689  -29.8672   21.2564 C   0  0  0  0  0  0  0  0  0  0  0  0
  -23.8722  -26.9690   20.7535 C   0  0  0  0  0  0  0  0  0  0  0  0
  -21.8321  -30.3023   26.8229 C   0  0  0  0  0  0  0  0  0  0  0  0
  -31.4022  -17.0903   24.1995 C   0  0  0  0  0  0  0  0  0  0  0  0
  -22.7509  -29.1237   26.5170 C   0  0  0  0  0  0  0  0  0  0  0  0
  -30.8672  -15.9016   23.3991 C   0  0  0  0  0  0  0  0  0  0  0  0
  -25.6756  -22.0283   21.7286 C   0  0  0  0  0  0  0  0  0  0  0  0
  -30.4636  -26.4281   19.4434 C   0  0  0  0  0  0  0  0  0  0  0  0
  -30.3555  -18.1934   24.3396 C   0  0  0  0  0  0  0  0  0  0  0  0
  -29.2356  -17.4687   22.2673 C   0  0  0  0  0  0  0  0  0  0  0  0
  -25.9355  -22.5681   23.1245 C   0  0  0  0  0  0  0  0  0  0  0  0
  -28.3613  -22.8360   22.5955 C   0  0  0  0  0  0  0  0  0  0  0  0
  -23.8738  -29.5344   25.5567 C   0  0  1  0  0  0  0  0  0  0  0  0
  -22.7334  -28.8310   22.0017 C   0  0  1  0  0  0  0  0  0  0  0  0
  -26.9246  -21.3631   21.1177 C   0  0  2  0  0  0  0  0  0  0  0  0
  -30.2739  -16.3545   22.0514 C   0  0  2  0  0  0  0  0  0  0  0  0
  -29.2875  -25.4974   19.3610 C   0  0  2  0  0  0  0  0  0  0  0  0
  -29.1231  -26.8636   19.9675 C   0  0  2  0  0  0  0  0  0  1  0  0
  -28.1718  -22.3066   21.1567 C   0  0  2  0  0  0  0  0  0  0  0  0
  -25.4049  -19.9072   19.7688 C   0  0  0  0  0  0  0  0  0  0  0  0
  -19.4629  -24.0599   16.8497 C   0  0  0  0  0  0  0  0  0  0  0  0
  -21.8728  -24.4034   23.0097 C   0  0  0  0  0  0  0  0  0  0  0  0
  -21.0427  -23.0054   21.1058 C   0  0  0  0  0  0  0  0  0  0  0  0
  -19.5286  -24.6712   22.1806 C   0  0  0  0  0  0  0  0  0  0  0  0
  -21.1582  -27.3847   16.1099 C   0  0  0  0  0  0  0  0  0  0  0  0
  -26.5791  -20.8255   19.7240 C   0  0  0  0  0  0  0  0  0  0  0  0
  -29.4496  -21.5251   20.7838 C   0  0  0  0  0  0  0  0  0  0  0  0
  -28.0430  -23.4900   20.1736 C   0  0  0  0  0  0  0  0  0  0  0  0
  -21.4175  -25.4818   20.7085 C   0  0  1  0  0  0  0  0  0  0  0  0
  -20.0283  -25.4320   17.1818 C   0  0  2  0  0  0  0  0  0  0  0  0
  -20.9874  -24.4082   21.7476 C   0  0  0  0  0  0  0  0  0  0  0  0
  -28.4012  -14.8813   21.4150 N   0  0  0  0  0  0  0  0  0  0  0  0
  -29.7021  -15.1857   21.2705 N   0  0  0  0  0  0  0  0  0  0  0  0
  -22.6313  -27.5615   21.2792 N   0  0  0  0  0  0  0  0  0  0  0  0
  -29.8341  -18.5783   23.0259 N   0  0  0  0  0  0  0  0  0  0  0  0
  -31.6801  -14.5350   20.1414 N   0  0  0  0  0  0  0  0  0  0  0  0
  -28.6100  -11.5753   18.6545 N   0  0  0  0  0  0  0  0  0  0  0  0
  -23.3752  -29.6132   24.2004 N   0  0  0  0  0  0  0  0  0  0  0  0
  -20.5799  -25.5275   19.5148 N   0  0  0  0  0  0  0  0  0  0  0  0
  -29.4177  -20.1954   21.3510 N   0  0  0  0  0  0  0  0  0  0  0  0
  -27.1109  -23.4812   23.0924 N   0  3  0  0  0  0  0  0  0  0  0  0
  -29.2669  -24.3435   20.2674 N   0  3  0  0  0  0  0  0  0  0  0  0
  -20.5885  -26.0240   15.9342 N   0  3  0  0  0  0  0  0  0  0  0  0
  -30.8125  -12.1992   18.5201 O   0  0  0  0  0  0  0  0  0  0  0  0
  -23.5918  -27.3634   23.6401 O   0  0  0  0  0  0  0  0  0  0  0  0
  -20.3515  -27.3451   21.7177 O   0  0  0  0  0  0  0  0  0  0  0  0
  -22.2835  -25.1277   17.9933 O   0  0  0  0  0  0  0  0  0  0  0  0
  -30.4408  -20.7982   23.3123 O   0  0  0  0  0  0  0  0  0  0  0  0
  -23.2401  -11.3821   20.1224 O   0  0  0  0  0  0  0  0  0  0  0  0
  -28.4237  -27.8214   19.1738 O   0  0  0  0  0  0  0  0  0  1  0  0
  -22.5106   -6.5263   22.6310 F   0  0  0  0  0  0  0  0  0  0  0  0
  -21.2967  -11.0661   22.0630 F   0  0  0  0  0  0  0  0  0  0  0  0
  1  2  1  0  0  0  0
  1  5  2  0  0  0  0
  2  6  2  0  0  0  0
  3  8  2  0  0  0  0
  3 15  1  0  0  0  0
  4  9  1  0  0  0  0
  4 15  2  0  0  0  0
  5 17  1  0  0  0  0
  6 19  1  0  0  0  0
  7 10  2  0  0  0  0
  7 18  1  0  0  0  0
  8 21  1  0  0  0  0
  9 21  2  0  0  0  0
 10 22  1  0  0  0  0
 11 12  2  0  0  0  0
 11 23  1  0  0  0  0
 12 24  1  0  0  0  0
 13 20  1  0  0  0  0
 13 22  2  0  0  0  0
 14 24  2  0  0  0  0
 14 25  1  0  0  0  0
 15 26  1  0  0  0  0
 16 26  1  0  0  0  0
 16 27  2  0  0  0  0
 16 28  1  0  0  0  0
 17 19  2  0  0  0  0
 17 33  1  0  0  0  0
 18 20  2  0  0  0  0
 18 34  1  0  0  0  0
 19 46  1  0  0  0  0
 20 35  1  0  0  0  0
 21 82  1  0  0  0  0
 22 83  1  0  0  0  0
 23 25  2  0  0  0  0
 23 82  1  0  0  0  0
 24 84  1  0  0  0  0
 25 85  1  0  0  0  0
 26 65  2  0  0  0  0
 27 66  1  0  0  0  0
 27 69  1  0  0  0  0
 28 70  1  0  0  0  0
 28 77  2  0  0  0  0
 29 47  1  0  0  0  0
 29 71  1  0  0  0  0
 29 78  2  0  0  0  0
 30 62  1  0  0  0  0
 30 67  1  0  0  0  0
 30 79  2  0  0  0  0
 31 63  1  0  0  0  0
 31 72  1  0  0  0  0
 31 80  2  0  0  0  0
 32 68  1  0  0  0  0
 32 73  1  0  0  0  0
 32 81  2  0  0  0  0
 33 36  1  0  0  0  0
 34 47  1  0  0  0  0
 35 67  1  0  0  0  0
 36 38  1  0  0  0  0
 37 39  1  0  0  0  0
 37 42  1  0  0  0  0
 38 46  1  0  0  0  0
 39 49  1  0  0  0  0
 40 44  1  0  0  0  0
 40 48  1  0  0  0  0
 41 50  1  0  0  0  0
 41 51  1  0  0  0  0
 42 68  1  0  0  0  0
 43 49  1  0  0  0  0
 43 68  1  0  0  0  0
 44 74  1  0  0  0  0
 45 52  1  0  0  0  0
 45 74  1  0  0  0  0
 46 71  1  0  0  0  0
 47 67  1  0  0  0  0
 48 52  1  0  0  0  0
 48 59  1  0  0  0  0
 49 66  1  0  0  0  0
 50 51  1  0  0  0  0
 50 75  1  0  0  0  0
 51 83  1  0  0  0  0
 52 60  1  0  0  0  0
 52 61  1  0  0  0  0
 53 59  1  0  0  0  0
 54 63  1  0  0  0  0
 55 64  1  0  0  0  0
 56 64  1  0  0  0  0
 57 64  1  0  0  0  0
 58 76  1  0  0  0  0
 60 73  1  0  0  0  0
 61 75  1  0  0  0  0
 62 64  1  0  0  0  0
 62 72  1  0  0  0  0
 63 76  1  0  0  0  0
 65 66  1  0  0  0  0
M  CHG  3  74   1  75   1  76   1
M  ISO  4  32 100  51 101  73 100  83 101
M  END
> <Batch ID>
0125

> <Smiles>
CCC1CCNCC1(CNC1C[101CH:1]1[101O:1]c1ccc2c(c1)CN(C(=O)C(NC(=O)C(C)NC)C(C)(C)C)C(C(=O)NC1CCCc3ccccc31)C2)C[100NH:0][100C:0](=O)N1CCCC(n2nc(-c3ccc(Oc4ccc(F)cc4F)cc3)c(C(N)=O)c2N)C1

> <Shape>
0.297

> <Color>
0.064

> <Negative vol penalty>
0.000

$$$$

  -OEChem-04052320353D

 81 89  0     1  0  0  0  0  0999 V2000
  -31.4082  -27.0096   13.8770 C   0  0  0  0  0  0  0  0  0  0  0  0
  -30.8190  -26.2279   14.8655 C   0  0  0  0  0  0  0  0  0  0  0  0
  -25.2983  -14.3223   20.3080 C   0  0  0  0  0  0  0  0  0  0  0  0
  -26.6894  -12.5444   21.1689 C   0  0  0  0  0  0  0  0  0  0  0  0
  -31.7244  -28.3419   14.1396 C   0  0  0  0  0  0  0  0  0  0  0  0
  -30.5466  -26.7778   16.1177 C   0  0  0  0  0  0  0  0  0  0  0  0
  -25.9368  -25.5507   17.8173 C   0  0  0  0  0  0  0  0  0  0  0  0
  -24.3933  -13.3788   19.8219 C   0  0  0  0  0  0  0  0  0  0  0  0
  -25.7843  -11.6009   20.6827 C   0  0  0  0  0  0  0  0  0  0  0  0
  -25.7742  -24.2730   18.3510 C   0  0  0  0  0  0  0  0  0  0  0  0
  -23.6591   -8.7349   19.9842 C   0  0  0  0  0  0  0  0  0  0  0  0
  -23.3071   -7.6793   20.8253 C   0  0  0  0  0  0  0  0  0  0  0  0
  -25.9466  -25.1874   20.5766 C   0  0  0  0  0  0  0  0  0  0  0  0
  -22.4443   -9.2546   22.4412 C   0  0  0  0  0  0  0  0  0  0  0  0
  -27.0116  -20.1472   19.3404 C   0  0  0  0  0  0  0  0  0  0  0  0
  -29.6392  -20.2356   19.8042 C   0  0  0  0  0  0  0  0  0  0  0  0
  -26.4464  -13.9051   20.9815 C   0  0  0  0  0  0  0  0  0  0  0  0
  -27.3758  -15.4885   22.7525 C   0  0  0  0  0  0  0  0  0  0  0  0
  -31.4470  -28.9111   15.3925 C   0  0  0  0  0  0  0  0  0  0  0  0
  -26.1167  -26.6567   18.6604 C   0  0  0  0  0  0  0  0  0  0  0  0
  -30.8607  -28.1185   16.3977 C   0  0  0  0  0  0  0  0  0  0  0  0
  -26.1087  -26.4784   20.0512 C   0  0  0  0  0  0  0  0  0  0  0  0
  -24.6362  -12.0181   20.0092 C   0  0  0  0  0  0  0  0  0  0  0  0
  -25.7820  -24.0908   19.7308 C   0  0  0  0  0  0  0  0  0  0  0  0
  -23.4038  -10.0503   20.3717 C   0  0  0  0  0  0  0  0  0  0  0  0
  -22.6996   -7.9391   22.0538 C   0  0  0  0  0  0  0  0  0  0  0  0
  -22.7964  -10.3102   21.6001 C   0  0  0  0  0  0  0  0  0  0  0  0
  -27.3819  -14.8792   21.4834 C   0  0  0  0  0  0  0  0  0  0  0  0
  -27.5067  -20.6152   20.5376 C   0  0  0  0  0  0  0  0  0  0  0  0
  -29.1442  -19.7669   18.6072 C   0  0  0  0  0  0  0  0  0  0  0  0
  -28.4621  -16.3289   22.7350 C   0  0  0  0  0  0  0  0  0  0  0  0
  -26.4693  -15.3108   23.8490 C   0  0  0  0  0  0  0  0  0  0  0  0
  -28.4360  -28.7843   19.1052 C   0  0  0  0  0  0  0  0  0  0  0  0
  -26.2645  -30.1572   21.0857 C   0  0  0  0  0  0  0  0  0  0  0  0
  -23.5016  -29.7914   23.0553 C   0  0  0  0  0  0  0  0  0  0  0  0
  -31.3340  -18.7634   17.9081 C   0  0  0  0  0  0  0  0  0  0  0  0
  -31.8502  -30.3423   15.6449 C   0  0  0  0  0  0  0  0  0  0  0  0
  -26.2640  -28.0321   18.0696 C   0  0  0  0  0  0  0  0  0  0  0  0
  -26.2780  -27.6358   21.0000 C   0  0  0  0  0  0  0  0  0  0  0  0
  -31.1863  -30.9540   16.8759 C   0  0  0  0  0  0  0  0  0  0  0  0
  -32.7738  -16.8730   20.7447 C   0  0  0  0  0  0  0  0  0  0  0  0
  -31.2684  -29.9946   18.0590 C   0  0  0  0  0  0  0  0  0  0  0  0
  -31.5623  -16.1335   21.3094 C   0  0  0  0  0  0  0  0  0  0  0  0
  -32.6294  -17.1374   19.2491 C   0  0  0  0  0  0  0  0  0  0  0  0
  -30.1600  -17.1251   19.4569 C   0  0  0  0  0  0  0  0  0  0  0  0
  -30.5271  -28.6859   17.7604 C   0  0  1  0  0  0  0  0  0  0  0  0
  -26.9544  -29.0154   19.0097 C   0  0  1  0  0  0  0  0  0  0  0  0
  -30.2630  -16.8826   20.9701 C   0  0  1  0  0  0  0  0  0  0  0  0
  -30.2354  -21.1354   15.9418 C   0  0  0  0  0  0  0  0  0  0  0  0
  -21.9824  -31.0845   24.5776 C   0  0  0  0  0  0  0  0  0  0  0  0
  -28.3986  -30.0936   23.2655 C   0  0  0  0  0  0  0  0  0  0  0  0
  -26.5896  -30.4877   24.9509 C   0  0  0  0  0  0  0  0  0  0  0  0
  -27.0459  -32.1957   23.1910 C   0  0  0  0  0  0  0  0  0  0  0  0
  -21.1441  -29.2555   21.3484 C   0  0  0  0  0  0  0  0  0  0  0  0
  -26.5695  -21.0919   21.6205 C   0  0  0  0  0  0  0  0  0  0  0  0
  -29.8236  -19.7028   16.2146 C   0  0  0  0  0  0  0  0  0  0  0  0
  -26.2591  -22.5803   21.5047 C   0  0  0  0  0  0  0  0  0  1  0  0
  -25.9190  -30.0254   22.5493 C   0  0  1  0  0  0  0  0  0  0  0  0
  -22.2217  -30.6014   23.1556 C   0  0  2  0  0  0  0  0  0  0  0  0
  -26.9870  -30.6783   23.4716 C   0  0  0  0  0  0  0  0  0  0  0  0
  -28.8294  -20.6681   20.7909 N   0  0  0  0  0  0  0  0  0  0  0  0
  -27.8214  -19.7143   18.3538 N   0  0  0  0  0  0  0  0  0  0  0  0
  -28.3919  -15.2969   20.7157 N   0  0  0  0  0  0  0  0  0  0  0  0
  -29.0305  -16.1779   21.5045 N   0  0  0  0  0  0  0  0  0  0  0  0
  -26.4248  -28.9600   20.3737 N   0  0  0  0  0  0  0  0  0  0  0  0
  -31.3610  -17.7969   18.9343 N   0  0  0  0  0  0  0  0  0  0  0  0
  -28.9769  -17.1749   23.6524 N   0  0  0  0  0  0  0  0  0  0  0  0
  -25.4076  -14.4083   23.6986 N   0  0  0  0  0  0  0  0  0  0  0  0
  -29.0983  -28.8722   17.8957 N   0  0  0  0  0  0  0  0  0  0  0  0
  -24.5778  -30.5784   22.7036 N   0  0  0  0  0  0  0  0  0  0  0  0
  -30.0784  -19.3223   17.6022 N   0  0  0  0  0  0  0  0  0  0  0  0
  -21.0529  -29.7772   22.7363 N   0  3  0  0  0  0  0  0  0  0  0  0
  -26.5875  -15.9460   24.9242 O   0  0  0  0  0  0  0  0  0  0  0  0
  -28.9411  -28.5455   20.1959 O   0  0  0  0  0  0  0  0  0  0  0  0
  -26.3808  -31.2811   20.5907 O   0  0  0  0  0  0  0  0  0  0  0  0
  -23.5434  -28.5822   23.2713 O   0  0  0  0  0  0  0  0  0  0  0  0
  -32.3486  -19.0679   17.2691 O   0  0  0  0  0  0  0  0  0  0  0  0
  -23.7532  -11.0972   19.5352 O   0  0  0  0  0  0  0  0  0  0  0  0
  -25.6242  -22.8447   20.2544 O   0  0  0  0  0  0  0  0  0  1  0  0
  -22.3602   -6.9253   22.8607 F   0  0  0  0  0  0  0  0  0  0  0  0
  -22.5475  -11.5718   21.9772 F   0  0  0  0  0  0  0  0  0  0  0  0
  1  2  1  0  0  0  0
  1  5  2  0  0  0  0
  2  6  2  0  0  0  0
  3  8  2  0  0  0  0
  3 17  1  0  0  0  0
  4  9  1  0  0  0  0
  4 17  2  0  0  0  0
  5 19  1  0  0  0  0
  6 21  1  0  0  0  0
  7 10  2  0  0  0  0
  7 20  1  0  0  0  0
  8 23  1  0  0  0  0
  9 23  2  0  0  0  0
 10 24  1  0  0  0  0
 11 12  2  0  0  0  0
 11 25  1  0  0  0  0
 12 26  1  0  0  0  0
 13 22  1  0  0  0  0
 13 24  2  0  0  0  0
 14 26  2  0  0  0  0
 14 27  1  0  0  0  0
 15 29  2  0  0  0  0
 15 62  1  0  0  0  0
 16 30  1  0  0  0  0
 16 61  2  0  0  0  0
 17 28  1  0  0  0  0
 18 28  1  0  0  0  0
 18 31  2  0  0  0  0
 18 32  1  0  0  0  0
 19 21  2  0  0  0  0
 19 37  1  0  0  0  0
 20 22  2  0  0  0  0
 20 38  1  0  0  0  0
 21 46  1  0  0  0  0
 22 39  1  0  0  0  0
 23 78  1  0  0  0  0
 24 79  1  0  0  0  0
 25 27  2  0  0  0  0
 25 78  1  0  0  0  0
 26 80  1  0  0  0  0
 27 81  1  0  0  0  0
 28 63  2  0  0  0  0
 29 55  1  0  0  0  0
 29 61  1  0  0  0  0
 30 62  2  0  0  0  0
 30 71  1  0  0  0  0
 31 64  1  0  0  0  0
 31 67  1  0  0  0  0
 32 68  1  0  0  0  0
 32 73  2  0  0  0  0
 33 47  1  0  0  0  0
 33 69  1  0  0  0  0
 33 74  2  0  0  0  0
 34 58  1  0  0  0  0
 34 65  1  0  0  0  0
 34 75  2  0  0  0  0
 35 59  1  0  0  0  0
 35 70  1  0  0  0  0
 35 76  2  0  0  0  0
 36 66  1  0  0  0  0
 36 71  1  0  0  0  0
 36 77  2  0  0  0  0
 37 40  1  0  0  0  0
 38 47  1  0  0  0  0
 39 65  1  0  0  0  0
 40 42  1  0  0  0  0
 41 43  1  0  0  0  0
 41 44  1  0  0  0  0
 42 46  1  0  0  0  0
 43 48  1  0  0  0  0
 44 66  1  0  0  0  0
 45 48  1  0  0  0  0
 45 66  1  0  0  0  0
 46 69  1  0  0  0  0
 47 65  1  0  0  0  0
 48 64  1  0  0  0  0
 49 56  1  0  0  0  0
 50 59  1  0  0  0  0
 51 60  1  0  0  0  0
 52 60  1  0  0  0  0
 53 60  1  0  0  0  0
 54 72  1  0  0  0  0
 55 57  1  0  0  0  0
 56 71  1  0  0  0  0
 57 79  1  0  0  0  0
 58 60  1  0  0  0  0
 58 70  1  0  0  0  0
 59 72  1  0  0  0  0
 63 64  1  0  0  0  0
M  CHG  1  72   1
M  ISO  4  36 100  57 101  71 100  79 101
M  END
> <Batch ID>
0125

> <Smiles>
CC[100N:0](c1cnc(C[101CH2:1][101O:1]c2ccc3c(c2)CN(C(=O)C(NC(=O)C(C)NC)C(C)(C)C)C(C(=O)NC2CCCc4ccccc42)C3)cn1)[100C:0](=O)N1CCCC(n2nc(-c3ccc(Oc4ccc(F)cc4F)cc3)c(C(N)=O)c2N)C1

> <Shape>
0.233

> <Color>
0.084

> <Negative vol penalty>
0.000

$$$$

  -OEChem-04052320353D

 82 90  0     1  0  0  0  0  0999 V2000
  -23.6695  -29.8495   21.8632 C   0  0  0  0  0  0  0  0  0  0  0  0
  -22.9996  -28.6473   22.0666 C   0  0  0  0  0  0  0  0  0  0  0  0
  -28.8506  -12.7199   20.9377 C   0  0  0  0  0  0  0  0  0  0  0  0
  -28.1926  -12.7188   18.6131 C   0  0  0  0  0  0  0  0  0  0  0  0
  -24.8468  -29.8726   21.1166 C   0  0  0  0  0  0  0  0  0  0  0  0
  -23.5062  -27.4675   21.5225 C   0  0  0  0  0  0  0  0  0  0  0  0
  -23.2329  -21.8651   23.9810 C   0  0  0  0  0  0  0  0  0  0  0  0
  -17.9893  -16.3989   22.1392 C   0  0  0  0  0  0  0  0  0  0  0  0
  -30.1925  -12.6971   20.5580 C   0  0  0  0  0  0  0  0  0  0  0  0
  -29.5346  -12.6961   18.2333 C   0  0  0  0  0  0  0  0  0  0  0  0
  -22.3773  -20.7861   23.7635 C   0  0  0  0  0  0  0  0  0  0  0  0
  -33.7969  -13.0038   20.1988 C   0  0  0  0  0  0  0  0  0  0  0  0
  -34.6725  -13.8657   20.8593 C   0  0  0  0  0  0  0  0  0  0  0  0
  -18.6658  -17.5740   22.4469 C   0  0  0  0  0  0  0  0  0  0  0  0
  -23.9760  -19.8359   22.2271 C   0  0  0  0  0  0  0  0  0  0  0  0
  -33.3796  -15.7605   20.1008 C   0  0  0  0  0  0  0  0  0  0  0  0
  -19.8316  -15.1719   23.0092 C   0  0  0  0  0  0  0  0  0  0  0  0
  -27.8506  -12.7307   19.9653 C   0  0  0  0  0  0  0  0  0  0  0  0
  -25.6633  -13.8890   20.5829 C   0  0  0  0  0  0  0  0  0  0  0  0
  -25.3731  -28.6910   20.5712 C   0  0  0  0  0  0  0  0  0  0  0  0
  -24.4638  -21.9432   23.3137 C   0  0  0  0  0  0  0  0  0  0  0  0
  -24.6909  -27.4750   20.7668 C   0  0  0  0  0  0  0  0  0  0  0  0
  -24.8465  -20.9157   22.4398 C   0  0  0  0  0  0  0  0  0  0  0  0
  -18.5764  -15.1707   22.4225 C   0  0  0  0  0  0  0  0  0  0  0  0
  -30.5345  -12.6853   19.2057 C   0  0  0  0  0  0  0  0  0  0  0  0
  -22.7474  -19.7727   22.8842 C   0  0  0  0  0  0  0  0  0  0  0  0
  -32.7127  -13.5203   19.4893 C   0  0  0  0  0  0  0  0  0  0  0  0
  -34.4639  -15.2440   20.8103 C   0  0  0  0  0  0  0  0  0  0  0  0
  -32.5041  -14.8986   19.4403 C   0  0  0  0  0  0  0  0  0  0  0  0
  -26.4642  -12.7536   20.3570 C   0  0  0  0  0  0  0  0  0  0  0  0
  -19.9170  -17.4676   23.0326 C   0  0  0  0  0  0  0  0  0  0  0  0
  -24.4357  -13.3799   20.9297 C   0  0  0  0  0  0  0  0  0  0  0  0
  -25.9989  -15.2797   20.4877 C   0  0  0  0  0  0  0  0  0  0  0  0
  -25.7693  -23.9735   21.2456 C   0  0  0  0  0  0  0  0  0  0  0  0
  -28.3963  -22.1213   21.6824 C   0  0  0  0  0  0  0  0  0  0  0  0
  -29.6895  -19.0921   22.5760 C   0  0  0  0  0  0  0  0  0  0  0  0
  -20.2675   -9.7561   20.1298 C   0  0  0  0  0  0  0  0  0  0  0  0
  -26.6233  -28.7731   19.7315 C   0  0  0  0  0  0  0  0  0  0  0  0
  -25.3871  -23.1004   23.5796 C   0  0  0  0  0  0  0  0  0  0  0  0
  -26.1661  -20.9421   21.7142 C   0  0  0  0  0  0  0  0  0  0  0  0
  -27.2946  -27.4210   19.5048 C   0  0  0  0  0  0  0  0  0  0  0  0
  -23.0360   -8.6572   22.0803 C   0  0  0  0  0  0  0  0  0  0  0  0
  -26.2615  -26.3725   19.1044 C   0  0  0  0  0  0  0  0  0  0  0  0
  -24.1100   -9.7148   21.8195 C   0  0  0  0  0  0  0  0  0  0  0  0
  -22.2032   -8.3785   20.8310 C   0  0  0  0  0  0  0  0  0  0  0  0
  -22.6757  -10.6303   19.9478 C   0  0  0  0  0  0  0  0  0  0  0  0
  -25.2221  -26.1705   20.2137 C   0  0  1  0  0  0  0  0  0  0  0  0
  -26.3911  -23.3344   22.4550 C   0  0  1  0  0  0  0  0  0  0  0  0
  -23.5050  -10.9859   21.1936 C   0  0  2  0  0  0  0  0  0  0  0  0
  -31.8692  -17.8685   22.7967 C   0  0  0  0  0  0  0  0  0  0  0  0
  -28.5210  -21.8016   18.6505 C   0  0  0  0  0  0  0  0  0  0  0  0
  -30.0711  -19.8648   18.9884 C   0  0  0  0  0  0  0  0  0  0  0  0
  -30.7384  -22.1427   19.7556 C   0  0  0  0  0  0  0  0  0  0  0  0
  -29.2943  -18.6748   25.4792 C   0  0  0  0  0  0  0  0  0  0  0  0
  -17.8786  -13.8960   22.1052 C   0  0  0  0  0  0  0  0  0  0  0  0
  -20.6755  -18.7151   23.3786 C   0  0  0  0  0  0  0  0  0  1  0  0
  -18.4324  -11.2592   19.4003 C   0  0  0  0  0  0  0  0  0  0  0  0
  -17.7833  -11.8925   20.6167 C   0  0  0  0  0  0  0  0  0  0  0  0
  -28.9517  -20.8815   21.0241 C   0  0  1  0  0  0  0  0  0  0  0  0
  -30.8278  -18.7183   23.5081 C   0  0  2  0  0  0  0  0  0  0  0  0
  -29.5448  -21.1728   19.6167 C   0  0  0  0  0  0  0  0  0  0  0  0
  -20.5195  -16.2926   23.3227 N   0  0  0  0  0  0  0  0  0  0  0  0
  -25.8012  -11.6093   20.5446 N   0  0  0  0  0  0  0  0  0  0  0  0
  -24.5707  -12.0232   20.8923 N   0  0  0  0  0  0  0  0  0  0  0  0
  -27.0315  -22.0977   22.0027 N   0  0  0  0  0  0  0  0  0  0  0  0
  -21.6570   -9.6245   20.2879 N   0  0  0  0  0  0  0  0  0  0  0  0
  -23.2647  -13.9648   21.2602 N   0  0  0  0  0  0  0  0  0  0  0  0
  -27.3054  -15.6280   20.1186 N   0  0  0  0  0  0  0  0  0  0  0  0
  -25.7694  -25.3550   21.2767 N   0  0  0  0  0  0  0  0  0  0  0  0
  -29.9062  -20.3108   21.9683 N   0  0  0  0  0  0  0  0  0  0  0  0
  -19.8331  -10.9712   19.6145 N   0  0  0  0  0  0  0  0  0  0  0  0
  -30.3105  -17.9487   24.6748 N   0  3  0  0  0  0  0  0  0  0  0  0
  -18.4331  -13.1953   20.9121 N   0  3  0  0  0  0  0  0  0  0  0  0
  -25.1696  -16.1867   20.7390 O   0  0  0  0  0  0  0  0  0  0  0  0
  -25.3239  -23.2657   20.3499 O   0  0  0  0  0  0  0  0  0  0  0  0
  -29.1473  -23.0729   21.9106 O   0  0  0  0  0  0  0  0  0  0  0  0
  -28.7080  -18.3732   22.4014 O   0  0  0  0  0  0  0  0  0  0  0  0
  -19.4726   -8.8592   20.4309 O   0  0  0  0  0  0  0  0  0  0  0  0
  -31.8439  -12.6634   18.8348 O   0  0  0  0  0  0  0  0  0  0  0  0
  -21.9139  -18.7186   22.6696 O   0  0  0  0  0  0  0  0  0  1  0  0
  -35.3039  -16.0713   21.4459 F   0  0  0  0  0  0  0  0  0  0  0  0
  -31.4635  -15.4006   18.7613 F   0  0  0  0  0  0  0  0  0  0  0  0
  1  2  1  0  0  0  0
  1  5  2  0  0  0  0
  2  6  2  0  0  0  0
  3  9  2  0  0  0  0
  3 18  1  0  0  0  0
  4 10  1  0  0  0  0
  4 18  2  0  0  0  0
  5 20  1  0  0  0  0
  6 22  1  0  0  0  0
  7 11  2  0  0  0  0
  7 21  1  0  0  0  0
  8 14  2  0  0  0  0
  8 24  1  0  0  0  0
  9 25  1  0  0  0  0
 10 25  2  0  0  0  0
 11 26  1  0  0  0  0
 12 13  2  0  0  0  0
 12 27  1  0  0  0  0
 13 28  1  0  0  0  0
 14 31  1  0  0  0  0
 15 23  1  0  0  0  0
 15 26  2  0  0  0  0
 16 28  2  0  0  0  0
 16 29  1  0  0  0  0
 17 24  2  0  0  0  0
 17 62  1  0  0  0  0
 18 30  1  0  0  0  0
 19 30  1  0  0  0  0
 19 32  2  0  0  0  0
 19 33  1  0  0  0  0
 20 22  2  0  0  0  0
 20 38  1  0  0  0  0
 21 23  2  0  0  0  0
 21 39  1  0  0  0  0
 22 47  1  0  0  0  0
 23 40  1  0  0  0  0
 24 55  1  0  0  0  0
 25 79  1  0  0  0  0
 26 80  1  0  0  0  0
 27 29  2  0  0  0  0
 27 79  1  0  0  0  0
 28 81  1  0  0  0  0
 29 82  1  0  0  0  0
 30 63  2  0  0  0  0
 31 56  1  0  0  0  0
 31 62  2  0  0  0  0
 32 64  1  0  0  0  0
 32 67  1  0  0  0  0
 33 68  1  0  0  0  0
 33 74  2  0  0  0  0
 34 48  1  0  0  0  0
 34 69  1  0  0  0  0
 34 75  2  0  0  0  0
 35 59  1  0  0  0  0
 35 65  1  0  0  0  0
 35 76  2  0  0  0  0
 36 60  1  0  0  0  0
 36 70  1  0  0  0  0
 36 77  2  0  0  0  0
 37 66  1  0  0  0  0
 37 71  1  0  0  0  0
 37 78  2  0  0  0  0
 38 41  1  0  0  0  0
 39 48  1  0  0  0  0
 40 65  1  0  0  0  0
 41 43  1  0  0  0  0
 42 44  1  0  0  0  0
 42 45  1  0  0  0  0
 43 47  1  0  0  0  0
 44 49  1  0  0  0  0
 45 66  1  0  0  0  0
 46 49  1  0  0  0  0
 46 66  1  0  0  0  0
 47 69  1  0  0  0  0
 48 65  1  0  0  0  0
 49 64  1  0  0  0  0
 50 60  1  0  0  0  0
 51 61  1  0  0  0  0
 52 61  1  0  0  0  0
 53 61  1  0  0  0  0
 54 72  1  0  0  0  0
 55 73  1  0  0  0  0
 56 80  1  0  0  0  0
 57 58  1  0  0  0  0
 57 71  1  0  0  0  0
 58 73  1  0  0  0  0
 59 61  1  0  0  0  0
 59 70  1  0  0  0  0
 60 72  1  0  0  0  0
 63 64  1  0  0  0  0
M  CHG  2  72   1  73   1
M  ISO  4  37 100  56 101  71 100  80 101
M  END
> <Batch ID>
0125

> <Smiles>
CNC(C)C(=O)NC(C(=O)N1Cc2cc([101O:1][101CH2:1]c3ccc(CNCC[100NH:0][100C:0](=O)N4CCCC(n5nc(-c6ccc(Oc7ccc(F)cc7F)cc6)c(C(N)=O)c5N)C4)cn3)ccc2CC1C(=O)NC1CCCc2ccccc21)C(C)(C)C

> <Shape>
0.215

> <Color>
0.094

> <Negative vol penalty>
0.000

$$$$

  -OEChem-04052320353D

 87 96  0     1  0  0  0  0  0999 V2000
  -31.5773  -25.3436   14.1792 C   0  0  0  0  0  0  0  0  0  0  0  0
  -30.5734  -24.3965   14.3546 C   0  0  0  0  0  0  0  0  0  0  0  0
  -25.3539  -19.3398   26.9929 C   0  0  0  0  0  0  0  0  0  0  0  0
  -28.3535  -16.9153   21.1054 C   0  0  0  0  0  0  0  0  0  0  0  0
  -26.8060  -17.5527   19.3630 C   0  0  0  0  0  0  0  0  0  0  0  0
  -32.0386  -26.0789   15.2703 C   0  0  0  0  0  0  0  0  0  0  0  0
  -30.0309  -24.1836   15.6214 C   0  0  0  0  0  0  0  0  0  0  0  0
  -24.5590  -18.3742   27.6104 C   0  0  0  0  0  0  0  0  0  0  0  0
  -23.8776  -22.4140   18.8342 C   0  0  0  0  0  0  0  0  0  0  0  0
  -25.2903  -19.5158   25.6106 C   0  0  0  0  0  0  0  0  0  0  0  0
  -28.9771  -18.1590   21.0066 C   0  0  0  0  0  0  0  0  0  0  0  0
  -27.4296  -18.7965   19.2643 C   0  0  0  0  0  0  0  0  0  0  0  0
  -23.3692  -21.5056   19.7616 C   0  0  0  0  0  0  0  0  0  0  0  0
  -28.4037  -21.3230   22.0522 C   0  0  0  0  0  0  0  0  0  0  0  0
  -28.7056  -21.9928   23.2379 C   0  0  0  0  0  0  0  0  0  0  0  0
  -23.6369  -17.7603   25.4633 C   0  0  0  0  0  0  0  0  0  0  0  0
  -24.1889  -22.8905   21.5586 C   0  0  0  0  0  0  0  0  0  0  0  0
  -31.0496  -21.9722   22.6526 C   0  0  0  0  0  0  0  0  0  0  0  0
  -27.2680  -16.6121   20.2835 C   0  0  0  0  0  0  0  0  0  0  0  0
  -27.2099  -14.0638   20.1791 C   0  0  0  0  0  0  0  0  0  0  0  0
  -23.7005  -17.5844   26.8456 C   0  0  0  0  0  0  0  0  0  0  0  0
  -31.4948  -25.8816   16.5493 C   0  0  0  0  0  0  0  0  0  0  0  0
  -24.5562  -23.5640   19.2627 C   0  0  0  0  0  0  0  0  0  0  0  0
  -30.4863  -24.9160   16.7308 C   0  0  0  0  0  0  0  0  0  0  0  0
  -24.7028  -23.8132   20.6347 C   0  0  0  0  0  0  0  0  0  0  0  0
  -28.5151  -19.0997   20.0861 C   0  0  0  0  0  0  0  0  0  0  0  0
  -24.4318  -18.7260   24.8458 C   0  0  0  0  0  0  0  0  0  0  0  0
  -23.5273  -21.7423   21.1239 C   0  0  0  0  0  0  0  0  0  0  0  0
  -29.4247  -20.9778   21.1667 C   0  0  0  0  0  0  0  0  0  0  0  0
  -30.0285  -22.3174   23.5381 C   0  0  0  0  0  0  0  0  0  0  0  0
  -30.7476  -21.3024   21.4669 C   0  0  0  0  0  0  0  0  0  0  0  0
  -26.6238  -15.3272   20.3847 C   0  0  0  0  0  0  0  0  0  0  0  0
  -26.1875  -13.1721   20.3934 C   0  0  0  0  0  0  0  0  0  0  0  0
  -28.5580  -13.7266   19.8262 C   0  0  0  0  0  0  0  0  0  0  0  0
  -27.5060  -24.6924   18.9035 C   0  0  0  0  0  0  0  0  0  0  0  0
  -26.2760  -27.2918   20.4044 C   0  0  0  0  0  0  0  0  0  0  0  0
  -23.8971  -28.5805   22.4846 C   0  0  0  0  0  0  0  0  0  0  0  0
  -21.1264  -13.4601   23.5798 C   0  0  0  0  0  0  0  0  0  0  0  0
  -32.0588  -26.6669   17.7069 C   0  0  0  0  0  0  0  0  0  0  0  0
  -25.0754  -24.5476   18.2501 C   0  0  0  0  0  0  0  0  0  0  0  0
  -25.4056  -25.0430   21.1467 C   0  0  0  0  0  0  0  0  0  0  0  0
  -31.1699  -26.6459   18.9478 C   0  0  0  0  0  0  0  0  0  0  0  0
  -21.4276  -12.7906   20.0958 C   0  0  0  0  0  0  0  0  0  0  0  0
  -21.3476  -16.8179   27.2709 C   0  0  0  0  0  0  0  0  0  0  0  0
  -30.6972  -25.2257   19.2419 C   0  0  0  0  0  0  0  0  0  0  0  0
  -20.8255  -15.6186   26.4872 C   0  0  0  0  0  0  0  0  0  0  0  0
  -22.8464  -13.2508   19.7563 C   0  0  0  0  0  0  0  0  0  0  0  0
  -20.7753  -13.6954   21.1389 C   0  0  0  0  0  0  0  0  0  0  0  0
  -22.9783  -14.3424   22.0343 C   0  0  0  0  0  0  0  0  0  0  0  0
  -22.8511  -16.5517   27.5059 C   0  0  1  0  0  0  0  0  0  0  0  0
  -29.8556  -24.6738   18.0849 C   0  0  1  0  0  0  0  0  0  0  0  0
  -26.1993  -25.4256   18.7916 C   0  0  1  0  0  0  0  0  0  0  0  0
  -21.7367  -14.4740   26.9224 C   0  0  2  0  0  0  0  0  0  0  0  0
  -23.1204  -15.1412   26.9215 C   0  0  2  0  0  0  0  0  0  0  0  0
  -23.6977  -13.4283   21.0279 C   0  0  2  0  0  0  0  0  0  0  0  0
  -24.1626  -14.3679   27.7212 C   0  0  0  0  0  0  0  0  0  0  0  0
  -23.1724  -30.7313   23.5551 C   0  0  0  0  0  0  0  0  0  0  0  0
  -28.5674  -27.0646   22.4064 C   0  0  0  0  0  0  0  0  0  0  0  0
  -27.2897  -28.5807   23.9351 C   0  0  0  0  0  0  0  0  0  0  0  0
  -28.0285  -29.4019   21.6985 C   0  0  0  0  0  0  0  0  0  0  0  0
  -21.2653  -28.5012   21.1332 C   0  0  0  0  0  0  0  0  0  0  0  0
  -21.6340  -13.2676   26.0014 C   0  0  0  0  0  0  0  0  0  0  0  0
  -23.1246  -18.6096   22.8625 C   0  0  0  0  0  0  0  0  0  0  0  0
  -22.9713  -19.4872   21.6353 C   0  0  0  0  0  0  0  0  0  1  0  0
  -26.1374  -27.7300   21.8424 C   0  0  1  0  0  0  0  0  0  0  0  0
  -23.0070  -29.8040   22.3612 C   0  0  2  0  0  0  0  0  0  0  0  0
  -27.4941  -28.1701   22.4613 C   0  0  0  0  0  0  0  0  0  0  0  0
  -25.3294  -15.2492   20.7048 N   0  0  0  0  0  0  0  0  0  0  0  0
  -25.0937  -13.9261   20.7019 N   0  0  0  0  0  0  0  0  0  0  0  0
  -25.9012  -25.9716   20.1173 N   0  0  0  0  0  0  0  0  0  0  0  0
  -21.6326  -13.8206   22.3201 N   0  0  0  0  0  0  0  0  0  0  0  0
  -26.1264  -11.8243   20.3460 N   0  0  0  0  0  0  0  0  0  0  0  0
  -28.8876  -13.6251   18.4677 N   0  0  0  0  0  0  0  0  0  0  0  0
  -28.5175  -25.2235   18.1261 N   0  0  0  0  0  0  0  0  0  0  0  0
  -25.1103  -28.7661   21.8561 N   0  0  0  0  0  0  0  0  0  0  0  0
  -22.0067  -13.6034   24.6453 N   0  0  0  0  0  0  0  0  0  0  0  0
  -21.5758  -29.3970   22.2769 N   0  3  0  0  0  0  0  0  0  0  0  0
  -29.4402  -13.5052   20.6901 O   0  0  0  0  0  0  0  0  0  0  0  0
  -27.5908  -23.7180   19.6417 O   0  0  0  0  0  0  0  0  0  0  0  0
  -26.6945  -28.0935   19.5655 O   0  0  0  0  0  0  0  0  0  0  0  0
  -23.5522  -27.5634   23.0820 O   0  0  0  0  0  0  0  0  0  0  0  0
  -19.9770  -13.0366   23.7420 O   0  0  0  0  0  0  0  0  0  0  0  0
  -29.1232  -20.3136   19.9896 O   0  0  0  0  0  0  0  0  0  0  0  0
  -24.3688  -18.8993   23.4882 O   0  0  0  0  0  0  0  0  0  0  0  0
  -23.0326  -20.8569   22.0312 O   0  0  0  0  0  0  0  0  0  1  0  0
  -30.3182  -22.9619   24.6760 F   0  0  0  0  0  0  0  0  0  0  0  0
  -31.7326  -20.9744   20.6196 F   0  0  0  0  0  0  0  0  0  0  0  0
  1  2  1  0  0  0  0
  1  6  2  0  0  0  0
  2  7  2  0  0  0  0
  3  8  1  0  0  0  0
  3 10  2  0  0  0  0
  4 11  2  0  0  0  0
  4 19  1  0  0  0  0
  5 12  1  0  0  0  0
  5 19  2  0  0  0  0
  6 22  1  0  0  0  0
  7 24  1  0  0  0  0
  8 21  2  0  0  0  0
  9 13  2  0  0  0  0
  9 23  1  0  0  0  0
 10 27  1  0  0  0  0
 11 26  1  0  0  0  0
 12 26  2  0  0  0  0
 13 28  1  0  0  0  0
 14 15  2  0  0  0  0
 14 29  1  0  0  0  0
 15 30  1  0  0  0  0
 16 21  1  0  0  0  0
 16 27  2  0  0  0  0
 17 25  1  0  0  0  0
 17 28  2  0  0  0  0
 18 30  2  0  0  0  0
 18 31  1  0  0  0  0
 19 32  1  0  0  0  0
 20 32  1  0  0  0  0
 20 33  2  0  0  0  0
 20 34  1  0  0  0  0
 21 50  1  0  0  0  0
 22 24  2  0  0  0  0
 22 39  1  0  0  0  0
 23 25  2  0  0  0  0
 23 40  1  0  0  0  0
 24 51  1  0  0  0  0
 25 41  1  0  0  0  0
 26 83  1  0  0  0  0
 27 84  1  0  0  0  0
 28 85  1  0  0  0  0
 29 31  2  0  0  0  0
 29 83  1  0  0  0  0
 30 86  1  0  0  0  0
 31 87  1  0  0  0  0
 32 68  2  0  0  0  0
 33 69  1  0  0  0  0
 33 72  1  0  0  0  0
 34 73  1  0  0  0  0
 34 78  2  0  0  0  0
 35 52  1  0  0  0  0
 35 74  1  0  0  0  0
 35 79  2  0  0  0  0
 36 65  1  0  0  0  0
 36 70  1  0  0  0  0
 36 80  2  0  0  0  0
 37 66  1  0  0  0  0
 37 75  1  0  0  0  0
 37 81  2  0  0  0  0
 38 71  1  0  0  0  0
 38 76  1  0  0  0  0
 38 82  2  0  0  0  0
 39 42  1  0  0  0  0
 40 52  1  0  0  0  0
 41 70  1  0  0  0  0
 42 45  1  0  0  0  0
 43 47  1  0  0  0  0
 43 48  1  0  0  0  0
 44 46  1  0  0  0  0
 44 50  1  0  0  0  0
 45 51  1  0  0  0  0
 46 53  1  0  0  0  0
 47 55  1  0  0  0  0
 48 71  1  0  0  0  0
 49 55  1  0  0  0  0
 49 71  1  0  0  0  0
 50 54  1  0  0  0  0
 51 74  1  0  0  0  0
 52 70  1  0  0  0  0
 53 54  1  0  0  0  0
 53 62  1  0  0  0  0
 54 56  1  0  0  0  0
 55 69  1  0  0  0  0
 57 66  1  0  0  0  0
 58 67  1  0  0  0  0
 59 67  1  0  0  0  0
 60 67  1  0  0  0  0
 61 77  1  0  0  0  0
 62 76  1  0  0  0  0
 63 64  1  0  0  0  0
 63 84  1  0  0  0  0
 64 85  1  0  0  0  0
 65 67  1  0  0  0  0
 65 75  1  0  0  0  0
 66 77  1  0  0  0  0
 68 69  1  0  0  0  0
M  CHG  1  77   1
M  ISO  4  38 100  64 101  76 100  85 101
M  END
> <Batch ID>
0125

> <Smiles>
CNC(C)C(=O)NC(C(=O)N1Cc2cc([101O:1][101CH2:1]COc3cccc(C4CCC(C[100NH:0][100C:0](=O)N5CCCC(n6nc(-c7ccc(Oc8ccc(F)cc8F)cc7)c(C(N)=O)c6N)C5)C4C)c3)ccc2CC1C(=O)NC1CCCc2ccccc21)C(C)(C)C

> <Shape>
0.196

> <Color>
0.076

> <Negative vol penalty>
0.000

$$$$

  -OEChem-04052320353D

 85 93  0     1  0  0  0  0  0999 V2000
  -19.5986  -32.3004   21.8897 C   0  0  0  0  0  0  0  0  0  0  0  0
  -20.5259  -31.3012   21.6121 C   0  0  0  0  0  0  0  0  0  0  0  0
  -23.0709   -9.7966   19.9772 C   0  0  0  0  0  0  0  0  0  0  0  0
  -23.6791   -9.9930   22.3072 C   0  0  0  0  0  0  0  0  0  0  0  0
  -18.4476  -31.9993   22.6166 C   0  0  0  0  0  0  0  0  0  0  0  0
  -20.3033  -30.0004   22.0622 C   0  0  0  0  0  0  0  0  0  0  0  0
  -21.8516  -24.8039   19.2153 C   0  0  0  0  0  0  0  0  0  0  0  0
  -26.3958  -20.2914   18.9169 C   0  0  0  0  0  0  0  0  0  0  0  0
  -22.3175   -8.6598   20.2697 C   0  0  0  0  0  0  0  0  0  0  0  0
  -22.9256   -8.8562   22.5996 C   0  0  0  0  0  0  0  0  0  0  0  0
  -22.9317  -23.9359   19.3693 C   0  0  0  0  0  0  0  0  0  0  0  0
  -23.2673   -5.5034   22.3293 C   0  0  0  0  0  0  0  0  0  0  0  0
  -23.8392   -4.5443   23.1653 C   0  0  0  0  0  0  0  0  0  0  0  0
  -27.3454  -19.3081   19.1711 C   0  0  0  0  0  0  0  0  0  0  0  0
  -21.5937  -22.5358   20.8075 C   0  0  0  0  0  0  0  0  0  0  0  0
  -22.0290   -4.8363   24.7385 C   0  0  0  0  0  0  0  0  0  0  0  0
  -23.7517  -10.4632   20.9960 C   0  0  0  0  0  0  0  0  0  0  0  0
  -24.0893  -12.9741   20.6971 C   0  0  0  0  0  0  0  0  0  0  0  0
  -18.2060  -30.6920   23.0676 C   0  0  0  0  0  0  0  0  0  0  0  0
  -20.6358  -24.5497   19.8661 C   0  0  0  0  0  0  0  0  0  0  0  0
  -19.1486  -29.6817   22.7970 C   0  0  0  0  0  0  0  0  0  0  0  0
  -20.4989  -23.4008   20.6581 C   0  0  0  0  0  0  0  0  0  0  0  0
  -26.0869  -21.2229   19.9019 C   0  0  0  0  0  0  0  0  0  0  0  0
  -22.2448   -8.1896   21.5809 C   0  0  0  0  0  0  0  0  0  0  0  0
  -22.8038  -22.8032   20.1678 C   0  0  0  0  0  0  0  0  0  0  0  0
  -22.0764   -6.1290   22.6980 C   0  0  0  0  0  0  0  0  0  0  0  0
  -23.2200   -4.2108   24.3698 C   0  0  0  0  0  0  0  0  0  0  0  0
  -21.4572   -5.7954   23.9026 C   0  0  0  0  0  0  0  0  0  0  0  0
  -24.5307  -11.6373   20.6944 C   0  0  0  0  0  0  0  0  0  0  0  0
  -26.7506  -21.1288   21.1145 C   0  0  0  0  0  0  0  0  0  0  0  0
  -27.9529  -19.2998   20.4164 C   0  0  0  0  0  0  0  0  0  0  0  0
  -25.1995  -13.7029   20.3468 C   0  0  0  0  0  0  0  0  0  0  0  0
  -22.7918  -13.5092   20.9903 C   0  0  0  0  0  0  0  0  0  0  0  0
  -18.9006  -26.0711   22.0520 C   0  0  0  0  0  0  0  0  0  0  0  0
  -16.7676  -23.7048   21.4413 C   0  0  0  0  0  0  0  0  0  0  0  0
  -16.2023  -20.5341   20.3128 C   0  0  0  0  0  0  0  0  0  0  0  0
  -30.6545  -14.7869   20.8084 C   0  0  0  0  0  0  0  0  0  0  0  0
  -16.9706  -30.4246   23.8904 C   0  0  0  0  0  0  0  0  0  0  0  0
  -19.4718  -25.4816   19.6683 C   0  0  0  0  0  0  0  0  0  0  0  0
  -19.2086  -23.0719   21.3620 C   0  0  0  0  0  0  0  0  0  0  0  0
  -16.6270  -28.9420   24.0091 C   0  0  0  0  0  0  0  0  0  0  0  0
  -29.6863  -12.2095   18.5509 C   0  0  0  0  0  0  0  0  0  0  0  0
  -17.8729  -28.1309   24.3505 C   0  0  0  0  0  0  0  0  0  0  0  0
  -28.2249  -11.9372   18.9118 C   0  0  0  0  0  0  0  0  0  0  0  0
  -30.5219  -12.5339   19.7873 C   0  0  0  0  0  0  0  0  0  0  0  0
  -28.5302  -13.3542   20.9848 C   0  0  0  0  0  0  0  0  0  0  0  0
  -18.9305  -28.2534   23.2469 C   0  0  1  0  0  0  0  0  0  0  0  0
  -18.4414  -25.3971   20.7901 C   0  0  1  0  0  0  0  0  0  0  0  0
  -27.6360  -13.0772   19.7642 C   0  0  2  0  0  0  0  0  0  0  0  0
  -27.6913  -22.9423   22.5909 C   0  0  0  0  0  0  0  0  0  0  0  0
  -25.8815  -21.4193   23.4628 C   0  0  0  0  0  0  0  0  0  0  0  0
  -14.3607  -18.8643   19.9696 C   0  0  0  0  0  0  0  0  0  0  0  0
  -31.4116  -16.8986   23.1748 C   0  0  0  0  0  0  0  0  0  0  0  0
  -16.7206  -23.1440   24.4401 C   0  0  0  0  0  0  0  0  0  0  0  0
  -15.6551  -20.9344   23.9396 C   0  0  0  0  0  0  0  0  0  0  0  0
  -14.4836  -23.0495   23.3260 C   0  0  0  0  0  0  0  0  0  0  0  0
  -16.6815  -20.4316   17.3941 C   0  0  0  0  0  0  0  0  0  0  0  0
  -25.0627  -22.2861   19.6334 C   0  0  0  0  0  0  0  0  0  1  0  0
  -29.6145  -18.1755   21.8998 C   0  0  0  0  0  0  0  0  0  0  0  0
  -26.4589  -22.1020   22.2095 C   0  0  0  0  0  0  0  0  0  0  0  0
  -16.5112  -22.3261   22.0002 C   0  0  1  0  0  0  0  0  0  0  0  0
  -15.1795  -19.9792   19.3378 C   0  0  2  0  0  0  0  0  0  0  0  0
  -30.6296  -17.0294   21.8714 C   0  0  2  0  0  0  0  0  0  0  0  0
  -15.8677  -22.3704   23.4149 C   0  0  0  0  0  0  0  0  0  0  0  0
  -25.8206  -11.5208   20.3680 N   0  0  0  0  0  0  0  0  0  0  0  0
  -27.6789  -20.1878   21.3982 N   0  0  0  0  0  0  0  0  0  0  0  0
  -26.1993  -12.7938   20.1623 N   0  0  0  0  0  0  0  0  0  0  0  0
  -18.1014  -24.0171   21.1425 N   0  0  0  0  0  0  0  0  0  0  0  0
  -29.9099  -13.6241   20.5508 N   0  0  0  0  0  0  0  0  0  0  0  0
  -25.4082  -15.0264   20.1815 N   0  0  0  0  0  0  0  0  0  0  0  0
  -21.7641  -12.6198   21.3327 N   0  0  0  0  0  0  0  0  0  0  0  0
  -28.9187  -18.2918   20.6599 N   0  0  0  0  0  0  0  0  0  0  0  0
  -18.5841  -27.4145   22.1196 N   0  0  0  0  0  0  0  0  0  0  0  0
  -15.7124  -21.6231   21.0022 N   0  0  0  0  0  0  0  0  0  0  0  0
  -29.9974  -15.7738   21.5330 N   0  0  0  0  0  0  0  0  0  0  0  0
  -15.8589  -19.4357   18.1279 N   0  3  0  0  0  0  0  0  0  0  0  0
  -22.5468  -14.7381   20.9337 O   0  0  0  0  0  0  0  0  0  0  0  0
  -19.4967  -25.4202   22.9022 O   0  0  0  0  0  0  0  0  0  0  0  0
  -15.8185  -24.4737   21.2692 O   0  0  0  0  0  0  0  0  0  0  0  0
  -17.3224  -20.0476   20.4517 O   0  0  0  0  0  0  0  0  0  0  0  0
  -31.8169  -14.9368   20.4169 O   0  0  0  0  0  0  0  0  0  0  0  0
  -21.5095   -7.0804   21.8667 O   0  0  0  0  0  0  0  0  0  0  0  0
  -23.8567  -21.9547   20.3204 O   0  0  0  0  0  0  0  0  0  1  0  0
  -23.7684   -3.2886   25.1718 F   0  0  0  0  0  0  0  0  0  0  0  0
  -20.3123   -6.3922   24.2616 F   0  0  0  0  0  0  0  0  0  0  0  0
  1  2  1  0  0  0  0
  1  5  2  0  0  0  0
  2  6  2  0  0  0  0
  3  9  2  0  0  0  0
  3 17  1  0  0  0  0
  4 10  1  0  0  0  0
  4 17  2  0  0  0  0
  5 19  1  0  0  0  0
  6 21  1  0  0  0  0
  7 11  2  0  0  0  0
  7 20  1  0  0  0  0
  8 14  2  0  0  0  0
  8 23  1  0  0  0  0
  9 24  1  0  0  0  0
 10 24  2  0  0  0  0
 11 25  1  0  0  0  0
 12 13  2  0  0  0  0
 12 26  1  0  0  0  0
 13 27  1  0  0  0  0
 14 31  1  0  0  0  0
 15 22  1  0  0  0  0
 15 25  2  0  0  0  0
 16 27  2  0  0  0  0
 16 28  1  0  0  0  0
 17 29  1  0  0  0  0
 18 29  1  0  0  0  0
 18 32  2  0  0  0  0
 18 33  1  0  0  0  0
 19 21  2  0  0  0  0
 19 38  1  0  0  0  0
 20 22  2  0  0  0  0
 20 39  1  0  0  0  0
 21 47  1  0  0  0  0
 22 40  1  0  0  0  0
 23 30  2  0  0  0  0
 23 58  1  0  0  0  0
 24 82  1  0  0  0  0
 25 83  1  0  0  0  0
 26 28  2  0  0  0  0
 26 82  1  0  0  0  0
 27 84  1  0  0  0  0
 28 85  1  0  0  0  0
 29 65  2  0  0  0  0
 30 60  1  0  0  0  0
 30 66  1  0  0  0  0
 31 66  2  0  0  0  0
 31 72  1  0  0  0  0
 32 67  1  0  0  0  0
 32 70  1  0  0  0  0
 33 71  1  0  0  0  0
 33 77  2  0  0  0  0
 34 48  1  0  0  0  0
 34 73  1  0  0  0  0
 34 78  2  0  0  0  0
 35 61  1  0  0  0  0
 35 68  1  0  0  0  0
 35 79  2  0  0  0  0
 36 62  1  0  0  0  0
 36 74  1  0  0  0  0
 36 80  2  0  0  0  0
 37 69  1  0  0  0  0
 37 75  1  0  0  0  0
 37 81  2  0  0  0  0
 38 41  1  0  0  0  0
 39 48  1  0  0  0  0
 40 68  1  0  0  0  0
 41 43  1  0  0  0  0
 42 44  1  0  0  0  0
 42 45  1  0  0  0  0
 43 47  1  0  0  0  0
 44 49  1  0  0  0  0
 45 69  1  0  0  0  0
 46 49  1  0  0  0  0
 46 69  1  0  0  0  0
 47 73  1  0  0  0  0
 48 68  1  0  0  0  0
 49 67  1  0  0  0  0
 50 60  1  0  0  0  0
 51 60  1  0  0  0  0
 52 62  1  0  0  0  0
 53 63  1  0  0  0  0
 54 64  1  0  0  0  0
 55 64  1  0  0  0  0
 56 64  1  0  0  0  0
 57 76  1  0  0  0  0
 58 83  1  0  0  0  0
 59 63  1  0  0  0  0
 59 72  1  0  0  0  0
 61 64  1  0  0  0  0
 61 74  1  0  0  0  0
 62 76  1  0  0  0  0
 63 75  1  0  0  0  0
 65 67  1  0  0  0  0
M  CHG  1  76   1
M  ISO  4  37 100  58 101  75 100  83 101
M  END
> <Batch ID>
0125

> <Smiles>
CNC(C)C(=O)NC(C(=O)N1Cc2cc([101O:1][101CH2:1]c3ccc(NCC(C)[100NH:0][100C:0](=O)N4CCCC(n5nc(-c6ccc(Oc7ccc(F)cc7F)cc6)c(C(N)=O)c5N)C4)nc3C(C)C)ccc2CC1C(=O)NC1CCCc2ccccc21)C(C)(C)C

> <Shape>
0.268

> <Color>
0.213

> <Negative vol penalty>
0.000

$$$$

  -OEChem-04052320353D

 82 90  0     1  0  0  0  0  0999 V2000
  -27.6891  -23.6290   14.8737 C   0  0  0  0  0  0  0  0  0  0  0  0
  -26.6170  -23.8983   15.7183 C   0  0  0  0  0  0  0  0  0  0  0  0
  -27.8761  -14.3694   21.5929 C   0  0  0  0  0  0  0  0  0  0  0  0
  -26.6503  -14.9671   19.5986 C   0  0  0  0  0  0  0  0  0  0  0  0
  -28.9950  -23.7441   15.3483 C   0  0  0  0  0  0  0  0  0  0  0  0
  -26.8502  -24.2818   17.0386 C   0  0  0  0  0  0  0  0  0  0  0  0
  -23.9607  -28.1879   18.4662 C   0  0  0  0  0  0  0  0  0  0  0  0
  -27.3099  -13.0952   21.5591 C   0  0  0  0  0  0  0  0  0  0  0  0
  -26.0841  -13.6928   19.5647 C   0  0  0  0  0  0  0  0  0  0  0  0
  -22.6324  -27.9131   18.7882 C   0  0  0  0  0  0  0  0  0  0  0  0
  -24.0393  -10.7158   19.1570 C   0  0  0  0  0  0  0  0  0  0  0  0
  -22.6696  -10.6213   18.9109 C   0  0  0  0  0  0  0  0  0  0  0  0
  -23.1989  -27.9529   21.1327 C   0  0  0  0  0  0  0  0  0  0  0  0
  -20.0224  -22.7125   20.3450 C   0  0  0  0  0  0  0  0  0  0  0  0
  -21.9535  -24.1303   20.5578 C   0  0  0  0  0  0  0  0  0  0  0  0
  -22.2236  -11.9349   20.8890 C   0  0  0  0  0  0  0  0  0  0  0  0
  -27.5463  -15.3055   20.6127 C   0  0  0  0  0  0  0  0  0  0  0  0
  -29.3283  -17.0371   20.0353 C   0  0  0  0  0  0  0  0  0  0  0  0
  -29.2445  -24.1386   16.6723 C   0  0  0  0  0  0  0  0  0  0  0  0
  -24.9219  -28.3368   19.4763 C   0  0  0  0  0  0  0  0  0  0  0  0
  -28.1606  -24.4010   17.5317 C   0  0  0  0  0  0  0  0  0  0  0  0
  -24.5382  -28.2322   20.8209 C   0  0  0  0  0  0  0  0  0  0  0  0
  -20.5879  -23.9258   20.7211 C   0  0  0  0  0  0  0  0  0  0  0  0
  -26.4139  -12.7568   20.5450 C   0  0  0  0  0  0  0  0  0  0  0  0
  -22.2518  -27.7927   20.1216 C   0  0  0  0  0  0  0  0  0  0  0  0
  -24.5012  -11.4198   20.2691 C   0  0  0  0  0  0  0  0  0  0  0  0
  -21.7617  -11.2309   19.7768 C   0  0  0  0  0  0  0  0  0  0  0  0
  -23.5933  -12.0293   21.1350 C   0  0  0  0  0  0  0  0  0  0  0  0
  -28.1305  -16.6221   20.6474 C   0  0  0  0  0  0  0  0  0  0  0  0
  -20.8591  -21.7437   19.8148 C   0  0  0  0  0  0  0  0  0  0  0  0
  -22.7038  -23.0980   20.0182 C   0  0  0  0  0  0  0  0  0  0  0  0
  -29.4396  -18.3660   20.3641 C   0  0  0  0  0  0  0  0  0  0  0  0
  -30.2574  -16.2883   19.2404 C   0  0  0  0  0  0  0  0  0  0  0  0
  -27.5863  -26.8016   20.2813 C   0  0  0  0  0  0  0  0  0  0  0  0
  -27.8661  -29.2170   22.4284 C   0  0  0  0  0  0  0  0  0  0  0  0
  -26.3330  -31.6382   24.2815 C   0  0  0  0  0  0  0  0  0  0  0  0
  -25.4208  -22.5497   21.8466 C   0  0  0  0  0  0  0  0  0  0  0  0
  -30.6723  -24.2033   17.1536 C   0  0  0  0  0  0  0  0  0  0  0  0
  -26.3454  -28.6596   19.1133 C   0  0  0  0  0  0  0  0  0  0  0  0
  -25.5277  -28.4033   21.9435 C   0  0  0  0  0  0  0  0  0  0  0  0
  -30.8408  -24.9781   18.4581 C   0  0  0  0  0  0  0  0  0  0  0  0
  -28.2225  -21.4942   23.7735 C   0  0  0  0  0  0  0  0  0  0  0  0
  -29.7883  -24.5472   19.4746 C   0  0  0  0  0  0  0  0  0  0  0  0
  -28.6247  -20.1633   23.1356 C   0  0  0  0  0  0  0  0  0  0  0  0
  -26.7071  -21.6828   23.7780 C   0  0  0  0  0  0  0  0  0  0  0  0
  -26.4627  -20.2023   21.8230 C   0  0  0  0  0  0  0  0  0  0  0  0
  -28.3734  -24.8436   18.9631 C   0  0  1  0  0  0  0  0  0  0  0  0
  -27.3410  -28.2821   20.2058 C   0  0  1  0  0  0  0  0  0  0  0  0
  -27.9846  -19.9920   21.7449 C   0  0  2  0  0  0  0  0  0  0  0  0
  -20.2868  -20.4300   19.3986 C   0  0  0  0  0  0  0  0  0  0  0  0
  -26.8184  -33.4287   25.9715 C   0  0  0  0  0  0  0  0  0  0  0  0
  -28.1560  -27.0892   24.5960 C   0  0  0  0  0  0  0  0  0  0  0  0
  -27.6832  -28.8608   26.3006 C   0  0  0  0  0  0  0  0  0  0  0  0
  -29.6971  -29.0436   24.8400 C   0  0  0  0  0  0  0  0  0  0  0  0
  -25.3382  -33.7676   22.4829 C   0  0  0  0  0  0  0  0  0  0  0  0
  -19.7236  -25.0158   21.3028 C   0  0  0  0  0  0  0  0  0  0  0  0
  -24.1726  -23.2822   19.8305 C   0  0  0  0  0  0  0  0  0  0  0  0
  -19.1410  -25.9656   20.2539 C   0  0  0  0  0  0  0  0  0  0  0  0
  -20.2033  -26.7570   19.4997 C   0  0  0  0  0  0  0  0  0  1  0  0
  -27.4062  -29.4439   23.8482 C   0  0  1  0  0  0  0  0  0  0  0  0
  -26.6632  -33.1046   24.4938 C   0  0  2  0  0  0  0  0  0  0  0  0
  -28.2171  -28.6042   24.8752 C   0  0  0  0  0  0  0  0  0  0  0  0
  -27.5242  -17.6075   21.3148 N   0  0  0  0  0  0  0  0  0  0  0  0
  -22.1900  -21.9057   19.6410 N   0  0  0  0  0  0  0  0  0  0  0  0
  -28.3444  -18.6549   21.1240 N   0  0  0  0  0  0  0  0  0  0  0  0
  -26.9088  -28.7117   21.5373 N   0  0  0  0  0  0  0  0  0  0  0  0
  -26.1627  -21.5089   22.4292 N   0  0  0  0  0  0  0  0  0  0  0  0
  -30.3664  -19.3039   20.0747 N   0  0  0  0  0  0  0  0  0  0  0  0
  -29.9905  -14.9337   18.9994 N   0  0  0  0  0  0  0  0  0  0  0  0
  -28.0677  -26.2506   19.1090 N   0  0  0  0  0  0  0  0  0  0  0  0
  -27.4683  -30.8842   24.0722 N   0  0  0  0  0  0  0  0  0  0  0  0
  -24.9466  -22.3053   20.5636 N   0  0  0  0  0  0  0  0  0  0  0  0
  -25.5823  -33.9651   23.9349 N   0  3  0  0  0  0  0  0  0  0  0  0
  -31.3019  -16.8011   18.7718 O   0  0  0  0  0  0  0  0  0  0  0  0
  -27.3572  -26.2037   21.3261 O   0  0  0  0  0  0  0  0  0  0  0  0
  -29.0299  -29.4851   22.1195 O   0  0  0  0  0  0  0  0  0  0  0  0
  -25.1833  -31.2044   24.3033 O   0  0  0  0  0  0  0  0  0  0  0  0
  -25.2021  -23.6197   22.4248 O   0  0  0  0  0  0  0  0  0  0  0  0
  -25.8614  -11.5134   20.5116 O   0  0  0  0  0  0  0  0  0  0  0  0
  -20.9560  -27.5238   20.4387 O   0  0  0  0  0  0  0  0  0  1  0  0
  -20.4465  -11.1413   19.5396 F   0  0  0  0  0  0  0  0  0  0  0  0
  -24.0311  -12.7080   22.2044 F   0  0  0  0  0  0  0  0  0  0  0  0
  1  2  1  0  0  0  0
  1  5  2  0  0  0  0
  2  6  2  0  0  0  0
  3  8  2  0  0  0  0
  3 17  1  0  0  0  0
  4  9  1  0  0  0  0
  4 17  2  0  0  0  0
  5 19  1  0  0  0  0
  6 21  1  0  0  0  0
  7 10  2  0  0  0  0
  7 20  1  0  0  0  0
  8 24  1  0  0  0  0
  9 24  2  0  0  0  0
 10 25  1  0  0  0  0
 11 12  2  0  0  0  0
 11 26  1  0  0  0  0
 12 27  1  0  0  0  0
 13 22  1  0  0  0  0
 13 25  2  0  0  0  0
 14 23  1  0  0  0  0
 14 30  2  0  0  0  0
 15 23  2  0  0  0  0
 15 31  1  0  0  0  0
 16 27  2  0  0  0  0
 16 28  1  0  0  0  0
 17 29  1  0  0  0  0
 18 29  1  0  0  0  0
 18 32  2  0  0  0  0
 18 33  1  0  0  0  0
 19 21  2  0  0  0  0
 19 38  1  0  0  0  0
 20 22  2  0  0  0  0
 20 39  1  0  0  0  0
 21 47  1  0  0  0  0
 22 40  1  0  0  0  0
 23 56  1  0  0  0  0
 24 79  1  0  0  0  0
 25 80  1  0  0  0  0
 26 28  2  0  0  0  0
 26 79  1  0  0  0  0
 27 81  1  0  0  0  0
 28 82  1  0  0  0  0
 29 63  2  0  0  0  0
 30 50  1  0  0  0  0
 30 64  1  0  0  0  0
 31 57  1  0  0  0  0
 31 64  2  0  0  0  0
 32 65  1  0  0  0  0
 32 68  1  0  0  0  0
 33 69  1  0  0  0  0
 33 74  2  0  0  0  0
 34 48  1  0  0  0  0
 34 70  1  0  0  0  0
 34 75  2  0  0  0  0
 35 60  1  0  0  0  0
 35 66  1  0  0  0  0
 35 76  2  0  0  0  0
 36 61  1  0  0  0  0
 36 71  1  0  0  0  0
 36 77  2  0  0  0  0
 37 67  1  0  0  0  0
 37 72  1  0  0  0  0
 37 78  2  0  0  0  0
 38 41  1  0  0  0  0
 39 48  1  0  0  0  0
 40 66  1  0  0  0  0
 41 43  1  0  0  0  0
 42 44  1  0  0  0  0
 42 45  1  0  0  0  0
 43 47  1  0  0  0  0
 44 49  1  0  0  0  0
 45 67  1  0  0  0  0
 46 49  1  0  0  0  0
 46 67  1  0  0  0  0
 47 70  1  0  0  0  0
 48 66  1  0  0  0  0
 49 65  1  0  0  0  0
 51 61  1  0  0  0  0
 52 62  1  0  0  0  0
 53 62  1  0  0  0  0
 54 62  1  0  0  0  0
 55 73  1  0  0  0  0
 56 58  1  0  0  0  0
 57 72  1  0  0  0  0
 58 59  1  0  0  0  0
 59 80  1  0  0  0  0
 60 62  1  0  0  0  0
 60 71  1  0  0  0  0
 61 73  1  0  0  0  0
 63 65  1  0  0  0  0
M  CHG  1  73   1
M  ISO  4  37 100  59 101  72 100  80 101
M  END
> <Batch ID>
0125

> <Smiles>
CNC(C)C(=O)NC(C(=O)N1Cc2cc([101O:1][101CH2:1]CCc3cc(C)nc(C[100NH:0][100C:0](=O)N4CCCC(n5nc(-c6ccc(Oc7ccc(F)cc7F)cc6)c(C(N)=O)c5N)C4)c3)ccc2CC1C(=O)NC1CCCc2ccccc21)C(C)(C)C

> <Shape>
0.230

> <Color>
0.058

> <Negative vol penalty>
0.000

$$$$

  -OEChem-04052320353D

 84 92  0     1  0  0  0  0  0999 V2000
  -32.0022  -22.7902   13.9069 C   0  0  0  0  0  0  0  0  0  0  0  0
  -31.6564  -22.4845   15.2193 C   0  0  0  0  0  0  0  0  0  0  0  0
  -23.0758   -9.8673   19.9423 C   0  0  0  0  0  0  0  0  0  0  0  0
  -23.8352   -9.8744   22.2358 C   0  0  0  0  0  0  0  0  0  0  0  0
  -33.3443  -22.8232   13.5305 C   0  0  0  0  0  0  0  0  0  0  0  0
  -32.6525  -22.2105   16.1558 C   0  0  0  0  0  0  0  0  0  0  0  0
  -31.8623  -24.5547   20.5746 C   0  0  0  0  0  0  0  0  0  0  0  0
  -22.3315   -8.7145   20.1923 C   0  0  0  0  0  0  0  0  0  0  0  0
  -23.0909   -8.7215   22.4858 C   0  0  0  0  0  0  0  0  0  0  0  0
  -30.9139  -23.9968   21.4307 C   0  0  0  0  0  0  0  0  0  0  0  0
  -21.1049   -5.9853   23.8225 C   0  0  0  0  0  0  0  0  0  0  0  0
  -20.3484   -5.9421   24.9935 C   0  0  0  0  0  0  0  0  0  0  0  0
  -32.6824  -22.9727   22.7125 C   0  0  0  0  0  0  0  0  0  0  0  0
  -29.8856  -17.4538   23.1389 C   0  0  0  0  0  0  0  0  0  0  0  0
  -32.0600  -16.6093   22.5528 C   0  0  0  0  0  0  0  0  0  0  0  0
  -19.1046   -7.8797   24.2615 C   0  0  0  0  0  0  0  0  0  0  0  0
  -23.8277  -10.4473   20.9640 C   0  0  0  0  0  0  0  0  0  0  0  0
  -24.1704  -12.9723   20.8437 C   0  0  0  0  0  0  0  0  0  0  0  0
  -34.3578  -22.5589   14.4653 C   0  0  0  0  0  0  0  0  0  0  0  0
  -33.2296  -24.3165   20.7749 C   0  0  0  0  0  0  0  0  0  0  0  0
  -34.0093  -22.2386   15.7913 C   0  0  0  0  0  0  0  0  0  0  0  0
  -33.6462  -23.5309   21.8590 C   0  0  0  0  0  0  0  0  0  0  0  0
  -30.6788  -16.5888   22.3933 C   0  0  0  0  0  0  0  0  0  0  0  0
  -22.3390   -8.1416   21.4640 C   0  0  0  0  0  0  0  0  0  0  0  0
  -31.3237  -23.2032   22.4982 C   0  0  0  0  0  0  0  0  0  0  0  0
  -20.8613   -6.9757   22.8709 C   0  0  0  0  0  0  0  0  0  0  0  0
  -19.3482   -6.8893   25.2131 C   0  0  0  0  0  0  0  0  0  0  0  0
  -19.8611   -7.9229   23.0904 C   0  0  0  0  0  0  0  0  0  0  0  0
  -24.5972  -11.6379   20.7062 C   0  0  0  0  0  0  0  0  0  0  0  0
  -30.5172  -18.3131   24.0234 C   0  0  0  0  0  0  0  0  0  0  0  0
  -32.5943  -17.5065   23.4635 C   0  0  0  0  0  0  0  0  0  0  0  0
  -25.2628  -13.7214   20.4805 C   0  0  0  0  0  0  0  0  0  0  0  0
  -22.9000  -13.4886   21.2623 C   0  0  0  0  0  0  0  0  0  0  0  0
  -35.5355  -22.9267   19.0852 C   0  0  0  0  0  0  0  0  0  0  0  0
  -37.4208  -24.0233   21.4864 C   0  0  0  0  0  0  0  0  0  0  0  0
  -37.6776  -25.0421   24.7334 C   0  0  0  0  0  0  0  0  0  0  0  0
  -30.7293  -14.7652   20.6560 C   0  0  0  0  0  0  0  0  0  0  0  0
  -35.7925  -22.5601   14.0003 C   0  0  0  0  0  0  0  0  0  0  0  0
  -34.2415  -24.9476   19.8582 C   0  0  0  0  0  0  0  0  0  0  0  0
  -35.1032  -23.2613   22.1295 C   0  0  0  0  0  0  0  0  0  0  0  0
  -36.8030  -22.6251   15.1426 C   0  0  0  0  0  0  0  0  0  0  0  0
  -29.6146  -12.3514   18.2879 C   0  0  0  0  0  0  0  0  0  0  0  0
  -36.4334  -21.6316   16.2394 C   0  0  0  0  0  0  0  0  0  0  0  0
  -28.1747  -12.0604   18.7172 C   0  0  0  0  0  0  0  0  0  0  0  0
  -30.5295  -12.5801   19.4897 C   0  0  0  0  0  0  0  0  0  0  0  0
  -28.6226  -13.3054   20.8705 C   0  0  0  0  0  0  0  0  0  0  0  0
  -35.0621  -21.9599   16.8420 C   0  0  1  0  0  0  0  0  0  0  0  0
  -35.5809  -24.2172   19.8534 C   0  0  1  0  0  0  0  0  0  0  0  0
  -27.6499  -13.1323   19.6925 C   0  0  2  0  0  0  0  0  0  0  0  0
  -34.4777  -17.1805   25.0997 C   0  0  0  0  0  0  0  0  0  0  0  0
  -39.3545  -25.8421   26.4202 C   0  0  0  0  0  0  0  0  0  0  0  0
  -38.4490  -21.1693   21.8142 C   0  0  0  0  0  0  0  0  0  0  0  0
  -39.3555  -21.8273   24.0533 C   0  0  0  0  0  0  0  0  0  0  0  0
  -40.2080  -22.9384   21.9890 C   0  0  0  0  0  0  0  0  0  0  0  0
  -36.2845  -27.6326   25.0618 C   0  0  0  0  0  0  0  0  0  0  0  0
  -29.6886  -19.2654   24.8482 C   0  0  0  0  0  0  0  0  0  0  0  0
  -29.4525  -20.6188   24.1744 C   0  0  0  0  0  0  0  0  0  0  0  0
  -30.7342  -21.4119   23.9471 C   0  0  0  0  0  0  0  0  0  1  0  0
  -34.6845  -18.9269   23.2919 C   0  0  0  0  0  0  0  0  0  0  0  0
  -34.0727  -17.5562   23.6605 C   0  0  2  0  0  0  0  0  0  0  0  0
  -37.8814  -23.4797   22.8173 C   0  0  1  0  0  0  0  0  0  0  0  0
  -38.3454  -26.2532   25.3593 C   0  0  2  0  0  0  0  0  0  0  0  0
  -38.9459  -22.3570   22.6625 C   0  0  0  0  0  0  0  0  0  0  0  0
  -25.8621  -11.5416   20.2882 N   0  0  0  0  0  0  0  0  0  0  0  0
  -31.8559  -18.3620   24.2056 N   0  0  0  0  0  0  0  0  0  0  0  0
  -26.2395  -12.8250   20.1597 N   0  0  0  0  0  0  0  0  0  0  0  0
  -36.0539  -23.8954   21.2013 N   0  0  0  0  0  0  0  0  0  0  0  0
  -29.9707  -13.6113   20.3668 N   0  0  0  0  0  0  0  0  0  0  0  0
  -25.4737  -15.0528   20.4073 N   0  0  0  0  0  0  0  0  0  0  0  0
  -21.8877  -12.5798   21.5995 N   0  0  0  0  0  0  0  0  0  0  0  0
  -30.0821  -15.6906   21.4742 N   0  0  0  0  0  0  0  0  0  0  0  0
  -35.1673  -23.0726   17.7614 N   0  0  0  0  0  0  0  0  0  0  0  0
  -38.3340  -24.6292   23.5933 N   0  0  0  0  0  0  0  0  0  0  0  0
  -37.3268  -27.1351   25.9962 N   0  3  0  0  0  0  0  0  0  0  0  0
  -22.6641  -14.7193   21.3194 O   0  0  0  0  0  0  0  0  0  0  0  0
  -35.8155  -21.8765   19.6513 O   0  0  0  0  0  0  0  0  0  0  0  0
  -38.2421  -24.5487   20.7308 O   0  0  0  0  0  0  0  0  0  0  0  0
  -36.6761  -24.5129   25.2104 O   0  0  0  0  0  0  0  0  0  0  0  0
  -31.8586  -14.9335   20.1886 O   0  0  0  0  0  0  0  0  0  0  0  0
  -34.4447  -19.1905   21.9140 O   0  0  0  0  0  0  0  0  0  0  0  0
  -21.6127   -7.0167   21.7084 O   0  0  0  0  0  0  0  0  0  0  0  0
  -30.4000  -22.6569   23.3349 O   0  0  0  0  0  0  0  0  0  1  0  0
  -18.6208   -6.8468   26.3370 F   0  0  0  0  0  0  0  0  0  0  0  0
  -19.6217   -8.8760   22.1793 F   0  0  0  0  0  0  0  0  0  0  0  0
  1  2  1  0  0  0  0
  1  5  2  0  0  0  0
  2  6  2  0  0  0  0
  3  8  2  0  0  0  0
  3 17  1  0  0  0  0
  4  9  1  0  0  0  0
  4 17  2  0  0  0  0
  5 19  1  0  0  0  0
  6 21  1  0  0  0  0
  7 10  2  0  0  0  0
  7 20  1  0  0  0  0
  8 24  1  0  0  0  0
  9 24  2  0  0  0  0
 10 25  1  0  0  0  0
 11 12  2  0  0  0  0
 11 26  1  0  0  0  0
 12 27  1  0  0  0  0
 13 22  1  0  0  0  0
 13 25  2  0  0  0  0
 14 23  2  0  0  0  0
 14 30  1  0  0  0  0
 15 23  1  0  0  0  0
 15 31  2  0  0  0  0
 16 27  2  0  0  0  0
 16 28  1  0  0  0  0
 17 29  1  0  0  0  0
 18 29  1  0  0  0  0
 18 32  2  0  0  0  0
 18 33  1  0  0  0  0
 19 21  2  0  0  0  0
 19 38  1  0  0  0  0
 20 22  2  0  0  0  0
 20 39  1  0  0  0  0
 21 47  1  0  0  0  0
 22 40  1  0  0  0  0
 23 71  1  0  0  0  0
 24 81  1  0  0  0  0
 25 82  1  0  0  0  0
 26 28  2  0  0  0  0
 26 81  1  0  0  0  0
 27 83  1  0  0  0  0
 28 84  1  0  0  0  0
 29 64  2  0  0  0  0
 30 56  1  0  0  0  0
 30 65  2  0  0  0  0
 31 60  1  0  0  0  0
 31 65  1  0  0  0  0
 32 66  1  0  0  0  0
 32 69  1  0  0  0  0
 33 70  1  0  0  0  0
 33 75  2  0  0  0  0
 34 48  1  0  0  0  0
 34 72  1  0  0  0  0
 34 76  2  0  0  0  0
 35 61  1  0  0  0  0
 35 67  1  0  0  0  0
 35 77  2  0  0  0  0
 36 62  1  0  0  0  0
 36 73  1  0  0  0  0
 36 78  2  0  0  0  0
 37 68  1  0  0  0  0
 37 71  1  0  0  0  0
 37 79  2  0  0  0  0
 38 41  1  0  0  0  0
 39 48  1  0  0  0  0
 40 67  1  0  0  0  0
 41 43  1  0  0  0  0
 42 44  1  0  0  0  0
 42 45  1  0  0  0  0
 43 47  1  0  0  0  0
 44 49  1  0  0  0  0
 45 68  1  0  0  0  0
 46 49  1  0  0  0  0
 46 68  1  0  0  0  0
 47 72  1  0  0  0  0
 48 67  1  0  0  0  0
 49 66  1  0  0  0  0
 50 60  1  0  0  0  0
 51 62  1  0  0  0  0
 52 63  1  0  0  0  0
 53 63  1  0  0  0  0
 54 63  1  0  0  0  0
 55 74  1  0  0  0  0
 56 57  1  0  0  0  0
 57 58  1  0  0  0  0
 58 82  1  0  0  0  0
 59 60  1  0  0  0  0
 59 80  1  0  0  0  0
 61 63  1  0  0  0  0
 61 73  1  0  0  0  0
 62 74  1  0  0  0  0
 64 66  1  0  0  0  0
M  CHG  1  74   1
M  ISO  4  37 100  58 101  71 100  82 101
M  END
> <Batch ID>
0125

> <Smiles>
CNC(C)C(=O)NC(C(=O)N1Cc2cc([101O:1][101CH2:1]CCc3cc([100NH:0][100C:0](=O)N4CCCC(n5nc(-c6ccc(Oc7ccc(F)cc7F)cc6)c(C(N)=O)c5N)C4)cc(C(C)CO)n3)ccc2CC1C(=O)NC1CCCc2ccccc21)C(C)(C)C

> <Shape>
0.165

> <Color>
0.184

> <Negative vol penalty>
0.000

$$$$

  -OEChem-04052320353D

 84 92  0     1  0  0  0  0  0999 V2000
  -28.0201  -20.9107   26.9273 C   0  0  0  0  0  0  0  0  0  0  0  0
  -28.1494  -21.5423   25.6945 C   0  0  0  0  0  0  0  0  0  0  0  0
  -26.5222  -14.9180   21.3819 C   0  0  0  0  0  0  0  0  0  0  0  0
  -26.6919  -14.7740   18.9762 C   0  0  0  0  0  0  0  0  0  0  0  0
  -26.7682  -20.8179   27.5339 C   0  0  0  0  0  0  0  0  0  0  0  0
  -27.0265  -22.0806   25.0670 C   0  0  0  0  0  0  0  0  0  0  0  0
  -27.8835  -26.7011   23.1799 C   0  0  0  0  0  0  0  0  0  0  0  0
  -26.2507  -13.5513   21.4446 C   0  0  0  0  0  0  0  0  0  0  0  0
  -26.4203  -13.4073   19.0389 C   0  0  0  0  0  0  0  0  0  0  0  0
  -28.5836  -26.7777   21.9767 C   0  0  0  0  0  0  0  0  0  0  0  0
  -25.1573  -10.1682   22.2079 C   0  0  0  0  0  0  0  0  0  0  0  0
  -24.1164   -9.7496   23.0367 C   0  0  0  0  0  0  0  0  0  0  0  0
  -26.5041  -27.0838   20.7931 C   0  0  0  0  0  0  0  0  0  0  0  0
  -22.5624  -11.0908   21.7625 C   0  0  0  0  0  0  0  0  0  0  0  0
  -26.7428  -15.5294   20.1477 C   0  0  0  0  0  0  0  0  0  0  0  0
  -28.2859  -17.5607   20.1340 C   0  0  0  0  0  0  0  0  0  0  0  0
  -25.6309  -21.3639   26.9180 C   0  0  0  0  0  0  0  0  0  0  0  0
  -26.4851  -26.8046   23.1976 C   0  0  0  0  0  0  0  0  0  0  0  0
  -25.7579  -21.9939   25.6653 C   0  0  0  0  0  0  0  0  0  0  0  0
  -25.7888  -27.0108   21.9981 C   0  0  0  0  0  0  0  0  0  0  0  0
  -26.1998  -12.7959   20.2731 C   0  0  0  0  0  0  0  0  0  0  0  0
  -27.8937  -26.9662   20.7827 C   0  0  0  0  0  0  0  0  0  0  0  0
  -24.9007  -11.0482   21.1564 C   0  0  0  0  0  0  0  0  0  0  0  0
  -22.8190  -10.2108   22.8140 C   0  0  0  0  0  0  0  0  0  0  0  0
  -23.6033  -11.5094   20.9337 C   0  0  0  0  0  0  0  0  0  0  0  0
  -27.0228  -16.9413   20.0822 C   0  0  0  0  0  0  0  0  0  0  0  0
  -28.0142  -18.9034   20.0336 C   0  0  0  0  0  0  0  0  0  0  0  0
  -29.5883  -16.9749   20.2614 C   0  0  0  0  0  0  0  0  0  0  0  0
  -24.1047  -24.8854   24.0656 C   0  0  0  0  0  0  0  0  0  0  0  0
  -22.2904  -27.5059   23.4627 C   0  0  0  0  0  0  0  0  0  0  0  0
  -21.9467  -30.4754   21.8161 C   0  0  0  0  0  0  0  0  0  0  0  0
  -24.3742  -22.5407   17.3814 C   0  0  0  0  0  0  0  0  0  0  0  0
  -24.2910  -21.1974   27.5901 C   0  0  0  0  0  0  0  0  0  0  0  0
  -25.7468  -26.7467   24.5067 C   0  0  0  0  0  0  0  0  0  0  0  0
  -24.2893  -27.1483   21.9653 C   0  0  0  0  0  0  0  0  0  0  0  0
  -23.2119  -22.1235   27.0349 C   0  0  0  0  0  0  0  0  0  0  0  0
  -24.0305  -21.7211   20.8291 C   0  0  0  0  0  0  0  0  0  0  0  0
  -23.2263  -22.1060   25.5097 C   0  0  0  0  0  0  0  0  0  0  0  0
  -31.5044  -24.6562   16.4031 C   0  0  0  0  0  0  0  0  0  0  0  0
  -24.8845  -20.4626   20.9928 C   0  0  0  0  0  0  0  0  0  0  0  0
  -30.3343  -23.7695   15.9846 C   0  0  0  0  0  0  0  0  0  0  0  0
  -28.8391  -24.9673   17.6294 C   0  0  0  0  0  0  0  0  0  0  0  0
  -23.3192  -21.7487   19.4781 C   0  0  0  0  0  0  0  0  0  0  0  0
  -25.0565  -20.3183   18.4732 C   0  0  0  0  0  0  0  0  0  0  0  0
  -24.5674  -22.6120   24.9648 C   0  0  1  0  0  0  0  0  0  0  0  0
  -24.2821  -26.3501   24.3497 C   0  0  1  0  0  0  0  0  0  0  0  0
  -31.3653  -25.1505   17.8543 C   0  0  2  0  0  0  0  0  0  0  0  0
  -30.0089  -25.8699   18.0650 C   0  0  2  0  0  0  0  0  0  0  0  0
  -25.8376  -20.2724   19.7976 C   0  0  2  0  0  0  0  0  0  0  0  0
  -29.0103  -24.4949   16.1889 C   0  0  2  0  0  0  0  0  0  0  0  0
  -20.3381  -32.3742   21.4935 C   0  0  0  0  0  0  0  0  0  0  0  0
  -33.8622  -25.2507   18.0976 C   0  0  0  0  0  0  0  0  0  0  0  0
  -32.5976  -27.2640   17.2906 C   0  0  0  0  0  0  0  0  0  0  0  0
  -20.5992  -25.7571   21.6211 C   0  0  0  0  0  0  0  0  0  0  0  0
  -19.6462  -27.8476   20.6261 C   0  0  0  0  0  0  0  0  0  0  0  0
  -19.2910  -27.3446   23.0434 C   0  0  0  0  0  0  0  0  0  0  0  0
  -23.8625  -32.4396   22.9254 C   0  0  0  0  0  0  0  0  0  0  0  0
  -29.7967  -26.3094   19.5165 C   0  0  0  0  0  0  0  0  0  1  0  0
  -25.5322  -23.2061   15.2897 C   0  0  0  0  0  0  0  0  0  0  0  0
  -26.5945  -24.2420   15.6069 C   0  0  0  0  0  0  0  0  0  0  0  0
  -21.5824  -28.0601   22.2500 C   0  0  1  0  0  0  0  0  0  0  0  0
  -21.5181  -31.8500   22.2969 C   0  0  2  0  0  0  0  0  0  0  0  0
  -32.5616  -26.0412   18.2019 C   0  0  0  0  0  0  0  0  0  0  0  0
  -20.3078  -27.2479   21.8852 C   0  0  0  0  0  0  0  0  0  0  0  0
  -26.0230  -17.8183   19.9588 N   0  0  0  0  0  0  0  0  0  0  0  0
  -26.6577  -19.0026   19.9322 N   0  0  0  0  0  0  0  0  0  0  0  0
  -23.6119  -27.0786   23.2706 N   0  0  0  0  0  0  0  0  0  0  0  0
  -24.2792  -21.5646   18.3870 N   0  0  0  0  0  0  0  0  0  0  0  0
  -28.8057  -19.9969   20.0233 N   0  0  0  0  0  0  0  0  0  0  0  0
  -29.6874  -15.5799   20.3526 N   0  0  0  0  0  0  0  0  0  0  0  0
  -24.6301  -24.0560   25.0380 N   0  0  0  0  0  0  0  0  0  0  0  0
  -21.3325  -29.4695   22.5319 N   0  0  0  0  0  0  0  0  0  0  0  0
  -25.3135  -22.2917   16.3883 N   0  0  0  0  0  0  0  0  0  0  0  0
  -27.8973  -23.5682   15.8506 N   0  3  0  0  0  0  0  0  0  0  0  0
  -22.6431  -32.8186   22.1660 N   0  3  0  0  0  0  0  0  0  0  0  0
  -30.6320  -17.6690   20.3098 O   0  0  0  0  0  0  0  0  0  0  0  0
  -23.5320  -24.5337   23.0409 O   0  0  0  0  0  0  0  0  0  0  0  0
  -21.6954  -27.4607   24.5423 O   0  0  0  0  0  0  0  0  0  0  0  0
  -22.7436  -30.3104   20.8951 O   0  0  0  0  0  0  0  0  0  0  0  0
  -23.6775  -23.5613   17.3725 O   0  0  0  0  0  0  0  0  0  0  0  0
  -25.9351  -11.4622   20.3339 O   0  0  0  0  0  0  0  0  0  0  0  0
  -28.5746  -27.0406   19.6068 O   0  0  0  0  0  0  0  0  0  1  0  0
  -21.8193   -9.8076   23.6091 F   0  0  0  0  0  0  0  0  0  0  0  0
  -23.3505  -12.3540   19.9244 F   0  0  0  0  0  0  0  0  0  0  0  0
  1  2  1  0  0  0  0
  1  5  2  0  0  0  0
  2  6  2  0  0  0  0
  3  8  2  0  0  0  0
  3 15  1  0  0  0  0
  4  9  1  0  0  0  0
  4 15  2  0  0  0  0
  5 17  1  0  0  0  0
  6 19  1  0  0  0  0
  7 10  2  0  0  0  0
  7 18  1  0  0  0  0
  8 21  1  0  0  0  0
  9 21  2  0  0  0  0
 10 22  1  0  0  0  0
 11 12  2  0  0  0  0
 11 23  1  0  0  0  0
 12 24  1  0  0  0  0
 13 20  1  0  0  0  0
 13 22  2  0  0  0  0
 14 24  2  0  0  0  0
 14 25  1  0  0  0  0
 15 26  1  0  0  0  0
 16 26  1  0  0  0  0
 16 27  2  0  0  0  0
 16 28  1  0  0  0  0
 17 19  2  0  0  0  0
 17 33  1  0  0  0  0
 18 20  2  0  0  0  0
 18 34  1  0  0  0  0
 19 45  1  0  0  0  0
 20 35  1  0  0  0  0
 21 81  1  0  0  0  0
 22 82  1  0  0  0  0
 23 25  2  0  0  0  0
 23 81  1  0  0  0  0
 24 83  1  0  0  0  0
 25 84  1  0  0  0  0
 26 65  2  0  0  0  0
 27 66  1  0  0  0  0
 27 69  1  0  0  0  0
 28 70  1  0  0  0  0
 28 76  2  0  0  0  0
 29 46  1  0  0  0  0
 29 71  1  0  0  0  0
 29 77  2  0  0  0  0
 30 61  1  0  0  0  0
 30 67  1  0  0  0  0
 30 78  2  0  0  0  0
 31 62  1  0  0  0  0
 31 72  1  0  0  0  0
 31 79  2  0  0  0  0
 32 68  1  0  0  0  0
 32 73  1  0  0  0  0
 32 80  2  0  0  0  0
 33 36  1  0  0  0  0
 34 46  1  0  0  0  0
 35 67  1  0  0  0  0
 36 38  1  0  0  0  0
 37 40  1  0  0  0  0
 37 43  1  0  0  0  0
 38 45  1  0  0  0  0
 39 41  1  0  0  0  0
 39 47  1  0  0  0  0
 40 49  1  0  0  0  0
 41 50  1  0  0  0  0
 42 48  1  0  0  0  0
 42 50  1  0  0  0  0
 43 68  1  0  0  0  0
 44 49  1  0  0  0  0
 44 68  1  0  0  0  0
 45 71  1  0  0  0  0
 46 67  1  0  0  0  0
 47 48  1  0  0  0  0
 47 63  1  0  0  0  0
 48 58  1  0  0  0  0
 49 66  1  0  0  0  0
 50 74  1  0  0  0  0
 51 62  1  0  0  0  0
 52 63  1  0  0  0  0
 53 63  1  0  0  0  0
 54 64  1  0  0  0  0
 55 64  1  0  0  0  0
 56 64  1  0  0  0  0
 57 75  1  0  0  0  0
 58 82  1  0  0  0  0
 59 60  1  0  0  0  0
 59 73  1  0  0  0  0
 60 74  1  0  0  0  0
 61 64  1  0  0  0  0
 61 72  1  0  0  0  0
 62 75  1  0  0  0  0
 65 66  1  0  0  0  0
M  CHG  2  74   1  75   1
M  ISO  4  32 100  58 101  73 100  82 101
M  END
> <Batch ID>
0125

> <Smiles>
CNC(C)C(=O)NC(C(=O)N1Cc2cc([101O:1][101CH2:1]C3CC(NCC[100NH:0][100C:0](=O)N4CCCC(n5nc(-c6ccc(Oc7ccc(F)cc7F)cc6)c(C(N)=O)c5N)C4)CCC3C(C)C)ccc2CC1C(=O)NC1CCCc2ccccc21)C(C)(C)C

> <Shape>
0.194

> <Color>
0.077

> <Negative vol penalty>
0.000

$$$$

  -OEChem-04052320353D

 90 99  0     1  0  0  0  0  0999 V2000
  -21.9094  -30.2198   18.7150 C   0  0  0  0  0  0  0  0  0  0  0  0
  -22.8469  -29.5204   17.9618 C   0  0  0  0  0  0  0  0  0  0  0  0
  -21.9756  -22.8927   23.8696 C   0  0  0  0  0  0  0  0  0  0  0  0
  -21.1365  -21.4946   22.0868 C   0  0  0  0  0  0  0  0  0  0  0  0
  -22.2309  -30.6493   20.0019 C   0  0  0  0  0  0  0  0  0  0  0  0
  -24.1070  -29.2510   18.4947 C   0  0  0  0  0  0  0  0  0  0  0  0
  -26.4789  -22.4825   19.1675 C   0  0  0  0  0  0  0  0  0  0  0  0
  -29.3472  -16.7919   17.9776 C   0  0  0  0  0  0  0  0  0  0  0  0
  -21.7245  -24.0272   23.0980 C   0  0  0  0  0  0  0  0  0  0  0  0
  -20.8853  -22.6292   21.3152 C   0  0  0  0  0  0  0  0  0  0  0  0
  -27.0883  -21.2280   19.1337 C   0  0  0  0  0  0  0  0  0  0  0  0
  -19.0570  -25.9270   22.2566 C   0  0  0  0  0  0  0  0  0  0  0  0
  -18.4380  -27.0106   22.8797 C   0  0  0  0  0  0  0  0  0  0  0  0
  -30.0891  -15.6208   18.0843 C   0  0  0  0  0  0  0  0  0  0  0  0
  -29.0643  -22.1480   20.1811 C   0  0  0  0  0  0  0  0  0  0  0  0
  -25.2728  -11.8550   19.9500 C   0  0  0  0  0  0  0  0  0  0  0  0
  -24.2983  -13.9381   20.6901 C   0  0  0  0  0  0  0  0  0  0  0  0
  -26.3461  -13.1391   21.6925 C   0  0  0  0  0  0  0  0  0  0  0  0
  -20.3470  -28.3983   22.3628 C   0  0  0  0  0  0  0  0  0  0  0  0
  -29.4250  -16.9954   20.3460 C   0  0  0  0  0  0  0  0  0  0  0  0
  -21.6816  -21.6263   23.3639 C   0  0  0  0  0  0  0  0  0  0  0  0
  -21.0620  -19.8284   25.0643 C   0  0  0  0  0  0  0  0  0  0  0  0
  -23.4923  -30.3766   20.5545 C   0  0  0  0  0  0  0  0  0  0  0  0
  -27.1548  -23.5725   19.7229 C   0  0  0  0  0  0  0  0  0  0  0  0
  -24.4462  -29.6784   19.7896 C   0  0  0  0  0  0  0  0  0  0  0  0
  -28.4542  -23.4042   20.2290 C   0  0  0  0  0  0  0  0  0  0  0  0
  -29.0046  -17.4982   19.1252 C   0  0  0  0  0  0  0  0  0  0  0  0
  -24.2653  -12.8157   19.8626 C   0  0  0  0  0  0  0  0  0  0  0  0
  -26.3132  -12.0167   20.8650 C   0  0  0  0  0  0  0  0  0  0  0  0
  -25.3387  -14.0998   21.6051 C   0  0  0  0  0  0  0  0  0  0  0  0
  -21.1793  -23.8955   21.8209 C   0  0  0  0  0  0  0  0  0  0  0  0
  -28.3779  -21.0613   19.6390 C   0  0  0  0  0  0  0  0  0  0  0  0
  -20.3210  -26.0790   21.6867 C   0  0  0  0  0  0  0  0  0  0  0  0
  -19.0829  -28.2463   22.9327 C   0  0  0  0  0  0  0  0  0  0  0  0
  -20.9660  -27.3146   21.7398 C   0  0  0  0  0  0  0  0  0  0  0  0
  -21.9413  -20.4539   24.1602 C   0  0  0  0  0  0  0  0  0  0  0  0
  -30.4611  -15.2021   19.3517 C   0  0  0  0  0  0  0  0  0  0  0  0
  -21.7775  -18.7658   25.5597 C   0  0  0  0  0  0  0  0  0  0  0  0
  -19.7186  -20.1768   25.4241 C   0  0  0  0  0  0  0  0  0  0  0  0
  -27.0845  -27.2204   20.5965 C   0  0  0  0  0  0  0  0  0  0  0  0
  -28.4444  -25.7707   22.9330 C   0  0  0  0  0  0  0  0  0  0  0  0
  -29.5055  -23.7541   25.4716 C   0  0  0  0  0  0  0  0  0  0  0  0
  -26.3325  -15.5528   23.4071 C   0  0  0  0  0  0  0  0  0  0  0  0
  -23.8104  -30.9022   21.9318 C   0  0  0  0  0  0  0  0  0  0  0  0
  -26.5611  -24.9550   19.7245 C   0  0  0  0  0  0  0  0  0  0  0  0
  -29.1565  -24.6125   20.7855 C   0  0  0  0  0  0  0  0  0  0  0  0
  -25.0372  -30.2500   22.5643 C   0  0  0  0  0  0  0  0  0  0  0  0
  -26.2686  -17.3724   26.4669 C   0  0  0  0  0  0  0  0  0  0  0  0
  -26.1874  -30.1939   21.5640 C   0  0  0  0  0  0  0  0  0  0  0  0
  -25.0680  -18.3079   26.3073 C   0  0  0  0  0  0  0  0  0  0  0  0
  -27.0203  -17.1848   25.1502 C   0  0  0  0  0  0  0  0  0  0  0  0
  -24.9884  -17.6994   23.8557 C   0  0  0  0  0  0  0  0  0  0  0  0
  -25.8151  -29.3452   20.3422 C   0  0  1  0  0  0  0  0  0  0  0  0
  -26.9428  -25.7742   20.9704 C   0  0  1  0  0  0  0  0  0  0  0  0
  -24.1617  -17.8678   25.1409 C   0  0  2  0  0  0  0  0  0  0  0  0
  -23.1530  -12.6427   18.8843 C   0  0  0  0  0  0  0  0  0  0  0  0
  -30.3985  -23.8420   27.8152 C   0  0  0  0  0  0  0  0  0  0  0  0
  -31.1647  -26.6383   21.8600 C   0  0  0  0  0  0  0  0  0  0  0  0
  -32.1904  -25.8024   23.9854 C   0  0  0  0  0  0  0  0  0  0  0  0
  -30.5316  -27.6643   24.0511 C   0  0  0  0  0  0  0  0  0  0  0  0
  -27.2091  -22.2148   26.5282 C   0  0  0  0  0  0  0  0  0  0  0  0
  -27.4023  -10.9781   20.9593 C   0  0  0  0  0  0  0  0  0  0  0  0
  -28.2046  -18.7650   19.0437 C   0  0  0  0  0  0  0  0  0  1  0  0
  -31.2582  -13.9497   19.5035 C   0  0  0  0  0  0  0  0  0  0  0  0
  -28.5944  -11.2421   20.0301 C   0  0  0  0  0  0  0  0  0  0  0  0
  -29.3606  -12.5338   20.2989 C   0  0  0  0  0  0  0  0  0  0  0  0
  -29.7389  -25.3148   23.5575 C   0  0  1  0  0  0  0  0  0  0  0  0
  -29.1546  -23.7239   26.9483 C   0  0  2  0  0  0  0  0  0  0  0  0
  -30.8909  -26.3376   23.3471 C   0  0  0  0  0  0  0  0  0  0  0  0
  -30.1469  -15.8614   20.4893 N   0  0  0  0  0  0  0  0  0  0  0  0
  -23.1251  -19.8399   24.0839 N   0  0  0  0  0  0  0  0  0  0  0  0
  -22.9946  -18.8176   24.9464 N   0  0  0  0  0  0  0  0  0  0  0  0
  -28.2225  -25.4060   21.5995 N   0  0  0  0  0  0  0  0  0  0  0  0
  -26.0988  -16.7636   24.0927 N   0  0  0  0  0  0  0  0  0  0  0  0
  -21.4781  -17.8016   26.4558 N   0  0  0  0  0  0  0  0  0  0  0  0
  -19.1347  -21.2986   24.8201 N   0  0  0  0  0  0  0  0  0  0  0  0
  -25.3722  -15.2401   22.4456 N   0  0  0  0  0  0  0  0  0  0  0  0
  -25.9041  -27.9361   20.6596 N   0  0  0  0  0  0  0  0  0  0  0  0
  -29.4395  -25.0316   24.9569 N   0  0  0  0  0  0  0  0  0  0  0  0
  -28.4626  -22.4491   27.2903 N   0  3  0  0  0  0  0  0  0  0  0  0
  -30.4549  -12.7116   19.3090 N   0  3  0  0  0  0  0  0  0  0  0  0
  -19.0613  -19.5224   26.2687 O   0  0  0  0  0  0  0  0  0  0  0  0
  -28.1838  -27.6567   20.2757 O   0  0  0  0  0  0  0  0  0  0  0  0
  -27.6523  -26.4370   23.6052 O   0  0  0  0  0  0  0  0  0  0  0  0
  -29.8115  -22.7458   24.8390 O   0  0  0  0  0  0  0  0  0  0  0  0
  -27.2976  -14.8320   23.6735 O   0  0  0  0  0  0  0  0  0  0  0  0
  -20.9339  -25.0024   21.0678 O   0  0  0  0  0  0  0  0  0  0  0  0
  -28.9652  -19.8330   19.6070 O   0  0  0  0  0  0  0  0  0  1  0  0
  -18.4877  -29.2872   23.5297 F   0  0  0  0  0  0  0  0  0  0  0  0
  -22.1800  -27.4671   21.1931 F   0  0  0  0  0  0  0  0  0  0  0  0
  1  2  1  0  0  0  0
  1  5  2  0  0  0  0
  2  6  2  0  0  0  0
  3  9  2  0  0  0  0
  3 21  1  0  0  0  0
  4 10  1  0  0  0  0
  4 21  2  0  0  0  0
  5 23  1  0  0  0  0
  6 25  1  0  0  0  0
  7 11  2  0  0  0  0
  7 24  1  0  0  0  0
  8 14  2  0  0  0  0
  8 27  1  0  0  0  0
  9 31  1  0  0  0  0
 10 31  2  0  0  0  0
 11 32  1  0  0  0  0
 12 13  2  0  0  0  0
 12 33  1  0  0  0  0
 13 34  1  0  0  0  0
 14 37  1  0  0  0  0
 15 26  1  0  0  0  0
 15 32  2  0  0  0  0
 16 28  2  0  0  0  0
 16 29  1  0  0  0  0
 17 28  1  0  0  0  0
 17 30  2  0  0  0  0
 18 29  2  0  0  0  0
 18 30  1  0  0  0  0
 19 34  2  0  0  0  0
 19 35  1  0  0  0  0
 20 27  2  0  0  0  0
 20 70  1  0  0  0  0
 21 36  1  0  0  0  0
 22 36  1  0  0  0  0
 22 38  2  0  0  0  0
 22 39  1  0  0  0  0
 23 25  2  0  0  0  0
 23 44  1  0  0  0  0
 24 26  2  0  0  0  0
 24 45  1  0  0  0  0
 25 53  1  0  0  0  0
 26 46  1  0  0  0  0
 27 63  1  0  0  0  0
 28 56  1  0  0  0  0
 29 62  1  0  0  0  0
 30 77  1  0  0  0  0
 31 87  1  0  0  0  0
 32 88  1  0  0  0  0
 33 35  2  0  0  0  0
 33 87  1  0  0  0  0
 34 89  1  0  0  0  0
 35 90  1  0  0  0  0
 36 71  2  0  0  0  0
 37 64  1  0  0  0  0
 37 70  2  0  0  0  0
 38 72  1  0  0  0  0
 38 75  1  0  0  0  0
 39 76  1  0  0  0  0
 39 82  2  0  0  0  0
 40 54  1  0  0  0  0
 40 78  1  0  0  0  0
 40 83  2  0  0  0  0
 41 67  1  0  0  0  0
 41 73  1  0  0  0  0
 41 84  2  0  0  0  0
 42 68  1  0  0  0  0
 42 79  1  0  0  0  0
 42 85  2  0  0  0  0
 43 74  1  0  0  0  0
 43 77  1  0  0  0  0
 43 86  2  0  0  0  0
 44 47  1  0  0  0  0
 45 54  1  0  0  0  0
 46 73  1  0  0  0  0
 47 49  1  0  0  0  0
 48 50  1  0  0  0  0
 48 51  1  0  0  0  0
 49 53  1  0  0  0  0
 50 55  1  0  0  0  0
 51 74  1  0  0  0  0
 52 55  1  0  0  0  0
 52 74  1  0  0  0  0
 53 78  1  0  0  0  0
 54 73  1  0  0  0  0
 55 72  1  0  0  0  0
 57 68  1  0  0  0  0
 58 69  1  0  0  0  0
 59 69  1  0  0  0  0
 60 69  1  0  0  0  0
 61 80  1  0  0  0  0
 62 65  1  0  0  0  0
 63 88  1  0  0  0  0
 64 81  1  0  0  0  0
 65 66  1  0  0  0  0
 66 81  1  0  0  0  0
 67 69  1  0  0  0  0
 67 79  1  0  0  0  0
 68 80  1  0  0  0  0
 71 72  1  0  0  0  0
M  CHG  2  80   1  81   1
M  ISO  4  43 100  63 101  77 100  88 101
M  END
> <Batch ID>
0125

> <Smiles>
CNC(C)C(=O)NC(C(=O)N1Cc2cc([101O:1][101CH2:1]c3ccc(CNCCCc4cc(C)cc([100NH:0][100C:0](=O)N5CCCC(n6nc(-c7ccc(Oc8ccc(F)cc8F)cc7)c(C(N)=O)c6N)C5)c4)nc3)ccc2CC1C(=O)NC1CCCc2ccccc21)C(C)(C)C

> <Shape>
0.221

> <Color>
0.064

> <Negative vol penalty>
0.000

$$$$

  -OEChem-04052320353D

 88 97  0     1  0  0  0  0  0999 V2000
  -25.8318  -37.0618   25.3979 C   0  0  0  0  0  0  0  0  0  0  0  0
  -25.3087  -36.0268   26.1665 C   0  0  0  0  0  0  0  0  0  0  0  0
  -29.8303  -17.7005   21.2656 C   0  0  0  0  0  0  0  0  0  0  0  0
  -28.9951  -17.2473   19.0443 C   0  0  0  0  0  0  0  0  0  0  0  0
  -25.8164  -36.9719   24.0067 C   0  0  0  0  0  0  0  0  0  0  0  0
  -24.7689  -34.9018   25.5442 C   0  0  0  0  0  0  0  0  0  0  0  0
  -26.5918  -27.3540   26.4010 C   0  0  0  0  0  0  0  0  0  0  0  0
  -22.2620  -16.6886   23.6277 C   0  0  0  0  0  0  0  0  0  0  0  0
  -22.7716  -17.9820   23.5134 C   0  0  0  0  0  0  0  0  0  0  0  0
  -30.1766  -18.9930   20.8717 C   0  0  0  0  0  0  0  0  0  0  0  0
  -29.3414  -18.5398   18.6504 C   0  0  0  0  0  0  0  0  0  0  0  0
  -26.9319  -26.0020   26.3494 C   0  0  0  0  0  0  0  0  0  0  0  0
  -28.6112  -21.9478   20.3701 C   0  0  0  0  0  0  0  0  0  0  0  0
  -28.2819  -22.9971   21.2281 C   0  0  0  0  0  0  0  0  0  0  0  0
  -26.0843  -25.8641   24.0888 C   0  0  0  0  0  0  0  0  0  0  0  0
  -22.4153  -16.8407   26.0340 C   0  0  0  0  0  0  0  0  0  0  0  0
  -30.6190  -23.5820   21.4098 C   0  0  0  0  0  0  0  0  0  0  0  0
  -29.2396  -16.8276   20.3519 C   0  0  0  0  0  0  0  0  0  0  0  0
  -29.7446  -14.4929   21.2472 C   0  0  0  0  0  0  0  0  0  0  0  0
  -25.2849  -35.8409   23.3672 C   0  0  0  0  0  0  0  0  0  0  0  0
  -26.0100  -27.9706   25.2899 C   0  0  0  0  0  0  0  0  0  0  0  0
  -24.7452  -34.7973   24.1430 C   0  0  0  0  0  0  0  0  0  0  0  0
  -25.7529  -27.2210   24.1302 C   0  0  0  0  0  0  0  0  0  0  0  0
  -22.0838  -16.1180   24.8880 C   0  0  0  0  0  0  0  0  0  0  0  0
  -23.1031  -18.7048   24.6595 C   0  0  0  0  0  0  0  0  0  0  0  0
  -22.9249  -18.1341   25.9198 C   0  0  0  0  0  0  0  0  0  0  0  0
  -29.9322  -19.4127   19.5642 C   0  0  0  0  0  0  0  0  0  0  0  0
  -26.6786  -25.2589   25.1962 C   0  0  0  0  0  0  0  0  0  0  0  0
  -29.9445  -21.7155   20.0320 C   0  0  0  0  0  0  0  0  0  0  0  0
  -29.2857  -23.8142   21.7479 C   0  0  0  0  0  0  0  0  0  0  0  0
  -30.9483  -22.5327   20.5519 C   0  0  0  0  0  0  0  0  0  0  0  0
  -28.8821  -15.4922   20.7580 C   0  0  0  0  0  0  0  0  0  0  0  0
  -28.9238  -13.4181   21.4868 C   0  0  0  0  0  0  0  0  0  0  0  0
  -31.1611  -14.5327   21.4656 C   0  0  0  0  0  0  0  0  0  0  0  0
  -24.6381  -31.1213   23.7843 C   0  0  0  0  0  0  0  0  0  0  0  0
  -26.2464  -29.7101   21.5860 C   0  0  0  0  0  0  0  0  0  0  0  0
  -28.4519  -28.0557   19.5771 C   0  0  0  0  0  0  0  0  0  0  0  0
  -23.0748  -12.9392   22.6744 C   0  0  0  0  0  0  0  0  0  0  0  0
  -25.2474  -35.8099   21.8597 C   0  0  0  0  0  0  0  0  0  0  0  0
  -25.5709  -29.4093   25.3224 C   0  0  0  0  0  0  0  0  0  0  0  0
  -25.0937  -27.9178   22.9714 C   0  0  0  0  0  0  0  0  0  0  0  0
  -24.9974  -34.4179   21.2852 C   0  0  0  0  0  0  0  0  0  0  0  0
  -24.8460  -11.4135   19.9890 C   0  0  0  0  0  0  0  0  0  0  0  0
  -23.8466  -33.7363   22.0187 C   0  0  0  0  0  0  0  0  0  0  0  0
  -26.1590  -12.1956   19.9257 C   0  0  0  0  0  0  0  0  0  0  0  0
  -23.6685  -12.3158   20.3517 C   0  0  0  0  0  0  0  0  0  0  0  0
  -26.0043  -19.6925   24.1847 C   0  0  0  0  0  0  0  0  0  0  0  0
  -25.1636  -13.8884   21.5202 C   0  0  0  0  0  0  0  0  0  0  0  0
  -25.2633  -21.6254   25.4445 C   0  0  0  0  0  0  0  0  0  0  0  0
  -27.3956  -19.7837   24.7985 C   0  0  0  0  0  0  0  0  0  0  0  0
  -24.1734  -33.5497   23.5052 C   0  0  1  0  0  0  0  0  0  0  0  0
  -25.7433  -30.1236   23.9698 C   0  0  1  0  0  0  0  0  0  0  0  0
  -26.3888  -13.0106   21.2126 C   0  0  2  0  0  0  0  0  0  0  0  0
  -26.6391  -21.7687   26.1033 C   0  0  2  0  0  0  0  0  0  0  0  0
  -23.2731  -18.8888   27.1607 C   0  0  0  0  0  0  0  0  0  0  0  0
  -29.4741  -28.1380   17.2867 C   0  0  0  0  0  0  0  0  0  0  0  0
  -23.6462  -28.6535   20.3917 C   0  0  0  0  0  0  0  0  0  0  0  0
  -24.9576  -27.8744   18.4064 C   0  0  0  0  0  0  0  0  0  0  0  0
  -24.8581  -30.3053   18.9573 C   0  0  0  0  0  0  0  0  0  0  0  0
  -31.1842  -28.3344   20.6798 C   0  0  0  0  0  0  0  0  0  0  0  0
  -21.5395  -14.7349   25.0098 C   0  0  0  0  0  0  0  0  0  0  0  0
  -23.6509  -20.0947   24.5113 C   0  0  0  0  0  0  0  0  0  0  0  0
  -26.9929  -23.2220   26.3836 C   0  0  0  0  0  0  0  0  0  1  0  0
  -22.6203  -13.6471   25.0093 C   0  0  0  0  0  0  0  0  0  0  0  0
  -26.2258  -28.7587   20.4165 C   0  0  1  0  0  0  0  0  0  0  0  0
  -29.6210  -28.5488   18.7436 C   0  0  2  0  0  0  0  0  0  0  0  0
  -24.9288  -28.8892   19.5692 C   0  0  0  0  0  0  0  0  0  0  0  0
  -27.6109  -15.0881   20.6901 N   0  0  0  0  0  0  0  0  0  0  0  0
  -27.6685  -13.8230   21.1398 N   0  0  0  0  0  0  0  0  0  0  0  0
  -25.6859  -29.2516   22.7844 N   0  0  0  0  0  0  0  0  0  0  0  0
  -23.9497  -13.0593   21.5821 N   0  0  0  0  0  0  0  0  0  0  0  0
  -24.9839  -20.2232   25.0995 N   0  0  1  0  0  0  0  0  0  0  0  0
  -29.1606  -12.1755   21.9584 N   0  0  0  0  0  0  0  0  0  0  0  0
  -31.8502  -15.7160   21.1668 N   0  0  0  0  0  0  0  0  0  0  0  0
  -25.0717  -32.4298   23.6885 N   0  0  0  0  0  0  0  0  0  0  0  0
  -27.4548  -29.0035   19.6694 N   0  0  0  0  0  0  0  0  0  0  0  0
  -23.4182  -13.6724   23.8036 N   0  0  0  0  0  0  0  0  0  0  0  0
  -27.6710  -21.2012   25.1750 N   0  3  0  0  0  0  0  0  0  0  0  0
  -30.9004  -27.9885   19.2632 N   0  3  0  0  0  0  0  0  0  0  0  0
  -31.7994  -13.5428   21.8971 O   0  0  0  0  0  0  0  0  0  0  0  0
  -23.4769  -30.7335   23.7301 O   0  0  0  0  0  0  0  0  0  0  0  0
  -26.7404  -30.8320   21.4423 O   0  0  0  0  0  0  0  0  0  0  0  0
  -28.4244  -26.9398   20.0914 O   0  0  0  0  0  0  0  0  0  0  0  0
  -22.0654  -12.2268   22.6473 O   0  0  0  0  0  0  0  0  0  0  0  0
  -30.2697  -20.6739   19.1795 O   0  0  0  0  0  0  0  0  0  0  0  0
  -27.0173  -23.9406   25.1510 O   0  0  0  0  0  0  0  0  0  1  0  0
  -28.9692  -24.8228   22.5705 F   0  0  0  0  0  0  0  0  0  0  0  0
  -32.2308  -22.3152   20.2298 F   0  0  0  0  0  0  0  0  0  0  0  0
  1  2  1  0  0  0  0
  1  5  2  0  0  0  0
  2  6  2  0  0  0  0
  3 10  2  0  0  0  0
  3 18  1  0  0  0  0
  4 11  1  0  0  0  0
  4 18  2  0  0  0  0
  5 20  1  0  0  0  0
  6 22  1  0  0  0  0
  7 12  2  0  0  0  0
  7 21  1  0  0  0  0
  8  9  2  0  0  0  0
  8 24  1  0  0  0  0
  9 25  1  0  0  0  0
 10 27  1  0  0  0  0
 11 27  2  0  0  0  0
 12 28  1  0  0  0  0
 13 14  2  0  0  0  0
 13 29  1  0  0  0  0
 14 30  1  0  0  0  0
 15 23  1  0  0  0  0
 15 28  2  0  0  0  0
 16 24  2  0  0  0  0
 16 26  1  0  0  0  0
 17 30  2  0  0  0  0
 17 31  1  0  0  0  0
 18 32  1  0  0  0  0
 19 32  1  0  0  0  0
 19 33  2  0  0  0  0
 19 34  1  0  0  0  0
 20 22  2  0  0  0  0
 20 39  1  0  0  0  0
 21 23  2  0  0  0  0
 21 40  1  0  0  0  0
 22 51  1  0  0  0  0
 23 41  1  0  0  0  0
 24 61  1  0  0  0  0
 25 26  2  0  0  0  0
 25 62  1  0  0  0  0
 26 55  1  0  0  0  0
 27 85  1  0  0  0  0
 28 86  1  0  0  0  0
 29 31  2  0  0  0  0
 29 85  1  0  0  0  0
 30 87  1  0  0  0  0
 31 88  1  0  0  0  0
 32 68  2  0  0  0  0
 33 69  1  0  0  0  0
 33 73  1  0  0  0  0
 34 74  1  0  0  0  0
 34 80  2  0  0  0  0
 35 52  1  0  0  0  0
 35 75  1  0  0  0  0
 35 81  2  0  0  0  0
 36 65  1  0  0  0  0
 36 70  1  0  0  0  0
 36 82  2  0  0  0  0
 37 66  1  0  0  0  0
 37 76  1  0  0  0  0
 37 83  2  0  0  0  0
 38 71  1  0  0  0  0
 38 77  1  0  0  0  0
 38 84  2  0  0  0  0
 39 42  1  0  0  0  0
 40 52  1  0  0  0  0
 41 70  1  0  0  0  0
 42 44  1  0  0  0  0
 43 45  1  0  0  0  0
 43 46  1  0  0  0  0
 44 51  1  0  0  0  0
 45 53  1  0  0  0  0
 46 71  1  0  0  0  0
 47 50  1  0  0  0  0
 47 72  1  0  0  0  0
 48 53  1  0  0  0  0
 48 71  1  0  0  0  0
 49 54  1  0  0  0  0
 49 72  1  0  0  0  0
 50 78  1  0  0  0  0
 51 75  1  0  0  0  0
 52 70  1  0  0  0  0
 53 69  1  0  0  0  0
 54 63  1  0  0  0  0
 54 78  1  0  0  0  0
 56 66  1  0  0  0  0
 57 67  1  0  0  0  0
 58 67  1  0  0  0  0
 59 67  1  0  0  0  0
 60 79  1  0  0  0  0
 61 64  1  0  0  0  0
 62 72  1  0  0  0  0
 63 86  1  0  0  0  0
 64 77  1  0  0  0  0
 65 67  1  0  0  0  0
 65 76  1  0  0  0  0
 66 79  1  0  0  0  0
 68 69  1  0  0  0  0
M  CHG  2  78   1  79   1
M  ISO  4  38 100  63 101  77 100  86 101
M  END
> <Batch ID>
0125

> <Smiles>
CNC(C)C(=O)NC(C(=O)N1Cc2cc([101O:1][101CH2:1]C3CN(Cc4ccc(CC[100NH:0][100C:0](=O)N5CCCC(n6nc(-c7ccc(Oc8ccc(F)cc8F)cc7)c(C(N)=O)c6N)C5)cc4C)CCN3)ccc2CC1C(=O)NC1CCCc2ccccc21)C(C)(C)C

> <Shape>
0.253

> <Color>
0.043

> <Negative vol penalty>
0.000

$$$$

  -OEChem-04052320353D

 83 91  0     1  0  0  0  0  0999 V2000
  -28.8703  -30.3391   27.3706 C   0  0  0  0  0  0  0  0  0  0  0  0
  -28.6715  -29.4713   26.3016 C   0  0  0  0  0  0  0  0  0  0  0  0
  -27.4703  -11.0426   20.6935 C   0  0  0  0  0  0  0  0  0  0  0  0
  -27.0917  -11.8774   18.4581 C   0  0  0  0  0  0  0  0  0  0  0  0
  -27.7960  -31.0592   27.8915 C   0  0  0  0  0  0  0  0  0  0  0  0
  -27.3980  -29.3224   25.7534 C   0  0  0  0  0  0  0  0  0  0  0  0
  -27.4436  -29.3782   20.6899 C   0  0  0  0  0  0  0  0  0  0  0  0
  -27.9204  -20.8503   15.6918 C   0  0  0  0  0  0  0  0  0  0  0  0
  -26.4765  -10.0825   20.5033 C   0  0  0  0  0  0  0  0  0  0  0  0
  -26.0979  -10.9173   18.2679 C   0  0  0  0  0  0  0  0  0  0  0  0
  -27.8502  -28.2116   20.0439 C   0  0  0  0  0  0  0  0  0  0  0  0
  -23.0993   -9.9522   20.5439 C   0  0  0  0  0  0  0  0  0  0  0  0
  -22.1768   -9.7627   21.5728 C   0  0  0  0  0  0  0  0  0  0  0  0
  -28.0124  -19.8856   16.6889 C   0  0  0  0  0  0  0  0  0  0  0  0
  -25.5419  -27.6333   19.6482 C   0  0  0  0  0  0  0  0  0  0  0  0
  -22.8655   -7.4549   21.7652 C   0  0  0  0  0  0  0  0  0  0  0  0
  -27.7779  -11.9401   19.6709 C   0  0  0  0  0  0  0  0  0  0  0  0
  -30.1772  -12.8024   19.5857 C   0  0  0  0  0  0  0  0  0  0  0  0
  -26.5106  -30.9263   27.3432 C   0  0  0  0  0  0  0  0  0  0  0  0
  -26.0805  -29.6763   20.8297 C   0  0  0  0  0  0  0  0  0  0  0  0
  -26.3052  -30.0404   26.2683 C   0  0  0  0  0  0  0  0  0  0  0  0
  -25.1207  -28.8057   20.2941 C   0  0  0  0  0  0  0  0  0  0  0  0
  -28.0041  -22.1974   16.0258 C   0  0  0  0  0  0  0  0  0  0  0  0
  -25.7903  -10.0198   19.2905 C   0  0  0  0  0  0  0  0  0  0  0  0
  -26.8993  -27.3375   19.5255 C   0  0  0  0  0  0  0  0  0  0  0  0
  -23.9048   -8.8930   20.1255 C   0  0  0  0  0  0  0  0  0  0  0  0
  -22.0599   -8.5141   22.1835 C   0  0  0  0  0  0  0  0  0  0  0  0
  -23.7879   -7.6444   20.7362 C   0  0  0  0  0  0  0  0  0  0  0  0
  -28.8040  -12.9324   19.8670 C   0  0  0  0  0  0  0  0  0  0  0  0
  -28.1866  -20.3165   17.9942 C   0  0  0  0  0  0  0  0  0  0  0  0
  -28.1785  -22.5249   17.3607 C   0  0  0  0  0  0  0  0  0  0  0  0
  -30.7175  -14.0129   19.9453 C   0  0  0  0  0  0  0  0  0  0  0  0
  -30.8998  -11.6872   19.0473 C   0  0  0  0  0  0  0  0  0  0  0  0
  -24.1131  -30.0758   23.2941 C   0  0  0  0  0  0  0  0  0  0  0  0
  -22.0077  -30.9207   20.9755 C   0  0  0  0  0  0  0  0  0  0  0  0
  -21.0713  -30.7214   17.6998 C   0  0  0  0  0  0  0  0  0  0  0  0
  -28.4564  -19.5275   20.3713 C   0  0  0  0  0  0  0  0  0  0  0  0
  -25.3713  -31.6900   27.9705 C   0  0  0  0  0  0  0  0  0  0  0  0
  -25.6589  -30.9521   21.5057 C   0  0  0  0  0  0  0  0  0  0  0  0
  -23.6454  -29.0898   20.4000 C   0  0  0  0  0  0  0  0  0  0  0  0
  -24.1256  -31.7573   27.0907 C   0  0  0  0  0  0  0  0  0  0  0  0
  -30.0381  -17.6685   22.9635 C   0  0  0  0  0  0  0  0  0  0  0  0
  -23.8018  -30.3812   26.5177 C   0  0  0  0  0  0  0  0  0  0  0  0
  -30.0315  -16.2321   22.4354 C   0  0  0  0  0  0  0  0  0  0  0  0
  -28.7670  -18.4214   22.5748 C   0  0  0  0  0  0  0  0  0  0  0  0
  -28.4418  -16.9668   20.6133 C   0  0  0  0  0  0  0  0  0  0  0  0
  -24.9435  -29.8703   25.6306 C   0  0  1  0  0  0  0  0  0  0  0  0
  -24.2322  -30.9001   22.0435 C   0  0  1  0  0  0  0  0  0  0  0  0
  -29.7308  -16.1886   20.9243 C   0  0  2  0  0  0  0  0  0  0  0  0
  -26.5443  -23.2209   14.2439 C   0  0  0  0  0  0  0  0  0  0  0  0
  -29.0448  -23.1427   13.9335 C   0  0  0  0  0  0  0  0  0  0  0  0
  -19.2855  -31.4865   16.1115 C   0  0  0  0  0  0  0  0  0  0  0  0
  -20.0938  -28.8443   22.1311 C   0  0  0  0  0  0  0  0  0  0  0  0
  -18.7803  -28.9730   20.0036 C   0  0  0  0  0  0  0  0  0  0  0  0
  -19.0127  -30.9935   21.4480 C   0  0  0  0  0  0  0  0  0  0  0  0
  -23.0234  -32.1916   16.0304 C   0  0  0  0  0  0  0  0  0  0  0  0
  -28.5190  -25.6075   19.3263 C   0  0  0  0  0  0  0  0  0  1  0  0
  -28.4476  -24.1075   19.1153 C   0  0  0  0  0  0  0  0  0  0  0  0
  -27.9054  -23.2399   14.9668 C   0  0  0  0  0  0  0  0  0  0  0  0
  -21.0059  -30.1828   20.1206 C   0  0  1  0  0  0  0  0  0  0  0  0
  -20.6525  -31.7890   16.7052 C   0  0  2  0  0  0  0  0  0  0  0  0
  -19.7509  -29.7418   20.9254 C   0  0  0  0  0  0  0  0  0  0  0  0
  -28.4913  -14.1309   20.3670 N   0  0  0  0  0  0  0  0  0  0  0  0
  -28.2724  -21.6159   18.3571 N   0  0  0  0  0  0  0  0  0  0  0  0
  -29.6757  -14.7649   20.4027 N   0  0  0  0  0  0  0  0  0  0  0  0
  -23.2830  -30.3468   21.0754 N   0  0  0  0  0  0  0  0  0  0  0  0
  -28.5488  -18.3407   21.1289 N   0  0  0  0  0  0  0  0  0  0  0  0
  -31.9774  -14.4967   19.9119 N   0  0  0  0  0  0  0  0  0  0  0  0
  -30.1901  -10.5203   18.7325 N   0  0  0  0  0  0  0  0  0  0  0  0
  -28.2812  -19.3257   19.0027 N   0  0  0  0  0  0  0  0  0  0  0  0
  -24.9059  -30.5169   24.3364 N   0  0  0  0  0  0  0  0  0  0  0  0
  -20.7137  -31.0558   18.9888 N   0  0  0  0  0  0  0  0  0  0  0  0
  -21.6396  -31.8757   15.5920 N   0  3  0  0  0  0  0  0  0  0  0  0
  -32.1407  -11.7186   18.8665 O   0  0  0  0  0  0  0  0  0  0  0  0
  -23.3567  -29.1118   23.3126 O   0  0  0  0  0  0  0  0  0  0  0  0
  -21.6732  -31.9715   21.5284 O   0  0  0  0  0  0  0  0  0  0  0  0
  -21.6540  -29.6920   17.3662 O   0  0  0  0  0  0  0  0  0  0  0  0
  -28.5546  -20.6405   20.8943 O   0  0  0  0  0  0  0  0  0  0  0  0
  -24.8207   -9.0829   19.1044 O   0  0  0  0  0  0  0  0  0  0  0  0
  -27.2934  -26.1977   18.8950 O   0  0  0  0  0  0  0  0  0  1  0  0
  -28.2691  -23.8413   17.7295 O   0  0  0  0  0  0  0  0  0  0  0  0
  -21.1751   -8.3327   23.1727 F   0  0  0  0  0  0  0  0  0  0  0  0
  -24.5599   -6.6234   20.3394 F   0  0  0  0  0  0  0  0  0  0  0  0
  1  2  1  0  0  0  0
  1  5  2  0  0  0  0
  2  6  2  0  0  0  0
  3  9  2  0  0  0  0
  3 17  1  0  0  0  0
  4 10  1  0  0  0  0
  4 17  2  0  0  0  0
  5 19  1  0  0  0  0
  6 21  1  0  0  0  0
  7 11  2  0  0  0  0
  7 20  1  0  0  0  0
  8 14  2  0  0  0  0
  8 23  1  0  0  0  0
  9 24  1  0  0  0  0
 10 24  2  0  0  0  0
 11 25  1  0  0  0  0
 12 13  2  0  0  0  0
 12 26  1  0  0  0  0
 13 27  1  0  0  0  0
 14 30  1  0  0  0  0
 15 22  1  0  0  0  0
 15 25  2  0  0  0  0
 16 27  2  0  0  0  0
 16 28  1  0  0  0  0
 17 29  1  0  0  0  0
 18 29  1  0  0  0  0
 18 32  2  0  0  0  0
 18 33  1  0  0  0  0
 19 21  2  0  0  0  0
 19 38  1  0  0  0  0
 20 22  2  0  0  0  0
 20 39  1  0  0  0  0
 21 47  1  0  0  0  0
 22 40  1  0  0  0  0
 23 31  2  0  0  0  0
 23 59  1  0  0  0  0
 24 79  1  0  0  0  0
 25 80  1  0  0  0  0
 26 28  2  0  0  0  0
 26 79  1  0  0  0  0
 27 82  1  0  0  0  0
 28 83  1  0  0  0  0
 29 63  2  0  0  0  0
 30 64  2  0  0  0  0
 30 70  1  0  0  0  0
 31 64  1  0  0  0  0
 31 81  1  0  0  0  0
 32 65  1  0  0  0  0
 32 68  1  0  0  0  0
 33 69  1  0  0  0  0
 33 74  2  0  0  0  0
 34 48  1  0  0  0  0
 34 71  1  0  0  0  0
 34 75  2  0  0  0  0
 35 60  1  0  0  0  0
 35 66  1  0  0  0  0
 35 76  2  0  0  0  0
 36 61  1  0  0  0  0
 36 72  1  0  0  0  0
 36 77  2  0  0  0  0
 37 67  1  0  0  0  0
 37 70  1  0  0  0  0
 37 78  2  0  0  0  0
 38 41  1  0  0  0  0
 39 48  1  0  0  0  0
 40 66  1  0  0  0  0
 41 43  1  0  0  0  0
 42 44  1  0  0  0  0
 42 45  1  0  0  0  0
 43 47  1  0  0  0  0
 44 49  1  0  0  0  0
 45 67  1  0  0  0  0
 46 49  1  0  0  0  0
 46 67  1  0  0  0  0
 47 71  1  0  0  0  0
 48 66  1  0  0  0  0
 49 65  1  0  0  0  0
 50 59  1  0  0  0  0
 51 59  1  0  0  0  0
 52 61  1  0  0  0  0
 53 62  1  0  0  0  0
 54 62  1  0  0  0  0
 55 62  1  0  0  0  0
 56 73  1  0  0  0  0
 57 58  1  0  0  0  0
 57 80  1  0  0  0  0
 58 81  1  0  0  0  0
 60 62  1  0  0  0  0
 60 72  1  0  0  0  0
 61 73  1  0  0  0  0
 63 65  1  0  0  0  0
M  CHG  1  73   1
M  ISO  4  37 100  57 101  70 100  80 101
M  END
> <Batch ID>
0125

> <Smiles>
CNC(C)C(=O)NC(C(=O)N1Cc2cc([101O:1][101CH2:1]COc3nc([100NH:0][100C:0](=O)N4CCCC(n5nc(-c6ccc(Oc7ccc(F)cc7F)cc6)c(C(N)=O)c5N)C4)ccc3C(C)C)ccc2CC1C(=O)NC1CCCc2ccccc21)C(C)(C)C

> <Shape>
0.275

> <Color>
0.096

> <Negative vol penalty>
0.000

$$$$

  -OEChem-04052320353D

 88 98  0     1  0  0  0  0  0999 V2000
  -28.0017  -36.7441   23.3773 C   0  0  0  0  0  0  0  0  0  0  0  0
  -28.4337  -35.4756   23.0034 C   0  0  0  0  0  0  0  0  0  0  0  0
  -25.9272   -9.9309   23.2274 C   0  0  0  0  0  0  0  0  0  0  0  0
  -25.4353   -8.5022   21.3422 C   0  0  0  0  0  0  0  0  0  0  0  0
  -26.7598  -36.9036   23.9906 C   0  0  0  0  0  0  0  0  0  0  0  0
  -27.6244  -34.3657   23.2438 C   0  0  0  0  0  0  0  0  0  0  0  0
  -27.0947  -29.3686   19.7432 C   0  0  0  0  0  0  0  0  0  0  0  0
  -25.3626   -8.9896   24.0881 C   0  0  0  0  0  0  0  0  0  0  0  0
  -24.8708   -7.5608   22.2028 C   0  0  0  0  0  0  0  0  0  0  0  0
  -27.6717  -28.1019   19.8231 C   0  0  0  0  0  0  0  0  0  0  0  0
  -22.9762   -4.9419   23.8646 C   0  0  0  0  0  0  0  0  0  0  0  0
  -21.7585   -4.3720   23.4933 C   0  0  0  0  0  0  0  0  0  0  0  0
  -25.7102  -27.2869   20.9665 C   0  0  0  0  0  0  0  0  0  0  0  0
  -27.2998  -22.2844   20.5817 C   0  0  0  0  0  0  0  0  0  0  0  0
  -20.7359   -6.5609   23.4874 C   0  0  0  0  0  0  0  0  0  0  0  0
  -25.9635   -9.6872   21.8544 C   0  0  0  0  0  0  0  0  0  0  0  0
  -27.8903  -10.7382   20.5542 C   0  0  0  0  0  0  0  0  0  0  0  0
  -25.9307  -35.7963   24.2299 C   0  0  0  0  0  0  0  0  0  0  0  0
  -25.8234  -29.6070   20.2850 C   0  0  0  0  0  0  0  0  0  0  0  0
  -26.3709  -34.5105   23.8621 C   0  0  0  0  0  0  0  0  0  0  0  0
  -25.1181  -28.5568   20.8900 C   0  0  0  0  0  0  0  0  0  0  0  0
  -27.6442  -23.5228   21.1774 C   0  0  0  0  0  0  0  0  0  0  0  0
  -24.8344   -7.8045   23.5758 C   0  0  0  0  0  0  0  0  0  0  0  0
  -26.9808  -27.0616   20.4373 C   0  0  0  0  0  0  0  0  0  0  0  0
  -23.0738   -6.3213   24.0475 C   0  0  0  0  0  0  0  0  0  0  0  0
  -20.6383   -5.1814   23.3047 C   0  0  0  0  0  0  0  0  0  0  0  0
  -21.9537   -7.1308   23.8588 C   0  0  0  0  0  0  0  0  0  0  0  0
  -26.5460  -10.6595   20.9648 C   0  0  0  0  0  0  0  0  0  0  0  0
  -28.3292  -21.4052   20.8362 C   0  0  0  0  0  0  0  0  0  0  0  0
  -28.8736  -23.3628   21.7776 C   0  0  0  0  0  0  0  0  0  0  0  0
  -27.9306  -11.8268   19.7176 C   0  0  0  0  0  0  0  0  0  0  0  0
  -29.0030   -9.9020   20.8981 C   0  0  0  0  0  0  0  0  0  0  0  0
  -24.6791  -31.4866   22.5788 C   0  0  0  0  0  0  0  0  0  0  0  0
  -21.8187  -30.3879   21.5140 C   0  0  0  0  0  0  0  0  0  0  0  0
  -20.0747  -27.9381   19.9005 C   0  0  0  0  0  0  0  0  0  0  0  0
  -26.5967  -16.9631   18.3545 C   0  0  0  0  0  0  0  0  0  0  0  0
  -24.6171  -36.0127   24.9385 C   0  0  0  0  0  0  0  0  0  0  0  0
  -25.2036  -30.9724   20.1670 C   0  0  0  0  0  0  0  0  0  0  0  0
  -23.7421  -28.7558   21.4692 C   0  0  0  0  0  0  0  0  0  0  0  0
  -23.6583  -34.8309   24.8182 C   0  0  0  0  0  0  0  0  0  0  0  0
  -24.2072  -14.5600   17.6735 C   0  0  0  0  0  0  0  0  0  0  0  0
  -24.3874  -33.5211   25.1002 C   0  0  0  0  0  0  0  0  0  0  0  0
  -30.0749  -24.1501   23.9705 C   0  0  0  0  0  0  0  0  0  0  0  0
  -28.9731  -25.1297   23.7121 C   0  0  0  0  0  0  0  0  0  0  0  0
  -24.7040  -13.3288   18.4309 C   0  0  0  0  0  0  0  0  0  0  0  0
  -27.3924  -19.0607   21.0536 C   0  0  0  0  0  0  0  0  0  0  0  0
  -28.5304  -19.7736   18.9074 C   0  0  0  0  0  0  0  0  0  0  0  0
  -24.4025  -15.8252   18.5010 C   0  0  0  0  0  0  0  0  0  0  0  0
  -27.5379  -17.5994   20.6195 C   0  0  0  0  0  0  0  0  0  0  0  0
  -28.6722  -18.3000   18.5374 C   0  0  0  0  0  0  0  0  0  0  0  0
  -26.3256  -14.8272   19.6942 C   0  0  0  0  0  0  0  0  0  0  0  0
  -25.5109  -33.2851   24.0835 C   0  0  1  0  0  0  0  0  0  0  0  0
  -28.4863  -19.9503   20.4360 C   0  0  0  0  0  0  0  0  0  0  0  0
  -29.6474  -24.4369   22.5464 C   0  0  0  0  0  0  0  0  0  0  0  0
  -24.1188  -31.2282   21.2087 C   0  0  1  0  0  0  0  0  0  0  0  0
  -26.1581  -13.5167   18.8986 C   0  0  1  0  0  0  0  0  0  0  0  0
  -17.7451  -27.3016   19.2184 C   0  0  0  0  0  0  0  0  0  0  0  0
  -31.4347  -21.0760   20.8856 C   0  0  0  0  0  0  0  0  0  0  0  0
  -30.2937  -20.3645   23.0299 C   0  0  0  0  0  0  0  0  0  0  0  0
  -21.2003  -29.5786   24.3902 C   0  0  0  0  0  0  0  0  0  0  0  0
  -19.3514  -28.1362   23.5132 C   0  0  0  0  0  0  0  0  0  0  0  0
  -19.2802  -30.6044   23.1593 C   0  0  0  0  0  0  0  0  0  0  0  0
  -20.7861  -27.9572   17.0278 C   0  0  0  0  0  0  0  0  0  0  0  0
  -26.8260  -24.7520   21.1521 C   0  0  0  0  0  0  0  0  0  1  0  0
  -20.9336  -29.2116   21.8485 C   0  0  1  0  0  0  0  0  0  0  0  0
  -19.0288  -28.0028   18.8022 C   0  0  2  0  0  0  0  0  0  0  0  0
  -30.5252  -21.5061   22.0382 C   0  0  0  0  0  0  0  0  0  0  0  0
  -20.2181  -29.3791   23.2187 C   0  0  0  0  0  0  0  0  0  0  0  0
  -25.7873  -11.6216   20.4330 N   0  0  0  0  0  0  0  0  0  0  0  0
  -29.2805  -22.0717   21.5635 N   0  0  0  0  0  0  0  0  0  0  0  0
  -26.6577  -12.3151   19.6797 N   0  0  0  0  0  0  0  0  0  0  0  0
  -23.1813  -30.1104   21.3347 N   0  0  0  0  0  0  0  0  0  0  0  0
  -25.7943  -15.9656   18.9287 N   0  0  0  0  0  0  0  0  0  0  0  0
  -27.6168  -17.4981   19.1556 N   0  0  0  0  0  0  0  0  0  0  0  0
  -28.9303  -12.4044   19.0181 N   0  0  0  0  0  0  0  0  0  0  0  0
  -28.7861   -8.8267   21.7705 N   0  0  0  0  0  0  0  0  0  0  0  0
  -24.9658  -32.8152   22.8280 N   0  0  0  0  0  0  0  0  0  0  0  0
  -20.0272  -29.0481   20.7172 N   0  0  0  0  0  0  0  0  0  0  0  0
  -19.5389  -27.3523   17.5622 N   0  3  0  0  0  0  0  0  0  0  0  0
  -30.1587  -10.1122   20.4582 O   0  0  0  0  0  0  0  0  0  0  0  0
  -24.8381  -30.5501   23.3530 O   0  0  0  0  0  0  0  0  0  0  0  0
  -21.3184  -31.5105   21.4085 O   0  0  0  0  0  0  0  0  0  0  0  0
  -20.8534  -26.9952   20.0241 O   0  0  0  0  0  0  0  0  0  0  0  0
  -26.4136  -17.3528   17.1945 O   0  0  0  0  0  0  0  0  0  0  0  0
  -24.2837   -6.8857   24.4154 O   0  0  0  0  0  0  0  0  0  0  0  0
  -27.5505  -25.8058   20.5184 O   0  0  0  0  0  0  0  0  0  1  0  0
  -19.4694   -4.6342   22.9465 F   0  0  0  0  0  0  0  0  0  0  0  0
  -22.0415   -8.4567   24.0318 F   0  0  0  0  0  0  0  0  0  0  0  0
  1  2  1  0  0  0  0
  1  5  2  0  0  0  0
  2  6  2  0  0  0  0
  3  8  2  0  0  0  0
  3 16  1  0  0  0  0
  4  9  1  0  0  0  0
  4 16  2  0  0  0  0
  5 18  1  0  0  0  0
  6 20  1  0  0  0  0
  7 10  2  0  0  0  0
  7 19  1  0  0  0  0
  8 23  1  0  0  0  0
  9 23  2  0  0  0  0
 10 24  1  0  0  0  0
 11 12  2  0  0  0  0
 11 25  1  0  0  0  0
 12 26  1  0  0  0  0
 13 21  1  0  0  0  0
 13 24  2  0  0  0  0
 14 22  1  0  0  0  0
 14 29  2  0  0  0  0
 15 26  2  0  0  0  0
 15 27  1  0  0  0  0
 16 28  1  0  0  0  0
 17 28  1  0  0  0  0
 17 31  2  0  0  0  0
 17 32  1  0  0  0  0
 18 20  2  0  0  0  0
 18 37  1  0  0  0  0
 19 21  2  0  0  0  0
 19 38  1  0  0  0  0
 20 52  1  0  0  0  0
 21 39  1  0  0  0  0
 22 30  2  0  0  0  0
 22 64  1  0  0  0  0
 23 85  1  0  0  0  0
 24 86  1  0  0  0  0
 25 27  2  0  0  0  0
 25 85  1  0  0  0  0
 26 87  1  0  0  0  0
 27 88  1  0  0  0  0
 28 69  2  0  0  0  0
 29 53  1  0  0  0  0
 29 70  1  0  0  0  0
 30 54  1  0  0  0  0
 30 70  1  0  0  0  0
 31 71  1  0  0  0  0
 31 75  1  0  0  0  0
 32 76  1  0  0  0  0
 32 80  2  0  0  0  0
 33 55  1  0  0  0  0
 33 77  1  0  0  0  0
 33 81  2  0  0  0  0
 34 65  1  0  0  0  0
 34 72  1  0  0  0  0
 34 82  2  0  0  0  0
 35 66  1  0  0  0  0
 35 78  1  0  0  0  0
 35 83  2  0  0  0  0
 36 73  1  0  0  0  0
 36 74  1  0  0  0  0
 36 84  2  0  0  0  0
 37 40  1  0  0  0  0
 38 55  1  0  0  0  0
 39 72  1  0  0  0  0
 40 42  1  0  0  0  0
 41 45  1  0  0  0  0
 41 48  1  0  0  0  0
 42 52  1  0  0  0  0
 43 44  1  0  0  0  0
 43 54  1  0  0  0  0
 44 54  1  0  0  0  0
 45 56  1  0  0  0  0
 46 49  1  0  0  0  0
 46 53  1  0  0  0  0
 47 50  1  0  0  0  0
 47 53  1  0  0  0  0
 48 73  1  0  0  0  0
 49 74  1  0  0  0  0
 50 74  1  0  0  0  0
 51 56  1  0  0  0  0
 51 73  1  0  0  0  0
 52 77  1  0  0  0  0
 55 72  1  0  0  0  0
 56 71  1  0  0  0  0
 57 66  1  0  0  0  0
 58 67  1  0  0  0  0
 59 67  1  0  0  0  0
 60 68  1  0  0  0  0
 61 68  1  0  0  0  0
 62 68  1  0  0  0  0
 63 79  1  0  0  0  0
 64 86  1  0  0  0  0
 65 68  1  0  0  0  0
 65 78  1  0  0  0  0
 66 79  1  0  0  0  0
 67 70  1  0  0  0  0
 69 71  1  0  0  0  0
M  CHG  1  79   1
M  ISO  4  36 100  64 101  74 100  86 101
M  END
> <Batch ID>
0125

> <Smiles>
CNC(C)C(=O)NC(C(=O)N1Cc2cc([101O:1][101CH2:1]c3cc(C4CC[100N:0]([100C:0](=O)N5CCCC(n6nc(-c7ccc(Oc8ccc(F)cc8F)cc7)c(C(N)=O)c6N)C5)CC4)n(C(C)C)c3C3CC3)ccc2CC1C(=O)NC1CCCc2ccccc21)C(C)(C)C

> <Shape>
0.290

> <Color>
0.070

> <Negative vol penalty>
0.000

$$$$

  -OEChem-04052320353D

 84 93  0     1  0  0  0  0  0999 V2000
  -26.4622  -37.9636   23.9399 C   0  0  0  0  0  0  0  0  0  0  0  0
  -27.1625  -37.1365   23.0676 C   0  0  0  0  0  0  0  0  0  0  0  0
  -24.9377  -13.3562   21.8340 C   0  0  0  0  0  0  0  0  0  0  0  0
  -26.0314  -12.8291   19.7452 C   0  0  0  0  0  0  0  0  0  0  0  0
  -25.6855  -37.4063   24.9548 C   0  0  0  0  0  0  0  0  0  0  0  0
  -27.0873  -35.7514   23.2104 C   0  0  0  0  0  0  0  0  0  0  0  0
  -27.1629  -29.7271   19.3351 C   0  0  0  0  0  0  0  0  0  0  0  0
  -24.3762  -12.0796   21.8622 C   0  0  0  0  0  0  0  0  0  0  0  0
  -25.4700  -11.5525   19.7734 C   0  0  0  0  0  0  0  0  0  0  0  0
  -27.8169  -28.4976   19.2682 C   0  0  0  0  0  0  0  0  0  0  0  0
  -21.7928  -10.4624   20.4011 C   0  0  0  0  0  0  0  0  0  0  0  0
  -20.4414  -10.3567   20.7298 C   0  0  0  0  0  0  0  0  0  0  0  0
  -26.3806  -27.6455   21.0089 C   0  0  0  0  0  0  0  0  0  0  0  0
  -30.6572  -22.1933   19.2265 C   0  0  0  0  0  0  0  0  0  0  0  0
  -30.4882  -24.3769   20.2205 C   0  0  0  0  0  0  0  0  0  0  0  0
  -21.0115   -8.9771   22.6295 C   0  0  0  0  0  0  0  0  0  0  0  0
  -25.7652  -13.7310   20.7755 C   0  0  0  0  0  0  0  0  0  0  0  0
  -27.5800  -15.4480   21.2914 C   0  0  0  0  0  0  0  0  0  0  0  0
  -25.5931  -36.0136   25.1042 C   0  0  0  0  0  0  0  0  0  0  0  0
  -26.1182  -29.9287   20.2486 C   0  0  0  0  0  0  0  0  0  0  0  0
  -26.3097  -35.1750   24.2292 C   0  0  0  0  0  0  0  0  0  0  0  0
  -25.7132  -28.8777   21.0837 C   0  0  0  0  0  0  0  0  0  0  0  0
  -30.9845  -23.0783   20.2478 C   0  0  0  0  0  0  0  0  0  0  0  0
  -24.6424  -11.1778   20.8319 C   0  0  0  0  0  0  0  0  0  0  0  0
  -27.4277  -27.4575   20.1071 C   0  0  0  0  0  0  0  0  0  0  0  0
  -22.7536   -9.8254   21.1865 C   0  0  0  0  0  0  0  0  0  0  0  0
  -20.0507   -9.6141   21.8441 C   0  0  0  0  0  0  0  0  0  0  0  0
  -22.3629   -9.0828   22.3007 C   0  0  0  0  0  0  0  0  0  0  0  0
  -26.3450  -15.0497   20.7455 C   0  0  0  0  0  0  0  0  0  0  0  0
  -29.8365  -22.6523   18.2088 C   0  0  0  0  0  0  0  0  0  0  0  0
  -29.6753  -24.7381   19.1582 C   0  0  0  0  0  0  0  0  0  0  0  0
  -27.6687  -16.7870   20.9991 C   0  0  0  0  0  0  0  0  0  0  0  0
  -28.5593  -14.6764   21.9994 C   0  0  0  0  0  0  0  0  0  0  0  0
  -25.6451  -31.8669   22.7232 C   0  0  0  0  0  0  0  0  0  0  0  0
  -22.6730  -30.5684   22.6733 C   0  0  0  0  0  0  0  0  0  0  0  0
  -20.6697  -27.9501   21.7910 C   0  0  0  0  0  0  0  0  0  0  0  0
  -27.1029  -21.0361   17.4254 C   0  0  0  0  0  0  0  0  0  0  0  0
  -24.7785  -35.4584   26.2457 C   0  0  0  0  0  0  0  0  0  0  0  0
  -25.4052  -31.2525   20.2899 C   0  0  0  0  0  0  0  0  0  0  0  0
  -24.5841  -29.0366   22.0677 C   0  0  0  0  0  0  0  0  0  0  0  0
  -24.4533  -33.9744   26.0966 C   0  0  0  0  0  0  0  0  0  0  0  0
  -24.1993  -20.0029   19.2081 C   0  0  0  0  0  0  0  0  0  0  0  0
  -25.6995  -33.1926   25.6933 C   0  0  0  0  0  0  0  0  0  0  0  0
  -31.7123  -21.1998   23.5717 C   0  0  0  0  0  0  0  0  0  0  0  0
  -30.3134  -21.6505   23.2560 C   0  0  0  0  0  0  0  0  0  0  0  0
  -24.5985  -18.6529   19.8064 C   0  0  0  0  0  0  0  0  0  0  0  0
  -24.8027  -20.2057   17.8200 C   0  0  0  0  0  0  0  0  0  0  0  0
  -26.6644  -18.6792   18.3470 C   0  0  0  0  0  0  0  0  0  0  0  0
  -26.2335  -33.6674   24.3365 C   0  0  1  0  0  0  0  0  0  0  0  0
  -24.6952  -31.5076   21.6159 C   0  0  1  0  0  0  0  0  0  0  0  0
  -31.3030  -21.4369   22.1444 C   0  0  0  0  0  0  0  0  0  0  0  0
  -26.1255  -18.4529   19.7699 C   0  0  2  0  0  0  0  0  0  0  0  0
  -18.2912  -27.1600   21.9167 C   0  0  0  0  0  0  0  0  0  0  0  0
  -23.0591  -29.8829   25.6213 C   0  0  0  0  0  0  0  0  0  0  0  0
  -21.1256  -28.3032   25.4354 C   0  0  0  0  0  0  0  0  0  0  0  0
  -20.7837  -30.7422   25.0394 C   0  0  0  0  0  0  0  0  0  0  0  0
  -20.4244  -27.8525   18.8433 C   0  0  0  0  0  0  0  0  0  0  0  0
  -29.4631  -21.7297   17.0970 C   0  0  0  0  0  0  0  0  0  0  0  0
  -29.1235  -26.1320   19.0955 C   0  0  0  0  0  0  0  0  0  1  0  0
  -31.8634  -22.6362   21.3683 C   0  0  1  0  0  0  0  0  0  0  0  0
  -22.0199  -29.3679   23.3146 C   0  0  1  0  0  0  0  0  0  0  0  0
  -19.3261  -27.9027   21.0861 C   0  0  2  0  0  0  0  0  0  0  0  0
  -21.7697  -29.5713   24.8356 C   0  0  0  0  0  0  0  0  0  0  0  0
  -25.6958  -16.0545   20.1515 N   0  0  0  0  0  0  0  0  0  0  0  0
  -29.3354  -23.9063   18.1481 N   0  0  0  0  0  0  0  0  0  0  0  0
  -26.5259  -17.0974   20.3225 N   0  0  0  0  0  0  0  0  0  0  0  0
  -23.9222  -30.3517   22.0747 N   0  0  0  0  0  0  0  0  0  0  0  0
  -26.2531  -20.0033   17.8547 N   0  0  0  0  0  0  0  0  0  0  0  0
  -28.6121  -17.7175   21.2574 N   0  0  0  0  0  0  0  0  0  0  0  0
  -28.3096  -13.3140   22.2133 N   0  0  0  0  0  0  0  0  0  0  0  0
  -25.4343  -33.1226   23.2600 N   0  0  0  0  0  0  0  0  0  0  0  0
  -20.8126  -29.0982   22.5412 N   0  0  0  0  0  0  0  0  0  0  0  0
  -28.4637  -20.7642   17.4969 N   0  0  0  0  0  0  0  0  0  0  0  0
  -33.2544  -22.2733   20.9288 N   0  3  0  0  0  0  0  0  0  0  0  0
  -19.4553  -27.2141   19.7708 N   0  3  0  0  0  0  0  0  0  0  0  0
  -29.6169  -15.1839   22.4440 O   0  0  0  0  0  0  0  0  0  0  0  0
  -26.5048  -31.0638   23.0661 O   0  0  0  0  0  0  0  0  0  0  0  0
  -22.0928  -31.6567   22.6961 O   0  0  0  0  0  0  0  0  0  0  0  0
  -21.5071  -27.0562   21.6896 O   0  0  0  0  0  0  0  0  0  0  0  0
  -26.6804  -22.1221   17.0144 O   0  0  0  0  0  0  0  0  0  0  0  0
  -24.0949   -9.9319   20.8592 O   0  0  0  0  0  0  0  0  0  0  0  0
  -28.0649  -26.2567   20.0442 O   0  0  0  0  0  0  0  0  0  1  0  0
  -18.7530   -9.5139   22.1605 F   0  0  0  0  0  0  0  0  0  0  0  0
  -23.2814   -8.4695   23.0597 F   0  0  0  0  0  0  0  0  0  0  0  0
  1  2  1  0  0  0  0
  1  5  2  0  0  0  0
  2  6  2  0  0  0  0
  3  8  2  0  0  0  0
  3 17  1  0  0  0  0
  4  9  1  0  0  0  0
  4 17  2  0  0  0  0
  5 19  1  0  0  0  0
  6 21  1  0  0  0  0
  7 10  2  0  0  0  0
  7 20  1  0  0  0  0
  8 24  1  0  0  0  0
  9 24  2  0  0  0  0
 10 25  1  0  0  0  0
 11 12  2  0  0  0  0
 11 26  1  0  0  0  0
 12 27  1  0  0  0  0
 13 22  1  0  0  0  0
 13 25  2  0  0  0  0
 14 23  1  0  0  0  0
 14 30  2  0  0  0  0
 15 23  2  0  0  0  0
 15 31  1  0  0  0  0
 16 27  2  0  0  0  0
 16 28  1  0  0  0  0
 17 29  1  0  0  0  0
 18 29  1  0  0  0  0
 18 32  2  0  0  0  0
 18 33  1  0  0  0  0
 19 21  2  0  0  0  0
 19 38  1  0  0  0  0
 20 22  2  0  0  0  0
 20 39  1  0  0  0  0
 21 49  1  0  0  0  0
 22 40  1  0  0  0  0
 23 60  1  0  0  0  0
 24 81  1  0  0  0  0
 25 82  1  0  0  0  0
 26 28  2  0  0  0  0
 26 81  1  0  0  0  0
 27 83  1  0  0  0  0
 28 84  1  0  0  0  0
 29 64  2  0  0  0  0
 30 58  1  0  0  0  0
 30 65  1  0  0  0  0
 31 59  1  0  0  0  0
 31 65  2  0  0  0  0
 32 66  1  0  0  0  0
 32 69  1  0  0  0  0
 33 70  1  0  0  0  0
 33 76  2  0  0  0  0
 34 50  1  0  0  0  0
 34 71  1  0  0  0  0
 34 77  2  0  0  0  0
 35 61  1  0  0  0  0
 35 67  1  0  0  0  0
 35 78  2  0  0  0  0
 36 62  1  0  0  0  0
 36 72  1  0  0  0  0
 36 79  2  0  0  0  0
 37 68  1  0  0  0  0
 37 73  1  0  0  0  0
 37 80  2  0  0  0  0
 38 41  1  0  0  0  0
 39 50  1  0  0  0  0
 40 67  1  0  0  0  0
 41 43  1  0  0  0  0
 42 46  1  0  0  0  0
 42 47  1  0  0  0  0
 43 49  1  0  0  0  0
 44 45  1  0  0  0  0
 44 51  1  0  0  0  0
 45 51  1  0  0  0  0
 46 52  1  0  0  0  0
 47 68  1  0  0  0  0
 48 52  1  0  0  0  0
 48 68  1  0  0  0  0
 49 71  1  0  0  0  0
 50 67  1  0  0  0  0
 51 60  1  0  0  0  0
 52 66  1  0  0  0  0
 53 62  1  0  0  0  0
 54 63  1  0  0  0  0
 55 63  1  0  0  0  0
 56 63  1  0  0  0  0
 57 75  1  0  0  0  0
 58 73  1  0  0  0  0
 59 82  1  0  0  0  0
 60 74  1  0  0  0  0
 61 63  1  0  0  0  0
 61 72  1  0  0  0  0
 62 75  1  0  0  0  0
 64 66  1  0  0  0  0
M  CHG  2  74   1  75   1
M  ISO  4  37 100  59 101  73 100  82 101
M  END
> <Batch ID>
0125

> <Smiles>
CNC(C)C(=O)NC(C(=O)N1Cc2cc([101O:1][101CH2:1]c3cc(C(N)C4CC4)cc(C[100NH:0][100C:0](=O)N4CCCC(n5nc(-c6ccc(Oc7ccc(F)cc7F)cc6)c(C(N)=O)c5N)C4)n3)ccc2CC1C(=O)NC1CCCc2ccccc21)C(C)(C)C

> <Shape>
0.301

> <Color>
0.087

> <Negative vol penalty>
0.000

$$$$

  -OEChem-04052320353D

 83 91  0     1  0  0  0  0  0999 V2000
  -39.5231  -27.5185   24.6787 C   0  0  0  0  0  0  0  0  0  0  0  0
  -39.0190  -26.3359   24.1469 C   0  0  0  0  0  0  0  0  0  0  0  0
  -23.0005   -9.8922   19.9808 C   0  0  0  0  0  0  0  0  0  0  0  0
  -23.7267   -9.9437   22.2845 C   0  0  0  0  0  0  0  0  0  0  0  0
  -38.8620  -28.7238   24.4458 C   0  0  0  0  0  0  0  0  0  0  0  0
  -37.8528  -26.3578   23.3828 C   0  0  0  0  0  0  0  0  0  0  0  0
  -38.2311  -23.5576   19.1803 C   0  0  0  0  0  0  0  0  0  0  0  0
  -22.2348   -8.7572   20.2475 C   0  0  0  0  0  0  0  0  0  0  0  0
  -22.9610   -8.8087   22.5513 C   0  0  0  0  0  0  0  0  0  0  0  0
  -38.1039  -22.1765   19.3218 C   0  0  0  0  0  0  0  0  0  0  0  0
  -23.2072   -5.4699   22.0793 C   0  0  0  0  0  0  0  0  0  0  0  0
  -23.7958   -4.4531   22.8311 C   0  0  0  0  0  0  0  0  0  0  0  0
  -35.8135  -22.3173   18.5779 C   0  0  0  0  0  0  0  0  0  0  0  0
  -31.5635  -19.3240   22.6687 C   0  0  0  0  0  0  0  0  0  0  0  0
  -22.0725   -4.6949   24.5071 C   0  0  0  0  0  0  0  0  0  0  0  0
  -23.7465  -10.4854   20.9993 C   0  0  0  0  0  0  0  0  0  0  0  0
  -24.1301  -13.0012   20.8231 C   0  0  0  0  0  0  0  0  0  0  0  0
  -37.6924  -28.7618   23.6704 C   0  0  0  0  0  0  0  0  0  0  0  0
  -37.1453  -24.3317   18.7462 C   0  0  0  0  0  0  0  0  0  0  0  0
  -37.1747  -27.5645   23.1404 C   0  0  0  0  0  0  0  0  0  0  0  0
  -35.9303  -23.7078   18.4292 C   0  0  0  0  0  0  0  0  0  0  0  0
  -30.2857  -18.9459   23.0656 C   0  0  0  0  0  0  0  0  0  0  0  0
  -29.7772  -17.7136   22.6705 C   0  0  0  0  0  0  0  0  0  0  0  0
  -22.2150   -8.2155   21.5327 C   0  0  0  0  0  0  0  0  0  0  0  0
  -36.8941  -21.5565   19.0234 C   0  0  0  0  0  0  0  0  0  0  0  0
  -22.0513   -6.0993   22.5414 C   0  0  0  0  0  0  0  0  0  0  0  0
  -23.2284   -4.0656   24.0450 C   0  0  0  0  0  0  0  0  0  0  0  0
  -21.4840   -5.7118   23.7553 C   0  0  0  0  0  0  0  0  0  0  0  0
  -24.5381  -11.6575   20.7243 C   0  0  0  0  0  0  0  0  0  0  0  0
  -30.5800  -16.9024   21.8849 C   0  0  0  0  0  0  0  0  0  0  0  0
  -32.2865  -18.4406   21.8833 C   0  0  0  0  0  0  0  0  0  0  0  0
  -25.2393  -13.7245   20.4582 C   0  0  0  0  0  0  0  0  0  0  0  0
  -22.8620  -13.5469   21.2102 C   0  0  0  0  0  0  0  0  0  0  0  0
  -35.4247  -26.6886   20.0062 C   0  0  0  0  0  0  0  0  0  0  0  0
  -34.0783  -26.7594   17.0559 C   0  0  0  0  0  0  0  0  0  0  0  0
  -33.3573  -25.1042   14.1598 C   0  0  0  0  0  0  0  0  0  0  0  0
  -30.7182  -14.6891   20.6896 C   0  0  0  0  0  0  0  0  0  0  0  0
  -36.9867  -30.0817   23.4854 C   0  0  0  0  0  0  0  0  0  0  0  0
  -37.3068  -25.8170   18.5731 C   0  0  0  0  0  0  0  0  0  0  0  0
  -34.7405  -24.4911   17.9400 C   0  0  0  0  0  0  0  0  0  0  0  0
  -35.9636  -30.0719   22.3524 C   0  0  0  0  0  0  0  0  0  0  0  0
  -29.6004  -12.2355   18.3642 C   0  0  0  0  0  0  0  0  0  0  0  0
  -35.0874  -28.8260   22.4352 C   0  0  0  0  0  0  0  0  0  0  0  0
  -28.1502  -11.9769   18.7791 C   0  0  0  0  0  0  0  0  0  0  0  0
  -30.5014  -12.4795   19.5736 C   0  0  0  0  0  0  0  0  0  0  0  0
  -28.5861  -13.2671   20.9080 C   0  0  0  0  0  0  0  0  0  0  0  0
  -35.9259  -27.5509   22.2857 C   0  0  1  0  0  0  0  0  0  0  0  0
  -35.9813  -26.5711   18.6155 C   0  0  1  0  0  0  0  0  0  0  0  0
  -27.6280  -13.0802   19.7202 C   0  0  2  0  0  0  0  0  0  0  0  0
  -29.4834  -19.8777   23.9125 C   0  0  0  0  0  0  0  0  0  0  0  0
  -28.4070  -17.2902   23.0867 C   0  0  0  0  0  0  0  0  0  0  0  0
  -32.2138  -25.4119   11.9473 C   0  0  0  0  0  0  0  0  0  0  0  0
  -31.3641  -26.4997   18.4254 C   0  0  0  0  0  0  0  0  0  0  0  0
  -30.3855  -25.8632   16.2105 C   0  0  0  0  0  0  0  0  0  0  0  0
  -31.4187  -28.1132   16.5153 C   0  0  0  0  0  0  0  0  0  0  0  0
  -35.8625  -24.6065   12.6647 C   0  0  0  0  0  0  0  0  0  0  0  0
  -35.6033  -18.4156   20.2806 C   0  0  0  0  0  0  0  0  0  0  0  0
  -35.4718  -19.7088   19.4914 C   0  0  0  0  0  0  0  0  0  1  0  0
  -34.2482  -17.8500   20.6757 C   0  0  0  0  0  0  0  0  0  0  0  0
  -32.9058  -26.0718   16.3990 C   0  0  1  0  0  0  0  0  0  0  0  0
  -33.5300  -25.4990   12.7042 C   0  0  2  0  0  0  0  0  0  0  0  0
  -31.5401  -26.6222   16.8986 C   0  0  0  0  0  0  0  0  0  0  0  0
  -25.8073  -11.5318   20.3276 N   0  0  0  0  0  0  0  0  0  0  0  0
  -31.8261  -17.2353   21.4797 N   0  0  0  0  0  0  0  0  0  0  0  0
  -26.2064  -12.8059   20.1737 N   0  0  0  0  0  0  0  0  0  0  0  0
  -34.9462  -25.9415   17.7931 N   0  0  0  0  0  0  0  0  0  0  0  0
  -29.9460  -13.5401   20.4171 N   0  0  0  0  0  0  0  0  0  0  0  0
  -25.4719  -15.0504   20.3560 N   0  0  0  0  0  0  0  0  0  0  0  0
  -21.8309  -12.6621   21.5542 N   0  0  0  0  0  0  0  0  0  0  0  0
  -30.0737  -15.6439   21.4755 N   0  0  0  0  0  0  0  0  0  0  0  0
  -36.2654  -27.3291   20.8964 N   0  0  0  0  0  0  0  0  0  0  0  0
  -33.1113  -26.1996   14.9603 N   0  0  0  0  0  0  0  0  0  0  0  0
  -34.5158  -24.6019   12.0376 N   0  3  0  0  0  0  0  0  0  0  0  0
  -22.6445  -14.7820   21.2341 O   0  0  0  0  0  0  0  0  0  0  0  0
  -34.3141  -26.2333   20.2530 O   0  0  0  0  0  0  0  0  0  0  0  0
  -34.2228  -27.9762   16.9140 O   0  0  0  0  0  0  0  0  0  0  0  0
  -33.4296  -23.9401   14.5473 O   0  0  0  0  0  0  0  0  0  0  0  0
  -31.8566  -14.8287   20.2351 O   0  0  0  0  0  0  0  0  0  0  0  0
  -21.4678   -7.1081   21.7934 O   0  0  0  0  0  0  0  0  0  0  0  0
  -36.7670  -20.2086   19.1613 O   0  0  0  0  0  0  0  0  0  1  0  0
  -33.5487  -18.7904   21.4794 O   0  0  0  0  0  0  0  0  0  0  0  0
  -23.7928   -3.0881   24.7662 F   0  0  0  0  0  0  0  0  0  0  0  0
  -20.3729   -6.3120   24.2038 F   0  0  0  0  0  0  0  0  0  0  0  0
  1  2  1  0  0  0  0
  1  5  2  0  0  0  0
  2  6  2  0  0  0  0
  3  8  2  0  0  0  0
  3 16  1  0  0  0  0
  4  9  1  0  0  0  0
  4 16  2  0  0  0  0
  5 18  1  0  0  0  0
  6 20  1  0  0  0  0
  7 10  2  0  0  0  0
  7 19  1  0  0  0  0
  8 24  1  0  0  0  0
  9 24  2  0  0  0  0
 10 25  1  0  0  0  0
 11 12  2  0  0  0  0
 11 26  1  0  0  0  0
 12 27  1  0  0  0  0
 13 21  1  0  0  0  0
 13 25  2  0  0  0  0
 14 22  2  0  0  0  0
 14 31  1  0  0  0  0
 15 27  2  0  0  0  0
 15 28  1  0  0  0  0
 16 29  1  0  0  0  0
 17 29  1  0  0  0  0
 17 32  2  0  0  0  0
 17 33  1  0  0  0  0
 18 20  2  0  0  0  0
 18 38  1  0  0  0  0
 19 21  2  0  0  0  0
 19 39  1  0  0  0  0
 20 47  1  0  0  0  0
 21 40  1  0  0  0  0
 22 23  1  0  0  0  0
 22 50  1  0  0  0  0
 23 30  2  0  0  0  0
 23 51  1  0  0  0  0
 24 79  1  0  0  0  0
 25 80  1  0  0  0  0
 26 28  2  0  0  0  0
 26 79  1  0  0  0  0
 27 82  1  0  0  0  0
 28 83  1  0  0  0  0
 29 63  2  0  0  0  0
 30 64  1  0  0  0  0
 30 70  1  0  0  0  0
 31 64  2  0  0  0  0
 31 81  1  0  0  0  0
 32 65  1  0  0  0  0
 32 68  1  0  0  0  0
 33 69  1  0  0  0  0
 33 74  2  0  0  0  0
 34 48  1  0  0  0  0
 34 71  1  0  0  0  0
 34 75  2  0  0  0  0
 35 60  1  0  0  0  0
 35 66  1  0  0  0  0
 35 76  2  0  0  0  0
 36 61  1  0  0  0  0
 36 72  1  0  0  0  0
 36 77  2  0  0  0  0
 37 67  1  0  0  0  0
 37 70  1  0  0  0  0
 37 78  2  0  0  0  0
 38 41  1  0  0  0  0
 39 48  1  0  0  0  0
 40 66  1  0  0  0  0
 41 43  1  0  0  0  0
 42 44  1  0  0  0  0
 42 45  1  0  0  0  0
 43 47  1  0  0  0  0
 44 49  1  0  0  0  0
 45 67  1  0  0  0  0
 46 49  1  0  0  0  0
 46 67  1  0  0  0  0
 47 71  1  0  0  0  0
 48 66  1  0  0  0  0
 49 65  1  0  0  0  0
 52 61  1  0  0  0  0
 53 62  1  0  0  0  0
 54 62  1  0  0  0  0
 55 62  1  0  0  0  0
 56 73  1  0  0  0  0
 57 58  1  0  0  0  0
 57 59  1  0  0  0  0
 58 80  1  0  0  0  0
 59 81  1  0  0  0  0
 60 62  1  0  0  0  0
 60 72  1  0  0  0  0
 61 73  1  0  0  0  0
 63 65  1  0  0  0  0
M  CHG  1  73   1
M  ISO  4  37 100  58 101  70 100  80 101
M  END
> <Batch ID>
0125

> <Smiles>
CNC(C)C(=O)NC(C(=O)N1Cc2cc([101O:1][101CH2:1]CCOc3cc(C)c(C)c([100NH:0][100C:0](=O)N4CCCC(n5nc(-c6ccc(Oc7ccc(F)cc7F)cc6)c(C(N)=O)c5N)C4)n3)ccc2CC1C(=O)NC1CCCc2ccccc21)C(C)(C)C

> <Shape>
0.187

> <Color>
0.198

> <Negative vol penalty>
0.000

$$$$

  -OEChem-04052320353D

 89 98  0     1  0  0  0  0  0999 V2000
  -29.6837  -31.6467   25.9162 C   0  0  0  0  0  0  0  0  0  0  0  0
  -29.3451  -30.5163   25.1794 C   0  0  0  0  0  0  0  0  0  0  0  0
  -24.8451   -8.5533   21.3673 C   0  0  0  0  0  0  0  0  0  0  0  0
  -23.6683  -10.5903   21.9178 C   0  0  0  0  0  0  0  0  0  0  0  0
  -28.6815  -32.4699   26.4278 C   0  0  0  0  0  0  0  0  0  0  0  0
  -28.0039  -30.2078   24.9546 C   0  0  0  0  0  0  0  0  0  0  0  0
  -27.0959  -28.8702   20.1555 C   0  0  0  0  0  0  0  0  0  0  0  0
  -24.1278   -7.8729   22.3511 C   0  0  0  0  0  0  0  0  0  0  0  0
  -22.9509   -9.9098   22.9017 C   0  0  0  0  0  0  0  0  0  0  0  0
  -27.4495  -27.5756   19.7776 C   0  0  0  0  0  0  0  0  0  0  0  0
  -21.0458   -6.5280   22.7053 C   0  0  0  0  0  0  0  0  0  0  0  0
  -20.5196   -5.2787   22.3766 C   0  0  0  0  0  0  0  0  0  0  0  0
  -25.1507  -26.8845   20.0164 C   0  0  0  0  0  0  0  0  0  0  0  0
  -21.8202   -4.2662   24.1430 C   0  0  0  0  0  0  0  0  0  0  0  0
  -24.6155   -9.9120   21.1507 C   0  0  0  0  0  0  0  0  0  0  0  0
  -25.3817  -10.3379   18.7550 C   0  0  0  0  0  0  0  0  0  0  0  0
  -27.3275  -32.1767   26.2010 C   0  0  0  0  0  0  0  0  0  0  0  0
  -25.7667  -29.1796   20.4779 C   0  0  0  0  0  0  0  0  0  0  0  0
  -26.9826  -31.0271   25.4648 C   0  0  0  0  0  0  0  0  0  0  0  0
  -24.7824  -28.1843   20.3957 C   0  0  0  0  0  0  0  0  0  0  0  0
  -23.1806   -8.5511   23.1183 C   0  0  0  0  0  0  0  0  0  0  0  0
  -26.4774  -26.5819   19.7108 C   0  0  0  0  0  0  0  0  0  0  0  0
  -21.9593   -6.6464   23.7528 C   0  0  0  0  0  0  0  0  0  0  0  0
  -20.9067   -4.1478   23.0955 C   0  0  0  0  0  0  0  0  0  0  0  0
  -22.3465   -5.5155   24.4716 C   0  0  0  0  0  0  0  0  0  0  0  0
  -25.3566  -10.6156   20.1349 C   0  0  0  0  0  0  0  0  0  0  0  0
  -26.2279  -11.2837   18.2298 C   0  0  0  0  0  0  0  0  0  0  0  0
  -24.7009   -9.3163   18.0143 C   0  0  0  0  0  0  0  0  0  0  0  0
  -24.2742  -30.2185   23.0849 C   0  0  0  0  0  0  0  0  0  0  0  0
  -21.7210  -30.3694   21.0898 C   0  0  0  0  0  0  0  0  0  0  0  0
  -19.4034  -30.0222   18.6089 C   0  0  0  0  0  0  0  0  0  0  0  0
  -27.8674  -16.7479   20.0480 C   0  0  0  0  0  0  0  0  0  0  0  0
  -26.2786  -33.0703   26.8142 C   0  0  0  0  0  0  0  0  0  0  0  0
  -25.3969  -30.5871   20.8579 C   0  0  0  0  0  0  0  0  0  0  0  0
  -23.3377  -28.4697   20.7119 C   0  0  0  0  0  0  0  0  0  0  0  0
  -24.8884  -32.8788   26.2134 C   0  0  0  0  0  0  0  0  0  0  0  0
  -21.2651  -14.5156   23.0568 C   0  0  0  0  0  0  0  0  0  0  0  0
  -22.7619  -14.5105   23.3553 C   0  0  0  0  0  0  0  0  0  0  0  0
  -30.0073  -13.9809   19.3839 C   0  0  0  0  0  0  0  0  0  0  0  0
  -24.5534  -31.3946   26.1050 C   0  0  0  0  0  0  0  0  0  0  0  0
  -20.6938  -15.9336   23.0372 C   0  0  0  0  0  0  0  0  0  0  0  0
  -29.0603  -12.7796   19.3766 C   0  0  0  0  0  0  0  0  0  0  0  0
  -26.2248  -22.1306   21.2446 C   0  0  0  0  0  0  0  0  0  0  0  0
  -24.6416  -22.2429   19.2743 C   0  0  0  0  0  0  0  0  0  0  0  0
  -23.5383  -15.4241   22.4093 C   0  0  0  0  0  0  0  0  0  0  0  0
  -26.9623  -23.3590   20.7179 C   0  0  0  0  0  0  0  0  0  0  0  0
  -25.3829  -23.4711   18.7524 C   0  0  0  0  0  0  0  0  0  0  0  0
  -29.5974  -15.0163   20.4289 C   0  0  0  0  0  0  0  0  0  0  0  0
  -27.2508  -14.2702   20.3264 C   0  0  0  0  0  0  0  0  0  0  0  0
  -25.5395  -30.6727   25.1787 C   0  0  1  0  0  0  0  0  0  0  0  0
  -24.1028  -30.6686   21.6617 C   0  0  1  0  0  0  0  0  0  0  0  0
  -21.4477  -16.8695   22.0748 C   0  0  1  0  0  0  0  0  0  0  0  0
  -27.5909  -13.2247   19.2505 C   0  0  2  0  0  0  0  0  0  0  0  0
  -25.5658  -21.3452   20.1048 C   0  0  0  0  0  0  0  0  0  0  0  0
  -22.9518  -16.8356   22.4067 C   0  0  2  0  0  0  0  0  0  0  0  0
  -26.0462  -24.2527   19.8851 C   0  0  0  0  0  0  0  0  0  1  0  0
  -21.1166  -16.5283   20.6159 C   0  0  0  0  0  0  0  0  0  0  0  0
  -16.9556  -30.3215   18.1439 C   0  0  0  0  0  0  0  0  0  0  0  0
  -21.1152  -27.8178   22.6494 C   0  0  0  0  0  0  0  0  0  0  0  0
  -18.9532  -27.6493   21.3982 C   0  0  0  0  0  0  0  0  0  0  0  0
  -19.3882  -29.6126   22.8742 C   0  0  0  0  0  0  0  0  0  0  0  0
  -19.9318  -32.0163   16.4868 C   0  0  0  0  0  0  0  0  0  0  0  0
  -26.0235  -18.3626   19.6583 C   0  0  0  0  0  0  0  0  0  0  0  0
  -24.9783  -18.2353   22.0013 C   0  0  0  0  0  0  0  0  0  0  0  0
  -20.6271  -29.4135   20.6793 C   0  0  1  0  0  0  0  0  0  0  0  0
  -18.3323  -30.9655   18.0918 C   0  0  2  0  0  0  0  0  0  0  0  0
  -25.6886  -19.1058   20.9595 C   0  0  2  0  0  0  0  0  0  0  0  0
  -20.0457  -28.6245   21.8863 C   0  0  0  0  0  0  0  0  0  0  0  0
  -26.1258  -11.6562   20.4655 N   0  0  0  0  0  0  0  0  0  0  0  0
  -26.6424  -12.0407   19.2859 N   0  0  0  0  0  0  0  0  0  0  0  0
  -23.0271  -29.8597   21.0847 N   0  0  0  0  0  0  0  0  0  0  0  0
  -28.1938  -15.3972   20.2531 N   0  0  0  0  0  0  0  0  0  0  0  0
  -26.6506  -11.5332   16.9722 N   0  0  0  0  0  0  0  0  0  0  0  0
  -23.8698   -8.4279   18.7101 N   0  0  0  0  0  0  0  0  0  0  0  0
  -25.2178  -30.9382   23.7928 N   0  0  0  0  0  0  0  0  0  0  0  0
  -19.6415  -30.2081   19.9543 N   0  0  0  0  0  0  0  0  0  0  0  0
  -26.5150  -17.0217   19.8842 N   0  0  0  0  0  0  0  0  0  0  0  0
  -24.8071  -20.2209   20.6502 N   0  0  0  0  0  0  0  0  0  0  0  0
  -23.7217  -17.6741   21.4502 N   0  3  0  0  0  0  0  0  0  0  0  0
  -18.6182  -31.3502   16.6807 N   0  3  0  0  0  0  0  0  0  0  0  0
  -24.8388   -9.1848   16.7744 O   0  0  0  0  0  0  0  0  0  0  0  0
  -23.5993  -29.2881   23.5099 O   0  0  0  0  0  0  0  0  0  0  0  0
  -21.4282  -31.5277   21.3967 O   0  0  0  0  0  0  0  0  0  0  0  0
  -19.9694  -29.2000   17.8919 O   0  0  0  0  0  0  0  0  0  0  0  0
  -28.7186  -17.6427   20.0080 O   0  0  0  0  0  0  0  0  0  0  0  0
  -22.4803   -7.8874   24.0783 O   0  0  0  0  0  0  0  0  0  0  0  0
  -26.8199  -25.3173   19.3428 O   0  0  0  0  0  0  0  0  0  1  0  0
  -20.4002   -2.9485   22.7808 F   0  0  0  0  0  0  0  0  0  0  0  0
  -23.2228   -5.6231   25.4797 F   0  0  0  0  0  0  0  0  0  0  0  0
  1  2  1  0  0  0  0
  1  5  2  0  0  0  0
  2  6  2  0  0  0  0
  3  8  2  0  0  0  0
  3 15  1  0  0  0  0
  4  9  1  0  0  0  0
  4 15  2  0  0  0  0
  5 17  1  0  0  0  0
  6 19  1  0  0  0  0
  7 10  2  0  0  0  0
  7 18  1  0  0  0  0
  8 21  1  0  0  0  0
  9 21  2  0  0  0  0
 10 22  1  0  0  0  0
 11 12  2  0  0  0  0
 11 23  1  0  0  0  0
 12 24  1  0  0  0  0
 13 20  1  0  0  0  0
 13 22  2  0  0  0  0
 14 24  2  0  0  0  0
 14 25  1  0  0  0  0
 15 26  1  0  0  0  0
 16 26  1  0  0  0  0
 16 27  2  0  0  0  0
 16 28  1  0  0  0  0
 17 19  2  0  0  0  0
 17 33  1  0  0  0  0
 18 20  2  0  0  0  0
 18 34  1  0  0  0  0
 19 50  1  0  0  0  0
 20 35  1  0  0  0  0
 21 86  1  0  0  0  0
 22 87  1  0  0  0  0
 23 25  2  0  0  0  0
 23 86  1  0  0  0  0
 24 88  1  0  0  0  0
 25 89  1  0  0  0  0
 26 69  2  0  0  0  0
 27 70  1  0  0  0  0
 27 73  1  0  0  0  0
 28 74  1  0  0  0  0
 28 81  2  0  0  0  0
 29 51  1  0  0  0  0
 29 75  1  0  0  0  0
 29 82  2  0  0  0  0
 30 65  1  0  0  0  0
 30 71  1  0  0  0  0
 30 83  2  0  0  0  0
 31 66  1  0  0  0  0
 31 76  1  0  0  0  0
 31 84  2  0  0  0  0
 32 72  1  0  0  0  0
 32 77  1  0  0  0  0
 32 85  2  0  0  0  0
 33 36  1  0  0  0  0
 34 51  1  0  0  0  0
 35 71  1  0  0  0  0
 36 40  1  0  0  0  0
 37 38  1  0  0  0  0
 37 41  1  0  0  0  0
 38 45  1  0  0  0  0
 39 42  1  0  0  0  0
 39 48  1  0  0  0  0
 40 50  1  0  0  0  0
 41 52  1  0  0  0  0
 42 53  1  0  0  0  0
 43 46  1  0  0  0  0
 43 54  1  0  0  0  0
 44 47  1  0  0  0  0
 44 54  1  0  0  0  0
 45 55  1  0  0  0  0
 46 56  1  0  0  0  0
 47 56  1  0  0  0  0
 48 72  1  0  0  0  0
 49 53  1  0  0  0  0
 49 72  1  0  0  0  0
 50 75  1  0  0  0  0
 51 71  1  0  0  0  0
 52 55  1  0  0  0  0
 52 57  1  0  0  0  0
 53 70  1  0  0  0  0
 54 78  1  0  0  0  0
 55 79  1  0  0  0  0
 56 87  1  0  0  0  0
 58 66  1  0  0  0  0
 59 68  1  0  0  0  0
 60 68  1  0  0  0  0
 61 68  1  0  0  0  0
 62 80  1  0  0  0  0
 63 67  1  0  0  0  0
 63 77  1  0  0  0  0
 64 67  1  0  0  0  0
 64 79  1  0  0  0  0
 65 68  1  0  0  0  0
 65 76  1  0  0  0  0
 66 80  1  0  0  0  0
 67 78  1  0  0  0  0
 69 70  1  0  0  0  0
M  CHG  2  79   1  80   1
M  ISO  4  32 100  56 101  77 100  87 101
M  END
> <Batch ID>
0125

> <Smiles>
CNC(C)C(=O)NC(C(=O)N1Cc2cc([101O:1][101CH:1]3CCC(NC(CNC4CCCCC4C)C[100NH:0][100C:0](=O)N4CCCC(n5nc(-c6ccc(Oc7ccc(F)cc7F)cc6)c(C(N)=O)c5N)C4)CC3)ccc2CC1C(=O)NC1CCCc2ccccc21)C(C)(C)C

> <Shape>
0.273

> <Color>
0.083

> <Negative vol penalty>
0.000

$$$$

  -OEChem-04052320353D

 86 95  0     1  0  0  0  0  0999 V2000
  -20.2584  -27.7839   15.2183 C   0  0  0  0  0  0  0  0  0  0  0  0
  -21.5803  -27.6521   15.6312 C   0  0  0  0  0  0  0  0  0  0  0  0
  -24.1933   -9.8613   22.7006 C   0  0  0  0  0  0  0  0  0  0  0  0
  -22.7705  -11.2673   21.3457 C   0  0  0  0  0  0  0  0  0  0  0  0
  -19.5843  -28.9883   15.4160 C   0  0  0  0  0  0  0  0  0  0  0  0
  -22.2294  -28.7250   16.2411 C   0  0  0  0  0  0  0  0  0  0  0  0
  -30.8603  -21.2436   18.9927 C   0  0  0  0  0  0  0  0  0  0  0  0
  -24.8626  -27.3292   20.3354 C   0  0  0  0  0  0  0  0  0  0  0  0
  -30.9960  -22.5255   18.4599 C   0  0  0  0  0  0  0  0  0  0  0  0
  -23.2001   -9.7980   23.6780 C   0  0  0  0  0  0  0  0  0  0  0  0
  -21.7772  -11.2040   22.3230 C   0  0  0  0  0  0  0  0  0  0  0  0
  -26.0955  -26.7149   20.1205 C   0  0  0  0  0  0  0  0  0  0  0  0
  -20.3054   -8.1252   24.1830 C   0  0  0  0  0  0  0  0  0  0  0  0
  -20.0229   -6.8781   24.7402 C   0  0  0  0  0  0  0  0  0  0  0  0
  -27.2096  -28.8062   20.5727 C   0  0  0  0  0  0  0  0  0  0  0  0
  -28.6150  -22.6109   18.0591 C   0  0  0  0  0  0  0  0  0  0  0  0
  -20.6157   -7.7203   26.9257 C   0  0  0  0  0  0  0  0  0  0  0  0
  -23.9785  -10.5960   21.5345 C   0  0  0  0  0  0  0  0  0  0  0  0
  -25.1809   -9.7901   19.4340 C   0  0  0  0  0  0  0  0  0  0  0  0
  -20.2224  -30.0733   16.0374 C   0  0  0  0  0  0  0  0  0  0  0  0
  -24.7932  -28.6916   20.6604 C   0  0  0  0  0  0  0  0  0  0  0  0
  -21.5637  -29.9454   16.4462 C   0  0  0  0  0  0  0  0  0  0  0  0
  -29.6020  -20.6452   19.0586 C   0  0  0  0  0  0  0  0  0  0  0  0
  -25.9747  -29.4349   20.7937 C   0  0  0  0  0  0  0  0  0  0  0  0
  -29.8734  -23.2092   17.9932 C   0  0  0  0  0  0  0  0  0  0  0  0
  -28.4793  -21.3289   18.5918 C   0  0  0  0  0  0  0  0  0  0  0  0
  -21.9921  -10.4693   23.4892 C   0  0  0  0  0  0  0  0  0  0  0  0
  -27.2692  -27.4540   20.2363 C   0  0  0  0  0  0  0  0  0  0  0  0
  -20.7433   -9.1698   24.9971 C   0  0  0  0  0  0  0  0  0  0  0  0
  -20.1780   -6.6756   26.1116 C   0  0  0  0  0  0  0  0  0  0  0  0
  -20.8984   -8.9674   26.3685 C   0  0  0  0  0  0  0  0  0  0  0  0
  -25.0043  -10.6623   20.5248 C   0  0  0  0  0  0  0  0  0  0  0  0
  -26.2853  -10.2784   18.7794 C   0  0  0  0  0  0  0  0  0  0  0  0
  -24.4152   -8.6414   19.0469 C   0  0  0  0  0  0  0  0  0  0  0  0
  -23.5175  -31.2617   19.2927 C   0  0  0  0  0  0  0  0  0  0  0  0
  -24.4377  -32.7047   22.0483 C   0  0  0  0  0  0  0  0  0  0  0  0
  -26.5140  -32.7214   24.7567 C   0  0  0  0  0  0  0  0  0  0  0  0
  -28.5300  -15.9230   18.9740 C   0  0  0  0  0  0  0  0  0  0  0  0
  -19.4678  -31.3706   16.1869 C   0  0  0  0  0  0  0  0  0  0  0  0
  -23.4569  -29.3331   20.9152 C   0  0  0  0  0  0  0  0  0  0  0  0
  -25.9555  -30.8955   21.1604 C   0  0  0  0  0  0  0  0  0  0  0  0
  -20.1090  -32.3373   17.1792 C   0  0  0  0  0  0  0  0  0  0  0  0
  -30.3354  -12.6921   19.5298 C   0  0  0  0  0  0  0  0  0  0  0  0
  -21.6111  -32.4366   16.9332 C   0  0  0  0  0  0  0  0  0  0  0  0
  -29.1665  -11.7538   19.8261 C   0  0  0  0  0  0  0  0  0  0  0  0
  -30.0129  -14.1241   19.9402 C   0  0  0  0  0  0  0  0  0  0  0  0
  -30.5201  -16.5986   20.2851 C   0  0  0  0  0  0  0  0  0  0  0  0
  -29.6558  -18.1592   18.5740 C   0  0  0  0  0  0  0  0  0  0  0  0
  -27.5917  -13.7300   19.6133 C   0  0  0  0  0  0  0  0  0  0  0  0
  -30.3407  -17.6429   21.3725 C   0  0  0  0  0  0  0  0  0  0  0  0
  -22.2940  -31.0784   17.1339 C   0  0  1  0  0  0  0  0  0  0  0  0
  -29.4796  -19.2540   19.6409 C   0  0  1  0  0  0  0  0  0  0  0  0
  -23.4775  -30.8480   20.7366 C   0  0  1  0  0  0  0  0  0  0  0  0
  -27.8670  -12.2773   19.1914 C   0  0  2  0  0  0  0  0  0  0  0  0
  -27.1220  -20.7084   18.6517 C   0  0  0  0  0  0  0  0  0  0  0  0
  -27.0537  -34.0486   26.8169 C   0  0  0  0  0  0  0  0  0  0  0  0
  -25.8948  -34.7667   20.3353 C   0  0  0  0  0  0  0  0  0  0  0  0
  -27.1599  -35.4677   22.3789 C   0  0  0  0  0  0  0  0  0  0  0  0
  -24.6791  -35.7171   22.3033 C   0  0  0  0  0  0  0  0  0  0  0  0
  -25.8241  -30.4590   26.5357 C   0  0  0  0  0  0  0  0  0  0  0  0
  -30.0185  -24.5796   17.4233 C   0  0  0  0  0  0  0  0  0  0  0  0
  -29.8853  -25.7110   18.4550 C   0  0  0  0  0  0  0  0  0  0  0  0
  -28.5084  -25.7676   19.1066 C   0  0  0  0  0  0  0  0  0  1  0  0
  -25.6866  -33.4086   22.5212 C   0  0  1  0  0  0  0  0  0  0  0  0
  -26.2362  -32.9045   26.2378 C   0  0  2  0  0  0  0  0  0  0  0  0
  -25.8557  -34.8130   21.8758 C   0  0  0  0  0  0  0  0  0  0  0  0
  -25.9229  -11.6310   20.5645 N   0  0  0  0  0  0  0  0  0  0  0  0
  -26.6875  -11.3705   19.4904 N   0  0  0  0  0  0  0  0  0  0  0  0
  -24.6241  -31.4790   21.3935 N   0  0  0  0  0  0  0  0  0  0  0  0
  -28.7494  -14.5873   19.3503 N   0  0  0  0  0  0  0  0  0  0  0  0
  -29.5878  -16.8213   19.1804 N   0  0  0  0  0  0  0  0  0  0  0  0
  -26.9419   -9.8757   17.6707 N   0  0  0  0  0  0  0  0  0  0  0  0
  -23.3116   -8.2790   19.8311 N   0  0  0  0  0  0  0  0  0  0  0  0
  -22.4531  -30.7963   18.5444 N   0  0  0  0  0  0  0  0  0  0  0  0
  -25.6192  -33.4248   23.9784 N   0  0  0  0  0  0  0  0  0  0  0  0
  -30.4604  -19.0016   20.7595 N   0  3  0  0  0  0  0  0  0  0  0  0
  -26.5733  -31.6603   26.9858 N   0  3  0  0  0  0  0  0  0  0  0  0
  -24.7109   -7.9471   18.0449 O   0  0  0  0  0  0  0  0  0  0  0  0
  -24.4445  -31.9533   18.8878 O   0  0  0  0  0  0  0  0  0  0  0  0
  -23.3367  -33.2197   22.2588 O   0  0  0  0  0  0  0  0  0  0  0  0
  -27.4352  -32.0270   24.3326 O   0  0  0  0  0  0  0  0  0  0  0  0
  -27.4562  -16.2875   18.4791 O   0  0  0  0  0  0  0  0  0  0  0  0
  -21.0226  -10.4076   24.4425 O   0  0  0  0  0  0  0  0  0  0  0  0
  -28.4824  -26.8528   20.0250 O   0  0  0  0  0  0  0  0  0  1  0  0
  -19.9051   -5.4784   26.6468 F   0  0  0  0  0  0  0  0  0  0  0  0
  -21.3175   -9.9675   27.1558 F   0  0  0  0  0  0  0  0  0  0  0  0
  1  2  1  0  0  0  0
  1  5  2  0  0  0  0
  2  6  2  0  0  0  0
  3 10  2  0  0  0  0
  3 18  1  0  0  0  0
  4 11  1  0  0  0  0
  4 18  2  0  0  0  0
  5 20  1  0  0  0  0
  6 22  1  0  0  0  0
  7  9  2  0  0  0  0
  7 23  1  0  0  0  0
  8 12  2  0  0  0  0
  8 21  1  0  0  0  0
  9 25  1  0  0  0  0
 10 27  1  0  0  0  0
 11 27  2  0  0  0  0
 12 28  1  0  0  0  0
 13 14  2  0  0  0  0
 13 29  1  0  0  0  0
 14 30  1  0  0  0  0
 15 24  1  0  0  0  0
 15 28  2  0  0  0  0
 16 25  2  0  0  0  0
 16 26  1  0  0  0  0
 17 30  2  0  0  0  0
 17 31  1  0  0  0  0
 18 32  1  0  0  0  0
 19 32  1  0  0  0  0
 19 33  2  0  0  0  0
 19 34  1  0  0  0  0
 20 22  2  0  0  0  0
 20 39  1  0  0  0  0
 21 24  2  0  0  0  0
 21 40  1  0  0  0  0
 22 51  1  0  0  0  0
 23 26  2  0  0  0  0
 23 52  1  0  0  0  0
 24 41  1  0  0  0  0
 25 61  1  0  0  0  0
 26 55  1  0  0  0  0
 27 83  1  0  0  0  0
 28 84  1  0  0  0  0
 29 31  2  0  0  0  0
 29 83  1  0  0  0  0
 30 85  1  0  0  0  0
 31 86  1  0  0  0  0
 32 67  2  0  0  0  0
 33 68  1  0  0  0  0
 33 72  1  0  0  0  0
 34 73  1  0  0  0  0
 34 78  2  0  0  0  0
 35 53  1  0  0  0  0
 35 74  1  0  0  0  0
 35 79  2  0  0  0  0
 36 64  1  0  0  0  0
 36 69  1  0  0  0  0
 36 80  2  0  0  0  0
 37 65  1  0  0  0  0
 37 75  1  0  0  0  0
 37 81  2  0  0  0  0
 38 70  1  0  0  0  0
 38 71  1  0  0  0  0
 38 82  2  0  0  0  0
 39 42  1  0  0  0  0
 40 53  1  0  0  0  0
 41 69  1  0  0  0  0
 42 44  1  0  0  0  0
 43 45  1  0  0  0  0
 43 46  1  0  0  0  0
 44 51  1  0  0  0  0
 45 54  1  0  0  0  0
 46 70  1  0  0  0  0
 47 50  1  0  0  0  0
 47 71  1  0  0  0  0
 48 52  1  0  0  0  0
 48 71  1  0  0  0  0
 49 54  1  0  0  0  0
 49 70  1  0  0  0  0
 50 76  1  0  0  0  0
 51 74  1  0  0  0  0
 52 76  1  0  0  0  0
 53 69  1  0  0  0  0
 54 68  1  0  0  0  0
 56 65  1  0  0  0  0
 57 66  1  0  0  0  0
 58 66  1  0  0  0  0
 59 66  1  0  0  0  0
 60 77  1  0  0  0  0
 61 62  1  0  0  0  0
 62 63  1  0  0  0  0
 63 84  1  0  0  0  0
 64 66  1  0  0  0  0
 64 75  1  0  0  0  0
 65 77  1  0  0  0  0
 67 68  1  0  0  0  0
M  CHG  2  76   1  77   1
M  ISO  4  38 100  63 101  71 100  84 101
M  END
> <Batch ID>
0125

> <Smiles>
CNC(C)C(=O)NC(C(=O)N1Cc2cc([101O:1][101CH2:1]CCc3ccc(C4C[100N:0]([100C:0](=O)N5CCCC(n6nc(-c7ccc(Oc8ccc(F)cc8F)cc7)c(C(N)=O)c6N)C5)CCN4)c(C)c3)ccc2CC1C(=O)NC1CCCc2ccccc21)C(C)(C)C

> <Shape>
0.286

> <Color>
0.109

> <Negative vol penalty>
0.000

$$$$

  -OEChem-04052320353D

 89 98  0     1  0  0  0  0  0999 V2000
  -17.9163  -31.6873   25.0361 C   0  0  0  0  0  0  0  0  0  0  0  0
  -17.5673  -30.6888   24.1324 C   0  0  0  0  0  0  0  0  0  0  0  0
  -25.5115  -11.7151   20.5680 C   0  0  0  0  0  0  0  0  0  0  0  0
  -30.1277  -23.0004   18.9588 C   0  0  0  0  0  0  0  0  0  0  0  0
  -28.4426  -21.5924   17.9512 C   0  0  0  0  0  0  0  0  0  0  0  0
  -19.1718  -32.2885   24.9583 C   0  0  0  0  0  0  0  0  0  0  0  0
  -18.4734  -30.2917   23.1497 C   0  0  0  0  0  0  0  0  0  0  0  0
  -20.7009  -23.4556   22.7044 C   0  0  0  0  0  0  0  0  0  0  0  0
  -24.2468  -12.2437   20.3100 C   0  0  0  0  0  0  0  0  0  0  0  0
  -26.6251  -12.5545   20.5994 C   0  0  0  0  0  0  0  0  0  0  0  0
  -30.0881  -23.8429   17.8479 C   0  0  0  0  0  0  0  0  0  0  0  0
  -28.4030  -22.4350   16.8403 C   0  0  0  0  0  0  0  0  0  0  0  0
  -21.0127  -22.1255   22.4225 C   0  0  0  0  0  0  0  0  0  0  0  0
  -31.3107  -23.8684   14.6968 C   0  0  0  0  0  0  0  0  0  0  0  0
  -32.5272  -24.2927   14.1625 C   0  0  0  0  0  0  0  0  0  0  0  0
  -22.4552  -22.8353   20.6161 C   0  0  0  0  0  0  0  0  0  0  0  0
  -25.2093  -14.4511   20.1145 C   0  0  0  0  0  0  0  0  0  0  0  0
  -31.9099  -26.5906   14.5817 C   0  0  0  0  0  0  0  0  0  0  0  0
  -29.3050  -21.8751   19.0105 C   0  0  0  0  0  0  0  0  0  0  0  0
  -29.0657  -21.3452   21.4944 C   0  0  0  0  0  0  0  0  0  0  0  0
  -20.0974  -31.8918   23.9803 C   0  0  0  0  0  0  0  0  0  0  0  0
  -21.2778  -24.4827   21.9522 C   0  0  0  0  0  0  0  0  0  0  0  0
  -19.7420  -30.8890   23.0580 C   0  0  0  0  0  0  0  0  0  0  0  0
  -22.1563  -24.1701   20.9018 C   0  0  0  0  0  0  0  0  0  0  0  0
  -24.0956  -13.6117   20.0832 C   0  0  0  0  0  0  0  0  0  0  0  0
  -26.4740  -13.9224   20.3726 C   0  0  0  0  0  0  0  0  0  0  0  0
  -29.2257  -23.5602   16.7886 C   0  0  0  0  0  0  0  0  0  0  0  0
  -21.8875  -21.8161   21.3808 C   0  0  0  0  0  0  0  0  0  0  0  0
  -30.3936  -24.8051   15.1735 C   0  0  0  0  0  0  0  0  0  0  0  0
  -32.8268  -25.6538   14.1049 C   0  0  0  0  0  0  0  0  0  0  0  0
  -30.6933  -26.1662   15.1160 C   0  0  0  0  0  0  0  0  0  0  0  0
  -29.3459  -21.0042   20.1576 C   0  0  0  0  0  0  0  0  0  0  0  0
  -29.2451  -20.1757   22.1919 C   0  0  0  0  0  0  0  0  0  0  0  0
  -28.6778  -22.6064   22.0553 C   0  0  0  0  0  0  0  0  0  0  0  0
  -21.5990  -28.1754   21.3724 C   0  0  0  0  0  0  0  0  0  0  0  0
  -24.4008  -26.9732   21.0333 C   0  0  0  0  0  0  0  0  0  0  0  0
  -27.5061  -26.6423   21.4212 C   0  0  0  0  0  0  0  0  0  0  0  0
  -28.9298  -14.4120   20.6476 C   0  0  0  0  0  0  0  0  0  0  0  0
  -21.4249  -32.6037   23.9058 C   0  0  0  0  0  0  0  0  0  0  0  0
  -20.9229  -25.9268   22.1808 C   0  0  0  0  0  0  0  0  0  0  0  0
  -22.7262  -25.3061   20.0969 C   0  0  0  0  0  0  0  0  0  0  0  0
  -22.4667  -31.8639   23.0706 C   0  0  0  0  0  0  0  0  0  0  0  0
  -31.7330  -16.0856   22.0683 C   0  0  0  0  0  0  0  0  0  0  0  0
  -21.8594  -31.3957   21.7520 C   0  0  0  0  0  0  0  0  0  0  0  0
  -31.4106  -17.5680   21.8666 C   0  0  0  0  0  0  0  0  0  0  0  0
  -19.3050  -17.0938   21.6648 C   0  0  0  0  0  0  0  0  0  0  0  0
  -31.2614  -15.2371   20.8888 C   0  0  0  0  0  0  0  0  0  0  0  0
  -29.5269  -16.8927   20.3231 C   0  0  0  0  0  0  0  0  0  0  0  0
  -18.2932  -15.9694   21.8325 C   0  0  0  0  0  0  0  0  0  0  0  0
  -19.9398  -14.3192   20.9163 C   0  0  0  0  0  0  0  0  0  0  0  0
  -20.7068  -30.4136   21.9934 C   0  0  1  0  0  0  0  0  0  0  0  0
  -22.1051  -26.8836   21.9436 C   0  0  1  0  0  0  0  0  0  0  0  0
  -29.9249  -17.7788   21.5147 C   0  0  2  0  0  0  0  0  0  0  0  0
  -20.7345  -16.5621   21.7442 C   0  0  1  0  0  0  0  0  0  0  0  0
  -20.9790  -15.4222   20.7521 C   0  0  1  0  0  0  0  0  0  0  0  0
  -29.9054  -26.9186   20.7401 C   0  0  0  0  0  0  0  0  0  0  0  0
  -24.1908  -19.3102   21.7138 C   0  0  0  0  0  0  0  0  0  0  0  0
  -23.6500  -25.8426   18.3017 C   0  0  0  0  0  0  0  0  0  0  0  0
  -26.0750  -25.9163   17.6836 C   0  0  0  0  0  0  0  0  0  0  0  0
  -24.8639  -28.0279   18.2288 C   0  0  0  0  0  0  0  0  0  0  0  0
  -28.1462  -28.1740   23.8714 C   0  0  0  0  0  0  0  0  0  0  0  0
  -22.7349  -14.1799   19.8057 C   0  0  0  0  0  0  0  0  0  0  0  0
  -21.8775  -18.6270   22.5659 C   0  0  0  0  0  0  0  0  0  0  0  0
  -25.4284  -26.4078   20.0859 C   0  0  1  0  0  0  0  0  0  0  0  0
  -28.7528  -27.4996   21.5441 C   0  0  2  0  0  0  0  0  0  0  0  0
  -22.8075  -19.7656   22.1598 C   0  0  2  0  0  0  0  0  0  1  0  0
  -24.9957  -26.5342   18.5979 C   0  0  0  0  0  0  0  0  0  0  0  0
  -29.6782  -19.7187   20.0122 N   0  0  0  0  0  0  0  0  0  0  0  0
  -29.6080  -19.2417   21.2667 N   0  0  0  0  0  0  0  0  0  0  0  0
  -23.1213  -26.4062   20.9904 N   0  0  0  0  0  0  0  0  0  0  0  0
  -29.8442  -15.4861   20.6162 N   0  0  0  0  0  0  0  0  0  0  0  0
  -29.1263  -19.8655   23.5004 N   0  0  0  0  0  0  0  0  0  0  0  0
  -29.6825  -23.4806   22.4921 N   0  0  0  0  0  0  0  0  0  0  0  0
  -27.6054  -14.7749   20.4052 N   0  0  0  0  0  0  0  0  0  0  0  0
  -21.2213  -29.1022   22.3252 N   0  0  0  0  0  0  0  0  0  0  0  0
  -26.6860  -27.0767   20.4013 N   0  0  0  0  0  0  0  0  0  0  0  0
  -18.5711  -14.9036   20.8231 N   0  3  0  0  0  0  0  0  0  0  0  0
  -21.6754  -17.6773   21.4435 N   0  3  0  0  0  0  0  0  0  0  0  0
  -29.1761  -27.5968   22.9697 N   0  3  0  0  0  0  0  0  0  0  0  0
  -27.4755  -22.9411   22.1811 O   0  0  0  0  0  0  0  0  0  0  0  0
  -21.5552  -28.3225   20.1566 O   0  0  0  0  0  0  0  0  0  0  0  0
  -24.7194  -27.8963   21.7880 O   0  0  0  0  0  0  0  0  0  0  0  0
  -27.2838  -25.6810   22.1540 O   0  0  0  0  0  0  0  0  0  0  0  0
  -29.2909  -13.2596   20.8999 O   0  0  0  0  0  0  0  0  0  0  0  0
  -29.1866  -24.3822   15.7045 O   0  0  0  0  0  0  0  0  0  0  0  0
  -22.1911  -20.5156   21.1139 O   0  0  0  0  0  0  0  0  0  1  0  0
  -22.2725  -14.8611   20.9621 O   0  0  0  0  0  0  0  0  0  0  0  0
  -33.9958  -26.0610   13.5932 F   0  0  0  0  0  0  0  0  0  0  0  0
  -29.8168  -27.0708   15.5735 F   0  0  0  0  0  0  0  0  0  0  0  0
  1  2  1  0  0  0  0
  1  6  2  0  0  0  0
  2  7  2  0  0  0  0
  3  9  2  0  0  0  0
  3 10  1  0  0  0  0
  4 11  2  0  0  0  0
  4 19  1  0  0  0  0
  5 12  1  0  0  0  0
  5 19  2  0  0  0  0
  6 21  1  0  0  0  0
  7 23  1  0  0  0  0
  8 13  2  0  0  0  0
  8 22  1  0  0  0  0
  9 25  1  0  0  0  0
 10 26  2  0  0  0  0
 11 27  1  0  0  0  0
 12 27  2  0  0  0  0
 13 28  1  0  0  0  0
 14 15  2  0  0  0  0
 14 29  1  0  0  0  0
 15 30  1  0  0  0  0
 16 24  1  0  0  0  0
 16 28  2  0  0  0  0
 17 25  2  0  0  0  0
 17 26  1  0  0  0  0
 18 30  2  0  0  0  0
 18 31  1  0  0  0  0
 19 32  1  0  0  0  0
 20 32  1  0  0  0  0
 20 33  2  0  0  0  0
 20 34  1  0  0  0  0
 21 23  2  0  0  0  0
 21 39  1  0  0  0  0
 22 24  2  0  0  0  0
 22 40  1  0  0  0  0
 23 51  1  0  0  0  0
 24 41  1  0  0  0  0
 25 62  1  0  0  0  0
 26 74  1  0  0  0  0
 27 85  1  0  0  0  0
 28 86  1  0  0  0  0
 29 31  2  0  0  0  0
 29 85  1  0  0  0  0
 30 88  1  0  0  0  0
 31 89  1  0  0  0  0
 32 68  2  0  0  0  0
 33 69  1  0  0  0  0
 33 72  1  0  0  0  0
 34 73  1  0  0  0  0
 34 80  2  0  0  0  0
 35 52  1  0  0  0  0
 35 75  1  0  0  0  0
 35 81  2  0  0  0  0
 36 64  1  0  0  0  0
 36 70  1  0  0  0  0
 36 82  2  0  0  0  0
 37 65  1  0  0  0  0
 37 76  1  0  0  0  0
 37 83  2  0  0  0  0
 38 71  1  0  0  0  0
 38 74  1  0  0  0  0
 38 84  2  0  0  0  0
 39 42  1  0  0  0  0
 40 52  1  0  0  0  0
 41 70  1  0  0  0  0
 42 44  1  0  0  0  0
 43 45  1  0  0  0  0
 43 47  1  0  0  0  0
 44 51  1  0  0  0  0
 45 53  1  0  0  0  0
 46 49  1  0  0  0  0
 46 54  1  0  0  0  0
 47 71  1  0  0  0  0
 48 53  1  0  0  0  0
 48 71  1  0  0  0  0
 49 77  1  0  0  0  0
 50 55  1  0  0  0  0
 50 77  1  0  0  0  0
 51 75  1  0  0  0  0
 52 70  1  0  0  0  0
 53 69  1  0  0  0  0
 54 55  1  0  0  0  0
 54 78  1  0  0  0  0
 55 87  1  0  0  0  0
 56 65  1  0  0  0  0
 57 66  1  0  0  0  0
 58 67  1  0  0  0  0
 59 67  1  0  0  0  0
 60 67  1  0  0  0  0
 61 79  1  0  0  0  0
 62 87  1  0  0  0  0
 63 66  1  0  0  0  0
 63 78  1  0  0  0  0
 64 67  1  0  0  0  0
 64 76  1  0  0  0  0
 65 79  1  0  0  0  0
 66 86  1  0  0  0  0
 68 69  1  0  0  0  0
M  CHG  3  77   1  78   1  79   1
M  ISO  4  38 100  66 101  74 100  86 101
M  END
> <Batch ID>
0125

> <Smiles>
CNC(C)C(=O)NC(C(=O)N1Cc2cc([101O:1][101CH:1](C)CNC3CCNCC3OCc3cccc([100NH:0][100C:0](=O)N4CCCC(n5nc(-c6ccc(Oc7ccc(F)cc7F)cc6)c(C(N)=O)c5N)C4)c3)ccc2CC1C(=O)NC1CCCc2ccccc21)C(C)(C)C

> <Shape>
0.224

> <Color>
0.053

> <Negative vol penalty>
0.000

$$$$

  -OEChem-04052320353D

 84 92  0     1  0  0  0  0  0999 V2000
  -30.8463  -33.9578   17.6259 C   0  0  0  0  0  0  0  0  0  0  0  0
  -30.9457  -32.5729   17.7140 C   0  0  0  0  0  0  0  0  0  0  0  0
  -23.9253   -9.8851   21.9818 C   0  0  0  0  0  0  0  0  0  0  0  0
  -24.4334  -11.2492   23.9101 C   0  0  0  0  0  0  0  0  0  0  0  0
  -30.0895  -34.6621   18.5613 C   0  0  0  0  0  0  0  0  0  0  0  0
  -30.2892  -31.8917   18.7384 C   0  0  0  0  0  0  0  0  0  0  0  0
  -27.7419  -26.3315   18.4195 C   0  0  0  0  0  0  0  0  0  0  0  0
  -30.3717  -20.0978   22.1789 C   0  0  0  0  0  0  0  0  0  0  0  0
  -23.4502   -8.8767   22.8203 C   0  0  0  0  0  0  0  0  0  0  0  0
  -23.9582  -10.2408   24.7486 C   0  0  0  0  0  0  0  0  0  0  0  0
  -28.1928  -25.0697   18.8046 C   0  0  0  0  0  0  0  0  0  0  0  0
  -20.6412   -8.2220   24.5849 C   0  0  0  0  0  0  0  0  0  0  0  0
  -19.4354   -7.6096   24.2435 C   0  0  0  0  0  0  0  0  0  0  0  0
  -29.8427  -21.3631   21.9502 C   0  0  0  0  0  0  0  0  0  0  0  0
  -27.0105  -25.2920   20.8956 C   0  0  0  0  0  0  0  0  0  0  0  0
  -20.5603   -5.4764   24.0971 C   0  0  0  0  0  0  0  0  0  0  0  0
  -24.4170  -11.0713   22.5267 C   0  0  0  0  0  0  0  0  0  0  0  0
  -24.1702  -13.1748   21.1047 C   0  0  0  0  0  0  0  0  0  0  0  0
  -29.4154  -33.9883   19.5919 C   0  0  0  0  0  0  0  0  0  0  0  0
  -26.9294  -27.0889   19.2756 C   0  0  0  0  0  0  0  0  0  0  0  0
  -29.5237  -32.5878   19.6892 C   0  0  0  0  0  0  0  0  0  0  0  0
  -26.5485  -26.5620   20.5179 C   0  0  0  0  0  0  0  0  0  0  0  0
  -29.5178  -19.0223   22.3967 C   0  0  0  0  0  0  0  0  0  0  0  0
  -23.4666   -9.0546   24.2036 C   0  0  0  0  0  0  0  0  0  0  0  0
  -27.8295  -24.5510   20.0440 C   0  0  0  0  0  0  0  0  0  0  0  0
  -21.8066   -7.4616   24.6823 C   0  0  0  0  0  0  0  0  0  0  0  0
  -19.3949   -6.2368   23.9996 C   0  0  0  0  0  0  0  0  0  0  0  0
  -21.7661   -6.0888   24.4384 C   0  0  0  0  0  0  0  0  0  0  0  0
  -24.9084  -12.1131   21.6611 C   0  0  0  0  0  0  0  0  0  0  0  0
  -28.4638  -21.4991   21.9494 C   0  0  0  0  0  0  0  0  0  0  0  0
  -28.1535  -19.2631   22.3762 C   0  0  0  0  0  0  0  0  0  0  0  0
  -25.0876  -13.8803   20.3650 C   0  0  0  0  0  0  0  0  0  0  0  0
  -22.7796  -13.4948   21.2442 C   0  0  0  0  0  0  0  0  0  0  0  0
  -27.2129  -29.8998   20.7323 C   0  0  0  0  0  0  0  0  0  0  0  0
  -24.1342  -29.3314   21.5812 C   0  0  0  0  0  0  0  0  0  0  0  0
  -21.6536  -27.0526   22.1295 C   0  0  0  0  0  0  0  0  0  0  0  0
  -31.0381  -14.4471   20.7144 C   0  0  0  0  0  0  0  0  0  0  0  0
  -28.6479  -34.7971   20.6075 C   0  0  0  0  0  0  0  0  0  0  0  0
  -26.4294  -28.4371   18.8343 C   0  0  0  0  0  0  0  0  0  0  0  0
  -25.6614  -27.3265   21.4652 C   0  0  0  0  0  0  0  0  0  0  0  0
  -27.6776  -33.9646   21.4416 C   0  0  0  0  0  0  0  0  0  0  0  0
  -29.1567  -13.3091   17.9141 C   0  0  0  0  0  0  0  0  0  0  0  0
  -28.3576  -32.6942   21.9419 C   0  0  0  0  0  0  0  0  0  0  0  0
  -27.7880  -12.9693   18.5066 C   0  0  0  0  0  0  0  0  0  0  0  0
  -30.2902  -12.9633   18.8772 C   0  0  0  0  0  0  0  0  0  0  0  0
  -28.7900  -13.2094   20.8169 C   0  0  0  0  0  0  0  0  0  0  0  0
  -28.8059  -31.8108   20.7714 C   0  0  1  0  0  0  0  0  0  0  0  0
  -26.0284  -29.3364   19.9995 C   0  0  1  0  0  0  0  0  0  0  0  0
  -27.6120  -13.5921   19.9046 C   0  0  2  0  0  0  0  0  0  0  0  0
  -26.2795  -17.9002   21.3840 C   0  0  0  0  0  0  0  0  0  0  0  0
  -26.3246  -18.3662   23.8611 C   0  0  0  0  0  0  0  0  0  0  0  0
  -19.2562  -26.8861   22.8521 C   0  0  0  0  0  0  0  0  0  0  0  0
  -24.9764  -29.8041   24.4756 C   0  0  0  0  0  0  0  0  0  0  0  0
  -22.8417  -28.7158   25.2013 C   0  0  0  0  0  0  0  0  0  0  0  0
  -22.7746  -30.8127   23.8518 C   0  0  0  0  0  0  0  0  0  0  0  0
  -20.8388  -25.8501   19.5509 C   0  0  0  0  0  0  0  0  0  0  0  0
  -27.8581  -22.8501   21.7059 C   0  0  0  0  0  0  0  0  0  1  0  0
  -31.3740  -17.3606   22.2580 C   0  0  0  0  0  0  0  0  0  0  0  0
  -31.6423  -15.9094   22.6264 C   0  0  0  0  0  0  0  0  0  0  0  0
  -27.1854  -18.1477   22.6037 C   0  0  0  0  0  0  0  0  0  0  0  0
  -23.4544  -28.6454   22.7415 C   0  0  1  0  0  0  0  0  0  0  0  0
  -20.2069  -27.0087   21.6715 C   0  0  2  0  0  0  0  0  0  0  0  0
  -23.5301  -29.4806   24.0507 C   0  0  0  0  0  0  0  0  0  0  0  0
  -26.1956  -12.1378   21.3051 N   0  0  0  0  0  0  0  0  0  0  0  0
  -27.6025  -20.4780   22.1573 N   0  0  0  0  0  0  0  0  0  0  0  0
  -26.2733  -13.2236   20.5171 N   0  0  0  0  0  0  0  0  0  0  0  0
  -25.2034  -28.6428   20.9909 N   0  0  0  0  0  0  0  0  0  0  0  0
  -30.0636  -13.5858   20.1837 N   0  0  0  0  0  0  0  0  0  0  0  0
  -24.9877  -14.9921   19.6058 N   0  0  0  0  0  0  0  0  0  0  0  0
  -21.9797  -12.6647   22.0413 N   0  0  0  0  0  0  0  0  0  0  0  0
  -30.0430  -17.7386   22.6289 N   0  0  0  0  0  0  0  0  0  0  0  0
  -27.6768  -31.0952   20.2170 N   0  0  0  0  0  0  0  0  0  0  0  0
  -22.0961  -28.3473   22.3005 N   0  0  0  0  0  0  0  0  0  0  0  0
  -30.7414  -14.9997   21.9543 N   0  0  0  0  0  0  0  0  0  0  0  0
  -19.9851  -25.8455   20.7667 N   0  3  0  0  0  0  0  0  0  0  0  0
  -22.2583  -14.4781   20.6655 O   0  0  0  0  0  0  0  0  0  0  0  0
  -27.6713  -29.2956   21.6949 O   0  0  0  0  0  0  0  0  0  0  0  0
  -23.7269  -30.4342   21.2078 O   0  0  0  0  0  0  0  0  0  0  0  0
  -22.3229  -26.0397   22.3202 O   0  0  0  0  0  0  0  0  0  0  0  0
  -32.0919  -14.7086   20.1244 O   0  0  0  0  0  0  0  0  0  0  0  0
  -23.0028   -8.0710   25.0221 O   0  0  0  0  0  0  0  0  0  0  0  0
  -28.2688  -23.3199   20.4226 O   0  0  0  0  0  0  0  0  0  1  0  0
  -18.2366   -5.6486   23.6733 F   0  0  0  0  0  0  0  0  0  0  0  0
  -22.8822   -5.3529   24.5317 F   0  0  0  0  0  0  0  0  0  0  0  0
  1  2  1  0  0  0  0
  1  5  2  0  0  0  0
  2  6  2  0  0  0  0
  3  9  2  0  0  0  0
  3 17  1  0  0  0  0
  4 10  1  0  0  0  0
  4 17  2  0  0  0  0
  5 19  1  0  0  0  0
  6 21  1  0  0  0  0
  7 11  2  0  0  0  0
  7 20  1  0  0  0  0
  8 14  2  0  0  0  0
  8 23  1  0  0  0  0
  9 24  1  0  0  0  0
 10 24  2  0  0  0  0
 11 25  1  0  0  0  0
 12 13  2  0  0  0  0
 12 26  1  0  0  0  0
 13 27  1  0  0  0  0
 14 30  1  0  0  0  0
 15 22  1  0  0  0  0
 15 25  2  0  0  0  0
 16 27  2  0  0  0  0
 16 28  1  0  0  0  0
 17 29  1  0  0  0  0
 18 29  1  0  0  0  0
 18 32  2  0  0  0  0
 18 33  1  0  0  0  0
 19 21  2  0  0  0  0
 19 38  1  0  0  0  0
 20 22  2  0  0  0  0
 20 39  1  0  0  0  0
 21 47  1  0  0  0  0
 22 40  1  0  0  0  0
 23 31  2  0  0  0  0
 23 71  1  0  0  0  0
 24 81  1  0  0  0  0
 25 82  1  0  0  0  0
 26 28  2  0  0  0  0
 26 81  1  0  0  0  0
 27 83  1  0  0  0  0
 28 84  1  0  0  0  0
 29 64  2  0  0  0  0
 30 57  1  0  0  0  0
 30 65  2  0  0  0  0
 31 60  1  0  0  0  0
 31 65  1  0  0  0  0
 32 66  1  0  0  0  0
 32 69  1  0  0  0  0
 33 70  1  0  0  0  0
 33 76  2  0  0  0  0
 34 48  1  0  0  0  0
 34 72  1  0  0  0  0
 34 77  2  0  0  0  0
 35 61  1  0  0  0  0
 35 67  1  0  0  0  0
 35 78  2  0  0  0  0
 36 62  1  0  0  0  0
 36 73  1  0  0  0  0
 36 79  2  0  0  0  0
 37 68  1  0  0  0  0
 37 74  1  0  0  0  0
 37 80  2  0  0  0  0
 38 41  1  0  0  0  0
 39 48  1  0  0  0  0
 40 67  1  0  0  0  0
 41 43  1  0  0  0  0
 42 44  1  0  0  0  0
 42 45  1  0  0  0  0
 43 47  1  0  0  0  0
 44 49  1  0  0  0  0
 45 68  1  0  0  0  0
 46 49  1  0  0  0  0
 46 68  1  0  0  0  0
 47 72  1  0  0  0  0
 48 67  1  0  0  0  0
 49 66  1  0  0  0  0
 50 60  1  0  0  0  0
 51 60  1  0  0  0  0
 52 62  1  0  0  0  0
 53 63  1  0  0  0  0
 54 63  1  0  0  0  0
 55 63  1  0  0  0  0
 56 75  1  0  0  0  0
 57 82  1  0  0  0  0
 58 59  1  0  0  0  0
 58 71  1  0  0  0  0
 59 74  1  0  0  0  0
 61 63  1  0  0  0  0
 61 73  1  0  0  0  0
 62 75  1  0  0  0  0
 64 66  1  0  0  0  0
M  CHG  1  75   1
M  ISO  4  37 100  57 101  74 100  82 101
M  END
> <Batch ID>
0125

> <Smiles>
CNC(C)C(=O)NC(C(=O)N1Cc2cc([101O:1][101CH2:1]c3ccc(NCC[100NH:0][100C:0](=O)N4CCCC(n5nc(-c6ccc(Oc7ccc(F)cc7F)cc6)c(C(N)=O)c5N)C4)c(C(C)C)n3)ccc2CC1C(=O)NC1CCCc2ccccc21)C(C)(C)C

> <Shape>
0.278

> <Color>
0.137

> <Negative vol penalty>
0.000

$$$$

  -OEChem-04052320353D

 80 88  0     1  0  0  0  0  0999 V2000
  -29.3550  -24.8366   15.8800 C   0  0  0  0  0  0  0  0  0  0  0  0
  -28.6237  -23.9786   16.6951 C   0  0  0  0  0  0  0  0  0  0  0  0
  -27.7860  -16.9435   18.9648 C   0  0  0  0  0  0  0  0  0  0  0  0
  -27.7769  -17.1651   21.3706 C   0  0  0  0  0  0  0  0  0  0  0  0
  -29.5513  -26.1625   16.2639 C   0  0  0  0  0  0  0  0  0  0  0  0
  -28.0891  -24.4459   17.8952 C   0  0  0  0  0  0  0  0  0  0  0  0
  -22.7951  -22.7592   20.4711 C   0  0  0  0  0  0  0  0  0  0  0  0
  -28.4975  -18.1384   18.8574 C   0  0  0  0  0  0  0  0  0  0  0  0
  -28.4886  -18.3600   21.2632 C   0  0  0  0  0  0  0  0  0  0  0  0
  -22.4929  -21.8537   21.4872 C   0  0  0  0  0  0  0  0  0  0  0  0
  -29.9896  -21.6523   21.6060 C   0  0  0  0  0  0  0  0  0  0  0  0
  -29.5672  -22.7305   22.3835 C   0  0  0  0  0  0  0  0  0  0  0  0
  -22.4860  -23.6598   23.0863 C   0  0  0  0  0  0  0  0  0  0  0  0
  -27.4112  -22.6711   21.2947 C   0  0  0  0  0  0  0  0  0  0  0  0
  -27.4256  -16.4569   20.2214 C   0  0  0  0  0  0  0  0  0  0  0  0
  -27.2210  -13.9248   20.4547 C   0  0  0  0  0  0  0  0  0  0  0  0
  -29.0106  -26.6488   17.4646 C   0  0  0  0  0  0  0  0  0  0  0  0
  -22.9560  -24.1225   20.7572 C   0  0  0  0  0  0  0  0  0  0  0  0
  -28.2794  -25.7792   18.2962 C   0  0  0  0  0  0  0  0  0  0  0  0
  -22.7877  -24.5810   22.0716 C   0  0  0  0  0  0  0  0  0  0  0  0
  -28.8488  -18.8466   20.0066 C   0  0  0  0  0  0  0  0  0  0  0  0
  -22.3412  -22.3036   22.7956 C   0  0  0  0  0  0  0  0  0  0  0  0
  -29.1228  -21.0834   20.6728 C   0  0  0  0  0  0  0  0  0  0  0  0
  -28.2780  -23.2399   22.2279 C   0  0  0  0  0  0  0  0  0  0  0  0
  -27.8337  -21.5928   20.5171 C   0  0  0  0  0  0  0  0  0  0  0  0
  -26.6901  -15.2229   20.3330 C   0  0  0  0  0  0  0  0  0  0  0  0
  -26.1188  -13.1084   20.5266 C   0  0  0  0  0  0  0  0  0  0  0  0
  -19.5700  -18.5989   24.4143 C   0  0  0  0  0  0  0  0  0  0  0  0
  -28.5882  -13.4954   20.4989 C   0  0  0  0  0  0  0  0  0  0  0  0
  -25.3490  -26.1998   20.5072 C   0  0  0  0  0  0  0  0  0  0  0  0
  -23.0730  -28.3343   21.3938 C   0  0  0  0  0  0  0  0  0  0  0  0
  -20.0973  -28.9132   22.9613 C   0  0  0  0  0  0  0  0  0  0  0  0
  -20.4681  -14.0317   22.2784 C   0  0  0  0  0  0  0  0  0  0  0  0
  -29.2894  -28.0772   17.8603 C   0  0  0  0  0  0  0  0  0  0  0  0
  -23.2555  -25.0904   19.6454 C   0  0  0  0  0  0  0  0  0  0  0  0
  -22.9301  -26.0374   22.4279 C   0  0  0  0  0  0  0  0  0  0  0  0
  -28.3722  -28.5929   18.9663 C   0  0  0  0  0  0  0  0  0  0  0  0
  -21.5583  -12.8407   19.1051 C   0  0  0  0  0  0  0  0  0  0  0  0
  -28.2697  -27.5714   20.0944 C   0  0  0  0  0  0  0  0  0  0  0  0
  -23.0450  -13.1990   19.0709 C   0  0  0  0  0  0  0  0  0  0  0  0
  -21.2227  -18.9994   25.7071 C   0  0  0  0  0  0  0  0  0  0  0  0
  -20.7359  -13.9114   19.8186 C   0  0  0  0  0  0  0  0  0  0  0  0
  -22.6951  -14.6134   21.1387 C   0  0  0  0  0  0  0  0  0  0  0  0
  -27.6626  -26.2553   19.5935 C   0  0  1  0  0  0  0  0  0  0  0  0
  -20.4692  -19.8338   24.6311 C   0  0  1  0  0  0  0  0  0  0  0  0
  -20.1538  -17.8831   25.6436 C   0  0  2  0  0  0  0  0  0  0  0  0
  -23.9045  -26.3811   20.1355 C   0  0  1  0  0  0  0  0  0  0  0  0
  -23.5729  -13.5366   20.4783 C   0  0  2  0  0  0  0  0  0  0  0  0
  -18.5122  -30.7652   23.5570 C   0  0  0  0  0  0  0  0  0  0  0  0
  -24.9530  -29.2217   23.6272 C   0  0  0  0  0  0  0  0  0  0  0  0
  -23.0039  -30.3442   24.7270 C   0  0  0  0  0  0  0  0  0  0  0  0
  -23.7568  -31.0870   22.4678 C   0  0  0  0  0  0  0  0  0  0  0  0
  -17.9058  -27.7013   21.3842 C   0  0  0  0  0  0  0  0  0  0  0  0
  -21.2870  -20.2684   23.4304 C   0  0  0  0  0  0  0  0  0  1  0  0
  -20.3594  -14.1862   24.7529 C   0  0  0  0  0  0  0  0  0  0  0  0
  -19.6764  -15.4818   25.1495 C   0  0  0  0  0  0  0  0  0  0  0  0
  -22.5651  -28.8705   22.7104 C   0  0  1  0  0  0  0  0  0  0  0  0
  -18.8699  -29.6978   22.5345 C   0  0  2  0  0  0  0  0  0  0  0  0
  -23.5688  -29.8531   23.3770 C   0  0  0  0  0  0  0  0  0  0  0  0
  -25.3545  -15.2353   20.3273 N   0  0  0  0  0  0  0  0  0  0  0  0
  -25.0368  -13.9349   20.4463 N   0  0  0  0  0  0  0  0  0  0  0  0
  -23.2295  -26.9437   21.3070 N   0  0  0  0  0  0  0  0  0  0  0  0
  -21.2879  -14.1837   21.1479 N   0  0  0  0  0  0  0  0  0  0  0  0
  -25.9793  -11.7714   20.6499 N   0  0  0  0  0  0  0  0  0  0  0  0
  -29.5963  -14.4652   20.4127 N   0  0  0  0  0  0  0  0  0  0  0  0
  -26.2274  -26.3808   19.4560 N   0  0  0  0  0  0  0  0  0  0  0  0
  -21.2543  -29.4496   22.4369 N   0  0  0  0  0  0  0  0  0  0  0  0
  -21.0716  -14.3038   23.5001 N   0  0  0  0  0  0  0  0  0  0  0  0
  -20.6896  -16.5783   25.2492 N   0  3  0  0  0  0  0  0  0  0  0  0
  -17.7012  -28.7865   22.3780 N   0  3  0  0  0  0  0  0  0  0  0  0
  -18.7287  -18.3072   23.5903 O   0  0  0  0  0  0  0  0  0  0  0  0
  -28.9066  -12.2859   20.5951 O   0  0  0  0  0  0  0  0  0  0  0  0
  -25.6448  -25.9180   21.6626 O   0  0  0  0  0  0  0  0  0  0  0  0
  -23.3150  -29.1197   20.4739 O   0  0  0  0  0  0  0  0  0  0  0  0
  -20.0363  -27.9256   23.6903 O   0  0  0  0  0  0  0  0  0  0  0  0
  -19.2875  -13.6744   22.2048 O   0  0  0  0  0  0  0  0  0  0  0  0
  -29.5434  -20.0125   19.9022 O   0  0  0  0  0  0  0  0  0  0  0  0
  -22.0469  -21.4218   23.7894 O   0  0  0  0  0  0  0  0  0  1  0  0
  -27.8720  -24.2744   22.9757 F   0  0  0  0  0  0  0  0  0  0  0  0
  -26.9961  -21.0497   19.6231 F   0  0  0  0  0  0  0  0  0  0  0  0
  1  2  1  0  0  0  0
  1  5  2  0  0  0  0
  2  6  2  0  0  0  0
  3  8  2  0  0  0  0
  3 15  1  0  0  0  0
  4  9  1  0  0  0  0
  4 15  2  0  0  0  0
  5 17  1  0  0  0  0
  6 19  1  0  0  0  0
  7 10  2  0  0  0  0
  7 18  1  0  0  0  0
  8 21  1  0  0  0  0
  9 21  2  0  0  0  0
 10 22  1  0  0  0  0
 11 12  2  0  0  0  0
 11 23  1  0  0  0  0
 12 24  1  0  0  0  0
 13 20  1  0  0  0  0
 13 22  2  0  0  0  0
 14 24  2  0  0  0  0
 14 25  1  0  0  0  0
 15 26  1  0  0  0  0
 16 26  1  0  0  0  0
 16 27  2  0  0  0  0
 16 29  1  0  0  0  0
 17 19  2  0  0  0  0
 17 34  1  0  0  0  0
 18 20  2  0  0  0  0
 18 35  1  0  0  0  0
 19 44  1  0  0  0  0
 20 36  1  0  0  0  0
 21 77  1  0  0  0  0
 22 78  1  0  0  0  0
 23 25  2  0  0  0  0
 23 77  1  0  0  0  0
 24 79  1  0  0  0  0
 25 80  1  0  0  0  0
 26 60  2  0  0  0  0
 27 61  1  0  0  0  0
 27 64  1  0  0  0  0
 28 45  1  0  0  0  0
 28 46  1  0  0  0  0
 28 71  2  0  0  0  0
 29 65  1  0  0  0  0
 29 72  2  0  0  0  0
 30 47  1  0  0  0  0
 30 66  1  0  0  0  0
 30 73  2  0  0  0  0
 31 57  1  0  0  0  0
 31 62  1  0  0  0  0
 31 74  2  0  0  0  0
 32 58  1  0  0  0  0
 32 67  1  0  0  0  0
 32 75  2  0  0  0  0
 33 63  1  0  0  0  0
 33 68  1  0  0  0  0
 33 76  2  0  0  0  0
 34 37  1  0  0  0  0
 35 47  1  0  0  0  0
 36 62  1  0  0  0  0
 37 39  1  0  0  0  0
 38 40  1  0  0  0  0
 38 42  1  0  0  0  0
 39 44  1  0  0  0  0
 40 48  1  0  0  0  0
 41 45  1  0  0  0  0
 41 46  1  0  0  0  0
 42 63  1  0  0  0  0
 43 48  1  0  0  0  0
 43 63  1  0  0  0  0
 44 66  1  0  0  0  0
 45 54  1  0  0  0  0
 46 69  1  0  0  0  0
 47 62  1  0  0  0  0
 48 61  1  0  0  0  0
 49 58  1  0  0  0  0
 50 59  1  0  0  0  0
 51 59  1  0  0  0  0
 52 59  1  0  0  0  0
 53 70  1  0  0  0  0
 54 78  1  0  0  0  0
 55 56  1  0  0  0  0
 55 68  1  0  0  0  0
 56 69  1  0  0  0  0
 57 59  1  0  0  0  0
 57 67  1  0  0  0  0
 58 70  1  0  0  0  0
 60 61  1  0  0  0  0
M  CHG  2  69   1  70   1
M  ISO  4  33 100  54 101  68 100  78 101
M  END
> <Batch ID>
0125

> <Smiles>
CNC(C)C(=O)NC(C(=O)N1Cc2cc([101O:1][101CH2:1]C3CC(NCC[100NH:0][100C:0](=O)N4CCCC(n5nc(-c6ccc(Oc7ccc(F)cc7F)cc6)c(C(N)=O)c5N)C4)C3=O)ccc2CC1C(=O)NC1CCCc2ccccc21)C(C)(C)C

> <Shape>
0.225

> <Color>
0.071

> <Negative vol penalty>
0.000

$$$$

  -OEChem-04052320353D

 85 93  0     1  0  0  0  0  0999 V2000
  -26.6057  -34.4841   25.4922 C   0  0  0  0  0  0  0  0  0  0  0  0
  -27.0315  -33.2495   25.0126 C   0  0  0  0  0  0  0  0  0  0  0  0
  -22.6057  -14.3309   20.6685 C   0  0  0  0  0  0  0  0  0  0  0  0
  -24.8647  -15.0887   21.0683 C   0  0  0  0  0  0  0  0  0  0  0  0
  -25.2488  -34.7133   25.7163 C   0  0  0  0  0  0  0  0  0  0  0  0
  -26.1006  -32.2430   24.7578 C   0  0  0  0  0  0  0  0  0  0  0  0
  -26.9266  -29.9053   20.3422 C   0  0  0  0  0  0  0  0  0  0  0  0
  -23.0842  -13.0502   20.3924 C   0  0  0  0  0  0  0  0  0  0  0  0
  -25.3432  -13.8079   20.7921 C   0  0  0  0  0  0  0  0  0  0  0  0
  -27.9496  -28.9588   20.3045 C   0  0  0  0  0  0  0  0  0  0  0  0
  -23.6781   -9.4931   19.9343 C   0  0  0  0  0  0  0  0  0  0  0  0
  -23.0047   -8.4125   20.5039 C   0  0  0  0  0  0  0  0  0  0  0  0
  -26.3170  -27.1949   20.5104 C   0  0  0  0  0  0  0  0  0  0  0  0
  -23.4804   -9.2781   22.7088 C   0  0  0  0  0  0  0  0  0  0  0  0
  -23.4960  -15.3502   21.0064 C   0  0  0  0  0  0  0  0  0  0  0  0
  -22.0989  -17.0439   22.3054 C   0  0  0  0  0  0  0  0  0  0  0  0
  -24.2999  -33.7123   25.4550 C   0  0  0  0  0  0  0  0  0  0  0  0
  -25.5898  -29.5035   20.4755 C   0  0  0  0  0  0  0  0  0  0  0  0
  -24.7299  -32.4586   24.9799 C   0  0  0  0  0  0  0  0  0  0  0  0
  -25.2787  -28.1382   20.5470 C   0  0  0  0  0  0  0  0  0  0  0  0
  -24.4530  -12.7886   20.4542 C   0  0  0  0  0  0  0  0  0  0  0  0
  -27.6451  -27.6035   20.3915 C   0  0  0  0  0  0  0  0  0  0  0  0
  -24.2527  -10.4662   20.7520 C   0  0  0  0  0  0  0  0  0  0  0  0
  -22.9058   -8.3050   21.8911 C   0  0  0  0  0  0  0  0  0  0  0  0
  -24.1538  -10.3588   22.1392 C   0  0  0  0  0  0  0  0  0  0  0  0
  -23.0024  -16.6736   21.2913 C   0  0  0  0  0  0  0  0  0  0  0  0
  -21.9537  -18.4016   22.1568 C   0  0  0  0  0  0  0  0  0  0  0  0
  -21.4491  -16.2332   23.2933 C   0  0  0  0  0  0  0  0  0  0  0  0
  -23.3114  -29.9743   22.6414 C   0  0  0  0  0  0  0  0  0  0  0  0
  -21.4660  -28.4301   20.4659 C   0  0  0  0  0  0  0  0  0  0  0  0
  -21.2874  -26.2630   17.8357 C   0  0  0  0  0  0  0  0  0  0  0  0
  -25.4628  -22.6444   19.8039 C   0  0  0  0  0  0  0  0  0  0  0  0
  -22.8488  -33.9909   25.7575 C   0  0  0  0  0  0  0  0  0  0  0  0
  -24.4957  -30.5357   20.4878 C   0  0  0  0  0  0  0  0  0  0  0  0
  -23.8579  -27.6540   20.6706 C   0  0  0  0  0  0  0  0  0  0  0  0
  -21.8894  -32.9975   25.1071 C   0  0  0  0  0  0  0  0  0  0  0  0
  -22.1296  -21.8456   18.8404 C   0  0  0  0  0  0  0  0  0  0  0  0
  -22.3768  -31.5677   25.3190 C   0  0  0  0  0  0  0  0  0  0  0  0
  -21.8938  -20.4630   19.4508 C   0  0  0  0  0  0  0  0  0  0  0  0
  -31.5044  -23.4674   17.5929 C   0  0  0  0  0  0  0  0  0  0  0  0
  -30.1599  -22.8446   17.2353 C   0  0  0  0  0  0  0  0  0  0  0  0
  -23.5652  -22.0065   18.3450 C   0  0  0  0  0  0  0  0  0  0  0  0
  -24.3680  -20.3263   19.9594 C   0  0  0  0  0  0  0  0  0  0  0  0
  -31.0483  -23.0116   20.0308 C   0  0  0  0  0  0  0  0  0  0  0  0
  -23.7480  -31.3501   24.6680 C   0  0  1  0  0  0  0  0  0  0  0  0
  -23.2115  -30.0375   21.1435 C   0  0  1  0  0  0  0  0  0  0  0  0
  -22.9497  -20.1363   20.5239 C   0  0  2  0  0  0  0  0  0  0  0  0
  -31.4981  -24.0406   19.0044 C   0  0  2  0  0  0  0  0  0  0  0  0
  -29.7145  -21.7947   18.2602 C   0  0  2  0  0  0  0  0  0  0  0  0
  -28.3296  -21.2671   17.8899 C   0  0  0  0  0  0  0  0  0  0  0  0
  -19.6376  -25.1675   16.2944 C   0  0  0  0  0  0  0  0  0  0  0  0
  -26.7654  -24.0027   22.4590 C   0  0  0  0  0  0  0  0  0  0  0  0
  -20.6546  -26.5156   22.6990 C   0  0  0  0  0  0  0  0  0  0  0  0
  -19.8076  -24.9410   20.9464 C   0  0  0  0  0  0  0  0  0  0  0  0
  -18.7867  -27.2045   21.1854 C   0  0  0  0  0  0  0  0  0  0  0  0
  -22.5106  -27.5143   15.4489 C   0  0  0  0  0  0  0  0  0  0  0  0
  -28.5648  -22.3510   21.8399 C   0  0  0  0  0  0  0  0  0  0  0  0
  -29.2013  -21.5164   20.7341 C   0  0  0  0  0  0  0  0  0  0  0  0
  -29.9768  -27.1650   20.2272 C   0  0  0  0  0  0  0  0  0  1  0  0
  -30.9330  -25.9883   20.2000 C   0  0  0  0  0  0  0  0  0  0  0  0
  -21.1054  -26.9883   20.2011 C   0  0  1  0  0  0  0  0  0  0  0  0
  -20.5662  -26.3537   16.5030 C   0  0  2  0  0  0  0  0  0  0  0  0
  -27.3458  -23.1405   21.3426 C   0  0  1  0  0  0  0  0  0  0  0  0
  -20.1156  -26.4213   21.2576 C   0  0  0  0  0  0  0  0  0  0  0  0
  -23.4028  -17.7122   20.5529 N   0  0  0  0  0  0  0  0  0  0  0  0
  -22.7478  -18.7484   21.1036 N   0  0  0  0  0  0  0  0  0  0  0  0
  -22.8240  -28.7020   20.6847 N   0  0  0  0  0  0  0  0  0  0  0  0
  -24.5168  -21.6834   19.4109 N   0  0  0  0  0  0  0  0  0  0  0  0
  -21.2254  -19.3207   22.8257 N   0  0  0  0  0  0  0  0  0  0  0  0
  -21.7104  -14.8563   23.3049 N   0  0  0  0  0  0  0  0  0  0  0  0
  -23.6078  -31.1854   23.2371 N   0  0  0  0  0  0  0  0  0  0  0  0
  -20.6100  -26.9367   18.8299 N   0  0  0  0  0  0  0  0  0  0  0  0
  -26.3229  -22.2593   20.8251 N   0  0  0  0  0  0  0  0  0  0  0  0
  -29.6953  -22.4373   19.6442 N   0  3  1  0  0  0  0  0  0  0  0  0
  -21.5491  -26.3837   15.3831 N   0  3  0  0  0  0  0  0  0  0  0  0
  -20.6474  -16.7129   24.1304 O   0  0  0  0  0  0  0  0  0  0  0  0
  -23.1312  -28.9061   23.2144 O   0  0  0  0  0  0  0  0  0  0  0  0
  -20.5765  -29.2848   20.4712 O   0  0  0  0  0  0  0  0  0  0  0  0
  -22.3439  -25.6521   17.9811 O   0  0  0  0  0  0  0  0  0  0  0  0
  -25.5322  -23.7647   19.2871 O   0  0  0  0  0  0  0  0  0  0  0  0
  -24.9202  -11.5389   20.1850 O   0  0  0  0  0  0  0  0  0  0  0  0
  -28.6417  -26.6776   20.3555 O   0  0  0  0  0  0  0  0  0  1  0  0
  -30.6302  -25.1695   19.0770 O   0  0  0  0  0  0  0  0  0  0  0  0
  -22.2578   -7.2680   22.4378 F   0  0  0  0  0  0  0  0  0  0  0  0
  -24.7027  -11.2912   22.9298 F   0  0  0  0  0  0  0  0  0  0  0  0
  1  2  1  0  0  0  0
  1  5  2  0  0  0  0
  2  6  2  0  0  0  0
  3  8  2  0  0  0  0
  3 15  1  0  0  0  0
  4  9  1  0  0  0  0
  4 15  2  0  0  0  0
  5 17  1  0  0  0  0
  6 19  1  0  0  0  0
  7 10  2  0  0  0  0
  7 18  1  0  0  0  0
  8 21  1  0  0  0  0
  9 21  2  0  0  0  0
 10 22  1  0  0  0  0
 11 12  2  0  0  0  0
 11 23  1  0  0  0  0
 12 24  1  0  0  0  0
 13 20  1  0  0  0  0
 13 22  2  0  0  0  0
 14 24  2  0  0  0  0
 14 25  1  0  0  0  0
 15 26  1  0  0  0  0
 16 26  1  0  0  0  0
 16 27  2  0  0  0  0
 16 28  1  0  0  0  0
 17 19  2  0  0  0  0
 17 33  1  0  0  0  0
 18 20  2  0  0  0  0
 18 34  1  0  0  0  0
 19 45  1  0  0  0  0
 20 35  1  0  0  0  0
 21 81  1  0  0  0  0
 22 82  1  0  0  0  0
 23 25  2  0  0  0  0
 23 81  1  0  0  0  0
 24 84  1  0  0  0  0
 25 85  1  0  0  0  0
 26 65  2  0  0  0  0
 27 66  1  0  0  0  0
 27 69  1  0  0  0  0
 28 70  1  0  0  0  0
 28 76  2  0  0  0  0
 29 46  1  0  0  0  0
 29 71  1  0  0  0  0
 29 77  2  0  0  0  0
 30 61  1  0  0  0  0
 30 67  1  0  0  0  0
 30 78  2  0  0  0  0
 31 62  1  0  0  0  0
 31 72  1  0  0  0  0
 31 79  2  0  0  0  0
 32 68  1  0  0  0  0
 32 73  1  0  0  0  0
 32 80  2  0  0  0  0
 33 36  1  0  0  0  0
 34 46  1  0  0  0  0
 35 67  1  0  0  0  0
 36 38  1  0  0  0  0
 37 39  1  0  0  0  0
 37 42  1  0  0  0  0
 38 45  1  0  0  0  0
 39 47  1  0  0  0  0
 40 41  1  0  0  0  0
 40 48  1  0  0  0  0
 41 49  1  0  0  0  0
 42 68  1  0  0  0  0
 43 47  1  0  0  0  0
 43 68  1  0  0  0  0
 44 48  1  0  0  0  0
 44 74  1  0  0  0  0
 45 71  1  0  0  0  0
 46 67  1  0  0  0  0
 47 66  1  0  0  0  0
 48 83  1  0  0  0  0
 49 50  1  0  0  0  0
 49 74  1  0  0  0  0
 51 62  1  0  0  0  0
 52 63  1  0  0  0  0
 53 64  1  0  0  0  0
 54 64  1  0  0  0  0
 55 64  1  0  0  0  0
 56 75  1  0  0  0  0
 57 58  1  0  0  0  0
 57 63  1  0  0  0  0
 58 74  1  0  0  0  0
 59 60  1  0  0  0  0
 59 82  1  0  0  0  0
 60 83  1  0  0  0  0
 61 64  1  0  0  0  0
 61 72  1  0  0  0  0
 62 75  1  0  0  0  0
 63 73  1  0  0  0  0
 65 66  1  0  0  0  0
M  CHG  2  74   1  75   1
M  ISO  4  32 100  59 101  73 100  82 101
M  END
> <Batch ID>
0125

> <Smiles>
CNC(C)C(=O)NC(C(=O)N1Cc2cc([101O:1][101CH2:1]COC3CCC(C)N(CCC(C)[100NH:0][100C:0](=O)N4CCCC(n5nc(-c6ccc(Oc7ccc(F)cc7F)cc6)c(C(N)=O)c5N)C4)C3)ccc2CC1C(=O)NC1CCCc2ccccc21)C(C)(C)C

> <Shape>
0.266

> <Color>
0.087

> <Negative vol penalty>
0.000

$$$$

  -OEChem-04052320353D

 88 97  0     1  0  0  0  0  0999 V2000
  -16.6066  -29.1946   23.6226 C   0  0  0  0  0  0  0  0  0  0  0  0
  -17.1294  -28.4084   22.6009 C   0  0  0  0  0  0  0  0  0  0  0  0
  -24.9289  -14.5109   21.8419 C   0  0  0  0  0  0  0  0  0  0  0  0
  -26.2910  -14.5224   19.8465 C   0  0  0  0  0  0  0  0  0  0  0  0
  -17.4030  -30.1626   24.2330 C   0  0  0  0  0  0  0  0  0  0  0  0
  -18.4488  -28.5905   22.1882 C   0  0  0  0  0  0  0  0  0  0  0  0
  -24.0540  -24.9346   19.6322 C   0  0  0  0  0  0  0  0  0  0  0  0
  -24.1853  -13.4484   21.3283 C   0  0  0  0  0  0  0  0  0  0  0  0
  -25.5474  -13.4598   19.3329 C   0  0  0  0  0  0  0  0  0  0  0  0
  -24.9670  -24.9604   18.5789 C   0  0  0  0  0  0  0  0  0  0  0  0
  -22.1586  -10.4971   20.6983 C   0  0  0  0  0  0  0  0  0  0  0  0
  -21.8702   -9.4340   21.5539 C   0  0  0  0  0  0  0  0  0  0  0  0
  -26.2736  -26.6089   19.7597 C   0  0  0  0  0  0  0  0  0  0  0  0
  -30.2290  -23.4805   17.9270 C   0  0  0  0  0  0  0  0  0  0  0  0
  -24.2339   -9.0360   21.8563 C   0  0  0  0  0  0  0  0  0  0  0  0
  -25.9817  -15.0480   21.1010 C   0  0  0  0  0  0  0  0  0  0  0  0
  -27.9109  -16.0670   22.4227 C   0  0  0  0  0  0  0  0  0  0  0  0
  -18.7358  -30.3501   23.8341 C   0  0  0  0  0  0  0  0  0  0  0  0
  -24.2385  -25.7552   20.7543 C   0  0  0  0  0  0  0  0  0  0  0  0
  -19.2635  -29.5628   22.7928 C   0  0  0  0  0  0  0  0  0  0  0  0
  -25.3629  -26.5898   20.8270 C   0  0  0  0  0  0  0  0  0  0  0  0
  -29.6237  -24.6119   17.3263 C   0  0  0  0  0  0  0  0  0  0  0  0
  -24.4946  -12.9228   20.0738 C   0  0  0  0  0  0  0  0  0  0  0  0
  -26.0755  -25.7997   18.6412 C   0  0  0  0  0  0  0  0  0  0  0  0
  -23.4847  -10.8296   20.4215 C   0  0  0  0  0  0  0  0  0  0  0  0
  -22.9078   -8.7034   22.1330 C   0  0  0  0  0  0  0  0  0  0  0  0
  -24.5223  -10.0991   21.0006 C   0  0  0  0  0  0  0  0  0  0  0  0
  -26.7497  -16.1459   21.6308 C   0  0  0  0  0  0  0  0  0  0  0  0
  -31.1517  -23.9432   18.8390 C   0  0  0  0  0  0  0  0  0  0  0  0
  -30.1951  -25.7316   17.8895 C   0  0  0  0  0  0  0  0  0  0  0  0
  -28.2526  -17.3756   22.6624 C   0  0  0  0  0  0  0  0  0  0  0  0
  -28.6176  -14.9140   22.8991 C   0  0  0  0  0  0  0  0  0  0  0  0
  -22.5933  -28.1190   22.0994 C   0  0  0  0  0  0  0  0  0  0  0  0
  -24.8720  -27.8765   24.3952 C   0  0  0  0  0  0  0  0  0  0  0  0
  -28.0369  -26.9252   25.2469 C   0  0  0  0  0  0  0  0  0  0  0  0
  -28.9931  -22.6152   20.8896 C   0  0  0  0  0  0  0  0  0  0  0  0
  -19.5436  -31.4411   24.4913 C   0  0  0  0  0  0  0  0  0  0  0  0
  -23.2587  -25.6960   21.8940 C   0  0  0  0  0  0  0  0  0  0  0  0
  -25.6174  -27.4753   22.0185 C   0  0  0  0  0  0  0  0  0  0  0  0
  -21.0459  -31.3158   24.2506 C   0  0  0  0  0  0  0  0  0  0  0  0
  -25.6920  -21.6549   21.8154 C   0  0  0  0  0  0  0  0  0  0  0  0
  -21.3293  -31.0387   22.7777 C   0  0  0  0  0  0  0  0  0  0  0  0
  -25.7674  -20.1300   21.9090 C   0  0  0  0  0  0  0  0  0  0  0  0
  -31.1244  -27.0610   20.5931 C   0  0  0  0  0  0  0  0  0  0  0  0
  -32.9116  -27.0577   18.7858 C   0  0  0  0  0  0  0  0  0  0  0  0
  -26.5609  -22.1944   20.6813 C   0  0  0  0  0  0  0  0  0  0  0  0
  -28.0437  -20.2301   20.8103 C   0  0  0  0  0  0  0  0  0  0  0  0
  -32.0139  -27.9544   21.4458 C   0  0  0  0  0  0  0  0  0  0  0  0
  -33.7756  -27.9510   19.6644 C   0  0  0  0  0  0  0  0  0  0  0  0
  -20.6977  -29.7136   22.3341 C   0  0  1  0  0  0  0  0  0  0  0  0
  -23.2722  -26.9523   22.7594 C   0  0  1  0  0  0  0  0  0  0  0  0
  -27.2277  -19.6437   21.9750 C   0  0  2  0  0  0  0  0  0  0  0  0
  -31.9576  -26.1961   19.6312 C   0  0  0  0  0  0  0  0  0  0  0  0
  -29.9374  -27.1645   17.6321 C   0  0  0  0  0  0  0  0  0  0  0  0
  -28.7035  -23.3706   15.3403 C   0  0  0  0  0  0  0  0  0  0  0  0
  -29.6277  -26.8879   27.1874 C   0  0  0  0  0  0  0  0  0  0  0  0
  -25.3663  -30.8669   24.0444 C   0  0  0  0  0  0  0  0  0  0  0  0
  -27.5351  -30.5805   25.2620 C   0  0  0  0  0  0  0  0  0  0  0  0
  -25.3821  -30.0783   26.4176 C   0  0  0  0  0  0  0  0  0  0  0  0
  -28.2231  -23.9721   25.1870 C   0  0  0  0  0  0  0  0  0  0  0  0
  -32.0552  -23.1927   19.7351 C   0  0  0  0  0  0  0  0  0  0  0  0
  -31.4509  -22.8757   21.1146 C   0  0  0  0  0  0  0  0  0  0  0  0
  -27.1333  -24.6240   16.8650 C   0  0  0  0  0  0  0  0  0  1  0  0
  -28.5423  -24.5861   16.2576 C   0  0  1  0  0  0  0  0  0  0  0  0
  -26.2254  -28.5033   24.6286 C   0  0  1  0  0  0  0  0  0  0  0  0
  -28.5650  -26.1178   26.4190 C   0  0  2  0  0  0  0  0  0  0  0  0
  -26.1217  -29.9921   25.0647 C   0  0  0  0  0  0  0  0  0  0  0  0
  -26.3785  -17.4050   21.3839 N   0  0  0  0  0  0  0  0  0  0  0  0
  -31.1227  -25.3131   18.8074 N   0  0  0  0  0  0  0  0  0  0  0  0
  -27.3117  -18.1293   22.0246 N   0  0  0  0  0  0  0  0  0  0  0  0
  -24.6275  -27.3864   23.1045 N   0  0  0  0  0  0  0  0  0  0  0  0
  -27.9334  -21.6973   20.8032 N   0  0  0  0  0  0  0  0  0  0  0  0
  -29.2630  -17.9435   23.3545 N   0  0  0  0  0  0  0  0  0  0  0  0
  -28.1303  -13.6445   22.5600 N   0  0  0  0  0  0  0  0  0  0  0  0
  -21.4956  -28.5957   22.7903 N   0  0  0  0  0  0  0  0  0  0  0  0
  -26.9122  -27.6460   25.5886 N   0  0  0  0  0  0  0  0  0  0  0  0
  -30.2614  -22.0603   21.0093 N   0  0  0  0  0  0  0  0  0  0  0  0
  -32.8955  -28.7663   20.5543 N   0  3  0  0  0  0  0  0  0  0  0  0
  -29.1646  -24.8404   25.9398 N   0  3  0  0  0  0  0  0  0  0  0  0
  -29.6413  -15.0068   23.6181 O   0  0  0  0  0  0  0  0  0  0  0  0
  -23.0336  -28.5554   21.0423 O   0  0  0  0  0  0  0  0  0  0  0  0
  -24.0644  -27.8173   25.3257 O   0  0  0  0  0  0  0  0  0  0  0  0
  -28.5710  -26.9200   24.1400 O   0  0  0  0  0  0  0  0  0  0  0  0
  -28.8212  -23.8387   20.8674 O   0  0  0  0  0  0  0  0  0  0  0  0
  -23.7694  -11.8859   19.5724 O   0  0  0  0  0  0  0  0  0  0  0  0
  -26.9678  -25.8273   17.6141 O   0  0  0  0  0  0  0  0  0  1  0  0
  -22.6307   -7.6835   22.9558 F   0  0  0  0  0  0  0  0  0  0  0  0
  -25.7983  -10.4147   20.7394 F   0  0  0  0  0  0  0  0  0  0  0  0
  1  2  1  0  0  0  0
  1  5  2  0  0  0  0
  2  6  2  0  0  0  0
  3  8  2  0  0  0  0
  3 16  1  0  0  0  0
  4  9  1  0  0  0  0
  4 16  2  0  0  0  0
  5 18  1  0  0  0  0
  6 20  1  0  0  0  0
  7 10  2  0  0  0  0
  7 19  1  0  0  0  0
  8 23  1  0  0  0  0
  9 23  2  0  0  0  0
 10 24  1  0  0  0  0
 11 12  2  0  0  0  0
 11 25  1  0  0  0  0
 12 26  1  0  0  0  0
 13 21  1  0  0  0  0
 13 24  2  0  0  0  0
 14 22  1  0  0  0  0
 14 29  2  0  0  0  0
 15 26  2  0  0  0  0
 15 27  1  0  0  0  0
 16 28  1  0  0  0  0
 17 28  1  0  0  0  0
 17 31  2  0  0  0  0
 17 32  1  0  0  0  0
 18 20  2  0  0  0  0
 18 37  1  0  0  0  0
 19 21  2  0  0  0  0
 19 38  1  0  0  0  0
 20 50  1  0  0  0  0
 21 39  1  0  0  0  0
 22 30  2  0  0  0  0
 22 64  1  0  0  0  0
 23 85  1  0  0  0  0
 24 86  1  0  0  0  0
 25 27  2  0  0  0  0
 25 85  1  0  0  0  0
 26 87  1  0  0  0  0
 27 88  1  0  0  0  0
 28 68  2  0  0  0  0
 29 61  1  0  0  0  0
 29 69  1  0  0  0  0
 30 54  1  0  0  0  0
 30 69  1  0  0  0  0
 31 70  1  0  0  0  0
 31 73  1  0  0  0  0
 32 74  1  0  0  0  0
 32 80  2  0  0  0  0
 33 51  1  0  0  0  0
 33 75  1  0  0  0  0
 33 81  2  0  0  0  0
 34 65  1  0  0  0  0
 34 71  1  0  0  0  0
 34 82  2  0  0  0  0
 35 66  1  0  0  0  0
 35 76  1  0  0  0  0
 35 83  2  0  0  0  0
 36 72  1  0  0  0  0
 36 77  1  0  0  0  0
 36 84  2  0  0  0  0
 37 40  1  0  0  0  0
 38 51  1  0  0  0  0
 39 71  1  0  0  0  0
 40 42  1  0  0  0  0
 41 43  1  0  0  0  0
 41 46  1  0  0  0  0
 42 50  1  0  0  0  0
 43 52  1  0  0  0  0
 44 48  1  0  0  0  0
 44 53  1  0  0  0  0
 45 49  1  0  0  0  0
 45 53  1  0  0  0  0
 46 72  1  0  0  0  0
 47 52  1  0  0  0  0
 47 72  1  0  0  0  0
 48 78  1  0  0  0  0
 49 78  1  0  0  0  0
 50 75  1  0  0  0  0
 51 71  1  0  0  0  0
 52 70  1  0  0  0  0
 53 69  1  0  0  0  0
 55 64  1  0  0  0  0
 56 66  1  0  0  0  0
 57 67  1  0  0  0  0
 58 67  1  0  0  0  0
 59 67  1  0  0  0  0
 60 79  1  0  0  0  0
 61 62  1  0  0  0  0
 62 77  1  0  0  0  0
 63 64  1  0  0  0  0
 63 86  1  0  0  0  0
 65 67  1  0  0  0  0
 65 76  1  0  0  0  0
 66 79  1  0  0  0  0
 68 70  1  0  0  0  0
M  CHG  2  78   1  79   1
M  ISO  4  36 100  63 101  77 100  86 101
M  END
> <Batch ID>
0125

> <Smiles>
CNC(C)C(=O)NC(C(=O)N1Cc2cc([101O:1][101CH2:1]C(C)c3cc(CC[100NH:0][100C:0](=O)N4CCCC(n5nc(-c6ccc(Oc7ccc(F)cc7F)cc6)c(C(N)=O)c5N)C4)n(C4CCNCC4)c3C)ccc2CC1C(=O)NC1CCCc2ccccc21)C(C)(C)C

> <Shape>
0.260

> <Color>
0.047

> <Negative vol penalty>
0.000

$$$$

  -OEChem-04052320353D

 91100  0     1  0  0  0  0  0999 V2000
  -30.1980  -12.2232   19.6867 C   0  0  0  0  0  0  0  0  0  0  0  0
  -30.0203  -13.5250   20.1440 C   0  0  0  0  0  0  0  0  0  0  0  0
  -30.7299  -23.6034   21.1212 C   0  0  0  0  0  0  0  0  0  0  0  0
  -28.5918  -23.8206   20.0174 C   0  0  0  0  0  0  0  0  0  0  0  0
  -29.1344  -11.5415   19.0969 C   0  0  0  0  0  0  0  0  0  0  0  0
  -28.7791  -14.1463   20.0107 C   0  0  0  0  0  0  0  0  0  0  0  0
  -20.5417  -24.9508   20.5953 C   0  0  0  0  0  0  0  0  0  0  0  0
  -24.5204  -18.8743   23.3010 C   0  0  0  0  0  0  0  0  0  0  0  0
  -21.4032  -23.8988   20.9064 C   0  0  0  0  0  0  0  0  0  0  0  0
  -30.7358  -22.2371   20.8411 C   0  0  0  0  0  0  0  0  0  0  0  0
  -28.5977  -22.4541   19.7372 C   0  0  0  0  0  0  0  0  0  0  0  0
  -23.8100  -20.0458   23.0429 C   0  0  0  0  0  0  0  0  0  0  0  0
  -29.3076  -19.4349   22.0790 C   0  0  0  0  0  0  0  0  0  0  0  0
  -29.6757  -18.5652   23.1054 C   0  0  0  0  0  0  0  0  0  0  0  0
  -22.0231  -18.7428   22.0795 C   0  0  0  0  0  0  0  0  0  0  0  0
  -20.8326  -24.1225   23.2434 C   0  0  0  0  0  0  0  0  0  0  0  0
  -31.5120  -17.7550   21.7605 C   0  0  0  0  0  0  0  0  0  0  0  0
  -29.6578  -24.3952   20.7095 C   0  0  0  0  0  0  0  0  0  0  0  0
  -30.1694  -26.8414   20.1977 C   0  0  0  0  0  0  0  0  0  0  0  0
  -27.8769  -12.1513   18.9650 C   0  0  0  0  0  0  0  0  0  0  0  0
  -23.9915  -17.6269   22.9397 C   0  0  0  0  0  0  0  0  0  0  0  0
  -27.6980  -13.4725   19.4173 C   0  0  0  0  0  0  0  0  0  0  0  0
  -19.8257  -25.5888   21.6083 C   0  0  0  0  0  0  0  0  0  0  0  0
  -22.7277  -17.5568   22.3364 C   0  0  0  0  0  0  0  0  0  0  0  0
  -21.5486  -23.4846   22.2304 C   0  0  0  0  0  0  0  0  0  0  0  0
  -19.9712  -25.1746   22.9323 C   0  0  0  0  0  0  0  0  0  0  0  0
  -29.6697  -21.6624   20.1491 C   0  0  0  0  0  0  0  0  0  0  0  0
  -22.5624  -19.9804   22.4295 C   0  0  0  0  0  0  0  0  0  0  0  0
  -30.0416  -19.4646   20.8931 C   0  0  0  0  0  0  0  0  0  0  0  0
  -30.7780  -17.7253   22.9462 C   0  0  0  0  0  0  0  0  0  0  0  0
  -31.1438  -18.6247   20.7339 C   0  0  0  0  0  0  0  0  0  0  0  0
  -29.6508  -25.8067   20.9991 C   0  0  0  0  0  0  0  0  0  0  0  0
  -29.9166  -27.9876   20.9111 C   0  0  0  0  0  0  0  0  0  0  0  0
  -30.8212  -26.7728   18.9226 C   0  0  0  0  0  0  0  0  0  0  0  0
  -24.8855  -15.2960   20.9721 C   0  0  0  0  0  0  0  0  0  0  0  0
  -22.3488  -13.7513   22.2766 C   0  0  0  0  0  0  0  0  0  0  0  0
  -19.3391  -13.9572   23.8721 C   0  0  0  0  0  0  0  0  0  0  0  0
  -25.9044  -30.2935   24.3896 C   0  0  0  0  0  0  0  0  0  0  0  0
  -26.7701  -11.3913   18.2778 C   0  0  0  0  0  0  0  0  0  0  0  0
  -24.7586  -16.3706   23.2491 C   0  0  0  0  0  0  0  0  0  0  0  0
  -22.1065  -16.2410   21.9473 C   0  0  0  0  0  0  0  0  0  0  0  0
  -25.3846  -11.9873   18.5134 C   0  0  0  0  0  0  0  0  0  0  0  0
  -28.9703  -29.0007   25.6567 C   0  0  0  0  0  0  0  0  0  0  0  0
  -25.4125  -13.4991   18.3121 C   0  0  0  0  0  0  0  0  0  0  0  0
  -29.5066  -28.1415   24.5103 C   0  0  0  0  0  0  0  0  0  0  0  0
  -17.3826  -26.5198   21.6169 C   0  0  0  0  0  0  0  0  0  0  0  0
  -18.8998  -27.0741   19.7142 C   0  0  0  0  0  0  0  0  0  0  0  0
  -27.4486  -28.9217   25.7571 C   0  0  0  0  0  0  0  0  0  0  0  0
  -27.2648  -28.3728   23.3616 C   0  0  0  0  0  0  0  0  0  0  0  0
  -16.7008  -25.4499   20.7687 C   0  0  0  0  0  0  0  0  0  0  0  0
  -18.2459  -25.9844   18.8731 C   0  0  0  0  0  0  0  0  0  0  0  0
  -26.3599  -14.1715   19.3130 C   0  0  1  0  0  0  0  0  0  0  0  0
  -24.3511  -15.1905   22.3724 C   0  0  1  0  0  0  0  0  0  0  0  0
  -28.7902  -28.4641   23.1852 C   0  0  2  0  0  0  0  0  0  0  0  0
  -18.8779  -26.7508   21.2391 C   0  0  0  0  0  0  0  0  0  0  0  0
  -19.2153  -25.8428   24.0337 C   0  0  0  0  0  0  0  0  0  0  0  0
  -17.4856  -12.5259   24.7739 C   0  0  0  0  0  0  0  0  0  0  0  0
  -21.3362  -13.2783   19.4375 C   0  0  0  0  0  0  0  0  0  0  0  0
  -19.0950  -12.7211   20.4043 C   0  0  0  0  0  0  0  0  0  0  0  0
  -21.0804  -11.3230   20.9757 C   0  0  0  0  0  0  0  0  0  0  0  0
  -19.7560  -14.9511   26.6285 C   0  0  0  0  0  0  0  0  0  0  0  0
  -22.4755  -22.3532   22.5649 C   0  0  0  0  0  0  0  0  0  1  0  0
  -19.3712  -27.9944   22.0143 C   0  0  0  0  0  0  0  0  0  0  0  0
  -22.9718  -31.1135   23.0668 C   0  0  0  0  0  0  0  0  0  0  0  0
  -24.4103  -31.5866   22.8880 C   0  0  0  0  0  0  0  0  0  0  0  0
  -20.7809  -28.3617   21.5970 C   0  0  0  0  0  0  0  0  0  0  0  0
  -22.6230  -29.9608   22.1339 C   0  0  0  0  0  0  0  0  0  0  0  0
  -20.8783  -13.6465   21.9516 C   0  0  1  0  0  0  0  0  0  0  0  0
  -18.7934  -13.2345   25.0905 C   0  0  2  0  0  0  0  0  0  0  0  0
  -20.6098  -12.7673   20.6977 C   0  0  0  0  0  0  0  0  0  0  0  0
  -29.1096  -26.2557   22.1346 N   0  0  0  0  0  0  0  0  0  0  0  0
  -29.2868  -27.5853   22.0520 N   0  0  0  0  0  0  0  0  0  0  0  0
  -22.8984  -15.0412   22.2650 N   0  0  0  0  0  0  0  0  0  0  0  0
  -26.8304  -29.2401   24.4678 N   0  0  0  0  0  0  0  0  0  0  0  0
  -30.1738  -29.2903   20.6674 N   0  0  0  0  0  0  0  0  0  0  0  0
  -31.0000  -25.5151   18.3305 N   0  0  0  0  0  0  0  0  0  0  0  0
  -25.7351  -14.2664   20.6150 N   0  0  0  0  0  0  0  0  0  0  0  0
  -20.2247  -13.1709   23.1661 N   0  0  0  0  0  0  0  0  0  0  0  0
  -25.3706  -30.5328   23.1292 N   0  0  0  0  0  0  0  0  0  0  0  0
  -16.8362  -25.8028   19.3260 N   0  3  0  0  0  0  0  0  0  0  0  0
  -18.5483  -14.2001   26.1989 N   0  3  0  0  0  0  0  0  0  0  0  0
  -21.2247  -29.5253   22.4015 N   0  3  0  0  0  0  0  0  0  0  0  0
  -31.2476  -27.7948   18.3334 O   0  0  0  0  0  0  0  0  0  0  0  0
  -24.5505  -16.2408   20.2672 O   0  0  0  0  0  0  0  0  0  0  0  0
  -22.9848  -12.7273   22.5384 O   0  0  0  0  0  0  0  0  0  0  0  0
  -19.0096  -15.1032   23.5744 O   0  0  0  0  0  0  0  0  0  0  0  0
  -25.5817  -30.9740   25.3692 O   0  0  0  0  0  0  0  0  0  0  0  0
  -29.6753  -20.3291   19.8753 O   0  0  0  0  0  0  0  0  0  0  0  0
  -21.8671  -21.1224   22.1759 O   0  0  0  0  0  0  0  0  0  1  0  0
  -31.1323  -16.8913   23.9327 F   0  0  0  0  0  0  0  0  0  0  0  0
  -31.8535  -18.6496   19.5975 F   0  0  0  0  0  0  0  0  0  0  0  0
  1  2  1  0  0  0  0
  1  5  2  0  0  0  0
  2  6  2  0  0  0  0
  3 10  2  0  0  0  0
  3 18  1  0  0  0  0
  4 11  1  0  0  0  0
  4 18  2  0  0  0  0
  5 20  1  0  0  0  0
  6 22  1  0  0  0  0
  7  9  2  0  0  0  0
  7 23  1  0  0  0  0
  8 12  2  0  0  0  0
  8 21  1  0  0  0  0
  9 25  1  0  0  0  0
 10 27  1  0  0  0  0
 11 27  2  0  0  0  0
 12 28  1  0  0  0  0
 13 14  2  0  0  0  0
 13 29  1  0  0  0  0
 14 30  1  0  0  0  0
 15 24  1  0  0  0  0
 15 28  2  0  0  0  0
 16 25  2  0  0  0  0
 16 26  1  0  0  0  0
 17 30  2  0  0  0  0
 17 31  1  0  0  0  0
 18 32  1  0  0  0  0
 19 32  1  0  0  0  0
 19 33  2  0  0  0  0
 19 34  1  0  0  0  0
 20 22  2  0  0  0  0
 20 39  1  0  0  0  0
 21 24  2  0  0  0  0
 21 40  1  0  0  0  0
 22 52  1  0  0  0  0
 23 26  2  0  0  0  0
 23 55  1  0  0  0  0
 24 41  1  0  0  0  0
 25 62  1  0  0  0  0
 26 56  1  0  0  0  0
 27 88  1  0  0  0  0
 28 89  1  0  0  0  0
 29 31  2  0  0  0  0
 29 88  1  0  0  0  0
 30 90  1  0  0  0  0
 31 91  1  0  0  0  0
 32 71  2  0  0  0  0
 33 72  1  0  0  0  0
 33 75  1  0  0  0  0
 34 76  1  0  0  0  0
 34 83  2  0  0  0  0
 35 53  1  0  0  0  0
 35 77  1  0  0  0  0
 35 84  2  0  0  0  0
 36 68  1  0  0  0  0
 36 73  1  0  0  0  0
 36 85  2  0  0  0  0
 37 69  1  0  0  0  0
 37 78  1  0  0  0  0
 37 86  2  0  0  0  0
 38 74  1  0  0  0  0
 38 79  1  0  0  0  0
 38 87  2  0  0  0  0
 39 42  1  0  0  0  0
 40 53  1  0  0  0  0
 41 73  1  0  0  0  0
 42 44  1  0  0  0  0
 43 45  1  0  0  0  0
 43 48  1  0  0  0  0
 44 52  1  0  0  0  0
 45 54  1  0  0  0  0
 46 50  1  0  0  0  0
 46 55  1  0  0  0  0
 47 51  1  0  0  0  0
 47 55  1  0  0  0  0
 48 74  1  0  0  0  0
 49 54  1  0  0  0  0
 49 74  1  0  0  0  0
 50 80  1  0  0  0  0
 51 80  1  0  0  0  0
 52 77  1  0  0  0  0
 53 73  1  0  0  0  0
 54 72  1  0  0  0  0
 55 63  1  0  0  0  0
 57 69  1  0  0  0  0
 58 70  1  0  0  0  0
 59 70  1  0  0  0  0
 60 70  1  0  0  0  0
 61 81  1  0  0  0  0
 62 89  1  0  0  0  0
 63 66  1  0  0  0  0
 64 65  1  0  0  0  0
 64 67  1  0  0  0  0
 65 79  1  0  0  0  0
 66 82  1  0  0  0  0
 67 82  1  0  0  0  0
 68 70  1  0  0  0  0
 68 78  1  0  0  0  0
 69 81  1  0  0  0  0
 71 72  1  0  0  0  0
M  CHG  3  80   1  81   1  82   1
M  ISO  4  38 100  62 101  79 100  89 101
M  END
> <Batch ID>
0125

> <Smiles>
CNC(C)C(=O)NC(C(=O)N1Cc2cc([101O:1][101CH2:1]c3ccc(C4(CCNCCC[100NH:0][100C:0](=O)N5CCCC(n6nc(-c7ccc(Oc8ccc(F)cc8F)cc7)c(C(N)=O)c6N)C5)CCNCC4)c(C)c3)ccc2CC1C(=O)NC1CCCc2ccccc21)C(C)(C)C

> <Shape>
0.261

> <Color>
0.060

> <Negative vol penalty>
0.000

$$$$

  -OEChem-04052320353D

 85 93  0     1  0  0  0  0  0999 V2000
  -23.7466  -18.9254   18.5780 C   0  0  0  0  0  0  0  0  0  0  0  0
  -24.5205  -18.6121   19.6909 C   0  0  0  0  0  0  0  0  0  0  0  0
  -23.1101   -9.7721   20.3842 C   0  0  0  0  0  0  0  0  0  0  0  0
  -23.7777  -10.1761   22.6707 C   0  0  0  0  0  0  0  0  0  0  0  0
  -23.5412  -20.2588   18.2262 C   0  0  0  0  0  0  0  0  0  0  0  0
  -25.0903  -19.6322   20.4519 C   0  0  0  0  0  0  0  0  0  0  0  0
  -25.9691  -19.6521   26.5127 C   0  0  0  0  0  0  0  0  0  0  0  0
  -32.5012  -17.9913   22.9079 C   0  0  0  0  0  0  0  0  0  0  0  0
  -31.9416  -16.9641   22.1482 C   0  0  0  0  0  0  0  0  0  0  0  0
  -22.3647   -8.6677   20.7969 C   0  0  0  0  0  0  0  0  0  0  0  0
  -23.0323   -9.0717   23.0835 C   0  0  0  0  0  0  0  0  0  0  0  0
  -27.0876  -19.3796   27.2992 C   0  0  0  0  0  0  0  0  0  0  0  0
  -21.0143   -6.5728   24.7868 C   0  0  0  0  0  0  0  0  0  0  0  0
  -20.2121   -6.7172   25.9187 C   0  0  0  0  0  0  0  0  0  0  0  0
  -27.5819  -21.7384   27.4028 C   0  0  0  0  0  0  0  0  0  0  0  0
  -30.3008  -18.9191   23.2745 C   0  0  0  0  0  0  0  0  0  0  0  0
  -18.9846   -8.4864   24.8231 C   0  0  0  0  0  0  0  0  0  0  0  0
  -23.8167  -10.5263   21.3211 C   0  0  0  0  0  0  0  0  0  0  0  0
  -24.1458  -12.9993   20.7890 C   0  0  0  0  0  0  0  0  0  0  0  0
  -24.1009  -21.2959   18.9889 C   0  0  0  0  0  0  0  0  0  0  0  0
  -25.6543  -20.9711   26.1557 C   0  0  0  0  0  0  0  0  0  0  0  0
  -24.8933  -20.9807   20.1091 C   0  0  0  0  0  0  0  0  0  0  0  0
  -26.4575  -22.0252   26.6138 C   0  0  0  0  0  0  0  0  0  0  0  0
  -31.6809  -18.9688   23.4712 C   0  0  0  0  0  0  0  0  0  0  0  0
  -30.5615  -16.9145   21.9515 C   0  0  0  0  0  0  0  0  0  0  0  0
  -22.3258   -8.3175   22.1466 C   0  0  0  0  0  0  0  0  0  0  0  0
  -27.8958  -20.4225   27.7420 C   0  0  0  0  0  0  0  0  0  0  0  0
  -20.8016   -7.3852   23.6730 C   0  0  0  0  0  0  0  0  0  0  0  0
  -29.7411  -17.8920   22.5147 C   0  0  0  0  0  0  0  0  0  0  0  0
  -19.1973   -7.6740   25.9369 C   0  0  0  0  0  0  0  0  0  0  0  0
  -19.7868   -8.3420   23.6912 C   0  0  0  0  0  0  0  0  0  0  0  0
  -24.5873  -11.6668   20.8953 C   0  0  0  0  0  0  0  0  0  0  0  0
  -25.2465  -13.6914   20.3462 C   0  0  0  0  0  0  0  0  0  0  0  0
  -22.8561  -13.5613   21.0658 C   0  0  0  0  0  0  0  0  0  0  0  0
  -25.4155  -22.5557   23.4106 C   0  0  0  0  0  0  0  0  0  0  0  0
  -24.3389  -24.9391   25.3297 C   0  0  0  0  0  0  0  0  0  0  0  0
  -24.2498  -26.3357   28.4423 C   0  0  0  0  0  0  0  0  0  0  0  0
  -30.6941  -14.8250   20.5504 C   0  0  0  0  0  0  0  0  0  0  0  0
  -23.8901  -22.7209   18.5419 C   0  0  0  0  0  0  0  0  0  0  0  0
  -24.4293  -21.2506   25.3289 C   0  0  0  0  0  0  0  0  0  0  0  0
  -26.1514  -23.4605   26.2752 C   0  0  0  0  0  0  0  0  0  0  0  0
  -24.2193  -23.7519   19.6184 C   0  0  0  0  0  0  0  0  0  0  0  0
  -29.6916  -12.0315   18.5836 C   0  0  0  0  0  0  0  0  0  0  0  0
  -25.5550  -23.4259   20.2792 C   0  0  0  0  0  0  0  0  0  0  0  0
  -28.2380  -11.7972   19.0009 C   0  0  0  0  0  0  0  0  0  0  0  0
  -30.5564  -12.4720   19.7633 C   0  0  0  0  0  0  0  0  0  0  0  0
  -28.5909  -13.3934   20.9283 C   0  0  0  0  0  0  0  0  0  0  0  0
  -25.5078  -22.0597   20.9741 C   0  0  1  0  0  0  0  0  0  0  0  0
  -24.4945  -22.5877   24.5973 C   0  0  1  0  0  0  0  0  0  0  0  0
  -27.6671  -13.0108   19.7604 C   0  0  2  0  0  0  0  0  0  0  0  0
  -23.3194  -28.3022   29.6931 C   0  0  0  0  0  0  0  0  0  0  0  0
  -29.5751  -18.0845   29.5875 C   0  0  0  0  0  0  0  0  0  0  0  0
  -26.4614  -26.7375   24.0761 C   0  0  0  0  0  0  0  0  0  0  0  0
  -26.1311  -28.3339   25.9762 C   0  0  0  0  0  0  0  0  0  0  0  0
  -24.2408  -27.8330   24.4275 C   0  0  0  0  0  0  0  0  0  0  0  0
  -22.6903  -24.5922   30.2554 C   0  0  0  0  0  0  0  0  0  0  0  0
  -27.6246  -17.1398   23.2960 C   0  0  0  0  0  0  0  0  0  0  0  0
  -32.2837  -20.0742   24.2889 C   0  0  0  0  0  0  0  0  0  0  0  0
  -32.3952  -19.7513   25.7755 C   0  0  0  0  0  0  0  0  0  0  0  0
  -31.0534  -19.1582   27.7970 C   0  0  0  0  0  0  0  0  0  0  0  0
  -24.9829  -26.0755   26.0866 C   0  0  1  0  0  0  0  0  0  0  0  0
  -23.0958  -26.8558   29.2803 C   0  0  2  0  0  0  0  0  0  0  0  0
  -29.6380  -18.9051   28.3059 C   0  0  2  0  0  0  0  0  0  1  0  0
  -25.4612  -27.2179   25.1466 C   0  0  0  0  0  0  0  0  0  0  0  0
  -25.8685  -11.5189   20.5479 N   0  0  0  0  0  0  0  0  0  0  0  0
  -26.2415  -12.7673   20.2189 N   0  0  0  0  0  0  0  0  0  0  0  0
  -24.9463  -23.6821   25.4590 N   0  0  0  0  0  0  0  0  0  0  0  0
  -29.9559  -13.6285   20.4318 N   0  0  0  0  0  0  0  0  0  0  0  0
  -25.4506  -14.9942   20.0572 N   0  0  0  0  0  0  0  0  0  0  0  0
  -21.8378  -12.7085   21.5130 N   0  0  0  0  0  0  0  0  0  0  0  0
  -30.0083  -15.8661   21.1753 N   0  0  0  0  0  0  0  0  0  0  0  0
  -24.8058  -22.1585   22.2358 N   0  0  0  0  0  0  0  0  0  0  0  0
  -24.0142  -26.4962   27.0932 N   0  0  0  0  0  0  0  0  0  0  0  0
  -22.9396  -26.0338   30.5136 N   0  3  0  0  0  0  0  0  0  0  0  0
  -31.0444  -19.5385   26.3625 N   0  3  0  0  0  0  0  0  0  0  0  0
  -22.6094  -14.7806   20.9052 O   0  0  0  0  0  0  0  0  0  0  0  0
  -26.5918  -22.8697   23.5500 O   0  0  0  0  0  0  0  0  0  0  0  0
  -23.3300  -25.1573   24.6544 O   0  0  0  0  0  0  0  0  0  0  0  0
  -25.2608  -25.8404   28.9353 O   0  0  0  0  0  0  0  0  0  0  0  0
  -31.8398  -14.9276   20.1045 O   0  0  0  0  0  0  0  0  0  0  0  0
  -21.5984   -7.2401   22.5497 O   0  0  0  0  0  0  0  0  0  0  0  0
  -28.3903  -17.8619   22.3341 O   0  0  0  0  0  0  0  0  0  0  0  0
  -28.9884  -20.1593   28.5093 O   0  0  0  0  0  0  0  0  0  1  0  0
  -18.4261   -7.8115   27.0234 F   0  0  0  0  0  0  0  0  0  0  0  0
  -19.5770   -9.1246   22.6237 F   0  0  0  0  0  0  0  0  0  0  0  0
  1  2  1  0  0  0  0
  1  5  2  0  0  0  0
  2  6  2  0  0  0  0
  3 10  2  0  0  0  0
  3 18  1  0  0  0  0
  4 11  1  0  0  0  0
  4 18  2  0  0  0  0
  5 20  1  0  0  0  0
  6 22  1  0  0  0  0
  7 12  2  0  0  0  0
  7 21  1  0  0  0  0
  8  9  2  0  0  0  0
  8 24  1  0  0  0  0
  9 25  1  0  0  0  0
 10 26  1  0  0  0  0
 11 26  2  0  0  0  0
 12 27  1  0  0  0  0
 13 14  2  0  0  0  0
 13 28  1  0  0  0  0
 14 30  1  0  0  0  0
 15 23  1  0  0  0  0
 15 27  2  0  0  0  0
 16 24  2  0  0  0  0
 16 29  1  0  0  0  0
 17 30  2  0  0  0  0
 17 31  1  0  0  0  0
 18 32  1  0  0  0  0
 19 32  1  0  0  0  0
 19 33  2  0  0  0  0
 19 34  1  0  0  0  0
 20 22  2  0  0  0  0
 20 39  1  0  0  0  0
 21 23  2  0  0  0  0
 21 40  1  0  0  0  0
 22 48  1  0  0  0  0
 23 41  1  0  0  0  0
 24 58  1  0  0  0  0
 25 29  2  0  0  0  0
 25 71  1  0  0  0  0
 26 81  1  0  0  0  0
 27 83  1  0  0  0  0
 28 31  2  0  0  0  0
 28 81  1  0  0  0  0
 29 82  1  0  0  0  0
 30 84  1  0  0  0  0
 31 85  1  0  0  0  0
 32 65  2  0  0  0  0
 33 66  1  0  0  0  0
 33 69  1  0  0  0  0
 34 70  1  0  0  0  0
 34 76  2  0  0  0  0
 35 49  1  0  0  0  0
 35 72  1  0  0  0  0
 35 77  2  0  0  0  0
 36 61  1  0  0  0  0
 36 67  1  0  0  0  0
 36 78  2  0  0  0  0
 37 62  1  0  0  0  0
 37 73  1  0  0  0  0
 37 79  2  0  0  0  0
 38 68  1  0  0  0  0
 38 71  1  0  0  0  0
 38 80  2  0  0  0  0
 39 42  1  0  0  0  0
 40 49  1  0  0  0  0
 41 67  1  0  0  0  0
 42 44  1  0  0  0  0
 43 45  1  0  0  0  0
 43 46  1  0  0  0  0
 44 48  1  0  0  0  0
 45 50  1  0  0  0  0
 46 68  1  0  0  0  0
 47 50  1  0  0  0  0
 47 68  1  0  0  0  0
 48 72  1  0  0  0  0
 49 67  1  0  0  0  0
 50 66  1  0  0  0  0
 51 62  1  0  0  0  0
 52 63  1  0  0  0  0
 53 64  1  0  0  0  0
 54 64  1  0  0  0  0
 55 64  1  0  0  0  0
 56 74  1  0  0  0  0
 57 82  1  0  0  0  0
 58 59  1  0  0  0  0
 59 75  1  0  0  0  0
 60 63  1  0  0  0  0
 60 75  1  0  0  0  0
 61 64  1  0  0  0  0
 61 73  1  0  0  0  0
 62 74  1  0  0  0  0
 63 83  1  0  0  0  0
 65 66  1  0  0  0  0
M  CHG  2  74   1  75   1
M  ISO  4  38 100  63 101  71 100  83 101
M  END
> <Batch ID>
0125

> <Smiles>
CNC(C)C(=O)NC(C(=O)N1Cc2cc([101O:1][101CH:1](C)CNCCc3ccc([100NH:0][100C:0](=O)N4CCCC(n5nc(-c6ccc(Oc7ccc(F)cc7F)cc6)c(C(N)=O)c5N)C4)c(OC)c3)ccc2CC1C(=O)NC1CCCc2ccccc21)C(C)(C)C

> <Shape>
0.160

> <Color>
0.166

> <Negative vol penalty>
0.000

$$$$

  -OEChem-04052320353D

 92102  0     1  0  0  0  0  0999 V2000
  -29.2956  -32.8424   24.7307 C   0  0  0  0  0  0  0  0  0  0  0  0
  -29.4804  -31.4953   25.0251 C   0  0  0  0  0  0  0  0  0  0  0  0
  -30.8099  -19.8061   18.5158 C   0  0  0  0  0  0  0  0  0  0  0  0
  -29.1245  -19.5974   20.2341 C   0  0  0  0  0  0  0  0  0  0  0  0
  -28.0683  -33.2854   24.2394 C   0  0  0  0  0  0  0  0  0  0  0  0
  -28.4375  -30.5906   24.8294 C   0  0  0  0  0  0  0  0  0  0  0  0
  -27.2321  -23.7743   22.9853 C   0  0  0  0  0  0  0  0  0  0  0  0
  -30.4272  -21.1301   18.3012 C   0  0  0  0  0  0  0  0  0  0  0  0
  -28.7418  -20.9215   20.0196 C   0  0  0  0  0  0  0  0  0  0  0  0
  -26.5547  -22.6410   23.4331 C   0  0  0  0  0  0  0  0  0  0  0  0
  -30.9152  -24.1341   19.7746 C   0  0  0  0  0  0  0  0  0  0  0  0
  -31.9246  -25.0893   19.6548 C   0  0  0  0  0  0  0  0  0  0  0  0
  -24.5037  -23.5073   22.5046 C   0  0  0  0  0  0  0  0  0  0  0  0
  -24.1379  -15.0072   22.6068 C   0  0  0  0  0  0  0  0  0  0  0  0
  -31.1468  -25.6326   17.4329 C   0  0  0  0  0  0  0  0  0  0  0  0
  -22.6145  -12.7505   22.7867 C   0  0  0  0  0  0  0  0  0  0  0  0
  -30.1585  -19.0397   19.4822 C   0  0  0  0  0  0  0  0  0  0  0  0
  -31.8206  -17.2064   20.1021 C   0  0  0  0  0  0  0  0  0  0  0  0
  -27.0129  -32.3842   24.0284 C   0  0  0  0  0  0  0  0  0  0  0  0
  -26.5470  -24.7894   22.3021 C   0  0  0  0  0  0  0  0  0  0  0  0
  -27.1945  -31.0223   24.3361 C   0  0  0  0  0  0  0  0  0  0  0  0
  -25.1752  -24.6513   22.0469 C   0  0  0  0  0  0  0  0  0  0  0  0
  -22.9294  -15.0529   23.2929 C   0  0  0  0  0  0  0  0  0  0  0  0
  -22.1472  -13.9074   23.3892 C   0  0  0  0  0  0  0  0  0  0  0  0
  -29.3932  -21.6878   19.0531 C   0  0  0  0  0  0  0  0  0  0  0  0
  -25.1898  -22.5087   23.1954 C   0  0  0  0  0  0  0  0  0  0  0  0
  -30.0217  -23.9280   18.7234 C   0  0  0  0  0  0  0  0  0  0  0  0
  -32.0403  -25.8386   18.4840 C   0  0  0  0  0  0  0  0  0  0  0  0
  -30.1375  -24.6773   17.5526 C   0  0  0  0  0  0  0  0  0  0  0  0
  -30.5530  -17.6717   19.7039 C   0  0  0  0  0  0  0  0  0  0  0  0
  -24.5161  -13.8010   22.0395 C   0  0  0  0  0  0  0  0  0  0  0  0
  -31.6793  -15.8419   20.1712 C   0  0  0  0  0  0  0  0  0  0  0  0
  -33.0186  -17.9418   20.3845 C   0  0  0  0  0  0  0  0  0  0  0  0
  -25.9749  -27.8684   22.8466 C   0  0  0  0  0  0  0  0  0  0  0  0
  -24.6985  -27.7573   19.8665 C   0  0  0  0  0  0  0  0  0  0  0  0
  -23.2878  -25.8842   17.3869 C   0  0  0  0  0  0  0  0  0  0  0  0
  -26.3309  -12.6722   20.6933 C   0  0  0  0  0  0  0  0  0  0  0  0
  -25.6894  -32.9176   23.5403 C   0  0  0  0  0  0  0  0  0  0  0  0
  -27.2975  -25.9933   21.8021 C   0  0  0  0  0  0  0  0  0  0  0  0
  -24.3977  -25.7032   21.3003 C   0  0  0  0  0  0  0  0  0  0  0  0
  -24.7553  -31.8343   23.0072 C   0  0  0  0  0  0  0  0  0  0  0  0
  -16.8828  -13.8639   22.2801 C   0  0  0  0  0  0  0  0  0  0  0  0
  -18.0637  -13.3540   21.4598 C   0  0  0  0  0  0  0  0  0  0  0  0
  -17.2719  -15.0641   23.1375 C   0  0  0  0  0  0  0  0  0  0  0  0
  -28.9346  -12.4382   18.0808 C   0  0  0  0  0  0  0  0  0  0  0  0
  -24.7107  -30.6487   23.9660 C   0  0  0  0  0  0  0  0  0  0  0  0
  -19.2706  -13.0438   22.3424 C   0  0  0  0  0  0  0  0  0  0  0  0
  -18.4776  -14.7569   24.0228 C   0  0  0  0  0  0  0  0  0  0  0  0
  -29.9222  -13.5711   18.3641 C   0  0  0  0  0  0  0  0  0  0  0  0
  -23.5105  -16.7878   24.9781 C   0  0  0  0  0  0  0  0  0  0  0  0
  -22.3212  -17.4219   22.8403 C   0  0  0  0  0  0  0  0  0  0  0  0
  -28.2673  -11.9052   19.3412 C   0  0  0  0  0  0  0  0  0  0  0  0
  -28.2236  -14.2854   20.1181 C   0  0  0  0  0  0  0  0  0  0  0  0
  -23.1364  -18.1382   25.5754 C   0  0  0  0  0  0  0  0  0  0  0  0
  -21.9558  -18.7674   23.4541 C   0  0  0  0  0  0  0  0  0  0  0  0
  -22.4924  -16.3387   23.9175 C   0  0  0  0  0  0  0  0  0  0  0  0
  -26.0952  -30.0062   24.1138 C   0  0  1  0  0  0  0  0  0  0  0  0
  -26.3981  -27.2030   21.5675 C   0  0  1  0  0  0  0  0  0  0  0  0
  -19.6706  -14.2519   23.2001 C   0  0  0  0  0  0  0  0  0  0  0  0
  -29.7118  -14.2253   19.7398 C   0  0  2  0  0  0  0  0  0  0  0  0
  -22.3424  -25.3481   15.1250 C   0  0  0  0  0  0  0  0  0  0  0  0
  -22.1525  -28.9537   21.0481 C   0  0  0  0  0  0  0  0  0  0  0  0
  -20.9414  -28.2488   18.9734 C   0  0  0  0  0  0  0  0  0  0  0  0
  -22.8123  -29.8922   18.8259 C   0  0  0  0  0  0  0  0  0  0  0  0
  -25.9566  -25.2017   16.3050 C   0  0  0  0  0  0  0  0  0  0  0  0
  -20.8448  -13.9010   24.1120 C   0  0  0  0  0  0  0  0  0  0  0  0
  -22.7594  -20.5378   25.0145 C   0  0  0  0  0  0  0  0  0  0  0  0
  -23.1489  -21.5645   23.9694 C   0  0  0  0  0  0  0  0  0  1  0  0
  -23.3305  -27.4634   19.2997 C   0  0  1  0  0  0  0  0  0  0  0  0
  -23.5687  -25.8099   15.8969 C   0  0  2  0  0  0  0  0  0  0  0  0
  -22.3232  -28.6204   19.5526 C   0  0  0  0  0  0  0  0  0  0  0  0
  -23.7830  -12.6675   22.1119 N   0  0  0  0  0  0  0  0  0  0  0  0
  -29.6715  -16.6831   19.5319 N   0  0  0  0  0  0  0  0  0  0  0  0
  -30.3862  -15.5830   19.8233 N   0  0  0  0  0  0  0  0  0  0  0  0
  -25.1749  -26.8647   20.8372 N   0  0  0  0  0  0  0  0  0  0  0  0
  -27.5672  -12.9678   20.0688 N   0  0  0  0  0  0  0  0  0  0  0  0
  -32.5364  -14.8504   20.4948 N   0  0  0  0  0  0  0  0  0  0  0  0
  -33.2404  -18.3790   21.6975 N   0  0  0  0  0  0  0  0  0  0  0  0
  -25.7485  -13.7647   21.3409 N   0  0  0  0  0  0  0  0  0  0  0  0
  -26.3941  -29.1798   22.9639 N   0  0  0  0  0  0  0  0  0  0  0  0
  -23.5325  -27.1443   17.8905 N   0  0  0  0  0  0  0  0  0  0  0  0
  -23.0001  -19.1752   24.4764 N   0  3  0  0  0  0  0  0  0  0  0  0
  -24.6811  -24.8558   15.6265 N   0  3  0  0  0  0  0  0  0  0  0  0
  -33.8593  -18.2176   19.4953 O   0  0  0  0  0  0  0  0  0  0  0  0
  -25.3156  -27.2390   23.6656 O   0  0  0  0  0  0  0  0  0  0  0  0
  -25.3244  -28.7385   19.4578 O   0  0  0  0  0  0  0  0  0  0  0  0
  -22.8876  -24.9218   18.0381 O   0  0  0  0  0  0  0  0  0  0  0  0
  -25.8312  -11.5463   20.6397 O   0  0  0  0  0  0  0  0  0  0  0  0
  -29.0197  -22.9799   18.8441 O   0  0  0  0  0  0  0  0  0  0  0  0
  -24.5261  -21.4038   23.6320 O   0  0  0  0  0  0  0  0  0  1  0  0
  -33.0087  -26.7570   18.3698 F   0  0  0  0  0  0  0  0  0  0  0  0
  -29.2813  -24.4847   16.5399 F   0  0  0  0  0  0  0  0  0  0  0  0
  1  2  1  0  0  0  0
  1  5  2  0  0  0  0
  2  6  2  0  0  0  0
  3  8  2  0  0  0  0
  3 17  1  0  0  0  0
  4  9  1  0  0  0  0
  4 17  2  0  0  0  0
  5 19  1  0  0  0  0
  6 21  1  0  0  0  0
  7 10  2  0  0  0  0
  7 20  1  0  0  0  0
  8 25  1  0  0  0  0
  9 25  2  0  0  0  0
 10 26  1  0  0  0  0
 11 12  2  0  0  0  0
 11 27  1  0  0  0  0
 12 28  1  0  0  0  0
 13 22  1  0  0  0  0
 13 26  2  0  0  0  0
 14 23  1  0  0  0  0
 14 31  2  0  0  0  0
 15 28  2  0  0  0  0
 15 29  1  0  0  0  0
 16 24  1  0  0  0  0
 16 72  2  0  0  0  0
 17 30  1  0  0  0  0
 18 30  1  0  0  0  0
 18 32  2  0  0  0  0
 18 33  1  0  0  0  0
 19 21  2  0  0  0  0
 19 38  1  0  0  0  0
 20 22  2  0  0  0  0
 20 39  1  0  0  0  0
 21 57  1  0  0  0  0
 22 40  1  0  0  0  0
 23 24  2  0  0  0  0
 23 56  1  0  0  0  0
 24 66  1  0  0  0  0
 25 89  1  0  0  0  0
 26 90  1  0  0  0  0
 27 29  2  0  0  0  0
 27 89  1  0  0  0  0
 28 91  1  0  0  0  0
 29 92  1  0  0  0  0
 30 73  2  0  0  0  0
 31 72  1  0  0  0  0
 31 79  1  0  0  0  0
 32 74  1  0  0  0  0
 32 77  1  0  0  0  0
 33 78  1  0  0  0  0
 33 84  2  0  0  0  0
 34 58  1  0  0  0  0
 34 80  1  0  0  0  0
 34 85  2  0  0  0  0
 35 69  1  0  0  0  0
 35 75  1  0  0  0  0
 35 86  2  0  0  0  0
 36 70  1  0  0  0  0
 36 81  1  0  0  0  0
 36 87  2  0  0  0  0
 37 76  1  0  0  0  0
 37 79  1  0  0  0  0
 37 88  2  0  0  0  0
 38 41  1  0  0  0  0
 39 58  1  0  0  0  0
 40 75  1  0  0  0  0
 41 46  1  0  0  0  0
 42 43  1  0  0  0  0
 42 44  1  0  0  0  0
 43 47  1  0  0  0  0
 44 48  1  0  0  0  0
 45 49  1  0  0  0  0
 45 52  1  0  0  0  0
 46 57  1  0  0  0  0
 47 59  1  0  0  0  0
 48 59  1  0  0  0  0
 49 60  1  0  0  0  0
 50 54  1  0  0  0  0
 50 56  1  0  0  0  0
 51 55  1  0  0  0  0
 51 56  1  0  0  0  0
 52 76  1  0  0  0  0
 53 60  1  0  0  0  0
 53 76  1  0  0  0  0
 54 82  1  0  0  0  0
 55 82  1  0  0  0  0
 57 80  1  0  0  0  0
 58 75  1  0  0  0  0
 59 66  1  0  0  0  0
 60 74  1  0  0  0  0
 61 70  1  0  0  0  0
 62 71  1  0  0  0  0
 63 71  1  0  0  0  0
 64 71  1  0  0  0  0
 65 83  1  0  0  0  0
 67 68  1  0  0  0  0
 67 82  1  0  0  0  0
 68 90  1  0  0  0  0
 69 71  1  0  0  0  0
 69 81  1  0  0  0  0
 70 83  1  0  0  0  0
 73 74  1  0  0  0  0
M  CHG  2  82   1  83   1
M  ISO  4  37 100  68 101  79 100  90 101
M  END
> <Batch ID>
0125

> <Smiles>
CNC(C)C(=O)NC(C(=O)N1Cc2cc([101O:1][101CH2:1]CN3CCC(c4cc([100NH:0][100C:0](=O)N5CCCC(n6nc(-c7ccc(Oc8ccc(F)cc8F)cc7)c(C(N)=O)c6N)C5)ncc4CC4CCCCC4)CC3)ccc2CC1C(=O)NC1CCCc2ccccc21)C(C)(C)C

> <Shape>
0.221

> <Color>
0.060

> <Negative vol penalty>
0.000

$$$$

  -OEChem-04052320353D

 90100  0     1  0  0  0  0  0999 V2000
  -17.0569  -27.3613   23.8085 C   0  0  0  0  0  0  0  0  0  0  0  0
  -17.8154  -26.6928   22.8529 C   0  0  0  0  0  0  0  0  0  0  0  0
  -23.9500  -18.1570   23.0005 C   0  0  0  0  0  0  0  0  0  0  0  0
  -25.4019  -16.6493   24.2070 C   0  0  0  0  0  0  0  0  0  0  0  0
  -17.3553  -28.6839   24.1334 C   0  0  0  0  0  0  0  0  0  0  0  0
  -18.8722  -27.3471   22.2207 C   0  0  0  0  0  0  0  0  0  0  0  0
  -23.0356  -24.4791   21.9272 C   0  0  0  0  0  0  0  0  0  0  0  0
  -24.5705  -19.2453   23.6137 C   0  0  0  0  0  0  0  0  0  0  0  0
  -26.0225  -17.7376   24.8202 C   0  0  0  0  0  0  0  0  0  0  0  0
  -23.0630  -23.4957   20.9394 C   0  0  0  0  0  0  0  0  0  0  0  0
  -25.5324  -22.4057   25.1338 C   0  0  0  0  0  0  0  0  0  0  0  0
  -24.7178  -23.4213   25.6343 C   0  0  0  0  0  0  0  0  0  0  0  0
  -24.4068  -24.9382   19.5491 C   0  0  0  0  0  0  0  0  0  0  0  0
  -23.6437  -21.8345   27.1060 C   0  0  0  0  0  0  0  0  0  0  0  0
  -24.3657  -16.8589   23.2972 C   0  0  0  0  0  0  0  0  0  0  0  0
  -22.3641  -15.3800   22.7367 C   0  0  0  0  0  0  0  0  0  0  0  0
  -18.4223  -29.3516   23.5119 C   0  0  0  0  0  0  0  0  0  0  0  0
  -23.6855  -25.7058   21.7287 C   0  0  0  0  0  0  0  0  0  0  0  0
  -19.1843  -28.6803   22.5366 C   0  0  0  0  0  0  0  0  0  0  0  0
  -24.3883  -25.9345   20.5371 C   0  0  0  0  0  0  0  0  0  0  0  0
  -25.6068  -19.0357   24.5236 C   0  0  0  0  0  0  0  0  0  0  0  0
  -23.7462  -23.7262   19.7489 C   0  0  0  0  0  0  0  0  0  0  0  0
  -25.4027  -21.1045   25.6193 C   0  0  0  0  0  0  0  0  0  0  0  0
  -23.7735  -23.1357   26.6204 C   0  0  0  0  0  0  0  0  0  0  0  0
  -24.4584  -20.8189   26.6054 C   0  0  0  0  0  0  0  0  0  0  0  0
  -23.7247  -15.7343   22.6645 C   0  0  0  0  0  0  0  0  0  0  0  0
  -22.2637  -14.2449   21.9699 C   0  0  0  0  0  0  0  0  0  0  0  0
  -21.2873  -16.0198   23.4345 C   0  0  0  0  0  0  0  0  0  0  0  0
  -27.3127  -19.9568   18.9573 C   0  0  0  0  0  0  0  0  0  0  0  0
  -22.7515  -28.7402   21.5751 C   0  0  0  0  0  0  0  0  0  0  0  0
  -25.9424  -29.3091   21.4456 C   0  0  0  0  0  0  0  0  0  0  0  0
  -29.0633  -28.1521   20.6919 C   0  0  0  0  0  0  0  0  0  0  0  0
  -27.4617  -14.0142   20.1291 C   0  0  0  0  0  0  0  0  0  0  0  0
  -18.6770  -30.7964   23.8617 C   0  0  0  0  0  0  0  0  0  0  0  0
  -23.6690  -26.7460   22.8150 C   0  0  0  0  0  0  0  0  0  0  0  0
  -25.1193  -27.2267   20.2831 C   0  0  0  0  0  0  0  0  0  0  0  0
  -20.0486  -31.2980   23.4172 C   0  0  0  0  0  0  0  0  0  0  0  0
  -22.8773  -19.2421   18.4857 C   0  0  0  0  0  0  0  0  0  0  0  0
  -25.6538  -11.5757   22.0139 C   0  0  0  0  0  0  0  0  0  0  0  0
  -28.1349  -15.0611   16.7232 C   0  0  0  0  0  0  0  0  0  0  0  0
  -20.3310  -30.8757   21.9789 C   0  0  0  0  0  0  0  0  0  0  0  0
  -24.3622  -19.1566   18.8399 C   0  0  0  0  0  0  0  0  0  0  0  0
  -24.2523  -11.5783   21.4138 C   0  0  0  0  0  0  0  0  0  0  0  0
  -22.4957  -20.7191   18.5843 C   0  0  0  0  0  0  0  0  0  0  0  0
  -28.4512  -16.3660   17.4403 C   0  0  0  0  0  0  0  0  0  0  0  0
  -31.1141  -19.2348   20.3793 C   0  0  0  0  0  0  0  0  0  0  0  0
  -26.6995  -11.8085   20.9344 C   0  0  0  0  0  0  0  0  0  0  0  0
  -27.1068  -14.4182   17.6412 C   0  0  0  0  0  0  0  0  0  0  0  0
  -25.1049  -13.1908   19.6181 C   0  0  0  0  0  0  0  0  0  0  0  0
  -30.1918  -18.0302   20.5123 C   0  0  0  0  0  0  0  0  0  0  0  0
  -30.3867  -20.5278   20.7283 C   0  0  0  0  0  0  0  0  0  0  0  0
  -20.3541  -29.3481   21.8469 C   0  0  1  0  0  0  0  0  0  0  0  0
  -28.3550  -19.6094   19.9649 C   0  0  1  0  0  0  0  0  0  0  0  0
  -23.9333  -28.1560   22.2961 C   0  0  1  0  0  0  0  0  0  0  0  0
  -24.8804  -20.5840   18.6889 C   0  0  1  0  0  0  0  0  0  0  0  0
  -23.9614  -12.8505   20.6016 C   0  0  2  0  0  0  0  0  0  0  0  0
  -23.7052  -21.4123   19.2013 C   0  0  1  0  0  0  0  0  0  1  0  0
  -28.4313  -15.9684   18.9188 C   0  0  1  0  0  0  0  0  0  0  0  0
  -31.4706  -28.8598   20.6540 C   0  0  0  0  0  0  0  0  0  0  0  0
  -25.4242  -30.9274   18.9113 C   0  0  0  0  0  0  0  0  0  0  0  0
  -27.8738  -30.7969   18.4106 C   0  0  0  0  0  0  0  0  0  0  0  0
  -27.0849  -31.9470   20.4788 C   0  0  0  0  0  0  0  0  0  0  0  0
  -29.8299  -26.0586   22.6383 C   0  0  0  0  0  0  0  0  0  0  0  0
  -26.1714  -20.8275   19.4494 C   0  0  0  0  0  0  0  0  0  0  0  0
  -27.9820  -17.1182   19.8112 C   0  0  0  0  0  0  0  0  0  0  0  0
  -26.9636  -29.4255   20.3398 C   0  0  1  0  0  0  0  0  0  0  0  0
  -30.3685  -28.1973   21.4659 C   0  0  2  0  0  0  0  0  0  0  0  0
  -26.8213  -30.7505   19.5388 C   0  0  0  0  0  0  0  0  0  0  0  0
  -24.4374  -14.8924   21.9114 N   0  0  0  0  0  0  0  0  0  0  0  0
  -23.5213  -13.9978   21.5034 N   0  0  0  0  0  0  0  0  0  0  0  0
  -25.0685  -28.2151   21.3730 N   0  0  0  0  0  0  0  0  0  0  0  0
  -26.4513  -13.0429   20.1893 N   0  0  0  0  0  0  0  0  0  0  0  0
  -27.5262  -14.8147   18.9864 N   0  0  0  0  0  0  0  0  0  0  0  0
  -21.2233  -13.4441   21.6559 N   0  0  0  0  0  0  0  0  0  0  0  0
  -21.0183  -15.6266   24.7525 N   0  0  0  0  0  0  0  0  0  0  0  0
  -21.6054  -28.8168   22.3433 N   0  0  0  0  0  0  0  0  0  0  0  0
  -28.2678  -29.2440   20.9679 N   0  0  0  0  0  0  0  0  0  0  0  0
  -28.9585  -18.2536   19.6699 N   0  3  2  0  0  0  0  0  0  0  0  0
  -30.8092  -26.8183   21.8192 N   0  3  0  0  0  0  0  0  0  0  0  0
  -20.5741  -16.9020   22.8992 O   0  0  0  0  0  0  0  0  0  0  0  0
  -27.3911  -19.5515   17.7986 O   0  0  0  0  0  0  0  0  0  0  0  0
  -22.8710  -29.0965   20.4088 O   0  0  0  0  0  0  0  0  0  0  0  0
  -25.9255  -30.1537   22.3445 O   0  0  0  0  0  0  0  0  0  0  0  0
  -28.7797  -27.2413   19.9169 O   0  0  0  0  0  0  0  0  0  0  0  0
  -28.2765  -14.1537   21.0509 O   0  0  0  0  0  0  0  0  0  0  0  0
  -29.2555  -20.7145   19.8808 O   0  0  0  0  0  0  0  0  0  0  0  0
  -26.2127  -20.0974   25.1220 O   0  0  0  0  0  0  0  0  0  0  0  0
  -23.7742  -22.7594   18.7738 O   0  0  0  0  0  0  0  0  0  1  0  0
  -22.9923  -24.1114   27.1020 F   0  0  0  0  0  0  0  0  0  0  0  0
  -24.3299  -19.5710   27.0766 F   0  0  0  0  0  0  0  0  0  0  0  0
  1  2  1  0  0  0  0
  1  5  2  0  0  0  0
  2  6  2  0  0  0  0
  3  8  2  0  0  0  0
  3 15  1  0  0  0  0
  4  9  1  0  0  0  0
  4 15  2  0  0  0  0
  5 17  1  0  0  0  0
  6 19  1  0  0  0  0
  7 10  2  0  0  0  0
  7 18  1  0  0  0  0
  8 21  1  0  0  0  0
  9 21  2  0  0  0  0
 10 22  1  0  0  0  0
 11 12  2  0  0  0  0
 11 23  1  0  0  0  0
 12 24  1  0  0  0  0
 13 20  1  0  0  0  0
 13 22  2  0  0  0  0
 14 24  2  0  0  0  0
 14 25  1  0  0  0  0
 15 26  1  0  0  0  0
 16 26  1  0  0  0  0
 16 27  2  0  0  0  0
 16 28  1  0  0  0  0
 17 19  2  0  0  0  0
 17 34  1  0  0  0  0
 18 20  2  0  0  0  0
 18 35  1  0  0  0  0
 19 52  1  0  0  0  0
 20 36  1  0  0  0  0
 21 87  1  0  0  0  0
 22 88  1  0  0  0  0
 23 25  2  0  0  0  0
 23 87  1  0  0  0  0
 24 89  1  0  0  0  0
 25 90  1  0  0  0  0
 26 69  2  0  0  0  0
 27 70  1  0  0  0  0
 27 74  1  0  0  0  0
 28 75  1  0  0  0  0
 28 80  2  0  0  0  0
 29 53  1  0  0  0  0
 29 64  1  0  0  0  0
 29 81  2  0  0  0  0
 30 54  1  0  0  0  0
 30 76  1  0  0  0  0
 30 82  2  0  0  0  0
 31 66  1  0  0  0  0
 31 71  1  0  0  0  0
 31 83  2  0  0  0  0
 32 67  1  0  0  0  0
 32 77  1  0  0  0  0
 32 84  2  0  0  0  0
 33 72  1  0  0  0  0
 33 73  1  0  0  0  0
 33 85  2  0  0  0  0
 34 37  1  0  0  0  0
 35 54  1  0  0  0  0
 36 71  1  0  0  0  0
 37 41  1  0  0  0  0
 38 42  1  0  0  0  0
 38 44  1  0  0  0  0
 39 43  1  0  0  0  0
 39 47  1  0  0  0  0
 40 45  1  0  0  0  0
 40 48  1  0  0  0  0
 41 52  1  0  0  0  0
 42 55  1  0  0  0  0
 43 56  1  0  0  0  0
 44 57  1  0  0  0  0
 45 58  1  0  0  0  0
 46 50  1  0  0  0  0
 46 51  1  0  0  0  0
 47 72  1  0  0  0  0
 48 73  1  0  0  0  0
 49 56  1  0  0  0  0
 49 72  1  0  0  0  0
 50 78  1  0  0  0  0
 51 86  1  0  0  0  0
 52 76  1  0  0  0  0
 53 78  1  0  0  0  0
 53 86  1  0  0  0  0
 54 71  1  0  0  0  0
 55 57  1  0  0  0  0
 55 64  1  0  0  0  0
 56 70  1  0  0  0  0
 57 88  1  0  0  0  0
 58 65  1  0  0  0  0
 58 73  1  0  0  0  0
 59 67  1  0  0  0  0
 60 68  1  0  0  0  0
 61 68  1  0  0  0  0
 62 68  1  0  0  0  0
 63 79  1  0  0  0  0
 65 78  1  0  0  0  0
 66 68  1  0  0  0  0
 66 77  1  0  0  0  0
 67 79  1  0  0  0  0
 69 70  1  0  0  0  0
M  CHG  2  78   1  79   1
M  ISO  4  33 100  57 101  73 100  88 101
M  END
> <Batch ID>
0125

> <Smiles>
CNC(C)C(=O)NC(C(=O)N1Cc2cc([101O:1][101CH:1]3CCCC3CC(=O)C3OCCCN3CC3CCC[100N:0]3[100C:0](=O)N3CCCC(n4nc(-c5ccc(Oc6ccc(F)cc6F)cc5)c(C(N)=O)c4N)C3)ccc2CC1C(=O)NC1CCCc2ccccc21)C(C)(C)C

> <Shape>
0.216

> <Color>
0.070

> <Negative vol penalty>
0.000

$$$$

  -OEChem-04052320353D

 81 89  0     1  0  0  0  0  0999 V2000
  -25.9048   -6.9630   23.0526 C   0  0  0  0  0  0  0  0  0  0  0  0
  -26.6941   -8.0531   22.7004 C   0  0  0  0  0  0  0  0  0  0  0  0
  -21.4994  -30.1621   20.9884 C   0  0  0  0  0  0  0  0  0  0  0  0
  -22.5050  -28.9466   22.8183 C   0  0  0  0  0  0  0  0  0  0  0  0
  -24.5699   -6.9124   22.6532 C   0  0  0  0  0  0  0  0  0  0  0  0
  -26.1492   -9.0928   21.9477 C   0  0  0  0  0  0  0  0  0  0  0  0
  -27.5101  -15.0490   22.3698 C   0  0  0  0  0  0  0  0  0  0  0  0
  -30.7400  -23.4308   19.6692 C   0  0  0  0  0  0  0  0  0  0  0  0
  -28.8009  -23.7377   21.0772 C   0  0  0  0  0  0  0  0  0  0  0  0
  -20.2388  -29.7155   21.3846 C   0  0  0  0  0  0  0  0  0  0  0  0
  -21.2443  -28.5001   23.2145 C   0  0  0  0  0  0  0  0  0  0  0  0
  -28.3530  -15.8735   21.6259 C   0  0  0  0  0  0  0  0  0  0  0  0
  -30.4441  -22.0723   19.5577 C   0  0  0  0  0  0  0  0  0  0  0  0
  -28.5049  -22.3792   20.9657 C   0  0  0  0  0  0  0  0  0  0  0  0
  -19.0299  -26.1280   22.2655 C   0  0  0  0  0  0  0  0  0  0  0  0
  -18.8943  -24.7797   22.5960 C   0  0  0  0  0  0  0  0  0  0  0  0
  -26.4719  -16.5840   20.2933 C   0  0  0  0  0  0  0  0  0  0  0  0
  -18.1925  -25.3963   24.8241 C   0  0  0  0  0  0  0  0  0  0  0  0
  -22.6326  -29.7776   21.7053 C   0  0  0  0  0  0  0  0  0  0  0  0
  -24.5922  -31.4108   21.7144 C   0  0  0  0  0  0  0  0  0  0  0  0
  -24.0058   -7.9565   21.9035 C   0  0  0  0  0  0  0  0  0  0  0  0
  -26.1413  -14.9773   22.0735 C   0  0  0  0  0  0  0  0  0  0  0  0
  -24.8059   -9.0555   21.5368 C   0  0  0  0  0  0  0  0  0  0  0  0
  -25.6133  -15.7597   21.0365 C   0  0  0  0  0  0  0  0  0  0  0  0
  -29.9184  -24.2635   20.4290 C   0  0  0  0  0  0  0  0  0  0  0  0
  -20.1112  -28.8845   22.4976 C   0  0  0  0  0  0  0  0  0  0  0  0
  -29.3265  -21.5465   20.2060 C   0  0  0  0  0  0  0  0  0  0  0  0
  -27.8345  -16.6390   20.5856 C   0  0  0  0  0  0  0  0  0  0  0  0
  -18.7468  -27.1106   23.2144 C   0  0  0  0  0  0  0  0  0  0  0  0
  -18.4756  -24.4138   23.8752 C   0  0  0  0  0  0  0  0  0  0  0  0
  -18.3281  -26.7447   24.4936 C   0  0  0  0  0  0  0  0  0  0  0  0
  -23.9351  -30.2381   21.2962 C   0  0  0  0  0  0  0  0  0  0  0  0
  -25.7906  -31.3907   21.0436 C   0  0  0  0  0  0  0  0  0  0  0  0
  -24.1581  -32.4274   22.6275 C   0  0  0  0  0  0  0  0  0  0  0  0
  -24.1692  -12.6719   21.1253 C   0  0  0  0  0  0  0  0  0  0  0  0
  -21.9108  -14.9587   21.5638 C   0  0  0  0  0  0  0  0  0  0  0  0
  -21.1458  -18.2803   21.7335 C   0  0  0  0  0  0  0  0  0  0  0  0
  -29.0951  -26.9655   18.7310 C   0  0  0  0  0  0  0  0  0  0  0  0
  -22.5711   -7.8350   21.4545 C   0  0  0  0  0  0  0  0  0  0  0  0
  -25.2408  -14.1033   22.9026 C   0  0  0  0  0  0  0  0  0  0  0  0
  -24.1475  -15.7341   20.6913 C   0  0  0  0  0  0  0  0  0  0  0  0
  -21.9682   -9.1540   20.9779 C   0  0  0  0  0  0  0  0  0  0  0  0
  -27.7936  -29.7933   17.0029 C   0  0  0  0  0  0  0  0  0  0  0  0
  -22.9289   -9.8697   20.0337 C   0  0  0  0  0  0  0  0  0  0  0  0
  -26.7164  -30.3338   17.9450 C   0  0  0  0  0  0  0  0  0  0  0  0
  -27.8524  -28.2676   17.0291 C   0  0  0  0  0  0  0  0  0  0  0  0
  -26.9294  -28.2171   19.3137 C   0  0  0  0  0  0  0  0  0  0  0  0
  -24.2444  -10.2145   20.7422 C   0  0  1  0  0  0  0  0  0  0  0  0
  -23.9526  -13.7183   22.1816 C   0  0  1  0  0  0  0  0  0  0  0  0
  -26.8698  -29.7534   19.3638 C   0  0  2  0  0  0  0  0  0  0  0  0
  -19.2093  -19.8413   22.0662 C   0  0  0  0  0  0  0  0  0  0  0  0
  -20.9858  -14.4161   18.7072 C   0  0  0  0  0  0  0  0  0  0  0  0
  -19.7392  -16.5864   18.7728 C   0  0  0  0  0  0  0  0  0  0  0  0
  -19.1362  -14.7554   20.3560 C   0  0  0  0  0  0  0  0  0  0  0  0
  -22.3510  -19.4410   24.1746 C   0  0  0  0  0  0  0  0  0  0  0  0
  -30.2343  -25.7161   20.5477 C   0  0  0  0  0  0  0  0  0  0  0  0
  -30.1360  -19.3292   19.9153 C   0  0  0  0  0  0  0  0  0  0  0  0
  -29.7955  -17.9830   20.5249 C   0  0  0  0  0  0  0  0  0  1  0  0
  -21.2924  -16.0303   20.6988 C   0  0  1  0  0  0  0  0  0  0  0  0
  -20.3379  -19.0777   22.7414 C   0  0  2  0  0  0  0  0  0  0  0  0
  -20.3164  -15.4463   19.6387 C   0  0  0  0  0  0  0  0  0  0  0  0
  -24.6562  -29.5250   20.4270 N   0  0  0  0  0  0  0  0  0  0  0  0
  -25.7788  -30.2518   20.2934 N   0  0  0  0  0  0  0  0  0  0  0  0
  -23.3088  -14.8590   21.5269 N   0  0  0  0  0  0  0  0  0  0  0  0
  -27.9999  -27.7815   18.4031 N   0  0  0  0  0  0  0  0  0  0  0  0
  -26.8427  -32.2365   21.0281 N   0  0  0  0  0  0  0  0  0  0  0  0
  -22.8992  -32.2923   23.2286 N   0  0  0  0  0  0  0  0  0  0  0  0
  -24.0725  -11.3743   21.5906 N   0  0  0  0  0  0  0  0  0  0  0  0
  -20.6790  -16.9886   21.6120 N   0  0  0  0  0  0  0  0  0  0  0  0
  -29.1630  -26.5538   20.0564 N   0  0  0  0  0  0  0  0  0  0  0  0
  -21.2117  -20.0572   23.4471 N   0  3  0  0  0  0  0  0  0  0  0  0
  -24.8587  -33.4343   22.8898 O   0  0  0  0  0  0  0  0  0  0  0  0
  -24.4049  -13.0161   19.9731 O   0  0  0  0  0  0  0  0  0  0  0  0
  -21.1808  -14.2414   22.2524 O   0  0  0  0  0  0  0  0  0  0  0  0
  -22.0937  -18.7568   21.1130 O   0  0  0  0  0  0  0  0  0  0  0  0
  -29.9521  -26.6332   17.9051 O   0  0  0  0  0  0  0  0  0  0  0  0
  -18.8812  -28.4488   22.8846 O   0  0  0  0  0  0  0  0  0  0  0  0
  -29.0353  -20.2123   20.0953 O   0  0  0  0  0  0  0  0  0  0  0  0
  -28.6551  -17.4442   19.8575 O   0  0  0  0  0  0  0  0  0  1  0  0
  -18.3439  -23.1190   24.1919 F   0  0  0  0  0  0  0  0  0  0  0  0
  -18.0536  -27.6841   25.4090 F   0  0  0  0  0  0  0  0  0  0  0  0
  1  2  1  0  0  0  0
  1  5  2  0  0  0  0
  2  6  2  0  0  0  0
  3 10  2  0  0  0  0
  3 19  1  0  0  0  0
  4 11  1  0  0  0  0
  4 19  2  0  0  0  0
  5 21  1  0  0  0  0
  6 23  1  0  0  0  0
  7 12  2  0  0  0  0
  7 22  1  0  0  0  0
  8 13  2  0  0  0  0
  8 25  1  0  0  0  0
  9 14  1  0  0  0  0
  9 25  2  0  0  0  0
 10 26  1  0  0  0  0
 11 26  2  0  0  0  0
 12 28  1  0  0  0  0
 13 27  1  0  0  0  0
 14 27  2  0  0  0  0
 15 16  2  0  0  0  0
 15 29  1  0  0  0  0
 16 30  1  0  0  0  0
 17 24  1  0  0  0  0
 17 28  2  0  0  0  0
 18 30  2  0  0  0  0
 18 31  1  0  0  0  0
 19 32  1  0  0  0  0
 20 32  1  0  0  0  0
 20 33  2  0  0  0  0
 20 34  1  0  0  0  0
 21 23  2  0  0  0  0
 21 39  1  0  0  0  0
 22 24  2  0  0  0  0
 22 40  1  0  0  0  0
 23 48  1  0  0  0  0
 24 41  1  0  0  0  0
 25 56  1  0  0  0  0
 26 77  1  0  0  0  0
 27 78  1  0  0  0  0
 28 79  1  0  0  0  0
 29 31  2  0  0  0  0
 29 77  1  0  0  0  0
 30 80  1  0  0  0  0
 31 81  1  0  0  0  0
 32 62  2  0  0  0  0
 33 63  1  0  0  0  0
 33 66  1  0  0  0  0
 34 67  1  0  0  0  0
 34 72  2  0  0  0  0
 35 49  1  0  0  0  0
 35 68  1  0  0  0  0
 35 73  2  0  0  0  0
 36 59  1  0  0  0  0
 36 64  1  0  0  0  0
 36 74  2  0  0  0  0
 37 60  1  0  0  0  0
 37 69  1  0  0  0  0
 37 75  2  0  0  0  0
 38 65  1  0  0  0  0
 38 70  1  0  0  0  0
 38 76  2  0  0  0  0
 39 42  1  0  0  0  0
 40 49  1  0  0  0  0
 41 64  1  0  0  0  0
 42 44  1  0  0  0  0
 43 45  1  0  0  0  0
 43 46  1  0  0  0  0
 44 48  1  0  0  0  0
 45 50  1  0  0  0  0
 46 65  1  0  0  0  0
 47 50  1  0  0  0  0
 47 65  1  0  0  0  0
 48 68  1  0  0  0  0
 49 64  1  0  0  0  0
 50 63  1  0  0  0  0
 51 60  1  0  0  0  0
 52 61  1  0  0  0  0
 53 61  1  0  0  0  0
 54 61  1  0  0  0  0
 55 71  1  0  0  0  0
 56 70  1  0  0  0  0
 57 58  1  0  0  0  0
 57 78  1  0  0  0  0
 58 79  1  0  0  0  0
 59 61  1  0  0  0  0
 59 69  1  0  0  0  0
 60 71  1  0  0  0  0
 62 63  1  0  0  0  0
M  CHG  1  71   1
M  ISO  4  38 100  58 101  70 100  79 101
M  END
> <Batch ID>
0125

> <Smiles>
CNC(C)C(=O)NC(C(=O)N1Cc2cc([101O:1][101CH2:1]COc3ccc(C[100NH:0][100C:0](=O)N4CCCC(n5nc(-c6ccc(Oc7ccc(F)cc7F)cc6)c(C(N)=O)c5N)C4)cc3)ccc2CC1C(=O)NC1CCCc2ccccc21)C(C)(C)C

> <Shape>
0.269

> <Color>
0.051

> <Negative vol penalty>
0.000

$$$$

  -OEChem-04052320353D

 85 93  0     1  0  0  0  0  0999 V2000
  -27.6610  -32.7833   21.8432 C   0  0  0  0  0  0  0  0  0  0  0  0
  -27.6532  -31.3923   21.8247 C   0  0  0  0  0  0  0  0  0  0  0  0
  -22.9811  -10.0238   19.9807 C   0  0  0  0  0  0  0  0  0  0  0  0
  -23.8098   -9.9454   22.2488 C   0  0  0  0  0  0  0  0  0  0  0  0
  -26.5609  -33.4789   22.3429 C   0  0  0  0  0  0  0  0  0  0  0  0
  -26.5455  -30.6960   22.3071 C   0  0  0  0  0  0  0  0  0  0  0  0
  -25.1632  -26.8941   19.2607 C   0  0  0  0  0  0  0  0  0  0  0  0
  -22.1978   -8.8965   20.2280 C   0  0  0  0  0  0  0  0  0  0  0  0
  -23.0265   -8.8181   22.4960 C   0  0  0  0  0  0  0  0  0  0  0  0
  -25.9171  -25.7229   19.3218 C   0  0  0  0  0  0  0  0  0  0  0  0
  -19.7877   -8.1390   23.1813 C   0  0  0  0  0  0  0  0  0  0  0  0
  -19.0656   -8.1024   24.3741 C   0  0  0  0  0  0  0  0  0  0  0  0
  -24.2324  -24.7191   20.7266 C   0  0  0  0  0  0  0  0  0  0  0  0
  -27.6293  -19.4250   19.7489 C   0  0  0  0  0  0  0  0  0  0  0  0
  -20.2471   -6.0989   25.0278 C   0  0  0  0  0  0  0  0  0  0  0  0
  -28.2027  -20.0375   21.9744 C   0  0  0  0  0  0  0  0  0  0  0  0
  -23.7872  -10.5483   20.9911 C   0  0  0  0  0  0  0  0  0  0  0  0
  -24.2300  -13.0594   20.9170 C   0  0  0  0  0  0  0  0  0  0  0  0
  -25.4352  -32.7909   22.8227 C   0  0  0  0  0  0  0  0  0  0  0  0
  -23.9414  -26.9906   19.9421 C   0  0  0  0  0  0  0  0  0  0  0  0
  -25.4298  -31.3830   22.8149 C   0  0  0  0  0  0  0  0  0  0  0  0
  -23.4637  -25.8917   20.6704 C   0  0  0  0  0  0  0  0  0  0  0  0
  -26.7232  -20.4794   19.7246 C   0  0  0  0  0  0  0  0  0  0  0  0
  -28.3870  -19.1931   20.8914 C   0  0  0  0  0  0  0  0  0  0  0  0
  -22.2205   -8.2936   21.4856 C   0  0  0  0  0  0  0  0  0  0  0  0
  -25.4531  -24.6362   20.0572 C   0  0  0  0  0  0  0  0  0  0  0  0
  -20.7394   -7.1555   22.9116 C   0  0  0  0  0  0  0  0  0  0  0  0
  -19.2953   -7.0823   25.2974 C   0  0  0  0  0  0  0  0  0  0  0  0
  -20.9691   -6.1355   23.8349 C   0  0  0  0  0  0  0  0  0  0  0  0
  -24.5970  -11.7124   20.7362 C   0  0  0  0  0  0  0  0  0  0  0  0
  -26.6132  -21.2662   20.8598 C   0  0  0  0  0  0  0  0  0  0  0  0
  -25.3409  -13.7720   20.5366 C   0  0  0  0  0  0  0  0  0  0  0  0
  -22.9954  -13.6167   21.3869 C   0  0  0  0  0  0  0  0  0  0  0  0
  -22.8151  -28.8279   22.2786 C   0  0  0  0  0  0  0  0  0  0  0  0
  -20.0338  -27.2967   21.6137 C   0  0  0  0  0  0  0  0  0  0  0  0
  -18.4767  -24.5470   20.3246 C   0  0  0  0  0  0  0  0  0  0  0  0
  -30.8655  -14.5610   20.5760 C   0  0  0  0  0  0  0  0  0  0  0  0
  -24.2891  -33.5854   23.3969 C   0  0  0  0  0  0  0  0  0  0  0  0
  -23.1274  -28.2516   19.8442 C   0  0  0  0  0  0  0  0  0  0  0  0
  -22.1487  -25.9372   21.4032 C   0  0  0  0  0  0  0  0  0  0  0  0
  -23.0015  -32.7786   23.5432 C   0  0  0  0  0  0  0  0  0  0  0  0
  -29.5577  -12.2822   18.1732 C   0  0  0  0  0  0  0  0  0  0  0  0
  -23.2903  -31.4234   24.1811 C   0  0  0  0  0  0  0  0  0  0  0  0
  -28.1231  -12.0374   18.6442 C   0  0  0  0  0  0  0  0  0  0  0  0
  -30.5193  -12.4369   19.3495 C   0  0  0  0  0  0  0  0  0  0  0  0
  -28.6926  -13.2121   20.8109 C   0  0  0  0  0  0  0  0  0  0  0  0
  -24.2367  -30.5924   23.3064 C   0  0  1  0  0  0  0  0  0  0  0  0
  -22.1437  -28.4188   20.9982 C   0  0  1  0  0  0  0  0  0  0  0  0
  -27.6767  -13.1055   19.6607 C   0  0  2  0  0  0  0  0  0  0  0  0
  -24.9741  -19.5563   18.1618 C   0  0  0  0  0  0  0  0  0  0  0  0
  -26.7745  -21.0835   17.2778 C   0  0  0  0  0  0  0  0  0  0  0  0
  -16.1965  -23.5661   19.9561 C   0  0  0  0  0  0  0  0  0  0  0  0
  -31.9483  -16.3750   23.0598 C   0  0  0  0  0  0  0  0  0  0  0  0
  -19.8672  -26.5776   24.5743 C   0  0  0  0  0  0  0  0  0  0  0  0
  -18.1503  -24.8526   23.9871 C   0  0  0  0  0  0  0  0  0  0  0  0
  -17.6946  -27.2648   23.5438 C   0  0  0  0  0  0  0  0  0  0  0  0
  -18.8456  -24.4971   17.3886 C   0  0  0  0  0  0  0  0  0  0  0  0
  -25.6518  -22.4177   20.8908 C   0  0  0  0  0  0  0  0  0  1  0  0
  -30.1130  -17.8572   22.1006 C   0  0  0  0  0  0  0  0  0  0  0  0
  -25.9085  -20.7332   18.5037 C   0  0  0  0  0  0  0  0  0  0  0  0
  -19.3659  -26.0335   22.1007 C   0  0  1  0  0  0  0  0  0  0  0  0
  -17.3135  -24.4081   19.3592 C   0  0  2  0  0  0  0  0  0  0  0  0
  -31.0583  -16.6772   21.8581 C   0  0  2  0  0  0  0  0  0  0  0  0
  -18.7952  -26.1816   23.5394 C   0  0  0  0  0  0  0  0  0  0  0  0
  -27.3322  -21.0718   21.9881 N   0  0  0  0  0  0  0  0  0  0  0  0
  -25.8435  -11.5748   20.2765 N   0  0  0  0  0  0  0  0  0  0  0  0
  -26.2694  -12.8446   20.1652 N   0  0  0  0  0  0  0  0  0  0  0  0
  -21.3923  -27.1945   21.2823 N   0  0  0  0  0  0  0  0  0  0  0  0
  -30.0391  -13.4658   20.2750 N   0  0  0  0  0  0  0  0  0  0  0  0
  -25.6042  -15.0951   20.4869 N   0  0  0  0  0  0  0  0  0  0  0  0
  -21.9572  -12.7420   21.7353 N   0  0  0  0  0  0  0  0  0  0  0  0
  -29.3099  -18.1359   20.9464 N   0  0  0  0  0  0  0  0  0  0  0  0
  -23.5177  -30.0146   22.1913 N   0  0  0  0  0  0  0  0  0  0  0  0
  -18.3680  -25.6855   21.0949 N   0  0  0  0  0  0  0  0  0  0  0  0
  -30.3314  -15.4934   21.4570 N   0  0  0  0  0  0  0  0  0  0  0  0
  -17.7645  -23.7621   18.0943 N   0  3  0  0  0  0  0  0  0  0  0  0
  -22.8124  -14.8543   21.4792 O   0  0  0  0  0  0  0  0  0  0  0  0
  -22.7028  -28.1201   23.2726 O   0  0  0  0  0  0  0  0  0  0  0  0
  -19.3726  -28.3342   21.5236 O   0  0  0  0  0  0  0  0  0  0  0  0
  -19.3885  -23.7257   20.3916 O   0  0  0  0  0  0  0  0  0  0  0  0
  -31.9935  -14.7006   20.0911 O   0  0  0  0  0  0  0  0  0  0  0  0
  -21.4561   -7.1937   21.7273 O   0  0  0  0  0  0  0  0  0  0  0  0
  -26.1873  -23.4920   20.1191 O   0  0  0  0  0  0  0  0  0  1  0  0
  -18.6029   -7.0482   26.4435 F   0  0  0  0  0  0  0  0  0  0  0  0
  -21.8830   -5.1885   23.5820 F   0  0  0  0  0  0  0  0  0  0  0  0
  1  2  1  0  0  0  0
  1  5  2  0  0  0  0
  2  6  2  0  0  0  0
  3  8  2  0  0  0  0
  3 17  1  0  0  0  0
  4  9  1  0  0  0  0
  4 17  2  0  0  0  0
  5 19  1  0  0  0  0
  6 21  1  0  0  0  0
  7 10  2  0  0  0  0
  7 20  1  0  0  0  0
  8 25  1  0  0  0  0
  9 25  2  0  0  0  0
 10 26  1  0  0  0  0
 11 12  2  0  0  0  0
 11 27  1  0  0  0  0
 12 28  1  0  0  0  0
 13 22  1  0  0  0  0
 13 26  2  0  0  0  0
 14 23  1  0  0  0  0
 14 24  2  0  0  0  0
 15 28  2  0  0  0  0
 15 29  1  0  0  0  0
 16 24  1  0  0  0  0
 16 65  2  0  0  0  0
 17 30  1  0  0  0  0
 18 30  1  0  0  0  0
 18 32  2  0  0  0  0
 18 33  1  0  0  0  0
 19 21  2  0  0  0  0
 19 38  1  0  0  0  0
 20 22  2  0  0  0  0
 20 39  1  0  0  0  0
 21 47  1  0  0  0  0
 22 40  1  0  0  0  0
 23 31  2  0  0  0  0
 23 60  1  0  0  0  0
 24 72  1  0  0  0  0
 25 82  1  0  0  0  0
 26 83  1  0  0  0  0
 27 29  2  0  0  0  0
 27 82  1  0  0  0  0
 28 84  1  0  0  0  0
 29 85  1  0  0  0  0
 30 66  2  0  0  0  0
 31 58  1  0  0  0  0
 31 65  1  0  0  0  0
 32 67  1  0  0  0  0
 32 70  1  0  0  0  0
 33 71  1  0  0  0  0
 33 77  2  0  0  0  0
 34 48  1  0  0  0  0
 34 73  1  0  0  0  0
 34 78  2  0  0  0  0
 35 61  1  0  0  0  0
 35 68  1  0  0  0  0
 35 79  2  0  0  0  0
 36 62  1  0  0  0  0
 36 74  1  0  0  0  0
 36 80  2  0  0  0  0
 37 69  1  0  0  0  0
 37 75  1  0  0  0  0
 37 81  2  0  0  0  0
 38 41  1  0  0  0  0
 39 48  1  0  0  0  0
 40 68  1  0  0  0  0
 41 43  1  0  0  0  0
 42 44  1  0  0  0  0
 42 45  1  0  0  0  0
 43 47  1  0  0  0  0
 44 49  1  0  0  0  0
 45 69  1  0  0  0  0
 46 49  1  0  0  0  0
 46 69  1  0  0  0  0
 47 73  1  0  0  0  0
 48 68  1  0  0  0  0
 49 67  1  0  0  0  0
 50 60  1  0  0  0  0
 51 60  1  0  0  0  0
 52 62  1  0  0  0  0
 53 63  1  0  0  0  0
 54 64  1  0  0  0  0
 55 64  1  0  0  0  0
 56 64  1  0  0  0  0
 57 76  1  0  0  0  0
 58 83  1  0  0  0  0
 59 63  1  0  0  0  0
 59 72  1  0  0  0  0
 61 64  1  0  0  0  0
 61 74  1  0  0  0  0
 62 76  1  0  0  0  0
 63 75  1  0  0  0  0
 66 67  1  0  0  0  0
M  CHG  1  76   1
M  ISO  4  37 100  58 101  75 100  83 101
M  END
> <Batch ID>
0125

> <Smiles>
CNC(C)C(=O)NC(C(=O)N1Cc2cc([101O:1][101CH2:1]c3ncc(NCC(C)[100NH:0][100C:0](=O)N4CCCC(n5nc(-c6ccc(Oc7ccc(F)cc7F)cc6)c(C(N)=O)c5N)C4)cc3C(C)C)ccc2CC1C(=O)NC1CCCc2ccccc21)C(C)(C)C

> <Shape>
0.341

> <Color>
0.191

> <Negative vol penalty>
0.000

$$$$

  -OEChem-04052320353D

 82 90  0     1  0  0  0  0  0999 V2000
  -17.3654  -27.2552   21.9437 C   0  0  0  0  0  0  0  0  0  0  0  0
  -18.4687  -26.4458   21.6931 C   0  0  0  0  0  0  0  0  0  0  0  0
  -23.1628  -10.3935   22.2099 C   0  0  0  0  0  0  0  0  0  0  0  0
  -25.0622  -10.4633   23.7014 C   0  0  0  0  0  0  0  0  0  0  0  0
  -17.5492  -28.5740   22.3571 C   0  0  0  0  0  0  0  0  0  0  0  0
  -19.7567  -26.9551   21.8547 C   0  0  0  0  0  0  0  0  0  0  0  0
  -24.6974  -23.9164   23.8198 C   0  0  0  0  0  0  0  0  0  0  0  0
  -22.6015   -9.3694   22.9726 C   0  0  0  0  0  0  0  0  0  0  0  0
  -24.5008   -9.4392   24.4641 C   0  0  0  0  0  0  0  0  0  0  0  0
  -25.7617  -23.3200   23.1450 C   0  0  0  0  0  0  0  0  0  0  0  0
  -23.0017   -6.0336   23.3424 C   0  0  0  0  0  0  0  0  0  0  0  0
  -22.4650   -4.9401   22.6630 C   0  0  0  0  0  0  0  0  0  0  0  0
  -27.0803  -25.3127   23.4758 C   0  0  0  0  0  0  0  0  0  0  0  0
  -20.3027   -5.3938   23.6405 C   0  0  0  0  0  0  0  0  0  0  0  0
  -24.3932  -10.9405   22.5743 C   0  0  0  0  0  0  0  0  0  0  0  0
  -24.4196  -13.2653   21.5244 C   0  0  0  0  0  0  0  0  0  0  0  0
  -18.8401  -29.0968   22.5332 C   0  0  0  0  0  0  0  0  0  0  0  0
  -24.8130  -25.2217   24.3190 C   0  0  0  0  0  0  0  0  0  0  0  0
  -19.9580  -28.2825   22.2696 C   0  0  0  0  0  0  0  0  0  0  0  0
  -26.0169  -25.9225   24.1588 C   0  0  0  0  0  0  0  0  0  0  0  0
  -23.2705   -8.8923   24.0997 C   0  0  0  0  0  0  0  0  0  0  0  0
  -26.9523  -24.0192   22.9703 C   0  0  0  0  0  0  0  0  0  0  0  0
  -22.1888   -6.8073   24.1711 C   0  0  0  0  0  0  0  0  0  0  0  0
  -21.1156   -4.6201   22.8120 C   0  0  0  0  0  0  0  0  0  0  0  0
  -20.8394   -6.4873   24.3201 C   0  0  0  0  0  0  0  0  0  0  0  0
  -24.9738  -11.9980   21.7865 C   0  0  0  0  0  0  0  0  0  0  0  0
  -25.3534  -13.8920   20.7360 C   0  0  0  0  0  0  0  0  0  0  0  0
  -23.1723  -13.8259   21.9553 C   0  0  0  0  0  0  0  0  0  0  0  0
  -23.3210  -27.9740   23.7689 C   0  0  0  0  0  0  0  0  0  0  0  0
  -25.1464  -29.0095   26.2424 C   0  0  0  0  0  0  0  0  0  0  0  0
  -27.9694  -28.6225   28.1205 C   0  0  0  0  0  0  0  0  0  0  0  0
  -31.2643  -13.1967   20.0811 C   0  0  0  0  0  0  0  0  0  0  0  0
  -18.9890  -30.5426   22.9360 C   0  0  0  0  0  0  0  0  0  0  0  0
  -23.6650  -25.8409   25.0680 C   0  0  0  0  0  0  0  0  0  0  0  0
  -26.1989  -27.3187   24.6935 C   0  0  0  0  0  0  0  0  0  0  0  0
  -20.3852  -30.8924   23.4447 C   0  0  0  0  0  0  0  0  0  0  0  0
  -28.7857  -12.9584   17.5362 C   0  0  0  0  0  0  0  0  0  0  0  0
  -21.4508  -30.3215   22.5145 C   0  0  0  0  0  0  0  0  0  0  0  0
  -29.5569  -20.0796   21.6945 C   0  0  0  0  0  0  0  0  0  0  0  0
  -28.5081  -20.1090   23.9957 C   0  0  0  0  0  0  0  0  0  0  0  0
  -27.4777  -12.7996   18.3133 C   0  0  0  0  0  0  0  0  0  0  0  0
  -29.3047  -21.5787   21.5645 C   0  0  0  0  0  0  0  0  0  0  0  0
  -28.2583  -21.6079   23.8590 C   0  0  0  0  0  0  0  0  0  0  0  0
  -29.9412  -12.2327   18.2219 C   0  0  0  0  0  0  0  0  0  0  0  0
  -28.8355  -12.4314   20.4155 C   0  0  0  0  0  0  0  0  0  0  0  0
  -21.3709  -28.7912   22.4574 C   0  0  1  0  0  0  0  0  0  0  0  0
  -23.7155  -27.3656   25.0849 C   0  0  1  0  0  0  0  0  0  0  0  0
  -29.7158  -19.6585   23.1621 C   0  0  0  0  0  0  0  0  0  0  0  0
  -27.6530  -13.1927   19.7925 C   0  0  2  0  0  0  0  0  0  0  0  0
  -28.1053  -22.0234   22.3973 C   0  0  0  0  0  0  0  0  0  1  0  0
  -29.2081  -29.6448   30.0487 C   0  0  0  0  0  0  0  0  0  0  0  0
  -26.1041  -31.2672   24.4270 C   0  0  0  0  0  0  0  0  0  0  0  0
  -27.9883  -31.6612   26.0278 C   0  0  0  0  0  0  0  0  0  0  0  0
  -25.6294  -31.9542   26.7844 C   0  0  0  0  0  0  0  0  0  0  0  0
  -27.7476  -26.1464   29.7263 C   0  0  0  0  0  0  0  0  0  0  0  0
  -29.9130  -18.1477   23.2713 C   0  0  0  0  0  0  0  0  0  0  0  0
  -32.4552  -14.1555   22.0360 C   0  0  0  0  0  0  0  0  0  0  0  0
  -31.1758  -17.7119   22.5511 C   0  0  0  0  0  0  0  0  0  0  0  0
  -32.4701  -15.6689   21.9270 C   0  0  0  0  0  0  0  0  0  0  0  0
  -26.5192  -29.6235   26.3743 C   0  0  1  0  0  0  0  0  0  0  0  0
  -28.1849  -28.6034   29.6231 C   0  0  2  0  0  0  0  0  0  0  0  0
  -26.5565  -31.1009   25.8915 C   0  0  0  0  0  0  0  0  0  0  0  0
  -26.1671  -11.8281   21.2110 N   0  0  0  0  0  0  0  0  0  0  0  0
  -26.3704  -12.9968   20.5795 N   0  0  0  0  0  0  0  0  0  0  0  0
  -25.0453  -27.8834   25.4132 N   0  0  0  0  0  0  0  0  0  0  0  0
  -30.0543  -12.6515   19.6211 N   0  0  0  0  0  0  0  0  0  0  0  0
  -25.3956  -15.1160   20.1681 N   0  0  0  0  0  0  0  0  0  0  0  0
  -23.1406  -14.5357   23.1634 N   0  0  0  0  0  0  0  0  0  0  0  0
  -21.9654  -28.2095   23.6418 N   0  0  0  0  0  0  0  0  0  0  0  0
  -26.9167  -29.4394   27.7659 N   0  0  0  0  0  0  0  0  0  0  0  0
  -31.2844  -13.5735   21.4184 N   0  0  0  0  0  0  0  0  0  0  0  0
  -28.6686  -27.2632   30.0600 N   0  3  0  0  0  0  0  0  0  0  0  0
  -31.2965  -16.2372   22.6453 N   0  3  0  0  0  0  0  0  0  0  0  0
  -22.1136  -13.6870   21.2969 O   0  0  0  0  0  0  0  0  0  0  0  0
  -24.1830  -28.2134   22.9314 O   0  0  0  0  0  0  0  0  0  0  0  0
  -24.2000  -29.5062   26.8582 O   0  0  0  0  0  0  0  0  0  0  0  0
  -28.6677  -27.9802   27.3393 O   0  0  0  0  0  0  0  0  0  0  0  0
  -32.2517  -13.3422   19.3525 O   0  0  0  0  0  0  0  0  0  0  0  0
  -22.7229   -7.8931   24.8443 O   0  0  0  0  0  0  0  0  0  0  0  0
  -27.9925  -23.4397   22.3115 O   0  0  0  0  0  0  0  0  0  1  0  0
  -20.6000   -3.5709   22.1582 F   0  0  0  0  0  0  0  0  0  0  0  0
  -20.0533   -7.2275   25.1138 F   0  0  0  0  0  0  0  0  0  0  0  0
  1  2  1  0  0  0  0
  1  5  2  0  0  0  0
  2  6  2  0  0  0  0
  3  8  2  0  0  0  0
  3 15  1  0  0  0  0
  4  9  1  0  0  0  0
  4 15  2  0  0  0  0
  5 17  1  0  0  0  0
  6 19  1  0  0  0  0
  7 10  2  0  0  0  0
  7 18  1  0  0  0  0
  8 21  1  0  0  0  0
  9 21  2  0  0  0  0
 10 22  1  0  0  0  0
 11 12  2  0  0  0  0
 11 23  1  0  0  0  0
 12 24  1  0  0  0  0
 13 20  1  0  0  0  0
 13 22  2  0  0  0  0
 14 24  2  0  0  0  0
 14 25  1  0  0  0  0
 15 26  1  0  0  0  0
 16 26  1  0  0  0  0
 16 27  2  0  0  0  0
 16 28  1  0  0  0  0
 17 19  2  0  0  0  0
 17 33  1  0  0  0  0
 18 20  2  0  0  0  0
 18 34  1  0  0  0  0
 19 46  1  0  0  0  0
 20 35  1  0  0  0  0
 21 79  1  0  0  0  0
 22 80  1  0  0  0  0
 23 25  2  0  0  0  0
 23 79  1  0  0  0  0
 24 81  1  0  0  0  0
 25 82  1  0  0  0  0
 26 63  2  0  0  0  0
 27 64  1  0  0  0  0
 27 67  1  0  0  0  0
 28 68  1  0  0  0  0
 28 74  2  0  0  0  0
 29 47  1  0  0  0  0
 29 69  1  0  0  0  0
 29 75  2  0  0  0  0
 30 60  1  0  0  0  0
 30 65  1  0  0  0  0
 30 76  2  0  0  0  0
 31 61  1  0  0  0  0
 31 70  1  0  0  0  0
 31 77  2  0  0  0  0
 32 66  1  0  0  0  0
 32 71  1  0  0  0  0
 32 78  2  0  0  0  0
 33 36  1  0  0  0  0
 34 47  1  0  0  0  0
 35 65  1  0  0  0  0
 36 38  1  0  0  0  0
 37 41  1  0  0  0  0
 37 44  1  0  0  0  0
 38 46  1  0  0  0  0
 39 42  1  0  0  0  0
 39 48  1  0  0  0  0
 40 43  1  0  0  0  0
 40 48  1  0  0  0  0
 41 49  1  0  0  0  0
 42 50  1  0  0  0  0
 43 50  1  0  0  0  0
 44 66  1  0  0  0  0
 45 49  1  0  0  0  0
 45 66  1  0  0  0  0
 46 69  1  0  0  0  0
 47 65  1  0  0  0  0
 48 56  1  0  0  0  0
 49 64  1  0  0  0  0
 50 80  1  0  0  0  0
 51 61  1  0  0  0  0
 52 62  1  0  0  0  0
 53 62  1  0  0  0  0
 54 62  1  0  0  0  0
 55 72  1  0  0  0  0
 56 58  1  0  0  0  0
 57 59  1  0  0  0  0
 57 71  1  0  0  0  0
 58 73  1  0  0  0  0
 59 73  1  0  0  0  0
 60 62  1  0  0  0  0
 60 70  1  0  0  0  0
 61 72  1  0  0  0  0
 63 64  1  0  0  0  0
M  CHG  2  72   1  73   1
M  ISO  4  32 100  50 101  71 100  80 101
M  END
> <Batch ID>
0125

> <Smiles>
CNC(C)C(=O)NC(C(=O)N1Cc2cc([101O:1][101CH:1]3CCC(CCNCC[100NH:0][100C:0](=O)N4CCCC(n5nc(-c6ccc(Oc7ccc(F)cc7F)cc6)c(C(N)=O)c5N)C4)CC3)ccc2CC1C(=O)NC1CCCc2ccccc21)C(C)(C)C

> <Shape>
0.262

> <Color>
0.136

> <Negative vol penalty>
0.000

$$$$

  -OEChem-04052320353D

 87 97  0     1  0  0  0  0  0999 V2000
  -30.3509  -36.0390   17.3863 C   0  0  0  0  0  0  0  0  0  0  0  0
  -30.4658  -34.7154   16.9735 C   0  0  0  0  0  0  0  0  0  0  0  0
  -22.9060  -10.1610   19.9824 C   0  0  0  0  0  0  0  0  0  0  0  0
  -24.0144   -9.5780   22.0484 C   0  0  0  0  0  0  0  0  0  0  0  0
  -29.9691  -36.3291   18.6955 C   0  0  0  0  0  0  0  0  0  0  0  0
  -30.2000  -33.6811   17.8701 C   0  0  0  0  0  0  0  0  0  0  0  0
  -28.1943  -19.6507   20.4894 C   0  0  0  0  0  0  0  0  0  0  0  0
  -30.1485  -20.5897   21.5554 C   0  0  0  0  0  0  0  0  0  0  0  0
  -27.5629  -27.0243   18.0916 C   0  0  0  0  0  0  0  0  0  0  0  0
  -27.9525  -20.8707   19.8580 C   0  0  0  0  0  0  0  0  0  0  0  0
  -29.9068  -21.8097   20.9240 C   0  0  0  0  0  0  0  0  0  0  0  0
  -22.1391   -8.9989   20.0659 C   0  0  0  0  0  0  0  0  0  0  0  0
  -23.2475   -8.4159   22.1320 C   0  0  0  0  0  0  0  0  0  0  0  0
  -27.8916  -25.7504   18.5531 C   0  0  0  0  0  0  0  0  0  0  0  0
  -20.1096   -7.5653   23.0542 C   0  0  0  0  0  0  0  0  0  0  0  0
  -19.5442   -7.2512   24.2901 C   0  0  0  0  0  0  0  0  0  0  0  0
  -27.1630  -26.3712   20.7674 C   0  0  0  0  0  0  0  0  0  0  0  0
  -20.7607   -5.1639   24.3160 C   0  0  0  0  0  0  0  0  0  0  0  0
  -23.8437  -10.4505   20.9736 C   0  0  0  0  0  0  0  0  0  0  0  0
  -24.3213  -12.9173   21.4145 C   0  0  0  0  0  0  0  0  0  0  0  0
  -29.2923  -19.5102   21.3382 C   0  0  0  0  0  0  0  0  0  0  0  0
  -29.6892  -35.2979   19.6059 C   0  0  0  0  0  0  0  0  0  0  0  0
  -27.0412  -27.9863   18.9683 C   0  0  0  0  0  0  0  0  0  0  0  0
  -29.8154  -33.9577   19.1931 C   0  0  0  0  0  0  0  0  0  0  0  0
  -26.8261  -27.6558   20.3139 C   0  0  0  0  0  0  0  0  0  0  0  0
  -28.8088  -21.9502   20.0752 C   0  0  0  0  0  0  0  0  0  0  0  0
  -22.3098   -8.1264   21.1406 C   0  0  0  0  0  0  0  0  0  0  0  0
  -27.6943  -25.4246   19.8918 C   0  0  0  0  0  0  0  0  0  0  0  0
  -21.0004   -6.6787   22.4492 C   0  0  0  0  0  0  0  0  0  0  0  0
  -19.8698   -6.0505   24.9210 C   0  0  0  0  0  0  0  0  0  0  0  0
  -21.3260   -5.4781   23.0801 C   0  0  0  0  0  0  0  0  0  0  0  0
  -24.6366  -11.6505   20.8876 C   0  0  0  0  0  0  0  0  0  0  0  0
  -25.3883  -13.7092   21.0665 C   0  0  0  0  0  0  0  0  0  0  0  0
  -23.1672  -13.3405   22.1525 C   0  0  0  0  0  0  0  0  0  0  0  0
  -27.9913  -30.8437   19.9862 C   0  0  0  0  0  0  0  0  0  0  0  0
  -25.0749  -30.8758   21.4060 C   0  0  0  0  0  0  0  0  0  0  0  0
  -22.4382  -29.1014   22.6494 C   0  0  0  0  0  0  0  0  0  0  0  0
  -30.8872  -14.5259   20.5762 C   0  0  0  0  0  0  0  0  0  0  0  0
  -29.3258  -35.6603   21.0240 C   0  0  0  0  0  0  0  0  0  0  0  0
  -26.6668  -29.3474   18.4491 C   0  0  0  0  0  0  0  0  0  0  0  0
  -26.2498  -28.6461   21.2915 C   0  0  0  0  0  0  0  0  0  0  0  0
  -28.6988  -34.5086   21.8055 C   0  0  0  0  0  0  0  0  0  0  0  0
  -29.2417  -12.8391   17.9072 C   0  0  0  0  0  0  0  0  0  0  0  0
  -29.5018  -33.2274   21.6044 C   0  0  0  0  0  0  0  0  0  0  0  0
  -27.8741  -12.4788   18.4901 C   0  0  0  0  0  0  0  0  0  0  0  0
  -28.1208  -19.3652   25.4390 C   0  0  0  0  0  0  0  0  0  0  0  0
  -28.0443  -20.2696   24.2417 C   0  0  0  0  0  0  0  0  0  0  0  0
  -31.1194  -16.3767   23.7858 C   0  0  0  0  0  0  0  0  0  0  0  0
  -30.9383  -17.6370   21.6164 C   0  0  0  0  0  0  0  0  0  0  0  0
  -30.3476  -12.7324   18.9549 C   0  0  0  0  0  0  0  0  0  0  0  0
  -28.7364  -13.1364   20.7755 C   0  0  0  0  0  0  0  0  0  0  0  0
  -29.7541  -16.8967   24.2085 C   0  0  0  0  0  0  0  0  0  0  0  0
  -29.5116  -32.8082   20.1294 C   0  0  1  0  0  0  0  0  0  0  0  0
  -29.5563  -18.1821   22.0261 C   0  0  1  0  0  0  0  0  0  0  0  0
  -26.6227  -30.4121   19.5409 C   0  0  1  0  0  0  0  0  0  0  0  0
  -27.5808  -13.2833   19.7708 C   0  0  2  0  0  0  0  0  0  0  0  0
  -31.2816  -16.2974   22.2690 C   0  0  2  0  0  0  0  0  0  0  0  0
  -28.1594  -18.7837   24.0547 C   0  0  0  0  0  0  0  0  0  0  0  0
  -20.2184  -29.4035   23.7800 C   0  0  0  0  0  0  0  0  0  0  0  0
  -26.4994  -31.4904   24.0333 C   0  0  0  0  0  0  0  0  0  0  0  0
  -24.4030  -30.8451   25.2403 C   0  0  0  0  0  0  0  0  0  0  0  0
  -24.3881  -32.7793   23.6651 C   0  0  0  0  0  0  0  0  0  0  0  0
  -20.9942  -27.7976   20.4192 C   0  0  0  0  0  0  0  0  0  0  0  0
  -28.5490  -23.2617   19.3943 C   0  0  0  0  0  0  0  0  0  1  0  0
  -24.5312  -30.4300   22.7419 C   0  0  1  0  0  0  0  0  0  0  0  0
  -20.9406  -29.2500   22.4506 C   0  0  2  0  0  0  0  0  0  0  0  0
  -24.9681  -31.3679   23.9024 C   0  0  0  0  0  0  0  0  0  0  0  0
  -25.8118  -11.6339   20.2530 N   0  0  0  0  0  0  0  0  0  0  0  0
  -26.2443  -12.9001   20.3788 N   0  0  0  0  0  0  0  0  0  0  0  0
  -25.9055  -29.9657   20.7370 N   0  0  0  0  0  0  0  0  0  0  0  0
  -30.0086  -13.5192   20.1432 N   0  0  0  0  0  0  0  0  0  0  0  0
  -25.6684  -15.0116   21.2846 N   0  0  0  0  0  0  0  0  0  0  0  0
  -22.1652  -12.3988   22.4235 N   0  0  0  0  0  0  0  0  0  0  0  0
  -28.2558  -32.1832   19.7733 N   0  0  0  0  0  0  0  0  0  0  0  0
  -23.0861  -30.3164   22.5772 N   0  0  0  0  0  0  0  0  0  0  0  0
  -30.4871  -15.2282   21.7065 N   0  0  0  0  0  0  0  0  0  0  0  0
  -29.4864  -18.2350   23.5552 N   0  3  1  0  0  0  0  0  0  0  0  0
  -20.3897  -28.0546   21.7517 N   0  3  0  0  0  0  0  0  0  0  0  0
  -23.0211  -14.5228   22.5455 O   0  0  0  0  0  0  0  0  0  0  0  0
  -28.7506  -30.0227   20.4873 O   0  0  0  0  0  0  0  0  0  0  0  0
  -24.7679  -31.9877   20.9688 O   0  0  0  0  0  0  0  0  0  0  0  0
  -22.9788  -28.0164   22.8526 O   0  0  0  0  0  0  0  0  0  0  0  0
  -31.9469  -14.7836   19.9953 O   0  0  0  0  0  0  0  0  0  0  0  0
  -21.5614   -6.9924   21.2226 O   0  0  0  0  0  0  0  0  0  0  0  0
  -28.0148  -24.1821   20.3450 O   0  0  0  0  0  0  0  0  0  1  0  0
  -19.3281   -5.7497   26.1085 F   0  0  0  0  0  0  0  0  0  0  0  0
  -22.1822   -4.6229   22.5043 F   0  0  0  0  0  0  0  0  0  0  0  0
  1  2  1  0  0  0  0
  1  5  2  0  0  0  0
  2  6  2  0  0  0  0
  3 12  2  0  0  0  0
  3 19  1  0  0  0  0
  4 13  1  0  0  0  0
  4 19  2  0  0  0  0
  5 22  1  0  0  0  0
  6 24  1  0  0  0  0
  7 10  2  0  0  0  0
  7 21  1  0  0  0  0
  8 11  1  0  0  0  0
  8 21  2  0  0  0  0
  9 14  2  0  0  0  0
  9 23  1  0  0  0  0
 10 26  1  0  0  0  0
 11 26  2  0  0  0  0
 12 27  1  0  0  0  0
 13 27  2  0  0  0  0
 14 28  1  0  0  0  0
 15 16  2  0  0  0  0
 15 29  1  0  0  0  0
 16 30  1  0  0  0  0
 17 25  1  0  0  0  0
 17 28  2  0  0  0  0
 18 30  2  0  0  0  0
 18 31  1  0  0  0  0
 19 32  1  0  0  0  0
 20 32  1  0  0  0  0
 20 33  2  0  0  0  0
 20 34  1  0  0  0  0
 21 54  1  0  0  0  0
 22 24  2  0  0  0  0
 22 39  1  0  0  0  0
 23 25  2  0  0  0  0
 23 40  1  0  0  0  0
 24 53  1  0  0  0  0
 25 41  1  0  0  0  0
 26 64  1  0  0  0  0
 27 84  1  0  0  0  0
 28 85  1  0  0  0  0
 29 31  2  0  0  0  0
 29 84  1  0  0  0  0
 30 86  1  0  0  0  0
 31 87  1  0  0  0  0
 32 68  2  0  0  0  0
 33 69  1  0  0  0  0
 33 72  1  0  0  0  0
 34 73  1  0  0  0  0
 34 79  2  0  0  0  0
 35 55  1  0  0  0  0
 35 74  1  0  0  0  0
 35 80  2  0  0  0  0
 36 65  1  0  0  0  0
 36 70  1  0  0  0  0
 36 81  2  0  0  0  0
 37 66  1  0  0  0  0
 37 75  1  0  0  0  0
 37 82  2  0  0  0  0
 38 71  1  0  0  0  0
 38 76  1  0  0  0  0
 38 83  2  0  0  0  0
 39 42  1  0  0  0  0
 40 55  1  0  0  0  0
 41 70  1  0  0  0  0
 42 44  1  0  0  0  0
 43 45  1  0  0  0  0
 43 50  1  0  0  0  0
 44 53  1  0  0  0  0
 45 56  1  0  0  0  0
 46 47  1  0  0  0  0
 46 58  1  0  0  0  0
 47 58  1  0  0  0  0
 48 52  1  0  0  0  0
 48 57  1  0  0  0  0
 49 54  1  0  0  0  0
 49 57  1  0  0  0  0
 50 71  1  0  0  0  0
 51 56  1  0  0  0  0
 51 71  1  0  0  0  0
 52 77  1  0  0  0  0
 53 74  1  0  0  0  0
 54 77  1  0  0  0  0
 55 70  1  0  0  0  0
 56 69  1  0  0  0  0
 57 76  1  0  0  0  0
 58 77  1  0  0  0  0
 59 66  1  0  0  0  0
 60 67  1  0  0  0  0
 61 67  1  0  0  0  0
 62 67  1  0  0  0  0
 63 78  1  0  0  0  0
 64 85  1  0  0  0  0
 65 67  1  0  0  0  0
 65 75  1  0  0  0  0
 66 78  1  0  0  0  0
 68 69  1  0  0  0  0
M  CHG  2  77   1  78   1
M  ISO  4  38 100  64 101  76 100  85 101
M  END
> <Batch ID>
0125

> <Smiles>
CNC(C)C(=O)NC(C(=O)N1Cc2cc([101O:1][101CH2:1]c3ccc(C4CC([100NH:0][100C:0](=O)N5CCCC(n6nc(-c7ccc(Oc8ccc(F)cc8F)cc7)c(C(N)=O)c6N)C5)CCN4C4CC4)cc3)ccc2CC1C(=O)NC1CCCc2ccccc21)C(C)(C)C

> <Shape>
0.357

> <Color>
0.166

> <Negative vol penalty>
0.000

$$$$

  -OEChem-04052320353D

 84 92  0     1  0  0  0  0  0999 V2000
  -30.8375  -34.5553   18.6436 C   0  0  0  0  0  0  0  0  0  0  0  0
  -30.5167  -33.3162   18.0985 C   0  0  0  0  0  0  0  0  0  0  0  0
  -23.0146   -9.9522   19.9322 C   0  0  0  0  0  0  0  0  0  0  0  0
  -23.8040   -9.8848   22.2146 C   0  0  0  0  0  0  0  0  0  0  0  0
  -30.6642  -34.7811   20.0085 C   0  0  0  0  0  0  0  0  0  0  0  0
  -30.0236  -32.3017   18.9183 C   0  0  0  0  0  0  0  0  0  0  0  0
  -25.8828  -28.0450   17.4215 C   0  0  0  0  0  0  0  0  0  0  0  0
  -22.2364   -8.8188   20.1679 C   0  0  0  0  0  0  0  0  0  0  0  0
  -23.0257   -8.7514   22.4503 C   0  0  0  0  0  0  0  0  0  0  0  0
  -26.0072  -26.7157   17.0199 C   0  0  0  0  0  0  0  0  0  0  0  0
  -19.7810   -8.0469   23.0799 C   0  0  0  0  0  0  0  0  0  0  0  0
  -19.0384   -8.0064   24.2599 C   0  0  0  0  0  0  0  0  0  0  0  0
  -25.6512  -26.0010   19.2962 C   0  0  0  0  0  0  0  0  0  0  0  0
  -29.7281  -19.9450   19.4125 C   0  0  0  0  0  0  0  0  0  0  0  0
  -20.2247   -6.0140   24.9382 C   0  0  0  0  0  0  0  0  0  0  0  0
  -27.0529  -20.4812   19.4515 C   0  0  0  0  0  0  0  0  0  0  0  0
  -23.7984  -10.4851   20.9556 C   0  0  0  0  0  0  0  0  0  0  0  0
  -27.8660  -21.2574   18.6414 C   0  0  0  0  0  0  0  0  0  0  0  0
  -24.2218  -12.9997   20.8843 C   0  0  0  0  0  0  0  0  0  0  0  0
  -30.1596  -33.7719   20.8437 C   0  0  0  0  0  0  0  0  0  0  0  0
  -25.6521  -28.3632   18.7676 C   0  0  0  0  0  0  0  0  0  0  0  0
  -29.8447  -32.5137   20.2959 C   0  0  0  0  0  0  0  0  0  0  0  0
  -25.5217  -27.3349   19.7119 C   0  0  0  0  0  0  0  0  0  0  0  0
  -29.2279  -20.9777   18.6273 C   0  0  0  0  0  0  0  0  0  0  0  0
  -22.2419   -8.2185   21.4269 C   0  0  0  0  0  0  0  0  0  0  0  0
  -25.8943  -25.6936   17.9577 C   0  0  0  0  0  0  0  0  0  0  0  0
  -20.7454   -7.0708   22.8290 C   0  0  0  0  0  0  0  0  0  0  0  0
  -19.2603   -6.9900   25.1891 C   0  0  0  0  0  0  0  0  0  0  0  0
  -20.9673   -6.0544   23.7581 C   0  0  0  0  0  0  0  0  0  0  0  0
  -24.6030  -11.6555   20.7126 C   0  0  0  0  0  0  0  0  0  0  0  0
  -28.8317  -19.2277   20.1882 C   0  0  0  0  0  0  0  0  0  0  0  0
  -25.3333  -13.7207   20.5221 C   0  0  0  0  0  0  0  0  0  0  0  0
  -27.2722  -22.3519   17.8209 C   0  0  0  0  0  0  0  0  0  0  0  0
  -22.9746  -13.5477   21.3314 C   0  0  0  0  0  0  0  0  0  0  0  0
  -27.2373  -29.9897   20.9914 C   0  0  0  0  0  0  0  0  0  0  0  0
  -24.5493  -29.4713   22.7316 C   0  0  0  0  0  0  0  0  0  0  0  0
  -21.7677  -27.5683   23.2687 C   0  0  0  0  0  0  0  0  0  0  0  0
  -30.8497  -14.5555   20.6570 C   0  0  0  0  0  0  0  0  0  0  0  0
  -30.0341  -34.0477   22.3212 C   0  0  0  0  0  0  0  0  0  0  0  0
  -25.4938  -29.8010   19.1802 C   0  0  0  0  0  0  0  0  0  0  0  0
  -25.2540  -27.6228   21.1658 C   0  0  0  0  0  0  0  0  0  0  0  0
  -29.1533  -33.0406   23.0561 C   0  0  0  0  0  0  0  0  0  0  0  0
  -29.6031  -12.2616   18.2361 C   0  0  0  0  0  0  0  0  0  0  0  0
  -29.5160  -31.6163   22.6479 C   0  0  0  0  0  0  0  0  0  0  0  0
  -28.1625  -12.0058   18.6823 C   0  0  0  0  0  0  0  0  0  0  0  0
  -30.5426  -12.4263   19.4287 C   0  0  0  0  0  0  0  0  0  0  0  0
  -28.6841  -13.1891   20.8563 C   0  0  0  0  0  0  0  0  0  0  0  0
  -29.2838  -31.3962   21.1482 C   0  0  1  0  0  0  0  0  0  0  0  0
  -25.7718  -30.0313   20.6625 C   0  0  1  0  0  0  0  0  0  0  0  0
  -27.6895  -13.0720   19.6887 C   0  0  2  0  0  0  0  0  0  0  0  0
  -30.1702  -21.7686   17.7808 C   0  0  0  0  0  0  0  0  0  0  0  0
  -19.7805  -27.3691   24.7881 C   0  0  0  0  0  0  0  0  0  0  0  0
  -26.3365  -28.3043   24.9121 C   0  0  0  0  0  0  0  0  0  0  0  0
  -24.2954  -27.2832   25.9414 C   0  0  0  0  0  0  0  0  0  0  0  0
  -24.4858  -29.7630   25.7498 C   0  0  0  0  0  0  0  0  0  0  0  0
  -19.8711  -27.9494   21.0290 C   0  0  0  0  0  0  0  0  0  0  0  0
  -26.5400  -23.4764   18.5264 C   0  0  0  0  0  0  0  0  0  1  0  0
  -30.7442  -17.8496   21.0061 C   0  0  0  0  0  0  0  0  0  0  0  0
  -31.0025  -16.6756   21.9380 C   0  0  0  0  0  0  0  0  0  0  0  0
  -24.0751  -28.3870   23.6689 C   0  0  1  0  0  0  0  0  0  0  0  0
  -20.3142  -27.9481   23.4871 C   0  0  2  0  0  0  0  0  0  0  0  0
  -24.8052  -28.4287   25.0410 C   0  0  0  0  0  0  0  0  0  0  0  0
  -27.5023  -19.4699   20.2280 N   0  0  0  0  0  0  0  0  0  0  0  0
  -25.8585  -11.5274   20.2751 N   0  0  0  0  0  0  0  0  0  0  0  0
  -26.2758  -12.8004   20.1688 N   0  0  0  0  0  0  0  0  0  0  0  0
  -25.1133  -29.0446   21.5210 N   0  0  0  0  0  0  0  0  0  0  0  0
  -30.0378  -13.4529   20.3437 N   0  0  0  0  0  0  0  0  0  0  0  0
  -25.5866  -15.0459   20.4744 N   0  0  0  0  0  0  0  0  0  0  0  0
  -21.9377  -12.6650   21.6632 N   0  0  0  0  0  0  0  0  0  0  0  0
  -29.3563  -18.1784   20.9832 N   0  0  0  0  0  0  0  0  0  0  0  0
  -27.8744  -31.2106   20.8769 N   0  0  0  0  0  0  0  0  0  0  0  0
  -22.6260  -28.5299   23.7585 N   0  0  0  0  0  0  0  0  0  0  0  0
  -30.2925  -15.4851   21.5266 N   0  0  0  0  0  0  0  0  0  0  0  0
  -19.4724  -27.4410   22.3667 N   0  3  0  0  0  0  0  0  0  0  0  0
  -27.3867  -22.3237   16.5977 O   0  0  0  0  0  0  0  0  0  0  0  0
  -22.7798  -14.7838   21.4180 O   0  0  0  0  0  0  0  0  0  0  0  0
  -27.7516  -28.9290   21.3259 O   0  0  0  0  0  0  0  0  0  0  0  0
  -24.4174  -30.6534   23.0584 O   0  0  0  0  0  0  0  0  0  0  0  0
  -22.1077  -26.5215   22.7218 O   0  0  0  0  0  0  0  0  0  0  0  0
  -31.9848  -14.7035   20.1917 O   0  0  0  0  0  0  0  0  0  0  0  0
  -21.4824   -7.1127   21.6573 O   0  0  0  0  0  0  0  0  0  0  0  0
  -26.0159  -24.3953   17.5685 O   0  0  0  0  0  0  0  0  0  1  0  0
  -18.5481   -6.9522   26.3230 F   0  0  0  0  0  0  0  0  0  0  0  0
  -21.8932   -5.1146   23.5231 F   0  0  0  0  0  0  0  0  0  0  0  0
  1  2  1  0  0  0  0
  1  5  2  0  0  0  0
  2  6  2  0  0  0  0
  3  8  2  0  0  0  0
  3 17  1  0  0  0  0
  4  9  1  0  0  0  0
  4 17  2  0  0  0  0
  5 20  1  0  0  0  0
  6 22  1  0  0  0  0
  7 10  2  0  0  0  0
  7 21  1  0  0  0  0
  8 25  1  0  0  0  0
  9 25  2  0  0  0  0
 10 26  1  0  0  0  0
 11 12  2  0  0  0  0
 11 27  1  0  0  0  0
 12 28  1  0  0  0  0
 13 23  1  0  0  0  0
 13 26  2  0  0  0  0
 14 24  1  0  0  0  0
 14 31  2  0  0  0  0
 15 28  2  0  0  0  0
 15 29  1  0  0  0  0
 16 18  1  0  0  0  0
 16 63  2  0  0  0  0
 17 30  1  0  0  0  0
 18 24  2  0  0  0  0
 18 33  1  0  0  0  0
 19 30  1  0  0  0  0
 19 32  2  0  0  0  0
 19 34  1  0  0  0  0
 20 22  2  0  0  0  0
 20 39  1  0  0  0  0
 21 23  2  0  0  0  0
 21 40  1  0  0  0  0
 22 48  1  0  0  0  0
 23 41  1  0  0  0  0
 24 51  1  0  0  0  0
 25 81  1  0  0  0  0
 26 82  1  0  0  0  0
 27 29  2  0  0  0  0
 27 81  1  0  0  0  0
 28 83  1  0  0  0  0
 29 84  1  0  0  0  0
 30 64  2  0  0  0  0
 31 63  1  0  0  0  0
 31 70  1  0  0  0  0
 32 65  1  0  0  0  0
 32 68  1  0  0  0  0
 33 57  1  0  0  0  0
 33 75  2  0  0  0  0
 34 69  1  0  0  0  0
 34 76  2  0  0  0  0
 35 49  1  0  0  0  0
 35 71  1  0  0  0  0
 35 77  2  0  0  0  0
 36 60  1  0  0  0  0
 36 66  1  0  0  0  0
 36 78  2  0  0  0  0
 37 61  1  0  0  0  0
 37 72  1  0  0  0  0
 37 79  2  0  0  0  0
 38 67  1  0  0  0  0
 38 73  1  0  0  0  0
 38 80  2  0  0  0  0
 39 42  1  0  0  0  0
 40 49  1  0  0  0  0
 41 66  1  0  0  0  0
 42 44  1  0  0  0  0
 43 45  1  0  0  0  0
 43 46  1  0  0  0  0
 44 48  1  0  0  0  0
 45 50  1  0  0  0  0
 46 67  1  0  0  0  0
 47 50  1  0  0  0  0
 47 67  1  0  0  0  0
 48 71  1  0  0  0  0
 49 66  1  0  0  0  0
 50 65  1  0  0  0  0
 52 61  1  0  0  0  0
 53 62  1  0  0  0  0
 54 62  1  0  0  0  0
 55 62  1  0  0  0  0
 56 74  1  0  0  0  0
 57 82  1  0  0  0  0
 58 59  1  0  0  0  0
 58 70  1  0  0  0  0
 59 73  1  0  0  0  0
 60 62  1  0  0  0  0
 60 72  1  0  0  0  0
 61 74  1  0  0  0  0
 64 65  1  0  0  0  0
M  CHG  1  74   1
M  ISO  4  38 100  57 101  73 100  82 101
M  END
> <Batch ID>
0125

> <Smiles>
CNC(C)C(=O)NC(C(=O)N1Cc2cc([101O:1][101CH2:1]C(=O)c3cnc(NCC[100NH:0][100C:0](=O)N4CCCC(n5nc(-c6ccc(Oc7ccc(F)cc7F)cc6)c(C(N)=O)c5N)C4)cc3C)ccc2CC1C(=O)NC1CCCc2ccccc21)C(C)(C)C

> <Shape>
0.320

> <Color>
0.201

> <Negative vol penalty>
0.000

$$$$

  -OEChem-04052320353D

 86 95  0     1  0  0  0  0  0999 V2000
  -28.4211  -34.0813   22.2119 C   0  0  0  0  0  0  0  0  0  0  0  0
  -28.5062  -32.6929   22.2347 C   0  0  0  0  0  0  0  0  0  0  0  0
  -23.0709   -9.9442   19.9843 C   0  0  0  0  0  0  0  0  0  0  0  0
  -24.3594   -9.4145   21.9582 C   0  0  0  0  0  0  0  0  0  0  0  0
  -27.2164  -34.7100   22.5243 C   0  0  0  0  0  0  0  0  0  0  0  0
  -27.3868  -31.9324   22.5709 C   0  0  0  0  0  0  0  0  0  0  0  0
  -26.7192  -27.9833   19.4719 C   0  0  0  0  0  0  0  0  0  0  0  0
  -22.4730   -8.6851   20.0366 C   0  0  0  0  0  0  0  0  0  0  0  0
  -23.7615   -8.1554   22.0106 C   0  0  0  0  0  0  0  0  0  0  0  0
  -27.5299  -26.8680   19.6780 C   0  0  0  0  0  0  0  0  0  0  0  0
  -20.8219   -6.8361   23.0298 C   0  0  0  0  0  0  0  0  0  0  0  0
  -20.3727   -6.3847   24.2708 C   0  0  0  0  0  0  0  0  0  0  0  0
  -25.7247  -25.7800   20.8513 C   0  0  0  0  0  0  0  0  0  0  0  0
  -21.8585   -4.4857   24.1180 C   0  0  0  0  0  0  0  0  0  0  0  0
  -24.0141  -10.3089   20.9450 C   0  0  0  0  0  0  0  0  0  0  0  0
  -24.1790  -12.7923   21.5049 C   0  0  0  0  0  0  0  0  0  0  0  0
  -26.0792  -33.9564   22.8551 C   0  0  0  0  0  0  0  0  0  0  0  0
  -25.4064  -28.0097   19.9643 C   0  0  0  0  0  0  0  0  0  0  0  0
  -26.1662  -32.5516   22.8893 C   0  0  0  0  0  0  0  0  0  0  0  0
  -24.8984  -26.8958   20.6479 C   0  0  0  0  0  0  0  0  0  0  0  0
  -22.8183   -7.7907   21.0497 C   0  0  0  0  0  0  0  0  0  0  0  0
  -27.0337  -25.7672   20.3703 C   0  0  0  0  0  0  0  0  0  0  0  0
  -21.7894   -6.1122   22.3329 C   0  0  0  0  0  0  0  0  0  0  0  0
  -20.8910   -5.2096   24.8149 C   0  0  0  0  0  0  0  0  0  0  0  0
  -22.3077   -4.9371   22.8770 C   0  0  0  0  0  0  0  0  0  0  0  0
  -24.6325  -11.6092   20.8912 C   0  0  0  0  0  0  0  0  0  0  0  0
  -25.1090  -13.7398   21.1531 C   0  0  0  0  0  0  0  0  0  0  0  0
  -23.0207  -13.0148   22.3201 C   0  0  0  0  0  0  0  0  0  0  0  0
  -23.8305  -29.8129   22.0544 C   0  0  0  0  0  0  0  0  0  0  0  0
  -21.2830  -28.0815   21.0369 C   0  0  0  0  0  0  0  0  0  0  0  0
  -20.1150  -25.2058   19.6181 C   0  0  0  0  0  0  0  0  0  0  0  0
  -30.1558  -15.4473   20.4670 C   0  0  0  0  0  0  0  0  0  0  0  0
  -24.8117  -34.6821   23.2313 C   0  0  0  0  0  0  0  0  0  0  0  0
  -24.5358  -29.2097   19.7103 C   0  0  0  0  0  0  0  0  0  0  0  0
  -23.4894  -26.8661   21.1790 C   0  0  0  0  0  0  0  0  0  0  0  0
  -23.5717  -33.7921   23.2123 C   0  0  0  0  0  0  0  0  0  0  0  0
  -28.8519  -13.6072   17.7729 C   0  0  0  0  0  0  0  0  0  0  0  0
  -32.8225  -16.5820   18.1151 C   0  0  0  0  0  0  0  0  0  0  0  0
  -23.8501  -32.4732   23.9263 C   0  0  0  0  0  0  0  0  0  0  0  0
  -30.0895  -20.9306   18.9803 C   0  0  0  0  0  0  0  0  0  0  0  0
  -30.1062  -19.9576   21.3106 C   0  0  0  0  0  0  0  0  0  0  0  0
  -30.2468  -22.3332   19.5650 C   0  0  0  0  0  0  0  0  0  0  0  0
  -30.2638  -21.3601   21.8950 C   0  0  0  0  0  0  0  0  0  0  0  0
  -27.5987  -12.9979   18.3980 C   0  0  0  0  0  0  0  0  0  0  0  0
  -32.8663  -17.5979   19.2479 C   0  0  0  0  0  0  0  0  0  0  0  0
  -30.0368  -13.6163   18.7413 C   0  0  0  0  0  0  0  0  0  0  0  0
  -31.9886  -15.4501   18.6931 C   0  0  0  0  0  0  0  0  0  0  0  0
  -28.4801  -13.6394   20.6694 C   0  0  0  0  0  0  0  0  0  0  0  0
  -24.9673  -31.6913   23.2249 C   0  0  1  0  0  0  0  0  0  0  0  0
  -23.3836  -29.3327   20.7026 C   0  0  1  0  0  0  0  0  0  0  0  0
  -30.6970  -19.8622   19.8982 C   0  0  0  0  0  0  0  0  0  0  0  0
  -29.6558  -22.4282   20.9773 C   0  0  0  0  0  0  0  0  0  0  0  0
  -27.2642  -13.6855   19.7325 C   0  0  2  0  0  0  0  0  0  0  0  0
  -31.4880  -17.4774   19.9001 C   0  0  1  0  0  0  0  0  0  0  0  0
  -17.9827  -24.0637   18.9503 C   0  0  0  0  0  0  0  0  0  0  0  0
  -29.0504  -17.9960   19.5742 C   0  0  0  0  0  0  0  0  0  0  0  0
  -29.3162  -23.9004   22.9811 C   0  0  0  0  0  0  0  0  0  0  0  0
  -20.7276  -27.4133   23.9618 C   0  0  0  0  0  0  0  0  0  0  0  0
  -19.2317  -25.5631   23.1827 C   0  0  0  0  0  0  0  0  0  0  0  0
  -18.6913  -27.9288   22.6046 C   0  0  0  0  0  0  0  0  0  0  0  0
  -20.9162  -25.1212   16.7704 C   0  0  0  0  0  0  0  0  0  0  0  0
  -29.2273  -24.9021   20.6796 C   0  0  0  0  0  0  0  0  0  1  0  0
  -20.6338  -26.7857   21.4591 C   0  0  1  0  0  0  0  0  0  0  0  0
  -19.1187  -24.9678   18.4978 C   0  0  2  0  0  0  0  0  0  0  0  0
  -30.4818  -18.4661   19.3171 C   0  0  1  0  0  0  0  0  0  0  0  0
  -29.8696  -23.8244   21.5588 C   0  0  2  0  0  0  0  0  0  0  0  0
  -19.8483  -26.9238   22.7939 C   0  0  0  0  0  0  0  0  0  0  0  0
  -25.7626  -11.7865   20.2017 N   0  0  0  0  0  0  0  0  0  0  0  0
  -26.0270  -13.0920   20.3799 N   0  0  0  0  0  0  0  0  0  0  0  0
  -22.6793  -28.0659   20.9108 N   0  0  0  0  0  0  0  0  0  0  0  0
  -29.6651  -14.2123   20.0288 N   0  0  0  0  0  0  0  0  0  0  0  0
  -31.0689  -16.0973   19.6320 N   0  0  0  0  0  0  0  0  0  0  0  0
  -25.2229  -15.0556   21.4328 N   0  0  0  0  0  0  0  0  0  0  0  0
  -22.1709  -11.9318   22.5833 N   0  0  0  0  0  0  0  0  0  0  0  0
  -24.4599  -31.0429   22.0347 N   0  0  0  0  0  0  0  0  0  0  0  0
  -19.8201  -26.3497   20.3294 N   0  0  0  0  0  0  0  0  0  0  0  0
  -19.7926  -24.3285   17.3325 N   0  3  0  0  0  0  0  0  0  0  0  0
  -22.7386  -14.1442   22.7874 O   0  0  0  0  0  0  0  0  0  0  0  0
  -23.6185  -29.1195   23.0423 O   0  0  0  0  0  0  0  0  0  0  0  0
  -20.5767  -29.0692   20.8198 O   0  0  0  0  0  0  0  0  0  0  0  0
  -21.0582  -24.4504   19.8424 O   0  0  0  0  0  0  0  0  0  0  0  0
  -29.8228  -15.9233   21.5593 O   0  0  0  0  0  0  0  0  0  0  0  0
  -22.2349   -6.5620   21.1013 O   0  0  0  0  0  0  0  0  0  0  0  0
  -27.8288  -24.6698   20.5749 O   0  0  0  0  0  0  0  0  0  1  0  0
  -20.4606   -4.7771   26.0074 F   0  0  0  0  0  0  0  0  0  0  0  0
  -23.2382   -4.2380   22.2127 F   0  0  0  0  0  0  0  0  0  0  0  0
  1  2  1  0  0  0  0
  1  5  2  0  0  0  0
  2  6  2  0  0  0  0
  3  8  2  0  0  0  0
  3 15  1  0  0  0  0
  4  9  1  0  0  0  0
  4 15  2  0  0  0  0
  5 17  1  0  0  0  0
  6 19  1  0  0  0  0
  7 10  2  0  0  0  0
  7 18  1  0  0  0  0
  8 21  1  0  0  0  0
  9 21  2  0  0  0  0
 10 22  1  0  0  0  0
 11 12  2  0  0  0  0
 11 23  1  0  0  0  0
 12 24  1  0  0  0  0
 13 20  1  0  0  0  0
 13 22  2  0  0  0  0
 14 24  2  0  0  0  0
 14 25  1  0  0  0  0
 15 26  1  0  0  0  0
 16 26  1  0  0  0  0
 16 27  2  0  0  0  0
 16 28  1  0  0  0  0
 17 19  2  0  0  0  0
 17 33  1  0  0  0  0
 18 20  2  0  0  0  0
 18 34  1  0  0  0  0
 19 49  1  0  0  0  0
 20 35  1  0  0  0  0
 21 83  1  0  0  0  0
 22 84  1  0  0  0  0
 23 25  2  0  0  0  0
 23 83  1  0  0  0  0
 24 85  1  0  0  0  0
 25 86  1  0  0  0  0
 26 68  2  0  0  0  0
 27 69  1  0  0  0  0
 27 73  1  0  0  0  0
 28 74  1  0  0  0  0
 28 78  2  0  0  0  0
 29 50  1  0  0  0  0
 29 75  1  0  0  0  0
 29 79  2  0  0  0  0
 30 63  1  0  0  0  0
 30 70  1  0  0  0  0
 30 80  2  0  0  0  0
 31 64  1  0  0  0  0
 31 76  1  0  0  0  0
 31 81  2  0  0  0  0
 32 71  1  0  0  0  0
 32 72  1  0  0  0  0
 32 82  2  0  0  0  0
 33 36  1  0  0  0  0
 34 50  1  0  0  0  0
 35 70  1  0  0  0  0
 36 39  1  0  0  0  0
 37 44  1  0  0  0  0
 37 46  1  0  0  0  0
 38 45  1  0  0  0  0
 38 47  1  0  0  0  0
 39 49  1  0  0  0  0
 40 42  1  0  0  0  0
 40 51  1  0  0  0  0
 41 43  1  0  0  0  0
 41 51  1  0  0  0  0
 42 52  1  0  0  0  0
 43 52  1  0  0  0  0
 44 53  1  0  0  0  0
 45 54  1  0  0  0  0
 46 71  1  0  0  0  0
 47 72  1  0  0  0  0
 48 53  1  0  0  0  0
 48 71  1  0  0  0  0
 49 75  1  0  0  0  0
 50 70  1  0  0  0  0
 51 65  1  0  0  0  0
 52 66  1  0  0  0  0
 53 69  1  0  0  0  0
 54 65  1  0  0  0  0
 54 72  1  0  0  0  0
 55 64  1  0  0  0  0
 56 65  1  0  0  0  0
 57 66  1  0  0  0  0
 58 67  1  0  0  0  0
 59 67  1  0  0  0  0
 60 67  1  0  0  0  0
 61 77  1  0  0  0  0
 62 66  1  0  0  0  0
 62 84  1  0  0  0  0
 63 67  1  0  0  0  0
 63 76  1  0  0  0  0
 64 77  1  0  0  0  0
 68 69  1  0  0  0  0
M  CHG  1  77   1
M  ISO  4  32 100  62 101  72 100  84 101
M  END
> <Batch ID>
0125

> <Smiles>
CNC(C)C(=O)NC(C(=O)N1Cc2cc([101O:1][101CH2:1]C(C)C3CCC(C(C)C4CCC[100N:0]4[100C:0](=O)N4CCCC(n5nc(-c6ccc(Oc7ccc(F)cc7F)cc6)c(C(N)=O)c5N)C4)CC3)ccc2CC1C(=O)NC1CCCc2ccccc21)C(C)(C)C

> <Shape>
0.363

> <Color>
0.128

> <Negative vol penalty>
0.000

$$$$

  -OEChem-04052320353D

 86 95  0     1  0  0  0  0  0999 V2000
  -15.5821  -27.3070   20.5591 C   0  0  0  0  0  0  0  0  0  0  0  0
  -16.3665  -26.1634   20.6698 C   0  0  0  0  0  0  0  0  0  0  0  0
  -23.2013   -9.8961   19.9359 C   0  0  0  0  0  0  0  0  0  0  0  0
  -23.7184   -9.9849   22.2942 C   0  0  0  0  0  0  0  0  0  0  0  0
  -15.8550  -28.4179   21.3561 C   0  0  0  0  0  0  0  0  0  0  0  0
  -17.4251  -26.1305   21.5769 C   0  0  0  0  0  0  0  0  0  0  0  0
  -19.3756  -21.2918   24.7845 C   0  0  0  0  0  0  0  0  0  0  0  0
  -24.7695  -18.1624   23.3659 C   0  0  0  0  0  0  0  0  0  0  0  0
  -22.4444   -8.7434   20.1452 C   0  0  0  0  0  0  0  0  0  0  0  0
  -22.9615   -8.8321   22.5036 C   0  0  0  0  0  0  0  0  0  0  0  0
  -20.4239  -20.3948   24.5847 C   0  0  0  0  0  0  0  0  0  0  0  0
  -19.6945   -8.0181   22.7940 C   0  0  0  0  0  0  0  0  0  0  0  0
  -18.8201   -8.0072   23.8807 C   0  0  0  0  0  0  0  0  0  0  0  0
  -25.8956  -17.3478   23.3265 C   0  0  0  0  0  0  0  0  0  0  0  0
  -21.8162  -21.7031   26.0575 C   0  0  0  0  0  0  0  0  0  0  0  0
  -19.9932   -6.1082   24.8054 C   0  0  0  0  0  0  0  0  0  0  0  0
  -23.7189  -16.5537   24.7677 C   0  0  0  0  0  0  0  0  0  0  0  0
  -23.8384  -10.5169   21.0104 C   0  0  0  0  0  0  0  0  0  0  0  0
  -24.1712  -13.0406   20.8433 C   0  0  0  0  0  0  0  0  0  0  0  0
  -16.9114  -28.3952   22.2803 C   0  0  0  0  0  0  0  0  0  0  0  0
  -19.5434  -22.4091   25.6152 C   0  0  0  0  0  0  0  0  0  0  0  0
  -17.7132  -27.2426   22.3861 C   0  0  0  0  0  0  0  0  0  0  0  0
  -20.7676  -22.6114   26.2682 C   0  0  0  0  0  0  0  0  0  0  0  0
  -23.6562  -17.7651   24.0979 C   0  0  0  0  0  0  0  0  0  0  0  0
  -22.3245   -8.2114   21.4291 C   0  0  0  0  0  0  0  0  0  0  0  0
  -21.6454  -20.6019   25.2189 C   0  0  0  0  0  0  0  0  0  0  0  0
  -20.7181   -7.0740   22.7129 C   0  0  0  0  0  0  0  0  0  0  0  0
  -18.9695   -7.0523   24.8865 C   0  0  0  0  0  0  0  0  0  0  0  0
  -20.8675   -6.1191   23.7186 C   0  0  0  0  0  0  0  0  0  0  0  0
  -24.6208  -11.7074   20.7947 C   0  0  0  0  0  0  0  0  0  0  0  0
  -25.8582  -16.1552   24.0309 C   0  0  0  0  0  0  0  0  0  0  0  0
  -25.2894  -13.7902   20.5708 C   0  0  0  0  0  0  0  0  0  0  0  0
  -22.8601  -13.5553   21.1110 C   0  0  0  0  0  0  0  0  0  0  0  0
  -29.6011  -15.4123   23.7222 C   0  0  0  0  0  0  0  0  0  0  0  0
  -19.4300  -25.5572   25.1905 C   0  0  0  0  0  0  0  0  0  0  0  0
  -19.7641  -25.6124   28.4165 C   0  0  0  0  0  0  0  0  0  0  0  0
  -20.8250  -24.0281   31.2469 C   0  0  0  0  0  0  0  0  0  0  0  0
  -31.1508  -12.7538   21.2200 C   0  0  0  0  0  0  0  0  0  0  0  0
  -17.1974  -29.6372   23.0866 C   0  0  0  0  0  0  0  0  0  0  0  0
  -18.3942  -23.3529   25.8415 C   0  0  0  0  0  0  0  0  0  0  0  0
  -20.9925  -23.7843   27.1859 C   0  0  0  0  0  0  0  0  0  0  0  0
  -18.1038  -29.3874   24.2892 C   0  0  0  0  0  0  0  0  0  0  0  0
  -29.4456  -13.5926   18.2091 C   0  0  0  0  0  0  0  0  0  0  0  0
  -19.3025  -28.5346   23.8862 C   0  0  0  0  0  0  0  0  0  0  0  0
  -27.9752  -13.3249   18.5347 C   0  0  0  0  0  0  0  0  0  0  0  0
  -27.6727  -14.8284   25.3044 C   0  0  0  0  0  0  0  0  0  0  0  0
  -30.3662  -12.5737   18.8772 C   0  0  0  0  0  0  0  0  0  0  0  0
  -28.7135  -12.1687   20.6600 C   0  0  0  0  0  0  0  0  0  0  0  0
  -18.8548  -27.1596   23.3760 C   0  0  1  0  0  0  0  0  0  0  0  0
  -27.0559  -15.2660   24.0035 C   0  0  2  0  0  0  0  0  0  0  0  0
  -28.3907  -15.8253   24.4422 C   0  0  2  0  0  0  0  0  0  0  0  0
  -18.8398  -24.7372   26.3025 C   0  0  1  0  0  0  0  0  0  0  0  0
  -27.7503  -13.2037   20.0539 C   0  0  2  0  0  0  0  0  0  0  0  0
  -20.9995  -24.3392   33.7309 C   0  0  0  0  0  0  0  0  0  0  0  0
  -22.1424  -27.4809   28.0130 C   0  0  0  0  0  0  0  0  0  0  0  0
  -22.8345  -26.9955   30.3696 C   0  0  0  0  0  0  0  0  0  0  0  0
  -20.6428  -28.0973   29.9171 C   0  0  0  0  0  0  0  0  0  0  0  0
  -19.0811  -21.6967   31.7783 C   0  0  0  0  0  0  0  0  0  0  0  0
  -22.4252  -18.6209   24.1590 C   0  0  0  0  0  0  0  0  0  1  0  0
  -31.8398  -14.3739   24.0257 C   0  0  0  0  0  0  0  0  0  0  0  0
  -31.7822  -12.9116   23.6149 C   0  0  0  0  0  0  0  0  0  0  0  0
  -20.9342  -25.6463   29.3698 C   0  0  1  0  0  0  0  0  0  0  0  0
  -20.1508  -23.8034   32.5884 C   0  0  2  0  0  0  0  0  0  0  0  0
  -21.6352  -27.0339   29.3986 C   0  0  0  0  0  0  0  0  0  0  0  0
  -24.7950  -15.7357   24.7530 N   0  0  0  0  0  0  0  0  0  0  0  0
  -25.9230  -11.6123   20.5133 N   0  0  0  0  0  0  0  0  0  0  0  0
  -26.3013  -12.8953   20.3825 N   0  0  0  0  0  0  0  0  0  0  0  0
  -19.8405  -24.6824   27.3702 N   0  0  0  0  0  0  0  0  0  0  0  0
  -30.1032  -12.5087   20.3169 N   0  0  0  0  0  0  0  0  0  0  0  0
  -25.4959  -15.1209   20.4762 N   0  0  0  0  0  0  0  0  0  0  0  0
  -21.8257  -12.6462   21.3713 N   0  0  0  0  0  0  0  0  0  0  0  0
  -18.5021  -26.2993   24.4850 N   0  0  0  0  0  0  0  0  0  0  0  0
  -30.5717  -14.8503   24.5294 N   0  0  0  0  0  0  0  0  0  0  0  0
  -20.4198  -25.2098   30.6633 N   0  0  0  0  0  0  0  0  0  0  0  0
  -30.8145  -12.6783   22.5661 N   0  0  0  0  0  0  0  0  0  0  0  0
  -19.9214  -22.3485   32.8156 N   0  3  0  0  0  0  0  0  0  0  0  0
  -22.6096  -14.7845   21.1029 O   0  0  0  0  0  0  0  0  0  0  0  0
  -29.6708  -15.5819   22.5106 O   0  0  0  0  0  0  0  0  0  0  0  0
  -20.6382  -25.5207   24.9884 O   0  0  0  0  0  0  0  0  0  0  0  0
  -18.8140  -26.3779   28.5980 O   0  0  0  0  0  0  0  0  0  0  0  0
  -21.6332  -23.2365   30.7667 O   0  0  0  0  0  0  0  0  0  0  0  0
  -32.2993  -13.0255   20.8538 O   0  0  0  0  0  0  0  0  0  0  0  0
  -21.5858   -7.0866   21.6337 O   0  0  0  0  0  0  0  0  0  0  0  0
  -22.6705  -19.7281   25.0250 O   0  0  0  0  0  0  0  0  0  1  0  0
  -18.1308   -7.0429   25.9308 F   0  0  0  0  0  0  0  0  0  0  0  0
  -21.8497   -5.2103   23.6468 F   0  0  0  0  0  0  0  0  0  0  0  0
  1  2  1  0  0  0  0
  1  5  2  0  0  0  0
  2  6  2  0  0  0  0
  3  9  2  0  0  0  0
  3 18  1  0  0  0  0
  4 10  1  0  0  0  0
  4 18  2  0  0  0  0
  5 20  1  0  0  0  0
  6 22  1  0  0  0  0
  7 11  2  0  0  0  0
  7 21  1  0  0  0  0
  8 14  2  0  0  0  0
  8 24  1  0  0  0  0
  9 25  1  0  0  0  0
 10 25  2  0  0  0  0
 11 26  1  0  0  0  0
 12 13  2  0  0  0  0
 12 27  1  0  0  0  0
 13 28  1  0  0  0  0
 14 31  1  0  0  0  0
 15 23  1  0  0  0  0
 15 26  2  0  0  0  0
 16 28  2  0  0  0  0
 16 29  1  0  0  0  0
 17 24  2  0  0  0  0
 17 65  1  0  0  0  0
 18 30  1  0  0  0  0
 19 30  1  0  0  0  0
 19 32  2  0  0  0  0
 19 33  1  0  0  0  0
 20 22  2  0  0  0  0
 20 39  1  0  0  0  0
 21 23  2  0  0  0  0
 21 40  1  0  0  0  0
 22 49  1  0  0  0  0
 23 41  1  0  0  0  0
 24 59  1  0  0  0  0
 25 83  1  0  0  0  0
 26 84  1  0  0  0  0
 27 29  2  0  0  0  0
 27 83  1  0  0  0  0
 28 85  1  0  0  0  0
 29 86  1  0  0  0  0
 30 66  2  0  0  0  0
 31 50  1  0  0  0  0
 31 65  2  0  0  0  0
 32 67  1  0  0  0  0
 32 70  1  0  0  0  0
 33 71  1  0  0  0  0
 33 77  2  0  0  0  0
 34 51  1  0  0  0  0
 34 73  1  0  0  0  0
 34 78  2  0  0  0  0
 35 52  1  0  0  0  0
 35 72  1  0  0  0  0
 35 79  2  0  0  0  0
 36 62  1  0  0  0  0
 36 68  1  0  0  0  0
 36 80  2  0  0  0  0
 37 63  1  0  0  0  0
 37 74  1  0  0  0  0
 37 81  2  0  0  0  0
 38 69  1  0  0  0  0
 38 75  1  0  0  0  0
 38 82  2  0  0  0  0
 39 42  1  0  0  0  0
 40 52  1  0  0  0  0
 41 68  1  0  0  0  0
 42 44  1  0  0  0  0
 43 45  1  0  0  0  0
 43 47  1  0  0  0  0
 44 49  1  0  0  0  0
 45 53  1  0  0  0  0
 46 50  1  0  0  0  0
 46 51  1  0  0  0  0
 47 69  1  0  0  0  0
 48 53  1  0  0  0  0
 48 69  1  0  0  0  0
 49 72  1  0  0  0  0
 50 51  1  0  0  0  0
 52 68  1  0  0  0  0
 53 67  1  0  0  0  0
 54 63  1  0  0  0  0
 55 64  1  0  0  0  0
 56 64  1  0  0  0  0
 57 64  1  0  0  0  0
 58 76  1  0  0  0  0
 59 84  1  0  0  0  0
 60 61  1  0  0  0  0
 60 73  1  0  0  0  0
 61 75  1  0  0  0  0
 62 64  1  0  0  0  0
 62 74  1  0  0  0  0
 63 76  1  0  0  0  0
 66 67  1  0  0  0  0
M  CHG  1  76   1
M  ISO  4  38 100  59 101  75 100  84 101
M  END
> <Batch ID>
0125

> <Smiles>
CNC(C)C(=O)NC(C(=O)N1Cc2cc([101O:1][101CH2:1]c3ccc(C4CC4C(=O)NCC[100NH:0][100C:0](=O)N4CCCC(n5nc(-c6ccc(Oc7ccc(F)cc7F)cc6)c(C(N)=O)c5N)C4)nc3)ccc2CC1C(=O)NC1CCCc2ccccc21)C(C)(C)C

> <Shape>
0.183

> <Color>
0.178

> <Negative vol penalty>
0.000

$$$$

  -OEChem-04052320353D

 85 94  0     1  0  0  0  0  0999 V2000
  -28.5675  -34.8882   24.0980 C   0  0  0  0  0  0  0  0  0  0  0  0
  -29.2754  -33.7522   23.7188 C   0  0  0  0  0  0  0  0  0  0  0  0
  -24.5088  -11.5129   24.3717 C   0  0  0  0  0  0  0  0  0  0  0  0
  -23.3737  -13.4112   25.3439 C   0  0  0  0  0  0  0  0  0  0  0  0
  -27.2040  -34.7984   24.3749 C   0  0  0  0  0  0  0  0  0  0  0  0
  -28.6203  -32.5254   23.6173 C   0  0  0  0  0  0  0  0  0  0  0  0
  -28.7196  -26.4392   19.8405 C   0  0  0  0  0  0  0  0  0  0  0  0
  -23.9638  -10.6846   25.3527 C   0  0  0  0  0  0  0  0  0  0  0  0
  -22.8287  -12.5829   26.3249 C   0  0  0  0  0  0  0  0  0  0  0  0
  -28.7679  -25.0580   20.0246 C   0  0  0  0  0  0  0  0  0  0  0  0
  -22.5830   -8.0072   27.3874 C   0  0  0  0  0  0  0  0  0  0  0  0
  -22.0500   -6.7840   26.9806 C   0  0  0  0  0  0  0  0  0  0  0  0
  -26.3935  -25.0378   20.4504 C   0  0  0  0  0  0  0  0  0  0  0  0
  -20.4728   -7.9425   25.5637 C   0  0  0  0  0  0  0  0  0  0  0  0
  -24.2138  -12.8762   24.3673 C   0  0  0  0  0  0  0  0  0  0  0  0
  -24.2211  -14.0435   22.0990 C   0  0  0  0  0  0  0  0  0  0  0  0
  -26.5298  -33.5717   24.2674 C   0  0  0  0  0  0  0  0  0  0  0  0
  -27.5078  -27.1327   19.9710 C   0  0  0  0  0  0  0  0  0  0  0  0
  -27.2468  -32.4188   23.8943 C   0  0  0  0  0  0  0  0  0  0  0  0
  -26.3321  -26.4274   20.2649 C   0  0  0  0  0  0  0  0  0  0  0  0
  -23.1237  -11.2195   26.3293 C   0  0  0  0  0  0  0  0  0  0  0  0
  -27.6053  -24.3575   20.3324 C   0  0  0  0  0  0  0  0  0  0  0  0
  -22.0608   -9.1980   26.8824 C   0  0  0  0  0  0  0  0  0  0  0  0
  -20.9950   -6.7517   26.0688 C   0  0  0  0  0  0  0  0  0  0  0  0
  -21.0058   -9.1656   25.9706 C   0  0  0  0  0  0  0  0  0  0  0  0
  -24.7769  -13.7325   23.3545 C   0  0  0  0  0  0  0  0  0  0  0  0
  -25.1353  -14.8884   21.5186 C   0  0  0  0  0  0  0  0  0  0  0  0
  -22.9887  -13.6076   21.5101 C   0  0  0  0  0  0  0  0  0  0  0  0
  -26.4287  -29.4208   21.8955 C   0  0  0  0  0  0  0  0  0  0  0  0
  -23.8498  -29.3179   19.9306 C   0  0  0  0  0  0  0  0  0  0  0  0
  -21.9633  -27.5322   17.7171 C   0  0  0  0  0  0  0  0  0  0  0  0
  -30.6451  -15.7454   20.3954 C   0  0  0  0  0  0  0  0  0  0  0  0
  -25.0652  -33.5148   24.6227 C   0  0  0  0  0  0  0  0  0  0  0  0
  -27.4677  -28.6189   19.7430 C   0  0  0  0  0  0  0  0  0  0  0  0
  -25.0022  -27.1223   20.3960 C   0  0  0  0  0  0  0  0  0  0  0  0
  -24.3673  -32.2503   24.1285 C   0  0  0  0  0  0  0  0  0  0  0  0
  -29.6248  -16.2271   13.0971 C   0  0  0  0  0  0  0  0  0  0  0  0
  -29.1647  -17.2384   23.4476 C   0  0  0  0  0  0  0  0  0  0  0  0
  -25.2047  -31.0171   24.4520 C   0  0  0  0  0  0  0  0  0  0  0  0
  -27.8843  -16.4243   23.6253 C   0  0  0  0  0  0  0  0  0  0  0  0
  -28.8831  -16.6327   14.3886 C   0  0  0  0  0  0  0  0  0  0  0  0
  -30.5239  -15.3347   13.9790 C   0  0  0  0  0  0  0  0  0  0  0  0
  -30.2480  -16.4398   22.7296 C   0  0  0  0  0  0  0  0  0  0  0  0
  -31.0131  -14.4523   18.3157 C   0  0  0  0  0  0  0  0  0  0  0  0
  -28.5309  -15.0660   21.5953 C   0  0  0  0  0  0  0  0  0  0  0  0
  -28.8394  -15.5910   18.6184 C   0  0  0  0  0  0  0  0  0  0  0  0
  -31.2697  -15.2040   17.0177 C   0  0  0  0  0  0  0  0  0  0  0  0
  -26.5663  -31.0749   23.7490 C   0  0  1  0  0  0  0  0  0  0  0  0
  -26.2710  -29.2932   20.4067 C   0  0  1  0  0  0  0  0  0  0  0  0
  -27.4049  -15.8574   22.2779 C   0  0  1  0  0  0  0  0  0  0  0  0
  -30.1797  -16.2803   15.1512 C   0  0  0  0  0  0  0  0  0  0  0  0
  -29.0350  -16.3921   17.3194 C   0  0  1  0  0  0  0  0  0  0  0  0
  -19.8944  -27.7010   16.3070 C   0  0  0  0  0  0  0  0  0  0  0  0
  -22.1255  -28.9392   22.4192 C   0  0  0  0  0  0  0  0  0  0  0  0
  -20.2645  -28.1758   20.9286 C   0  0  0  0  0  0  0  0  0  0  0  0
  -21.1645  -30.4921   20.7106 C   0  0  0  0  0  0  0  0  0  0  0  0
  -23.4958  -27.1387   15.2160 C   0  0  0  0  0  0  0  0  0  0  0  0
  -29.5693  -17.7984   17.5991 C   0  0  0  0  0  0  0  0  0  0  0  0
  -28.6070  -18.6562   18.4163 C   0  0  0  0  0  0  0  0  0  0  0  0
  -29.1450  -20.0565   18.7185 C   0  0  0  0  0  0  0  0  0  0  0  0
  -28.1328  -20.8774   19.5162 C   0  0  0  0  0  0  0  0  0  0  0  0
  -28.6398  -22.2871   19.7856 C   0  0  0  0  0  0  0  0  0  1  0  0
  -22.5557  -28.5409   19.9048 C   0  0  1  0  0  0  0  0  0  0  0  0
  -21.4027  -27.8906   16.3527 C   0  0  2  0  0  0  0  0  0  0  0  0
  -21.5528  -29.0239   20.9903 C   0  0  0  0  0  0  0  0  0  0  0  0
  -25.9531  -14.3311   23.5602 N   0  0  0  0  0  0  0  0  0  0  0  0
  -26.1439  -15.0265   22.4262 N   0  0  0  0  0  0  0  0  0  0  0  0
  -25.0158  -28.5771   20.1701 N   0  0  0  0  0  0  0  0  0  0  0  0
  -29.7553  -15.8720   21.4747 N   0  0  0  0  0  0  0  0  0  0  0  0
  -30.1301  -15.2033   19.2081 N   0  0  0  0  0  0  0  0  0  0  0  0
  -25.1668  -15.5192   20.3254 N   0  0  0  0  0  0  0  0  0  0  0  0
  -22.1678  -12.7401   22.2435 N   0  0  0  0  0  0  0  0  0  0  0  0
  -26.4288  -30.7252   22.3515 N   0  0  0  0  0  0  0  0  0  0  0  0
  -22.0499  -28.6355   18.5396 N   0  0  0  0  0  0  0  0  0  0  0  0
  -29.9423  -15.5803   16.4173 N   0  3  2  0  0  0  0  0  0  0  0  0
  -22.0163  -27.0336   15.2991 N   0  3  0  0  0  0  0  0  0  0  0  0
  -22.6340  -13.9634   20.3607 O   0  0  0  0  0  0  0  0  0  0  0  0
  -26.5404  -28.4105   22.5800 O   0  0  0  0  0  0  0  0  0  0  0  0
  -23.8277  -30.5361   19.7379 O   0  0  0  0  0  0  0  0  0  0  0  0
  -22.2882  -26.3872   18.0240 O   0  0  0  0  0  0  0  0  0  0  0  0
  -31.8263  -16.1021   20.4866 O   0  0  0  0  0  0  0  0  0  0  0  0
  -22.5915  -10.4115   27.2866 O   0  0  0  0  0  0  0  0  0  0  0  0
  -27.6500  -22.9995   20.5146 O   0  0  0  0  0  0  0  0  0  1  0  0
  -20.4843   -5.5770   25.6771 F   0  0  0  0  0  0  0  0  0  0  0  0
  -20.5007  -10.3063   25.4810 F   0  0  0  0  0  0  0  0  0  0  0  0
  1  2  1  0  0  0  0
  1  5  2  0  0  0  0
  2  6  2  0  0  0  0
  3  8  2  0  0  0  0
  3 15  1  0  0  0  0
  4  9  1  0  0  0  0
  4 15  2  0  0  0  0
  5 17  1  0  0  0  0
  6 19  1  0  0  0  0
  7 10  2  0  0  0  0
  7 18  1  0  0  0  0
  8 21  1  0  0  0  0
  9 21  2  0  0  0  0
 10 22  1  0  0  0  0
 11 12  2  0  0  0  0
 11 23  1  0  0  0  0
 12 24  1  0  0  0  0
 13 20  1  0  0  0  0
 13 22  2  0  0  0  0
 14 24  2  0  0  0  0
 14 25  1  0  0  0  0
 15 26  1  0  0  0  0
 16 26  1  0  0  0  0
 16 27  2  0  0  0  0
 16 28  1  0  0  0  0
 17 19  2  0  0  0  0
 17 33  1  0  0  0  0
 18 20  2  0  0  0  0
 18 34  1  0  0  0  0
 19 48  1  0  0  0  0
 20 35  1  0  0  0  0
 21 82  1  0  0  0  0
 22 83  1  0  0  0  0
 23 25  2  0  0  0  0
 23 82  1  0  0  0  0
 24 84  1  0  0  0  0
 25 85  1  0  0  0  0
 26 66  2  0  0  0  0
 27 67  1  0  0  0  0
 27 71  1  0  0  0  0
 28 72  1  0  0  0  0
 28 77  2  0  0  0  0
 29 49  1  0  0  0  0
 29 73  1  0  0  0  0
 29 78  2  0  0  0  0
 30 63  1  0  0  0  0
 30 68  1  0  0  0  0
 30 79  2  0  0  0  0
 31 64  1  0  0  0  0
 31 74  1  0  0  0  0
 31 80  2  0  0  0  0
 32 69  1  0  0  0  0
 32 70  1  0  0  0  0
 32 81  2  0  0  0  0
 33 36  1  0  0  0  0
 34 49  1  0  0  0  0
 35 68  1  0  0  0  0
 36 39  1  0  0  0  0
 37 41  1  0  0  0  0
 37 42  1  0  0  0  0
 38 40  1  0  0  0  0
 38 43  1  0  0  0  0
 39 48  1  0  0  0  0
 40 50  1  0  0  0  0
 41 51  1  0  0  0  0
 42 51  1  0  0  0  0
 43 69  1  0  0  0  0
 44 47  1  0  0  0  0
 44 70  1  0  0  0  0
 45 50  1  0  0  0  0
 45 69  1  0  0  0  0
 46 52  1  0  0  0  0
 46 70  1  0  0  0  0
 47 75  1  0  0  0  0
 48 73  1  0  0  0  0
 49 68  1  0  0  0  0
 50 67  1  0  0  0  0
 51 75  1  0  0  0  0
 52 58  1  0  0  0  0
 52 75  1  0  0  0  0
 53 64  1  0  0  0  0
 54 65  1  0  0  0  0
 55 65  1  0  0  0  0
 56 65  1  0  0  0  0
 57 76  1  0  0  0  0
 58 59  1  0  0  0  0
 59 60  1  0  0  0  0
 60 61  1  0  0  0  0
 61 62  1  0  0  0  0
 62 83  1  0  0  0  0
 63 65  1  0  0  0  0
 63 74  1  0  0  0  0
 64 76  1  0  0  0  0
 66 67  1  0  0  0  0
M  CHG  2  75   1  76   1
M  ISO  4  32 100  62 101  70 100  83 101
M  END
> <Batch ID>
0125

> <Smiles>
CNC(C)C(=O)NC(C(=O)N1Cc2cc([101O:1][101CH2:1]CCCCC3C[100N:0]([100C:0](=O)N4CCCC(n5nc(-c6ccc(Oc7ccc(F)cc7F)cc6)c(C(N)=O)c5N)C4)CCN3C3CCC3)ccc2CC1C(=O)NC1CCCc2ccccc21)C(C)(C)C

> <Shape>
0.221

> <Color>
0.079

> <Negative vol penalty>
0.000

$$$$

  -OEChem-04052320353D

 91100  0     1  0  0  0  0  0999 V2000
  -16.8191  -20.3574   24.1920 C   0  0  0  0  0  0  0  0  0  0  0  0
  -17.8957  -21.1517   23.8105 C   0  0  0  0  0  0  0  0  0  0  0  0
  -29.0979  -17.6942   19.3168 C   0  0  0  0  0  0  0  0  0  0  0  0
  -30.4514  -18.1216   21.2719 C   0  0  0  0  0  0  0  0  0  0  0  0
  -16.7786  -19.0144   23.8195 C   0  0  0  0  0  0  0  0  0  0  0  0
  -18.9330  -20.6031   23.0572 C   0  0  0  0  0  0  0  0  0  0  0  0
  -20.3414  -23.5950   19.2218 C   0  0  0  0  0  0  0  0  0  0  0  0
  -29.6216  -16.4040   19.2362 C   0  0  0  0  0  0  0  0  0  0  0  0
  -30.9752  -16.8313   21.1913 C   0  0  0  0  0  0  0  0  0  0  0  0
  -21.1522  -24.6864   19.5303 C   0  0  0  0  0  0  0  0  0  0  0  0
  -29.1525  -13.4252   20.7658 C   0  0  0  0  0  0  0  0  0  0  0  0
  -28.2616  -12.3772   20.5344 C   0  0  0  0  0  0  0  0  0  0  0  0
  -23.0871  -23.4504   18.7902 C   0  0  0  0  0  0  0  0  0  0  0  0
  -25.3329  -27.9355   19.0015 C   0  0  0  0  0  0  0  0  0  0  0  0
  -26.1602  -26.8156   20.9758 C   0  0  0  0  0  0  0  0  0  0  0  0
  -29.4400  -11.8249   18.4988 C   0  0  0  0  0  0  0  0  0  0  0  0
  -29.5128  -18.5531   20.3346 C   0  0  0  0  0  0  0  0  0  0  0  0
  -27.8251  -20.2959   21.1232 C   0  0  0  0  0  0  0  0  0  0  0  0
  -17.8112  -18.4516   23.0530 C   0  0  0  0  0  0  0  0  0  0  0  0
  -20.8996  -22.4172   18.7046 C   0  0  0  0  0  0  0  0  0  0  0  0
  -18.9069  -19.2510   22.6752 C   0  0  0  0  0  0  0  0  0  0  0  0
  -22.2809  -22.3464   18.4736 C   0  0  0  0  0  0  0  0  0  0  0  0
  -25.4200  -26.7909   19.7938 C   0  0  0  0  0  0  0  0  0  0  0  0
  -25.9860  -29.1049   19.3911 C   0  0  0  0  0  0  0  0  0  0  0  0
  -26.8133  -27.9849   21.3655 C   0  0  0  0  0  0  0  0  0  0  0  0
  -26.7261  -29.1296   20.5732 C   0  0  0  0  0  0  0  0  0  0  0  0
  -30.5602  -15.9725   20.1735 C   0  0  0  0  0  0  0  0  0  0  0  0
  -22.5256  -24.6132   19.3172 C   0  0  0  0  0  0  0  0  0  0  0  0
  -30.1872  -13.6731   19.8637 C   0  0  0  0  0  0  0  0  0  0  0  0
  -28.4054  -11.5771   19.4009 C   0  0  0  0  0  0  0  0  0  0  0  0
  -30.3309  -12.8730   18.7302 C   0  0  0  0  0  0  0  0  0  0  0  0
  -28.9726  -19.8862   20.4180 C   0  0  0  0  0  0  0  0  0  0  0  0
  -27.7409  -21.6463   20.8873 C   0  0  0  0  0  0  0  0  0  0  0  0
  -26.9165  -19.5246   21.9203 C   0  0  0  0  0  0  0  0  0  0  0  0
  -21.0681  -19.3972   19.6818 C   0  0  0  0  0  0  0  0  0  0  0  0
  -22.3841  -18.9318   16.7537 C   0  0  0  0  0  0  0  0  0  0  0  0
  -24.0517  -20.2503   14.0840 C   0  0  0  0  0  0  0  0  0  0  0  0
  -30.1274  -26.6756   20.4916 C   0  0  0  0  0  0  0  0  0  0  0  0
  -17.7464  -16.9833   22.7145 C   0  0  0  0  0  0  0  0  0  0  0  0
  -20.0080  -21.2583   18.3520 C   0  0  0  0  0  0  0  0  0  0  0  0
  -22.9269  -21.1121   17.9012 C   0  0  0  0  0  0  0  0  0  0  0  0
  -18.7030  -16.5729   21.5979 C   0  0  0  0  0  0  0  0  0  0  0  0
  -20.6440  -32.5772   24.2512 C   0  0  0  0  0  0  0  0  0  0  0  0
  -21.7275  -33.5212   24.7631 C   0  0  0  0  0  0  0  0  0  0  0  0
  -21.2244  -31.2278   23.8394 C   0  0  0  0  0  0  0  0  0  0  0  0
  -30.2476  -24.5794   17.6161 C   0  0  0  0  0  0  0  0  0  0  0  0
  -20.0880  -17.1660   21.8366 C   0  0  0  0  0  0  0  0  0  0  0  0
  -22.8580  -33.6837   23.7495 C   0  0  0  0  0  0  0  0  0  0  0  0
  -22.3541  -31.3864   22.8244 C   0  0  0  0  0  0  0  0  0  0  0  0
  -29.8382  -23.2049   18.1481 C   0  0  0  0  0  0  0  0  0  0  0  0
  -31.0877  -25.3504   18.6319 C   0  0  0  0  0  0  0  0  0  0  0  0
  -30.0674  -24.1079   20.4999 C   0  0  0  0  0  0  0  0  0  0  0  0
  -20.0392  -18.6986   21.8368 C   0  0  1  0  0  0  0  0  0  0  0  0
  -20.7486  -19.9251   18.3118 C   0  0  1  0  0  0  0  0  0  0  0  0
  -23.4504  -32.3287   23.3394 C   0  0  0  0  0  0  0  0  0  0  0  0
  -29.1717  -23.3152   19.5326 C   0  0  2  0  0  0  0  0  0  0  0  0
  -25.8759  -30.3173   18.5254 C   0  0  0  0  0  0  0  0  0  0  0  0
  -25.0216  -19.6158   11.8582 C   0  0  0  0  0  0  0  0  0  0  0  0
  -24.7425  -17.6041   18.1627 C   0  0  0  0  0  0  0  0  0  0  0  0
  -26.0583  -17.8565   16.0477 C   0  0  0  0  0  0  0  0  0  0  0  0
  -23.9952  -16.4545   16.0712 C   0  0  0  0  0  0  0  0  0  0  0  0
  -22.2708  -22.1244   12.6433 C   0  0  0  0  0  0  0  0  0  0  0  0
  -27.5994  -27.9853   22.6359 C   0  0  0  0  0  0  0  0  0  0  0  0
  -27.4259  -30.3836   20.9909 C   0  0  0  0  0  0  0  0  0  0  0  0
  -24.7181  -25.5328   19.3743 C   0  0  0  0  0  0  0  0  0  1  0  0
  -24.5415  -32.5134   22.2864 C   0  0  0  0  0  0  0  0  0  0  0  0
  -29.1115  -27.8632   22.4195 C   0  0  0  0  0  0  0  0  0  0  0  0
  -25.4324  -31.2848   22.1962 C   0  0  0  0  0  0  0  0  0  0  0  0
  -23.7851  -18.9711   16.1927 C   0  0  1  0  0  0  0  0  0  0  0  0
  -23.8006  -20.1505   12.5902 C   0  0  2  0  0  0  0  0  0  0  0  0
  -24.6337  -17.7442   16.6312 C   0  0  0  0  0  0  0  0  0  0  0  0
  -29.5741  -20.8948   19.7817 N   0  0  0  0  0  0  0  0  0  0  0  0
  -28.8016  -21.9515   20.0861 N   0  0  0  0  0  0  0  0  0  0  0  0
  -22.0137  -20.0033   17.5786 N   0  0  0  0  0  0  0  0  0  0  0  0
  -30.3985  -25.4202   19.9227 N   0  0  0  0  0  0  0  0  0  0  0  0
  -26.8638  -22.5906   21.2890 N   0  0  0  0  0  0  0  0  0  0  0  0
  -27.1502  -18.1496   22.0581 N   0  0  0  0  0  0  0  0  0  0  0  0
  -19.9589  -19.2020   20.4824 N   0  0  0  0  0  0  0  0  0  0  0  0
  -23.6424  -19.1132   14.7478 N   0  0  0  0  0  0  0  0  0  0  0  0
  -29.4655  -26.6522   21.7131 N   0  0  0  0  0  0  0  0  0  0  0  0
  -23.4666  -21.4907   12.0304 N   0  3  0  0  0  0  0  0  0  0  0  0
  -26.5020  -31.5315   21.1933 N   0  3  0  0  0  0  0  0  0  0  0  0
  -25.9174  -20.0366   22.4799 O   0  0  0  0  0  0  0  0  0  0  0  0
  -22.2346  -19.1814   19.9893 O   0  0  0  0  0  0  0  0  0  0  0  0
  -21.6432  -17.9888   16.4647 O   0  0  0  0  0  0  0  0  0  0  0  0
  -24.5634  -21.2368   14.6090 O   0  0  0  0  0  0  0  0  0  0  0  0
  -30.4464  -27.7386   19.9483 O   0  0  0  0  0  0  0  0  0  0  0  0
  -31.0714  -14.7134   20.0953 O   0  0  0  0  0  0  0  0  0  0  0  0
  -23.3194  -25.6768   19.6180 O   0  0  0  0  0  0  0  0  0  1  0  0
  -27.5507  -10.5697   19.1796 F   0  0  0  0  0  0  0  0  0  0  0  0
  -31.3236  -13.1055   17.8606 F   0  0  0  0  0  0  0  0  0  0  0  0
  1  2  1  0  0  0  0
  1  5  2  0  0  0  0
  2  6  2  0  0  0  0
  3  8  2  0  0  0  0
  3 17  1  0  0  0  0
  4  9  1  0  0  0  0
  4 17  2  0  0  0  0
  5 19  1  0  0  0  0
  6 21  1  0  0  0  0
  7 10  2  0  0  0  0
  7 20  1  0  0  0  0
  8 27  1  0  0  0  0
  9 27  2  0  0  0  0
 10 28  1  0  0  0  0
 11 12  2  0  0  0  0
 11 29  1  0  0  0  0
 12 30  1  0  0  0  0
 13 22  1  0  0  0  0
 13 28  2  0  0  0  0
 14 23  1  0  0  0  0
 14 24  2  0  0  0  0
 15 23  2  0  0  0  0
 15 25  1  0  0  0  0
 16 30  2  0  0  0  0
 16 31  1  0  0  0  0
 17 32  1  0  0  0  0
 18 32  1  0  0  0  0
 18 33  2  0  0  0  0
 18 34  1  0  0  0  0
 19 21  2  0  0  0  0
 19 39  1  0  0  0  0
 20 22  2  0  0  0  0
 20 40  1  0  0  0  0
 21 53  1  0  0  0  0
 22 41  1  0  0  0  0
 23 65  1  0  0  0  0
 24 26  1  0  0  0  0
 24 57  1  0  0  0  0
 25 26  2  0  0  0  0
 25 63  1  0  0  0  0
 26 64  1  0  0  0  0
 27 88  1  0  0  0  0
 28 89  1  0  0  0  0
 29 31  2  0  0  0  0
 29 88  1  0  0  0  0
 30 90  1  0  0  0  0
 31 91  1  0  0  0  0
 32 72  2  0  0  0  0
 33 73  1  0  0  0  0
 33 76  1  0  0  0  0
 34 77  1  0  0  0  0
 34 83  2  0  0  0  0
 35 54  1  0  0  0  0
 35 78  1  0  0  0  0
 35 84  2  0  0  0  0
 36 69  1  0  0  0  0
 36 74  1  0  0  0  0
 36 85  2  0  0  0  0
 37 70  1  0  0  0  0
 37 79  1  0  0  0  0
 37 86  2  0  0  0  0
 38 75  1  0  0  0  0
 38 80  1  0  0  0  0
 38 87  2  0  0  0  0
 39 42  1  0  0  0  0
 40 54  1  0  0  0  0
 41 74  1  0  0  0  0
 42 47  1  0  0  0  0
 43 44  1  0  0  0  0
 43 45  1  0  0  0  0
 44 48  1  0  0  0  0
 45 49  1  0  0  0  0
 46 50  1  0  0  0  0
 46 51  1  0  0  0  0
 47 53  1  0  0  0  0
 48 55  1  0  0  0  0
 49 55  1  0  0  0  0
 50 56  1  0  0  0  0
 51 75  1  0  0  0  0
 52 56  1  0  0  0  0
 52 75  1  0  0  0  0
 53 78  1  0  0  0  0
 54 74  1  0  0  0  0
 55 66  1  0  0  0  0
 56 73  1  0  0  0  0
 58 70  1  0  0  0  0
 59 71  1  0  0  0  0
 60 71  1  0  0  0  0
 61 71  1  0  0  0  0
 62 81  1  0  0  0  0
 63 67  1  0  0  0  0
 64 82  1  0  0  0  0
 65 89  1  0  0  0  0
 66 68  1  0  0  0  0
 67 80  1  0  0  0  0
 68 82  1  0  0  0  0
 69 71  1  0  0  0  0
 69 79  1  0  0  0  0
 70 81  1  0  0  0  0
 72 73  1  0  0  0  0
M  CHG  2  81   1  82   1
M  ISO  4  38 100  65 101  80 100  89 101
M  END
> <Batch ID>
0125

> <Smiles>
CNC(C)C(=O)NC(C(=O)N1Cc2cc([101O:1][101CH2:1]c3cc(C)c(CNCCC4CCCCC4)c(CC[100NH:0][100C:0](=O)N4CCCC(n5nc(-c6ccc(Oc7ccc(F)cc7F)cc6)c(C(N)=O)c5N)C4)c3)ccc2CC1C(=O)NC1CCCc2ccccc21)C(C)(C)C

> <Shape>
0.216

> <Color>
0.059

> <Negative vol penalty>
0.000

$$$$

  -OEChem-04052320353D

 95105  0     1  0  0  0  0  0999 V2000
  -28.0131  -37.1205   20.9812 C   0  0  0  0  0  0  0  0  0  0  0  0
  -28.5357  -35.9132   20.5290 C   0  0  0  0  0  0  0  0  0  0  0  0
  -28.0270  -11.8140   22.8661 C   0  0  0  0  0  0  0  0  0  0  0  0
  -26.5273  -12.9583   21.3565 C   0  0  0  0  0  0  0  0  0  0  0  0
  -27.3028  -37.1659   22.1801 C   0  0  0  0  0  0  0  0  0  0  0  0
  -28.3494  -34.7506   21.2760 C   0  0  0  0  0  0  0  0  0  0  0  0
  -25.1668  -27.9260   19.1969 C   0  0  0  0  0  0  0  0  0  0  0  0
  -26.9731  -11.0133   23.3062 C   0  0  0  0  0  0  0  0  0  0  0  0
  -25.4734  -12.1575   21.7966 C   0  0  0  0  0  0  0  0  0  0  0  0
  -24.4827  -26.7272   18.9939 C   0  0  0  0  0  0  0  0  0  0  0  0
  -24.3385   -9.0200   21.2592 C   0  0  0  0  0  0  0  0  0  0  0  0
  -23.4910   -8.4782   20.2929 C   0  0  0  0  0  0  0  0  0  0  0  0
  -24.0041  -26.5873   21.3601 C   0  0  0  0  0  0  0  0  0  0  0  0
  -21.6161   -9.6284   21.2925 C   0  0  0  0  0  0  0  0  0  0  0  0
  -27.8041  -12.7866   21.8913 C   0  0  0  0  0  0  0  0  0  0  0  0
  -30.0865  -13.1884   20.8251 C   0  0  0  0  0  0  0  0  0  0  0  0
  -27.0993  -36.0015   22.9374 C   0  0  0  0  0  0  0  0  0  0  0  0
  -25.2590  -28.4685   20.4816 C   0  0  0  0  0  0  0  0  0  0  0  0
  -27.6368  -34.7807   22.4868 C   0  0  0  0  0  0  0  0  0  0  0  0
  -24.6773  -27.7941   21.5678 C   0  0  0  0  0  0  0  0  0  0  0  0
  -25.6963  -11.1850   22.7714 C   0  0  0  0  0  0  0  0  0  0  0  0
  -23.9030  -26.0594   20.0729 C   0  0  0  0  0  0  0  0  0  0  0  0
  -23.8248   -9.8659   22.2422 C   0  0  0  0  0  0  0  0  0  0  0  0
  -22.1298   -8.7824   20.3095 C   0  0  0  0  0  0  0  0  0  0  0  0
  -22.4637  -10.1701   22.2588 C   0  0  0  0  0  0  0  0  0  0  0  0
  -28.8923  -13.6144   21.4368 C   0  0  0  0  0  0  0  0  0  0  0  0
  -30.7830  -14.3480   20.5871 C   0  0  0  0  0  0  0  0  0  0  0  0
  -25.3201  -21.4321   19.8578 C   0  0  0  0  0  0  0  0  0  0  0  0
  -30.5268  -11.8630   20.5009 C   0  0  0  0  0  0  0  0  0  0  0  0
  -25.6240  -19.9388   17.8504 C   0  0  0  0  0  0  0  0  0  0  0  0
  -26.5118  -31.2647   22.6466 C   0  0  0  0  0  0  0  0  0  0  0  0
  -23.6970  -30.5599   23.6418 C   0  0  0  0  0  0  0  0  0  0  0  0
  -20.4201  -29.7643   24.1575 C   0  0  0  0  0  0  0  0  0  0  0  0
  -29.0876  -20.0401   19.8279 C   0  0  0  0  0  0  0  0  0  0  0  0
  -26.3655  -36.1086   24.2506 C   0  0  0  0  0  0  0  0  0  0  0  0
  -26.0388  -29.7256   20.7561 C   0  0  0  0  0  0  0  0  0  0  0  0
  -24.8315  -28.3972   22.9372 C   0  0  0  0  0  0  0  0  0  0  0  0
  -25.8909  -34.7636   24.7947 C   0  0  0  0  0  0  0  0  0  0  0  0
  -31.3504  -18.7887   22.2753 C   0  0  0  0  0  0  0  0  0  0  0  0
  -27.0089  -33.7293   24.7108 C   0  0  0  0  0  0  0  0  0  0  0  0
  -22.2339  -15.5932   18.4231 C   0  0  0  0  0  0  0  0  0  0  0  0
  -31.0848  -17.2822   22.2827 C   0  0  0  0  0  0  0  0  0  0  0  0
  -23.1127  -16.6604   17.7725 C   0  0  0  0  0  0  0  0  0  0  0  0
  -29.2393  -20.3824   16.5825 C   0  0  0  0  0  0  0  0  0  0  0  0
  -23.8372  -21.6681   18.0049 C   0  0  0  0  0  0  0  0  0  0  0  0
  -30.0670  -19.5870   22.0576 C   0  0  0  0  0  0  0  0  0  0  0  0
  -29.0265  -17.6940   20.8711 C   0  0  0  0  0  0  0  0  0  0  0  0
  -28.8783  -21.1777   15.3371 C   0  0  0  0  0  0  0  0  0  0  0  0
  -26.4594  -20.6232   15.6553 C   0  0  0  0  0  0  0  0  0  0  0  0
  -23.9198  -15.3645   20.2861 C   0  0  0  0  0  0  0  0  0  0  0  0
  -27.4344  -33.4935   23.2566 C   0  0  1  0  0  0  0  0  0  0  0  0
  -25.2836  -21.3013   18.3523 C   0  0  1  0  0  0  0  0  0  0  0  0
  -26.7898  -19.8256   16.9133 C   0  0  1  0  0  0  0  0  0  0  0  0
  -25.4202  -30.5882   21.8708 C   0  0  1  0  0  0  0  0  0  0  0  0
  -22.4417  -15.5420   19.9425 C   0  0  2  0  0  0  0  0  0  0  0  0
  -30.2993  -16.8452   21.0316 C   0  0  2  0  0  0  0  0  0  0  0  0
  -28.0771  -20.3339   17.5802 C   0  0  1  0  0  0  0  0  0  0  0  0
  -23.4095  -22.6152   19.1207 C   0  0  2  0  0  0  0  0  0  0  0  0
  -24.5860  -16.4747   18.1321 C   0  0  1  0  0  0  0  0  0  0  0  0
  -21.7675  -14.3736   22.0470 C   0  0  0  0  0  0  0  0  0  0  0  0
  -18.4583  -30.3416   25.6120 C   0  0  0  0  0  0  0  0  0  0  0  0
  -24.9291  -28.9639   25.9306 C   0  0  0  0  0  0  0  0  0  0  0  0
  -22.6416  -28.7640   26.9284 C   0  0  0  0  0  0  0  0  0  0  0  0
  -23.6823  -31.0126   26.6396 C   0  0  0  0  0  0  0  0  0  0  0  0
  -18.8154  -30.6594   21.8374 C   0  0  0  0  0  0  0  0  0  0  0  0
  -21.6123  -14.4191   20.5623 C   0  0  0  0  0  0  0  0  0  0  0  0
  -23.6690  -24.0767   18.7800 C   0  0  0  0  0  0  0  0  0  1  0  0
  -25.4498  -17.5995   17.5996 C   0  0  0  0  0  0  0  0  0  0  0  0
  -22.8602  -29.7567   24.6051 C   0  0  1  0  0  0  0  0  0  0  0  0
  -19.1840  -30.6327   24.3077 C   0  0  2  0  0  0  0  0  0  0  0  0
  -23.5334  -29.6152   25.9995 C   0  0  0  0  0  0  0  0  0  0  0  0
  -28.8304  -14.9411   21.5787 N   0  0  0  0  0  0  0  0  0  0  0  0
  -24.9982  -18.8581   18.1737 N   0  0  0  0  0  0  0  0  0  0  0  0
  -29.9945  -15.3587   21.0529 N   0  0  0  0  0  0  0  0  0  0  0  0
  -24.2192  -22.1916   20.2353 N   0  0  0  0  0  0  0  0  0  0  0  0
  -24.6278  -29.8528   22.8709 N   0  0  0  0  0  0  0  0  0  0  0  0
  -29.3707  -19.1244   20.8546 N   0  0  0  0  0  0  0  0  0  0  0  0
  -31.9870  -14.5915   20.0271 N   0  0  0  0  0  0  0  0  0  0  0  0
  -29.6878  -10.7849   20.8142 N   0  0  0  0  0  0  0  0  0  0  0  0
  -26.4767  -32.6446   22.5810 N   0  0  0  0  0  0  0  0  0  0  0  0
  -21.5487  -30.3950   24.6368 N   0  0  0  0  0  0  0  0  0  0  0  0
  -28.4310  -19.5178   18.7202 N   0  0  0  0  0  0  0  0  0  0  0  0
  -27.6351  -20.6117   14.7369 N   0  3  0  0  0  0  0  0  0  0  0  0
  -24.7146  -16.4450   19.6268 N   0  3  0  0  0  0  0  0  0  0  0  0
  -18.2402  -30.3896   23.1803 N   0  3  0  0  0  0  0  0  0  0  0  0
  -26.1763  -20.9643   20.5931 O   0  0  0  0  0  0  0  0  0  0  0  0
  -31.6386  -11.6400   19.9645 O   0  0  0  0  0  0  0  0  0  0  0  0
  -27.3260  -30.5859   23.2614 O   0  0  0  0  0  0  0  0  0  0  0  0
  -23.5359  -31.7818   23.5765 O   0  0  0  0  0  0  0  0  0  0  0  0
  -20.3870  -28.6376   23.6677 O   0  0  0  0  0  0  0  0  0  0  0  0
  -29.4017  -21.2336   19.8911 O   0  0  0  0  0  0  0  0  0  0  0  0
  -24.6677  -10.4036   23.2004 O   0  0  0  0  0  0  0  0  0  0  0  0
  -23.2328  -24.8919   19.8670 O   0  0  0  0  0  0  0  0  0  1  0  0
  -21.3163   -8.2633   19.3806 F   0  0  0  0  0  0  0  0  0  0  0  0
  -21.9646  -10.9832   23.2000 F   0  0  0  0  0  0  0  0  0  0  0  0
  1  2  1  0  0  0  0
  1  5  2  0  0  0  0
  2  6  2  0  0  0  0
  3  8  2  0  0  0  0
  3 15  1  0  0  0  0
  4  9  1  0  0  0  0
  4 15  2  0  0  0  0
  5 17  1  0  0  0  0
  6 19  1  0  0  0  0
  7 10  2  0  0  0  0
  7 18  1  0  0  0  0
  8 21  1  0  0  0  0
  9 21  2  0  0  0  0
 10 22  1  0  0  0  0
 11 12  2  0  0  0  0
 11 23  1  0  0  0  0
 12 24  1  0  0  0  0
 13 20  1  0  0  0  0
 13 22  2  0  0  0  0
 14 24  2  0  0  0  0
 14 25  1  0  0  0  0
 15 26  1  0  0  0  0
 16 26  1  0  0  0  0
 16 27  2  0  0  0  0
 16 29  1  0  0  0  0
 17 19  2  0  0  0  0
 17 35  1  0  0  0  0
 18 20  2  0  0  0  0
 18 36  1  0  0  0  0
 19 51  1  0  0  0  0
 20 37  1  0  0  0  0
 21 92  1  0  0  0  0
 22 93  1  0  0  0  0
 23 25  2  0  0  0  0
 23 92  1  0  0  0  0
 24 94  1  0  0  0  0
 25 95  1  0  0  0  0
 26 72  2  0  0  0  0
 27 74  1  0  0  0  0
 27 78  1  0  0  0  0
 28 52  1  0  0  0  0
 28 75  1  0  0  0  0
 28 86  2  0  0  0  0
 29 79  1  0  0  0  0
 29 87  2  0  0  0  0
 30 52  1  0  0  0  0
 30 53  1  0  0  0  0
 30 73  2  0  0  0  0
 31 54  1  0  0  0  0
 31 80  1  0  0  0  0
 31 88  2  0  0  0  0
 32 69  1  0  0  0  0
 32 76  1  0  0  0  0
 32 89  2  0  0  0  0
 33 70  1  0  0  0  0
 33 81  1  0  0  0  0
 33 90  2  0  0  0  0
 34 77  1  0  0  0  0
 34 82  1  0  0  0  0
 34 91  2  0  0  0  0
 35 38  1  0  0  0  0
 36 54  1  0  0  0  0
 37 76  1  0  0  0  0
 38 40  1  0  0  0  0
 39 42  1  0  0  0  0
 39 46  1  0  0  0  0
 40 51  1  0  0  0  0
 41 43  1  0  0  0  0
 41 55  1  0  0  0  0
 42 56  1  0  0  0  0
 43 59  1  0  0  0  0
 44 48  1  0  0  0  0
 44 57  1  0  0  0  0
 45 52  1  0  0  0  0
 45 58  1  0  0  0  0
 46 77  1  0  0  0  0
 47 56  1  0  0  0  0
 47 77  1  0  0  0  0
 48 83  1  0  0  0  0
 49 53  1  0  0  0  0
 49 83  1  0  0  0  0
 50 55  1  0  0  0  0
 50 84  1  0  0  0  0
 51 80  1  0  0  0  0
 53 57  1  0  0  0  0
 54 76  1  0  0  0  0
 55 66  1  0  0  0  0
 56 74  1  0  0  0  0
 57 82  1  0  0  0  0
 58 67  1  0  0  0  0
 58 75  1  0  0  0  0
 59 68  1  0  0  0  0
 59 84  1  0  0  0  0
 60 66  1  0  0  0  0
 61 70  1  0  0  0  0
 62 71  1  0  0  0  0
 63 71  1  0  0  0  0
 64 71  1  0  0  0  0
 65 85  1  0  0  0  0
 67 93  1  0  0  0  0
 68 73  1  0  0  0  0
 69 71  1  0  0  0  0
 69 81  1  0  0  0  0
 70 85  1  0  0  0  0
 72 74  1  0  0  0  0
M  CHG  3  83   1  84   1  85   1
M  ISO  4  34 100  67 101  82 100  93 101
M  END
> <Batch ID>
0125

> <Smiles>
CCC1CCC(CNC(=C2CC([101CH2:1][101O:1]c3ccc4c(c3)CN(C(=O)C(NC(=O)C(C)NC)C(C)(C)C)C(C(=O)NC3CCCc5ccccc53)C4)NC2=O)C2CNCCC2[100NH:0][100C:0](=O)N2CCCC(n3nc(-c4ccc(Oc5ccc(F)cc5F)cc4)c(C(N)=O)c3N)C2)NC1

> <Shape>
0.267

> <Color>
0.060

> <Negative vol penalty>
0.000

$$$$

  -OEChem-04052320353D

 88 98  0     1  0  0  0  0  0999 V2000
  -18.5324  -31.6909   25.6970 C   0  0  0  0  0  0  0  0  0  0  0  0
  -19.9188  -31.7365   25.5907 C   0  0  0  0  0  0  0  0  0  0  0  0
  -26.5257  -13.0647   20.0344 C   0  0  0  0  0  0  0  0  0  0  0  0
  -24.5691  -13.4433   21.4002 C   0  0  0  0  0  0  0  0  0  0  0  0
  -17.8221  -30.6527   25.0957 C   0  0  0  0  0  0  0  0  0  0  0  0
  -20.5958  -30.7433   24.8838 C   0  0  0  0  0  0  0  0  0  0  0  0
  -32.7685  -25.6713   19.0851 C   0  0  0  0  0  0  0  0  0  0  0  0
  -26.3835  -29.7745   20.7753 C   0  0  0  0  0  0  0  0  0  0  0  0
  -31.7523  -26.6037   19.2773 C   0  0  0  0  0  0  0  0  0  0  0  0
  -25.9581  -11.8872   19.5476 C   0  0  0  0  0  0  0  0  0  0  0  0
  -24.0015  -12.2658   20.9134 C   0  0  0  0  0  0  0  0  0  0  0  0
  -27.5087  -28.9574   20.6751 C   0  0  0  0  0  0  0  0  0  0  0  0
  -24.2969   -8.9435   21.4665 C   0  0  0  0  0  0  0  0  0  0  0  0
  -23.6964   -8.0847   22.3870 C   0  0  0  0  0  0  0  0  0  0  0  0
  -30.8848  -25.2642   21.0868 C   0  0  0  0  0  0  0  0  0  0  0  0
  -26.1708  -27.2556   19.6106 C   0  0  0  0  0  0  0  0  0  0  0  0
  -21.5900   -8.3130   21.2260 C   0  0  0  0  0  0  0  0  0  0  0  0
  -25.8313  -13.8427   20.9607 C   0  0  0  0  0  0  0  0  0  0  0  0
  -27.6279  -15.1901   22.1708 C   0  0  0  0  0  0  0  0  0  0  0  0
  -18.4899  -29.6516   24.3729 C   0  0  0  0  0  0  0  0  0  0  0  0
  -32.8576  -24.5271   19.8963 C   0  0  0  0  0  0  0  0  0  0  0  0
  -25.1391  -29.3332   20.3029 C   0  0  0  0  0  0  0  0  0  0  0  0
  -19.8938  -29.6901   24.2734 C   0  0  0  0  0  0  0  0  0  0  0  0
  -31.8861  -24.2956   20.8929 C   0  0  0  0  0  0  0  0  0  0  0  0
  -25.0318  -28.0700   19.7036 C   0  0  0  0  0  0  0  0  0  0  0  0
  -30.8147  -26.4035   20.2829 C   0  0  0  0  0  0  0  0  0  0  0  0
  -24.6960  -11.4878   19.9871 C   0  0  0  0  0  0  0  0  0  0  0  0
  -27.4019  -27.6966   20.0954 C   0  0  0  0  0  0  0  0  0  0  0  0
  -23.5439   -9.4871   20.4257 C   0  0  0  0  0  0  0  0  0  0  0  0
  -22.3429   -7.7694   22.2668 C   0  0  0  0  0  0  0  0  0  0  0  0
  -22.1905   -9.1719   20.3054 C   0  0  0  0  0  0  0  0  0  0  0  0
  -26.4173  -15.0588   21.4644 C   0  0  0  0  0  0  0  0  0  0  0  0
  -27.7355  -16.5364   22.4206 C   0  0  0  0  0  0  0  0  0  0  0  0
  -28.5710  -14.1849   22.5658 C   0  0  0  0  0  0  0  0  0  0  0  0
  -22.3073  -28.7684   21.6316 C   0  0  0  0  0  0  0  0  0  0  0  0
  -21.3915  -28.3055   18.5544 C   0  0  0  0  0  0  0  0  0  0  0  0
  -22.2779  -27.5098   15.3562 C   0  0  0  0  0  0  0  0  0  0  0  0
  -27.3501  -21.8441   20.7398 C   0  0  0  0  0  0  0  0  0  0  0  0
  -17.6832  -28.5235   23.7801 C   0  0  0  0  0  0  0  0  0  0  0  0
  -33.9808  -23.5550   19.6363 C   0  0  0  0  0  0  0  0  0  0  0  0
  -23.9404  -30.2372   20.3942 C   0  0  0  0  0  0  0  0  0  0  0  0
  -23.7230  -27.5575   19.1626 C   0  0  0  0  0  0  0  0  0  0  0  0
  -18.4444  -27.7154   22.7324 C   0  0  0  0  0  0  0  0  0  0  0  0
  -34.2374  -22.6203   20.8115 C   0  0  0  0  0  0  0  0  0  0  0  0
  -24.3643  -20.2669   21.8685 C   0  0  0  0  0  0  0  0  0  0  0  0
  -32.9278  -21.9981   21.2706 C   0  0  0  0  0  0  0  0  0  0  0  0
  -19.8438  -27.3741   23.2345 C   0  0  0  0  0  0  0  0  0  0  0  0
  -24.7303  -18.7824   21.9162 C   0  0  0  0  0  0  0  0  0  0  0  0
  -29.9121  -23.0030   23.2898 C   0  0  0  0  0  0  0  0  0  0  0  0
  -25.0309  -20.9750   20.6911 C   0  0  0  0  0  0  0  0  0  0  0  0
  -26.8604  -19.3240   20.6640 C   0  0  0  0  0  0  0  0  0  0  0  0
  -28.9196  -21.9357   23.7205 C   0  0  0  0  0  0  0  0  0  0  0  0
  -30.7593  -20.9491   22.4557 C   0  0  0  0  0  0  0  0  0  0  0  0
  -31.9603  -23.0732   21.7991 C   0  0  2  0  0  0  0  0  0  0  0  0
  -20.6620  -28.6447   23.4941 C   0  0  1  0  0  0  0  0  0  0  0  0
  -22.6165  -29.4808   20.3454 C   0  0  1  0  0  0  0  0  0  0  0  0
  -26.2566  -18.5793   21.8669 C   0  0  2  0  0  0  0  0  0  0  0  0
  -30.6032  -22.4150   22.0538 C   0  0  2  0  0  0  0  0  0  0  0  0
  -21.3044  -27.1750   13.0676 C   0  0  0  0  0  0  0  0  0  0  0  0
  -20.2963  -25.5923   19.4198 C   0  0  0  0  0  0  0  0  0  0  0  0
  -20.2159  -24.9329   17.0059 C   0  0  0  0  0  0  0  0  0  0  0  0
  -18.8366  -26.8448   17.8213 C   0  0  0  0  0  0  0  0  0  0  0  0
  -23.9073  -29.7014   14.2158 C   0  0  0  0  0  0  0  0  0  0  0  0
  -29.7267  -27.4129   20.5083 C   0  0  0  0  0  0  0  0  0  1  0  0
  -29.7256  -22.5602   20.7991 C   0  0  0  0  0  0  0  0  0  0  0  0
  -21.3418  -27.1205   17.6204 C   0  0  1  0  0  0  0  0  0  0  0  0
  -21.9476  -28.1643   14.0270 C   0  0  2  0  0  0  0  0  0  0  0  0
  -20.1970  -26.1312   17.9787 C   0  0  0  0  0  0  0  0  0  0  0  0
  -25.7999  -16.2284   21.2776 N   0  0  0  0  0  0  0  0  0  0  0  0
  -26.6258  -17.1074   21.8704 N   0  0  0  0  0  0  0  0  0  0  0  0
  -22.5785  -28.4760   19.2809 N   0  0  0  0  0  0  0  0  0  0  0  0
  -26.4774  -20.7440   20.7035 N   0  0  0  0  0  0  0  0  0  0  0  0
  -28.6700  -17.2756   23.0551 N   0  0  0  0  0  0  0  0  0  0  0  0
  -28.4061  -13.5674   23.8131 N   0  0  0  0  0  0  0  0  0  0  0  0
  -21.1469  -29.1971   22.2474 N   0  0  0  0  0  0  0  0  0  0  0  0
  -21.2580  -27.6678   16.2707 N   0  0  0  0  0  0  0  0  0  0  0  0
  -28.7051  -21.5367   20.7557 N   0  0  0  0  0  0  0  0  0  0  0  0
  -29.5075  -20.6451   23.2276 N   0  3  0  0  0  0  0  0  0  0  0  0
  -23.1850  -28.6988   13.3912 N   0  3  0  0  0  0  0  0  0  0  0  0
  -29.5408  -13.8561   21.8413 O   0  0  0  0  0  0  0  0  0  0  0  0
  -23.0646  -27.8934   22.0348 O   0  0  0  0  0  0  0  0  0  0  0  0
  -20.4159  -29.0565   18.6310 O   0  0  0  0  0  0  0  0  0  0  0  0
  -23.3333  -26.9145   15.5616 O   0  0  0  0  0  0  0  0  0  0  0  0
  -26.9512  -23.0134   20.7621 O   0  0  0  0  0  0  0  0  0  0  0  0
  -24.1417  -10.3390   19.5121 O   0  0  0  0  0  0  0  0  0  0  0  0
  -28.4985  -26.8968   19.9969 O   0  0  0  0  0  0  0  0  0  1  0  0
  -21.7668   -6.9434   23.1500 F   0  0  0  0  0  0  0  0  0  0  0  0
  -21.4622   -9.6901   19.3070 F   0  0  0  0  0  0  0  0  0  0  0  0
  1  2  1  0  0  0  0
  1  5  2  0  0  0  0
  2  6  2  0  0  0  0
  3 10  2  0  0  0  0
  3 18  1  0  0  0  0
  4 11  1  0  0  0  0
  4 18  2  0  0  0  0
  5 20  1  0  0  0  0
  6 23  1  0  0  0  0
  7  9  2  0  0  0  0
  7 21  1  0  0  0  0
  8 12  2  0  0  0  0
  8 22  1  0  0  0  0
  9 26  1  0  0  0  0
 10 27  1  0  0  0  0
 11 27  2  0  0  0  0
 12 28  1  0  0  0  0
 13 14  2  0  0  0  0
 13 29  1  0  0  0  0
 14 30  1  0  0  0  0
 15 24  1  0  0  0  0
 15 26  2  0  0  0  0
 16 25  1  0  0  0  0
 16 28  2  0  0  0  0
 17 30  2  0  0  0  0
 17 31  1  0  0  0  0
 18 32  1  0  0  0  0
 19 32  1  0  0  0  0
 19 33  2  0  0  0  0
 19 34  1  0  0  0  0
 20 23  2  0  0  0  0
 20 39  1  0  0  0  0
 21 24  2  0  0  0  0
 21 40  1  0  0  0  0
 22 25  2  0  0  0  0
 22 41  1  0  0  0  0
 23 55  1  0  0  0  0
 24 54  1  0  0  0  0
 25 42  1  0  0  0  0
 26 64  1  0  0  0  0
 27 85  1  0  0  0  0
 28 86  1  0  0  0  0
 29 31  2  0  0  0  0
 29 85  1  0  0  0  0
 30 87  1  0  0  0  0
 31 88  1  0  0  0  0
 32 69  2  0  0  0  0
 33 70  1  0  0  0  0
 33 73  1  0  0  0  0
 34 74  1  0  0  0  0
 34 80  2  0  0  0  0
 35 56  1  0  0  0  0
 35 75  1  0  0  0  0
 35 81  2  0  0  0  0
 36 66  1  0  0  0  0
 36 71  1  0  0  0  0
 36 82  2  0  0  0  0
 37 67  1  0  0  0  0
 37 76  1  0  0  0  0
 37 83  2  0  0  0  0
 38 72  1  0  0  0  0
 38 77  1  0  0  0  0
 38 84  2  0  0  0  0
 39 43  1  0  0  0  0
 40 44  1  0  0  0  0
 41 56  1  0  0  0  0
 42 71  1  0  0  0  0
 43 47  1  0  0  0  0
 44 46  1  0  0  0  0
 45 48  1  0  0  0  0
 45 50  1  0  0  0  0
 46 54  1  0  0  0  0
 47 55  1  0  0  0  0
 48 57  1  0  0  0  0
 49 52  1  0  0  0  0
 49 58  1  0  0  0  0
 50 72  1  0  0  0  0
 51 57  1  0  0  0  0
 51 72  1  0  0  0  0
 52 78  1  0  0  0  0
 53 58  1  0  0  0  0
 53 78  1  0  0  0  0
 54 58  1  0  0  0  0
 55 75  1  0  0  0  0
 56 71  1  0  0  0  0
 57 70  1  0  0  0  0
 58 65  1  0  0  0  0
 59 67  1  0  0  0  0
 60 68  1  0  0  0  0
 61 68  1  0  0  0  0
 62 68  1  0  0  0  0
 63 79  1  0  0  0  0
 64 86  1  0  0  0  0
 65 77  1  0  0  0  0
 66 68  1  0  0  0  0
 66 76  1  0  0  0  0
 67 79  1  0  0  0  0
 69 70  1  0  0  0  0
M  CHG  2  78   1  79   1
M  ISO  4  38 100  64 101  77 100  86 101
M  END
> <Batch ID>
0125

> <Smiles>
CNC(C)C(=O)NC(C(=O)N1Cc2cc([101O:1][101CH2:1]c3ccc4c(c3)C(C3(C[100NH:0][100C:0](=O)N5CCCC(n6nc(-c7ccc(Oc8ccc(F)cc8F)cc7)c(C(N)=O)c6N)C5)CCNC3)CCC4)ccc2CC1C(=O)NC1CCCc2ccccc21)C(C)(C)C

> <Shape>
0.259

> <Color>
0.090

> <Negative vol penalty>
0.000

$$$$

  -OEChem-04052320353D

 86 95  0     1  0  0  0  0  0999 V2000
  -21.7400  -18.4678   22.3332 C   0  0  0  0  0  0  0  0  0  0  0  0
  -22.8189  -19.3457   22.3083 C   0  0  0  0  0  0  0  0  0  0  0  0
  -23.0647   -9.7917   19.9592 C   0  0  0  0  0  0  0  0  0  0  0  0
  -23.7439   -9.8971   22.2753 C   0  0  0  0  0  0  0  0  0  0  0  0
  -20.5057  -18.8674   21.8226 C   0  0  0  0  0  0  0  0  0  0  0  0
  -22.6644  -20.6235   21.7717 C   0  0  0  0  0  0  0  0  0  0  0  0
  -31.2703  -19.0421   20.5052 C   0  0  0  0  0  0  0  0  0  0  0  0
  -24.7762  -24.2103   24.6560 C   0  0  0  0  0  0  0  0  0  0  0  0
  -31.0925  -17.6599   20.5641 C   0  0  0  0  0  0  0  0  0  0  0  0
  -22.3161   -8.6466   20.2308 C   0  0  0  0  0  0  0  0  0  0  0  0
  -22.9953   -8.7519   22.5470 C   0  0  0  0  0  0  0  0  0  0  0  0
  -26.1609  -24.3542   24.5811 C   0  0  0  0  0  0  0  0  0  0  0  0
  -23.3158   -5.4111   22.1385 C   0  0  0  0  0  0  0  0  0  0  0  0
  -23.9089   -4.4192   22.9194 C   0  0  0  0  0  0  0  0  0  0  0  0
  -29.5820  -19.3319   22.2090 C   0  0  0  0  0  0  0  0  0  0  0  0
  -25.8792  -26.2343   23.0962 C   0  0  0  0  0  0  0  0  0  0  0  0
  -22.1484   -4.6555   24.5570 C   0  0  0  0  0  0  0  0  0  0  0  0
  -23.7787  -10.4170   20.9815 C   0  0  0  0  0  0  0  0  0  0  0  0
  -24.1167  -12.9365   20.7686 C   0  0  0  0  0  0  0  0  0  0  0  0
  -30.5150  -19.8781   21.3277 C   0  0  0  0  0  0  0  0  0  0  0  0
  -20.3334  -20.1540   21.2882 C   0  0  0  0  0  0  0  0  0  0  0  0
  -23.9314  -25.0720   23.9417 C   0  0  0  0  0  0  0  0  0  0  0  0
  -21.4269  -21.0402   21.2522 C   0  0  0  0  0  0  0  0  0  0  0  0
  -24.4841  -26.1009   23.1657 C   0  0  0  0  0  0  0  0  0  0  0  0
  -29.4042  -17.9496   22.2679 C   0  0  0  0  0  0  0  0  0  0  0  0
  -30.1595  -17.1136   21.4454 C   0  0  0  0  0  0  0  0  0  0  0  0
  -22.2814   -8.1267   21.5246 C   0  0  0  0  0  0  0  0  0  0  0  0
  -26.7127  -25.3645   23.7989 C   0  0  0  0  0  0  0  0  0  0  0  0
  -22.1389   -6.0253   22.5669 C   0  0  0  0  0  0  0  0  0  0  0  0
  -23.3252   -4.0414   24.1287 C   0  0  0  0  0  0  0  0  0  0  0  0
  -21.5552   -5.6475   23.7761 C   0  0  0  0  0  0  0  0  0  0  0  0
  -24.5526  -11.5996   20.7014 C   0  0  0  0  0  0  0  0  0  0  0  0
  -25.2186  -13.6753   20.4128 C   0  0  0  0  0  0  0  0  0  0  0  0
  -22.8308  -13.4635   21.1213 C   0  0  0  0  0  0  0  0  0  0  0  0
  -21.7813  -24.6986   21.6306 C   0  0  0  0  0  0  0  0  0  0  0  0
  -21.2341  -27.8511   22.1643 C   0  0  0  0  0  0  0  0  0  0  0  0
  -22.4072  -30.8401   23.3203 C   0  0  0  0  0  0  0  0  0  0  0  0
  -30.6721  -14.7520   20.7341 C   0  0  0  0  0  0  0  0  0  0  0  0
  -18.9928  -20.5243   20.7049 C   0  0  0  0  0  0  0  0  0  0  0  0
  -22.4392  -24.9203   24.0542 C   0  0  0  0  0  0  0  0  0  0  0  0
  -23.6203  -27.0649   22.3957 C   0  0  0  0  0  0  0  0  0  0  0  0
  -18.8134  -22.0257   20.4953 C   0  0  0  0  0  0  0  0  0  0  0  0
  -29.6486  -12.2371   18.4307 C   0  0  0  0  0  0  0  0  0  0  0  0
  -20.0468  -22.6221   19.8245 C   0  0  0  0  0  0  0  0  0  0  0  0
  -28.1957  -11.9571   18.8217 C   0  0  0  0  0  0  0  0  0  0  0  0
  -29.3952  -22.0443   20.8369 C   0  0  0  0  0  0  0  0  0  0  0  0
  -31.1761  -21.8955   22.6239 C   0  0  0  0  0  0  0  0  0  0  0  0
  -30.5204  -12.5196   19.6530 C   0  0  0  0  0  0  0  0  0  0  0  0
  -28.5641  -13.2920   20.9357 C   0  0  0  0  0  0  0  0  0  0  0  0
  -29.5313  -23.5615   20.8412 C   0  0  0  0  0  0  0  0  0  0  0  0
  -31.2988  -23.4139   22.6142 C   0  0  0  0  0  0  0  0  0  0  0  0
  -30.7039  -21.3594   21.2627 C   0  0  0  0  0  0  0  0  0  0  0  0
  -21.2923  -22.4431   20.7009 C   0  0  1  0  0  0  0  0  0  0  0  0
  -21.6860  -25.5322   22.8771 C   0  0  1  0  0  0  0  0  0  0  0  0
  -27.6336  -13.0657   19.7330 C   0  0  2  0  0  0  0  0  0  0  0  0
  -28.3954  -17.3923   23.2193 C   0  0  0  0  0  0  0  0  0  0  0  0
  -21.7439  -33.2453   23.5900 C   0  0  0  0  0  0  0  0  0  0  0  0
  -21.6740  -28.3045   19.1792 C   0  0  0  0  0  0  0  0  0  0  0  0
  -21.9447  -30.7464   19.6610 C   0  0  0  0  0  0  0  0  0  0  0  0
  -19.7821  -29.6097   20.1650 C   0  0  0  0  0  0  0  0  0  0  0  0
  -22.6932  -30.7097   26.2631 C   0  0  0  0  0  0  0  0  0  0  0  0
  -30.0058  -25.5228   22.3051 C   0  0  0  0  0  0  0  0  0  0  0  0
  -28.5946  -26.0373   22.5097 C   0  0  0  0  0  0  0  0  0  1  0  0
  -21.7970  -29.1412   21.6186 C   0  0  1  0  0  0  0  0  0  0  0  0
  -21.7914  -31.8740   24.2458 C   0  0  2  0  0  0  0  0  0  0  0  0
  -21.3160  -29.4313   20.1688 C   0  0  0  0  0  0  0  0  0  0  0  0
  -25.8316  -11.4923   20.3317 N   0  0  0  0  0  0  0  0  0  0  0  0
  -26.2088  -12.7712   20.1634 N   0  0  0  0  0  0  0  0  0  0  0  0
  -22.1672  -26.8716   22.5328 N   0  0  0  0  0  0  0  0  0  0  0  0
  -29.9279  -13.5834   20.4668 N   0  0  0  0  0  0  0  0  0  0  0  0
  -25.4273  -15.0035   20.2919 N   0  0  0  0  0  0  0  0  0  0  0  0
  -21.8105  -12.5645   21.4606 N   0  0  0  0  0  0  0  0  0  0  0  0
  -29.9936  -15.7071   21.4903 N   0  0  0  0  0  0  0  0  0  0  0  0
  -21.2977  -23.4123   21.7756 N   0  0  0  0  0  0  0  0  0  0  0  0
  -21.4479  -30.1789   22.5828 N   0  0  0  0  0  0  0  0  0  0  0  0
  -29.9782  -24.0415   22.2092 N   0  3  0  0  0  0  0  0  0  0  0  0
  -22.5843  -31.9814   25.5030 N   0  3  0  0  0  0  0  0  0  0  0  0
  -22.5889  -14.6943   21.1192 O   0  0  0  0  0  0  0  0  0  0  0  0
  -22.2569  -25.1868   20.6122 O   0  0  0  0  0  0  0  0  0  0  0  0
  -20.0118  -27.7200   22.2667 O   0  0  0  0  0  0  0  0  0  0  0  0
  -23.6183  -30.6417   23.2553 O   0  0  0  0  0  0  0  0  0  0  0  0
  -31.8163  -14.9063   20.2995 O   0  0  0  0  0  0  0  0  0  0  0  0
  -21.5508   -7.0094   21.7901 O   0  0  0  0  0  0  0  0  0  0  0  0
  -28.0640  -25.5067   23.7235 O   0  0  0  0  0  0  0  0  0  1  0  0
  -23.8941   -3.0877   24.8777 F   0  0  0  0  0  0  0  0  0  0  0  0
  -20.4240   -6.2332   24.1923 F   0  0  0  0  0  0  0  0  0  0  0  0
  1  2  1  0  0  0  0
  1  5  2  0  0  0  0
  2  6  2  0  0  0  0
  3 10  2  0  0  0  0
  3 18  1  0  0  0  0
  4 11  1  0  0  0  0
  4 18  2  0  0  0  0
  5 21  1  0  0  0  0
  6 23  1  0  0  0  0
  7  9  2  0  0  0  0
  7 20  1  0  0  0  0
  8 12  2  0  0  0  0
  8 22  1  0  0  0  0
  9 26  1  0  0  0  0
 10 27  1  0  0  0  0
 11 27  2  0  0  0  0
 12 28  1  0  0  0  0
 13 14  2  0  0  0  0
 13 29  1  0  0  0  0
 14 30  1  0  0  0  0
 15 20  2  0  0  0  0
 15 25  1  0  0  0  0
 16 24  1  0  0  0  0
 16 28  2  0  0  0  0
 17 30  2  0  0  0  0
 17 31  1  0  0  0  0
 18 32  1  0  0  0  0
 19 32  1  0  0  0  0
 19 33  2  0  0  0  0
 19 34  1  0  0  0  0
 20 52  1  0  0  0  0
 21 23  2  0  0  0  0
 21 39  1  0  0  0  0
 22 24  2  0  0  0  0
 22 40  1  0  0  0  0
 23 53  1  0  0  0  0
 24 41  1  0  0  0  0
 25 26  2  0  0  0  0
 25 56  1  0  0  0  0
 26 73  1  0  0  0  0
 27 83  1  0  0  0  0
 28 84  1  0  0  0  0
 29 31  2  0  0  0  0
 29 83  1  0  0  0  0
 30 85  1  0  0  0  0
 31 86  1  0  0  0  0
 32 67  2  0  0  0  0
 33 68  1  0  0  0  0
 33 71  1  0  0  0  0
 34 72  1  0  0  0  0
 34 78  2  0  0  0  0
 35 54  1  0  0  0  0
 35 74  1  0  0  0  0
 35 79  2  0  0  0  0
 36 64  1  0  0  0  0
 36 69  1  0  0  0  0
 36 80  2  0  0  0  0
 37 65  1  0  0  0  0
 37 75  1  0  0  0  0
 37 81  2  0  0  0  0
 38 70  1  0  0  0  0
 38 73  1  0  0  0  0
 38 82  2  0  0  0  0
 39 42  1  0  0  0  0
 40 54  1  0  0  0  0
 41 69  1  0  0  0  0
 42 44  1  0  0  0  0
 43 45  1  0  0  0  0
 43 48  1  0  0  0  0
 44 53  1  0  0  0  0
 45 55  1  0  0  0  0
 46 50  1  0  0  0  0
 46 52  1  0  0  0  0
 47 51  1  0  0  0  0
 47 52  1  0  0  0  0
 48 70  1  0  0  0  0
 49 55  1  0  0  0  0
 49 70  1  0  0  0  0
 50 76  1  0  0  0  0
 51 76  1  0  0  0  0
 53 74  1  0  0  0  0
 54 69  1  0  0  0  0
 55 68  1  0  0  0  0
 57 65  1  0  0  0  0
 58 66  1  0  0  0  0
 59 66  1  0  0  0  0
 60 66  1  0  0  0  0
 61 77  1  0  0  0  0
 62 63  1  0  0  0  0
 62 76  1  0  0  0  0
 63 84  1  0  0  0  0
 64 66  1  0  0  0  0
 64 75  1  0  0  0  0
 65 77  1  0  0  0  0
 67 68  1  0  0  0  0
M  CHG  2  76   1  77   1
M  ISO  4  38 100  63 101  73 100  84 101
M  END
> <Batch ID>
0125

> <Smiles>
CNC(C)C(=O)NC(C(=O)N1Cc2cc([101O:1][101CH2:1]CN3CCC(c4ccc([100NH:0][100C:0](=O)N5CCCC(n6nc(-c7ccc(Oc8ccc(F)cc8F)cc7)c(C(N)=O)c6N)C5)c(C)c4)CC3)ccc2CC1C(=O)NC1CCCc2ccccc21)C(C)(C)C

> <Shape>
0.259

> <Color>
0.207

> <Negative vol penalty>
0.000

$$$$
