
  -OEChem-04052320383D

 85 94  0     1  0  0  0  0  0999 V2000
  -27.8468  -37.3081   23.7725 C   0  0  0  0  0  0  0  0  0  0  0  0
  -28.3714  -36.3679   22.8915 C   0  0  0  0  0  0  0  0  0  0  0  0
  -24.0449  -10.3560   22.9786 C   0  0  0  0  0  0  0  0  0  0  0  0
  -23.0990  -12.5694   22.7712 C   0  0  0  0  0  0  0  0  0  0  0  0
  -27.0108  -36.8987   24.8104 C   0  0  0  0  0  0  0  0  0  0  0  0
  -28.0612  -35.0176   23.0486 C   0  0  0  0  0  0  0  0  0  0  0  0
  -26.9968  -29.0526   19.2273 C   0  0  0  0  0  0  0  0  0  0  0  0
  -23.3313  -10.1618   24.1613 C   0  0  0  0  0  0  0  0  0  0  0  0
  -22.3854  -12.3752   23.9539 C   0  0  0  0  0  0  0  0  0  0  0  0
  -27.4263  -27.7281   19.1560 C   0  0  0  0  0  0  0  0  0  0  0  0
  -20.1666   -9.3828   25.0618 C   0  0  0  0  0  0  0  0  0  0  0  0
  -19.5072   -8.1650   25.2285 C   0  0  0  0  0  0  0  0  0  0  0  0
  -25.9077  -27.1462   20.9378 C   0  0  0  0  0  0  0  0  0  0  0  0
  -27.4092  -18.7446   19.3958 C   0  0  0  0  0  0  0  0  0  0  0  0
  -20.8177   -7.7268   27.2103 C   0  0  0  0  0  0  0  0  0  0  0  0
  -23.9288  -11.5598   22.2836 C   0  0  0  0  0  0  0  0  0  0  0  0
  -24.2431  -11.4581   19.7541 C   0  0  0  0  0  0  0  0  0  0  0  0
  -26.6823  -35.5438   24.9746 C   0  0  0  0  0  0  0  0  0  0  0  0
  -26.0258  -29.4366   20.1633 C   0  0  0  0  0  0  0  0  0  0  0  0
  -27.2210  -34.5895   24.0905 C   0  0  0  0  0  0  0  0  0  0  0  0
  -25.4658  -28.4756   21.0171 C   0  0  0  0  0  0  0  0  0  0  0  0
  -27.3975  -20.0955   19.0669 C   0  0  0  0  0  0  0  0  0  0  0  0
  -28.5738  -20.7171   18.6627 C   0  0  0  0  0  0  0  0  0  0  0  0
  -22.5015  -11.1714   24.6489 C   0  0  0  0  0  0  0  0  0  0  0  0
  -26.8838  -26.7752   20.0133 C   0  0  0  0  0  0  0  0  0  0  0  0
  -21.1517   -9.7725   25.9693 C   0  0  0  0  0  0  0  0  0  0  0  0
  -19.8327   -7.3370   26.3028 C   0  0  0  0  0  0  0  0  0  0  0  0
  -21.4772   -8.9445   27.0435 C   0  0  0  0  0  0  0  0  0  0  0  0
  -24.6661  -11.7612   21.0621 C   0  0  0  0  0  0  0  0  0  0  0  0
  -29.7259  -19.9496   18.6044 C   0  0  0  0  0  0  0  0  0  0  0  0
  -28.6134  -18.0654   19.3045 C   0  0  0  0  0  0  0  0  0  0  0  0
  -25.2963  -11.8345   18.9568 C   0  0  0  0  0  0  0  0  0  0  0  0
  -23.0086  -10.8876   19.3002 C   0  0  0  0  0  0  0  0  0  0  0  0
  -25.9568  -31.4394   22.6306 C   0  0  0  0  0  0  0  0  0  0  0  0
  -22.8044  -30.6752   22.6626 C   0  0  0  0  0  0  0  0  0  0  0  0
  -20.3569  -28.4395   21.8516 C   0  0  0  0  0  0  0  0  0  0  0  0
  -29.7018  -15.8160   19.6234 C   0  0  0  0  0  0  0  0  0  0  0  0
  -25.8126  -35.1437   26.1399 C   0  0  0  0  0  0  0  0  0  0  0  0
  -25.5538  -30.8640   20.2093 C   0  0  0  0  0  0  0  0  0  0  0  0
  -24.4059  -28.8326   22.0260 C   0  0  0  0  0  0  0  0  0  0  0  0
  -25.2317  -33.7378   26.0120 C   0  0  0  0  0  0  0  0  0  0  0  0
  -30.0597  -12.3237   19.0291 C   0  0  0  0  0  0  0  0  0  0  0  0
  -26.3134  -32.7500   25.5865 C   0  0  0  0  0  0  0  0  0  0  0  0
  -28.6770  -11.7564   19.3581 C   0  0  0  0  0  0  0  0  0  0  0  0
  -28.8346  -24.2654   21.3432 C   0  0  0  0  0  0  0  0  0  0  0  0
  -30.4408  -13.4683   19.9663 C   0  0  0  0  0  0  0  0  0  0  0  0
  -28.0688  -13.9822   20.3890 C   0  0  0  0  0  0  0  0  0  0  0  0
  -28.5501  -22.9211   20.7043 C   0  0  0  0  0  0  0  0  0  0  0  0
  -29.2964  -24.5072   18.9935 C   0  0  0  0  0  0  0  0  0  0  0  0
  -26.8878  -33.1185   24.2133 C   0  0  1  0  0  0  0  0  0  0  0  0
  -24.9318  -31.2447   21.5493 C   0  0  1  0  0  0  0  0  0  0  0  0
  -27.6136  -12.8698   19.4304 C   0  0  2  0  0  0  0  0  0  0  0  0
  -28.6871  -25.2339   20.1823 C   0  0  1  0  0  0  0  0  0  1  0  0
  -26.1149  -20.8545   19.1560 C   0  0  0  0  0  0  0  0  0  0  0  0
  -31.0196  -20.5636   18.1783 C   0  0  0  0  0  0  0  0  0  0  0  0
  -17.8814  -28.0740   22.0404 C   0  0  0  0  0  0  0  0  0  0  0  0
  -23.1390  -29.9475   25.6068 C   0  0  0  0  0  0  0  0  0  0  0  0
  -20.9573  -28.7258   25.4808 C   0  0  0  0  0  0  0  0  0  0  0  0
  -21.0330  -31.1852   25.0709 C   0  0  0  0  0  0  0  0  0  0  0  0
  -20.0254  -28.3716   18.9114 C   0  0  0  0  0  0  0  0  0  0  0  0
  -28.5918  -22.1729   18.3006 C   0  0  0  0  0  0  0  0  0  0  0  0
  -21.9695  -29.6092   23.3300 C   0  0  1  0  0  0  0  0  0  0  0  0
  -19.0084  -28.6222   21.1789 C   0  0  2  0  0  0  0  0  0  0  0  0
  -21.7960  -29.8602   24.8545 C   0  0  0  0  0  0  0  0  0  0  0  0
  -25.8924  -12.2892   21.0982 N   0  0  0  0  0  0  0  0  0  0  0  0
  -29.7762  -18.6351   18.9160 N   0  0  0  0  0  0  0  0  0  0  0  0
  -26.2491  -12.3208   19.8029 N   0  0  0  0  0  0  0  0  0  0  0  0
  -23.9820  -30.2424   22.0367 N   0  0  0  0  0  0  0  0  0  0  0  0
  -29.3889  -14.4873   19.9804 N   0  0  0  0  0  0  0  0  0  0  0  0
  -25.4912  -11.7934   17.6216 N   0  0  0  0  0  0  0  0  0  0  0  0
  -22.0341  -10.5595   20.2526 N   0  0  0  0  0  0  0  0  0  0  0  0
  -28.6148  -16.6892   19.6420 N   0  0  0  0  0  0  0  0  0  0  0  0
  -25.9798  -32.7152   23.1609 N   0  0  0  0  0  0  0  0  0  0  0  0
  -20.7150  -29.5490   22.5877 N   0  0  0  0  0  0  0  0  0  0  0  0
  -29.2174  -23.0306   19.3532 N   0  3  2  0  0  0  0  0  0  0  0  0
  -18.9837  -27.9152   19.8672 N   0  3  0  0  0  0  0  0  0  0  0  0
  -22.7829  -10.6597   18.0875 O   0  0  0  0  0  0  0  0  0  0  0  0
  -26.6727  -30.5011   22.9605 O   0  0  0  0  0  0  0  0  0  0  0  0
  -22.4221  -31.8477   22.6893 O   0  0  0  0  0  0  0  0  0  0  0  0
  -21.0241  -27.4135   21.7385 O   0  0  0  0  0  0  0  0  0  0  0  0
  -30.8442  -16.1484   19.2970 O   0  0  0  0  0  0  0  0  0  0  0  0
  -21.8049  -10.9822   25.8028 O   0  0  0  0  0  0  0  0  0  0  0  0
  -27.3017  -25.4819   19.9463 O   0  0  0  0  0  0  0  0  0  1  0  0
  -19.1983   -6.1684   26.4636 F   0  0  0  0  0  0  0  0  0  0  0  0
  -22.4218   -9.3141   27.9193 F   0  0  0  0  0  0  0  0  0  0  0  0
  1  2  1  0  0  0  0
  1  5  2  0  0  0  0
  2  6  2  0  0  0  0
  3  8  2  0  0  0  0
  3 16  1  0  0  0  0
  4  9  1  0  0  0  0
  4 16  2  0  0  0  0
  5 18  1  0  0  0  0
  6 20  1  0  0  0  0
  7 10  2  0  0  0  0
  7 19  1  0  0  0  0
  8 24  1  0  0  0  0
  9 24  2  0  0  0  0
 10 25  1  0  0  0  0
 11 12  2  0  0  0  0
 11 26  1  0  0  0  0
 12 27  1  0  0  0  0
 13 21  1  0  0  0  0
 13 25  2  0  0  0  0
 14 22  2  0  0  0  0
 14 31  1  0  0  0  0
 15 27  2  0  0  0  0
 15 28  1  0  0  0  0
 16 29  1  0  0  0  0
 17 29  1  0  0  0  0
 17 32  2  0  0  0  0
 17 33  1  0  0  0  0
 18 20  2  0  0  0  0
 18 38  1  0  0  0  0
 19 21  2  0  0  0  0
 19 39  1  0  0  0  0
 20 50  1  0  0  0  0
 21 40  1  0  0  0  0
 22 23  1  0  0  0  0
 22 54  1  0  0  0  0
 23 30  2  0  0  0  0
 23 61  1  0  0  0  0
 24 82  1  0  0  0  0
 25 83  1  0  0  0  0
 26 28  2  0  0  0  0
 26 82  1  0  0  0  0
 27 84  1  0  0  0  0
 28 85  1  0  0  0  0
 29 65  2  0  0  0  0
 30 55  1  0  0  0  0
 30 66  1  0  0  0  0
 31 66  2  0  0  0  0
 31 72  1  0  0  0  0
 32 67  1  0  0  0  0
 32 70  1  0  0  0  0
 33 71  1  0  0  0  0
 33 77  2  0  0  0  0
 34 51  1  0  0  0  0
 34 73  1  0  0  0  0
 34 78  2  0  0  0  0
 35 62  1  0  0  0  0
 35 68  1  0  0  0  0
 35 79  2  0  0  0  0
 36 63  1  0  0  0  0
 36 74  1  0  0  0  0
 36 80  2  0  0  0  0
 37 69  1  0  0  0  0
 37 72  1  0  0  0  0
 37 81  2  0  0  0  0
 38 41  1  0  0  0  0
 39 51  1  0  0  0  0
 40 68  1  0  0  0  0
 41 43  1  0  0  0  0
 42 44  1  0  0  0  0
 42 46  1  0  0  0  0
 43 50  1  0  0  0  0
 44 52  1  0  0  0  0
 45 48  1  0  0  0  0
 45 53  1  0  0  0  0
 46 69  1  0  0  0  0
 47 52  1  0  0  0  0
 47 69  1  0  0  0  0
 48 75  1  0  0  0  0
 49 53  1  0  0  0  0
 49 75  1  0  0  0  0
 50 73  1  0  0  0  0
 51 68  1  0  0  0  0
 52 67  1  0  0  0  0
 53 83  1  0  0  0  0
 56 63  1  0  0  0  0
 57 64  1  0  0  0  0
 58 64  1  0  0  0  0
 59 64  1  0  0  0  0
 60 76  1  0  0  0  0
 61 75  1  0  0  0  0
 62 64  1  0  0  0  0
 62 74  1  0  0  0  0
 63 76  1  0  0  0  0
 65 67  1  0  0  0  0
M  CHG  2  75   1  76   1
M  ISO  4  37 100  53 101  72 100  83 101
M  END
> <Batch ID>
0126

> <Smiles>
CNC(C)C(=O)NC(C(=O)N1Cc2cc([101O:1][101CH:1]3CCN(Cc4c(C)cc([100NH:0][100C:0](=O)N5CCCC(n6nc(-c7ccc(Oc8ccc(F)cc8F)cc7)c(C(N)=O)c6N)C5)nc4C)C3)ccc2CC1C(=O)NC1CCCc2ccccc21)C(C)(C)C

> <Shape>
0.313

> <Color>
0.083

> <Negative vol penalty>
0.000

$$$$

  -OEChem-04052320383D

 86 95  0     1  0  0  0  0  0999 V2000
  -19.0368  -32.5292   14.7623 C   0  0  0  0  0  0  0  0  0  0  0  0
  -20.3857  -32.7586   15.0141 C   0  0  0  0  0  0  0  0  0  0  0  0
  -23.7857   -8.9251   22.0690 C   0  0  0  0  0  0  0  0  0  0  0  0
  -24.3503  -10.9042   23.3345 C   0  0  0  0  0  0  0  0  0  0  0  0
  -18.1505  -32.3544   15.8242 C   0  0  0  0  0  0  0  0  0  0  0  0
  -20.8488  -32.8144   16.3282 C   0  0  0  0  0  0  0  0  0  0  0  0
  -26.0326  -28.4220   18.6186 C   0  0  0  0  0  0  0  0  0  0  0  0
  -28.4267  -19.0496   21.5994 C   0  0  0  0  0  0  0  0  0  0  0  0
  -23.2881   -8.3269   23.2266 C   0  0  0  0  0  0  0  0  0  0  0  0
  -23.8526  -10.3060   24.4921 C   0  0  0  0  0  0  0  0  0  0  0  0
  -27.1977  -27.7980   19.0650 C   0  0  0  0  0  0  0  0  0  0  0  0
  -24.8868   -8.0176   26.7559 C   0  0  0  0  0  0  0  0  0  0  0  0
  -25.6504   -8.1210   27.9185 C   0  0  0  0  0  0  0  0  0  0  0  0
  -28.2848  -17.6829   21.3869 C   0  0  0  0  0  0  0  0  0  0  0  0
  -26.9087  -28.7974   21.2478 C   0  0  0  0  0  0  0  0  0  0  0  0
  -23.8267   -9.2652   29.0147 C   0  0  0  0  0  0  0  0  0  0  0  0
  -30.5721  -18.9327   20.5794 C   0  0  0  0  0  0  0  0  0  0  0  0
  -24.3169  -10.2138   22.1230 C   0  0  0  0  0  0  0  0  0  0  0  0
  -24.1254  -11.1075   19.7413 C   0  0  0  0  0  0  0  0  0  0  0  0
  -18.6047  -32.3984   17.1518 C   0  0  0  0  0  0  0  0  0  0  0  0
  -25.2915  -29.2251   19.4904 C   0  0  0  0  0  0  0  0  0  0  0  0
  -19.9675  -32.6413   17.4089 C   0  0  0  0  0  0  0  0  0  0  0  0
  -25.7339  -29.4145   20.8099 C   0  0  0  0  0  0  0  0  0  0  0  0
  -29.5891  -19.6941   21.1909 C   0  0  0  0  0  0  0  0  0  0  0  0
  -23.3215   -9.0173   24.4382 C   0  0  0  0  0  0  0  0  0  0  0  0
  -27.6349  -27.9856   20.3763 C   0  0  0  0  0  0  0  0  0  0  0  0
  -23.5930   -8.5381   26.7227 C   0  0  0  0  0  0  0  0  0  0  0  0
  -25.1204   -8.7448   29.0479 C   0  0  0  0  0  0  0  0  0  0  0  0
  -23.0630   -9.1619   27.8521 C   0  0  0  0  0  0  0  0  0  0  0  0
  -24.8316  -10.8321   20.9276 C   0  0  0  0  0  0  0  0  0  0  0  0
  -29.3261  -17.0116   20.7664 C   0  0  0  0  0  0  0  0  0  0  0  0
  -25.0545  -11.6936   18.9169 C   0  0  0  0  0  0  0  0  0  0  0  0
  -22.7524  -10.8560   19.4138 C   0  0  0  0  0  0  0  0  0  0  0  0
  -22.3446  -31.4661   19.9821 C   0  0  0  0  0  0  0  0  0  0  0  0
  -29.8481  -25.3067   21.2308 C   0  0  0  0  0  0  0  0  0  0  0  0
  -22.7077  -29.7137   22.6183 C   0  0  0  0  0  0  0  0  0  0  0  0
  -19.2889  -30.5334   23.4294 C   0  0  0  0  0  0  0  0  0  0  0  0
  -30.0831  -14.7497   19.9559 C   0  0  0  0  0  0  0  0  0  0  0  0
  -17.6009  -32.2509   18.2677 C   0  0  0  0  0  0  0  0  0  0  0  0
  -24.0655  -29.9671   19.0301 C   0  0  0  0  0  0  0  0  0  0  0  0
  -24.9244  -30.3123   21.7028 C   0  0  0  0  0  0  0  0  0  0  0  0
  -18.2364  -31.9515   19.6230 C   0  0  0  0  0  0  0  0  0  0  0  0
  -29.7611  -11.7687   18.0357 C   0  0  0  0  0  0  0  0  0  0  0  0
  -19.4180  -32.8825   19.8758 C   0  0  0  0  0  0  0  0  0  0  0  0
  -28.3935  -11.2185   18.4469 C   0  0  0  0  0  0  0  0  0  0  0  0
  -30.8555  -22.1779   19.5136 C   0  0  0  0  0  0  0  0  0  0  0  0
  -30.4903  -12.4136   19.2130 C   0  0  0  0  0  0  0  0  0  0  0  0
  -30.0094  -23.4443   19.5128 C   0  0  0  0  0  0  0  0  0  0  0  0
  -28.3542  -12.8857   20.3458 C   0  0  0  0  0  0  0  0  0  0  0  0
  -30.9867  -23.1450   21.6909 C   0  0  0  0  0  0  0  0  0  0  0  0
  -20.5124  -32.6841   18.8201 C   0  0  1  0  0  0  0  0  0  0  0  0
  -22.9898  -30.1189   20.1242 C   0  0  1  0  0  0  0  0  0  0  0  0
  -27.5543  -12.2841   19.1788 C   0  0  2  0  0  0  0  0  0  0  0  0
  -30.9419  -21.7908   20.9909 C   0  0  1  0  0  0  0  0  0  0  0  0
  -17.8699  -29.8597   25.3864 C   0  0  0  0  0  0  0  0  0  0  0  0
  -21.7615  -27.4635   20.7875 C   0  0  0  0  0  0  0  0  0  0  0  0
  -19.4619  -27.7547   21.7337 C   0  0  0  0  0  0  0  0  0  0  0  0
  -21.3440  -27.0728   23.2221 C   0  0  0  0  0  0  0  0  0  0  0  0
  -18.6934  -33.3500   24.1154 C   0  0  0  0  0  0  0  0  0  0  0  0
  -29.0988  -26.1187   20.2050 C   0  0  0  0  0  0  0  0  0  1  0  0
  -21.2448  -29.4467   22.3579 C   0  0  1  0  0  0  0  0  0  0  0  0
  -18.7509  -30.9452   24.7878 C   0  0  2  0  0  0  0  0  0  0  0  0
  -20.9666  -27.9563   22.0132 C   0  0  0  0  0  0  0  0  0  0  0  0
  -30.4702  -17.6034   20.3558 N   0  0  0  0  0  0  0  0  0  0  0  0
  -26.1106  -11.2120   20.8663 N   0  0  0  0  0  0  0  0  0  0  0  0
  -26.2156  -11.7319   19.6315 N   0  0  0  0  0  0  0  0  0  0  0  0
  -23.4932  -30.0526   21.5096 N   0  0  0  0  0  0  0  0  0  0  0  0
  -30.2474  -24.0478   20.8194 N   0  0  0  0  0  0  0  0  0  0  0  0
  -29.6361  -13.4152   19.8548 N   0  0  0  0  0  0  0  0  0  0  0  0
  -24.9835  -12.1748   17.6576 N   0  0  0  0  0  0  0  0  0  0  0  0
  -21.8044  -11.8472   19.7020 N   0  0  0  0  0  0  0  0  0  0  0  0
  -29.7584  -21.0578   21.3893 N   0  0  0  0  0  0  0  0  0  0  0  0
  -29.1724  -15.6189   20.5557 N   0  0  0  0  0  0  0  0  0  0  0  0
  -21.2779  -31.4892   19.1040 N   0  0  0  0  0  0  0  0  0  0  0  0
  -20.5260  -29.9329   23.5306 N   0  0  0  0  0  0  0  0  0  0  0  0
  -17.9443  -32.1927   24.6690 N   0  3  0  0  0  0  0  0  0  0  0  0
  -22.3749   -9.7773   18.8965 O   0  0  0  0  0  0  0  0  0  0  0  0
  -22.7805  -32.4154   20.6227 O   0  0  0  0  0  0  0  0  0  0  0  0
  -30.0751  -25.7710   22.3493 O   0  0  0  0  0  0  0  0  0  0  0  0
  -23.1400  -29.6153   23.7697 O   0  0  0  0  0  0  0  0  0  0  0  0
  -18.6717  -30.7219   22.3834 O   0  0  0  0  0  0  0  0  0  0  0  0
  -31.1809  -15.1014   19.5164 O   0  0  0  0  0  0  0  0  0  0  0  0
  -22.8358   -8.4339   25.5679 O   0  0  0  0  0  0  0  0  0  0  0  0
  -28.7708  -27.3702   20.8072 O   0  0  0  0  0  0  0  0  0  1  0  0
  -25.8534   -8.8426   30.1648 F   0  0  0  0  0  0  0  0  0  0  0  0
  -21.8203   -9.6627   27.8266 F   0  0  0  0  0  0  0  0  0  0  0  0
  1  2  1  0  0  0  0
  1  5  2  0  0  0  0
  2  6  2  0  0  0  0
  3  9  2  0  0  0  0
  3 18  1  0  0  0  0
  4 10  1  0  0  0  0
  4 18  2  0  0  0  0
  5 20  1  0  0  0  0
  6 22  1  0  0  0  0
  7 11  2  0  0  0  0
  7 21  1  0  0  0  0
  8 14  2  0  0  0  0
  8 24  1  0  0  0  0
  9 25  1  0  0  0  0
 10 25  2  0  0  0  0
 11 26  1  0  0  0  0
 12 13  2  0  0  0  0
 12 27  1  0  0  0  0
 13 28  1  0  0  0  0
 14 31  1  0  0  0  0
 15 23  1  0  0  0  0
 15 26  2  0  0  0  0
 16 28  2  0  0  0  0
 16 29  1  0  0  0  0
 17 24  2  0  0  0  0
 17 64  1  0  0  0  0
 18 30  1  0  0  0  0
 19 30  1  0  0  0  0
 19 32  2  0  0  0  0
 19 33  1  0  0  0  0
 20 22  2  0  0  0  0
 20 39  1  0  0  0  0
 21 23  2  0  0  0  0
 21 40  1  0  0  0  0
 22 51  1  0  0  0  0
 23 41  1  0  0  0  0
 24 72  1  0  0  0  0
 25 83  1  0  0  0  0
 26 84  1  0  0  0  0
 27 29  2  0  0  0  0
 27 83  1  0  0  0  0
 28 85  1  0  0  0  0
 29 86  1  0  0  0  0
 30 65  2  0  0  0  0
 31 64  2  0  0  0  0
 31 73  1  0  0  0  0
 32 66  1  0  0  0  0
 32 70  1  0  0  0  0
 33 71  1  0  0  0  0
 33 77  2  0  0  0  0
 34 52  1  0  0  0  0
 34 74  1  0  0  0  0
 34 78  2  0  0  0  0
 35 60  1  0  0  0  0
 35 68  1  0  0  0  0
 35 79  2  0  0  0  0
 36 61  1  0  0  0  0
 36 67  1  0  0  0  0
 36 80  2  0  0  0  0
 37 62  1  0  0  0  0
 37 75  1  0  0  0  0
 37 81  2  0  0  0  0
 38 69  1  0  0  0  0
 38 73  1  0  0  0  0
 38 82  2  0  0  0  0
 39 42  1  0  0  0  0
 40 52  1  0  0  0  0
 41 67  1  0  0  0  0
 42 44  1  0  0  0  0
 43 45  1  0  0  0  0
 43 47  1  0  0  0  0
 44 51  1  0  0  0  0
 45 53  1  0  0  0  0
 46 48  1  0  0  0  0
 46 54  1  0  0  0  0
 47 69  1  0  0  0  0
 48 68  1  0  0  0  0
 49 53  1  0  0  0  0
 49 69  1  0  0  0  0
 50 54  1  0  0  0  0
 50 68  1  0  0  0  0
 51 74  1  0  0  0  0
 52 67  1  0  0  0  0
 53 66  1  0  0  0  0
 54 72  1  0  0  0  0
 55 62  1  0  0  0  0
 56 63  1  0  0  0  0
 57 63  1  0  0  0  0
 58 63  1  0  0  0  0
 59 76  1  0  0  0  0
 60 84  1  0  0  0  0
 61 63  1  0  0  0  0
 61 75  1  0  0  0  0
 62 76  1  0  0  0  0
 65 66  1  0  0  0  0
M  CHG  1  76   1
M  ISO  4  38 100  60 101  73 100  84 101
M  END
> <Batch ID>
0126

> <Smiles>
CNC(C)C(=O)NC(C(=O)N1Cc2cc([101O:1][101CH2:1]C(=O)N3CCC(Nc4ccc([100NH:0][100C:0](=O)N5CCCC(n6nc(-c7ccc(Oc8ccc(F)cc8F)cc7)c(C(N)=O)c6N)C5)nc4)C3)ccc2CC1C(=O)NC1CCCc2ccccc21)C(C)(C)C

> <Shape>
0.272

> <Color>
0.093

> <Negative vol penalty>
0.000

$$$$

  -OEChem-04052320383D

 82 90  0     1  0  0  0  0  0999 V2000
  -25.6706  -11.3261   20.7243 C   0  0  0  0  0  0  0  0  0  0  0  0
  -26.6769  -12.1808   20.2858 C   0  0  0  0  0  0  0  0  0  0  0  0
  -20.8593  -27.6486   25.5311 C   0  0  0  0  0  0  0  0  0  0  0  0
  -23.0184  -27.3754   26.5802 C   0  0  0  0  0  0  0  0  0  0  0  0
  -24.3764  -11.8112   20.9076 C   0  0  0  0  0  0  0  0  0  0  0  0
  -26.3892  -13.5209   20.0292 C   0  0  0  0  0  0  0  0  0  0  0  0
  -30.0834  -18.3195   20.9418 C   0  0  0  0  0  0  0  0  0  0  0  0
  -29.1343  -23.7493   17.6576 C   0  0  0  0  0  0  0  0  0  0  0  0
  -20.3498  -26.6088   26.3087 C   0  0  0  0  0  0  0  0  0  0  0  0
  -22.5089  -26.3356   27.3580 C   0  0  0  0  0  0  0  0  0  0  0  0
  -30.9063  -19.0465   20.0827 C   0  0  0  0  0  0  0  0  0  0  0  0
  -18.5759  -23.7866   27.7620 C   0  0  0  0  0  0  0  0  0  0  0  0
  -17.7852  -22.8281   27.1283 C   0  0  0  0  0  0  0  0  0  0  0  0
  -28.8512  -25.0309   18.1165 C   0  0  0  0  0  0  0  0  0  0  0  0
  -29.1547  -20.6804   19.7974 C   0  0  0  0  0  0  0  0  0  0  0  0
  -19.6302  -22.2688   25.6722 C   0  0  0  0  0  0  0  0  0  0  0  0
  -31.0718  -23.7396   19.0370 C   0  0  0  0  0  0  0  0  0  0  0  0
  -22.1937  -28.0319   25.6667 C   0  0  0  0  0  0  0  0  0  0  0  0
  -22.7392  -30.4764   25.1827 C   0  0  0  0  0  0  0  0  0  0  0  0
  -24.0748  -13.1601   20.6624 C   0  0  0  0  0  0  0  0  0  0  0  0
  -28.7839  -18.7625   21.2271 C   0  0  0  0  0  0  0  0  0  0  0  0
  -25.0894  -14.0242   20.2081 C   0  0  0  0  0  0  0  0  0  0  0  0
  -28.3183  -19.9585   20.6625 C   0  0  0  0  0  0  0  0  0  0  0  0
  -30.2638  -23.0844   18.1217 C   0  0  0  0  0  0  0  0  0  0  0  0
  -21.1746  -25.9523   27.2222 C   0  0  0  0  0  0  0  0  0  0  0  0
  -30.4410  -20.2256   19.5081 C   0  0  0  0  0  0  0  0  0  0  0  0
  -19.8937  -23.9863   27.3508 C   0  0  0  0  0  0  0  0  0  0  0  0
  -18.3123  -22.0692   26.0835 C   0  0  0  0  0  0  0  0  0  0  0  0
  -20.4209  -23.2274   26.3059 C   0  0  0  0  0  0  0  0  0  0  0  0
  -22.7207  -29.1055   24.8632 C   0  0  0  0  0  0  0  0  0  0  0  0
  -29.7223  -25.5989   19.0322 C   0  0  0  0  0  0  0  0  0  0  0  0
  -23.3409  -31.0729   24.1017 C   0  0  0  0  0  0  0  0  0  0  0  0
  -22.2557  -31.1504   26.3522 C   0  0  0  0  0  0  0  0  0  0  0  0
  -25.8640  -17.5934   20.7678 C   0  0  0  0  0  0  0  0  0  0  0  0
  -24.9762  -20.1824   22.5088 C   0  0  0  0  0  0  0  0  0  0  0  0
  -25.7044  -23.3378   23.5860 C   0  0  0  0  0  0  0  0  0  0  0  0
  -27.1738  -29.0806   19.9555 C   0  0  0  0  0  0  0  0  0  0  0  0
  -22.6507  -13.6275   20.8294 C   0  0  0  0  0  0  0  0  0  0  0  0
  -27.9183  -17.9808   22.1769 C   0  0  0  0  0  0  0  0  0  0  0  0
  -26.9384  -20.4879   20.9526 C   0  0  0  0  0  0  0  0  0  0  0  0
  -22.5118  -15.1463   20.8945 C   0  0  0  0  0  0  0  0  0  0  0  0
  -23.9683  -30.5235   19.3905 C   0  0  0  0  0  0  0  0  0  0  0  0
  -23.3294  -15.8051   19.7880 C   0  0  0  0  0  0  0  0  0  0  0  0
  -23.2867  -30.4474   20.7578 C   0  0  0  0  0  0  0  0  0  0  0  0
  -24.8488  -29.3033   19.1301 C   0  0  0  0  0  0  0  0  0  0  0  0
  -25.1634  -28.9468   21.5483 C   0  0  0  0  0  0  0  0  0  0  0  0
  -24.8221  -15.4899   19.9429 C   0  0  1  0  0  0  0  0  0  0  0  0
  -26.4291  -18.2559   21.9923 C   0  0  1  0  0  0  0  0  0  0  0  0
  -24.3086  -30.1820   21.8797 C   0  0  2  0  0  0  0  0  0  0  0  0
  -31.5036  -21.7075   16.4157 C   0  0  0  0  0  0  0  0  0  0  0  0
  -25.4476  -25.4753   24.8753 C   0  0  0  0  0  0  0  0  0  0  0  0
  -23.0661  -20.8974   20.2394 C   0  0  0  0  0  0  0  0  0  0  0  0
  -22.8852  -23.1982   21.2098 C   0  0  0  0  0  0  0  0  0  0  0  0
  -22.1281  -21.2247   22.5345 C   0  0  0  0  0  0  0  0  0  0  0  0
  -27.2159  -22.2637   25.8927 C   0  0  0  0  0  0  0  0  0  0  0  0
  -29.9566  -27.4410   20.6987 C   0  0  0  0  0  0  0  0  0  0  0  0
  -29.4430  -28.8532   20.9344 C   0  0  0  0  0  0  0  0  0  0  0  0
  -30.5993  -21.6909   17.6416 C   0  0  1  0  0  0  0  0  0  1  0  0
  -24.6028  -21.6096   22.1881 C   0  0  1  0  0  0  0  0  0  0  0  0
  -25.6455  -23.9701   24.9648 C   0  0  2  0  0  0  0  0  0  0  0  0
  -23.1959  -21.7217   21.5357 C   0  0  0  0  0  0  0  0  0  0  0  0
  -30.8292  -24.9841   19.5058 N   0  0  0  0  0  0  0  0  0  0  0  0
  -23.2672  -28.8462   23.6724 N   0  0  0  0  0  0  0  0  0  0  0  0
  -23.6345  -30.0624   23.2340 N   0  0  0  0  0  0  0  0  0  0  0  0
  -26.1276  -19.6846   21.8825 N   0  0  0  0  0  0  0  0  0  0  0  0
  -25.7965  -29.1082   20.2300 N   0  0  0  0  0  0  0  0  0  0  0  0
  -23.6421  -32.3579   23.8181 N   0  0  0  0  0  0  0  0  0  0  0  0
  -21.6647  -30.3861   27.3675 N   0  0  0  0  0  0  0  0  0  0  0  0
  -29.4195  -26.9052   19.4906 N   0  0  0  0  0  0  0  0  0  0  0  0
  -25.4060  -16.3078   20.9843 N   0  0  0  0  0  0  0  0  0  0  0  0
  -24.7461  -22.3584   23.4319 N   0  0  0  0  0  0  0  0  0  0  0  0
  -28.0028  -28.8976   21.0555 N   0  0  0  0  0  0  0  0  0  0  0  0
  -26.9086  -23.7057   25.7103 N   0  3  0  0  0  0  0  0  0  0  0  0
  -22.3302  -32.3955   26.4854 O   0  0  0  0  0  0  0  0  0  0  0  0
  -25.8435  -18.2041   19.7055 O   0  0  0  0  0  0  0  0  0  0  0  0
  -24.2762  -19.5356   23.2919 O   0  0  0  0  0  0  0  0  0  0  0  0
  -26.5167  -23.6811   22.7298 O   0  0  0  0  0  0  0  0  0  0  0  0
  -27.6311  -29.2147   18.8154 O   0  0  0  0  0  0  0  0  0  0  0  0
  -20.6777  -24.9378   27.9814 O   0  0  0  0  0  0  0  0  0  0  0  0
  -31.2419  -20.9368   18.6687 O   0  0  0  0  0  0  0  0  0  1  0  0
  -17.5534  -21.1477   25.4760 F   0  0  0  0  0  0  0  0  0  0  0  0
  -21.6866  -23.4139   25.9072 F   0  0  0  0  0  0  0  0  0  0  0  0
  1  2  1  0  0  0  0
  1  5  2  0  0  0  0
  2  6  2  0  0  0  0
  3  9  2  0  0  0  0
  3 18  1  0  0  0  0
  4 10  1  0  0  0  0
  4 18  2  0  0  0  0
  5 20  1  0  0  0  0
  6 22  1  0  0  0  0
  7 11  2  0  0  0  0
  7 21  1  0  0  0  0
  8 14  2  0  0  0  0
  8 24  1  0  0  0  0
  9 25  1  0  0  0  0
 10 25  2  0  0  0  0
 11 26  1  0  0  0  0
 12 13  2  0  0  0  0
 12 27  1  0  0  0  0
 13 28  1  0  0  0  0
 14 31  1  0  0  0  0
 15 23  1  0  0  0  0
 15 26  2  0  0  0  0
 16 28  2  0  0  0  0
 16 29  1  0  0  0  0
 17 24  2  0  0  0  0
 17 62  1  0  0  0  0
 18 30  1  0  0  0  0
 19 30  1  0  0  0  0
 19 32  2  0  0  0  0
 19 33  1  0  0  0  0
 20 22  2  0  0  0  0
 20 38  1  0  0  0  0
 21 23  2  0  0  0  0
 21 39  1  0  0  0  0
 22 47  1  0  0  0  0
 23 40  1  0  0  0  0
 24 58  1  0  0  0  0
 25 79  1  0  0  0  0
 26 80  1  0  0  0  0
 27 29  2  0  0  0  0
 27 79  1  0  0  0  0
 28 81  1  0  0  0  0
 29 82  1  0  0  0  0
 30 63  2  0  0  0  0
 31 62  2  0  0  0  0
 31 69  1  0  0  0  0
 32 64  1  0  0  0  0
 32 67  1  0  0  0  0
 33 68  1  0  0  0  0
 33 74  2  0  0  0  0
 34 48  1  0  0  0  0
 34 70  1  0  0  0  0
 34 75  2  0  0  0  0
 35 59  1  0  0  0  0
 35 65  1  0  0  0  0
 35 76  2  0  0  0  0
 36 60  1  0  0  0  0
 36 71  1  0  0  0  0
 36 77  2  0  0  0  0
 37 66  1  0  0  0  0
 37 72  1  0  0  0  0
 37 78  2  0  0  0  0
 38 41  1  0  0  0  0
 39 48  1  0  0  0  0
 40 65  1  0  0  0  0
 41 43  1  0  0  0  0
 42 44  1  0  0  0  0
 42 45  1  0  0  0  0
 43 47  1  0  0  0  0
 44 49  1  0  0  0  0
 45 66  1  0  0  0  0
 46 49  1  0  0  0  0
 46 66  1  0  0  0  0
 47 70  1  0  0  0  0
 48 65  1  0  0  0  0
 49 64  1  0  0  0  0
 50 58  1  0  0  0  0
 51 60  1  0  0  0  0
 52 61  1  0  0  0  0
 53 61  1  0  0  0  0
 54 61  1  0  0  0  0
 55 73  1  0  0  0  0
 56 57  1  0  0  0  0
 56 69  1  0  0  0  0
 57 72  1  0  0  0  0
 58 80  1  0  0  0  0
 59 61  1  0  0  0  0
 59 71  1  0  0  0  0
 60 73  1  0  0  0  0
 63 64  1  0  0  0  0
M  CHG  1  73   1
M  ISO  4  37 100  58 101  72 100  80 101
M  END
> <Batch ID>
0126

> <Smiles>
CNC(C)C(=O)NC(C(=O)N1Cc2cc([101O:1][101CH:1](C)c3ccc(NCC[100NH:0][100C:0](=O)N4CCCC(n5nc(-c6ccc(Oc7ccc(F)cc7F)cc6)c(C(N)=O)c5N)C4)nc3)ccc2CC1C(=O)NC1CCCc2ccccc21)C(C)(C)C

> <Shape>
0.191

> <Color>
0.087

> <Negative vol penalty>
0.000

$$$$

  -OEChem-04052320383D

 92102  0     1  0  0  0  0  0999 V2000
  -18.8280  -33.7862   23.9909 C   0  0  0  0  0  0  0  0  0  0  0  0
  -20.0772  -33.8092   23.3790 C   0  0  0  0  0  0  0  0  0  0  0  0
  -22.2438  -14.6117   22.8612 C   0  0  0  0  0  0  0  0  0  0  0  0
  -21.6918  -14.8521   20.5214 C   0  0  0  0  0  0  0  0  0  0  0  0
  -18.3854  -32.6266   24.6260 C   0  0  0  0  0  0  0  0  0  0  0  0
  -20.8850  -32.6728   23.4028 C   0  0  0  0  0  0  0  0  0  0  0  0
  -25.7550  -29.2015   19.4595 C   0  0  0  0  0  0  0  0  0  0  0  0
  -21.0039  -15.1479   23.2088 C   0  0  0  0  0  0  0  0  0  0  0  0
  -20.4519  -15.3883   20.8690 C   0  0  0  0  0  0  0  0  0  0  0  0
  -27.0403  -28.6705   19.5577 C   0  0  0  0  0  0  0  0  0  0  0  0
  -19.5781  -18.2066   23.3984 C   0  0  0  0  0  0  0  0  0  0  0  0
  -19.5494  -19.1710   24.4056 C   0  0  0  0  0  0  0  0  0  0  0  0
  -26.1385  -26.6991   20.6158 C   0  0  0  0  0  0  0  0  0  0  0  0
  -27.2889  -20.8777   17.4634 C   0  0  0  0  0  0  0  0  0  0  0  0
  -18.1000  -17.7543   25.7207 C   0  0  0  0  0  0  0  0  0  0  0  0
  -28.8896  -20.1785   16.0426 C   0  0  0  0  0  0  0  0  0  0  0  0
  -22.5877  -14.4639   21.5174 C   0  0  0  0  0  0  0  0  0  0  0  0
  -24.1792  -12.5541   20.9448 C   0  0  0  0  0  0  0  0  0  0  0  0
  -19.1841  -31.4724   24.6492 C   0  0  0  0  0  0  0  0  0  0  0  0
  -24.6511  -28.4889   19.9494 C   0  0  0  0  0  0  0  0  0  0  0  0
  -20.4532  -31.4971   24.0400 C   0  0  0  0  0  0  0  0  0  0  0  0
  -24.8399  -27.2222   20.5203 C   0  0  0  0  0  0  0  0  0  0  0  0
  -28.5556  -21.1927   16.9126 C   0  0  0  0  0  0  0  0  0  0  0  0
  -20.1080  -15.5361   22.2128 C   0  0  0  0  0  0  0  0  0  0  0  0
  -27.2326  -27.4204   20.1386 C   0  0  0  0  0  0  0  0  0  0  0  0
  -18.8677  -17.0160   23.5522 C   0  0  0  0  0  0  0  0  0  0  0  0
  -18.8103  -18.9449   25.5668 C   0  0  0  0  0  0  0  0  0  0  0  0
  -18.1287  -16.7899   24.7134 C   0  0  0  0  0  0  0  0  0  0  0  0
  -23.8686  -13.9106   21.1577 C   0  0  0  0  0  0  0  0  0  0  0  0
  -26.8875  -19.6804   16.9132 C   0  0  0  0  0  0  0  0  0  0  0  0
  -25.5157  -12.5534   20.6285 C   0  0  0  0  0  0  0  0  0  0  0  0
  -23.3349  -11.3981   21.0257 C   0  0  0  0  0  0  0  0  0  0  0  0
  -22.4684  -29.0044   22.2019 C   0  0  0  0  0  0  0  0  0  0  0  0
  -21.1661  -26.2807   21.0154 C   0  0  0  0  0  0  0  0  0  0  0  0
  -21.6169  -23.3528   19.3211 C   0  0  0  0  0  0  0  0  0  0  0  0
  -29.1533  -16.6920   18.2852 C   0  0  0  0  0  0  0  0  0  0  0  0
  -18.6827  -30.2574   25.3888 C   0  0  0  0  0  0  0  0  0  0  0  0
  -23.2680  -29.0639   19.8117 C   0  0  0  0  0  0  0  0  0  0  0  0
  -23.6857  -26.4080   21.0431 C   0  0  0  0  0  0  0  0  0  0  0  0
  -19.4424  -28.9787   25.0452 C   0  0  0  0  0  0  0  0  0  0  0  0
  -29.5472  -15.0118   21.3994 C   0  0  0  0  0  0  0  0  0  0  0  0
  -20.9469  -29.2290   25.0684 C   0  0  0  0  0  0  0  0  0  0  0  0
  -28.1646  -14.4167   21.6714 C   0  0  0  0  0  0  0  0  0  0  0  0
  -28.6306  -23.6793   16.8165 C   0  0  0  0  0  0  0  0  0  0  0  0
  -29.7615  -22.4340   18.7025 C   0  0  0  0  0  0  0  0  0  0  0  0
  -25.0964  -19.0170   18.5846 C   0  0  0  0  0  0  0  0  0  0  0  0
  -24.5188  -19.2229   16.1244 C   0  0  0  0  0  0  0  0  0  0  0  0
  -29.4507  -16.3782   20.7243 C   0  0  0  0  0  0  0  0  0  0  0  0
  -27.2509  -15.8109   19.7688 C   0  0  0  0  0  0  0  0  0  0  0  0
  -29.4389  -24.9224   17.1656 C   0  0  0  0  0  0  0  0  0  0  0  0
  -30.5613  -23.6865   19.0370 C   0  0  0  0  0  0  0  0  0  0  0  0
  -23.8297  -18.2004   18.7970 C   0  0  0  0  0  0  0  0  0  0  0  0
  -23.2594  -18.4035   16.3683 C   0  0  0  0  0  0  0  0  0  0  0  0
  -29.3726  -22.3936   17.2159 C   0  0  0  0  0  0  0  0  0  0  0  0
  -21.3480  -30.2768   24.0230 C   0  0  1  0  0  0  0  0  0  0  0  0
  -25.6228  -18.8818   17.1431 C   0  0  0  0  0  0  0  0  0  0  0  0
  -22.2744  -28.4758   20.8088 C   0  0  1  0  0  0  0  0  0  0  0  0
  -27.2974  -14.4081   20.3981 C   0  0  2  0  0  0  0  0  0  0  0  0
  -20.3744  -21.3169   18.5408 C   0  0  0  0  0  0  0  0  0  0  0  0
  -21.1916  -25.1778   23.8603 C   0  0  0  0  0  0  0  0  0  0  0  0
  -20.8563  -22.8894   22.9017 C   0  0  0  0  0  0  0  0  0  0  0  0
  -19.1241  -24.6508   22.5555 C   0  0  0  0  0  0  0  0  0  0  0  0
  -22.2001  -23.9431   16.4803 C   0  0  0  0  0  0  0  0  0  0  0  0
  -27.8461  -18.0516   15.2635 C   0  0  0  0  0  0  0  0  0  0  0  0
  -28.7071  -16.9393   15.8564 C   0  0  0  0  0  0  0  0  0  0  0  0
  -30.4577  -26.1774   19.0643 C   0  0  0  0  0  0  0  0  0  0  0  0
  -29.4255  -27.2753   19.2296 C   0  0  0  0  0  0  0  0  0  1  0  0
  -21.3176  -24.8075   21.3082 C   0  0  1  0  0  0  0  0  0  0  0  0
  -20.8406  -22.7190   18.1809 C   0  0  2  0  0  0  0  0  0  0  0  0
  -20.6446  -24.3973   22.6484 C   0  0  0  0  0  0  0  0  0  0  0  0
  -24.9230  -14.7133   20.9909 N   0  0  0  0  0  0  0  0  0  0  0  0
  -27.8684  -19.2645   16.0513 N   0  0  0  0  0  0  0  0  0  0  0  0
  -25.9092  -13.8587   20.6699 N   0  0  0  0  0  0  0  0  0  0  0  0
  -22.3535  -27.0159   20.8913 N   0  0  0  0  0  0  0  0  0  0  0  0
  -28.6163  -16.3009   19.5228 N   0  0  0  0  0  0  0  0  0  0  0  0
  -26.3811  -11.5637   20.3219 N   0  0  0  0  0  0  0  0  0  0  0  0
  -21.9865  -11.5777   21.3630 N   0  0  0  0  0  0  0  0  0  0  0  0
  -21.3760  -29.6874   22.7016 N   0  0  0  0  0  0  0  0  0  0  0  0
  -20.8002  -24.1038   20.1397 N   0  0  0  0  0  0  0  0  0  0  0  0
  -28.2975  -16.5814   17.1961 N   0  0  0  0  0  0  0  0  0  0  0  0
  -22.8120  -18.5970   17.7794 N   0  3  0  0  0  0  0  0  0  0  0  0
  -29.7789  -24.9257   18.6441 N   0  3  0  0  0  0  0  0  0  0  0  0
  -21.6912  -22.6325   16.9602 N   0  3  0  0  0  0  0  0  0  0  0  0
  -23.7674  -10.2384   20.8213 O   0  0  0  0  0  0  0  0  0  0  0  0
  -23.5299  -28.8060   22.7811 O   0  0  0  0  0  0  0  0  0  0  0  0
  -20.0360  -26.7600   20.8941 O   0  0  0  0  0  0  0  0  0  0  0  0
  -22.8262  -23.1942   19.4727 O   0  0  0  0  0  0  0  0  0  0  0  0
  -30.3116  -17.1037   18.1591 O   0  0  0  0  0  0  0  0  0  0  0  0
  -18.8979  -16.0591   22.5516 O   0  0  0  0  0  0  0  0  0  0  0  0
  -28.4862  -26.9001   20.2363 O   0  0  0  0  0  0  0  0  0  1  0  0
  -18.7841  -19.8705   26.5347 F   0  0  0  0  0  0  0  0  0  0  0  0
  -17.4452  -15.6476   24.8674 F   0  0  0  0  0  0  0  0  0  0  0  0
  1  2  1  0  0  0  0
  1  5  2  0  0  0  0
  2  6  2  0  0  0  0
  3  8  2  0  0  0  0
  3 17  1  0  0  0  0
  4  9  1  0  0  0  0
  4 17  2  0  0  0  0
  5 19  1  0  0  0  0
  6 21  1  0  0  0  0
  7 10  2  0  0  0  0
  7 20  1  0  0  0  0
  8 24  1  0  0  0  0
  9 24  2  0  0  0  0
 10 25  1  0  0  0  0
 11 12  2  0  0  0  0
 11 26  1  0  0  0  0
 12 27  1  0  0  0  0
 13 22  1  0  0  0  0
 13 25  2  0  0  0  0
 14 23  1  0  0  0  0
 14 30  2  0  0  0  0
 15 27  2  0  0  0  0
 15 28  1  0  0  0  0
 16 23  2  0  0  0  0
 16 72  1  0  0  0  0
 17 29  1  0  0  0  0
 18 29  1  0  0  0  0
 18 31  2  0  0  0  0
 18 32  1  0  0  0  0
 19 21  2  0  0  0  0
 19 37  1  0  0  0  0
 20 22  2  0  0  0  0
 20 38  1  0  0  0  0
 21 55  1  0  0  0  0
 22 39  1  0  0  0  0
 23 54  1  0  0  0  0
 24 89  1  0  0  0  0
 25 90  1  0  0  0  0
 26 28  2  0  0  0  0
 26 89  1  0  0  0  0
 27 91  1  0  0  0  0
 28 92  1  0  0  0  0
 29 71  2  0  0  0  0
 30 56  1  0  0  0  0
 30 72  1  0  0  0  0
 31 73  1  0  0  0  0
 31 76  1  0  0  0  0
 32 77  1  0  0  0  0
 32 84  2  0  0  0  0
 33 57  1  0  0  0  0
 33 78  1  0  0  0  0
 33 85  2  0  0  0  0
 34 68  1  0  0  0  0
 34 74  1  0  0  0  0
 34 86  2  0  0  0  0
 35 69  1  0  0  0  0
 35 79  1  0  0  0  0
 35 87  2  0  0  0  0
 36 75  1  0  0  0  0
 36 80  1  0  0  0  0
 36 88  2  0  0  0  0
 37 40  1  0  0  0  0
 38 57  1  0  0  0  0
 39 74  1  0  0  0  0
 40 42  1  0  0  0  0
 41 43  1  0  0  0  0
 41 48  1  0  0  0  0
 42 55  1  0  0  0  0
 43 58  1  0  0  0  0
 44 50  1  0  0  0  0
 44 54  1  0  0  0  0
 45 51  1  0  0  0  0
 45 54  1  0  0  0  0
 46 52  1  0  0  0  0
 46 56  1  0  0  0  0
 47 53  1  0  0  0  0
 47 56  1  0  0  0  0
 48 75  1  0  0  0  0
 49 58  1  0  0  0  0
 49 75  1  0  0  0  0
 50 82  1  0  0  0  0
 51 82  1  0  0  0  0
 52 81  1  0  0  0  0
 53 81  1  0  0  0  0
 55 78  1  0  0  0  0
 57 74  1  0  0  0  0
 58 73  1  0  0  0  0
 59 69  1  0  0  0  0
 60 70  1  0  0  0  0
 61 70  1  0  0  0  0
 62 70  1  0  0  0  0
 63 83  1  0  0  0  0
 64 65  1  0  0  0  0
 64 72  1  0  0  0  0
 65 80  1  0  0  0  0
 66 67  1  0  0  0  0
 66 82  1  0  0  0  0
 67 90  1  0  0  0  0
 68 70  1  0  0  0  0
 68 79  1  0  0  0  0
 69 83  1  0  0  0  0
 71 73  1  0  0  0  0
M  CHG  3  81   1  82   1  83   1
M  ISO  4  36 100  67 101  80 100  90 101
M  END
> <Batch ID>
0126

> <Smiles>
CNC(C)C(=O)NC(C(=O)N1Cc2cc([101O:1][101CH2:1]CN3CCC(c4cc(C5CCNCC5)n(CC[100NH:0][100C:0](=O)N5CCCC(n6nc(-c7ccc(Oc8ccc(F)cc8F)cc7)c(C(N)=O)c6N)C5)c4)CC3)ccc2CC1C(=O)NC1CCCc2ccccc21)C(C)(C)C

> <Shape>
0.206

> <Color>
0.094

> <Negative vol penalty>
0.000

$$$$

  -OEChem-04052320383D

 85 94  0     1  0  0  0  0  0999 V2000
  -22.6869  -10.3906   18.4074 C   0  0  0  0  0  0  0  0  0  0  0  0
  -22.2107  -11.6975   18.4315 C   0  0  0  0  0  0  0  0  0  0  0  0
  -29.9288  -28.4095   20.5665 C   0  0  0  0  0  0  0  0  0  0  0  0
  -28.7961  -26.7709   21.9336 C   0  0  0  0  0  0  0  0  0  0  0  0
  -23.8213  -10.0496   19.1428 C   0  0  0  0  0  0  0  0  0  0  0  0
  -22.8681  -12.6641   19.1918 C   0  0  0  0  0  0  0  0  0  0  0  0
  -23.5156  -18.6012   17.8366 C   0  0  0  0  0  0  0  0  0  0  0  0
  -20.9634  -24.4063   18.9002 C   0  0  0  0  0  0  0  0  0  0  0  0
  -31.1266  -28.1307   21.2247 C   0  0  0  0  0  0  0  0  0  0  0  0
  -29.9939  -26.4921   22.5918 C   0  0  0  0  0  0  0  0  0  0  0  0
  -22.8230  -19.7385   18.2496 C   0  0  0  0  0  0  0  0  0  0  0  0
  -33.5195  -25.7434   21.1377 C   0  0  0  0  0  0  0  0  0  0  0  0
  -34.6659  -25.5865   20.3588 C   0  0  0  0  0  0  0  0  0  0  0  0
  -20.4202  -25.5598   19.4550 C   0  0  0  0  0  0  0  0  0  0  0  0
  -24.4916  -20.1309   19.9470 C   0  0  0  0  0  0  0  0  0  0  0  0
  -35.7062  -27.4337   21.5178 C   0  0  0  0  0  0  0  0  0  0  0  0
  -20.2089  -23.1976   20.8045 C   0  0  0  0  0  0  0  0  0  0  0  0
  -28.7636  -27.7296   20.9210 C   0  0  0  0  0  0  0  0  0  0  0  0
  -27.0275  -27.3942   19.0821 C   0  0  0  0  0  0  0  0  0  0  0  0
  -24.4986  -11.0146   19.9048 C   0  0  0  0  0  0  0  0  0  0  0  0
  -24.6975  -18.2134   18.4839 C   0  0  0  0  0  0  0  0  0  0  0  0
  -24.0119  -12.3353   19.9391 C   0  0  0  0  0  0  0  0  0  0  0  0
  -25.1986  -18.9897   19.5386 C   0  0  0  0  0  0  0  0  0  0  0  0
  -20.8600  -23.1986   19.5815 C   0  0  0  0  0  0  0  0  0  0  0  0
  -31.1591  -27.1720   22.2373 C   0  0  0  0  0  0  0  0  0  0  0  0
  -23.3094  -20.5020   19.3068 C   0  0  0  0  0  0  0  0  0  0  0  0
  -33.4664  -26.7455   22.1066 C   0  0  0  0  0  0  0  0  0  0  0  0
  -35.7593  -26.4316   20.5488 C   0  0  0  0  0  0  0  0  0  0  0  0
  -34.5597  -27.5906   22.2966 C   0  0  0  0  0  0  0  0  0  0  0  0
  -27.5259  -28.0176   20.2418 C   0  0  0  0  0  0  0  0  0  0  0  0
  -19.7886  -25.4530   20.6836 C   0  0  0  0  0  0  0  0  0  0  0  0
  -25.8294  -28.0217   18.8429 C   0  0  0  0  0  0  0  0  0  0  0  0
  -27.5968  -26.3421   18.2918 C   0  0  0  0  0  0  0  0  0  0  0  0
  -25.6149  -15.6586   20.1376 C   0  0  0  0  0  0  0  0  0  0  0  0
  -28.5015  -17.1369   20.0740 C   0  0  0  0  0  0  0  0  0  0  0  0
  -30.2607  -20.0462   19.7771 C   0  0  0  0  0  0  0  0  0  0  0  0
  -21.9653  -30.9181   22.3828 C   0  0  0  0  0  0  0  0  0  0  0  0
  -25.6931  -10.5879   20.7208 C   0  0  0  0  0  0  0  0  0  0  0  0
  -25.4471  -16.9989   18.0089 C   0  0  0  0  0  0  0  0  0  0  0  0
  -26.4739  -18.6276   20.2534 C   0  0  0  0  0  0  0  0  0  0  0  0
  -26.5498  -11.7557   21.2031 C   0  0  0  0  0  0  0  0  0  0  0  0
  -17.3721  -27.5041   22.8603 C   0  0  0  0  0  0  0  0  0  0  0  0
  -23.5975  -32.2036   19.4914 C   0  0  0  0  0  0  0  0  0  0  0  0
  -25.6710  -12.8563   21.7888 C   0  0  0  0  0  0  0  0  0  0  0  0
  -17.9626  -26.2888   22.1489 C   0  0  0  0  0  0  0  0  0  0  0  0
  -18.4171  -28.2233   23.7095 C   0  0  0  0  0  0  0  0  0  0  0  0
  -24.7444  -31.2203   19.2512 C   0  0  0  0  0  0  0  0  0  0  0  0
  -20.2450  -27.3942   22.1715 C   0  0  0  0  0  0  0  0  0  0  0  0
  -23.3456  -32.4239   20.9814 C   0  0  0  0  0  0  0  0  0  0  0  0
  -24.2785  -30.2078   21.5220 C   0  0  0  0  0  0  0  0  0  0  0  0
  -24.7119  -13.4176   20.7321 C   0  0  1  0  0  0  0  0  0  0  0  0
  -19.1938  -26.6707   21.3083 C   0  0  1  0  0  0  0  0  0  0  0  0
  -26.3659  -16.4093   19.0745 C   0  0  1  0  0  0  0  0  0  0  0  0
  -19.6473  -28.6182   22.8821 C   0  0  2  0  0  0  0  0  0  0  0  0
  -24.5333  -29.9106   20.0343 C   0  0  2  0  0  0  0  0  0  0  0  0
  -32.6045  -20.9426   19.8042 C   0  0  0  0  0  0  0  0  0  0  0  0
  -28.5683  -16.8637   23.1123 C   0  0  0  0  0  0  0  0  0  0  0  0
  -30.3999  -18.5701   23.1557 C   0  0  0  0  0  0  0  0  0  0  0  0
  -30.7469  -16.4002   21.9750 C   0  0  0  0  0  0  0  0  0  0  0  0
  -30.0318  -21.0522   17.0032 C   0  0  0  0  0  0  0  0  0  0  0  0
  -21.4359  -21.9365   19.0099 C   0  0  0  0  0  0  0  0  0  1  0  0
  -20.6957  -29.2938   23.7644 C   0  0  0  0  0  0  0  0  0  0  0  0
  -29.2122  -18.1331   20.9581 C   0  0  1  0  0  0  0  0  0  0  0  0
  -31.4733  -20.4091   18.9390 C   0  0  2  0  0  0  0  0  0  0  0  0
  -29.7067  -17.4978   22.2883 C   0  0  0  0  0  0  0  0  0  0  0  0
  -19.6686  -24.2976   21.3752 N   0  0  0  0  0  0  0  0  0  0  0  0
  -26.7110  -28.9682   20.7070 N   0  0  0  0  0  0  0  0  0  0  0  0
  -25.6885  -28.9469   19.8350 N   0  0  0  0  0  0  0  0  0  0  0  0
  -27.1672  -17.4277   19.7563 N   0  0  0  0  0  0  0  0  0  0  0  0
  -23.1519  -31.1431   21.6656 N   0  0  0  0  0  0  0  0  0  0  0  0
  -24.8932  -27.8667   17.8828 N   0  0  0  0  0  0  0  0  0  0  0  0
  -28.8345  -25.8105   18.6789 N   0  0  0  0  0  0  0  0  0  0  0  0
  -25.4106  -14.3235   19.8457 N   0  0  0  0  0  0  0  0  0  0  0  0
  -30.2728  -18.7172   20.1444 N   0  0  0  0  0  0  0  0  0  0  0  0
  -21.8595  -29.6758   22.9961 N   0  0  0  0  0  0  0  0  0  0  0  0
  -31.1165  -21.4522   17.9362 N   0  3  0  0  0  0  0  0  0  0  0  0
  -27.0326  -25.8980   17.2632 O   0  0  0  0  0  0  0  0  0  0  0  0
  -25.2492  -16.2467   21.1486 O   0  0  0  0  0  0  0  0  0  0  0  0
  -29.1101  -16.1413   19.6740 O   0  0  0  0  0  0  0  0  0  0  0  0
  -29.3917  -20.8612   20.0791 O   0  0  0  0  0  0  0  0  0  0  0  0
  -21.0645  -31.7598   22.4657 O   0  0  0  0  0  0  0  0  0  0  0  0
  -32.3278  -26.8995   22.8797 O   0  0  0  0  0  0  0  0  0  0  0  0
  -22.6350  -21.6122   19.7124 O   0  0  0  0  0  0  0  0  0  1  0  0
  -36.8607  -26.2798   19.8018 F   0  0  0  0  0  0  0  0  0  0  0  0
  -34.5150  -28.5543   23.2267 F   0  0  0  0  0  0  0  0  0  0  0  0
  1  2  1  0  0  0  0
  1  5  2  0  0  0  0
  2  6  2  0  0  0  0
  3  9  2  0  0  0  0
  3 18  1  0  0  0  0
  4 10  1  0  0  0  0
  4 18  2  0  0  0  0
  5 20  1  0  0  0  0
  6 22  1  0  0  0  0
  7 11  2  0  0  0  0
  7 21  1  0  0  0  0
  8 14  2  0  0  0  0
  8 24  1  0  0  0  0
  9 25  1  0  0  0  0
 10 25  2  0  0  0  0
 11 26  1  0  0  0  0
 12 13  2  0  0  0  0
 12 27  1  0  0  0  0
 13 28  1  0  0  0  0
 14 31  1  0  0  0  0
 15 23  1  0  0  0  0
 15 26  2  0  0  0  0
 16 28  2  0  0  0  0
 16 29  1  0  0  0  0
 17 24  2  0  0  0  0
 17 66  1  0  0  0  0
 18 30  1  0  0  0  0
 19 30  1  0  0  0  0
 19 32  2  0  0  0  0
 19 33  1  0  0  0  0
 20 22  2  0  0  0  0
 20 38  1  0  0  0  0
 21 23  2  0  0  0  0
 21 39  1  0  0  0  0
 22 51  1  0  0  0  0
 23 40  1  0  0  0  0
 24 61  1  0  0  0  0
 25 82  1  0  0  0  0
 26 83  1  0  0  0  0
 27 29  2  0  0  0  0
 27 82  1  0  0  0  0
 28 84  1  0  0  0  0
 29 85  1  0  0  0  0
 30 67  2  0  0  0  0
 31 52  1  0  0  0  0
 31 66  2  0  0  0  0
 32 68  1  0  0  0  0
 32 71  1  0  0  0  0
 33 72  1  0  0  0  0
 33 77  2  0  0  0  0
 34 53  1  0  0  0  0
 34 73  1  0  0  0  0
 34 78  2  0  0  0  0
 35 63  1  0  0  0  0
 35 69  1  0  0  0  0
 35 79  2  0  0  0  0
 36 64  1  0  0  0  0
 36 74  1  0  0  0  0
 36 80  2  0  0  0  0
 37 70  1  0  0  0  0
 37 75  1  0  0  0  0
 37 81  2  0  0  0  0
 38 41  1  0  0  0  0
 39 53  1  0  0  0  0
 40 69  1  0  0  0  0
 41 44  1  0  0  0  0
 42 45  1  0  0  0  0
 42 46  1  0  0  0  0
 43 47  1  0  0  0  0
 43 49  1  0  0  0  0
 44 51  1  0  0  0  0
 45 52  1  0  0  0  0
 46 54  1  0  0  0  0
 47 55  1  0  0  0  0
 48 52  1  0  0  0  0
 48 54  1  0  0  0  0
 49 70  1  0  0  0  0
 50 55  1  0  0  0  0
 50 70  1  0  0  0  0
 51 73  1  0  0  0  0
 53 69  1  0  0  0  0
 54 62  1  0  0  0  0
 55 68  1  0  0  0  0
 56 64  1  0  0  0  0
 57 65  1  0  0  0  0
 58 65  1  0  0  0  0
 59 65  1  0  0  0  0
 60 76  1  0  0  0  0
 61 83  1  0  0  0  0
 62 75  1  0  0  0  0
 63 65  1  0  0  0  0
 63 74  1  0  0  0  0
 64 76  1  0  0  0  0
 67 68  1  0  0  0  0
M  CHG  1  76   1
M  ISO  4  37 100  61 101  75 100  83 101
M  END
> <Batch ID>
0126

> <Smiles>
CNC(C)C(=O)NC(C(=O)N1Cc2cc([101O:1][101CH2:1]c3ccc(C4CCCC(C[100NH:0][100C:0](=O)N5CCCC(n6nc(-c7ccc(Oc8ccc(F)cc8F)cc7)c(C(N)=O)c6N)C5)C4)nc3)ccc2CC1C(=O)NC1CCCc2ccccc21)C(C)(C)C

> <Shape>
0.229

> <Color>
0.078

> <Negative vol penalty>
0.000

$$$$

  -OEChem-04052320383D

 93102  0     1  0  0  0  0  0999 V2000
  -32.3270  -13.5786   20.2114 C   0  0  0  0  0  0  0  0  0  0  0  0
  -31.7558  -14.8246   20.4493 C   0  0  0  0  0  0  0  0  0  0  0  0
  -28.6197  -24.6885   20.4088 C   0  0  0  0  0  0  0  0  0  0  0  0
  -29.4209  -24.9200   22.6763 C   0  0  0  0  0  0  0  0  0  0  0  0
  -31.5215  -12.5038   19.8372 C   0  0  0  0  0  0  0  0  0  0  0  0
  -30.3789  -14.9968   20.3122 C   0  0  0  0  0  0  0  0  0  0  0  0
  -26.7776  -18.6639   23.6423 C   0  0  0  0  0  0  0  0  0  0  0  0
  -28.6728  -23.3001   20.5318 C   0  0  0  0  0  0  0  0  0  0  0  0
  -29.4739  -23.5316   22.7993 C   0  0  0  0  0  0  0  0  0  0  0  0
  -26.2647  -19.9390   23.4084 C   0  0  0  0  0  0  0  0  0  0  0  0
  -31.0283  -20.8785   20.4226 C   0  0  0  0  0  0  0  0  0  0  0  0
  -31.5877  -20.1562   19.3686 C   0  0  0  0  0  0  0  0  0  0  0  0
  -24.2132  -18.9592   22.6019 C   0  0  0  0  0  0  0  0  0  0  0  0
  -22.7527  -23.5258   20.6667 C   0  0  0  0  0  0  0  0  0  0  0  0
  -29.5019  -18.9737   19.0720 C   0  0  0  0  0  0  0  0  0  0  0  0
  -28.9938  -25.4985   21.4811 C   0  0  0  0  0  0  0  0  0  0  0  0
  -29.6380  -27.7314   20.4291 C   0  0  0  0  0  0  0  0  0  0  0  0
  -30.1328  -12.6605   19.7048 C   0  0  0  0  0  0  0  0  0  0  0  0
  -26.0150  -17.5247   23.3470 C   0  0  0  0  0  0  0  0  0  0  0  0
  -29.5542  -13.9234   19.9346 C   0  0  0  0  0  0  0  0  0  0  0  0
  -24.7178  -17.6708   22.8353 C   0  0  0  0  0  0  0  0  0  0  0  0
  -22.8010  -22.8499   21.9108 C   0  0  0  0  0  0  0  0  0  0  0  0
  -29.0999  -22.7216   21.7270 C   0  0  0  0  0  0  0  0  0  0  0  0
  -24.9834  -20.0868   22.8854 C   0  0  0  0  0  0  0  0  0  0  0  0
  -29.7057  -20.6484   20.8014 C   0  0  0  0  0  0  0  0  0  0  0  0
  -30.8245  -19.2038   18.6933 C   0  0  0  0  0  0  0  0  0  0  0  0
  -28.9425  -19.6960   20.1260 C   0  0  0  0  0  0  0  0  0  0  0  0
  -28.9398  -26.9327   21.3545 C   0  0  0  0  0  0  0  0  0  0  0  0
  -22.3824  -24.8281   20.9202 C   0  0  0  0  0  0  0  0  0  0  0  0
  -22.4587  -23.7596   22.8868 C   0  0  0  0  0  0  0  0  0  0  0  0
  -29.2459  -29.0154   20.7189 C   0  0  0  0  0  0  0  0  0  0  0  0
  -30.5588  -27.3469   19.3994 C   0  0  0  0  0  0  0  0  0  0  0  0
  -26.3446  -15.0541   21.3744 C   0  0  0  0  0  0  0  0  0  0  0  0
  -23.6801  -13.9899   22.8876 C   0  0  0  0  0  0  0  0  0  0  0  0
  -20.8762  -14.7349   24.6849 C   0  0  0  0  0  0  0  0  0  0  0  0
  -24.3505  -31.2987   23.3020 C   0  0  0  0  0  0  0  0  0  0  0  0
  -29.3090  -11.4811   19.2522 C   0  0  0  0  0  0  0  0  0  0  0  0
  -26.5726  -16.1567   23.6301 C   0  0  0  0  0  0  0  0  0  0  0  0
  -23.8508  -16.4802   22.5204 C   0  0  0  0  0  0  0  0  0  0  0  0
  -27.8117  -11.6554   19.4933 C   0  0  0  0  0  0  0  0  0  0  0  0
  -27.7254  -31.7370   24.3482 C   0  0  0  0  0  0  0  0  0  0  0  0
  -17.7924  -27.8755   22.6206 C   0  0  0  0  0  0  0  0  0  0  0  0
  -27.3538  -13.0353   19.0317 C   0  0  0  0  0  0  0  0  0  0  0  0
  -28.4823  -30.6275   23.6161 C   0  0  0  0  0  0  0  0  0  0  0  0
  -18.9600  -28.7461   22.1681 C   0  0  0  0  0  0  0  0  0  0  0  0
  -26.3353  -31.2791   24.7841 C   0  0  0  0  0  0  0  0  0  0  0  0
  -18.0643  -26.3970   22.3367 C   0  0  0  0  0  0  0  0  0  0  0  0
  -26.2576  -29.6103   22.9722 C   0  0  0  0  0  0  0  0  0  0  0  0
  -28.0614  -14.1438   19.8204 C   0  0  1  0  0  0  0  0  0  0  0  0
  -25.9036  -15.0575   22.8107 C   0  0  1  0  0  0  0  0  0  0  0  0
  -27.6436  -30.0425   22.4639 C   0  0  2  0  0  0  0  0  0  0  0  0
  -20.2768  -28.2224   22.7424 C   0  0  1  0  0  0  0  0  0  0  0  0
  -20.4731  -26.7212   22.4347 C   0  0  1  0  0  0  0  0  0  0  0  0
  -22.1835  -25.9547   19.9854 C   0  0  0  0  0  0  0  0  0  0  0  0
  -22.3503  -23.5898   24.3515 C   0  0  0  0  0  0  0  0  0  0  0  0
  -18.8729  -13.6589   25.7461 C   0  0  0  0  0  0  0  0  0  0  0  0
  -18.4755  -23.3374   24.1978 C   0  0  0  0  0  0  0  0  0  0  0  0
  -17.9962  -24.6627   26.2806 C   0  0  0  0  0  0  0  0  0  0  0  0
  -22.3965  -13.6733   20.1377 C   0  0  0  0  0  0  0  0  0  0  0  0
  -20.1691  -13.5264   21.2713 C   0  0  0  0  0  0  0  0  0  0  0  0
  -21.9175  -11.8083   21.7335 C   0  0  0  0  0  0  0  0  0  0  0  0
  -21.6592  -15.6677   27.3823 C   0  0  0  0  0  0  0  0  0  0  0  0
  -23.1608  -21.4080   22.1184 C   0  0  0  0  0  0  0  0  0  1  0  0
  -21.8132  -26.1770   22.9494 C   0  0  0  0  0  0  0  0  0  0  0  0
  -19.2425  -25.7578   24.3574 C   0  0  0  0  0  0  0  0  0  0  0  0
  -22.4347  -31.2028   21.7273 C   0  0  0  0  0  0  0  0  0  0  0  0
  -21.2728  -30.4838   22.3870 C   0  0  0  0  0  0  0  0  0  0  0  0
  -22.1940  -14.1408   22.6688 C   0  0  1  0  0  0  0  0  0  0  0  0
  -20.3034  -14.1309   25.9544 C   0  0  2  0  0  0  0  0  0  0  0  0
  -18.1820  -24.7274   24.7640 C   0  0  0  0  0  0  0  0  0  0  0  0
  -21.6861  -13.3098   21.4568 C   0  0  0  0  0  0  0  0  0  0  0  0
  -28.1630  -27.6494   22.1712 N   0  0  0  0  0  0  0  0  0  0  0  0
  -22.2060  -24.9586   22.2731 N   0  0  0  0  0  0  0  0  0  0  0  0
  -28.3709  -28.9118   21.7600 N   0  0  0  0  0  0  0  0  0  0  0  0
  -24.4431  -15.1636   22.8087 N   0  0  0  0  0  0  0  0  0  0  0  0
  -25.5912  -30.7366   23.6448 N   0  0  0  0  0  0  0  0  0  0  0  0
  -19.3289  -25.9036   22.9044 N   0  0  1  0  0  0  0  0  0  0  0  0
  -29.5677  -30.2116   20.1824 N   0  0  0  0  0  0  0  0  0  0  0  0
  -30.8501  -25.9855   19.2379 N   0  0  0  0  0  0  0  0  0  0  0  0
  -27.4687  -14.2876   21.1328 N   0  0  0  0  0  0  0  0  0  0  0  0
  -21.5579  -13.7989   23.9364 N   0  0  0  0  0  0  0  0  0  0  0  0
  -23.7145  -30.7294   22.2055 N   0  0  0  0  0  0  0  0  0  0  0  0
  -21.3847  -29.0228   22.1471 N   0  3  0  0  0  0  0  0  0  0  0  0
  -20.3113  -15.1353   27.0553 N   0  3  0  0  0  0  0  0  0  0  0  0
  -31.1194  -28.1872   18.6557 O   0  0  0  0  0  0  0  0  0  0  0  0
  -25.7111  -15.6981   20.5463 O   0  0  0  0  0  0  0  0  0  0  0  0
  -24.1457  -12.8731   23.1271 O   0  0  0  0  0  0  0  0  0  0  0  0
  -20.7301  -15.9179   24.3853 O   0  0  0  0  0  0  0  0  0  0  0  0
  -23.8493  -32.2418   23.9235 O   0  0  0  0  0  0  0  0  0  0  0  0
  -29.1515  -21.3669   21.8475 O   0  0  0  0  0  0  0  0  0  0  0  0
  -24.4805  -21.3302   22.6556 O   0  0  0  0  0  0  0  0  0  1  0  0
  -31.3614  -18.5114   17.6802 F   0  0  0  0  0  0  0  0  0  0  0  0
  -27.6710  -19.4713   20.4846 F   0  0  0  0  0  0  0  0  0  0  0  0
  1  2  1  0  0  0  0
  1  5  2  0  0  0  0
  2  6  2  0  0  0  0
  3  8  2  0  0  0  0
  3 16  1  0  0  0  0
  4  9  1  0  0  0  0
  4 16  2  0  0  0  0
  5 18  1  0  0  0  0
  6 20  1  0  0  0  0
  7 10  2  0  0  0  0
  7 19  1  0  0  0  0
  8 23  1  0  0  0  0
  9 23  2  0  0  0  0
 10 24  1  0  0  0  0
 11 12  2  0  0  0  0
 11 25  1  0  0  0  0
 12 26  1  0  0  0  0
 13 21  1  0  0  0  0
 13 24  2  0  0  0  0
 14 22  1  0  0  0  0
 14 29  2  0  0  0  0
 15 26  2  0  0  0  0
 15 27  1  0  0  0  0
 16 28  1  0  0  0  0
 17 28  1  0  0  0  0
 17 31  2  0  0  0  0
 17 32  1  0  0  0  0
 18 20  2  0  0  0  0
 18 37  1  0  0  0  0
 19 21  2  0  0  0  0
 19 38  1  0  0  0  0
 20 49  1  0  0  0  0
 21 39  1  0  0  0  0
 22 30  2  0  0  0  0
 22 63  1  0  0  0  0
 23 90  1  0  0  0  0
 24 91  1  0  0  0  0
 25 27  2  0  0  0  0
 25 90  1  0  0  0  0
 26 92  1  0  0  0  0
 27 93  1  0  0  0  0
 28 72  2  0  0  0  0
 29 54  1  0  0  0  0
 29 73  1  0  0  0  0
 30 55  1  0  0  0  0
 30 73  1  0  0  0  0
 31 74  1  0  0  0  0
 31 78  1  0  0  0  0
 32 79  1  0  0  0  0
 32 85  2  0  0  0  0
 33 50  1  0  0  0  0
 33 80  1  0  0  0  0
 33 86  2  0  0  0  0
 34 68  1  0  0  0  0
 34 75  1  0  0  0  0
 34 87  2  0  0  0  0
 35 69  1  0  0  0  0
 35 81  1  0  0  0  0
 35 88  2  0  0  0  0
 36 76  1  0  0  0  0
 36 82  1  0  0  0  0
 36 89  2  0  0  0  0
 37 40  1  0  0  0  0
 38 50  1  0  0  0  0
 39 75  1  0  0  0  0
 40 43  1  0  0  0  0
 41 44  1  0  0  0  0
 41 46  1  0  0  0  0
 42 45  1  0  0  0  0
 42 47  1  0  0  0  0
 43 49  1  0  0  0  0
 44 51  1  0  0  0  0
 45 52  1  0  0  0  0
 46 76  1  0  0  0  0
 47 77  1  0  0  0  0
 48 51  1  0  0  0  0
 48 76  1  0  0  0  0
 49 80  1  0  0  0  0
 50 75  1  0  0  0  0
 51 74  1  0  0  0  0
 52 53  1  0  0  0  0
 52 83  1  0  0  0  0
 53 64  1  0  0  0  0
 53 77  1  0  0  0  0
 56 69  1  0  0  0  0
 57 70  1  0  0  0  0
 58 70  1  0  0  0  0
 59 71  1  0  0  0  0
 60 71  1  0  0  0  0
 61 71  1  0  0  0  0
 62 84  1  0  0  0  0
 63 91  1  0  0  0  0
 64 73  1  0  0  0  0
 65 70  1  0  0  0  0
 65 77  1  0  0  0  0
 66 67  1  0  0  0  0
 66 82  1  0  0  0  0
 67 83  1  0  0  0  0
 68 71  1  0  0  0  0
 68 81  1  0  0  0  0
 69 84  1  0  0  0  0
 72 74  1  0  0  0  0
M  CHG  2  83   1  84   1
M  ISO  4  36 100  63 101  82 100  91 101
M  END
> <Batch ID>
0126

> <Smiles>
CNC(C)C(=O)NC(C(=O)N1Cc2cc([101O:1][101CH2:1]c3cc(C)n(CC4C(NCC[100NH:0][100C:0](=O)N5CCCC(n6nc(-c7ccc(Oc8ccc(F)cc8F)cc7)c(C(N)=O)c6N)C5)CCCN4CC(C)C)c3C)ccc2CC1C(=O)NC1CCCc2ccccc21)C(C)(C)C

> <Shape>
0.273

> <Color>
0.077

> <Negative vol penalty>
0.000

$$$$

  -OEChem-04052320383D

 87 96  0     1  0  0  0  0  0999 V2000
  -29.3520  -34.2304   26.2354 C   0  0  0  0  0  0  0  0  0  0  0  0
  -28.7985  -32.9541   26.2379 C   0  0  0  0  0  0  0  0  0  0  0  0
  -19.7456  -16.7358   22.2081 C   0  0  0  0  0  0  0  0  0  0  0  0
  -21.4729  -18.0287   21.1210 C   0  0  0  0  0  0  0  0  0  0  0  0
  -28.6104  -35.3097   25.7567 C   0  0  0  0  0  0  0  0  0  0  0  0
  -27.5026  -32.7565   25.7626 C   0  0  0  0  0  0  0  0  0  0  0  0
  -27.2349  -29.0885   20.1339 C   0  0  0  0  0  0  0  0  0  0  0  0
  -28.5222  -17.5018   19.5111 C   0  0  0  0  0  0  0  0  0  0  0  0
  -19.2935  -17.8850   22.8566 C   0  0  0  0  0  0  0  0  0  0  0  0
  -21.0207  -19.1780   21.7694 C   0  0  0  0  0  0  0  0  0  0  0  0
  -27.2303  -27.9189   19.3736 C   0  0  0  0  0  0  0  0  0  0  0  0
  -18.5064  -21.4084   21.4177 C   0  0  0  0  0  0  0  0  0  0  0  0
  -18.3793  -22.5715   20.6584 C   0  0  0  0  0  0  0  0  0  0  0  0
  -27.9626  -18.7235   19.8684 C   0  0  0  0  0  0  0  0  0  0  0  0
  -24.9274  -27.5142   19.9908 C   0  0  0  0  0  0  0  0  0  0  0  0
  -19.9682  -23.6850   22.0981 C   0  0  0  0  0  0  0  0  0  0  0  0
  -20.8353  -16.8076   21.3403 C   0  0  0  0  0  0  0  0  0  0  0  0
  -20.5762  -14.8008   19.7869 C   0  0  0  0  0  0  0  0  0  0  0  0
  -27.3082  -35.1236   25.2664 C   0  0  0  0  0  0  0  0  0  0  0  0
  -26.0797  -29.4840   20.8140 C   0  0  0  0  0  0  0  0  0  0  0  0
  -26.7423  -33.8344   25.2782 C   0  0  0  0  0  0  0  0  0  0  0  0
  -24.9223  -28.6913   20.7439 C   0  0  0  0  0  0  0  0  0  0  0  0
  -28.7139  -17.1974   18.1680 C   0  0  0  0  0  0  0  0  0  0  0  0
  -19.9310  -19.1061   22.6372 C   0  0  0  0  0  0  0  0  0  0  0  0
  -26.0794  -27.1336   19.3025 C   0  0  0  0  0  0  0  0  0  0  0  0
  -19.3643  -21.3835   22.5173 C   0  0  0  0  0  0  0  0  0  0  0  0
  -19.1102  -23.7098   20.9986 C   0  0  0  0  0  0  0  0  0  0  0  0
  -20.0952  -22.5218   22.8574 C   0  0  0  0  0  0  0  0  0  0  0  0
  -21.3032  -15.6207   20.6707 C   0  0  0  0  0  0  0  0  0  0  0  0
  -27.6145  -19.5992   18.8526 C   0  0  0  0  0  0  0  0  0  0  0  0
  -28.3320  -18.1414   17.2284 C   0  0  0  0  0  0  0  0  0  0  0  0
  -21.4610  -13.8134   19.4282 C   0  0  0  0  0  0  0  0  0  0  0  0
  -19.2222  -14.9211   19.3308 C   0  0  0  0  0  0  0  0  0  0  0  0
  -24.4340  -32.0226   23.0328 C   0  0  0  0  0  0  0  0  0  0  0  0
  -22.3618  -31.2060   20.9234 C   0  0  0  0  0  0  0  0  0  0  0  0
  -19.7796  -31.0841   18.6976 C   0  0  0  0  0  0  0  0  0  0  0  0
  -27.4407  -13.5648   19.2494 C   0  0  0  0  0  0  0  0  0  0  0  0
  -26.5280  -36.3283   24.8031 C   0  0  0  0  0  0  0  0  0  0  0  0
  -26.0577  -30.7039   21.6945 C   0  0  0  0  0  0  0  0  0  0  0  0
  -23.7134  -29.1377   21.5199 C   0  0  0  0  0  0  0  0  0  0  0  0
  -25.2993  -35.9743   23.9692 C   0  0  0  0  0  0  0  0  0  0  0  0
  -25.2621  -11.4152   21.0686 C   0  0  0  0  0  0  0  0  0  0  0  0
  -24.5076  -34.8530   24.6346 C   0  0  0  0  0  0  0  0  0  0  0  0
  -25.5732  -21.0821   18.6498 C   0  0  0  0  0  0  0  0  0  0  0  0
  -27.8854  -22.1135   18.7472 C   0  0  0  0  0  0  0  0  0  0  0  0
  -24.9591  -22.4317   19.0208 C   0  0  0  0  0  0  0  0  0  0  0  0
  -27.2654  -23.4605   19.1179 C   0  0  0  0  0  0  0  0  0  0  0  0
  -23.9349  -12.1753   21.0931 C   0  0  0  0  0  0  0  0  0  0  0  0
  -26.4562  -12.3609   21.1775 C   0  0  0  0  0  0  0  0  0  0  0  0
  -25.1479  -14.2114   20.2092 C   0  0  0  0  0  0  0  0  0  0  0  0
  -25.3488  -33.5758   24.7479 C   0  0  1  0  0  0  0  0  0  0  0  0
  -27.0005  -20.9419   19.2050 C   0  0  0  0  0  0  0  0  0  0  0  0
  -24.7035  -31.4353   21.6786 C   0  0  1  0  0  0  0  0  0  0  0  0
  -25.8414  -23.6010   18.5644 C   0  0  0  0  0  0  0  0  0  0  0  0
  -23.9160  -13.3047   20.0456 C   0  0  2  0  0  0  0  0  0  0  0  0
  -17.3017  -31.4455   18.5335 C   0  0  0  0  0  0  0  0  0  0  0  0
  -21.8840  -28.5454   22.3365 C   0  0  0  0  0  0  0  0  0  0  0  0
  -19.5942  -28.5004   21.3250 C   0  0  0  0  0  0  0  0  0  0  0  0
  -20.2275  -30.3346   22.8926 C   0  0  0  0  0  0  0  0  0  0  0  0
  -20.1090  -33.2361   16.6927 C   0  0  0  0  0  0  0  0  0  0  0  0
  -29.3153  -15.8865   17.7895 C   0  0  0  0  0  0  0  0  0  0  0  0
  -25.2285  -24.9350   18.9866 C   0  0  0  0  0  0  0  0  0  1  0  0
  -28.2878  -14.8557   17.3064 C   0  0  0  0  0  0  0  0  0  0  0  0
  -21.2123  -30.2987   20.5643 C   0  0  1  0  0  0  0  0  0  0  0  0
  -18.6764  -32.0771   18.3788 C   0  0  2  0  0  0  0  0  0  0  0  0
  -20.7526  -29.4218   21.7631 C   0  0  0  0  0  0  0  0  0  0  0  0
  -22.5534  -15.1914   20.8619 N   0  0  0  0  0  0  0  0  0  0  0  0
  -27.7854  -19.3387   17.5371 N   0  0  0  0  0  0  0  0  0  0  0  0
  -22.6189  -14.0908   20.0934 N   0  0  0  0  0  0  0  0  0  0  0  0
  -23.5344  -30.5912   21.3789 N   0  0  0  0  0  0  0  0  0  0  0  0
  -26.3789  -13.4074   20.1554 N   0  0  0  0  0  0  0  0  0  0  0  0
  -28.5241  -17.8350   15.8579 N   0  0  0  0  0  0  0  0  0  0  0  0
  -21.3536  -12.7435   18.6121 N   0  0  0  0  0  0  0  0  0  0  0  0
  -18.4527  -15.9952   19.7982 N   0  0  0  0  0  0  0  0  0  0  0  0
  -25.4104  -32.8964   23.4716 N   0  0  0  0  0  0  0  0  0  0  0  0
  -20.1683  -31.1592   20.0184 N   0  0  0  0  0  0  0  0  0  0  0  0
  -27.2842  -14.5757   18.3090 N   0  0  0  0  0  0  0  0  0  0  0  0
  -18.8121  -32.5705   16.9792 N   0  3  0  0  0  0  0  0  0  0  0  0
  -18.7048  -14.0911   18.5454 O   0  0  0  0  0  0  0  0  0  0  0  0
  -23.4146  -31.7081   23.6358 O   0  0  0  0  0  0  0  0  0  0  0  0
  -22.2245  -32.4273   20.8097 O   0  0  0  0  0  0  0  0  0  0  0  0
  -20.2469  -30.3160   17.8596 O   0  0  0  0  0  0  0  0  0  0  0  0
  -28.4508  -12.8534   19.2731 O   0  0  0  0  0  0  0  0  0  0  0  0
  -19.4899  -20.2277   23.2696 O   0  0  0  0  0  0  0  0  0  0  0  0
  -26.0804  -25.9953   18.5548 O   0  0  0  0  0  0  0  0  0  1  0  0
  -18.9892  -24.8262   20.2684 F   0  0  0  0  0  0  0  0  0  0  0  0
  -20.9219  -22.5036   23.9120 F   0  0  0  0  0  0  0  0  0  0  0  0
  1  2  1  0  0  0  0
  1  5  2  0  0  0  0
  2  6  2  0  0  0  0
  3  9  2  0  0  0  0
  3 17  1  0  0  0  0
  4 10  1  0  0  0  0
  4 17  2  0  0  0  0
  5 19  1  0  0  0  0
  6 21  1  0  0  0  0
  7 11  2  0  0  0  0
  7 20  1  0  0  0  0
  8 14  2  0  0  0  0
  8 23  1  0  0  0  0
  9 24  1  0  0  0  0
 10 24  2  0  0  0  0
 11 25  1  0  0  0  0
 12 13  2  0  0  0  0
 12 26  1  0  0  0  0
 13 27  1  0  0  0  0
 14 30  1  0  0  0  0
 15 22  1  0  0  0  0
 15 25  2  0  0  0  0
 16 27  2  0  0  0  0
 16 28  1  0  0  0  0
 17 29  1  0  0  0  0
 18 29  1  0  0  0  0
 18 32  2  0  0  0  0
 18 33  1  0  0  0  0
 19 21  2  0  0  0  0
 19 38  1  0  0  0  0
 20 22  2  0  0  0  0
 20 39  1  0  0  0  0
 21 51  1  0  0  0  0
 22 40  1  0  0  0  0
 23 31  2  0  0  0  0
 23 61  1  0  0  0  0
 24 84  1  0  0  0  0
 25 85  1  0  0  0  0
 26 28  2  0  0  0  0
 26 84  1  0  0  0  0
 27 86  1  0  0  0  0
 28 87  1  0  0  0  0
 29 67  2  0  0  0  0
 30 52  1  0  0  0  0
 30 68  2  0  0  0  0
 31 68  1  0  0  0  0
 31 72  1  0  0  0  0
 32 69  1  0  0  0  0
 32 73  1  0  0  0  0
 33 74  1  0  0  0  0
 33 79  2  0  0  0  0
 34 53  1  0  0  0  0
 34 75  1  0  0  0  0
 34 80  2  0  0  0  0
 35 64  1  0  0  0  0
 35 70  1  0  0  0  0
 35 81  2  0  0  0  0
 36 65  1  0  0  0  0
 36 76  1  0  0  0  0
 36 82  2  0  0  0  0
 37 71  1  0  0  0  0
 37 77  1  0  0  0  0
 37 83  2  0  0  0  0
 38 41  1  0  0  0  0
 39 53  1  0  0  0  0
 40 70  1  0  0  0  0
 41 43  1  0  0  0  0
 42 48  1  0  0  0  0
 42 49  1  0  0  0  0
 43 51  1  0  0  0  0
 44 46  1  0  0  0  0
 44 52  1  0  0  0  0
 45 47  1  0  0  0  0
 45 52  1  0  0  0  0
 46 54  1  0  0  0  0
 47 54  1  0  0  0  0
 48 55  1  0  0  0  0
 49 71  1  0  0  0  0
 50 55  1  0  0  0  0
 50 71  1  0  0  0  0
 51 75  1  0  0  0  0
 53 70  1  0  0  0  0
 54 62  1  0  0  0  0
 55 69  1  0  0  0  0
 56 65  1  0  0  0  0
 57 66  1  0  0  0  0
 58 66  1  0  0  0  0
 59 66  1  0  0  0  0
 60 78  1  0  0  0  0
 61 63  1  0  0  0  0
 62 85  1  0  0  0  0
 63 77  1  0  0  0  0
 64 66  1  0  0  0  0
 64 76  1  0  0  0  0
 65 78  1  0  0  0  0
 67 69  1  0  0  0  0
M  CHG  1  78   1
M  ISO  4  37 100  62 101  77 100  85 101
M  END
> <Batch ID>
0126

> <Smiles>
CNC(C)C(=O)NC(C(=O)N1Cc2cc([101O:1][101CH2:1]C3CCC(c4ccc(CC[100NH:0][100C:0](=O)N5CCCC(n6nc(-c7ccc(Oc8ccc(F)cc8F)cc7)c(C(N)=O)c6N)C5)c(N)n4)CC3)ccc2CC1C(=O)NC1CCCc2ccccc21)C(C)(C)C

> <Shape>
0.233

> <Color>
0.084

> <Negative vol penalty>
0.000

$$$$

  -OEChem-04052320383D

 84 92  0     1  0  0  0  0  0999 V2000
  -16.0674  -30.4732   20.2350 C   0  0  0  0  0  0  0  0  0  0  0  0
  -16.6123  -29.2499   19.8583 C   0  0  0  0  0  0  0  0  0  0  0  0
  -23.0559   -9.8939   19.9243 C   0  0  0  0  0  0  0  0  0  0  0  0
  -23.8729   -9.8199   22.1968 C   0  0  0  0  0  0  0  0  0  0  0  0
  -16.2740  -30.9593   21.5253 C   0  0  0  0  0  0  0  0  0  0  0  0
  -17.3650  -28.5124   20.7714 C   0  0  0  0  0  0  0  0  0  0  0  0
  -17.6204  -22.4127   21.2563 C   0  0  0  0  0  0  0  0  0  0  0  0
  -26.3667  -18.8445   19.5141 C   0  0  0  0  0  0  0  0  0  0  0  0
  -26.7191  -20.7938   20.8973 C   0  0  0  0  0  0  0  0  0  0  0  0
  -24.9928  -19.0849   19.5253 C   0  0  0  0  0  0  0  0  0  0  0  0
  -25.3451  -21.0342   20.9085 C   0  0  0  0  0  0  0  0  0  0  0  0
  -22.3144   -8.7348   20.1531 C   0  0  0  0  0  0  0  0  0  0  0  0
  -23.1314   -8.6608   22.4256 C   0  0  0  0  0  0  0  0  0  0  0  0
  -18.5377  -21.4723   20.7896 C   0  0  0  0  0  0  0  0  0  0  0  0
  -19.9165   -7.8514   23.0813 C   0  0  0  0  0  0  0  0  0  0  0  0
  -19.1889   -7.7732   24.2688 C   0  0  0  0  0  0  0  0  0  0  0  0
  -19.6525  -21.5071   22.9286 C   0  0  0  0  0  0  0  0  0  0  0  0
  -20.4415   -5.8083   24.9069 C   0  0  0  0  0  0  0  0  0  0  0  0
  -23.8352  -10.4364   20.9461 C   0  0  0  0  0  0  0  0  0  0  0  0
  -24.1828  -12.9633   20.9043 C   0  0  0  0  0  0  0  0  0  0  0  0
  -17.0215  -30.2229   22.4578 C   0  0  0  0  0  0  0  0  0  0  0  0
  -17.7189  -22.9164   22.5613 C   0  0  0  0  0  0  0  0  0  0  0  0
  -17.5829  -28.9897   22.0750 C   0  0  0  0  0  0  0  0  0  0  0  0
  -18.7337  -22.4520   23.4102 C   0  0  0  0  0  0  0  0  0  0  0  0
  -27.2299  -19.6989   20.2001 C   0  0  0  0  0  0  0  0  0  0  0  0
  -24.4820  -20.1798   20.2224 C   0  0  0  0  0  0  0  0  0  0  0  0
  -22.3521   -8.1183   21.4038 C   0  0  0  0  0  0  0  0  0  0  0  0
  -19.5557  -21.0215   21.6248 C   0  0  0  0  0  0  0  0  0  0  0  0
  -20.9065   -6.9080   22.8065 C   0  0  0  0  0  0  0  0  0  0  0  0
  -19.4514   -6.7517   25.1816 C   0  0  0  0  0  0  0  0  0  0  0  0
  -21.1690   -5.8864   23.7193 C   0  0  0  0  0  0  0  0  0  0  0  0
  -24.6018  -11.6334   20.7102 C   0  0  0  0  0  0  0  0  0  0  0  0
  -25.2682  -13.7219   20.5397 C   0  0  0  0  0  0  0  0  0  0  0  0
  -22.9251  -13.4678   21.3725 C   0  0  0  0  0  0  0  0  0  0  0  0
  -18.1961  -25.7937   23.8251 C   0  0  0  0  0  0  0  0  0  0  0  0
  -17.6390  -24.2325   26.6134 C   0  0  0  0  0  0  0  0  0  0  0  0
  -17.6368  -21.2846   28.3328 C   0  0  0  0  0  0  0  0  0  0  0  0
  -30.7585  -14.7191   20.6251 C   0  0  0  0  0  0  0  0  0  0  0  0
  -17.2576  -30.8114   23.8262 C   0  0  0  0  0  0  0  0  0  0  0  0
  -16.7055  -23.9106   23.0583 C   0  0  0  0  0  0  0  0  0  0  0  0
  -18.8709  -22.9462   24.8264 C   0  0  0  0  0  0  0  0  0  0  0  0
  -17.7526  -29.7930   24.8500 C   0  0  0  0  0  0  0  0  0  0  0  0
  -29.5532  -12.4212   18.1872 C   0  0  0  0  0  0  0  0  0  0  0  0
  -18.8751  -28.9452   24.2600 C   0  0  0  0  0  0  0  0  0  0  0  0
  -28.1260  -12.1166   18.6458 C   0  0  0  0  0  0  0  0  0  0  0  0
  -30.5008  -12.5981   19.3716 C   0  0  0  0  0  0  0  0  0  0  0  0
  -28.6369  -13.2861   20.8298 C   0  0  0  0  0  0  0  0  0  0  0  0
  -18.3845  -28.1488   23.0449 C   0  0  1  0  0  0  0  0  0  0  0  0
  -17.2088  -24.7385   24.2367 C   0  0  1  0  0  0  0  0  0  0  0  0
  -27.6330  -13.1548   19.6717 C   0  0  2  0  0  0  0  0  0  0  0  0
  -17.1692  -20.3305   30.6063 C   0  0  0  0  0  0  0  0  0  0  0  0
  -20.2875  -25.3579   27.6277 C   0  0  0  0  0  0  0  0  0  0  0  0
  -20.2282  -23.6556   29.4626 C   0  0  0  0  0  0  0  0  0  0  0  0
  -18.4333  -25.3809   29.3057 C   0  0  0  0  0  0  0  0  0  0  0  0
  -15.4872  -19.5402   27.2863 C   0  0  0  0  0  0  0  0  0  0  0  0
  -28.6989  -19.4424   20.1891 C   0  0  0  0  0  0  0  0  0  0  0  0
  -30.8629  -16.8256   21.9331 C   0  0  0  0  0  0  0  0  0  0  0  0
  -22.1533  -19.5891   19.5487 C   0  0  0  0  0  0  0  0  0  0  0  0
  -30.5610  -18.0017   21.0232 C   0  0  0  0  0  0  0  0  0  0  0  0
  -20.7469  -20.1180   19.7752 C   0  0  0  0  0  0  0  0  0  1  0  0
  -18.4951  -23.4996   27.6178 C   0  0  1  0  0  0  0  0  0  0  0  0
  -16.5956  -20.6444   29.2332 C   0  0  2  0  0  0  0  0  0  0  0  0
  -19.3599  -24.4654   28.4762 C   0  0  0  0  0  0  0  0  0  0  0  0
  -25.8554  -11.5486   20.2572 N   0  0  0  0  0  0  0  0  0  0  0  0
  -26.2336  -12.8348   20.1636 N   0  0  0  0  0  0  0  0  0  0  0  0
  -17.8595  -23.9225   25.2639 N   0  0  0  0  0  0  0  0  0  0  0  0
  -29.9762  -13.5970   20.3059 N   0  0  0  0  0  0  0  0  0  0  0  0
  -25.4814  -15.0545   20.5071 N   0  0  0  0  0  0  0  0  0  0  0  0
  -21.9187  -12.5502   21.7036 N   0  0  0  0  0  0  0  0  0  0  0  0
  -23.1179  -20.4199   20.2323 N   0  0  0  0  0  0  0  0  0  0  0  0
  -17.6178  -26.9977   23.4710 N   0  0  0  0  0  0  0  0  0  0  0  0
  -17.5874  -22.6612   28.3933 N   0  0  0  0  0  0  0  0  0  0  0  0
  -30.1839  -15.6200   21.5133 N   0  0  0  0  0  0  0  0  0  0  0  0
  -16.0989  -19.3754   28.6300 N   0  3  0  0  0  0  0  0  0  0  0  0
  -29.1077  -18.3093   21.0645 N   0  3  0  0  0  0  0  0  0  0  0  0
  -22.6947  -14.6963   21.4779 O   0  0  0  0  0  0  0  0  0  0  0  0
  -19.3940  -25.5352   23.8299 O   0  0  0  0  0  0  0  0  0  0  0  0
  -16.8005  -25.0447   27.0118 O   0  0  0  0  0  0  0  0  0  0  0  0
  -18.4184  -20.6289   27.6474 O   0  0  0  0  0  0  0  0  0  0  0  0
  -31.8834  -14.9070   20.1494 O   0  0  0  0  0  0  0  0  0  0  0  0
  -21.6285   -6.9874   21.6275 O   0  0  0  0  0  0  0  0  0  0  0  0
  -20.4528  -20.1041   21.1716 O   0  0  0  0  0  0  0  0  0  1  0  0
  -18.7537   -6.6777   26.3226 F   0  0  0  0  0  0  0  0  0  0  0  0
  -22.1197   -4.9779   23.4614 F   0  0  0  0  0  0  0  0  0  0  0  0
  1  2  1  0  0  0  0
  1  5  2  0  0  0  0
  2  6  2  0  0  0  0
  3 12  2  0  0  0  0
  3 19  1  0  0  0  0
  4 13  1  0  0  0  0
  4 19  2  0  0  0  0
  5 21  1  0  0  0  0
  6 23  1  0  0  0  0
  7 14  2  0  0  0  0
  7 22  1  0  0  0  0
  8 10  2  0  0  0  0
  8 25  1  0  0  0  0
  9 11  1  0  0  0  0
  9 25  2  0  0  0  0
 10 26  1  0  0  0  0
 11 26  2  0  0  0  0
 12 27  1  0  0  0  0
 13 27  2  0  0  0  0
 14 28  1  0  0  0  0
 15 16  2  0  0  0  0
 15 29  1  0  0  0  0
 16 30  1  0  0  0  0
 17 24  1  0  0  0  0
 17 28  2  0  0  0  0
 18 30  2  0  0  0  0
 18 31  1  0  0  0  0
 19 32  1  0  0  0  0
 20 32  1  0  0  0  0
 20 33  2  0  0  0  0
 20 34  1  0  0  0  0
 21 23  2  0  0  0  0
 21 39  1  0  0  0  0
 22 24  2  0  0  0  0
 22 40  1  0  0  0  0
 23 48  1  0  0  0  0
 24 41  1  0  0  0  0
 25 56  1  0  0  0  0
 26 70  1  0  0  0  0
 27 81  1  0  0  0  0
 28 82  1  0  0  0  0
 29 31  2  0  0  0  0
 29 81  1  0  0  0  0
 30 83  1  0  0  0  0
 31 84  1  0  0  0  0
 32 64  2  0  0  0  0
 33 65  1  0  0  0  0
 33 68  1  0  0  0  0
 34 69  1  0  0  0  0
 34 76  2  0  0  0  0
 35 49  1  0  0  0  0
 35 71  1  0  0  0  0
 35 77  2  0  0  0  0
 36 61  1  0  0  0  0
 36 66  1  0  0  0  0
 36 78  2  0  0  0  0
 37 62  1  0  0  0  0
 37 72  1  0  0  0  0
 37 79  2  0  0  0  0
 38 67  1  0  0  0  0
 38 73  1  0  0  0  0
 38 80  2  0  0  0  0
 39 42  1  0  0  0  0
 40 49  1  0  0  0  0
 41 66  1  0  0  0  0
 42 44  1  0  0  0  0
 43 45  1  0  0  0  0
 43 46  1  0  0  0  0
 44 48  1  0  0  0  0
 45 50  1  0  0  0  0
 46 67  1  0  0  0  0
 47 50  1  0  0  0  0
 47 67  1  0  0  0  0
 48 71  1  0  0  0  0
 49 66  1  0  0  0  0
 50 65  1  0  0  0  0
 51 62  1  0  0  0  0
 52 63  1  0  0  0  0
 53 63  1  0  0  0  0
 54 63  1  0  0  0  0
 55 74  1  0  0  0  0
 56 75  1  0  0  0  0
 57 59  1  0  0  0  0
 57 73  1  0  0  0  0
 58 60  1  0  0  0  0
 58 70  1  0  0  0  0
 59 75  1  0  0  0  0
 60 82  1  0  0  0  0
 61 63  1  0  0  0  0
 61 72  1  0  0  0  0
 62 74  1  0  0  0  0
 64 65  1  0  0  0  0
M  CHG  2  74   1  75   1
M  ISO  4  38 100  60 101  73 100  82 101
M  END
> <Batch ID>
0126

> <Smiles>
CNC(C)C(=O)NC(C(=O)N1Cc2cc([101O:1][101CH2:1]CNc3ccc(CNCC[100NH:0][100C:0](=O)N4CCCC(n5nc(-c6ccc(Oc7ccc(F)cc7F)cc6)c(C(N)=O)c5N)C4)cc3)ccc2CC1C(=O)NC1CCCc2ccccc21)C(C)(C)C

> <Shape>
0.233

> <Color>
0.211

> <Negative vol penalty>
0.000

$$$$

  -OEChem-04052320383D

 89 98  0     1  0  0  0  0  0999 V2000
  -26.1586  -16.7377   23.6225 C   0  0  0  0  0  0  0  0  0  0  0  0
  -26.3981  -18.0378   24.0559 C   0  0  0  0  0  0  0  0  0  0  0  0
  -26.4257  -12.8436   21.6054 C   0  0  0  0  0  0  0  0  0  0  0  0
  -26.1622  -13.5987   19.3257 C   0  0  0  0  0  0  0  0  0  0  0  0
  -25.1628  -16.4912   22.6783 C   0  0  0  0  0  0  0  0  0  0  0  0
  -25.6425  -19.0924   23.5444 C   0  0  0  0  0  0  0  0  0  0  0  0
  -22.9105  -25.4371   25.4410 C   0  0  0  0  0  0  0  0  0  0  0  0
  -27.0210  -27.0044   20.4080 C   0  0  0  0  0  0  0  0  0  0  0  0
  -25.1661  -12.2468   21.5534 C   0  0  0  0  0  0  0  0  0  0  0  0
  -24.9026  -13.0019   19.2736 C   0  0  0  0  0  0  0  0  0  0  0  0
  -22.8746  -26.7646   25.0165 C   0  0  0  0  0  0  0  0  0  0  0  0
  -27.6614  -25.7690   20.3116 C   0  0  0  0  0  0  0  0  0  0  0  0
  -23.7991   -9.4195   20.3000 C   0  0  0  0  0  0  0  0  0  0  0  0
  -23.6722   -8.1277   20.8107 C   0  0  0  0  0  0  0  0  0  0  0  0
  -21.1274  -26.2097   23.4485 C   0  0  0  0  0  0  0  0  0  0  0  0
  -28.7416  -26.1631   22.4365 C   0  0  0  0  0  0  0  0  0  0  0  0
  -22.0447   -8.9202   22.4108 C   0  0  0  0  0  0  0  0  0  0  0  0
  -26.9238  -13.5196   20.4916 C   0  0  0  0  0  0  0  0  0  0  0  0
  -29.4588  -13.5494   20.2076 C   0  0  0  0  0  0  0  0  0  0  0  0
  -24.3882  -17.5420   22.1622 C   0  0  0  0  0  0  0  0  0  0  0  0
  -22.0612  -24.4821   24.8638 C   0  0  0  0  0  0  0  0  0  0  0  0
  -24.6363  -18.8598   22.5914 C   0  0  0  0  0  0  0  0  0  0  0  0
  -21.1527  -24.8713   23.8692 C   0  0  0  0  0  0  0  0  0  0  0  0
  -28.1012  -27.3985   22.5328 C   0  0  0  0  0  0  0  0  0  0  0  0
  -27.2410  -27.8192   21.5186 C   0  0  0  0  0  0  0  0  0  0  0  0
  -24.4045  -12.3259   20.3875 C   0  0  0  0  0  0  0  0  0  0  0  0
  -21.9851  -27.1505   24.0181 C   0  0  0  0  0  0  0  0  0  0  0  0
  -28.5216  -25.3483   21.3258 C   0  0  0  0  0  0  0  0  0  0  0  0
  -23.0489  -10.4617   20.8448 C   0  0  0  0  0  0  0  0  0  0  0  0
  -22.7950   -7.8781   21.8661 C   0  0  0  0  0  0  0  0  0  0  0  0
  -22.1717  -10.2120   21.9002 C   0  0  0  0  0  0  0  0  0  0  0  0
  -28.2247  -14.1368   20.5450 C   0  0  0  0  0  0  0  0  0  0  0  0
  -30.3829  -14.5412   20.4284 C   0  0  0  0  0  0  0  0  0  0  0  0
  -29.7442  -12.2256   19.7366 C   0  0  0  0  0  0  0  0  0  0  0  0
  -22.4947  -21.8087   23.1997 C   0  0  0  0  0  0  0  0  0  0  0  0
  -19.2747  -21.5596   23.5030 C   0  0  0  0  0  0  0  0  0  0  0  0
  -16.2825  -23.1219   24.0057 C   0  0  0  0  0  0  0  0  0  0  0  0
  -29.9247  -20.4270   20.3752 C   0  0  0  0  0  0  0  0  0  0  0  0
  -23.3548  -17.2324   21.1082 C   0  0  0  0  0  0  0  0  0  0  0  0
  -22.0935  -23.0596   25.3516 C   0  0  0  0  0  0  0  0  0  0  0  0
  -20.2058  -23.8887   23.2317 C   0  0  0  0  0  0  0  0  0  0  0  0
  -22.3465  -18.3584   20.8943 C   0  0  0  0  0  0  0  0  0  0  0  0
  -31.1414  -18.4190   23.1293 C   0  0  0  0  0  0  0  0  0  0  0  0
  -23.0612  -19.7017   20.7870 C   0  0  0  0  0  0  0  0  0  0  0  0
  -30.6408  -17.0280   22.7359 C   0  0  0  0  0  0  0  0  0  0  0  0
  -25.4682  -31.0337   20.7121 C   0  0  0  0  0  0  0  0  0  0  0  0
  -30.1263  -19.4967   22.7599 C   0  0  0  0  0  0  0  0  0  0  0  0
  -29.2288  -18.1135   20.9283 C   0  0  0  0  0  0  0  0  0  0  0  0
  -24.4322  -31.1757   21.8176 C   0  0  0  0  0  0  0  0  0  0  0  0
  -24.2946  -28.9770   20.7541 C   0  0  0  0  0  0  0  0  0  0  0  0
  -23.8211  -20.0271   22.0785 C   0  0  1  0  0  0  0  0  0  0  0  0
  -21.5426  -22.0661   24.3333 C   0  0  1  0  0  0  0  0  0  0  0  0
  -30.2202  -16.9819   21.2550 C   0  0  2  0  0  0  0  0  0  0  0  0
  -25.6963  -29.5357   20.5849 C   0  0  2  0  0  0  0  0  0  0  0  0
  -28.3544  -28.2506   23.7338 C   0  0  0  0  0  0  0  0  0  0  0  0
  -13.8210  -22.6597   24.1643 C   0  0  0  0  0  0  0  0  0  0  0  0
  -19.1375  -21.2621   20.4694 C   0  0  0  0  0  0  0  0  0  0  0  0
  -16.6870  -21.7580   20.6014 C   0  0  0  0  0  0  0  0  0  0  0  0
  -17.6121  -19.7388   21.7370 C   0  0  0  0  0  0  0  0  0  0  0  0
  -16.1552  -24.1260   26.7868 C   0  0  0  0  0  0  0  0  0  0  0  0
  -30.6606  -22.7624   19.9733 C   0  0  0  0  0  0  0  0  0  0  0  0
  -22.2063  -29.9710   21.7605 C   0  0  0  0  0  0  0  0  0  0  0  0
  -29.4412  -23.6652   19.9196 C   0  0  0  0  0  0  0  0  0  0  0  0
  -21.5743  -28.6809   22.2446 C   0  0  0  0  0  0  0  0  0  1  0  0
  -18.0857  -22.0282   22.6994 C   0  0  1  0  0  0  0  0  0  0  0  0
  -15.1243  -22.8051   24.9345 C   0  0  2  0  0  0  0  0  0  0  0  0
  -17.8997  -21.2151   21.3872 C   0  0  0  0  0  0  0  0  0  0  0  0
  -28.3500  -15.4035   20.9496 N   0  0  0  0  0  0  0  0  0  0  0  0
  -29.6738  -15.6202   20.8679 N   0  0  0  0  0  0  0  0  0  0  0  0
  -20.2798  -22.5083   23.7383 N   0  0  0  0  0  0  0  0  0  0  0  0
  -29.7825  -19.4098   21.3336 N   0  0  0  0  0  0  0  0  0  0  0  0
  -31.7247  -14.5868   20.2877 N   0  0  0  0  0  0  0  0  0  0  0  0
  -28.6774  -11.3330   19.5650 N   0  0  0  0  0  0  0  0  0  0  0  0
  -26.5973  -29.0414   21.5976 N   0  0  0  0  0  0  0  0  0  0  0  0
  -22.9070  -20.4937   23.0989 N   0  0  0  0  0  0  0  0  0  0  0  0
  -16.9392  -21.9793   23.6003 N   0  0  0  0  0  0  0  0  0  0  0  0
  -30.4499  -21.6257   20.8420 N   0  0  0  0  0  0  0  0  0  0  0  0
  -23.6942  -29.8505   21.8370 N   0  3  2  0  0  0  0  0  0  0  0  0
  -14.9563  -23.8905   25.9419 N   0  3  0  0  0  0  0  0  0  0  0  0
  -30.9125  -11.8404   19.4912 O   0  0  0  0  0  0  0  0  0  0  0  0
  -22.8292  -22.7344   22.4697 O   0  0  0  0  0  0  0  0  0  0  0  0
  -19.3070  -20.3966   23.9131 O   0  0  0  0  0  0  0  0  0  0  0  0
  -16.5730  -24.2680   23.6703 O   0  0  0  0  0  0  0  0  0  0  0  0
  -29.6116  -20.2764   19.1893 O   0  0  0  0  0  0  0  0  0  0  0  0
  -23.1754  -11.7435   20.3362 O   0  0  0  0  0  0  0  0  0  0  0  0
  -21.9485  -28.4455   23.6014 O   0  0  0  0  0  0  0  0  0  1  0  0
  -29.1470  -24.1429   21.2314 O   0  0  0  0  0  0  0  0  0  0  0  0
  -22.6721   -6.6372   22.3554 F   0  0  0  0  0  0  0  0  0  0  0  0
  -21.4474  -11.2089   22.4269 F   0  0  0  0  0  0  0  0  0  0  0  0
  1  2  1  0  0  0  0
  1  5  2  0  0  0  0
  2  6  2  0  0  0  0
  3  9  2  0  0  0  0
  3 18  1  0  0  0  0
  4 10  1  0  0  0  0
  4 18  2  0  0  0  0
  5 20  1  0  0  0  0
  6 22  1  0  0  0  0
  7 11  2  0  0  0  0
  7 21  1  0  0  0  0
  8 12  2  0  0  0  0
  8 25  1  0  0  0  0
  9 26  1  0  0  0  0
 10 26  2  0  0  0  0
 11 27  1  0  0  0  0
 12 28  1  0  0  0  0
 13 14  2  0  0  0  0
 13 29  1  0  0  0  0
 14 30  1  0  0  0  0
 15 23  1  0  0  0  0
 15 27  2  0  0  0  0
 16 24  1  0  0  0  0
 16 28  2  0  0  0  0
 17 30  2  0  0  0  0
 17 31  1  0  0  0  0
 18 32  1  0  0  0  0
 19 32  1  0  0  0  0
 19 33  2  0  0  0  0
 19 34  1  0  0  0  0
 20 22  2  0  0  0  0
 20 39  1  0  0  0  0
 21 23  2  0  0  0  0
 21 40  1  0  0  0  0
 22 51  1  0  0  0  0
 23 41  1  0  0  0  0
 24 25  2  0  0  0  0
 24 55  1  0  0  0  0
 25 74  1  0  0  0  0
 26 85  1  0  0  0  0
 27 86  1  0  0  0  0
 28 87  1  0  0  0  0
 29 31  2  0  0  0  0
 29 85  1  0  0  0  0
 30 88  1  0  0  0  0
 31 89  1  0  0  0  0
 32 68  2  0  0  0  0
 33 69  1  0  0  0  0
 33 72  1  0  0  0  0
 34 73  1  0  0  0  0
 34 80  2  0  0  0  0
 35 52  1  0  0  0  0
 35 75  1  0  0  0  0
 35 81  2  0  0  0  0
 36 65  1  0  0  0  0
 36 70  1  0  0  0  0
 36 82  2  0  0  0  0
 37 66  1  0  0  0  0
 37 76  1  0  0  0  0
 37 83  2  0  0  0  0
 38 71  1  0  0  0  0
 38 77  1  0  0  0  0
 38 84  2  0  0  0  0
 39 42  1  0  0  0  0
 40 52  1  0  0  0  0
 41 70  1  0  0  0  0
 42 44  1  0  0  0  0
 43 45  1  0  0  0  0
 43 47  1  0  0  0  0
 44 51  1  0  0  0  0
 45 53  1  0  0  0  0
 46 49  1  0  0  0  0
 46 54  1  0  0  0  0
 47 71  1  0  0  0  0
 48 53  1  0  0  0  0
 48 71  1  0  0  0  0
 49 78  1  0  0  0  0
 50 54  1  0  0  0  0
 50 78  1  0  0  0  0
 51 75  1  0  0  0  0
 52 70  1  0  0  0  0
 53 69  1  0  0  0  0
 54 74  1  0  0  0  0
 56 66  1  0  0  0  0
 57 67  1  0  0  0  0
 58 67  1  0  0  0  0
 59 67  1  0  0  0  0
 60 79  1  0  0  0  0
 61 63  1  0  0  0  0
 61 77  1  0  0  0  0
 62 64  1  0  0  0  0
 62 78  1  0  0  0  0
 63 87  1  0  0  0  0
 64 86  1  0  0  0  0
 65 67  1  0  0  0  0
 65 76  1  0  0  0  0
 66 79  1  0  0  0  0
 68 69  1  0  0  0  0
M  CHG  2  78   1  79   1
M  ISO  4  38 100  64 101  77 100  86 101
M  END
> <Batch ID>
0126

> <Smiles>
CNC(C)C(=O)NC(C(=O)N1Cc2cc([101O:1][101CH2:1]CN3CCC(Nc4ccc(OCC[100NH:0][100C:0](=O)N5CCCC(n6nc(-c7ccc(Oc8ccc(F)cc8F)cc7)c(C(N)=O)c6N)C5)cc4C)C3)ccc2CC1C(=O)NC1CCCc2ccccc21)C(C)(C)C

> <Shape>
0.235

> <Color>
0.077

> <Negative vol penalty>
0.000

$$$$

  -OEChem-04052320383D

 88 97  0     1  0  0  0  0  0999 V2000
  -25.1826  -16.4515   14.0820 C   0  0  0  0  0  0  0  0  0  0  0  0
  -25.6681  -16.5635   15.3809 C   0  0  0  0  0  0  0  0  0  0  0  0
  -23.2043   -9.8152   19.9808 C   0  0  0  0  0  0  0  0  0  0  0  0
  -23.6627  -10.0034   22.3454 C   0  0  0  0  0  0  0  0  0  0  0  0
  -25.5249  -17.4072   13.1263 C   0  0  0  0  0  0  0  0  0  0  0  0
  -26.4972  -17.6307   15.7246 C   0  0  0  0  0  0  0  0  0  0  0  0
  -26.7063  -20.5457   21.1065 C   0  0  0  0  0  0  0  0  0  0  0  0
  -22.4236   -8.6848   20.2221 C   0  0  0  0  0  0  0  0  0  0  0  0
  -22.8820   -8.8730   22.5867 C   0  0  0  0  0  0  0  0  0  0  0  0
  -27.5577  -20.4284   22.2043 C   0  0  0  0  0  0  0  0  0  0  0  0
  -20.0161   -5.9612   20.2555 C   0  0  0  0  0  0  0  0  0  0  0  0
  -18.7838   -5.8738   19.6080 C   0  0  0  0  0  0  0  0  0  0  0  0
  -28.8817  -22.2622   21.3657 C   0  0  0  0  0  0  0  0  0  0  0  0
  -31.0563  -16.3737   24.9905 C   0  0  0  0  0  0  0  0  0  0  0  0
  -18.0717   -7.9142   20.6882 C   0  0  0  0  0  0  0  0  0  0  0  0
  -32.9806  -15.0201   23.6083 C   0  0  0  0  0  0  0  0  0  0  0  0
  -23.8239  -10.4745   21.0425 C   0  0  0  0  0  0  0  0  0  0  0  0
  -24.2020  -12.9827   20.7704 C   0  0  0  0  0  0  0  0  0  0  0  0
  -26.3508  -18.4919   13.4608 C   0  0  0  0  0  0  0  0  0  0  0  0
  -26.9429  -21.5166   20.1228 C   0  0  0  0  0  0  0  0  0  0  0  0
  -26.8520  -18.6011   14.7720 C   0  0  0  0  0  0  0  0  0  0  0  0
  -28.0304  -22.3915   20.2577 C   0  0  0  0  0  0  0  0  0  0  0  0
  -30.8895  -15.0160   24.7413 C   0  0  0  0  0  0  0  0  0  0  0  0
  -31.8654  -14.3189   24.0377 C   0  0  0  0  0  0  0  0  0  0  0  0
  -22.2624   -8.2137   21.5250 C   0  0  0  0  0  0  0  0  0  0  0  0
  -28.6472  -21.2848   22.3326 C   0  0  0  0  0  0  0  0  0  0  0  0
  -20.2763   -7.0250   21.1194 C   0  0  0  0  0  0  0  0  0  0  0  0
  -17.8115   -6.8504   19.8243 C   0  0  0  0  0  0  0  0  0  0  0  0
  -19.3040   -8.0015   21.3357 C   0  0  0  0  0  0  0  0  0  0  0  0
  -24.6309  -11.6420   20.7938 C   0  0  0  0  0  0  0  0  0  0  0  0
  -32.2078  -16.9828   24.5186 C   0  0  0  0  0  0  0  0  0  0  0  0
  -25.3388  -13.7020   20.4936 C   0  0  0  0  0  0  0  0  0  0  0  0
  -22.8931  -13.5289   20.9802 C   0  0  0  0  0  0  0  0  0  0  0  0
  -27.5884  -21.4465   17.0112 C   0  0  0  0  0  0  0  0  0  0  0  0
  -27.2898  -24.6659   17.2733 C   0  0  0  0  0  0  0  0  0  0  0  0
  -27.4147  -27.4346   19.2648 C   0  0  0  0  0  0  0  0  0  0  0  0
  -31.1641  -12.6077   21.3418 C   0  0  0  0  0  0  0  0  0  0  0  0
  -26.7318  -19.4741   12.3816 C   0  0  0  0  0  0  0  0  0  0  0  0
  -25.9998  -21.6477   18.9584 C   0  0  0  0  0  0  0  0  0  0  0  0
  -28.3164  -23.4640   19.2397 C   0  0  0  0  0  0  0  0  0  0  0  0
  -27.3113  -20.7787   12.9223 C   0  0  0  0  0  0  0  0  0  0  0  0
  -27.0258  -14.1687   26.6250 C   0  0  0  0  0  0  0  0  0  0  0  0
  -27.1154  -14.1518   25.1020 C   0  0  0  0  0  0  0  0  0  0  0  0
  -28.2908  -13.6098   27.2693 C   0  0  0  0  0  0  0  0  0  0  0  0
  -29.5499  -13.3342   18.2526 C   0  0  0  0  0  0  0  0  0  0  0  0
  -28.3605  -14.8820   24.6020 C   0  0  0  0  0  0  0  0  0  0  0  0
  -29.5418  -14.3373   26.7800 C   0  0  0  0  0  0  0  0  0  0  0  0
  -28.3558  -20.4941   13.9969 C   0  0  0  0  0  0  0  0  0  0  0  0
  -28.0675  -13.1039   18.5515 C   0  0  0  0  0  0  0  0  0  0  0  0
  -30.4365  -12.3330   18.9899 C   0  0  0  0  0  0  0  0  0  0  0  0
  -28.7326  -12.0346   20.7453 C   0  0  0  0  0  0  0  0  0  0  0  0
  -29.6426  -14.3202   25.2437 C   0  0  0  0  0  0  0  0  0  0  0  0
  -27.7338  -19.7579   15.1896 C   0  0  1  0  0  0  0  0  0  0  0  0
  -26.6313  -22.3365   17.7526 C   0  0  1  0  0  0  0  0  0  0  0  0
  -27.8022  -13.0555   20.0682 C   0  0  2  0  0  0  0  0  0  0  0  0
  -27.1628  -29.9301   19.1869 C   0  0  0  0  0  0  0  0  0  0  0  0
  -30.0436  -24.9010   15.9806 C   0  0  0  0  0  0  0  0  0  0  0  0
  -30.1424  -27.2697   16.7856 C   0  0  0  0  0  0  0  0  0  0  0  0
  -28.3675  -26.5740   15.1767 C   0  0  0  0  0  0  0  0  0  0  0  0
  -25.1445  -27.3809   21.1627 C   0  0  0  0  0  0  0  0  0  0  0  0
  -31.7370  -12.8648   23.7428 C   0  0  0  0  0  0  0  0  0  0  0  0
  -32.4213  -18.4467   24.7687 C   0  0  0  0  0  0  0  0  0  0  0  0
  -31.7241  -20.7686   24.1676 C   0  0  0  0  0  0  0  0  0  0  0  0
  -30.8441  -21.5428   23.2061 C   0  0  0  0  0  0  0  0  0  1  0  0
  -28.2309  -25.8053   17.5814 C   0  0  1  0  0  0  0  0  0  0  0  0
  -26.4594  -28.6032   19.4261 C   0  0  2  0  0  0  0  0  0  0  0  0
  -29.1921  -26.1162   16.3994 C   0  0  0  0  0  0  0  0  0  0  0  0
  -33.1777  -16.3388   23.8314 N   0  0  0  0  0  0  0  0  0  0  0  0
  -25.9381  -11.5145   20.5510 N   0  0  0  0  0  0  0  0  0  0  0  0
  -26.3404  -12.7843   20.3724 N   0  0  0  0  0  0  0  0  0  0  0  0
  -27.3690  -23.5481   18.1159 N   0  0  0  0  0  0  0  0  0  0  0  0
  -30.1360  -12.3375   20.4236 N   0  0  0  0  0  0  0  0  0  0  0  0
  -25.5694  -15.0238   20.3445 N   0  0  0  0  0  0  0  0  0  0  0  0
  -21.8377  -12.6483   21.2541 N   0  0  0  0  0  0  0  0  0  0  0  0
  -26.9961  -20.6814   16.0247 N   0  0  0  0  0  0  0  0  0  0  0  0
  -27.3927  -26.9303   17.9816 N   0  0  0  0  0  0  0  0  0  0  0  0
  -30.7926  -12.5986   22.6807 N   0  0  0  0  0  0  0  0  0  0  0  0
  -25.8853  -28.6169   20.8013 N   0  3  0  0  0  0  0  0  0  0  0  0
  -31.5792  -19.3150   23.9022 N   0  3  0  0  0  0  0  0  0  0  0  0
  -22.6630  -14.7600   20.9102 O   0  0  0  0  0  0  0  0  0  0  0  0
  -28.7766  -21.4546   17.3109 O   0  0  0  0  0  0  0  0  0  0  0  0
  -26.5080  -24.7670   16.3245 O   0  0  0  0  0  0  0  0  0  0  0  0
  -28.1135  -27.0136   20.1840 O   0  0  0  0  0  0  0  0  0  0  0  0
  -32.3259  -12.8450   20.9939 O   0  0  0  0  0  0  0  0  0  0  0  0
  -21.5005   -7.1107   21.7609 O   0  0  0  0  0  0  0  0  0  0  0  0
  -29.4802  -21.1721   23.4028 O   0  0  0  0  0  0  0  0  0  1  0  0
  -16.6287   -6.7672   19.2013 F   0  0  0  0  0  0  0  0  0  0  0  0
  -19.5486   -9.0265   22.1636 F   0  0  0  0  0  0  0  0  0  0  0  0
  1  2  1  0  0  0  0
  1  5  2  0  0  0  0
  2  6  2  0  0  0  0
  3  8  2  0  0  0  0
  3 17  1  0  0  0  0
  4  9  1  0  0  0  0
  4 17  2  0  0  0  0
  5 19  1  0  0  0  0
  6 21  1  0  0  0  0
  7 10  2  0  0  0  0
  7 20  1  0  0  0  0
  8 25  1  0  0  0  0
  9 25  2  0  0  0  0
 10 26  1  0  0  0  0
 11 12  2  0  0  0  0
 11 27  1  0  0  0  0
 12 28  1  0  0  0  0
 13 22  1  0  0  0  0
 13 26  2  0  0  0  0
 14 23  2  0  0  0  0
 14 31  1  0  0  0  0
 15 28  2  0  0  0  0
 15 29  1  0  0  0  0
 16 24  2  0  0  0  0
 16 68  1  0  0  0  0
 17 30  1  0  0  0  0
 18 30  1  0  0  0  0
 18 32  2  0  0  0  0
 18 33  1  0  0  0  0
 19 21  2  0  0  0  0
 19 38  1  0  0  0  0
 20 22  2  0  0  0  0
 20 39  1  0  0  0  0
 21 53  1  0  0  0  0
 22 40  1  0  0  0  0
 23 24  1  0  0  0  0
 23 52  1  0  0  0  0
 24 61  1  0  0  0  0
 25 85  1  0  0  0  0
 26 86  1  0  0  0  0
 27 29  2  0  0  0  0
 27 85  1  0  0  0  0
 28 87  1  0  0  0  0
 29 88  1  0  0  0  0
 30 69  2  0  0  0  0
 31 62  1  0  0  0  0
 31 68  2  0  0  0  0
 32 70  1  0  0  0  0
 32 73  1  0  0  0  0
 33 74  1  0  0  0  0
 33 80  2  0  0  0  0
 34 54  1  0  0  0  0
 34 75  1  0  0  0  0
 34 81  2  0  0  0  0
 35 65  1  0  0  0  0
 35 71  1  0  0  0  0
 35 82  2  0  0  0  0
 36 66  1  0  0  0  0
 36 76  1  0  0  0  0
 36 83  2  0  0  0  0
 37 72  1  0  0  0  0
 37 77  1  0  0  0  0
 37 84  2  0  0  0  0
 38 41  1  0  0  0  0
 39 54  1  0  0  0  0
 40 71  1  0  0  0  0
 41 48  1  0  0  0  0
 42 43  1  0  0  0  0
 42 44  1  0  0  0  0
 43 46  1  0  0  0  0
 44 47  1  0  0  0  0
 45 49  1  0  0  0  0
 45 50  1  0  0  0  0
 46 52  1  0  0  0  0
 47 52  1  0  0  0  0
 48 53  1  0  0  0  0
 49 55  1  0  0  0  0
 50 72  1  0  0  0  0
 51 55  1  0  0  0  0
 51 72  1  0  0  0  0
 53 75  1  0  0  0  0
 54 71  1  0  0  0  0
 55 70  1  0  0  0  0
 56 66  1  0  0  0  0
 57 67  1  0  0  0  0
 58 67  1  0  0  0  0
 59 67  1  0  0  0  0
 60 78  1  0  0  0  0
 61 77  1  0  0  0  0
 62 79  1  0  0  0  0
 63 64  1  0  0  0  0
 63 79  1  0  0  0  0
 64 86  1  0  0  0  0
 65 67  1  0  0  0  0
 65 76  1  0  0  0  0
 66 78  1  0  0  0  0
 69 70  1  0  0  0  0
M  CHG  2  78   1  79   1
M  ISO  4  37 100  64 101  77 100  86 101
M  END
> <Batch ID>
0126

> <Smiles>
CNC(C)C(=O)NC(C(=O)N1Cc2cc([101O:1][101CH2:1]CNCc3cc(C4CCCCC4)c(C[100NH:0][100C:0](=O)N4CCCC(n5nc(-c6ccc(Oc7ccc(F)cc7F)cc6)c(C(N)=O)c5N)C4)cn3)ccc2CC1C(=O)NC1CCCc2ccccc21)C(C)(C)C

> <Shape>
0.179

> <Color>
0.180

> <Negative vol penalty>
0.000

$$$$

  -OEChem-04052320383D

 88 97  0     1  0  0  0  0  0999 V2000
  -18.2992  -22.9196   19.6712 C   0  0  0  0  0  0  0  0  0  0  0  0
  -19.0253  -21.7455   19.4991 C   0  0  0  0  0  0  0  0  0  0  0  0
  -26.9165  -25.5758   20.4001 C   0  0  0  0  0  0  0  0  0  0  0  0
  -27.1311  -25.6879   17.9963 C   0  0  0  0  0  0  0  0  0  0  0  0
  -18.8979  -24.0264   20.2716 C   0  0  0  0  0  0  0  0  0  0  0  0
  -20.3509  -21.6778   19.9264 C   0  0  0  0  0  0  0  0  0  0  0  0
  -21.3748  -17.3855   22.4109 C   0  0  0  0  0  0  0  0  0  0  0  0
  -25.9806  -26.6094   20.3649 C   0  0  0  0  0  0  0  0  0  0  0  0
  -26.1952  -26.7216   17.9610 C   0  0  0  0  0  0  0  0  0  0  0  0
  -21.5708  -16.2375   21.6445 C   0  0  0  0  0  0  0  0  0  0  0  0
  -25.9993  -29.9769   20.0748 C   0  0  0  0  0  0  0  0  0  0  0  0
  -26.1311  -31.0018   21.0117 C   0  0  0  0  0  0  0  0  0  0  0  0
  -23.9580  -16.5023   21.8693 C   0  0  0  0  0  0  0  0  0  0  0  0
  -23.9357  -30.4897   21.8807 C   0  0  0  0  0  0  0  0  0  0  0  0
  -27.4918  -25.1150   19.2159 C   0  0  0  0  0  0  0  0  0  0  0  0
  -29.6952  -24.0429   19.9252 C   0  0  0  0  0  0  0  0  0  0  0  0
  -20.2285  -23.9692   20.7152 C   0  0  0  0  0  0  0  0  0  0  0  0
  -22.4709  -18.1079   22.9039 C   0  0  0  0  0  0  0  0  0  0  0  0
  -20.9684  -22.7854   20.5321 C   0  0  0  0  0  0  0  0  0  0  0  0
  -23.7731  -17.6577   22.6438 C   0  0  0  0  0  0  0  0  0  0  0  0
  -25.6199  -27.1823   19.1453 C   0  0  0  0  0  0  0  0  0  0  0  0
  -22.8626  -15.7973   21.3712 C   0  0  0  0  0  0  0  0  0  0  0  0
  -24.8356  -29.2085   20.0407 C   0  0  0  0  0  0  0  0  0  0  0  0
  -25.0993  -31.2582   21.9147 C   0  0  0  0  0  0  0  0  0  0  0  0
  -23.8038  -29.4649   20.9437 C   0  0  0  0  0  0  0  0  0  0  0  0
  -28.4590  -24.0476   19.2517 C   0  0  0  0  0  0  0  0  0  0  0  0
  -30.2319  -22.8092   19.6491 C   0  0  0  0  0  0  0  0  0  0  0  0
  -30.3039  -25.0626   20.7286 C   0  0  0  0  0  0  0  0  0  0  0  0
  -23.5791  -21.0590   22.4959 C   0  0  0  0  0  0  0  0  0  0  0  0
  -25.6751  -20.1733   24.8078 C   0  0  0  0  0  0  0  0  0  0  0  0
  -27.2985  -17.6504   26.4346 C   0  0  0  0  0  0  0  0  0  0  0  0
  -29.7222  -17.3724   19.2902 C   0  0  0  0  0  0  0  0  0  0  0  0
  -20.8473  -25.2066   21.3157 C   0  0  0  0  0  0  0  0  0  0  0  0
  -22.2422  -19.3293   23.7515 C   0  0  0  0  0  0  0  0  0  0  0  0
  -24.9832  -18.3861   23.1669 C   0  0  0  0  0  0  0  0  0  0  0  0
  -22.1399  -24.9317   22.0799 C   0  0  0  0  0  0  0  0  0  0  0  0
  -28.8001  -19.2586   16.3424 C   0  0  0  0  0  0  0  0  0  0  0  0
  -23.0585  -24.0254   21.2664 C   0  0  0  0  0  0  0  0  0  0  0  0
  -27.4562  -13.0834   20.6943 C   0  0  0  0  0  0  0  0  0  0  0  0
  -27.9558  -12.1751   18.3916 C   0  0  0  0  0  0  0  0  0  0  0  0
  -28.4373  -14.2296   20.4550 C   0  0  0  0  0  0  0  0  0  0  0  0
  -28.9367  -13.3215   18.1523 C   0  0  0  0  0  0  0  0  0  0  0  0
  -28.7321  -20.6812   16.9005 C   0  0  0  0  0  0  0  0  0  0  0  0
  -28.2779  -18.2424   17.3537 C   0  0  0  0  0  0  0  0  0  0  0  0
  -28.8918  -19.7070   19.2383 C   0  0  0  0  0  0  0  0  0  0  0  0
  -23.4398  -10.8527   22.2947 C   0  0  0  0  0  0  0  0  0  0  0  0
  -22.4009  -22.6650   21.0048 C   0  0  1  0  0  0  0  0  0  0  0  0
  -23.4384  -20.2759   23.7705 C   0  0  1  0  0  0  0  0  0  0  0  0
  -26.8522  -12.5703   19.3808 C   0  0  0  0  0  0  0  0  0  0  0  0
  -29.5409  -13.8340   19.4657 C   0  0  0  0  0  0  0  0  0  0  0  0
  -29.4269  -20.7791   18.2716 C   0  0  2  0  0  0  0  0  0  0  0  0
  -24.5715  -10.3576   21.4001 C   0  0  2  0  0  0  0  0  0  0  0  0
  -23.9433  -12.4458   20.5964 C   0  0  1  0  0  0  0  0  0  0  0  0
  -28.9776  -17.2391   28.2536 C   0  0  0  0  0  0  0  0  0  0  0  0
  -26.2375  -10.4192   23.2773 C   0  0  0  0  0  0  0  0  0  0  0  0
  -24.9485   -8.3156   22.8111 C   0  0  0  0  0  0  0  0  0  0  0  0
  -27.9193  -21.0303   22.9265 C   0  0  0  0  0  0  0  0  0  0  0  0
  -29.5185  -19.7446   24.3611 C   0  0  0  0  0  0  0  0  0  0  0  0
  -28.2606  -21.6741   25.3189 C   0  0  0  0  0  0  0  0  0  0  0  0
  -25.3511  -16.1076   28.0428 C   0  0  0  0  0  0  0  0  0  0  0  0
  -25.9152  -11.3926   19.6418 C   0  0  0  0  0  0  0  0  0  0  0  0
  -30.4791  -15.0109   19.2050 C   0  0  0  0  0  0  0  0  0  0  0  0
  -24.2294  -13.9107   20.8935 C   0  0  0  0  0  0  0  0  0  1  0  0
  -27.0354  -19.5187   24.8238 C   0  0  1  0  0  0  0  0  0  0  0  0
  -27.5014  -17.3717   27.9130 C   0  0  2  0  0  0  0  0  0  0  0  0
  -25.5946   -9.5551   22.1926 C   0  0  0  0  0  0  0  0  0  0  0  0
  -28.1609  -20.4791   24.3460 C   0  0  0  0  0  0  0  0  0  0  0  0
  -28.2242  -22.9074   18.5970 N   0  0  0  0  0  0  0  0  0  0  0  0
  -29.3202  -22.1747   18.8576 N   0  0  0  0  0  0  0  0  0  0  0  0
  -24.7078  -19.5784   23.9855 N   0  0  0  0  0  0  0  0  0  0  0  0
  -28.9932  -18.3759   18.6307 N   0  0  0  0  0  0  0  0  0  0  0  0
  -25.1234  -11.6072   20.8480 N   0  0  2  0  0  0  0  0  0  0  0  0
  -31.3901  -22.2160   20.0085 N   0  0  0  0  0  0  0  0  0  0  0  0
  -31.1352  -26.0004   20.1009 N   0  0  0  0  0  0  0  0  0  0  0  0
  -22.4764  -21.8318   22.1857 N   0  0  0  0  0  0  0  0  0  0  0  0
  -27.2241  -19.0026   26.1753 N   0  0  0  0  0  0  0  0  0  0  0  0
  -29.7633  -16.1390   18.6517 N   0  0  0  0  0  0  0  0  0  0  0  0
  -22.8413  -11.9718   21.5039 N   0  3  0  0  0  0  0  0  0  0  0  0
  -26.8141  -16.1076   28.3009 N   0  3  0  0  0  0  0  0  0  0  0  0
  -30.1293  -25.1301   21.9689 O   0  0  0  0  0  0  0  0  0  0  0  0
  -24.6123  -20.9700   21.8431 O   0  0  0  0  0  0  0  0  0  0  0  0
  -25.4761  -21.1714   25.5048 O   0  0  0  0  0  0  0  0  0  0  0  0
  -27.2180  -16.7580   25.5934 O   0  0  0  0  0  0  0  0  0  0  0  0
  -30.2988  -17.5630   20.3664 O   0  0  0  0  0  0  0  0  0  0  0  0
  -24.7066  -28.1909   19.1105 O   0  0  0  0  0  0  0  0  0  0  0  0
  -23.0567  -14.6774   20.6228 O   0  0  0  0  0  0  0  0  0  1  0  0
  -25.2267  -32.2414   22.8154 F   0  0  0  0  0  0  0  0  0  0  0  0
  -22.6841  -28.7293   20.9166 F   0  0  0  0  0  0  0  0  0  0  0  0
  1  2  1  0  0  0  0
  1  5  2  0  0  0  0
  2  6  2  0  0  0  0
  3  8  2  0  0  0  0
  3 15  1  0  0  0  0
  4  9  1  0  0  0  0
  4 15  2  0  0  0  0
  5 17  1  0  0  0  0
  6 19  1  0  0  0  0
  7 10  2  0  0  0  0
  7 18  1  0  0  0  0
  8 21  1  0  0  0  0
  9 21  2  0  0  0  0
 10 22  1  0  0  0  0
 11 12  2  0  0  0  0
 11 23  1  0  0  0  0
 12 24  1  0  0  0  0
 13 20  1  0  0  0  0
 13 22  2  0  0  0  0
 14 24  2  0  0  0  0
 14 25  1  0  0  0  0
 15 26  1  0  0  0  0
 16 26  1  0  0  0  0
 16 27  2  0  0  0  0
 16 28  1  0  0  0  0
 17 19  2  0  0  0  0
 17 33  1  0  0  0  0
 18 20  2  0  0  0  0
 18 34  1  0  0  0  0
 19 47  1  0  0  0  0
 20 35  1  0  0  0  0
 21 85  1  0  0  0  0
 22 86  1  0  0  0  0
 23 25  2  0  0  0  0
 23 85  1  0  0  0  0
 24 87  1  0  0  0  0
 25 88  1  0  0  0  0
 26 68  2  0  0  0  0
 27 69  1  0  0  0  0
 27 73  1  0  0  0  0
 28 74  1  0  0  0  0
 28 80  2  0  0  0  0
 29 48  1  0  0  0  0
 29 75  1  0  0  0  0
 29 81  2  0  0  0  0
 30 64  1  0  0  0  0
 30 70  1  0  0  0  0
 30 82  2  0  0  0  0
 31 65  1  0  0  0  0
 31 76  1  0  0  0  0
 31 83  2  0  0  0  0
 32 71  1  0  0  0  0
 32 77  1  0  0  0  0
 32 84  2  0  0  0  0
 33 36  1  0  0  0  0
 34 48  1  0  0  0  0
 35 70  1  0  0  0  0
 36 38  1  0  0  0  0
 37 43  1  0  0  0  0
 37 44  1  0  0  0  0
 38 47  1  0  0  0  0
 39 41  1  0  0  0  0
 39 49  1  0  0  0  0
 40 42  1  0  0  0  0
 40 49  1  0  0  0  0
 41 50  1  0  0  0  0
 42 50  1  0  0  0  0
 43 51  1  0  0  0  0
 44 71  1  0  0  0  0
 45 51  1  0  0  0  0
 45 71  1  0  0  0  0
 46 52  1  0  0  0  0
 46 78  1  0  0  0  0
 47 75  1  0  0  0  0
 48 70  1  0  0  0  0
 49 61  1  0  0  0  0
 50 62  1  0  0  0  0
 51 69  1  0  0  0  0
 52 66  1  0  0  0  0
 52 72  1  0  0  0  0
 53 63  1  0  0  0  0
 53 72  1  0  0  0  0
 53 78  1  0  0  0  0
 54 65  1  0  0  0  0
 55 66  1  0  0  0  0
 56 66  1  0  0  0  0
 57 67  1  0  0  0  0
 58 67  1  0  0  0  0
 59 67  1  0  0  0  0
 60 79  1  0  0  0  0
 61 72  1  0  0  0  0
 62 77  1  0  0  0  0
 63 86  1  0  0  0  0
 64 67  1  0  0  0  0
 64 76  1  0  0  0  0
 65 79  1  0  0  0  0
 68 69  1  0  0  0  0
M  CHG  2  78   1  79   1
M  ISO  4  32 100  63 101  77 100  86 101
M  END
> <Batch ID>
0126

> <Smiles>
CNC(C)C(=O)NC(C(=O)N1Cc2cc([101O:1][101CH2:1]C3NCC(C(C)C)N3CC3CCC(C[100NH:0][100C:0](=O)N4CCCC(n5nc(-c6ccc(Oc7ccc(F)cc7F)cc6)c(C(N)=O)c5N)C4)CC3)ccc2CC1C(=O)NC1CCCc2ccccc21)C(C)(C)C

> <Shape>
0.222

> <Color>
0.064

> <Negative vol penalty>
0.000

$$$$

  -OEChem-04052320383D

 84 93  0     1  0  0  0  0  0999 V2000
  -24.9284  -19.6921   16.3307 C   0  0  0  0  0  0  0  0  0  0  0  0
  -24.8128  -21.0774   16.3125 C   0  0  0  0  0  0  0  0  0  0  0  0
  -24.4695  -14.2159   20.2992 C   0  0  0  0  0  0  0  0  0  0  0  0
  -24.7218  -14.5236   22.6822 C   0  0  0  0  0  0  0  0  0  0  0  0
  -25.6056  -19.0666   17.3753 C   0  0  0  0  0  0  0  0  0  0  0  0
  -25.3846  -21.8385   17.3327 C   0  0  0  0  0  0  0  0  0  0  0  0
  -18.0817  -27.2301   21.9045 C   0  0  0  0  0  0  0  0  0  0  0  0
  -25.1903  -27.8372   18.3842 C   0  0  0  0  0  0  0  0  0  0  0  0
  -18.0216  -25.8859   22.2716 C   0  0  0  0  0  0  0  0  0  0  0  0
  -25.5826  -13.3755   20.2899 C   0  0  0  0  0  0  0  0  0  0  0  0
  -25.8350  -13.6831   22.6729 C   0  0  0  0  0  0  0  0  0  0  0  0
  -24.3981  -28.7307   19.1039 C   0  0  0  0  0  0  0  0  0  0  0  0
  -28.5746  -11.4345   19.5798 C   0  0  0  0  0  0  0  0  0  0  0  0
  -29.5196  -11.6185   18.5705 C   0  0  0  0  0  0  0  0  0  0  0  0
  -20.2130  -26.0607   23.2677 C   0  0  0  0  0  0  0  0  0  0  0  0
  -25.9710  -28.6441   20.9309 C   0  0  0  0  0  0  0  0  0  0  0  0
  -29.8942  -13.8801   19.3334 C   0  0  0  0  0  0  0  0  0  0  0  0
  -24.0391  -14.7901   21.4954 C   0  0  0  0  0  0  0  0  0  0  0  0
  -21.5451  -15.2875   21.6961 C   0  0  0  0  0  0  0  0  0  0  0  0
  -26.1750  -19.8204   18.4149 C   0  0  0  0  0  0  0  0  0  0  0  0
  -19.2053  -28.0053   22.2241 C   0  0  0  0  0  0  0  0  0  0  0  0
  -26.3752  -27.3312   18.9378 C   0  0  0  0  0  0  0  0  0  0  0  0
  -26.0928  -21.2274   18.3832 C   0  0  0  0  0  0  0  0  0  0  0  0
  -20.2874  -27.4099   22.8955 C   0  0  0  0  0  0  0  0  0  0  0  0
  -26.7777  -27.7463   20.2152 C   0  0  0  0  0  0  0  0  0  0  0  0
  -19.0854  -25.3023   22.9548 C   0  0  0  0  0  0  0  0  0  0  0  0
  -26.2654  -13.1091   21.4767 C   0  0  0  0  0  0  0  0  0  0  0  0
  -24.7869  -29.1320   20.3786 C   0  0  0  0  0  0  0  0  0  0  0  0
  -28.2893  -12.4733   20.4659 C   0  0  0  0  0  0  0  0  0  0  0  0
  -30.1794  -12.8412   18.4473 C   0  0  0  0  0  0  0  0  0  0  0  0
  -28.9491  -13.6961   20.3428 C   0  0  0  0  0  0  0  0  0  0  0  0
  -22.8896  -15.6588   21.5056 C   0  0  0  0  0  0  0  0  0  0  0  0
  -20.8484  -16.4686   21.6182 C   0  0  0  0  0  0  0  0  0  0  0  0
  -20.9768  -13.9909   21.9233 C   0  0  0  0  0  0  0  0  0  0  0  0
  -27.4279  -24.4357   19.7199 C   0  0  0  0  0  0  0  0  0  0  0  0
  -30.1926  -26.0265   20.3099 C   0  0  0  0  0  0  0  0  0  0  0  0
  -31.7319  -28.9735   21.0799 C   0  0  0  0  0  0  0  0  0  0  0  0
  -20.2240  -21.7237   23.0114 C   0  0  0  0  0  0  0  0  0  0  0  0
  -26.9037  -19.0924   19.5169 C   0  0  0  0  0  0  0  0  0  0  0  0
  -19.2648  -29.4465   21.7857 C   0  0  0  0  0  0  0  0  0  0  0  0
  -27.2322  -26.3888   18.1378 C   0  0  0  0  0  0  0  0  0  0  0  0
  -28.0512  -27.2480   20.8463 C   0  0  0  0  0  0  0  0  0  0  0  0
  -21.5020  -28.2152   23.2688 C   0  0  0  0  0  0  0  0  0  0  0  0
  -27.0875  -19.9419   20.7702 C   0  0  0  0  0  0  0  0  0  0  0  0
  -22.3272  -21.0746   20.1387 C   0  0  0  0  0  0  0  0  0  0  0  0
  -27.6554  -21.3030   20.3969 C   0  0  0  0  0  0  0  0  0  0  0  0
  -22.5488  -19.5657   20.2587 C   0  0  0  0  0  0  0  0  0  0  0  0
  -22.3075  -21.7413   21.5110 C   0  0  0  0  0  0  0  0  0  0  0  0
  -21.5301  -19.6618   22.5809 C   0  0  0  0  0  0  0  0  0  0  0  0
  -20.2856  -30.2711   22.5621 C   0  0  0  0  0  0  0  0  0  0  0  0
  -26.6803  -22.0738   19.4980 C   0  0  1  0  0  0  0  0  0  0  0  0
  -28.1557  -25.5389   19.0050 C   0  0  1  0  0  0  0  0  0  0  0  0
  -21.5375  -18.9262   21.2285 C   0  0  2  0  0  0  0  0  0  0  0  0
  -33.9973  -29.9527   21.5343 C   0  0  0  0  0  0  0  0  0  0  0  0
  -30.1736  -24.7735   23.0919 C   0  0  0  0  0  0  0  0  0  0  0  0
  -31.8657  -26.4793   23.7956 C   0  0  0  0  0  0  0  0  0  0  0  0
  -32.4200  -24.8443   21.9950 C   0  0  0  0  0  0  0  0  0  0  0  0
  -31.5237  -30.8200   18.7765 C   0  0  0  0  0  0  0  0  0  0  0  0
  -19.0190  -23.8660   23.3512 C   0  0  0  0  0  0  0  0  0  0  0  0
  -22.7291  -30.3867   23.0789 C   0  0  0  0  0  0  0  0  0  0  0  0
  -24.0421  -29.8910   22.5058 C   0  0  0  0  0  0  0  0  0  1  0  0
  -30.7930  -26.7178   21.5101 C   0  0  1  0  0  0  0  0  0  0  0  0
  -32.9416  -29.6654   20.4780 C   0  0  2  0  0  0  0  0  0  0  0  0
  -31.2880  -25.7118   22.5873 C   0  0  0  0  0  0  0  0  0  0  0  0
  -23.0403  -16.9729   21.3204 N   0  0  0  0  0  0  0  0  0  0  0  0
  -21.7815  -17.4377   21.3942 N   0  0  0  0  0  0  0  0  0  0  0  0
  -28.8518  -26.3233   20.0269 N   0  0  0  0  0  0  0  0  0  0  0  0
  -21.3114  -21.0980   22.3793 N   0  0  0  0  0  0  0  0  0  0  0  0
  -19.5347  -16.7623   21.7201 N   0  0  0  0  0  0  0  0  0  0  0  0
  -21.8357  -12.8846   21.9744 N   0  0  0  0  0  0  0  0  0  0  0  0
  -27.3374  -23.2611   18.9977 N   0  0  0  0  0  0  0  0  0  0  0  0
  -31.8334  -27.6010   20.9944 N   0  0  0  0  0  0  0  0  0  0  0  0
  -20.0918  -23.0865   22.7746 N   0  0  0  0  0  0  0  0  0  0  0  0
  -21.6059  -29.5431   22.5467 N   0  3  1  0  0  0  0  0  0  0  0  0
  -32.5410  -30.9564   19.8506 N   0  3  0  0  0  0  0  0  0  0  0  0
  -19.7421  -13.8164   22.0600 O   0  0  0  0  0  0  0  0  0  0  0  0
  -26.9828  -24.6349   20.8441 O   0  0  0  0  0  0  0  0  0  0  0  0
  -30.8897  -25.2571   19.6437 O   0  0  0  0  0  0  0  0  0  0  0  0
  -30.7926  -29.5888   21.5796 O   0  0  0  0  0  0  0  0  0  0  0  0
  -19.4262  -21.1118   23.7299 O   0  0  0  0  0  0  0  0  0  0  0  0
  -27.3515  -12.2888   21.4680 O   0  0  0  0  0  0  0  0  0  0  0  0
  -24.0152  -30.0035   21.0835 O   0  0  0  0  0  0  0  0  0  1  0  0
  -31.0879  -13.0173   17.4790 F   0  0  0  0  0  0  0  0  0  0  0  0
  -28.6802  -14.6973   21.1918 F   0  0  0  0  0  0  0  0  0  0  0  0
  1  2  1  0  0  0  0
  1  5  2  0  0  0  0
  2  6  2  0  0  0  0
  3 10  2  0  0  0  0
  3 18  1  0  0  0  0
  4 11  1  0  0  0  0
  4 18  2  0  0  0  0
  5 20  1  0  0  0  0
  6 23  1  0  0  0  0
  7  9  2  0  0  0  0
  7 21  1  0  0  0  0
  8 12  2  0  0  0  0
  8 22  1  0  0  0  0
  9 26  1  0  0  0  0
 10 27  1  0  0  0  0
 11 27  2  0  0  0  0
 12 28  1  0  0  0  0
 13 14  2  0  0  0  0
 13 29  1  0  0  0  0
 14 30  1  0  0  0  0
 15 24  1  0  0  0  0
 15 26  2  0  0  0  0
 16 25  1  0  0  0  0
 16 28  2  0  0  0  0
 17 30  2  0  0  0  0
 17 31  1  0  0  0  0
 18 32  1  0  0  0  0
 19 32  1  0  0  0  0
 19 33  2  0  0  0  0
 19 34  1  0  0  0  0
 20 23  2  0  0  0  0
 20 39  1  0  0  0  0
 21 24  2  0  0  0  0
 21 40  1  0  0  0  0
 22 25  2  0  0  0  0
 22 41  1  0  0  0  0
 23 51  1  0  0  0  0
 24 43  1  0  0  0  0
 25 42  1  0  0  0  0
 26 59  1  0  0  0  0
 27 81  1  0  0  0  0
 28 82  1  0  0  0  0
 29 31  2  0  0  0  0
 29 81  1  0  0  0  0
 30 83  1  0  0  0  0
 31 84  1  0  0  0  0
 32 65  2  0  0  0  0
 33 66  1  0  0  0  0
 33 69  1  0  0  0  0
 34 70  1  0  0  0  0
 34 76  2  0  0  0  0
 35 52  1  0  0  0  0
 35 71  1  0  0  0  0
 35 77  2  0  0  0  0
 36 62  1  0  0  0  0
 36 67  1  0  0  0  0
 36 78  2  0  0  0  0
 37 63  1  0  0  0  0
 37 72  1  0  0  0  0
 37 79  2  0  0  0  0
 38 68  1  0  0  0  0
 38 73  1  0  0  0  0
 38 80  2  0  0  0  0
 39 44  1  0  0  0  0
 40 50  1  0  0  0  0
 41 52  1  0  0  0  0
 42 67  1  0  0  0  0
 43 74  1  0  0  0  0
 44 46  1  0  0  0  0
 45 47  1  0  0  0  0
 45 48  1  0  0  0  0
 46 51  1  0  0  0  0
 47 53  1  0  0  0  0
 48 68  1  0  0  0  0
 49 53  1  0  0  0  0
 49 68  1  0  0  0  0
 50 74  1  0  0  0  0
 51 71  1  0  0  0  0
 52 67  1  0  0  0  0
 53 66  1  0  0  0  0
 54 63  1  0  0  0  0
 55 64  1  0  0  0  0
 56 64  1  0  0  0  0
 57 64  1  0  0  0  0
 58 75  1  0  0  0  0
 59 73  1  0  0  0  0
 60 61  1  0  0  0  0
 60 74  1  0  0  0  0
 61 82  1  0  0  0  0
 62 64  1  0  0  0  0
 62 72  1  0  0  0  0
 63 75  1  0  0  0  0
 65 66  1  0  0  0  0
M  CHG  2  74   1  75   1
M  ISO  4  38 100  61 101  73 100  82 101
M  END
> <Batch ID>
0126

> <Smiles>
CNC(C)C(=O)NC(C(=O)N1Cc2cc([101O:1][101CH2:1]CN3CCc4ccc(C[100NH:0][100C:0](=O)N5CCCC(n6nc(-c7ccc(Oc8ccc(F)cc8F)cc7)c(C(N)=O)c6N)C5)cc4C3)ccc2CC1C(=O)NC1CCCc2ccccc21)C(C)(C)C

> <Shape>
0.228

> <Color>
0.095

> <Negative vol penalty>
0.000

$$$$

  -OEChem-04052320383D

 84 93  0     1  0  0  0  0  0999 V2000
  -16.6883  -29.1927   23.3603 C   0  0  0  0  0  0  0  0  0  0  0  0
  -17.5294  -28.1371   23.6975 C   0  0  0  0  0  0  0  0  0  0  0  0
  -24.2115   -9.7924   22.6996 C   0  0  0  0  0  0  0  0  0  0  0  0
  -24.2699  -11.7414   24.1261 C   0  0  0  0  0  0  0  0  0  0  0  0
  -17.2182  -30.3508   22.7929 C   0  0  0  0  0  0  0  0  0  0  0  0
  -18.9008  -28.2386   23.4666 C   0  0  0  0  0  0  0  0  0  0  0  0
  -23.3959  -25.8888   26.8984 C   0  0  0  0  0  0  0  0  0  0  0  0
  -23.8179   -9.0097   23.7850 C   0  0  0  0  0  0  0  0  0  0  0  0
  -23.8761  -10.9587   25.2115 C   0  0  0  0  0  0  0  0  0  0  0  0
  -24.1599  -24.7288   26.7773 C   0  0  0  0  0  0  0  0  0  0  0  0
  -20.9753   -8.3893   25.5077 C   0  0  0  0  0  0  0  0  0  0  0  0
  -19.9323   -7.4845   25.3100 C   0  0  0  0  0  0  0  0  0  0  0  0
  -31.3923  -19.5354   22.7947 C   0  0  0  0  0  0  0  0  0  0  0  0
  -25.9002  -25.9960   25.6887 C   0  0  0  0  0  0  0  0  0  0  0  0
  -29.7396  -17.7892   22.8544 C   0  0  0  0  0  0  0  0  0  0  0  0
  -21.4015   -5.6610   25.9043 C   0  0  0  0  0  0  0  0  0  0  0  0
  -32.0537  -18.8023   21.8226 C   0  0  0  0  0  0  0  0  0  0  0  0
  -24.4376  -11.1582   22.8702 C   0  0  0  0  0  0  0  0  0  0  0  0
  -24.0091  -12.6525   20.8475 C   0  0  0  0  0  0  0  0  0  0  0  0
  -18.5980  -30.4704   22.5638 C   0  0  0  0  0  0  0  0  0  0  0  0
  -23.8745  -27.1110   26.4050 C   0  0  0  0  0  0  0  0  0  0  0  0
  -19.4495  -29.3989   22.8944 C   0  0  0  0  0  0  0  0  0  0  0  0
  -25.1414  -27.1704   25.8071 C   0  0  0  0  0  0  0  0  0  0  0  0
  -30.2140  -19.0122   23.3152 C   0  0  0  0  0  0  0  0  0  0  0  0
  -23.6501   -9.5929   25.0409 C   0  0  0  0  0  0  0  0  0  0  0  0
  -25.4110  -24.7818   26.1698 C   0  0  0  0  0  0  0  0  0  0  0  0
  -22.2315   -7.9299   25.9036 C   0  0  0  0  0  0  0  0  0  0  0  0
  -20.1454   -6.1203   25.5083 C   0  0  0  0  0  0  0  0  0  0  0  0
  -22.4445   -6.5658   26.1019 C   0  0  0  0  0  0  0  0  0  0  0  0
  -24.8449  -11.9671   21.7495 C   0  0  0  0  0  0  0  0  0  0  0  0
  -30.4748  -17.1343   21.8795 C   0  0  0  0  0  0  0  0  0  0  0  0
  -24.8750  -13.2659   19.9755 C   0  0  0  0  0  0  0  0  0  0  0  0
  -22.5780  -12.7280   20.8021 C   0  0  0  0  0  0  0  0  0  0  0  0
  -22.9043  -29.1678   24.1842 C   0  0  0  0  0  0  0  0  0  0  0  0
  -25.3547  -30.9591   25.3283 C   0  0  0  0  0  0  0  0  0  0  0  0
  -28.3505  -31.0655   26.9595 C   0  0  0  0  0  0  0  0  0  0  0  0
  -30.5542  -15.0624   20.4486 C   0  0  0  0  0  0  0  0  0  0  0  0
  -19.1185  -31.7231   21.9047 C   0  0  0  0  0  0  0  0  0  0  0  0
  -23.0496  -28.3582   26.5673 C   0  0  0  0  0  0  0  0  0  0  0  0
  -25.7094  -28.4616   25.2792 C   0  0  0  0  0  0  0  0  0  0  0  0
  -20.6290  -31.8989   22.0381 C   0  0  0  0  0  0  0  0  0  0  0  0
  -29.2370  -12.7725   18.0615 C   0  0  0  0  0  0  0  0  0  0  0  0
  -21.3493  -30.5952   21.7090 C   0  0  0  0  0  0  0  0  0  0  0  0
  -27.8825  -12.3731   18.6512 C   0  0  0  0  0  0  0  0  0  0  0  0
  -26.5905  -20.3709   25.6994 C   0  0  0  0  0  0  0  0  0  0  0  0
  -25.5162  -21.3383   26.2085 C   0  0  0  0  0  0  0  0  0  0  0  0
  -26.5265  -22.1928   24.1593 C   0  0  0  0  0  0  0  0  0  0  0  0
  -30.2949  -12.9614   19.1473 C   0  0  0  0  0  0  0  0  0  0  0  0
  -28.5617  -13.4788   20.8199 C   0  0  0  0  0  0  0  0  0  0  0  0
  -20.9456  -29.4810   22.6821 C   0  0  1  0  0  0  0  0  0  0  0  0
  -23.4160  -29.4513   25.5682 C   0  0  1  0  0  0  0  0  0  0  0  0
  -27.4475  -13.3404   19.7696 C   0  0  2  0  0  0  0  0  0  0  0  0
  -27.4931  -21.2350   24.8364 C   0  0  2  0  0  0  0  0  0  0  0  0
  -25.5930  -22.5759   25.3055 C   0  0  2  0  0  0  0  0  0  1  0  0
  -30.1285  -32.6691   27.7108 C   0  0  0  0  0  0  0  0  0  0  0  0
  -26.3811  -31.1603   22.4620 C   0  0  0  0  0  0  0  0  0  0  0  0
  -28.5836  -31.9205   23.3778 C   0  0  0  0  0  0  0  0  0  0  0  0
  -26.5323  -33.2830   23.7756 C   0  0  0  0  0  0  0  0  0  0  0  0
  -27.9431  -30.3646   29.8059 C   0  0  0  0  0  0  0  0  0  0  0  0
  -29.4578  -19.7649   24.3701 C   0  0  0  0  0  0  0  0  0  0  0  0
  -26.8232  -31.0929   25.0048 C   0  0  1  0  0  0  0  0  0  0  0  0
  -28.8490  -31.9421   28.0942 C   0  0  2  0  0  0  0  0  0  0  0  0
  -27.0688  -31.8393   23.6631 C   0  0  0  0  0  0  0  0  0  0  0  0
  -31.6238  -17.6109   21.3499 N   0  0  0  0  0  0  0  0  0  0  0  0
  -26.1420  -12.1294   21.4756 N   0  0  0  0  0  0  0  0  0  0  0  0
  -26.1279  -12.9237   20.3917 N   0  0  0  0  0  0  0  0  0  0  0  0
  -24.8621  -29.6526   25.4558 N   0  0  0  0  0  0  0  0  0  0  0  0
  -29.8149  -13.8934   20.1699 N   0  0  0  0  0  0  0  0  0  0  0  0
  -24.6792  -14.0592   18.9008 N   0  0  0  0  0  0  0  0  0  0  0  0
  -21.8414  -12.0377   21.7742 N   0  0  0  0  0  0  0  0  0  0  0  0
  -29.9834  -15.8887   21.4161 N   0  0  0  0  0  0  0  0  0  0  0  0
  -21.6286  -29.6433   23.9477 N   0  0  0  0  0  0  0  0  0  0  0  0
  -27.4403  -31.7286   26.1639 N   0  0  0  0  0  0  0  0  0  0  0  0
  -28.2249  -20.4244   23.8476 N   0  3  0  0  0  0  0  0  0  0  0  0
  -29.1221  -31.1168   29.3047 N   0  3  0  0  0  0  0  0  0  0  0  0
  -21.9702  -13.3748   19.9156 O   0  0  0  0  0  0  0  0  0  0  0  0
  -23.6149  -28.5638   23.3892 O   0  0  0  0  0  0  0  0  0  0  0  0
  -24.6716  -31.9763   25.4700 O   0  0  0  0  0  0  0  0  0  0  0  0
  -28.7333  -29.9095   26.7932 O   0  0  0  0  0  0  0  0  0  0  0  0
  -31.6016  -15.3255   19.8521 O   0  0  0  0  0  0  0  0  0  0  0  0
  -23.2657   -8.8295   26.1002 O   0  0  0  0  0  0  0  0  0  0  0  0
  -26.1585  -23.6510   26.0498 O   0  0  0  0  0  0  0  0  0  1  0  0
  -19.1433   -5.2518   25.3199 F   0  0  0  0  0  0  0  0  0  0  0  0
  -23.6488   -6.1186   26.4834 F   0  0  0  0  0  0  0  0  0  0  0  0
  1  2  1  0  0  0  0
  1  5  2  0  0  0  0
  2  6  2  0  0  0  0
  3  8  2  0  0  0  0
  3 18  1  0  0  0  0
  4  9  1  0  0  0  0
  4 18  2  0  0  0  0
  5 20  1  0  0  0  0
  6 22  1  0  0  0  0
  7 10  2  0  0  0  0
  7 21  1  0  0  0  0
  8 25  1  0  0  0  0
  9 25  2  0  0  0  0
 10 26  1  0  0  0  0
 11 12  2  0  0  0  0
 11 27  1  0  0  0  0
 12 28  1  0  0  0  0
 13 17  2  0  0  0  0
 13 24  1  0  0  0  0
 14 23  1  0  0  0  0
 14 26  2  0  0  0  0
 15 24  2  0  0  0  0
 15 31  1  0  0  0  0
 16 28  2  0  0  0  0
 16 29  1  0  0  0  0
 17 64  1  0  0  0  0
 18 30  1  0  0  0  0
 19 30  1  0  0  0  0
 19 32  2  0  0  0  0
 19 33  1  0  0  0  0
 20 22  2  0  0  0  0
 20 38  1  0  0  0  0
 21 23  2  0  0  0  0
 21 39  1  0  0  0  0
 22 50  1  0  0  0  0
 23 40  1  0  0  0  0
 24 60  1  0  0  0  0
 25 81  1  0  0  0  0
 26 82  1  0  0  0  0
 27 29  2  0  0  0  0
 27 81  1  0  0  0  0
 28 83  1  0  0  0  0
 29 84  1  0  0  0  0
 30 65  2  0  0  0  0
 31 64  2  0  0  0  0
 31 71  1  0  0  0  0
 32 66  1  0  0  0  0
 32 69  1  0  0  0  0
 33 70  1  0  0  0  0
 33 76  2  0  0  0  0
 34 51  1  0  0  0  0
 34 72  1  0  0  0  0
 34 77  2  0  0  0  0
 35 61  1  0  0  0  0
 35 67  1  0  0  0  0
 35 78  2  0  0  0  0
 36 62  1  0  0  0  0
 36 73  1  0  0  0  0
 36 79  2  0  0  0  0
 37 68  1  0  0  0  0
 37 71  1  0  0  0  0
 37 80  2  0  0  0  0
 38 41  1  0  0  0  0
 39 51  1  0  0  0  0
 40 67  1  0  0  0  0
 41 43  1  0  0  0  0
 42 44  1  0  0  0  0
 42 48  1  0  0  0  0
 43 50  1  0  0  0  0
 44 52  1  0  0  0  0
 45 46  1  0  0  0  0
 45 53  1  0  0  0  0
 46 54  1  0  0  0  0
 47 53  1  0  0  0  0
 47 54  1  0  0  0  0
 48 68  1  0  0  0  0
 49 52  1  0  0  0  0
 49 68  1  0  0  0  0
 50 72  1  0  0  0  0
 51 67  1  0  0  0  0
 52 66  1  0  0  0  0
 53 74  1  0  0  0  0
 54 82  1  0  0  0  0
 55 62  1  0  0  0  0
 56 63  1  0  0  0  0
 57 63  1  0  0  0  0
 58 63  1  0  0  0  0
 59 75  1  0  0  0  0
 60 74  1  0  0  0  0
 61 63  1  0  0  0  0
 61 73  1  0  0  0  0
 62 75  1  0  0  0  0
 65 66  1  0  0  0  0
M  CHG  2  74   1  75   1
M  ISO  4  37 100  54 101  71 100  82 101
M  END
> <Batch ID>
0126

> <Smiles>
CNC(C)C(=O)NC(C(=O)N1Cc2cc([101O:1][101CH:1]3CCC(NCc4ccnc([100NH:0][100C:0](=O)N5CCCC(n6nc(-c7ccc(Oc8ccc(F)cc8F)cc7)c(C(N)=O)c6N)C5)c4)C3)ccc2CC1C(=O)NC1CCCc2ccccc21)C(C)(C)C

> <Shape>
0.235

> <Color>
0.100

> <Negative vol penalty>
0.000

$$$$

  -OEChem-04052320383D

 87 96  0     1  0  0  0  0  0999 V2000
  -21.0377  -19.8314   23.0896 C   0  0  0  0  0  0  0  0  0  0  0  0
  -22.2850  -19.6558   23.6800 C   0  0  0  0  0  0  0  0  0  0  0  0
  -23.2581   -9.9342   19.8150 C   0  0  0  0  0  0  0  0  0  0  0  0
  -23.7393   -9.8834   22.1821 C   0  0  0  0  0  0  0  0  0  0  0  0
  -20.9257  -19.8796   21.7007 C   0  0  0  0  0  0  0  0  0  0  0  0
  -23.4211  -19.5271   22.8818 C   0  0  0  0  0  0  0  0  0  0  0  0
  -27.3062  -22.3022   24.5702 C   0  0  0  0  0  0  0  0  0  0  0  0
  -31.1917  -17.7699   26.6082 C   0  0  0  0  0  0  0  0  0  0  0  0
  -31.3457  -16.6807   25.7505 C   0  0  0  0  0  0  0  0  0  0  0  0
  -22.5067   -8.7660   19.9427 C   0  0  0  0  0  0  0  0  0  0  0  0
  -22.9878   -8.7152   22.3098 C   0  0  0  0  0  0  0  0  0  0  0  0
  -28.0217  -21.8012   25.6568 C   0  0  0  0  0  0  0  0  0  0  0  0
  -19.7229   -7.8641   22.5003 C   0  0  0  0  0  0  0  0  0  0  0  0
  -18.8326   -7.7818   23.5709 C   0  0  0  0  0  0  0  0  0  0  0  0
  -29.7291  -20.9974   24.1542 C   0  0  0  0  0  0  0  0  0  0  0  0
  -29.0504  -16.9068   27.3200 C   0  0  0  0  0  0  0  0  0  0  0  0
  -20.0056   -5.8379   24.3970 C   0  0  0  0  0  0  0  0  0  0  0  0
  -23.8745  -10.4929   20.9347 C   0  0  0  0  0  0  0  0  0  0  0  0
  -24.1912  -13.0241   20.9256 C   0  0  0  0  0  0  0  0  0  0  0  0
  -22.0623  -19.7612   20.8852 C   0  0  0  0  0  0  0  0  0  0  0  0
  -27.7922  -22.1447   23.2643 C   0  0  0  0  0  0  0  0  0  0  0  0
  -23.3241  -19.5725   21.4806 C   0  0  0  0  0  0  0  0  0  0  0  0
  -29.0191  -21.4996   23.0529 C   0  0  0  0  0  0  0  0  0  0  0  0
  -30.0441  -17.8829   27.3930 C   0  0  0  0  0  0  0  0  0  0  0  0
  -29.2042  -15.8177   26.4622 C   0  0  0  0  0  0  0  0  0  0  0  0
  -30.3519  -15.7046   25.6775 C   0  0  0  0  0  0  0  0  0  0  0  0
  -22.3715   -8.1565   21.1900 C   0  0  0  0  0  0  0  0  0  0  0  0
  -29.2320  -21.1461   25.4487 C   0  0  0  0  0  0  0  0  0  0  0  0
  -20.7546   -6.9332   22.3780 C   0  0  0  0  0  0  0  0  0  0  0  0
  -18.9739   -6.7687   24.5192 C   0  0  0  0  0  0  0  0  0  0  0  0
  -20.8959   -5.9202   23.3264 C   0  0  0  0  0  0  0  0  0  0  0  0
  -24.6513  -11.6993   20.8034 C   0  0  0  0  0  0  0  0  0  0  0  0
  -25.3078  -13.7960   20.7160 C   0  0  0  0  0  0  0  0  0  0  0  0
  -22.8725  -13.5133   21.2037 C   0  0  0  0  0  0  0  0  0  0  0  0
  -26.7494  -20.6776   20.6444 C   0  0  0  0  0  0  0  0  0  0  0  0
  -29.3269  -22.1066   19.2893 C   0  0  0  0  0  0  0  0  0  0  0  0
  -32.4238  -23.4819   19.6949 C   0  0  0  0  0  0  0  0  0  0  0  0
  -31.1663  -12.7600   21.3912 C   0  0  0  0  0  0  0  0  0  0  0  0
  -21.8854  -19.7720   19.3875 C   0  0  0  0  0  0  0  0  0  0  0  0
  -27.0214  -22.7144   22.1051 C   0  0  0  0  0  0  0  0  0  0  0  0
  -29.5944  -21.3224   21.6723 C   0  0  0  0  0  0  0  0  0  0  0  0
  -23.1860  -20.0031   18.6223 C   0  0  0  0  0  0  0  0  0  0  0  0
  -25.0164  -15.5163   24.9870 C   0  0  0  0  0  0  0  0  0  0  0  0
  -29.5001  -13.7685   18.4107 C   0  0  0  0  0  0  0  0  0  0  0  0
  -24.2976  -19.1199   19.1799 C   0  0  0  0  0  0  0  0  0  0  0  0
  -26.1559  -16.3214   25.6454 C   0  0  0  0  0  0  0  0  0  0  0  0
  -25.7953  -14.2396   25.3656 C   0  0  0  0  0  0  0  0  0  0  0  0
  -28.0270  -13.4721   18.6969 C   0  0  0  0  0  0  0  0  0  0  0  0
  -30.4181  -12.7170   19.0301 C   0  0  0  0  0  0  0  0  0  0  0  0
  -28.7420  -12.1941   20.7595 C   0  0  0  0  0  0  0  0  0  0  0  0
  -24.5829  -19.4539   20.6491 C   0  0  1  0  0  0  0  0  0  0  0  0
  -27.3587  -22.0447   20.7765 C   0  0  1  0  0  0  0  0  0  0  0  0
  -27.0793  -15.1092   25.3562 C   0  0  0  0  0  0  0  0  0  0  0  0
  -27.7804  -13.2578   20.2024 C   0  0  2  0  0  0  0  0  0  0  0  0
  -34.2990  -24.5300   18.3979 C   0  0  0  0  0  0  0  0  0  0  0  0
  -30.1718  -19.3508   18.2885 C   0  0  0  0  0  0  0  0  0  0  0  0
  -32.4531  -20.2855   17.8523 C   0  0  0  0  0  0  0  0  0  0  0  0
  -30.4782  -21.2007   16.6337 C   0  0  0  0  0  0  0  0  0  0  0  0
  -32.1782  -26.0319   21.1768 C   0  0  0  0  0  0  0  0  0  0  0  0
  -28.1243  -14.7868   26.4039 C   0  0  0  0  0  0  0  0  0  0  0  0
  -29.8780  -19.0617   28.3210 C   0  0  0  0  0  0  0  0  0  0  0  0
  -31.8028  -14.2123   24.3015 C   0  0  0  0  0  0  0  0  0  0  0  0
  -31.7607  -12.7766   23.8006 C   0  0  0  0  0  0  0  0  0  0  0  0
  -29.1800  -20.2373   27.6458 C   0  0  0  0  0  0  0  0  0  1  0  0
  -30.7750  -21.7305   19.0879 C   0  0  1  0  0  0  0  0  0  0  0  0
  -33.0235  -24.7807   19.1872 C   0  0  2  0  0  0  0  0  0  0  0  0
  -30.9580  -20.6433   17.9916 C   0  0  0  0  0  0  0  0  0  0  0  0
  -25.9582  -11.6298   20.5367 N   0  0  0  0  0  0  0  0  0  0  0  0
  -26.3289  -12.9207   20.4895 N   0  0  0  0  0  0  0  0  0  0  0  0
  -28.8003  -21.8913   20.5707 N   0  0  0  0  0  0  0  0  0  0  0  0
  -30.1342  -12.5632   20.4590 N   0  0  0  0  0  0  0  0  0  0  0  0
  -25.5059  -15.1313   20.7051 N   0  0  0  0  0  0  0  0  0  0  0  0
  -21.8410  -12.5834   21.3927 N   0  0  0  0  0  0  0  0  0  0  0  0
  -30.5248  -14.6089   24.8036 N   0  0  0  0  0  0  0  0  0  0  0  0
  -25.3715  -20.6633   20.7486 N   0  0  0  0  0  0  0  0  0  0  0  0
  -31.4866  -22.9755   18.8195 N   0  0  0  0  0  0  0  0  0  0  0  0
  -30.8106  -12.6010   22.7249 N   0  0  0  0  0  0  0  0  0  0  0  0
  -33.3467  -25.6831   20.3284 N   0  3  0  0  0  0  0  0  0  0  0  0
  -22.6131  -14.7390   21.2661 O   0  0  0  0  0  0  0  0  0  0  0  0
  -27.4754  -19.7078   20.4601 O   0  0  0  0  0  0  0  0  0  0  0  0
  -28.6885  -22.5809   18.3463 O   0  0  0  0  0  0  0  0  0  0  0  0
  -32.7564  -22.9661   20.7598 O   0  0  0  0  0  0  0  0  0  0  0  0
  -32.3181  -13.0608   21.0597 O   0  0  0  0  0  0  0  0  0  0  0  0
  -21.6381   -7.0167   21.3150 O   0  0  0  0  0  0  0  0  0  0  0  0
  -29.9321  -20.6556   26.5075 O   0  0  0  0  0  0  0  0  0  1  0  0
  -18.1198   -6.6908   25.5481 F   0  0  0  0  0  0  0  0  0  0  0  0
  -21.8858   -5.0238   23.2149 F   0  0  0  0  0  0  0  0  0  0  0  0
  1  2  1  0  0  0  0
  1  5  2  0  0  0  0
  2  6  2  0  0  0  0
  3 10  2  0  0  0  0
  3 18  1  0  0  0  0
  4 11  1  0  0  0  0
  4 18  2  0  0  0  0
  5 20  1  0  0  0  0
  6 22  1  0  0  0  0
  7 12  2  0  0  0  0
  7 21  1  0  0  0  0
  8  9  2  0  0  0  0
  8 24  1  0  0  0  0
  9 26  1  0  0  0  0
 10 27  1  0  0  0  0
 11 27  2  0  0  0  0
 12 28  1  0  0  0  0
 13 14  2  0  0  0  0
 13 29  1  0  0  0  0
 14 30  1  0  0  0  0
 15 23  1  0  0  0  0
 15 28  2  0  0  0  0
 16 24  2  0  0  0  0
 16 25  1  0  0  0  0
 17 30  2  0  0  0  0
 17 31  1  0  0  0  0
 18 32  1  0  0  0  0
 19 32  1  0  0  0  0
 19 33  2  0  0  0  0
 19 34  1  0  0  0  0
 20 22  2  0  0  0  0
 20 39  1  0  0  0  0
 21 23  2  0  0  0  0
 21 40  1  0  0  0  0
 22 51  1  0  0  0  0
 23 41  1  0  0  0  0
 24 61  1  0  0  0  0
 25 26  2  0  0  0  0
 25 60  1  0  0  0  0
 26 74  1  0  0  0  0
 27 84  1  0  0  0  0
 28 85  1  0  0  0  0
 29 31  2  0  0  0  0
 29 84  1  0  0  0  0
 30 86  1  0  0  0  0
 31 87  1  0  0  0  0
 32 68  2  0  0  0  0
 33 69  1  0  0  0  0
 33 72  1  0  0  0  0
 34 73  1  0  0  0  0
 34 79  2  0  0  0  0
 35 52  1  0  0  0  0
 35 75  1  0  0  0  0
 35 80  2  0  0  0  0
 36 65  1  0  0  0  0
 36 70  1  0  0  0  0
 36 81  2  0  0  0  0
 37 66  1  0  0  0  0
 37 76  1  0  0  0  0
 37 82  2  0  0  0  0
 38 71  1  0  0  0  0
 38 77  1  0  0  0  0
 38 83  2  0  0  0  0
 39 42  1  0  0  0  0
 40 52  1  0  0  0  0
 41 70  1  0  0  0  0
 42 45  1  0  0  0  0
 43 46  1  0  0  0  0
 43 47  1  0  0  0  0
 44 48  1  0  0  0  0
 44 49  1  0  0  0  0
 45 51  1  0  0  0  0
 46 53  1  0  0  0  0
 47 53  1  0  0  0  0
 48 54  1  0  0  0  0
 49 71  1  0  0  0  0
 50 54  1  0  0  0  0
 50 71  1  0  0  0  0
 51 75  1  0  0  0  0
 52 70  1  0  0  0  0
 53 60  1  0  0  0  0
 54 69  1  0  0  0  0
 55 66  1  0  0  0  0
 56 67  1  0  0  0  0
 57 67  1  0  0  0  0
 58 67  1  0  0  0  0
 59 78  1  0  0  0  0
 61 64  1  0  0  0  0
 62 63  1  0  0  0  0
 62 74  1  0  0  0  0
 63 77  1  0  0  0  0
 64 85  1  0  0  0  0
 65 67  1  0  0  0  0
 65 76  1  0  0  0  0
 66 78  1  0  0  0  0
 68 69  1  0  0  0  0
M  CHG  1  78   1
M  ISO  4  38 100  64 101  77 100  85 101
M  END
> <Batch ID>
0126

> <Smiles>
CNC(C)C(=O)NC(C(=O)N1Cc2cc([101O:1][101CH2:1]Cc3ccc(NCC[100NH:0][100C:0](=O)N4CCCC(n5nc(-c6ccc(Oc7ccc(F)cc7F)cc6)c(C(N)=O)c5N)C4)c(CC4CCC4)c3)ccc2CC1C(=O)NC1CCCc2ccccc21)C(C)(C)C

> <Shape>
0.181

> <Color>
0.181

> <Negative vol penalty>
0.000

$$$$

  -OEChem-04052320383D

 81 89  0     1  0  0  0  0  0999 V2000
  -27.2115  -36.0063   21.9029 C   0  0  0  0  0  0  0  0  0  0  0  0
  -27.9397  -34.9326   21.4005 C   0  0  0  0  0  0  0  0  0  0  0  0
  -22.8372  -10.3768   20.0597 C   0  0  0  0  0  0  0  0  0  0  0  0
  -24.0224   -9.6313   22.0286 C   0  0  0  0  0  0  0  0  0  0  0  0
  -26.1485  -35.7786   22.7759 C   0  0  0  0  0  0  0  0  0  0  0  0
  -27.6059  -33.6306   21.7717 C   0  0  0  0  0  0  0  0  0  0  0  0
  -27.5335  -26.9403   19.2121 C   0  0  0  0  0  0  0  0  0  0  0  0
  -29.9128  -20.2399   22.2956 C   0  0  0  0  0  0  0  0  0  0  0  0
  -29.1958  -19.3979   20.1476 C   0  0  0  0  0  0  0  0  0  0  0  0
  -29.6492  -21.5427   21.8729 C   0  0  0  0  0  0  0  0  0  0  0  0
  -28.9321  -20.7007   19.7249 C   0  0  0  0  0  0  0  0  0  0  0  0
  -22.0042   -9.2608   20.1386 C   0  0  0  0  0  0  0  0  0  0  0  0
  -23.1894   -8.5153   22.1076 C   0  0  0  0  0  0  0  0  0  0  0  0
  -27.9727  -25.6578   19.5376 C   0  0  0  0  0  0  0  0  0  0  0  0
  -20.0616   -7.8146   23.1783 C   0  0  0  0  0  0  0  0  0  0  0  0
  -19.5489   -7.4778   24.4310 C   0  0  0  0  0  0  0  0  0  0  0  0
  -26.0666  -25.3801   20.9897 C   0  0  0  0  0  0  0  0  0  0  0  0
  -20.6302   -5.3216   24.2938 C   0  0  0  0  0  0  0  0  0  0  0  0
  -23.8464  -10.5620   21.0047 C   0  0  0  0  0  0  0  0  0  0  0  0
  -24.5038  -12.9719   21.5224 C   0  0  0  0  0  0  0  0  0  0  0  0
  -25.7954  -34.4726   23.1504 C   0  0  0  0  0  0  0  0  0  0  0  0
  -26.3613  -27.4574   19.7824 C   0  0  0  0  0  0  0  0  0  0  0  0
  -26.5380  -33.3853   22.6516 C   0  0  0  0  0  0  0  0  0  0  0  0
  -25.6133  -26.6685   20.6679 C   0  0  0  0  0  0  0  0  0  0  0  0
  -29.6862  -19.1674   21.4329 C   0  0  0  0  0  0  0  0  0  0  0  0
  -29.1588  -21.7732   20.5876 C   0  0  0  0  0  0  0  0  0  0  0  0
  -22.1802   -8.3301   21.1626 C   0  0  0  0  0  0  0  0  0  0  0  0
  -27.2408  -24.8785   20.4287 C   0  0  0  0  0  0  0  0  0  0  0  0
  -20.8585   -6.9049   22.4833 C   0  0  0  0  0  0  0  0  0  0  0  0
  -19.8332   -6.2314   24.9888 C   0  0  0  0  0  0  0  0  0  0  0  0
  -21.1428   -5.6584   23.0410 C   0  0  0  0  0  0  0  0  0  0  0  0
  -24.7076  -11.7144   20.9234 C   0  0  0  0  0  0  0  0  0  0  0  0
  -25.5972  -13.7129   21.1458 C   0  0  0  0  0  0  0  0  0  0  0  0
  -23.4228  -13.4293   22.3458 C   0  0  0  0  0  0  0  0  0  0  0  0
  -25.6824  -29.9300   21.6609 C   0  0  0  0  0  0  0  0  0  0  0  0
  -22.6212  -29.0098   21.1087 C   0  0  0  0  0  0  0  0  0  0  0  0
  -20.4558  -26.5158   20.2496 C   0  0  0  0  0  0  0  0  0  0  0  0
  -31.0999  -14.2162   20.3631 C   0  0  0  0  0  0  0  0  0  0  0  0
  -24.6684  -34.2790   24.1338 C   0  0  0  0  0  0  0  0  0  0  0  0
  -25.8867  -28.8326   19.4003 C   0  0  0  0  0  0  0  0  0  0  0  0
  -24.3372  -27.1694   21.2918 C   0  0  0  0  0  0  0  0  0  0  0  0
  -24.1423  -32.8468   24.1831 C   0  0  0  0  0  0  0  0  0  0  0  0
  -29.2012  -12.7594   17.7269 C   0  0  0  0  0  0  0  0  0  0  0  0
  -25.2992  -31.8553   24.2548 C   0  0  0  0  0  0  0  0  0  0  0  0
  -27.8490  -12.4559   18.3745 C   0  0  0  0  0  0  0  0  0  0  0  0
  -30.3561  -12.5368   18.7010 C   0  0  0  0  0  0  0  0  0  0  0  0
  -28.8801  -12.9521   20.6305 C   0  0  0  0  0  0  0  0  0  0  0  0
  -26.1908  -31.9570   23.0113 C   0  0  1  0  0  0  0  0  0  0  0  0
  -24.9541  -29.4520   20.4366 C   0  0  1  0  0  0  0  0  0  0  0  0
  -27.6808  -13.2158   19.7040 C   0  0  2  0  0  0  0  0  0  0  0  0
  -18.0109  -26.0568   19.9194 C   0  0  0  0  0  0  0  0  0  0  0  0
  -22.2278  -28.9427   24.1337 C   0  0  0  0  0  0  0  0  0  0  0  0
  -20.1483  -27.5985   23.7634 C   0  0  0  0  0  0  0  0  0  0  0  0
  -20.3120  -29.9155   22.8539 C   0  0  0  0  0  0  0  0  0  0  0  0
  -20.8544  -25.8077   17.4038 C   0  0  0  0  0  0  0  0  0  0  0  0
  -29.9678  -17.7742   21.8841 C   0  0  0  0  0  0  0  0  0  0  0  0
  -28.8738  -23.1748   20.1343 C   0  0  0  0  0  0  0  0  0  1  0  0
  -31.4018  -17.2876   21.5956 C   0  0  0  0  0  0  0  0  0  0  0  0
  -31.7016  -15.8791   22.1043 C   0  0  0  0  0  0  0  0  0  0  0  0
  -21.6527  -28.0630   21.7754 C   0  0  1  0  0  0  0  0  0  0  0  0
  -19.3122  -26.4740   19.2522 C   0  0  2  0  0  0  0  0  0  0  0  0
  -21.1102  -28.6209   23.1215 C   0  0  0  0  0  0  0  0  0  0  0  0
  -25.8412  -11.6562   20.2195 N   0  0  0  0  0  0  0  0  0  0  0  0
  -26.3595  -12.8864   20.3738 N   0  0  0  0  0  0  0  0  0  0  0  0
  -23.9179  -28.5227   20.8917 N   0  0  0  0  0  0  0  0  0  0  0  0
  -30.1359  -13.2861   19.9403 N   0  0  0  0  0  0  0  0  0  0  0  0
  -25.9712  -14.9843   21.4029 N   0  0  0  0  0  0  0  0  0  0  0  0
  -22.3802  -12.5385   22.6353 N   0  0  0  0  0  0  0  0  0  0  0  0
  -25.5697  -31.2883   21.8881 N   0  0  0  0  0  0  0  0  0  0  0  0
  -20.6182  -27.7749   20.7878 N   0  0  0  0  0  0  0  0  0  0  0  0
  -30.8102  -14.8877   21.5446 N   0  0  0  0  0  0  0  0  0  0  0  0
  -19.6123  -25.5049   18.1604 N   0  3  0  0  0  0  0  0  0  0  0  0
  -23.3745  -14.5985   22.7975 O   0  0  0  0  0  0  0  0  0  0  0  0
  -26.2995  -29.1257   22.3492 O   0  0  0  0  0  0  0  0  0  0  0  0
  -22.2392  -30.1373   20.7856 O   0  0  0  0  0  0  0  0  0  0  0  0
  -21.1345  -25.5293   20.5266 O   0  0  0  0  0  0  0  0  0  0  0  0
  -32.1389  -14.4360   19.7315 O   0  0  0  0  0  0  0  0  0  0  0  0
  -21.3674   -7.2411   21.2400 O   0  0  0  0  0  0  0  0  0  0  0  0
  -27.6676  -23.6266   20.7487 O   0  0  0  0  0  0  0  0  0  1  0  0
  -19.3421   -5.9087   26.1925 F   0  0  0  0  0  0  0  0  0  0  0  0
  -21.9088   -4.7808   22.3786 F   0  0  0  0  0  0  0  0  0  0  0  0
  1  2  1  0  0  0  0
  1  5  2  0  0  0  0
  2  6  2  0  0  0  0
  3 12  2  0  0  0  0
  3 19  1  0  0  0  0
  4 13  1  0  0  0  0
  4 19  2  0  0  0  0
  5 21  1  0  0  0  0
  6 23  1  0  0  0  0
  7 14  2  0  0  0  0
  7 22  1  0  0  0  0
  8 10  2  0  0  0  0
  8 25  1  0  0  0  0
  9 11  1  0  0  0  0
  9 25  2  0  0  0  0
 10 26  1  0  0  0  0
 11 26  2  0  0  0  0
 12 27  1  0  0  0  0
 13 27  2  0  0  0  0
 14 28  1  0  0  0  0
 15 16  2  0  0  0  0
 15 29  1  0  0  0  0
 16 30  1  0  0  0  0
 17 24  1  0  0  0  0
 17 28  2  0  0  0  0
 18 30  2  0  0  0  0
 18 31  1  0  0  0  0
 19 32  1  0  0  0  0
 20 32  1  0  0  0  0
 20 33  2  0  0  0  0
 20 34  1  0  0  0  0
 21 23  2  0  0  0  0
 21 39  1  0  0  0  0
 22 24  2  0  0  0  0
 22 40  1  0  0  0  0
 23 48  1  0  0  0  0
 24 41  1  0  0  0  0
 25 56  1  0  0  0  0
 26 57  1  0  0  0  0
 27 78  1  0  0  0  0
 28 79  1  0  0  0  0
 29 31  2  0  0  0  0
 29 78  1  0  0  0  0
 30 80  1  0  0  0  0
 31 81  1  0  0  0  0
 32 63  2  0  0  0  0
 33 64  1  0  0  0  0
 33 67  1  0  0  0  0
 34 68  1  0  0  0  0
 34 73  2  0  0  0  0
 35 49  1  0  0  0  0
 35 69  1  0  0  0  0
 35 74  2  0  0  0  0
 36 60  1  0  0  0  0
 36 65  1  0  0  0  0
 36 75  2  0  0  0  0
 37 61  1  0  0  0  0
 37 70  1  0  0  0  0
 37 76  2  0  0  0  0
 38 66  1  0  0  0  0
 38 71  1  0  0  0  0
 38 77  2  0  0  0  0
 39 42  1  0  0  0  0
 40 49  1  0  0  0  0
 41 65  1  0  0  0  0
 42 44  1  0  0  0  0
 43 45  1  0  0  0  0
 43 46  1  0  0  0  0
 44 48  1  0  0  0  0
 45 50  1  0  0  0  0
 46 66  1  0  0  0  0
 47 50  1  0  0  0  0
 47 66  1  0  0  0  0
 48 69  1  0  0  0  0
 49 65  1  0  0  0  0
 50 64  1  0  0  0  0
 51 61  1  0  0  0  0
 52 62  1  0  0  0  0
 53 62  1  0  0  0  0
 54 62  1  0  0  0  0
 55 72  1  0  0  0  0
 56 58  1  0  0  0  0
 57 79  1  0  0  0  0
 58 59  1  0  0  0  0
 59 71  1  0  0  0  0
 60 62  1  0  0  0  0
 60 70  1  0  0  0  0
 61 72  1  0  0  0  0
 63 64  1  0  0  0  0
M  CHG  1  72   1
M  ISO  4  38 100  57 101  71 100  79 101
M  END
> <Batch ID>
0126

> <Smiles>
CNC(C)C(=O)NC(C(=O)N1Cc2cc([101O:1][101CH2:1]c3ccc(CCC[100NH:0][100C:0](=O)N4CCCC(n5nc(-c6ccc(Oc7ccc(F)cc7F)cc6)c(C(N)=O)c5N)C4)cc3)ccc2CC1C(=O)NC1CCCc2ccccc21)C(C)(C)C

> <Shape>
0.393

> <Color>
0.141

> <Negative vol penalty>
0.000

$$$$

  -OEChem-04052320383D

 92100  0     1  0  0  0  0  0999 V2000
  -31.9687  -33.8972   21.8415 C   0  0  0  0  0  0  0  0  0  0  0  0
  -31.4923  -32.7857   21.1537 C   0  0  0  0  0  0  0  0  0  0  0  0
  -24.5449  -10.2073   22.8415 C   0  0  0  0  0  0  0  0  0  0  0  0
  -23.2623  -12.2490   22.9937 C   0  0  0  0  0  0  0  0  0  0  0  0
  -31.4409  -34.2216   23.0905 C   0  0  0  0  0  0  0  0  0  0  0  0
  -30.4884  -31.9974   21.7151 C   0  0  0  0  0  0  0  0  0  0  0  0
  -25.9933  -29.0909   18.7398 C   0  0  0  0  0  0  0  0  0  0  0  0
  -23.9090   -9.7226   23.9844 C   0  0  0  0  0  0  0  0  0  0  0  0
  -22.6263  -11.7643   24.1366 C   0  0  0  0  0  0  0  0  0  0  0  0
  -25.8455  -27.7682   18.3245 C   0  0  0  0  0  0  0  0  0  0  0  0
  -20.9338   -8.3247   24.7762 C   0  0  0  0  0  0  0  0  0  0  0  0
  -20.4762   -7.0072   24.7540 C   0  0  0  0  0  0  0  0  0  0  0  0
  -24.5857  -27.2873   20.3247 C   0  0  0  0  0  0  0  0  0  0  0  0
  -21.9029   -6.4800   26.6311 C   0  0  0  0  0  0  0  0  0  0  0  0
  -24.2216  -11.4706   22.3462 C   0  0  0  0  0  0  0  0  0  0  0  0
  -24.4649  -11.8120   19.8298 C   0  0  0  0  0  0  0  0  0  0  0  0
  -30.4233  -33.4424   23.6632 C   0  0  0  0  0  0  0  0  0  0  0  0
  -25.4468  -29.5197   19.9579 C   0  0  0  0  0  0  0  0  0  0  0  0
  -29.9474  -32.3109   22.9736 C   0  0  0  0  0  0  0  0  0  0  0  0
  -24.7258  -28.6166   20.7519 C   0  0  0  0  0  0  0  0  0  0  0  0
  -22.9497  -10.5011   24.6320 C   0  0  0  0  0  0  0  0  0  0  0  0
  -25.1441  -26.8655   19.1183 C   0  0  0  0  0  0  0  0  0  0  0  0
  -21.8761   -8.7198   25.7258 C   0  0  0  0  0  0  0  0  0  0  0  0
  -20.9607   -6.0849   25.6814 C   0  0  0  0  0  0  0  0  0  0  0  0
  -22.3605   -7.7975   26.6533 C   0  0  0  0  0  0  0  0  0  0  0  0
  -24.8786  -11.9721   21.1659 C   0  0  0  0  0  0  0  0  0  0  0  0
  -25.4207  -12.4683   19.0935 C   0  0  0  0  0  0  0  0  0  0  0  0
  -23.3191  -11.1310   19.3016 C   0  0  0  0  0  0  0  0  0  0  0  0
  -26.6372  -30.6995   22.6588 C   0  0  0  0  0  0  0  0  0  0  0  0
  -23.5059  -31.0706   23.4198 C   0  0  0  0  0  0  0  0  0  0  0  0
  -32.5664  -20.3121   20.4343 C   0  0  0  0  0  0  0  0  0  0  0  0
  -20.2712  -30.0967   22.9346 C   0  0  0  0  0  0  0  0  0  0  0  0
  -29.1976  -16.9351   20.3719 C   0  0  0  0  0  0  0  0  0  0  0  0
  -29.9170  -33.8053   25.0368 C   0  0  0  0  0  0  0  0  0  0  0  0
  -25.5922  -30.9564   20.3789 C   0  0  0  0  0  0  0  0  0  0  0  0
  -24.1024  -29.0319   22.0586 C   0  0  0  0  0  0  0  0  0  0  0  0
  -28.5932  -33.1347   25.3948 C   0  0  0  0  0  0  0  0  0  0  0  0
  -30.0472  -13.6832   19.1971 C   0  0  0  0  0  0  0  0  0  0  0  0
  -28.6344  -31.6508   25.0438 C   0  0  0  0  0  0  0  0  0  0  0  0
  -28.7815  -12.8614   19.4480 C   0  0  0  0  0  0  0  0  0  0  0  0
  -30.2824  -14.7091   20.3035 C   0  0  0  0  0  0  0  0  0  0  0  0
  -27.8745  -14.7806   20.8237 C   0  0  0  0  0  0  0  0  0  0  0  0
  -26.2906  -18.9284   18.6616 C   0  0  0  0  0  0  0  0  0  0  0  0
  -28.8419  -31.4455   23.5384 C   0  0  1  0  0  0  0  0  0  0  0  0
  -25.4346  -31.1572   21.8830 C   0  0  1  0  0  0  0  0  0  0  0  0
  -27.5647  -13.7704   19.7058 C   0  0  2  0  0  0  0  0  0  0  0  0
  -27.6526  -19.5250   19.0218 C   0  0  2  0  0  0  0  0  0  0  0  0
  -27.2727  -21.3801   17.4462 C   0  0  1  0  0  0  0  0  0  0  0  0
  -25.8992  -20.7765   17.0538 C   0  0  1  0  0  0  0  0  0  0  0  0
  -32.8582  -20.2278   21.8958 C   0  0  0  0  0  0  0  0  0  0  0  0
  -17.9353  -30.5567   23.7279 C   0  0  0  0  0  0  0  0  0  0  0  0
  -23.0002  -20.8335   16.0469 C   0  0  0  0  0  0  0  0  0  0  0  0
  -23.8934  -20.5438   13.7271 C   0  0  0  0  0  0  0  0  0  0  0  0
  -24.0753  -29.5223   25.9866 C   0  0  0  0  0  0  0  0  0  0  0  0
  -21.6077  -29.1928   26.2527 C   0  0  0  0  0  0  0  0  0  0  0  0
  -22.5659  -31.4958   26.2719 C   0  0  0  0  0  0  0  0  0  0  0  0
  -19.3924  -30.9246   20.2325 C   0  0  0  0  0  0  0  0  0  0  0  0
  -27.2205  -22.9100   17.2658 C   0  0  0  0  0  0  0  0  0  0  0  0
  -27.9680  -19.0889   20.4625 C   0  0  0  0  0  0  0  0  0  0  0  0
  -25.5032  -20.9961   15.5946 C   0  0  0  0  0  0  0  0  0  0  0  0
  -26.1175  -23.5150   18.1161 C   0  0  0  0  0  0  0  0  0  0  0  0
  -30.0899  -21.0939   18.3483 C   0  0  0  0  0  0  0  0  0  0  0  0
  -28.9418  -21.5807   19.2301 C   0  0  0  0  0  0  0  0  0  0  0  0
  -31.4435  -21.7036   18.7065 C   0  0  0  0  0  0  0  0  0  0  0  0
  -26.0386  -25.0221   17.9110 C   0  0  0  0  0  0  0  0  0  1  0  0
  -22.4609  -30.2151   24.0945 C   0  0  1  0  0  0  0  0  0  0  0  0
  -19.0028  -30.8969   22.6995 C   0  0  2  0  0  0  0  0  0  0  0  0
  -24.1765  -20.3211   15.2146 C   0  0  0  0  0  0  0  0  0  0  0  0
  -22.6907  -30.0979   25.6278 C   0  0  0  0  0  0  0  0  0  0  0  0
  -26.0092  -12.6748   21.2750 N   0  0  0  0  0  0  0  0  0  0  0  0
  -26.3141  -12.9621   19.9980 N   0  0  0  0  0  0  0  0  0  0  0  0
  -24.2775  -30.4457   22.4300 N   0  0  0  0  0  0  0  0  0  0  0  0
  -29.0916  -15.5400   20.4968 N   0  0  0  0  0  0  0  0  0  0  0  0
  -27.6479  -21.0011   18.8428 N   0  0  2  0  0  0  0  0  0  0  0  0
  -25.5757  -12.6654   17.7670 N   0  0  0  0  0  0  0  0  0  0  0  0
  -22.4387  -10.5102   20.1982 N   0  0  0  0  0  0  0  0  0  0  0  0
  -27.6049  -31.6723   22.8222 N   0  0  0  0  0  0  0  0  0  0  0  0
  -31.8317  -21.4273   20.0625 N   0  0  0  0  0  0  0  0  0  0  0  0
  -21.1685  -30.7825   23.7257 N   0  0  0  0  0  0  0  0  0  0  0  0
  -28.0202  -17.6475   20.5643 N   0  0  0  0  0  0  0  0  0  0  0  0
  -25.9539  -19.2948   17.2652 N   0  3  0  0  0  0  0  0  0  0  0  0
  -18.4555  -30.6135   21.3427 N   0  3  0  0  0  0  0  0  0  0  0  0
  -23.0917  -11.0607   18.0700 O   0  0  0  0  0  0  0  0  0  0  0  0
  -26.6831  -29.5494   23.0794 O   0  0  0  0  0  0  0  0  0  0  0  0
  -23.6279  -32.2519   23.7536 O   0  0  0  0  0  0  0  0  0  0  0  0
  -32.9754  -19.4330   19.6848 O   0  0  0  0  0  0  0  0  0  0  0  0
  -20.4469  -28.9740   22.4665 O   0  0  0  0  0  0  0  0  0  0  0  0
  -30.2615  -17.5032   20.1031 O   0  0  0  0  0  0  0  0  0  0  0  0
  -22.3288  -10.0283   25.7471 O   0  0  0  0  0  0  0  0  0  0  0  0
  -24.9979  -25.5644   18.7127 O   0  0  0  0  0  0  0  0  0  1  0  0
  -20.5200   -4.8202   25.6610 F   0  0  0  0  0  0  0  0  0  0  0  0
  -23.2649   -8.1714   27.5688 F   0  0  0  0  0  0  0  0  0  0  0  0
  1  2  1  0  0  0  0
  1  5  2  0  0  0  0
  2  6  2  0  0  0  0
  3  8  2  0  0  0  0
  3 15  1  0  0  0  0
  4  9  1  0  0  0  0
  4 15  2  0  0  0  0
  5 17  1  0  0  0  0
  6 19  1  0  0  0  0
  7 10  2  0  0  0  0
  7 18  1  0  0  0  0
  8 21  1  0  0  0  0
  9 21  2  0  0  0  0
 10 22  1  0  0  0  0
 11 12  2  0  0  0  0
 11 23  1  0  0  0  0
 12 24  1  0  0  0  0
 13 20  1  0  0  0  0
 13 22  2  0  0  0  0
 14 24  2  0  0  0  0
 14 25  1  0  0  0  0
 15 26  1  0  0  0  0
 16 26  1  0  0  0  0
 16 27  2  0  0  0  0
 16 28  1  0  0  0  0
 17 19  2  0  0  0  0
 17 34  1  0  0  0  0
 18 20  2  0  0  0  0
 18 35  1  0  0  0  0
 19 44  1  0  0  0  0
 20 36  1  0  0  0  0
 21 89  1  0  0  0  0
 22 90  1  0  0  0  0
 23 25  2  0  0  0  0
 23 89  1  0  0  0  0
 24 91  1  0  0  0  0
 25 92  1  0  0  0  0
 26 70  2  0  0  0  0
 27 71  1  0  0  0  0
 27 75  1  0  0  0  0
 28 76  1  0  0  0  0
 28 83  2  0  0  0  0
 29 45  1  0  0  0  0
 29 77  1  0  0  0  0
 29 84  2  0  0  0  0
 30 66  1  0  0  0  0
 30 72  1  0  0  0  0
 30 85  2  0  0  0  0
 31 50  1  0  0  0  0
 31 78  1  0  0  0  0
 31 86  2  0  0  0  0
 32 67  1  0  0  0  0
 32 79  1  0  0  0  0
 32 87  2  0  0  0  0
 33 73  1  0  0  0  0
 33 80  1  0  0  0  0
 33 88  2  0  0  0  0
 34 37  1  0  0  0  0
 35 45  1  0  0  0  0
 36 72  1  0  0  0  0
 37 39  1  0  0  0  0
 38 40  1  0  0  0  0
 38 41  1  0  0  0  0
 39 44  1  0  0  0  0
 40 46  1  0  0  0  0
 41 73  1  0  0  0  0
 42 46  1  0  0  0  0
 42 73  1  0  0  0  0
 43 47  1  0  0  0  0
 43 81  1  0  0  0  0
 44 77  1  0  0  0  0
 45 72  1  0  0  0  0
 46 71  1  0  0  0  0
 47 59  1  0  0  0  0
 47 74  1  0  0  0  0
 48 49  1  0  0  0  0
 48 58  1  0  0  0  0
 48 74  1  0  0  0  0
 49 60  1  0  0  0  0
 49 81  1  0  0  0  0
 51 67  1  0  0  0  0
 52 68  1  0  0  0  0
 53 68  1  0  0  0  0
 54 69  1  0  0  0  0
 55 69  1  0  0  0  0
 56 69  1  0  0  0  0
 57 82  1  0  0  0  0
 58 61  1  0  0  0  0
 59 80  1  0  0  0  0
 60 68  1  0  0  0  0
 61 65  1  0  0  0  0
 62 63  1  0  0  0  0
 62 64  1  0  0  0  0
 63 74  1  0  0  0  0
 64 78  1  0  0  0  0
 65 90  1  0  0  0  0
 66 69  1  0  0  0  0
 66 79  1  0  0  0  0
 67 82  1  0  0  0  0
 70 71  1  0  0  0  0
M  CHG  2  81   1  82   1
M  ISO  4  33 100  65 101  80 100  90 101
M  END
> <Batch ID>
0126

> <Smiles>
CNC(C)C(=O)NC(C(=O)N1Cc2cc([101O:1][101CH2:1]CCC3C(CC(C)C)NCC(C[100NH:0][100C:0](=O)N4CCCC(n5nc(-c6ccc(Oc7ccc(F)cc7F)cc6)c(C(N)=O)c5N)C4)N3CCCNC(C)=O)ccc2CC1C(=O)NC1CCCc2ccccc21)C(C)(C)C

> <Shape>
0.233

> <Color>
0.078

> <Negative vol penalty>
0.000

$$$$

  -OEChem-04052320383D

 86 95  0     1  0  0  0  0  0999 V2000
  -30.2380  -24.1477   19.6245 C   0  0  0  0  0  0  0  0  0  0  0  0
  -28.8762  -24.3499   19.4246 C   0  0  0  0  0  0  0  0  0  0  0  0
  -26.4781  -20.9495   21.9744 C   0  0  0  0  0  0  0  0  0  0  0  0
  -25.7653  -21.1536   19.6749 C   0  0  0  0  0  0  0  0  0  0  0  0
  -30.8661  -24.6953   20.7424 C   0  0  0  0  0  0  0  0  0  0  0  0
  -28.1414  -25.0988   20.3431 C   0  0  0  0  0  0  0  0  0  0  0  0
  -23.4226  -28.8097   19.1313 C   0  0  0  0  0  0  0  0  0  0  0  0
  -27.7802  -20.6890   21.5476 C   0  0  0  0  0  0  0  0  0  0  0  0
  -27.0675  -20.8932   19.2482 C   0  0  0  0  0  0  0  0  0  0  0  0
  -22.0426  -28.6306   19.2163 C   0  0  0  0  0  0  0  0  0  0  0  0
  -30.1286  -19.9268   17.5435 C   0  0  0  0  0  0  0  0  0  0  0  0
  -30.2984  -19.0263   16.4920 C   0  0  0  0  0  0  0  0  0  0  0  0
  -22.0506  -29.6531   21.4012 C   0  0  0  0  0  0  0  0  0  0  0  0
  -17.4105  -23.3615   17.4635 C   0  0  0  0  0  0  0  0  0  0  0  0
  -15.5427  -21.8411   17.6538 C   0  0  0  0  0  0  0  0  0  0  0  0
  -15.2342  -24.1954   18.0999 C   0  0  0  0  0  0  0  0  0  0  0  0
  -29.2390  -17.2955   17.8031 C   0  0  0  0  0  0  0  0  0  0  0  0
  -25.4705  -21.1817   21.0380 C   0  0  0  0  0  0  0  0  0  0  0  0
  -23.6940  -22.5123   22.2954 C   0  0  0  0  0  0  0  0  0  0  0  0
  -30.1406  -25.4594   21.6700 C   0  0  0  0  0  0  0  0  0  0  0  0
  -24.1297  -29.4030   20.1870 C   0  0  0  0  0  0  0  0  0  0  0  0
  -28.7601  -25.6559   21.4751 C   0  0  0  0  0  0  0  0  0  0  0  0
  -23.4391  -29.8409   21.3261 C   0  0  0  0  0  0  0  0  0  0  0  0
  -16.8908  -22.0699   17.3783 C   0  0  0  0  0  0  0  0  0  0  0  0
  -16.5823  -24.4243   17.8244 C   0  0  0  0  0  0  0  0  0  0  0  0
  -28.0750  -20.6609   20.1846 C   0  0  0  0  0  0  0  0  0  0  0  0
  -21.3568  -29.0497   20.3526 C   0  0  0  0  0  0  0  0  0  0  0  0
  -29.5141  -19.5117   18.7250 C   0  0  0  0  0  0  0  0  0  0  0  0
  -29.8536  -17.7107   16.6217 C   0  0  0  0  0  0  0  0  0  0  0  0
  -14.7143  -22.9039   18.0146 C   0  0  0  0  0  0  0  0  0  0  0  0
  -29.0693  -18.1960   18.8547 C   0  0  0  0  0  0  0  0  0  0  0  0
  -24.1251  -21.4502   21.4782 C   0  0  0  0  0  0  0  0  0  0  0  0
  -22.3394  -22.3222   22.4194 C   0  0  0  0  0  0  0  0  0  0  0  0
  -24.4504  -23.5758   22.8891 C   0  0  0  0  0  0  0  0  0  0  0  0
  -26.4445  -28.4555   22.1486 C   0  0  0  0  0  0  0  0  0  0  0  0
  -26.3524  -31.5484   23.1221 C   0  0  0  0  0  0  0  0  0  0  0  0
  -24.5684  -34.4436   23.4089 C   0  0  0  0  0  0  0  0  0  0  0  0
  -18.2797  -19.5567   18.9957 C   0  0  0  0  0  0  0  0  0  0  0  0
  -30.8535  -25.9913   22.8880 C   0  0  0  0  0  0  0  0  0  0  0  0
  -25.6144  -29.6133   20.0686 C   0  0  0  0  0  0  0  0  0  0  0  0
  -24.1488  -30.5018   22.4785 C   0  0  0  0  0  0  0  0  0  0  0  0
  -30.0794  -27.0867   23.6168 C   0  0  0  0  0  0  0  0  0  0  0  0
  -19.0262  -18.8706   22.4087 C   0  0  0  0  0  0  0  0  0  0  0  0
  -18.1370  -25.8459   21.6090 C   0  0  0  0  0  0  0  0  0  0  0  0
  -28.6195  -26.6816   23.7933 C   0  0  0  0  0  0  0  0  0  0  0  0
  -20.3788  -19.5497   22.6310 C   0  0  0  0  0  0  0  0  0  0  0  0
  -18.8060  -27.2128   21.6688 C   0  0  0  0  0  0  0  0  0  0  0  0
  -18.9214  -18.2660   21.0103 C   0  0  0  0  0  0  0  0  0  0  0  0
  -20.5611  -19.8815   20.1299 C   0  0  0  0  0  0  0  0  0  0  0  0
  -17.2108  -25.7252   20.4073 C   0  0  0  0  0  0  0  0  0  0  0  0
  -18.5928  -27.4085   19.1637 C   0  0  0  0  0  0  0  0  0  0  0  0
  -27.9340  -26.4833   22.4360 C   0  0  1  0  0  0  0  0  0  0  0  0
  -26.3064  -29.7623   21.4200 C   0  0  1  0  0  0  0  0  0  0  0  0
  -20.6930  -20.5549   21.5066 C   0  0  2  0  0  0  0  0  0  0  0  0
  -19.5230  -27.5394   20.3626 C   0  0  1  0  0  0  0  0  0  1  0  0
  -24.7472  -36.7893   24.2824 C   0  0  0  0  0  0  0  0  0  0  0  0
  -26.0120  -30.5108   25.9712 C   0  0  0  0  0  0  0  0  0  0  0  0
  -25.2559  -32.8017   26.6408 C   0  0  0  0  0  0  0  0  0  0  0  0
  -27.5608  -32.4618   25.7496 C   0  0  0  0  0  0  0  0  0  0  0  0
  -24.1387  -35.6015   20.7194 C   0  0  0  0  0  0  0  0  0  0  0  0
  -17.7764  -20.9335   16.9931 C   0  0  0  0  0  0  0  0  0  0  0  0
  -17.1411  -25.8136   17.9163 C   0  0  0  0  0  0  0  0  0  0  0  0
  -25.5888  -32.3158   24.1742 C   0  0  1  0  0  0  0  0  0  0  0  0
  -24.9215  -35.8816   23.0747 C   0  0  2  0  0  0  0  0  0  0  0  0
  -26.0910  -32.0083   25.6132 C   0  0  0  0  0  0  0  0  0  0  0  0
  -23.1254  -20.6449   21.1093 N   0  0  0  0  0  0  0  0  0  0  0  0
  -22.0527  -21.2012   21.6974 N   0  0  0  0  0  0  0  0  0  0  0  0
  -25.6015  -30.6794   22.3179 N   0  0  0  0  0  0  0  0  0  0  0  0
  -19.2296  -19.2713   19.9904 N   0  0  0  0  0  0  0  0  0  0  0  0
  -21.3775  -23.0062   23.0746 N   0  0  0  0  0  0  0  0  0  0  0  0
  -24.9919  -23.3781   24.1666 N   0  0  0  0  0  0  0  0  0  0  0  0
  -27.6010  -27.7623   21.8463 N   0  0  0  0  0  0  0  0  0  0  0  0
  -25.6774  -33.7226   23.7982 N   0  0  0  0  0  0  0  0  0  0  0  0
  -18.6492  -20.5266   18.0718 N   0  0  0  0  0  0  0  0  0  0  0  0
  -17.9811  -26.0308   19.1447 N   0  3  2  0  0  0  0  0  0  0  0  0
  -24.0497  -36.3874   21.9770 N   0  3  0  0  0  0  0  0  0  0  0  0
  -24.6266  -24.6750   22.3110 O   0  0  0  0  0  0  0  0  0  0  0  0
  -25.5675  -28.1030   22.9285 O   0  0  0  0  0  0  0  0  0  0  0  0
  -27.5692  -31.7193   23.0129 O   0  0  0  0  0  0  0  0  0  0  0  0
  -23.4227  -34.0047   23.3358 O   0  0  0  0  0  0  0  0  0  0  0  0
  -17.1816  -18.9930   18.9386 O   0  0  0  0  0  0  0  0  0  0  0  0
  -29.3456  -20.4071   19.7678 O   0  0  0  0  0  0  0  0  0  0  0  0
  -20.0099  -28.8755   20.4384 O   0  0  0  0  0  0  0  0  0  1  0  0
  -30.0153  -16.8464   15.6112 F   0  0  0  0  0  0  0  0  0  0  0  0
  -13.4201  -22.6838   18.2801 F   0  0  0  0  0  0  0  0  0  0  0  0
  -28.4772  -17.7917   19.9869 F   0  0  0  0  0  0  0  0  0  0  0  0
  1  2  1  0  0  0  0
  1  5  2  0  0  0  0
  2  6  2  0  0  0  0
  3  8  2  0  0  0  0
  3 18  1  0  0  0  0
  4  9  1  0  0  0  0
  4 18  2  0  0  0  0
  5 20  1  0  0  0  0
  6 22  1  0  0  0  0
  7 10  2  0  0  0  0
  7 21  1  0  0  0  0
  8 26  1  0  0  0  0
  9 26  2  0  0  0  0
 10 27  1  0  0  0  0
 11 12  2  0  0  0  0
 11 28  1  0  0  0  0
 12 29  1  0  0  0  0
 13 23  1  0  0  0  0
 13 27  2  0  0  0  0
 14 24  1  0  0  0  0
 14 25  2  0  0  0  0
 15 24  2  0  0  0  0
 15 30  1  0  0  0  0
 16 25  1  0  0  0  0
 16 30  2  0  0  0  0
 17 29  2  0  0  0  0
 17 31  1  0  0  0  0
 18 32  1  0  0  0  0
 19 32  1  0  0  0  0
 19 33  2  0  0  0  0
 19 34  1  0  0  0  0
 20 22  2  0  0  0  0
 20 39  1  0  0  0  0
 21 23  2  0  0  0  0
 21 40  1  0  0  0  0
 22 52  1  0  0  0  0
 23 41  1  0  0  0  0
 24 61  1  0  0  0  0
 25 62  1  0  0  0  0
 26 82  1  0  0  0  0
 27 83  1  0  0  0  0
 28 31  2  0  0  0  0
 28 82  1  0  0  0  0
 29 84  1  0  0  0  0
 30 85  1  0  0  0  0
 31 86  1  0  0  0  0
 32 66  2  0  0  0  0
 33 67  1  0  0  0  0
 33 70  1  0  0  0  0
 34 71  1  0  0  0  0
 34 77  2  0  0  0  0
 35 53  1  0  0  0  0
 35 72  1  0  0  0  0
 35 78  2  0  0  0  0
 36 63  1  0  0  0  0
 36 68  1  0  0  0  0
 36 79  2  0  0  0  0
 37 64  1  0  0  0  0
 37 73  1  0  0  0  0
 37 80  2  0  0  0  0
 38 69  1  0  0  0  0
 38 74  1  0  0  0  0
 38 81  2  0  0  0  0
 39 42  1  0  0  0  0
 40 53  1  0  0  0  0
 41 68  1  0  0  0  0
 42 45  1  0  0  0  0
 43 46  1  0  0  0  0
 43 48  1  0  0  0  0
 44 47  1  0  0  0  0
 44 50  1  0  0  0  0
 45 52  1  0  0  0  0
 46 54  1  0  0  0  0
 47 55  1  0  0  0  0
 48 69  1  0  0  0  0
 49 54  1  0  0  0  0
 49 69  1  0  0  0  0
 50 75  1  0  0  0  0
 51 55  1  0  0  0  0
 51 75  1  0  0  0  0
 52 72  1  0  0  0  0
 53 68  1  0  0  0  0
 54 67  1  0  0  0  0
 55 83  1  0  0  0  0
 56 64  1  0  0  0  0
 57 65  1  0  0  0  0
 58 65  1  0  0  0  0
 59 65  1  0  0  0  0
 60 76  1  0  0  0  0
 61 74  1  0  0  0  0
 62 75  1  0  0  0  0
 63 65  1  0  0  0  0
 63 73  1  0  0  0  0
 64 76  1  0  0  0  0
 66 67  1  0  0  0  0
M  CHG  2  75   1  76   1
M  ISO  4  38 100  55 101  74 100  83 101
M  END
> <Batch ID>
0126

> <Smiles>
CNC(C)C(=O)NC(C(=O)N1Cc2cc([101O:1][101CH:1]3CCCN(Cc4cc(F)cc(C[100NH:0][100C:0](=O)N5CCCC(n6nc(-c7ccc(Oc8ccc(F)cc8F)cc7)c(C(N)=O)c6N)C5)c4)C3)ccc2CC1C(=O)NC1CCCc2ccccc21)C(C)(C)C

> <Shape>
0.204

> <Color>
0.058

> <Negative vol penalty>
0.000

$$$$

  -OEChem-04052320383D

 90100  0     1  0  0  0  0  0999 V2000
  -18.1553  -27.7247   23.6180 C   0  0  0  0  0  0  0  0  0  0  0  0
  -19.4991  -28.0683   23.7250 C   0  0  0  0  0  0  0  0  0  0  0  0
  -26.3761  -14.2032   21.6502 C   0  0  0  0  0  0  0  0  0  0  0  0
  -26.2776  -13.9142   19.2536 C   0  0  0  0  0  0  0  0  0  0  0  0
  -17.7415  -26.8333   22.6290 C   0  0  0  0  0  0  0  0  0  0  0  0
  -20.4302  -27.5197   22.8438 C   0  0  0  0  0  0  0  0  0  0  0  0
  -23.6763  -30.9691   21.0523 C   0  0  0  0  0  0  0  0  0  0  0  0
  -25.4904  -13.1384   21.8151 C   0  0  0  0  0  0  0  0  0  0  0  0
  -25.3919  -12.8492   19.4185 C   0  0  0  0  0  0  0  0  0  0  0  0
  -24.7157  -31.3629   21.8940 C   0  0  0  0  0  0  0  0  0  0  0  0
  -22.9743  -10.7254   22.8498 C   0  0  0  0  0  0  0  0  0  0  0  0
  -21.9246  -10.8870   23.7540 C   0  0  0  0  0  0  0  0  0  0  0  0
  -26.2172  -29.8823   20.7224 C   0  0  0  0  0  0  0  0  0  0  0  0
  -28.3991  -28.9174   23.7651 C   0  0  0  0  0  0  0  0  0  0  0  0
  -21.1100  -12.7662   22.4724 C   0  0  0  0  0  0  0  0  0  0  0  0
  -27.4357  -27.6363   25.3464 C   0  0  0  0  0  0  0  0  0  0  0  0
  -26.7696  -14.5912   20.3695 C   0  0  0  0  0  0  0  0  0  0  0  0
  -29.0895  -15.6288   20.1481 C   0  0  0  0  0  0  0  0  0  0  0  0
  -18.6665  -26.2810   21.7290 C   0  0  0  0  0  0  0  0  0  0  0  0
  -23.8974  -30.0193   20.0447 C   0  0  0  0  0  0  0  0  0  0  0  0
  -20.0286  -26.6191   21.8427 C   0  0  0  0  0  0  0  0  0  0  0  0
  -25.1796  -29.4801   19.8677 C   0  0  0  0  0  0  0  0  0  0  0  0
  -28.4663  -27.6699   24.4331 C   0  0  0  0  0  0  0  0  0  0  0  0
  -24.9983  -12.4613   20.6993 C   0  0  0  0  0  0  0  0  0  0  0  0
  -25.9857  -30.8173   21.7310 C   0  0  0  0  0  0  0  0  0  0  0  0
  -23.0920  -11.5842   21.7570 C   0  0  0  0  0  0  0  0  0  0  0  0
  -20.9924  -11.9074   23.5653 C   0  0  0  0  0  0  0  0  0  0  0  0
  -22.1598  -12.6046   21.5682 C   0  0  0  0  0  0  0  0  0  0  0  0
  -27.6841  -15.6915   20.1985 C   0  0  0  0  0  0  0  0  0  0  0  0
  -27.3296  -29.6083   24.2906 C   0  0  0  0  0  0  0  0  0  0  0  0
  -29.4853  -16.9325   19.9737 C   0  0  0  0  0  0  0  0  0  0  0  0
  -29.9595  -14.4937   20.2497 C   0  0  0  0  0  0  0  0  0  0  0  0
  -22.7622  -27.1194   19.4075 C   0  0  0  0  0  0  0  0  0  0  0  0
  -24.5016  -27.4611   16.6908 C   0  0  0  0  0  0  0  0  0  0  0  0
  -27.1176  -28.9635   15.0953 C   0  0  0  0  0  0  0  0  0  0  0  0
  -29.2840  -22.1786   21.0954 C   0  0  0  0  0  0  0  0  0  0  0  0
  -18.1789  -25.2853   20.7065 C   0  0  0  0  0  0  0  0  0  0  0  0
  -22.7720  -29.6250   19.1279 C   0  0  0  0  0  0  0  0  0  0  0  0
  -25.4738  -28.4720   18.7880 C   0  0  0  0  0  0  0  0  0  0  0  0
  -19.1730  -25.0381   19.5748 C   0  0  0  0  0  0  0  0  0  0  0  0
  -26.8186  -21.0727   18.8498 C   0  0  0  0  0  0  0  0  0  0  0  0
  -20.5758  -24.8228   20.1339 C   0  0  0  0  0  0  0  0  0  0  0  0
  -27.3910  -34.6553   25.1405 C   0  0  0  0  0  0  0  0  0  0  0  0
  -26.9071  -34.4008   23.7402 C   0  0  0  0  0  0  0  0  0  0  0  0
  -26.9342  -19.5557   18.9956 C   0  0  0  0  0  0  0  0  0  0  0  0
  -26.9466  -21.7895   20.1952 C   0  0  0  0  0  0  0  0  0  0  0  0
  -27.8228  -24.1478   21.7370 C   0  0  0  0  0  0  0  0  0  0  0  0
  -30.1762  -24.4879   21.0783 C   0  0  0  0  0  0  0  0  0  0  0  0
  -28.2821  -19.9134   21.0984 C   0  0  0  0  0  0  0  0  0  0  0  0
  -28.0862  -24.8394   23.0707 C   0  0  0  0  0  0  0  0  0  0  0  0
  -30.4809  -25.1598   22.4073 C   0  0  0  0  0  0  0  0  0  0  0  0
  -21.0650  -26.0642   20.8897 C   0  0  1  0  0  0  0  0  0  0  0  0
  -22.9885  -28.2679   18.4654 C   0  0  1  0  0  0  0  0  0  0  0  0
  -26.7136  -33.3558   24.8038 C   0  0  0  0  0  0  0  0  0  0  0  0
  -28.2159  -19.1701   19.7554 C   0  0  1  0  0  0  0  0  0  0  0  0
  -28.3146  -29.0123   12.8903 C   0  0  0  0  0  0  0  0  0  0  0  0
  -25.6722  -28.5665   27.4556 C   0  0  0  0  0  0  0  0  0  0  0  0
  -24.2861  -28.8027   25.3510 C   0  0  0  0  0  0  0  0  0  0  0  0
  -25.8339  -24.7984   17.3579 C   0  0  0  0  0  0  0  0  0  0  0  0
  -27.6259  -25.3598   15.7021 C   0  0  0  0  0  0  0  0  0  0  0  0
  -25.2639  -25.1034   14.9420 C   0  0  0  0  0  0  0  0  0  0  0  0
  -26.5061  -31.8315   14.6953 C   0  0  0  0  0  0  0  0  0  0  0  0
  -29.4734  -26.5844   24.1912 C   0  0  0  0  0  0  0  0  0  0  0  0
  -27.5032  -32.0796   24.7618 C   0  0  0  0  0  0  0  0  0  0  0  0
  -26.8124  -30.9515   23.9569 C   0  0  1  0  0  0  0  0  0  1  0  0
  -25.9200  -27.1441   16.2826 C   0  0  1  0  0  0  0  0  0  0  0  0
  -27.2175  -29.6367   13.7384 C   0  0  2  0  0  0  0  0  0  0  0  0
  -25.5970  -29.1670   26.0505 C   0  0  0  0  0  0  0  0  0  0  0  0
  -26.1553  -25.6189   16.0928 C   0  0  0  0  0  0  0  0  0  0  0  0
  -27.2184  -16.9364   20.0670 N   0  0  0  0  0  0  0  0  0  0  0  0
  -26.7516  -28.8200   25.2512 N   0  0  0  0  0  0  0  0  0  0  0  0
  -28.3376  -17.6681   19.9323 N   0  0  0  0  0  0  0  0  0  0  0  0
  -24.3391  -28.1138   17.9210 N   0  0  0  0  0  0  0  0  0  0  0  0
  -28.1618  -21.3595   20.9008 N   0  0  0  0  0  0  0  0  0  0  0  0
  -29.0549  -23.5586   21.1989 N   0  0  0  0  0  0  0  0  0  0  0  0
  -30.6996  -17.5098   19.8534 N   0  0  0  0  0  0  0  0  0  0  0  0
  -29.3869  -13.2268   20.4268 N   0  0  0  0  0  0  0  0  0  0  0  0
  -21.4956  -27.0855   19.9590 N   0  0  0  0  0  0  0  0  0  0  0  0
  -26.1903  -27.9430   15.0922 N   0  0  0  0  0  0  0  0  0  0  0  0
  -29.2232  -25.8215   22.9205 N   0  3  0  0  0  0  0  0  0  0  0  0
  -27.5171  -31.0875   13.9006 N   0  3  0  0  0  0  0  0  0  0  0  0
  -31.2083  -14.6018   20.2018 O   0  0  0  0  0  0  0  0  0  0  0  0
  -23.6689  -26.3223   19.6172 O   0  0  0  0  0  0  0  0  0  0  0  0
  -23.5725  -27.1477   15.9424 O   0  0  0  0  0  0  0  0  0  0  0  0
  -27.7971  -29.3061   16.0604 O   0  0  0  0  0  0  0  0  0  0  0  0
  -30.4244  -21.7043   21.1728 O   0  0  0  0  0  0  0  0  0  0  0  0
  -24.1343  -11.4220   20.8598 O   0  0  0  0  0  0  0  0  0  0  0  0
  -27.0034  -31.2000   22.5528 O   0  0  0  0  0  0  0  0  0  1  0  0
  -19.9835  -12.0615   24.4327 F   0  0  0  0  0  0  0  0  0  0  0  0
  -22.2669  -13.4320   20.5196 F   0  0  0  0  0  0  0  0  0  0  0  0
  1  2  1  0  0  0  0
  1  5  2  0  0  0  0
  2  6  2  0  0  0  0
  3  8  2  0  0  0  0
  3 17  1  0  0  0  0
  4  9  1  0  0  0  0
  4 17  2  0  0  0  0
  5 19  1  0  0  0  0
  6 21  1  0  0  0  0
  7 10  2  0  0  0  0
  7 20  1  0  0  0  0
  8 24  1  0  0  0  0
  9 24  2  0  0  0  0
 10 25  1  0  0  0  0
 11 12  2  0  0  0  0
 11 26  1  0  0  0  0
 12 27  1  0  0  0  0
 13 22  1  0  0  0  0
 13 25  2  0  0  0  0
 14 23  1  0  0  0  0
 14 30  2  0  0  0  0
 15 27  2  0  0  0  0
 15 28  1  0  0  0  0
 16 23  2  0  0  0  0
 16 71  1  0  0  0  0
 17 29  1  0  0  0  0
 18 29  1  0  0  0  0
 18 31  2  0  0  0  0
 18 32  1  0  0  0  0
 19 21  2  0  0  0  0
 19 37  1  0  0  0  0
 20 22  2  0  0  0  0
 20 38  1  0  0  0  0
 21 52  1  0  0  0  0
 22 39  1  0  0  0  0
 23 63  1  0  0  0  0
 24 87  1  0  0  0  0
 25 88  1  0  0  0  0
 26 28  2  0  0  0  0
 26 87  1  0  0  0  0
 27 89  1  0  0  0  0
 28 90  1  0  0  0  0
 29 70  2  0  0  0  0
 30 65  1  0  0  0  0
 30 71  1  0  0  0  0
 31 72  1  0  0  0  0
 31 76  1  0  0  0  0
 32 77  1  0  0  0  0
 32 82  2  0  0  0  0
 33 53  1  0  0  0  0
 33 78  1  0  0  0  0
 33 83  2  0  0  0  0
 34 66  1  0  0  0  0
 34 73  1  0  0  0  0
 34 84  2  0  0  0  0
 35 67  1  0  0  0  0
 35 79  1  0  0  0  0
 35 85  2  0  0  0  0
 36 74  1  0  0  0  0
 36 75  1  0  0  0  0
 36 86  2  0  0  0  0
 37 40  1  0  0  0  0
 38 53  1  0  0  0  0
 39 73  1  0  0  0  0
 40 42  1  0  0  0  0
 41 45  1  0  0  0  0
 41 46  1  0  0  0  0
 42 52  1  0  0  0  0
 43 44  1  0  0  0  0
 43 54  1  0  0  0  0
 44 54  1  0  0  0  0
 45 55  1  0  0  0  0
 46 74  1  0  0  0  0
 47 50  1  0  0  0  0
 47 75  1  0  0  0  0
 48 51  1  0  0  0  0
 48 75  1  0  0  0  0
 49 55  1  0  0  0  0
 49 74  1  0  0  0  0
 50 80  1  0  0  0  0
 51 80  1  0  0  0  0
 52 78  1  0  0  0  0
 53 73  1  0  0  0  0
 54 64  1  0  0  0  0
 55 72  1  0  0  0  0
 56 67  1  0  0  0  0
 57 68  1  0  0  0  0
 58 68  1  0  0  0  0
 59 69  1  0  0  0  0
 60 69  1  0  0  0  0
 61 69  1  0  0  0  0
 62 81  1  0  0  0  0
 63 80  1  0  0  0  0
 64 65  1  0  0  0  0
 65 88  1  0  0  0  0
 66 69  1  0  0  0  0
 66 79  1  0  0  0  0
 67 81  1  0  0  0  0
 68 71  1  0  0  0  0
 70 72  1  0  0  0  0
M  CHG  2  80   1  81   1
M  ISO  4  36 100  65 101  75 100  88 101
M  END
> <Batch ID>
0126

> <Smiles>
CNC(C)C(=O)NC(C(=O)N1Cc2cc([101O:1][101CH:1](CC3CC3)c3cc(CN4CC[100N:0]([100C:0](=O)N5CCCC(n6nc(-c7ccc(Oc8ccc(F)cc8F)cc7)c(C(N)=O)c6N)C5)CC4)cn3C(C)C)ccc2CC1C(=O)NC1CCCc2ccccc21)C(C)(C)C

> <Shape>
0.285

> <Color>
0.066

> <Negative vol penalty>
0.000

$$$$

  -OEChem-04052320383D

 82 90  0     1  0  0  0  0  0999 V2000
  -21.2215   -8.1350   17.9631 C   0  0  0  0  0  0  0  0  0  0  0  0
  -20.6181   -9.3812   17.8281 C   0  0  0  0  0  0  0  0  0  0  0  0
  -28.7445  -26.3434   19.1219 C   0  0  0  0  0  0  0  0  0  0  0  0
  -26.5743  -25.3220   19.4115 C   0  0  0  0  0  0  0  0  0  0  0  0
  -22.1916   -7.9340   18.9441 C   0  0  0  0  0  0  0  0  0  0  0  0
  -20.9837  -10.4270   18.6749 C   0  0  0  0  0  0  0  0  0  0  0  0
  -21.7327  -17.5509   18.7467 C   0  0  0  0  0  0  0  0  0  0  0  0
  -29.3217  -25.0802   18.9918 C   0  0  0  0  0  0  0  0  0  0  0  0
  -27.1514  -24.0588   19.2813 C   0  0  0  0  0  0  0  0  0  0  0  0
  -21.3354  -18.6683   19.4798 C   0  0  0  0  0  0  0  0  0  0  0  0
  -29.6182  -22.7117   16.5970 C   0  0  0  0  0  0  0  0  0  0  0  0
  -30.5400  -22.5232   15.5674 C   0  0  0  0  0  0  0  0  0  0  0  0
  -23.0801  -18.2271   21.0863 C   0  0  0  0  0  0  0  0  0  0  0  0
  -32.2349  -21.9478   17.1902 C   0  0  0  0  0  0  0  0  0  0  0  0
  -27.3708  -26.4642   19.3318 C   0  0  0  0  0  0  0  0  0  0  0  0
  -26.7822  -28.8095   18.5189 C   0  0  0  0  0  0  0  0  0  0  0  0
  -22.5762   -8.9805   19.7970 C   0  0  0  0  0  0  0  0  0  0  0  0
  -22.8014  -16.7556   19.1845 C   0  0  0  0  0  0  0  0  0  0  0  0
  -21.9589  -10.2395   19.6691 C   0  0  0  0  0  0  0  0  0  0  0  0
  -23.4905  -17.1016   20.3557 C   0  0  0  0  0  0  0  0  0  0  0  0
  -28.5252  -23.9379   19.0715 C   0  0  0  0  0  0  0  0  0  0  0  0
  -22.0073  -19.0049   20.6513 C   0  0  0  0  0  0  0  0  0  0  0  0
  -30.0046  -22.5184   17.9233 C   0  0  0  0  0  0  0  0  0  0  0  0
  -31.8484  -22.1412   15.8640 C   0  0  0  0  0  0  0  0  0  0  0  0
  -31.3130  -22.1364   18.2199 C   0  0  0  0  0  0  0  0  0  0  0  0
  -26.7741  -27.7688   19.4669 C   0  0  0  0  0  0  0  0  0  0  0  0
  -26.0873  -29.8290   19.1225 C   0  0  0  0  0  0  0  0  0  0  0  0
  -27.3655  -28.8510   17.2099 C   0  0  0  0  0  0  0  0  0  0  0  0
  -23.1204  -13.7228   20.0815 C   0  0  0  0  0  0  0  0  0  0  0  0
  -26.2726  -14.4843   20.1594 C   0  0  0  0  0  0  0  0  0  0  0  0
  -28.2816  -17.2730   21.2571 C   0  0  0  0  0  0  0  0  0  0  0  0
  -21.9080  -29.9362   23.4088 C   0  0  0  0  0  0  0  0  0  0  0  0
  -23.5955   -8.7024   20.8734 C   0  0  0  0  0  0  0  0  0  0  0  0
  -23.2347  -15.5688   18.3682 C   0  0  0  0  0  0  0  0  0  0  0  0
  -24.6572  -16.2922   20.8578 C   0  0  0  0  0  0  0  0  0  0  0  0
  -24.1955   -9.9657   21.4851 C   0  0  0  0  0  0  0  0  0  0  0  0
  -25.0500  -31.6107   23.4399 C   0  0  0  0  0  0  0  0  0  0  0  0
  -23.0977  -10.9715   21.8169 C   0  0  0  0  0  0  0  0  0  0  0  0
  -25.8488  -30.9098   22.3397 C   0  0  0  0  0  0  0  0  0  0  0  0
  -19.9226  -20.6993   24.2117 C   0  0  0  0  0  0  0  0  0  0  0  0
  -20.2580  -19.5273   23.2859 C   0  0  0  0  0  0  0  0  0  0  0  0
  -19.8167  -21.5515   21.9933 C   0  0  0  0  0  0  0  0  0  0  0  0
  -24.1514  -30.6334   24.1946 C   0  0  0  0  0  0  0  0  0  0  0  0
  -24.0504  -29.1337   22.2416 C   0  0  0  0  0  0  0  0  0  0  0  0
  -22.3465  -11.4055   20.5525 C   0  0  1  0  0  0  0  0  0  0  0  0
  -24.0077  -14.5348   19.1809 C   0  0  1  0  0  0  0  0  0  0  0  0
  -24.9296  -30.0884   21.4158 C   0  0  2  0  0  0  0  0  0  0  0  0
  -20.2744  -21.9388   23.3972 C   0  0  1  0  0  0  0  0  0  0  0  0
  -20.2864  -20.1044   21.8653 C   0  0  1  0  0  0  0  0  0  1  0  0
  -30.5320  -18.0678   20.4816 C   0  0  0  0  0  0  0  0  0  0  0  0
  -27.3431  -12.7772   22.4506 C   0  0  0  0  0  0  0  0  0  0  0  0
  -29.0505  -14.5558   22.8857 C   0  0  0  0  0  0  0  0  0  0  0  0
  -29.0341  -13.3530   20.7003 C   0  0  0  0  0  0  0  0  0  0  0  0
  -27.2561  -19.9913   20.6931 C   0  0  0  0  0  0  0  0  0  0  0  0
  -19.7336  -29.1629   22.4960 C   0  0  0  0  0  0  0  0  0  0  0  0
  -19.9721  -24.2979   23.0811 C   0  0  0  0  0  0  0  0  0  0  0  0
  -19.2028  -28.0254   23.3484 C   0  0  0  0  0  0  0  0  0  0  0  0
  -19.3264  -25.5487   23.6469 C   0  0  0  0  0  0  0  0  0  0  0  0
  -27.2141  -15.0342   21.2036 C   0  0  1  0  0  0  0  0  0  0  0  0
  -29.0270  -18.2587   20.3755 C   0  0  2  0  0  0  0  0  0  0  0  0
  -28.1327  -13.9363   21.8103 C   0  0  0  0  0  0  0  0  0  0  0  0
  -26.1257  -28.0970   20.5875 N   0  0  0  0  0  0  0  0  0  0  0  0
  -25.7199  -29.3555   20.3476 N   0  0  0  0  0  0  0  0  0  0  0  0
  -25.0389  -15.1375   20.0280 N   0  0  0  0  0  0  0  0  0  0  0  0
  -23.3040  -29.8873   23.2613 N   0  0  0  0  0  0  0  0  0  0  0  0
  -25.7609  -31.0754   18.7194 N   0  0  0  0  0  0  0  0  0  0  0  0
  -26.5880  -28.4401   16.1186 N   0  0  0  0  0  0  0  0  0  0  0  0
  -23.1274  -12.3687   19.8062 N   0  0  0  0  0  0  0  0  0  0  0  0
  -27.9346  -16.1311   20.5664 N   0  0  0  0  0  0  0  0  0  0  0  0
  -21.1788  -29.2059   22.4784 N   0  0  0  0  0  0  0  0  0  0  0  0
  -19.6202  -23.1378   23.8906 N   0  0  0  0  0  0  0  0  0  0  0  0
  -28.7016  -19.6577   20.7728 N   0  3  0  0  0  0  0  0  0  0  0  0
  -19.7346  -26.7293   22.8463 N   0  3  0  0  0  0  0  0  0  0  0  0
  -28.5469  -29.2253   17.0156 O   0  0  0  0  0  0  0  0  0  0  0  0
  -22.4781  -14.2832   20.9619 O   0  0  0  0  0  0  0  0  0  0  0  0
  -26.6218  -13.5155   19.4804 O   0  0  0  0  0  0  0  0  0  0  0  0
  -28.0353  -17.4922   22.4411 O   0  0  0  0  0  0  0  0  0  0  0  0
  -21.3524  -30.5872   24.3002 O   0  0  0  0  0  0  0  0  0  0  0  0
  -29.0880  -22.7052   18.9443 O   0  0  0  0  0  0  0  0  0  0  0  0
  -21.6212  -20.0947   21.3690 O   0  0  0  0  0  0  0  0  0  1  0  0
  -32.7332  -21.9587   14.8750 F   0  0  0  0  0  0  0  0  0  0  0  0
  -31.6898  -21.9480   19.4920 F   0  0  0  0  0  0  0  0  0  0  0  0
  1  2  1  0  0  0  0
  1  5  2  0  0  0  0
  2  6  2  0  0  0  0
  3  8  2  0  0  0  0
  3 15  1  0  0  0  0
  4  9  1  0  0  0  0
  4 15  2  0  0  0  0
  5 17  1  0  0  0  0
  6 19  1  0  0  0  0
  7 10  2  0  0  0  0
  7 18  1  0  0  0  0
  8 21  1  0  0  0  0
  9 21  2  0  0  0  0
 10 22  1  0  0  0  0
 11 12  2  0  0  0  0
 11 23  1  0  0  0  0
 12 24  1  0  0  0  0
 13 20  1  0  0  0  0
 13 22  2  0  0  0  0
 14 24  2  0  0  0  0
 14 25  1  0  0  0  0
 15 26  1  0  0  0  0
 16 26  1  0  0  0  0
 16 27  2  0  0  0  0
 16 28  1  0  0  0  0
 17 19  2  0  0  0  0
 17 33  1  0  0  0  0
 18 20  2  0  0  0  0
 18 34  1  0  0  0  0
 19 45  1  0  0  0  0
 20 35  1  0  0  0  0
 21 79  1  0  0  0  0
 22 80  1  0  0  0  0
 23 25  2  0  0  0  0
 23 79  1  0  0  0  0
 24 81  1  0  0  0  0
 25 82  1  0  0  0  0
 26 62  2  0  0  0  0
 27 63  1  0  0  0  0
 27 66  1  0  0  0  0
 28 67  1  0  0  0  0
 28 74  2  0  0  0  0
 29 46  1  0  0  0  0
 29 68  1  0  0  0  0
 29 75  2  0  0  0  0
 30 59  1  0  0  0  0
 30 64  1  0  0  0  0
 30 76  2  0  0  0  0
 31 60  1  0  0  0  0
 31 69  1  0  0  0  0
 31 77  2  0  0  0  0
 32 65  1  0  0  0  0
 32 70  1  0  0  0  0
 32 78  2  0  0  0  0
 33 36  1  0  0  0  0
 34 46  1  0  0  0  0
 35 64  1  0  0  0  0
 36 38  1  0  0  0  0
 37 39  1  0  0  0  0
 37 43  1  0  0  0  0
 38 45  1  0  0  0  0
 39 47  1  0  0  0  0
 40 41  1  0  0  0  0
 40 48  1  0  0  0  0
 41 49  1  0  0  0  0
 42 48  1  0  0  0  0
 42 49  1  0  0  0  0
 43 65  1  0  0  0  0
 44 47  1  0  0  0  0
 44 65  1  0  0  0  0
 45 68  1  0  0  0  0
 46 64  1  0  0  0  0
 47 63  1  0  0  0  0
 48 71  1  0  0  0  0
 49 80  1  0  0  0  0
 50 60  1  0  0  0  0
 51 61  1  0  0  0  0
 52 61  1  0  0  0  0
 53 61  1  0  0  0  0
 54 72  1  0  0  0  0
 55 57  1  0  0  0  0
 55 70  1  0  0  0  0
 56 58  1  0  0  0  0
 56 71  1  0  0  0  0
 57 73  1  0  0  0  0
 58 73  1  0  0  0  0
 59 61  1  0  0  0  0
 59 69  1  0  0  0  0
 60 72  1  0  0  0  0
 62 63  1  0  0  0  0
M  CHG  2  72   1  73   1
M  ISO  4  32 100  49 101  70 100  80 101
M  END
> <Batch ID>
0126

> <Smiles>
CNC(C)C(=O)NC(C(=O)N1Cc2cc([101O:1][101CH:1]3CCC(NCCNCC[100NH:0][100C:0](=O)N4CCCC(n5nc(-c6ccc(Oc7ccc(F)cc7F)cc6)c(C(N)=O)c5N)C4)C3)ccc2CC1C(=O)NC1CCCc2ccccc21)C(C)(C)C

> <Shape>
0.240

> <Color>
0.067

> <Negative vol penalty>
0.000

$$$$

  -OEChem-04052320383D

 86 95  0     1  0  0  0  0  0999 V2000
  -22.7367  -35.7388   18.6442 C   0  0  0  0  0  0  0  0  0  0  0  0
  -23.1914  -34.6564   17.8979 C   0  0  0  0  0  0  0  0  0  0  0  0
  -23.1433   -9.6833   20.0476 C   0  0  0  0  0  0  0  0  0  0  0  0
  -23.7452   -9.9747   22.3692 C   0  0  0  0  0  0  0  0  0  0  0  0
  -23.4594  -36.1706   19.7556 C   0  0  0  0  0  0  0  0  0  0  0  0
  -24.3697  -34.0057   18.2620 C   0  0  0  0  0  0  0  0  0  0  0  0
  -24.3913  -26.9747   19.8293 C   0  0  0  0  0  0  0  0  0  0  0  0
  -22.4256   -8.5338   20.3779 C   0  0  0  0  0  0  0  0  0  0  0  0
  -23.0275   -8.8252   22.6995 C   0  0  0  0  0  0  0  0  0  0  0  0
  -24.5157  -25.5896   19.9389 C   0  0  0  0  0  0  0  0  0  0  0  0
  -23.4734   -5.4776   22.5388 C   0  0  0  0  0  0  0  0  0  0  0  0
  -24.0748   -4.5647   23.4050 C   0  0  0  0  0  0  0  0  0  0  0  0
  -26.8655  -25.8310   20.4571 C   0  0  0  0  0  0  0  0  0  0  0  0
  -22.2565   -4.8517   24.9699 C   0  0  0  0  0  0  0  0  0  0  0  0
  -23.8032  -10.4038   21.0432 C   0  0  0  0  0  0  0  0  0  0  0  0
  -24.0624  -12.9128   20.6620 C   0  0  0  0  0  0  0  0  0  0  0  0
  -24.6421  -35.5188   20.1392 C   0  0  0  0  0  0  0  0  0  0  0  0
  -25.5013  -27.7951   20.0485 C   0  0  0  0  0  0  0  0  0  0  0  0
  -25.1097  -34.4299   19.3787 C   0  0  0  0  0  0  0  0  0  0  0  0
  -26.7440  -27.2198   20.3609 C   0  0  0  0  0  0  0  0  0  0  0  0
  -22.3677   -8.1048   21.7039 C   0  0  0  0  0  0  0  0  0  0  0  0
  -25.7499  -25.0192   20.2518 C   0  0  0  0  0  0  0  0  0  0  0  0
  -22.2635   -6.0777   22.8881 C   0  0  0  0  0  0  0  0  0  0  0  0
  -23.4664   -4.2517   24.6206 C   0  0  0  0  0  0  0  0  0  0  0  0
  -21.6551   -5.7647   24.1036 C   0  0  0  0  0  0  0  0  0  0  0  0
  -24.5452  -11.5910   20.7025 C   0  0  0  0  0  0  0  0  0  0  0  0
  -25.1494  -13.6639   20.2868 C   0  0  0  0  0  0  0  0  0  0  0  0
  -22.7490  -13.4166   20.9388 C   0  0  0  0  0  0  0  0  0  0  0  0
  -26.8665  -31.2862   20.2055 C   0  0  0  0  0  0  0  0  0  0  0  0
  -28.1323  -29.7293   22.5259 C   0  0  0  0  0  0  0  0  0  0  0  0
  -28.9769  -27.7856   25.1990 C   0  0  0  0  0  0  0  0  0  0  0  0
  -30.5681  -14.9315   20.7068 C   0  0  0  0  0  0  0  0  0  0  0  0
  -25.4142  -36.0513   21.3202 C   0  0  0  0  0  0  0  0  0  0  0  0
  -25.4276  -29.2885   19.8807 C   0  0  0  0  0  0  0  0  0  0  0  0
  -27.9187  -28.1395   20.5543 C   0  0  0  0  0  0  0  0  0  0  0  0
  -26.4541  -35.0725   21.8595 C   0  0  0  0  0  0  0  0  0  0  0  0
  -29.6803  -12.2527   18.5359 C   0  0  0  0  0  0  0  0  0  0  0  0
  -31.1942  -21.9186   26.1631 C   0  0  0  0  0  0  0  0  0  0  0  0
  -27.2672  -34.4738   20.7162 C   0  0  0  0  0  0  0  0  0  0  0  0
  -27.1449  -21.7024   23.2974 C   0  0  0  0  0  0  0  0  0  0  0  0
  -28.8659  -21.6645   21.4446 C   0  0  0  0  0  0  0  0  0  0  0  0
  -28.2282  -11.9470   18.9071 C   0  0  0  0  0  0  0  0  0  0  0  0
  -26.1451  -22.3589   22.3502 C   0  0  0  0  0  0  0  0  0  0  0  0
  -27.8615  -22.3218   20.5027 C   0  0  0  0  0  0  0  0  0  0  0  0
  -31.0350  -20.7829   25.1698 C   0  0  0  0  0  0  0  0  0  0  0  0
  -30.5055  -12.6432   19.7601 C   0  0  0  0  0  0  0  0  0  0  0  0
  -28.4894  -13.4400   20.9323 C   0  0  0  0  0  0  0  0  0  0  0  0
  -29.7659  -22.3583   26.4161 C   0  0  0  0  0  0  0  0  0  0  0  0
  -26.3702  -33.6827   19.7565 C   0  0  1  0  0  0  0  0  0  0  0  0
  -26.3286  -30.0520   20.8679 C   0  0  1  0  0  0  0  0  0  0  0  0
  -28.1647  -20.8440   22.5361 C   0  0  0  0  0  0  0  0  0  0  0  0
  -27.6041  -13.0956   19.7223 C   0  0  2  0  0  0  0  0  0  0  0  0
  -26.8460  -23.1710   21.2644 C   0  0  0  0  0  0  0  0  0  1  0  0
  -29.9762  -21.3166   24.2162 C   0  0  1  0  0  0  0  0  0  0  0  0
  -30.3388  -27.8187   27.3065 C   0  0  0  0  0  0  0  0  0  0  0  0
  -30.6788  -29.3908   20.8813 C   0  0  0  0  0  0  0  0  0  0  0  0
  -31.8008  -28.4976   22.9335 C   0  0  0  0  0  0  0  0  0  0  0  0
  -30.9295  -30.8348   22.9077 C   0  0  0  0  0  0  0  0  0  0  0  0
  -26.5867  -27.3465   26.8881 C   0  0  0  0  0  0  0  0  0  0  0  0
  -30.4735  -17.2058   21.6957 C   0  0  0  0  0  0  0  0  0  0  0  0
  -29.5092  -18.1006   22.4613 C   0  0  0  0  0  0  0  0  0  0  0  0
  -29.2990  -28.9053   23.0088 C   0  0  1  0  0  0  0  0  0  0  0  0
  -28.9704  -28.0662   26.6909 C   0  0  2  0  0  0  0  0  0  0  0  0
  -29.1869  -20.2411   23.4979 C   0  0  2  0  0  0  0  0  0  0  0  0
  -30.6533  -29.3949   22.4228 C   0  0  0  0  0  0  0  0  0  0  0  0
  -25.8381  -11.5041   20.3787 N   0  0  0  0  0  0  0  0  0  0  0  0
  -26.1770  -12.7808   20.1311 N   0  0  0  0  0  0  0  0  0  0  0  0
  -27.5125  -29.3146   21.3409 N   0  0  0  0  0  0  0  0  0  0  0  0
  -29.8600  -13.7383   20.4881 N   0  0  0  0  0  0  0  0  0  0  0  0
  -25.3168  -14.9871   20.0780 N   0  0  0  0  0  0  0  0  0  0  0  0
  -21.7494  -12.5074   21.3113 N   0  0  0  0  0  0  0  0  0  0  0  0
  -26.0434  -32.3903   20.3198 N   0  0  0  0  0  0  0  0  0  0  0  0
  -29.2367  -28.9244   24.4663 N   0  0  0  0  0  0  0  0  0  0  0  0
  -29.8806  -15.9207   21.3993 N   0  0  0  0  0  0  0  0  0  0  0  0
  -30.1211  -19.3849   22.7307 N   0  0  0  0  0  0  0  0  0  0  0  0
  -29.0657  -22.1217   25.1075 N   0  3  0  0  0  0  0  0  0  0  0  0
  -27.9802  -27.1899   27.3784 N   0  3  0  0  0  0  0  0  0  0  0  0
  -22.4658  -14.6348   20.8423 O   0  0  0  0  0  0  0  0  0  0  0  0
  -27.9494  -31.2419   19.6337 O   0  0  0  0  0  0  0  0  0  0  0  0
  -27.7816  -30.7177   23.1766 O   0  0  0  0  0  0  0  0  0  0  0  0
  -28.7757  -26.6672   24.7307 O   0  0  0  0  0  0  0  0  0  0  0  0
  -31.7252  -15.1046   20.3093 O   0  0  0  0  0  0  0  0  0  0  0  0
  -21.6673   -6.9832   22.0266 O   0  0  0  0  0  0  0  0  0  0  0  0
  -25.8633  -23.6665   20.3617 O   0  0  0  0  0  0  0  0  0  1  0  0
  -24.0433   -3.3738   25.4517 F   0  0  0  0  0  0  0  0  0  0  0  0
  -20.4922   -6.3370   24.4441 F   0  0  0  0  0  0  0  0  0  0  0  0
  1  2  1  0  0  0  0
  1  5  2  0  0  0  0
  2  6  2  0  0  0  0
  3  8  2  0  0  0  0
  3 15  1  0  0  0  0
  4  9  1  0  0  0  0
  4 15  2  0  0  0  0
  5 17  1  0  0  0  0
  6 19  1  0  0  0  0
  7 10  2  0  0  0  0
  7 18  1  0  0  0  0
  8 21  1  0  0  0  0
  9 21  2  0  0  0  0
 10 22  1  0  0  0  0
 11 12  2  0  0  0  0
 11 23  1  0  0  0  0
 12 24  1  0  0  0  0
 13 20  1  0  0  0  0
 13 22  2  0  0  0  0
 14 24  2  0  0  0  0
 14 25  1  0  0  0  0
 15 26  1  0  0  0  0
 16 26  1  0  0  0  0
 16 27  2  0  0  0  0
 16 28  1  0  0  0  0
 17 19  2  0  0  0  0
 17 33  1  0  0  0  0
 18 20  2  0  0  0  0
 18 34  1  0  0  0  0
 19 49  1  0  0  0  0
 20 35  1  0  0  0  0
 21 83  1  0  0  0  0
 22 84  1  0  0  0  0
 23 25  2  0  0  0  0
 23 83  1  0  0  0  0
 24 85  1  0  0  0  0
 25 86  1  0  0  0  0
 26 66  2  0  0  0  0
 27 67  1  0  0  0  0
 27 70  1  0  0  0  0
 28 71  1  0  0  0  0
 28 78  2  0  0  0  0
 29 50  1  0  0  0  0
 29 72  1  0  0  0  0
 29 79  2  0  0  0  0
 30 62  1  0  0  0  0
 30 68  1  0  0  0  0
 30 80  2  0  0  0  0
 31 63  1  0  0  0  0
 31 73  1  0  0  0  0
 31 81  2  0  0  0  0
 32 69  1  0  0  0  0
 32 74  1  0  0  0  0
 32 82  2  0  0  0  0
 33 36  1  0  0  0  0
 34 50  1  0  0  0  0
 35 68  1  0  0  0  0
 36 39  1  0  0  0  0
 37 42  1  0  0  0  0
 37 46  1  0  0  0  0
 38 45  1  0  0  0  0
 38 48  1  0  0  0  0
 39 49  1  0  0  0  0
 40 43  1  0  0  0  0
 40 51  1  0  0  0  0
 41 44  1  0  0  0  0
 41 51  1  0  0  0  0
 42 52  1  0  0  0  0
 43 53  1  0  0  0  0
 44 53  1  0  0  0  0
 45 54  1  0  0  0  0
 46 69  1  0  0  0  0
 47 52  1  0  0  0  0
 47 69  1  0  0  0  0
 48 76  1  0  0  0  0
 49 72  1  0  0  0  0
 50 68  1  0  0  0  0
 51 64  1  0  0  0  0
 52 67  1  0  0  0  0
 53 84  1  0  0  0  0
 54 64  1  0  0  0  0
 54 76  1  0  0  0  0
 55 63  1  0  0  0  0
 56 65  1  0  0  0  0
 57 65  1  0  0  0  0
 58 65  1  0  0  0  0
 59 77  1  0  0  0  0
 60 61  1  0  0  0  0
 60 74  1  0  0  0  0
 61 75  1  0  0  0  0
 62 65  1  0  0  0  0
 62 73  1  0  0  0  0
 63 77  1  0  0  0  0
 64 75  1  0  0  0  0
 66 67  1  0  0  0  0
M  CHG  2  76   1  77   1
M  ISO  4  32 100  53 101  74 100  84 101
M  END
> <Batch ID>
0126

> <Smiles>
CNC(C)C(=O)NC(C(=O)N1Cc2cc([101O:1][101CH:1]3CCC(C(NCC[100NH:0][100C:0](=O)N4CCCC(n5nc(-c6ccc(Oc7ccc(F)cc7F)cc6)c(C(N)=O)c5N)C4)C4CCCN4)CC3)ccc2CC1C(=O)NC1CCCc2ccccc21)C(C)(C)C

> <Shape>
0.257

> <Color>
0.186

> <Negative vol penalty>
0.000

$$$$

  -OEChem-04052320383D

 82 91  0     1  0  0  0  0  0999 V2000
  -42.8575  -21.0406   21.5496 C   0  0  0  0  0  0  0  0  0  0  0  0
  -41.4855  -20.8254   21.4680 C   0  0  0  0  0  0  0  0  0  0  0  0
  -23.0660   -9.8993   19.9559 C   0  0  0  0  0  0  0  0  0  0  0  0
  -23.8442   -9.8982   22.2431 C   0  0  0  0  0  0  0  0  0  0  0  0
  -43.3537  -22.3402   21.6436 C   0  0  0  0  0  0  0  0  0  0  0  0
  -40.6088  -21.9097   21.4815 C   0  0  0  0  0  0  0  0  0  0  0  0
  -36.9758  -21.5143   17.9758 C   0  0  0  0  0  0  0  0  0  0  0  0
  -22.3045   -8.7596   20.2145 C   0  0  0  0  0  0  0  0  0  0  0  0
  -23.0827   -8.7585   22.5018 C   0  0  0  0  0  0  0  0  0  0  0  0
  -35.9110  -20.6591   18.2560 C   0  0  0  0  0  0  0  0  0  0  0  0
  -19.8463   -8.0175   23.1319 C   0  0  0  0  0  0  0  0  0  0  0  0
  -19.0982   -7.9931   24.3089 C   0  0  0  0  0  0  0  0  0  0  0  0
  -30.2451  -19.8885   19.0534 C   0  0  0  0  0  0  0  0  0  0  0  0
  -34.5667  -22.5547   18.9030 C   0  0  0  0  0  0  0  0  0  0  0  0
  -20.3121   -6.0363   25.0399 C   0  0  0  0  0  0  0  0  0  0  0  0
  -29.3301  -18.8831   19.3215 C   0  0  0  0  0  0  0  0  0  0  0  0
  -23.8359  -10.4686   20.9702 C   0  0  0  0  0  0  0  0  0  0  0  0
  -24.2199  -12.9872   20.8416 C   0  0  0  0  0  0  0  0  0  0  0  0
  -42.4832  -23.4414   21.6485 C   0  0  0  0  0  0  0  0  0  0  0  0
  -36.8474  -22.8974   18.1678 C   0  0  0  0  0  0  0  0  0  0  0  0
  -41.0938  -23.2251   21.5770 C   0  0  0  0  0  0  0  0  0  0  0  0
  -35.6305  -23.4255   18.6221 C   0  0  0  0  0  0  0  0  0  0  0  0
  -31.7041  -18.8623   20.6667 C   0  0  0  0  0  0  0  0  0  0  0  0
  -31.4523  -19.8707   19.7431 C   0  0  0  0  0  0  0  0  0  0  0  0
  -22.3128   -8.1892   21.4874 C   0  0  0  0  0  0  0  0  0  0  0  0
  -34.7071  -21.1789   18.7224 C   0  0  0  0  0  0  0  0  0  0  0  0
  -20.8273   -7.0512   22.9088 C   0  0  0  0  0  0  0  0  0  0  0  0
  -19.3311   -7.0025   25.2629 C   0  0  0  0  0  0  0  0  0  0  0  0
  -21.0602   -6.0607   23.8628 C   0  0  0  0  0  0  0  0  0  0  0  0
  -24.6231  -11.6455   20.7036 C   0  0  0  0  0  0  0  0  0  0  0  0
  -30.7238  -17.9029   20.8627 C   0  0  0  0  0  0  0  0  0  0  0  0
  -25.3218  -13.7171   20.4679 C   0  0  0  0  0  0  0  0  0  0  0  0
  -22.9618  -13.5257   21.2695 C   0  0  0  0  0  0  0  0  0  0  0  0
  -38.2880  -25.0494   20.0109 C   0  0  0  0  0  0  0  0  0  0  0  0
  -36.4839  -27.1407   18.3097 C   0  0  0  0  0  0  0  0  0  0  0  0
  -33.6956  -27.6927   16.4210 C   0  0  0  0  0  0  0  0  0  0  0  0
  -30.8235  -14.6424   20.6101 C   0  0  0  0  0  0  0  0  0  0  0  0
  -43.0639  -24.8252   21.7994 C   0  0  0  0  0  0  0  0  0  0  0  0
  -37.9967  -23.8090   17.8355 C   0  0  0  0  0  0  0  0  0  0  0  0
  -35.4348  -24.9050   18.8257 C   0  0  0  0  0  0  0  0  0  0  0  0
  -42.0877  -25.9390   21.4297 C   0  0  0  0  0  0  0  0  0  0  0  0
  -29.6262  -12.2725   18.2381 C   0  0  0  0  0  0  0  0  0  0  0  0
  -32.9547  -18.7834   22.9258 C   0  0  0  0  0  0  0  0  0  0  0  0
  -33.4132  -20.0213   22.2204 C   0  0  0  0  0  0  0  0  0  0  0  0
  -40.7253  -25.6886   22.0684 C   0  0  0  0  0  0  0  0  0  0  0  0
  -28.1874  -12.0044   18.6831 C   0  0  0  0  0  0  0  0  0  0  0  0
  -30.5565  -12.4802   19.4311 C   0  0  0  0  0  0  0  0  0  0  0  0
  -28.6788  -13.2468   20.8311 C   0  0  0  0  0  0  0  0  0  0  0  0
  -32.9911  -18.8172   21.4210 C   0  0  0  0  0  0  0  0  0  0  0  0
  -40.1121  -24.3768   21.5637 C   0  0  1  0  0  0  0  0  0  0  0  0
  -37.9227  -25.1512   18.5570 C   0  0  1  0  0  0  0  0  0  0  0  0
  -27.6923  -13.0864   19.6617 C   0  0  2  0  0  0  0  0  0  0  0  0
  -32.4701  -29.5124   15.2026 C   0  0  0  0  0  0  0  0  0  0  0  0
  -35.4643  -28.2322   20.9703 C   0  0  0  0  0  0  0  0  0  0  0  0
  -33.5982  -29.3395   19.7213 C   0  0  0  0  0  0  0  0  0  0  0  0
  -35.9633  -29.9769   19.2495 C   0  0  0  0  0  0  0  0  0  0  0  0
  -33.9798  -26.3040   13.8230 C   0  0  0  0  0  0  0  0  0  0  0  0
  -32.4621  -20.9469   19.4720 C   0  0  0  0  0  0  0  0  0  1  0  0
  -30.9361  -16.7942   21.8414 C   0  0  0  0  0  0  0  0  0  0  0  0
  -35.1039  -27.7331   18.4629 C   0  0  1  0  0  0  0  0  0  0  0  0
  -33.5029  -28.4016   15.0925 C   0  0  2  0  0  0  0  0  0  0  0  0
  -35.0364  -28.7923   19.5991 C   0  0  0  0  0  0  0  0  0  0  0  0
  -29.5391  -17.8872   20.2115 N   0  0  0  0  0  0  0  0  0  0  0  0
  -25.8828  -11.5271   20.2755 N   0  0  0  0  0  0  0  0  0  0  0  0
  -26.2806  -12.8038   20.1411 N   0  0  0  0  0  0  0  0  0  0  0  0
  -36.5901  -25.7547   18.4928 N   0  0  0  0  0  0  0  0  0  0  0  0
  -30.0308  -13.5200   20.3190 N   0  0  0  0  0  0  0  0  0  0  0  0
  -25.5544  -15.0446   20.3901 N   0  0  0  0  0  0  0  0  0  0  0  0
  -21.9373  -12.6347   21.6169 N   0  0  0  0  0  0  0  0  0  0  0  0
  -39.5580  -24.5548   20.2386 N   0  0  0  0  0  0  0  0  0  0  0  0
  -34.7301  -28.2427   17.1480 N   0  0  0  0  0  0  0  0  0  0  0  0
  -30.2471  -15.5832   21.4547 N   0  0  0  0  0  0  0  0  0  0  0  0
  -33.0466  -27.4370   14.0521 N   0  3  0  0  0  0  0  0  0  0  0  0
  -22.7472  -14.7603   21.3258 O   0  0  0  0  0  0  0  0  0  0  0  0
  -37.4782  -25.3955   20.8630 O   0  0  0  0  0  0  0  0  0  0  0  0
  -37.4315  -27.8794   18.0305 O   0  0  0  0  0  0  0  0  0  0  0  0
  -32.9958  -26.7482   16.7796 O   0  0  0  0  0  0  0  0  0  0  0  0
  -31.9586  -14.7974   20.1470 O   0  0  0  0  0  0  0  0  0  0  0  0
  -21.5697   -7.0773   21.7401 O   0  0  0  0  0  0  0  0  0  0  0  0
  -33.6664  -20.3463   18.9973 O   0  0  0  0  0  0  0  0  0  1  0  0
  -18.6137   -6.9802   26.3938 F   0  0  0  0  0  0  0  0  0  0  0  0
  -22.0021   -5.1304   23.6547 F   0  0  0  0  0  0  0  0  0  0  0  0
  1  2  1  0  0  0  0
  1  5  2  0  0  0  0
  2  6  2  0  0  0  0
  3  8  2  0  0  0  0
  3 17  1  0  0  0  0
  4  9  1  0  0  0  0
  4 17  2  0  0  0  0
  5 19  1  0  0  0  0
  6 21  1  0  0  0  0
  7 10  2  0  0  0  0
  7 20  1  0  0  0  0
  8 25  1  0  0  0  0
  9 25  2  0  0  0  0
 10 26  1  0  0  0  0
 11 12  2  0  0  0  0
 11 27  1  0  0  0  0
 12 28  1  0  0  0  0
 13 16  2  0  0  0  0
 13 24  1  0  0  0  0
 14 22  1  0  0  0  0
 14 26  2  0  0  0  0
 15 28  2  0  0  0  0
 15 29  1  0  0  0  0
 16 63  1  0  0  0  0
 17 30  1  0  0  0  0
 18 30  1  0  0  0  0
 18 32  2  0  0  0  0
 18 33  1  0  0  0  0
 19 21  2  0  0  0  0
 19 38  1  0  0  0  0
 20 22  2  0  0  0  0
 20 39  1  0  0  0  0
 21 50  1  0  0  0  0
 22 40  1  0  0  0  0
 23 24  2  0  0  0  0
 23 31  1  0  0  0  0
 23 49  1  0  0  0  0
 24 58  1  0  0  0  0
 25 79  1  0  0  0  0
 26 80  1  0  0  0  0
 27 29  2  0  0  0  0
 27 79  1  0  0  0  0
 28 81  1  0  0  0  0
 29 82  1  0  0  0  0
 30 64  2  0  0  0  0
 31 59  1  0  0  0  0
 31 63  2  0  0  0  0
 32 65  1  0  0  0  0
 32 68  1  0  0  0  0
 33 69  1  0  0  0  0
 33 74  2  0  0  0  0
 34 51  1  0  0  0  0
 34 70  1  0  0  0  0
 34 75  2  0  0  0  0
 35 60  1  0  0  0  0
 35 66  1  0  0  0  0
 35 76  2  0  0  0  0
 36 61  1  0  0  0  0
 36 71  1  0  0  0  0
 36 77  2  0  0  0  0
 37 67  1  0  0  0  0
 37 72  1  0  0  0  0
 37 78  2  0  0  0  0
 38 41  1  0  0  0  0
 39 51  1  0  0  0  0
 40 66  1  0  0  0  0
 41 45  1  0  0  0  0
 42 46  1  0  0  0  0
 42 47  1  0  0  0  0
 43 44  1  0  0  0  0
 43 49  1  0  0  0  0
 44 49  1  0  0  0  0
 45 50  1  0  0  0  0
 46 52  1  0  0  0  0
 47 67  1  0  0  0  0
 48 52  1  0  0  0  0
 48 67  1  0  0  0  0
 50 70  1  0  0  0  0
 51 66  1  0  0  0  0
 52 65  1  0  0  0  0
 53 61  1  0  0  0  0
 54 62  1  0  0  0  0
 55 62  1  0  0  0  0
 56 62  1  0  0  0  0
 57 73  1  0  0  0  0
 58 80  1  0  0  0  0
 59 72  1  0  0  0  0
 60 62  1  0  0  0  0
 60 71  1  0  0  0  0
 61 73  1  0  0  0  0
 64 65  1  0  0  0  0
M  CHG  1  73   1
M  ISO  4  37 100  58 101  72 100  80 101
M  END
> <Batch ID>
0126

> <Smiles>
CNC(C)C(=O)NC(C(=O)N1Cc2cc([101O:1][101CH2:1]c3ccnc(C[100NH:0][100C:0](=O)N4CCCC(n5nc(-c6ccc(Oc7ccc(F)cc7F)cc6)c(C(N)=O)c5N)C4)c3C3CC3)ccc2CC1C(=O)NC1CCCc2ccccc21)C(C)(C)C

> <Shape>
0.185

> <Color>
0.206

> <Negative vol penalty>
0.000

$$$$

  -OEChem-04052320383D

 91100  0     1  0  0  0  0  0999 V2000
  -28.6158  -32.0362   16.2761 C   0  0  0  0  0  0  0  0  0  0  0  0
  -28.8852  -30.7119   16.6064 C   0  0  0  0  0  0  0  0  0  0  0  0
  -23.0330  -10.0182   19.9023 C   0  0  0  0  0  0  0  0  0  0  0  0
  -23.7735   -9.9280   22.2003 C   0  0  0  0  0  0  0  0  0  0  0  0
  -27.7465  -32.7874   17.0660 C   0  0  0  0  0  0  0  0  0  0  0  0
  -28.2863  -30.1383   17.7274 C   0  0  0  0  0  0  0  0  0  0  0  0
  -26.4684  -24.3246   18.3611 C   0  0  0  0  0  0  0  0  0  0  0  0
  -30.1081  -19.8018   21.1777 C   0  0  0  0  0  0  0  0  0  0  0  0
  -22.2586   -8.8763   20.1070 C   0  0  0  0  0  0  0  0  0  0  0  0
  -22.9990   -8.7861   22.4050 C   0  0  0  0  0  0  0  0  0  0  0  0
  -27.0613  -23.2171   18.9657 C   0  0  0  0  0  0  0  0  0  0  0  0
  -30.5941  -18.7328   21.9303 C   0  0  0  0  0  0  0  0  0  0  0  0
  -19.2793   -8.1052   21.5078 C   0  0  0  0  0  0  0  0  0  0  0  0
  -17.9758   -8.1084   21.0114 C   0  0  0  0  0  0  0  0  0  0  0  0
  -25.7931  -23.6416   20.9734 C   0  0  0  0  0  0  0  0  0  0  0  0
  -28.3522  -17.8547   22.1307 C   0  0  0  0  0  0  0  0  0  0  0  0
  -18.4982   -6.1980   19.6276 C   0  0  0  0  0  0  0  0  0  0  0  0
  -23.7905  -10.5440   20.9490 C   0  0  0  0  0  0  0  0  0  0  0  0
  -24.1961  -13.0624   20.9180 C   0  0  0  0  0  0  0  0  0  0  0  0
  -27.1292  -32.2199   18.1919 C   0  0  0  0  0  0  0  0  0  0  0  0
  -25.5400  -25.1067   19.0631 C   0  0  0  0  0  0  0  0  0  0  0  0
  -27.4090  -30.8831   18.5339 C   0  0  0  0  0  0  0  0  0  0  0  0
  -25.1879  -24.7571   20.3745 C   0  0  0  0  0  0  0  0  0  0  0  0
  -28.7441  -19.8974   20.9016 C   0  0  0  0  0  0  0  0  0  0  0  0
  -27.8662  -18.9238   21.3781 C   0  0  0  0  0  0  0  0  0  0  0  0
  -22.2416   -8.2602   21.3584 C   0  0  0  0  0  0  0  0  0  0  0  0
  -26.7259  -22.8771   20.2730 C   0  0  0  0  0  0  0  0  0  0  0  0
  -29.7162  -17.7592   22.4068 C   0  0  0  0  0  0  0  0  0  0  0  0
  -20.1923   -7.1484   21.0641 C   0  0  0  0  0  0  0  0  0  0  0  0
  -17.5852   -7.1548   20.0713 C   0  0  0  0  0  0  0  0  0  0  0  0
  -19.8017   -6.1948   20.1241 C   0  0  0  0  0  0  0  0  0  0  0  0
  -24.5912  -11.7232   20.7380 C   0  0  0  0  0  0  0  0  0  0  0  0
  -25.3096  -13.7961   20.5889 C   0  0  0  0  0  0  0  0  0  0  0  0
  -22.9354  -13.5954   21.3447 C   0  0  0  0  0  0  0  0  0  0  0  0
  -25.4211  -28.1393   20.0080 C   0  0  0  0  0  0  0  0  0  0  0  0
  -22.4120  -27.3327   20.9120 C   0  0  0  0  0  0  0  0  0  0  0  0
  -20.2203  -24.8814   21.8255 C   0  0  0  0  0  0  0  0  0  0  0  0
  -31.0804  -13.5898   21.0013 C   0  0  0  0  0  0  0  0  0  0  0  0
  -26.2336  -33.0855   19.0423 C   0  0  0  0  0  0  0  0  0  0  0  0
  -24.8894  -26.2826   18.3875 C   0  0  0  0  0  0  0  0  0  0  0  0
  -24.1816  -25.5522   21.1643 C   0  0  0  0  0  0  0  0  0  0  0  0
  -25.3487  -32.2910   19.9994 C   0  0  0  0  0  0  0  0  0  0  0  0
  -29.3916  -12.9337   17.9363 C   0  0  0  0  0  0  0  0  0  0  0  0
  -26.1662  -31.2245   20.7213 C   0  0  0  0  0  0  0  0  0  0  0  0
  -27.9448  -12.6792   18.3631 C   0  0  0  0  0  0  0  0  0  0  0  0
  -21.1618  -20.9311   23.9151 C   0  0  0  0  0  0  0  0  0  0  0  0
  -30.3860  -12.3798   18.9543 C   0  0  0  0  0  0  0  0  0  0  0  0
  -28.7283  -12.5852   20.7664 C   0  0  0  0  0  0  0  0  0  0  0  0
  -21.0311  -19.7800   24.8960 C   0  0  0  0  0  0  0  0  0  0  0  0
  -23.2401  -18.8699   24.1470 C   0  0  0  0  0  0  0  0  0  0  0  0
  -26.7596  -30.2180   19.7281 C   0  0  1  0  0  0  0  0  0  0  0  0
  -24.3410  -27.3098   19.3732 C   0  0  1  0  0  0  0  0  0  0  0  0
  -27.6882  -13.1752   19.7988 C   0  0  2  0  0  0  0  0  0  0  0  0
  -23.3947  -20.0166   23.1504 C   0  0  2  0  0  0  0  0  0  0  0  0
  -22.0269  -20.5629   22.7075 C   0  0  2  0  0  0  0  0  0  0  0  0
  -17.8406  -24.5336   22.5418 C   0  0  0  0  0  0  0  0  0  0  0  0
  -23.0936  -28.4019   23.6873 C   0  0  0  0  0  0  0  0  0  0  0  0
  -21.0898  -27.1884   24.5707 C   0  0  0  0  0  0  0  0  0  0  0  0
  -20.8041  -28.9948   22.8742 C   0  0  0  0  0  0  0  0  0  0  0  0
  -19.6472  -23.1575   19.4892 C   0  0  0  0  0  0  0  0  0  0  0  0
  -26.4020  -19.0059   21.0961 C   0  0  0  0  0  0  0  0  0  0  0  0
  -28.2451  -21.0565   20.0900 C   0  0  0  0  0  0  0  0  0  1  0  0
  -25.5745  -19.4821   22.2953 C   0  0  0  0  0  0  0  0  0  0  0  0
  -31.6230  -14.7859   23.1070 C   0  0  0  0  0  0  0  0  0  0  0  0
  -31.5218  -16.2819   22.8690 C   0  0  0  0  0  0  0  0  0  0  0  0
  -21.7863  -26.7749   22.1675 C   0  0  1  0  0  0  0  0  0  0  0  0
  -18.8063  -24.5727   21.3677 C   0  0  2  0  0  0  0  0  0  0  0  0
  -21.7139  -27.8260   23.3110 C   0  0  0  0  0  0  0  0  0  0  0  0
  -25.8567  -11.6099   20.3263 N   0  0  0  0  0  0  0  0  0  0  0  0
  -26.2665  -12.8872   20.2448 N   0  0  0  0  0  0  0  0  0  0  0  0
  -23.5778  -26.6968   20.4622 N   0  0  0  0  0  0  0  0  0  0  0  0
  -30.0883  -12.8899   20.2949 N   0  0  0  0  0  0  0  0  0  0  0  0
  -25.5537  -15.1235   20.5631 N   0  0  0  0  0  0  0  0  0  0  0  0
  -21.8983  -12.7011   21.6430 N   0  0  0  0  0  0  0  0  0  0  0  0
  -25.7478  -29.2777   19.2961 N   0  0  0  0  0  0  0  0  0  0  0  0
  -20.4911  -26.2324   21.7718 N   0  0  0  0  0  0  0  0  0  0  0  0
  -30.7135  -14.0445   22.2621 N   0  0  0  0  0  0  0  0  0  0  0  0
  -24.1669  -19.5322   22.0035 N   0  0  0  0  0  0  0  0  0  0  0  0
  -22.3947  -19.3215   25.2931 N   0  3  0  0  0  0  0  0  0  0  0  0
  -18.7617  -23.2522   20.6783 N   0  3  0  0  0  0  0  0  0  0  0  0
  -22.7293  -14.8289   21.4424 O   0  0  0  0  0  0  0  0  0  0  0  0
  -25.9200  -27.7744   21.0661 O   0  0  0  0  0  0  0  0  0  0  0  0
  -21.8819  -28.2927   20.3472 O   0  0  0  0  0  0  0  0  0  0  0  0
  -21.0049  -24.0116   22.1975 O   0  0  0  0  0  0  0  0  0  0  0  0
  -32.2076  -13.7990   20.5403 O   0  0  0  0  0  0  0  0  0  0  0  0
  -22.1940  -21.7428   21.9252 O   0  0  0  0  0  0  0  0  0  0  0  0
  -21.4858   -7.1461   21.5585 O   0  0  0  0  0  0  0  0  0  0  0  0
  -27.3036  -21.7969   20.8657 O   0  0  0  0  0  0  0  0  0  1  0  0
  -30.1903  -16.7162   23.1415 O   0  0  0  0  0  0  0  0  0  0  0  0
  -16.3330   -7.1570   19.5958 F   0  0  0  0  0  0  0  0  0  0  0  0
  -20.6740   -5.2724   19.6949 F   0  0  0  0  0  0  0  0  0  0  0  0
  1  2  1  0  0  0  0
  1  5  2  0  0  0  0
  2  6  2  0  0  0  0
  3  9  2  0  0  0  0
  3 18  1  0  0  0  0
  4 10  1  0  0  0  0
  4 18  2  0  0  0  0
  5 20  1  0  0  0  0
  6 22  1  0  0  0  0
  7 11  2  0  0  0  0
  7 21  1  0  0  0  0
  8 12  2  0  0  0  0
  8 24  1  0  0  0  0
  9 26  1  0  0  0  0
 10 26  2  0  0  0  0
 11 27  1  0  0  0  0
 12 28  1  0  0  0  0
 13 14  2  0  0  0  0
 13 29  1  0  0  0  0
 14 30  1  0  0  0  0
 15 23  1  0  0  0  0
 15 27  2  0  0  0  0
 16 25  1  0  0  0  0
 16 28  2  0  0  0  0
 17 30  2  0  0  0  0
 17 31  1  0  0  0  0
 18 32  1  0  0  0  0
 19 32  1  0  0  0  0
 19 33  2  0  0  0  0
 19 34  1  0  0  0  0
 20 22  2  0  0  0  0
 20 39  1  0  0  0  0
 21 23  2  0  0  0  0
 21 40  1  0  0  0  0
 22 51  1  0  0  0  0
 23 41  1  0  0  0  0
 24 25  2  0  0  0  0
 24 62  1  0  0  0  0
 25 61  1  0  0  0  0
 26 87  1  0  0  0  0
 27 88  1  0  0  0  0
 28 89  1  0  0  0  0
 29 31  2  0  0  0  0
 29 87  1  0  0  0  0
 30 90  1  0  0  0  0
 31 91  1  0  0  0  0
 32 69  2  0  0  0  0
 33 70  1  0  0  0  0
 33 73  1  0  0  0  0
 34 74  1  0  0  0  0
 34 81  2  0  0  0  0
 35 52  1  0  0  0  0
 35 75  1  0  0  0  0
 35 82  2  0  0  0  0
 36 66  1  0  0  0  0
 36 71  1  0  0  0  0
 36 83  2  0  0  0  0
 37 67  1  0  0  0  0
 37 76  1  0  0  0  0
 37 84  2  0  0  0  0
 38 72  1  0  0  0  0
 38 77  1  0  0  0  0
 38 85  2  0  0  0  0
 39 42  1  0  0  0  0
 40 52  1  0  0  0  0
 41 71  1  0  0  0  0
 42 44  1  0  0  0  0
 43 45  1  0  0  0  0
 43 47  1  0  0  0  0
 44 51  1  0  0  0  0
 45 53  1  0  0  0  0
 46 49  1  0  0  0  0
 46 55  1  0  0  0  0
 47 72  1  0  0  0  0
 48 53  1  0  0  0  0
 48 72  1  0  0  0  0
 49 79  1  0  0  0  0
 50 54  1  0  0  0  0
 50 79  1  0  0  0  0
 51 75  1  0  0  0  0
 52 71  1  0  0  0  0
 53 70  1  0  0  0  0
 54 55  1  0  0  0  0
 54 78  1  0  0  0  0
 55 86  1  0  0  0  0
 56 67  1  0  0  0  0
 57 68  1  0  0  0  0
 58 68  1  0  0  0  0
 59 68  1  0  0  0  0
 60 80  1  0  0  0  0
 61 63  1  0  0  0  0
 62 88  1  0  0  0  0
 63 78  1  0  0  0  0
 64 65  1  0  0  0  0
 64 77  1  0  0  0  0
 65 89  1  0  0  0  0
 66 68  1  0  0  0  0
 66 76  1  0  0  0  0
 67 80  1  0  0  0  0
 69 70  1  0  0  0  0
M  CHG  2  79   1  80   1
M  ISO  4  38 100  62 101  77 100  88 101
M  END
> <Batch ID>
0126

> <Smiles>
CNC(C)C(=O)NC(C(=O)N1Cc2cc([101O:1][101CH2:1]c3ccc(OCC[100NH:0][100C:0](=O)N4CCCC(n5nc(-c6ccc(Oc7ccc(F)cc7F)cc6)c(C(N)=O)c5N)C4)cc3CCNC3CNCCC3O)ccc2CC1C(=O)NC1CCCc2ccccc21)C(C)(C)C

> <Shape>
0.257

> <Color>
0.153

> <Negative vol penalty>
0.000

$$$$

  -OEChem-04052320383D

 85 94  0     1  0  0  0  0  0999 V2000
  -29.7537  -12.5287   20.2017 C   0  0  0  0  0  0  0  0  0  0  0  0
  -29.5017  -13.3563   19.1134 C   0  0  0  0  0  0  0  0  0  0  0  0
  -29.0638  -24.4411   25.0695 C   0  0  0  0  0  0  0  0  0  0  0  0
  -26.7752  -24.3156   24.3056 C   0  0  0  0  0  0  0  0  0  0  0  0
  -28.7020  -11.8523   20.8163 C   0  0  0  0  0  0  0  0  0  0  0  0
  -28.1966  -13.5170   18.6467 C   0  0  0  0  0  0  0  0  0  0  0  0
  -22.0046  -18.9512   18.4382 C   0  0  0  0  0  0  0  0  0  0  0  0
  -28.9554  -23.1579   25.6054 C   0  0  0  0  0  0  0  0  0  0  0  0
  -26.6667  -23.0323   24.8414 C   0  0  0  0  0  0  0  0  0  0  0  0
  -21.6317  -20.2607   18.7418 C   0  0  0  0  0  0  0  0  0  0  0  0
  -26.1998  -21.6345   27.8843 C   0  0  0  0  0  0  0  0  0  0  0  0
  -25.0513  -21.3328   28.6161 C   0  0  0  0  0  0  0  0  0  0  0  0
  -21.5758  -24.7032   22.2198 C   0  0  0  0  0  0  0  0  0  0  0  0
  -23.5236  -20.4647   20.2342 C   0  0  0  0  0  0  0  0  0  0  0  0
  -24.5229  -19.5639   27.0577 C   0  0  0  0  0  0  0  0  0  0  0  0
  -22.3762  -25.3603   20.0992 C   0  0  0  0  0  0  0  0  0  0  0  0
  -27.9737  -25.0200   24.4196 C   0  0  0  0  0  0  0  0  0  0  0  0
  -28.9844  -26.7801   22.8742 C   0  0  0  0  0  0  0  0  0  0  0  0
  -27.3854  -11.9957   20.3485 C   0  0  0  0  0  0  0  0  0  0  0  0
  -23.1485  -18.3980   19.0203 C   0  0  0  0  0  0  0  0  0  0  0  0
  -27.1185  -12.8616   19.2685 C   0  0  0  0  0  0  0  0  0  0  0  0
  -21.0285  -25.9840   22.3989 C   0  0  0  0  0  0  0  0  0  0  0  0
  -23.9091  -19.1577   19.9243 C   0  0  0  0  0  0  0  0  0  0  0  0
  -22.2601  -24.3796   21.0584 C   0  0  0  0  0  0  0  0  0  0  0  0
  -27.7568  -22.4535   25.4914 C   0  0  0  0  0  0  0  0  0  0  0  0
  -22.3892  -21.0155   19.6378 C   0  0  0  0  0  0  0  0  0  0  0  0
  -26.5098  -20.9010   26.7391 C   0  0  0  0  0  0  0  0  0  0  0  0
  -24.2129  -20.2975   28.2029 C   0  0  0  0  0  0  0  0  0  0  0  0
  -25.6713  -19.8656   26.3258 C   0  0  0  0  0  0  0  0  0  0  0  0
  -28.0850  -26.3457   23.8663 C   0  0  0  0  0  0  0  0  0  0  0  0
  -21.2339  -26.9389   21.3889 C   0  0  0  0  0  0  0  0  0  0  0  0
  -28.6888  -28.1102   22.7015 C   0  0  0  0  0  0  0  0  0  0  0  0
  -29.9964  -26.0468   22.1716 C   0  0  0  0  0  0  0  0  0  0  0  0
  -25.4183  -15.4255   19.3179 C   0  0  0  0  0  0  0  0  0  0  0  0
  -27.2120  -17.9132   19.2507 C   0  0  0  0  0  0  0  0  0  0  0  0
  -28.8450  -20.8611   18.7210 C   0  0  0  0  0  0  0  0  0  0  0  0
  -23.7384  -31.3432   23.6463 C   0  0  0  0  0  0  0  0  0  0  0  0
  -26.2840  -11.2462   21.0559 C   0  0  0  0  0  0  0  0  0  0  0  0
  -23.5532  -16.9707   18.7696 C   0  0  0  0  0  0  0  0  0  0  0  0
  -25.1123  -18.5096   20.5529 C   0  0  0  0  0  0  0  0  0  0  0  0
  -20.2472  -26.2441   23.6605 C   0  0  0  0  0  0  0  0  0  0  0  0
  -25.0125  -11.1306   20.2214 C   0  0  0  0  0  0  0  0  0  0  0  0
  -26.9598  -31.8985   25.0574 C   0  0  0  0  0  0  0  0  0  0  0  0
  -24.6271  -12.4950   19.6697 C   0  0  0  0  0  0  0  0  0  0  0  0
  -27.6946  -30.5775   24.8227 C   0  0  0  0  0  0  0  0  0  0  0  0
  -25.4827  -31.6742   25.3738 C   0  0  0  0  0  0  0  0  0  0  0  0
  -25.4901  -29.5341   24.1515 C   0  0  0  0  0  0  0  0  0  0  0  0
  -19.3499  -28.6105   23.4571 C   0  0  0  0  0  0  0  0  0  0  0  0
  -25.7112  -13.0279   18.7243 C   0  0  1  0  0  0  0  0  0  0  0  0
  -25.0792  -16.7712   18.7471 C   0  0  1  0  0  0  0  0  0  0  0  0
  -26.9707  -29.7119   23.7739 C   0  0  2  0  0  0  0  0  0  0  0  0
  -20.6632  -28.9470   22.7569 C   0  0  2  0  0  0  0  0  0  0  0  0
  -31.1530  -21.8301   18.5439 C   0  0  0  0  0  0  0  0  0  0  0  0
  -27.5064  -17.7564   22.2826 C   0  0  0  0  0  0  0  0  0  0  0  0
  -29.2778  -19.5192   22.1307 C   0  0  0  0  0  0  0  0  0  0  0  0
  -29.6115  -17.3180   21.0056 C   0  0  0  0  0  0  0  0  0  0  0  0
  -28.3825  -21.7534   15.9373 C   0  0  0  0  0  0  0  0  0  0  0  0
  -22.8399  -23.0115   20.8505 C   0  0  0  0  0  0  0  0  0  1  0  0
  -20.7468  -30.4559   22.5164 C   0  0  0  0  0  0  0  0  0  0  0  0
  -22.0633  -30.8702   21.8773 C   0  0  0  0  0  0  0  0  0  0  0  0
  -27.9498  -18.9624   20.0432 C   0  0  1  0  0  0  0  0  0  0  0  0
  -29.9810  -21.2293   17.7837 C   0  0  2  0  0  0  0  0  0  0  0  0
  -28.5603  -18.3938   21.3552 C   0  0  0  0  0  0  0  0  0  0  0  0
  -21.8818  -26.6098   20.2371 N   0  0  0  0  0  0  0  0  0  0  0  0
  -27.2786  -27.3208   24.2939 N   0  0  0  0  0  0  0  0  0  0  0  0
  -27.6702  -28.3812   23.5671 N   0  0  0  0  0  0  0  0  0  0  0  0
  -20.7975  -28.2542   21.4846 N   0  0  0  0  0  0  0  0  0  0  0  0
  -25.8536  -17.7394   19.5421 N   0  0  0  0  0  0  0  0  0  0  0  0
  -24.8546  -30.8477   24.3402 N   0  0  0  0  0  0  0  0  0  0  0  0
  -29.2034  -29.0628   21.8951 N   0  0  0  0  0  0  0  0  0  0  0  0
  -29.6490  -25.4100   20.9724 N   0  0  0  0  0  0  0  0  0  0  0  0
  -25.4112  -14.4024   18.3890 N   0  0  0  0  0  0  0  0  0  0  0  0
  -28.9285  -19.5480   19.1335 N   0  0  0  0  0  0  0  0  0  0  0  0
  -23.2080  -30.4987   22.6788 N   0  0  0  0  0  0  0  0  0  0  0  0
  -19.0673  -27.1462   23.4729 N   0  3  0  0  0  0  0  0  0  0  0  0
  -29.5177  -22.2220   16.7733 N   0  3  0  0  0  0  0  0  0  0  0  0
  -31.1699  -25.9452   22.6031 O   0  0  0  0  0  0  0  0  0  0  0  0
  -25.6696  -15.3220   20.5128 O   0  0  0  0  0  0  0  0  0  0  0  0
  -27.8224  -17.2600   18.3997 O   0  0  0  0  0  0  0  0  0  0  0  0
  -27.9731  -21.6595   19.0568 O   0  0  0  0  0  0  0  0  0  0  0  0
  -23.2539  -32.4580   23.8686 O   0  0  0  0  0  0  0  0  0  0  0  0
  -27.6507  -21.2012   26.0140 O   0  0  0  0  0  0  0  0  0  0  0  0
  -22.0221  -22.2948   19.9263 O   0  0  0  0  0  0  0  0  0  1  0  0
  -23.1109  -20.0068   28.9066 F   0  0  0  0  0  0  0  0  0  0  0  0
  -25.9646  -19.1566   25.2271 F   0  0  0  0  0  0  0  0  0  0  0  0
  1  2  1  0  0  0  0
  1  5  2  0  0  0  0
  2  6  2  0  0  0  0
  3  8  2  0  0  0  0
  3 17  1  0  0  0  0
  4  9  1  0  0  0  0
  4 17  2  0  0  0  0
  5 19  1  0  0  0  0
  6 21  1  0  0  0  0
  7 10  2  0  0  0  0
  7 20  1  0  0  0  0
  8 25  1  0  0  0  0
  9 25  2  0  0  0  0
 10 26  1  0  0  0  0
 11 12  2  0  0  0  0
 11 27  1  0  0  0  0
 12 28  1  0  0  0  0
 13 22  1  0  0  0  0
 13 24  2  0  0  0  0
 14 23  1  0  0  0  0
 14 26  2  0  0  0  0
 15 28  2  0  0  0  0
 15 29  1  0  0  0  0
 16 24  1  0  0  0  0
 16 64  2  0  0  0  0
 17 30  1  0  0  0  0
 18 30  1  0  0  0  0
 18 32  2  0  0  0  0
 18 33  1  0  0  0  0
 19 21  2  0  0  0  0
 19 38  1  0  0  0  0
 20 23  2  0  0  0  0
 20 39  1  0  0  0  0
 21 49  1  0  0  0  0
 22 31  2  0  0  0  0
 22 41  1  0  0  0  0
 23 40  1  0  0  0  0
 24 58  1  0  0  0  0
 25 82  1  0  0  0  0
 26 83  1  0  0  0  0
 27 29  2  0  0  0  0
 27 82  1  0  0  0  0
 28 84  1  0  0  0  0
 29 85  1  0  0  0  0
 30 65  2  0  0  0  0
 31 64  1  0  0  0  0
 31 67  1  0  0  0  0
 32 66  1  0  0  0  0
 32 70  1  0  0  0  0
 33 71  1  0  0  0  0
 33 77  2  0  0  0  0
 34 50  1  0  0  0  0
 34 72  1  0  0  0  0
 34 78  2  0  0  0  0
 35 61  1  0  0  0  0
 35 68  1  0  0  0  0
 35 79  2  0  0  0  0
 36 62  1  0  0  0  0
 36 73  1  0  0  0  0
 36 80  2  0  0  0  0
 37 69  1  0  0  0  0
 37 74  1  0  0  0  0
 37 81  2  0  0  0  0
 38 42  1  0  0  0  0
 39 50  1  0  0  0  0
 40 68  1  0  0  0  0
 41 75  1  0  0  0  0
 42 44  1  0  0  0  0
 43 45  1  0  0  0  0
 43 46  1  0  0  0  0
 44 49  1  0  0  0  0
 45 51  1  0  0  0  0
 46 69  1  0  0  0  0
 47 51  1  0  0  0  0
 47 69  1  0  0  0  0
 48 52  1  0  0  0  0
 48 75  1  0  0  0  0
 49 72  1  0  0  0  0
 50 68  1  0  0  0  0
 51 66  1  0  0  0  0
 52 59  1  0  0  0  0
 52 67  1  0  0  0  0
 53 62  1  0  0  0  0
 54 63  1  0  0  0  0
 55 63  1  0  0  0  0
 56 63  1  0  0  0  0
 57 76  1  0  0  0  0
 58 83  1  0  0  0  0
 59 60  1  0  0  0  0
 60 74  1  0  0  0  0
 61 63  1  0  0  0  0
 61 73  1  0  0  0  0
 62 76  1  0  0  0  0
 65 66  1  0  0  0  0
M  CHG  2  75   1  76   1
M  ISO  4  37 100  58 101  74 100  83 101
M  END
> <Batch ID>
0126

> <Smiles>
CNC(C)C(=O)NC(C(=O)N1Cc2cc([101O:1][101CH2:1]c3cnc4c(c3)CNCC(CC[100NH:0][100C:0](=O)N3CCCC(n5nc(-c6ccc(Oc7ccc(F)cc7F)cc6)c(C(N)=O)c5N)C3)N4)ccc2CC1C(=O)NC1CCCc2ccccc21)C(C)(C)C

> <Shape>
0.209

> <Color>
0.057

> <Negative vol penalty>
0.000

$$$$

  -OEChem-04052320383D

 85 93  0     1  0  0  0  0  0999 V2000
  -23.6597  -21.9255   15.9630 C   0  0  0  0  0  0  0  0  0  0  0  0
  -23.0543  -23.1528   16.2133 C   0  0  0  0  0  0  0  0  0  0  0  0
  -28.2449  -14.7494   20.4200 C   0  0  0  0  0  0  0  0  0  0  0  0
  -26.0352  -15.4704   21.0794 C   0  0  0  0  0  0  0  0  0  0  0  0
  -24.5308  -21.3748   16.9020 C   0  0  0  0  0  0  0  0  0  0  0  0
  -23.3187  -23.8295   17.4035 C   0  0  0  0  0  0  0  0  0  0  0  0
  -23.9514  -30.4634   20.0317 C   0  0  0  0  0  0  0  0  0  0  0  0
  -27.7957  -13.4304   20.3570 C   0  0  0  0  0  0  0  0  0  0  0  0
  -25.5860  -14.1514   21.0163 C   0  0  0  0  0  0  0  0  0  0  0  0
  -23.4670  -31.2629   21.0661 C   0  0  0  0  0  0  0  0  0  0  0  0
  -25.7409  -11.3723   22.9356 C   0  0  0  0  0  0  0  0  0  0  0  0
  -24.9484  -10.9067   23.9848 C   0  0  0  0  0  0  0  0  0  0  0  0
  -25.0503  -30.2527   22.5801 C   0  0  0  0  0  0  0  0  0  0  0  0
  -23.1528  -10.4613   22.4309 C   0  0  0  0  0  0  0  0  0  0  0  0
  -27.3647  -15.7695   20.7813 C   0  0  0  0  0  0  0  0  0  0  0  0
  -28.3775  -17.8948   19.7991 C   0  0  0  0  0  0  0  0  0  0  0  0
  -24.8135  -22.0497   18.1000 C   0  0  0  0  0  0  0  0  0  0  0  0
  -24.9832  -29.5433   20.2666 C   0  0  0  0  0  0  0  0  0  0  0  0
  -24.1934  -23.2867   18.3601 C   0  0  0  0  0  0  0  0  0  0  0  0
  -25.5477  -29.4445   21.5463 C   0  0  0  0  0  0  0  0  0  0  0  0
  -26.4663  -13.1313   20.6551 C   0  0  0  0  0  0  0  0  0  0  0  0
  -24.0145  -31.1555   22.3412 C   0  0  0  0  0  0  0  0  0  0  0  0
  -25.2393  -11.3825   21.6341 C   0  0  0  0  0  0  0  0  0  0  0  0
  -23.6544  -10.4512   23.7325 C   0  0  0  0  0  0  0  0  0  0  0  0
  -23.9453  -10.9270   21.3817 C   0  0  0  0  0  0  0  0  0  0  0  0
  -27.8282  -17.1321   20.8472 C   0  0  0  0  0  0  0  0  0  0  0  0
  -28.6550  -19.1129   20.3698 C   0  0  0  0  0  0  0  0  0  0  0  0
  -28.6157  -17.5344   18.4320 C   0  0  0  0  0  0  0  0  0  0  0  0
  -25.2566  -26.3823   20.0746 C   0  0  0  0  0  0  0  0  0  0  0  0
  -28.3739  -27.0030   20.7220 C   0  0  0  0  0  0  0  0  0  0  0  0
  -22.8455  -31.0312   26.2717 C   0  0  0  0  0  0  0  0  0  0  0  0
  -30.6870  -29.1171   22.0736 C   0  0  0  0  0  0  0  0  0  0  0  0
  -26.2908  -21.9198   24.9945 C   0  0  0  0  0  0  0  0  0  0  0  0
  -25.7251  -21.3923   19.1058 C   0  0  0  0  0  0  0  0  0  0  0  0
  -25.5127  -28.7072   19.1339 C   0  0  0  0  0  0  0  0  0  0  0  0
  -26.6708  -28.4868   21.8459 C   0  0  0  0  0  0  0  0  0  0  0  0
  -26.2429  -22.3501   20.1758 C   0  0  0  0  0  0  0  0  0  0  0  0
  -29.7921  -21.1093   24.5685 C   0  0  0  0  0  0  0  0  0  0  0  0
  -25.1029  -23.1994   20.7288 C   0  0  0  0  0  0  0  0  0  0  0  0
  -29.7285  -20.0615   23.4558 C   0  0  0  0  0  0  0  0  0  0  0  0
  -28.6148  -20.9680   25.5288 C   0  0  0  0  0  0  0  0  0  0  0  0
  -23.3564  -28.1659   25.3077 C   0  0  0  0  0  0  0  0  0  0  0  0
  -23.8839  -27.7533   27.6312 C   0  0  0  0  0  0  0  0  0  0  0  0
  -27.2110  -19.9758   23.7629 C   0  0  0  0  0  0  0  0  0  0  0  0
  -24.4527  -27.2084   24.8523 C   0  0  0  0  0  0  0  0  0  0  0  0
  -24.9954  -26.7838   27.2433 C   0  0  0  0  0  0  0  0  0  0  0  0
  -24.4742  -24.0629   19.6284 C   0  0  1  0  0  0  0  0  0  0  0  0
  -26.2167  -27.4387   19.6058 C   0  0  1  0  0  0  0  0  0  0  0  0
  -28.3619  -20.0803   22.7458 C   0  0  2  0  0  0  0  0  0  0  0  0
  -33.1526  -29.3353   22.4866 C   0  0  0  0  0  0  0  0  0  0  0  0
  -28.1614  -25.0149   23.0268 C   0  0  0  0  0  0  0  0  0  0  0  0
  -30.2840  -25.9670   23.9520 C   0  0  0  0  0  0  0  0  0  0  0  0
  -30.2845  -24.8663   21.7135 C   0  0  0  0  0  0  0  0  0  0  0  0
  -30.8654  -31.5638   20.4181 C   0  0  0  0  0  0  0  0  0  0  0  0
  -22.6534  -29.7271   27.0029 C   0  0  0  0  0  0  0  0  0  0  0  0
  -25.5026  -23.8688   26.3125 C   0  0  0  0  0  0  0  0  0  0  0  0
  -21.6449  -32.5446   24.6962 C   0  0  0  0  0  0  0  0  0  0  0  0
  -25.6850  -25.1367   25.4994 C   0  0  0  0  0  0  0  0  0  0  0  0
  -22.1708  -32.3205   23.2898 C   0  0  0  0  0  0  0  0  0  1  0  0
  -29.1991  -27.1343   21.9793 C   0  0  1  0  0  0  0  0  0  0  0  0
  -32.0057  -29.6436   21.5367 C   0  0  2  0  0  0  0  0  0  0  0  0
  -29.4598  -25.7624   22.6630 C   0  0  0  0  0  0  0  0  0  0  0  0
  -27.7601  -17.8090   21.9966 N   0  0  0  0  0  0  0  0  0  0  0  0
  -28.2703  -19.0097   21.6742 N   0  0  0  0  0  0  0  0  0  0  0  0
  -27.1498  -27.6865   20.7068 N   0  0  0  0  0  0  0  0  0  0  0  0
  -27.3439  -21.0125   24.7920 N   0  0  0  0  0  0  0  0  0  0  0  0
  -23.6923  -28.7803   26.5989 N   0  0  0  0  0  0  0  0  0  0  0  0
  -29.1881  -20.2515   19.8781 N   0  0  0  0  0  0  0  0  0  0  0  0
  -27.6001  -17.7642   17.4938 N   0  0  0  0  0  0  0  0  0  0  0  0
  -25.3108  -25.2095   19.3459 N   0  0  0  0  0  0  0  0  0  0  0  0
  -21.7356  -31.3528   25.4974 N   0  0  0  0  0  0  0  0  0  0  0  0
  -30.4109  -27.8522   21.5991 N   0  0  0  0  0  0  0  0  0  0  0  0
  -26.4933  -22.8654   25.9923 N   0  0  0  0  0  0  0  0  0  0  0  0
  -24.6628  -26.1571   25.9127 N   0  3  0  0  0  0  0  0  0  0  0  0
  -31.9356  -31.1202   21.3480 N   0  3  0  0  0  0  0  0  0  0  0  0
  -29.6908  -17.0086   18.0565 O   0  0  0  0  0  0  0  0  0  0  0  0
  -24.5220  -26.6135   21.0278 O   0  0  0  0  0  0  0  0  0  0  0  0
  -28.8030  -26.3249   19.7851 O   0  0  0  0  0  0  0  0  0  0  0  0
  -23.8627  -31.7134   26.3626 O   0  0  0  0  0  0  0  0  0  0  0  0
  -29.9750  -29.7618   22.8404 O   0  0  0  0  0  0  0  0  0  0  0  0
  -25.2486  -21.8929   24.3310 O   0  0  0  0  0  0  0  0  0  0  0  0
  -26.0276  -11.8444   20.5934 O   0  0  0  0  0  0  0  0  0  0  0  0
  -23.5431  -31.9341   23.3528 O   0  0  0  0  0  0  0  0  0  1  0  0
  -22.8941  -10.0027   24.7399 F   0  0  0  0  0  0  0  0  0  0  0  0
  -23.4584  -10.9333   20.1333 F   0  0  0  0  0  0  0  0  0  0  0  0
  1  2  1  0  0  0  0
  1  5  2  0  0  0  0
  2  6  2  0  0  0  0
  3  8  2  0  0  0  0
  3 15  1  0  0  0  0
  4  9  1  0  0  0  0
  4 15  2  0  0  0  0
  5 17  1  0  0  0  0
  6 19  1  0  0  0  0
  7 10  2  0  0  0  0
  7 18  1  0  0  0  0
  8 21  1  0  0  0  0
  9 21  2  0  0  0  0
 10 22  1  0  0  0  0
 11 12  2  0  0  0  0
 11 23  1  0  0  0  0
 12 24  1  0  0  0  0
 13 20  1  0  0  0  0
 13 22  2  0  0  0  0
 14 24  2  0  0  0  0
 14 25  1  0  0  0  0
 15 26  1  0  0  0  0
 16 26  1  0  0  0  0
 16 27  2  0  0  0  0
 16 28  1  0  0  0  0
 17 19  2  0  0  0  0
 17 34  1  0  0  0  0
 18 20  2  0  0  0  0
 18 35  1  0  0  0  0
 19 47  1  0  0  0  0
 20 36  1  0  0  0  0
 21 82  1  0  0  0  0
 22 83  1  0  0  0  0
 23 25  2  0  0  0  0
 23 82  1  0  0  0  0
 24 84  1  0  0  0  0
 25 85  1  0  0  0  0
 26 63  2  0  0  0  0
 27 64  1  0  0  0  0
 27 68  1  0  0  0  0
 28 69  1  0  0  0  0
 28 76  2  0  0  0  0
 29 48  1  0  0  0  0
 29 70  1  0  0  0  0
 29 77  2  0  0  0  0
 30 60  1  0  0  0  0
 30 65  1  0  0  0  0
 30 78  2  0  0  0  0
 31 55  1  0  0  0  0
 31 71  1  0  0  0  0
 31 79  2  0  0  0  0
 32 61  1  0  0  0  0
 32 72  1  0  0  0  0
 32 80  2  0  0  0  0
 33 66  1  0  0  0  0
 33 73  1  0  0  0  0
 33 81  2  0  0  0  0
 34 37  1  0  0  0  0
 35 48  1  0  0  0  0
 36 65  1  0  0  0  0
 37 39  1  0  0  0  0
 38 40  1  0  0  0  0
 38 41  1  0  0  0  0
 39 47  1  0  0  0  0
 40 49  1  0  0  0  0
 41 66  1  0  0  0  0
 42 45  1  0  0  0  0
 42 67  1  0  0  0  0
 43 46  1  0  0  0  0
 43 67  1  0  0  0  0
 44 49  1  0  0  0  0
 44 66  1  0  0  0  0
 45 74  1  0  0  0  0
 46 74  1  0  0  0  0
 47 70  1  0  0  0  0
 48 65  1  0  0  0  0
 49 64  1  0  0  0  0
 50 61  1  0  0  0  0
 51 62  1  0  0  0  0
 52 62  1  0  0  0  0
 53 62  1  0  0  0  0
 54 75  1  0  0  0  0
 55 67  1  0  0  0  0
 56 58  1  0  0  0  0
 56 73  1  0  0  0  0
 57 59  1  0  0  0  0
 57 71  1  0  0  0  0
 58 74  1  0  0  0  0
 59 83  1  0  0  0  0
 60 62  1  0  0  0  0
 60 72  1  0  0  0  0
 61 75  1  0  0  0  0
 63 64  1  0  0  0  0
M  CHG  2  74   1  75   1
M  ISO  4  33 100  59 101  73 100  83 101
M  END
> <Batch ID>
0126

> <Smiles>
CNC(C)C(=O)NC(C(=O)N1Cc2cc([101O:1][101CH2:1]CNC(=O)CN3CCN(CC[100NH:0][100C:0](=O)N4CCCC(n5nc(-c6ccc(Oc7ccc(F)cc7F)cc6)c(C(N)=O)c5N)C4)CC3)ccc2CC1C(=O)NC1CCCc2ccccc21)C(C)(C)C

> <Shape>
0.177

> <Color>
0.093

> <Negative vol penalty>
0.000

$$$$

  -OEChem-04052320383D

 85 94  0     1  0  0  0  0  0999 V2000
  -26.6778  -33.1337   19.9150 C   0  0  0  0  0  0  0  0  0  0  0  0
  -27.6895  -32.2961   20.3736 C   0  0  0  0  0  0  0  0  0  0  0  0
  -23.1187   -9.7484   20.2316 C   0  0  0  0  0  0  0  0  0  0  0  0
  -23.7618  -10.1083   22.5325 C   0  0  0  0  0  0  0  0  0  0  0  0
  -25.3434  -32.7540   20.0541 C   0  0  0  0  0  0  0  0  0  0  0  0
  -27.3673  -31.0788   20.9726 C   0  0  0  0  0  0  0  0  0  0  0  0
  -30.5318  -25.8478   20.6141 C   0  0  0  0  0  0  0  0  0  0  0  0
  -22.3675   -8.6375   20.6153 C   0  0  0  0  0  0  0  0  0  0  0  0
  -23.0105   -8.9975   22.9162 C   0  0  0  0  0  0  0  0  0  0  0  0
  -31.4456  -25.2433   21.4763 C   0  0  0  0  0  0  0  0  0  0  0  0
  -19.7591   -8.2628   23.4719 C   0  0  0  0  0  0  0  0  0  0  0  0
  -18.9441   -8.3907   24.5966 C   0  0  0  0  0  0  0  0  0  0  0  0
  -29.6719  -23.8948   22.4009 C   0  0  0  0  0  0  0  0  0  0  0  0
  -31.9373  -16.9068   22.2361 C   0  0  0  0  0  0  0  0  0  0  0  0
  -29.7226  -17.8080   22.5826 C   0  0  0  0  0  0  0  0  0  0  0  0
  -20.1540   -6.6000   25.6768 C   0  0  0  0  0  0  0  0  0  0  0  0
  -23.8159  -10.4838   21.1902 C   0  0  0  0  0  0  0  0  0  0  0  0
  -24.1539  -12.9659   20.7083 C   0  0  0  0  0  0  0  0  0  0  0  0
  -25.0051  -31.5271   20.6464 C   0  0  0  0  0  0  0  0  0  0  0  0
  -29.1770  -25.4875   20.6464 C   0  0  0  0  0  0  0  0  0  0  0  0
  -26.0272  -30.6830   21.1210 C   0  0  0  0  0  0  0  0  0  0  0  0
  -28.7434  -24.4944   21.5363 C   0  0  0  0  0  0  0  0  0  0  0  0
  -32.4744  -17.9230   23.0263 C   0  0  0  0  0  0  0  0  0  0  0  0
  -30.2597  -18.8242   23.3728 C   0  0  0  0  0  0  0  0  0  0  0  0
  -31.6356  -18.8817   23.5946 C   0  0  0  0  0  0  0  0  0  0  0  0
  -30.5613  -16.8493   22.0142 C   0  0  0  0  0  0  0  0  0  0  0  0
  -22.3134   -8.2621   21.9576 C   0  0  0  0  0  0  0  0  0  0  0  0
  -31.0151  -24.2687   22.3719 C   0  0  0  0  0  0  0  0  0  0  0  0
  -20.7714   -7.3035   23.4496 C   0  0  0  0  0  0  0  0  0  0  0  0
  -19.1415   -7.5593   25.6991 C   0  0  0  0  0  0  0  0  0  0  0  0
  -20.9689   -6.4721   24.5520 C   0  0  0  0  0  0  0  0  0  0  0  0
  -24.5926  -11.6310   20.7943 C   0  0  0  0  0  0  0  0  0  0  0  0
  -25.2602  -13.6646   20.2907 C   0  0  0  0  0  0  0  0  0  0  0  0
  -22.8620  -13.5244   20.9815 C   0  0  0  0  0  0  0  0  0  0  0  0
  -26.4636  -27.0173   21.2796 C   0  0  0  0  0  0  0  0  0  0  0  0
  -25.1209  -24.2176   20.3407 C   0  0  0  0  0  0  0  0  0  0  0  0
  -25.4468  -20.8473   19.9148 C   0  0  0  0  0  0  0  0  0  0  0  0
  -30.7067  -14.7863   20.5756 C   0  0  0  0  0  0  0  0  0  0  0  0
  -23.5471  -31.1812   20.8176 C   0  0  0  0  0  0  0  0  0  0  0  0
  -28.2087  -26.1299   19.6912 C   0  0  0  0  0  0  0  0  0  0  0  0
  -27.3033  -24.0574   21.5964 C   0  0  0  0  0  0  0  0  0  0  0  0
  -23.3031  -29.7060   21.1251 C   0  0  0  0  0  0  0  0  0  0  0  0
  -29.7224  -12.0317   18.5457 C   0  0  0  0  0  0  0  0  0  0  0  0
  -24.2597  -29.2216   22.2101 C   0  0  0  0  0  0  0  0  0  0  0  0
  -28.2639  -11.7917   18.9427 C   0  0  0  0  0  0  0  0  0  0  0  0
  -34.1798  -22.9842   23.5679 C   0  0  0  0  0  0  0  0  0  0  0  0
  -30.5747  -12.4488   19.7429 C   0  0  0  0  0  0  0  0  0  0  0  0
  -28.5977  -13.3509   20.9035 C   0  0  0  0  0  0  0  0  0  0  0  0
  -33.8294  -21.9012   24.5683 C   0  0  0  0  0  0  0  0  0  0  0  0
  -32.6376  -21.5008   22.4662 C   0  0  0  0  0  0  0  0  0  0  0  0
  -25.7186  -29.3434   21.7539 C   0  0  1  0  0  0  0  0  0  0  0  0
  -26.7610  -26.0531   20.1662 C   0  0  1  0  0  0  0  0  0  0  0  0
  -27.6863  -12.9917   19.7186 C   0  0  2  0  0  0  0  0  0  0  0  0
  -32.9928  -22.9714   22.6202 C   0  0  1  0  0  0  0  0  0  1  0  0
  -33.9511  -17.9626   23.2479 C   0  0  0  0  0  0  0  0  0  0  0  0
  -29.3398  -19.8383   23.9698 C   0  0  0  0  0  0  0  0  0  0  0  0
  -24.1661  -18.8234   19.1659 C   0  0  0  0  0  0  0  0  0  0  0  0
  -23.5993  -24.2049   22.9855 C   0  0  0  0  0  0  0  0  0  0  0  0
  -23.1050  -21.7795   22.6093 C   0  0  0  0  0  0  0  0  0  0  0  0
  -22.2528  -23.4879   21.0038 C   0  0  0  0  0  0  0  0  0  0  0  0
  -27.3483  -20.3166   17.7098 C   0  0  0  0  0  0  0  0  0  0  0  0
  -32.2135  -19.9744   24.4450 C   0  0  0  0  0  0  0  0  0  0  0  0
  -24.7204  -22.9383   21.0348 C   0  0  1  0  0  0  0  0  0  0  0  0
  -25.1060  -19.9423   18.7446 C   0  0  2  0  0  0  0  0  0  0  0  0
  -23.4462  -23.1120   21.9088 C   0  0  0  0  0  0  0  0  0  0  0  0
  -25.8773  -11.4878   20.4582 N   0  0  0  0  0  0  0  0  0  0  0  0
  -26.2554  -12.7417   20.1568 N   0  0  0  0  0  0  0  0  0  0  0  0
  -26.3938  -24.7195   20.6468 N   0  0  0  0  0  0  0  0  0  0  0  0
  -29.9683  -13.5933   20.4264 N   0  0  0  0  0  0  0  0  0  0  0  0
  -25.4691  -14.9723   20.0285 N   0  0  0  0  0  0  0  0  0  0  0  0
  -21.8377  -12.6649   21.4015 N   0  0  0  0  0  0  0  0  0  0  0  0
  -30.0153  -15.8165   21.2124 N   0  0  0  0  0  0  0  0  0  0  0  0
  -26.0569  -28.2658   20.8491 N   0  0  0  0  0  0  0  0  0  0  0  0
  -24.5946  -21.9287   19.9892 N   0  0  0  0  0  0  0  0  0  0  0  0
  -33.1969  -20.8291   23.7120 N   0  3  2  0  0  0  0  0  0  0  0  0
  -26.3443  -19.3302   18.1853 N   0  3  0  0  0  0  0  0  0  0  0  0
  -22.6185  -14.7470   20.8412 O   0  0  0  0  0  0  0  0  0  0  0  0
  -26.5921  -26.6549   22.4432 O   0  0  0  0  0  0  0  0  0  0  0  0
  -24.3362  -24.7482   19.5505 O   0  0  0  0  0  0  0  0  0  0  0  0
  -26.3739  -20.6160   20.6878 O   0  0  0  0  0  0  0  0  0  0  0  0
  -31.8573  -14.8957   20.1443 O   0  0  0  0  0  0  0  0  0  0  0  0
  -21.5802   -7.1783   22.3325 O   0  0  0  0  0  0  0  0  0  0  0  0
  -31.9048  -23.6776   23.2150 O   0  0  0  0  0  0  0  0  0  1  0  0
  -18.3598   -7.6832   26.7797 F   0  0  0  0  0  0  0  0  0  0  0  0
  -21.9407   -5.5494   24.5369 F   0  0  0  0  0  0  0  0  0  0  0  0
  1  2  1  0  0  0  0
  1  5  2  0  0  0  0
  2  6  2  0  0  0  0
  3  8  2  0  0  0  0
  3 17  1  0  0  0  0
  4  9  1  0  0  0  0
  4 17  2  0  0  0  0
  5 19  1  0  0  0  0
  6 21  1  0  0  0  0
  7 10  2  0  0  0  0
  7 20  1  0  0  0  0
  8 27  1  0  0  0  0
  9 27  2  0  0  0  0
 10 28  1  0  0  0  0
 11 12  2  0  0  0  0
 11 29  1  0  0  0  0
 12 30  1  0  0  0  0
 13 22  1  0  0  0  0
 13 28  2  0  0  0  0
 14 23  2  0  0  0  0
 14 26  1  0  0  0  0
 15 24  1  0  0  0  0
 15 26  2  0  0  0  0
 16 30  2  0  0  0  0
 16 31  1  0  0  0  0
 17 32  1  0  0  0  0
 18 32  1  0  0  0  0
 18 33  2  0  0  0  0
 18 34  1  0  0  0  0
 19 21  2  0  0  0  0
 19 39  1  0  0  0  0
 20 22  2  0  0  0  0
 20 40  1  0  0  0  0
 21 51  1  0  0  0  0
 22 41  1  0  0  0  0
 23 25  1  0  0  0  0
 23 55  1  0  0  0  0
 24 25  2  0  0  0  0
 24 56  1  0  0  0  0
 25 62  1  0  0  0  0
 26 72  1  0  0  0  0
 27 82  1  0  0  0  0
 28 83  1  0  0  0  0
 29 31  2  0  0  0  0
 29 82  1  0  0  0  0
 30 84  1  0  0  0  0
 31 85  1  0  0  0  0
 32 66  2  0  0  0  0
 33 67  1  0  0  0  0
 33 70  1  0  0  0  0
 34 71  1  0  0  0  0
 34 77  2  0  0  0  0
 35 52  1  0  0  0  0
 35 73  1  0  0  0  0
 35 78  2  0  0  0  0
 36 63  1  0  0  0  0
 36 68  1  0  0  0  0
 36 79  2  0  0  0  0
 37 64  1  0  0  0  0
 37 74  1  0  0  0  0
 37 80  2  0  0  0  0
 38 69  1  0  0  0  0
 38 72  1  0  0  0  0
 38 81  2  0  0  0  0
 39 42  1  0  0  0  0
 40 52  1  0  0  0  0
 41 68  1  0  0  0  0
 42 44  1  0  0  0  0
 43 45  1  0  0  0  0
 43 47  1  0  0  0  0
 44 51  1  0  0  0  0
 45 53  1  0  0  0  0
 46 49  1  0  0  0  0
 46 54  1  0  0  0  0
 47 69  1  0  0  0  0
 48 53  1  0  0  0  0
 48 69  1  0  0  0  0
 49 75  1  0  0  0  0
 50 54  1  0  0  0  0
 50 75  1  0  0  0  0
 51 73  1  0  0  0  0
 52 68  1  0  0  0  0
 53 67  1  0  0  0  0
 54 83  1  0  0  0  0
 57 64  1  0  0  0  0
 58 65  1  0  0  0  0
 59 65  1  0  0  0  0
 60 65  1  0  0  0  0
 61 76  1  0  0  0  0
 62 75  1  0  0  0  0
 63 65  1  0  0  0  0
 63 74  1  0  0  0  0
 64 76  1  0  0  0  0
 66 67  1  0  0  0  0
M  CHG  2  75   1  76   1
M  ISO  4  38 100  54 101  72 100  83 101
M  END
> <Batch ID>
0126

> <Smiles>
CNC(C)C(=O)NC(C(=O)N1Cc2cc([101O:1][101CH:1]3CCN(Cc4c(C)cc([100NH:0][100C:0](=O)N5CCCC(n6nc(-c7ccc(Oc8ccc(F)cc8F)cc7)c(C(N)=O)c6N)C5)cc4C)C3)ccc2CC1C(=O)NC1CCCc2ccccc21)C(C)(C)C

> <Shape>
0.247

> <Color>
0.191

> <Negative vol penalty>
0.000

$$$$

  -OEChem-04052320383D

 84 92  0     1  0  0  0  0  0999 V2000
  -19.8248   -8.7324   19.9034 C   0  0  0  0  0  0  0  0  0  0  0  0
  -19.8237  -10.0629   20.3098 C   0  0  0  0  0  0  0  0  0  0  0  0
  -28.4764  -26.5118   19.0210 C   0  0  0  0  0  0  0  0  0  0  0  0
  -26.4980  -25.4848   19.9529 C   0  0  0  0  0  0  0  0  0  0  0  0
  -20.9790   -7.9629   20.0436 C   0  0  0  0  0  0  0  0  0  0  0  0
  -20.9765  -10.6245   20.8576 C   0  0  0  0  0  0  0  0  0  0  0  0
  -22.9211  -16.3966   20.2198 C   0  0  0  0  0  0  0  0  0  0  0  0
  -29.0207  -25.2494   18.7853 C   0  0  0  0  0  0  0  0  0  0  0  0
  -27.0423  -24.2224   19.7172 C   0  0  0  0  0  0  0  0  0  0  0  0
  -22.8154  -17.5182   21.0412 C   0  0  0  0  0  0  0  0  0  0  0  0
  -28.0622  -20.7340   19.6914 C   0  0  0  0  0  0  0  0  0  0  0  0
  -27.9660  -19.7860   20.7100 C   0  0  0  0  0  0  0  0  0  0  0  0
  -25.0131  -17.0680   21.9283 C   0  0  0  0  0  0  0  0  0  0  0  0
  -29.2260  -21.2343   22.1769 C   0  0  0  0  0  0  0  0  0  0  0  0
  -27.2150  -26.6296   19.6048 C   0  0  0  0  0  0  0  0  0  0  0  0
  -25.8482  -28.6894   18.9753 C   0  0  0  0  0  0  0  0  0  0  0  0
  -22.1495   -8.5180   20.5844 C   0  0  0  0  0  0  0  0  0  0  0  0
  -24.0710  -15.5948   20.2544 C   0  0  0  0  0  0  0  0  0  0  0  0
  -22.1470   -9.8613   21.0063 C   0  0  0  0  0  0  0  0  0  0  0  0
  -25.1319  -15.9383   21.1045 C   0  0  0  0  0  0  0  0  0  0  0  0
  -28.3037  -24.1046   19.1334 C   0  0  0  0  0  0  0  0  0  0  0  0
  -23.8603  -17.8524   21.8978 C   0  0  0  0  0  0  0  0  0  0  0  0
  -28.7404  -21.9321   19.9154 C   0  0  0  0  0  0  0  0  0  0  0  0
  -28.5479  -20.0361   21.9528 C   0  0  0  0  0  0  0  0  0  0  0  0
  -29.3223  -22.1823   21.1582 C   0  0  0  0  0  0  0  0  0  0  0  0
  -26.6524  -27.9334   19.8490 C   0  0  0  0  0  0  0  0  0  0  0  0
  -25.5760  -29.8424   19.6704 C   0  0  0  0  0  0  0  0  0  0  0  0
  -25.3881  -28.3774   17.6537 C   0  0  0  0  0  0  0  0  0  0  0  0
  -24.6691  -12.5616   20.9933 C   0  0  0  0  0  0  0  0  0  0  0  0
  -27.6493  -13.3015   19.9476 C   0  0  0  0  0  0  0  0  0  0  0  0
  -30.0021  -15.7040   19.3654 C   0  0  0  0  0  0  0  0  0  0  0  0
  -25.3983  -31.1351   25.5140 C   0  0  0  0  0  0  0  0  0  0  0  0
  -23.3585   -7.6336   20.7598 C   0  0  0  0  0  0  0  0  0  0  0  0
  -24.1804  -14.4035   19.3427 C   0  0  0  0  0  0  0  0  0  0  0  0
  -26.3961  -15.1218   21.1646 C   0  0  0  0  0  0  0  0  0  0  0  0
  -24.6504   -8.4094   21.0038 C   0  0  0  0  0  0  0  0  0  0  0  0
  -27.4104  -32.7085   23.0336 C   0  0  0  0  0  0  0  0  0  0  0  0
  -24.4311   -9.4951   22.0526 C   0  0  0  0  0  0  0  0  0  0  0  0
  -27.3717  -31.7314   21.8573 C   0  0  0  0  0  0  0  0  0  0  0  0
  -22.8866  -22.7735   25.9801 C   0  0  0  0  0  0  0  0  0  0  0  0
  -27.4300  -31.9775   24.3742 C   0  0  0  0  0  0  0  0  0  0  0  0
  -26.3048  -30.0206   23.3850 C   0  0  0  0  0  0  0  0  0  0  0  0
  -22.3026  -23.0353   23.6921 C   0  0  0  0  0  0  0  0  0  0  0  0
  -23.3853  -10.5133   21.5823 C   0  0  1  0  0  0  0  0  0  0  0  0
  -25.1851  -13.3657   19.8336 C   0  0  1  0  0  0  0  0  0  0  0  0
  -26.2275  -30.7117   22.0128 C   0  0  2  0  0  0  0  0  0  0  0  0
  -23.4434  -22.5828   24.5785 C   0  0  2  0  0  0  0  0  0  0  0  0
  -22.1168  -24.0843   25.8988 C   0  0  1  0  0  0  0  0  0  0  0  0
  -32.3547  -15.9992   18.5436 C   0  0  0  0  0  0  0  0  0  0  0  0
  -28.7083  -12.2520   22.6097 C   0  0  0  0  0  0  0  0  0  0  0  0
  -30.8698  -13.4213   22.1313 C   0  0  0  0  0  0  0  0  0  0  0  0
  -30.0737  -11.6064   20.6164 C   0  0  0  0  0  0  0  0  0  0  0  0
  -29.1243  -17.4112   17.1128 C   0  0  0  0  0  0  0  0  0  0  0  0
  -22.9678  -25.3089   26.2009 C   0  0  0  0  0  0  0  0  0  0  0  0
  -23.3446  -30.1849   26.5331 C   0  0  0  0  0  0  0  0  0  0  0  0
  -22.1416  -26.5860   26.1455 C   0  0  0  0  0  0  0  0  0  0  0  0
  -22.3381  -29.0700   26.3188 C   0  0  0  0  0  0  0  0  0  0  0  0
  -24.9719  -19.6206   23.0351 C   0  0  0  0  0  0  0  0  0  1  0  0
  -24.6762  -21.0918   23.2536 C   0  0  0  0  0  0  0  0  0  0  0  0
  -28.9025  -13.8469   20.5886 C   0  0  1  0  0  0  0  0  0  0  0  0
  -30.8831  -15.9801   18.1604 C   0  0  2  0  0  0  0  0  0  0  0  0
  -29.6141  -12.7961   21.4870 C   0  0  0  0  0  0  0  0  0  0  0  0
  -26.8768  -28.5539   21.0103 N   0  0  0  0  0  0  0  0  0  0  0  0
  -26.2095  -29.7121   20.8712 N   0  0  0  0  0  0  0  0  0  0  0  0
  -26.4527  -13.9629   20.2584 N   0  0  0  0  0  0  0  0  0  0  0  0
  -26.3187  -31.0268   24.4584 N   0  0  0  0  0  0  0  0  0  0  0  0
  -24.8592  -30.9449   19.3653 N   0  0  0  0  0  0  0  0  0  0  0  0
  -25.7604  -27.1498   17.0892 N   0  0  0  0  0  0  0  0  0  0  0  0
  -23.9670  -11.4299   20.6252 N   0  0  0  0  0  0  0  0  0  0  0  0
  -29.7279  -14.3595   19.5003 N   0  0  0  0  0  0  0  0  0  0  0  0
  -24.3719  -30.1985   25.5157 N   0  0  0  0  0  0  0  0  0  0  0  0
  -21.6567  -24.1489   24.4617 N   0  3  0  0  0  0  0  0  0  0  0  0
  -30.5374  -17.2982   17.5571 N   0  3  0  0  0  0  0  0  0  0  0  0
  -23.0225  -27.7505   26.4027 N   0  3  0  0  0  0  0  0  0  0  0  0
  -24.6819  -29.1709   16.9866 O   0  0  0  0  0  0  0  0  0  0  0  0
  -24.8929  -12.9393   22.1374 O   0  0  0  0  0  0  0  0  0  0  0  0
  -27.7300  -12.3290   19.1930 O   0  0  0  0  0  0  0  0  0  0  0  0
  -29.6006  -16.5919   20.1145 O   0  0  0  0  0  0  0  0  0  0  0  0
  -25.4819  -32.0055   26.3871 O   0  0  0  0  0  0  0  0  0  0  0  0
  -28.8344  -22.8726   18.9033 O   0  0  0  0  0  0  0  0  0  0  0  0
  -23.7595  -18.9462   22.7011 O   0  0  0  0  0  0  0  0  0  1  0  0
  -23.7601  -21.2262   24.3334 O   0  0  0  0  0  0  0  0  0  0  0  0
  -28.4540  -19.1264   22.9314 F   0  0  0  0  0  0  0  0  0  0  0  0
  -29.9741  -23.3320   21.3798 F   0  0  0  0  0  0  0  0  0  0  0  0
  1  2  1  0  0  0  0
  1  5  2  0  0  0  0
  2  6  2  0  0  0  0
  3  8  2  0  0  0  0
  3 15  1  0  0  0  0
  4  9  1  0  0  0  0
  4 15  2  0  0  0  0
  5 17  1  0  0  0  0
  6 19  1  0  0  0  0
  7 10  2  0  0  0  0
  7 18  1  0  0  0  0
  8 21  1  0  0  0  0
  9 21  2  0  0  0  0
 10 22  1  0  0  0  0
 11 12  2  0  0  0  0
 11 23  1  0  0  0  0
 12 24  1  0  0  0  0
 13 20  1  0  0  0  0
 13 22  2  0  0  0  0
 14 24  2  0  0  0  0
 14 25  1  0  0  0  0
 15 26  1  0  0  0  0
 16 26  1  0  0  0  0
 16 27  2  0  0  0  0
 16 28  1  0  0  0  0
 17 19  2  0  0  0  0
 17 33  1  0  0  0  0
 18 20  2  0  0  0  0
 18 34  1  0  0  0  0
 19 44  1  0  0  0  0
 20 35  1  0  0  0  0
 21 80  1  0  0  0  0
 22 81  1  0  0  0  0
 23 25  2  0  0  0  0
 23 80  1  0  0  0  0
 24 83  1  0  0  0  0
 25 84  1  0  0  0  0
 26 63  2  0  0  0  0
 27 64  1  0  0  0  0
 27 67  1  0  0  0  0
 28 68  1  0  0  0  0
 28 75  2  0  0  0  0
 29 45  1  0  0  0  0
 29 69  1  0  0  0  0
 29 76  2  0  0  0  0
 30 60  1  0  0  0  0
 30 65  1  0  0  0  0
 30 77  2  0  0  0  0
 31 61  1  0  0  0  0
 31 70  1  0  0  0  0
 31 78  2  0  0  0  0
 32 66  1  0  0  0  0
 32 71  1  0  0  0  0
 32 79  2  0  0  0  0
 33 36  1  0  0  0  0
 34 45  1  0  0  0  0
 35 65  1  0  0  0  0
 36 38  1  0  0  0  0
 37 39  1  0  0  0  0
 37 41  1  0  0  0  0
 38 44  1  0  0  0  0
 39 46  1  0  0  0  0
 40 47  1  0  0  0  0
 40 48  1  0  0  0  0
 41 66  1  0  0  0  0
 42 46  1  0  0  0  0
 42 66  1  0  0  0  0
 43 47  1  0  0  0  0
 43 72  1  0  0  0  0
 44 69  1  0  0  0  0
 45 65  1  0  0  0  0
 46 64  1  0  0  0  0
 47 82  1  0  0  0  0
 48 54  1  0  0  0  0
 48 72  1  0  0  0  0
 49 61  1  0  0  0  0
 50 62  1  0  0  0  0
 51 62  1  0  0  0  0
 52 62  1  0  0  0  0
 53 73  1  0  0  0  0
 54 56  1  0  0  0  0
 55 57  1  0  0  0  0
 55 71  1  0  0  0  0
 56 74  1  0  0  0  0
 57 74  1  0  0  0  0
 58 59  1  0  0  0  0
 58 81  1  0  0  0  0
 59 82  1  0  0  0  0
 60 62  1  0  0  0  0
 60 70  1  0  0  0  0
 61 73  1  0  0  0  0
 63 64  1  0  0  0  0
M  CHG  3  72   1  73   1  74   1
M  ISO  4  32 100  58 101  71 100  81 101
M  END
> <Batch ID>
0126

> <Smiles>
CNC(C)C(=O)NC(C(=O)N1Cc2cc([101O:1][101CH2:1]COC3CNC(CCNCC[100NH:0][100C:0](=O)N4CCCC(n5nc(-c6ccc(Oc7ccc(F)cc7F)cc6)c(C(N)=O)c5N)C4)C3)ccc2CC1C(=O)NC1CCCc2ccccc21)C(C)(C)C

> <Shape>
0.272

> <Color>
0.048

> <Negative vol penalty>
0.000

$$$$

  -OEChem-04052320383D

 89 98  0     1  0  0  0  0  0999 V2000
  -21.3812  -28.2149   26.8324 C   0  0  0  0  0  0  0  0  0  0  0  0
  -22.2512  -27.6039   25.9350 C   0  0  0  0  0  0  0  0  0  0  0  0
  -23.9659   -9.4037   20.9367 C   0  0  0  0  0  0  0  0  0  0  0  0
  -25.5187  -10.0013   22.6884 C   0  0  0  0  0  0  0  0  0  0  0  0
  -20.2585  -28.8938   26.3606 C   0  0  0  0  0  0  0  0  0  0  0  0
  -21.9983  -27.6706   24.5653 C   0  0  0  0  0  0  0  0  0  0  0  0
  -26.1469  -28.7639   21.8748 C   0  0  0  0  0  0  0  0  0  0  0  0
  -23.8735   -8.1135   21.4586 C   0  0  0  0  0  0  0  0  0  0  0  0
  -25.4264   -8.7111   23.2104 C   0  0  0  0  0  0  0  0  0  0  0  0
  -27.0515  -27.7272   21.6500 C   0  0  0  0  0  0  0  0  0  0  0  0
  -22.2853   -6.5672   24.0119 C   0  0  0  0  0  0  0  0  0  0  0  0
  -21.0144   -6.0044   24.1281 C   0  0  0  0  0  0  0  0  0  0  0  0
  -26.1448  -27.4242   19.4352 C   0  0  0  0  0  0  0  0  0  0  0  0
  -21.6769   -4.2047   22.6586 C   0  0  0  0  0  0  0  0  0  0  0  0
  -24.7885  -10.3476   21.5515 C   0  0  0  0  0  0  0  0  0  0  0  0
  -23.8393  -12.6089   20.8491 C   0  0  0  0  0  0  0  0  0  0  0  0
  -19.9969  -28.9770   24.9839 C   0  0  0  0  0  0  0  0  0  0  0  0
  -25.2255  -29.1319   20.8838 C   0  0  0  0  0  0  0  0  0  0  0  0
  -20.8703  -28.3500   24.0748 C   0  0  0  0  0  0  0  0  0  0  0  0
  -25.2312  -28.4676   19.6490 C   0  0  0  0  0  0  0  0  0  0  0  0
  -24.6037   -7.7672   22.5955 C   0  0  0  0  0  0  0  0  0  0  0  0
  -27.0487  -27.0552   20.4312 C   0  0  0  0  0  0  0  0  0  0  0  0
  -23.2521   -5.9488   23.2189 C   0  0  0  0  0  0  0  0  0  0  0  0
  -20.7102   -4.8231   23.4515 C   0  0  0  0  0  0  0  0  0  0  0  0
  -22.9479   -4.7675   22.5424 C   0  0  0  0  0  0  0  0  0  0  0  0
  -24.8848  -11.6804   21.0125 C   0  0  0  0  0  0  0  0  0  0  0  0
  -24.4440  -13.7141   20.3022 C   0  0  0  0  0  0  0  0  0  0  0  0
  -22.4461  -12.4834   21.1636 C   0  0  0  0  0  0  0  0  0  0  0  0
  -22.0542  -29.1674   20.6714 C   0  0  0  0  0  0  0  0  0  0  0  0
  -22.6494  -30.6328   17.8393 C   0  0  0  0  0  0  0  0  0  0  0  0
  -24.9819  -30.2471   15.1138 C   0  0  0  0  0  0  0  0  0  0  0  0
  -30.0642  -15.7747   20.4410 C   0  0  0  0  0  0  0  0  0  0  0  0
  -18.7452  -29.6815   24.5241 C   0  0  0  0  0  0  0  0  0  0  0  0
  -24.2740  -30.2701   21.1321 C   0  0  0  0  0  0  0  0  0  0  0  0
  -24.2759  -28.8378   18.5449 C   0  0  0  0  0  0  0  0  0  0  0  0
  -18.7510  -30.0251   23.0368 C   0  0  0  0  0  0  0  0  0  0  0  0
  -30.9314  -20.9984   25.7727 C   0  0  0  0  0  0  0  0  0  0  0  0
  -31.1497  -19.5128   26.0132 C   0  0  0  0  0  0  0  0  0  0  0  0
  -28.1466  -14.9789   17.5485 C   0  0  0  0  0  0  0  0  0  0  0  0
  -19.2104  -28.8259   22.2136 C   0  0  0  0  0  0  0  0  0  0  0  0
  -29.7259  -23.8401   19.6471 C   0  0  0  0  0  0  0  0  0  0  0  0
  -27.7707  -23.2798   21.1436 C   0  0  0  0  0  0  0  0  0  0  0  0
  -30.4363  -22.5650   20.0979 C   0  0  0  0  0  0  0  0  0  0  0  0
  -28.4811  -22.0047   21.5944 C   0  0  0  0  0  0  0  0  0  0  0  0
  -26.9989  -14.1270   18.0936 C   0  0  0  0  0  0  0  0  0  0  0  0
  -31.1839  -21.3360   24.3092 C   0  0  0  0  0  0  0  0  0  0  0  0
  -29.4531  -14.7069   18.2909 C   0  0  0  0  0  0  0  0  0  0  0  0
  -30.3270  -18.6740   25.0379 C   0  0  0  0  0  0  0  0  0  0  0  0
  -28.2238  -13.9886   20.3025 C   0  0  0  0  0  0  0  0  0  0  0  0
  -20.6434  -28.4214   22.5803 C   0  0  1  0  0  0  0  0  0  0  0  0
  -23.0367  -30.2197   20.2411 C   0  0  1  0  0  0  0  0  0  0  0  0
  -28.2009  -23.6996   19.7324 C   0  0  0  0  0  0  0  0  0  0  0  0
  -30.0062  -22.1453   21.5091 C   0  0  0  0  0  0  0  0  0  0  0  0
  -26.8726  -14.2684   19.6224 C   0  0  2  0  0  0  0  0  0  0  0  0
  -30.3570  -20.4436   23.3614 C   0  0  1  0  0  0  0  0  0  0  0  0
  -25.8638  -31.9267   13.4711 C   0  0  0  0  0  0  0  0  0  0  0  0
  -20.3694  -29.6590   16.0607 C   0  0  0  0  0  0  0  0  0  0  0  0
  -21.9094  -29.8582   14.0967 C   0  0  0  0  0  0  0  0  0  0  0  0
  -21.3128  -31.8855   15.4222 C   0  0  0  0  0  0  0  0  0  0  0  0
  -27.7906  -29.6236   15.8075 C   0  0  0  0  0  0  0  0  0  0  0  0
  -32.9638  -19.8285   22.1365 C   0  0  0  0  0  0  0  0  0  0  0  0
  -27.5154  -25.0024   19.3247 C   0  0  0  0  0  0  0  0  0  1  0  0
  -29.8707  -18.1200   22.7530 C   0  0  0  0  0  0  0  0  0  0  0  0
  -30.5530  -16.7628   22.6645 C   0  0  0  0  0  0  0  0  0  0  0  0
  -22.8750  -30.1669   16.4212 C   0  0  1  0  0  0  0  0  0  0  0  0
  -26.1327  -31.1735   14.7646 C   0  0  2  0  0  0  0  0  0  0  0  0
  -30.6917  -20.8425   21.9169 C   0  0  2  0  0  0  0  0  0  0  0  0
  -21.6236  -30.3762   15.5225 C   0  0  0  0  0  0  0  0  0  0  0  0
  -26.0642  -12.1545   20.6024 N   0  0  0  0  0  0  0  0  0  0  0  0
  -25.7635  -13.3929   20.1758 N   0  0  0  0  0  0  0  0  0  0  0  0
  -23.3608  -29.9532   18.8382 N   0  0  0  0  0  0  0  0  0  0  0  0
  -29.2656  -14.8593   19.7357 N   0  0  0  0  0  0  0  0  0  0  0  0
  -30.6268  -19.0133   23.6356 N   0  0  2  0  0  0  0  0  0  0  0  0
  -23.9705  -14.9197   19.9217 N   0  0  0  0  0  0  0  0  0  0  0  0
  -22.0122  -12.8664   22.4401 N   0  0  0  0  0  0  0  0  0  0  0  0
  -21.5956  -29.3215   21.9657 N   0  0  0  0  0  0  0  0  0  0  0  0
  -24.0710  -30.8570   15.9502 N   0  0  0  0  0  0  0  0  0  0  0  0
  -29.8173  -15.8618   21.8056 N   0  0  0  0  0  0  0  0  0  0  0  0
  -27.3931  -30.3952   14.6019 N   0  3  0  0  0  0  0  0  0  0  0  0
  -32.1609  -21.0350   21.8025 N   0  3  0  0  0  0  0  0  0  0  0  0
  -21.6133  -12.0294   20.3427 O   0  0  0  0  0  0  0  0  0  0  0  0
  -21.7346  -28.2821   19.8866 O   0  0  0  0  0  0  0  0  0  0  0  0
  -21.8761  -31.5700   18.0521 O   0  0  0  0  0  0  0  0  0  0  0  0
  -24.8974  -29.0986   14.6844 O   0  0  0  0  0  0  0  0  0  0  0  0
  -30.9292  -16.4673   19.8941 O   0  0  0  0  0  0  0  0  0  0  0  0
  -24.5137   -6.5084   23.1052 O   0  0  0  0  0  0  0  0  0  0  0  0
  -27.9302  -26.0425   20.2094 O   0  0  0  0  0  0  0  0  0  1  0  0
  -19.4901   -4.2819   23.5645 F   0  0  0  0  0  0  0  0  0  0  0  0
  -23.8729   -4.1682   21.7801 F   0  0  0  0  0  0  0  0  0  0  0  0
  1  2  1  0  0  0  0
  1  5  2  0  0  0  0
  2  6  2  0  0  0  0
  3  8  2  0  0  0  0
  3 15  1  0  0  0  0
  4  9  1  0  0  0  0
  4 15  2  0  0  0  0
  5 17  1  0  0  0  0
  6 19  1  0  0  0  0
  7 10  2  0  0  0  0
  7 18  1  0  0  0  0
  8 21  1  0  0  0  0
  9 21  2  0  0  0  0
 10 22  1  0  0  0  0
 11 12  2  0  0  0  0
 11 23  1  0  0  0  0
 12 24  1  0  0  0  0
 13 20  1  0  0  0  0
 13 22  2  0  0  0  0
 14 24  2  0  0  0  0
 14 25  1  0  0  0  0
 15 26  1  0  0  0  0
 16 26  1  0  0  0  0
 16 27  2  0  0  0  0
 16 28  1  0  0  0  0
 17 19  2  0  0  0  0
 17 33  1  0  0  0  0
 18 20  2  0  0  0  0
 18 34  1  0  0  0  0
 19 50  1  0  0  0  0
 20 35  1  0  0  0  0
 21 86  1  0  0  0  0
 22 87  1  0  0  0  0
 23 25  2  0  0  0  0
 23 86  1  0  0  0  0
 24 88  1  0  0  0  0
 25 89  1  0  0  0  0
 26 69  2  0  0  0  0
 27 70  1  0  0  0  0
 27 74  1  0  0  0  0
 28 75  1  0  0  0  0
 28 81  2  0  0  0  0
 29 51  1  0  0  0  0
 29 76  1  0  0  0  0
 29 82  2  0  0  0  0
 30 65  1  0  0  0  0
 30 71  1  0  0  0  0
 30 83  2  0  0  0  0
 31 66  1  0  0  0  0
 31 77  1  0  0  0  0
 31 84  2  0  0  0  0
 32 72  1  0  0  0  0
 32 78  1  0  0  0  0
 32 85  2  0  0  0  0
 33 36  1  0  0  0  0
 34 51  1  0  0  0  0
 35 71  1  0  0  0  0
 36 40  1  0  0  0  0
 37 38  1  0  0  0  0
 37 46  1  0  0  0  0
 38 48  1  0  0  0  0
 39 45  1  0  0  0  0
 39 47  1  0  0  0  0
 40 50  1  0  0  0  0
 41 43  1  0  0  0  0
 41 52  1  0  0  0  0
 42 44  1  0  0  0  0
 42 52  1  0  0  0  0
 43 53  1  0  0  0  0
 44 53  1  0  0  0  0
 45 54  1  0  0  0  0
 46 55  1  0  0  0  0
 47 72  1  0  0  0  0
 48 73  1  0  0  0  0
 49 54  1  0  0  0  0
 49 72  1  0  0  0  0
 50 76  1  0  0  0  0
 51 71  1  0  0  0  0
 52 62  1  0  0  0  0
 53 67  1  0  0  0  0
 54 70  1  0  0  0  0
 55 67  1  0  0  0  0
 55 73  1  0  0  0  0
 56 66  1  0  0  0  0
 57 68  1  0  0  0  0
 58 68  1  0  0  0  0
 59 68  1  0  0  0  0
 60 79  1  0  0  0  0
 61 80  1  0  0  0  0
 62 87  1  0  0  0  0
 63 64  1  0  0  0  0
 63 73  1  0  0  0  0
 64 78  1  0  0  0  0
 65 68  1  0  0  0  0
 65 77  1  0  0  0  0
 66 79  1  0  0  0  0
 67 80  1  0  0  0  0
 69 70  1  0  0  0  0
M  CHG  2  79   1  80   1
M  ISO  4  32 100  62 101  78 100  87 101
M  END
> <Batch ID>
0126

> <Smiles>
CNC(C)C(=O)NC(C(=O)N1Cc2cc([101O:1][101CH2:1]C3CCC(C(NC)C4CCCCN4CC[100NH:0][100C:0](=O)N4CCCC(n5nc(-c6ccc(Oc7ccc(F)cc7F)cc6)c(C(N)=O)c5N)C4)CC3)ccc2CC1C(=O)NC1CCCc2ccccc21)C(C)(C)C

> <Shape>
0.267

> <Color>
0.116

> <Negative vol penalty>
0.000

$$$$

  -OEChem-04052320383D

 90 99  0     1  0  0  0  0  0999 V2000
  -28.9371  -11.7486   18.1075 C   0  0  0  0  0  0  0  0  0  0  0  0
  -28.4157  -11.2830   19.3093 C   0  0  0  0  0  0  0  0  0  0  0  0
  -29.0783  -23.3226   22.0301 C   0  0  0  0  0  0  0  0  0  0  0  0
  -28.9565  -23.9602   19.7029 C   0  0  0  0  0  0  0  0  0  0  0  0
  -29.6980  -12.9156   18.0879 C   0  0  0  0  0  0  0  0  0  0  0  0
  -28.6449  -11.9906   20.4898 C   0  0  0  0  0  0  0  0  0  0  0  0
  -26.2101  -18.2798   24.2011 C   0  0  0  0  0  0  0  0  0  0  0  0
  -23.2971  -23.7580   22.6322 C   0  0  0  0  0  0  0  0  0  0  0  0
  -22.7311  -24.8678   22.0049 C   0  0  0  0  0  0  0  0  0  0  0  0
  -29.2472  -21.9895   21.6560 C   0  0  0  0  0  0  0  0  0  0  0  0
  -29.1255  -22.6271   19.3288 C   0  0  0  0  0  0  0  0  0  0  0  0
  -25.7664  -19.4907   23.6713 C   0  0  0  0  0  0  0  0  0  0  0  0
  -27.2277  -19.8363   19.1276 C   0  0  0  0  0  0  0  0  0  0  0  0
  -26.3952  -19.3333   18.1279 C   0  0  0  0  0  0  0  0  0  0  0  0
  -24.4971  -18.2907   22.0075 C   0  0  0  0  0  0  0  0  0  0  0  0
  -24.8009  -23.4687   20.7636 C   0  0  0  0  0  0  0  0  0  0  0  0
  -28.3287  -18.8414   16.7653 C   0  0  0  0  0  0  0  0  0  0  0  0
  -28.9329  -24.3080   21.0535 C   0  0  0  0  0  0  0  0  0  0  0  0
  -29.6459  -26.4766   22.1920 C   0  0  0  0  0  0  0  0  0  0  0  0
  -29.9466  -13.6305   19.2711 C   0  0  0  0  0  0  0  0  0  0  0  0
  -25.8087  -17.0635   23.6304 C   0  0  0  0  0  0  0  0  0  0  0  0
  -29.3902  -13.1835   20.4869 C   0  0  0  0  0  0  0  0  0  0  0  0
  -24.9351  -17.0657   22.5336 C   0  0  0  0  0  0  0  0  0  0  0  0
  -24.3320  -23.0584   22.0116 C   0  0  0  0  0  0  0  0  0  0  0  0
  -24.2349  -24.5785   20.1362 C   0  0  0  0  0  0  0  0  0  0  0  0
  -23.2000  -25.2781   20.7569 C   0  0  0  0  0  0  0  0  0  0  0  0
  -29.2708  -21.6418   20.3054 C   0  0  0  0  0  0  0  0  0  0  0  0
  -24.9121  -19.4963   22.5726 C   0  0  0  0  0  0  0  0  0  0  0  0
  -28.6107  -19.8420   18.9462 C   0  0  0  0  0  0  0  0  0  0  0  0
  -26.9457  -18.8358   16.9468 C   0  0  0  0  0  0  0  0  0  0  0  0
  -29.1612  -19.3445   17.7651 C   0  0  0  0  0  0  0  0  0  0  0  0
  -28.7578  -25.6851   21.4393 C   0  0  0  0  0  0  0  0  0  0  0  0
  -29.0242  -27.6979   22.2835 C   0  0  0  0  0  0  0  0  0  0  0  0
  -30.9191  -26.1382   22.7577 C   0  0  0  0  0  0  0  0  0  0  0  0
  -27.3120  -14.6399   22.2268 C   0  0  0  0  0  0  0  0  0  0  0  0
  -24.3611  -13.2935   22.2704 C   0  0  0  0  0  0  0  0  0  0  0  0
  -20.9786  -13.7306   22.3884 C   0  0  0  0  0  0  0  0  0  0  0  0
  -23.2905  -29.1580   21.8607 C   0  0  0  0  0  0  0  0  0  0  0  0
  -30.7702  -14.8917   19.1912 C   0  0  0  0  0  0  0  0  0  0  0  0
  -26.2749  -15.7653   24.2302 C   0  0  0  0  0  0  0  0  0  0  0  0
  -24.4585  -15.7867   21.8968 C   0  0  0  0  0  0  0  0  0  0  0  0
  -31.3276  -15.3243   20.5434 C   0  0  0  0  0  0  0  0  0  0  0  0
  -26.0131  -30.4194   19.8795 C   0  0  0  0  0  0  0  0  0  0  0  0
  -30.2186  -15.3309   21.5848 C   0  0  0  0  0  0  0  0  0  0  0  0
  -20.2643  -31.2608   19.6920 C   0  0  0  0  0  0  0  0  0  0  0  0
  -27.1285  -29.4096   20.1506 C   0  0  0  0  0  0  0  0  0  0  0  0
  -21.3708  -30.4699   19.0036 C   0  0  0  0  0  0  0  0  0  0  0  0
  -24.6534  -29.7312   19.8297 C   0  0  0  0  0  0  0  0  0  0  0  0
  -25.4326  -27.9367   21.3422 C   0  0  0  0  0  0  0  0  0  0  0  0
  -29.6521  -13.9200   21.7882 C   0  0  1  0  0  0  0  0  0  0  0  0
  -26.2127  -14.5978   23.2502 C   0  0  1  0  0  0  0  0  0  0  0  0
  -20.6976  -31.6729   21.1025 C   0  0  2  0  0  0  0  0  0  0  0  0
  -26.8309  -28.5829   21.4144 C   0  0  1  0  0  0  0  0  0  0  0  0
  -21.8327  -29.2552   19.8158 C   0  0  2  0  0  0  0  0  0  0  0  0
  -21.1261  -30.4549   21.9508 C   0  0  1  0  0  0  0  0  0  0  0  0
  -24.7565  -24.9960   18.7998 C   0  0  0  0  0  0  0  0  0  0  0  0
  -19.6109  -32.5158   21.7720 C   0  0  0  0  0  0  0  0  0  0  0  0
  -19.9610  -29.6068   22.4810 C   0  0  0  0  0  0  0  0  0  0  0  0
  -18.8242  -12.4439   22.3706 C   0  0  0  0  0  0  0  0  0  0  0  0
  -20.7162  -27.6873   18.1971 C   0  0  0  0  0  0  0  0  0  0  0  0
  -24.6639  -12.8328   19.2694 C   0  0  0  0  0  0  0  0  0  0  0  0
  -22.1933  -12.4452   19.1502 C   0  0  0  0  0  0  0  0  0  0  0  0
  -23.6273  -10.9297   20.5176 C   0  0  0  0  0  0  0  0  0  0  0  0
  -20.2136  -14.7489   25.0599 C   0  0  0  0  0  0  0  0  0  0  0  0
  -24.9369  -21.8719   22.6827 C   0  0  0  0  0  0  0  0  0  1  0  0
  -21.2953  -26.8741   20.5326 C   0  0  0  0  0  0  0  0  0  0  0  0
  -23.1780  -13.2804   21.3329 C   0  0  1  0  0  0  0  0  0  0  0  0
  -19.9065  -13.0701   23.2362 C   0  0  2  0  0  0  0  0  0  0  0  0
  -20.8755  -28.0685   19.6688 C   0  0  1  0  0  0  0  0  0  0  0  0
  -23.4260  -12.3963   20.0781 C   0  0  0  0  0  0  0  0  0  0  0  0
  -27.6557  -26.3478   21.0785 N   0  0  0  0  0  0  0  0  0  0  0  0
  -27.8471  -27.5686   21.6067 N   0  0  0  0  0  0  0  0  0  0  0  0
  -24.9472  -14.5434   22.5155 N   0  0  0  0  0  0  0  0  0  0  0  0
  -24.4119  -28.9522   21.0431 N   0  0  0  0  0  0  0  0  0  0  0  0
  -22.1140  -29.6095   21.2221 N   0  0  0  0  0  0  0  0  0  0  0  0
  -29.3750  -28.8590   22.8761 N   0  0  0  0  0  0  0  0  0  0  0  0
  -32.0696  -26.3420   21.9837 N   0  0  0  0  0  0  0  0  0  0  0  0
  -22.6342  -26.3670   20.1571 N   0  0  0  0  0  0  0  0  0  0  0  0
  -28.4720  -14.0005   22.6205 N   0  0  0  0  0  0  0  0  0  0  0  0
  -22.0278  -12.8733   22.1327 N   0  0  0  0  0  0  0  0  0  0  0  0
  -19.2677  -14.0715   24.1361 N   0  3  0  0  0  0  0  0  0  0  0  0
  -31.0318  -25.6536   23.9092 O   0  0  0  0  0  0  0  0  0  0  0  0
  -27.1213  -15.2090   21.1584 O   0  0  0  0  0  0  0  0  0  0  0  0
  -24.7465  -12.2347   22.7726 O   0  0  0  0  0  0  0  0  0  0  0  0
  -20.8920  -14.8899   21.9895 O   0  0  0  0  0  0  0  0  0  0  0  0
  -23.3326  -28.9443   23.0785 O   0  0  0  0  0  0  0  0  0  0  0  0
  -29.4359  -20.3411   19.9400 O   0  0  0  0  0  0  0  0  0  0  0  0
  -24.4750  -20.6849   22.0495 O   0  0  0  0  0  0  0  0  0  1  0  0
  -26.1462  -18.3513   15.9875 F   0  0  0  0  0  0  0  0  0  0  0  0
  -30.4892  -19.3463   17.5855 F   0  0  0  0  0  0  0  0  0  0  0  0
  1  2  1  0  0  0  0
  1  5  2  0  0  0  0
  2  6  2  0  0  0  0
  3 10  2  0  0  0  0
  3 18  1  0  0  0  0
  4 11  1  0  0  0  0
  4 18  2  0  0  0  0
  5 20  1  0  0  0  0
  6 22  1  0  0  0  0
  7 12  2  0  0  0  0
  7 21  1  0  0  0  0
  8  9  2  0  0  0  0
  8 24  1  0  0  0  0
  9 26  1  0  0  0  0
 10 27  1  0  0  0  0
 11 27  2  0  0  0  0
 12 28  1  0  0  0  0
 13 14  2  0  0  0  0
 13 29  1  0  0  0  0
 14 30  1  0  0  0  0
 15 23  1  0  0  0  0
 15 28  2  0  0  0  0
 16 24  2  0  0  0  0
 16 25  1  0  0  0  0
 17 30  2  0  0  0  0
 17 31  1  0  0  0  0
 18 32  1  0  0  0  0
 19 32  1  0  0  0  0
 19 33  2  0  0  0  0
 19 34  1  0  0  0  0
 20 22  2  0  0  0  0
 20 39  1  0  0  0  0
 21 23  2  0  0  0  0
 21 40  1  0  0  0  0
 22 50  1  0  0  0  0
 23 41  1  0  0  0  0
 24 65  1  0  0  0  0
 25 26  2  0  0  0  0
 25 56  1  0  0  0  0
 26 78  1  0  0  0  0
 27 87  1  0  0  0  0
 28 88  1  0  0  0  0
 29 31  2  0  0  0  0
 29 87  1  0  0  0  0
 30 89  1  0  0  0  0
 31 90  1  0  0  0  0
 32 71  2  0  0  0  0
 33 72  1  0  0  0  0
 33 76  1  0  0  0  0
 34 77  1  0  0  0  0
 34 82  2  0  0  0  0
 35 51  1  0  0  0  0
 35 79  1  0  0  0  0
 35 83  2  0  0  0  0
 36 67  1  0  0  0  0
 36 73  1  0  0  0  0
 36 84  2  0  0  0  0
 37 68  1  0  0  0  0
 37 80  1  0  0  0  0
 37 85  2  0  0  0  0
 38 74  1  0  0  0  0
 38 75  1  0  0  0  0
 38 86  2  0  0  0  0
 39 42  1  0  0  0  0
 40 51  1  0  0  0  0
 41 73  1  0  0  0  0
 42 44  1  0  0  0  0
 43 46  1  0  0  0  0
 43 48  1  0  0  0  0
 44 50  1  0  0  0  0
 45 47  1  0  0  0  0
 45 52  1  0  0  0  0
 46 53  1  0  0  0  0
 47 54  1  0  0  0  0
 48 74  1  0  0  0  0
 49 53  1  0  0  0  0
 49 74  1  0  0  0  0
 50 79  1  0  0  0  0
 51 73  1  0  0  0  0
 52 55  1  0  0  0  0
 52 57  1  0  0  0  0
 53 72  1  0  0  0  0
 54 69  1  0  0  0  0
 54 75  1  0  0  0  0
 55 58  1  0  0  0  0
 55 75  1  0  0  0  0
 59 68  1  0  0  0  0
 60 69  1  0  0  0  0
 61 70  1  0  0  0  0
 62 70  1  0  0  0  0
 63 70  1  0  0  0  0
 64 81  1  0  0  0  0
 65 88  1  0  0  0  0
 66 69  1  0  0  0  0
 66 78  1  0  0  0  0
 67 70  1  0  0  0  0
 67 80  1  0  0  0  0
 68 81  1  0  0  0  0
 71 72  1  0  0  0  0
M  CHG  1  81   1
M  ISO  4  38 100  65 101  75 100  88 101
M  END
> <Batch ID>
0126

> <Smiles>
CNC(C)C(=O)NC(C(=O)N1Cc2cc([101O:1][101CH2:1]c3ccc(NCC(C)C4CCC(C)C(C)[100N:0]4[100C:0](=O)N4CCCC(n5nc(-c6ccc(Oc7ccc(F)cc7F)cc6)c(C(N)=O)c5N)C4)c(C)c3)ccc2CC1C(=O)NC1CCCc2ccccc21)C(C)(C)C

> <Shape>
0.221

> <Color>
0.084

> <Negative vol penalty>
0.000

$$$$

  -OEChem-04052320383D

 91100  0     1  0  0  0  0  0999 V2000
  -29.8353  -29.0454   26.5035 C   0  0  0  0  0  0  0  0  0  0  0  0
  -28.6764  -28.3953   26.0915 C   0  0  0  0  0  0  0  0  0  0  0  0
  -22.8128  -10.2514   20.2888 C   0  0  0  0  0  0  0  0  0  0  0  0
  -24.4819   -9.3692   21.7965 C   0  0  0  0  0  0  0  0  0  0  0  0
  -29.9181  -30.4351   26.4279 C   0  0  0  0  0  0  0  0  0  0  0  0
  -27.5991  -29.1348   25.6046 C   0  0  0  0  0  0  0  0  0  0  0  0
  -25.5980  -27.1217   21.4108 C   0  0  0  0  0  0  0  0  0  0  0  0
  -21.8248   -9.5333   20.9624 C   0  0  0  0  0  0  0  0  0  0  0  0
  -23.4938   -8.6512   22.4701 C   0  0  0  0  0  0  0  0  0  0  0  0
  -24.7596  -26.0194   21.5711 C   0  0  0  0  0  0  0  0  0  0  0  0
  -21.7450   -5.7933   22.0174 C   0  0  0  0  0  0  0  0  0  0  0  0
  -22.0152   -4.4628   22.3375 C   0  0  0  0  0  0  0  0  0  0  0  0
  -22.8358  -27.4585   21.3534 C   0  0  0  0  0  0  0  0  0  0  0  0
  -25.4197  -20.9675   20.1515 C   0  0  0  0  0  0  0  0  0  0  0  0
  -25.0339  -18.5936   20.1507 C   0  0  0  0  0  0  0  0  0  0  0  0
  -21.7356   -4.9702   24.6830 C   0  0  0  0  0  0  0  0  0  0  0  0
  -24.1414  -10.1693   20.7058 C   0  0  0  0  0  0  0  0  0  0  0  0
  -25.5183  -10.7984   18.6525 C   0  0  0  0  0  0  0  0  0  0  0  0
  -28.8449  -31.1913   25.9309 C   0  0  0  0  0  0  0  0  0  0  0  0
  -25.0607  -28.4045   21.2312 C   0  0  0  0  0  0  0  0  0  0  0  0
  -27.6671  -30.5360   25.5236 C   0  0  0  0  0  0  0  0  0  0  0  0
  -23.6696  -28.5751   21.1885 C   0  0  0  0  0  0  0  0  0  0  0  0
  -24.5817  -19.8855   19.9060 C   0  0  0  0  0  0  0  0  0  0  0  0
  -22.1653   -8.7333   22.0531 C   0  0  0  0  0  0  0  0  0  0  0  0
  -23.3783  -26.1881   21.5453 C   0  0  0  0  0  0  0  0  0  0  0  0
  -21.4702   -6.7123   23.0302 C   0  0  0  0  0  0  0  0  0  0  0  0
  -22.0105   -4.0513   23.6702 C   0  0  0  0  0  0  0  0  0  0  0  0
  -21.4654   -6.3007   24.3630 C   0  0  0  0  0  0  0  0  0  0  0  0
  -25.1626  -10.9103   20.0099 C   0  0  0  0  0  0  0  0  0  0  0  0
  -26.6906  -20.7063   20.6376 C   0  0  0  0  0  0  0  0  0  0  0  0
  -26.3221  -18.4387   20.6366 C   0  0  0  0  0  0  0  0  0  0  0  0
  -26.5328  -11.7094   18.4872 C   0  0  0  0  0  0  0  0  0  0  0  0
  -24.9798   -9.9471   17.6322 C   0  0  0  0  0  0  0  0  0  0  0  0
  -25.1873  -31.1365   22.8509 C   0  0  0  0  0  0  0  0  0  0  0  0
  -23.5911  -32.2876   20.2723 C   0  0  0  0  0  0  0  0  0  0  0  0
  -21.5638  -31.6559   17.6007 C   0  0  0  0  0  0  0  0  0  0  0  0
  -28.0217  -16.7287   21.3673 C   0  0  0  0  0  0  0  0  0  0  0  0
  -28.9632  -32.6947   25.9124 C   0  0  0  0  0  0  0  0  0  0  0  0
  -25.9787  -29.5794   21.0329 C   0  0  0  0  0  0  0  0  0  0  0  0
  -23.0427  -29.9283   20.9782 C   0  0  0  0  0  0  0  0  0  0  0  0
  -27.9178  -33.3772   25.0340 C   0  0  0  0  0  0  0  0  0  0  0  0
  -30.0700  -13.8541   20.9003 C   0  0  0  0  0  0  0  0  0  0  0  0
  -26.5330  -32.7968   25.3034 C   0  0  0  0  0  0  0  0  0  0  0  0
  -18.7914  -19.6104   19.2952 C   0  0  0  0  0  0  0  0  0  0  0  0
  -29.0772  -12.7643   20.4895 C   0  0  0  0  0  0  0  0  0  0  0  0
  -20.2253  -19.4583   19.8017 C   0  0  0  0  0  0  0  0  0  0  0  0
  -18.7122  -21.9637   20.2074 C   0  0  0  0  0  0  0  0  0  0  0  0
  -29.4761  -14.7981   21.9442 C   0  0  0  0  0  0  0  0  0  0  0  0
  -27.1907  -14.3026   21.1691 C   0  0  0  0  0  0  0  0  0  0  0  0
  -26.4865  -31.3016   24.9665 C   0  0  1  0  0  0  0  0  0  0  0  0
  -25.3221  -30.9144   21.3710 C   0  0  1  0  0  0  0  0  0  0  0  0
  -17.9936  -20.6087   20.1437 C   0  0  1  0  0  0  0  0  0  0  0  0
  -27.7211  -13.3659   20.0714 C   0  0  2  0  0  0  0  0  0  0  0  0
  -20.9502  -20.8103   19.8655 C   0  0  1  0  0  0  0  0  0  0  0  0
  -20.1469  -21.8060   20.7166 C   0  0  1  0  0  0  0  0  0  0  0  0
  -27.6176  -21.8434   20.9118 C   0  0  0  0  0  0  0  0  0  0  0  0
  -15.7689  -21.7134   20.4250 C   0  0  0  0  0  0  0  0  0  0  0  0
  -20.3980  -32.8034   15.6976 C   0  0  0  0  0  0  0  0  0  0  0  0
  -21.4874  -33.3547   22.2076 C   0  0  0  0  0  0  0  0  0  0  0  0
  -19.9355  -33.6260   20.2617 C   0  0  0  0  0  0  0  0  0  0  0  0
  -22.0718  -34.9117   20.3398 C   0  0  0  0  0  0  0  0  0  0  0  0
  -23.0572  -30.0845   15.5859 C   0  0  0  0  0  0  0  0  0  0  0  0
  -23.1942  -20.1111   19.3787 C   0  0  0  0  0  0  0  0  0  0  0  0
  -16.5782  -20.7738   19.5930 C   0  0  0  0  0  0  0  0  0  0  0  0
  -20.4046  -24.0470   21.7949 C   0  0  0  0  0  0  0  0  0  0  0  0
  -21.1524  -25.3593   21.6652 C   0  0  0  0  0  0  0  0  0  1  0  0
  -22.1376  -32.4249   19.8884 C   0  0  1  0  0  0  0  0  0  0  0  0
  -21.6561  -32.0754   16.1447 C   0  0  2  0  0  0  0  0  0  0  0  0
  -21.4196  -33.5540   20.6803 C   0  0  0  0  0  0  0  0  0  0  0  0
  -25.8919  -11.8205   20.6608 N   0  0  0  0  0  0  0  0  0  0  0  0
  -27.1651  -19.4654   20.8874 N   0  0  0  0  0  0  0  0  0  0  0  0
  -26.7162  -12.2888   19.7082 N   0  0  0  0  0  0  0  0  0  0  0  0
  -23.9822  -31.0470   20.7955 N   0  0  0  0  0  0  0  0  0  0  0  0
  -28.1949  -15.3327   21.4776 N   0  0  0  0  0  0  0  0  0  0  0  0
  -27.2771  -12.0633   17.4179 N   0  0  0  0  0  0  0  0  0  0  0  0
  -25.5548   -8.6828   17.4447 N   0  0  0  0  0  0  0  0  0  0  0  0
  -26.7736  -17.1182   20.8823 N   0  0  0  0  0  0  0  0  0  0  0  0
  -26.3872  -31.1087   23.5357 N   0  0  0  0  0  0  0  0  0  0  0  0
  -22.1127  -32.6017   18.4405 N   0  0  0  0  0  0  0  0  0  0  0  0
  -22.2932  -20.6005   20.4096 N   0  0  0  0  0  0  0  0  0  0  0  0
  -20.7977  -23.1468   20.6816 N   0  3  0  0  0  0  0  0  0  0  0  0
  -21.8433  -30.8815   15.2725 N   0  3  0  0  0  0  0  0  0  0  0  0
  -24.0279  -10.3037   16.8972 O   0  0  0  0  0  0  0  0  0  0  0  0
  -24.0770  -31.3211   23.3355 O   0  0  0  0  0  0  0  0  0  0  0  0
  -24.3531  -33.2435   20.1071 O   0  0  0  0  0  0  0  0  0  0  0  0
  -21.0522  -30.5969   17.9576 O   0  0  0  0  0  0  0  0  0  0  0  0
  -28.9242  -17.5193   21.6543 O   0  0  0  0  0  0  0  0  0  0  0  0
  -21.2014   -8.0326   22.7108 O   0  0  0  0  0  0  0  0  0  0  0  0
  -22.5576  -25.1140   21.7022 O   0  0  0  0  0  0  0  0  0  1  0  0
  -22.2684   -2.7732   23.9773 F   0  0  0  0  0  0  0  0  0  0  0  0
  -21.2009   -7.1787   25.3402 F   0  0  0  0  0  0  0  0  0  0  0  0
  1  2  1  0  0  0  0
  1  5  2  0  0  0  0
  2  6  2  0  0  0  0
  3  8  2  0  0  0  0
  3 17  1  0  0  0  0
  4  9  1  0  0  0  0
  4 17  2  0  0  0  0
  5 19  1  0  0  0  0
  6 21  1  0  0  0  0
  7 10  2  0  0  0  0
  7 20  1  0  0  0  0
  8 24  1  0  0  0  0
  9 24  2  0  0  0  0
 10 25  1  0  0  0  0
 11 12  2  0  0  0  0
 11 26  1  0  0  0  0
 12 27  1  0  0  0  0
 13 22  1  0  0  0  0
 13 25  2  0  0  0  0
 14 23  1  0  0  0  0
 14 30  2  0  0  0  0
 15 23  2  0  0  0  0
 15 31  1  0  0  0  0
 16 27  2  0  0  0  0
 16 28  1  0  0  0  0
 17 29  1  0  0  0  0
 18 29  1  0  0  0  0
 18 32  2  0  0  0  0
 18 33  1  0  0  0  0
 19 21  2  0  0  0  0
 19 38  1  0  0  0  0
 20 22  2  0  0  0  0
 20 39  1  0  0  0  0
 21 50  1  0  0  0  0
 22 40  1  0  0  0  0
 23 63  1  0  0  0  0
 24 88  1  0  0  0  0
 25 89  1  0  0  0  0
 26 28  2  0  0  0  0
 26 88  1  0  0  0  0
 27 90  1  0  0  0  0
 28 91  1  0  0  0  0
 29 70  2  0  0  0  0
 30 56  1  0  0  0  0
 30 71  1  0  0  0  0
 31 71  2  0  0  0  0
 31 77  1  0  0  0  0
 32 72  1  0  0  0  0
 32 75  1  0  0  0  0
 33 76  1  0  0  0  0
 33 83  2  0  0  0  0
 34 51  1  0  0  0  0
 34 78  1  0  0  0  0
 34 84  2  0  0  0  0
 35 67  1  0  0  0  0
 35 73  1  0  0  0  0
 35 85  2  0  0  0  0
 36 68  1  0  0  0  0
 36 79  1  0  0  0  0
 36 86  2  0  0  0  0
 37 74  1  0  0  0  0
 37 77  1  0  0  0  0
 37 87  2  0  0  0  0
 38 41  1  0  0  0  0
 39 51  1  0  0  0  0
 40 73  1  0  0  0  0
 41 43  1  0  0  0  0
 42 45  1  0  0  0  0
 42 48  1  0  0  0  0
 43 50  1  0  0  0  0
 44 46  1  0  0  0  0
 44 52  1  0  0  0  0
 45 53  1  0  0  0  0
 46 54  1  0  0  0  0
 47 52  1  0  0  0  0
 47 55  1  0  0  0  0
 48 74  1  0  0  0  0
 49 53  1  0  0  0  0
 49 74  1  0  0  0  0
 50 78  1  0  0  0  0
 51 73  1  0  0  0  0
 52 64  1  0  0  0  0
 53 72  1  0  0  0  0
 54 55  1  0  0  0  0
 54 80  1  0  0  0  0
 55 81  1  0  0  0  0
 57 64  1  0  0  0  0
 58 68  1  0  0  0  0
 59 69  1  0  0  0  0
 60 69  1  0  0  0  0
 61 69  1  0  0  0  0
 62 82  1  0  0  0  0
 63 80  1  0  0  0  0
 65 66  1  0  0  0  0
 65 81  1  0  0  0  0
 66 89  1  0  0  0  0
 67 69  1  0  0  0  0
 67 79  1  0  0  0  0
 68 82  1  0  0  0  0
 70 72  1  0  0  0  0
M  CHG  2  81   1  82   1
M  ISO  4  37 100  66 101  77 100  89 101
M  END
> <Batch ID>
0126

> <Smiles>
CCC1CCC(NCc2cc(C)nc([100NH:0][100C:0](=O)N3CCCC(n4nc(-c5ccc(Oc6ccc(F)cc6F)cc5)c(C(N)=O)c4N)C3)c2)C(NC[101CH2:1][101O:1]c2ccc3c(c2)CN(C(=O)C(NC(=O)C(C)NC)C(C)(C)C)C(C(=O)NC2CCCc4ccccc42)C3)C1

> <Shape>
0.239

> <Color>
0.071

> <Negative vol penalty>
0.000

$$$$

  -OEChem-04052320383D

 88 97  0     1  0  0  0  0  0999 V2000
  -17.0673  -32.4761   22.8196 C   0  0  0  0  0  0  0  0  0  0  0  0
  -18.4186  -32.7784   22.6863 C   0  0  0  0  0  0  0  0  0  0  0  0
  -24.6757   -9.0195   21.2423 C   0  0  0  0  0  0  0  0  0  0  0  0
  -22.9190  -10.4922   20.4792 C   0  0  0  0  0  0  0  0  0  0  0  0
  -16.6749  -31.1898   23.1877 C   0  0  0  0  0  0  0  0  0  0  0  0
  -19.3786  -31.7949   22.9220 C   0  0  0  0  0  0  0  0  0  0  0  0
  -25.8628  -29.6828   20.7288 C   0  0  0  0  0  0  0  0  0  0  0  0
  -30.2481  -25.1121   21.8052 C   0  0  0  0  0  0  0  0  0  0  0  0
  -23.7369   -8.0102   21.4558 C   0  0  0  0  0  0  0  0  0  0  0  0
  -21.9802   -9.4829   20.6926 C   0  0  0  0  0  0  0  0  0  0  0  0
  -27.1199  -29.3602   21.2381 C   0  0  0  0  0  0  0  0  0  0  0  0
  -21.4329   -7.2063   23.7945 C   0  0  0  0  0  0  0  0  0  0  0  0
  -21.5137   -6.4890   24.9880 C   0  0  0  0  0  0  0  0  0  0  0  0
  -30.1119  -23.8981   21.1412 C   0  0  0  0  0  0  0  0  0  0  0  0
  -26.3223  -27.1518   21.7915 C   0  0  0  0  0  0  0  0  0  0  0  0
  -21.8338   -4.4461   23.7386 C   0  0  0  0  0  0  0  0  0  0  0  0
  -31.1493  -26.0427   19.8106 C   0  0  0  0  0  0  0  0  0  0  0  0
  -24.2667  -10.2605   20.7540 C   0  0  0  0  0  0  0  0  0  0  0  0
  -25.9600  -11.5560   19.3532 C   0  0  0  0  0  0  0  0  0  0  0  0
  -17.6302  -30.1874   23.4186 C   0  0  0  0  0  0  0  0  0  0  0  0
  -24.8212  -28.7443   20.7569 C   0  0  0  0  0  0  0  0  0  0  0  0
  -18.9987  -30.4943   23.2948 C   0  0  0  0  0  0  0  0  0  0  0  0
  -25.0536  -27.4641   21.2795 C   0  0  0  0  0  0  0  0  0  0  0  0
  -30.7758  -26.2097   21.1344 C   0  0  0  0  0  0  0  0  0  0  0  0
  -22.3892   -8.2419   21.1809 C   0  0  0  0  0  0  0  0  0  0  0  0
  -27.3490  -28.0955   21.7722 C   0  0  0  0  0  0  0  0  0  0  0  0
  -21.5525   -6.5435   22.5730 C   0  0  0  0  0  0  0  0  0  0  0  0
  -21.7141   -5.1089   24.9601 C   0  0  0  0  0  0  0  0  0  0  0  0
  -21.7530   -5.1634   22.5450 C   0  0  0  0  0  0  0  0  0  0  0  0
  -25.2359  -11.3037   20.5338 C   0  0  0  0  0  0  0  0  0  0  0  0
  -30.5150  -23.8346   19.8171 C   0  0  0  0  0  0  0  0  0  0  0  0
  -26.7406  -12.6450   19.6552 C   0  0  0  0  0  0  0  0  0  0  0  0
  -25.9296  -10.8675   18.0959 C   0  0  0  0  0  0  0  0  0  0  0  0
  -21.9574  -28.6123   22.1300 C   0  0  0  0  0  0  0  0  0  0  0  0
  -21.6844  -25.8824   20.3993 C   0  0  0  0  0  0  0  0  0  0  0  0
  -23.2376  -23.3016   18.7949 C   0  0  0  0  0  0  0  0  0  0  0  0
  -27.3686  -17.7016   21.9315 C   0  0  0  0  0  0  0  0  0  0  0  0
  -17.1597  -28.8243   23.8605 C   0  0  0  0  0  0  0  0  0  0  0  0
  -23.4785  -29.0990   20.1792 C   0  0  0  0  0  0  0  0  0  0  0  0
  -23.9746  -26.4139   21.3147 C   0  0  0  0  0  0  0  0  0  0  0  0
  -18.2253  -27.7394   23.7273 C   0  0  0  0  0  0  0  0  0  0  0  0
  -27.6899  -14.8874   24.0888 C   0  0  0  0  0  0  0  0  0  0  0  0
  -19.5565  -28.2266   24.2907 C   0  0  0  0  0  0  0  0  0  0  0  0
  -27.1343  -13.7270   23.2614 C   0  0  0  0  0  0  0  0  0  0  0  0
  -26.9194  -16.1812   23.8350 C   0  0  0  0  0  0  0  0  0  0  0  0
  -31.2323  -18.8913   17.4226 C   0  0  0  0  0  0  0  0  0  0  0  0
  -26.2587  -15.4109   21.5891 C   0  0  0  0  0  0  0  0  0  0  0  0
  -30.7157  -17.6040   18.0432 C   0  0  0  0  0  0  0  0  0  0  0  0
  -20.0689  -29.4479   23.5178 C   0  0  1  0  0  0  0  0  0  0  0  0
  -22.3455  -28.2371   20.7278 C   0  0  1  0  0  0  0  0  0  0  0  0
  -27.0390  -14.0974   21.7691 C   0  0  2  0  0  0  0  0  0  0  0  0
  -29.8011  -20.2386   18.8414 C   0  0  1  0  0  0  0  0  0  0  0  0
  -29.2305  -18.9769   19.5196 C   0  0  1  0  0  0  0  0  0  0  0  0
  -22.7498  -21.2041   17.5066 C   0  0  0  0  0  0  0  0  0  0  0  0
  -20.9778  -24.4522   23.0003 C   0  0  0  0  0  0  0  0  0  0  0  0
  -21.4357  -22.2775   21.8474 C   0  0  0  0  0  0  0  0  0  0  0  0
  -19.6078  -23.7624   21.0250 C   0  0  0  0  0  0  0  0  0  0  0  0
  -24.6047  -24.3289   16.3794 C   0  0  0  0  0  0  0  0  0  0  0  0
  -30.9370  -27.5408   21.8276 C   0  0  0  0  0  0  0  0  0  0  0  0
  -29.8335  -21.4344   19.7957 C   0  0  0  0  0  0  0  0  0  0  0  0
  -27.7663  -19.1065   19.9247 C   0  0  0  0  0  0  0  0  0  0  0  0
  -29.7027  -28.4240   21.6811 C   0  0  0  0  0  0  0  0  0  1  0  0
  -22.0155  -24.4287   20.6362 C   0  0  1  0  0  0  0  0  0  0  0  0
  -23.0249  -22.6972   17.4187 C   0  0  2  0  0  0  0  0  0  0  0  0
  -21.0292  -23.7504   21.6285 C   0  0  0  0  0  0  0  0  0  0  0  0
  -31.0321  -24.8792   19.1322 N   0  0  0  0  0  0  0  0  0  0  0  0
  -25.5304  -12.1632   21.5129 N   0  0  0  0  0  0  0  0  0  0  0  0
  -26.4483  -12.9661   20.9481 N   0  0  0  0  0  0  0  0  0  0  0  0
  -31.1761  -20.0086   18.3662 N   0  0  0  0  0  0  0  0  0  0  0  0
  -22.6770  -26.8109   20.7436 N   0  0  0  0  0  0  0  0  0  0  0  0
  -26.8671  -16.4764   22.4011 N   0  0  0  0  0  0  0  0  0  0  0  0
  -27.6417  -13.3496   18.9383 N   0  0  0  0  0  0  0  0  0  0  0  0
  -25.0705   -9.7690   17.9563 N   0  0  0  0  0  0  0  0  0  0  0  0
  -30.3691  -22.5905   19.1542 N   0  0  0  0  0  0  0  0  0  0  0  0
  -20.6497  -29.0405   22.2564 N   0  0  0  0  0  0  0  0  0  0  0  0
  -22.0647  -23.8015   19.3200 N   0  0  0  0  0  0  0  0  0  0  0  0
  -27.2864  -17.8987   20.5585 N   0  0  0  0  0  0  0  0  0  0  0  0
  -29.3290  -17.8342   18.5440 N   0  3  0  0  0  0  0  0  0  0  0  0
  -24.2324  -22.9034   16.5701 N   0  3  0  0  0  0  0  0  0  0  0  0
  -26.6553  -11.2060   17.1303 O   0  0  0  0  0  0  0  0  0  0  0  0
  -22.7829  -28.5188   23.0309 O   0  0  0  0  0  0  0  0  0  0  0  0
  -20.5883  -26.1826   19.9195 O   0  0  0  0  0  0  0  0  0  0  0  0
  -24.3338  -23.3245   19.3502 O   0  0  0  0  0  0  0  0  0  0  0  0
  -27.8585  -18.5543   22.6798 O   0  0  0  0  0  0  0  0  0  0  0  0
  -21.4728   -7.2572   21.3889 O   0  0  0  0  0  0  0  0  0  0  0  0
  -28.5749  -27.7782   22.2706 O   0  0  0  0  0  0  0  0  0  1  0  0
  -21.7932   -4.4205   26.1064 F   0  0  0  0  0  0  0  0  0  0  0  0
  -21.8698   -4.5213   21.3746 F   0  0  0  0  0  0  0  0  0  0  0  0
  1  2  1  0  0  0  0
  1  5  2  0  0  0  0
  2  6  2  0  0  0  0
  3  9  2  0  0  0  0
  3 18  1  0  0  0  0
  4 10  1  0  0  0  0
  4 18  2  0  0  0  0
  5 20  1  0  0  0  0
  6 22  1  0  0  0  0
  7 11  2  0  0  0  0
  7 21  1  0  0  0  0
  8 14  2  0  0  0  0
  8 24  1  0  0  0  0
  9 25  1  0  0  0  0
 10 25  2  0  0  0  0
 11 26  1  0  0  0  0
 12 13  2  0  0  0  0
 12 27  1  0  0  0  0
 13 28  1  0  0  0  0
 14 31  1  0  0  0  0
 15 23  1  0  0  0  0
 15 26  2  0  0  0  0
 16 28  2  0  0  0  0
 16 29  1  0  0  0  0
 17 24  2  0  0  0  0
 17 66  1  0  0  0  0
 18 30  1  0  0  0  0
 19 30  1  0  0  0  0
 19 32  2  0  0  0  0
 19 33  1  0  0  0  0
 20 22  2  0  0  0  0
 20 38  1  0  0  0  0
 21 23  2  0  0  0  0
 21 39  1  0  0  0  0
 22 49  1  0  0  0  0
 23 40  1  0  0  0  0
 24 59  1  0  0  0  0
 25 85  1  0  0  0  0
 26 86  1  0  0  0  0
 27 29  2  0  0  0  0
 27 85  1  0  0  0  0
 28 87  1  0  0  0  0
 29 88  1  0  0  0  0
 30 67  2  0  0  0  0
 31 66  2  0  0  0  0
 31 74  1  0  0  0  0
 32 68  1  0  0  0  0
 32 72  1  0  0  0  0
 33 73  1  0  0  0  0
 33 80  2  0  0  0  0
 34 50  1  0  0  0  0
 34 75  1  0  0  0  0
 34 81  2  0  0  0  0
 35 63  1  0  0  0  0
 35 70  1  0  0  0  0
 35 82  2  0  0  0  0
 36 64  1  0  0  0  0
 36 76  1  0  0  0  0
 36 83  2  0  0  0  0
 37 71  1  0  0  0  0
 37 77  1  0  0  0  0
 37 84  2  0  0  0  0
 38 41  1  0  0  0  0
 39 50  1  0  0  0  0
 40 70  1  0  0  0  0
 41 43  1  0  0  0  0
 42 44  1  0  0  0  0
 42 45  1  0  0  0  0
 43 49  1  0  0  0  0
 44 51  1  0  0  0  0
 45 71  1  0  0  0  0
 46 48  1  0  0  0  0
 46 69  1  0  0  0  0
 47 51  1  0  0  0  0
 47 71  1  0  0  0  0
 48 78  1  0  0  0  0
 49 75  1  0  0  0  0
 50 70  1  0  0  0  0
 51 68  1  0  0  0  0
 52 53  1  0  0  0  0
 52 60  1  0  0  0  0
 52 69  1  0  0  0  0
 53 61  1  0  0  0  0
 53 78  1  0  0  0  0
 54 64  1  0  0  0  0
 55 65  1  0  0  0  0
 56 65  1  0  0  0  0
 57 65  1  0  0  0  0
 58 79  1  0  0  0  0
 59 62  1  0  0  0  0
 60 74  1  0  0  0  0
 61 77  1  0  0  0  0
 62 86  1  0  0  0  0
 63 65  1  0  0  0  0
 63 76  1  0  0  0  0
 64 79  1  0  0  0  0
 67 68  1  0  0  0  0
M  CHG  2  78   1  79   1
M  ISO  4  37 100  62 101  77 100  86 101
M  END
> <Batch ID>
0126

> <Smiles>
CNC(C)C(=O)NC(C(=O)N1Cc2cc([101O:1][101CH2:1]Cc3ccc(NCC4NCCNC4C[100NH:0][100C:0](=O)N4CCCC(n5nc(-c6ccc(Oc7ccc(F)cc7F)cc6)c(C(N)=O)c5N)C4)nc3)ccc2CC1C(=O)NC1CCCc2ccccc21)C(C)(C)C

> <Shape>
0.288

> <Color>
0.103

> <Negative vol penalty>
0.000

$$$$

  -OEChem-04052320383D

 86 95  0     1  0  0  0  0  0999 V2000
  -24.1413  -26.3331   12.9088 C   0  0  0  0  0  0  0  0  0  0  0  0
  -25.3266  -25.6307   12.7166 C   0  0  0  0  0  0  0  0  0  0  0  0
  -22.6952  -10.0996   20.1494 C   0  0  0  0  0  0  0  0  0  0  0  0
  -24.3849   -9.3425   21.7014 C   0  0  0  0  0  0  0  0  0  0  0  0
  -24.0940  -27.3803   13.8281 C   0  0  0  0  0  0  0  0  0  0  0  0
  -26.4659  -25.9759   13.4428 C   0  0  0  0  0  0  0  0  0  0  0  0
  -29.7516  -21.1745   17.6905 C   0  0  0  0  0  0  0  0  0  0  0  0
  -30.0271  -18.8411   23.6075 C   0  0  0  0  0  0  0  0  0  0  0  0
  -22.0056   -8.8984   20.3141 C   0  0  0  0  0  0  0  0  0  0  0  0
  -23.6953   -8.1413   21.8662 C   0  0  0  0  0  0  0  0  0  0  0  0
  -30.5585  -20.2543   18.3600 C   0  0  0  0  0  0  0  0  0  0  0  0
  -20.9957   -7.0346   23.5716 C   0  0  0  0  0  0  0  0  0  0  0  0
  -20.8354   -6.5542   24.8712 C   0  0  0  0  0  0  0  0  0  0  0  0
  -29.5851  -17.6330   23.0799 C   0  0  0  0  0  0  0  0  0  0  0  0
  -32.0693  -22.0300   19.0019 C   0  0  0  0  0  0  0  0  0  0  0  0
  -22.0313   -4.5414   24.2748 C   0  0  0  0  0  0  0  0  0  0  0  0
  -23.8849  -10.3216   20.8430 C   0  0  0  0  0  0  0  0  0  0  0  0
  -24.1249  -12.8592   20.9474 C   0  0  0  0  0  0  0  0  0  0  0  0
  -25.2307  -27.7322   14.5730 C   0  0  0  0  0  0  0  0  0  0  0  0
  -30.0927  -22.5299   17.6871 C   0  0  0  0  0  0  0  0  0  0  0  0
  -26.4342  -27.0296   14.3720 C   0  0  0  0  0  0  0  0  0  0  0  0
  -31.2583  -22.9582   18.3435 C   0  0  0  0  0  0  0  0  0  0  0  0
  -31.2578  -19.3558   23.2155 C   0  0  0  0  0  0  0  0  0  0  0  0
  -22.5056   -7.9192   21.1726 C   0  0  0  0  0  0  0  0  0  0  0  0
  -31.7146  -20.6810   19.0139 C   0  0  0  0  0  0  0  0  0  0  0  0
  -21.6738   -6.2684   22.6235 C   0  0  0  0  0  0  0  0  0  0  0  0
  -21.3531   -5.3077   25.2228 C   0  0  0  0  0  0  0  0  0  0  0  0
  -22.1916   -5.0219   22.9751 C   0  0  0  0  0  0  0  0  0  0  0  0
  -24.5980  -11.5620   20.6727 C   0  0  0  0  0  0  0  0  0  0  0  0
  -32.0028  -18.6295   22.3005 C   0  0  0  0  0  0  0  0  0  0  0  0
  -30.4049  -16.9839   22.1708 C   0  0  0  0  0  0  0  0  0  0  0  0
  -25.1739  -13.6835   20.6209 C   0  0  0  0  0  0  0  0  0  0  0  0
  -22.8512  -13.2812   21.4527 C   0  0  0  0  0  0  0  0  0  0  0  0
  -29.2105  -26.0059   16.5849 C   0  0  0  0  0  0  0  0  0  0  0  0
  -30.2508  -26.2208   19.4627 C   0  0  0  0  0  0  0  0  0  0  0  0
  -31.4267  -27.3848   22.6672 C   0  0  0  0  0  0  0  0  0  0  0  0
  -30.5986  -14.9349   20.7180 C   0  0  0  0  0  0  0  0  0  0  0  0
  -25.1439  -28.9021   15.5208 C   0  0  0  0  0  0  0  0  0  0  0  0
  -29.2861  -23.5475   16.9270 C   0  0  0  0  0  0  0  0  0  0  0  0
  -31.6044  -24.4209   18.2842 C   0  0  0  0  0  0  0  0  0  0  0  0
  -26.2945  -28.9614   16.5222 C   0  0  0  0  0  0  0  0  0  0  0  0
  -29.4944  -12.7041   18.1722 C   0  0  0  0  0  0  0  0  0  0  0  0
  -27.6287  -28.7425   15.8159 C   0  0  0  0  0  0  0  0  0  0  0  0
  -28.0832  -12.3148   18.6184 C   0  0  0  0  0  0  0  0  0  0  0  0
  -31.8036  -23.0320   23.6445 C   0  0  0  0  0  0  0  0  0  0  0  0
  -33.4071  -21.7541   25.0853 C   0  0  0  0  0  0  0  0  0  0  0  0
  -30.4421  -12.8596   19.3602 C   0  0  0  0  0  0  0  0  0  0  0  0
  -30.9201  -21.7893   23.5301 C   0  0  0  0  0  0  0  0  0  0  0  0
  -32.5159  -20.5178   24.9719 C   0  0  0  0  0  0  0  0  0  0  0  0
  -28.5590  -13.3746   20.8628 C   0  0  0  0  0  0  0  0  0  0  0  0
  -27.6844  -27.3580   15.1588 C   0  0  1  0  0  0  0  0  0  0  0  0
  -29.2392  -24.9207   17.6207 C   0  0  1  0  0  0  0  0  0  0  0  0
  -27.5523  -13.2697   19.7055 C   0  0  2  0  0  0  0  0  0  0  0  0
  -32.5823  -23.0295   24.9548 C   0  0  0  0  0  0  0  0  0  0  0  0
  -31.7712  -29.7158   23.5303 C   0  0  0  0  0  0  0  0  0  0  0  0
  -33.1246  -25.8350   18.5159 C   0  0  0  0  0  0  0  0  0  0  0  0
  -33.8869  -27.0792   20.5504 C   0  0  0  0  0  0  0  0  0  0  0  0
  -32.4500  -28.2186   18.8593 C   0  0  0  0  0  0  0  0  0  0  0  0
  -29.6874  -26.8981   25.0117 C   0  0  0  0  0  0  0  0  0  0  0  0
  -33.3468  -19.1359   21.8362 C   0  0  0  0  0  0  0  0  0  0  0  0
  -33.2212  -20.2507   20.8035 C   0  0  0  0  0  0  0  0  0  1  0  0
  -31.4347  -26.4598   20.3652 C   0  0  1  0  0  0  0  0  0  0  0  0
  -30.8403  -28.5138   23.4953 C   0  0  2  0  0  0  0  0  0  0  0  0
  -32.7079  -26.8749   19.5752 C   0  0  0  0  0  0  0  0  0  0  0  0
  -25.8499  -11.5576   20.2073 N   0  0  0  0  0  0  0  0  0  0  0  0
  -31.6066  -17.4526   21.7661 N   0  0  0  0  0  0  0  0  0  0  0  0
  -26.1724  -12.8621   20.1870 N   0  0  0  0  0  0  0  0  0  0  0  0
  -31.7120  -20.5714   23.7416 N   0  0  0  0  0  0  0  0  0  0  0  0
  -30.3930  -25.2322   18.4814 N   0  0  0  0  0  0  0  0  0  0  0  0
  -29.8754  -13.7816   20.3470 N   0  0  0  0  0  0  0  0  0  0  0  0
  -25.3302  -15.0237   20.6653 N   0  0  0  0  0  0  0  0  0  0  0  0
  -21.8876  -12.3037   21.7360 N   0  0  0  0  0  0  0  0  0  0  0  0
  -29.9456  -15.7534   21.6391 N   0  0  0  0  0  0  0  0  0  0  0  0
  -27.9407  -26.3371   16.1520 N   0  0  0  0  0  0  0  0  0  0  0  0
  -31.0012  -27.4383   21.3567 N   0  0  0  0  0  0  0  0  0  0  0  0
  -33.4950  -24.2018   24.9789 N   0  3  0  0  0  0  0  0  0  0  0  0
  -30.6048  -28.0608   24.8955 N   0  3  0  0  0  0  0  0  0  0  0  0
  -22.5700  -14.4905   21.6317 O   0  0  0  0  0  0  0  0  0  0  0  0
  -30.2624  -26.5078   16.2064 O   0  0  0  0  0  0  0  0  0  0  0  0
  -29.2285  -26.8947   19.6177 O   0  0  0  0  0  0  0  0  0  0  0  0
  -32.1892  -26.5420   23.1350 O   0  0  0  0  0  0  0  0  0  0  0  0
  -31.7030  -15.1926   20.2324 O   0  0  0  0  0  0  0  0  0  0  0  0
  -21.8329   -6.7471   21.3338 O   0  0  0  0  0  0  0  0  0  0  0  0
  -32.4954  -19.7780   19.6694 O   0  0  0  0  0  0  0  0  0  1  0  0
  -21.2004   -4.8471   26.4713 F   0  0  0  0  0  0  0  0  0  0  0  0
  -22.8450   -4.2817   22.0689 F   0  0  0  0  0  0  0  0  0  0  0  0
  1  2  1  0  0  0  0
  1  5  2  0  0  0  0
  2  6  2  0  0  0  0
  3  9  2  0  0  0  0
  3 17  1  0  0  0  0
  4 10  1  0  0  0  0
  4 17  2  0  0  0  0
  5 19  1  0  0  0  0
  6 21  1  0  0  0  0
  7 11  2  0  0  0  0
  7 20  1  0  0  0  0
  8 14  2  0  0  0  0
  8 23  1  0  0  0  0
  9 24  1  0  0  0  0
 10 24  2  0  0  0  0
 11 25  1  0  0  0  0
 12 13  2  0  0  0  0
 12 26  1  0  0  0  0
 13 27  1  0  0  0  0
 14 31  1  0  0  0  0
 15 22  1  0  0  0  0
 15 25  2  0  0  0  0
 16 27  2  0  0  0  0
 16 28  1  0  0  0  0
 17 29  1  0  0  0  0
 18 29  1  0  0  0  0
 18 32  2  0  0  0  0
 18 33  1  0  0  0  0
 19 21  2  0  0  0  0
 19 38  1  0  0  0  0
 20 22  2  0  0  0  0
 20 39  1  0  0  0  0
 21 51  1  0  0  0  0
 22 40  1  0  0  0  0
 23 30  2  0  0  0  0
 23 68  1  0  0  0  0
 24 83  1  0  0  0  0
 25 84  1  0  0  0  0
 26 28  2  0  0  0  0
 26 83  1  0  0  0  0
 27 85  1  0  0  0  0
 28 86  1  0  0  0  0
 29 65  2  0  0  0  0
 30 60  1  0  0  0  0
 30 66  1  0  0  0  0
 31 66  2  0  0  0  0
 31 73  1  0  0  0  0
 32 67  1  0  0  0  0
 32 71  1  0  0  0  0
 33 72  1  0  0  0  0
 33 78  2  0  0  0  0
 34 52  1  0  0  0  0
 34 74  1  0  0  0  0
 34 79  2  0  0  0  0
 35 62  1  0  0  0  0
 35 69  1  0  0  0  0
 35 80  2  0  0  0  0
 36 63  1  0  0  0  0
 36 75  1  0  0  0  0
 36 81  2  0  0  0  0
 37 70  1  0  0  0  0
 37 73  1  0  0  0  0
 37 82  2  0  0  0  0
 38 41  1  0  0  0  0
 39 52  1  0  0  0  0
 40 69  1  0  0  0  0
 41 43  1  0  0  0  0
 42 44  1  0  0  0  0
 42 47  1  0  0  0  0
 43 51  1  0  0  0  0
 44 53  1  0  0  0  0
 45 48  1  0  0  0  0
 45 54  1  0  0  0  0
 46 49  1  0  0  0  0
 46 54  1  0  0  0  0
 47 70  1  0  0  0  0
 48 68  1  0  0  0  0
 49 68  1  0  0  0  0
 50 53  1  0  0  0  0
 50 70  1  0  0  0  0
 51 74  1  0  0  0  0
 52 69  1  0  0  0  0
 53 67  1  0  0  0  0
 54 76  1  0  0  0  0
 55 63  1  0  0  0  0
 56 64  1  0  0  0  0
 57 64  1  0  0  0  0
 58 64  1  0  0  0  0
 59 77  1  0  0  0  0
 60 61  1  0  0  0  0
 61 84  1  0  0  0  0
 62 64  1  0  0  0  0
 62 75  1  0  0  0  0
 63 77  1  0  0  0  0
 65 67  1  0  0  0  0
M  CHG  2  76   1  77   1
M  ISO  4  37 100  61 101  73 100  84 101
M  END
> <Batch ID>
0126

> <Smiles>
CNC(C)C(=O)NC(C(=O)N1Cc2cc([101O:1][101CH2:1]Cc3nc([100NH:0][100C:0](=O)N4CCCC(n5nc(-c6ccc(Oc7ccc(F)cc7F)cc6)c(C(N)=O)c5N)C4)ccc3N3CCC(N)CC3)ccc2CC1C(=O)NC1CCCc2ccccc21)C(C)(C)C

> <Shape>
0.258

> <Color>
0.191

> <Negative vol penalty>
0.000

$$$$

  -OEChem-04052320383D

 86 95  0     1  0  0  0  0  0999 V2000
  -11.0476  -29.7536   20.7953 C   0  0  0  0  0  0  0  0  0  0  0  0
  -11.9257  -28.9486   20.0768 C   0  0  0  0  0  0  0  0  0  0  0  0
  -22.9981   -9.8970   19.9831 C   0  0  0  0  0  0  0  0  0  0  0  0
  -23.7279   -9.9471   22.2857 C   0  0  0  0  0  0  0  0  0  0  0  0
  -11.3084  -30.0467   22.1332 C   0  0  0  0  0  0  0  0  0  0  0  0
  -13.0658  -28.4370   20.6956 C   0  0  0  0  0  0  0  0  0  0  0  0
  -25.0636  -22.0388   20.5461 C   0  0  0  0  0  0  0  0  0  0  0  0
  -24.5165  -19.6865   20.4795 C   0  0  0  0  0  0  0  0  0  0  0  0
  -17.3415  -22.6896   20.6471 C   0  0  0  0  0  0  0  0  0  0  0  0
  -23.7087  -22.3566   20.4525 C   0  0  0  0  0  0  0  0  0  0  0  0
  -23.1615  -20.0043   20.3860 C   0  0  0  0  0  0  0  0  0  0  0  0
  -22.2320   -8.7624   20.2506 C   0  0  0  0  0  0  0  0  0  0  0  0
  -22.9618   -8.8126   22.5532 C   0  0  0  0  0  0  0  0  0  0  0  0
  -18.6897  -22.3511   20.5401 C   0  0  0  0  0  0  0  0  0  0  0  0
  -23.2049   -5.4738   22.0797 C   0  0  0  0  0  0  0  0  0  0  0  0
  -23.7939   -4.4563   22.8302 C   0  0  0  0  0  0  0  0  0  0  0  0
  -18.9966  -22.8591   22.8782 C   0  0  0  0  0  0  0  0  0  0  0  0
  -22.0734   -4.6987   24.5090 C   0  0  0  0  0  0  0  0  0  0  0  0
  -23.7461  -10.4893   21.0007 C   0  0  0  0  0  0  0  0  0  0  0  0
  -24.1313  -13.0049   20.8247 C   0  0  0  0  0  0  0  0  0  0  0  0
  -25.4675  -20.7038   20.5595 C   0  0  0  0  0  0  0  0  0  0  0  0
  -12.4472  -29.5306   22.7714 C   0  0  0  0  0  0  0  0  0  0  0  0
  -16.8122  -23.1266   21.8699 C   0  0  0  0  0  0  0  0  0  0  0  0
  -13.3428  -28.7246   22.0430 C   0  0  0  0  0  0  0  0  0  0  0  0
  -17.6408  -23.2001   22.9987 C   0  0  0  0  0  0  0  0  0  0  0  0
  -22.7576  -21.3394   20.3725 C   0  0  0  0  0  0  0  0  0  0  0  0
  -22.2138   -8.2202   21.5357 C   0  0  0  0  0  0  0  0  0  0  0  0
  -19.5182  -22.4385   21.6550 C   0  0  0  0  0  0  0  0  0  0  0  0
  -22.0502   -6.1039   22.5438 C   0  0  0  0  0  0  0  0  0  0  0  0
  -23.2281   -4.0687   24.0449 C   0  0  0  0  0  0  0  0  0  0  0  0
  -21.4845   -5.7163   23.7585 C   0  0  0  0  0  0  0  0  0  0  0  0
  -24.5381  -11.6609   20.7248 C   0  0  0  0  0  0  0  0  0  0  0  0
  -25.2404  -13.7275   20.4583 C   0  0  0  0  0  0  0  0  0  0  0  0
  -22.8642  -13.5513   21.2140 C   0  0  0  0  0  0  0  0  0  0  0  0
  -15.4471  -25.8087   22.8929 C   0  0  0  0  0  0  0  0  0  0  0  0
  -14.9712  -24.0762   25.5937 C   0  0  0  0  0  0  0  0  0  0  0  0
  -15.9302  -21.4601   27.5642 C   0  0  0  0  0  0  0  0  0  0  0  0
  -30.7373  -14.6615   20.6960 C   0  0  0  0  0  0  0  0  0  0  0  0
  -12.7117  -29.9137   24.2060 C   0  0  0  0  0  0  0  0  0  0  0  0
  -15.3499  -23.4625   21.9752 C   0  0  0  0  0  0  0  0  0  0  0  0
  -17.1171  -23.6441   24.3393 C   0  0  0  0  0  0  0  0  0  0  0  0
  -13.7461  -29.0256   24.8928 C   0  0  0  0  0  0  0  0  0  0  0  0
  -29.5916  -12.2388   18.3520 C   0  0  0  0  0  0  0  0  0  0  0  0
  -27.3669  -19.5822   19.4122 C   0  0  0  0  0  0  0  0  0  0  0  0
  -27.1850  -19.5509   21.9389 C   0  0  0  0  0  0  0  0  0  0  0  0
  -14.9634  -28.8311   23.9944 C   0  0  0  0  0  0  0  0  0  0  0  0
  -28.8306  -19.1545   19.5153 C   0  0  0  0  0  0  0  0  0  0  0  0
  -28.6492  -19.1233   22.0360 C   0  0  0  0  0  0  0  0  0  0  0  0
  -28.1440  -11.9790   18.7724 C   0  0  0  0  0  0  0  0  0  0  0  0
  -30.4965  -12.4736   19.5595 C   0  0  0  0  0  0  0  0  0  0  0  0
  -28.5892  -13.2689   20.9024 C   0  0  0  0  0  0  0  0  0  0  0  0
  -26.9159  -20.3631   20.6595 C   0  0  0  0  0  0  0  0  0  0  0  0
  -14.5772  -28.1306   22.6861 C   0  0  1  0  0  0  0  0  0  0  0  0
  -15.0320  -24.3870   23.1464 C   0  0  1  0  0  0  0  0  0  0  0  0
  -29.0968  -18.3455   20.7915 C   0  0  0  0  0  0  0  0  0  0  0  0
  -27.6277  -13.0817   19.7163 C   0  0  2  0  0  0  0  0  0  0  0  0
  -15.3753  -20.3168   29.7281 C   0  0  0  0  0  0  0  0  0  0  0  0
  -16.3266  -26.3357   27.1323 C   0  0  0  0  0  0  0  0  0  0  0  0
  -16.5973  -24.7649   29.0630 C   0  0  0  0  0  0  0  0  0  0  0  0
  -14.3143  -25.3675   28.2581 C   0  0  0  0  0  0  0  0  0  0  0  0
  -15.2987  -18.9152   26.1918 C   0  0  0  0  0  0  0  0  0  0  0  0
  -21.3002  -21.6821   20.2737 C   0  0  0  0  0  0  0  0  0  1  0  0
  -30.5740  -17.9704   20.8934 C   0  0  0  0  0  0  0  0  0  0  0  0
  -30.8226  -16.8400   21.8817 C   0  0  0  0  0  0  0  0  0  0  0  0
  -15.7565  -23.8324   26.8597 C   0  0  1  0  0  0  0  0  0  0  0  0
  -15.1312  -20.3527   28.2275 C   0  0  2  0  0  0  0  0  0  0  0  0
  -15.7593  -25.0686   27.8027 C   0  0  0  0  0  0  0  0  0  0  0  0
  -25.8066  -11.5344   20.3260 N   0  0  0  0  0  0  0  0  0  0  0  0
  -26.2063  -12.8082   20.1720 N   0  0  0  0  0  0  0  0  0  0  0  0
  -15.6818  -23.9678   24.3899 N   0  0  0  0  0  0  0  0  0  0  0  0
  -29.9516  -13.5321   20.4130 N   0  0  0  0  0  0  0  0  0  0  0  0
  -25.4737  -15.0532   20.3562 N   0  0  0  0  0  0  0  0  0  0  0  0
  -21.8330  -12.6671   21.5593 N   0  0  0  0  0  0  0  0  0  0  0  0
  -14.4007  -26.7111   22.9058 N   0  0  0  0  0  0  0  0  0  0  0  0
  -15.1995  -22.6247   27.4594 N   0  0  0  0  0  0  0  0  0  0  0  0
  -30.1427  -15.6201   21.5074 N   0  0  0  0  0  0  0  0  0  0  0  0
  -15.5095  -19.0285   27.6579 N   0  3  0  0  0  0  0  0  0  0  0  0
  -22.6476  -14.7866   21.2387 O   0  0  0  0  0  0  0  0  0  0  0  0
  -16.6293  -26.0679   22.7013 O   0  0  0  0  0  0  0  0  0  0  0  0
  -13.7698  -24.3456   25.6697 O   0  0  0  0  0  0  0  0  0  0  0  0
  -17.0881  -21.3083   27.1810 O   0  0  0  0  0  0  0  0  0  0  0  0
  -31.8818  -14.8075   20.2536 O   0  0  0  0  0  0  0  0  0  0  0  0
  -21.4662   -7.1133   21.7971 O   0  0  0  0  0  0  0  0  0  0  0  0
  -20.8346  -22.1093   21.5532 O   0  0  0  0  0  0  0  0  0  1  0  0
  -23.7930   -3.0905   24.7648 F   0  0  0  0  0  0  0  0  0  0  0  0
  -20.3745   -6.3171   24.2090 F   0  0  0  0  0  0  0  0  0  0  0  0
  1  2  1  0  0  0  0
  1  5  2  0  0  0  0
  2  6  2  0  0  0  0
  3 12  2  0  0  0  0
  3 19  1  0  0  0  0
  4 13  1  0  0  0  0
  4 19  2  0  0  0  0
  5 22  1  0  0  0  0
  6 24  1  0  0  0  0
  7 10  2  0  0  0  0
  7 21  1  0  0  0  0
  8 11  1  0  0  0  0
  8 21  2  0  0  0  0
  9 14  2  0  0  0  0
  9 23  1  0  0  0  0
 10 26  1  0  0  0  0
 11 26  2  0  0  0  0
 12 27  1  0  0  0  0
 13 27  2  0  0  0  0
 14 28  1  0  0  0  0
 15 16  2  0  0  0  0
 15 29  1  0  0  0  0
 16 30  1  0  0  0  0
 17 25  1  0  0  0  0
 17 28  2  0  0  0  0
 18 30  2  0  0  0  0
 18 31  1  0  0  0  0
 19 32  1  0  0  0  0
 20 32  1  0  0  0  0
 20 33  2  0  0  0  0
 20 34  1  0  0  0  0
 21 52  1  0  0  0  0
 22 24  2  0  0  0  0
 22 39  1  0  0  0  0
 23 25  2  0  0  0  0
 23 40  1  0  0  0  0
 24 53  1  0  0  0  0
 25 41  1  0  0  0  0
 26 62  1  0  0  0  0
 27 83  1  0  0  0  0
 28 84  1  0  0  0  0
 29 31  2  0  0  0  0
 29 83  1  0  0  0  0
 30 85  1  0  0  0  0
 31 86  1  0  0  0  0
 32 68  2  0  0  0  0
 33 69  1  0  0  0  0
 33 72  1  0  0  0  0
 34 73  1  0  0  0  0
 34 78  2  0  0  0  0
 35 54  1  0  0  0  0
 35 74  1  0  0  0  0
 35 79  2  0  0  0  0
 36 65  1  0  0  0  0
 36 70  1  0  0  0  0
 36 80  2  0  0  0  0
 37 66  1  0  0  0  0
 37 75  1  0  0  0  0
 37 81  2  0  0  0  0
 38 71  1  0  0  0  0
 38 76  1  0  0  0  0
 38 82  2  0  0  0  0
 39 42  1  0  0  0  0
 40 54  1  0  0  0  0
 41 70  1  0  0  0  0
 42 46  1  0  0  0  0
 43 49  1  0  0  0  0
 43 50  1  0  0  0  0
 44 47  1  0  0  0  0
 44 52  1  0  0  0  0
 45 48  1  0  0  0  0
 45 52  1  0  0  0  0
 46 53  1  0  0  0  0
 47 55  1  0  0  0  0
 48 55  1  0  0  0  0
 49 56  1  0  0  0  0
 50 71  1  0  0  0  0
 51 56  1  0  0  0  0
 51 71  1  0  0  0  0
 53 74  1  0  0  0  0
 54 70  1  0  0  0  0
 55 63  1  0  0  0  0
 56 69  1  0  0  0  0
 57 66  1  0  0  0  0
 58 67  1  0  0  0  0
 59 67  1  0  0  0  0
 60 67  1  0  0  0  0
 61 77  1  0  0  0  0
 62 84  1  0  0  0  0
 63 64  1  0  0  0  0
 64 76  1  0  0  0  0
 65 67  1  0  0  0  0
 65 75  1  0  0  0  0
 66 77  1  0  0  0  0
 68 69  1  0  0  0  0
M  CHG  1  77   1
M  ISO  4  38 100  62 101  76 100  84 101
M  END
> <Batch ID>
0126

> <Smiles>
CNC(C)C(=O)NC(C(=O)N1Cc2cc([101O:1][101CH2:1]c3ccc(C4CCC(CC[100NH:0][100C:0](=O)N5CCCC(n6nc(-c7ccc(Oc8ccc(F)cc8F)cc7)c(C(N)=O)c6N)C5)CC4)cc3)ccc2CC1C(=O)NC1CCCc2ccccc21)C(C)(C)C

> <Shape>
0.204

> <Color>
0.202

> <Negative vol penalty>
0.000

$$$$

  -OEChem-04052320383D

 84 92  0     1  0  0  0  0  0999 V2000
  -26.5355  -33.8876   28.9824 C   0  0  0  0  0  0  0  0  0  0  0  0
  -26.7497  -32.7809   28.1669 C   0  0  0  0  0  0  0  0  0  0  0  0
  -22.9030  -10.1838   19.9110 C   0  0  0  0  0  0  0  0  0  0  0  0
  -23.9427   -9.6555   22.0269 C   0  0  0  0  0  0  0  0  0  0  0  0
  -25.6503  -34.8871   28.5808 C   0  0  0  0  0  0  0  0  0  0  0  0
  -26.0778  -32.6727   26.9499 C   0  0  0  0  0  0  0  0  0  0  0  0
  -28.2159  -30.1982   21.7719 C   0  0  0  0  0  0  0  0  0  0  0  0
  -22.1196   -9.0339   20.0088 C   0  0  0  0  0  0  0  0  0  0  0  0
  -23.1592   -8.5056   22.1247 C   0  0  0  0  0  0  0  0  0  0  0  0
  -28.0437  -28.9422   21.1916 C   0  0  0  0  0  0  0  0  0  0  0  0
  -19.9852   -7.7214   22.9796 C   0  0  0  0  0  0  0  0  0  0  0  0
  -19.3798   -7.4540   24.2075 C   0  0  0  0  0  0  0  0  0  0  0  0
  -26.2660  -29.8259   19.8210 C   0  0  0  0  0  0  0  0  0  0  0  0
  -20.5690   -5.3549   24.3367 C   0  0  0  0  0  0  0  0  0  0  0  0
  -23.8146  -10.4946   20.9200 C   0  0  0  0  0  0  0  0  0  0  0  0
  -24.3096  -12.9688   21.2955 C   0  0  0  0  0  0  0  0  0  0  0  0
  -24.9745  -34.7957   27.3537 C   0  0  0  0  0  0  0  0  0  0  0  0
  -27.4058  -31.2766   21.3883 C   0  0  0  0  0  0  0  0  0  0  0  0
  -25.1817  -33.6712   26.5321 C   0  0  0  0  0  0  0  0  0  0  0  0
  -26.4317  -31.0951   20.3962 C   0  0  0  0  0  0  0  0  0  0  0  0
  -22.2477   -8.1948   21.1156 C   0  0  0  0  0  0  0  0  0  0  0  0
  -27.0667  -28.7552   20.2181 C   0  0  0  0  0  0  0  0  0  0  0  0
  -20.8824   -6.8055   22.4303 C   0  0  0  0  0  0  0  0  0  0  0  0
  -19.6717   -6.2708   24.8860 C   0  0  0  0  0  0  0  0  0  0  0  0
  -21.1744   -5.6223   23.1088 C   0  0  0  0  0  0  0  0  0  0  0  0
  -24.6245  -11.6820   20.8192 C   0  0  0  0  0  0  0  0  0  0  0  0
  -25.3961  -13.7366   20.9543 C   0  0  0  0  0  0  0  0  0  0  0  0
  -23.1396  -13.4288   21.9847 C   0  0  0  0  0  0  0  0  0  0  0  0
  -25.3143  -33.1515   22.8762 C   0  0  0  0  0  0  0  0  0  0  0  0
  -25.3090  -34.7344   20.0449 C   0  0  0  0  0  0  0  0  0  0  0  0
  -25.8534  -34.6491   16.6769 C   0  0  0  0  0  0  0  0  0  0  0  0
  -30.9168  -14.4740   20.6026 C   0  0  0  0  0  0  0  0  0  0  0  0
  -23.9915  -35.8781   26.9840 C   0  0  0  0  0  0  0  0  0  0  0  0
  -27.6221  -32.6315   22.0047 C   0  0  0  0  0  0  0  0  0  0  0  0
  -25.5497  -32.2254   19.9346 C   0  0  0  0  0  0  0  0  0  0  0  0
  -23.6031  -35.8698   25.5077 C   0  0  0  0  0  0  0  0  0  0  0  0
  -29.3299  -12.7204   17.9411 C   0  0  0  0  0  0  0  0  0  0  0  0
  -23.2738  -34.4523   25.0503 C   0  0  0  0  0  0  0  0  0  0  0  0
  -29.1071  -19.3290   21.1854 C   0  0  0  0  0  0  0  0  0  0  0  0
  -31.4906  -20.0994   21.5057 C   0  0  0  0  0  0  0  0  0  0  0  0
  -29.4625  -17.9753   21.7978 C   0  0  0  0  0  0  0  0  0  0  0  0
  -31.8457  -18.7459   22.1183 C   0  0  0  0  0  0  0  0  0  0  0  0
  -27.9413  -12.3949   18.4942 C   0  0  0  0  0  0  0  0  0  0  0  0
  -30.4030  -12.6351   19.0243 C   0  0  0  0  0  0  0  0  0  0  0  0
  -28.7439  -13.1164   20.7820 C   0  0  0  0  0  0  0  0  0  0  0  0
  -24.4904  -33.5299   25.1933 C   0  0  1  0  0  0  0  0  0  0  0  0
  -26.3966  -33.5348   21.9070 C   0  0  1  0  0  0  0  0  0  0  0  0
  -30.0119  -20.4474   21.7181 C   0  0  0  0  0  0  0  0  0  0  0  0
  -30.9413  -17.6276   21.5851 C   0  0  0  0  0  0  0  0  0  0  0  0
  -27.6204  -13.2438   19.7390 C   0  0  2  0  0  0  0  0  0  0  0  0
  -25.7273  -36.0868   14.6240 C   0  0  0  0  0  0  0  0  0  0  0  0
  -22.2718  -34.4428   20.0303 C   0  0  0  0  0  0  0  0  0  0  0  0
  -22.2982  -35.0157   17.5932 C   0  0  0  0  0  0  0  0  0  0  0  0
  -23.1092  -36.6737   19.2713 C   0  0  0  0  0  0  0  0  0  0  0  0
  -28.7535  -34.3658   16.1589 C   0  0  0  0  0  0  0  0  0  0  0  0
  -29.6708  -21.7797   21.0533 C   0  0  0  0  0  0  0  0  0  0  0  0
  -31.2830  -16.2948   22.2486 C   0  0  0  0  0  0  0  0  0  0  0  0
  -26.3282  -25.2283   20.0136 C   0  0  0  0  0  0  0  0  0  0  0  0
  -28.2402  -22.1953   21.3565 C   0  0  0  0  0  0  0  0  0  0  0  0
  -26.5521  -23.9550   20.8153 C   0  0  0  0  0  0  0  0  0  0  0  0
  -27.2062  -26.3929   20.4547 C   0  0  0  0  0  0  0  0  0  1  0  0
  -24.5144  -34.6337   18.7652 C   0  0  1  0  0  0  0  0  0  0  0  0
  -26.6122  -35.5867   15.7551 C   0  0  2  0  0  0  0  0  0  0  0  0
  -23.0636  -35.1695   18.9249 C   0  0  0  0  0  0  0  0  0  0  0  0
  -25.8176  -11.6313   20.2209 N   0  0  0  0  0  0  0  0  0  0  0  0
  -26.2619  -12.8959   20.3188 N   0  0  0  0  0  0  0  0  0  0  0  0
  -25.7955  -33.5296   20.5718 N   0  0  0  0  0  0  0  0  0  0  0  0
  -30.0389  -13.4638   20.1760 N   0  0  0  0  0  0  0  0  0  0  0  0
  -25.6858  -15.0422   21.1387 N   0  0  0  0  0  0  0  0  0  0  0  0
  -22.1184  -12.5080   22.2558 N   0  0  0  0  0  0  0  0  0  0  0  0
  -25.4266  -33.7569   24.1133 N   0  0  0  0  0  0  0  0  0  0  0  0
  -25.2965  -35.3219   17.7439 N   0  0  0  0  0  0  0  0  0  0  0  0
  -30.4923  -15.2171   21.6973 N   0  0  0  0  0  0  0  0  0  0  0  0
  -27.7869  -34.8892   15.1596 N   0  3  0  0  0  0  0  0  0  0  0  0
  -27.9435  -23.4727   20.6510 N   0  3  0  0  0  0  0  0  0  0  0  0
  -22.9966  -14.6248   22.3350 O   0  0  0  0  0  0  0  0  0  0  0  0
  -24.4410  -32.3659   22.5271 O   0  0  0  0  0  0  0  0  0  0  0  0
  -25.4974  -35.8420   20.5542 O   0  0  0  0  0  0  0  0  0  0  0  0
  -25.7607  -33.4413   16.4691 O   0  0  0  0  0  0  0  0  0  0  0  0
  -31.9963  -14.7006   20.0456 O   0  0  0  0  0  0  0  0  0  0  0  0
  -21.4832   -7.0728   21.2115 O   0  0  0  0  0  0  0  0  0  0  0  0
  -26.8961  -27.5302   19.6505 O   0  0  0  0  0  0  0  0  0  1  0  0
  -19.0915   -6.0149   26.0659 F   0  0  0  0  0  0  0  0  0  0  0  0
  -22.0364   -4.7391   22.5866 F   0  0  0  0  0  0  0  0  0  0  0  0
  1  2  1  0  0  0  0
  1  5  2  0  0  0  0
  2  6  2  0  0  0  0
  3  8  2  0  0  0  0
  3 15  1  0  0  0  0
  4  9  1  0  0  0  0
  4 15  2  0  0  0  0
  5 17  1  0  0  0  0
  6 19  1  0  0  0  0
  7 10  2  0  0  0  0
  7 18  1  0  0  0  0
  8 21  1  0  0  0  0
  9 21  2  0  0  0  0
 10 22  1  0  0  0  0
 11 12  2  0  0  0  0
 11 23  1  0  0  0  0
 12 24  1  0  0  0  0
 13 20  1  0  0  0  0
 13 22  2  0  0  0  0
 14 24  2  0  0  0  0
 14 25  1  0  0  0  0
 15 26  1  0  0  0  0
 16 26  1  0  0  0  0
 16 27  2  0  0  0  0
 16 28  1  0  0  0  0
 17 19  2  0  0  0  0
 17 33  1  0  0  0  0
 18 20  2  0  0  0  0
 18 34  1  0  0  0  0
 19 46  1  0  0  0  0
 20 35  1  0  0  0  0
 21 81  1  0  0  0  0
 22 82  1  0  0  0  0
 23 25  2  0  0  0  0
 23 81  1  0  0  0  0
 24 83  1  0  0  0  0
 25 84  1  0  0  0  0
 26 65  2  0  0  0  0
 27 66  1  0  0  0  0
 27 69  1  0  0  0  0
 28 70  1  0  0  0  0
 28 76  2  0  0  0  0
 29 47  1  0  0  0  0
 29 71  1  0  0  0  0
 29 77  2  0  0  0  0
 30 62  1  0  0  0  0
 30 67  1  0  0  0  0
 30 78  2  0  0  0  0
 31 63  1  0  0  0  0
 31 72  1  0  0  0  0
 31 79  2  0  0  0  0
 32 68  1  0  0  0  0
 32 73  1  0  0  0  0
 32 80  2  0  0  0  0
 33 36  1  0  0  0  0
 34 47  1  0  0  0  0
 35 67  1  0  0  0  0
 36 38  1  0  0  0  0
 37 43  1  0  0  0  0
 37 44  1  0  0  0  0
 38 46  1  0  0  0  0
 39 41  1  0  0  0  0
 39 48  1  0  0  0  0
 40 42  1  0  0  0  0
 40 48  1  0  0  0  0
 41 49  1  0  0  0  0
 42 49  1  0  0  0  0
 43 50  1  0  0  0  0
 44 68  1  0  0  0  0
 45 50  1  0  0  0  0
 45 68  1  0  0  0  0
 46 71  1  0  0  0  0
 47 67  1  0  0  0  0
 48 56  1  0  0  0  0
 49 57  1  0  0  0  0
 50 66  1  0  0  0  0
 51 63  1  0  0  0  0
 52 64  1  0  0  0  0
 53 64  1  0  0  0  0
 54 64  1  0  0  0  0
 55 74  1  0  0  0  0
 56 59  1  0  0  0  0
 57 73  1  0  0  0  0
 58 60  1  0  0  0  0
 58 61  1  0  0  0  0
 59 75  1  0  0  0  0
 60 75  1  0  0  0  0
 61 82  1  0  0  0  0
 62 64  1  0  0  0  0
 62 72  1  0  0  0  0
 63 74  1  0  0  0  0
 65 66  1  0  0  0  0
M  CHG  2  74   1  75   1
M  ISO  4  32 100  61 101  73 100  82 101
M  END
> <Batch ID>
0126

> <Smiles>
CNC(C)C(=O)NC(C(=O)N1Cc2cc([101O:1][101CH2:1]CCNCCC3CCC(C[100NH:0][100C:0](=O)N4CCCC(n5nc(-c6ccc(Oc7ccc(F)cc7F)cc6)c(C(N)=O)c5N)C4)CC3)ccc2CC1C(=O)NC1CCCc2ccccc21)C(C)(C)C

> <Shape>
0.290

> <Color>
0.183

> <Negative vol penalty>
0.000

$$$$

  -OEChem-04052320383D

 88 97  0     1  0  0  0  0  0999 V2000
  -21.5455  -35.6979   18.8773 C   0  0  0  0  0  0  0  0  0  0  0  0
  -22.4774  -34.7303   18.5158 C   0  0  0  0  0  0  0  0  0  0  0  0
  -26.4909  -13.3820   21.3936 C   0  0  0  0  0  0  0  0  0  0  0  0
  -26.3935  -13.8582   19.0270 C   0  0  0  0  0  0  0  0  0  0  0  0
  -21.3164  -35.9745   20.2244 C   0  0  0  0  0  0  0  0  0  0  0  0
  -23.1815  -34.0394   19.5014 C   0  0  0  0  0  0  0  0  0  0  0  0
  -25.0002  -28.1945   19.3136 C   0  0  0  0  0  0  0  0  0  0  0  0
  -25.1815  -12.9032   21.3512 C   0  0  0  0  0  0  0  0  0  0  0  0
  -25.0841  -13.3793   18.9845 C   0  0  0  0  0  0  0  0  0  0  0  0
  -26.2220  -27.6020   18.9974 C   0  0  0  0  0  0  0  0  0  0  0  0
  -23.5924  -10.0775   20.3907 C   0  0  0  0  0  0  0  0  0  0  0  0
  -23.3184   -8.8798   21.0510 C   0  0  0  0  0  0  0  0  0  0  0  0
  -32.7852  -24.7656   19.2936 C   0  0  0  0  0  0  0  0  0  0  0  0
  -26.7773  -27.5097   21.3431 C   0  0  0  0  0  0  0  0  0  0  0  0
  -21.7153  -10.0198   22.4537 C   0  0  0  0  0  0  0  0  0  0  0  0
  -32.6675  -26.0532   19.7916 C   0  0  0  0  0  0  0  0  0  0  0  0
  -27.0969  -13.8595   20.2315 C   0  0  0  0  0  0  0  0  0  0  0  0
  -29.6317  -13.6166   20.0773 C   0  0  0  0  0  0  0  0  0  0  0  0
  -22.0110  -35.2799   21.2272 C   0  0  0  0  0  0  0  0  0  0  0  0
  -24.6619  -28.4594   20.6484 C   0  0  0  0  0  0  0  0  0  0  0  0
  -22.9624  -34.3079   20.8632 C   0  0  0  0  0  0  0  0  0  0  0  0
  -25.5496  -28.1032   21.6737 C   0  0  0  0  0  0  0  0  0  0  0  0
  -31.6500  -23.9626   19.2908 C   0  0  0  0  0  0  0  0  0  0  0  0
  -30.4489  -24.4647   19.7793 C   0  0  0  0  0  0  0  0  0  0  0  0
  -24.4781  -12.9019   20.1467 C   0  0  0  0  0  0  0  0  0  0  0  0
  -27.1120  -27.2621   20.0120 C   0  0  0  0  0  0  0  0  0  0  0  0
  -22.9279  -11.2464   20.7619 C   0  0  0  0  0  0  0  0  0  0  0  0
  -22.3799   -8.8509   22.0824 C   0  0  0  0  0  0  0  0  0  0  0  0
  -21.9894  -11.2175   21.7934 C   0  0  0  0  0  0  0  0  0  0  0  0
  -28.4493  -14.3547   20.2747 C   0  0  0  0  0  0  0  0  0  0  0  0
  -30.4359  -25.7657   20.2557 C   0  0  0  0  0  0  0  0  0  0  0  0
  -30.6398  -14.5383   20.2204 C   0  0  0  0  0  0  0  0  0  0  0  0
  -29.8033  -12.2224   19.7902 C   0  0  0  0  0  0  0  0  0  0  0  0
  -24.0298  -31.0859   22.3234 C   0  0  0  0  0  0  0  0  0  0  0  0
  -23.3193  -28.9535   24.6623 C   0  0  0  0  0  0  0  0  0  0  0  0
  -23.7496  -25.8267   25.9604 C   0  0  0  0  0  0  0  0  0  0  0  0
  -30.7680  -20.3850   19.4111 C   0  0  0  0  0  0  0  0  0  0  0  0
  -21.7636  -35.6469   22.6690 C   0  0  0  0  0  0  0  0  0  0  0  0
  -23.3287  -29.0746   20.9747 C   0  0  0  0  0  0  0  0  0  0  0  0
  -25.2253  -28.3480   23.1240 C   0  0  0  0  0  0  0  0  0  0  0  0
  -22.2798  -34.6064   23.6596 C   0  0  0  0  0  0  0  0  0  0  0  0
  -25.0535  -18.8837   22.4879 C   0  0  0  0  0  0  0  0  0  0  0  0
  -24.7975  -19.4039   23.9034 C   0  0  0  0  0  0  0  0  0  0  0  0
  -31.6707  -18.6444   22.4530 C   0  0  0  0  0  0  0  0  0  0  0  0
  -23.6952  -34.1738   23.2903 C   0  0  0  0  0  0  0  0  0  0  0  0
  -26.1627  -19.7570   21.9094 C   0  0  0  0  0  0  0  0  0  0  0  0
  -25.7777  -20.5530   24.1149 C   0  0  0  0  0  0  0  0  0  0  0  0
  -31.0510  -17.2669   22.2106 C   0  0  0  0  0  0  0  0  0  0  0  0
  -30.7825  -19.7552   21.9003 C   0  0  0  0  0  0  0  0  0  0  0  0
  -29.8256  -18.2369   20.2112 C   0  0  0  0  0  0  0  0  0  0  0  0
  -23.7281  -33.5198   21.9037 C   0  0  1  0  0  0  0  0  0  0  0  0
  -23.3072  -29.7685   22.3331 C   0  0  1  0  0  0  0  0  0  0  0  0
  -26.0650  -21.0557   22.7037 C   0  0  0  0  0  0  0  0  0  0  0  0
  -30.6866  -17.0697   20.7272 C   0  0  2  0  0  0  0  0  0  0  0  0
  -23.0697  -24.3889   27.9015 C   0  0  0  0  0  0  0  0  0  0  0  0
  -25.2573  -30.4732   26.4636 C   0  0  0  0  0  0  0  0  0  0  0  0
  -25.2637  -28.4996   28.0041 C   0  0  0  0  0  0  0  0  0  0  0  0
  -23.1436  -29.7453   27.5847 C   0  0  0  0  0  0  0  0  0  0  0  0
  -22.4565  -23.8417   24.1866 C   0  0  0  0  0  0  0  0  0  0  0  0
  -31.7463  -22.5704   18.7602 C   0  0  0  0  0  0  0  0  0  0  0  0
  -29.2152  -23.6262   19.7886 C   0  0  0  0  0  0  0  0  0  0  0  0
  -29.1693  -26.3621   20.7953 C   0  0  0  0  0  0  0  0  0  1  0  0
  -27.3191  -21.9075   22.6152 C   0  0  0  0  0  0  0  0  0  0  0  0
  -27.5949  -22.3332   21.1819 C   0  0  0  0  0  0  0  0  0  0  0  0
  -24.0984  -28.2749   25.7630 C   0  0  1  0  0  0  0  0  0  0  0  0
  -22.7529  -24.8029   26.4728 C   0  0  2  0  0  0  0  0  0  0  0  0
  -24.4480  -29.2453   26.9265 C   0  0  0  0  0  0  0  0  0  0  0  0
  -31.5180  -26.5758   20.2745 N   0  0  0  0  0  0  0  0  0  0  0  0
  -28.6832  -15.6459   20.5244 N   0  0  0  0  0  0  0  0  0  0  0  0
  -30.0241  -15.7262   20.4849 N   0  0  0  0  0  0  0  0  0  0  0  0
  -23.9121  -28.9575   23.3917 N   0  0  0  0  0  0  0  0  0  0  0  0
  -30.4882  -19.5175   20.4801 N   0  0  0  0  0  0  0  0  0  0  0  0
  -31.9841  -14.4404   20.1447 N   0  0  0  0  0  0  0  0  0  0  0  0
  -28.6611  -11.4182   19.6762 N   0  0  0  0  0  0  0  0  0  0  0  0
  -23.2350  -32.1609   21.9740 N   0  0  0  0  0  0  0  0  0  0  0  0
  -23.3090  -27.1167   26.1676 N   0  0  0  0  0  0  0  0  0  0  0  0
  -31.3903  -21.5798   19.7516 N   0  0  0  0  0  0  0  0  0  0  0  0
  -22.7743  -23.5845   25.6148 N   0  3  0  0  0  0  0  0  0  0  0  0
  -28.8528  -23.1236   21.1424 N   0  3  0  0  0  0  0  0  0  0  0  0
  -30.9366  -11.7018   19.6555 O   0  0  0  0  0  0  0  0  0  0  0  0
  -25.2199  -31.1244   22.6129 O   0  0  0  0  0  0  0  0  0  0  0  0
  -22.2219  -29.4549   24.9188 O   0  0  0  0  0  0  0  0  0  0  0  0
  -24.8145  -25.5135   25.4326 O   0  0  0  0  0  0  0  0  0  0  0  0
  -30.4886  -20.1126   18.2386 O   0  0  0  0  0  0  0  0  0  0  0  0
  -23.2004  -12.4345   20.1049 O   0  0  0  0  0  0  0  0  0  0  0  0
  -28.3055  -26.6843   19.7061 O   0  0  0  0  0  0  0  0  0  1  0  0
  -22.1157   -7.7003   22.7154 F   0  0  0  0  0  0  0  0  0  0  0  0
  -21.3469  -12.3370   22.1537 F   0  0  0  0  0  0  0  0  0  0  0  0
  1  2  1  0  0  0  0
  1  5  2  0  0  0  0
  2  6  2  0  0  0  0
  3  8  2  0  0  0  0
  3 17  1  0  0  0  0
  4  9  1  0  0  0  0
  4 17  2  0  0  0  0
  5 19  1  0  0  0  0
  6 21  1  0  0  0  0
  7 10  2  0  0  0  0
  7 20  1  0  0  0  0
  8 25  1  0  0  0  0
  9 25  2  0  0  0  0
 10 26  1  0  0  0  0
 11 12  2  0  0  0  0
 11 27  1  0  0  0  0
 12 28  1  0  0  0  0
 13 16  1  0  0  0  0
 13 23  2  0  0  0  0
 14 22  1  0  0  0  0
 14 26  2  0  0  0  0
 15 28  2  0  0  0  0
 15 29  1  0  0  0  0
 16 68  2  0  0  0  0
 17 30  1  0  0  0  0
 18 30  1  0  0  0  0
 18 32  2  0  0  0  0
 18 33  1  0  0  0  0
 19 21  2  0  0  0  0
 19 38  1  0  0  0  0
 20 22  2  0  0  0  0
 20 39  1  0  0  0  0
 21 51  1  0  0  0  0
 22 40  1  0  0  0  0
 23 24  1  0  0  0  0
 23 60  1  0  0  0  0
 24 31  2  0  0  0  0
 24 61  1  0  0  0  0
 25 85  1  0  0  0  0
 26 86  1  0  0  0  0
 27 29  2  0  0  0  0
 27 85  1  0  0  0  0
 28 87  1  0  0  0  0
 29 88  1  0  0  0  0
 30 69  2  0  0  0  0
 31 62  1  0  0  0  0
 31 68  1  0  0  0  0
 32 70  1  0  0  0  0
 32 73  1  0  0  0  0
 33 74  1  0  0  0  0
 33 80  2  0  0  0  0
 34 52  1  0  0  0  0
 34 75  1  0  0  0  0
 34 81  2  0  0  0  0
 35 65  1  0  0  0  0
 35 71  1  0  0  0  0
 35 82  2  0  0  0  0
 36 66  1  0  0  0  0
 36 76  1  0  0  0  0
 36 83  2  0  0  0  0
 37 72  1  0  0  0  0
 37 77  1  0  0  0  0
 37 84  2  0  0  0  0
 38 41  1  0  0  0  0
 39 52  1  0  0  0  0
 40 71  1  0  0  0  0
 41 45  1  0  0  0  0
 42 43  1  0  0  0  0
 42 46  1  0  0  0  0
 43 47  1  0  0  0  0
 44 48  1  0  0  0  0
 44 49  1  0  0  0  0
 45 51  1  0  0  0  0
 46 53  1  0  0  0  0
 47 53  1  0  0  0  0
 48 54  1  0  0  0  0
 49 72  1  0  0  0  0
 50 54  1  0  0  0  0
 50 72  1  0  0  0  0
 51 75  1  0  0  0  0
 52 71  1  0  0  0  0
 53 63  1  0  0  0  0
 54 70  1  0  0  0  0
 55 66  1  0  0  0  0
 56 67  1  0  0  0  0
 57 67  1  0  0  0  0
 58 67  1  0  0  0  0
 59 78  1  0  0  0  0
 60 77  1  0  0  0  0
 61 79  1  0  0  0  0
 62 86  1  0  0  0  0
 63 64  1  0  0  0  0
 64 79  1  0  0  0  0
 65 67  1  0  0  0  0
 65 76  1  0  0  0  0
 66 78  1  0  0  0  0
 69 70  1  0  0  0  0
M  CHG  2  78   1  79   1
M  ISO  4  37 100  62 101  77 100  86 101
M  END
> <Batch ID>
0126

> <Smiles>
CNC(C)C(=O)NC(C(=O)N1Cc2cc([101O:1][101CH2:1]c3nccc(C[100NH:0][100C:0](=O)N4CCCC(n5nc(-c6ccc(Oc7ccc(F)cc7F)cc6)c(C(N)=O)c5N)C4)c3CNCCC3CCCC3)ccc2CC1C(=O)NC1CCCc2ccccc21)C(C)(C)C

> <Shape>
0.260

> <Color>
0.064

> <Negative vol penalty>
0.000

$$$$

  -OEChem-04052320383D

 88 97  0     1  0  0  0  0  0999 V2000
  -28.3775  -36.2882   25.8704 C   0  0  0  0  0  0  0  0  0  0  0  0
  -28.8192  -35.6937   24.6928 C   0  0  0  0  0  0  0  0  0  0  0  0
  -23.7205  -17.1505   20.7241 C   0  0  0  0  0  0  0  0  0  0  0  0
  -25.3447  -17.0026   22.5066 C   0  0  0  0  0  0  0  0  0  0  0  0
  -27.6052  -35.5569   26.7720 C   0  0  0  0  0  0  0  0  0  0  0  0
  -28.4899  -34.3672   24.4166 C   0  0  0  0  0  0  0  0  0  0  0  0
  -27.0319  -30.0041   18.9253 C   0  0  0  0  0  0  0  0  0  0  0  0
  -29.3191  -24.1799   17.6043 C   0  0  0  0  0  0  0  0  0  0  0  0
  -23.3641  -18.4284   21.1548 C   0  0  0  0  0  0  0  0  0  0  0  0
  -24.9883  -18.2805   22.9373 C   0  0  0  0  0  0  0  0  0  0  0  0
  -27.4254  -28.7786   18.3895 C   0  0  0  0  0  0  0  0  0  0  0  0
  -25.6105  -21.4763   22.0315 C   0  0  0  0  0  0  0  0  0  0  0  0
  -26.6401  -22.3616   22.3505 C   0  0  0  0  0  0  0  0  0  0  0  0
  -29.5553  -22.8825   17.1636 C   0  0  0  0  0  0  0  0  0  0  0  0
  -26.0193  -27.6373   19.9830 C   0  0  0  0  0  0  0  0  0  0  0  0
  -25.7925  -22.5345   24.6063 C   0  0  0  0  0  0  0  0  0  0  0  0
  -27.9437  -24.5226   15.6944 C   0  0  0  0  0  0  0  0  0  0  0  0
  -24.7107  -16.4376   21.4000 C   0  0  0  0  0  0  0  0  0  0  0  0
  -24.2437  -13.9877   20.8634 C   0  0  0  0  0  0  0  0  0  0  0  0
  -27.2581  -34.2238   26.5022 C   0  0  0  0  0  0  0  0  0  0  0  0
  -26.1361  -30.0551   20.0029 C   0  0  0  0  0  0  0  0  0  0  0  0
  -27.7134  -33.6170   25.3160 C   0  0  0  0  0  0  0  0  0  0  0  0
  -25.6140  -28.8648   20.5290 C   0  0  0  0  0  0  0  0  0  0  0  0
  -28.4991  -25.0220   16.8615 C   0  0  0  0  0  0  0  0  0  0  0  0
  -23.9980  -18.9934   22.2614 C   0  0  0  0  0  0  0  0  0  0  0  0
  -26.9213  -27.5948   18.9202 C   0  0  0  0  0  0  0  0  0  0  0  0
  -24.6718  -21.1201   22.9999 C   0  0  0  0  0  0  0  0  0  0  0  0
  -26.7311  -22.8907   23.6379 C   0  0  0  0  0  0  0  0  0  0  0  0
  -24.7629  -21.6492   24.2873 C   0  0  0  0  0  0  0  0  0  0  0  0
  -25.0789  -15.1172   20.9558 C   0  0  0  0  0  0  0  0  0  0  0  0
  -28.9525  -22.4788   15.9831 C   0  0  0  0  0  0  0  0  0  0  0  0
  -25.0640  -12.9918   20.3926 C   0  0  0  0  0  0  0  0  0  0  0  0
  -22.8510  -13.8511   21.1752 C   0  0  0  0  0  0  0  0  0  0  0  0
  -26.2812  -31.1270   22.9918 C   0  0  0  0  0  0  0  0  0  0  0  0
  -23.1219  -30.3915   22.9961 C   0  0  0  0  0  0  0  0  0  0  0  0
  -20.5746  -28.5478   21.6700 C   0  0  0  0  0  0  0  0  0  0  0  0
  -30.1148  -13.0486   17.1774 C   0  0  0  0  0  0  0  0  0  0  0  0
  -26.4611  -33.4590   27.5291 C   0  0  0  0  0  0  0  0  0  0  0  0
  -25.7009  -31.3860   20.5521 C   0  0  0  0  0  0  0  0  0  0  0  0
  -24.6339  -28.8659   21.6727 C   0  0  0  0  0  0  0  0  0  0  0  0
  -25.8412  -32.1742   26.9857 C   0  0  0  0  0  0  0  0  0  0  0  0
  -29.6406  -11.5969   20.3936 C   0  0  0  0  0  0  0  0  0  0  0  0
  -26.8686  -31.3845   26.1810 C   0  0  0  0  0  0  0  0  0  0  0  0
  -28.3424  -12.2325   20.8941 C   0  0  0  0  0  0  0  0  0  0  0  0
  -29.6509  -18.8066   16.0777 C   0  0  0  0  0  0  0  0  0  0  0  0
  -30.0243  -19.6876   13.7663 C   0  0  0  0  0  0  0  0  0  0  0  0
  -30.4771  -12.5849   19.5836 C   0  0  0  0  0  0  0  0  0  0  0  0
  -28.8179  -20.0439   16.4121 C   0  0  0  0  0  0  0  0  0  0  0  0
  -29.1858  -20.9189   14.1055 C   0  0  0  0  0  0  0  0  0  0  0  0
  -28.4647  -13.8669   18.9673 C   0  0  0  0  0  0  0  0  0  0  0  0
  -27.3560  -32.1880   24.9692 C   0  0  1  0  0  0  0  0  0  0  0  0
  -25.1806  -31.3004   21.9837 C   0  0  1  0  0  0  0  0  0  0  0  0
  -29.5868  -18.4687   14.5850 C   0  0  0  0  0  0  0  0  0  0  0  0
  -27.5609  -12.8927   19.7422 C   0  0  2  0  0  0  0  0  0  0  0  0
  -18.1102  -28.1373   21.9051 C   0  0  0  0  0  0  0  0  0  0  0  0
  -23.6402  -28.7297   25.5021 C   0  0  0  0  0  0  0  0  0  0  0  0
  -21.4279  -27.6161   25.1366 C   0  0  0  0  0  0  0  0  0  0  0  0
  -21.5311  -30.0725   25.5586 C   0  0  0  0  0  0  0  0  0  0  0  0
  -20.0416  -29.4575   18.9046 C   0  0  0  0  0  0  0  0  0  0  0  0
  -28.2254  -26.4274   17.3101 C   0  0  0  0  0  0  0  0  0  1  0  0
  -30.4576  -17.2566   14.2635 C   0  0  0  0  0  0  0  0  0  0  0  0
  -29.6079  -13.5795   14.8067 C   0  0  0  0  0  0  0  0  0  0  0  0
  -30.4496  -14.7608   14.3614 C   0  0  0  0  0  0  0  0  0  0  0  0
  -22.3106  -29.1635   23.3318 C   0  0  1  0  0  0  0  0  0  0  0  0
  -19.1878  -28.9414   21.1945 C   0  0  2  0  0  0  0  0  0  0  0  0
  -22.2474  -28.8950   24.8620 C   0  0  0  0  0  0  0  0  0  0  0  0
  -28.1501  -23.2683   15.2344 N   0  0  0  0  0  0  0  0  0  0  0  0
  -26.3336  -14.8634   20.5745 N   0  0  0  0  0  0  0  0  0  0  0  0
  -26.2929  -13.5629   20.2380 N   0  0  0  0  0  0  0  0  0  0  0  0
  -29.1996  -21.1696   15.5531 N   0  0  0  0  0  0  0  0  0  0  0  0
  -24.2439  -30.1921   22.1793 N   0  0  0  0  0  0  0  0  0  0  0  0
  -29.6781  -13.1741   18.5065 N   0  0  0  0  0  0  0  0  0  0  0  0
  -24.8469  -11.6919   20.1000 N   0  0  0  0  0  0  0  0  0  0  0  0
  -22.4913  -13.4788   22.4776 N   0  0  0  0  0  0  0  0  0  0  0  0
  -26.3694  -32.1551   23.9109 N   0  0  0  0  0  0  0  0  0  0  0  0
  -21.0072  -29.3511   22.7038 N   0  0  0  0  0  0  0  0  0  0  0  0
  -29.2956  -13.6303   16.2176 N   0  0  0  0  0  0  0  0  0  0  0  0
  -19.0576  -28.7089   19.7282 N   0  3  0  0  0  0  0  0  0  0  0  0
  -29.7365  -16.0333   14.6703 N   0  3  0  0  0  0  0  0  0  0  0  0
  -21.9527  -14.0371   20.3196 O   0  0  0  0  0  0  0  0  0  0  0  0
  -26.9965  -30.1333   22.9405 O   0  0  0  0  0  0  0  0  0  0  0  0
  -22.7690  -31.4885   23.4364 O   0  0  0  0  0  0  0  0  0  0  0  0
  -21.2091  -27.6181   21.1764 O   0  0  0  0  0  0  0  0  0  0  0  0
  -31.1548  -12.4571   16.8685 O   0  0  0  0  0  0  0  0  0  0  0  0
  -23.6507  -20.2405   22.6819 O   0  0  0  0  0  0  0  0  0  0  0  0
  -27.3042  -26.3973   18.3995 O   0  0  0  0  0  0  0  0  0  1  0  0
  -27.7208  -23.7396   23.9445 F   0  0  0  0  0  0  0  0  0  0  0  0
  -23.8647  -21.3099   25.2222 F   0  0  0  0  0  0  0  0  0  0  0  0
  1  2  1  0  0  0  0
  1  5  2  0  0  0  0
  2  6  2  0  0  0  0
  3  9  2  0  0  0  0
  3 18  1  0  0  0  0
  4 10  1  0  0  0  0
  4 18  2  0  0  0  0
  5 20  1  0  0  0  0
  6 22  1  0  0  0  0
  7 11  2  0  0  0  0
  7 21  1  0  0  0  0
  8 14  2  0  0  0  0
  8 24  1  0  0  0  0
  9 25  1  0  0  0  0
 10 25  2  0  0  0  0
 11 26  1  0  0  0  0
 12 13  2  0  0  0  0
 12 27  1  0  0  0  0
 13 28  1  0  0  0  0
 14 31  1  0  0  0  0
 15 23  1  0  0  0  0
 15 26  2  0  0  0  0
 16 28  2  0  0  0  0
 16 29  1  0  0  0  0
 17 24  2  0  0  0  0
 17 67  1  0  0  0  0
 18 30  1  0  0  0  0
 19 30  1  0  0  0  0
 19 32  2  0  0  0  0
 19 33  1  0  0  0  0
 20 22  2  0  0  0  0
 20 38  1  0  0  0  0
 21 23  2  0  0  0  0
 21 39  1  0  0  0  0
 22 51  1  0  0  0  0
 23 40  1  0  0  0  0
 24 60  1  0  0  0  0
 25 85  1  0  0  0  0
 26 86  1  0  0  0  0
 27 29  2  0  0  0  0
 27 85  1  0  0  0  0
 28 87  1  0  0  0  0
 29 88  1  0  0  0  0
 30 68  2  0  0  0  0
 31 67  2  0  0  0  0
 31 70  1  0  0  0  0
 32 69  1  0  0  0  0
 32 73  1  0  0  0  0
 33 74  1  0  0  0  0
 33 80  2  0  0  0  0
 34 52  1  0  0  0  0
 34 75  1  0  0  0  0
 34 81  2  0  0  0  0
 35 64  1  0  0  0  0
 35 71  1  0  0  0  0
 35 82  2  0  0  0  0
 36 65  1  0  0  0  0
 36 76  1  0  0  0  0
 36 83  2  0  0  0  0
 37 72  1  0  0  0  0
 37 77  1  0  0  0  0
 37 84  2  0  0  0  0
 38 41  1  0  0  0  0
 39 52  1  0  0  0  0
 40 71  1  0  0  0  0
 41 43  1  0  0  0  0
 42 44  1  0  0  0  0
 42 47  1  0  0  0  0
 43 51  1  0  0  0  0
 44 54  1  0  0  0  0
 45 48  1  0  0  0  0
 45 53  1  0  0  0  0
 46 49  1  0  0  0  0
 46 53  1  0  0  0  0
 47 72  1  0  0  0  0
 48 70  1  0  0  0  0
 49 70  1  0  0  0  0
 50 54  1  0  0  0  0
 50 72  1  0  0  0  0
 51 75  1  0  0  0  0
 52 71  1  0  0  0  0
 53 61  1  0  0  0  0
 54 69  1  0  0  0  0
 55 65  1  0  0  0  0
 56 66  1  0  0  0  0
 57 66  1  0  0  0  0
 58 66  1  0  0  0  0
 59 78  1  0  0  0  0
 60 86  1  0  0  0  0
 61 79  1  0  0  0  0
 62 63  1  0  0  0  0
 62 77  1  0  0  0  0
 63 79  1  0  0  0  0
 64 66  1  0  0  0  0
 64 76  1  0  0  0  0
 65 78  1  0  0  0  0
 68 69  1  0  0  0  0
M  CHG  2  78   1  79   1
M  ISO  4  37 100  60 101  77 100  86 101
M  END
> <Batch ID>
0126

> <Smiles>
CNC(C)C(=O)NC(C(=O)N1Cc2cc([101O:1][101CH2:1]c3ccc(N4CCC(CNCC[100NH:0][100C:0](=O)N5CCCC(n6nc(-c7ccc(Oc8ccc(F)cc8F)cc7)c(C(N)=O)c6N)C5)CC4)nc3)ccc2CC1C(=O)NC1CCCc2ccccc21)C(C)(C)C

> <Shape>
0.244

> <Color>
0.093

> <Negative vol penalty>
0.000

$$$$

  -OEChem-04052320383D

 87 95  0     1  0  0  0  0  0999 V2000
  -16.0458  -30.4176   17.5423 C   0  0  0  0  0  0  0  0  0  0  0  0
  -17.2806  -30.5417   16.9135 C   0  0  0  0  0  0  0  0  0  0  0  0
  -22.7110  -10.4045   20.1336 C   0  0  0  0  0  0  0  0  0  0  0  0
  -23.7337  -10.0134   22.2873 C   0  0  0  0  0  0  0  0  0  0  0  0
  -15.9719  -30.4041   18.9345 C   0  0  0  0  0  0  0  0  0  0  0  0
  -18.4422  -30.6535   17.6768 C   0  0  0  0  0  0  0  0  0  0  0  0
  -23.7994  -25.8860   16.9966 C   0  0  0  0  0  0  0  0  0  0  0  0
  -21.8432   -9.3345   20.3514 C   0  0  0  0  0  0  0  0  0  0  0  0
  -22.8658   -8.9434   22.5051 C   0  0  0  0  0  0  0  0  0  0  0  0
  -24.9548  -25.1368   16.7732 C   0  0  0  0  0  0  0  0  0  0  0  0
  -22.6025   -5.7133   21.5420 C   0  0  0  0  0  0  0  0  0  0  0  0
  -29.9221  -20.8408   19.1541 C   0  0  0  0  0  0  0  0  0  0  0  0
  -23.1444   -4.5320   22.0485 C   0  0  0  0  0  0  0  0  0  0  0  0
  -30.3882  -19.6850   19.7708 C   0  0  0  0  0  0  0  0  0  0  0  0
  -26.0819  -26.3245   18.5527 C   0  0  0  0  0  0  0  0  0  0  0  0
  -21.7036   -4.6996   23.9807 C   0  0  0  0  0  0  0  0  0  0  0  0
  -23.6564  -10.7439   21.1015 C   0  0  0  0  0  0  0  0  0  0  0  0
  -24.3441  -13.1976   21.2215 C   0  0  0  0  0  0  0  0  0  0  0  0
  -17.1342  -30.5061   19.7151 C   0  0  0  0  0  0  0  0  0  0  0  0
  -23.7759  -26.8478   18.0104 C   0  0  0  0  0  0  0  0  0  0  0  0
  -18.3837  -30.6427   19.0807 C   0  0  0  0  0  0  0  0  0  0  0  0
  -24.9234  -27.0693   18.7894 C   0  0  0  0  0  0  0  0  0  0  0  0
  -21.9205   -8.6040   21.5372 C   0  0  0  0  0  0  0  0  0  0  0  0
  -26.0932  -25.3557   17.5492 C   0  0  0  0  0  0  0  0  0  0  0  0
  -21.6112   -6.3877   22.2548 C   0  0  0  0  0  0  0  0  0  0  0  0
  -28.6092  -21.2502   19.3587 C   0  0  0  0  0  0  0  0  0  0  0  0
  -22.6949   -4.0252   23.2679 C   0  0  0  0  0  0  0  0  0  0  0  0
  -21.1617   -5.8809   23.4741 C   0  0  0  0  0  0  0  0  0  0  0  0
  -24.5536  -11.8488   20.8769 C   0  0  0  0  0  0  0  0  0  0  0  0
  -27.8090  -20.4750   20.1825 C   0  0  0  0  0  0  0  0  0  0  0  0
  -29.5084  -18.9800   20.5763 C   0  0  0  0  0  0  0  0  0  0  0  0
  -25.4819  -13.8406   20.7989 C   0  0  0  0  0  0  0  0  0  0  0  0
  -23.2215  -13.8141   21.8660 C   0  0  0  0  0  0  0  0  0  0  0  0
  -21.7968  -29.4526   19.8473 C   0  0  0  0  0  0  0  0  0  0  0  0
  -23.4461  -27.9418   21.9467 C   0  0  0  0  0  0  0  0  0  0  0  0
  -25.1014  -25.7621   23.9829 C   0  0  0  0  0  0  0  0  0  0  0  0
  -31.0380  -14.1087   20.3479 C   0  0  0  0  0  0  0  0  0  0  0  0
  -16.9998  -30.5343   21.2171 C   0  0  0  0  0  0  0  0  0  0  0  0
  -22.5732  -27.7207   18.2459 C   0  0  0  0  0  0  0  0  0  0  0  0
  -24.8633  -28.1385   19.8459 C   0  0  0  0  0  0  0  0  0  0  0  0
  -18.3140  -30.2809   21.9511 C   0  0  0  0  0  0  0  0  0  0  0  0
  -29.2881  -12.2238   17.8859 C   0  0  0  0  0  0  0  0  0  0  0  0
  -19.4353  -31.1169   21.3424 C   0  0  0  0  0  0  0  0  0  0  0  0
  -27.8857  -12.0644   18.4757 C   0  0  0  0  0  0  0  0  0  0  0  0
  -30.3650  -12.1654   18.9670 C   0  0  0  0  0  0  0  0  0  0  0  0
  -28.7699  -12.9487   20.6746 C   0  0  0  0  0  0  0  0  0  0  0  0
  -19.6687  -30.7415   19.8740 C   0  0  1  0  0  0  0  0  0  0  0  0
  -22.3602  -28.0668   19.7305 C   0  0  1  0  0  0  0  0  0  0  0  0
  -27.6465  -13.0569   19.6294 C   0  0  2  0  0  0  0  0  0  0  0  0
  -25.3959  -19.8199   19.8966 C   0  0  0  0  0  0  0  0  0  0  0  0
  -25.8438  -24.6799   26.1218 C   0  0  0  0  0  0  0  0  0  0  0  0
  -25.4613  -30.2313   21.9799 C   0  0  0  0  0  0  0  0  0  0  0  0
  -26.5382  -29.1605   23.9703 C   0  0  0  0  0  0  0  0  0  0  0  0
  -24.1736  -29.9436   24.1044 C   0  0  0  0  0  0  0  0  0  0  0  0
  -22.7864  -23.9183   23.9892 C   0  0  0  0  0  0  0  0  0  0  0  0
  -31.3354  -17.3401   21.0217 C   0  0  0  0  0  0  0  0  0  0  0  0
  -31.5633  -16.0525   21.7988 C   0  0  0  0  0  0  0  0  0  0  0  0
  -26.0746  -21.1497   21.9226 C   0  0  0  0  0  0  0  0  0  0  0  0
  -27.0342  -23.2915   16.8343 C   0  0  0  0  0  0  0  0  0  1  0  0
  -28.1677  -22.4167   17.3338 C   0  0  0  0  0  0  0  0  0  0  0  0
  -26.3912  -20.8710   20.4349 C   0  0  1  0  0  0  0  0  0  0  0  0
  -24.7210  -27.8806   22.7493 C   0  0  1  0  0  0  0  0  0  0  0  0
  -24.6601  -25.0121   25.2268 C   0  0  2  0  0  0  0  0  0  0  0  0
  -25.2206  -29.2896   23.1766 C   0  0  0  0  0  0  0  0  0  0  0  0
  -25.7316  -11.6457   20.2811 N   0  0  0  0  0  0  0  0  0  0  0  0
  -28.2263  -19.3464   20.7987 N   0  0  0  0  0  0  0  0  0  0  0  0
  -26.2727  -12.8755   20.2480 N   0  0  0  0  0  0  0  0  0  0  0  0
  -23.5781  -28.0689   20.5586 N   0  0  0  0  0  0  0  0  0  0  0  0
  -30.0800  -13.1318   20.0304 N   0  0  0  0  0  0  0  0  0  0  0  0
  -25.8730  -15.1317   20.8484 N   0  0  0  0  0  0  0  0  0  0  0  0
  -22.1363  -13.0071   22.2340 N   0  0  0  0  0  0  0  0  0  0  0  0
  -29.9981  -17.8045   21.1979 N   0  0  0  0  0  0  0  0  0  0  0  0
  -20.4176  -29.5066   19.7810 N   0  0  0  0  0  0  0  0  0  0  0  0
  -24.4588  -26.9762   23.8637 N   0  0  0  0  0  0  0  0  0  0  0  0
  -30.6854  -14.9892   21.3635 N   0  0  0  0  0  0  0  0  0  0  0  0
  -26.9506  -22.2376   22.4287 N   0  3  0  0  0  0  0  0  0  0  0  0
  -23.9831  -23.7387   24.8510 N   0  3  0  0  0  0  0  0  0  0  0  0
  -23.1750  -15.0468   22.0936 O   0  0  0  0  0  0  0  0  0  0  0  0
  -22.5564  -30.4037   19.9887 O   0  0  0  0  0  0  0  0  0  0  0  0
  -22.3613  -27.8845   22.5325 O   0  0  0  0  0  0  0  0  0  0  0  0
  -25.9356  -25.3171   23.1977 O   0  0  0  0  0  0  0  0  0  0  0  0
  -32.1246  -14.1937   19.7657 O   0  0  0  0  0  0  0  0  0  0  0  0
  -21.0736   -7.5599   21.7502 O   0  0  0  0  0  0  0  0  0  0  0  0
  -27.2164  -24.6177   17.3287 O   0  0  0  0  0  0  0  0  0  1  0  0
  -28.1402  -22.3875   18.7557 O   0  0  0  0  0  0  0  0  0  0  0  0
  -23.2143   -2.8900   23.7534 F   0  0  0  0  0  0  0  0  0  0  0  0
  -20.2087   -6.5238   24.1628 F   0  0  0  0  0  0  0  0  0  0  0  0
  1  2  1  0  0  0  0
  1  5  2  0  0  0  0
  2  6  2  0  0  0  0
  3  8  2  0  0  0  0
  3 17  1  0  0  0  0
  4  9  1  0  0  0  0
  4 17  2  0  0  0  0
  5 19  1  0  0  0  0
  6 21  1  0  0  0  0
  7 10  2  0  0  0  0
  7 20  1  0  0  0  0
  8 23  1  0  0  0  0
  9 23  2  0  0  0  0
 10 24  1  0  0  0  0
 11 13  2  0  0  0  0
 11 25  1  0  0  0  0
 12 14  2  0  0  0  0
 12 26  1  0  0  0  0
 13 27  1  0  0  0  0
 14 31  1  0  0  0  0
 15 22  1  0  0  0  0
 15 24  2  0  0  0  0
 16 27  2  0  0  0  0
 16 28  1  0  0  0  0
 17 29  1  0  0  0  0
 18 29  1  0  0  0  0
 18 32  2  0  0  0  0
 18 33  1  0  0  0  0
 19 21  2  0  0  0  0
 19 38  1  0  0  0  0
 20 22  2  0  0  0  0
 20 39  1  0  0  0  0
 21 47  1  0  0  0  0
 22 40  1  0  0  0  0
 23 83  1  0  0  0  0
 24 84  1  0  0  0  0
 25 28  2  0  0  0  0
 25 83  1  0  0  0  0
 26 30  2  0  0  0  0
 26 85  1  0  0  0  0
 27 86  1  0  0  0  0
 28 87  1  0  0  0  0
 29 65  2  0  0  0  0
 30 61  1  0  0  0  0
 30 66  1  0  0  0  0
 31 66  2  0  0  0  0
 31 72  1  0  0  0  0
 32 67  1  0  0  0  0
 32 70  1  0  0  0  0
 33 71  1  0  0  0  0
 33 78  2  0  0  0  0
 34 48  1  0  0  0  0
 34 73  1  0  0  0  0
 34 79  2  0  0  0  0
 35 62  1  0  0  0  0
 35 68  1  0  0  0  0
 35 80  2  0  0  0  0
 36 63  1  0  0  0  0
 36 74  1  0  0  0  0
 36 81  2  0  0  0  0
 37 69  1  0  0  0  0
 37 75  1  0  0  0  0
 37 82  2  0  0  0  0
 38 41  1  0  0  0  0
 39 48  1  0  0  0  0
 40 68  1  0  0  0  0
 41 43  1  0  0  0  0
 42 44  1  0  0  0  0
 42 45  1  0  0  0  0
 43 47  1  0  0  0  0
 44 49  1  0  0  0  0
 45 69  1  0  0  0  0
 46 49  1  0  0  0  0
 46 69  1  0  0  0  0
 47 73  1  0  0  0  0
 48 68  1  0  0  0  0
 49 67  1  0  0  0  0
 50 61  1  0  0  0  0
 51 63  1  0  0  0  0
 52 64  1  0  0  0  0
 53 64  1  0  0  0  0
 54 64  1  0  0  0  0
 55 77  1  0  0  0  0
 56 57  1  0  0  0  0
 56 72  1  0  0  0  0
 57 75  1  0  0  0  0
 58 61  1  0  0  0  0
 58 76  1  0  0  0  0
 59 60  1  0  0  0  0
 59 84  1  0  0  0  0
 60 85  1  0  0  0  0
 62 64  1  0  0  0  0
 62 74  1  0  0  0  0
 63 77  1  0  0  0  0
 65 67  1  0  0  0  0
M  CHG  2  76   1  77   1
M  ISO  4  37 100  59 101  75 100  84 101
M  END
> <Batch ID>
0126

> <Smiles>
CNC(C)C(=O)NC(C(=O)N1Cc2cc([101O:1][101CH2:1]COc3ccc(NCC[100NH:0][100C:0](=O)N4CCCC(n5nc(-c6ccc(Oc7ccc(F)cc7F)cc6)c(C(N)=O)c5N)C4)nc3C(C)CN)ccc2CC1C(=O)NC1CCCc2ccccc21)C(C)(C)C

> <Shape>
0.285

> <Color>
0.145

> <Negative vol penalty>
0.000

$$$$

  -OEChem-04052320383D

 86 95  0     1  0  0  0  0  0999 V2000
  -19.8703  -32.6308   15.5751 C   0  0  0  0  0  0  0  0  0  0  0  0
  -20.8348  -31.6334   15.6775 C   0  0  0  0  0  0  0  0  0  0  0  0
  -22.1749  -12.1650   21.7505 C   0  0  0  0  0  0  0  0  0  0  0  0
  -23.6254  -10.2576   22.0589 C   0  0  0  0  0  0  0  0  0  0  0  0
  -19.9921  -33.7967   16.3299 C   0  0  0  0  0  0  0  0  0  0  0  0
  -21.9222  -31.8019   16.5340 C   0  0  0  0  0  0  0  0  0  0  0  0
  -24.7707  -27.4501   19.7672 C   0  0  0  0  0  0  0  0  0  0  0  0
  -29.1010  -19.9598   17.7260 C   0  0  0  0  0  0  0  0  0  0  0  0
  -21.1548  -11.4990   22.4297 C   0  0  0  0  0  0  0  0  0  0  0  0
  -22.6052   -9.5916   22.7381 C   0  0  0  0  0  0  0  0  0  0  0  0
  -25.9418  -26.7284   19.5408 C   0  0  0  0  0  0  0  0  0  0  0  0
  -21.2424   -9.6197   25.8304 C   0  0  0  0  0  0  0  0  0  0  0  0
  -21.5768   -8.9589   27.0124 C   0  0  0  0  0  0  0  0  0  0  0  0
  -28.6778  -18.8715   18.4809 C   0  0  0  0  0  0  0  0  0  0  0  0
  -27.1636  -28.2922   20.9123 C   0  0  0  0  0  0  0  0  0  0  0  0
  -20.8373   -6.8685   26.0529 C   0  0  0  0  0  0  0  0  0  0  0  0
  -23.4102  -11.5443   21.5650 C   0  0  0  0  0  0  0  0  0  0  0  0
  -24.4349  -12.7048   19.5375 C   0  0  0  0  0  0  0  0  0  0  0  0
  -21.0764  -33.9754   17.2033 C   0  0  0  0  0  0  0  0  0  0  0  0
  -24.7893  -28.6064   20.5604 C   0  0  0  0  0  0  0  0  0  0  0  0
  -22.0593  -32.9719   17.3002 C   0  0  0  0  0  0  0  0  0  0  0  0
  -25.9908  -29.0253   21.1494 C   0  0  0  0  0  0  0  0  0  0  0  0
  -30.3904  -20.4534   17.8902 C   0  0  0  0  0  0  0  0  0  0  0  0
  -21.3699  -10.2124   22.9235 C   0  0  0  0  0  0  0  0  0  0  0  0
  -27.1391  -27.1510   20.1109 C   0  0  0  0  0  0  0  0  0  0  0  0
  -20.7054   -8.9049   24.7597 C   0  0  0  0  0  0  0  0  0  0  0  0
  -21.3743   -7.5833   27.1237 C   0  0  0  0  0  0  0  0  0  0  0  0
  -20.5029   -7.5294   24.8709 C   0  0  0  0  0  0  0  0  0  0  0  0
  -24.4643  -12.2315   20.8630 C   0  0  0  0  0  0  0  0  0  0  0  0
  -31.2113  -19.8283   18.8149 C   0  0  0  0  0  0  0  0  0  0  0  0
  -29.5755  -18.3171   19.3790 C   0  0  0  0  0  0  0  0  0  0  0  0
  -25.6692  -13.2774   19.3500 C   0  0  0  0  0  0  0  0  0  0  0  0
  -23.3857  -12.6334   18.5630 C   0  0  0  0  0  0  0  0  0  0  0  0
  -24.1460  -31.6791   20.0619 C   0  0  0  0  0  0  0  0  0  0  0  0
  -24.6037  -31.8931   23.2661 C   0  0  0  0  0  0  0  0  0  0  0  0
  -26.0285  -30.5947   26.0823 C   0  0  0  0  0  0  0  0  0  0  0  0
  -29.8610  -16.4983   21.0986 C   0  0  0  0  0  0  0  0  0  0  0  0
  -21.1901  -35.2731   17.9634 C   0  0  0  0  0  0  0  0  0  0  0  0
  -23.5123  -29.3586   20.8169 C   0  0  0  0  0  0  0  0  0  0  0  0
  -26.0603  -30.2485   22.0254 C   0  0  0  0  0  0  0  0  0  0  0  0
  -22.1755  -35.2127   19.1277 C   0  0  0  0  0  0  0  0  0  0  0  0
  -29.8442  -13.1149   22.2074 C   0  0  0  0  0  0  0  0  0  0  0  0
  -23.4791  -34.5523   18.6901 C   0  0  0  0  0  0  0  0  0  0  0  0
  -28.4406  -12.6224   21.8474 C   0  0  0  0  0  0  0  0  0  0  0  0
  -29.8334  -14.5715   22.6676 C   0  0  0  0  0  0  0  0  0  0  0  0
  -31.7710  -23.8519   17.2352 C   0  0  0  0  0  0  0  0  0  0  0  0
  -27.7779  -15.0169   21.3847 C   0  0  0  0  0  0  0  0  0  0  0  0
  -29.5401  -23.3955   18.0638 C   0  0  0  0  0  0  0  0  0  0  0  0
  -31.8564  -25.1247   18.0679 C   0  0  0  0  0  0  0  0  0  0  0  0
  -23.2403  -33.1070   18.2367 C   0  0  1  0  0  0  0  0  0  0  0  0
  -23.7453  -30.8111   21.2211 C   0  0  1  0  0  0  0  0  0  0  0  0
  -27.7470  -13.5745   20.8535 C   0  0  2  0  0  0  0  0  0  0  0  0
  -29.5643  -24.6586   18.9305 C   0  0  2  0  0  0  0  0  0  0  0  0
  -32.6058  -20.3172   19.0336 C   0  0  0  0  0  0  0  0  0  0  0  0
  -26.2556  -31.0111   28.5465 C   0  0  0  0  0  0  0  0  0  0  0  0
  -26.6260  -34.1075   22.7031 C   0  0  0  0  0  0  0  0  0  0  0  0
  -27.4879  -33.8178   25.0358 C   0  0  0  0  0  0  0  0  0  0  0  0
  -25.1285  -34.5351   24.6598 C   0  0  0  0  0  0  0  0  0  0  0  0
  -24.7125  -28.0305   26.7546 C   0  0  0  0  0  0  0  0  0  0  0  0
  -30.8534  -21.6292   17.0794 C   0  0  0  0  0  0  0  0  0  0  0  0
  -28.1857  -25.2887   19.0658 C   0  0  0  0  0  0  0  0  0  1  0  0
  -25.7922  -32.1470   24.1616 C   0  0  1  0  0  0  0  0  0  0  0  0
  -25.4578  -30.3079   27.4594 C   0  0  2  0  0  0  0  0  0  0  0  0
  -26.2580  -33.6299   24.1221 C   0  0  0  0  0  0  0  0  0  0  0  0
  -25.6253  -12.4815   21.4742 N   0  0  0  0  0  0  0  0  0  0  0  0
  -30.8357  -18.7691   19.5663 N   0  0  0  0  0  0  0  0  0  0  0  0
  -26.3370  -13.1181   20.5285 N   0  0  0  0  0  0  0  0  0  0  0  0
  -24.7861  -30.9539   22.2412 N   0  0  0  0  0  0  0  0  0  0  0  0
  -29.1644  -15.4149   21.6746 N   0  0  0  0  0  0  0  0  0  0  0  0
  -30.8956  -22.8579   17.8717 N   0  0  1  0  0  0  0  0  0  0  0  0
  -26.2377  -13.8965   18.2936 N   0  0  0  0  0  0  0  0  0  0  0  0
  -23.3377  -11.5199   17.7133 N   0  0  0  0  0  0  0  0  0  0  0  0
  -29.1345  -17.2085   20.1434 N   0  0  0  0  0  0  0  0  0  0  0  0
  -23.0802  -32.2377   19.3826 N   0  0  0  0  0  0  0  0  0  0  0  0
  -25.4115  -31.6755   25.4887 N   0  0  0  0  0  0  0  0  0  0  0  0
  -30.4798  -25.6573   18.2879 N   0  3  0  0  0  0  0  0  0  0  0  0
  -25.4787  -28.8433   27.7340 N   0  3  0  0  0  0  0  0  0  0  0  0
  -22.5261  -13.5385   18.4381 O   0  0  0  0  0  0  0  0  0  0  0  0
  -25.3342  -31.8318   19.8038 O   0  0  0  0  0  0  0  0  0  0  0  0
  -23.5501  -32.5003   23.4729 O   0  0  0  0  0  0  0  0  0  0  0  0
  -26.9338  -29.9290   25.5846 O   0  0  0  0  0  0  0  0  0  0  0  0
  -31.0263  -16.7590   21.4086 O   0  0  0  0  0  0  0  0  0  0  0  0
  -20.3747   -9.5623   23.5866 O   0  0  0  0  0  0  0  0  0  0  0  0
  -28.2838  -26.4488   19.8909 O   0  0  0  0  0  0  0  0  0  1  0  0
  -21.6968   -6.9486   28.2583 F   0  0  0  0  0  0  0  0  0  0  0  0
  -19.9885   -6.8371   23.8452 F   0  0  0  0  0  0  0  0  0  0  0  0
  1  2  1  0  0  0  0
  1  5  2  0  0  0  0
  2  6  2  0  0  0  0
  3  9  2  0  0  0  0
  3 17  1  0  0  0  0
  4 10  1  0  0  0  0
  4 17  2  0  0  0  0
  5 19  1  0  0  0  0
  6 21  1  0  0  0  0
  7 11  2  0  0  0  0
  7 20  1  0  0  0  0
  8 14  2  0  0  0  0
  8 23  1  0  0  0  0
  9 24  1  0  0  0  0
 10 24  2  0  0  0  0
 11 25  1  0  0  0  0
 12 13  2  0  0  0  0
 12 26  1  0  0  0  0
 13 27  1  0  0  0  0
 14 31  1  0  0  0  0
 15 22  1  0  0  0  0
 15 25  2  0  0  0  0
 16 27  2  0  0  0  0
 16 28  1  0  0  0  0
 17 29  1  0  0  0  0
 18 29  1  0  0  0  0
 18 32  2  0  0  0  0
 18 33  1  0  0  0  0
 19 21  2  0  0  0  0
 19 38  1  0  0  0  0
 20 22  2  0  0  0  0
 20 39  1  0  0  0  0
 21 50  1  0  0  0  0
 22 40  1  0  0  0  0
 23 30  2  0  0  0  0
 23 60  1  0  0  0  0
 24 83  1  0  0  0  0
 25 84  1  0  0  0  0
 26 28  2  0  0  0  0
 26 83  1  0  0  0  0
 27 85  1  0  0  0  0
 28 86  1  0  0  0  0
 29 65  2  0  0  0  0
 30 54  1  0  0  0  0
 30 66  1  0  0  0  0
 31 66  2  0  0  0  0
 31 73  1  0  0  0  0
 32 67  1  0  0  0  0
 32 71  1  0  0  0  0
 33 72  1  0  0  0  0
 33 78  2  0  0  0  0
 34 51  1  0  0  0  0
 34 74  1  0  0  0  0
 34 79  2  0  0  0  0
 35 62  1  0  0  0  0
 35 68  1  0  0  0  0
 35 80  2  0  0  0  0
 36 63  1  0  0  0  0
 36 75  1  0  0  0  0
 36 81  2  0  0  0  0
 37 69  1  0  0  0  0
 37 73  1  0  0  0  0
 37 82  2  0  0  0  0
 38 41  1  0  0  0  0
 39 51  1  0  0  0  0
 40 68  1  0  0  0  0
 41 43  1  0  0  0  0
 42 44  1  0  0  0  0
 42 45  1  0  0  0  0
 43 50  1  0  0  0  0
 44 52  1  0  0  0  0
 45 69  1  0  0  0  0
 46 49  1  0  0  0  0
 46 70  1  0  0  0  0
 47 52  1  0  0  0  0
 47 69  1  0  0  0  0
 48 53  1  0  0  0  0
 48 70  1  0  0  0  0
 49 76  1  0  0  0  0
 50 74  1  0  0  0  0
 51 68  1  0  0  0  0
 52 67  1  0  0  0  0
 53 61  1  0  0  0  0
 53 76  1  0  0  0  0
 55 63  1  0  0  0  0
 56 64  1  0  0  0  0
 57 64  1  0  0  0  0
 58 64  1  0  0  0  0
 59 77  1  0  0  0  0
 60 70  1  0  0  0  0
 61 84  1  0  0  0  0
 62 64  1  0  0  0  0
 62 75  1  0  0  0  0
 63 77  1  0  0  0  0
 65 67  1  0  0  0  0
M  CHG  2  76   1  77   1
M  ISO  4  37 100  61 101  73 100  84 101
M  END
> <Batch ID>
0126

> <Smiles>
CNC(C)C(=O)NC(C(=O)N1Cc2cc([101O:1][101CH2:1]C3CN(Cc4ccc([100NH:0][100C:0](=O)N5CCCC(n6nc(-c7ccc(Oc8ccc(F)cc8F)cc7)c(C(N)=O)c6N)C5)nc4C)CCN3)ccc2CC1C(=O)NC1CCCc2ccccc21)C(C)(C)C

> <Shape>
0.287

> <Color>
0.087

> <Negative vol penalty>
0.000

$$$$

  -OEChem-04052320383D

 83 92  0     1  0  0  0  0  0999 V2000
  -20.2290  -31.1688   23.9725 C   0  0  0  0  0  0  0  0  0  0  0  0
  -21.5092  -30.6758   23.7414 C   0  0  0  0  0  0  0  0  0  0  0  0
  -26.5840  -17.7746   20.0146 C   0  0  0  0  0  0  0  0  0  0  0  0
  -27.7905  -17.9307   22.1019 C   0  0  0  0  0  0  0  0  0  0  0  0
  -19.1173  -30.3701   23.7073 C   0  0  0  0  0  0  0  0  0  0  0  0
  -21.6786  -29.3834   23.2460 C   0  0  0  0  0  0  0  0  0  0  0  0
  -25.1052  -29.1631   19.5238 C   0  0  0  0  0  0  0  0  0  0  0  0
  -25.9335  -16.6303   20.4762 C   0  0  0  0  0  0  0  0  0  0  0  0
  -27.1400  -16.7865   22.5636 C   0  0  0  0  0  0  0  0  0  0  0  0
  -26.4493  -29.1898   19.8933 C   0  0  0  0  0  0  0  0  0  0  0  0
  -24.2203  -13.4607   20.9685 C   0  0  0  0  0  0  0  0  0  0  0  0
  -24.1175  -12.3756   20.0981 C   0  0  0  0  0  0  0  0  0  0  0  0
  -32.4226  -26.4695   19.4994 C   0  0  0  0  0  0  0  0  0  0  0  0
  -26.5612  -26.7938   19.6369 C   0  0  0  0  0  0  0  0  0  0  0  0
  -33.6637  -26.7879   21.5429 C   0  0  0  0  0  0  0  0  0  0  0  0
  -26.5268  -12.2549   19.9642 C   0  0  0  0  0  0  0  0  0  0  0  0
  -27.5126  -18.4248   20.8274 C   0  0  0  0  0  0  0  0  0  0  0  0
  -27.7630  -20.9416   20.4954 C   0  0  0  0  0  0  0  0  0  0  0  0
  -19.2729  -29.0707   23.1993 C   0  0  0  0  0  0  0  0  0  0  0  0
  -24.4751  -27.9482   19.2181 C   0  0  0  0  0  0  0  0  0  0  0  0
  -20.5680  -28.5661   22.9750 C   0  0  0  0  0  0  0  0  0  0  0  0
  -31.5489  -27.5118   19.8474 C   0  0  0  0  0  0  0  0  0  0  0  0
  -25.2097  -26.7547   19.2613 C   0  0  0  0  0  0  0  0  0  0  0  0
  -31.7557  -28.2115   21.0499 C   0  0  0  0  0  0  0  0  0  0  0  0
  -33.4720  -26.1087   20.3437 C   0  0  0  0  0  0  0  0  0  0  0  0
  -32.8091  -27.8316   21.8958 C   0  0  0  0  0  0  0  0  0  0  0  0
  -26.2114  -16.1363   21.7507 C   0  0  0  0  0  0  0  0  0  0  0  0
  -27.1767  -28.0048   19.9527 C   0  0  0  0  0  0  0  0  0  0  0  0
  -25.4763  -13.9430   21.3367 C   0  0  0  0  0  0  0  0  0  0  0  0
  -25.2708  -11.7727   19.5960 C   0  0  0  0  0  0  0  0  0  0  0  0
  -26.6295  -13.3400   20.8346 C   0  0  0  0  0  0  0  0  0  0  0  0
  -28.1853  -19.6065   20.3509 C   0  0  0  0  0  0  0  0  0  0  0  0
  -28.7413  -21.6801   19.8756 C   0  0  0  0  0  0  0  0  0  0  0  0
  -26.5913  -21.4673   21.1328 C   0  0  0  0  0  0  0  0  0  0  0  0
  -22.0434  -26.3110   20.4470 C   0  0  0  0  0  0  0  0  0  0  0  0
  -22.5337  -24.4024   17.8704 C   0  0  0  0  0  0  0  0  0  0  0  0
  -24.6798  -23.2683   15.4715 C   0  0  0  0  0  0  0  0  0  0  0  0
  -34.1245  -22.7725   18.8890 C   0  0  0  0  0  0  0  0  0  0  0  0
  -18.0429  -28.2278   22.9727 C   0  0  0  0  0  0  0  0  0  0  0  0
  -23.0316  -27.9394   18.7954 C   0  0  0  0  0  0  0  0  0  0  0  0
  -30.4437  -27.8861   18.8872 C   0  0  0  0  0  0  0  0  0  0  0  0
  -30.8347  -29.3225   21.4849 C   0  0  0  0  0  0  0  0  0  0  0  0
  -24.5853  -25.4265   18.9230 C   0  0  0  0  0  0  0  0  0  0  0  0
  -18.2959  -27.0044   22.0955 C   0  0  0  0  0  0  0  0  0  0  0  0
  -30.0051  -29.8985   20.3373 C   0  0  0  0  0  0  0  0  0  0  0  0
  -32.5858  -20.2333   16.9238 C   0  0  0  0  0  0  0  0  0  0  0  0
  -19.5584  -26.2765   22.5461 C   0  0  0  0  0  0  0  0  0  0  0  0
  -31.2726  -19.9499   17.6555 C   0  0  0  0  0  0  0  0  0  0  0  0
  -33.7208  -20.5378   17.8990 C   0  0  0  0  0  0  0  0  0  0  0  0
  -32.1211  -21.3303   19.5980 C   0  0  0  0  0  0  0  0  0  0  0  0
  -20.7918  -27.1782   22.4148 C   0  0  1  0  0  0  0  0  0  0  0  0
  -22.3563  -26.5873   19.0036 C   0  0  1  0  0  0  0  0  0  0  0  0
  -30.9338  -21.0726   18.6545 C   0  0  2  0  0  0  0  0  0  0  0  0
  -29.3728  -28.7937   19.4979 C   0  0  2  0  0  0  0  0  0  1  0  0
  -33.0497  -28.5181   23.2032 C   0  0  0  0  0  0  0  0  0  0  0  0
  -24.8043  -21.6838   13.5295 C   0  0  0  0  0  0  0  0  0  0  0  0
  -22.7167  -22.0499   19.8048 C   0  0  0  0  0  0  0  0  0  0  0  0
  -23.7622  -20.7097   17.9665 C   0  0  0  0  0  0  0  0  0  0  0  0
  -21.4384  -21.5790   17.7075 C   0  0  0  0  0  0  0  0  0  0  0  0
  -25.2750  -25.4591   13.5727 C   0  0  0  0  0  0  0  0  0  0  0  0
  -34.3873  -24.9953   19.9609 C   0  0  0  0  0  0  0  0  0  0  0  0
  -23.3845  -23.1883   17.5857 C   0  0  1  0  0  0  0  0  0  0  0  0
  -24.5204  -23.1115   13.9700 C   0  0  2  0  0  0  0  0  0  0  0  0
  -22.8370  -21.9063   18.2744 C   0  0  0  0  0  0  0  0  0  0  0  0
  -29.3417  -19.4999   19.6911 N   0  0  0  0  0  0  0  0  0  0  0  0
  -29.6543  -20.7776   19.4153 N   0  0  0  0  0  0  0  0  0  0  0  0
  -23.1695  -25.4691   18.5214 N   0  0  0  0  0  0  0  0  0  0  0  0
  -33.3360  -21.6122   18.8175 N   0  0  0  0  0  0  0  0  0  0  0  0
  -28.9009  -23.0070   19.6849 N   0  0  0  0  0  0  0  0  0  0  0  0
  -25.6901  -20.5688   21.7201 N   0  0  0  0  0  0  0  0  0  0  0  0
  -21.2193  -27.2521   21.0342 N   0  0  0  0  0  0  0  0  0  0  0  0
  -23.4834  -23.0906   16.1335 N   0  0  0  0  0  0  0  0  0  0  0  0
  -33.6856  -23.7441   19.7801 N   0  0  0  0  0  0  0  0  0  0  0  0
  -25.4581  -24.0202   13.2518 N   0  3  0  0  0  0  0  0  0  0  0  0
  -26.3422  -22.6963   21.1659 O   0  0  0  0  0  0  0  0  0  0  0  0
  -22.5136  -25.3169   20.9876 O   0  0  0  0  0  0  0  0  0  0  0  0
  -21.3506  -24.4071   17.5214 O   0  0  0  0  0  0  0  0  0  0  0  0
  -25.7586  -23.5195   16.0041 O   0  0  0  0  0  0  0  0  0  0  0  0
  -35.1411  -22.9330   18.2051 O   0  0  0  0  0  0  0  0  0  0  0  0
  -25.5767  -15.0198   22.2015 O   0  0  0  0  0  0  0  0  0  0  0  0
  -28.4886  -28.0280   20.3137 O   0  0  0  0  0  0  0  0  0  1  0  0
  -25.1720  -10.7297   18.7614 F   0  0  0  0  0  0  0  0  0  0  0  0
  -27.8390  -13.7981   21.1856 F   0  0  0  0  0  0  0  0  0  0  0  0
  1  2  1  0  0  0  0
  1  5  2  0  0  0  0
  2  6  2  0  0  0  0
  3  8  2  0  0  0  0
  3 17  1  0  0  0  0
  4  9  1  0  0  0  0
  4 17  2  0  0  0  0
  5 19  1  0  0  0  0
  6 21  1  0  0  0  0
  7 10  2  0  0  0  0
  7 20  1  0  0  0  0
  8 27  1  0  0  0  0
  9 27  2  0  0  0  0
 10 28  1  0  0  0  0
 11 12  2  0  0  0  0
 11 29  1  0  0  0  0
 12 30  1  0  0  0  0
 13 22  1  0  0  0  0
 13 25  2  0  0  0  0
 14 23  1  0  0  0  0
 14 28  2  0  0  0  0
 15 25  1  0  0  0  0
 15 26  2  0  0  0  0
 16 30  2  0  0  0  0
 16 31  1  0  0  0  0
 17 32  1  0  0  0  0
 18 32  1  0  0  0  0
 18 33  2  0  0  0  0
 18 34  1  0  0  0  0
 19 21  2  0  0  0  0
 19 39  1  0  0  0  0
 20 23  2  0  0  0  0
 20 40  1  0  0  0  0
 21 51  1  0  0  0  0
 22 24  2  0  0  0  0
 22 41  1  0  0  0  0
 23 43  1  0  0  0  0
 24 26  1  0  0  0  0
 24 42  1  0  0  0  0
 25 61  1  0  0  0  0
 26 55  1  0  0  0  0
 27 80  1  0  0  0  0
 28 81  1  0  0  0  0
 29 31  2  0  0  0  0
 29 80  1  0  0  0  0
 30 82  1  0  0  0  0
 31 83  1  0  0  0  0
 32 65  2  0  0  0  0
 33 66  1  0  0  0  0
 33 69  1  0  0  0  0
 34 70  1  0  0  0  0
 34 75  2  0  0  0  0
 35 52  1  0  0  0  0
 35 71  1  0  0  0  0
 35 76  2  0  0  0  0
 36 62  1  0  0  0  0
 36 67  1  0  0  0  0
 36 77  2  0  0  0  0
 37 63  1  0  0  0  0
 37 72  1  0  0  0  0
 37 78  2  0  0  0  0
 38 68  1  0  0  0  0
 38 73  1  0  0  0  0
 38 79  2  0  0  0  0
 39 44  1  0  0  0  0
 40 52  1  0  0  0  0
 41 54  1  0  0  0  0
 42 45  1  0  0  0  0
 43 67  1  0  0  0  0
 44 47  1  0  0  0  0
 45 54  1  0  0  0  0
 46 48  1  0  0  0  0
 46 49  1  0  0  0  0
 47 51  1  0  0  0  0
 48 53  1  0  0  0  0
 49 68  1  0  0  0  0
 50 53  1  0  0  0  0
 50 68  1  0  0  0  0
 51 71  1  0  0  0  0
 52 67  1  0  0  0  0
 53 66  1  0  0  0  0
 54 81  1  0  0  0  0
 56 63  1  0  0  0  0
 57 64  1  0  0  0  0
 58 64  1  0  0  0  0
 59 64  1  0  0  0  0
 60 74  1  0  0  0  0
 61 73  1  0  0  0  0
 62 64  1  0  0  0  0
 62 72  1  0  0  0  0
 63 74  1  0  0  0  0
 65 66  1  0  0  0  0
M  CHG  1  74   1
M  ISO  4  38 100  54 101  73 100  81 101
M  END
> <Batch ID>
0126

> <Smiles>
CNC(C)C(=O)NC(C(=O)N1Cc2cc([101O:1][101CH:1]3CCc4c(C)cc(C[100NH:0][100C:0](=O)N5CCCC(n6nc(-c7ccc(Oc8ccc(F)cc8F)cc7)c(C(N)=O)c6N)C5)cc4C3)ccc2CC1C(=O)NC1CCCc2ccccc21)C(C)(C)C

> <Shape>
0.203

> <Color>
0.071

> <Negative vol penalty>
0.000

$$$$

  -OEChem-04052320383D

 86 94  0     1  0  0  0  0  0999 V2000
  -27.5028  -33.3100   26.5080 C   0  0  0  0  0  0  0  0  0  0  0  0
  -27.7774  -32.1777   25.7479 C   0  0  0  0  0  0  0  0  0  0  0  0
  -23.4743  -11.1320   23.1165 C   0  0  0  0  0  0  0  0  0  0  0  0
  -21.9458  -12.2374   21.6069 C   0  0  0  0  0  0  0  0  0  0  0  0
  -26.1893  -33.6006   26.8744 C   0  0  0  0  0  0  0  0  0  0  0  0
  -26.7387  -31.3345   25.3547 C   0  0  0  0  0  0  0  0  0  0  0  0
  -27.0922  -29.9522   20.4957 C   0  0  0  0  0  0  0  0  0  0  0  0
  -22.3946  -10.6439   23.8524 C   0  0  0  0  0  0  0  0  0  0  0  0
  -20.8660  -11.7493   22.3428 C   0  0  0  0  0  0  0  0  0  0  0  0
  -28.0123  -28.9524   20.1835 C   0  0  0  0  0  0  0  0  0  0  0  0
  -20.1319   -8.1444   23.5961 C   0  0  0  0  0  0  0  0  0  0  0  0
  -20.1617   -6.8036   23.9793 C   0  0  0  0  0  0  0  0  0  0  0  0
  -26.2253  -27.3329   20.1302 C   0  0  0  0  0  0  0  0  0  0  0  0
  -28.2740  -23.1245   23.3930 C   0  0  0  0  0  0  0  0  0  0  0  0
  -20.0616   -7.4649   26.3009 C   0  0  0  0  0  0  0  0  0  0  0  0
  -26.5664  -21.6899   23.0830 C   0  0  0  0  0  0  0  0  0  0  0  0
  -23.2499  -11.9288   21.9938 C   0  0  0  0  0  0  0  0  0  0  0  0
  -24.9976  -11.8145   20.1390 C   0  0  0  0  0  0  0  0  0  0  0  0
  -25.1328  -32.7658   26.4773 C   0  0  0  0  0  0  0  0  0  0  0  0
  -25.7309  -29.6474   20.6385 C   0  0  0  0  0  0  0  0  0  0  0  0
  -25.4100  -31.6135   25.7172 C   0  0  0  0  0  0  0  0  0  0  0  0
  -25.2896  -28.3311   20.4418 C   0  0  0  0  0  0  0  0  0  0  0  0
  -27.3721  -22.2509   24.0492 C   0  0  0  0  0  0  0  0  0  0  0  0
  -21.0904  -10.9525   23.4656 C   0  0  0  0  0  0  0  0  0  0  0  0
  -27.5793  -27.6420   20.0036 C   0  0  0  0  0  0  0  0  0  0  0  0
  -20.0670   -9.1455   24.5653 C   0  0  0  0  0  0  0  0  0  0  0  0
  -20.1266   -6.4638   25.3317 C   0  0  0  0  0  0  0  0  0  0  0  0
  -20.0318   -8.8057   25.9177 C   0  0  0  0  0  0  0  0  0  0  0  0
  -24.3649  -12.4338   21.2335 C   0  0  0  0  0  0  0  0  0  0  0  0
  -27.9918  -23.0709   22.0458 C   0  0  0  0  0  0  0  0  0  0  0  0
  -25.9900  -12.6914   19.7750 C   0  0  0  0  0  0  0  0  0  0  0  0
  -24.7136  -10.5589   19.5078 C   0  0  0  0  0  0  0  0  0  0  0  0
  -28.6674  -23.8116   20.9494 C   0  0  0  0  0  0  0  0  0  0  0  0
  -23.6289  -29.8291   23.0160 C   0  0  0  0  0  0  0  0  0  0  0  0
  -21.5260  -28.9599   20.7041 C   0  0  0  0  0  0  0  0  0  0  0  0
  -20.9931  -27.4410   17.6948 C   0  0  0  0  0  0  0  0  0  0  0  0
  -26.5078  -18.5364   20.4261 C   0  0  0  0  0  0  0  0  0  0  0  0
  -23.7348  -33.0953   26.9374 C   0  0  0  0  0  0  0  0  0  0  0  0
  -24.7474  -30.7422   20.9493 C   0  0  0  0  0  0  0  0  0  0  0  0
  -23.8362  -27.9554   20.5639 C   0  0  0  0  0  0  0  0  0  0  0  0
  -22.6481  -32.3536   26.1635 C   0  0  0  0  0  0  0  0  0  0  0  0
  -28.8684  -16.0546   21.5947 C   0  0  0  0  0  0  0  0  0  0  0  0
  -23.0011  -30.8755   26.0314 C   0  0  0  0  0  0  0  0  0  0  0  0
  -28.0271  -14.7788   21.5267 C   0  0  0  0  0  0  0  0  0  0  0  0
  -28.0290  -17.2471   22.0436 C   0  0  0  0  0  0  0  0  0  0  0  0
  -25.9767  -16.2236   21.1413 C   0  0  0  0  0  0  0  0  0  0  0  0
  -24.3074  -30.6879   25.2504 C   0  0  1  0  0  0  0  0  0  0  0  0
  -23.4565  -30.2252   21.5769 C   0  0  1  0  0  0  0  0  0  0  0  0
  -26.7630  -14.9861   20.6716 C   0  0  2  0  0  0  0  0  0  0  0  0
  -19.1629  -26.8532   16.0816 C   0  0  0  0  0  0  0  0  0  0  0  0
  -20.6476  -26.6821   22.5343 C   0  0  0  0  0  0  0  0  0  0  0  0
  -19.5562  -25.6055   20.5549 C   0  0  0  0  0  0  0  0  0  0  0  0
  -18.7800  -27.8417   21.3421 C   0  0  0  0  0  0  0  0  0  0  0  0
  -22.2065  -29.0723   15.5441 C   0  0  0  0  0  0  0  0  0  0  0  0
  -27.3078  -21.9898   25.4998 C   0  0  0  0  0  0  0  0  0  0  0  0
  -26.3434  -21.8478   20.6041 C   0  0  0  0  0  0  0  0  0  0  0  0
  -27.1682  -20.8452   19.8013 C   0  0  0  0  0  0  0  0  0  0  0  0
  -30.4375  -25.4570   20.3879 C   0  0  0  0  0  0  0  0  0  0  0  0
  -28.1878  -20.8274   25.9833 C   0  0  0  0  0  0  0  0  0  0  0  0
  -29.8039  -26.8233   20.1954 C   0  0  0  0  0  0  0  0  0  1  0  0
  -21.0101  -27.6468   20.1670 C   0  0  1  0  0  0  0  0  0  0  0  0
  -20.2148  -27.8813   16.4681 C   0  0  2  0  0  0  0  0  0  0  0  0
  -20.0262  -26.9504   21.1491 C   0  0  0  0  0  0  0  0  0  0  0  0
  -24.9097  -13.6129   21.5445 N   0  0  0  0  0  0  0  0  0  0  0  0
  -26.9519  -22.1959   21.8691 N   0  0  0  0  0  0  0  0  0  0  0  0
  -25.8953  -13.7416   20.6401 N   0  0  0  0  0  0  0  0  0  0  0  0
  -22.9140  -29.0600   20.8753 N   0  0  0  0  0  0  0  0  0  0  0  0
  -26.8515  -17.4003   21.1775 N   0  0  0  0  0  0  0  0  0  0  0  0
  -26.9258  -12.6589   18.8025 N   0  0  0  0  0  0  0  0  0  0  0  0
  -23.6593   -9.7828   20.0083 N   0  0  0  0  0  0  0  0  0  0  0  0
  -29.7034  -24.6551   21.3305 N   0  0  0  0  0  0  0  0  0  0  0  0
  -24.0757  -30.8514   23.8313 N   0  0  0  0  0  0  0  0  0  0  0  0
  -20.4399  -27.9377   18.8561 N   0  0  0  0  0  0  0  0  0  0  0  0
  -27.3850  -19.6098   20.5209 N   0  0  0  0  0  0  0  0  0  0  0  0
  -27.7483  -19.5590   25.3511 N   0  3  0  0  0  0  0  0  0  0  0  0
  -21.1350  -28.0700   15.3111 N   0  3  0  0  0  0  0  0  0  0  0  0
  -25.3857  -10.1300   18.5394 O   0  0  0  0  0  0  0  0  0  0  0  0
  -28.2759  -23.6630   19.7948 O   0  0  0  0  0  0  0  0  0  0  0  0
  -23.3739  -28.6813   23.3614 O   0  0  0  0  0  0  0  0  0  0  0  0
  -20.7277  -29.8661   20.9554 O   0  0  0  0  0  0  0  0  0  0  0  0
  -21.9897  -26.7248   17.6298 O   0  0  0  0  0  0  0  0  0  0  0  0
  -25.4961  -18.5886   19.7183 O   0  0  0  0  0  0  0  0  0  0  0  0
  -20.0366  -10.4762   24.1833 O   0  0  0  0  0  0  0  0  0  0  0  0
  -28.4754  -26.6640   19.6994 O   0  0  0  0  0  0  0  0  0  1  0  0
  -20.1537   -5.1761   25.6995 F   0  0  0  0  0  0  0  0  0  0  0  0
  -19.9682   -9.7630   26.8533 F   0  0  0  0  0  0  0  0  0  0  0  0
  1  2  1  0  0  0  0
  1  5  2  0  0  0  0
  2  6  2  0  0  0  0
  3  8  2  0  0  0  0
  3 17  1  0  0  0  0
  4  9  1  0  0  0  0
  4 17  2  0  0  0  0
  5 19  1  0  0  0  0
  6 21  1  0  0  0  0
  7 10  2  0  0  0  0
  7 20  1  0  0  0  0
  8 24  1  0  0  0  0
  9 24  2  0  0  0  0
 10 25  1  0  0  0  0
 11 12  2  0  0  0  0
 11 26  1  0  0  0  0
 12 27  1  0  0  0  0
 13 22  1  0  0  0  0
 13 25  2  0  0  0  0
 14 23  1  0  0  0  0
 14 30  2  0  0  0  0
 15 27  2  0  0  0  0
 15 28  1  0  0  0  0
 16 23  2  0  0  0  0
 16 65  1  0  0  0  0
 17 29  1  0  0  0  0
 18 29  1  0  0  0  0
 18 31  2  0  0  0  0
 18 32  1  0  0  0  0
 19 21  2  0  0  0  0
 19 38  1  0  0  0  0
 20 22  2  0  0  0  0
 20 39  1  0  0  0  0
 21 47  1  0  0  0  0
 22 40  1  0  0  0  0
 23 55  1  0  0  0  0
 24 83  1  0  0  0  0
 25 84  1  0  0  0  0
 26 28  2  0  0  0  0
 26 83  1  0  0  0  0
 27 85  1  0  0  0  0
 28 86  1  0  0  0  0
 29 64  2  0  0  0  0
 30 33  1  0  0  0  0
 30 65  1  0  0  0  0
 31 66  1  0  0  0  0
 31 69  1  0  0  0  0
 32 70  1  0  0  0  0
 32 77  2  0  0  0  0
 33 71  1  0  0  0  0
 33 78  2  0  0  0  0
 34 48  1  0  0  0  0
 34 72  1  0  0  0  0
 34 79  2  0  0  0  0
 35 61  1  0  0  0  0
 35 67  1  0  0  0  0
 35 80  2  0  0  0  0
 36 62  1  0  0  0  0
 36 73  1  0  0  0  0
 36 81  2  0  0  0  0
 37 68  1  0  0  0  0
 37 74  1  0  0  0  0
 37 82  2  0  0  0  0
 38 41  1  0  0  0  0
 39 48  1  0  0  0  0
 40 67  1  0  0  0  0
 41 43  1  0  0  0  0
 42 44  1  0  0  0  0
 42 45  1  0  0  0  0
 43 47  1  0  0  0  0
 44 49  1  0  0  0  0
 45 68  1  0  0  0  0
 46 49  1  0  0  0  0
 46 68  1  0  0  0  0
 47 72  1  0  0  0  0
 48 67  1  0  0  0  0
 49 66  1  0  0  0  0
 50 62  1  0  0  0  0
 51 63  1  0  0  0  0
 52 63  1  0  0  0  0
 53 63  1  0  0  0  0
 54 76  1  0  0  0  0
 55 59  1  0  0  0  0
 56 57  1  0  0  0  0
 56 65  1  0  0  0  0
 57 74  1  0  0  0  0
 58 60  1  0  0  0  0
 58 71  1  0  0  0  0
 59 75  1  0  0  0  0
 60 84  1  0  0  0  0
 61 63  1  0  0  0  0
 61 73  1  0  0  0  0
 62 76  1  0  0  0  0
 64 66  1  0  0  0  0
M  CHG  2  75   1  76   1
M  ISO  4  37 100  60 101  74 100  84 101
M  END
> <Batch ID>
0126

> <Smiles>
CNC(C)C(=O)NC(C(=O)N1Cc2cc([101O:1][101CH2:1]CNC(=O)c3cc(CCN)cn3CC[100NH:0][100C:0](=O)N3CCCC(n4nc(-c5ccc(Oc6ccc(F)cc6F)cc5)c(C(N)=O)c4N)C3)ccc2CC1C(=O)NC1CCCc2ccccc21)C(C)(C)C

> <Shape>
0.263

> <Color>
0.075

> <Negative vol penalty>
0.000

$$$$

  -OEChem-04052320383D

 83 91  0     1  0  0  0  0  0999 V2000
  -21.5505  -18.7862   25.8832 C   0  0  0  0  0  0  0  0  0  0  0  0
  -22.7352  -19.1907   25.2763 C   0  0  0  0  0  0  0  0  0  0  0  0
  -22.6462  -27.6701   21.3918 C   0  0  0  0  0  0  0  0  0  0  0  0
  -23.2501  -29.7949   20.4133 C   0  0  0  0  0  0  0  0  0  0  0  0
  -21.3428  -17.4388   26.1751 C   0  0  0  0  0  0  0  0  0  0  0  0
  -23.7133  -18.2479   24.9618 C   0  0  0  0  0  0  0  0  0  0  0  0
  -25.6302  -18.9111   20.3217 C   0  0  0  0  0  0  0  0  0  0  0  0
  -21.3062  -28.0572   21.4055 C   0  0  0  0  0  0  0  0  0  0  0  0
  -21.9101  -30.1821   20.4270 C   0  0  0  0  0  0  0  0  0  0  0  0
  -26.5694  -19.9288   20.1602 C   0  0  0  0  0  0  0  0  0  0  0  0
  -17.7695  -28.6277   22.0299 C   0  0  0  0  0  0  0  0  0  0  0  0
  -17.0323  -28.3770   23.1871 C   0  0  0  0  0  0  0  0  0  0  0  0
  -28.3443  -18.2981   20.2583 C   0  0  0  0  0  0  0  0  0  0  0  0
  -29.7696  -23.4167   18.3977 C   0  0  0  0  0  0  0  0  0  0  0  0
  -30.3151  -23.2213   20.7320 C   0  0  0  0  0  0  0  0  0  0  0  0
  -18.5564  -29.7562   24.4568 C   0  0  0  0  0  0  0  0  0  0  0  0
  -23.6181  -28.5390   20.8957 C   0  0  0  0  0  0  0  0  0  0  0  0
  -25.6839  -27.4703   19.8478 C   0  0  0  0  0  0  0  0  0  0  0  0
  -22.3148  -16.4778   25.8553 C   0  0  0  0  0  0  0  0  0  0  0  0
  -26.0423  -17.5783   20.4638 C   0  0  0  0  0  0  0  0  0  0  0  0
  -23.5190  -16.8865   25.2509 C   0  0  0  0  0  0  0  0  0  0  0  0
  -27.4083  -17.2650   20.4189 C   0  0  0  0  0  0  0  0  0  0  0  0
  -29.5047  -22.8830   19.6540 C   0  0  0  0  0  0  0  0  0  0  0  0
  -20.9381  -29.3132   20.9231 C   0  0  0  0  0  0  0  0  0  0  0  0
  -27.9268  -19.6227   20.1314 C   0  0  0  0  0  0  0  0  0  0  0  0
  -18.9002  -29.4426   22.0861 C   0  0  0  0  0  0  0  0  0  0  0  0
  -17.4257  -28.9413   24.4006 C   0  0  0  0  0  0  0  0  0  0  0  0
  -19.2936  -30.0069   23.2996 C   0  0  0  0  0  0  0  0  0  0  0  0
  -25.0026  -28.1399   20.8818 C   0  0  0  0  0  0  0  0  0  0  0  0
  -30.8483  -24.2774   18.2731 C   0  0  0  0  0  0  0  0  0  0  0  0
  -31.3695  -24.0906   20.5028 C   0  0  0  0  0  0  0  0  0  0  0  0
  -26.9656  -27.3242   20.3194 C   0  0  0  0  0  0  0  0  0  0  0  0
  -25.2014  -27.0207   18.5747 C   0  0  0  0  0  0  0  0  0  0  0  0
  -25.7745  -15.3785   22.7427 C   0  0  0  0  0  0  0  0  0  0  0  0
  -27.1090  -13.4529   20.4991 C   0  0  0  0  0  0  0  0  0  0  0  0
  -29.0219  -13.1750   17.6866 C   0  0  0  0  0  0  0  0  0  0  0  0
  -30.6557  -26.1745   24.1523 C   0  0  0  0  0  0  0  0  0  0  0  0
  -22.0652  -15.0392   26.2332 C   0  0  0  0  0  0  0  0  0  0  0  0
  -25.0154  -16.4890   20.6104 C   0  0  0  0  0  0  0  0  0  0  0  0
  -27.9015  -15.8477   20.5467 C   0  0  0  0  0  0  0  0  0  0  0  0
  -22.9935  -14.0542   25.5272 C   0  0  0  0  0  0  0  0  0  0  0  0
  -29.2673  -29.3357   24.3558 C   0  0  0  0  0  0  0  0  0  0  0  0
  -24.4369  -14.5436   25.5880 C   0  0  0  0  0  0  0  0  0  0  0  0
  -28.0905  -29.2726   23.3779 C   0  0  0  0  0  0  0  0  0  0  0  0
  -29.3901  -28.0473   25.1671 C   0  0  0  0  0  0  0  0  0  0  0  0
  -28.2739  -26.7471   23.4012 C   0  0  0  0  0  0  0  0  0  0  0  0
  -24.5934  -15.8905   24.8719 C   0  0  1  0  0  0  0  0  0  0  0  0
  -25.5722  -15.2267   21.2615 C   0  0  1  0  0  0  0  0  0  0  0  0
  -28.1484  -27.9986   22.5123 C   0  0  1  0  0  0  0  0  0  0  0  0
  -30.7825  -26.8213   15.3698 C   0  0  0  0  0  0  0  0  0  0  0  0
  -29.9687  -11.4686   16.1089 C   0  0  0  0  0  0  0  0  0  0  0  0
  -29.2228  -12.7132   22.5715 C   0  0  0  0  0  0  0  0  0  0  0  0
  -30.6272  -11.8000   20.7108 C   0  0  0  0  0  0  0  0  0  0  0  0
  -28.3955  -10.7961   21.1950 C   0  0  0  0  0  0  0  0  0  0  0  0
  -27.5542  -14.3186   15.3851 C   0  0  0  0  0  0  0  0  0  0  0  0
  -28.3488  -21.9456   19.8454 C   0  0  0  0  0  0  0  0  0  1  0  0
  -31.1621  -24.8691   16.9395 C   0  0  0  0  0  0  0  0  0  0  0  0
  -30.4351  -26.2033   16.7148 C   0  0  0  0  0  0  0  0  0  0  0  0
  -31.7838  -24.2799   22.9771 C   0  0  0  0  0  0  0  0  0  0  0  0
  -28.5198  -13.0782   20.1141 C   0  0  1  0  0  0  0  0  0  0  0  0
  -28.8074  -12.4081   16.3942 C   0  0  2  0  0  0  0  0  0  0  0  0
  -29.1825  -12.1239   21.1474 C   0  0  0  0  0  0  0  0  0  0  0  0
  -25.7865  -28.4009   21.9313 N   0  0  0  0  0  0  0  0  0  0  0  0
  -31.6579  -24.6293   19.2969 N   0  0  0  0  0  0  0  0  0  0  0  0
  -26.9736  -27.8927   21.5591 N   0  0  0  0  0  0  0  0  0  0  0  0
  -26.8590  -14.8186   20.6944 N   0  0  0  0  0  0  0  0  0  0  0  0
  -29.4501  -26.8884   24.2743 N   0  0  0  0  0  0  0  0  0  0  0  0
  -28.0752  -26.7661   19.7905 N   0  0  0  0  0  0  0  0  0  0  0  0
  -23.8578  -27.2520   18.2497 N   0  0  0  0  0  0  0  0  0  0  0  0
  -32.1691  -24.4187   21.5872 N   0  0  0  0  0  0  0  0  0  0  0  0
  -24.6242  -15.6998   23.4376 N   0  0  0  0  0  0  0  0  0  0  0  0
  -28.4434  -12.5350   18.7623 N   0  0  0  0  0  0  0  0  0  0  0  0
  -30.6273  -25.1114   23.2588 N   0  0  0  0  0  0  0  0  0  0  0  0
  -28.6735  -13.3514   15.2482 N   0  3  0  0  0  0  0  0  0  0  0  0
  -25.9357  -26.4166   17.7565 O   0  0  0  0  0  0  0  0  0  0  0  0
  -26.8913  -15.2147   23.2198 O   0  0  0  0  0  0  0  0  0  0  0  0
  -26.2583  -12.5672   20.6151 O   0  0  0  0  0  0  0  0  0  0  0  0
  -29.6439  -14.2338   17.7374 O   0  0  0  0  0  0  0  0  0  0  0  0
  -31.6811  -26.4804   24.7693 O   0  0  0  0  0  0  0  0  0  0  0  0
  -19.6306  -29.6912   20.9362 O   0  0  0  0  0  0  0  0  0  0  0  0
  -28.8456  -20.6142   19.9746 O   0  0  0  0  0  0  0  0  0  1  0  0
  -16.7167  -28.7017   25.5115 F   0  0  0  0  0  0  0  0  0  0  0  0
  -20.3783  -30.7915   23.3596 F   0  0  0  0  0  0  0  0  0  0  0  0
  1  2  1  0  0  0  0
  1  5  2  0  0  0  0
  2  6  2  0  0  0  0
  3  8  2  0  0  0  0
  3 17  1  0  0  0  0
  4  9  1  0  0  0  0
  4 17  2  0  0  0  0
  5 19  1  0  0  0  0
  6 21  1  0  0  0  0
  7 10  2  0  0  0  0
  7 20  1  0  0  0  0
  8 24  1  0  0  0  0
  9 24  2  0  0  0  0
 10 25  1  0  0  0  0
 11 12  2  0  0  0  0
 11 26  1  0  0  0  0
 12 27  1  0  0  0  0
 13 22  1  0  0  0  0
 13 25  2  0  0  0  0
 14 23  2  0  0  0  0
 14 30  1  0  0  0  0
 15 23  1  0  0  0  0
 15 31  2  0  0  0  0
 16 27  2  0  0  0  0
 16 28  1  0  0  0  0
 17 29  1  0  0  0  0
 18 29  1  0  0  0  0
 18 32  2  0  0  0  0
 18 33  1  0  0  0  0
 19 21  2  0  0  0  0
 19 38  1  0  0  0  0
 20 22  2  0  0  0  0
 20 39  1  0  0  0  0
 21 47  1  0  0  0  0
 22 40  1  0  0  0  0
 23 56  1  0  0  0  0
 24 80  1  0  0  0  0
 25 81  1  0  0  0  0
 26 28  2  0  0  0  0
 26 80  1  0  0  0  0
 27 82  1  0  0  0  0
 28 83  1  0  0  0  0
 29 63  2  0  0  0  0
 30 57  1  0  0  0  0
 30 64  2  0  0  0  0
 31 64  1  0  0  0  0
 31 70  1  0  0  0  0
 32 65  1  0  0  0  0
 32 68  1  0  0  0  0
 33 69  1  0  0  0  0
 33 75  2  0  0  0  0
 34 48  1  0  0  0  0
 34 71  1  0  0  0  0
 34 76  2  0  0  0  0
 35 60  1  0  0  0  0
 35 66  1  0  0  0  0
 35 77  2  0  0  0  0
 36 61  1  0  0  0  0
 36 72  1  0  0  0  0
 36 78  2  0  0  0  0
 37 67  1  0  0  0  0
 37 73  1  0  0  0  0
 37 79  2  0  0  0  0
 38 41  1  0  0  0  0
 39 48  1  0  0  0  0
 40 66  1  0  0  0  0
 41 43  1  0  0  0  0
 42 44  1  0  0  0  0
 42 45  1  0  0  0  0
 43 47  1  0  0  0  0
 44 49  1  0  0  0  0
 45 67  1  0  0  0  0
 46 49  1  0  0  0  0
 46 67  1  0  0  0  0
 47 71  1  0  0  0  0
 48 66  1  0  0  0  0
 49 65  1  0  0  0  0
 50 58  1  0  0  0  0
 51 61  1  0  0  0  0
 52 62  1  0  0  0  0
 53 62  1  0  0  0  0
 54 62  1  0  0  0  0
 55 74  1  0  0  0  0
 56 81  1  0  0  0  0
 57 58  1  0  0  0  0
 59 70  1  0  0  0  0
 59 73  1  0  0  0  0
 60 62  1  0  0  0  0
 60 72  1  0  0  0  0
 61 74  1  0  0  0  0
 63 65  1  0  0  0  0
M  CHG  1  74   1
M  ISO  4  37 100  56 101  73 100  81 101
M  END
> <Batch ID>
0126

> <Smiles>
CCCc1cc([101CH2:1][101O:1]c2ccc3c(c2)CN(C(=O)C(NC(=O)C(C)NC)C(C)(C)C)C(C(=O)NC2CCCc4ccccc42)C3)cc(NC[100NH:0][100C:0](=O)N2CCCC(n3nc(-c4ccc(Oc5ccc(F)cc5F)cc4)c(C(N)=O)c3N)C2)n1

> <Shape>
0.232

> <Color>
0.067

> <Negative vol penalty>
0.000

$$$$

  -OEChem-04052320383D

 84 92  0     1  0  0  0  0  0999 V2000
  -16.7470  -28.7390   23.6321 C   0  0  0  0  0  0  0  0  0  0  0  0
  -17.6844  -27.9184   23.0130 C   0  0  0  0  0  0  0  0  0  0  0  0
  -23.2712   -9.6999   19.8885 C   0  0  0  0  0  0  0  0  0  0  0  0
  -23.7301   -9.9173   22.2505 C   0  0  0  0  0  0  0  0  0  0  0  0
  -17.1438  -29.9574   24.1818 C   0  0  0  0  0  0  0  0  0  0  0  0
  -19.0190  -28.3161   22.9423 C   0  0  0  0  0  0  0  0  0  0  0  0
  -22.2258  -24.5740   24.1075 C   0  0  0  0  0  0  0  0  0  0  0  0
  -22.5832   -8.5111   20.1316 C   0  0  0  0  0  0  0  0  0  0  0  0
  -23.0421   -8.7285   22.4936 C   0  0  0  0  0  0  0  0  0  0  0  0
  -22.4675  -23.6139   23.1259 C   0  0  0  0  0  0  0  0  0  0  0  0
  -23.6312   -5.4100   22.2273 C   0  0  0  0  0  0  0  0  0  0  0  0
  -24.2197   -4.4855   23.0901 C   0  0  0  0  0  0  0  0  0  0  0  0
  -27.6994  -18.1063   19.9343 C   0  0  0  0  0  0  0  0  0  0  0  0
  -26.4179  -18.7000   20.0456 C   0  0  0  0  0  0  0  0  0  0  0  0
  -24.5389  -24.7161   22.5662 C   0  0  0  0  0  0  0  0  0  0  0  0
  -22.3067   -4.6376   24.5579 C   0  0  0  0  0  0  0  0  0  0  0  0
  -23.8447  -10.4030   20.9480 C   0  0  0  0  0  0  0  0  0  0  0  0
  -24.0232  -12.9338   20.6813 C   0  0  0  0  0  0  0  0  0  0  0  0
  -18.4857  -30.3658   24.1263 C   0  0  0  0  0  0  0  0  0  0  0  0
  -23.1351  -25.6204   24.3187 C   0  0  0  0  0  0  0  0  0  0  0  0
  -19.4339  -29.5417   23.4905 C   0  0  0  0  0  0  0  0  0  0  0  0
  -24.3078  -25.6869   23.5528 C   0  0  0  0  0  0  0  0  0  0  0  0
  -22.4687   -8.0255   21.4341 C   0  0  0  0  0  0  0  0  0  0  0  0
  -23.6227  -23.6864   22.3532 C   0  0  0  0  0  0  0  0  0  0  0  0
  -22.3805   -5.9484   22.5298 C   0  0  0  0  0  0  0  0  0  0  0  0
  -23.5575   -4.0992   24.2554 C   0  0  0  0  0  0  0  0  0  0  0  0
  -21.7182   -5.5622   23.6950 C   0  0  0  0  0  0  0  0  0  0  0  0
  -24.5559  -11.6308   20.6975 C   0  0  0  0  0  0  0  0  0  0  0  0
  -28.5178  -18.7183   20.8579 C   0  0  0  0  0  0  0  0  0  0  0  0
  -25.0981  -13.7407   20.3990 C   0  0  0  0  0  0  0  0  0  0  0  0
  -26.4922  -19.6569   21.0336 C   0  0  0  0  0  0  0  0  0  0  0  0
  -22.6770  -13.3751   20.9017 C   0  0  0  0  0  0  0  0  0  0  0  0
  -22.9999  -28.7885   24.0981 C   0  0  0  0  0  0  0  0  0  0  0  0
  -25.9854  -28.6139   25.3544 C   0  0  0  0  0  0  0  0  0  0  0  0
  -28.8198  -26.7773   25.8441 C   0  0  0  0  0  0  0  0  0  0  0  0
  -30.4292  -15.1955   21.1793 C   0  0  0  0  0  0  0  0  0  0  0  0
  -18.8585  -31.7130   24.6928 C   0  0  0  0  0  0  0  0  0  0  0  0
  -22.8729  -26.6331   25.3996 C   0  0  0  0  0  0  0  0  0  0  0  0
  -25.3255  -26.7787   23.7538 C   0  0  0  0  0  0  0  0  0  0  0  0
  -20.3596  -31.8897   24.9065 C   0  0  0  0  0  0  0  0  0  0  0  0
  -29.7732  -12.5773   18.8573 C   0  0  0  0  0  0  0  0  0  0  0  0
  -21.1327  -31.4191   23.6786 C   0  0  0  0  0  0  0  0  0  0  0  0
  -28.3161  -12.2013   19.1321 C   0  0  0  0  0  0  0  0  0  0  0  0
  -30.5122  -12.9478   20.1413 C   0  0  0  0  0  0  0  0  0  0  0  0
  -28.4031  -13.6177   21.2261 C   0  0  0  0  0  0  0  0  0  0  0  0
  -20.8954  -29.9271   23.4157 C   0  0  1  0  0  0  0  0  0  0  0  0
  -23.6159  -27.9473   25.1800 C   0  0  1  0  0  0  0  0  0  0  0  0
  -27.6015  -13.2903   19.9547 C   0  0  2  0  0  0  0  0  0  0  0  0
  -31.1039  -26.9165   26.8741 C   0  0  0  0  0  0  0  0  0  0  0  0
  -27.5487  -20.2676   23.9021 C   0  0  0  0  0  0  0  0  0  0  0  0
  -28.2037  -21.9998   22.1769 C   0  0  0  0  0  0  0  0  0  0  0  0
  -26.9369  -30.3168   23.0082 C   0  0  0  0  0  0  0  0  0  0  0  0
  -29.2827  -29.6319   23.5527 C   0  0  0  0  0  0  0  0  0  0  0  0
  -27.9450  -30.9245   25.2147 C   0  0  0  0  0  0  0  0  0  0  0  0
  -28.2394  -24.5572   27.7131 C   0  0  0  0  0  0  0  0  0  0  0  0
  -29.9442  -18.4829   21.1623 C   0  0  0  0  0  0  0  0  0  0  0  0
  -30.1876  -17.4214   22.2498 C   0  0  0  0  0  0  0  0  0  0  0  0
  -23.3376  -21.4424   21.6189 C   0  0  0  0  0  0  0  0  0  1  0  0
  -24.2432  -20.4255   20.9515 C   0  0  0  0  0  0  0  0  0  0  0  0
  -27.3793  -28.4979   24.7864 C   0  0  1  0  0  0  0  0  0  0  0  0
  -29.6513  -26.5204   27.0879 C   0  0  2  0  0  0  0  0  0  0  0  0
  -28.2630  -20.5235   22.5736 C   0  0  0  0  0  0  0  0  0  0  0  0
  -27.8660  -29.8232   24.1351 C   0  0  0  0  0  0  0  0  0  0  0  0
  -25.8674  -11.6068   20.4454 N   0  0  0  0  0  0  0  0  0  0  0  0
  -27.7734  -19.6594   21.5201 N   0  0  0  0  0  0  0  0  0  0  0  0
  -26.1677  -12.9046   20.2680 N   0  0  0  0  0  0  0  0  0  0  0  0
  -25.0209  -27.7488   24.8186 N   0  0  0  0  0  0  0  0  0  0  0  0
  -29.7832  -13.9863   20.8735 N   0  0  0  0  0  0  0  0  0  0  0  0
  -25.2234  -15.0769   20.2524 N   0  0  0  0  0  0  0  0  0  0  0  0
  -21.6958  -12.4139   21.1801 N   0  0  0  0  0  0  0  0  0  0  0  0
  -21.6788  -29.1222   24.3283 N   0  0  0  0  0  0  0  0  0  0  0  0
  -28.2253  -28.0210   25.8750 N   0  0  0  0  0  0  0  0  0  0  0  0
  -29.6646  -16.1281   21.8696 N   0  0  0  0  0  0  0  0  0  0  0  0
  -29.6067  -25.0759   27.4516 N   0  3  0  0  0  0  0  0  0  0  0  0
  -22.3506  -14.5846   20.8371 O   0  0  0  0  0  0  0  0  0  0  0  0
  -23.6737  -29.1122   23.1270 O   0  0  0  0  0  0  0  0  0  0  0  0
  -25.7623  -29.4368   26.2459 O   0  0  0  0  0  0  0  0  0  0  0  0
  -28.7117  -25.9581   24.9343 O   0  0  0  0  0  0  0  0  0  0  0  0
  -31.5988  -15.4290   20.8561 O   0  0  0  0  0  0  0  0  0  0  0  0
  -21.7972   -6.8656   21.6717 O   0  0  0  0  0  0  0  0  0  0  0  0
  -23.8607  -22.7509   21.3940 O   0  0  0  0  0  0  0  0  0  1  0  0
  -25.5407  -20.5097   21.5281 O   0  0  0  0  0  0  0  0  0  0  0  0
  -24.1221   -3.2102   25.0831 F   0  0  0  0  0  0  0  0  0  0  0  0
  -20.5159   -6.0751   23.9904 F   0  0  0  0  0  0  0  0  0  0  0  0
  1  2  1  0  0  0  0
  1  5  2  0  0  0  0
  2  6  2  0  0  0  0
  3  8  2  0  0  0  0
  3 17  1  0  0  0  0
  4  9  1  0  0  0  0
  4 17  2  0  0  0  0
  5 19  1  0  0  0  0
  6 21  1  0  0  0  0
  7 10  2  0  0  0  0
  7 20  1  0  0  0  0
  8 23  1  0  0  0  0
  9 23  2  0  0  0  0
 10 24  1  0  0  0  0
 11 12  2  0  0  0  0
 11 25  1  0  0  0  0
 12 26  1  0  0  0  0
 13 14  1  0  0  0  0
 13 29  2  0  0  0  0
 14 31  2  0  0  0  0
 15 22  1  0  0  0  0
 15 24  2  0  0  0  0
 16 26  2  0  0  0  0
 16 27  1  0  0  0  0
 17 28  1  0  0  0  0
 18 28  1  0  0  0  0
 18 30  2  0  0  0  0
 18 32  1  0  0  0  0
 19 21  2  0  0  0  0
 19 37  1  0  0  0  0
 20 22  2  0  0  0  0
 20 38  1  0  0  0  0
 21 46  1  0  0  0  0
 22 39  1  0  0  0  0
 23 80  1  0  0  0  0
 24 81  1  0  0  0  0
 25 27  2  0  0  0  0
 25 80  1  0  0  0  0
 26 83  1  0  0  0  0
 27 84  1  0  0  0  0
 28 64  2  0  0  0  0
 29 56  1  0  0  0  0
 29 65  1  0  0  0  0
 30 66  1  0  0  0  0
 30 69  1  0  0  0  0
 31 65  1  0  0  0  0
 31 82  1  0  0  0  0
 32 70  1  0  0  0  0
 32 75  2  0  0  0  0
 33 47  1  0  0  0  0
 33 71  1  0  0  0  0
 33 76  2  0  0  0  0
 34 60  1  0  0  0  0
 34 67  1  0  0  0  0
 34 77  2  0  0  0  0
 35 61  1  0  0  0  0
 35 72  1  0  0  0  0
 35 78  2  0  0  0  0
 36 68  1  0  0  0  0
 36 73  1  0  0  0  0
 36 79  2  0  0  0  0
 37 40  1  0  0  0  0
 38 47  1  0  0  0  0
 39 67  1  0  0  0  0
 40 42  1  0  0  0  0
 41 43  1  0  0  0  0
 41 44  1  0  0  0  0
 42 46  1  0  0  0  0
 43 48  1  0  0  0  0
 44 68  1  0  0  0  0
 45 48  1  0  0  0  0
 45 68  1  0  0  0  0
 46 71  1  0  0  0  0
 47 67  1  0  0  0  0
 48 66  1  0  0  0  0
 49 61  1  0  0  0  0
 50 62  1  0  0  0  0
 51 62  1  0  0  0  0
 52 63  1  0  0  0  0
 53 63  1  0  0  0  0
 54 63  1  0  0  0  0
 55 74  1  0  0  0  0
 56 57  1  0  0  0  0
 57 73  1  0  0  0  0
 58 59  1  0  0  0  0
 58 81  1  0  0  0  0
 59 82  1  0  0  0  0
 60 63  1  0  0  0  0
 60 72  1  0  0  0  0
 61 74  1  0  0  0  0
 62 65  1  0  0  0  0
 64 66  1  0  0  0  0
M  CHG  1  74   1
M  ISO  4  36 100  58 101  73 100  81 101
M  END
> <Batch ID>
0126

> <Smiles>
CNC(C)C(=O)NC(C(=O)N1Cc2cc([101O:1][101CH2:1]COc3ccc(CC[100NH:0][100C:0](=O)N4CCCC(n5nc(-c6ccc(Oc7ccc(F)cc7F)cc6)c(C(N)=O)c5N)C4)n3C(C)C)ccc2CC1C(=O)NC1CCCc2ccccc21)C(C)(C)C

> <Shape>
0.281

> <Color>
0.217

> <Negative vol penalty>
0.000

$$$$

  -OEChem-04052320383D

 92102  0     1  0  0  0  0  0999 V2000
  -30.0881  -36.1056   23.9607 C   0  0  0  0  0  0  0  0  0  0  0  0
  -30.2613  -35.1112   23.0034 C   0  0  0  0  0  0  0  0  0  0  0  0
  -23.8363  -10.0849   22.3438 C   0  0  0  0  0  0  0  0  0  0  0  0
  -23.7669   -9.1366   20.1227 C   0  0  0  0  0  0  0  0  0  0  0  0
  -29.2818  -35.8678   25.0730 C   0  0  0  0  0  0  0  0  0  0  0  0
  -29.6292  -33.8779   23.1584 C   0  0  0  0  0  0  0  0  0  0  0  0
  -26.6832  -28.5933   19.3230 C   0  0  0  0  0  0  0  0  0  0  0  0
  -22.4544   -9.9297   22.4532 C   0  0  0  0  0  0  0  0  0  0  0  0
  -22.3850   -8.9813   20.2322 C   0  0  0  0  0  0  0  0  0  0  0  0
  -26.7459  -27.2088   19.1708 C   0  0  0  0  0  0  0  0  0  0  0  0
  -18.9938   -9.4505   23.4580 C   0  0  0  0  0  0  0  0  0  0  0  0
  -18.4925   -8.9252   24.6489 C   0  0  0  0  0  0  0  0  0  0  0  0
  -25.3130  -26.9386   21.0925 C   0  0  0  0  0  0  0  0  0  0  0  0
  -27.9584  -20.6428   21.5978 C   0  0  0  0  0  0  0  0  0  0  0  0
  -19.7697   -6.9051   24.2956 C   0  0  0  0  0  0  0  0  0  0  0  0
  -24.4925   -9.6884   21.1785 C   0  0  0  0  0  0  0  0  0  0  0  0
  -26.9118   -8.9193   21.4303 C   0  0  0  0  0  0  0  0  0  0  0  0
  -28.6317  -34.6345   25.2369 C   0  0  0  0  0  0  0  0  0  0  0  0
  -25.9426  -29.1614   20.3695 C   0  0  0  0  0  0  0  0  0  0  0  0
  -28.8146  -33.6230   24.2746 C   0  0  0  0  0  0  0  0  0  0  0  0
  -25.2404  -28.3306   21.2543 C   0  0  0  0  0  0  0  0  0  0  0  0
  -27.8605  -21.9759   22.0673 C   0  0  0  0  0  0  0  0  0  0  0  0
  -21.7288   -9.3779   21.3974 C   0  0  0  0  0  0  0  0  0  0  0  0
  -26.0631  -26.3812   20.0573 C   0  0  0  0  0  0  0  0  0  0  0  0
  -19.8830   -8.7029   22.6857 C   0  0  0  0  0  0  0  0  0  0  0  0
  -18.8805   -7.6526   25.0678 C   0  0  0  0  0  0  0  0  0  0  0  0
  -20.2710   -7.4303   23.1046 C   0  0  0  0  0  0  0  0  0  0  0  0
  -25.9199   -9.8489   21.0646 C   0  0  0  0  0  0  0  0  0  0  0  0
  -28.1495  -19.8331   22.6956 C   0  0  0  0  0  0  0  0  0  0  0  0
  -27.9949  -21.9402   23.4377 C   0  0  0  0  0  0  0  0  0  0  0  0
  -28.0966   -9.5438   21.1258 C   0  0  0  0  0  0  0  0  0  0  0  0
  -26.7745   -7.6085   21.9948 C   0  0  0  0  0  0  0  0  0  0  0  0
  -26.6395  -30.9812   22.8807 C   0  0  0  0  0  0  0  0  0  0  0  0
  -23.4161  -31.0445   23.2381 C   0  0  0  0  0  0  0  0  0  0  0  0
  -20.4052  -29.5522   22.6423 C   0  0  0  0  0  0  0  0  0  0  0  0
  -29.8049  -15.1396   20.6650 C   0  0  0  0  0  0  0  0  0  0  0  0
  -27.8080  -34.4075   26.4797 C   0  0  0  0  0  0  0  0  0  0  0  0
  -25.8632  -30.6574   20.5041 C   0  0  0  0  0  0  0  0  0  0  0  0
  -24.4146  -28.8914   22.3821 C   0  0  0  0  0  0  0  0  0  0  0  0
  -26.8733  -33.2047   26.3797 C   0  0  0  0  0  0  0  0  0  0  0  0
  -27.0500  -25.2791   24.7555 C   0  0  0  0  0  0  0  0  0  0  0  0
  -28.3561  -25.4313   23.9967 C   0  0  0  0  0  0  0  0  0  0  0  0
  -29.9817  -12.7726   18.1522 C   0  0  0  0  0  0  0  0  0  0  0  0
  -27.6147  -31.9982   25.8128 C   0  0  0  0  0  0  0  0  0  0  0  0
  -26.6466  -23.8423   24.4608 C   0  0  0  0  0  0  0  0  0  0  0  0
  -29.0794  -24.1137   24.2514 C   0  0  0  0  0  0  0  0  0  0  0  0
  -29.0602  -11.6550   18.6402 C   0  0  0  0  0  0  0  0  0  0  0  0
  -27.5164  -17.5986   21.6818 C   0  0  0  0  0  0  0  0  0  0  0  0
  -29.7989  -17.9092   22.7320 C   0  0  0  0  0  0  0  0  0  0  0  0
  -29.3776  -14.1423   18.4393 C   0  0  0  0  0  0  0  0  0  0  0  0
  -27.7167  -16.0818   21.7479 C   0  0  0  0  0  0  0  0  0  0  0  0
  -29.9339  -16.3907   22.7973 C   0  0  0  0  0  0  0  0  0  0  0  0
  -28.1290  -13.2575   20.3826 C   0  0  0  0  0  0  0  0  0  0  0  0
  -28.1257  -32.2809   24.3949 C   0  0  1  0  0  0  0  0  0  0  0  0
  -28.3180  -18.3275   22.7752 C   0  0  0  0  0  0  0  0  0  0  0  0
  -27.9715  -23.0588   24.4475 C   0  0  0  0  0  0  0  0  0  0  0  0
  -25.4971  -31.1120   21.9136 C   0  0  1  0  0  0  0  0  0  0  0  0
  -28.6957  -11.8468   20.1231 C   0  0  1  0  0  0  0  0  0  0  0  0
  -17.9509  -29.8197   23.0918 C   0  0  0  0  0  0  0  0  0  0  0  0
  -27.1239  -20.4517   26.0370 C   0  0  0  0  0  0  0  0  0  0  0  0
  -29.6294  -20.7194   25.7980 C   0  0  0  0  0  0  0  0  0  0  0  0
  -23.8411  -30.0995   26.1080 C   0  0  0  0  0  0  0  0  0  0  0  0
  -21.4162  -29.4822   26.1901 C   0  0  0  0  0  0  0  0  0  0  0  0
  -22.0850  -31.8596   25.8385 C   0  0  0  0  0  0  0  0  0  0  0  0
  -19.7775  -29.7279   19.7555 C   0  0  0  0  0  0  0  0  0  0  0  0
  -27.5320  -23.0749   19.8515 C   0  0  0  0  0  0  0  0  0  0  0  0
  -27.3136  -24.4894   19.3410 C   0  0  0  0  0  0  0  0  0  1  0  0
  -22.4041  -30.1921   23.9650 C   0  0  1  0  0  0  0  0  0  0  0  0
  -19.0901  -30.1080   22.1265 C   0  0  2  0  0  0  0  0  0  0  0  0
  -28.3499  -20.1664   25.1674 C   0  0  0  0  0  0  0  0  0  0  0  0
  -22.4536  -30.3974   25.5054 C   0  0  0  0  0  0  0  0  0  0  0  0
  -26.4302  -10.9781   20.5660 N   0  0  0  0  0  0  0  0  0  0  0  0
  -28.1704  -20.6326   23.8085 N   0  0  0  0  0  0  0  0  0  0  0  0
  -27.7557  -10.7621   20.6163 N   0  0  0  0  0  0  0  0  0  0  0  0
  -24.3734  -30.3601   22.4759 N   0  0  0  0  0  0  0  0  0  0  0  0
  -29.0421  -14.2839   19.8561 N   0  0  0  0  0  0  0  0  0  0  0  0
  -29.1475  -15.7466   21.7457 N   0  0  0  0  0  0  0  0  0  0  0  0
  -29.3864   -9.1641   21.2468 N   0  0  0  0  0  0  0  0  0  0  0  0
  -25.4846   -7.1203   22.2443 N   0  0  0  0  0  0  0  0  0  0  0  0
  -27.6706  -23.0762   21.3089 N   0  0  0  0  0  0  0  0  0  0  0  0
  -27.0446  -32.1789   23.4383 N   0  0  0  0  0  0  0  0  0  0  0  0
  -21.1095  -30.4931   23.3634 N   0  0  0  0  0  0  0  0  0  0  0  0
  -18.7533  -29.5016   20.8075 N   0  3  0  0  0  0  0  0  0  0  0  0
  -27.7666   -6.8979   22.2849 O   0  0  0  0  0  0  0  0  0  0  0  0
  -27.1172  -29.8753   23.1057 O   0  0  0  0  0  0  0  0  0  0  0  0
  -23.3549  -32.2725   23.3370 O   0  0  0  0  0  0  0  0  0  0  0  0
  -20.7695  -28.3977   22.4302 O   0  0  0  0  0  0  0  0  0  0  0  0
  -31.0028  -15.3488   20.4364 O   0  0  0  0  0  0  0  0  0  0  0  0
  -20.3804   -9.2261   21.5040 O   0  0  0  0  0  0  0  0  0  0  0  0
  -26.1236  -25.0201   19.9103 O   0  0  0  0  0  0  0  0  0  1  0  0
  -18.4002   -7.1490   26.2123 F   0  0  0  0  0  0  0  0  0  0  0  0
  -21.1258   -6.7079   22.3676 F   0  0  0  0  0  0  0  0  0  0  0  0
  1  2  1  0  0  0  0
  1  5  2  0  0  0  0
  2  6  2  0  0  0  0
  3  8  2  0  0  0  0
  3 16  1  0  0  0  0
  4  9  1  0  0  0  0
  4 16  2  0  0  0  0
  5 18  1  0  0  0  0
  6 20  1  0  0  0  0
  7 10  2  0  0  0  0
  7 19  1  0  0  0  0
  8 23  1  0  0  0  0
  9 23  2  0  0  0  0
 10 24  1  0  0  0  0
 11 12  2  0  0  0  0
 11 25  1  0  0  0  0
 12 26  1  0  0  0  0
 13 21  1  0  0  0  0
 13 24  2  0  0  0  0
 14 22  1  0  0  0  0
 14 29  2  0  0  0  0
 15 26  2  0  0  0  0
 15 27  1  0  0  0  0
 16 28  1  0  0  0  0
 17 28  1  0  0  0  0
 17 31  2  0  0  0  0
 17 32  1  0  0  0  0
 18 20  2  0  0  0  0
 18 37  1  0  0  0  0
 19 21  2  0  0  0  0
 19 38  1  0  0  0  0
 20 54  1  0  0  0  0
 21 39  1  0  0  0  0
 22 30  2  0  0  0  0
 22 80  1  0  0  0  0
 23 89  1  0  0  0  0
 24 90  1  0  0  0  0
 25 27  2  0  0  0  0
 25 89  1  0  0  0  0
 26 91  1  0  0  0  0
 27 92  1  0  0  0  0
 28 72  2  0  0  0  0
 29 55  1  0  0  0  0
 29 73  1  0  0  0  0
 30 56  1  0  0  0  0
 30 73  1  0  0  0  0
 31 74  1  0  0  0  0
 31 78  1  0  0  0  0
 32 79  1  0  0  0  0
 32 84  2  0  0  0  0
 33 57  1  0  0  0  0
 33 81  1  0  0  0  0
 33 85  2  0  0  0  0
 34 68  1  0  0  0  0
 34 75  1  0  0  0  0
 34 86  2  0  0  0  0
 35 69  1  0  0  0  0
 35 82  1  0  0  0  0
 35 87  2  0  0  0  0
 36 76  1  0  0  0  0
 36 77  1  0  0  0  0
 36 88  2  0  0  0  0
 37 40  1  0  0  0  0
 38 57  1  0  0  0  0
 39 75  1  0  0  0  0
 40 44  1  0  0  0  0
 41 42  1  0  0  0  0
 41 45  1  0  0  0  0
 42 46  1  0  0  0  0
 43 47  1  0  0  0  0
 43 50  1  0  0  0  0
 44 54  1  0  0  0  0
 45 56  1  0  0  0  0
 46 56  1  0  0  0  0
 47 58  1  0  0  0  0
 48 51  1  0  0  0  0
 48 55  1  0  0  0  0
 49 52  1  0  0  0  0
 49 55  1  0  0  0  0
 50 76  1  0  0  0  0
 51 77  1  0  0  0  0
 52 77  1  0  0  0  0
 53 58  1  0  0  0  0
 53 76  1  0  0  0  0
 54 81  1  0  0  0  0
 57 75  1  0  0  0  0
 58 74  1  0  0  0  0
 59 69  1  0  0  0  0
 60 70  1  0  0  0  0
 61 70  1  0  0  0  0
 62 71  1  0  0  0  0
 63 71  1  0  0  0  0
 64 71  1  0  0  0  0
 65 83  1  0  0  0  0
 66 67  1  0  0  0  0
 66 80  1  0  0  0  0
 67 90  1  0  0  0  0
 68 71  1  0  0  0  0
 68 82  1  0  0  0  0
 69 83  1  0  0  0  0
 70 73  1  0  0  0  0
 72 74  1  0  0  0  0
M  CHG  1  83   1
M  ISO  4  36 100  67 101  77 100  90 101
M  END
> <Batch ID>
0126

> <Smiles>
CNC(C)C(=O)NC(C(=O)N1Cc2cc([101O:1][101CH2:1]CNc3cc(C4CC[100N:0]([100C:0](=O)N5CCCC(n6nc(-c7ccc(Oc8ccc(F)cc8F)cc7)c(C(N)=O)c6N)C5)CC4)n(C(C)C)c3C3CCCC3)ccc2CC1C(=O)NC1CCCc2ccccc21)C(C)(C)C

> <Shape>
0.241

> <Color>
0.091

> <Negative vol penalty>
0.000

$$$$

  -OEChem-04052320383D

 80 88  0     1  0  0  0  0  0999 V2000
  -29.4124  -34.4080   24.9915 C   0  0  0  0  0  0  0  0  0  0  0  0
  -29.9062  -33.6940   23.9044 C   0  0  0  0  0  0  0  0  0  0  0  0
  -23.9367   -9.6557   22.3746 C   0  0  0  0  0  0  0  0  0  0  0  0
  -23.7140  -11.7975   23.4701 C   0  0  0  0  0  0  0  0  0  0  0  0
  -28.4901  -33.8149   25.8527 C   0  0  0  0  0  0  0  0  0  0  0  0
  -29.4787  -32.3861   23.6784 C   0  0  0  0  0  0  0  0  0  0  0  0
  -28.1429  -27.7917   18.3470 C   0  0  0  0  0  0  0  0  0  0  0  0
  -23.3701   -9.0291   23.4845 C   0  0  0  0  0  0  0  0  0  0  0  0
  -23.1474  -11.1709   24.5801 C   0  0  0  0  0  0  0  0  0  0  0  0
  -28.4663  -26.5009   17.9312 C   0  0  0  0  0  0  0  0  0  0  0  0
  -20.2786   -8.5558   24.7696 C   0  0  0  0  0  0  0  0  0  0  0  0
  -19.3003   -7.5887   24.5389 C   0  0  0  0  0  0  0  0  0  0  0  0
  -26.8100  -25.6065   19.4398 C   0  0  0  0  0  0  0  0  0  0  0  0
  -20.6695   -5.9382   25.6518 C   0  0  0  0  0  0  0  0  0  0  0  0
  -24.1087  -11.0400   22.3674 C   0  0  0  0  0  0  0  0  0  0  0  0
  -24.0200  -12.1944   20.0943 C   0  0  0  0  0  0  0  0  0  0  0  0
  -28.0438  -32.5024   25.6317 C   0  0  0  0  0  0  0  0  0  0  0  0
  -27.1566  -27.9993   19.3219 C   0  0  0  0  0  0  0  0  0  0  0  0
  -28.5506  -31.7745   24.5382 C   0  0  0  0  0  0  0  0  0  0  0  0
  -26.4741  -26.9011   19.8644 C   0  0  0  0  0  0  0  0  0  0  0  0
  -22.9755   -9.7867   24.5872 C   0  0  0  0  0  0  0  0  0  0  0  0
  -27.8018  -25.4079   18.4797 C   0  0  0  0  0  0  0  0  0  0  0  0
  -21.4524   -8.2141   25.4414 C   0  0  0  0  0  0  0  0  0  0  0  0
  -19.4957   -6.2799   24.9800 C   0  0  0  0  0  0  0  0  0  0  0  0
  -21.6478   -6.9053   25.8825 C   0  0  0  0  0  0  0  0  0  0  0  0
  -24.6944  -11.6878   21.2214 C   0  0  0  0  0  0  0  0  0  0  0  0
  -25.0164  -12.7057   19.2991 C   0  0  0  0  0  0  0  0  0  0  0  0
  -22.6182  -12.2022   19.7931 C   0  0  0  0  0  0  0  0  0  0  0  0
  -27.1159  -29.2639   22.2379 C   0  0  0  0  0  0  0  0  0  0  0  0
  -23.9147  -28.8167   21.9639 C   0  0  0  0  0  0  0  0  0  0  0  0
  -21.3413  -27.1191   20.5002 C   0  0  0  0  0  0  0  0  0  0  0  0
  -30.5152  -14.7652   20.4706 C   0  0  0  0  0  0  0  0  0  0  0  0
  -27.0818  -31.8872   26.6168 C   0  0  0  0  0  0  0  0  0  0  0  0
  -26.8007  -29.3996   19.7403 C   0  0  0  0  0  0  0  0  0  0  0  0
  -25.3932  -27.0714   20.8993 C   0  0  0  0  0  0  0  0  0  0  0  0
  -26.3962  -30.6278   26.0933 C   0  0  0  0  0  0  0  0  0  0  0  0
  -29.6482  -12.1157   18.2559 C   0  0  0  0  0  0  0  0  0  0  0  0
  -27.4155  -29.6939   25.4484 C   0  0  0  0  0  0  0  0  0  0  0  0
  -28.2195  -11.7513   18.6631 C   0  0  0  0  0  0  0  0  0  0  0  0
  -28.8849  -20.8221   19.6990 C   0  0  0  0  0  0  0  0  0  0  0  0
  -30.4984  -12.5017   19.4643 C   0  0  0  0  0  0  0  0  0  0  0  0
  -28.4951  -13.1987   20.7192 C   0  0  0  0  0  0  0  0  0  0  0  0
  -31.1556  -21.5181   19.6837 C   0  0  0  0  0  0  0  0  0  0  0  0
  -28.0924  -30.3622   24.2457 C   0  0  1  0  0  0  0  0  0  0  0  0
  -26.1393  -29.4631   21.1135 C   0  0  1  0  0  0  0  0  0  0  0  0
  -27.5839  -12.8562   19.5281 C   0  0  2  0  0  0  0  0  0  0  0  0
  -30.3009  -20.2627   19.6347 C   0  0  1  0  0  0  0  0  0  0  0  0
  -28.9516  -22.0021   18.7368 C   0  0  1  0  0  0  0  0  0  0  0  0
  -18.8376  -26.9490   20.5065 C   0  0  0  0  0  0  0  0  0  0  0  0
  -24.0269  -27.2976   24.6077 C   0  0  0  0  0  0  0  0  0  0  0  0
  -21.7631  -26.3637   24.0870 C   0  0  0  0  0  0  0  0  0  0  0  0
  -22.0613  -28.8247   24.3646 C   0  0  0  0  0  0  0  0  0  0  0  0
  -21.1671  -27.8740   17.6439 C   0  0  0  0  0  0  0  0  0  0  0  0
  -27.9511  -23.0992   19.0309 C   0  0  0  0  0  0  0  0  0  1  0  0
  -30.3768  -17.0083   21.5235 C   0  0  0  0  0  0  0  0  0  0  0  0
  -30.0296  -18.0182   20.4404 C   0  0  0  0  0  0  0  0  0  0  0  0
  -22.9604  -27.6934   22.2900 C   0  0  1  0  0  0  0  0  0  0  0  0
  -20.0510  -27.6006   19.8617 C   0  0  2  0  0  0  0  0  0  0  0  0
  -22.7246  -27.5412   23.8193 C   0  0  0  0  0  0  0  0  0  0  0  0
  -26.0169  -11.8613   21.1521 N   0  0  0  0  0  0  0  0  0  0  0  0
  -26.1816  -12.4826   19.9719 N   0  0  0  0  0  0  0  0  0  0  0  0
  -25.0857  -28.4599   21.2803 N   0  0  0  0  0  0  0  0  0  0  0  0
  -29.8404  -13.5548   20.2414 N   0  0  0  0  0  0  0  0  0  0  0  0
  -25.0007  -13.3198   18.0970 N   0  0  0  0  0  0  0  0  0  0  0  0
  -21.7326  -11.6354   20.7197 N   0  0  0  0  0  0  0  0  0  0  0  0
  -27.2137  -30.3427   23.0959 N   0  0  0  0  0  0  0  0  0  0  0  0
  -21.7477  -27.9520   21.5213 N   0  0  0  0  0  0  0  0  0  0  0  0
  -29.8177  -15.7120   21.2106 N   0  0  0  0  0  0  0  0  0  0  0  0
  -30.5889  -19.3359   20.7164 N   0  0  0  0  0  0  0  0  0  0  0  0
  -30.3583  -22.5247   18.8991 N   0  3  0  0  0  0  0  0  0  0  0  0
  -20.0408  -27.2771   18.4070 N   0  3  0  0  0  0  0  0  0  0  0  0
  -22.1661  -12.6826   18.7262 O   0  0  0  0  0  0  0  0  0  0  0  0
  -27.7337  -28.2089   22.3218 O   0  0  0  0  0  0  0  0  0  0  0  0
  -23.6283  -29.9694   22.2970 O   0  0  0  0  0  0  0  0  0  0  0  0
  -21.9279  -26.1035   20.1327 O   0  0  0  0  0  0  0  0  0  0  0  0
  -31.6528  -14.9878   20.0425 O   0  0  0  0  0  0  0  0  0  0  0  0
  -22.4223   -9.1755   25.6704 O   0  0  0  0  0  0  0  0  0  0  0  0
  -28.1160  -24.1468   18.0760 O   0  0  0  0  0  0  0  0  0  1  0  0
  -18.5555   -5.3516   24.7597 F   0  0  0  0  0  0  0  0  0  0  0  0
  -22.7728   -6.5713   26.5294 F   0  0  0  0  0  0  0  0  0  0  0  0
  1  2  1  0  0  0  0
  1  5  2  0  0  0  0
  2  6  2  0  0  0  0
  3  8  2  0  0  0  0
  3 15  1  0  0  0  0
  4  9  1  0  0  0  0
  4 15  2  0  0  0  0
  5 17  1  0  0  0  0
  6 19  1  0  0  0  0
  7 10  2  0  0  0  0
  7 18  1  0  0  0  0
  8 21  1  0  0  0  0
  9 21  2  0  0  0  0
 10 22  1  0  0  0  0
 11 12  2  0  0  0  0
 11 23  1  0  0  0  0
 12 24  1  0  0  0  0
 13 20  1  0  0  0  0
 13 22  2  0  0  0  0
 14 24  2  0  0  0  0
 14 25  1  0  0  0  0
 15 26  1  0  0  0  0
 16 26  1  0  0  0  0
 16 27  2  0  0  0  0
 16 28  1  0  0  0  0
 17 19  2  0  0  0  0
 17 33  1  0  0  0  0
 18 20  2  0  0  0  0
 18 34  1  0  0  0  0
 19 44  1  0  0  0  0
 20 35  1  0  0  0  0
 21 77  1  0  0  0  0
 22 78  1  0  0  0  0
 23 25  2  0  0  0  0
 23 77  1  0  0  0  0
 24 79  1  0  0  0  0
 25 80  1  0  0  0  0
 26 60  2  0  0  0  0
 27 61  1  0  0  0  0
 27 64  1  0  0  0  0
 28 65  1  0  0  0  0
 28 72  2  0  0  0  0
 29 45  1  0  0  0  0
 29 66  1  0  0  0  0
 29 73  2  0  0  0  0
 30 57  1  0  0  0  0
 30 62  1  0  0  0  0
 30 74  2  0  0  0  0
 31 58  1  0  0  0  0
 31 67  1  0  0  0  0
 31 75  2  0  0  0  0
 32 63  1  0  0  0  0
 32 68  1  0  0  0  0
 32 76  2  0  0  0  0
 33 36  1  0  0  0  0
 34 45  1  0  0  0  0
 35 62  1  0  0  0  0
 36 38  1  0  0  0  0
 37 39  1  0  0  0  0
 37 41  1  0  0  0  0
 38 44  1  0  0  0  0
 39 46  1  0  0  0  0
 40 47  1  0  0  0  0
 40 48  1  0  0  0  0
 41 63  1  0  0  0  0
 42 46  1  0  0  0  0
 42 63  1  0  0  0  0
 43 47  1  0  0  0  0
 43 70  1  0  0  0  0
 44 66  1  0  0  0  0
 45 62  1  0  0  0  0
 46 61  1  0  0  0  0
 47 69  1  0  0  0  0
 48 54  1  0  0  0  0
 48 70  1  0  0  0  0
 49 58  1  0  0  0  0
 50 59  1  0  0  0  0
 51 59  1  0  0  0  0
 52 59  1  0  0  0  0
 53 71  1  0  0  0  0
 54 78  1  0  0  0  0
 55 56  1  0  0  0  0
 55 68  1  0  0  0  0
 56 69  1  0  0  0  0
 57 59  1  0  0  0  0
 57 67  1  0  0  0  0
 58 71  1  0  0  0  0
 60 61  1  0  0  0  0
M  CHG  2  70   1  71   1
M  ISO  4  32 100  54 101  68 100  78 101
M  END
> <Batch ID>
0126

> <Smiles>
CNC(C)C(=O)NC(C(=O)N1Cc2cc([101O:1][101CH2:1]C3CC(NCC[100NH:0][100C:0](=O)N4CCCC(n5nc(-c6ccc(Oc7ccc(F)cc7F)cc6)c(C(N)=O)c5N)C4)CN3)ccc2CC1C(=O)NC1CCCc2ccccc21)C(C)(C)C

> <Shape>
0.281

> <Color>
0.084

> <Negative vol penalty>
0.000

$$$$

  -OEChem-04052320383D

 84 92  0     1  0  0  0  0  0999 V2000
  -17.0810  -29.9635   24.0903 C   0  0  0  0  0  0  0  0  0  0  0  0
  -18.4014  -30.4008   24.1159 C   0  0  0  0  0  0  0  0  0  0  0  0
  -32.1412  -22.3339   23.6057 C   0  0  0  0  0  0  0  0  0  0  0  0
  -24.4199  -14.4298   21.1142 C   0  0  0  0  0  0  0  0  0  0  0  0
  -26.7393  -14.0895   21.6985 C   0  0  0  0  0  0  0  0  0  0  0  0
  -16.7737  -28.7082   23.5671 C   0  0  0  0  0  0  0  0  0  0  0  0
  -19.4155  -29.5826   23.6194 C   0  0  0  0  0  0  0  0  0  0  0  0
  -25.7375  -29.9367   20.2693 C   0  0  0  0  0  0  0  0  0  0  0  0
  -24.3305  -13.1023   20.6955 C   0  0  0  0  0  0  0  0  0  0  0  0
  -26.6500  -12.7619   21.2799 C   0  0  0  0  0  0  0  0  0  0  0  0
  -27.0484  -29.4779   20.3915 C   0  0  0  0  0  0  0  0  0  0  0  0
  -23.9902  -10.0571   22.1252 C   0  0  0  0  0  0  0  0  0  0  0  0
  -22.8734   -9.3244   22.5270 C   0  0  0  0  0  0  0  0  0  0  0  0
  -31.8879  -21.4958   22.5256 C   0  0  0  0  0  0  0  0  0  0  0  0
  -32.2118  -23.7087   23.4102 C   0  0  0  0  0  0  0  0  0  0  0  0
  -26.3900  -27.3616   19.4391 C   0  0  0  0  0  0  0  0  0  0  0  0
  -22.2742   -8.9690   20.2136 C   0  0  0  0  0  0  0  0  0  0  0  0
  -25.6243  -14.9234   21.6156 C   0  0  0  0  0  0  0  0  0  0  0  0
  -25.4664  -16.7984   23.3381 C   0  0  0  0  0  0  0  0  0  0  0  0
  -17.7834  -27.8781   23.0551 C   0  0  0  0  0  0  0  0  0  0  0  0
  -24.7391  -29.1061   19.7403 C   0  0  0  0  0  0  0  0  0  0  0  0
  -19.1216  -28.3144   23.0901 C   0  0  0  0  0  0  0  0  0  0  0  0
  -25.0678  -27.8131   19.3089 C   0  0  0  0  0  0  0  0  0  0  0  0
  -25.4455  -12.2683   20.7784 C   0  0  0  0  0  0  0  0  0  0  0  0
  -27.3742  -28.1891   19.9790 C   0  0  0  0  0  0  0  0  0  0  0  0
  -24.2490  -10.2458   20.7675 C   0  0  0  0  0  0  0  0  0  0  0  0
  -22.0154   -8.7804   21.5713 C   0  0  0  0  0  0  0  0  0  0  0  0
  -23.3910   -9.7018   19.8118 C   0  0  0  0  0  0  0  0  0  0  0  0
  -25.7173  -16.2948   22.0477 C   0  0  0  0  0  0  0  0  0  0  0  0
  -31.7137  -22.0775   21.2802 C   0  0  0  0  0  0  0  0  0  0  0  0
  -32.0233  -24.1913   22.1252 C   0  0  0  0  0  0  0  0  0  0  0  0
  -25.6927  -18.1488   23.2297 C   0  0  0  0  0  0  0  0  0  0  0  0
  -25.0646  -16.1074   24.5284 C   0  0  0  0  0  0  0  0  0  0  0  0
  -22.0252  -27.8762   20.8474 C   0  0  0  0  0  0  0  0  0  0  0  0
  -21.6920  -26.8588   17.7853 C   0  0  0  0  0  0  0  0  0  0  0  0
  -23.1818  -26.0386   14.8265 C   0  0  0  0  0  0  0  0  0  0  0  0
  -29.0395  -21.4364   19.5093 C   0  0  0  0  0  0  0  0  0  0  0  0
  -17.4083  -26.5100   22.5430 C   0  0  0  0  0  0  0  0  0  0  0  0
  -23.3354  -29.6253   19.5905 C   0  0  0  0  0  0  0  0  0  0  0  0
  -24.0370  -26.8891   18.7155 C   0  0  0  0  0  0  0  0  0  0  0  0
  -18.4964  -25.8580   21.6937 C   0  0  0  0  0  0  0  0  0  0  0  0
  -25.5342  -21.7294   20.0604 C   0  0  0  0  0  0  0  0  0  0  0  0
  -19.8557  -25.9924   22.3727 C   0  0  0  0  0  0  0  0  0  0  0  0
  -25.1610  -20.4153   20.7486 C   0  0  0  0  0  0  0  0  0  0  0  0
  -26.6163  -21.5250   19.0024 C   0  0  0  0  0  0  0  0  0  0  0  0
  -27.4571  -19.5247   20.1711 C   0  0  0  0  0  0  0  0  0  0  0  0
  -20.2465  -27.4659   22.5382 C   0  0  1  0  0  0  0  0  0  0  0  0
  -22.2925  -28.5145   19.5137 C   0  0  1  0  0  0  0  0  0  0  0  0
  -26.4092  -19.6891   21.2852 C   0  0  2  0  0  0  0  0  0  0  0  0
  -22.6532  -25.2056   12.5191 C   0  0  0  0  0  0  0  0  0  0  0  0
  -31.5474  -27.9701   19.7801 C   0  0  0  0  0  0  0  0  0  0  0  0
  -28.7173  -28.0021   22.4880 C   0  0  0  0  0  0  0  0  0  0  0  0
  -21.2888  -24.0456   18.8959 C   0  0  0  0  0  0  0  0  0  0  0  0
  -21.7167  -23.1519   16.5967 C   0  0  0  0  0  0  0  0  0  0  0  0
  -19.7648  -24.6499   17.0074 C   0  0  0  0  0  0  0  0  0  0  0  0
  -24.2748  -28.4839   13.5676 C   0  0  0  0  0  0  0  0  0  0  0  0
  -31.4395  -21.2085   20.0982 C   0  0  0  0  0  0  0  0  0  0  0  0
  -32.0922  -25.6694   21.8770 C   0  0  0  0  0  0  0  0  0  0  0  0
  -22.0982  -25.6231   17.0191 C   0  0  1  0  0  0  0  0  0  0  0  0
  -22.8626  -26.4309   13.3952 C   0  0  2  0  0  0  0  0  0  0  0  0
  -30.8578  -27.7021   21.1134 C   0  0  1  0  0  0  0  0  0  0  0  0
  -29.4322  -28.2706   21.1683 C   0  0  1  0  0  0  0  0  0  1  0  0
  -21.2364  -24.3841   17.3927 C   0  0  0  0  0  0  0  0  0  0  0  0
  -26.0755  -17.2477   21.1830 N   0  0  0  0  0  0  0  0  0  0  0  0
  -31.7752  -23.4085   21.0513 N   0  0  0  0  0  0  0  0  0  0  0  0
  -26.0512  -18.3636   21.9314 N   0  0  0  0  0  0  0  0  0  0  0  0
  -22.6772  -27.4406   18.5957 N   0  0  0  0  0  0  0  0  0  0  0  0
  -27.7729  -20.8328   19.5761 N   0  0  0  0  0  0  0  0  0  0  0  0
  -25.6179  -19.1616   24.1192 N   0  0  0  0  0  0  0  0  0  0  0  0
  -24.8765  -14.7200   24.4642 N   0  0  0  0  0  0  0  0  0  0  0  0
  -20.7202  -28.0073   21.2824 N   0  0  0  0  0  0  0  0  0  0  0  0
  -22.0460  -25.9833   15.6063 N   0  0  0  0  0  0  0  0  0  0  0  0
  -30.0801  -20.7160   20.0826 N   0  0  0  0  0  0  0  0  0  0  0  0
  -23.9758  -27.2364   12.8183 N   0  3  0  0  0  0  0  0  0  0  0  0
  -30.8323  -26.2255   21.3211 N   0  3  0  0  0  0  0  0  0  0  0  0
  -24.8622  -16.7049   25.6126 O   0  0  0  0  0  0  0  0  0  0  0  0
  -22.9352  -27.3056   21.4373 O   0  0  0  0  0  0  0  0  0  0  0  0
  -20.5450  -27.2960   17.6636 O   0  0  0  0  0  0  0  0  0  0  0  0
  -24.3240  -25.8011   15.2131 O   0  0  0  0  0  0  0  0  0  0  0  0
  -29.2279  -22.5383   18.9826 O   0  0  0  0  0  0  0  0  0  0  0  0
  -25.3587  -10.9728   20.3702 O   0  0  0  0  0  0  0  0  0  0  0  0
  -28.6528  -27.7386   20.0977 O   0  0  0  0  0  0  0  0  0  1  0  0
  -20.9438   -8.0755   21.9573 F   0  0  0  0  0  0  0  0  0  0  0  0
  -23.6351   -9.8787   18.5061 F   0  0  0  0  0  0  0  0  0  0  0  0
  1  2  1  0  0  0  0
  1  6  2  0  0  0  0
  2  7  2  0  0  0  0
  3 14  1  0  0  0  0
  3 15  2  0  0  0  0
  4  9  2  0  0  0  0
  4 18  1  0  0  0  0
  5 10  1  0  0  0  0
  5 18  2  0  0  0  0
  6 20  1  0  0  0  0
  7 22  1  0  0  0  0
  8 11  2  0  0  0  0
  8 21  1  0  0  0  0
  9 24  1  0  0  0  0
 10 24  2  0  0  0  0
 11 25  1  0  0  0  0
 12 13  2  0  0  0  0
 12 26  1  0  0  0  0
 13 27  1  0  0  0  0
 14 30  2  0  0  0  0
 15 31  1  0  0  0  0
 16 23  1  0  0  0  0
 16 25  2  0  0  0  0
 17 27  2  0  0  0  0
 17 28  1  0  0  0  0
 18 29  1  0  0  0  0
 19 29  1  0  0  0  0
 19 32  2  0  0  0  0
 19 33  1  0  0  0  0
 20 22  2  0  0  0  0
 20 38  1  0  0  0  0
 21 23  2  0  0  0  0
 21 39  1  0  0  0  0
 22 47  1  0  0  0  0
 23 40  1  0  0  0  0
 24 81  1  0  0  0  0
 25 82  1  0  0  0  0
 26 28  2  0  0  0  0
 26 81  1  0  0  0  0
 27 83  1  0  0  0  0
 28 84  1  0  0  0  0
 29 64  2  0  0  0  0
 30 57  1  0  0  0  0
 30 65  1  0  0  0  0
 31 58  1  0  0  0  0
 31 65  2  0  0  0  0
 32 66  1  0  0  0  0
 32 69  1  0  0  0  0
 33 70  1  0  0  0  0
 33 76  2  0  0  0  0
 34 48  1  0  0  0  0
 34 71  1  0  0  0  0
 34 77  2  0  0  0  0
 35 59  1  0  0  0  0
 35 67  1  0  0  0  0
 35 78  2  0  0  0  0
 36 60  1  0  0  0  0
 36 72  1  0  0  0  0
 36 79  2  0  0  0  0
 37 68  1  0  0  0  0
 37 73  1  0  0  0  0
 37 80  2  0  0  0  0
 38 41  1  0  0  0  0
 39 48  1  0  0  0  0
 40 67  1  0  0  0  0
 41 43  1  0  0  0  0
 42 44  1  0  0  0  0
 42 45  1  0  0  0  0
 43 47  1  0  0  0  0
 44 49  1  0  0  0  0
 45 68  1  0  0  0  0
 46 49  1  0  0  0  0
 46 68  1  0  0  0  0
 47 71  1  0  0  0  0
 48 67  1  0  0  0  0
 49 66  1  0  0  0  0
 50 60  1  0  0  0  0
 51 61  1  0  0  0  0
 52 62  1  0  0  0  0
 53 63  1  0  0  0  0
 54 63  1  0  0  0  0
 55 63  1  0  0  0  0
 56 74  1  0  0  0  0
 57 73  1  0  0  0  0
 58 75  1  0  0  0  0
 59 63  1  0  0  0  0
 59 72  1  0  0  0  0
 60 74  1  0  0  0  0
 61 62  1  0  0  0  0
 61 75  1  0  0  0  0
 62 82  1  0  0  0  0
 64 66  1  0  0  0  0
M  CHG  2  74   1  75   1
M  ISO  4  37 100  62 101  73 100  82 101
M  END
> <Batch ID>
0126

> <Smiles>
CNC(C)C(=O)NC(C(=O)N1Cc2cc([101O:1][101CH:1](C)C(C)NCc3cccc(C[100NH:0][100C:0](=O)N4CCCC(n5nc(-c6ccc(Oc7ccc(F)cc7F)cc6)c(C(N)=O)c5N)C4)n3)ccc2CC1C(=O)NC1CCCc2ccccc21)C(C)(C)C

> <Shape>
0.234

> <Color>
0.095

> <Negative vol penalty>
0.000

$$$$

  -OEChem-04052320383D

 81 89  0     1  0  0  0  0  0999 V2000
  -34.0303  -29.8140    9.2257 C   0  0  0  0  0  0  0  0  0  0  0  0
  -33.3343  -28.6587    9.5666 C   0  0  0  0  0  0  0  0  0  0  0  0
  -23.0672   -9.8377   19.9437 C   0  0  0  0  0  0  0  0  0  0  0  0
  -23.8316   -9.8536   22.2355 C   0  0  0  0  0  0  0  0  0  0  0  0
  -34.8567  -30.4310   10.1640 C   0  0  0  0  0  0  0  0  0  0  0  0
  -33.4650  -28.1192   10.8458 C   0  0  0  0  0  0  0  0  0  0  0  0
  -29.7299  -24.5483   15.8071 C   0  0  0  0  0  0  0  0  0  0  0  0
  -29.0896  -19.7042   19.9633 C   0  0  0  0  0  0  0  0  0  0  0  0
  -22.3353   -8.6774   20.1958 C   0  0  0  0  0  0  0  0  0  0  0  0
  -23.0997   -8.6933   22.4877 C   0  0  0  0  0  0  0  0  0  0  0  0
  -29.8123  -23.4060   16.6021 C   0  0  0  0  0  0  0  0  0  0  0  0
  -22.9411   -5.3649   20.4876 C   0  0  0  0  0  0  0  0  0  0  0  0
  -23.0163   -4.3355   19.5495 C   0  0  0  0  0  0  0  0  0  0  0  0
  -29.2738  -18.6804   20.8860 C   0  0  0  0  0  0  0  0  0  0  0  0
  -31.2065  -24.6021   18.1657 C   0  0  0  0  0  0  0  0  0  0  0  0
  -20.6295   -4.4774   19.2025 C   0  0  0  0  0  0  0  0  0  0  0  0
  -23.8154  -10.4258   20.9635 C   0  0  0  0  0  0  0  0  0  0  0  0
  -24.1320  -12.9541   20.8412 C   0  0  0  0  0  0  0  0  0  0  0  0
  -34.9900  -29.9042   11.4584 C   0  0  0  0  0  0  0  0  0  0  0  0
  -30.3952  -25.7249   16.1805 C   0  0  0  0  0  0  0  0  0  0  0  0
  -34.2949  -28.7290   11.8018 C   0  0  0  0  0  0  0  0  0  0  0  0
  -31.1288  -25.7587   17.3750 C   0  0  0  0  0  0  0  0  0  0  0  0
  -30.1263  -20.0542   19.1054 C   0  0  0  0  0  0  0  0  0  0  0  0
  -22.3515   -8.1052   21.4678 C   0  0  0  0  0  0  0  0  0  0  0  0
  -30.5530  -23.4319   17.7801 C   0  0  0  0  0  0  0  0  0  0  0  0
  -21.7101   -5.9506   20.7833 C   0  0  0  0  0  0  0  0  0  0  0  0
  -21.8605   -3.8917   18.9069 C   0  0  0  0  0  0  0  0  0  0  0  0
  -20.5544   -5.5069   20.1407 C   0  0  0  0  0  0  0  0  0  0  0  0
  -24.5722  -11.6241   20.7035 C   0  0  0  0  0  0  0  0  0  0  0  0
  -30.5037  -18.0429   20.9103 C   0  0  0  0  0  0  0  0  0  0  0  0
  -31.3181  -19.3553   19.2096 C   0  0  0  0  0  0  0  0  0  0  0  0
  -25.2159  -13.7142   20.4753 C   0  0  0  0  0  0  0  0  0  0  0  0
  -22.8573  -13.4576   21.2624 C   0  0  0  0  0  0  0  0  0  0  0  0
  -32.6988  -27.5020   14.9002 C   0  0  0  0  0  0  0  0  0  0  0  0
  -32.0155  -29.4792   17.3793 C   0  0  0  0  0  0  0  0  0  0  0  0
  -30.7357  -29.8508   20.5211 C   0  0  0  0  0  0  0  0  0  0  0  0
  -30.6897  -14.7876   20.6520 C   0  0  0  0  0  0  0  0  0  0  0  0
  -35.9318  -30.5796   12.4236 C   0  0  0  0  0  0  0  0  0  0  0  0
  -30.2744  -26.9565   15.3256 C   0  0  0  0  0  0  0  0  0  0  0  0
  -31.8450  -27.0029   17.8308 C   0  0  0  0  0  0  0  0  0  0  0  0
  -35.7240  -30.1552   13.8751 C   0  0  0  0  0  0  0  0  0  0  0  0
  -29.5710  -12.3905   18.2690 C   0  0  0  0  0  0  0  0  0  0  0  0
  -35.6034  -28.6379   13.9756 C   0  0  0  0  0  0  0  0  0  0  0  0
  -28.1374  -12.0828   18.7050 C   0  0  0  0  0  0  0  0  0  0  0  0
  -30.4883  -12.6211   19.4679 C   0  0  0  0  0  0  0  0  0  0  0  0
  -28.5822  -13.3342   20.8579 C   0  0  0  0  0  0  0  0  0  0  0  0
  -34.3914  -28.1273   13.1870 C   0  0  1  0  0  0  0  0  0  0  0  0
  -31.4145  -27.9472   15.5405 C   0  0  1  0  0  0  0  0  0  0  0  0
  -27.6074  -13.1492   19.6823 C   0  0  2  0  0  0  0  0  0  0  0  0
  -30.3493  -31.5791   22.2991 C   0  0  0  0  0  0  0  0  0  0  0  0
  -34.9810  -29.4042   18.0934 C   0  0  0  0  0  0  0  0  0  0  0  0
  -34.3906  -30.3249   20.3455 C   0  0  0  0  0  0  0  0  0  0  0  0
  -33.9170  -31.6588   18.2915 C   0  0  0  0  0  0  0  0  0  0  0  0
  -27.8051  -29.4460   20.4408 C   0  0  0  0  0  0  0  0  0  0  0  0
  -33.5579  -18.9144   18.5426 C   0  0  0  0  0  0  0  0  0  0  0  0
  -29.9385  -21.1577   18.1062 C   0  0  0  0  0  0  0  0  0  1  0  0
  -30.7367  -16.9395   21.8874 C   0  0  0  0  0  0  0  0  0  0  0  0
  -32.5072  -29.6225   18.7994 C   0  0  1  0  0  0  0  0  0  0  0  0
  -29.7576  -30.8584   21.0977 C   0  0  2  0  0  0  0  0  0  0  0  0
  -33.9372  -30.2284   18.8732 C   0  0  0  0  0  0  0  0  0  0  0  0
  -25.8371  -11.5405   20.2827 N   0  0  0  0  0  0  0  0  0  0  0  0
  -31.5343  -18.3550   20.0930 N   0  0  0  0  0  0  0  0  0  0  0  0
  -26.2010  -12.8277   20.1528 N   0  0  0  0  0  0  0  0  0  0  0  0
  -31.7019  -28.1794   16.9575 N   0  0  0  0  0  0  0  0  0  0  0  0
  -29.9293  -13.6447   20.3543 N   0  0  0  0  0  0  0  0  0  0  0  0
  -25.4130  -15.0476   20.4011 N   0  0  0  0  0  0  0  0  0  0  0  0
  -21.8551  -12.5386   21.6023 N   0  0  0  0  0  0  0  0  0  0  0  0
  -33.1707  -28.3630   13.9279 N   0  0  0  0  0  0  0  0  0  0  0  0
  -31.4929  -30.3970   19.5064 N   0  0  0  0  0  0  0  0  0  0  0  0
  -30.0830  -15.7110   21.4947 N   0  0  0  0  0  0  0  0  0  0  0  0
  -28.5049  -30.1760   21.5290 N   0  3  0  0  0  0  0  0  0  0  0  0
  -22.6090  -14.6858   21.3195 O   0  0  0  0  0  0  0  0  0  0  0  0
  -33.2236  -26.4556   15.2626 O   0  0  0  0  0  0  0  0  0  0  0  0
  -31.9067  -30.4845   16.6727 O   0  0  0  0  0  0  0  0  0  0  0  0
  -30.8223  -28.6959   20.9325 O   0  0  0  0  0  0  0  0  0  0  0  0
  -31.8229  -14.9741   20.1960 O   0  0  0  0  0  0  0  0  0  0  0  0
  -21.6373   -6.9731   21.7143 O   0  0  0  0  0  0  0  0  0  0  0  0
  -30.6357  -22.3181   18.5576 O   0  0  0  0  0  0  0  0  0  1  0  0
  -32.3642  -19.6712   18.3822 O   0  0  0  0  0  0  0  0  0  0  0  0
  -21.9331   -2.9041   18.0049 F   0  0  0  0  0  0  0  0  0  0  0  0
  -19.3691   -6.0665   20.4197 F   0  0  0  0  0  0  0  0  0  0  0  0
  1  2  1  0  0  0  0
  1  5  2  0  0  0  0
  2  6  2  0  0  0  0
  3  9  2  0  0  0  0
  3 17  1  0  0  0  0
  4 10  1  0  0  0  0
  4 17  2  0  0  0  0
  5 19  1  0  0  0  0
  6 21  1  0  0  0  0
  7 11  2  0  0  0  0
  7 20  1  0  0  0  0
  8 14  2  0  0  0  0
  8 23  1  0  0  0  0
  9 24  1  0  0  0  0
 10 24  2  0  0  0  0
 11 25  1  0  0  0  0
 12 13  2  0  0  0  0
 12 26  1  0  0  0  0
 13 27  1  0  0  0  0
 14 30  1  0  0  0  0
 15 22  1  0  0  0  0
 15 25  2  0  0  0  0
 16 27  2  0  0  0  0
 16 28  1  0  0  0  0
 17 29  1  0  0  0  0
 18 29  1  0  0  0  0
 18 32  2  0  0  0  0
 18 33  1  0  0  0  0
 19 21  2  0  0  0  0
 19 38  1  0  0  0  0
 20 22  2  0  0  0  0
 20 39  1  0  0  0  0
 21 47  1  0  0  0  0
 22 40  1  0  0  0  0
 23 31  2  0  0  0  0
 23 56  1  0  0  0  0
 24 77  1  0  0  0  0
 25 78  1  0  0  0  0
 26 28  2  0  0  0  0
 26 77  1  0  0  0  0
 27 80  1  0  0  0  0
 28 81  1  0  0  0  0
 29 61  2  0  0  0  0
 30 57  1  0  0  0  0
 30 62  2  0  0  0  0
 31 62  1  0  0  0  0
 31 79  1  0  0  0  0
 32 63  1  0  0  0  0
 32 66  1  0  0  0  0
 33 67  1  0  0  0  0
 33 72  2  0  0  0  0
 34 48  1  0  0  0  0
 34 68  1  0  0  0  0
 34 73  2  0  0  0  0
 35 58  1  0  0  0  0
 35 64  1  0  0  0  0
 35 74  2  0  0  0  0
 36 59  1  0  0  0  0
 36 69  1  0  0  0  0
 36 75  2  0  0  0  0
 37 65  1  0  0  0  0
 37 70  1  0  0  0  0
 37 76  2  0  0  0  0
 38 41  1  0  0  0  0
 39 48  1  0  0  0  0
 40 64  1  0  0  0  0
 41 43  1  0  0  0  0
 42 44  1  0  0  0  0
 42 45  1  0  0  0  0
 43 47  1  0  0  0  0
 44 49  1  0  0  0  0
 45 65  1  0  0  0  0
 46 49  1  0  0  0  0
 46 65  1  0  0  0  0
 47 68  1  0  0  0  0
 48 64  1  0  0  0  0
 49 63  1  0  0  0  0
 50 59  1  0  0  0  0
 51 60  1  0  0  0  0
 52 60  1  0  0  0  0
 53 60  1  0  0  0  0
 54 71  1  0  0  0  0
 55 79  1  0  0  0  0
 56 78  1  0  0  0  0
 57 70  1  0  0  0  0
 58 60  1  0  0  0  0
 58 69  1  0  0  0  0
 59 71  1  0  0  0  0
 61 63  1  0  0  0  0
M  CHG  1  71   1
M  ISO  4  37 100  56 101  70 100  78 101
M  END
> <Batch ID>
0126

> <Smiles>
CNC(C)C(=O)NC(C(=O)N1Cc2cc([101O:1][101CH2:1]c3ccc(C[100NH:0][100C:0](=O)N4CCCC(n5nc(-c6ccc(Oc7ccc(F)cc7F)cc6)c(C(N)=O)c5N)C4)nc3OC)ccc2CC1C(=O)NC1CCCc2ccccc21)C(C)(C)C

> <Shape>
0.216

> <Color>
0.196

> <Negative vol penalty>
0.000

$$$$

  -OEChem-04052320383D

 86 95  0     1  0  0  0  0  0999 V2000
  -19.1443  -25.7896   18.9974 C   0  0  0  0  0  0  0  0  0  0  0  0
  -20.4784  -26.1828   18.9658 C   0  0  0  0  0  0  0  0  0  0  0  0
  -26.3506  -14.1603   21.1538 C   0  0  0  0  0  0  0  0  0  0  0  0
  -27.1367  -13.7154   18.9130 C   0  0  0  0  0  0  0  0  0  0  0  0
  -18.3462  -26.1229   20.0909 C   0  0  0  0  0  0  0  0  0  0  0  0
  -21.0149  -26.9106   20.0274 C   0  0  0  0  0  0  0  0  0  0  0  0
  -25.5659  -25.2042   21.4491 C   0  0  0  0  0  0  0  0  0  0  0  0
  -25.9649  -12.8262   21.2835 C   0  0  0  0  0  0  0  0  0  0  0  0
  -26.7511  -12.3812   19.0427 C   0  0  0  0  0  0  0  0  0  0  0  0
  -26.6566  -25.5657   20.6595 C   0  0  0  0  0  0  0  0  0  0  0  0
  -23.3951  -10.8688   20.2891 C   0  0  0  0  0  0  0  0  0  0  0  0
  -22.1414  -10.6081   20.8423 C   0  0  0  0  0  0  0  0  0  0  0  0
  -27.2211  -27.2965   22.2423 C   0  0  0  0  0  0  0  0  0  0  0  0
  -23.1881   -9.3586   22.6256 C   0  0  0  0  0  0  0  0  0  0  0  0
  -31.9987  -25.0891   20.8765 C   0  0  0  0  0  0  0  0  0  0  0  0
  -26.9364  -14.6050   19.9686 C   0  0  0  0  0  0  0  0  0  0  0  0
  -28.5840  -16.5430   20.1608 C   0  0  0  0  0  0  0  0  0  0  0  0
  -18.8758  -26.8468   21.1708 C   0  0  0  0  0  0  0  0  0  0  0  0
  -25.2878  -25.8944   22.6377 C   0  0  0  0  0  0  0  0  0  0  0  0
  -20.2228  -27.2551   21.1358 C   0  0  0  0  0  0  0  0  0  0  0  0
  -26.1278  -26.9401   23.0464 C   0  0  0  0  0  0  0  0  0  0  0  0
  -26.1652  -11.9366   20.2280 C   0  0  0  0  0  0  0  0  0  0  0  0
  -27.4827  -26.6139   21.0546 C   0  0  0  0  0  0  0  0  0  0  0  0
  -24.5453  -10.3743   20.9042 C   0  0  0  0  0  0  0  0  0  0  0  0
  -22.0379   -9.8531   22.0105 C   0  0  0  0  0  0  0  0  0  0  0  0
  -24.4418   -9.6192   22.0724 C   0  0  0  0  0  0  0  0  0  0  0  0
  -27.3345  -15.9832   19.8338 C   0  0  0  0  0  0  0  0  0  0  0  0
  -32.1796  -23.7420   20.6376 C   0  0  0  0  0  0  0  0  0  0  0  0
  -31.1999  -25.7544   19.9690 C   0  0  0  0  0  0  0  0  0  0  0  0
  -28.4555  -17.8748   19.8504 C   0  0  0  0  0  0  0  0  0  0  0  0
  -30.8697  -23.8437   18.7826 C   0  0  0  0  0  0  0  0  0  0  0  0
  -29.7562  -15.9153   20.6972 C   0  0  0  0  0  0  0  0  0  0  0  0
  -22.8557  -27.6444   23.6989 C   0  0  0  0  0  0  0  0  0  0  0  0
  -24.5509  -27.6182   26.4643 C   0  0  0  0  0  0  0  0  0  0  0  0
  -27.5789  -27.2875   28.0034 C   0  0  0  0  0  0  0  0  0  0  0  0
  -26.7763  -21.9279   16.4010 C   0  0  0  0  0  0  0  0  0  0  0  0
  -17.9617  -27.2246   22.3095 C   0  0  0  0  0  0  0  0  0  0  0  0
  -24.1230  -25.4748   23.4918 C   0  0  0  0  0  0  0  0  0  0  0  0
  -25.8843  -27.6997   24.3241 C   0  0  0  0  0  0  0  0  0  0  0  0
  -18.7056  -27.6745   23.5642 C   0  0  0  0  0  0  0  0  0  0  0  0
  -24.3629  -20.5964   18.6547 C   0  0  0  0  0  0  0  0  0  0  0  0
  -19.8072  -28.6666   23.2048 C   0  0  0  0  0  0  0  0  0  0  0  0
  -32.4521  -21.7225   22.2255 C   0  0  0  0  0  0  0  0  0  0  0  0
  -32.7022  -22.9518   23.0419 C   0  0  0  0  0  0  0  0  0  0  0  0
  -25.0212  -19.3212   19.1841 C   0  0  0  0  0  0  0  0  0  0  0  0
  -24.6958  -20.8344   17.1835 C   0  0  0  0  0  0  0  0  0  0  0  0
  -26.7946  -19.5602   17.3962 C   0  0  0  0  0  0  0  0  0  0  0  0
  -20.8477  -28.0242   22.2795 C   0  0  1  0  0  0  0  0  0  0  0  0
  -33.0306  -22.9500   21.5720 C   0  0  0  0  0  0  0  0  0  0  0  0
  -23.6342  -26.5815   24.4212 C   0  0  1  0  0  0  0  0  0  0  0  0
  -26.5335  -19.3076   18.8910 C   0  0  2  0  0  0  0  0  0  0  0  0
  -28.6543  -27.3535   30.2698 C   0  0  0  0  0  0  0  0  0  0  0  0
  -24.3630  -30.6636   26.4621 C   0  0  0  0  0  0  0  0  0  0  0  0
  -26.2066  -30.7091   28.1555 C   0  0  0  0  0  0  0  0  0  0  0  0
  -24.0400  -29.6002   28.7024 C   0  0  0  0  0  0  0  0  0  0  0  0
  -28.4914  -24.4810   27.7802 C   0  0  0  0  0  0  0  0  0  0  0  0
  -29.4459  -23.8636   16.7338 C   0  0  0  0  0  0  0  0  0  0  0  0
  -28.9435  -22.8946   15.6744 C   0  0  0  0  0  0  0  0  0  0  0  0
  -29.6791  -27.5207   20.9576 C   0  0  0  0  0  0  0  0  0  1  0  0
  -30.9441  -27.2331   20.1457 C   0  0  2  0  0  0  0  0  0  0  0  0
  -25.6217  -28.4929   27.0702 C   0  0  1  0  0  0  0  0  0  0  0  0
  -28.0125  -26.4730   29.2089 C   0  0  2  0  0  0  0  0  0  0  0  0
  -25.0616  -29.8536   27.5724 C   0  0  0  0  0  0  0  0  0  0  0  0
  -26.4752  -16.8856   19.3527 N   0  0  0  0  0  0  0  0  0  0  0  0
  -31.6280  -23.0847   19.5965 N   0  0  0  0  0  0  0  0  0  0  0  0
  -30.6174  -25.1608   18.9066 N   0  0  0  0  0  0  0  0  0  0  0  0
  -27.1860  -18.0259   19.3752 N   0  0  0  0  0  0  0  0  0  0  0  0
  -24.7291  -27.2559   25.1217 N   0  0  0  0  0  0  0  0  0  0  0  0
  -26.1454  -20.8110   16.9734 N   0  0  0  0  0  0  0  0  0  0  0  0
  -29.3056  -18.9196   19.9404 N   0  0  0  0  0  0  0  0  0  0  0  0
  -29.7171  -14.5387   20.9576 N   0  0  0  0  0  0  0  0  0  0  0  0
  -30.2755  -23.1887   17.6819 N   0  0  0  0  0  0  0  0  0  0  0  0
  -21.7391  -27.1715   23.0362 N   0  0  0  0  0  0  0  0  0  0  0  0
  -26.2648  -27.6924   28.1065 N   0  0  0  0  0  0  0  0  0  0  0  0
  -28.1530  -21.8255   16.2428 N   0  0  0  0  0  0  0  0  0  0  0  0
  -30.8308  -27.9499   18.8349 N   0  3  0  0  0  0  0  0  0  0  0  0
  -28.9983  -25.4317   28.8030 N   0  3  0  0  0  0  0  0  0  0  0  0
  -30.8018  -16.5592   20.9537 O   0  0  0  0  0  0  0  0  0  0  0  0
  -23.2387  -28.8076   23.7409 O   0  0  0  0  0  0  0  0  0  0  0  0
  -23.5952  -27.2634   27.1589 O   0  0  0  0  0  0  0  0  0  0  0  0
  -28.3317  -27.5423   27.0660 O   0  0  0  0  0  0  0  0  0  0  0  0
  -26.1593  -22.9432   16.0615 O   0  0  0  0  0  0  0  0  0  0  0  0
  -25.7892  -10.6345   20.3542 O   0  0  0  0  0  0  0  0  0  0  0  0
  -28.5476  -26.9692   20.2854 O   0  0  0  0  0  0  0  0  0  1  0  0
  -20.8341   -9.6041   22.5425 F   0  0  0  0  0  0  0  0  0  0  0  0
  -25.5433   -9.1425   22.6685 F   0  0  0  0  0  0  0  0  0  0  0  0
  1  2  1  0  0  0  0
  1  5  2  0  0  0  0
  2  6  2  0  0  0  0
  3  8  2  0  0  0  0
  3 16  1  0  0  0  0
  4  9  1  0  0  0  0
  4 16  2  0  0  0  0
  5 18  1  0  0  0  0
  6 20  1  0  0  0  0
  7 10  2  0  0  0  0
  7 19  1  0  0  0  0
  8 22  1  0  0  0  0
  9 22  2  0  0  0  0
 10 23  1  0  0  0  0
 11 12  2  0  0  0  0
 11 24  1  0  0  0  0
 12 25  1  0  0  0  0
 13 21  1  0  0  0  0
 13 23  2  0  0  0  0
 14 25  2  0  0  0  0
 14 26  1  0  0  0  0
 15 28  2  0  0  0  0
 15 29  1  0  0  0  0
 16 27  1  0  0  0  0
 17 27  1  0  0  0  0
 17 30  2  0  0  0  0
 17 32  1  0  0  0  0
 18 20  2  0  0  0  0
 18 37  1  0  0  0  0
 19 21  2  0  0  0  0
 19 38  1  0  0  0  0
 20 48  1  0  0  0  0
 21 39  1  0  0  0  0
 22 83  1  0  0  0  0
 23 84  1  0  0  0  0
 24 26  2  0  0  0  0
 24 83  1  0  0  0  0
 25 85  1  0  0  0  0
 26 86  1  0  0  0  0
 27 64  2  0  0  0  0
 28 49  1  0  0  0  0
 28 65  1  0  0  0  0
 29 60  1  0  0  0  0
 29 66  2  0  0  0  0
 30 67  1  0  0  0  0
 30 70  1  0  0  0  0
 31 65  2  0  0  0  0
 31 66  1  0  0  0  0
 31 72  1  0  0  0  0
 32 71  1  0  0  0  0
 32 78  2  0  0  0  0
 33 50  1  0  0  0  0
 33 73  1  0  0  0  0
 33 79  2  0  0  0  0
 34 61  1  0  0  0  0
 34 68  1  0  0  0  0
 34 80  2  0  0  0  0
 35 62  1  0  0  0  0
 35 74  1  0  0  0  0
 35 81  2  0  0  0  0
 36 69  1  0  0  0  0
 36 75  1  0  0  0  0
 36 82  2  0  0  0  0
 37 40  1  0  0  0  0
 38 50  1  0  0  0  0
 39 68  1  0  0  0  0
 40 42  1  0  0  0  0
 41 45  1  0  0  0  0
 41 46  1  0  0  0  0
 42 48  1  0  0  0  0
 43 44  1  0  0  0  0
 43 49  1  0  0  0  0
 44 49  1  0  0  0  0
 45 51  1  0  0  0  0
 46 69  1  0  0  0  0
 47 51  1  0  0  0  0
 47 69  1  0  0  0  0
 48 73  1  0  0  0  0
 50 68  1  0  0  0  0
 51 67  1  0  0  0  0
 52 62  1  0  0  0  0
 53 63  1  0  0  0  0
 54 63  1  0  0  0  0
 55 63  1  0  0  0  0
 56 77  1  0  0  0  0
 57 58  1  0  0  0  0
 57 72  1  0  0  0  0
 58 75  1  0  0  0  0
 59 60  1  0  0  0  0
 59 84  1  0  0  0  0
 60 76  1  0  0  0  0
 61 63  1  0  0  0  0
 61 74  1  0  0  0  0
 62 77  1  0  0  0  0
 64 67  1  0  0  0  0
M  CHG  2  76   1  77   1
M  ISO  4  36 100  59 101  75 100  84 101
M  END
> <Batch ID>
0126

> <Smiles>
CNC(C)C(=O)NC(C(=O)N1Cc2cc([101O:1][101CH2:1]C(N)c3cc(C4CC4)nc(NCC[100NH:0][100C:0](=O)N4CCCC(n5nc(-c6ccc(Oc7ccc(F)cc7F)cc6)c(C(N)=O)c5N)C4)n3)ccc2CC1C(=O)NC1CCCc2ccccc21)C(C)(C)C

> <Shape>
0.220

> <Color>
0.080

> <Negative vol penalty>
0.000

$$$$

  -OEChem-04052320383D

 87 96  0     1  0  0  0  0  0999 V2000
  -16.8228  -29.5885   23.0221 C   0  0  0  0  0  0  0  0  0  0  0  0
  -18.1149  -29.9111   23.4244 C   0  0  0  0  0  0  0  0  0  0  0  0
  -26.6049  -12.6943   20.9228 C   0  0  0  0  0  0  0  0  0  0  0  0
  -25.2730  -14.3770   19.8129 C   0  0  0  0  0  0  0  0  0  0  0  0
  -16.4224  -28.2540   22.9713 C   0  0  0  0  0  0  0  0  0  0  0  0
  -19.0071  -28.8992   23.7773 C   0  0  0  0  0  0  0  0  0  0  0  0
  -25.2748  -28.1080   20.3159 C   0  0  0  0  0  0  0  0  0  0  0  0
  -25.4420  -12.0819   21.3898 C   0  0  0  0  0  0  0  0  0  0  0  0
  -24.1100  -13.7645   20.2799 C   0  0  0  0  0  0  0  0  0  0  0  0
  -26.5844  -28.0224   19.8427 C   0  0  0  0  0  0  0  0  0  0  0  0
  -23.0476  -10.0276   20.1734 C   0  0  0  0  0  0  0  0  0  0  0  0
  -22.9602   -8.6392   20.0713 C   0  0  0  0  0  0  0  0  0  0  0  0
  -26.9668  -26.0732   21.2219 C   0  0  0  0  0  0  0  0  0  0  0  0
  -22.7244   -8.4775   22.4703 C   0  0  0  0  0  0  0  0  0  0  0  0
  -32.6203  -24.4018   19.2740 C   0  0  0  0  0  0  0  0  0  0  0  0
  -26.5204  -13.8419   20.1343 C   0  0  0  0  0  0  0  0  0  0  0  0
  -28.3950  -14.2122   18.4443 C   0  0  0  0  0  0  0  0  0  0  0  0
  -17.3132  -27.2247   23.3145 C   0  0  0  0  0  0  0  0  0  0  0  0
  -24.8009  -27.1661   21.2333 C   0  0  0  0  0  0  0  0  0  0  0  0
  -18.6178  -27.5497   23.7324 C   0  0  0  0  0  0  0  0  0  0  0  0
  -25.6521  -26.1464   21.6899 C   0  0  0  0  0  0  0  0  0  0  0  0
  -31.7314  -25.2455   18.6539 C   0  0  0  0  0  0  0  0  0  0  0  0
  -24.1946  -12.6169   21.0684 C   0  0  0  0  0  0  0  0  0  0  0  0
  -27.4283  -27.0077   20.2948 C   0  0  0  0  0  0  0  0  0  0  0  0
  -22.9734  -10.6409   21.4241 C   0  0  0  0  0  0  0  0  0  0  0  0
  -22.7986   -7.8642   21.2197 C   0  0  0  0  0  0  0  0  0  0  0  0
  -22.8118   -9.8659   22.5725 C   0  0  0  0  0  0  0  0  0  0  0  0
  -27.7213  -14.4754   19.6521 C   0  0  0  0  0  0  0  0  0  0  0  0
  -31.0777  -24.4339   17.7074 C   0  0  0  0  0  0  0  0  0  0  0  0
  -29.4677  -15.0700   18.4555 C   0  0  0  0  0  0  0  0  0  0  0  0
  -28.0793  -13.2763   17.4051 C   0  0  0  0  0  0  0  0  0  0  0  0
  -21.9224  -25.9513   23.3105 C   0  0  0  0  0  0  0  0  0  0  0  0
  -23.3084  -23.4648   22.1676 C   0  0  0  0  0  0  0  0  0  0  0  0
  -24.8604  -21.0126   20.3744 C   0  0  0  0  0  0  0  0  0  0  0  0
  -31.5530  -20.0694   19.2311 C   0  0  0  0  0  0  0  0  0  0  0  0
  -16.8201  -25.7996   23.2895 C   0  0  0  0  0  0  0  0  0  0  0  0
  -23.4169  -27.2558   21.8166 C   0  0  0  0  0  0  0  0  0  0  0  0
  -25.1100  -25.1758   22.7034 C   0  0  0  0  0  0  0  0  0  0  0  0
  -17.9429  -24.7659   23.3201 C   0  0  0  0  0  0  0  0  0  0  0  0
  -31.3351  -17.9632   22.1626 C   0  0  0  0  0  0  0  0  0  0  0  0
  -32.6164  -29.0099   18.8846 C   0  0  0  0  0  0  0  0  0  0  0  0
  -32.7898  -27.5202   18.6025 C   0  0  0  0  0  0  0  0  0  0  0  0
  -18.9682  -25.1230   24.3916 C   0  0  0  0  0  0  0  0  0  0  0  0
  -30.4250  -16.8392   21.6633 C   0  0  0  0  0  0  0  0  0  0  0  0
  -30.9059  -19.3132   21.5964 C   0  0  0  0  0  0  0  0  0  0  0  0
  -29.9231  -18.2401   19.6071 C   0  0  0  0  0  0  0  0  0  0  0  0
  -32.1632  -29.2560   20.3125 C   0  0  0  0  0  0  0  0  0  0  0  0
  -31.5128  -26.7239   18.9360 C   0  0  2  0  0  0  0  0  0  0  0  0
  -19.6223  -26.4788   24.0992 C   0  0  1  0  0  0  0  0  0  0  0  0
  -22.7845  -25.8783   22.0846 C   0  0  1  0  0  0  0  0  0  0  0  0
  -30.3171  -16.8455   20.1267 C   0  0  2  0  0  0  0  0  0  0  0  0
  -31.0434  -26.9979   20.3826 C   0  0  2  0  0  0  0  0  0  0  0  0
  -28.6873  -24.0741   16.9932 C   0  0  0  0  0  0  0  0  0  0  0  0
  -30.4402  -24.6611   15.2792 C   0  0  0  0  0  0  0  0  0  0  0  0
  -24.8320  -18.5322   19.9944 C   0  0  0  0  0  0  0  0  0  0  0  0
  -24.7102  -23.0425   24.8435 C   0  0  0  0  0  0  0  0  0  0  0  0
  -25.4851  -20.8142   24.0054 C   0  0  0  0  0  0  0  0  0  0  0  0
  -23.0452  -21.2742   24.2470 C   0  0  0  0  0  0  0  0  0  0  0  0
  -24.2231  -21.3428   17.5032 C   0  0  0  0  0  0  0  0  0  0  0  0
  -29.6853  -26.3784   20.7042 C   0  0  0  0  0  0  0  0  0  1  0  0
  -33.1976  -21.9225   19.0145 C   0  0  0  0  0  0  0  0  0  0  0  0
  -30.0198  -24.8252   16.7593 C   0  0  0  0  0  0  0  0  0  0  0  0
  -24.3359  -22.3812   22.3760 C   0  0  1  0  0  0  0  0  0  0  0  0
  -24.3077  -19.8810   19.5267 C   0  0  2  0  0  0  0  0  0  0  0  0
  -24.4003  -21.9018   23.8536 C   0  0  0  0  0  0  0  0  0  0  0  0
  -28.3163  -15.4257   20.3779 N   0  0  0  0  0  0  0  0  0  0  0  0
  -31.5141  -23.1717   17.7213 N   0  0  0  0  0  0  0  0  0  0  0  0
  -32.4517  -23.1837   18.6840 N   0  0  0  0  0  0  0  0  0  0  0  0
  -29.3751  -15.7673   19.6240 N   0  0  0  0  0  0  0  0  0  0  0  0
  -23.7382  -24.7859   22.3418 N   0  0  0  0  0  0  0  0  0  0  0  0
  -30.8427  -19.2559   20.1293 N   0  0  0  0  0  0  0  0  0  0  0  0
  -30.4717  -15.2881   17.5799 N   0  0  0  0  0  0  0  0  0  0  0  0
  -26.9411  -12.4720   17.5534 N   0  0  0  0  0  0  0  0  0  0  0  0
  -20.6214  -26.3445   23.0608 N   0  0  0  0  0  0  0  0  0  0  0  0
  -24.0172  -21.3270   21.4191 N   0  0  0  0  0  0  0  0  0  0  0  0
  -32.3943  -21.0111   19.8122 N   0  0  0  0  0  0  0  0  0  0  0  0
  -30.9098  -28.4878   20.5668 N   0  3  0  0  0  0  0  0  0  0  0  0
  -24.6944  -20.0664   18.0995 N   0  3  0  0  0  0  0  0  0  0  0  0
  -28.7948  -13.1451   16.3831 O   0  0  0  0  0  0  0  0  0  0  0  0
  -22.4008  -25.6704   24.4031 O   0  0  0  0  0  0  0  0  0  0  0  0
  -22.1540  -23.1510   21.8640 O   0  0  0  0  0  0  0  0  0  0  0  0
  -25.9346  -21.5602   20.1359 O   0  0  0  0  0  0  0  0  0  0  0  0
  -31.4483  -19.9626   18.0047 O   0  0  0  0  0  0  0  0  0  0  0  0
  -23.0596  -12.0194   21.5238 O   0  0  0  0  0  0  0  0  0  0  0  0
  -28.7042  -26.9274   19.8253 O   0  0  0  0  0  0  0  0  0  1  0  0
  -22.7131   -6.5311   21.1212 F   0  0  0  0  0  0  0  0  0  0  0  0
  -22.7387  -10.4495   23.7766 F   0  0  0  0  0  0  0  0  0  0  0  0
  1  2  1  0  0  0  0
  1  5  2  0  0  0  0
  2  6  2  0  0  0  0
  3  8  2  0  0  0  0
  3 16  1  0  0  0  0
  4  9  1  0  0  0  0
  4 16  2  0  0  0  0
  5 18  1  0  0  0  0
  6 20  1  0  0  0  0
  7 10  2  0  0  0  0
  7 19  1  0  0  0  0
  8 23  1  0  0  0  0
  9 23  2  0  0  0  0
 10 24  1  0  0  0  0
 11 12  2  0  0  0  0
 11 25  1  0  0  0  0
 12 26  1  0  0  0  0
 13 21  1  0  0  0  0
 13 24  2  0  0  0  0
 14 26  2  0  0  0  0
 14 27  1  0  0  0  0
 15 22  2  0  0  0  0
 15 68  1  0  0  0  0
 16 28  1  0  0  0  0
 17 28  1  0  0  0  0
 17 30  2  0  0  0  0
 17 31  1  0  0  0  0
 18 20  2  0  0  0  0
 18 36  1  0  0  0  0
 19 21  2  0  0  0  0
 19 37  1  0  0  0  0
 20 49  1  0  0  0  0
 21 38  1  0  0  0  0
 22 29  1  0  0  0  0
 22 48  1  0  0  0  0
 23 84  1  0  0  0  0
 24 85  1  0  0  0  0
 25 27  2  0  0  0  0
 25 84  1  0  0  0  0
 26 86  1  0  0  0  0
 27 87  1  0  0  0  0
 28 66  2  0  0  0  0
 29 62  1  0  0  0  0
 29 67  2  0  0  0  0
 30 69  1  0  0  0  0
 30 72  1  0  0  0  0
 31 73  1  0  0  0  0
 31 79  2  0  0  0  0
 32 50  1  0  0  0  0
 32 74  1  0  0  0  0
 32 80  2  0  0  0  0
 33 63  1  0  0  0  0
 33 70  1  0  0  0  0
 33 81  2  0  0  0  0
 34 64  1  0  0  0  0
 34 75  1  0  0  0  0
 34 82  2  0  0  0  0
 35 71  1  0  0  0  0
 35 76  1  0  0  0  0
 35 83  2  0  0  0  0
 36 39  1  0  0  0  0
 37 50  1  0  0  0  0
 38 70  1  0  0  0  0
 39 43  1  0  0  0  0
 40 44  1  0  0  0  0
 40 45  1  0  0  0  0
 41 42  1  0  0  0  0
 41 47  1  0  0  0  0
 42 48  1  0  0  0  0
 43 49  1  0  0  0  0
 44 51  1  0  0  0  0
 45 71  1  0  0  0  0
 46 51  1  0  0  0  0
 46 71  1  0  0  0  0
 47 77  1  0  0  0  0
 48 52  1  0  0  0  0
 49 74  1  0  0  0  0
 50 70  1  0  0  0  0
 51 69  1  0  0  0  0
 52 60  1  0  0  0  0
 52 77  1  0  0  0  0
 53 62  1  0  0  0  0
 54 62  1  0  0  0  0
 55 64  1  0  0  0  0
 56 65  1  0  0  0  0
 57 65  1  0  0  0  0
 58 65  1  0  0  0  0
 59 78  1  0  0  0  0
 60 85  1  0  0  0  0
 61 68  1  0  0  0  0
 61 76  1  0  0  0  0
 63 65  1  0  0  0  0
 63 75  1  0  0  0  0
 64 78  1  0  0  0  0
 66 69  1  0  0  0  0
 67 68  1  0  0  0  0
M  CHG  2  77   1  78   1
M  ISO  4  35 100  60 101  76 100  85 101
M  END
> <Batch ID>
0126

> <Smiles>
CNC(C)C(=O)NC(C(=O)N1Cc2cc([101O:1][101CH2:1]C3NCCCC3c3cn(C[100NH:0][100C:0](=O)N4CCCC(n5nc(-c6ccc(Oc7ccc(F)cc7F)cc6)c(C(N)=O)c5N)C4)nc3C(C)C)ccc2CC1C(=O)NC1CCCc2ccccc21)C(C)(C)C

> <Shape>
0.237

> <Color>
0.056

> <Negative vol penalty>
0.000

$$$$

  -OEChem-04052320383D

 84 92  0     1  0  0  0  0  0999 V2000
  -36.2901  -26.6187   12.7100 C   0  0  0  0  0  0  0  0  0  0  0  0
  -36.1329  -27.1886   13.9693 C   0  0  0  0  0  0  0  0  0  0  0  0
  -22.6379  -10.2234   20.2705 C   0  0  0  0  0  0  0  0  0  0  0  0
  -24.2677   -9.5395   21.9176 C   0  0  0  0  0  0  0  0  0  0  0  0
  -35.1903  -26.0686   12.0529 C   0  0  0  0  0  0  0  0  0  0  0  0
  -34.8755  -27.2097   14.5718 C   0  0  0  0  0  0  0  0  0  0  0  0
  -33.7764  -24.0876   20.9699 C   0  0  0  0  0  0  0  0  0  0  0  0
  -21.8956   -9.0705   20.5262 C   0  0  0  0  0  0  0  0  0  0  0  0
  -23.5253   -8.3866   22.1734 C   0  0  0  0  0  0  0  0  0  0  0  0
  -33.5359  -23.6968   22.2874 C   0  0  0  0  0  0  0  0  0  0  0  0
  -23.0446   -5.3634   20.7380 C   0  0  0  0  0  0  0  0  0  0  0  0
  -23.7355   -4.1554   20.8321 C   0  0  0  0  0  0  0  0  0  0  0  0
  -31.2075  -24.3067   22.0545 C   0  0  0  0  0  0  0  0  0  0  0  0
  -22.9392   -3.8762   23.0959 C   0  0  0  0  0  0  0  0  0  0  0  0
  -23.8240  -10.4579   20.9661 C   0  0  0  0  0  0  0  0  0  0  0  0
  -24.1689  -12.9828   20.8515 C   0  0  0  0  0  0  0  0  0  0  0  0
  -33.9207  -26.0743   12.6517 C   0  0  0  0  0  0  0  0  0  0  0  0
  -32.7288  -24.5756   20.1840 C   0  0  0  0  0  0  0  0  0  0  0  0
  -33.7575  -26.6603   13.9215 C   0  0  0  0  0  0  0  0  0  0  0  0
  -31.4397  -24.6879   20.7303 C   0  0  0  0  0  0  0  0  0  0  0  0
  -22.3393   -8.1521   21.4777 C   0  0  0  0  0  0  0  0  0  0  0  0
  -32.2547  -23.8063   22.8283 C   0  0  0  0  0  0  0  0  0  0  0  0
  -22.3011   -5.8279   21.8229 C   0  0  0  0  0  0  0  0  0  0  0  0
  -23.6828   -3.4118   22.0110 C   0  0  0  0  0  0  0  0  0  0  0  0
  -22.2483   -5.0843   23.0019 C   0  0  0  0  0  0  0  0  0  0  0  0
  -24.5915  -11.6483   20.7020 C   0  0  0  0  0  0  0  0  0  0  0  0
  -25.2571  -13.7317   20.4752 C   0  0  0  0  0  0  0  0  0  0  0  0
  -22.9058  -13.4993   21.2913 C   0  0  0  0  0  0  0  0  0  0  0  0
  -31.6343  -25.8981   16.8479 C   0  0  0  0  0  0  0  0  0  0  0  0
  -30.7672  -14.6726   20.6829 C   0  0  0  0  0  0  0  0  0  0  0  0
  -29.4132  -24.0276   17.8373 C   0  0  0  0  0  0  0  0  0  0  0  0
  -27.4000  -21.5741   19.0879 C   0  0  0  0  0  0  0  0  0  0  0  0
  -32.7526  -25.5099   11.8824 C   0  0  0  0  0  0  0  0  0  0  0  0
  -32.9546  -25.0659   18.7795 C   0  0  0  0  0  0  0  0  0  0  0  0
  -30.3506  -25.2508   19.8586 C   0  0  0  0  0  0  0  0  0  0  0  0
  -31.5266  -25.2372   12.7500 C   0  0  0  0  0  0  0  0  0  0  0  0
  -29.5610  -12.3886   18.1992 C   0  0  0  0  0  0  0  0  0  0  0  0
  -31.2428  -26.4264   13.6621 C   0  0  0  0  0  0  0  0  0  0  0  0
  -28.1367  -12.0788   18.6579 C   0  0  0  0  0  0  0  0  0  0  0  0
  -30.1079  -20.0772   22.6211 C   0  0  0  0  0  0  0  0  0  0  0  0
  -30.4996  -12.5845   19.3857 C   0  0  0  0  0  0  0  0  0  0  0  0
  -28.6187  -13.3171   20.8165 C   0  0  0  0  0  0  0  0  0  0  0  0
  -29.5258  -18.7058   22.3353 C   0  0  0  0  0  0  0  0  0  0  0  0
  -32.4143  -26.6801   14.6184 C   0  0  1  0  0  0  0  0  0  0  0  0
  -31.7661  -24.7829   17.8432 C   0  0  1  0  0  0  0  0  0  0  0  0
  -30.8328  -19.8835   23.9450 C   0  0  1  0  0  0  0  0  0  0  0  0
  -27.6314  -13.1423   19.6489 C   0  0  2  0  0  0  0  0  0  0  0  0
  -31.5397  -18.5440   23.7317 C   0  0  1  0  0  0  0  0  0  0  0  0
  -34.3465  -14.9280   25.8401 C   0  0  0  0  0  0  0  0  0  0  0  0
  -25.5170  -19.9166   19.1563 C   0  0  0  0  0  0  0  0  0  0  0  0
  -30.3903  -22.5911   25.6624 C   0  0  0  0  0  0  0  0  0  0  0  0
  -27.7920  -26.4554   18.7212 C   0  0  0  0  0  0  0  0  0  0  0  0
  -25.8538  -24.9239   19.1290 C   0  0  0  0  0  0  0  0  0  0  0  0
  -26.7893  -25.1636   16.8290 C   0  0  0  0  0  0  0  0  0  0  0  0
  -29.0391  -19.4831   17.7840 C   0  0  0  0  0  0  0  0  0  0  0  0
  -30.1551  -15.6639   21.6403 C   0  0  0  0  0  0  0  0  0  0  0  0
  -31.7847  -21.0252   24.2655 C   0  0  0  0  0  0  0  0  0  0  0  0
  -31.8998  -17.8224   25.0198 C   0  0  0  0  0  0  0  0  0  0  0  0
  -33.3057  -16.0109   26.0764 C   0  0  0  0  0  0  0  0  0  0  0  0
  -32.9711  -16.7573   24.7852 C   0  0  0  0  0  0  0  0  0  0  0  0
  -31.1244  -16.7895   21.9533 C   0  0  0  0  0  0  0  0  0  0  0  0
  -28.1057  -23.8968   18.5766 C   0  0  1  0  0  0  0  0  0  0  0  0
  -26.7884  -20.3449   18.4401 C   0  0  2  0  0  0  0  0  0  0  0  0
  -31.0711  -22.3779   24.3171 C   0  0  2  0  0  0  0  0  0  1  0  0
  -27.1601  -25.1055   18.3269 C   0  0  0  0  0  0  0  0  0  0  0  0
  -25.8498  -11.5518   20.2646 N   0  0  0  0  0  0  0  0  0  0  0  0
  -26.2273  -12.8352   20.1360 N   0  0  0  0  0  0  0  0  0  0  0  0
  -30.4524  -24.6898   18.5023 N   0  0  0  0  0  0  0  0  0  0  0  0
  -29.9734  -13.5861   20.3148 N   0  0  0  0  0  0  0  0  0  0  0  0
  -25.4690  -15.0631   20.4046 N   0  0  0  0  0  0  0  0  0  0  0  0
  -21.8972  -12.5907   21.6398 N   0  0  0  0  0  0  0  0  0  0  0  0
  -32.3941  -25.7263   15.7066 N   0  0  0  0  0  0  0  0  0  0  0  0
  -27.5437  -22.6080   18.1871 N   0  0  0  0  0  0  0  0  0  0  0  0
  -30.5138  -17.7278   22.9495 N   0  3  2  0  0  0  0  0  0  0  0  0
  -27.7519  -19.2084   18.4730 N   0  3  0  0  0  0  0  0  0  0  0  0
  -22.6729  -14.7301   21.3573 O   0  0  0  0  0  0  0  0  0  0  0  0
  -30.8965  -26.8447   17.0954 O   0  0  0  0  0  0  0  0  0  0  0  0
  -31.9155  -14.8616   20.2731 O   0  0  0  0  0  0  0  0  0  0  0  0
  -29.5117  -23.5614   16.6988 O   0  0  0  0  0  0  0  0  0  0  0  0
  -27.7150  -21.6143   20.2752 O   0  0  0  0  0  0  0  0  0  0  0  0
  -21.6151   -7.0271   21.7277 O   0  0  0  0  0  0  0  0  0  0  0  0
  -32.0259  -23.4188   24.1137 O   0  0  0  0  0  0  0  0  0  1  0  0
  -24.3451   -2.2509   22.1006 F   0  0  0  0  0  0  0  0  0  0  0  0
  -21.5347   -5.5248   24.0471 F   0  0  0  0  0  0  0  0  0  0  0  0
  1  2  1  0  0  0  0
  1  5  2  0  0  0  0
  2  6  2  0  0  0  0
  3  8  2  0  0  0  0
  3 15  1  0  0  0  0
  4  9  1  0  0  0  0
  4 15  2  0  0  0  0
  5 17  1  0  0  0  0
  6 19  1  0  0  0  0
  7 10  2  0  0  0  0
  7 18  1  0  0  0  0
  8 21  1  0  0  0  0
  9 21  2  0  0  0  0
 10 22  1  0  0  0  0
 11 12  2  0  0  0  0
 11 23  1  0  0  0  0
 12 24  1  0  0  0  0
 13 20  1  0  0  0  0
 13 22  2  0  0  0  0
 14 24  2  0  0  0  0
 14 25  1  0  0  0  0
 15 26  1  0  0  0  0
 16 26  1  0  0  0  0
 16 27  2  0  0  0  0
 16 28  1  0  0  0  0
 17 19  2  0  0  0  0
 17 33  1  0  0  0  0
 18 20  2  0  0  0  0
 18 34  1  0  0  0  0
 19 44  1  0  0  0  0
 20 35  1  0  0  0  0
 21 81  1  0  0  0  0
 22 82  1  0  0  0  0
 23 25  2  0  0  0  0
 23 81  1  0  0  0  0
 24 83  1  0  0  0  0
 25 84  1  0  0  0  0
 26 66  2  0  0  0  0
 27 67  1  0  0  0  0
 27 70  1  0  0  0  0
 28 71  1  0  0  0  0
 28 76  2  0  0  0  0
 29 45  1  0  0  0  0
 29 72  1  0  0  0  0
 29 77  2  0  0  0  0
 30 56  1  0  0  0  0
 30 69  1  0  0  0  0
 30 78  2  0  0  0  0
 31 62  1  0  0  0  0
 31 68  1  0  0  0  0
 31 79  2  0  0  0  0
 32 63  1  0  0  0  0
 32 73  1  0  0  0  0
 32 80  2  0  0  0  0
 33 36  1  0  0  0  0
 34 45  1  0  0  0  0
 35 68  1  0  0  0  0
 36 38  1  0  0  0  0
 37 39  1  0  0  0  0
 37 41  1  0  0  0  0
 38 44  1  0  0  0  0
 39 47  1  0  0  0  0
 40 43  1  0  0  0  0
 40 46  1  0  0  0  0
 41 69  1  0  0  0  0
 42 47  1  0  0  0  0
 42 69  1  0  0  0  0
 43 74  1  0  0  0  0
 44 72  1  0  0  0  0
 45 68  1  0  0  0  0
 46 48  1  0  0  0  0
 46 57  1  0  0  0  0
 47 67  1  0  0  0  0
 48 58  1  0  0  0  0
 48 74  1  0  0  0  0
 49 59  1  0  0  0  0
 50 63  1  0  0  0  0
 51 64  1  0  0  0  0
 52 65  1  0  0  0  0
 53 65  1  0  0  0  0
 54 65  1  0  0  0  0
 55 75  1  0  0  0  0
 56 61  1  0  0  0  0
 57 64  1  0  0  0  0
 58 60  1  0  0  0  0
 59 60  1  0  0  0  0
 61 74  1  0  0  0  0
 62 65  1  0  0  0  0
 62 73  1  0  0  0  0
 63 75  1  0  0  0  0
 64 82  1  0  0  0  0
 66 67  1  0  0  0  0
M  CHG  2  74   1  75   1
M  ISO  4  30 100  56 100  64 101  82 101
M  END
> <Batch ID>
0126

> <Smiles>
CCCCC1C(C[101CH:1](C)[101O:1]c2ccc3c(c2)CN(C(=O)C(NC(=O)C(C)NC)C(C)(C)C)C(C(=O)NC2CCCc4ccccc42)C3)CCN1C[100CH2:0][100C:0](=O)N1CCCC(n2nc(-c3ccc(Oc4ccc(F)cc4F)cc3)c(C(N)=O)c2N)C1

> <Shape>
0.242

> <Color>
0.191

> <Negative vol penalty>
0.000

$$$$

  -OEChem-04052320383D

 86 95  0     1  0  0  0  0  0999 V2000
  -16.8631  -29.1146   24.4020 C   0  0  0  0  0  0  0  0  0  0  0  0
  -17.2297  -28.0814   23.5457 C   0  0  0  0  0  0  0  0  0  0  0  0
  -25.3284  -13.8176   22.2366 C   0  0  0  0  0  0  0  0  0  0  0  0
  -26.7483  -13.8405   20.2820 C   0  0  0  0  0  0  0  0  0  0  0  0
  -17.5760  -30.3127   24.3923 C   0  0  0  0  0  0  0  0  0  0  0  0
  -18.3089  -28.2461   22.6782 C   0  0  0  0  0  0  0  0  0  0  0  0
  -26.0177  -22.4497   15.1436 C   0  0  0  0  0  0  0  0  0  0  0  0
  -26.8637  -21.9811   17.3575 C   0  0  0  0  0  0  0  0  0  0  0  0
  -22.2975  -23.9496   20.9069 C   0  0  0  0  0  0  0  0  0  0  0  0
  -24.4587  -12.9361   21.5945 C   0  0  0  0  0  0  0  0  0  0  0  0
  -25.8786  -12.9589   19.6399 C   0  0  0  0  0  0  0  0  0  0  0  0
  -24.7503  -22.6833   15.6773 C   0  0  0  0  0  0  0  0  0  0  0  0
  -25.5964  -22.2147   17.8912 C   0  0  0  0  0  0  0  0  0  0  0  0
  -22.3815  -23.1642   19.7580 C   0  0  0  0  0  0  0  0  0  0  0  0
  -24.3252   -9.6286   20.9049 C   0  0  0  0  0  0  0  0  0  0  0  0
  -23.8598   -8.5327   21.6316 C   0  0  0  0  0  0  0  0  0  0  0  0
  -23.9342  -24.7424   18.8000 C   0  0  0  0  0  0  0  0  0  0  0  0
  -21.5880   -9.2983   21.3311 C   0  0  0  0  0  0  0  0  0  0  0  0
  -26.4732  -14.2698   21.5803 C   0  0  0  0  0  0  0  0  0  0  0  0
  -28.0733  -14.9605   23.4431 C   0  0  0  0  0  0  0  0  0  0  0  0
  -27.0744  -22.0986   15.9836 C   0  0  0  0  0  0  0  0  0  0  0  0
  -18.6706  -30.4887   23.5311 C   0  0  0  0  0  0  0  0  0  0  0  0
  -23.0240  -25.1448   21.0067 C   0  0  0  0  0  0  0  0  0  0  0  0
  -19.0364  -29.4482   22.6559 C   0  0  0  0  0  0  0  0  0  0  0  0
  -23.8597  -25.5398   19.9523 C   0  0  0  0  0  0  0  0  0  0  0  0
  -24.7339  -12.5067   20.2962 C   0  0  0  0  0  0  0  0  0  0  0  0
  -24.5397  -22.5658   17.0512 C   0  0  0  0  0  0  0  0  0  1  0  0
  -23.1977  -23.5621   18.7032 C   0  0  0  0  0  0  0  0  0  0  0  0
  -23.4220  -10.5594   20.3914 C   0  0  0  0  0  0  0  0  0  0  0  0
  -22.4912   -8.3675   21.8447 C   0  0  0  0  0  0  0  0  0  0  0  0
  -22.0535  -10.3942   20.6044 C   0  0  0  0  0  0  0  0  0  0  0  0
  -27.3716  -15.1809   22.2428 C   0  0  0  0  0  0  0  0  0  0  0  0
  -28.7827  -16.1193   23.6439 C   0  0  0  0  0  0  0  0  0  0  0  0
  -28.0830  -13.8110   24.3000 C   0  0  0  0  0  0  0  0  0  0  0  0
  -22.2611  -28.2123   21.3417 C   0  0  0  0  0  0  0  0  0  0  0  0
  -25.4717  -28.5774   21.6264 C   0  0  0  0  0  0  0  0  0  0  0  0
  -28.5946  -27.3690   20.9680 C   0  0  0  0  0  0  0  0  0  0  0  0
  -30.7884  -20.3673   19.9313 C   0  0  0  0  0  0  0  0  0  0  0  0
  -19.3813  -31.8189   23.5229 C   0  0  0  0  0  0  0  0  0  0  0  0
  -22.9431  -25.9671   22.2636 C   0  0  0  0  0  0  0  0  0  0  0  0
  -24.6758  -26.8040   20.0181 C   0  0  0  0  0  0  0  0  0  0  0  0
  -20.7453  -31.7765   22.8387 C   0  0  0  0  0  0  0  0  0  0  0  0
  -28.6266  -20.8121   22.7251 C   0  0  0  0  0  0  0  0  0  0  0  0
  -29.4900  -22.8505   15.9335 C   0  0  0  0  0  0  0  0  0  0  0  0
  -28.9127  -20.3945   15.6350 C   0  0  0  0  0  0  0  0  0  0  0  0
  -20.6526  -31.0349   21.5089 C   0  0  0  0  0  0  0  0  0  0  0  0
  -28.1231  -19.3995   23.0266 C   0  0  0  0  0  0  0  0  0  0  0  0
  -30.8759  -22.5961   15.3372 C   0  0  0  0  0  0  0  0  0  0  0  0
  -30.2994  -20.1420   15.0394 C   0  0  0  0  0  0  0  0  0  0  0  0
  -28.7875  -21.0456   21.2246 C   0  0  0  0  0  0  0  0  0  0  0  0
  -29.1182  -18.6355   20.8300 C   0  0  0  0  0  0  0  0  0  0  0  0
  -28.4539  -21.8445   15.4031 C   0  0  0  0  0  0  0  0  0  0  0  0
  -20.2167  -29.5797   21.7180 C   0  0  1  0  0  0  0  0  0  0  0  0
  -23.3296  -27.4271   22.0483 C   0  0  1  0  0  0  0  0  0  0  0  0
  -28.9935  -18.3341   22.3333 C   0  0  2  0  0  0  0  0  0  0  0  0
  -31.3474  -21.1520   15.5067 C   0  0  0  0  0  0  0  0  0  0  0  0
  -31.0241  -27.9067   21.2940 C   0  0  0  0  0  0  0  0  0  0  0  0
  -25.3053  -30.6641   19.4064 C   0  0  0  0  0  0  0  0  0  0  0  0
  -27.7848  -30.4615   19.1256 C   0  0  0  0  0  0  0  0  0  0  0  0
  -26.8379  -31.2641   21.2893 C   0  0  0  0  0  0  0  0  0  0  0  0
  -29.0470  -24.9073   22.5473 C   0  0  0  0  0  0  0  0  0  0  0  0
  -32.7529  -19.5321   18.6654 C   0  0  0  0  0  0  0  0  0  0  0  0
  -32.5061  -19.7023   17.1780 C   0  0  0  0  0  0  0  0  0  0  0  0
  -26.6089  -28.8249   20.6650 C   0  0  1  0  0  0  0  0  0  0  0  0
  -29.8109  -27.1830   21.8572 C   0  0  2  0  0  0  0  0  0  0  0  0
  -26.6175  -30.2807   20.1192 C   0  0  0  0  0  0  0  0  0  0  0  0
  -27.6132  -16.3851   21.7179 N   0  0  0  0  0  0  0  0  0  0  0  0
  -28.4746  -16.9319   22.5927 N   0  0  0  0  0  0  0  0  0  0  0  0
  -24.5579  -27.5771   21.2654 N   0  0  0  0  0  0  0  0  0  0  0  0
  -29.6247  -20.0020   20.6280 N   0  0  0  0  0  0  0  0  0  0  0  0
  -29.6337  -16.5124   24.6153 N   0  0  0  0  0  0  0  0  0  0  0  0
  -27.2966  -12.7065   23.9452 N   0  0  0  0  0  0  0  0  0  0  0  0
  -21.3286  -28.7815   22.1879 N   0  0  0  0  0  0  0  0  0  0  0  0
  -27.8286  -28.4433   21.3686 N   0  0  0  0  0  0  0  0  0  0  0  0
  -31.5279  -19.3163   19.4027 N   0  0  0  0  0  0  0  0  0  0  0  0
  -31.6646  -20.9031   16.9426 N   0  3  0  0  0  0  0  0  0  0  0  0
  -30.1436  -25.7359   21.9836 N   0  3  0  0  0  0  0  0  0  0  0  0
  -28.7561  -13.7710   25.3578 O   0  0  0  0  0  0  0  0  0  0  0  0
  -22.2819  -28.2968   20.1194 O   0  0  0  0  0  0  0  0  0  0  0  0
  -25.4007  -29.2422   22.6631 O   0  0  0  0  0  0  0  0  0  0  0  0
  -28.3507  -26.6370   20.0114 O   0  0  0  0  0  0  0  0  0  0  0  0
  -31.1451  -21.5426   19.7954 O   0  0  0  0  0  0  0  0  0  0  0  0
  -23.2811  -22.7977   17.5804 O   0  0  0  0  0  0  0  0  0  1  0  0
  -23.8856  -11.6464   19.6695 O   0  0  0  0  0  0  0  0  0  0  0  0
  -22.0443   -7.3143   22.5412 F   0  0  0  0  0  0  0  0  0  0  0  0
  -21.1809  -11.2844   20.1125 F   0  0  0  0  0  0  0  0  0  0  0  0
  1  2  1  0  0  0  0
  1  5  2  0  0  0  0
  2  6  2  0  0  0  0
  3 10  2  0  0  0  0
  3 19  1  0  0  0  0
  4 11  1  0  0  0  0
  4 19  2  0  0  0  0
  5 22  1  0  0  0  0
  6 24  1  0  0  0  0
  7 12  2  0  0  0  0
  7 21  1  0  0  0  0
  8 13  1  0  0  0  0
  8 21  2  0  0  0  0
  9 14  2  0  0  0  0
  9 23  1  0  0  0  0
 10 26  1  0  0  0  0
 11 26  2  0  0  0  0
 12 27  1  0  0  0  0
 13 27  2  0  0  0  0
 14 28  1  0  0  0  0
 15 16  2  0  0  0  0
 15 29  1  0  0  0  0
 16 30  1  0  0  0  0
 17 25  1  0  0  0  0
 17 28  2  0  0  0  0
 18 30  2  0  0  0  0
 18 31  1  0  0  0  0
 19 32  1  0  0  0  0
 20 32  1  0  0  0  0
 20 33  2  0  0  0  0
 20 34  1  0  0  0  0
 21 52  1  0  0  0  0
 22 24  2  0  0  0  0
 22 39  1  0  0  0  0
 23 25  2  0  0  0  0
 23 40  1  0  0  0  0
 24 53  1  0  0  0  0
 25 41  1  0  0  0  0
 26 84  1  0  0  0  0
 27 83  1  0  0  0  0
 28 83  1  0  0  0  0
 29 31  2  0  0  0  0
 29 84  1  0  0  0  0
 30 85  1  0  0  0  0
 31 86  1  0  0  0  0
 32 67  2  0  0  0  0
 33 68  1  0  0  0  0
 33 71  1  0  0  0  0
 34 72  1  0  0  0  0
 34 78  2  0  0  0  0
 35 54  1  0  0  0  0
 35 73  1  0  0  0  0
 35 79  2  0  0  0  0
 36 64  1  0  0  0  0
 36 69  1  0  0  0  0
 36 80  2  0  0  0  0
 37 65  1  0  0  0  0
 37 74  1  0  0  0  0
 37 81  2  0  0  0  0
 38 70  1  0  0  0  0
 38 75  1  0  0  0  0
 38 82  2  0  0  0  0
 39 42  1  0  0  0  0
 40 54  1  0  0  0  0
 41 69  1  0  0  0  0
 42 46  1  0  0  0  0
 43 47  1  0  0  0  0
 43 50  1  0  0  0  0
 44 48  1  0  0  0  0
 44 52  1  0  0  0  0
 45 49  1  0  0  0  0
 45 52  1  0  0  0  0
 46 53  1  0  0  0  0
 47 55  1  0  0  0  0
 48 56  1  0  0  0  0
 49 56  1  0  0  0  0
 50 70  1  0  0  0  0
 51 55  1  0  0  0  0
 51 70  1  0  0  0  0
 53 73  1  0  0  0  0
 54 69  1  0  0  0  0
 55 68  1  0  0  0  0
 56 76  1  0  0  0  0
 57 65  1  0  0  0  0
 58 66  1  0  0  0  0
 59 66  1  0  0  0  0
 60 66  1  0  0  0  0
 61 77  1  0  0  0  0
 62 63  1  0  0  0  0
 62 75  1  0  0  0  0
 63 76  1  0  0  0  0
 64 66  1  0  0  0  0
 64 74  1  0  0  0  0
 65 77  1  0  0  0  0
 67 68  1  0  0  0  0
M  CHG  2  76   1  77   1
M  ISO  4  27 101  38 100  75 100  83 101
M  END
> <Batch ID>
0126

> <Smiles>
CNC(C)C(=O)NC(C(=O)N1Cc2cc([101O:1][101c:1]3ccc(C4CCC(NCC[100NH:0][100C:0](=O)N5CCCC(n6nc(-c7ccc(Oc8ccc(F)cc8F)cc7)c(C(N)=O)c6N)C5)CC4)cc3)ccc2CC1C(=O)NC1CCCc2ccccc21)C(C)(C)C

> <Shape>
0.213

> <Color>
0.077

> <Negative vol penalty>
0.000

$$$$

  -OEChem-04052320383D

 82 90  0     1  0  0  0  0  0999 V2000
  -41.7488  -30.4979   18.3393 C   0  0  0  0  0  0  0  0  0  0  0  0
  -41.4208  -29.1578   18.5175 C   0  0  0  0  0  0  0  0  0  0  0  0
  -23.0010   -9.8907   19.9819 C   0  0  0  0  0  0  0  0  0  0  0  0
  -23.7265   -9.9446   22.2858 C   0  0  0  0  0  0  0  0  0  0  0  0
  -40.7540  -31.4726   18.4054 C   0  0  0  0  0  0  0  0  0  0  0  0
  -40.0979  -28.7916   18.7630 C   0  0  0  0  0  0  0  0  0  0  0  0
  -35.4518  -23.4830   17.5184 C   0  0  0  0  0  0  0  0  0  0  0  0
  -30.2433  -18.9371   23.0717 C   0  0  0  0  0  0  0  0  0  0  0  0
  -22.2357   -8.7557   20.2495 C   0  0  0  0  0  0  0  0  0  0  0  0
  -22.9611   -8.8097   22.5534 C   0  0  0  0  0  0  0  0  0  0  0  0
  -34.5665  -22.6456   18.1957 C   0  0  0  0  0  0  0  0  0  0  0  0
  -23.2086   -5.4705   22.0847 C   0  0  0  0  0  0  0  0  0  0  0  0
  -23.7973   -4.4546   22.8377 C   0  0  0  0  0  0  0  0  0  0  0  0
  -29.7564  -17.6997   22.6655 C   0  0  0  0  0  0  0  0  0  0  0  0
  -32.9194  -24.4081   18.2096 C   0  0  0  0  0  0  0  0  0  0  0  0
  -22.0734   -4.6975   24.5130 C   0  0  0  0  0  0  0  0  0  0  0  0
  -32.2607  -18.4689   21.9024 C   0  0  0  0  0  0  0  0  0  0  0  0
  -23.7465  -10.4852   21.0001 C   0  0  0  0  0  0  0  0  0  0  0  0
  -24.1294  -13.0010   20.8216 C   0  0  0  0  0  0  0  0  0  0  0  0
  -39.4168  -31.1173   18.6423 C   0  0  0  0  0  0  0  0  0  0  0  0
  -35.0808  -24.7951   17.1907 C   0  0  0  0  0  0  0  0  0  0  0  0
  -39.0845  -29.7625   18.8337 C   0  0  0  0  0  0  0  0  0  0  0  0
  -33.8009  -25.2593   17.5259 C   0  0  0  0  0  0  0  0  0  0  0  0
  -31.5184  -19.3366   22.6871 C   0  0  0  0  0  0  0  0  0  0  0  0
  -22.2157   -8.2152   21.5352 C   0  0  0  0  0  0  0  0  0  0  0  0
  -33.3012  -23.1090   18.5440 C   0  0  0  0  0  0  0  0  0  0  0  0
  -22.0524   -6.1000   22.5458 C   0  0  0  0  0  0  0  0  0  0  0  0
  -23.2297   -4.0681   24.0518 C   0  0  0  0  0  0  0  0  0  0  0  0
  -21.4848   -5.7134   23.7599 C   0  0  0  0  0  0  0  0  0  0  0  0
  -24.5378  -11.6573   20.7242 C   0  0  0  0  0  0  0  0  0  0  0  0
  -30.5776  -16.9053   21.8816 C   0  0  0  0  0  0  0  0  0  0  0  0
  -25.2384  -13.7243   20.4563 C   0  0  0  0  0  0  0  0  0  0  0  0
  -22.8609  -13.5465   21.2078 C   0  0  0  0  0  0  0  0  0  0  0  0
  -36.1570  -27.6872   17.9532 C   0  0  0  0  0  0  0  0  0  0  0  0
  -33.9612  -28.6532   15.7697 C   0  0  0  0  0  0  0  0  0  0  0  0
  -31.0706  -27.9925   14.0801 C   0  0  0  0  0  0  0  0  0  0  0  0
  -30.7169  -14.6909   20.6885 C   0  0  0  0  0  0  0  0  0  0  0  0
  -38.3837  -32.2106   18.7521 C   0  0  0  0  0  0  0  0  0  0  0  0
  -36.0376  -25.6771   16.4363 C   0  0  0  0  0  0  0  0  0  0  0  0
  -33.3468  -26.6529   17.1791 C   0  0  0  0  0  0  0  0  0  0  0  0
  -36.9475  -31.7046   18.6438 C   0  0  0  0  0  0  0  0  0  0  0  0
  -29.6007  -12.2347   18.3652 C   0  0  0  0  0  0  0  0  0  0  0  0
  -36.7471  -30.4745   19.5232 C   0  0  0  0  0  0  0  0  0  0  0  0
  -28.1504  -11.9760   18.7798 C   0  0  0  0  0  0  0  0  0  0  0  0
  -30.5011  -12.4802   19.5746 C   0  0  0  0  0  0  0  0  0  0  0  0
  -28.5852  -13.2685   20.9076 C   0  0  0  0  0  0  0  0  0  0  0  0
  -37.6570  -29.3234   19.0773 C   0  0  1  0  0  0  0  0  0  0  0  0
  -35.7415  -27.1638   16.6075 C   0  0  1  0  0  0  0  0  0  0  0  0
  -27.6276  -13.0800   19.7197 C   0  0  2  0  0  0  0  0  0  0  0  0
  -33.3685  -20.5482   23.9126 C   0  0  0  0  0  0  0  0  0  0  0  0
  -29.5054  -28.9877   12.3898 C   0  0  0  0  0  0  0  0  0  0  0  0
  -32.8311  -30.5087   17.9122 C   0  0  0  0  0  0  0  0  0  0  0  0
  -30.7639  -30.7436   16.5196 C   0  0  0  0  0  0  0  0  0  0  0  0
  -32.9619  -31.5131   15.6257 C   0  0  0  0  0  0  0  0  0  0  0  0
  -31.5329  -25.7753   12.1750 C   0  0  0  0  0  0  0  0  0  0  0  0
  -31.1182  -21.9492   21.1878 C   0  0  0  0  0  0  0  0  0  0  0  0
  -31.5002  -22.9170   20.0853 C   0  0  0  0  0  0  0  0  0  1  0  0
  -32.0751  -20.6759   23.1118 C   0  0  1  0  0  0  0  0  0  0  0  0
  -32.5014  -29.0346   15.8183 C   0  0  1  0  0  0  0  0  0  0  0  0
  -30.7186  -28.0967   12.6071 C   0  0  2  0  0  0  0  0  0  0  0  0
  -32.2735  -30.4243   16.4773 C   0  0  0  0  0  0  0  0  0  0  0  0
  -31.8216  -17.2592   21.4882 N   0  0  0  0  0  0  0  0  0  0  0  0
  -25.8071  -11.5316   20.3280 N   0  0  0  0  0  0  0  0  0  0  0  0
  -26.2059  -12.8056   20.1731 N   0  0  0  0  0  0  0  0  0  0  0  0
  -34.3206  -27.4792   16.4468 N   0  0  0  0  0  0  0  0  0  0  0  0
  -29.9452  -13.5414   20.4169 N   0  0  0  0  0  0  0  0  0  0  0  0
  -25.4705  -15.0501   20.3529 N   0  0  0  0  0  0  0  0  0  0  0  0
  -21.8300  -12.6617   21.5523 N   0  0  0  0  0  0  0  0  0  0  0  0
  -30.0718  -15.6463   21.4733 N   0  0  0  0  0  0  0  0  0  0  0  0
  -37.1169  -28.6797   17.8990 N   0  0  0  0  0  0  0  0  0  0  0  0
  -32.0075  -28.9344   14.4492 N   0  0  0  0  0  0  0  0  0  0  0  0
  -30.4169  -26.7478   12.0500 N   0  3  0  0  0  0  0  0  0  0  0  0
  -32.3319  -21.5823   21.9602 N   0  3  0  0  0  0  0  0  0  0  0  0
  -22.6430  -14.7816   21.2304 O   0  0  0  0  0  0  0  0  0  0  0  0
  -35.6436  -27.2258   18.9658 O   0  0  0  0  0  0  0  0  0  0  0  0
  -34.7523  -29.3667   15.1478 O   0  0  0  0  0  0  0  0  0  0  0  0
  -30.5624  -27.1612   14.8292 O   0  0  0  0  0  0  0  0  0  0  0  0
  -31.8554  -14.8305   20.2342 O   0  0  0  0  0  0  0  0  0  0  0  0
  -21.4687   -7.1079   21.7967 O   0  0  0  0  0  0  0  0  0  0  0  0
  -32.4354  -22.2939   19.2057 O   0  0  0  0  0  0  0  0  0  1  0  0
  -23.7942   -3.0914   24.7741 F   0  0  0  0  0  0  0  0  0  0  0  0
  -20.3734   -6.3136   24.2075 F   0  0  0  0  0  0  0  0  0  0  0  0
  1  2  1  0  0  0  0
  1  5  2  0  0  0  0
  2  6  2  0  0  0  0
  3  9  2  0  0  0  0
  3 18  1  0  0  0  0
  4 10  1  0  0  0  0
  4 18  2  0  0  0  0
  5 20  1  0  0  0  0
  6 22  1  0  0  0  0
  7 11  2  0  0  0  0
  7 21  1  0  0  0  0
  8 14  2  0  0  0  0
  8 24  1  0  0  0  0
  9 25  1  0  0  0  0
 10 25  2  0  0  0  0
 11 26  1  0  0  0  0
 12 13  2  0  0  0  0
 12 27  1  0  0  0  0
 13 28  1  0  0  0  0
 14 31  1  0  0  0  0
 15 23  1  0  0  0  0
 15 26  2  0  0  0  0
 16 28  2  0  0  0  0
 16 29  1  0  0  0  0
 17 24  2  0  0  0  0
 17 62  1  0  0  0  0
 18 30  1  0  0  0  0
 19 30  1  0  0  0  0
 19 32  2  0  0  0  0
 19 33  1  0  0  0  0
 20 22  2  0  0  0  0
 20 38  1  0  0  0  0
 21 23  2  0  0  0  0
 21 39  1  0  0  0  0
 22 47  1  0  0  0  0
 23 40  1  0  0  0  0
 24 58  1  0  0  0  0
 25 79  1  0  0  0  0
 26 80  1  0  0  0  0
 27 29  2  0  0  0  0
 27 79  1  0  0  0  0
 28 81  1  0  0  0  0
 29 82  1  0  0  0  0
 30 63  2  0  0  0  0
 31 62  2  0  0  0  0
 31 69  1  0  0  0  0
 32 64  1  0  0  0  0
 32 67  1  0  0  0  0
 33 68  1  0  0  0  0
 33 74  2  0  0  0  0
 34 48  1  0  0  0  0
 34 70  1  0  0  0  0
 34 75  2  0  0  0  0
 35 59  1  0  0  0  0
 35 65  1  0  0  0  0
 35 76  2  0  0  0  0
 36 60  1  0  0  0  0
 36 71  1  0  0  0  0
 36 77  2  0  0  0  0
 37 66  1  0  0  0  0
 37 69  1  0  0  0  0
 37 78  2  0  0  0  0
 38 41  1  0  0  0  0
 39 48  1  0  0  0  0
 40 65  1  0  0  0  0
 41 43  1  0  0  0  0
 42 44  1  0  0  0  0
 42 45  1  0  0  0  0
 43 47  1  0  0  0  0
 44 49  1  0  0  0  0
 45 66  1  0  0  0  0
 46 49  1  0  0  0  0
 46 66  1  0  0  0  0
 47 70  1  0  0  0  0
 48 65  1  0  0  0  0
 49 64  1  0  0  0  0
 50 58  1  0  0  0  0
 51 60  1  0  0  0  0
 52 61  1  0  0  0  0
 53 61  1  0  0  0  0
 54 61  1  0  0  0  0
 55 72  1  0  0  0  0
 56 57  1  0  0  0  0
 56 73  1  0  0  0  0
 57 80  1  0  0  0  0
 58 73  1  0  0  0  0
 59 61  1  0  0  0  0
 59 71  1  0  0  0  0
 60 72  1  0  0  0  0
 63 64  1  0  0  0  0
M  CHG  2  72   1  73   1
M  ISO  4  37 100  57 101  69 100  80 101
M  END
> <Batch ID>
0126

> <Smiles>
CNC(C)C(=O)NC(C(=O)N1Cc2cc([101O:1][101CH2:1]CNC(C)c3ccc([100NH:0][100C:0](=O)N4CCCC(n5nc(-c6ccc(Oc7ccc(F)cc7F)cc6)c(C(N)=O)c5N)C4)nc3)ccc2CC1C(=O)NC1CCCc2ccccc21)C(C)(C)C

> <Shape>
0.183

> <Color>
0.194

> <Negative vol penalty>
0.000

$$$$

  -OEChem-04052320383D

 85 93  0     1  0  0  0  0  0999 V2000
  -16.8458  -26.1414   22.4216 C   0  0  0  0  0  0  0  0  0  0  0  0
  -18.1057  -25.6352   22.1186 C   0  0  0  0  0  0  0  0  0  0  0  0
  -24.2775  -13.6693   24.1353 C   0  0  0  0  0  0  0  0  0  0  0  0
  -23.6968  -15.5415   22.7229 C   0  0  0  0  0  0  0  0  0  0  0  0
  -16.7167  -27.4418   22.9077 C   0  0  0  0  0  0  0  0  0  0  0  0
  -19.2372  -26.4296   22.3003 C   0  0  0  0  0  0  0  0  0  0  0  0
  -23.0248  -23.9306   24.5484 C   0  0  0  0  0  0  0  0  0  0  0  0
  -29.8116  -18.7693   19.4293 C   0  0  0  0  0  0  0  0  0  0  0  0
  -23.7295  -14.3291   25.2352 C   0  0  0  0  0  0  0  0  0  0  0  0
  -23.1488  -16.2013   23.8229 C   0  0  0  0  0  0  0  0  0  0  0  0
  -23.7721  -23.0601   23.7561 C   0  0  0  0  0  0  0  0  0  0  0  0
  -29.0395  -19.4920   20.3389 C   0  0  0  0  0  0  0  0  0  0  0  0
  -21.9195  -18.5316   26.3266 C   0  0  0  0  0  0  0  0  0  0  0  0
  -22.2284  -19.8816   26.4929 C   0  0  0  0  0  0  0  0  0  0  0  0
  -25.4940  -24.7368   23.5487 C   0  0  0  0  0  0  0  0  0  0  0  0
  -27.7461  -20.4062   18.5145 C   0  0  0  0  0  0  0  0  0  0  0  0
  -24.5750  -19.3262   26.6421 C   0  0  0  0  0  0  0  0  0  0  0  0
  -24.2612  -14.2755   22.8791 C   0  0  0  0  0  0  0  0  0  0  0  0
  -24.1661  -12.7223   20.8577 C   0  0  0  0  0  0  0  0  0  0  0  0
  -17.8481  -28.2492   23.1046 C   0  0  0  0  0  0  0  0  0  0  0  0
  -23.5024  -25.2168   24.8382 C   0  0  0  0  0  0  0  0  0  0  0  0
  -19.1230  -27.7425   22.7881 C   0  0  0  0  0  0  0  0  0  0  0  0
  -24.7521  -25.6207   24.3470 C   0  0  0  0  0  0  0  0  0  0  0  0
  -29.5510  -18.8651   18.0624 C   0  0  0  0  0  0  0  0  0  0  0  0
  -28.5182  -19.6835   17.6049 C   0  0  0  0  0  0  0  0  0  0  0  0
  -23.1651  -15.5950   25.0791 C   0  0  0  0  0  0  0  0  0  0  0  0
  -25.0055  -23.4642   23.2537 C   0  0  0  0  0  0  0  0  0  0  0  0
  -28.0067  -20.3104   19.8814 C   0  0  0  0  0  0  0  0  0  0  0  0
  -22.9383  -17.5789   26.3181 C   0  0  0  0  0  0  0  0  0  0  0  0
  -23.5562  -20.2789   26.6506 C   0  0  0  0  0  0  0  0  0  0  0  0
  -24.2660  -17.9762   26.4759 C   0  0  0  0  0  0  0  0  0  0  0  0
  -24.8277  -13.5947   21.7425 C   0  0  0  0  0  0  0  0  0  0  0  0
  -25.1341  -12.3456   19.9590 C   0  0  0  0  0  0  0  0  0  0  0  0
  -22.7988  -12.2909   20.8489 C   0  0  0  0  0  0  0  0  0  0  0  0
  -22.4912  -28.1714   24.2457 C   0  0  0  0  0  0  0  0  0  0  0  0
  -24.9935  -28.9901   26.1405 C   0  0  0  0  0  0  0  0  0  0  0  0
  -28.0363  -28.1569   27.4420 C   0  0  0  0  0  0  0  0  0  0  0  0
  -30.2164  -14.9233   18.1214 C   0  0  0  0  0  0  0  0  0  0  0  0
  -17.6545  -29.6649   23.5874 C   0  0  0  0  0  0  0  0  0  0  0  0
  -22.6965  -26.1341   25.7165 C   0  0  0  0  0  0  0  0  0  0  0  0
  -25.3188  -26.9837   24.6459 C   0  0  0  0  0  0  0  0  0  0  0  0
  -18.9360  -30.3122   24.1059 C   0  0  0  0  0  0  0  0  0  0  0  0
  -29.8613  -11.7028   19.5975 C   0  0  0  0  0  0  0  0  0  0  0  0
  -20.0887  -30.0643   23.1381 C   0  0  0  0  0  0  0  0  0  0  0  0
  -28.4713  -11.7438   20.2348 C   0  0  0  0  0  0  0  0  0  0  0  0
  -30.5709  -13.0508   19.7039 C   0  0  0  0  0  0  0  0  0  0  0  0
  -28.4143  -14.2382   19.8183 C   0  0  0  0  0  0  0  0  0  0  0  0
  -20.3764  -28.5649   22.9952 C   0  0  1  0  0  0  0  0  0  0  0  0
  -23.0459  -27.6064   25.5227 C   0  0  1  0  0  0  0  0  0  0  0  0
  -27.6373  -12.9171   19.6862 C   0  0  2  0  0  0  0  0  0  0  0  0
  -28.4177  -21.2373   15.6227 C   0  0  0  0  0  0  0  0  0  0  0  0
  -26.8085  -19.3042   15.7919 C   0  0  0  0  0  0  0  0  0  0  0  0
  -29.8531  -29.0446   28.9282 C   0  0  0  0  0  0  0  0  0  0  0  0
  -25.9385  -30.8195   23.8888 C   0  0  0  0  0  0  0  0  0  0  0  0
  -28.1750  -30.9272   25.0089 C   0  0  0  0  0  0  0  0  0  0  0  0
  -26.1513  -31.7930   26.1826 C   0  0  0  0  0  0  0  0  0  0  0  0
  -27.7038  -25.9362   29.3699 C   0  0  0  0  0  0  0  0  0  0  0  0
  -30.3911  -18.0819   17.1079 C   0  0  0  0  0  0  0  0  0  0  0  0
  -29.7081  -16.8106   16.5920 C   0  0  0  0  0  0  0  0  0  0  0  0
  -26.5841  -23.2054   21.4938 C   0  0  0  0  0  0  0  0  0  1  0  0
  -26.7103  -22.2557   20.3184 C   0  0  0  0  0  0  0  0  0  0  0  0
  -28.2215  -19.8027   16.1461 C   0  0  0  0  0  0  0  0  0  0  0  0
  -26.4534  -29.2977   25.9099 C   0  0  1  0  0  0  0  0  0  0  0  0
  -28.5772  -28.2199   28.8590 C   0  0  2  0  0  0  0  0  0  0  0  0
  -26.6682  -30.6843   25.2401 C   0  0  0  0  0  0  0  0  0  0  0  0
  -26.1164  -13.7624   21.4340 N   0  0  0  0  0  0  0  0  0  0  0  0
  -26.2723  -12.9900   20.3453 N   0  0  0  0  0  0  0  0  0  0  0  0
  -24.4903  -27.8467   25.5040 N   0  0  0  0  0  0  0  0  0  0  0  0
  -29.7275  -14.1205   19.1652 N   0  0  0  0  0  0  0  0  0  0  0  0
  -25.1141  -11.5294   18.8840 N   0  0  0  0  0  0  0  0  0  0  0  0
  -21.9392  -12.7745   21.8446 N   0  0  0  0  0  0  0  0  0  0  0  0
  -21.1163  -28.0809   24.1410 N   0  0  0  0  0  0  0  0  0  0  0  0
  -27.1108  -29.1509   27.2040 N   0  0  0  0  0  0  0  0  0  0  0  0
  -29.3506  -15.9097   17.6650 N   0  0  0  0  0  0  0  0  0  0  0  0
  -28.8761  -26.8488   29.3607 N   0  3  0  0  0  0  0  0  0  0  0  0
  -22.3565  -11.4872   19.9933 O   0  0  0  0  0  0  0  0  0  0  0  0
  -23.2539  -28.6551   23.4175 O   0  0  0  0  0  0  0  0  0  0  0  0
  -24.3261  -29.7329   26.8647 O   0  0  0  0  0  0  0  0  0  0  0  0
  -28.4013  -27.3129   26.6266 O   0  0  0  0  0  0  0  0  0  0  0  0
  -31.3390  -14.7687   17.6287 O   0  0  0  0  0  0  0  0  0  0  0  0
  -22.6301  -16.2391   26.1522 O   0  0  0  0  0  0  0  0  0  0  0  0
  -25.7366  -22.6168   22.4796 O   0  0  0  0  0  0  0  0  0  1  0  0
  -27.2486  -21.0207   20.7747 O   0  0  0  0  0  0  0  0  0  0  0  0
  -23.8528  -21.5755   26.8087 F   0  0  0  0  0  0  0  0  0  0  0  0
  -25.2492  -17.0656   26.4674 F   0  0  0  0  0  0  0  0  0  0  0  0
  1  2  1  0  0  0  0
  1  5  2  0  0  0  0
  2  6  2  0  0  0  0
  3  9  2  0  0  0  0
  3 18  1  0  0  0  0
  4 10  1  0  0  0  0
  4 18  2  0  0  0  0
  5 20  1  0  0  0  0
  6 22  1  0  0  0  0
  7 11  2  0  0  0  0
  7 21  1  0  0  0  0
  8 12  2  0  0  0  0
  8 24  1  0  0  0  0
  9 26  1  0  0  0  0
 10 26  2  0  0  0  0
 11 27  1  0  0  0  0
 12 28  1  0  0  0  0
 13 14  2  0  0  0  0
 13 29  1  0  0  0  0
 14 30  1  0  0  0  0
 15 23  1  0  0  0  0
 15 27  2  0  0  0  0
 16 25  1  0  0  0  0
 16 28  2  0  0  0  0
 17 30  2  0  0  0  0
 17 31  1  0  0  0  0
 18 32  1  0  0  0  0
 19 32  1  0  0  0  0
 19 33  2  0  0  0  0
 19 34  1  0  0  0  0
 20 22  2  0  0  0  0
 20 39  1  0  0  0  0
 21 23  2  0  0  0  0
 21 40  1  0  0  0  0
 22 48  1  0  0  0  0
 23 41  1  0  0  0  0
 24 25  2  0  0  0  0
 24 58  1  0  0  0  0
 25 62  1  0  0  0  0
 26 81  1  0  0  0  0
 27 82  1  0  0  0  0
 28 83  1  0  0  0  0
 29 31  2  0  0  0  0
 29 81  1  0  0  0  0
 30 84  1  0  0  0  0
 31 85  1  0  0  0  0
 32 66  2  0  0  0  0
 33 67  1  0  0  0  0
 33 70  1  0  0  0  0
 34 71  1  0  0  0  0
 34 76  2  0  0  0  0
 35 49  1  0  0  0  0
 35 72  1  0  0  0  0
 35 77  2  0  0  0  0
 36 63  1  0  0  0  0
 36 68  1  0  0  0  0
 36 78  2  0  0  0  0
 37 64  1  0  0  0  0
 37 73  1  0  0  0  0
 37 79  2  0  0  0  0
 38 69  1  0  0  0  0
 38 74  1  0  0  0  0
 38 80  2  0  0  0  0
 39 42  1  0  0  0  0
 40 49  1  0  0  0  0
 41 68  1  0  0  0  0
 42 44  1  0  0  0  0
 43 45  1  0  0  0  0
 43 46  1  0  0  0  0
 44 48  1  0  0  0  0
 45 50  1  0  0  0  0
 46 69  1  0  0  0  0
 47 50  1  0  0  0  0
 47 69  1  0  0  0  0
 48 72  1  0  0  0  0
 49 68  1  0  0  0  0
 50 67  1  0  0  0  0
 51 62  1  0  0  0  0
 52 62  1  0  0  0  0
 53 64  1  0  0  0  0
 54 65  1  0  0  0  0
 55 65  1  0  0  0  0
 56 65  1  0  0  0  0
 57 75  1  0  0  0  0
 58 59  1  0  0  0  0
 59 74  1  0  0  0  0
 60 61  1  0  0  0  0
 60 82  1  0  0  0  0
 61 83  1  0  0  0  0
 63 65  1  0  0  0  0
 63 73  1  0  0  0  0
 64 75  1  0  0  0  0
 66 67  1  0  0  0  0
M  CHG  1  75   1
M  ISO  4  38 100  60 101  74 100  82 101
M  END
> <Batch ID>
0126

> <Smiles>
CNC(C)C(=O)NC(C(=O)N1Cc2cc([101O:1][101CH2:1]COc3ccc(CC[100NH:0][100C:0](=O)N4CCCC(n5nc(-c6ccc(Oc7ccc(F)cc7F)cc6)c(C(N)=O)c5N)C4)c(C(C)C)c3)ccc2CC1C(=O)NC1CCCc2ccccc21)C(C)(C)C

> <Shape>
0.209

> <Color>
0.095

> <Negative vol penalty>
0.000

$$$$

  -OEChem-04052320383D

 85 94  0     1  0  0  0  0  0999 V2000
  -37.2366  -13.3175   24.1712 C   0  0  0  0  0  0  0  0  0  0  0  0
  -36.6060  -14.5137   23.8443 C   0  0  0  0  0  0  0  0  0  0  0  0
  -24.6603  -27.3912   20.3232 C   0  0  0  0  0  0  0  0  0  0  0  0
  -26.1129  -29.0624   21.2896 C   0  0  0  0  0  0  0  0  0  0  0  0
  -36.8655  -12.1369   23.5289 C   0  0  0  0  0  0  0  0  0  0  0  0
  -35.6046  -14.5302   22.8741 C   0  0  0  0  0  0  0  0  0  0  0  0
  -30.6142  -18.0792   22.7940 C   0  0  0  0  0  0  0  0  0  0  0  0
  -25.7387  -26.8649   19.6121 C   0  0  0  0  0  0  0  0  0  0  0  0
  -27.1914  -28.5361   20.5786 C   0  0  0  0  0  0  0  0  0  0  0  0
  -30.3203  -19.2695   22.1303 C   0  0  0  0  0  0  0  0  0  0  0  0
  -28.3967  -28.6671   17.4225 C   0  0  0  0  0  0  0  0  0  0  0  0
  -29.2458  -29.5645   16.7749 C   0  0  0  0  0  0  0  0  0  0  0  0
  -29.2354  -18.0171   20.3772 C   0  0  0  0  0  0  0  0  0  0  0  0
  -31.1035  -28.7571   18.0917 C   0  0  0  0  0  0  0  0  0  0  0  0
  -24.8474  -28.4900   21.1619 C   0  0  0  0  0  0  0  0  0  0  0  0
  -22.5434  -29.5661   21.3648 C   0  0  0  0  0  0  0  0  0  0  0  0
  -35.8524  -12.1373   22.5572 C   0  0  0  0  0  0  0  0  0  0  0  0
  -30.2299  -16.8461   22.2479 C   0  0  0  0  0  0  0  0  0  0  0  0
  -35.2206  -13.3488   22.2172 C   0  0  0  0  0  0  0  0  0  0  0  0
  -29.5234  -16.8127   21.0372 C   0  0  0  0  0  0  0  0  0  0  0  0
  -27.0043  -27.4374   19.7398 C   0  0  0  0  0  0  0  0  0  0  0  0
  -29.6333  -19.2384   20.9203 C   0  0  0  0  0  0  0  0  0  0  0  0
  -28.9010  -27.8148   18.4048 C   0  0  0  0  0  0  0  0  0  0  0  0
  -30.5992  -29.6094   17.1095 C   0  0  0  0  0  0  0  0  0  0  0  0
  -30.2544  -27.8597   18.7394 C   0  0  0  0  0  0  0  0  0  0  0  0
  -23.7336  -29.0344   21.8962 C   0  0  0  0  0  0  0  0  0  0  0  0
  -21.8152  -29.9456   22.4658 C   0  0  0  0  0  0  0  0  0  0  0  0
  -22.1326  -29.7045   19.9981 C   0  0  0  0  0  0  0  0  0  0  0  0
  -31.7779  -14.2618   21.2337 C   0  0  0  0  0  0  0  0  0  0  0  0
  -28.7793  -13.0626   20.9294 C   0  0  0  0  0  0  0  0  0  0  0  0
  -25.4449  -13.6662   20.5237 C   0  0  0  0  0  0  0  0  0  0  0  0
  -25.2216  -28.1052   26.3989 C   0  0  0  0  0  0  0  0  0  0  0  0
  -35.5184  -10.8444   21.8561 C   0  0  0  0  0  0  0  0  0  0  0  0
  -30.5310  -15.5727   22.9896 C   0  0  0  0  0  0  0  0  0  0  0  0
  -29.0707  -15.5161   20.4188 C   0  0  0  0  0  0  0  0  0  0  0  0
  -34.1886  -10.8833   21.1076 C   0  0  0  0  0  0  0  0  0  0  0  0
  -24.0506  -31.4348   25.8429 C   0  0  0  0  0  0  0  0  0  0  0  0
  -24.3666  -25.0323   28.1239 C   0  0  0  0  0  0  0  0  0  0  0  0
  -34.0758  -12.1634   20.2858 C   0  0  0  0  0  0  0  0  0  0  0  0
  -27.2866  -24.3767   24.7902 C   0  0  0  0  0  0  0  0  0  0  0  0
  -24.9692  -25.1502   24.1509 C   0  0  0  0  0  0  0  0  0  0  0  0
  -27.5994  -24.0997   23.3208 C   0  0  0  0  0  0  0  0  0  0  0  0
  -25.2823  -24.8735   22.6815 C   0  0  0  0  0  0  0  0  0  0  0  0
  -22.5811  -31.2749   25.4692 C   0  0  0  0  0  0  0  0  0  0  0  0
  -25.2917  -24.4585   27.0600 C   0  0  0  0  0  0  0  0  0  0  0  0
  -24.4546  -30.4012   26.8828 C   0  0  0  0  0  0  0  0  0  0  0  0
  -23.8012  -26.2681   27.4412 C   0  0  0  0  0  0  0  0  0  0  0  0
  -22.7988  -28.7772   25.9845 C   0  0  0  0  0  0  0  0  0  0  0  0
  -34.1127  -13.4031   21.1877 C   0  0  1  0  0  0  0  0  0  0  0  0
  -30.5431  -14.3436   22.0860 C   0  0  1  0  0  0  0  0  0  0  0  0
  -26.2367  -25.4841   24.9475 C   0  0  0  0  0  0  0  0  0  0  0  0
  -26.3316  -23.7657   22.5245 C   0  0  0  0  0  0  0  0  0  0  0  0
  -22.2401  -29.8460   25.0169 C   0  0  2  0  0  0  0  0  0  0  0  0
  -25.9049  -25.7058   26.4176 C   0  0  1  0  0  0  0  0  0  0  0  0
  -23.2455  -12.4846   20.2714 C   0  0  0  0  0  0  0  0  0  0  0  0
  -29.4808  -12.3789   18.0397 C   0  0  0  0  0  0  0  0  0  0  0  0
  -27.0346  -12.1010   17.5849 C   0  0  0  0  0  0  0  0  0  0  0  0
  -28.1700  -10.6191   19.2394 C   0  0  0  0  0  0  0  0  0  0  0  0
  -24.3655  -14.9043   22.9856 C   0  0  0  0  0  0  0  0  0  0  0  0
  -26.6636  -23.5422   21.0503 C   0  0  0  0  0  0  0  0  0  0  0  0
  -27.5585  -21.8108   19.4882 C   0  0  0  0  0  0  0  0  0  0  0  0
  -28.1649  -20.4215   19.4711 C   0  0  0  0  0  0  0  0  0  1  0  0
  -27.7433  -13.0397   19.8315 C   0  0  1  0  0  0  0  0  0  0  0  0
  -24.2269  -13.1181   21.2451 C   0  0  2  0  0  0  0  0  0  0  0  0
  -28.1173  -12.0591   18.6843 C   0  0  0  0  0  0  0  0  0  0  0  0
  -23.7640  -29.0713   23.2310 N   0  0  0  0  0  0  0  0  0  0  0  0
  -22.5838  -29.6307   23.5476 N   0  0  0  0  0  0  0  0  0  0  0  0
  -29.3944  -14.2976   21.1789 N   0  0  0  0  0  0  0  0  0  0  0  0
  -24.1734  -29.0367   26.4361 N   0  0  0  0  0  0  0  0  0  0  0  0
  -24.9056  -26.7623   26.6175 N   0  0  0  0  0  0  0  0  0  0  0  0
  -20.5989  -30.5146   22.6044 N   0  0  0  0  0  0  0  0  0  0  0  0
  -22.4592  -30.8861   19.3187 N   0  0  0  0  0  0  0  0  0  0  0  0
  -32.8315  -13.5975   21.8321 N   0  0  0  0  0  0  0  0  0  0  0  0
  -26.4694  -12.7445   20.4784 N   0  0  0  0  0  0  0  0  0  0  0  0
  -23.5241  -14.2093   21.9776 N   0  3  0  0  0  0  0  0  0  0  0  0
  -27.2372  -22.1903   20.8941 N   0  3  0  0  0  0  0  0  0  0  0  0
  -21.4807  -28.8138   19.4022 O   0  0  0  0  0  0  0  0  0  0  0  0
  -31.7744  -14.7629   20.1155 O   0  0  0  0  0  0  0  0  0  0  0  0
  -29.0281  -12.0247   21.5478 O   0  0  0  0  0  0  0  0  0  0  0  0
  -25.4823  -14.7975   20.0447 O   0  0  0  0  0  0  0  0  0  0  0  0
  -26.3898  -28.4583   26.1897 O   0  0  0  0  0  0  0  0  0  0  0  0
  -28.0569  -26.9239   19.0463 O   0  0  0  0  0  0  0  0  0  0  0  0
  -29.3437  -20.4071   20.2654 O   0  0  0  0  0  0  0  0  0  1  0  0
  -31.4148  -30.4701   16.4864 F   0  0  0  0  0  0  0  0  0  0  0  0
  -30.7449  -27.0426   19.6815 F   0  0  0  0  0  0  0  0  0  0  0  0
  1  2  1  0  0  0  0
  1  5  2  0  0  0  0
  2  6  2  0  0  0  0
  3  8  2  0  0  0  0
  3 15  1  0  0  0  0
  4  9  1  0  0  0  0
  4 15  2  0  0  0  0
  5 17  1  0  0  0  0
  6 19  1  0  0  0  0
  7 10  2  0  0  0  0
  7 18  1  0  0  0  0
  8 21  1  0  0  0  0
  9 21  2  0  0  0  0
 10 22  1  0  0  0  0
 11 12  2  0  0  0  0
 11 23  1  0  0  0  0
 12 24  1  0  0  0  0
 13 20  1  0  0  0  0
 13 22  2  0  0  0  0
 14 24  2  0  0  0  0
 14 25  1  0  0  0  0
 15 26  1  0  0  0  0
 16 26  1  0  0  0  0
 16 27  2  0  0  0  0
 16 28  1  0  0  0  0
 17 19  2  0  0  0  0
 17 33  1  0  0  0  0
 18 20  2  0  0  0  0
 18 34  1  0  0  0  0
 19 49  1  0  0  0  0
 20 35  1  0  0  0  0
 21 82  1  0  0  0  0
 22 83  1  0  0  0  0
 23 25  2  0  0  0  0
 23 82  1  0  0  0  0
 24 84  1  0  0  0  0
 25 85  1  0  0  0  0
 26 66  2  0  0  0  0
 27 67  1  0  0  0  0
 27 71  1  0  0  0  0
 28 72  1  0  0  0  0
 28 77  2  0  0  0  0
 29 50  1  0  0  0  0
 29 73  1  0  0  0  0
 29 78  2  0  0  0  0
 30 63  1  0  0  0  0
 30 68  1  0  0  0  0
 30 79  2  0  0  0  0
 31 64  1  0  0  0  0
 31 74  1  0  0  0  0
 31 80  2  0  0  0  0
 32 69  1  0  0  0  0
 32 70  1  0  0  0  0
 32 81  2  0  0  0  0
 33 36  1  0  0  0  0
 34 50  1  0  0  0  0
 35 68  1  0  0  0  0
 36 39  1  0  0  0  0
 37 44  1  0  0  0  0
 37 46  1  0  0  0  0
 38 45  1  0  0  0  0
 38 47  1  0  0  0  0
 39 49  1  0  0  0  0
 40 42  1  0  0  0  0
 40 51  1  0  0  0  0
 41 43  1  0  0  0  0
 41 51  1  0  0  0  0
 42 52  1  0  0  0  0
 43 52  1  0  0  0  0
 44 53  1  0  0  0  0
 45 54  1  0  0  0  0
 46 69  1  0  0  0  0
 47 70  1  0  0  0  0
 48 53  1  0  0  0  0
 48 69  1  0  0  0  0
 49 73  1  0  0  0  0
 50 68  1  0  0  0  0
 51 54  1  0  0  0  0
 52 60  1  0  0  0  0
 53 67  1  0  0  0  0
 54 70  1  0  0  0  0
 55 64  1  0  0  0  0
 56 65  1  0  0  0  0
 57 65  1  0  0  0  0
 58 65  1  0  0  0  0
 59 75  1  0  0  0  0
 60 76  1  0  0  0  0
 61 62  1  0  0  0  0
 61 76  1  0  0  0  0
 62 83  1  0  0  0  0
 63 65  1  0  0  0  0
 63 74  1  0  0  0  0
 64 75  1  0  0  0  0
 66 67  1  0  0  0  0
M  CHG  2  75   1  76   1
M  ISO  4  32 100  62 101  70 100  83 101
M  END
> <Batch ID>
0126

> <Smiles>
CNC(C)C(=O)NC(C(=O)N1Cc2cc([101O:1][101CH2:1]CNCC3CCC(C4CCC[100N:0]4[100C:0](=O)N4CCCC(n5nc(-c6ccc(Oc7ccc(F)cc7F)cc6)c(C(N)=O)c5N)C4)CC3)ccc2CC1C(=O)NC1CCCc2ccccc21)C(C)(C)C

> <Shape>
0.234

> <Color>
0.093

> <Negative vol penalty>
0.000

$$$$

  -OEChem-04052320383D

 86 95  0     1  0  0  0  0  0999 V2000
  -23.1985  -30.4978   24.6775 C   0  0  0  0  0  0  0  0  0  0  0  0
  -22.8643  -29.1707   24.4273 C   0  0  0  0  0  0  0  0  0  0  0  0
  -22.7394  -16.0595   19.3724 C   0  0  0  0  0  0  0  0  0  0  0  0
  -23.8992  -16.8579   21.3357 C   0  0  0  0  0  0  0  0  0  0  0  0
  -23.8632  -31.2433   23.7048 C   0  0  0  0  0  0  0  0  0  0  0  0
  -23.1936  -28.5887   23.2037 C   0  0  0  0  0  0  0  0  0  0  0  0
  -27.3649  -22.1608   21.6838 C   0  0  0  0  0  0  0  0  0  0  0  0
  -22.0002  -17.2415   19.3284 C   0  0  0  0  0  0  0  0  0  0  0  0
  -23.1600  -18.0400   21.2917 C   0  0  0  0  0  0  0  0  0  0  0  0
  -28.2170  -21.1313   21.2836 C   0  0  0  0  0  0  0  0  0  0  0  0
  -22.4626  -20.4322   18.3091 C   0  0  0  0  0  0  0  0  0  0  0  0
  -22.3122  -21.0569   17.0711 C   0  0  0  0  0  0  0  0  0  0  0  0
  -28.6477  -22.2830   19.2012 C   0  0  0  0  0  0  0  0  0  0  0  0
  -19.9136  -20.8271   17.2466 C   0  0  0  0  0  0  0  0  0  0  0  0
  -23.6889  -15.8676   20.3761 C   0  0  0  0  0  0  0  0  0  0  0  0
  -23.9542  -13.3371   20.5596 C   0  0  0  0  0  0  0  0  0  0  0  0
  -24.2094  -30.6674   22.4723 C   0  0  0  0  0  0  0  0  0  0  0  0
  -27.1627  -23.2640   20.8499 C   0  0  0  0  0  0  0  0  0  0  0  0
  -23.8624  -29.3277   22.2130 C   0  0  0  0  0  0  0  0  0  0  0  0
  -27.8050  -23.3232   19.6022 C   0  0  0  0  0  0  0  0  0  0  0  0
  -22.2105  -18.2318   20.2880 C   0  0  0  0  0  0  0  0  0  0  0  0
  -28.8566  -21.1922   20.0453 C   0  0  0  0  0  0  0  0  0  0  0  0
  -21.3385  -20.0048   19.0159 C   0  0  0  0  0  0  0  0  0  0  0  0
  -21.0377  -21.2544   16.5399 C   0  0  0  0  0  0  0  0  0  0  0  0
  -20.0640  -20.2023   18.4846 C   0  0  0  0  0  0  0  0  0  0  0  0
  -24.4524  -14.6466   20.4225 C   0  0  0  0  0  0  0  0  0  0  0  0
  -25.0733  -12.5410   20.5484 C   0  0  0  0  0  0  0  0  0  0  0  0
  -22.6007  -12.8811   20.6856 C   0  0  0  0  0  0  0  0  0  0  0  0
  -25.4694  -26.5738   20.3458 C   0  0  0  0  0  0  0  0  0  0  0  0
  -28.3284  -26.8628   19.2718 C   0  0  0  0  0  0  0  0  0  0  0  0
  -31.6701  -26.8930   18.5870 C   0  0  0  0  0  0  0  0  0  0  0  0
  -30.5637  -13.2566   18.2692 C   0  0  0  0  0  0  0  0  0  0  0  0
  -24.8856  -31.5269   21.4337 C   0  0  0  0  0  0  0  0  0  0  0  0
  -26.2057  -24.3666   21.2135 C   0  0  0  0  0  0  0  0  0  0  0  0
  -27.5308  -24.5127   18.7231 C   0  0  0  0  0  0  0  0  0  0  0  0
  -25.5313  -30.7255   20.3063 C   0  0  0  0  0  0  0  0  0  0  0  0
  -29.7247  -12.6040   21.6673 C   0  0  0  0  0  0  0  0  0  0  0  0
  -31.1059  -17.4826   12.0449 C   0  0  0  0  0  0  0  0  0  0  0  0
  -24.5737  -29.6526   19.7976 C   0  0  0  0  0  0  0  0  0  0  0  0
  -30.8819  -18.3859   16.5871 C   0  0  0  0  0  0  0  0  0  0  0  0
  -28.4955  -19.1493   16.2432 C   0  0  0  0  0  0  0  0  0  0  0  0
  -28.2334  -12.9353   21.7460 C   0  0  0  0  0  0  0  0  0  0  0  0
  -30.7199  -16.2048   12.7833 C   0  0  0  0  0  0  0  0  0  0  0  0
  -30.7981  -18.7971   18.0540 C   0  0  0  0  0  0  0  0  0  0  0  0
  -28.4186  -19.5590   17.7109 C   0  0  0  0  0  0  0  0  0  0  0  0
  -30.1410  -18.6189   12.3721 C   0  0  0  0  0  0  0  0  0  0  0  0
  -30.4647  -13.5525   20.7267 C   0  0  0  0  0  0  0  0  0  0  0  0
  -28.4013  -13.9828   19.4496 C   0  0  0  0  0  0  0  0  0  0  0  0
  -24.2246  -28.6536   20.9074 C   0  0  1  0  0  0  0  0  0  0  0  0
  -26.6661  -25.7513   20.7237 C   0  0  1  0  0  0  0  0  0  0  0  0
  -29.5032  -18.0120   16.0254 C   0  0  0  0  0  0  0  0  0  0  0  0
  -27.6026  -13.0182   20.3429 C   0  0  2  0  0  0  0  0  0  0  0  0
  -29.6033  -17.6558   14.5401 C   0  0  2  0  0  0  0  0  0  0  0  0
  -30.5712  -16.4881   14.2781 C   0  0  1  0  0  0  0  0  0  0  0  0
  -29.7929  -19.9257   18.2670 C   0  0  0  0  0  0  0  0  0  1  0  0
  -33.4911  -28.3901   17.7267 C   0  0  0  0  0  0  0  0  0  0  0  0
  -27.2745  -26.5064   16.4317 C   0  0  0  0  0  0  0  0  0  0  0  0
  -29.5400  -27.1545   15.5856 C   0  0  0  0  0  0  0  0  0  0  0  0
  -28.1993  -28.7772   16.9244 C   0  0  0  0  0  0  0  0  0  0  0  0
  -33.1927  -26.6883   21.1165 C   0  0  0  0  0  0  0  0  0  0  0  0
  -30.5021  -12.9891   15.8027 C   0  0  0  0  0  0  0  0  0  0  0  0
  -31.1175  -14.2105   15.1457 C   0  0  0  0  0  0  0  0  0  0  0  0
  -29.2447  -26.7845   18.0770 C   0  0  1  0  0  0  0  0  0  0  0  0
  -32.7662  -27.8746   18.9602 C   0  0  2  0  0  0  0  0  0  0  0  0
  -28.5616  -27.2837   16.7726 C   0  0  0  0  0  0  0  0  0  0  0  0
  -25.7844  -14.6845   20.3311 N   0  0  0  0  0  0  0  0  0  0  0  0
  -26.1327  -13.3890   20.4110 N   0  0  0  0  0  0  0  0  0  0  0  0
  -30.0583  -18.8533   13.8138 N   0  0  0  0  0  0  0  0  0  0  0  0
  -27.5279  -25.7433   19.5295 N   0  0  0  0  0  0  0  0  0  0  0  0
  -29.8171  -13.5840   19.4131 N   0  0  0  0  0  0  0  0  0  0  0  0
  -25.2448  -11.2053   20.6429 N   0  0  0  0  0  0  0  0  0  0  0  0
  -22.0513  -12.7660   21.9699 N   0  0  0  0  0  0  0  0  0  0  0  0
  -25.3105  -27.7176   21.1048 N   0  0  0  0  0  0  0  0  0  0  0  0
  -30.4512  -27.5205   18.4390 N   0  0  0  0  0  0  0  0  0  0  0  0
  -29.8720  -13.3052   17.0651 N   0  0  0  0  0  0  0  0  0  0  0  0
  -30.0743  -15.2478   14.9360 N   0  3  0  0  0  0  0  0  0  0  0  0
  -33.7646  -27.2213   19.8532 N   0  3  0  0  0  0  0  0  0  0  0  0
  -21.9046  -12.5689   19.6899 O   0  0  0  0  0  0  0  0  0  0  0  0
  -24.7436  -26.2001   19.4319 O   0  0  0  0  0  0  0  0  0  0  0  0
  -28.3164  -27.8896   19.9565 O   0  0  0  0  0  0  0  0  0  0  0  0
  -31.8754  -25.6905   18.4376 O   0  0  0  0  0  0  0  0  0  0  0  0
  -31.7569  -12.9390   18.3181 O   0  0  0  0  0  0  0  0  0  0  0  0
  -21.4895  -19.3854   20.2452 O   0  0  0  0  0  0  0  0  0  0  0  0
  -29.6907  -20.1859   19.6627 O   0  0  0  0  0  0  0  0  0  1  0  0
  -20.8933  -21.8558   15.3517 F   0  0  0  0  0  0  0  0  0  0  0  0
  -18.9803  -19.7950   19.1595 F   0  0  0  0  0  0  0  0  0  0  0  0
  1  2  1  0  0  0  0
  1  5  2  0  0  0  0
  2  6  2  0  0  0  0
  3  8  2  0  0  0  0
  3 15  1  0  0  0  0
  4  9  1  0  0  0  0
  4 15  2  0  0  0  0
  5 17  1  0  0  0  0
  6 19  1  0  0  0  0
  7 10  2  0  0  0  0
  7 18  1  0  0  0  0
  8 21  1  0  0  0  0
  9 21  2  0  0  0  0
 10 22  1  0  0  0  0
 11 12  2  0  0  0  0
 11 23  1  0  0  0  0
 12 24  1  0  0  0  0
 13 20  1  0  0  0  0
 13 22  2  0  0  0  0
 14 24  2  0  0  0  0
 14 25  1  0  0  0  0
 15 26  1  0  0  0  0
 16 26  1  0  0  0  0
 16 27  2  0  0  0  0
 16 28  1  0  0  0  0
 17 19  2  0  0  0  0
 17 33  1  0  0  0  0
 18 20  2  0  0  0  0
 18 34  1  0  0  0  0
 19 49  1  0  0  0  0
 20 35  1  0  0  0  0
 21 83  1  0  0  0  0
 22 84  1  0  0  0  0
 23 25  2  0  0  0  0
 23 83  1  0  0  0  0
 24 85  1  0  0  0  0
 25 86  1  0  0  0  0
 26 66  2  0  0  0  0
 27 67  1  0  0  0  0
 27 71  1  0  0  0  0
 28 72  1  0  0  0  0
 28 78  2  0  0  0  0
 29 50  1  0  0  0  0
 29 73  1  0  0  0  0
 29 79  2  0  0  0  0
 30 63  1  0  0  0  0
 30 69  1  0  0  0  0
 30 80  2  0  0  0  0
 31 64  1  0  0  0  0
 31 74  1  0  0  0  0
 31 81  2  0  0  0  0
 32 70  1  0  0  0  0
 32 75  1  0  0  0  0
 32 82  2  0  0  0  0
 33 36  1  0  0  0  0
 34 50  1  0  0  0  0
 35 69  1  0  0  0  0
 36 39  1  0  0  0  0
 37 42  1  0  0  0  0
 37 47  1  0  0  0  0
 38 43  1  0  0  0  0
 38 46  1  0  0  0  0
 39 49  1  0  0  0  0
 40 44  1  0  0  0  0
 40 51  1  0  0  0  0
 41 45  1  0  0  0  0
 41 51  1  0  0  0  0
 42 52  1  0  0  0  0
 43 54  1  0  0  0  0
 44 55  1  0  0  0  0
 45 55  1  0  0  0  0
 46 68  1  0  0  0  0
 47 70  1  0  0  0  0
 48 52  1  0  0  0  0
 48 70  1  0  0  0  0
 49 73  1  0  0  0  0
 50 69  1  0  0  0  0
 51 53  1  0  0  0  0
 52 67  1  0  0  0  0
 53 54  1  0  0  0  0
 53 68  1  0  0  0  0
 54 76  1  0  0  0  0
 55 84  1  0  0  0  0
 56 64  1  0  0  0  0
 57 65  1  0  0  0  0
 58 65  1  0  0  0  0
 59 65  1  0  0  0  0
 60 77  1  0  0  0  0
 61 62  1  0  0  0  0
 61 75  1  0  0  0  0
 62 76  1  0  0  0  0
 63 65  1  0  0  0  0
 63 74  1  0  0  0  0
 64 77  1  0  0  0  0
 66 67  1  0  0  0  0
M  CHG  2  76   1  77   1
M  ISO  4  32 100  55 101  75 100  84 101
M  END
> <Batch ID>
0126

> <Smiles>
CNC(C)C(=O)NC(C(=O)N1Cc2cc([101O:1][101CH:1]3CCC(C4NCCCC4NCC[100NH:0][100C:0](=O)N4CCCC(n5nc(-c6ccc(Oc7ccc(F)cc7F)cc6)c(C(N)=O)c5N)C4)CC3)ccc2CC1C(=O)NC1CCCc2ccccc21)C(C)(C)C

> <Shape>
0.214

> <Color>
0.090

> <Negative vol penalty>
0.000

$$$$

  -OEChem-04052320383D

 86 95  0     1  0  0  0  0  0999 V2000
  -28.4053  -33.6684   25.9382 C   0  0  0  0  0  0  0  0  0  0  0  0
  -28.4300  -32.4029   25.3608 C   0  0  0  0  0  0  0  0  0  0  0  0
  -25.3121   -9.8919   23.0201 C   0  0  0  0  0  0  0  0  0  0  0  0
  -24.0509   -9.0633   21.1333 C   0  0  0  0  0  0  0  0  0  0  0  0
  -27.1850  -34.2892   26.2021 C   0  0  0  0  0  0  0  0  0  0  0  0
  -27.2345  -31.7570   25.0481 C   0  0  0  0  0  0  0  0  0  0  0  0
  -27.3236  -29.6210   20.4573 C   0  0  0  0  0  0  0  0  0  0  0  0
  -30.8735  -23.0061   18.4965 C   0  0  0  0  0  0  0  0  0  0  0  0
  -30.3592  -24.2915   18.6662 C   0  0  0  0  0  0  0  0  0  0  0  0
  -24.4246   -9.2598   23.8910 C   0  0  0  0  0  0  0  0  0  0  0  0
  -23.1634   -8.4312   22.0042 C   0  0  0  0  0  0  0  0  0  0  0  0
  -28.0025  -28.4098   20.3317 C   0  0  0  0  0  0  0  0  0  0  0  0
  -23.0858   -5.6114   23.8652 C   0  0  0  0  0  0  0  0  0  0  0  0
  -22.7153   -4.2992   23.5708 C   0  0  0  0  0  0  0  0  0  0  0  0
  -25.9017  -27.2286   20.4341 C   0  0  0  0  0  0  0  0  0  0  0  0
  -30.5068  -22.5499   20.8406 C   0  0  0  0  0  0  0  0  0  0  0  0
  -20.4028   -4.9842   23.4278 C   0  0  0  0  0  0  0  0  0  0  0  0
  -25.1252   -9.7937   21.6413 C   0  0  0  0  0  0  0  0  0  0  0  0
  -27.2196   -9.9093   20.1894 C   0  0  0  0  0  0  0  0  0  0  0  0
  -25.9741  -33.6546   25.8835 C   0  0  0  0  0  0  0  0  0  0  0  0
  -25.9272  -29.6445   20.5835 C   0  0  0  0  0  0  0  0  0  0  0  0
  -25.9969  -32.3692   25.3092 C   0  0  0  0  0  0  0  0  0  0  0  0
  -25.2072  -28.4415   20.5586 C   0  0  0  0  0  0  0  0  0  0  0  0
  -30.9473  -22.1353   19.5837 C   0  0  0  0  0  0  0  0  0  0  0  0
  -29.9187  -24.7061   19.9230 C   0  0  0  0  0  0  0  0  0  0  0  0
  -23.3503   -8.5294   23.3830 C   0  0  0  0  0  0  0  0  0  0  0  0
  -27.2919  -27.2132   20.3230 C   0  0  0  0  0  0  0  0  0  0  0  0
  -22.1147   -6.6099   23.9410 C   0  0  0  0  0  0  0  0  0  0  0  0
  -29.9925  -23.8353   21.0103 C   0  0  0  0  0  0  0  0  0  0  0  0
  -21.3739   -3.9856   23.3521 C   0  0  0  0  0  0  0  0  0  0  0  0
  -20.7733   -6.2963   23.7222 C   0  0  0  0  0  0  0  0  0  0  0  0
  -26.0413  -10.4469   20.7412 C   0  0  0  0  0  0  0  0  0  0  0  0
  -27.7244  -10.9193   19.4074 C   0  0  0  0  0  0  0  0  0  0  0  0
  -27.8053   -8.6129   20.3678 C   0  0  0  0  0  0  0  0  0  0  0  0
  -23.8930  -30.6322   22.8174 C   0  0  0  0  0  0  0  0  0  0  0  0
  -21.6741  -29.9061   20.5654 C   0  0  0  0  0  0  0  0  0  0  0  0
  -20.8492  -28.1076   17.7848 C   0  0  0  0  0  0  0  0  0  0  0  0
  -29.0603  -16.0364   18.4851 C   0  0  0  0  0  0  0  0  0  0  0  0
  -24.6792  -34.3453   26.2310 C   0  0  0  0  0  0  0  0  0  0  0  0
  -25.2075  -30.9609   20.6913 C   0  0  0  0  0  0  0  0  0  0  0  0
  -23.7055  -28.4136   20.6705 C   0  0  0  0  0  0  0  0  0  0  0  0
  -23.4632  -33.7507   25.5252 C   0  0  0  0  0  0  0  0  0  0  0  0
  -25.6727  -15.2911   17.9263 C   0  0  0  0  0  0  0  0  0  0  0  0
  -23.4813  -32.2285   25.6218 C   0  0  0  0  0  0  0  0  0  0  0  0
  -25.5560  -13.9097   18.5698 C   0  0  0  0  0  0  0  0  0  0  0  0
  -26.5475  -16.2362   18.7519 C   0  0  0  0  0  0  0  0  0  0  0  0
  -28.4685  -18.4737   18.8507 C   0  0  0  0  0  0  0  0  0  0  0  0
  -30.2561  -17.8348   17.2747 C   0  0  0  0  0  0  0  0  0  0  0  0
  -27.7714  -14.3113   19.7088 C   0  0  0  0  0  0  0  0  0  0  0  0
  -29.4501  -19.3480   19.6245 C   0  0  0  0  0  0  0  0  0  0  0  0
  -31.2674  -18.6761   18.0361 C   0  0  0  0  0  0  0  0  0  0  0  0
  -24.7216  -31.6467   24.9328 C   0  0  1  0  0  0  0  0  0  0  0  0
  -23.8277  -30.8369   21.3303 C   0  0  1  0  0  0  0  0  0  0  0  0
  -26.9460  -13.3220   18.8716 C   0  0  1  0  0  0  0  0  0  0  0  0
  -18.9513  -27.6979   16.1951 C   0  0  0  0  0  0  0  0  0  0  0  0
  -20.2938  -28.1735   22.6637 C   0  0  0  0  0  0  0  0  0  0  0  0
  -19.0116  -27.0770   20.8138 C   0  0  0  0  0  0  0  0  0  0  0  0
  -18.7420  -29.5204   21.2380 C   0  0  0  0  0  0  0  0  0  0  0  0
  -22.4163  -29.0957   15.4768 C   0  0  0  0  0  0  0  0  0  0  0  0
  -29.6776  -23.2703   23.2988 C   0  0  0  0  0  0  0  0  0  0  0  0
  -31.4999  -20.7525   19.4005 C   0  0  0  0  0  0  0  0  0  0  0  0
  -29.3725  -26.0859   20.0863 C   0  0  0  0  0  0  0  0  0  1  0  0
  -20.8856  -28.6716   20.2004 C   0  0  1  0  0  0  0  0  0  0  0  0
  -20.2007  -28.5184   16.4752 C   0  0  2  0  0  0  0  0  0  0  0  0
  -19.7617  -28.3607   21.2288 C   0  0  0  0  0  0  0  0  0  0  0  0
  -25.8113  -11.7011   20.3435 N   0  0  0  0  0  0  0  0  0  0  0  0
  -26.8520  -11.9600   19.5336 N   0  0  0  0  0  0  0  0  0  0  0  0
  -23.0479  -29.7262   20.7802 N   0  0  0  0  0  0  0  0  0  0  0  0
  -27.8464  -15.6168   19.0495 N   0  0  0  0  0  0  0  0  0  0  0  0
  -29.1700  -17.3934   18.1469 N   0  0  0  0  0  0  0  0  0  0  0  0
  -28.8250  -11.0098   18.6310 N   0  0  0  0  0  0  0  0  0  0  0  0
  -27.1560   -7.6958   21.2055 N   0  0  0  0  0  0  0  0  0  0  0  0
  -24.5467  -31.6428   23.4962 N   0  0  0  0  0  0  0  0  0  0  0  0
  -20.4077  -28.8805   18.8379 N   0  0  0  0  0  0  0  0  0  0  0  0
  -30.5459  -19.8247   18.7017 N   0  3  0  0  0  0  0  0  0  0  0  0
  -21.1518  -28.3273   15.3439 N   0  3  0  0  0  0  0  0  0  0  0  0
  -28.8815   -8.2832   19.8141 O   0  0  0  0  0  0  0  0  0  0  0  0
  -23.3865  -29.6322   23.3125 O   0  0  0  0  0  0  0  0  0  0  0  0
  -21.0937  -30.9914   20.6496 O   0  0  0  0  0  0  0  0  0  0  0  0
  -21.6630  -27.1902   17.8662 O   0  0  0  0  0  0  0  0  0  0  0  0
  -29.9923  -15.2447   18.2951 O   0  0  0  0  0  0  0  0  0  0  0  0
  -22.4842   -7.9123   24.2325 O   0  0  0  0  0  0  0  0  0  0  0  0
  -29.5656  -24.2240   22.2444 O   0  0  0  0  0  0  0  0  0  0  0  0
  -27.9568  -26.0212   20.2002 O   0  0  0  0  0  0  0  0  0  1  0  0
  -21.0185   -2.7258   23.0679 F   0  0  0  0  0  0  0  0  0  0  0  0
  -19.8361   -7.2516   23.7925 F   0  0  0  0  0  0  0  0  0  0  0  0
  1  2  1  0  0  0  0
  1  5  2  0  0  0  0
  2  6  2  0  0  0  0
  3 10  2  0  0  0  0
  3 18  1  0  0  0  0
  4 11  1  0  0  0  0
  4 18  2  0  0  0  0
  5 20  1  0  0  0  0
  6 22  1  0  0  0  0
  7 12  2  0  0  0  0
  7 21  1  0  0  0  0
  8  9  2  0  0  0  0
  8 24  1  0  0  0  0
  9 25  1  0  0  0  0
 10 26  1  0  0  0  0
 11 26  2  0  0  0  0
 12 27  1  0  0  0  0
 13 14  2  0  0  0  0
 13 28  1  0  0  0  0
 14 30  1  0  0  0  0
 15 23  1  0  0  0  0
 15 27  2  0  0  0  0
 16 24  2  0  0  0  0
 16 29  1  0  0  0  0
 17 30  2  0  0  0  0
 17 31  1  0  0  0  0
 18 32  1  0  0  0  0
 19 32  1  0  0  0  0
 19 33  2  0  0  0  0
 19 34  1  0  0  0  0
 20 22  2  0  0  0  0
 20 39  1  0  0  0  0
 21 23  2  0  0  0  0
 21 40  1  0  0  0  0
 22 52  1  0  0  0  0
 23 41  1  0  0  0  0
 24 61  1  0  0  0  0
 25 29  2  0  0  0  0
 25 62  1  0  0  0  0
 26 82  1  0  0  0  0
 27 84  1  0  0  0  0
 28 31  2  0  0  0  0
 28 82  1  0  0  0  0
 29 83  1  0  0  0  0
 30 85  1  0  0  0  0
 31 86  1  0  0  0  0
 32 66  2  0  0  0  0
 33 67  1  0  0  0  0
 33 71  1  0  0  0  0
 34 72  1  0  0  0  0
 34 77  2  0  0  0  0
 35 53  1  0  0  0  0
 35 73  1  0  0  0  0
 35 78  2  0  0  0  0
 36 63  1  0  0  0  0
 36 68  1  0  0  0  0
 36 79  2  0  0  0  0
 37 64  1  0  0  0  0
 37 74  1  0  0  0  0
 37 80  2  0  0  0  0
 38 69  1  0  0  0  0
 38 70  1  0  0  0  0
 38 81  2  0  0  0  0
 39 42  1  0  0  0  0
 40 53  1  0  0  0  0
 41 68  1  0  0  0  0
 42 44  1  0  0  0  0
 43 45  1  0  0  0  0
 43 46  1  0  0  0  0
 44 52  1  0  0  0  0
 45 54  1  0  0  0  0
 46 69  1  0  0  0  0
 47 50  1  0  0  0  0
 47 70  1  0  0  0  0
 48 51  1  0  0  0  0
 48 70  1  0  0  0  0
 49 54  1  0  0  0  0
 49 69  1  0  0  0  0
 50 75  1  0  0  0  0
 51 75  1  0  0  0  0
 52 73  1  0  0  0  0
 53 68  1  0  0  0  0
 54 67  1  0  0  0  0
 55 64  1  0  0  0  0
 56 65  1  0  0  0  0
 57 65  1  0  0  0  0
 58 65  1  0  0  0  0
 59 76  1  0  0  0  0
 60 83  1  0  0  0  0
 61 75  1  0  0  0  0
 62 84  1  0  0  0  0
 63 65  1  0  0  0  0
 63 74  1  0  0  0  0
 64 76  1  0  0  0  0
 66 67  1  0  0  0  0
M  CHG  2  75   1  76   1
M  ISO  4  38 100  62 101  70 100  84 101
M  END
> <Batch ID>
0126

> <Smiles>
CNC(C)C(=O)NC(C(=O)N1Cc2cc([101O:1][101CH2:1]c3ccc(CN4CC[100N:0]([100C:0](=O)N5CCCC(n6nc(-c7ccc(Oc8ccc(F)cc8F)cc7)c(C(N)=O)c6N)C5)CC4)cc3OC)ccc2CC1C(=O)NC1CCCc2ccccc21)C(C)(C)C

> <Shape>
0.303

> <Color>
0.082

> <Negative vol penalty>
0.000

$$$$

  -OEChem-04052320383D

 92101  0     1  0  0  0  0  0999 V2000
  -24.2993  -14.3386   29.2911 C   0  0  0  0  0  0  0  0  0  0  0  0
  -24.0564  -15.6554   28.9137 C   0  0  0  0  0  0  0  0  0  0  0  0
  -30.6965  -20.4187   18.0633 C   0  0  0  0  0  0  0  0  0  0  0  0
  -28.6017  -19.7485   19.0632 C   0  0  0  0  0  0  0  0  0  0  0  0
  -24.8188  -13.4341   28.3660 C   0  0  0  0  0  0  0  0  0  0  0  0
  -24.3338  -16.0687   27.6112 C   0  0  0  0  0  0  0  0  0  0  0  0
  -21.2195  -20.1824   24.3119 C   0  0  0  0  0  0  0  0  0  0  0  0
  -31.2384  -19.1682   18.3605 C   0  0  0  0  0  0  0  0  0  0  0  0
  -29.1435  -18.4980   19.3603 C   0  0  0  0  0  0  0  0  0  0  0  0
  -21.4368  -21.5347   24.0518 C   0  0  0  0  0  0  0  0  0  0  0  0
  -29.7977  -15.6156   17.7220 C   0  0  0  0  0  0  0  0  0  0  0  0
  -29.0188  -14.4916   17.4470 C   0  0  0  0  0  0  0  0  0  0  0  0
  -22.5166  -20.9554   21.9740 C   0  0  0  0  0  0  0  0  0  0  0  0
  -29.0800  -13.8778   19.7830 C   0  0  0  0  0  0  0  0  0  0  0  0
  -29.3782  -20.7089   18.4147 C   0  0  0  0  0  0  0  0  0  0  0  0
  -28.1376  -22.3755   16.9346 C   0  0  0  0  0  0  0  0  0  0  0  0
  -25.0936  -13.8340   27.0488 C   0  0  0  0  0  0  0  0  0  0  0  0
  -21.6596  -19.2041   23.4087 C   0  0  0  0  0  0  0  0  0  0  0  0
  -24.8587  -15.1690   26.6679 C   0  0  0  0  0  0  0  0  0  0  0  0
  -22.3014  -19.5914   22.2237 C   0  0  0  0  0  0  0  0  0  0  0  0
  -30.4619  -18.2079   19.0090 C   0  0  0  0  0  0  0  0  0  0  0  0
  -22.0880  -21.9213   22.8841 C   0  0  0  0  0  0  0  0  0  0  0  0
  -30.2177  -15.8707   19.0274 C   0  0  0  0  0  0  0  0  0  0  0  0
  -28.6600  -13.6227   18.4775 C   0  0  0  0  0  0  0  0  0  0  0  0
  -29.8589  -15.0019   20.0579 C   0  0  0  0  0  0  0  0  0  0  0  0
  -28.8180  -22.0006   18.1085 C   0  0  0  0  0  0  0  0  0  0  0  0
  -27.8099  -23.6943   17.1339 C   0  0  0  0  0  0  0  0  0  0  0  0
  -27.8292  -21.6008   15.7682 C   0  0  0  0  0  0  0  0  0  0  0  0
  -23.7187  -16.7866   23.5476 C   0  0  0  0  0  0  0  0  0  0  0  0
  -22.5682  -16.1469   20.5828 C   0  0  0  0  0  0  0  0  0  0  0  0
  -21.0504  -17.3016   17.7527 C   0  0  0  0  0  0  0  0  0  0  0  0
  -25.9594  -27.7729   20.0726 C   0  0  0  0  0  0  0  0  0  0  0  0
  -25.6988  -12.8324   26.0973 C   0  0  0  0  0  0  0  0  0  0  0  0
  -21.3937  -17.7509   23.6910 C   0  0  0  0  0  0  0  0  0  0  0  0
  -22.7753  -18.5814   21.2119 C   0  0  0  0  0  0  0  0  0  0  0  0
  -25.6139  -13.2551   24.6329 C   0  0  0  0  0  0  0  0  0  0  0  0
  -17.8281  -27.0537   22.7957 C   0  0  0  0  0  0  0  0  0  0  0  0
  -18.1750  -28.4438   22.2734 C   0  0  0  0  0  0  0  0  0  0  0  0
  -29.2949  -26.9666   20.6857 C   0  0  0  0  0  0  0  0  0  0  0  0
  -26.0454  -14.7092   24.4711 C   0  0  0  0  0  0  0  0  0  0  0  0
  -18.8464  -26.0114   22.3402 C   0  0  0  0  0  0  0  0  0  0  0  0
  -29.4223  -25.6237   19.9666 C   0  0  0  0  0  0  0  0  0  0  0  0
  -19.5926  -28.8455   22.6611 C   0  0  0  0  0  0  0  0  0  0  0  0
  -27.7759  -30.8855   21.3644 C   0  0  0  0  0  0  0  0  0  0  0  0
  -27.9702  -27.0869   21.4411 C   0  0  0  0  0  0  0  0  0  0  0  0
  -27.3393  -29.4228   21.3688 C   0  0  0  0  0  0  0  0  0  0  0  0
  -26.9029  -25.4898   19.8822 C   0  0  0  0  0  0  0  0  0  0  0  0
  -25.1439  -30.0871   20.3357 C   0  0  0  0  0  0  0  0  0  0  0  0
  -26.7496  -31.9395   21.7889 C   0  0  0  0  0  0  0  0  0  0  0  0
  -25.1234  -15.6490   25.2574 C   0  0  1  0  0  0  0  0  0  0  0  0
  -22.3414  -16.8146   22.9476 C   0  0  1  0  0  0  0  0  0  0  0  0
  -20.2784  -26.4040   22.7292 C   0  0  2  0  0  0  0  0  0  0  0  0
  -28.2003  -25.3585   19.0688 C   0  0  2  0  0  0  0  0  0  0  0  0
  -20.6226  -27.8097   22.2075 C   0  0  2  0  0  0  0  0  0  0  0  0
  -24.5418  -30.6371   21.6386 C   0  0  1  0  0  0  0  0  0  0  0  0
  -25.0860  -33.5802   25.6521 C   0  0  0  0  0  0  0  0  0  0  0  0
  -20.2768  -16.5518   15.4863 C   0  0  0  0  0  0  0  0  0  0  0  0
  -24.8544  -33.6961   22.5866 C   0  0  0  0  0  0  0  0  0  0  0  0
  -25.4556  -16.1571   19.5966 C   0  0  0  0  0  0  0  0  0  0  0  0
  -24.5830  -16.3580   17.2586 C   0  0  0  0  0  0  0  0  0  0  0  0
  -24.0283  -14.3471   18.6265 C   0  0  0  0  0  0  0  0  0  0  0  0
  -18.2357  -17.9866   18.3588 C   0  0  0  0  0  0  0  0  0  0  0  0
  -21.2733  -25.3594   22.2166 C   0  0  0  0  0  0  0  0  0  0  0  0
  -23.8558  -29.5383   22.4522 C   0  0  0  0  0  0  0  0  0  0  0  0
  -25.7104  -32.5816   24.6867 C   0  0  0  0  0  0  0  0  0  0  0  0
  -21.3533  -24.1674   23.1502 C   0  0  0  0  0  0  0  0  0  1  0  0
  -22.4919  -29.2024   21.8837 C   0  0  0  0  0  0  0  0  0  0  0  0
  -22.9399  -16.5610   19.1795 C   0  0  1  0  0  0  0  0  0  0  0  0
  -19.8870  -16.7607   16.9413 C   0  0  2  0  0  0  0  0  0  0  0  0
  -24.9151  -32.4039   23.3903 C   0  0  2  0  0  0  0  0  0  0  0  0
  -24.2446  -15.8750   18.6851 C   0  0  0  0  0  0  0  0  0  0  0  0
  -28.9176  -23.0005   18.9885 N   0  0  0  0  0  0  0  0  0  0  0  0
  -28.2954  -24.0168   18.3670 N   0  0  0  0  0  0  0  0  0  0  0  0
  -22.4976  -17.1724   21.5363 N   0  0  0  0  0  0  0  0  0  0  0  0
  -26.8378  -26.7891   20.5532 N   0  0  0  0  0  0  0  0  0  0  0  0
  -26.2140  -29.0988   20.4815 N   0  0  0  0  0  0  0  0  0  0  0  0
  -27.1567  -24.5981   16.3729 N   0  0  0  0  0  0  0  0  0  0  0  0
  -28.2394  -20.2613   15.7281 N   0  0  0  0  0  0  0  0  0  0  0  0
  -23.8779  -15.8459   24.5472 N   0  0  0  0  0  0  0  0  0  0  0  0
  -21.7707  -16.2891   18.3505 N   0  0  0  0  0  0  0  0  0  0  0  0
  -25.5704  -31.3469   22.5257 N   0  3  2  0  0  0  0  0  0  0  0  0
  -18.7377  -17.7082   16.9886 N   0  3  0  0  0  0  0  0  0  0  0  0
  -27.2226  -22.0868   14.7836 O   0  0  0  0  0  0  0  0  0  0  0  0
  -24.5740  -17.5601   23.1332 O   0  0  0  0  0  0  0  0  0  0  0  0
  -22.3417  -14.9583   20.8226 O   0  0  0  0  0  0  0  0  0  0  0  0
  -21.2979  -18.5020   17.8439 O   0  0  0  0  0  0  0  0  0  0  0  0
  -25.0151  -27.4882   19.3259 O   0  0  0  0  0  0  0  0  0  0  0  0
  -30.9903  -16.9875   19.2989 O   0  0  0  0  0  0  0  0  0  0  0  0
  -22.3036  -23.2503   22.6262 O   0  0  0  0  0  0  0  0  0  1  0  0
  -21.9062  -28.1932   22.6944 O   0  0  0  0  0  0  0  0  0  0  0  0
  -27.9107  -12.5442   18.2136 F   0  0  0  0  0  0  0  0  0  0  0  0
  -30.2584  -15.2424   21.3142 F   0  0  0  0  0  0  0  0  0  0  0  0
  1  2  1  0  0  0  0
  1  5  2  0  0  0  0
  2  6  2  0  0  0  0
  3  8  2  0  0  0  0
  3 15  1  0  0  0  0
  4  9  1  0  0  0  0
  4 15  2  0  0  0  0
  5 17  1  0  0  0  0
  6 19  1  0  0  0  0
  7 10  2  0  0  0  0
  7 18  1  0  0  0  0
  8 21  1  0  0  0  0
  9 21  2  0  0  0  0
 10 22  1  0  0  0  0
 11 12  2  0  0  0  0
 11 23  1  0  0  0  0
 12 24  1  0  0  0  0
 13 20  1  0  0  0  0
 13 22  2  0  0  0  0
 14 24  2  0  0  0  0
 14 25  1  0  0  0  0
 15 26  1  0  0  0  0
 16 26  1  0  0  0  0
 16 27  2  0  0  0  0
 16 28  1  0  0  0  0
 17 19  2  0  0  0  0
 17 33  1  0  0  0  0
 18 20  2  0  0  0  0
 18 34  1  0  0  0  0
 19 50  1  0  0  0  0
 20 35  1  0  0  0  0
 21 88  1  0  0  0  0
 22 89  1  0  0  0  0
 23 25  2  0  0  0  0
 23 88  1  0  0  0  0
 24 91  1  0  0  0  0
 25 92  1  0  0  0  0
 26 72  2  0  0  0  0
 27 73  1  0  0  0  0
 27 77  1  0  0  0  0
 28 78  1  0  0  0  0
 28 83  2  0  0  0  0
 29 51  1  0  0  0  0
 29 79  1  0  0  0  0
 29 84  2  0  0  0  0
 30 68  1  0  0  0  0
 30 74  1  0  0  0  0
 30 85  2  0  0  0  0
 31 69  1  0  0  0  0
 31 80  1  0  0  0  0
 31 86  2  0  0  0  0
 32 75  1  0  0  0  0
 32 76  1  0  0  0  0
 32 87  2  0  0  0  0
 33 36  1  0  0  0  0
 34 51  1  0  0  0  0
 35 74  1  0  0  0  0
 36 40  1  0  0  0  0
 37 38  1  0  0  0  0
 37 41  1  0  0  0  0
 38 43  1  0  0  0  0
 39 42  1  0  0  0  0
 39 45  1  0  0  0  0
 40 50  1  0  0  0  0
 41 52  1  0  0  0  0
 42 53  1  0  0  0  0
 43 54  1  0  0  0  0
 44 46  1  0  0  0  0
 44 49  1  0  0  0  0
 45 75  1  0  0  0  0
 46 76  1  0  0  0  0
 47 53  1  0  0  0  0
 47 75  1  0  0  0  0
 48 55  1  0  0  0  0
 48 76  1  0  0  0  0
 49 81  1  0  0  0  0
 50 79  1  0  0  0  0
 51 74  1  0  0  0  0
 52 54  1  0  0  0  0
 52 63  1  0  0  0  0
 53 73  1  0  0  0  0
 54 90  1  0  0  0  0
 55 64  1  0  0  0  0
 55 81  1  0  0  0  0
 56 65  1  0  0  0  0
 57 69  1  0  0  0  0
 58 70  1  0  0  0  0
 59 71  1  0  0  0  0
 60 71  1  0  0  0  0
 61 71  1  0  0  0  0
 62 82  1  0  0  0  0
 63 66  1  0  0  0  0
 64 67  1  0  0  0  0
 65 70  1  0  0  0  0
 66 89  1  0  0  0  0
 67 90  1  0  0  0  0
 68 71  1  0  0  0  0
 68 80  1  0  0  0  0
 69 82  1  0  0  0  0
 70 81  1  0  0  0  0
 72 73  1  0  0  0  0
M  CHG  2  81   1  82   1
M  ISO  4  32 100  66 101  76 100  89 101
M  END
> <Batch ID>
0126

> <Smiles>
CCC(C)N1CCC[100N:0]([100C:0](=O)N2CCCC(n3nc(-c4ccc(Oc5ccc(F)cc5F)cc4)c(C(N)=O)c3N)C2)CC1CCOC1CCCCC1C[101CH2:1][101O:1]c1ccc2c(c1)CN(C(=O)C(NC(=O)C(C)NC)C(C)(C)C)C(C(=O)NC1CCCc3ccccc31)C2

> <Shape>
0.221

> <Color>
0.058

> <Negative vol penalty>
0.000

$$$$

  -OEChem-04052320383D

 86 95  0     1  0  0  0  0  0999 V2000
  -21.5321  -35.3699   25.2730 C   0  0  0  0  0  0  0  0  0  0  0  0
  -20.7778  -34.2280   25.0230 C   0  0  0  0  0  0  0  0  0  0  0  0
  -22.6939  -10.1883   20.1808 C   0  0  0  0  0  0  0  0  0  0  0  0
  -24.2635   -9.4912   21.8801 C   0  0  0  0  0  0  0  0  0  0  0  0
  -22.6383  -35.6615   24.4761 C   0  0  0  0  0  0  0  0  0  0  0  0
  -21.1287  -33.3776   23.9752 C   0  0  0  0  0  0  0  0  0  0  0  0
  -22.6707  -26.4454   25.1832 C   0  0  0  0  0  0  0  0  0  0  0  0
  -21.9434   -9.0332   20.4002 C   0  0  0  0  0  0  0  0  0  0  0  0
  -23.5130   -8.3361   22.0995 C   0  0  0  0  0  0  0  0  0  0  0  0
  -22.7742  -25.0595   25.3045 C   0  0  0  0  0  0  0  0  0  0  0  0
  -20.6801   -7.4808   23.7316 C   0  0  0  0  0  0  0  0  0  0  0  0
  -20.4299   -7.1138   25.0538 C   0  0  0  0  0  0  0  0  0  0  0  0
  -23.2717  -24.8794   22.9448 C   0  0  0  0  0  0  0  0  0  0  0  0
  -21.5642   -5.0127   24.6852 C   0  0  0  0  0  0  0  0  0  0  0  0
  -23.8540  -10.4173   20.9207 C   0  0  0  0  0  0  0  0  0  0  0  0
  -24.2017  -12.9432   20.8394 C   0  0  0  0  0  0  0  0  0  0  0  0
  -23.0087  -34.8091   23.4240 C   0  0  0  0  0  0  0  0  0  0  0  0
  -22.8827  -27.0557   23.9438 C   0  0  0  0  0  0  0  0  0  0  0  0
  -22.2402  -33.6587   23.1626 C   0  0  0  0  0  0  0  0  0  0  0  0
  -23.1816  -26.2683   22.8198 C   0  0  0  0  0  0  0  0  0  0  0  0
  -22.3529   -8.1071   21.3595 C   0  0  0  0  0  0  0  0  0  0  0  0
  -23.0737  -24.2785   24.1880 C   0  0  0  0  0  0  0  0  0  0  0  0
  -21.3723   -6.6138   22.8862 C   0  0  0  0  0  0  0  0  0  0  0  0
  -20.8719   -5.8797   25.5306 C   0  0  0  0  0  0  0  0  0  0  0  0
  -21.8144   -5.3798   23.3630 C   0  0  0  0  0  0  0  0  0  0  0  0
  -24.6300  -11.6100   20.6942 C   0  0  0  0  0  0  0  0  0  0  0  0
  -25.3024  -13.6953   20.5087 C   0  0  0  0  0  0  0  0  0  0  0  0
  -22.9233  -13.4558   21.2375 C   0  0  0  0  0  0  0  0  0  0  0  0
  -23.0396  -30.2499   21.9820 C   0  0  0  0  0  0  0  0  0  0  0  0
  -27.5442  -19.8564   23.3967 C   0  0  0  0  0  0  0  0  0  0  0  0
  -25.3428  -28.4820   20.9919 C   0  0  0  0  0  0  0  0  0  0  0  0
  -28.0011  -26.4059   20.4817 C   0  0  0  0  0  0  0  0  0  0  0  0
  -30.6651  -14.7855   20.6607 C   0  0  0  0  0  0  0  0  0  0  0  0
  -24.1846  -35.1908   22.5601 C   0  0  0  0  0  0  0  0  0  0  0  0
  -22.7208  -28.5395   23.7539 C   0  0  0  0  0  0  0  0  0  0  0  0
  -23.3675  -26.9650   21.4996 C   0  0  0  0  0  0  0  0  0  0  0  0
  -24.7109  -34.0409   21.7050 C   0  0  0  0  0  0  0  0  0  0  0  0
  -29.6900  -12.3752   18.3817 C   0  0  0  0  0  0  0  0  0  0  0  0
  -23.5580  -33.3139   21.0201 C   0  0  0  0  0  0  0  0  0  0  0  0
  -28.2481  -12.0612   18.7803 C   0  0  0  0  0  0  0  0  0  0  0  0
  -29.0105  -17.9257   21.7225 C   0  0  0  0  0  0  0  0  0  0  0  0
  -28.5059  -16.1244   23.4106 C   0  0  0  0  0  0  0  0  0  0  0  0
  -24.0217  -20.7570   23.6992 C   0  0  0  0  0  0  0  0  0  0  0  0
  -25.4872  -22.8013   23.6158 C   0  0  0  0  0  0  0  0  0  0  0  0
  -30.5726  -12.5432   19.6133 C   0  0  0  0  0  0  0  0  0  0  0  0
  -30.2379  -17.1367   21.2752 C   0  0  0  0  0  0  0  0  0  0  0  0
  -29.7450  -15.3727   22.9357 C   0  0  0  0  0  0  0  0  0  0  0  0
  -25.0602  -20.0015   22.8758 C   0  0  0  0  0  0  0  0  0  0  0  0
  -26.5005  -22.0147   22.7922 C   0  0  0  0  0  0  0  0  0  0  0  0
  -28.6456  -13.2858   20.9737 C   0  0  0  0  0  0  0  0  0  0  0  0
  -22.6038  -32.6986   22.0508 C   0  0  1  0  0  0  0  0  0  0  0  0
  -23.7025  -29.1267   22.7240 C   0  0  1  0  0  0  0  0  0  0  0  0
  -28.6515  -17.6355   23.1856 C   0  0  0  0  0  0  0  0  0  0  0  0
  -27.7052  -13.1131   19.7639 C   0  0  2  0  0  0  0  0  0  0  0  0
  -24.0717  -22.2586   23.4253 C   0  0  0  0  0  0  0  0  0  1  0  0
  -26.9964  -18.0477   25.0319 C   0  0  0  0  0  0  0  0  0  0  0  0
  -30.0962  -26.1871   19.1179 C   0  0  0  0  0  0  0  0  0  0  0  0
  -23.6738  -27.7073   18.5591 C   0  0  0  0  0  0  0  0  0  0  0  0
  -25.7125  -26.6194   17.5955 C   0  0  0  0  0  0  0  0  0  0  0  0
  -25.7030  -29.0740   18.0403 C   0  0  0  0  0  0  0  0  0  0  0  0
  -29.7104  -26.3874   22.8977 C   0  0  0  0  0  0  0  0  0  0  0  0
  -27.3753  -18.3703   23.5887 C   0  0  1  0  0  0  0  0  0  0  0  0
  -25.8121  -27.4623   19.9852 C   0  0  1  0  0  0  0  0  0  0  0  0
  -29.4940  -26.6755   20.4261 C   0  0  2  0  0  0  0  0  0  0  0  0
  -25.2155  -27.7080   18.5706 C   0  0  0  0  0  0  0  0  0  0  0  0
  -25.9033  -11.5173   20.3018 N   0  0  0  0  0  0  0  0  0  0  0  0
  -26.2846  -12.8018   20.1974 N   0  0  0  0  0  0  0  0  0  0  0  0
  -24.1620  -28.1894   21.6851 N   0  0  0  0  0  0  0  0  0  0  0  0
  -26.3987  -20.5779   23.0586 N   0  0  0  0  0  0  0  0  0  0  0  0
  -30.0211  -13.5465   20.5238 N   0  0  0  0  0  0  0  0  0  0  0  0
  -30.0839  -15.7081   21.5462 N   0  0  0  0  0  0  0  0  0  0  0  0
  -25.5161  -15.0272   20.4567 N   0  0  0  0  0  0  0  0  0  0  0  0
  -21.9032  -12.5442   21.5419 N   0  0  0  0  0  0  0  0  0  0  0  0
  -23.1654  -31.4814   22.5961 N   0  0  0  0  0  0  0  0  0  0  0  0
  -27.2701  -27.4846   20.0310 N   0  0  0  0  0  0  0  0  0  0  0  0
  -30.1874  -25.9845   21.5497 N   0  3  0  0  0  0  0  0  0  0  0  0
  -22.6875  -14.6860   21.3051 O   0  0  0  0  0  0  0  0  0  0  0  0
  -22.4578  -30.0179   20.9288 O   0  0  0  0  0  0  0  0  0  0  0  0
  -28.6607  -20.3597   23.5458 O   0  0  0  0  0  0  0  0  0  0  0  0
  -26.0002  -29.5134   21.1570 O   0  0  0  0  0  0  0  0  0  0  0  0
  -27.5306  -25.3431   20.8813 O   0  0  0  0  0  0  0  0  0  0  0  0
  -31.6939  -15.0553   20.0283 O   0  0  0  0  0  0  0  0  0  0  0  0
  -21.6207   -6.9800   21.5740 O   0  0  0  0  0  0  0  0  0  0  0  0
  -23.1785  -22.9173   24.3153 O   0  0  0  0  0  0  0  0  0  1  0  0
  -20.6329   -5.5280   26.8008 F   0  0  0  0  0  0  0  0  0  0  0  0
  -22.4810   -4.5431   22.5558 F   0  0  0  0  0  0  0  0  0  0  0  0
  1  2  1  0  0  0  0
  1  5  2  0  0  0  0
  2  6  2  0  0  0  0
  3  8  2  0  0  0  0
  3 15  1  0  0  0  0
  4  9  1  0  0  0  0
  4 15  2  0  0  0  0
  5 17  1  0  0  0  0
  6 19  1  0  0  0  0
  7 10  2  0  0  0  0
  7 18  1  0  0  0  0
  8 21  1  0  0  0  0
  9 21  2  0  0  0  0
 10 22  1  0  0  0  0
 11 12  2  0  0  0  0
 11 23  1  0  0  0  0
 12 24  1  0  0  0  0
 13 20  1  0  0  0  0
 13 22  2  0  0  0  0
 14 24  2  0  0  0  0
 14 25  1  0  0  0  0
 15 26  1  0  0  0  0
 16 26  1  0  0  0  0
 16 27  2  0  0  0  0
 16 28  1  0  0  0  0
 17 19  2  0  0  0  0
 17 34  1  0  0  0  0
 18 20  2  0  0  0  0
 18 35  1  0  0  0  0
 19 51  1  0  0  0  0
 20 36  1  0  0  0  0
 21 83  1  0  0  0  0
 22 84  1  0  0  0  0
 23 25  2  0  0  0  0
 23 83  1  0  0  0  0
 24 85  1  0  0  0  0
 25 86  1  0  0  0  0
 26 66  2  0  0  0  0
 27 67  1  0  0  0  0
 27 72  1  0  0  0  0
 28 73  1  0  0  0  0
 28 77  2  0  0  0  0
 29 52  1  0  0  0  0
 29 74  1  0  0  0  0
 29 78  2  0  0  0  0
 30 62  1  0  0  0  0
 30 69  1  0  0  0  0
 30 79  2  0  0  0  0
 31 63  1  0  0  0  0
 31 68  1  0  0  0  0
 31 80  2  0  0  0  0
 32 64  1  0  0  0  0
 32 75  1  0  0  0  0
 32 81  2  0  0  0  0
 33 70  1  0  0  0  0
 33 71  1  0  0  0  0
 33 82  2  0  0  0  0
 34 37  1  0  0  0  0
 35 52  1  0  0  0  0
 36 68  1  0  0  0  0
 37 39  1  0  0  0  0
 38 40  1  0  0  0  0
 38 45  1  0  0  0  0
 39 51  1  0  0  0  0
 40 54  1  0  0  0  0
 41 46  1  0  0  0  0
 41 53  1  0  0  0  0
 42 47  1  0  0  0  0
 42 53  1  0  0  0  0
 43 48  1  0  0  0  0
 43 55  1  0  0  0  0
 44 49  1  0  0  0  0
 44 55  1  0  0  0  0
 45 70  1  0  0  0  0
 46 71  1  0  0  0  0
 47 71  1  0  0  0  0
 48 69  1  0  0  0  0
 49 69  1  0  0  0  0
 50 54  1  0  0  0  0
 50 70  1  0  0  0  0
 51 74  1  0  0  0  0
 52 68  1  0  0  0  0
 53 62  1  0  0  0  0
 54 67  1  0  0  0  0
 55 84  1  0  0  0  0
 56 62  1  0  0  0  0
 57 64  1  0  0  0  0
 58 65  1  0  0  0  0
 59 65  1  0  0  0  0
 60 65  1  0  0  0  0
 61 76  1  0  0  0  0
 63 65  1  0  0  0  0
 63 75  1  0  0  0  0
 64 76  1  0  0  0  0
 66 67  1  0  0  0  0
M  CHG  1  76   1
M  ISO  4  33 100  55 101  71 100  84 101
M  END
> <Batch ID>
0126

> <Smiles>
CNC(C)C(=O)NC(C(=O)N1Cc2cc([101O:1][101CH:1]3CCN(C(=O)C(C)C4CC[100N:0]([100C:0](=O)N5CCCC(n6nc(-c7ccc(Oc8ccc(F)cc8F)cc7)c(C(N)=O)c6N)C5)CC4)CC3)ccc2CC1C(=O)NC1CCCc2ccccc21)C(C)(C)C

> <Shape>
0.306

> <Color>
0.195

> <Negative vol penalty>
0.000

$$$$

  -OEChem-04052320383D

 81 89  0     1  0  0  0  0  0999 V2000
  -29.3258  -10.9638   19.9059 C   0  0  0  0  0  0  0  0  0  0  0  0
  -29.4106  -12.3221   19.6176 C   0  0  0  0  0  0  0  0  0  0  0  0
  -31.3088  -22.9583   17.0450 C   0  0  0  0  0  0  0  0  0  0  0  0
  -21.4817  -28.6435   20.9743 C   0  0  0  0  0  0  0  0  0  0  0  0
  -23.1539  -27.4488   22.2446 C   0  0  0  0  0  0  0  0  0  0  0  0
  -28.0856  -10.3849   20.1722 C   0  0  0  0  0  0  0  0  0  0  0  0
  -28.2551  -13.1022   19.5943 C   0  0  0  0  0  0  0  0  0  0  0  0
  -28.8441  -17.5190   22.0006 C   0  0  0  0  0  0  0  0  0  0  0  0
  -30.4639  -22.0570   17.6927 C   0  0  0  0  0  0  0  0  0  0  0  0
  -31.2968  -24.3064   17.4033 C   0  0  0  0  0  0  0  0  0  0  0  0
  -20.5602  -27.6290   21.2334 C   0  0  0  0  0  0  0  0  0  0  0  0
  -22.2323  -26.4343   22.5037 C   0  0  0  0  0  0  0  0  0  0  0  0
  -29.5294  -18.5267   21.3232 C   0  0  0  0  0  0  0  0  0  0  0  0
  -18.5730  -26.6629   23.7928 C   0  0  0  0  0  0  0  0  0  0  0  0
  -17.2871  -27.0389   24.1810 C   0  0  0  0  0  0  0  0  0  0  0  0
  -27.4268  -19.5512   20.7327 C   0  0  0  0  0  0  0  0  0  0  0  0
  -29.5950  -23.8519   19.0568 C   0  0  0  0  0  0  0  0  0  0  0  0
  -16.3734  -25.9043   22.2536 C   0  0  0  0  0  0  0  0  0  0  0  0
  -22.7787  -28.5533   21.4799 C   0  0  0  0  0  0  0  0  0  0  0  0
  -23.9674  -30.7531   21.9855 C   0  0  0  0  0  0  0  0  0  0  0  0
  -26.9155  -11.1603   20.1617 C   0  0  0  0  0  0  0  0  0  0  0  0
  -27.4424  -17.5139   22.0399 C   0  0  0  0  0  0  0  0  0  0  0  0
  -26.9979  -12.5330   19.8594 C   0  0  0  0  0  0  0  0  0  0  0  0
  -26.7262  -18.5438   21.4134 C   0  0  0  0  0  0  0  0  0  0  0  0
  -29.6070  -22.5038   18.6986 C   0  0  0  0  0  0  0  0  0  0  0  0
  -30.4399  -24.7532   18.4091 C   0  0  0  0  0  0  0  0  0  0  0  0
  -20.9354  -26.5244   21.9981 C   0  0  0  0  0  0  0  0  0  0  0  0
  -28.8207  -19.5414   20.6867 C   0  0  0  0  0  0  0  0  0  0  0  0
  -18.7591  -25.9076   22.6350 C   0  0  0  0  0  0  0  0  0  0  0  0
  -16.1873  -26.6596   23.4115 C   0  0  0  0  0  0  0  0  0  0  0  0
  -17.6593  -25.5283   21.8654 C   0  0  0  0  0  0  0  0  0  0  0  0
  -23.7313  -29.6007   21.2122 C   0  0  0  0  0  0  0  0  0  0  0  0
  -24.9592  -31.4221   21.3107 C   0  0  0  0  0  0  0  0  0  0  0  0
  -23.3460  -31.1806   23.2048 C   0  0  0  0  0  0  0  0  0  0  0  0
  -25.1769  -15.5318   21.0188 C   0  0  0  0  0  0  0  0  0  0  0  0
  -23.2180  -17.5817   22.5944 C   0  0  0  0  0  0  0  0  0  0  0  0
  -22.6999  -20.7193   23.8328 C   0  0  0  0  0  0  0  0  0  0  0  0
  -29.2338  -29.6321   17.5192 C   0  0  0  0  0  0  0  0  0  0  0  0
  -25.5920  -10.4806   20.4093 C   0  0  0  0  0  0  0  0  0  0  0  0
  -26.7188  -16.4345   22.7974 C   0  0  0  0  0  0  0  0  0  0  0  0
  -25.2212  -18.5951   21.4433 C   0  0  0  0  0  0  0  0  0  0  0  0
  -24.4597  -11.4518   20.7332 C   0  0  0  0  0  0  0  0  0  0  0  0
  -26.7115  -32.0691   16.9060 C   0  0  0  0  0  0  0  0  0  0  0  0
  -24.4628  -12.6212   19.7536 C   0  0  0  0  0  0  0  0  0  0  0  0
  -25.6830  -31.8168   18.0098 C   0  0  0  0  0  0  0  0  0  0  0  0
  -27.3340  -30.7672   16.4063 C   0  0  0  0  0  0  0  0  0  0  0  0
  -26.8875  -29.6624   18.5635 C   0  0  0  0  0  0  0  0  0  0  0  0
  -25.7699  -13.4173   19.8491 C   0  0  1  0  0  0  0  0  0  0  0  0
  -25.2767  -16.2456   22.3372 C   0  0  1  0  0  0  0  0  0  0  0  0
  -26.2731  -30.9501   19.1385 C   0  0  2  0  0  0  0  0  0  0  0  0
  -20.9877  -22.1043   25.0360 C   0  0  0  0  0  0  0  0  0  0  0  0
  -21.6098  -17.8314   20.0135 C   0  0  0  0  0  0  0  0  0  0  0  0
  -20.5364  -19.8844   20.9630 C   0  0  0  0  0  0  0  0  0  0  0  0
  -20.2285  -17.6819   22.0930 C   0  0  0  0  0  0  0  0  0  0  0  0
  -24.5147  -21.1814   26.1245 C   0  0  0  0  0  0  0  0  0  0  0  0
  -28.6978  -21.5342   19.3946 C   0  0  0  0  0  0  0  0  0  1  0  0
  -31.2679  -27.0925   18.1494 C   0  0  0  0  0  0  0  0  0  0  0  0
  -31.0384  -28.4661   18.7613 C   0  0  0  0  0  0  0  0  0  0  0  0
  -22.4711  -18.8414   22.2280 C   0  0  1  0  0  0  0  0  0  0  0  0
  -22.2010  -21.1993   25.1838 C   0  0  2  0  0  0  0  0  0  0  0  0
  -21.2398  -18.5580   21.3219 C   0  0  0  0  0  0  0  0  0  0  0  0
  -24.5102  -29.5381   20.1289 N   0  0  0  0  0  0  0  0  0  0  0  0
  -25.2454  -30.6596   20.2167 N   0  0  0  0  0  0  0  0  0  0  0  0
  -24.5592  -17.5137   22.1915 N   0  0  0  0  0  0  0  0  0  0  0  0
  -27.8763  -29.9931   17.5254 N   0  0  0  0  0  0  0  0  0  0  0  0
  -25.6056  -32.5823   21.5523 N   0  0  0  0  0  0  0  0  0  0  0  0
  -22.3447  -30.3741   23.7628 N   0  0  0  0  0  0  0  0  0  0  0  0
  -30.4282  -26.1162   18.7715 N   0  0  0  0  0  0  0  0  0  0  0  0
  -25.7546  -14.2765   21.0135 N   0  0  0  0  0  0  0  0  0  0  0  0
  -22.1471  -19.5045   23.4864 N   0  0  0  0  0  0  0  0  0  0  0  0
  -29.6678  -28.9047   18.6207 N   0  0  0  0  0  0  0  0  0  0  0  0
  -23.2705  -21.9588   25.8910 N   0  3  0  0  0  0  0  0  0  0  0  0
  -23.6574  -32.2543   23.7735 O   0  0  0  0  0  0  0  0  0  0  0  0
  -24.6161  -16.0788   20.0765 O   0  0  0  0  0  0  0  0  0  0  0  0
  -22.6349  -16.6937   23.2216 O   0  0  0  0  0  0  0  0  0  0  0  0
  -23.4972  -21.3598   23.1512 O   0  0  0  0  0  0  0  0  0  0  0  0
  -30.0033  -29.9402   16.6027 O   0  0  0  0  0  0  0  0  0  0  0  0
  -20.0363  -25.5345   22.2513 O   0  0  0  0  0  0  0  0  0  0  0  0
  -29.4870  -20.5258   20.0243 O   0  0  0  0  0  0  0  0  0  1  0  0
  -14.9524  -27.0194   23.7852 F   0  0  0  0  0  0  0  0  0  0  0  0
  -17.8318  -24.8017   20.7527 F   0  0  0  0  0  0  0  0  0  0  0  0
  1  2  1  0  0  0  0
  1  6  2  0  0  0  0
  2  7  2  0  0  0  0
  3  9  2  0  0  0  0
  3 10  1  0  0  0  0
  4 11  2  0  0  0  0
  4 19  1  0  0  0  0
  5 12  1  0  0  0  0
  5 19  2  0  0  0  0
  6 21  1  0  0  0  0
  7 23  1  0  0  0  0
  8 13  2  0  0  0  0
  8 22  1  0  0  0  0
  9 25  1  0  0  0  0
 10 26  2  0  0  0  0
 11 27  1  0  0  0  0
 12 27  2  0  0  0  0
 13 28  1  0  0  0  0
 14 15  2  0  0  0  0
 14 29  1  0  0  0  0
 15 30  1  0  0  0  0
 16 24  1  0  0  0  0
 16 28  2  0  0  0  0
 17 25  2  0  0  0  0
 17 26  1  0  0  0  0
 18 30  2  0  0  0  0
 18 31  1  0  0  0  0
 19 32  1  0  0  0  0
 20 32  1  0  0  0  0
 20 33  2  0  0  0  0
 20 34  1  0  0  0  0
 21 23  2  0  0  0  0
 21 39  1  0  0  0  0
 22 24  2  0  0  0  0
 22 40  1  0  0  0  0
 23 48  1  0  0  0  0
 24 41  1  0  0  0  0
 25 56  1  0  0  0  0
 26 68  1  0  0  0  0
 27 78  1  0  0  0  0
 28 79  1  0  0  0  0
 29 31  2  0  0  0  0
 29 78  1  0  0  0  0
 30 80  1  0  0  0  0
 31 81  1  0  0  0  0
 32 62  2  0  0  0  0
 33 63  1  0  0  0  0
 33 66  1  0  0  0  0
 34 67  1  0  0  0  0
 34 73  2  0  0  0  0
 35 49  1  0  0  0  0
 35 69  1  0  0  0  0
 35 74  2  0  0  0  0
 36 59  1  0  0  0  0
 36 64  1  0  0  0  0
 36 75  2  0  0  0  0
 37 60  1  0  0  0  0
 37 70  1  0  0  0  0
 37 76  2  0  0  0  0
 38 65  1  0  0  0  0
 38 71  1  0  0  0  0
 38 77  2  0  0  0  0
 39 42  1  0  0  0  0
 40 49  1  0  0  0  0
 41 64  1  0  0  0  0
 42 44  1  0  0  0  0
 43 45  1  0  0  0  0
 43 46  1  0  0  0  0
 44 48  1  0  0  0  0
 45 50  1  0  0  0  0
 46 65  1  0  0  0  0
 47 50  1  0  0  0  0
 47 65  1  0  0  0  0
 48 69  1  0  0  0  0
 49 64  1  0  0  0  0
 50 63  1  0  0  0  0
 51 60  1  0  0  0  0
 52 61  1  0  0  0  0
 53 61  1  0  0  0  0
 54 61  1  0  0  0  0
 55 72  1  0  0  0  0
 56 79  1  0  0  0  0
 57 58  1  0  0  0  0
 57 68  1  0  0  0  0
 58 71  1  0  0  0  0
 59 61  1  0  0  0  0
 59 70  1  0  0  0  0
 60 72  1  0  0  0  0
 62 63  1  0  0  0  0
M  CHG  1  72   1
M  ISO  4  38 100  56 101  71 100  79 101
M  END
> <Batch ID>
0126

> <Smiles>
CNC(C)C(=O)NC(C(=O)N1Cc2cc([101O:1][101CH2:1]c3cccc(NCC[100NH:0][100C:0](=O)N4CCCC(n5nc(-c6ccc(Oc7ccc(F)cc7F)cc6)c(C(N)=O)c5N)C4)c3)ccc2CC1C(=O)NC1CCCc2ccccc21)C(C)(C)C

> <Shape>
0.233

> <Color>
0.075

> <Negative vol penalty>
0.000

$$$$

  -OEChem-04052320383D

 95105  0     1  0  0  0  0  0999 V2000
  -16.4595  -25.6685   23.7207 C   0  0  0  0  0  0  0  0  0  0  0  0
  -17.5264  -24.8435   24.0622 C   0  0  0  0  0  0  0  0  0  0  0  0
  -23.9916  -13.5050   20.5100 C   0  0  0  0  0  0  0  0  0  0  0  0
  -26.3565  -13.4582   21.0022 C   0  0  0  0  0  0  0  0  0  0  0  0
  -16.6994  -26.9032   23.1191 C   0  0  0  0  0  0  0  0  0  0  0  0
  -18.8337  -25.2523   23.8013 C   0  0  0  0  0  0  0  0  0  0  0  0
  -25.4766  -24.7294   26.4311 C   0  0  0  0  0  0  0  0  0  0  0  0
  -24.0147  -12.1313   20.2688 C   0  0  0  0  0  0  0  0  0  0  0  0
  -26.3795  -12.0846   20.7611 C   0  0  0  0  0  0  0  0  0  0  0  0
  -26.7662  -24.3753   26.0370 C   0  0  0  0  0  0  0  0  0  0  0  0
  -24.0370   -9.2826   22.0902 C   0  0  0  0  0  0  0  0  0  0  0  0
  -23.0159   -8.5102   22.6435 C   0  0  0  0  0  0  0  0  0  0  0  0
  -27.0638  -26.5635   25.0660 C   0  0  0  0  0  0  0  0  0  0  0  0
  -22.3542   -7.8000   20.4311 C   0  0  0  0  0  0  0  0  0  0  0  0
  -25.1626  -14.1685   20.8766 C   0  0  0  0  0  0  0  0  0  0  0  0
  -24.3784  -16.2686   22.0940 C   0  0  0  0  0  0  0  0  0  0  0  0
  -18.0107  -27.3315   22.8595 C   0  0  0  0  0  0  0  0  0  0  0  0
  -24.9661  -26.0016   26.1355 C   0  0  0  0  0  0  0  0  0  0  0  0
  -19.0913  -26.4933   23.1945 C   0  0  0  0  0  0  0  0  0  0  0  0
  -25.7683  -26.9321   25.4597 C   0  0  0  0  0  0  0  0  0  0  0  0
  -25.2086  -11.4211   20.3944 C   0  0  0  0  0  0  0  0  0  0  0  0
  -27.5590  -25.2914   25.3518 C   0  0  0  0  0  0  0  0  0  0  0  0
  -24.2167   -9.3139   20.7072 C   0  0  0  0  0  0  0  0  0  0  0  0
  -22.1745   -7.7688   21.8140 C   0  0  0  0  0  0  0  0  0  0  0  0
  -23.3753   -8.5725   19.8777 C   0  0  0  0  0  0  0  0  0  0  0  0
  -25.1396  -15.5875   21.1252 C   0  0  0  0  0  0  0  0  0  0  0  0
  -24.7110  -17.5904   21.9250 C   0  0  0  0  0  0  0  0  0  0  0  0
  -23.4535  -15.7525   23.0604 C   0  0  0  0  0  0  0  0  0  0  0  0
  -22.5254  -27.0957   24.4179 C   0  0  0  0  0  0  0  0  0  0  0  0
  -23.4255  -29.9477   25.6741 C   0  0  0  0  0  0  0  0  0  0  0  0
  -25.8965  -31.8560   27.0523 C   0  0  0  0  0  0  0  0  0  0  0  0
  -25.6492  -21.9358   18.9131 C   0  0  0  0  0  0  0  0  0  0  0  0
  -18.2183  -28.6538   22.1644 C   0  0  0  0  0  0  0  0  0  0  0  0
  -23.5827  -26.3772   26.5910 C   0  0  0  0  0  0  0  0  0  0  0  0
  -25.2745  -28.3177   25.1359 C   0  0  0  0  0  0  0  0  0  0  0  0
  -19.6494  -29.1759   22.2632 C   0  0  0  0  0  0  0  0  0  0  0  0
  -30.4200  -30.1635   21.1998 C   0  0  0  0  0  0  0  0  0  0  0  0
  -29.4817  -29.0326   20.7901 C   0  0  0  0  0  0  0  0  0  0  0  0
  -31.8283  -29.9496   20.6537 C   0  0  0  0  0  0  0  0  0  0  0  0
  -26.7392  -25.4755   18.8214 C   0  0  0  0  0  0  0  0  0  0  0  0
  -28.3829  -19.7521   19.2125 C   0  0  0  0  0  0  0  0  0  0  0  0
  -20.6459  -28.0653   21.9463 C   0  0  0  0  0  0  0  0  0  0  0  0
  -28.2156  -25.3535   18.4528 C   0  0  0  0  0  0  0  0  0  0  0  0
  -30.0362  -27.6674   21.1909 C   0  0  0  0  0  0  0  0  0  0  0  0
  -32.3867  -28.5860   21.0540 C   0  0  0  0  0  0  0  0  0  0  0  0
  -27.7195  -18.5162   19.8193 C   0  0  0  0  0  0  0  0  0  0  0  0
  -30.3061  -23.8790   16.8988 C   0  0  0  0  0  0  0  0  0  0  0  0
  -25.9235  -24.3054   18.2823 C   0  0  0  0  0  0  0  0  0  0  0  0
  -27.5100  -20.4011   18.1372 C   0  0  0  0  0  0  0  0  0  0  0  0
  -27.9267  -22.8543   18.3245 C   0  0  0  0  0  0  0  0  0  0  0  0
  -25.4727  -19.4809   19.1954 C   0  0  0  0  0  0  0  0  0  0  0  0
  -31.7334  -23.7693   16.3891 C   0  0  0  0  0  0  0  0  0  0  0  0
  -32.5856  -24.8084   18.4938 C   0  0  0  0  0  0  0  0  0  0  0  0
  -20.5247  -26.9124   22.9501 C   0  0  1  0  0  0  0  0  0  0  0  0
  -22.9789  -27.5233   25.7851 C   0  0  1  0  0  0  0  0  0  0  0  0
  -28.7827  -23.9950   18.8853 C   0  0  1  0  0  0  0  0  0  0  0  0
  -30.2389  -23.8486   18.4361 C   0  0  2  0  0  0  0  0  0  0  0  0
  -31.4496  -27.4449   20.6358 C   0  0  0  0  0  0  0  0  0  0  0  0
  -31.1609  -24.9364   19.0422 C   0  0  1  0  0  0  0  0  0  0  0  0
  -26.3008  -18.8407   20.3203 C   0  0  1  0  0  0  0  0  0  0  0  0
  -26.3415  -34.1596   27.9427 C   0  0  0  0  0  0  0  0  0  0  0  0
  -23.5457  -31.0244   22.8217 C   0  0  0  0  0  0  0  0  0  0  0  0
  -24.8762  -32.9622   23.6835 C   0  0  0  0  0  0  0  0  0  0  0  0
  -22.5437  -32.5964   24.4888 C   0  0  0  0  0  0  0  0  0  0  0  0
  -26.5546  -30.8147   29.7433 C   0  0  0  0  0  0  0  0  0  0  0  0
  -32.0030  -26.0969   21.0940 C   0  0  0  0  0  0  0  0  0  0  0  0
  -31.8038  -23.5506   21.0816 C   0  0  0  0  0  0  0  0  0  0  0  0
  -31.9413  -23.4132   22.5955 C   0  0  0  0  0  0  0  0  0  0  0  0
  -30.6552  -23.4071   24.7367 C   0  0  0  0  0  0  0  0  0  0  0  0
  -29.2638  -23.6342   25.2939 C   0  0  0  0  0  0  0  0  0  1  0  0
  -24.3809  -31.0424   25.2647 C   0  0  1  0  0  0  0  0  0  0  0  0
  -25.9166  -32.7403   28.2860 C   0  0  2  0  0  0  0  0  0  0  0  0
  -31.2060  -24.8813   20.5713 C   0  0  2  0  0  0  0  0  0  0  0  0
  -23.8455  -31.8797   24.0689 C   0  0  0  0  0  0  0  0  0  0  0  0
  -25.8984  -16.4089   20.3947 N   0  0  0  0  0  0  0  0  0  0  0  0
  -25.6156  -17.6197   20.9047 N   0  0  0  0  0  0  0  0  0  0  0  0
  -23.9128  -28.6353   25.5968 N   0  0  0  0  0  0  0  0  0  0  0  0
  -26.5072  -23.0215   18.6698 N   0  0  0  0  0  0  0  0  0  0  0  0
  -26.1565  -20.6548   18.6484 N   0  0  0  0  0  0  0  0  0  0  0  0
  -24.3148  -18.7190   22.5510 N   0  0  0  0  0  0  0  0  0  0  0  0
  -23.2288  -14.3696   23.0980 N   0  0  0  0  0  0  0  0  0  0  0  0
  -21.1710  -27.2587   24.1978 N   0  0  0  0  0  0  0  0  0  0  0  0
  -24.6479  -31.8225   26.4683 N   0  0  0  0  0  0  0  0  0  0  0  0
  -32.5537  -24.8511   17.0031 N   0  3  0  0  0  0  0  0  0  0  0  0
  -26.8669  -32.1969   29.2974 N   0  3  0  0  0  0  0  0  0  0  0  0
  -30.6272  -23.5820   23.2580 N   0  3  0  0  0  0  0  0  0  0  0  0
  -22.8322  -16.4973   23.8558 O   0  0  0  0  0  0  0  0  0  0  0  0
  -23.3440  -26.6521   23.6212 O   0  0  0  0  0  0  0  0  0  0  0  0
  -22.2911  -30.2465   26.0556 O   0  0  0  0  0  0  0  0  0  0  0  0
  -26.8900  -31.2580   26.6451 O   0  0  0  0  0  0  0  0  0  0  0  0
  -24.5012  -22.1022   19.3438 O   0  0  0  0  0  0  0  0  0  0  0  0
  -25.2314  -10.0807   20.1595 O   0  0  0  0  0  0  0  0  0  0  0  0
  -28.8269  -24.9457   24.9627 O   0  0  0  0  0  0  0  0  0  1  0  0
  -21.1949   -7.0258   22.3456 F   0  0  0  0  0  0  0  0  0  0  0  0
  -23.5437   -8.5976   18.5485 F   0  0  0  0  0  0  0  0  0  0  0  0
  1  2  1  0  0  0  0
  1  5  2  0  0  0  0
  2  6  2  0  0  0  0
  3  8  2  0  0  0  0
  3 15  1  0  0  0  0
  4  9  1  0  0  0  0
  4 15  2  0  0  0  0
  5 17  1  0  0  0  0
  6 19  1  0  0  0  0
  7 10  2  0  0  0  0
  7 18  1  0  0  0  0
  8 21  1  0  0  0  0
  9 21  2  0  0  0  0
 10 22  1  0  0  0  0
 11 12  2  0  0  0  0
 11 23  1  0  0  0  0
 12 24  1  0  0  0  0
 13 20  1  0  0  0  0
 13 22  2  0  0  0  0
 14 24  2  0  0  0  0
 14 25  1  0  0  0  0
 15 26  1  0  0  0  0
 16 26  1  0  0  0  0
 16 27  2  0  0  0  0
 16 28  1  0  0  0  0
 17 19  2  0  0  0  0
 17 33  1  0  0  0  0
 18 20  2  0  0  0  0
 18 34  1  0  0  0  0
 19 54  1  0  0  0  0
 20 35  1  0  0  0  0
 21 92  1  0  0  0  0
 22 93  1  0  0  0  0
 23 25  2  0  0  0  0
 23 92  1  0  0  0  0
 24 94  1  0  0  0  0
 25 95  1  0  0  0  0
 26 75  2  0  0  0  0
 27 76  1  0  0  0  0
 27 80  1  0  0  0  0
 28 81  1  0  0  0  0
 28 87  2  0  0  0  0
 29 55  1  0  0  0  0
 29 82  1  0  0  0  0
 29 88  2  0  0  0  0
 30 71  1  0  0  0  0
 30 77  1  0  0  0  0
 30 89  2  0  0  0  0
 31 72  1  0  0  0  0
 31 83  1  0  0  0  0
 31 90  2  0  0  0  0
 32 78  1  0  0  0  0
 32 79  1  0  0  0  0
 32 91  2  0  0  0  0
 33 36  1  0  0  0  0
 34 55  1  0  0  0  0
 35 77  1  0  0  0  0
 36 42  1  0  0  0  0
 37 38  1  0  0  0  0
 37 39  1  0  0  0  0
 38 44  1  0  0  0  0
 39 45  1  0  0  0  0
 40 43  1  0  0  0  0
 40 48  1  0  0  0  0
 41 46  1  0  0  0  0
 41 49  1  0  0  0  0
 42 54  1  0  0  0  0
 43 56  1  0  0  0  0
 44 58  1  0  0  0  0
 45 58  1  0  0  0  0
 46 60  1  0  0  0  0
 47 52  1  0  0  0  0
 47 57  1  0  0  0  0
 48 78  1  0  0  0  0
 49 79  1  0  0  0  0
 50 56  1  0  0  0  0
 50 78  1  0  0  0  0
 51 60  1  0  0  0  0
 51 79  1  0  0  0  0
 52 84  1  0  0  0  0
 53 59  1  0  0  0  0
 53 84  1  0  0  0  0
 54 82  1  0  0  0  0
 55 77  1  0  0  0  0
 56 57  1  0  0  0  0
 57 59  1  0  0  0  0
 58 66  1  0  0  0  0
 59 73  1  0  0  0  0
 60 76  1  0  0  0  0
 61 72  1  0  0  0  0
 62 74  1  0  0  0  0
 63 74  1  0  0  0  0
 64 74  1  0  0  0  0
 65 85  1  0  0  0  0
 66 73  1  0  0  0  0
 67 68  1  0  0  0  0
 67 73  1  0  0  0  0
 68 86  1  0  0  0  0
 69 70  1  0  0  0  0
 69 86  1  0  0  0  0
 70 93  1  0  0  0  0
 71 74  1  0  0  0  0
 71 83  1  0  0  0  0
 72 85  1  0  0  0  0
 75 76  1  0  0  0  0
M  CHG  3  84   1  85   1  86   1
M  ISO  4  32 100  70 101  78 100  93 101
M  END
> <Batch ID>
0126

> <Smiles>
CNC(C)C(=O)NC(C(=O)N1Cc2cc([101O:1][101CH2:1]CNCCC(CC3CCCCC3)C3CNCCC3C3CCC[100N:0]([100C:0](=O)N4CCCC(n5nc(-c6ccc(Oc7ccc(F)cc7F)cc6)c(C(N)=O)c5N)C4)C3)ccc2CC1C(=O)NC1CCCc2ccccc21)C(C)(C)C

> <Shape>
0.222

> <Color>
0.050

> <Negative vol penalty>
0.000

$$$$

  -OEChem-04052320383D

 89 98  0     1  0  0  0  0  0999 V2000
  -19.1490  -29.9001   20.2496 C   0  0  0  0  0  0  0  0  0  0  0  0
  -19.7757  -28.6602   20.3236 C   0  0  0  0  0  0  0  0  0  0  0  0
  -23.1042  -10.4132   22.1946 C   0  0  0  0  0  0  0  0  0  0  0  0
  -23.7248   -9.5923   20.0088 C   0  0  0  0  0  0  0  0  0  0  0  0
  -18.3069  -30.3168   21.2798 C   0  0  0  0  0  0  0  0  0  0  0  0
  -19.5615  -27.8367   21.4283 C   0  0  0  0  0  0  0  0  0  0  0  0
  -18.7232  -23.0158   20.1242 C   0  0  0  0  0  0  0  0  0  0  0  0
  -22.3228   -9.2762   22.3999 C   0  0  0  0  0  0  0  0  0  0  0  0
  -22.9434   -8.4552   20.2140 C   0  0  0  0  0  0  0  0  0  0  0  0
  -19.8337  -22.2480   19.7763 C   0  0  0  0  0  0  0  0  0  0  0  0
  -19.6677   -7.6276   20.0891 C   0  0  0  0  0  0  0  0  0  0  0  0
  -18.8399   -7.2131   19.0458 C   0  0  0  0  0  0  0  0  0  0  0  0
  -19.8363  -21.2646   21.9791 C   0  0  0  0  0  0  0  0  0  0  0  0
  -19.9959   -5.0930   18.9708 C   0  0  0  0  0  0  0  0  0  0  0  0
  -23.8052  -10.5713   20.9990 C   0  0  0  0  0  0  0  0  0  0  0  0
  -24.1786  -13.0853   20.7796 C   0  0  0  0  0  0  0  0  0  0  0  0
  -18.0747  -29.4939   22.3931 C   0  0  0  0  0  0  0  0  0  0  0  0
  -18.1666  -22.9216   21.4079 C   0  0  0  0  0  0  0  0  0  0  0  0
  -18.7165  -28.2434   22.4749 C   0  0  0  0  0  0  0  0  0  0  0  0
  -18.7172  -22.0305   22.3400 C   0  0  0  0  0  0  0  0  0  0  0  0
  -22.2424   -8.2971   21.4096 C   0  0  0  0  0  0  0  0  0  0  0  0
  -20.3922  -21.3744   20.7047 C   0  0  0  0  0  0  0  0  0  0  0  0
  -20.6597   -6.7747   20.5732 C   0  0  0  0  0  0  0  0  0  0  0  0
  -19.0039   -5.9458   18.4866 C   0  0  0  0  0  0  0  0  0  0  0  0
  -20.8238   -5.5074   20.0141 C   0  0  0  0  0  0  0  0  0  0  0  0
  -24.6121  -11.7459   20.7862 C   0  0  0  0  0  0  0  0  0  0  0  0
  -25.3174  -13.8135   20.5364 C   0  0  0  0  0  0  0  0  0  0  0  0
  -22.8641  -13.6230   20.9758 C   0  0  0  0  0  0  0  0  0  0  0  0
  -17.7479  -24.9431   23.8250 C   0  0  0  0  0  0  0  0  0  0  0  0
  -16.1200  -22.4519   25.1158 C   0  0  0  0  0  0  0  0  0  0  0  0
  -14.8257  -19.4282   26.0261 C   0  0  0  0  0  0  0  0  0  0  0  0
  -31.1308  -12.7240   21.4688 C   0  0  0  0  0  0  0  0  0  0  0  0
  -17.1934  -30.0074   23.5041 C   0  0  0  0  0  0  0  0  0  0  0  0
  -16.9524  -23.7370   21.7589 C   0  0  0  0  0  0  0  0  0  0  0  0
  -18.1449  -21.8773   23.7247 C   0  0  0  0  0  0  0  0  0  0  0  0
  -16.7246  -28.9164   24.4634 C   0  0  0  0  0  0  0  0  0  0  0  0
  -29.5693  -13.5014   18.3649 C   0  0  0  0  0  0  0  0  0  0  0  0
  -17.8925  -28.0216   24.8661 C   0  0  0  0  0  0  0  0  0  0  0  0
  -27.2501  -15.3072   24.7200 C   0  0  0  0  0  0  0  0  0  0  0  0
  -28.5615  -17.4132   24.2189 C   0  0  0  0  0  0  0  0  0  0  0  0
  -28.0826  -13.2605   18.6329 C   0  0  0  0  0  0  0  0  0  0  0  0
  -28.1969  -14.9897   25.8781 C   0  0  0  0  0  0  0  0  0  0  0  0
  -29.5118  -17.1001   25.3756 C   0  0  0  0  0  0  0  0  0  0  0  0
  -23.4481  -18.3112   22.5803 C   0  0  0  0  0  0  0  0  0  0  0  0
  -24.7987  -20.4087   22.1359 C   0  0  0  0  0  0  0  0  0  0  0  0
  -22.4160  -18.7613   21.5493 C   0  0  0  0  0  0  0  0  0  0  0  0
  -23.7630  -20.8540   21.1063 C   0  0  0  0  0  0  0  0  0  0  0  0
  -30.4463  -12.4899   19.0996 C   0  0  0  0  0  0  0  0  0  0  0  0
  -28.7125  -12.1535   20.8184 C   0  0  0  0  0  0  0  0  0  0  0  0
  -18.4897  -27.3112   23.6453 C   0  0  1  0  0  0  0  0  0  0  0  0
  -16.7823  -23.9392   23.2614 C   0  0  1  0  0  0  0  0  0  0  0  0
  -27.1674  -16.8155   24.4508 C   0  0  0  0  0  0  0  0  0  0  0  0
  -27.7905  -13.1834   20.1435 C   0  0  2  0  0  0  0  0  0  0  0  0
  -24.8254  -18.8864   22.2559 C   0  0  0  0  0  0  0  0  0  0  0  0
  -29.5832  -15.6102   25.7085 C   0  0  0  0  0  0  0  0  0  0  0  0
  -22.3787  -20.2830   21.4148 C   0  0  0  0  0  0  0  0  0  1  0  0
  -13.6546  -18.2775   27.9240 C   0  0  0  0  0  0  0  0  0  0  0  0
  -32.3776  -11.6537   24.2840 C   0  0  0  0  0  0  0  0  0  0  0  0
  -18.7531  -22.3093   26.6508 C   0  0  0  0  0  0  0  0  0  0  0  0
  -17.7950  -20.4167   27.9805 C   0  0  0  0  0  0  0  0  0  0  0  0
  -16.7317  -22.6711   28.0782 C   0  0  0  0  0  0  0  0  0  0  0  0
  -12.4563  -18.8324   24.3558 C   0  0  0  0  0  0  0  0  0  0  0  0
  -26.2545  -17.1006   23.2595 C   0  0  0  0  0  0  0  0  0  0  0  0
  -30.9643  -13.6353   25.0533 C   0  0  0  0  0  0  0  0  0  0  0  0
  -16.4835  -21.2733   25.9862 C   0  0  1  0  0  0  0  0  0  0  0  0
  -13.4832  -19.0455   26.6227 C   0  0  2  0  0  0  0  0  0  0  0  0
  -31.6596  -12.9391   23.8840 C   0  0  2  0  0  0  0  0  0  0  0  0
  -17.4422  -21.6661   27.1455 C   0  0  0  0  0  0  0  0  0  0  0  0
  -25.9239  -11.6274   20.5646 N   0  0  0  0  0  0  0  0  0  0  0  0
  -26.3245  -12.9016   20.4164 N   0  0  0  0  0  0  0  0  0  0  0  0
  -16.9613  -22.7009   24.0222 N   0  0  0  0  0  0  0  0  0  0  0  0
  -30.1203  -12.4671   20.5275 N   0  0  0  0  0  0  0  0  0  0  0  0
  -25.5456  -15.1386   20.4155 N   0  0  0  0  0  0  0  0  0  0  0  0
  -22.4628  -13.9480   22.2788 N   0  0  0  0  0  0  0  0  0  0  0  0
  -17.6552  -26.1966   23.2508 N   0  0  0  0  0  0  0  0  0  0  0  0
  -15.2224  -20.6866   26.4265 N   0  0  0  0  0  0  0  0  0  0  0  0
  -30.7354  -12.6892   22.8004 N   0  0  0  0  0  0  0  0  0  0  0  0
  -25.7729  -18.5053   23.3366 N   0  3  0  0  0  0  0  0  0  0  0  0
  -30.3120  -14.8970   24.6201 N   0  3  0  0  0  0  0  0  0  0  0  0
  -12.7176  -18.1921   25.6706 N   0  3  0  0  0  0  0  0  0  0  0  0
  -22.0629  -13.7945   20.0259 O   0  0  0  0  0  0  0  0  0  0  0  0
  -18.5188  -24.6058   24.7158 O   0  0  0  0  0  0  0  0  0  0  0  0
  -15.1221  -23.1224   25.3917 O   0  0  0  0  0  0  0  0  0  0  0  0
  -15.4607  -18.6836   25.2826 O   0  0  0  0  0  0  0  0  0  0  0  0
  -32.2976  -12.9716   21.1461 O   0  0  0  0  0  0  0  0  0  0  0  0
  -21.4802   -7.1874   21.6096 O   0  0  0  0  0  0  0  0  0  0  0  0
  -21.4765  -20.6242   20.3679 O   0  0  0  0  0  0  0  0  0  1  0  0
  -18.2079   -5.5474   17.4857 F   0  0  0  0  0  0  0  0  0  0  0  0
  -21.7742   -4.6833   20.4758 F   0  0  0  0  0  0  0  0  0  0  0  0
  1  2  1  0  0  0  0
  1  5  2  0  0  0  0
  2  6  2  0  0  0  0
  3  8  2  0  0  0  0
  3 15  1  0  0  0  0
  4  9  1  0  0  0  0
  4 15  2  0  0  0  0
  5 17  1  0  0  0  0
  6 19  1  0  0  0  0
  7 10  2  0  0  0  0
  7 18  1  0  0  0  0
  8 21  1  0  0  0  0
  9 21  2  0  0  0  0
 10 22  1  0  0  0  0
 11 12  2  0  0  0  0
 11 23  1  0  0  0  0
 12 24  1  0  0  0  0
 13 20  1  0  0  0  0
 13 22  2  0  0  0  0
 14 24  2  0  0  0  0
 14 25  1  0  0  0  0
 15 26  1  0  0  0  0
 16 26  1  0  0  0  0
 16 27  2  0  0  0  0
 16 28  1  0  0  0  0
 17 19  2  0  0  0  0
 17 33  1  0  0  0  0
 18 20  2  0  0  0  0
 18 34  1  0  0  0  0
 19 50  1  0  0  0  0
 20 35  1  0  0  0  0
 21 86  1  0  0  0  0
 22 87  1  0  0  0  0
 23 25  2  0  0  0  0
 23 86  1  0  0  0  0
 24 88  1  0  0  0  0
 25 89  1  0  0  0  0
 26 69  2  0  0  0  0
 27 70  1  0  0  0  0
 27 73  1  0  0  0  0
 28 74  1  0  0  0  0
 28 81  2  0  0  0  0
 29 51  1  0  0  0  0
 29 75  1  0  0  0  0
 29 82  2  0  0  0  0
 30 65  1  0  0  0  0
 30 71  1  0  0  0  0
 30 83  2  0  0  0  0
 31 66  1  0  0  0  0
 31 76  1  0  0  0  0
 31 84  2  0  0  0  0
 32 72  1  0  0  0  0
 32 77  1  0  0  0  0
 32 85  2  0  0  0  0
 33 36  1  0  0  0  0
 34 51  1  0  0  0  0
 35 71  1  0  0  0  0
 36 38  1  0  0  0  0
 37 41  1  0  0  0  0
 37 48  1  0  0  0  0
 38 50  1  0  0  0  0
 39 42  1  0  0  0  0
 39 52  1  0  0  0  0
 40 43  1  0  0  0  0
 40 52  1  0  0  0  0
 41 53  1  0  0  0  0
 42 55  1  0  0  0  0
 43 55  1  0  0  0  0
 44 46  1  0  0  0  0
 44 54  1  0  0  0  0
 45 47  1  0  0  0  0
 45 54  1  0  0  0  0
 46 56  1  0  0  0  0
 47 56  1  0  0  0  0
 48 72  1  0  0  0  0
 49 53  1  0  0  0  0
 49 72  1  0  0  0  0
 50 75  1  0  0  0  0
 51 71  1  0  0  0  0
 52 63  1  0  0  0  0
 53 70  1  0  0  0  0
 54 78  1  0  0  0  0
 55 79  1  0  0  0  0
 56 87  1  0  0  0  0
 57 66  1  0  0  0  0
 58 67  1  0  0  0  0
 59 68  1  0  0  0  0
 60 68  1  0  0  0  0
 61 68  1  0  0  0  0
 62 80  1  0  0  0  0
 63 78  1  0  0  0  0
 64 67  1  0  0  0  0
 64 79  1  0  0  0  0
 65 68  1  0  0  0  0
 65 76  1  0  0  0  0
 66 80  1  0  0  0  0
 67 77  1  0  0  0  0
 69 70  1  0  0  0  0
M  CHG  3  78   1  79   1  80   1
M  ISO  4  32 100  56 101  77 100  87 101
M  END
> <Batch ID>
0126

> <Smiles>
CNC(C)C(=O)NC(C(=O)N1Cc2cc([101O:1][101CH:1]3CCC(NCC4CCC(NCC(C)[100NH:0][100C:0](=O)N5CCCC(n6nc(-c7ccc(Oc8ccc(F)cc8F)cc7)c(C(N)=O)c6N)C5)CC4)CC3)ccc2CC1C(=O)NC1CCCc2ccccc21)C(C)(C)C

> <Shape>
0.151

> <Color>
0.155

> <Negative vol penalty>
0.000

$$$$

  -OEChem-04052320383D

 83 92  0     1  0  0  0  0  0999 V2000
  -27.2925  -31.4092   14.8593 C   0  0  0  0  0  0  0  0  0  0  0  0
  -27.0141  -30.1555   15.3942 C   0  0  0  0  0  0  0  0  0  0  0  0
  -23.1977   -9.7504   21.5253 C   0  0  0  0  0  0  0  0  0  0  0  0
  -23.7890  -10.8544   23.5914 C   0  0  0  0  0  0  0  0  0  0  0  0
  -27.7412  -32.4358   15.6891 C   0  0  0  0  0  0  0  0  0  0  0  0
  -27.1852  -29.9274   16.7591 C   0  0  0  0  0  0  0  0  0  0  0  0
  -23.7989  -26.2886   20.3366 C   0  0  0  0  0  0  0  0  0  0  0  0
  -28.7581  -19.3450   19.7852 C   0  0  0  0  0  0  0  0  0  0  0  0
  -27.8644  -20.3522   20.1531 C   0  0  0  0  0  0  0  0  0  0  0  0
  -22.5043   -8.7767   22.2441 C   0  0  0  0  0  0  0  0  0  0  0  0
  -23.0956   -9.8807   24.3102 C   0  0  0  0  0  0  0  0  0  0  0  0
  -23.9884  -24.9864   20.7971 C   0  0  0  0  0  0  0  0  0  0  0  0
  -23.2415   -6.0068   24.0355 C   0  0  0  0  0  0  0  0  0  0  0  0
  -23.4339   -4.6741   23.6718 C   0  0  0  0  0  0  0  0  0  0  0  0
  -29.1811  -18.8730   22.1107 C   0  0  0  0  0  0  0  0  0  0  0  0
  -24.9026  -25.8533   22.8542 C   0  0  0  0  0  0  0  0  0  0  0  0
  -21.0753   -4.4644   23.1920 C   0  0  0  0  0  0  0  0  0  0  0  0
  -23.8401  -10.7893   22.1990 C   0  0  0  0  0  0  0  0  0  0  0  0
  -24.0459  -13.0074   20.9558 C   0  0  0  0  0  0  0  0  0  0  0  0
  -27.9087  -32.2230   17.0665 C   0  0  0  0  0  0  0  0  0  0  0  0
  -24.1706  -27.3847   21.1283 C   0  0  0  0  0  0  0  0  0  0  0  0
  -27.6378  -30.9518   17.6079 C   0  0  0  0  0  0  0  0  0  0  0  0
  -28.2952  -19.8927   22.4871 C   0  0  0  0  0  0  0  0  0  0  0  0
  -24.7144  -27.1684   22.4025 C   0  0  0  0  0  0  0  0  0  0  0  0
  -29.4122  -18.6025   20.7636 C   0  0  0  0  0  0  0  0  0  0  0  0
  -27.6057  -20.6285   21.5037 C   0  0  0  0  0  0  0  0  0  0  0  0
  -22.4533   -8.8418   23.6365 C   0  0  0  0  0  0  0  0  0  0  0  0
  -24.5429  -24.7685   22.0549 C   0  0  0  0  0  0  0  0  0  0  0  0
  -21.9659   -6.5684   23.9775 C   0  0  0  0  0  0  0  0  0  0  0  0
  -22.3509   -3.9028   23.2500 C   0  0  0  0  0  0  0  0  0  0  0  0
  -20.8829   -5.7972   23.5558 C   0  0  0  0  0  0  0  0  0  0  0  0
  -24.5569  -11.7952   21.4571 C   0  0  0  0  0  0  0  0  0  0  0  0
  -25.1171  -13.6003   20.3333 C   0  0  0  0  0  0  0  0  0  0  0  0
  -22.7214  -13.5490   21.0449 C   0  0  0  0  0  0  0  0  0  0  0  0
  -26.2458  -29.7727   20.8212 C   0  0  0  0  0  0  0  0  0  0  0  0
  -24.8667  -30.8079   23.5687 C   0  0  0  0  0  0  0  0  0  0  0  0
  -23.1233  -30.0449   26.4016 C   0  0  0  0  0  0  0  0  0  0  0  0
  -30.5065  -15.0469   20.2472 C   0  0  0  0  0  0  0  0  0  0  0  0
  -28.4412  -33.3499   17.9157 C   0  0  0  0  0  0  0  0  0  0  0  0
  -23.9349  -28.7835   20.6281 C   0  0  0  0  0  0  0  0  0  0  0  0
  -28.0473  -20.1646   23.9491 C   0  0  0  0  0  0  0  0  0  0  0  0
  -25.1113  -28.3112   23.2997 C   0  0  0  0  0  0  0  0  0  0  0  0
  -28.2383  -33.1326   19.4130 C   0  0  0  0  0  0  0  0  0  0  0  0
  -27.5069  -21.5769   24.1669 C   0  0  0  0  0  0  0  0  0  0  0  0
  -29.6806  -11.7567   19.1660 C   0  0  0  0  0  0  0  0  0  0  0  0
  -28.6485  -31.7174   19.8075 C   0  0  0  0  0  0  0  0  0  0  0  0
  -28.2347  -11.5715   19.6297 C   0  0  0  0  0  0  0  0  0  0  0  0
  -30.4949  -12.5710   20.1688 C   0  0  0  0  0  0  0  0  0  0  0  0
  -28.4600  -13.6879   20.9966 C   0  0  0  0  0  0  0  0  0  0  0  0
  -27.7873  -30.6725   19.0877 C   0  0  1  0  0  0  0  0  0  0  0  0
  -24.8251  -29.8192   21.3081 C   0  0  1  0  0  0  0  0  0  0  0  0
  -27.5845  -12.9205   19.9911 C   0  0  2  0  0  0  0  0  0  0  0  0
  -26.3265  -21.8534   23.2302 C   0  0  1  0  0  0  0  0  0  0  0  0
  -22.1758  -31.0951   28.4744 C   0  0  0  0  0  0  0  0  0  0  0  0
  -27.6665  -30.9516   24.7728 C   0  0  0  0  0  0  0  0  0  0  0  0
  -26.6100  -31.0695   27.0395 C   0  0  0  0  0  0  0  0  0  0  0  0
  -26.1754  -32.8691   25.3677 C   0  0  0  0  0  0  0  0  0  0  0  0
  -20.3624  -29.2655   25.6744 C   0  0  0  0  0  0  0  0  0  0  0  0
  -30.3612  -17.5213   20.3711 C   0  0  0  0  0  0  0  0  0  0  0  0
  -25.8188  -23.2812   23.4025 C   0  0  0  0  0  0  0  0  0  1  0  0
  -25.1237  -30.5934   25.0407 C   0  0  1  0  0  0  0  0  0  0  0  0
  -21.9018  -30.6852   27.0358 C   0  0  2  0  0  0  0  0  0  0  0  0
  -26.3883  -31.3491   25.5377 C   0  0  0  0  0  0  0  0  0  0  0  0
  -25.8520  -11.6265   21.1771 N   0  0  0  0  0  0  0  0  0  0  0  0
  -26.1638  -12.7405   20.4931 N   0  0  0  0  0  0  0  0  0  0  0  0
  -26.7247  -21.6482   21.8448 N   0  0  0  0  0  0  0  0  0  0  0  0
  -24.8670  -29.6603   22.7632 N   0  0  0  0  0  0  0  0  0  0  0  0
  -29.8246  -13.8388   20.4676 N   0  0  0  0  0  0  0  0  0  0  0  0
  -25.2564  -14.7680   19.6703 N   0  0  0  0  0  0  0  0  0  0  0  0
  -21.7410  -12.8091   21.7200 N   0  0  0  0  0  0  0  0  0  0  0  0
  -26.4884  -30.5676   19.7172 N   0  0  0  0  0  0  0  0  0  0  0  0
  -23.8937  -30.9698   25.7290 N   0  0  0  0  0  0  0  0  0  0  0  0
  -29.7966  -16.2023   20.5505 N   0  0  0  0  0  0  0  0  0  0  0  0
  -20.7553  -29.7332   27.0286 N   0  3  0  0  0  0  0  0  0  0  0  0
  -22.4122  -14.6487   20.5267 O   0  0  0  0  0  0  0  0  0  0  0  0
  -27.0618  -29.0690   21.4048 O   0  0  0  0  0  0  0  0  0  0  0  0
  -24.6656  -31.9507   23.1501 O   0  0  0  0  0  0  0  0  0  0  0  0
  -23.3715  -28.8449   26.4968 O   0  0  0  0  0  0  0  0  0  0  0  0
  -31.6603  -15.0927   19.8074 O   0  0  0  0  0  0  0  0  0  0  0  0
  -21.7766   -7.8919   24.3382 O   0  0  0  0  0  0  0  0  0  0  0  0
  -24.7296  -23.4984   22.5065 O   0  0  0  0  0  0  0  0  0  1  0  0
  -22.5361   -2.6234   22.8993 F   0  0  0  0  0  0  0  0  0  0  0  0
  -19.6553   -6.3314   23.4969 F   0  0  0  0  0  0  0  0  0  0  0  0
  1  2  1  0  0  0  0
  1  5  2  0  0  0  0
  2  6  2  0  0  0  0
  3 10  2  0  0  0  0
  3 18  1  0  0  0  0
  4 11  1  0  0  0  0
  4 18  2  0  0  0  0
  5 20  1  0  0  0  0
  6 22  1  0  0  0  0
  7 12  2  0  0  0  0
  7 21  1  0  0  0  0
  8  9  2  0  0  0  0
  8 25  1  0  0  0  0
  9 26  1  0  0  0  0
 10 27  1  0  0  0  0
 11 27  2  0  0  0  0
 12 28  1  0  0  0  0
 13 14  2  0  0  0  0
 13 29  1  0  0  0  0
 14 30  1  0  0  0  0
 15 23  1  0  0  0  0
 15 25  2  0  0  0  0
 16 24  1  0  0  0  0
 16 28  2  0  0  0  0
 17 30  2  0  0  0  0
 17 31  1  0  0  0  0
 18 32  1  0  0  0  0
 19 32  1  0  0  0  0
 19 33  2  0  0  0  0
 19 34  1  0  0  0  0
 20 22  2  0  0  0  0
 20 39  1  0  0  0  0
 21 24  2  0  0  0  0
 21 40  1  0  0  0  0
 22 50  1  0  0  0  0
 23 26  2  0  0  0  0
 23 41  1  0  0  0  0
 24 42  1  0  0  0  0
 25 59  1  0  0  0  0
 26 66  1  0  0  0  0
 27 80  1  0  0  0  0
 28 81  1  0  0  0  0
 29 31  2  0  0  0  0
 29 80  1  0  0  0  0
 30 82  1  0  0  0  0
 31 83  1  0  0  0  0
 32 64  2  0  0  0  0
 33 65  1  0  0  0  0
 33 69  1  0  0  0  0
 34 70  1  0  0  0  0
 34 75  2  0  0  0  0
 35 51  1  0  0  0  0
 35 71  1  0  0  0  0
 35 76  2  0  0  0  0
 36 61  1  0  0  0  0
 36 67  1  0  0  0  0
 36 77  2  0  0  0  0
 37 62  1  0  0  0  0
 37 72  1  0  0  0  0
 37 78  2  0  0  0  0
 38 68  1  0  0  0  0
 38 73  1  0  0  0  0
 38 79  2  0  0  0  0
 39 43  1  0  0  0  0
 40 51  1  0  0  0  0
 41 44  1  0  0  0  0
 42 67  1  0  0  0  0
 43 46  1  0  0  0  0
 44 53  1  0  0  0  0
 45 47  1  0  0  0  0
 45 48  1  0  0  0  0
 46 50  1  0  0  0  0
 47 52  1  0  0  0  0
 48 68  1  0  0  0  0
 49 52  1  0  0  0  0
 49 68  1  0  0  0  0
 50 71  1  0  0  0  0
 51 67  1  0  0  0  0
 52 65  1  0  0  0  0
 53 60  1  0  0  0  0
 53 66  1  0  0  0  0
 54 62  1  0  0  0  0
 55 63  1  0  0  0  0
 56 63  1  0  0  0  0
 57 63  1  0  0  0  0
 58 74  1  0  0  0  0
 59 73  1  0  0  0  0
 60 81  1  0  0  0  0
 61 63  1  0  0  0  0
 61 72  1  0  0  0  0
 62 74  1  0  0  0  0
 64 65  1  0  0  0  0
M  CHG  1  74   1
M  ISO  4  38 100  60 101  73 100  81 101
M  END
> <Batch ID>
0126

> <Smiles>
CNC(C)C(=O)NC(C(=O)N1Cc2cc([101O:1][101CH2:1]C3CCc4cc(C[100NH:0][100C:0](=O)N5CCCC(n6nc(-c7ccc(Oc8ccc(F)cc8F)cc7)c(C(N)=O)c6N)C5)ccc4N3)ccc2CC1C(=O)NC1CCCc2ccccc21)C(C)(C)C

> <Shape>
0.267

> <Color>
0.164

> <Negative vol penalty>
0.000

$$$$

  -OEChem-04052320383D

 84 92  0     1  0  0  0  0  0999 V2000
  -28.5742  -10.0583   17.2188 C   0  0  0  0  0  0  0  0  0  0  0  0
  -27.2580  -10.2018   17.6459 C   0  0  0  0  0  0  0  0  0  0  0  0
  -29.9327  -27.9739   19.7106 C   0  0  0  0  0  0  0  0  0  0  0  0
  -28.8264  -25.8659   20.1224 C   0  0  0  0  0  0  0  0  0  0  0  0
  -29.5450  -10.9668   17.6385 C   0  0  0  0  0  0  0  0  0  0  0  0
  -26.9120  -11.2532   18.4939 C   0  0  0  0  0  0  0  0  0  0  0  0
  -21.4774  -15.6825   19.9646 C   0  0  0  0  0  0  0  0  0  0  0  0
  -31.1666  -27.3237   19.6974 C   0  0  0  0  0  0  0  0  0  0  0  0
  -30.0604  -25.2157   20.1092 C   0  0  0  0  0  0  0  0  0  0  0  0
  -20.7100  -16.1254   21.0410 C   0  0  0  0  0  0  0  0  0  0  0  0
  -32.8871  -22.9471   19.8250 C   0  0  0  0  0  0  0  0  0  0  0  0
  -32.9849  -21.7543   19.1085 C   0  0  0  0  0  0  0  0  0  0  0  0
  -22.4553  -17.6801   21.6378 C   0  0  0  0  0  0  0  0  0  0  0  0
  -32.3691  -22.9201   17.0839 C   0  0  0  0  0  0  0  0  0  0  0  0
  -28.7625  -27.2450   19.9232 C   0  0  0  0  0  0  0  0  0  0  0  0
  -26.6366  -28.1481   18.8403 C   0  0  0  0  0  0  0  0  0  0  0  0
  -29.2088  -12.0355   18.4844 C   0  0  0  0  0  0  0  0  0  0  0  0
  -22.7463  -16.2283   19.7228 C   0  0  0  0  0  0  0  0  0  0  0  0
  -27.8794  -12.1760   18.9264 C   0  0  0  0  0  0  0  0  0  0  0  0
  -23.2358  -17.2442   20.5562 C   0  0  0  0  0  0  0  0  0  0  0  0
  -31.2305  -25.9446   19.8967 C   0  0  0  0  0  0  0  0  0  0  0  0
  -21.2001  -17.1223   21.8795 C   0  0  0  0  0  0  0  0  0  0  0  0
  -32.5303  -24.1263   19.1710 C   0  0  0  0  0  0  0  0  0  0  0  0
  -32.7259  -21.7408   17.7379 C   0  0  0  0  0  0  0  0  0  0  0  0
  -32.2713  -24.1128   17.8004 C   0  0  0  0  0  0  0  0  0  0  0  0
  -27.4876  -27.9161   19.9375 C   0  0  0  0  0  0  0  0  0  0  0  0
  -25.5617  -28.8157   19.3746 C   0  0  0  0  0  0  0  0  0  0  0  0
  -26.8029  -27.7920   17.4615 C   0  0  0  0  0  0  0  0  0  0  0  0
  -25.7078  -15.0758   19.6533 C   0  0  0  0  0  0  0  0  0  0  0  0
  -26.4298  -18.0642   18.6187 C   0  0  0  0  0  0  0  0  0  0  0  0
  -25.5813  -21.3670   18.4828 C   0  0  0  0  0  0  0  0  0  0  0  0
  -21.7093  -29.4320   23.3651 C   0  0  0  0  0  0  0  0  0  0  0  0
  -30.3019  -12.9647   18.9495 C   0  0  0  0  0  0  0  0  0  0  0  0
  -23.5504  -15.7585   18.5417 C   0  0  0  0  0  0  0  0  0  0  0  0
  -24.5832  -17.8771   20.3276 C   0  0  0  0  0  0  0  0  0  0  0  0
  -29.7795  -14.2687   19.5472 C   0  0  0  0  0  0  0  0  0  0  0  0
  -24.9094  -30.8806   23.9459 C   0  0  0  0  0  0  0  0  0  0  0  0
  -28.6463  -13.9895   20.5293 C   0  0  0  0  0  0  0  0  0  0  0  0
  -25.7959  -30.2531   22.8687 C   0  0  0  0  0  0  0  0  0  0  0  0
  -19.2639  -22.2877   23.8068 C   0  0  0  0  0  0  0  0  0  0  0  0
  -18.8764  -21.6265   21.4072 C   0  0  0  0  0  0  0  0  0  0  0  0
  -23.8763  -29.8884   24.4751 C   0  0  0  0  0  0  0  0  0  0  0  0
  -23.9304  -28.6217   22.3618 C   0  0  0  0  0  0  0  0  0  0  0  0
  -18.6513  -20.9703   24.2620 C   0  0  0  0  0  0  0  0  0  0  0  0
  -18.2655  -20.3126   21.8748 C   0  0  0  0  0  0  0  0  0  0  0  0
  -27.4602  -13.3180   19.8266 C   0  0  1  0  0  0  0  0  0  0  0  0
  -25.0452  -16.0229   18.6933 C   0  0  1  0  0  0  0  0  0  0  0  0
  -18.7051  -22.7361   22.4513 C   0  0  0  0  0  0  0  0  0  0  0  0
  -24.9516  -29.6007   21.7576 C   0  0  2  0  0  0  0  0  0  0  0  0
  -26.3869  -23.5731   17.5989 C   0  0  0  0  0  0  0  0  0  0  0  0
  -28.4914  -18.2080   20.8634 C   0  0  0  0  0  0  0  0  0  0  0  0
  -28.5691  -20.6893   20.5389 C   0  0  0  0  0  0  0  0  0  0  0  0
  -29.2537  -19.1685   18.6838 C   0  0  0  0  0  0  0  0  0  0  0  0
  -23.1809  -21.6940   16.7828 C   0  0  0  0  0  0  0  0  0  0  0  0
  -19.3785  -24.0257   21.9873 C   0  0  0  0  0  0  0  0  0  0  0  0
  -19.6219  -28.9094   22.1287 C   0  0  0  0  0  0  0  0  0  0  0  0
  -18.3936  -18.5674   23.6504 C   0  0  0  0  0  0  0  0  0  0  0  0
  -18.8007  -25.2298   22.7085 C   0  0  0  0  0  0  0  0  0  0  0  0
  -18.9331  -27.7231   22.7772 C   0  0  0  0  0  0  0  0  0  0  0  0
  -19.0347  -17.4977   22.7885 C   0  0  0  0  0  0  0  0  0  1  0  0
  -26.8062  -19.3649   19.2863 C   0  0  1  0  0  0  0  0  0  0  0  0
  -25.5301  -22.3470   17.3247 C   0  0  2  0  0  0  0  0  0  0  0  0
  -28.2555  -19.3446   19.8488 C   0  0  0  0  0  0  0  0  0  0  0  0
  -26.9957  -28.3973   21.0823 N   0  0  0  0  0  0  0  0  0  0  0  0
  -25.8241  -28.9384   20.7073 N   0  0  0  0  0  0  0  0  0  0  0  0
  -25.3344  -17.3792   19.1634 N   0  0  0  0  0  0  0  0  0  0  0  0
  -23.1084  -29.3070   23.3715 N   0  0  0  0  0  0  0  0  0  0  0  0
  -24.4272  -29.3038   18.8296 N   0  0  0  0  0  0  0  0  0  0  0  0
  -27.9666  -27.1083   17.0837 N   0  0  0  0  0  0  0  0  0  0  0  0
  -26.6946  -14.2949   19.0824 N   0  0  0  0  0  0  0  0  0  0  0  0
  -26.5616  -20.4143   18.3027 N   0  0  0  0  0  0  0  0  0  0  0  0
  -21.0590  -28.8580   22.2795 N   0  0  0  0  0  0  0  0  0  0  0  0
  -18.8719  -19.9203   23.2003 N   0  3  0  0  0  0  0  0  0  0  0  0
  -24.1290  -22.7963   17.0878 N   0  3  0  0  0  0  0  0  0  0  0  0
  -19.4518  -26.4570   22.1904 N   0  3  0  0  0  0  0  0  0  0  0  0
  -25.9526  -28.0862   16.5874 O   0  0  0  0  0  0  0  0  0  0  0  0
  -25.3513  -15.0561   20.8255 O   0  0  0  0  0  0  0  0  0  0  0  0
  -27.0792  -17.6741   17.6451 O   0  0  0  0  0  0  0  0  0  0  0  0
  -24.8295  -21.4416   19.4523 O   0  0  0  0  0  0  0  0  0  0  0  0
  -21.0863  -30.0168   24.2578 O   0  0  0  0  0  0  0  0  0  0  0  0
  -32.4344  -25.3098   19.8836 O   0  0  0  0  0  0  0  0  0  0  0  0
  -20.4534  -17.5560   22.9313 O   0  0  0  0  0  0  0  0  0  1  0  0
  -32.8214  -20.5957   17.0497 F   0  0  0  0  0  0  0  0  0  0  0  0
  -31.9293  -25.2428   17.1664 F   0  0  0  0  0  0  0  0  0  0  0  0
  1  2  1  0  0  0  0
  1  5  2  0  0  0  0
  2  6  2  0  0  0  0
  3  8  2  0  0  0  0
  3 15  1  0  0  0  0
  4  9  1  0  0  0  0
  4 15  2  0  0  0  0
  5 17  1  0  0  0  0
  6 19  1  0  0  0  0
  7 10  2  0  0  0  0
  7 18  1  0  0  0  0
  8 21  1  0  0  0  0
  9 21  2  0  0  0  0
 10 22  1  0  0  0  0
 11 12  2  0  0  0  0
 11 23  1  0  0  0  0
 12 24  1  0  0  0  0
 13 20  1  0  0  0  0
 13 22  2  0  0  0  0
 14 24  2  0  0  0  0
 14 25  1  0  0  0  0
 15 26  1  0  0  0  0
 16 26  1  0  0  0  0
 16 27  2  0  0  0  0
 16 28  1  0  0  0  0
 17 19  2  0  0  0  0
 17 33  1  0  0  0  0
 18 20  2  0  0  0  0
 18 34  1  0  0  0  0
 19 46  1  0  0  0  0
 20 35  1  0  0  0  0
 21 81  1  0  0  0  0
 22 82  1  0  0  0  0
 23 25  2  0  0  0  0
 23 81  1  0  0  0  0
 24 83  1  0  0  0  0
 25 84  1  0  0  0  0
 26 64  2  0  0  0  0
 27 65  1  0  0  0  0
 27 68  1  0  0  0  0
 28 69  1  0  0  0  0
 28 76  2  0  0  0  0
 29 47  1  0  0  0  0
 29 70  1  0  0  0  0
 29 77  2  0  0  0  0
 30 61  1  0  0  0  0
 30 66  1  0  0  0  0
 30 78  2  0  0  0  0
 31 62  1  0  0  0  0
 31 71  1  0  0  0  0
 31 79  2  0  0  0  0
 32 67  1  0  0  0  0
 32 72  1  0  0  0  0
 32 80  2  0  0  0  0
 33 36  1  0  0  0  0
 34 47  1  0  0  0  0
 35 66  1  0  0  0  0
 36 38  1  0  0  0  0
 37 39  1  0  0  0  0
 37 42  1  0  0  0  0
 38 46  1  0  0  0  0
 39 49  1  0  0  0  0
 40 44  1  0  0  0  0
 40 48  1  0  0  0  0
 41 45  1  0  0  0  0
 41 48  1  0  0  0  0
 42 67  1  0  0  0  0
 43 49  1  0  0  0  0
 43 67  1  0  0  0  0
 44 73  1  0  0  0  0
 45 73  1  0  0  0  0
 46 70  1  0  0  0  0
 47 66  1  0  0  0  0
 48 55  1  0  0  0  0
 49 65  1  0  0  0  0
 50 62  1  0  0  0  0
 51 63  1  0  0  0  0
 52 63  1  0  0  0  0
 53 63  1  0  0  0  0
 54 74  1  0  0  0  0
 55 58  1  0  0  0  0
 56 59  1  0  0  0  0
 56 72  1  0  0  0  0
 57 60  1  0  0  0  0
 57 73  1  0  0  0  0
 58 75  1  0  0  0  0
 59 75  1  0  0  0  0
 60 82  1  0  0  0  0
 61 63  1  0  0  0  0
 61 71  1  0  0  0  0
 62 74  1  0  0  0  0
 64 65  1  0  0  0  0
M  CHG  3  73   1  74   1  75   1
M  ISO  4  32 100  60 101  72 100  82 101
M  END
> <Batch ID>
0126

> <Smiles>
CNC(C)C(=O)NC(C(=O)N1Cc2cc([101O:1][101CH2:1]CN3CCC(CCNCC[100NH:0][100C:0](=O)N4CCCC(n5nc(-c6ccc(Oc7ccc(F)cc7F)cc6)c(C(N)=O)c5N)C4)CC3)ccc2CC1C(=O)NC1CCCc2ccccc21)C(C)(C)C

> <Shape>
0.221

> <Color>
0.058

> <Negative vol penalty>
0.000

$$$$

  -OEChem-04052320383D

 88 97  0     1  0  0  0  0  0999 V2000
  -36.9403   -7.6262   36.7788 C   0  0  0  0  0  0  0  0  0  0  0  0
  -36.2137   -7.1986   35.6722 C   0  0  0  0  0  0  0  0  0  0  0  0
  -22.8088  -10.1374   20.1510 C   0  0  0  0  0  0  0  0  0  0  0  0
  -24.1990   -9.6103   22.0553 C   0  0  0  0  0  0  0  0  0  0  0  0
  -36.2856   -8.2369   37.8476 C   0  0  0  0  0  0  0  0  0  0  0  0
  -34.8317   -7.3807   35.6342 C   0  0  0  0  0  0  0  0  0  0  0  0
  -33.2267   -9.1450   31.1669 C   0  0  0  0  0  0  0  0  0  0  0  0
  -22.0794   -8.9669   20.3595 C   0  0  0  0  0  0  0  0  0  0  0  0
  -23.4696   -8.4398   22.2639 C   0  0  0  0  0  0  0  0  0  0  0  0
  -33.1278   -8.2302   30.1194 C   0  0  0  0  0  0  0  0  0  0  0  0
  -23.3190   -5.3300   20.9459 C   0  0  0  0  0  0  0  0  0  0  0  0
  -24.0320   -4.1602   21.2081 C   0  0  0  0  0  0  0  0  0  0  0  0
  -30.7500   -8.0693   30.4925 C   0  0  0  0  0  0  0  0  0  0  0  0
  -22.9181   -3.9599   23.3427 C   0  0  0  0  0  0  0  0  0  0  0  0
  -23.8687  -10.4591   20.9989 C   0  0  0  0  0  0  0  0  0  0  0  0
  -24.1342  -12.9880   20.7942 C   0  0  0  0  0  0  0  0  0  0  0  0
  -34.8962   -8.4353   37.8185 C   0  0  0  0  0  0  0  0  0  0  0  0
  -32.0878   -9.5211   31.8934 C   0  0  0  0  0  0  0  0  0  0  0  0
  -34.1576   -7.9934   36.7042 C   0  0  0  0  0  0  0  0  0  0  0  0
  -30.8367   -8.9909   31.5471 C   0  0  0  0  0  0  0  0  0  0  0  0
  -22.4098   -8.1181   21.4160 C   0  0  0  0  0  0  0  0  0  0  0  0
  -31.8898   -7.6901   29.7839 C   0  0  0  0  0  0  0  0  0  0  0  0
  -22.4057   -5.8149   21.8821 C   0  0  0  0  0  0  0  0  0  0  0  0
  -23.8315   -3.4751   22.4065 C   0  0  0  0  0  0  0  0  0  0  0  0
  -22.2052   -5.1298   23.0805 C   0  0  0  0  0  0  0  0  0  0  0  0
  -24.6229  -11.6678   20.7836 C   0  0  0  0  0  0  0  0  0  0  0  0
  -25.2381  -13.7647   20.5401 C   0  0  0  0  0  0  0  0  0  0  0  0
  -22.8016  -13.4691   21.0141 C   0  0  0  0  0  0  0  0  0  0  0  0
  -31.1784   -9.2681   34.9286 C   0  0  0  0  0  0  0  0  0  0  0  0
  -28.6745  -11.0679   33.9219 C   0  0  0  0  0  0  0  0  0  0  0  0
  -26.6970  -12.0919   31.3359 C   0  0  0  0  0  0  0  0  0  0  0  0
  -31.1050  -12.9109   21.3779 C   0  0  0  0  0  0  0  0  0  0  0  0
  -34.2264   -9.0575   39.0180 C   0  0  0  0  0  0  0  0  0  0  0  0
  -32.2071  -10.5292   33.0032 C   0  0  0  0  0  0  0  0  0  0  0  0
  -29.5805   -9.3775   32.2827 C   0  0  0  0  0  0  0  0  0  0  0  0
  -32.8096   -9.5512   38.7366 C   0  0  0  0  0  0  0  0  0  0  0  0
  -35.0147   -5.0996   23.7697 C   0  0  0  0  0  0  0  0  0  0  0  0
  -29.4660  -13.6457   18.3037 C   0  0  0  0  0  0  0  0  0  0  0  0
  -32.0173   -8.4936   37.9747 C   0  0  0  0  0  0  0  0  0  0  0  0
  -27.9949  -13.3413   18.5917 C   0  0  0  0  0  0  0  0  0  0  0  0
  -33.9285   -5.8553   22.9750 C   0  0  0  0  0  0  0  0  0  0  0  0
  -34.1366   -5.3009   25.0229 C   0  0  0  0  0  0  0  0  0  0  0  0
  -31.8694   -8.8966   23.3452 C   0  0  0  0  0  0  0  0  0  0  0  0
  -31.2021   -8.6621   25.7774 C   0  0  0  0  0  0  0  0  0  0  0  0
  -30.3952  -12.6661   19.0172 C   0  0  0  0  0  0  0  0  0  0  0  0
  -28.7029  -12.2452   20.7587 C   0  0  0  0  0  0  0  0  0  0  0  0
  -31.4801   -7.4209   23.3330 C   0  0  0  0  0  0  0  0  0  0  0  0
  -32.6605   -8.1955   36.6150 C   0  0  1  0  0  0  0  0  0  0  0  0
  -31.0620  -10.4500   34.0082 C   0  0  1  0  0  0  0  0  0  0  0  0
  -27.7289  -13.2408   20.1057 C   0  0  2  0  0  0  0  0  0  0  0  0
  -33.5334   -6.5301   24.3075 C   0  0  0  0  0  0  0  0  0  0  0  0
  -31.9686   -9.4856   24.7528 C   0  0  2  0  0  0  0  0  0  0  0  0
  -31.7732   -7.2398   25.8733 C   0  0  1  0  0  0  0  0  0  0  0  0
  -24.7079  -13.5354   30.8289 C   0  0  0  0  0  0  0  0  0  0  0  0
  -29.4933   -6.1996   25.8381 C   0  0  0  0  0  0  0  0  0  0  0  0
  -33.3846  -12.1871   25.4170 C   0  0  0  0  0  0  0  0  0  0  0  0
  -26.8326   -8.9386   35.0981 C   0  0  0  0  0  0  0  0  0  0  0  0
  -24.9583   -9.9199   33.7594 C   0  0  0  0  0  0  0  0  0  0  0  0
  -26.0962  -11.2941   35.5028 C   0  0  0  0  0  0  0  0  0  0  0  0
  -28.2702  -13.8245   29.5244 C   0  0  0  0  0  0  0  0  0  0  0  0
  -31.6608  -13.1298   23.7867 C   0  0  0  0  0  0  0  0  0  0  0  0
  -30.5611   -6.7718   28.0383 C   0  0  0  0  0  0  0  0  0  1  0  0
  -27.3100  -10.7745   33.3467 C   0  0  1  0  0  0  0  0  0  0  0  0
  -26.2249  -13.4715   30.9139 C   0  0  2  0  0  0  0  0  0  0  0  0
  -30.8116   -6.3052   26.6017 C   0  0  2  0  0  0  0  0  0  0  0  0
  -32.4155  -11.8969   24.2791 C   0  0  2  0  0  0  0  0  0  0  0  0
  -26.3230  -10.2228   34.4140 C   0  0  0  0  0  0  0  0  0  0  0  0
  -25.9350  -11.6055   20.5418 N   0  0  0  0  0  0  0  0  0  0  0  0
  -26.2802  -12.8964   20.3980 N   0  0  0  0  0  0  0  0  0  0  0  0
  -29.7499  -10.3620   33.3641 N   0  0  0  0  0  0  0  0  0  0  0  0
  -30.0919  -12.6192   20.4496 N   0  0  0  0  0  0  0  0  0  0  0  0
  -25.4093  -15.0990   20.4266 N   0  0  0  0  0  0  0  0  0  0  0  0
  -21.7863  -12.5351   21.2614 N   0  0  0  0  0  0  0  0  0  0  0  0
  -32.3463   -9.2427   35.6668 N   0  0  0  0  0  0  0  0  0  0  0  0
  -26.8657  -12.0054   32.7016 N   0  0  0  0  0  0  0  0  0  0  0  0
  -30.7315  -12.8497   22.7149 N   0  0  0  0  0  0  0  0  0  0  0  0
  -32.0557   -6.6635   24.4940 N   0  3  1  0  0  0  0  0  0  0  0  0
  -31.4389  -10.8748   24.7404 N   0  3  0  0  0  0  0  0  0  0  0  0
  -26.7857  -13.8251   29.5791 N   0  3  0  0  0  0  0  0  0  0  0  0
  -22.5166  -14.6901   20.9758 O   0  0  0  0  0  0  0  0  0  0  0  0
  -30.2749   -8.4412   34.9674 O   0  0  0  0  0  0  0  0  0  0  0  0
  -28.7832  -11.8981   34.8277 O   0  0  0  0  0  0  0  0  0  0  0  0
  -26.8926  -11.1808   30.5345 O   0  0  0  0  0  0  0  0  0  0  0  0
  -32.2556  -13.2092   21.0401 O   0  0  0  0  0  0  0  0  0  0  0  0
  -21.6981   -6.9760   21.6199 O   0  0  0  0  0  0  0  0  0  0  0  0
  -31.7905   -6.7965   28.7624 O   0  0  0  0  0  0  0  0  0  1  0  0
  -24.5151   -2.3509   22.6576 F   0  0  0  0  0  0  0  0  0  0  0  0
  -21.3282   -5.5900   23.9832 F   0  0  0  0  0  0  0  0  0  0  0  0
  1  2  1  0  0  0  0
  1  5  2  0  0  0  0
  2  6  2  0  0  0  0
  3  8  2  0  0  0  0
  3 15  1  0  0  0  0
  4  9  1  0  0  0  0
  4 15  2  0  0  0  0
  5 17  1  0  0  0  0
  6 19  1  0  0  0  0
  7 10  2  0  0  0  0
  7 18  1  0  0  0  0
  8 21  1  0  0  0  0
  9 21  2  0  0  0  0
 10 22  1  0  0  0  0
 11 12  2  0  0  0  0
 11 23  1  0  0  0  0
 12 24  1  0  0  0  0
 13 20  1  0  0  0  0
 13 22  2  0  0  0  0
 14 24  2  0  0  0  0
 14 25  1  0  0  0  0
 15 26  1  0  0  0  0
 16 26  1  0  0  0  0
 16 27  2  0  0  0  0
 16 28  1  0  0  0  0
 17 19  2  0  0  0  0
 17 33  1  0  0  0  0
 18 20  2  0  0  0  0
 18 34  1  0  0  0  0
 19 48  1  0  0  0  0
 20 35  1  0  0  0  0
 21 85  1  0  0  0  0
 22 86  1  0  0  0  0
 23 25  2  0  0  0  0
 23 85  1  0  0  0  0
 24 87  1  0  0  0  0
 25 88  1  0  0  0  0
 26 68  2  0  0  0  0
 27 69  1  0  0  0  0
 27 72  1  0  0  0  0
 28 73  1  0  0  0  0
 28 80  2  0  0  0  0
 29 49  1  0  0  0  0
 29 74  1  0  0  0  0
 29 81  2  0  0  0  0
 30 63  1  0  0  0  0
 30 70  1  0  0  0  0
 30 82  2  0  0  0  0
 31 64  1  0  0  0  0
 31 75  1  0  0  0  0
 31 83  2  0  0  0  0
 32 71  1  0  0  0  0
 32 76  1  0  0  0  0
 32 84  2  0  0  0  0
 33 36  1  0  0  0  0
 34 49  1  0  0  0  0
 35 70  1  0  0  0  0
 36 39  1  0  0  0  0
 37 41  1  0  0  0  0
 37 42  1  0  0  0  0
 38 40  1  0  0  0  0
 38 45  1  0  0  0  0
 39 48  1  0  0  0  0
 40 50  1  0  0  0  0
 41 51  1  0  0  0  0
 42 51  1  0  0  0  0
 43 47  1  0  0  0  0
 43 52  1  0  0  0  0
 44 52  1  0  0  0  0
 44 53  1  0  0  0  0
 45 71  1  0  0  0  0
 46 50  1  0  0  0  0
 46 71  1  0  0  0  0
 47 77  1  0  0  0  0
 48 74  1  0  0  0  0
 49 70  1  0  0  0  0
 50 69  1  0  0  0  0
 51 77  1  0  0  0  0
 52 78  1  0  0  0  0
 53 65  1  0  0  0  0
 53 77  1  0  0  0  0
 54 64  1  0  0  0  0
 55 65  1  0  0  0  0
 56 66  1  0  0  0  0
 57 67  1  0  0  0  0
 58 67  1  0  0  0  0
 59 67  1  0  0  0  0
 60 79  1  0  0  0  0
 61 66  1  0  0  0  0
 61 76  1  0  0  0  0
 62 65  1  0  0  0  0
 62 86  1  0  0  0  0
 63 67  1  0  0  0  0
 63 75  1  0  0  0  0
 64 79  1  0  0  0  0
 66 78  1  0  0  0  0
 68 69  1  0  0  0  0
M  CHG  3  77   1  78   1  79   1
M  ISO  4  32 100  62 101  76 100  86 101
M  END
> <Batch ID>
0126

> <Smiles>
CNC(C)C(=O)NC(C(=O)N1Cc2cc([101O:1][101CH2:1]C(C)C3CC(NC(C)C[100NH:0][100C:0](=O)N4CCCC(n5nc(-c6ccc(Oc7ccc(F)cc7F)cc6)c(C(N)=O)c5N)C4)CCN3C3CCC3)ccc2CC1C(=O)NC1CCCc2ccccc21)C(C)(C)C

> <Shape>
0.138

> <Color>
0.161

> <Negative vol penalty>
0.000

$$$$

  -OEChem-04052320383D

 86 95  0     1  0  0  0  0  0999 V2000
  -21.7836  -34.7379   21.9491 C   0  0  0  0  0  0  0  0  0  0  0  0
  -22.6264  -33.7059   21.5490 C   0  0  0  0  0  0  0  0  0  0  0  0
  -31.3905  -21.9378   20.7440 C   0  0  0  0  0  0  0  0  0  0  0  0
  -23.4125   -9.7091   21.6095 C   0  0  0  0  0  0  0  0  0  0  0  0
  -24.0157  -10.9164   23.6134 C   0  0  0  0  0  0  0  0  0  0  0  0
  -22.2692  -35.7539   22.7713 C   0  0  0  0  0  0  0  0  0  0  0  0
  -23.9556  -33.6898   21.9701 C   0  0  0  0  0  0  0  0  0  0  0  0
  -30.9867  -20.6262   20.9934 C   0  0  0  0  0  0  0  0  0  0  0  0
  -25.4426  -29.1086   23.5341 C   0  0  0  0  0  0  0  0  0  0  0  0
  -30.5025  -22.8421   20.1614 C   0  0  0  0  0  0  0  0  0  0  0  0
  -22.7981   -8.7268   22.3862 C   0  0  0  0  0  0  0  0  0  0  0  0
  -23.4012   -9.9341   24.3901 C   0  0  0  0  0  0  0  0  0  0  0  0
  -25.7502  -28.1690   22.5511 C   0  0  0  0  0  0  0  0  0  0  0  0
  -23.7453   -6.0659   24.2427 C   0  0  0  0  0  0  0  0  0  0  0  0
  -23.9962   -4.7328   23.9178 C   0  0  0  0  0  0  0  0  0  0  0  0
  -28.8070  -21.1231   20.0775 C   0  0  0  0  0  0  0  0  0  0  0  0
  -28.0988  -28.6280   22.8557 C   0  0  0  0  0  0  0  0  0  0  0  0
  -21.6370   -4.3825   23.5328 C   0  0  0  0  0  0  0  0  0  0  0  0
  -24.0214  -10.8039   22.2231 C   0  0  0  0  0  0  0  0  0  0  0  0
  -24.0641  -12.9834   20.8982 C   0  0  0  0  0  0  0  0  0  0  0  0
  -29.6950  -20.2189   20.6602 C   0  0  0  0  0  0  0  0  0  0  0  0
  -23.6025  -35.7451   23.2105 C   0  0  0  0  0  0  0  0  0  0  0  0
  -26.4620  -29.8240   24.1787 C   0  0  0  0  0  0  0  0  0  0  0  0
  -24.4598  -34.7073   22.7979 C   0  0  0  0  0  0  0  0  0  0  0  0
  -27.8016  -29.5743   23.8483 C   0  0  0  0  0  0  0  0  0  0  0  0
  -29.2108  -22.4348   19.8281 C   0  0  0  0  0  0  0  0  0  0  0  0
  -22.7924   -8.8394   23.7765 C   0  0  0  0  0  0  0  0  0  0  0  0
  -27.0783  -27.9307   22.2097 C   0  0  0  0  0  0  0  0  0  0  0  0
  -22.4401   -6.5573   24.2127 C   0  0  0  0  0  0  0  0  0  0  0  0
  -22.9421   -3.8911   23.5629 C   0  0  0  0  0  0  0  0  0  0  0  0
  -21.3860   -5.7156   23.8577 C   0  0  0  0  0  0  0  0  0  0  0  0
  -24.6567  -11.8186   21.4214 C   0  0  0  0  0  0  0  0  0  0  0  0
  -25.0794  -13.6089   20.2168 C   0  0  0  0  0  0  0  0  0  0  0  0
  -22.7163  -13.4577   21.0176 C   0  0  0  0  0  0  0  0  0  0  0  0
  -27.2535  -32.8947   24.3987 C   0  0  0  0  0  0  0  0  0  0  0  0
  -29.4508  -31.7754   26.5061 C   0  0  0  0  0  0  0  0  0  0  0  0
  -31.3423  -29.1544   27.6013 C   0  0  0  0  0  0  0  0  0  0  0  0
  -30.4508  -15.3299   20.2661 C   0  0  0  0  0  0  0  0  0  0  0  0
  -24.0945  -36.8902   24.0598 C   0  0  0  0  0  0  0  0  0  0  0  0
  -26.1150  -30.8149   25.2558 C   0  0  0  0  0  0  0  0  0  0  0  0
  -28.9340  -30.3012   24.5250 C   0  0  0  0  0  0  0  0  0  0  0  0
  -25.4155  -36.5997   24.7677 C   0  0  0  0  0  0  0  0  0  0  0  0
  -29.6995  -11.9900   18.9456 C   0  0  0  0  0  0  0  0  0  0  0  0
  -26.4161  -35.9800   23.7973 C   0  0  0  0  0  0  0  0  0  0  0  0
  -28.2870  -11.7287   19.4709 C   0  0  0  0  0  0  0  0  0  0  0  0
  -28.2011  -18.2255   19.9661 C   0  0  0  0  0  0  0  0  0  0  0  0
  -30.5004  -12.8920   19.8821 C   0  0  0  0  0  0  0  0  0  0  0  0
  -28.3041  -16.7163   20.1613 C   0  0  0  0  0  0  0  0  0  0  0  0
  -28.4257  -13.8935   20.7563 C   0  0  0  0  0  0  0  0  0  0  0  0
  -30.3741  -17.7438   20.8228 C   0  0  0  0  0  0  0  0  0  0  0  0
  -25.9013  -34.6416   23.2540 C   0  0  1  0  0  0  0  0  0  0  0  0
  -27.2064  -31.8563   25.4837 C   0  0  1  0  0  0  0  0  0  0  0  0
  -27.5658  -13.0475   19.8074 C   0  0  2  0  0  0  0  0  0  0  0  0
  -29.2568  -18.7946   20.9328 C   0  0  1  0  0  0  0  0  0  0  0  0
  -33.0714  -28.5547   29.3184 C   0  0  0  0  0  0  0  0  0  0  0  0
  -31.5768  -33.2283   24.8692 C   0  0  0  0  0  0  0  0  0  0  0  0
  -33.3138  -31.8483   26.0297 C   0  0  0  0  0  0  0  0  0  0  0  0
  -31.8706  -33.3990   27.3469 C   0  0  0  0  0  0  0  0  0  0  0  0
  -29.5806  -27.1208   28.8341 C   0  0  0  0  0  0  0  0  0  0  0  0
  -28.2616  -23.4016   19.2045 C   0  0  0  0  0  0  0  0  0  0  0  0
  -26.8078  -25.4023   19.5545 C   0  0  0  0  0  0  0  0  0  0  0  0
  -26.2909  -26.3335   20.6333 C   0  0  0  0  0  0  0  0  0  1  0  0
  -30.8719  -31.2760   26.4048 C   0  0  1  0  0  0  0  0  0  0  0  0
  -31.5864  -28.6007   28.9936 C   0  0  2  0  0  0  0  0  0  0  0  0
  -31.8871  -32.4254   26.1484 C   0  0  0  0  0  0  0  0  0  0  0  0
  -25.9484  -11.7081   21.0998 N   0  0  0  0  0  0  0  0  0  0  0  0
  -26.1757  -12.8116   20.3671 N   0  0  0  0  0  0  0  0  0  0  0  0
  -28.5434  -31.2649   25.5671 N   0  0  0  0  0  0  0  0  0  0  0  0
  -29.7601  -14.1156   20.1895 N   0  0  0  0  0  0  0  0  0  0  0  0
  -29.7038  -16.4833   20.5078 N   0  0  0  0  0  0  0  0  0  0  0  0
  -25.1325  -14.7576   19.5096 N   0  0  0  0  0  0  0  0  0  0  0  0
  -21.8014  -12.6922   21.7532 N   0  0  0  0  0  0  0  0  0  0  0  0
  -26.0736  -33.5961   24.2397 N   0  0  0  0  0  0  0  0  0  0  0  0
  -31.1254  -30.5159   27.6239 N   0  0  0  0  0  0  0  0  0  0  0  0
  -31.0379  -27.2195   29.1052 N   0  3  0  0  0  0  0  0  0  0  0  0
  -27.7118  -24.3948   20.1680 N   0  3  0  0  0  0  0  0  0  0  0  0
  -22.3306  -14.5202   20.4738 O   0  0  0  0  0  0  0  0  0  0  0  0
  -28.2845  -33.0492   23.7546 O   0  0  0  0  0  0  0  0  0  0  0  0
  -29.1552  -32.5830   27.3905 O   0  0  0  0  0  0  0  0  0  0  0  0
  -31.3476  -28.4502   26.5940 O   0  0  0  0  0  0  0  0  0  0  0  0
  -31.6733  -15.3883   20.0792 O   0  0  0  0  0  0  0  0  0  0  0  0
  -28.7305  -18.7861   22.2638 O   0  0  0  0  0  0  0  0  0  0  0  0
  -22.1927   -7.8812   24.5347 O   0  0  0  0  0  0  0  0  0  0  0  0
  -27.3834  -27.0080   21.2432 O   0  0  0  0  0  0  0  0  0  1  0  0
  -23.1834   -2.6114   23.2495 F   0  0  0  0  0  0  0  0  0  0  0  0
  -20.1302   -6.1823   23.8259 F   0  0  0  0  0  0  0  0  0  0  0  0
  1  2  1  0  0  0  0
  1  6  2  0  0  0  0
  2  7  2  0  0  0  0
  3  8  1  0  0  0  0
  3 10  2  0  0  0  0
  4 11  2  0  0  0  0
  4 19  1  0  0  0  0
  5 12  1  0  0  0  0
  5 19  2  0  0  0  0
  6 22  1  0  0  0  0
  7 24  1  0  0  0  0
  8 21  2  0  0  0  0
  9 13  2  0  0  0  0
  9 23  1  0  0  0  0
 10 26  1  0  0  0  0
 11 27  1  0  0  0  0
 12 27  2  0  0  0  0
 13 28  1  0  0  0  0
 14 15  2  0  0  0  0
 14 29  1  0  0  0  0
 15 30  1  0  0  0  0
 16 21  1  0  0  0  0
 16 26  2  0  0  0  0
 17 25  1  0  0  0  0
 17 28  2  0  0  0  0
 18 30  2  0  0  0  0
 18 31  1  0  0  0  0
 19 32  1  0  0  0  0
 20 32  1  0  0  0  0
 20 33  2  0  0  0  0
 20 34  1  0  0  0  0
 21 54  1  0  0  0  0
 22 24  2  0  0  0  0
 22 39  1  0  0  0  0
 23 25  2  0  0  0  0
 23 40  1  0  0  0  0
 24 51  1  0  0  0  0
 25 41  1  0  0  0  0
 26 60  1  0  0  0  0
 27 83  1  0  0  0  0
 28 84  1  0  0  0  0
 29 31  2  0  0  0  0
 29 83  1  0  0  0  0
 30 85  1  0  0  0  0
 31 86  1  0  0  0  0
 32 66  2  0  0  0  0
 33 67  1  0  0  0  0
 33 71  1  0  0  0  0
 34 72  1  0  0  0  0
 34 77  2  0  0  0  0
 35 52  1  0  0  0  0
 35 73  1  0  0  0  0
 35 78  2  0  0  0  0
 36 63  1  0  0  0  0
 36 68  1  0  0  0  0
 36 79  2  0  0  0  0
 37 64  1  0  0  0  0
 37 74  1  0  0  0  0
 37 80  2  0  0  0  0
 38 69  1  0  0  0  0
 38 70  1  0  0  0  0
 38 81  2  0  0  0  0
 39 42  1  0  0  0  0
 40 52  1  0  0  0  0
 41 68  1  0  0  0  0
 42 44  1  0  0  0  0
 43 45  1  0  0  0  0
 43 47  1  0  0  0  0
 44 51  1  0  0  0  0
 45 53  1  0  0  0  0
 46 48  1  0  0  0  0
 46 54  1  0  0  0  0
 47 69  1  0  0  0  0
 48 70  1  0  0  0  0
 49 53  1  0  0  0  0
 49 69  1  0  0  0  0
 50 54  1  0  0  0  0
 50 70  1  0  0  0  0
 51 73  1  0  0  0  0
 52 68  1  0  0  0  0
 53 67  1  0  0  0  0
 54 82  1  0  0  0  0
 55 64  1  0  0  0  0
 56 65  1  0  0  0  0
 57 65  1  0  0  0  0
 58 65  1  0  0  0  0
 59 75  1  0  0  0  0
 60 76  1  0  0  0  0
 61 62  1  0  0  0  0
 61 76  1  0  0  0  0
 62 84  1  0  0  0  0
 63 65  1  0  0  0  0
 63 74  1  0  0  0  0
 64 75  1  0  0  0  0
 66 67  1  0  0  0  0
M  CHG  2  75   1  76   1
M  ISO  4  38 100  62 101  70 100  84 101
M  END
> <Batch ID>
0126

> <Smiles>
CNC(C)C(=O)NC(C(=O)N1Cc2cc([101O:1][101CH2:1]CNCc3cccc(C4(O)CC[100N:0]([100C:0](=O)N5CCCC(n6nc(-c7ccc(Oc8ccc(F)cc8F)cc7)c(C(N)=O)c6N)C5)C4)c3)ccc2CC1C(=O)NC1CCCc2ccccc21)C(C)(C)C

> <Shape>
0.309

> <Color>
0.135

> <Negative vol penalty>
0.000

$$$$

  -OEChem-04052320383D

 88 97  0     1  0  0  0  0  0999 V2000
  -17.1239  -31.1650   24.8431 C   0  0  0  0  0  0  0  0  0  0  0  0
  -18.0314  -31.7246   23.9508 C   0  0  0  0  0  0  0  0  0  0  0  0
  -23.7829  -14.0968   20.1877 C   0  0  0  0  0  0  0  0  0  0  0  0
  -26.0849  -14.3829   20.8628 C   0  0  0  0  0  0  0  0  0  0  0  0
  -17.4033  -29.9357   25.4363 C   0  0  0  0  0  0  0  0  0  0  0  0
  -19.2130  -31.0496   23.6423 C   0  0  0  0  0  0  0  0  0  0  0  0
  -26.2621  -29.7576   20.1980 C   0  0  0  0  0  0  0  0  0  0  0  0
  -23.9841  -12.7204   20.0847 C   0  0  0  0  0  0  0  0  0  0  0  0
  -26.2861  -13.0064   20.7599 C   0  0  0  0  0  0  0  0  0  0  0  0
  -27.4335  -29.0094   20.3075 C   0  0  0  0  0  0  0  0  0  0  0  0
  -24.1717  -10.0673   22.1725 C   0  0  0  0  0  0  0  0  0  0  0  0
  -23.2010   -9.2276   22.7185 C   0  0  0  0  0  0  0  0  0  0  0  0
  -26.1297  -26.9798   20.3099 C   0  0  0  0  0  0  0  0  0  0  0  0
  -22.8225   -8.2498   20.5418 C   0  0  0  0  0  0  0  0  0  0  0  0
  -24.8333  -14.9281   20.5767 C   0  0  0  0  0  0  0  0  0  0  0  0
  -23.7097  -17.0156   21.5187 C   0  0  0  0  0  0  0  0  0  0  0  0
  -18.5948  -29.2518   25.1439 C   0  0  0  0  0  0  0  0  0  0  0  0
  -25.0130  -29.1219   20.1546 C   0  0  0  0  0  0  0  0  0  0  0  0
  -19.5020  -29.7966   24.2124 C   0  0  0  0  0  0  0  0  0  0  0  0
  -24.9442  -27.7220   20.1973 C   0  0  0  0  0  0  0  0  0  0  0  0
  -25.2357  -12.1752   20.3708 C   0  0  0  0  0  0  0  0  0  0  0  0
  -27.3672  -27.6204   20.3664 C   0  0  0  0  0  0  0  0  0  0  0  0
  -24.4678   -9.9983   20.8111 C   0  0  0  0  0  0  0  0  0  0  0  0
  -22.5264   -8.3188   21.9032 C   0  0  0  0  0  0  0  0  0  0  0  0
  -23.7932   -9.0896   19.9958 C   0  0  0  0  0  0  0  0  0  0  0  0
  -24.6262  -16.3500   20.6827 C   0  0  0  0  0  0  0  0  0  0  0  0
  -23.9023  -18.3481   21.2471 C   0  0  0  0  0  0  0  0  0  0  0  0
  -22.7684  -16.4775   22.4568 C   0  0  0  0  0  0  0  0  0  0  0  0
  -22.4179  -29.1477   21.9900 C   0  0  0  0  0  0  0  0  0  0  0  0
  -21.1864  -27.3302   19.6020 C   0  0  0  0  0  0  0  0  0  0  0  0
  -22.3131  -24.6144   17.5109 C   0  0  0  0  0  0  0  0  0  0  0  0
  -28.5697  -21.4449   19.1311 C   0  0  0  0  0  0  0  0  0  0  0  0
  -18.8431  -27.9207   25.8086 C   0  0  0  0  0  0  0  0  0  0  0  0
  -23.7605  -29.9420   20.0095 C   0  0  0  0  0  0  0  0  0  0  0  0
  -23.6292  -26.9904   20.1339 C   0  0  0  0  0  0  0  0  0  0  0  0
  -20.3077  -27.4975   25.7632 C   0  0  0  0  0  0  0  0  0  0  0  0
  -25.2949  -21.2921   17.7422 C   0  0  0  0  0  0  0  0  0  0  0  0
  -20.8440  -27.6323   24.3459 C   0  0  0  0  0  0  0  0  0  0  0  0
  -24.6695  -20.0683   18.4137 C   0  0  0  0  0  0  0  0  0  0  0  0
  -31.2228  -20.6996   21.6063 C   0  0  0  0  0  0  0  0  0  0  0  0
  -33.8288  -22.0478   24.7325 C   0  0  0  0  0  0  0  0  0  0  0  0
  -29.8268  -22.7552   21.8694 C   0  0  0  0  0  0  0  0  0  0  0  0
  -26.7803  -21.0819   17.4570 C   0  0  0  0  0  0  0  0  0  0  0  0
  -32.3639  -21.4388   22.3038 C   0  0  0  0  0  0  0  0  0  0  0  0
  -26.9584  -19.4517   19.2966 C   0  0  0  0  0  0  0  0  0  0  0  0
  -35.1191  -22.7983   24.9919 C   0  0  0  0  0  0  0  0  0  0  0  0
  -34.0116  -23.6638   22.9962 C   0  0  0  0  0  0  0  0  0  0  0  0
  -20.8077  -29.0950   23.8851 C   0  0  1  0  0  0  0  0  0  0  0  0
  -22.5099  -29.2133   20.4917 C   0  0  1  0  0  0  0  0  0  0  0  0
  -25.4739  -19.6373   19.6548 C   0  0  2  0  0  0  0  0  0  0  0  0
  -33.0008  -23.0553   23.9514 C   0  0  1  0  0  0  0  0  0  0  0  0
  -30.2991  -21.6805   20.8911 C   0  0  2  0  0  0  0  0  0  0  0  0
  -31.0127  -23.4486   22.5735 C   0  0  1  0  0  0  0  0  0  0  0  0
  -29.0501  -24.7148   25.6872 C   0  0  0  0  0  0  0  0  0  0  0  0
  -21.5970  -23.9238   15.2070 C   0  0  0  0  0  0  0  0  0  0  0  0
  -19.2882  -25.4464   21.0711 C   0  0  0  0  0  0  0  0  0  0  0  0
  -19.7440  -23.7262   19.3100 C   0  0  0  0  0  0  0  0  0  0  0  0
  -18.6769  -25.8934   18.6876 C   0  0  0  0  0  0  0  0  0  0  0  0
  -25.0848  -24.7515   16.4824 C   0  0  0  0  0  0  0  0  0  0  0  0
  -29.6052  -23.7839   24.6181 C   0  0  0  0  0  0  0  0  0  0  0  0
  -30.4477  -26.3998   21.8029 C   0  0  0  0  0  0  0  0  0  0  0  0
  -29.6273  -25.5771   22.7989 C   0  0  0  0  0  0  0  0  0  0  0  0
  -29.6072  -27.4929   21.1550 C   0  0  0  0  0  0  0  0  0  1  0  0
  -21.1281  -25.8511   19.3056 C   0  0  1  0  0  0  0  0  0  0  0  0
  -22.6298  -24.6805   16.0277 C   0  0  2  0  0  0  0  0  0  0  0  0
  -30.4463  -24.4992   23.5397 C   0  0  2  0  0  0  0  0  0  0  0  0
  -19.7306  -25.2406   19.6086 C   0  0  0  0  0  0  0  0  0  0  0  0
  -25.3473  -17.1904   19.9359 N   0  0  0  0  0  0  0  0  0  0  0  0
  -24.8840  -18.3977   20.3016 N   0  0  0  0  0  0  0  0  0  0  0  0
  -22.4322  -27.8368   19.9984 N   0  0  0  0  0  0  0  0  0  0  0  0
  -27.4860  -20.6764   18.6749 N   0  0  0  0  0  0  0  0  0  0  0  0
  -31.8637  -22.4466   23.2550 N   0  0  1  0  0  0  0  0  0  0  0  0
  -23.3260  -19.4705   21.7272 N   0  0  0  0  0  0  0  0  0  0  0  0
  -23.1818  -16.2846   23.7820 N   0  0  0  0  0  0  0  0  0  0  0  0
  -21.1240  -29.1537   22.4750 N   0  0  0  0  0  0  0  0  0  0  0  0
  -21.5610  -25.6948   17.9212 N   0  0  0  0  0  0  0  0  0  0  0  0
  -29.1785  -20.9943   20.2961 N   0  0  0  0  0  0  0  0  0  0  0  0
  -35.3000  -23.6507   23.7690 N   0  3  0  0  0  0  0  0  0  0  0  0
  -23.9705  -24.0884   15.7575 N   0  3  0  0  0  0  0  0  0  0  0  0
  -21.6005  -16.1613   22.1258 O   0  0  0  0  0  0  0  0  0  0  0  0
  -23.4448  -29.0939   22.6566 O   0  0  0  0  0  0  0  0  0  0  0  0
  -20.1660  -28.0122   19.4793 O   0  0  0  0  0  0  0  0  0  0  0  0
  -22.6916  -23.6943   18.2325 O   0  0  0  0  0  0  0  0  0  0  0  0
  -28.9619  -22.4606   18.5468 O   0  0  0  0  0  0  0  0  0  0  0  0
  -25.4324  -10.8321   20.2707 O   0  0  0  0  0  0  0  0  0  0  0  0
  -28.5089  -26.8878   20.4739 O   0  0  0  0  0  0  0  0  0  1  0  0
  -21.5953   -7.5114   22.4280 F   0  0  0  0  0  0  0  0  0  0  0  0
  -24.0742   -9.0179   18.6875 F   0  0  0  0  0  0  0  0  0  0  0  0
  1  2  1  0  0  0  0
  1  5  2  0  0  0  0
  2  6  2  0  0  0  0
  3  8  2  0  0  0  0
  3 15  1  0  0  0  0
  4  9  1  0  0  0  0
  4 15  2  0  0  0  0
  5 17  1  0  0  0  0
  6 19  1  0  0  0  0
  7 10  2  0  0  0  0
  7 18  1  0  0  0  0
  8 21  1  0  0  0  0
  9 21  2  0  0  0  0
 10 22  1  0  0  0  0
 11 12  2  0  0  0  0
 11 23  1  0  0  0  0
 12 24  1  0  0  0  0
 13 20  1  0  0  0  0
 13 22  2  0  0  0  0
 14 24  2  0  0  0  0
 14 25  1  0  0  0  0
 15 26  1  0  0  0  0
 16 26  1  0  0  0  0
 16 27  2  0  0  0  0
 16 28  1  0  0  0  0
 17 19  2  0  0  0  0
 17 33  1  0  0  0  0
 18 20  2  0  0  0  0
 18 34  1  0  0  0  0
 19 48  1  0  0  0  0
 20 35  1  0  0  0  0
 21 85  1  0  0  0  0
 22 86  1  0  0  0  0
 23 25  2  0  0  0  0
 23 85  1  0  0  0  0
 24 87  1  0  0  0  0
 25 88  1  0  0  0  0
 26 68  2  0  0  0  0
 27 69  1  0  0  0  0
 27 73  1  0  0  0  0
 28 74  1  0  0  0  0
 28 80  2  0  0  0  0
 29 49  1  0  0  0  0
 29 75  1  0  0  0  0
 29 81  2  0  0  0  0
 30 64  1  0  0  0  0
 30 70  1  0  0  0  0
 30 82  2  0  0  0  0
 31 65  1  0  0  0  0
 31 76  1  0  0  0  0
 31 83  2  0  0  0  0
 32 71  1  0  0  0  0
 32 77  1  0  0  0  0
 32 84  2  0  0  0  0
 33 36  1  0  0  0  0
 34 49  1  0  0  0  0
 35 70  1  0  0  0  0
 36 38  1  0  0  0  0
 37 39  1  0  0  0  0
 37 43  1  0  0  0  0
 38 48  1  0  0  0  0
 39 50  1  0  0  0  0
 40 44  1  0  0  0  0
 40 52  1  0  0  0  0
 41 46  1  0  0  0  0
 41 51  1  0  0  0  0
 42 52  1  0  0  0  0
 42 53  1  0  0  0  0
 43 71  1  0  0  0  0
 44 72  1  0  0  0  0
 45 50  1  0  0  0  0
 45 71  1  0  0  0  0
 46 78  1  0  0  0  0
 47 51  1  0  0  0  0
 47 78  1  0  0  0  0
 48 75  1  0  0  0  0
 49 70  1  0  0  0  0
 50 69  1  0  0  0  0
 51 72  1  0  0  0  0
 52 77  1  0  0  0  0
 53 66  1  0  0  0  0
 53 72  1  0  0  0  0
 54 60  1  0  0  0  0
 55 65  1  0  0  0  0
 56 67  1  0  0  0  0
 57 67  1  0  0  0  0
 58 67  1  0  0  0  0
 59 79  1  0  0  0  0
 60 66  1  0  0  0  0
 61 62  1  0  0  0  0
 61 63  1  0  0  0  0
 62 66  1  0  0  0  0
 63 86  1  0  0  0  0
 64 67  1  0  0  0  0
 64 76  1  0  0  0  0
 65 79  1  0  0  0  0
 68 69  1  0  0  0  0
M  CHG  2  78   1  79   1
M  ISO  4  32 100  63 101  77 100  86 101
M  END
> <Batch ID>
0126

> <Smiles>
CCC(CC[101CH2:1][101O:1]c1ccc2c(c1)CN(C(=O)C(NC(=O)C(C)NC)C(C)(C)C)C(C(=O)NC1CCCc3ccccc31)C2)C1CC([100NH:0][100C:0](=O)N2CCCC(n3nc(-c4ccc(Oc5ccc(F)cc5F)cc4)c(C(N)=O)c3N)C2)CCN1C1CCNC1

> <Shape>
0.217

> <Color>
0.104

> <Negative vol penalty>
0.000

$$$$

  -OEChem-04052320383D

 81 89  0     1  0  0  0  0  0999 V2000
  -22.0531  -30.0329   26.5755 C   0  0  0  0  0  0  0  0  0  0  0  0
  -22.9824  -29.2185   27.2147 C   0  0  0  0  0  0  0  0  0  0  0  0
  -23.2013   -9.8130   19.9513 C   0  0  0  0  0  0  0  0  0  0  0  0
  -23.5779  -10.0320   22.3277 C   0  0  0  0  0  0  0  0  0  0  0  0
  -21.7193  -29.7949   25.2429 C   0  0  0  0  0  0  0  0  0  0  0  0
  -23.5777  -28.1649   26.5219 C   0  0  0  0  0  0  0  0  0  0  0  0
  -29.7367  -24.5306   26.1042 C   0  0  0  0  0  0  0  0  0  0  0  0
  -32.6420  -15.3356   23.9150 C   0  0  0  0  0  0  0  0  0  0  0  0
  -22.4387   -8.6673   20.1777 C   0  0  0  0  0  0  0  0  0  0  0  0
  -22.8153   -8.8862   22.5542 C   0  0  0  0  0  0  0  0  0  0  0  0
  -30.2200  -23.2232   26.1346 C   0  0  0  0  0  0  0  0  0  0  0  0
  -23.2275   -5.5372   22.3428 C   0  0  0  0  0  0  0  0  0  0  0  0
  -23.7287   -4.5914   23.2372 C   0  0  0  0  0  0  0  0  0  0  0  0
  -32.6445  -16.6873   24.2410 C   0  0  0  0  0  0  0  0  0  0  0  0
  -29.6252  -22.9557   23.8121 C   0  0  0  0  0  0  0  0  0  0  0  0
  -21.7706   -4.8668   24.6255 C   0  0  0  0  0  0  0  0  0  0  0  0
  -30.5304  -15.1334   24.9907 C   0  0  0  0  0  0  0  0  0  0  0  0
  -23.7710  -10.4954   21.0263 C   0  0  0  0  0  0  0  0  0  0  0  0
  -24.1015  -13.0090   20.7432 C   0  0  0  0  0  0  0  0  0  0  0  0
  -22.3179  -28.7439   24.5305 C   0  0  0  0  0  0  0  0  0  0  0  0
  -29.1831  -25.0576   24.9285 C   0  0  0  0  0  0  0  0  0  0  0  0
  -23.2505  -27.9118   25.1789 C   0  0  0  0  0  0  0  0  0  0  0  0
  -29.1379  -24.2709   23.7687 C   0  0  0  0  0  0  0  0  0  0  0  0
  -31.5685  -14.5369   24.2933 C   0  0  0  0  0  0  0  0  0  0  0  0
  -22.2457   -8.2039   21.4791 C   0  0  0  0  0  0  0  0  0  0  0  0
  -30.1617  -22.4346   24.9893 C   0  0  0  0  0  0  0  0  0  0  0  0
  -21.9979   -6.1478   22.5898 C   0  0  0  0  0  0  0  0  0  0  0  0
  -23.0002   -4.2562   24.3785 C   0  0  0  0  0  0  0  0  0  0  0  0
  -21.2695   -5.8126   23.7311 C   0  0  0  0  0  0  0  0  0  0  0  0
  -24.5593  -11.6787   20.7930 C   0  0  0  0  0  0  0  0  0  0  0  0
  -31.5582  -17.1876   24.9406 C   0  0  0  0  0  0  0  0  0  0  0  0
  -25.2303  -13.7516   20.4967 C   0  0  0  0  0  0  0  0  0  0  0  0
  -22.7745  -13.5272   20.9053 C   0  0  0  0  0  0  0  0  0  0  0  0
  -26.3226  -26.1668   24.0971 C   0  0  0  0  0  0  0  0  0  0  0  0
  -27.8517  -26.9311   21.3403 C   0  0  0  0  0  0  0  0  0  0  0  0
  -30.4471  -26.3358   19.2058 C   0  0  0  0  0  0  0  0  0  0  0  0
  -31.0479  -12.7972   21.5437 C   0  0  0  0  0  0  0  0  0  0  0  0
  -21.8900  -28.4964   23.1056 C   0  0  0  0  0  0  0  0  0  0  0  0
  -28.6905  -26.4786   24.9047 C   0  0  0  0  0  0  0  0  0  0  0  0
  -28.5717  -24.7962   22.4756 C   0  0  0  0  0  0  0  0  0  0  0  0
  -22.8445  -27.5908   22.3316 C   0  0  0  0  0  0  0  0  0  0  0  0
  -29.5195  -13.4602   18.3970 C   0  0  0  0  0  0  0  0  0  0  0  0
  -23.2126  -26.3670   23.1645 C   0  0  0  0  0  0  0  0  0  0  0  0
  -28.0336  -13.1988   18.6498 C   0  0  0  0  0  0  0  0  0  0  0  0
  -30.4037  -12.4858   19.1720 C   0  0  0  0  0  0  0  0  0  0  0  0
  -28.6506  -12.1639   20.8740 C   0  0  0  0  0  0  0  0  0  0  0  0
  -23.9363  -26.7743   24.4536 C   0  0  1  0  0  0  0  0  0  0  0  0
  -27.6776  -26.7413   23.7945 C   0  0  1  0  0  0  0  0  0  0  0  0
  -27.7201  -13.1575   20.1575 C   0  0  2  0  0  0  0  0  0  0  0  0
  -31.4108  -27.0944   17.0165 C   0  0  0  0  0  0  0  0  0  0  0  0
  -25.6694  -25.4029   19.8529 C   0  0  0  0  0  0  0  0  0  0  0  0
  -27.1565  -25.3780   17.8390 C   0  0  0  0  0  0  0  0  0  0  0  0
  -26.3607  -27.5500   18.7727 C   0  0  0  0  0  0  0  0  0  0  0  0
  -32.9801  -27.1818   20.4814 C   0  0  0  0  0  0  0  0  0  0  0  0
  -31.5361  -13.0879   23.9595 C   0  0  0  0  0  0  0  0  0  0  0  0
  -30.5552  -20.4637   26.2608 C   0  0  0  0  0  0  0  0  0  1  0  0
  -30.4001  -18.9795   25.9911 C   0  0  0  0  0  0  0  0  0  0  0  0
  -28.1099  -26.2267   20.0303 C   0  0  1  0  0  0  0  0  0  0  0  0
  -31.4282  -27.2741   18.5265 C   0  0  2  0  0  0  0  0  0  0  0  0
  -26.8331  -26.1285   19.1485 C   0  0  0  0  0  0  0  0  0  0  0  0
  -30.4975  -16.4429   25.3253 N   0  0  0  0  0  0  0  0  0  0  0  0
  -25.8763  -11.5788   20.5940 N   0  0  0  0  0  0  0  0  0  0  0  0
  -26.2556  -12.8558   20.4167 N   0  0  0  0  0  0  0  0  0  0  0  0
  -28.0970  -26.1895   22.5046 N   0  0  0  0  0  0  0  0  0  0  0  0
  -30.0566  -12.4958   20.5952 N   0  0  0  0  0  0  0  0  0  0  0  0
  -25.4359  -15.0769   20.3427 N   0  0  0  0  0  0  0  0  0  0  0  0
  -21.7307  -12.6252   21.1531 N   0  0  0  0  0  0  0  0  0  0  0  0
  -25.3159  -27.1103   24.1742 N   0  0  0  0  0  0  0  0  0  0  0  0
  -29.2193  -26.9329   19.3988 N   0  0  0  0  0  0  0  0  0  0  0  0
  -30.6331  -12.7913   22.8698 N   0  0  0  0  0  0  0  0  0  0  0  0
  -32.8128  -27.0177   19.0144 N   0  3  0  0  0  0  0  0  0  0  0  0
  -22.5192  -14.7521   20.8163 O   0  0  0  0  0  0  0  0  0  0  0  0
  -26.1993  -24.9570   24.2480 O   0  0  0  0  0  0  0  0  0  0  0  0
  -27.4540  -28.0988   21.3309 O   0  0  0  0  0  0  0  0  0  0  0  0
  -30.7395  -25.1866   19.5292 O   0  0  0  0  0  0  0  0  0  0  0  0
  -32.2147  -13.0578   21.2314 O   0  0  0  0  0  0  0  0  0  0  0  0
  -21.5014   -7.0860   21.7005 O   0  0  0  0  0  0  0  0  0  0  0  0
  -30.6322  -21.1579   25.0165 O   0  0  0  0  0  0  0  0  0  1  0  0
  -31.5375  -18.5165   25.2733 O   0  0  0  0  0  0  0  0  0  0  0  0
  -23.4809   -3.3468   25.2366 F   0  0  0  0  0  0  0  0  0  0  0  0
  -20.0871   -6.3950   23.9731 F   0  0  0  0  0  0  0  0  0  0  0  0
  1  2  1  0  0  0  0
  1  5  2  0  0  0  0
  2  6  2  0  0  0  0
  3  9  2  0  0  0  0
  3 18  1  0  0  0  0
  4 10  1  0  0  0  0
  4 18  2  0  0  0  0
  5 20  1  0  0  0  0
  6 22  1  0  0  0  0
  7 11  2  0  0  0  0
  7 21  1  0  0  0  0
  8 14  2  0  0  0  0
  8 24  1  0  0  0  0
  9 25  1  0  0  0  0
 10 25  2  0  0  0  0
 11 26  1  0  0  0  0
 12 13  2  0  0  0  0
 12 27  1  0  0  0  0
 13 28  1  0  0  0  0
 14 31  1  0  0  0  0
 15 23  1  0  0  0  0
 15 26  2  0  0  0  0
 16 28  2  0  0  0  0
 16 29  1  0  0  0  0
 17 24  2  0  0  0  0
 17 61  1  0  0  0  0
 18 30  1  0  0  0  0
 19 30  1  0  0  0  0
 19 32  2  0  0  0  0
 19 33  1  0  0  0  0
 20 22  2  0  0  0  0
 20 38  1  0  0  0  0
 21 23  2  0  0  0  0
 21 39  1  0  0  0  0
 22 47  1  0  0  0  0
 23 40  1  0  0  0  0
 24 55  1  0  0  0  0
 25 77  1  0  0  0  0
 26 78  1  0  0  0  0
 27 29  2  0  0  0  0
 27 77  1  0  0  0  0
 28 80  1  0  0  0  0
 29 81  1  0  0  0  0
 30 62  2  0  0  0  0
 31 61  2  0  0  0  0
 31 79  1  0  0  0  0
 32 63  1  0  0  0  0
 32 66  1  0  0  0  0
 33 67  1  0  0  0  0
 33 72  2  0  0  0  0
 34 48  1  0  0  0  0
 34 68  1  0  0  0  0
 34 73  2  0  0  0  0
 35 58  1  0  0  0  0
 35 64  1  0  0  0  0
 35 74  2  0  0  0  0
 36 59  1  0  0  0  0
 36 69  1  0  0  0  0
 36 75  2  0  0  0  0
 37 65  1  0  0  0  0
 37 70  1  0  0  0  0
 37 76  2  0  0  0  0
 38 41  1  0  0  0  0
 39 48  1  0  0  0  0
 40 64  1  0  0  0  0
 41 43  1  0  0  0  0
 42 44  1  0  0  0  0
 42 45  1  0  0  0  0
 43 47  1  0  0  0  0
 44 49  1  0  0  0  0
 45 65  1  0  0  0  0
 46 49  1  0  0  0  0
 46 65  1  0  0  0  0
 47 68  1  0  0  0  0
 48 64  1  0  0  0  0
 49 63  1  0  0  0  0
 50 59  1  0  0  0  0
 51 60  1  0  0  0  0
 52 60  1  0  0  0  0
 53 60  1  0  0  0  0
 54 71  1  0  0  0  0
 55 70  1  0  0  0  0
 56 57  1  0  0  0  0
 56 78  1  0  0  0  0
 57 79  1  0  0  0  0
 58 60  1  0  0  0  0
 58 69  1  0  0  0  0
 59 71  1  0  0  0  0
 62 63  1  0  0  0  0
M  CHG  1  71   1
M  ISO  4  37 100  56 101  70 100  78 101
M  END
> <Batch ID>
0126

> <Smiles>
CNC(C)C(=O)NC(C(=O)N1Cc2cc([101O:1][101CH2:1]COc3ccc(C[100NH:0][100C:0](=O)N4CCCC(n5nc(-c6ccc(Oc7ccc(F)cc7F)cc6)c(C(N)=O)c5N)C4)cn3)ccc2CC1C(=O)NC1CCCc2ccccc21)C(C)(C)C

> <Shape>
0.216

> <Color>
0.207

> <Negative vol penalty>
0.000

$$$$

  -OEChem-04052320383D

 88 97  0     1  0  0  0  0  0999 V2000
  -32.7008  -29.7288   18.9265 C   0  0  0  0  0  0  0  0  0  0  0  0
  -31.8749  -28.6260   19.1194 C   0  0  0  0  0  0  0  0  0  0  0  0
  -29.0892  -19.8845   20.9792 C   0  0  0  0  0  0  0  0  0  0  0  0
  -30.3507  -19.1481   19.0547 C   0  0  0  0  0  0  0  0  0  0  0  0
  -32.4871  -30.8951   19.6600 C   0  0  0  0  0  0  0  0  0  0  0  0
  -30.8354  -28.6886   20.0467 C   0  0  0  0  0  0  0  0  0  0  0  0
  -26.5123  -26.7560   18.2520 C   0  0  0  0  0  0  0  0  0  0  0  0
  -22.1211  -17.6013   17.2940 C   0  0  0  0  0  0  0  0  0  0  0  0
  -21.0157  -17.7482   19.4373 C   0  0  0  0  0  0  0  0  0  0  0  0
  -22.2965  -16.2299   17.4785 C   0  0  0  0  0  0  0  0  0  0  0  0
  -21.1910  -16.3768   19.6217 C   0  0  0  0  0  0  0  0  0  0  0  0
  -28.9529  -21.1488   20.4061 C   0  0  0  0  0  0  0  0  0  0  0  0
  -30.2143  -20.4125   18.4816 C   0  0  0  0  0  0  0  0  0  0  0  0
  -26.3975  -25.3667   18.2279 C   0  0  0  0  0  0  0  0  0  0  0  0
  -27.8389  -22.1491   16.8197 C   0  0  0  0  0  0  0  0  0  0  0  0
  -27.4906  -22.2133   15.4705 C   0  0  0  0  0  0  0  0  0  0  0  0
  -25.0898  -25.4456   20.2535 C   0  0  0  0  0  0  0  0  0  0  0  0
  -29.5400  -23.4024   14.9981 C   0  0  0  0  0  0  0  0  0  0  0  0
  -29.7882  -18.8841   20.3035 C   0  0  0  0  0  0  0  0  0  0  0  0
  -30.5440  -17.2627   22.1221 C   0  0  0  0  0  0  0  0  0  0  0  0
  -31.4384  -30.9753   20.5898 C   0  0  0  0  0  0  0  0  0  0  0  0
  -25.9249  -27.5009   19.2848 C   0  0  0  0  0  0  0  0  0  0  0  0
  -30.6083  -29.8566   20.7942 C   0  0  0  0  0  0  0  0  0  0  0  0
  -25.1964  -26.8444   20.2870 C   0  0  0  0  0  0  0  0  0  0  0  0
  -21.4807  -18.3605   18.2734 C   0  0  0  0  0  0  0  0  0  0  0  0
  -21.8314  -15.6176   18.6423 C   0  0  0  0  0  0  0  0  0  0  0  0
  -29.5154  -21.4129   19.1573 C   0  0  0  0  0  0  0  0  0  0  0  0
  -25.6886  -24.7111   19.2302 C   0  0  0  0  0  0  0  0  0  0  0  0
  -29.0377  -22.7116   17.2581 C   0  0  0  0  0  0  0  0  0  0  0  0
  -28.3412  -22.8399   14.5597 C   0  0  0  0  0  0  0  0  0  0  0  0
  -29.8883  -23.3382   16.3473 C   0  0  0  0  0  0  0  0  0  0  0  0
  -29.9298  -17.5781   20.8953 C   0  0  0  0  0  0  0  0  0  0  0  0
  -30.4181  -15.8991   22.2286 C   0  0  0  0  0  0  0  0  0  0  0  0
  -31.1720  -18.1252   23.0799 C   0  0  0  0  0  0  0  0  0  0  0  0
  -27.0197  -29.4280   21.5632 C   0  0  0  0  0  0  0  0  0  0  0  0
  -23.8626  -29.9269   22.1165 C   0  0  0  0  0  0  0  0  0  0  0  0
  -20.6590  -28.7797   21.8568 C   0  0  0  0  0  0  0  0  0  0  0  0
  -26.5410  -11.9689   19.9108 C   0  0  0  0  0  0  0  0  0  0  0  0
  -31.2758  -32.2412   21.3933 C   0  0  0  0  0  0  0  0  0  0  0  0
  -26.0353  -29.0009   19.2819 C   0  0  0  0  0  0  0  0  0  0  0  0
  -24.5299  -27.5997   21.4068 C   0  0  0  0  0  0  0  0  0  0  0  0
  -29.9201  -32.3531   22.0859 C   0  0  0  0  0  0  0  0  0  0  0  0
  -30.0830  -11.9492   19.5497 C   0  0  0  0  0  0  0  0  0  0  0  0
  -29.5667  -31.0430   22.7826 C   0  0  0  0  0  0  0  0  0  0  0  0
  -30.5008  -13.3611   19.9643 C   0  0  0  0  0  0  0  0  0  0  0  0
  -23.8497  -22.6486   17.6782 C   0  0  0  0  0  0  0  0  0  0  0  0
  -24.2392  -21.4784   19.8719 C   0  0  0  0  0  0  0  0  0  0  0  0
  -28.7539  -11.9519   18.7977 C   0  0  0  0  0  0  0  0  0  0  0  0
  -28.0637  -14.0371   19.9153 C   0  0  0  0  0  0  0  0  0  0  0  0
  -22.5069  -21.9475   17.5458 C   0  0  0  0  0  0  0  0  0  0  0  0
  -22.8954  -20.7802   19.7353 C   0  0  0  0  0  0  0  0  0  0  0  0
  -29.4547  -29.8941   21.7731 C   0  0  1  0  0  0  0  0  0  0  0  0
  -25.8322  -29.6177   20.6624 C   0  0  1  0  0  0  0  0  0  0  0  0
  -29.3705  -14.0795   20.7257 C   0  0  2  0  0  0  0  0  0  0  0  0
  -24.2607  -22.8158   19.1385 C   0  0  0  0  0  0  0  0  0  1  0  0
  -18.2946  -29.3916   22.4335 C   0  0  0  0  0  0  0  0  0  0  0  0
  -24.3844  -29.1869   25.0303 C   0  0  0  0  0  0  0  0  0  0  0  0
  -21.9159  -28.8890   25.3240 C   0  0  0  0  0  0  0  0  0  0  0  0
  -22.8361  -31.1241   24.7072 C   0  0  0  0  0  0  0  0  0  0  0  0
  -19.8433  -28.7835   19.0118 C   0  0  0  0  0  0  0  0  0  0  0  0
  -21.2916  -19.8357   18.0758 C   0  0  0  0  0  0  0  0  0  0  0  0
  -22.0179  -14.1509   18.8380 C   0  0  0  0  0  0  0  0  0  0  0  0
  -24.3588  -12.1358   21.0811 C   0  0  0  0  0  0  0  0  0  0  0  0
  -23.2553  -12.3610   20.0644 C   0  0  0  0  0  0  0  0  0  0  0  0
  -22.8130  -29.2746   22.9836 C   0  0  1  0  0  0  0  0  0  0  0  0
  -19.3850  -29.4499   21.3750 C   0  0  2  0  0  0  0  0  0  0  0  0
  -23.0014  -29.6040   24.4914 C   0  0  0  0  0  0  0  0  0  0  0  0
  -29.4496  -16.5015   20.2673 N   0  0  0  0  0  0  0  0  0  0  0  0
  -29.7621  -15.4963   21.1027 N   0  0  0  0  0  0  0  0  0  0  0  0
  -24.6717  -29.0644   21.3634 N   0  0  0  0  0  0  0  0  0  0  0  0
  -27.7244  -12.6467   19.5743 N   0  0  0  0  0  0  0  0  0  0  0  0
  -30.8058  -15.0174   23.1745 N   0  0  0  0  0  0  0  0  0  0  0  0
  -31.2140  -19.5006   22.8139 N   0  0  0  0  0  0  0  0  0  0  0  0
  -28.1933  -29.9628   21.0671 N   0  0  0  0  0  0  0  0  0  0  0  0
  -21.5225  -29.6831   22.4394 N   0  0  0  0  0  0  0  0  0  0  0  0
  -25.6205  -12.6981   20.6536 N   0  0  0  0  0  0  0  0  0  0  0  0
  -22.5578  -20.6235   18.2712 N   0  3  0  0  0  0  0  0  0  0  0  0
  -18.8807  -28.7793   20.1434 N   0  3  0  0  0  0  0  0  0  0  0  0
  -23.0926  -13.8166   19.8130 N   0  3  0  0  0  0  0  0  0  0  0  0
  -31.6954  -17.6872   24.1324 O   0  0  0  0  0  0  0  0  0  0  0  0
  -26.8811  -28.8414   22.6301 O   0  0  0  0  0  0  0  0  0  0  0  0
  -23.9562  -31.1568   22.1024 O   0  0  0  0  0  0  0  0  0  0  0  0
  -20.8657  -27.5746   21.7323 O   0  0  0  0  0  0  0  0  0  0  0  0
  -26.3233  -10.7987   19.5788 O   0  0  0  0  0  0  0  0  0  0  0  0
  -29.3824  -22.6464   18.5977 O   0  0  0  0  0  0  0  0  0  0  0  0
  -25.5756  -23.3551   19.2094 O   0  0  0  0  0  0  0  0  0  1  0  0
  -28.0074  -22.9001   13.2639 F   0  0  0  0  0  0  0  0  0  0  0  0
  -31.0418  -23.8794   16.7623 F   0  0  0  0  0  0  0  0  0  0  0  0
  1  2  1  0  0  0  0
  1  5  2  0  0  0  0
  2  6  2  0  0  0  0
  3 12  2  0  0  0  0
  3 19  1  0  0  0  0
  4 13  1  0  0  0  0
  4 19  2  0  0  0  0
  5 21  1  0  0  0  0
  6 23  1  0  0  0  0
  7 14  2  0  0  0  0
  7 22  1  0  0  0  0
  8 10  2  0  0  0  0
  8 25  1  0  0  0  0
  9 11  1  0  0  0  0
  9 25  2  0  0  0  0
 10 26  1  0  0  0  0
 11 26  2  0  0  0  0
 12 27  1  0  0  0  0
 13 27  2  0  0  0  0
 14 28  1  0  0  0  0
 15 16  2  0  0  0  0
 15 29  1  0  0  0  0
 16 30  1  0  0  0  0
 17 24  1  0  0  0  0
 17 28  2  0  0  0  0
 18 30  2  0  0  0  0
 18 31  1  0  0  0  0
 19 32  1  0  0  0  0
 20 32  1  0  0  0  0
 20 33  2  0  0  0  0
 20 34  1  0  0  0  0
 21 23  2  0  0  0  0
 21 39  1  0  0  0  0
 22 24  2  0  0  0  0
 22 40  1  0  0  0  0
 23 52  1  0  0  0  0
 24 41  1  0  0  0  0
 25 61  1  0  0  0  0
 26 62  1  0  0  0  0
 27 85  1  0  0  0  0
 28 86  1  0  0  0  0
 29 31  2  0  0  0  0
 29 85  1  0  0  0  0
 30 87  1  0  0  0  0
 31 88  1  0  0  0  0
 32 68  2  0  0  0  0
 33 69  1  0  0  0  0
 33 72  1  0  0  0  0
 34 73  1  0  0  0  0
 34 80  2  0  0  0  0
 35 53  1  0  0  0  0
 35 74  1  0  0  0  0
 35 81  2  0  0  0  0
 36 65  1  0  0  0  0
 36 70  1  0  0  0  0
 36 82  2  0  0  0  0
 37 66  1  0  0  0  0
 37 75  1  0  0  0  0
 37 83  2  0  0  0  0
 38 71  1  0  0  0  0
 38 76  1  0  0  0  0
 38 84  2  0  0  0  0
 39 42  1  0  0  0  0
 40 53  1  0  0  0  0
 41 70  1  0  0  0  0
 42 44  1  0  0  0  0
 43 45  1  0  0  0  0
 43 48  1  0  0  0  0
 44 52  1  0  0  0  0
 45 54  1  0  0  0  0
 46 50  1  0  0  0  0
 46 55  1  0  0  0  0
 47 51  1  0  0  0  0
 47 55  1  0  0  0  0
 48 71  1  0  0  0  0
 49 54  1  0  0  0  0
 49 71  1  0  0  0  0
 50 77  1  0  0  0  0
 51 77  1  0  0  0  0
 52 74  1  0  0  0  0
 53 70  1  0  0  0  0
 54 69  1  0  0  0  0
 55 86  1  0  0  0  0
 56 66  1  0  0  0  0
 57 67  1  0  0  0  0
 58 67  1  0  0  0  0
 59 67  1  0  0  0  0
 60 78  1  0  0  0  0
 61 77  1  0  0  0  0
 62 79  1  0  0  0  0
 63 64  1  0  0  0  0
 63 76  1  0  0  0  0
 64 79  1  0  0  0  0
 65 67  1  0  0  0  0
 65 75  1  0  0  0  0
 66 78  1  0  0  0  0
 68 69  1  0  0  0  0
M  CHG  3  77   1  78   1  79   1
M  ISO  4  38 100  55 101  76 100  86 101
M  END
> <Batch ID>
0126

> <Smiles>
CNC(C)C(=O)NC(C(=O)N1Cc2cc([101O:1][101CH:1]3CCN(Cc4ccc(CNCC[100NH:0][100C:0](=O)N5CCCC(n6nc(-c7ccc(Oc8ccc(F)cc8F)cc7)c(C(N)=O)c6N)C5)cc4)CC3)ccc2CC1C(=O)NC1CCCc2ccccc21)C(C)(C)C

> <Shape>
0.239

> <Color>
0.061

> <Negative vol penalty>
0.000

$$$$

  -OEChem-04052320383D

 88 97  0     1  0  0  0  0  0999 V2000
  -35.6338  -26.8937   10.3324 C   0  0  0  0  0  0  0  0  0  0  0  0
  -34.8943  -25.7171   10.3975 C   0  0  0  0  0  0  0  0  0  0  0  0
  -23.0011   -9.8953   19.9799 C   0  0  0  0  0  0  0  0  0  0  0  0
  -23.7320   -9.9423   22.2822 C   0  0  0  0  0  0  0  0  0  0  0  0
  -35.4939  -27.8596   11.3281 C   0  0  0  0  0  0  0  0  0  0  0  0
  -34.0153  -25.5052   11.4590 C   0  0  0  0  0  0  0  0  0  0  0  0
  -28.6479  -22.5626   11.2632 C   0  0  0  0  0  0  0  0  0  0  0  0
  -27.1981  -18.0770   16.4668 C   0  0  0  0  0  0  0  0  0  0  0  0
  -29.4140  -18.9851   16.1473 C   0  0  0  0  0  0  0  0  0  0  0  0
  -22.2364   -8.7595   20.2458 C   0  0  0  0  0  0  0  0  0  0  0  0
  -22.9673   -8.8064   22.5482 C   0  0  0  0  0  0  0  0  0  0  0  0
  -28.2789  -21.2611   11.6004 C   0  0  0  0  0  0  0  0  0  0  0  0
  -26.8228  -18.5504   15.2096 C   0  0  0  0  0  0  0  0  0  0  0  0
  -29.0387  -19.4585   14.8900 C   0  0  0  0  0  0  0  0  0  0  0  0
  -23.2139   -5.4687   22.0687 C   0  0  0  0  0  0  0  0  0  0  0  0
  -23.8044   -4.4506   22.8172 C   0  0  0  0  0  0  0  0  0  0  0  0
  -27.5707  -22.0314   13.7739 C   0  0  0  0  0  0  0  0  0  0  0  0
  -22.0845   -4.6882   24.4973 C   0  0  0  0  0  0  0  0  0  0  0  0
  -23.7489  -10.4867   20.9981 C   0  0  0  0  0  0  0  0  0  0  0  0
  -24.1312  -13.0031   20.8263 C   0  0  0  0  0  0  0  0  0  0  0  0
  -34.6056  -27.6637   12.3972 C   0  0  0  0  0  0  0  0  0  0  0  0
  -28.4909  -23.6082   12.1844 C   0  0  0  0  0  0  0  0  0  0  0  0
  -33.8644  -26.4688   12.4707 C   0  0  0  0  0  0  0  0  0  0  0  0
  -27.9361  -23.3457   13.4451 C   0  0  0  0  0  0  0  0  0  0  0  0
  -28.4937  -18.2943   16.9357 C   0  0  0  0  0  0  0  0  0  0  0  0
  -22.2195   -8.2150   21.5299 C   0  0  0  0  0  0  0  0  0  0  0  0
  -27.7431  -19.2411   14.4212 C   0  0  0  0  0  0  0  0  0  1  0  0
  -27.7429  -20.9948   12.8569 C   0  0  0  0  0  0  0  0  0  0  0  0
  -22.0588   -6.0967   22.5345 C   0  0  0  0  0  0  0  0  0  0  0  0
  -23.2397   -4.0603   24.0315 C   0  0  0  0  0  0  0  0  0  0  0  0
  -21.4940   -5.7064   23.7488 C   0  0  0  0  0  0  0  0  0  0  0  0
  -24.5395  -11.6597   20.7239 C   0  0  0  0  0  0  0  0  0  0  0  0
  -25.2392  -13.7276   20.4606 C   0  0  0  0  0  0  0  0  0  0  0  0
  -22.8636  -13.5473   21.2172 C   0  0  0  0  0  0  0  0  0  0  0  0
  -30.4656  -25.6235   13.6482 C   0  0  0  0  0  0  0  0  0  0  0  0
  -27.7016  -26.9470   14.7117 C   0  0  0  0  0  0  0  0  0  0  0  0
  -24.3845  -26.5570   15.4127 C   0  0  0  0  0  0  0  0  0  0  0  0
  -30.7352  -14.6674   20.6973 C   0  0  0  0  0  0  0  0  0  0  0  0
  -34.5235  -28.7157   13.4748 C   0  0  0  0  0  0  0  0  0  0  0  0
  -28.8690  -25.0112   11.7957 C   0  0  0  0  0  0  0  0  0  0  0  0
  -27.7281  -24.4365   14.4627 C   0  0  0  0  0  0  0  0  0  0  0  0
  -33.2929  -28.5782   14.3677 C   0  0  0  0  0  0  0  0  0  0  0  0
  -29.5912  -12.2474   18.3497 C   0  0  0  0  0  0  0  0  0  0  0  0
  -33.1086  -27.1280   14.8030 C   0  0  0  0  0  0  0  0  0  0  0  0
  -30.6122  -20.0206   22.3909 C   0  0  0  0  0  0  0  0  0  0  0  0
  -28.1440  -11.9853   18.7704 C   0  0  0  0  0  0  0  0  0  0  0  0
  -29.1011  -20.1728   22.2498 C   0  0  0  0  0  0  0  0  0  0  0  0
  -30.4964  -12.4813   19.5571 C   0  0  0  0  0  0  0  0  0  0  0  0
  -28.5888  -13.2720   20.9024 C   0  0  0  0  0  0  0  0  0  0  0  0
  -32.8822  -26.2133   13.5932 C   0  0  1  0  0  0  0  0  0  0  0  0
  -29.1424  -25.9109   12.9970 C   0  0  1  0  0  0  0  0  0  0  0  0
  -31.2302  -19.3101   21.1809 C   0  0  2  0  0  0  0  0  0  0  0  0
  -27.6270  -13.0858   19.7164 C   0  0  2  0  0  0  0  0  0  0  0  0
  -28.4158  -18.8356   21.9753 C   0  0  1  0  0  0  0  0  0  0  0  0
  -30.5464  -17.9608   20.8753 C   0  0  1  0  0  0  0  0  0  0  0  0
  -32.7423  -19.1634   21.3680 C   0  0  0  0  0  0  0  0  0  0  0  0
  -26.9042  -18.9747   21.8273 C   0  0  0  0  0  0  0  0  0  0  0  0
  -22.3996  -27.8064   16.3054 C   0  0  0  0  0  0  0  0  0  0  0  0
  -28.8078  -26.6768   17.5425 C   0  0  0  0  0  0  0  0  0  0  0  0
  -26.4854  -27.0295   18.4088 C   0  0  0  0  0  0  0  0  0  0  0  0
  -27.6093  -28.8250   17.0914 C   0  0  0  0  0  0  0  0  0  0  0  0
  -22.8825  -26.2079   12.8866 C   0  0  0  0  0  0  0  0  0  0  0  0
  -28.8981  -17.7848   18.2888 C   0  0  0  0  0  0  0  0  0  0  0  0
  -30.8186  -16.8440   21.8868 C   0  0  0  0  0  0  0  0  0  0  0  0
  -28.6543  -18.7785   19.4201 C   0  0  0  0  0  0  0  0  0  0  0  0
  -26.8081  -26.7380   15.9104 C   0  0  1  0  0  0  0  0  0  0  0  0
  -23.1743  -27.4030   15.0604 C   0  0  2  0  0  0  0  0  0  0  0  0
  -27.4332  -27.2962   17.2200 C   0  0  0  0  0  0  0  0  0  0  0  0
  -25.8079  -11.5354   20.3243 N   0  0  0  0  0  0  0  0  0  0  0  0
  -26.2061  -12.8099   20.1723 N   0  0  0  0  0  0  0  0  0  0  0  0
  -28.1193  -25.7907   14.0376 N   0  0  0  0  0  0  0  0  0  0  0  0
  -29.9506  -13.5376   20.4128 N   0  0  0  0  0  0  0  0  0  0  0  0
  -25.4711  -15.0537   20.3607 N   0  0  0  0  0  0  0  0  0  0  0  0
  -21.8336  -12.6614   21.5614 N   0  0  0  0  0  0  0  0  0  0  0  0
  -31.5222  -26.3362   13.1141 N   0  0  0  0  0  0  0  0  0  0  0  0
  -25.5184  -27.3265   15.5658 N   0  0  0  0  0  0  0  0  0  0  0  0
  -30.1399  -15.6239   21.5106 N   0  0  0  0  0  0  0  0  0  0  0  0
  -29.0304  -18.1645   20.7512 N   0  3  2  0  0  0  0  0  0  0  0  0
  -22.2577  -26.6468   14.1610 N   0  3  0  0  0  0  0  0  0  0  0  0
  -22.6457  -14.7824   21.2440 O   0  0  0  0  0  0  0  0  0  0  0  0
  -30.5235  -24.8160   14.5682 O   0  0  0  0  0  0  0  0  0  0  0  0
  -28.0116  -28.0943   14.3812 O   0  0  0  0  0  0  0  0  0  0  0  0
  -24.3287  -25.3362   15.5430 O   0  0  0  0  0  0  0  0  0  0  0  0
  -31.8794  -14.8155   20.2547 O   0  0  0  0  0  0  0  0  0  0  0  0
  -27.3762  -19.7028   13.1946 O   0  0  0  0  0  0  0  0  0  1  0  0
  -21.4733   -7.1068   21.7898 O   0  0  0  0  0  0  0  0  0  0  0  0
  -23.8060   -3.0816   24.7495 F   0  0  0  0  0  0  0  0  0  0  0  0
  -20.3837   -6.3052   24.2008 F   0  0  0  0  0  0  0  0  0  0  0  0
  1  2  1  0  0  0  0
  1  5  2  0  0  0  0
  2  6  2  0  0  0  0
  3 10  2  0  0  0  0
  3 19  1  0  0  0  0
  4 11  1  0  0  0  0
  4 19  2  0  0  0  0
  5 21  1  0  0  0  0
  6 23  1  0  0  0  0
  7 12  2  0  0  0  0
  7 22  1  0  0  0  0
  8 13  2  0  0  0  0
  8 25  1  0  0  0  0
  9 14  1  0  0  0  0
  9 25  2  0  0  0  0
 10 26  1  0  0  0  0
 11 26  2  0  0  0  0
 12 28  1  0  0  0  0
 13 27  1  0  0  0  0
 14 27  2  0  0  0  0
 15 16  2  0  0  0  0
 15 29  1  0  0  0  0
 16 30  1  0  0  0  0
 17 24  1  0  0  0  0
 17 28  2  0  0  0  0
 18 30  2  0  0  0  0
 18 31  1  0  0  0  0
 19 32  1  0  0  0  0
 20 32  1  0  0  0  0
 20 33  2  0  0  0  0
 20 34  1  0  0  0  0
 21 23  2  0  0  0  0
 21 39  1  0  0  0  0
 22 24  2  0  0  0  0
 22 40  1  0  0  0  0
 23 50  1  0  0  0  0
 24 41  1  0  0  0  0
 25 63  1  0  0  0  0
 26 86  1  0  0  0  0
 27 85  1  0  0  0  0
 28 85  1  0  0  0  0
 29 31  2  0  0  0  0
 29 86  1  0  0  0  0
 30 87  1  0  0  0  0
 31 88  1  0  0  0  0
 32 69  2  0  0  0  0
 33 70  1  0  0  0  0
 33 73  1  0  0  0  0
 34 74  1  0  0  0  0
 34 80  2  0  0  0  0
 35 51  1  0  0  0  0
 35 75  1  0  0  0  0
 35 81  2  0  0  0  0
 36 66  1  0  0  0  0
 36 71  1  0  0  0  0
 36 82  2  0  0  0  0
 37 67  1  0  0  0  0
 37 76  1  0  0  0  0
 37 83  2  0  0  0  0
 38 72  1  0  0  0  0
 38 77  1  0  0  0  0
 38 84  2  0  0  0  0
 39 42  1  0  0  0  0
 40 51  1  0  0  0  0
 41 71  1  0  0  0  0
 42 44  1  0  0  0  0
 43 46  1  0  0  0  0
 43 48  1  0  0  0  0
 44 50  1  0  0  0  0
 45 47  1  0  0  0  0
 45 52  1  0  0  0  0
 46 53  1  0  0  0  0
 47 54  1  0  0  0  0
 48 72  1  0  0  0  0
 49 53  1  0  0  0  0
 49 72  1  0  0  0  0
 50 75  1  0  0  0  0
 51 71  1  0  0  0  0
 52 55  1  0  0  0  0
 52 56  1  0  0  0  0
 53 70  1  0  0  0  0
 54 57  1  0  0  0  0
 54 78  1  0  0  0  0
 55 64  1  0  0  0  0
 55 78  1  0  0  0  0
 58 67  1  0  0  0  0
 59 68  1  0  0  0  0
 60 68  1  0  0  0  0
 61 68  1  0  0  0  0
 62 79  1  0  0  0  0
 63 65  1  0  0  0  0
 64 77  1  0  0  0  0
 65 78  1  0  0  0  0
 66 68  1  0  0  0  0
 66 76  1  0  0  0  0
 67 79  1  0  0  0  0
 69 70  1  0  0  0  0
M  CHG  2  78   1  79   1
M  ISO  4  27 101  38 100  77 100  85 101
M  END
> <Batch ID>
0126

> <Smiles>
CNC(C)C(=O)NC(C(=O)N1Cc2cc([101O:1][101c:1]3ccc(CCN4C(C)CCC(C)C4C[100NH:0][100C:0](=O)N4CCCC(n5nc(-c6ccc(Oc7ccc(F)cc7F)cc6)c(C(N)=O)c5N)C4)cc3)ccc2CC1C(=O)NC1CCCc2ccccc21)C(C)(C)C

> <Shape>
0.205

> <Color>
0.193

> <Negative vol penalty>
0.000

$$$$

  -OEChem-04052320383D

 82 90  0     1  0  0  0  0  0999 V2000
  -18.1213  -32.5186   20.9860 C   0  0  0  0  0  0  0  0  0  0  0  0
  -19.4650  -32.4987   20.6260 C   0  0  0  0  0  0  0  0  0  0  0  0
  -31.4893  -25.6393   20.8997 C   0  0  0  0  0  0  0  0  0  0  0  0
  -26.0027  -15.7805   20.6097 C   0  0  0  0  0  0  0  0  0  0  0  0
  -27.8893  -14.8936   19.3886 C   0  0  0  0  0  0  0  0  0  0  0  0
  -17.6794  -31.7586   22.0681 C   0  0  0  0  0  0  0  0  0  0  0  0
  -20.3677  -31.7196   21.3488 C   0  0  0  0  0  0  0  0  0  0  0  0
  -25.2562  -28.7566   19.1512 C   0  0  0  0  0  0  0  0  0  0  0  0
  -31.2560  -26.9738   20.5677 C   0  0  0  0  0  0  0  0  0  0  0  0
  -31.5854  -24.6771   19.8945 C   0  0  0  0  0  0  0  0  0  0  0  0
  -25.5590  -14.4833   20.8663 C   0  0  0  0  0  0  0  0  0  0  0  0
  -27.4456  -13.5964   19.6452 C   0  0  0  0  0  0  0  0  0  0  0  0
  -26.6131  -29.0756   19.1256 C   0  0  0  0  0  0  0  0  0  0  0  0
  -23.9106  -12.0416   19.2094 C   0  0  0  0  0  0  0  0  0  0  0  0
  -22.5529  -11.7750   19.0325 C   0  0  0  0  0  0  0  0  0  0  0  0
  -26.9509  -27.7733   21.1279 C   0  0  0  0  0  0  0  0  0  0  0  0
  -31.2147  -26.3838   18.2252 C   0  0  0  0  0  0  0  0  0  0  0  0
  -22.3740  -11.1440   21.3578 C   0  0  0  0  0  0  0  0  0  0  0  0
  -27.1679  -15.9857   19.8708 C   0  0  0  0  0  0  0  0  0  0  0  0
  -28.5003  -18.0973   20.3940 C   0  0  0  0  0  0  0  0  0  0  0  0
  -18.5754  -30.9623   22.7985 C   0  0  0  0  0  0  0  0  0  0  0  0
  -24.7335  -27.9511   20.1732 C   0  0  0  0  0  0  0  0  0  0  0  0
  -19.9376  -30.9492   22.4425 C   0  0  0  0  0  0  0  0  0  0  0  0
  -25.5874  -27.4435   21.1628 C   0  0  0  0  0  0  0  0  0  0  0  0
  -31.1186  -27.3461   19.2305 C   0  0  0  0  0  0  0  0  0  0  0  0
  -31.4481  -25.0493   18.5573 C   0  0  0  0  0  0  0  0  0  0  0  0
  -26.2804  -13.3912   20.3841 C   0  0  0  0  0  0  0  0  0  0  0  0
  -27.4602  -28.5863   20.1156 C   0  0  0  0  0  0  0  0  0  0  0  0
  -24.5000  -11.8593   20.4604 C   0  0  0  0  0  0  0  0  0  0  0  0
  -21.7846  -11.3262   20.1067 C   0  0  0  0  0  0  0  0  0  0  0  0
  -23.7317  -11.4106   21.5346 C   0  0  0  0  0  0  0  0  0  0  0  0
  -27.6265  -17.3255   19.6049 C   0  0  0  0  0  0  0  0  0  0  0  0
  -28.6192  -19.2845   19.7137 C   0  0  0  0  0  0  0  0  0  0  0  0
  -29.1467  -17.7701   21.6312 C   0  0  0  0  0  0  0  0  0  0  0  0
  -22.5743  -28.3608   22.4696 C   0  0  0  0  0  0  0  0  0  0  0  0
  -23.0745  -25.1947   22.9674 C   0  0  0  0  0  0  0  0  0  0  0  0
  -25.1511  -22.5049   22.6520 C   0  0  0  0  0  0  0  0  0  0  0  0
  -29.3149  -22.1198   14.9574 C   0  0  0  0  0  0  0  0  0  0  0  0
  -18.0595  -30.1946   23.9898 C   0  0  0  0  0  0  0  0  0  0  0  0
  -23.2724  -27.5942   20.1716 C   0  0  0  0  0  0  0  0  0  0  0  0
  -25.0797  -26.5581   22.2703 C   0  0  0  0  0  0  0  0  0  0  0  0
  -19.0132  -29.1043   24.4714 C   0  0  0  0  0  0  0  0  0  0  0  0
  -26.0042  -21.1038   15.7845 C   0  0  0  0  0  0  0  0  0  0  0  0
  -20.4376  -29.6425   24.5610 C   0  0  0  0  0  0  0  0  0  0  0  0
  -26.2038  -20.0898   16.9123 C   0  0  0  0  0  0  0  0  0  0  0  0
  -27.1118  -21.0086   14.7375 C   0  0  0  0  0  0  0  0  0  0  0  0
  -28.6814  -20.0932   16.4025 C   0  0  0  0  0  0  0  0  0  0  0  0
  -20.9430  -30.0974   23.1866 C   0  0  1  0  0  0  0  0  0  0  0  0
  -22.7550  -27.1879   21.5480 C   0  0  1  0  0  0  0  0  0  0  0  0
  -27.6196  -20.1889   17.5114 C   0  0  2  0  0  0  0  0  0  0  0  0
  -25.8896  -20.1087   22.7543 C   0  0  0  0  0  0  0  0  0  0  0  0
  -23.6325  -25.8700   25.8901 C   0  0  0  0  0  0  0  0  0  0  0  0
  -24.6774  -23.6087   26.1407 C   0  0  0  0  0  0  0  0  0  0  0  0
  -22.2645  -23.8060   25.5391 C   0  0  0  0  0  0  0  0  0  0  0  0
  -24.1116  -21.9476   19.9376 C   0  0  0  0  0  0  0  0  0  0  0  0
  -30.8654  -28.7902   18.8717 C   0  0  0  0  0  0  0  0  0  0  0  0
  -31.4149  -24.3888   16.1514 C   0  0  0  0  0  0  0  0  0  0  0  0
  -31.5535  -23.1336   15.3035 C   0  0  0  0  0  0  0  0  0  0  0  0
  -29.3781  -29.1214   18.8151 C   0  0  0  0  0  0  0  0  0  1  0  0
  -24.0227  -24.3826   23.8162 C   0  0  1  0  0  0  0  0  0  0  0  0
  -24.9033  -21.0946   22.1477 C   0  0  2  0  0  0  0  0  0  0  0  0
  -23.6588  -24.4351   25.3269 C   0  0  0  0  0  0  0  0  0  0  0  0
  -27.2190  -17.9685   18.5074 N   0  0  0  0  0  0  0  0  0  0  0  0
  -27.8394  -19.1569   18.6020 N   0  0  0  0  0  0  0  0  0  0  0  0
  -23.6422  -26.2426   22.2289 N   0  0  0  0  0  0  0  0  0  0  0  0
  -28.4289  -21.1112   15.3706 N   0  0  0  0  0  0  0  0  0  0  0  0
  -29.3135  -20.4149   19.9641 N   0  0  0  0  0  0  0  0  0  0  0  0
  -28.9152  -16.5069   22.1925 N   0  0  0  0  0  0  0  0  0  0  0  0
  -31.5457  -24.0763   17.5408 N   0  0  0  0  0  0  0  0  0  0  0  0
  -21.3295  -28.9549   22.3867 N   0  0  0  0  0  0  0  0  0  0  0  0
  -24.0286  -23.0383   23.2493 N   0  0  0  0  0  0  0  0  0  0  0  0
  -30.5395  -22.1504   15.6133 N   0  0  0  0  0  0  0  0  0  0  0  0
  -25.0396  -21.0434   20.6646 N   0  3  0  0  0  0  0  0  0  0  0  0
  -29.8942  -18.5803   22.2300 O   0  0  0  0  0  0  0  0  0  0  0  0
  -23.4955  -28.7007   23.2028 O   0  0  0  0  0  0  0  0  0  0  0  0
  -21.8754  -24.9052   22.9543 O   0  0  0  0  0  0  0  0  0  0  0  0
  -26.2334  -23.0747   22.5316 O   0  0  0  0  0  0  0  0  0  0  0  0
  -29.0332  -22.9360   14.0735 O   0  0  0  0  0  0  0  0  0  0  0  0
  -25.8478  -12.1252   20.6345 O   0  0  0  0  0  0  0  0  0  0  0  0
  -28.7850  -28.8967   20.0934 O   0  0  0  0  0  0  0  0  0  1  0  0
  -20.4805  -11.0717   19.9372 F   0  0  0  0  0  0  0  0  0  0  0  0
  -24.2921  -11.2347   22.7391 F   0  0  0  0  0  0  0  0  0  0  0  0
  1  2  1  0  0  0  0
  1  6  2  0  0  0  0
  2  7  2  0  0  0  0
  3  9  2  0  0  0  0
  3 10  1  0  0  0  0
  4 11  2  0  0  0  0
  4 19  1  0  0  0  0
  5 12  1  0  0  0  0
  5 19  2  0  0  0  0
  6 21  1  0  0  0  0
  7 23  1  0  0  0  0
  8 13  2  0  0  0  0
  8 22  1  0  0  0  0
  9 25  1  0  0  0  0
 10 26  2  0  0  0  0
 11 27  1  0  0  0  0
 12 27  2  0  0  0  0
 13 28  1  0  0  0  0
 14 15  2  0  0  0  0
 14 29  1  0  0  0  0
 15 30  1  0  0  0  0
 16 24  1  0  0  0  0
 16 28  2  0  0  0  0
 17 25  2  0  0  0  0
 17 26  1  0  0  0  0
 18 30  2  0  0  0  0
 18 31  1  0  0  0  0
 19 32  1  0  0  0  0
 20 32  1  0  0  0  0
 20 33  2  0  0  0  0
 20 34  1  0  0  0  0
 21 23  2  0  0  0  0
 21 39  1  0  0  0  0
 22 24  2  0  0  0  0
 22 40  1  0  0  0  0
 23 48  1  0  0  0  0
 24 41  1  0  0  0  0
 25 56  1  0  0  0  0
 26 69  1  0  0  0  0
 27 79  1  0  0  0  0
 28 80  1  0  0  0  0
 29 31  2  0  0  0  0
 29 79  1  0  0  0  0
 30 81  1  0  0  0  0
 31 82  1  0  0  0  0
 32 63  2  0  0  0  0
 33 64  1  0  0  0  0
 33 67  1  0  0  0  0
 34 68  1  0  0  0  0
 34 74  2  0  0  0  0
 35 49  1  0  0  0  0
 35 70  1  0  0  0  0
 35 75  2  0  0  0  0
 36 60  1  0  0  0  0
 36 65  1  0  0  0  0
 36 76  2  0  0  0  0
 37 61  1  0  0  0  0
 37 71  1  0  0  0  0
 37 77  2  0  0  0  0
 38 66  1  0  0  0  0
 38 72  1  0  0  0  0
 38 78  2  0  0  0  0
 39 42  1  0  0  0  0
 40 49  1  0  0  0  0
 41 65  1  0  0  0  0
 42 44  1  0  0  0  0
 43 45  1  0  0  0  0
 43 46  1  0  0  0  0
 44 48  1  0  0  0  0
 45 50  1  0  0  0  0
 46 66  1  0  0  0  0
 47 50  1  0  0  0  0
 47 66  1  0  0  0  0
 48 70  1  0  0  0  0
 49 65  1  0  0  0  0
 50 64  1  0  0  0  0
 51 61  1  0  0  0  0
 52 62  1  0  0  0  0
 53 62  1  0  0  0  0
 54 62  1  0  0  0  0
 55 73  1  0  0  0  0
 56 59  1  0  0  0  0
 57 58  1  0  0  0  0
 57 69  1  0  0  0  0
 58 72  1  0  0  0  0
 59 80  1  0  0  0  0
 60 62  1  0  0  0  0
 60 71  1  0  0  0  0
 61 73  1  0  0  0  0
 63 64  1  0  0  0  0
M  CHG  1  73   1
M  ISO  4  38 100  59 101  72 100  80 101
M  END
> <Batch ID>
0126

> <Smiles>
CNC(C)C(=O)NC(C(=O)N1Cc2cc([101O:1][101CH2:1]Cc3cccc(NCC[100NH:0][100C:0](=O)N4CCCC(n5nc(-c6ccc(Oc7ccc(F)cc7F)cc6)c(C(N)=O)c5N)C4)c3)ccc2CC1C(=O)NC1CCCc2ccccc21)C(C)(C)C

> <Shape>
0.206

> <Color>
0.093

> <Negative vol penalty>
0.000

$$$$

  -OEChem-04052320383D

 82 90  0     1  0  0  0  0  0999 V2000
  -18.2200  -31.4096   19.5217 C   0  0  0  0  0  0  0  0  0  0  0  0
  -19.5380  -31.1273   19.1775 C   0  0  0  0  0  0  0  0  0  0  0  0
  -33.7433  -24.0723   17.0505 C   0  0  0  0  0  0  0  0  0  0  0  0
  -27.0942  -15.3023   21.7519 C   0  0  0  0  0  0  0  0  0  0  0  0
  -27.3429  -15.1503   19.3535 C   0  0  0  0  0  0  0  0  0  0  0  0
  -17.8086  -31.2998   20.8494 C   0  0  0  0  0  0  0  0  0  0  0  0
  -20.4458  -30.7360   20.1609 C   0  0  0  0  0  0  0  0  0  0  0  0
  -25.0595  -26.7570   19.5388 C   0  0  0  0  0  0  0  0  0  0  0  0
  -32.6478  -23.2230   17.1584 C   0  0  0  0  0  0  0  0  0  0  0  0
  -26.4800  -14.0501   21.7675 C   0  0  0  0  0  0  0  0  0  0  0  0
  -26.7287  -13.8981   19.3692 C   0  0  0  0  0  0  0  0  0  0  0  0
  -26.4255  -26.9313   19.3213 C   0  0  0  0  0  0  0  0  0  0  0  0
  -23.4304  -12.7634   21.0830 C   0  0  0  0  0  0  0  0  0  0  0  0
  -22.2756  -12.6184   21.8517 C   0  0  0  0  0  0  0  0  0  0  0  0
  -26.8214  -26.7406   21.6932 C   0  0  0  0  0  0  0  0  0  0  0  0
  -23.3644  -10.9071   23.1644 C   0  0  0  0  0  0  0  0  0  0  0  0
  -33.6909  -25.2862   17.7164 C   0  0  0  0  0  0  0  0  0  0  0  0
  -27.5257  -15.8524   20.5448 C   0  0  0  0  0  0  0  0  0  0  0  0
  -29.5348  -17.4207   20.6530 C   0  0  0  0  0  0  0  0  0  0  0  0
  -18.7094  -30.8975   21.8481 C   0  0  0  0  0  0  0  0  0  0  0  0
  -24.5621  -26.5838   20.8384 C   0  0  0  0  0  0  0  0  0  0  0  0
  -20.0464  -30.6219   21.5034 C   0  0  0  0  0  0  0  0  0  0  0  0
  -25.4489  -26.5618   21.9243 C   0  0  0  0  0  0  0  0  0  0  0  0
  -31.5488  -23.6080   17.9182 C   0  0  0  0  0  0  0  0  0  0  0  0
  -26.2973  -13.3479   20.5762 C   0  0  0  0  0  0  0  0  0  0  0  0
  -27.3064  -26.9260   20.3988 C   0  0  0  0  0  0  0  0  0  0  0  0
  -24.5522  -11.9802   21.3548 C   0  0  0  0  0  0  0  0  0  0  0  0
  -22.2426  -11.6903   22.8925 C   0  0  0  0  0  0  0  0  0  0  0  0
  -24.5192  -11.0521   22.3955 C   0  0  0  0  0  0  0  0  0  0  0  0
  -28.1597  -17.1462   20.5279 C   0  0  0  0  0  0  0  0  0  0  0  0
  -31.5947  -24.8426   18.5455 C   0  0  0  0  0  0  0  0  0  0  0  0
  -29.6203  -18.7892   20.5743 C   0  0  0  0  0  0  0  0  0  0  0  0
  -30.6364  -16.5191   20.8248 C   0  0  0  0  0  0  0  0  0  0  0  0
  -22.5616  -28.1980   22.7082 C   0  0  0  0  0  0  0  0  0  0  0  0
  -22.9479  -25.6421   24.6679 C   0  0  0  0  0  0  0  0  0  0  0  0
  -24.8799  -23.0021   25.6395 C   0  0  0  0  0  0  0  0  0  0  0  0
  -27.9634  -23.4298   17.7392 C   0  0  0  0  0  0  0  0  0  0  0  0
  -18.2303  -30.8388   23.2769 C   0  0  0  0  0  0  0  0  0  0  0  0
  -23.0888  -26.3703   21.0536 C   0  0  0  0  0  0  0  0  0  0  0  0
  -24.9678  -26.3592   23.3371 C   0  0  0  0  0  0  0  0  0  0  0  0
  -19.1608  -30.0558   24.1997 C   0  0  0  0  0  0  0  0  0  0  0  0
  -26.0356  -22.3427   20.7063 C   0  0  0  0  0  0  0  0  0  0  0  0
  -20.6107  -30.4725   23.9742 C   0  0  0  0  0  0  0  0  0  0  0  0
  -26.4841  -20.8930   20.8821 C   0  0  0  0  0  0  0  0  0  0  0  0
  -26.1196  -22.7898   19.2500 C   0  0  0  0  0  0  0  0  0  0  0  0
  -27.9086  -21.1403   18.8108 C   0  0  0  0  0  0  0  0  0  0  0  0
  -21.0546  -30.1705   22.5378 C   0  0  1  0  0  0  0  0  0  0  0  0
  -22.6353  -26.7166   22.4685 C   0  0  1  0  0  0  0  0  0  0  0  0
  -27.8801  -20.6730   20.2738 C   0  0  2  0  0  0  0  0  0  0  0  0
  -25.5151  -20.9107   26.8724 C   0  0  0  0  0  0  0  0  0  0  0  0
  -23.7058  -27.6075   26.8754 C   0  0  0  0  0  0  0  0  0  0  0  0
  -24.6614  -25.6848   28.1632 C   0  0  0  0  0  0  0  0  0  0  0  0
  -22.2287  -25.7291   27.6130 C   0  0  0  0  0  0  0  0  0  0  0  0
  -29.5727  -23.5867   15.8777 C   0  0  0  0  0  0  0  0  0  0  0  0
  -23.6593  -21.2731   23.5708 C   0  0  0  0  0  0  0  0  0  0  0  0
  -30.3695  -22.7068   18.0402 C   0  0  0  0  0  0  0  0  0  0  0  0
  -29.5283  -26.4649   21.1107 C   0  0  0  0  0  0  0  0  0  1  0  0
  -30.8205  -26.1204   20.3958 C   0  0  0  0  0  0  0  0  0  0  0  0
  -23.9069  -25.2800   25.7762 C   0  0  1  0  0  0  0  0  0  0  0  0
  -24.5401  -21.5443   25.8923 C   0  0  2  0  0  0  0  0  0  0  0  0
  -23.6348  -26.0811   27.0806 C   0  0  0  0  0  0  0  0  0  0  0  0
  -32.6411  -25.6947   18.4638 N   0  0  0  0  0  0  0  0  0  0  0  0
  -27.4245  -18.2516   20.3812 N   0  0  0  0  0  0  0  0  0  0  0  0
  -28.3410  -19.2340   20.4135 N   0  0  0  0  0  0  0  0  0  0  0  0
  -23.5177  -26.1611   23.4967 N   0  0  0  0  0  0  0  0  0  0  0  0
  -27.4437  -22.5297   18.6840 N   0  0  0  0  0  0  0  0  0  0  0  0
  -30.6642  -19.6436   20.6277 N   0  0  0  0  0  0  0  0  0  0  0  0
  -30.3713  -15.1442   20.8851 N   0  0  0  0  0  0  0  0  0  0  0  0
  -21.3419  -28.7605   22.3835 N   0  0  0  0  0  0  0  0  0  0  0  0
  -23.8194  -23.8324   25.9348 N   0  0  0  0  0  0  0  0  0  0  0  0
  -29.2402  -23.1533   17.2274 N   0  0  0  0  0  0  0  0  0  0  0  0
  -24.5868  -20.7730   24.6180 N   0  3  0  0  0  0  0  0  0  0  0  0
  -31.8189  -16.9220   20.9383 O   0  0  0  0  0  0  0  0  0  0  0  0
  -23.5385  -28.7870   23.1560 O   0  0  0  0  0  0  0  0  0  0  0  0
  -21.7384  -25.4643   24.8326 O   0  0  0  0  0  0  0  0  0  0  0  0
  -25.9777  -23.3680   25.2253 O   0  0  0  0  0  0  0  0  0  0  0  0
  -27.3267  -24.4289   17.3812 O   0  0  0  0  0  0  0  0  0  0  0  0
  -25.6981  -12.1259   20.5911 O   0  0  0  0  0  0  0  0  0  0  0  0
  -28.6402  -27.0965   20.1894 O   0  0  0  0  0  0  0  0  0  1  0  0
  -30.5308  -25.2586   19.3019 O   0  0  0  0  0  0  0  0  0  0  0  0
  -21.1341  -11.5522   23.6317 F   0  0  0  0  0  0  0  0  0  0  0  0
  -25.5942  -10.2977   22.6623 F   0  0  0  0  0  0  0  0  0  0  0  0
  1  2  1  0  0  0  0
  1  6  2  0  0  0  0
  2  7  2  0  0  0  0
  3  9  2  0  0  0  0
  3 17  1  0  0  0  0
  4 10  2  0  0  0  0
  4 18  1  0  0  0  0
  5 11  1  0  0  0  0
  5 18  2  0  0  0  0
  6 20  1  0  0  0  0
  7 22  1  0  0  0  0
  8 12  2  0  0  0  0
  8 21  1  0  0  0  0
  9 24  1  0  0  0  0
 10 25  1  0  0  0  0
 11 25  2  0  0  0  0
 12 26  1  0  0  0  0
 13 14  2  0  0  0  0
 13 27  1  0  0  0  0
 14 28  1  0  0  0  0
 15 23  1  0  0  0  0
 15 26  2  0  0  0  0
 16 28  2  0  0  0  0
 16 29  1  0  0  0  0
 17 62  2  0  0  0  0
 18 30  1  0  0  0  0
 19 30  1  0  0  0  0
 19 32  2  0  0  0  0
 19 33  1  0  0  0  0
 20 22  2  0  0  0  0
 20 38  1  0  0  0  0
 21 23  2  0  0  0  0
 21 39  1  0  0  0  0
 22 47  1  0  0  0  0
 23 40  1  0  0  0  0
 24 31  2  0  0  0  0
 24 56  1  0  0  0  0
 25 78  1  0  0  0  0
 26 79  1  0  0  0  0
 27 29  2  0  0  0  0
 27 78  1  0  0  0  0
 28 81  1  0  0  0  0
 29 82  1  0  0  0  0
 30 63  2  0  0  0  0
 31 62  1  0  0  0  0
 31 80  1  0  0  0  0
 32 64  1  0  0  0  0
 32 67  1  0  0  0  0
 33 68  1  0  0  0  0
 33 73  2  0  0  0  0
 34 48  1  0  0  0  0
 34 69  1  0  0  0  0
 34 74  2  0  0  0  0
 35 59  1  0  0  0  0
 35 65  1  0  0  0  0
 35 75  2  0  0  0  0
 36 60  1  0  0  0  0
 36 70  1  0  0  0  0
 36 76  2  0  0  0  0
 37 66  1  0  0  0  0
 37 71  1  0  0  0  0
 37 77  2  0  0  0  0
 38 41  1  0  0  0  0
 39 48  1  0  0  0  0
 40 65  1  0  0  0  0
 41 43  1  0  0  0  0
 42 44  1  0  0  0  0
 42 45  1  0  0  0  0
 43 47  1  0  0  0  0
 44 49  1  0  0  0  0
 45 66  1  0  0  0  0
 46 49  1  0  0  0  0
 46 66  1  0  0  0  0
 47 69  1  0  0  0  0
 48 65  1  0  0  0  0
 49 64  1  0  0  0  0
 50 60  1  0  0  0  0
 51 61  1  0  0  0  0
 52 61  1  0  0  0  0
 53 61  1  0  0  0  0
 54 71  1  0  0  0  0
 55 72  1  0  0  0  0
 56 71  1  0  0  0  0
 57 58  1  0  0  0  0
 57 79  1  0  0  0  0
 58 80  1  0  0  0  0
 59 61  1  0  0  0  0
 59 70  1  0  0  0  0
 60 72  1  0  0  0  0
 63 64  1  0  0  0  0
M  CHG  1  72   1
M  ISO  4  37 100  57 101  71 100  79 101
M  END
> <Batch ID>
0126

> <Smiles>
CNC(C)C(=O)NC(C(=O)N1Cc2cc([101O:1][101CH2:1]COc3ncccc3C[100N:0](C)[100C:0](=O)N3CCCC(n4nc(-c5ccc(Oc6ccc(F)cc6F)cc5)c(C(N)=O)c4N)C3)ccc2CC1C(=O)NC1CCCc2ccccc21)C(C)(C)C

> <Shape>
0.214

> <Color>
0.087

> <Negative vol penalty>
0.000

$$$$

  -OEChem-04052320383D

 85 93  0     1  0  0  0  0  0999 V2000
  -31.6400  -16.6378   16.2228 C   0  0  0  0  0  0  0  0  0  0  0  0
  -31.3094  -17.7102   17.0451 C   0  0  0  0  0  0  0  0  0  0  0  0
  -23.0766   -9.8690   19.9466 C   0  0  0  0  0  0  0  0  0  0  0  0
  -23.8326   -9.8868   22.2412 C   0  0  0  0  0  0  0  0  0  0  0  0
  -32.6931  -16.7543   15.3167 C   0  0  0  0  0  0  0  0  0  0  0  0
  -32.0327  -18.8995   16.9624 C   0  0  0  0  0  0  0  0  0  0  0  0
  -29.0481  -22.9906   16.9403 C   0  0  0  0  0  0  0  0  0  0  0  0
  -22.3330   -8.7166   20.2006 C   0  0  0  0  0  0  0  0  0  0  0  0
  -23.0889   -8.7344   22.4952 C   0  0  0  0  0  0  0  0  0  0  0  0
  -28.5239  -23.4029   18.1646 C   0  0  0  0  0  0  0  0  0  0  0  0
  -19.3827   -7.9250   21.6504 C   0  0  0  0  0  0  0  0  0  0  0  0
  -18.0766   -7.8758   21.1632 C   0  0  0  0  0  0  0  0  0  0  0  0
  -30.2284  -25.1033   18.3149 C   0  0  0  0  0  0  0  0  0  0  0  0
  -31.4827  -19.3909   22.7359 C   0  0  0  0  0  0  0  0  0  0  0  0
  -29.7448  -17.7286   22.7026 C   0  0  0  0  0  0  0  0  0  0  0  0
  -18.6397   -5.9270   19.8507 C   0  0  0  0  0  0  0  0  0  0  0  0
  -23.8265  -10.4541   20.9669 C   0  0  0  0  0  0  0  0  0  0  0  0
  -24.1672  -12.9788   20.8360 C   0  0  0  0  0  0  0  0  0  0  0  0
  -33.4234  -17.9490   15.2160 C   0  0  0  0  0  0  0  0  0  0  0  0
  -30.1749  -23.6255   16.3984 C   0  0  0  0  0  0  0  0  0  0  0  0
  -33.0975  -19.0317   16.0549 C   0  0  0  0  0  0  0  0  0  0  0  0
  -30.7634  -24.6988   17.0823 C   0  0  0  0  0  0  0  0  0  0  0  0
  -22.3390   -8.1493   21.4748 C   0  0  0  0  0  0  0  0  0  0  0  0
  -29.1158  -24.4575   18.8535 C   0  0  0  0  0  0  0  0  0  0  0  0
  -20.3173   -6.9752   21.2378 C   0  0  0  0  0  0  0  0  0  0  0  0
  -30.2189  -18.9644   23.1285 C   0  0  0  0  0  0  0  0  0  0  0  0
  -17.7051   -6.8768   20.2633 C   0  0  0  0  0  0  0  0  0  0  0  0
  -19.9457   -5.9763   20.3380 C   0  0  0  0  0  0  0  0  0  0  0  0
  -24.5954  -11.6442   20.7051 C   0  0  0  0  0  0  0  0  0  0  0  0
  -32.2271  -18.5511   21.9232 C   0  0  0  0  0  0  0  0  0  0  0  0
  -30.5670  -16.9633   21.8913 C   0  0  0  0  0  0  0  0  0  0  0  0
  -25.2595  -13.7273   20.4712 C   0  0  0  0  0  0  0  0  0  0  0  0
  -22.8957  -13.4959   21.2504 C   0  0  0  0  0  0  0  0  0  0  0  0
  -33.1195  -22.7028   15.6355 C   0  0  0  0  0  0  0  0  0  0  0  0
  -33.3304  -25.7079   14.4326 C   0  0  0  0  0  0  0  0  0  0  0  0
  -32.2080  -28.9305   14.4740 C   0  0  0  0  0  0  0  0  0  0  0  0
  -30.7248  -14.7766   20.6504 C   0  0  0  0  0  0  0  0  0  0  0  0
  -34.5838  -18.0116   14.2547 C   0  0  0  0  0  0  0  0  0  0  0  0
  -30.7121  -23.1862   15.0639 C   0  0  0  0  0  0  0  0  0  0  0  0
  -31.9624  -25.4268   16.5338 C   0  0  0  0  0  0  0  0  0  0  0  0
  -35.0596  -19.4331   13.9660 C   0  0  0  0  0  0  0  0  0  0  0  0
  -29.6158  -12.3515   18.2913 C   0  0  0  0  0  0  0  0  0  0  0  0
  -35.1939  -20.2248   15.2629 C   0  0  0  0  0  0  0  0  0  0  0  0
  -28.1756  -12.0611   18.7197 C   0  0  0  0  0  0  0  0  0  0  0  0
  -30.5287  -12.5862   19.4934 C   0  0  0  0  0  0  0  0  0  0  0  0
  -28.6190  -13.3159   20.8681 C   0  0  0  0  0  0  0  0  0  0  0  0
  -33.8425  -20.3467   15.9773 C   0  0  1  0  0  0  0  0  0  0  0  0
  -32.1737  -23.5690   14.8527 C   0  0  1  0  0  0  0  0  0  0  0  0
  -27.6483  -13.1368   19.6895 C   0  0  2  0  0  0  0  0  0  0  0  0
  -33.5889  -18.9752   21.4846 C   0  0  0  0  0  0  0  0  0  0  0  0
  -32.5993  -31.1666   13.4043 C   0  0  0  0  0  0  0  0  0  0  0  0
  -35.8461  -26.0723   16.1204 C   0  0  0  0  0  0  0  0  0  0  0  0
  -35.6425  -28.5422   15.7650 C   0  0  0  0  0  0  0  0  0  0  0  0
  -35.9900  -27.0276   13.8136 C   0  0  0  0  0  0  0  0  0  0  0  0
  -29.4550  -29.0244   13.3919 C   0  0  0  0  0  0  0  0  0  0  0  0
  -28.2992  -21.8557   24.1090 C   0  0  0  0  0  0  0  0  0  0  0  0
  -28.4298  -23.3659   24.0082 C   0  0  0  0  0  0  0  0  0  0  0  0
  -29.0096  -25.1847   22.3975 C   0  0  0  0  0  0  0  0  0  0  0  0
  -29.6208  -21.1634   23.8087 C   0  0  0  0  0  0  0  0  0  0  0  0
  -29.5229  -25.4185   20.9904 C   0  0  0  0  0  0  0  0  0  1  0  0
  -33.7470  -27.0517   14.9800 C   0  0  1  0  0  0  0  0  0  0  0  0
  -31.8045  -29.8711   13.3528 C   0  0  2  0  0  0  0  0  0  0  0  0
  -35.2850  -27.1587   15.1813 C   0  0  0  0  0  0  0  0  0  0  0  0
  -25.8610  -11.5472   20.2894 N   0  0  0  0  0  0  0  0  0  0  0  0
  -31.8003  -17.3440   21.4893 N   0  0  0  0  0  0  0  0  0  0  0  0
  -26.2374  -12.8303   20.1559 N   0  0  0  0  0  0  0  0  0  0  0  0
  -32.4546  -24.9561   15.2286 N   0  0  0  0  0  0  0  0  0  0  0  0
  -29.9677  -13.6207   20.3652 N   0  0  0  0  0  0  0  0  0  0  0  0
  -25.4693  -15.0585   20.3925 N   0  0  0  0  0  0  0  0  0  0  0  0
  -21.8837  -12.5877   21.5901 N   0  0  0  0  0  0  0  0  0  0  0  0
  -30.0756  -15.7051   21.4635 N   0  0  0  0  0  0  0  0  0  0  0  0
  -33.0236  -21.3561   15.3410 N   0  0  0  0  0  0  0  0  0  0  0  0
  -33.1920  -28.0514   14.0738 N   0  0  0  0  0  0  0  0  0  0  0  0
  -30.3554  -30.2044   13.4526 N   0  3  0  0  0  0  0  0  0  0  0  0
  -28.8987  -23.7246   22.6424 N   0  3  0  0  0  0  0  0  0  0  0  0
  -22.6587  -14.7266   21.3017 O   0  0  0  0  0  0  0  0  0  0  0  0
  -33.8809  -23.2182   16.4455 O   0  0  0  0  0  0  0  0  0  0  0  0
  -33.7604  -25.3420   13.3359 O   0  0  0  0  0  0  0  0  0  0  0  0
  -31.7035  -28.9740   15.5939 O   0  0  0  0  0  0  0  0  0  0  0  0
  -31.8546  -14.9439   20.1840 O   0  0  0  0  0  0  0  0  0  0  0  0
  -21.6133   -7.0249   21.7231 O   0  0  0  0  0  0  0  0  0  0  0  0
  -28.6065  -24.8616   20.0490 O   0  0  0  0  0  0  0  0  0  1  0  0
  -29.4427  -19.7591   23.9316 O   0  0  0  0  0  0  0  0  0  0  0  0
  -16.4505   -6.8288   19.7967 F   0  0  0  0  0  0  0  0  0  0  0  0
  -20.8388   -5.0604   19.9388 F   0  0  0  0  0  0  0  0  0  0  0  0
  1  2  1  0  0  0  0
  1  5  2  0  0  0  0
  2  6  2  0  0  0  0
  3  8  2  0  0  0  0
  3 17  1  0  0  0  0
  4  9  1  0  0  0  0
  4 17  2  0  0  0  0
  5 19  1  0  0  0  0
  6 21  1  0  0  0  0
  7 10  2  0  0  0  0
  7 20  1  0  0  0  0
  8 23  1  0  0  0  0
  9 23  2  0  0  0  0
 10 24  1  0  0  0  0
 11 12  2  0  0  0  0
 11 25  1  0  0  0  0
 12 27  1  0  0  0  0
 13 22  1  0  0  0  0
 13 24  2  0  0  0  0
 14 26  1  0  0  0  0
 14 30  2  0  0  0  0
 15 26  2  0  0  0  0
 15 31  1  0  0  0  0
 16 27  2  0  0  0  0
 16 28  1  0  0  0  0
 17 29  1  0  0  0  0
 18 29  1  0  0  0  0
 18 32  2  0  0  0  0
 18 33  1  0  0  0  0
 19 21  2  0  0  0  0
 19 38  1  0  0  0  0
 20 22  2  0  0  0  0
 20 39  1  0  0  0  0
 21 47  1  0  0  0  0
 22 40  1  0  0  0  0
 23 81  1  0  0  0  0
 24 82  1  0  0  0  0
 25 28  2  0  0  0  0
 25 81  1  0  0  0  0
 26 83  1  0  0  0  0
 27 84  1  0  0  0  0
 28 85  1  0  0  0  0
 29 64  2  0  0  0  0
 30 50  1  0  0  0  0
 30 65  1  0  0  0  0
 31 65  2  0  0  0  0
 31 71  1  0  0  0  0
 32 66  1  0  0  0  0
 32 69  1  0  0  0  0
 33 70  1  0  0  0  0
 33 76  2  0  0  0  0
 34 48  1  0  0  0  0
 34 72  1  0  0  0  0
 34 77  2  0  0  0  0
 35 61  1  0  0  0  0
 35 67  1  0  0  0  0
 35 78  2  0  0  0  0
 36 62  1  0  0  0  0
 36 73  1  0  0  0  0
 36 79  2  0  0  0  0
 37 68  1  0  0  0  0
 37 71  1  0  0  0  0
 37 80  2  0  0  0  0
 38 41  1  0  0  0  0
 39 48  1  0  0  0  0
 40 67  1  0  0  0  0
 41 43  1  0  0  0  0
 42 44  1  0  0  0  0
 42 45  1  0  0  0  0
 43 47  1  0  0  0  0
 44 49  1  0  0  0  0
 45 68  1  0  0  0  0
 46 49  1  0  0  0  0
 46 68  1  0  0  0  0
 47 72  1  0  0  0  0
 48 67  1  0  0  0  0
 49 66  1  0  0  0  0
 51 62  1  0  0  0  0
 52 63  1  0  0  0  0
 53 63  1  0  0  0  0
 54 63  1  0  0  0  0
 55 74  1  0  0  0  0
 56 57  1  0  0  0  0
 56 59  1  0  0  0  0
 57 75  1  0  0  0  0
 58 60  1  0  0  0  0
 58 75  1  0  0  0  0
 59 83  1  0  0  0  0
 60 82  1  0  0  0  0
 61 63  1  0  0  0  0
 61 73  1  0  0  0  0
 62 74  1  0  0  0  0
 64 66  1  0  0  0  0
M  CHG  2  74   1  75   1
M  ISO  4  37 100  60 101  71 100  82 101
M  END
> <Batch ID>
0126

> <Smiles>
CNC(C)C(=O)NC(C(=O)N1Cc2cc([101O:1][101CH2:1]CNCCCOc3cc(C)nc([100NH:0][100C:0](=O)N4CCCC(n5nc(-c6ccc(Oc7ccc(F)cc7F)cc6)c(C(N)=O)c5N)C4)c3)ccc2CC1C(=O)NC1CCCc2ccccc21)C(C)(C)C

> <Shape>
0.191

> <Color>
0.185

> <Negative vol penalty>
0.000

$$$$

  -OEChem-04052320383D

 83 92  0     1  0  0  0  0  0999 V2000
  -25.9006  -38.3196   22.5919 C   0  0  0  0  0  0  0  0  0  0  0  0
  -26.6399  -37.4229   21.8273 C   0  0  0  0  0  0  0  0  0  0  0  0
  -24.8884   -8.7936   22.0072 C   0  0  0  0  0  0  0  0  0  0  0  0
  -24.8341   -8.0042   19.7245 C   0  0  0  0  0  0  0  0  0  0  0  0
  -25.1654  -37.8617   23.6844 C   0  0  0  0  0  0  0  0  0  0  0  0
  -26.6453  -36.0676   22.1555 C   0  0  0  0  0  0  0  0  0  0  0  0
  -27.0343  -29.5901   19.1213 C   0  0  0  0  0  0  0  0  0  0  0  0
  -23.6462   -8.2038   22.2408 C   0  0  0  0  0  0  0  0  0  0  0  0
  -23.5919   -7.4143   19.9581 C   0  0  0  0  0  0  0  0  0  0  0  0
  -27.7571  -28.4011   19.2093 C   0  0  0  0  0  0  0  0  0  0  0  0
  -20.6552   -6.5978   23.5407 C   0  0  0  0  0  0  0  0  0  0  0  0
  -20.4935   -5.8721   24.7209 C   0  0  0  0  0  0  0  0  0  0  0  0
  -26.3861  -27.7125   21.0709 C   0  0  0  0  0  0  0  0  0  0  0  0
  -22.2737   -4.3832   24.0492 C   0  0  0  0  0  0  0  0  0  0  0  0
  -25.4823   -8.6939   20.7491 C   0  0  0  0  0  0  0  0  0  0  0  0
  -28.0323   -8.7150   20.6802 C   0  0  0  0  0  0  0  0  0  0  0  0
  -25.1541  -36.4987   24.0204 C   0  0  0  0  0  0  0  0  0  0  0  0
  -25.9873  -29.8544   20.0159 C   0  0  0  0  0  0  0  0  0  0  0  0
  -25.9103  -35.5912   23.2544 C   0  0  0  0  0  0  0  0  0  0  0  0
  -25.6499  -28.9044   20.9905 C   0  0  0  0  0  0  0  0  0  0  0  0
  -22.9979   -7.5141   21.2162 C   0  0  0  0  0  0  0  0  0  0  0  0
  -27.4350  -27.4634   20.1860 C   0  0  0  0  0  0  0  0  0  0  0  0
  -21.6261   -6.2162   22.6147 C   0  0  0  0  0  0  0  0  0  0  0  0
  -21.3027   -4.7648   24.9752 C   0  0  0  0  0  0  0  0  0  0  0  0
  -22.4353   -5.1089   22.8690 C   0  0  0  0  0  0  0  0  0  0  0  0
  -26.7652   -9.3035   20.5070 C   0  0  0  0  0  0  0  0  0  0  0  0
  -28.9201   -9.6985   20.3180 C   0  0  0  0  0  0  0  0  0  0  0  0
  -28.3761   -7.3972   21.1282 C   0  0  0  0  0  0  0  0  0  0  0  0
  -25.4241  -32.0787   22.2157 C   0  0  0  0  0  0  0  0  0  0  0  0
  -22.5309  -30.6219   22.3871 C   0  0  0  0  0  0  0  0  0  0  0  0
  -20.6737  -27.8013   21.8952 C   0  0  0  0  0  0  0  0  0  0  0  0
  -28.1028  -15.6853   20.2453 C   0  0  0  0  0  0  0  0  0  0  0  0
  -24.3820  -36.0578   25.2387 C   0  0  0  0  0  0  0  0  0  0  0  0
  -25.1999  -31.1299   19.8908 C   0  0  0  0  0  0  0  0  0  0  0  0
  -24.5216  -29.1312   21.9620 C   0  0  0  0  0  0  0  0  0  0  0  0
  -24.1411  -34.5514   25.2948 C   0  0  0  0  0  0  0  0  0  0  0  0
  -29.3232  -13.5297   17.4851 C   0  0  0  0  0  0  0  0  0  0  0  0
  -25.4267  -33.7931   24.9803 C   0  0  0  0  0  0  0  0  0  0  0  0
  -28.5452  -23.4698   19.8524 C   0  0  0  0  0  0  0  0  0  0  0  0
  -28.3696  -23.1849   22.3612 C   0  0  0  0  0  0  0  0  0  0  0  0
  -28.8694  -12.1486   17.9598 C   0  0  0  0  0  0  0  0  0  0  0  0
  -29.4105  -22.2123   19.7705 C   0  0  0  0  0  0  0  0  0  0  0  0
  -29.2349  -21.9275   22.2785 C   0  0  0  0  0  0  0  0  0  0  0  0
  -30.7784  -18.1160   19.5787 C   0  0  0  0  0  0  0  0  0  0  0  0
  -28.3688  -14.6133   17.9696 C   0  0  0  0  0  0  0  0  0  0  0  0
  -30.0571  -16.8676   19.0804 C   0  0  0  0  0  0  0  0  0  0  0  0
  -27.7195  -13.2673   19.9302 C   0  0  0  0  0  0  0  0  0  0  0  0
  -28.6002  -18.0953   20.5465 C   0  0  0  0  0  0  0  0  0  0  0  0
  -25.9216  -34.1099   23.5639 C   0  0  1  0  0  0  0  0  0  0  0  0
  -24.4873  -31.5213   21.1816 C   0  0  1  0  0  0  0  0  0  0  0  0
  -28.6774  -24.1615   21.2169 C   0  0  0  0  0  0  0  0  0  0  0  0
  -28.6521  -12.1273   19.4838 C   0  0  1  0  0  0  0  0  0  0  0  0
  -29.0899  -21.2559   20.9158 C   0  0  0  0  0  0  0  0  0  0  0  0
  -29.6125  -19.0336   19.9153 C   0  0  1  0  0  0  0  0  0  0  0  0
  -18.3455  -26.9041   22.1631 C   0  0  0  0  0  0  0  0  0  0  0  0
  -22.9796  -30.3620   25.3939 C   0  0  0  0  0  0  0  0  0  0  0  0
  -21.1384  -28.6665   25.4517 C   0  0  0  0  0  0  0  0  0  0  0  0
  -20.6541  -31.0072   24.7381 C   0  0  0  0  0  0  0  0  0  0  0  0
  -20.4104  -27.2942   18.9913 C   0  0  0  0  0  0  0  0  0  0  0  0
  -27.7642  -25.3838   21.2917 C   0  0  0  0  0  0  0  0  0  1  0  0
  -21.9529  -29.4841   23.1936 C   0  0  1  0  0  0  0  0  0  0  0  0
  -19.3294  -27.5847   21.2242 C   0  0  2  0  0  0  0  0  0  0  0  0
  -21.7038  -29.8762   24.6774 C   0  0  0  0  0  0  0  0  0  0  0  0
  -26.8373  -10.5633   20.0691 N   0  0  0  0  0  0  0  0  0  0  0  0
  -28.1604  -10.7745   19.9641 N   0  0  0  0  0  0  0  0  0  0  0  0
  -23.7856  -30.3964   21.8033 N   0  0  0  0  0  0  0  0  0  0  0  0
  -28.1965  -14.5561   19.4239 N   0  0  0  0  0  0  0  0  0  0  0  0
  -28.8207  -16.8192   19.8679 N   0  0  0  0  0  0  0  0  0  0  0  0
  -30.2686   -9.7393   20.2711 N   0  0  0  0  0  0  0  0  0  0  0  0
  -27.3405   -6.5128   21.4595 N   0  0  0  0  0  0  0  0  0  0  0  0
  -25.1460  -33.3815   22.5828 N   0  0  0  0  0  0  0  0  0  0  0  0
  -20.7568  -29.0460   22.4825 N   0  0  0  0  0  0  0  0  0  0  0  0
  -30.0187  -20.0966   20.8491 N   0  3  0  0  0  0  0  0  0  0  0  0
  -19.4871  -26.7335   20.0111 N   0  3  0  0  0  0  0  0  0  0  0  0
  -29.5667   -7.0206   21.2474 O   0  0  0  0  0  0  0  0  0  0  0  0
  -26.3311  -31.3781   22.6495 O   0  0  0  0  0  0  0  0  0  0  0  0
  -21.8895  -31.6693   22.2731 O   0  0  0  0  0  0  0  0  0  0  0  0
  -21.5601  -26.9498   21.9012 O   0  0  0  0  0  0  0  0  0  0  0  0
  -27.4463  -15.6661   21.2949 O   0  0  0  0  0  0  0  0  0  0  0  0
  -21.7859   -6.9381   21.4439 O   0  0  0  0  0  0  0  0  0  0  0  0
  -28.1458  -26.2917   20.2753 O   0  0  0  0  0  0  0  0  0  1  0  0
  -21.1484   -4.0690   26.1092 F   0  0  0  0  0  0  0  0  0  0  0  0
  -23.3706   -4.7382   21.9838 F   0  0  0  0  0  0  0  0  0  0  0  0
  1  2  1  0  0  0  0
  1  5  2  0  0  0  0
  2  6  2  0  0  0  0
  3  8  2  0  0  0  0
  3 15  1  0  0  0  0
  4  9  1  0  0  0  0
  4 15  2  0  0  0  0
  5 17  1  0  0  0  0
  6 19  1  0  0  0  0
  7 10  2  0  0  0  0
  7 18  1  0  0  0  0
  8 21  1  0  0  0  0
  9 21  2  0  0  0  0
 10 22  1  0  0  0  0
 11 12  2  0  0  0  0
 11 23  1  0  0  0  0
 12 24  1  0  0  0  0
 13 20  1  0  0  0  0
 13 22  2  0  0  0  0
 14 24  2  0  0  0  0
 14 25  1  0  0  0  0
 15 26  1  0  0  0  0
 16 26  1  0  0  0  0
 16 27  2  0  0  0  0
 16 28  1  0  0  0  0
 17 19  2  0  0  0  0
 17 33  1  0  0  0  0
 18 20  2  0  0  0  0
 18 34  1  0  0  0  0
 19 49  1  0  0  0  0
 20 35  1  0  0  0  0
 21 80  1  0  0  0  0
 22 81  1  0  0  0  0
 23 25  2  0  0  0  0
 23 80  1  0  0  0  0
 24 82  1  0  0  0  0
 25 83  1  0  0  0  0
 26 64  2  0  0  0  0
 27 65  1  0  0  0  0
 27 69  1  0  0  0  0
 28 70  1  0  0  0  0
 28 75  2  0  0  0  0
 29 50  1  0  0  0  0
 29 71  1  0  0  0  0
 29 76  2  0  0  0  0
 30 61  1  0  0  0  0
 30 66  1  0  0  0  0
 30 77  2  0  0  0  0
 31 62  1  0  0  0  0
 31 72  1  0  0  0  0
 31 78  2  0  0  0  0
 32 67  1  0  0  0  0
 32 68  1  0  0  0  0
 32 79  2  0  0  0  0
 33 36  1  0  0  0  0
 34 50  1  0  0  0  0
 35 66  1  0  0  0  0
 36 38  1  0  0  0  0
 37 41  1  0  0  0  0
 37 45  1  0  0  0  0
 38 49  1  0  0  0  0
 39 42  1  0  0  0  0
 39 51  1  0  0  0  0
 40 43  1  0  0  0  0
 40 51  1  0  0  0  0
 41 52  1  0  0  0  0
 42 53  1  0  0  0  0
 43 53  1  0  0  0  0
 44 46  1  0  0  0  0
 44 54  1  0  0  0  0
 45 67  1  0  0  0  0
 46 68  1  0  0  0  0
 47 52  1  0  0  0  0
 47 67  1  0  0  0  0
 48 54  1  0  0  0  0
 48 68  1  0  0  0  0
 49 71  1  0  0  0  0
 50 66  1  0  0  0  0
 51 60  1  0  0  0  0
 52 65  1  0  0  0  0
 53 73  1  0  0  0  0
 54 73  1  0  0  0  0
 55 62  1  0  0  0  0
 56 63  1  0  0  0  0
 57 63  1  0  0  0  0
 58 63  1  0  0  0  0
 59 74  1  0  0  0  0
 60 81  1  0  0  0  0
 61 63  1  0  0  0  0
 61 72  1  0  0  0  0
 62 74  1  0  0  0  0
 64 65  1  0  0  0  0
M  CHG  2  73   1  74   1
M  ISO  4  32 100  60 101  68 100  81 101
M  END
> <Batch ID>
0126

> <Smiles>
CNC(C)C(=O)NC(C(=O)N1Cc2cc([101O:1][101CH2:1]C3CCC(NC4CC[100N:0]([100C:0](=O)N5CCCC(n6nc(-c7ccc(Oc8ccc(F)cc8F)cc7)c(C(N)=O)c6N)C5)C4)CC3)ccc2CC1C(=O)NC1CCCc2ccccc21)C(C)(C)C

> <Shape>
0.339

> <Color>
0.101

> <Negative vol penalty>
0.000

$$$$

  -OEChem-04052320383D

 87 97  0     1  0  0  0  0  0999 V2000
  -25.2342  -36.6276   22.6063 C   0  0  0  0  0  0  0  0  0  0  0  0
  -26.0294  -35.5282   22.2993 C   0  0  0  0  0  0  0  0  0  0  0  0
  -25.2471   -9.9425   22.5967 C   0  0  0  0  0  0  0  0  0  0  0  0
  -25.8425  -11.7316   24.1072 C   0  0  0  0  0  0  0  0  0  0  0  0
  -24.0088  -36.4435   23.2455 C   0  0  0  0  0  0  0  0  0  0  0  0
  -25.6001  -34.2439   22.6323 C   0  0  0  0  0  0  0  0  0  0  0  0
  -26.5886  -29.0954   19.4666 C   0  0  0  0  0  0  0  0  0  0  0  0
  -25.3226   -9.0294   23.6484 C   0  0  0  0  0  0  0  0  0  0  0  0
  -25.9180  -10.8185   25.1590 C   0  0  0  0  0  0  0  0  0  0  0  0
  -27.5257  -28.0728   19.6077 C   0  0  0  0  0  0  0  0  0  0  0  0
  -23.3983   -8.0713   26.2584 C   0  0  0  0  0  0  0  0  0  0  0  0
  -22.3719   -7.1344   26.3783 C   0  0  0  0  0  0  0  0  0  0  0  0
  -25.9179  -26.7800   20.8578 C   0  0  0  0  0  0  0  0  0  0  0  0
  -23.9764   -5.3452   26.1301 C   0  0  0  0  0  0  0  0  0  0  0  0
  -25.5071  -11.2936   22.8261 C   0  0  0  0  0  0  0  0  0  0  0  0
  -24.3056  -12.5265   20.9435 C   0  0  0  0  0  0  0  0  0  0  0  0
  -23.5599  -35.1556   23.5778 C   0  0  0  0  0  0  0  0  0  0  0  0
  -25.3105  -28.9724   20.0303 C   0  0  0  0  0  0  0  0  0  0  0  0
  -24.3682  -34.0425   23.2777 C   0  0  0  0  0  0  0  0  0  0  0  0
  -24.9655  -27.8014   20.7202 C   0  0  0  0  0  0  0  0  0  0  0  0
  -25.6580   -9.4674   24.9295 C   0  0  0  0  0  0  0  0  0  0  0  0
  -27.1914  -26.9161   20.3059 C   0  0  0  0  0  0  0  0  0  0  0  0
  -24.7136   -7.6452   26.0742 C   0  0  0  0  0  0  0  0  0  0  0  0
  -22.6610   -5.7713   26.3142 C   0  0  0  0  0  0  0  0  0  0  0  0
  -25.0027   -6.2822   26.0101 C   0  0  0  0  0  0  0  0  0  0  0  0
  -25.4298  -12.2373   21.7400 C   0  0  0  0  0  0  0  0  0  0  0  0
  -24.7465  -13.4828   20.0617 C   0  0  0  0  0  0  0  0  0  0  0  0
  -22.9813  -11.9797   20.9962 C   0  0  0  0  0  0  0  0  0  0  0  0
  -23.6687  -30.5671   22.2360 C   0  0  0  0  0  0  0  0  0  0  0  0
  -21.2706  -28.5805   21.3278 C   0  0  0  0  0  0  0  0  0  0  0  0
  -20.3429  -25.6121   19.9227 C   0  0  0  0  0  0  0  0  0  0  0  0
  -29.1643  -17.5176   20.2950 C   0  0  0  0  0  0  0  0  0  0  0  0
  -22.2498  -35.0101   24.3106 C   0  0  0  0  0  0  0  0  0  0  0  0
  -24.3022  -30.0732   19.8463 C   0  0  0  0  0  0  0  0  0  0  0  0
  -23.6001  -27.6116   21.3269 C   0  0  0  0  0  0  0  0  0  0  0  0
  -21.6967  -33.5874   24.2928 C   0  0  0  0  0  0  0  0  0  0  0  0
  -28.7074  -14.9830   17.8366 C   0  0  0  0  0  0  0  0  0  0  0  0
  -22.7937  -32.5839   24.6338 C   0  0  0  0  0  0  0  0  0  0  0  0
  -33.3664  -23.7428   22.1936 C   0  0  0  0  0  0  0  0  0  0  0  0
  -33.3243  -22.2818   22.5451 C   0  0  0  0  0  0  0  0  0  0  0  0
  -27.7142  -14.0180   18.4863 C   0  0  0  0  0  0  0  0  0  0  0  0
  -30.1025  -24.3211   21.8626 C   0  0  0  0  0  0  0  0  0  0  0  0
  -28.5296  -22.5230   22.0327 C   0  0  0  0  0  0  0  0  0  0  0  0
  -29.6800  -15.5655   18.8598 C   0  0  0  0  0  0  0  0  0  0  0  0
  -29.1675  -21.3567   24.4381 C   0  0  0  0  0  0  0  0  0  0  0  0
  -28.0493  -15.2358   20.6780 C   0  0  0  0  0  0  0  0  0  0  0  0
  -29.5030  -20.5227   25.6757 C   0  0  0  0  0  0  0  0  0  0  0  0
  -29.2766  -18.6378   24.0708 C   0  0  0  0  0  0  0  0  0  0  0  0
  -23.9258  -32.6318   23.6005 C   0  0  1  0  0  0  0  0  0  0  0  0
  -23.2011  -30.0575   20.9021 C   0  0  1  0  0  0  0  0  0  0  0  0
  -32.1905  -22.9032   21.7775 C   0  0  0  0  0  0  0  0  0  0  0  0
  -30.8514  -23.0981   22.4314 C   0  0  2  0  0  0  0  0  0  0  0  0
  -28.8362  -23.7662   21.2034 C   0  0  1  0  0  0  0  0  0  0  0  0
  -27.0124  -14.6655   19.6953 C   0  0  2  0  0  0  0  0  0  0  0  0
  -29.9121  -21.8977   22.1973 C   0  0  1  0  0  0  0  0  0  0  0  0
  -29.6320  -19.5346   22.8701 C   0  0  1  0  0  0  0  0  0  0  0  0
  -18.3126  -24.2522   19.3515 C   0  0  0  0  0  0  0  0  0  0  0  0
  -20.9564  -27.8200   24.2660 C   0  0  0  0  0  0  0  0  0  0  0  0
  -19.6282  -25.8272   23.5361 C   0  0  0  0  0  0  0  0  0  0  0  0
  -18.8030  -28.1267   23.0317 C   0  0  0  0  0  0  0  0  0  0  0  0
  -20.9870  -25.6502   17.0343 C   0  0  0  0  0  0  0  0  0  0  0  0
  -27.6945  -24.7596   21.1732 C   0  0  0  0  0  0  0  0  0  1  0  0
  -28.5345  -19.3818   21.8073 C   0  0  0  0  0  0  0  0  0  0  0  0
  -20.7903  -27.2165   21.7611 C   0  0  1  0  0  0  0  0  0  0  0  0
  -19.3167  -25.2805   18.8543 C   0  0  2  0  0  0  0  0  0  0  0  0
  -20.0709  -27.2517   23.1391 C   0  0  0  0  0  0  0  0  0  0  0  0
  -26.5041  -12.9518   21.3945 N   0  0  0  0  0  0  0  0  0  0  0  0
  -26.0570  -13.6995   20.3713 N   0  0  0  0  0  0  0  0  0  0  0  0
  -22.6511  -28.7189   21.1253 N   0  0  0  0  0  0  0  0  0  0  0  0
  -28.9508  -16.1656   19.9796 N   0  0  0  0  0  0  0  0  0  0  0  0
  -29.9425  -20.9213   23.2775 N   0  0  2  0  0  0  0  0  0  0  0  0
  -24.1371  -14.1510   19.0594 N   0  0  0  0  0  0  0  0  0  0  0  0
  -22.0308  -12.6084   21.8120 N   0  0  0  0  0  0  0  0  0  0  0  0
  -23.5383  -31.9337   22.3935 N   0  0  0  0  0  0  0  0  0  0  0  0
  -19.9664  -26.7082   20.6698 N   0  0  0  0  0  0  0  0  0  0  0  0
  -28.4285  -18.0088   21.3665 N   0  0  0  0  0  0  0  0  0  0  0  0
  -29.9639  -19.1549   25.2861 N   0  3  0  0  0  0  0  0  0  0  0  0
  -19.9892  -24.7328   17.6424 N   0  3  0  0  0  0  0  0  0  0  0  0
  -22.6550  -10.9541   20.3518 O   0  0  0  0  0  0  0  0  0  0  0  0
  -24.1136  -29.7786   23.0619 O   0  0  0  0  0  0  0  0  0  0  0  0
  -20.4503  -29.4878   21.1677 O   0  0  0  0  0  0  0  0  0  0  0  0
  -21.3734  -24.9614   20.0813 O   0  0  0  0  0  0  0  0  0  0  0  0
  -29.9484  -18.2352   19.6648 O   0  0  0  0  0  0  0  0  0  0  0  0
  -25.7316   -8.5767   25.9561 O   0  0  0  0  0  0  0  0  0  0  0  0
  -28.1044  -25.9168   20.4456 O   0  0  0  0  0  0  0  0  0  1  0  0
  -21.6755   -4.8716   26.4309 F   0  0  0  0  0  0  0  0  0  0  0  0
  -26.2646   -5.8667   25.8345 F   0  0  0  0  0  0  0  0  0  0  0  0
  1  2  1  0  0  0  0
  1  5  2  0  0  0  0
  2  6  2  0  0  0  0
  3  8  2  0  0  0  0
  3 15  1  0  0  0  0
  4  9  1  0  0  0  0
  4 15  2  0  0  0  0
  5 17  1  0  0  0  0
  6 19  1  0  0  0  0
  7 10  2  0  0  0  0
  7 18  1  0  0  0  0
  8 21  1  0  0  0  0
  9 21  2  0  0  0  0
 10 22  1  0  0  0  0
 11 12  2  0  0  0  0
 11 23  1  0  0  0  0
 12 24  1  0  0  0  0
 13 20  1  0  0  0  0
 13 22  2  0  0  0  0
 14 24  2  0  0  0  0
 14 25  1  0  0  0  0
 15 26  1  0  0  0  0
 16 26  1  0  0  0  0
 16 27  2  0  0  0  0
 16 28  1  0  0  0  0
 17 19  2  0  0  0  0
 17 33  1  0  0  0  0
 18 20  2  0  0  0  0
 18 34  1  0  0  0  0
 19 49  1  0  0  0  0
 20 35  1  0  0  0  0
 21 84  1  0  0  0  0
 22 85  1  0  0  0  0
 23 25  2  0  0  0  0
 23 84  1  0  0  0  0
 24 86  1  0  0  0  0
 25 87  1  0  0  0  0
 26 67  2  0  0  0  0
 27 68  1  0  0  0  0
 27 72  1  0  0  0  0
 28 73  1  0  0  0  0
 28 79  2  0  0  0  0
 29 50  1  0  0  0  0
 29 74  1  0  0  0  0
 29 80  2  0  0  0  0
 30 64  1  0  0  0  0
 30 69  1  0  0  0  0
 30 81  2  0  0  0  0
 31 65  1  0  0  0  0
 31 75  1  0  0  0  0
 31 82  2  0  0  0  0
 32 70  1  0  0  0  0
 32 76  1  0  0  0  0
 32 83  2  0  0  0  0
 33 36  1  0  0  0  0
 34 50  1  0  0  0  0
 35 69  1  0  0  0  0
 36 38  1  0  0  0  0
 37 41  1  0  0  0  0
 37 44  1  0  0  0  0
 38 49  1  0  0  0  0
 39 40  1  0  0  0  0
 39 51  1  0  0  0  0
 40 51  1  0  0  0  0
 41 54  1  0  0  0  0
 42 52  1  0  0  0  0
 42 53  1  0  0  0  0
 43 53  1  0  0  0  0
 43 55  1  0  0  0  0
 44 70  1  0  0  0  0
 45 47  1  0  0  0  0
 45 71  1  0  0  0  0
 46 54  1  0  0  0  0
 46 70  1  0  0  0  0
 47 77  1  0  0  0  0
 48 56  1  0  0  0  0
 48 77  1  0  0  0  0
 49 74  1  0  0  0  0
 50 69  1  0  0  0  0
 51 52  1  0  0  0  0
 52 55  1  0  0  0  0
 53 62  1  0  0  0  0
 54 68  1  0  0  0  0
 55 71  1  0  0  0  0
 56 63  1  0  0  0  0
 56 71  1  0  0  0  0
 57 65  1  0  0  0  0
 58 66  1  0  0  0  0
 59 66  1  0  0  0  0
 60 66  1  0  0  0  0
 61 78  1  0  0  0  0
 62 85  1  0  0  0  0
 63 76  1  0  0  0  0
 64 66  1  0  0  0  0
 64 75  1  0  0  0  0
 65 78  1  0  0  0  0
 67 68  1  0  0  0  0
M  CHG  2  77   1  78   1
M  ISO  4  32 100  62 101  76 100  85 101
M  END
> <Batch ID>
0126

> <Smiles>
CNC(C)C(=O)NC(C(=O)N1Cc2cc([101O:1][101CH2:1]C3CC(C4CC4)C(N4CCNCC4C[100NH:0][100C:0](=O)N4CCCC(n5nc(-c6ccc(Oc7ccc(F)cc7F)cc6)c(C(N)=O)c5N)C4)C3)ccc2CC1C(=O)NC1CCCc2ccccc21)C(C)(C)C

> <Shape>
0.244

> <Color>
0.075

> <Negative vol penalty>
0.000

$$$$

  -OEChem-04052320383D

 84 93  0     1  0  0  0  0  0999 V2000
  -26.9463  -18.8710   16.4558 C   0  0  0  0  0  0  0  0  0  0  0  0
  -27.0454  -18.4832   17.7882 C   0  0  0  0  0  0  0  0  0  0  0  0
  -26.2857  -29.2177   19.5075 C   0  0  0  0  0  0  0  0  0  0  0  0
  -26.3205  -28.5414   21.8266 C   0  0  0  0  0  0  0  0  0  0  0  0
  -25.8167  -18.5288   15.7136 C   0  0  0  0  0  0  0  0  0  0  0  0
  -26.0144  -17.7539   18.3795 C   0  0  0  0  0  0  0  0  0  0  0  0
  -27.7202  -13.8667   21.1408 C   0  0  0  0  0  0  0  0  0  0  0  0
  -28.2375  -20.2019   25.0808 C   0  0  0  0  0  0  0  0  0  0  0  0
  -27.9023  -18.4311   23.4718 C   0  0  0  0  0  0  0  0  0  0  0  0
  -28.6207  -21.0634   24.0529 C   0  0  0  0  0  0  0  0  0  0  0  0
  -28.2854  -19.2926   22.4438 C   0  0  0  0  0  0  0  0  0  0  0  0
  -25.1316  -29.9649   19.7427 C   0  0  0  0  0  0  0  0  0  0  0  0
  -25.1664  -29.2887   22.0618 C   0  0  0  0  0  0  0  0  0  0  0  0
  -28.2291  -14.1589   22.4055 C   0  0  0  0  0  0  0  0  0  0  0  0
  -24.3591  -32.5329   22.5557 C   0  0  0  0  0  0  0  0  0  0  0  0
  -24.3278  -33.3315   23.6988 C   0  0  0  0  0  0  0  0  0  0  0  0
  -26.1418  -13.4683   23.3983 C   0  0  0  0  0  0  0  0  0  0  0  0
  -22.4043  -32.1088   24.5003 C   0  0  0  0  0  0  0  0  0  0  0  0
  -26.8801  -28.5059   20.5494 C   0  0  0  0  0  0  0  0  0  0  0  0
  -29.4055  -28.1714   20.4149 C   0  0  0  0  0  0  0  0  0  0  0  0
  -24.7757  -17.7866   16.2934 C   0  0  0  0  0  0  0  0  0  0  0  0
  -26.4123  -13.3826   20.9943 C   0  0  0  0  0  0  0  0  0  0  0  0
  -24.8692  -17.4026   17.6447 C   0  0  0  0  0  0  0  0  0  0  0  0
  -25.6196  -13.1683   22.1309 C   0  0  0  0  0  0  0  0  0  0  0  0
  -27.8784  -18.8857   24.7903 C   0  0  0  0  0  0  0  0  0  0  0  0
  -28.6446  -20.6088   22.7344 C   0  0  0  0  0  0  0  0  0  0  0  0
  -24.5720  -30.0004   21.0198 C   0  0  0  0  0  0  0  0  0  0  0  0
  -27.4389  -13.9624   23.5343 C   0  0  0  0  0  0  0  0  0  0  0  0
  -23.4130  -31.5222   22.3848 C   0  0  0  0  0  0  0  0  0  0  0  0
  -23.3504  -33.1195   24.6711 C   0  0  0  0  0  0  0  0  0  0  0  0
  -22.4356  -31.3102   23.3571 C   0  0  0  0  0  0  0  0  0  0  0  0
  -28.0720  -27.7334   20.3070 C   0  0  0  0  0  0  0  0  0  0  0  0
  -30.1565  -27.0702   20.0834 C   0  0  0  0  0  0  0  0  0  0  0  0
  -29.9195  -29.4585   20.7821 C   0  0  0  0  0  0  0  0  0  0  0  0
  -23.7812  -14.4303   19.5510 C   0  0  0  0  0  0  0  0  0  0  0  0
  -22.6196  -11.5280   20.4169 C   0  0  0  0  0  0  0  0  0  0  0  0
  -22.7959   -8.8471   22.5214 C   0  0  0  0  0  0  0  0  0  0  0  0
  -29.1114  -21.1920   20.3285 C   0  0  0  0  0  0  0  0  0  0  0  0
  -23.5532  -17.4810   15.4647 C   0  0  0  0  0  0  0  0  0  0  0  0
  -25.8875  -13.0469   19.6252 C   0  0  0  0  0  0  0  0  0  0  0  0
  -24.2161  -12.6313   22.0291 C   0  0  0  0  0  0  0  0  0  0  0  0
  -22.6729  -16.3846   16.0590 C   0  0  0  0  0  0  0  0  0  0  0  0
  -29.9881  -23.0803   17.4401 C   0  0  0  0  0  0  0  0  0  0  0  0
  -29.7010  -16.1223   27.8961 C   0  0  0  0  0  0  0  0  0  0  0  0
  -22.4544  -16.6247   17.5494 C   0  0  0  0  0  0  0  0  0  0  0  0
  -29.7234  -24.5282   17.8594 C   0  0  0  0  0  0  0  0  0  0  0  0
  -28.8633  -14.9330   27.4700 C   0  0  0  0  0  0  0  0  0  0  0  0
  -28.9551  -22.1214   18.0292 C   0  0  0  0  0  0  0  0  0  0  0  0
  -28.5192  -23.6588   19.9042 C   0  0  0  0  0  0  0  0  0  0  0  0
  -29.6791  -17.0297   26.6811 C   0  0  0  0  0  0  0  0  0  0  0  0
  -23.7829  -16.5894   18.3145 C   0  0  1  0  0  0  0  0  0  0  0  0
  -24.3636  -13.0452   19.5534 C   0  0  1  0  0  0  0  0  0  0  0  0
  -29.5718  -24.6534   19.3881 C   0  0  2  0  0  0  0  0  0  0  0  0
  -27.6968  -15.5871   26.7446 C   0  0  2  0  0  0  0  0  0  0  0  0
  -21.6903   -6.6471   23.0060 C   0  0  0  0  0  0  0  0  0  0  0  0
  -20.2856  -12.9925   21.7276 C   0  0  0  0  0  0  0  0  0  0  0  0
  -19.7547  -10.8867   22.9734 C   0  0  0  0  0  0  0  0  0  0  0  0
  -19.6490  -10.9198   20.4814 C   0  0  0  0  0  0  0  0  0  0  0  0
  -25.2897   -7.3447   21.9893 C   0  0  0  0  0  0  0  0  0  0  0  0
  -27.4664  -17.9592   25.8960 C   0  0  0  0  0  0  0  0  0  0  0  0
  -26.9972  -14.6652   25.7630 C   0  0  0  0  0  0  0  0  0  1  0  0
  -21.9018  -10.9815   21.6274 C   0  0  1  0  0  0  0  0  0  0  0  0
  -22.8057   -7.3534   22.2511 C   0  0  2  0  0  0  0  0  0  0  0  0
  -20.4235  -11.4571   21.7045 C   0  0  0  0  0  0  0  0  0  0  0  0
  -27.9780  -26.4538   19.9358 N   0  0  0  0  0  0  0  0  0  0  0  0
  -29.2620  -26.0783   19.8075 N   0  0  0  0  0  0  0  0  0  0  0  0
  -23.7460  -12.3241   20.6682 N   0  0  0  0  0  0  0  0  0  0  0  0
  -28.8691  -22.2938   19.4810 N   0  0  0  0  0  0  0  0  0  0  0  0
  -31.4882  -26.8633   20.0038 N   0  0  0  0  0  0  0  0  0  0  0  0
  -29.0089  -30.4779   21.0922 N   0  0  0  0  0  0  0  0  0  0  0  0
  -29.0334  -21.4838   21.6899 N   0  0  0  0  0  0  0  0  0  0  0  0
  -24.2190  -15.2230   18.5073 N   0  0  0  0  0  0  0  0  0  0  0  0
  -22.0614   -9.5322   21.5768 N   0  0  0  0  0  0  0  0  0  0  0  0
  -28.3457  -16.7511   26.0079 N   0  3  1  0  0  0  0  0  0  0  0  0
  -24.1065   -6.7595   22.6709 N   0  3  0  0  0  0  0  0  0  0  0  0
  -31.1494  -29.7023   20.8177 O   0  0  0  0  0  0  0  0  0  0  0  0
  -22.9917  -14.7552   20.4302 O   0  0  0  0  0  0  0  0  0  0  0  0
  -22.2006  -11.2526   19.2899 O   0  0  0  0  0  0  0  0  0  0  0  0
  -23.3784   -9.3550   23.4771 O   0  0  0  0  0  0  0  0  0  0  0  0
  -29.3957  -20.0785   19.8800 O   0  0  0  0  0  0  0  0  0  0  0  0
  -23.4459  -30.7296   21.2497 O   0  0  0  0  0  0  0  0  0  0  0  0
  -27.9329  -14.2475   24.7698 O   0  0  0  0  0  0  0  0  0  1  0  0
  -23.3213  -33.8855   25.7696 F   0  0  0  0  0  0  0  0  0  0  0  0
  -21.5248  -30.3400   23.1991 F   0  0  0  0  0  0  0  0  0  0  0  0
  1  2  1  0  0  0  0
  1  5  2  0  0  0  0
  2  6  2  0  0  0  0
  3 12  2  0  0  0  0
  3 19  1  0  0  0  0
  4 13  1  0  0  0  0
  4 19  2  0  0  0  0
  5 21  1  0  0  0  0
  6 23  1  0  0  0  0
  7 14  2  0  0  0  0
  7 22  1  0  0  0  0
  8 10  2  0  0  0  0
  8 25  1  0  0  0  0
  9 11  1  0  0  0  0
  9 25  2  0  0  0  0
 10 26  1  0  0  0  0
 11 26  2  0  0  0  0
 12 27  1  0  0  0  0
 13 27  2  0  0  0  0
 14 28  1  0  0  0  0
 15 16  2  0  0  0  0
 15 29  1  0  0  0  0
 16 30  1  0  0  0  0
 17 24  1  0  0  0  0
 17 28  2  0  0  0  0
 18 30  2  0  0  0  0
 18 31  1  0  0  0  0
 19 32  1  0  0  0  0
 20 32  1  0  0  0  0
 20 33  2  0  0  0  0
 20 34  1  0  0  0  0
 21 23  2  0  0  0  0
 21 39  1  0  0  0  0
 22 24  2  0  0  0  0
 22 40  1  0  0  0  0
 23 51  1  0  0  0  0
 24 41  1  0  0  0  0
 25 60  1  0  0  0  0
 26 71  1  0  0  0  0
 27 81  1  0  0  0  0
 28 82  1  0  0  0  0
 29 31  2  0  0  0  0
 29 81  1  0  0  0  0
 30 83  1  0  0  0  0
 31 84  1  0  0  0  0
 32 65  2  0  0  0  0
 33 66  1  0  0  0  0
 33 69  1  0  0  0  0
 34 70  1  0  0  0  0
 34 76  2  0  0  0  0
 35 52  1  0  0  0  0
 35 72  1  0  0  0  0
 35 77  2  0  0  0  0
 36 62  1  0  0  0  0
 36 67  1  0  0  0  0
 36 78  2  0  0  0  0
 37 63  1  0  0  0  0
 37 73  1  0  0  0  0
 37 79  2  0  0  0  0
 38 68  1  0  0  0  0
 38 71  1  0  0  0  0
 38 80  2  0  0  0  0
 39 42  1  0  0  0  0
 40 52  1  0  0  0  0
 41 67  1  0  0  0  0
 42 45  1  0  0  0  0
 43 46  1  0  0  0  0
 43 48  1  0  0  0  0
 44 47  1  0  0  0  0
 44 50  1  0  0  0  0
 45 51  1  0  0  0  0
 46 53  1  0  0  0  0
 47 54  1  0  0  0  0
 48 68  1  0  0  0  0
 49 53  1  0  0  0  0
 49 68  1  0  0  0  0
 50 74  1  0  0  0  0
 51 72  1  0  0  0  0
 52 67  1  0  0  0  0
 53 66  1  0  0  0  0
 54 61  1  0  0  0  0
 54 74  1  0  0  0  0
 55 63  1  0  0  0  0
 56 64  1  0  0  0  0
 57 64  1  0  0  0  0
 58 64  1  0  0  0  0
 59 75  1  0  0  0  0
 60 74  1  0  0  0  0
 61 82  1  0  0  0  0
 62 64  1  0  0  0  0
 62 73  1  0  0  0  0
 63 75  1  0  0  0  0
 65 66  1  0  0  0  0
M  CHG  2  74   1  75   1
M  ISO  4  38 100  61 101  71 100  82 101
M  END
> <Batch ID>
0126

> <Smiles>
CNC(C)C(=O)NC(C(=O)N1Cc2cc([101O:1][101CH2:1]C3CCCN3Cc3ccc([100NH:0][100C:0](=O)N4CCCC(n5nc(-c6ccc(Oc7ccc(F)cc7F)cc6)c(C(N)=O)c5N)C4)cc3)ccc2CC1C(=O)NC1CCCc2ccccc21)C(C)(C)C

> <Shape>
0.228

> <Color>
0.067

> <Negative vol penalty>
0.000

$$$$

  -OEChem-04052320383D

 87 96  0     1  0  0  0  0  0999 V2000
  -31.5604  -21.4673   19.8899 C   0  0  0  0  0  0  0  0  0  0  0  0
  -30.3588  -22.0148   20.3276 C   0  0  0  0  0  0  0  0  0  0  0  0
  -28.9204  -28.3802   19.8715 C   0  0  0  0  0  0  0  0  0  0  0  0
  -27.4567  -26.4633   20.0135 C   0  0  0  0  0  0  0  0  0  0  0  0
  -31.5532  -20.3526   19.0524 C   0  0  0  0  0  0  0  0  0  0  0  0
  -29.1490  -21.4486   19.9272 C   0  0  0  0  0  0  0  0  0  0  0  0
  -23.9977  -21.0620   23.2166 C   0  0  0  0  0  0  0  0  0  0  0  0
  -30.0087  -27.5336   19.6607 C   0  0  0  0  0  0  0  0  0  0  0  0
  -28.5451  -25.6167   19.8026 C   0  0  0  0  0  0  0  0  0  0  0  0
  -22.8374  -21.8348   23.2367 C   0  0  0  0  0  0  0  0  0  0  0  0
  -33.1155  -25.8939   18.7256 C   0  0  0  0  0  0  0  0  0  0  0  0
  -34.0155  -26.2339   17.7156 C   0  0  0  0  0  0  0  0  0  0  0  0
  -21.7788  -20.2738   21.7327 C   0  0  0  0  0  0  0  0  0  0  0  0
  -32.2350  -26.1104   16.0873 C   0  0  0  0  0  0  0  0  0  0  0  0
  -27.6444  -27.8450   20.0479 C   0  0  0  0  0  0  0  0  0  0  0  0
  -25.6816  -29.2864   19.2879 C   0  0  0  0  0  0  0  0  0  0  0  0
  -30.3429  -19.7666   18.6493 C   0  0  0  0  0  0  0  0  0  0  0  0
  -24.0610  -19.8932   22.4445 C   0  0  0  0  0  0  0  0  0  0  0  0
  -29.1255  -20.3259   19.0824 C   0  0  0  0  0  0  0  0  0  0  0  0
  -22.9402  -19.4866   21.7065 C   0  0  0  0  0  0  0  0  0  0  0  0
  -29.8211  -26.1518   19.6263 C   0  0  0  0  0  0  0  0  0  0  0  0
  -21.7288  -21.4423   22.4925 C   0  0  0  0  0  0  0  0  0  0  0  0
  -31.7752  -25.6621   18.4164 C   0  0  0  0  0  0  0  0  0  0  0  0
  -33.5753  -26.3421   16.3965 C   0  0  0  0  0  0  0  0  0  0  0  0
  -31.3350  -25.7703   17.0973 C   0  0  0  0  0  0  0  0  0  0  0  0
  -26.5199  -28.7190   20.2663 C   0  0  0  0  0  0  0  0  0  0  0  0
  -24.7749  -30.0306   20.0023 C   0  0  0  0  0  0  0  0  0  0  0  0
  -25.7192  -29.1526   17.8609 C   0  0  0  0  0  0  0  0  0  0  0  0
  -25.8324  -18.9183   19.9918 C   0  0  0  0  0  0  0  0  0  0  0  0
  -24.2717  -16.1170   20.4813 C   0  0  0  0  0  0  0  0  0  0  0  0
  -21.5248  -14.5072   21.7100 C   0  0  0  0  0  0  0  0  0  0  0  0
  -22.7321  -29.6746   25.6194 C   0  0  0  0  0  0  0  0  0  0  0  0
  -30.3845  -18.5913   17.7051 C   0  0  0  0  0  0  0  0  0  0  0  0
  -25.3108  -19.0564   22.4545 C   0  0  0  0  0  0  0  0  0  0  0  0
  -22.9501  -18.2294   20.8773 C   0  0  0  0  0  0  0  0  0  0  0  0
  -29.0671  -17.8238   17.6294 C   0  0  0  0  0  0  0  0  0  0  0  0
  -24.3283  -32.4683   24.0949 C   0  0  0  0  0  0  0  0  0  0  0  0
  -15.5010  -24.9339   20.6795 C   0  0  0  0  0  0  0  0  0  0  0  0
  -15.3575  -26.3567   20.1780 C   0  0  0  0  0  0  0  0  0  0  0  0
  -27.8951  -18.7887   17.4797 C   0  0  0  0  0  0  0  0  0  0  0  0
  -24.9954  -31.8754   22.8526 C   0  0  0  0  0  0  0  0  0  0  0  0
  -18.8422  -28.1149   21.5124 C   0  0  0  0  0  0  0  0  0  0  0  0
  -24.3711  -31.4999   25.2749 C   0  0  0  0  0  0  0  0  0  0  0  0
  -24.4928  -29.5654   23.7528 C   0  0  0  0  0  0  0  0  0  0  0  0
  -16.9870  -24.8265   20.9463 C   0  0  0  0  0  0  0  0  0  0  0  0
  -16.2756  -27.1607   21.0819 C   0  0  0  0  0  0  0  0  0  0  0  0
  -18.7477  -28.4935   22.9854 C   0  0  0  0  0  0  0  0  0  0  0  0
  -19.6277  -26.2305   23.6353 C   0  0  0  0  0  0  0  0  0  0  0  0
  -27.7933  -19.7250   18.6899 C   0  0  1  0  0  0  0  0  0  0  0  0
  -25.4391  -18.1591   21.2274 C   0  0  1  0  0  0  0  0  0  0  0  0
  -19.7327  -25.8337   22.1589 C   0  0  2  0  0  0  0  0  0  0  0  0
  -24.4251  -30.4834   22.5203 C   0  0  2  0  0  0  0  0  0  0  0  0
  -18.7387  -26.6073   21.2738 C   0  0  1  0  0  0  0  0  0  0  0  0
  -20.5159  -12.2200   21.9293 C   0  0  0  0  0  0  0  0  0  0  0  0
  -23.4898  -16.1818   17.5326 C   0  0  0  0  0  0  0  0  0  0  0  0
  -21.7504  -14.4504   18.0277 C   0  0  0  0  0  0  0  0  0  0  0  0
  -24.1637  -13.9289   18.3840 C   0  0  0  0  0  0  0  0  0  0  0  0
  -21.5405  -14.6569   24.6657 C   0  0  0  0  0  0  0  0  0  0  0  0
  -21.1493  -27.7747   25.8299 C   0  0  0  0  0  0  0  0  0  0  0  0
  -19.8173  -28.1548   25.2107 C   0  0  0  0  0  0  0  0  0  0  0  0
  -20.7512  -23.5994   22.7102 C   0  0  0  0  0  0  0  0  0  1  0  0
  -22.9885  -15.5052   19.9733 C   0  0  1  0  0  0  0  0  0  0  0  0
  -21.3874  -13.2773   22.5891 C   0  0  2  0  0  0  0  0  0  0  0  0
  -19.6090  -24.3262   22.0110 C   0  0  2  0  0  0  0  0  0  0  0  0
  -23.0982  -15.0414   18.4934 C   0  0  0  0  0  0  0  0  0  0  0  0
  -26.1763  -29.0727   21.5076 N   0  0  0  0  0  0  0  0  0  0  0  0
  -25.1122  -29.8703   21.3141 N   0  0  0  0  0  0  0  0  0  0  0  0
  -24.1976  -17.4484   20.9147 N   0  0  0  0  0  0  0  0  0  0  0  0
  -23.8144  -30.1995   24.8941 N   0  0  0  0  0  0  0  0  0  0  0  0
  -23.7300  -30.8000   19.6302 N   0  0  0  0  0  0  0  0  0  0  0  0
  -26.7167  -28.3496   17.2912 N   0  0  0  0  0  0  0  0  0  0  0  0
  -27.1978  -19.0350   19.8140 N   0  0  0  0  0  0  0  0  0  0  0  0
  -22.6455  -14.4402   20.9095 N   0  0  0  0  0  0  0  0  0  0  0  0
  -22.2613  -28.4403   25.1886 N   0  0  0  0  0  0  0  0  0  0  0  0
  -17.3333  -26.1738   21.5414 N   0  3  0  0  0  0  0  0  0  0  0  0
  -19.7861  -27.7278   23.7685 N   0  3  2  0  0  0  0  0  0  0  0  0
  -20.7744  -13.6419   23.8977 N   0  3  0  0  0  0  0  0  0  0  0  0
  -24.9028  -29.7411   17.1122 O   0  0  0  0  0  0  0  0  0  0  0  0
  -24.9616  -19.3638   19.2536 O   0  0  0  0  0  0  0  0  0  0  0  0
  -25.3003  -15.4364   20.4997 O   0  0  0  0  0  0  0  0  0  0  0  0
  -20.7166  -15.4330   21.7286 O   0  0  0  0  0  0  0  0  0  0  0  0
  -22.2197  -30.2648   26.5765 O   0  0  0  0  0  0  0  0  0  0  0  0
  -19.6391  -24.0182   20.6181 O   0  0  0  0  0  0  0  0  0  0  0  0
  -30.8828  -25.3254   19.4203 O   0  0  0  0  0  0  0  0  0  0  0  0
  -20.5952  -22.1951   22.5098 O   0  0  0  0  0  0  0  0  0  1  0  0
  -34.4393  -26.6701   15.4270 F   0  0  0  0  0  0  0  0  0  0  0  0
  -30.0483  -25.5500   16.7943 F   0  0  0  0  0  0  0  0  0  0  0  0
  1  2  1  0  0  0  0
  1  5  2  0  0  0  0
  2  6  2  0  0  0  0
  3  8  2  0  0  0  0
  3 15  1  0  0  0  0
  4  9  1  0  0  0  0
  4 15  2  0  0  0  0
  5 17  1  0  0  0  0
  6 19  1  0  0  0  0
  7 10  2  0  0  0  0
  7 18  1  0  0  0  0
  8 21  1  0  0  0  0
  9 21  2  0  0  0  0
 10 22  1  0  0  0  0
 11 12  2  0  0  0  0
 11 23  1  0  0  0  0
 12 24  1  0  0  0  0
 13 20  1  0  0  0  0
 13 22  2  0  0  0  0
 14 24  2  0  0  0  0
 14 25  1  0  0  0  0
 15 26  1  0  0  0  0
 16 26  1  0  0  0  0
 16 27  2  0  0  0  0
 16 28  1  0  0  0  0
 17 19  2  0  0  0  0
 17 33  1  0  0  0  0
 18 20  2  0  0  0  0
 18 34  1  0  0  0  0
 19 49  1  0  0  0  0
 20 35  1  0  0  0  0
 21 84  1  0  0  0  0
 22 85  1  0  0  0  0
 23 25  2  0  0  0  0
 23 84  1  0  0  0  0
 24 86  1  0  0  0  0
 25 87  1  0  0  0  0
 26 66  2  0  0  0  0
 27 67  1  0  0  0  0
 27 70  1  0  0  0  0
 28 71  1  0  0  0  0
 28 78  2  0  0  0  0
 29 50  1  0  0  0  0
 29 72  1  0  0  0  0
 29 79  2  0  0  0  0
 30 62  1  0  0  0  0
 30 68  1  0  0  0  0
 30 80  2  0  0  0  0
 31 63  1  0  0  0  0
 31 73  1  0  0  0  0
 31 81  2  0  0  0  0
 32 69  1  0  0  0  0
 32 74  1  0  0  0  0
 32 82  2  0  0  0  0
 33 36  1  0  0  0  0
 34 50  1  0  0  0  0
 35 68  1  0  0  0  0
 36 40  1  0  0  0  0
 37 41  1  0  0  0  0
 37 43  1  0  0  0  0
 38 39  1  0  0  0  0
 38 45  1  0  0  0  0
 39 46  1  0  0  0  0
 40 49  1  0  0  0  0
 41 52  1  0  0  0  0
 42 47  1  0  0  0  0
 42 53  1  0  0  0  0
 43 69  1  0  0  0  0
 44 52  1  0  0  0  0
 44 69  1  0  0  0  0
 45 75  1  0  0  0  0
 46 75  1  0  0  0  0
 47 76  1  0  0  0  0
 48 51  1  0  0  0  0
 48 76  1  0  0  0  0
 49 72  1  0  0  0  0
 50 68  1  0  0  0  0
 51 53  1  0  0  0  0
 51 64  1  0  0  0  0
 52 67  1  0  0  0  0
 53 75  1  0  0  0  0
 54 63  1  0  0  0  0
 55 65  1  0  0  0  0
 56 65  1  0  0  0  0
 57 65  1  0  0  0  0
 58 77  1  0  0  0  0
 59 60  1  0  0  0  0
 59 74  1  0  0  0  0
 60 76  1  0  0  0  0
 61 64  1  0  0  0  0
 61 85  1  0  0  0  0
 62 65  1  0  0  0  0
 62 73  1  0  0  0  0
 63 77  1  0  0  0  0
 64 83  1  0  0  0  0
 66 67  1  0  0  0  0
M  CHG  3  75   1  76   1  77   1
M  ISO  4  32 100  61 101  74 100  85 101
M  END
> <Batch ID>
0126

> <Smiles>
CNC(C)C(=O)NC(C(=O)N1Cc2cc([101O:1][101CH2:1]C(O)C3CN(CC[100NH:0][100C:0](=O)N4CCCC(n5nc(-c6ccc(Oc7ccc(F)cc7F)cc6)c(C(N)=O)c5N)C4)CCC3N3CCCC3)ccc2CC1C(=O)NC1CCCc2ccccc21)C(C)(C)C

> <Shape>
0.207

> <Color>
0.054

> <Negative vol penalty>
0.000

$$$$

  -OEChem-04052320383D

 85 94  0     1  0  0  0  0  0999 V2000
  -23.7678  -30.2659   21.8354 C   0  0  0  0  0  0  0  0  0  0  0  0
  -23.1084  -29.0596   22.0487 C   0  0  0  0  0  0  0  0  0  0  0  0
  -28.8610  -12.6125   20.9415 C   0  0  0  0  0  0  0  0  0  0  0  0
  -28.2078  -12.7014   18.6172 C   0  0  0  0  0  0  0  0  0  0  0  0
  -24.9429  -30.2935   21.0854 C   0  0  0  0  0  0  0  0  0  0  0  0
  -23.6232  -27.8804   21.5112 C   0  0  0  0  0  0  0  0  0  0  0  0
  -23.4024  -22.2926   24.0081 C   0  0  0  0  0  0  0  0  0  0  0  0
  -18.8572  -17.9392   22.5112 C   0  0  0  0  0  0  0  0  0  0  0  0
  -18.1604  -16.7718   22.1993 C   0  0  0  0  0  0  0  0  0  0  0  0
  -30.2009  -12.5341   20.5620 C   0  0  0  0  0  0  0  0  0  0  0  0
  -29.5478  -12.6230   18.2376 C   0  0  0  0  0  0  0  0  0  0  0  0
  -22.5551  -21.2052   23.8002 C   0  0  0  0  0  0  0  0  0  0  0  0
  -33.7712  -11.9481   20.1964 C   0  0  0  0  0  0  0  0  0  0  0  0
  -34.5759  -11.0096   20.8422 C   0  0  0  0  0  0  0  0  0  0  0  0
  -20.6862  -16.6171   23.3738 C   0  0  0  0  0  0  0  0  0  0  0  0
  -24.1574  -20.2577   22.2658 C   0  0  0  0  0  0  0  0  0  0  0  0
  -33.1368   -9.2351   20.0565 C   0  0  0  0  0  0  0  0  0  0  0  0
  -27.8644  -12.6961   19.9691 C   0  0  0  0  0  0  0  0  0  0  0  0
  -25.7349  -13.9436   20.6144 C   0  0  0  0  0  0  0  0  0  0  0  0
  -25.4775  -29.1127   20.5465 C   0  0  0  0  0  0  0  0  0  0  0  0
  -24.6309  -22.3763   23.3369 C   0  0  0  0  0  0  0  0  0  0  0  0
  -24.8057  -27.8925   20.7522 C   0  0  0  0  0  0  0  0  0  0  0  0
  -19.9893  -15.4497   23.0620 C   0  0  0  0  0  0  0  0  0  0  0  0
  -25.0196  -21.3460   22.4689 C   0  0  0  0  0  0  0  0  0  0  0  0
  -20.1201  -17.8618   23.0984 C   0  0  0  0  0  0  0  0  0  0  0  0
  -18.7265  -15.5271   22.4747 C   0  0  0  0  0  0  0  0  0  0  0  0
  -30.5443  -12.5394   19.2101 C   0  0  0  0  0  0  0  0  0  0  0  0
  -22.9312  -20.1889   22.9267 C   0  0  0  0  0  0  0  0  0  0  0  0
  -32.6492  -11.5302   19.4807 C   0  0  0  0  0  0  0  0  0  0  0  0
  -34.2587   -9.6531   20.7723 C   0  0  0  0  0  0  0  0  0  0  0  0
  -32.3321  -10.1737   19.4107 C   0  0  0  0  0  0  0  0  0  0  0  0
  -26.4801  -12.7765   20.3605 C   0  0  0  0  0  0  0  0  0  0  0  0
  -24.4834  -13.4862   20.9477 C   0  0  0  0  0  0  0  0  0  0  0  0
  -26.1378  -15.3183   20.5542 C   0  0  0  0  0  0  0  0  0  0  0  0
  -25.9141  -24.4032   21.2516 C   0  0  0  0  0  0  0  0  0  0  0  0
  -28.5574  -22.5756   21.6935 C   0  0  0  0  0  0  0  0  0  0  0  0
  -29.8777  -19.5631   22.6040 C   0  0  0  0  0  0  0  0  0  0  0  0
  -20.1457  -10.0902   20.0552 C   0  0  0  0  0  0  0  0  0  0  0  0
  -26.7246  -29.1993   19.7028 C   0  0  0  0  0  0  0  0  0  0  0  0
  -25.5454  -23.5428   23.5925 C   0  0  0  0  0  0  0  0  0  0  0  0
  -26.3370  -21.3784   21.7395 C   0  0  0  0  0  0  0  0  0  0  0  0
  -27.4063  -27.8512   19.4834 C   0  0  0  0  0  0  0  0  0  0  0  0
  -22.8541   -8.8098   21.9791 C   0  0  0  0  0  0  0  0  0  0  0  0
  -20.2818  -13.4438   24.6635 C   0  0  0  0  0  0  0  0  0  0  0  0
  -21.6404  -14.0387   24.4624 C   0  0  0  0  0  0  0  0  0  0  0  0
  -26.3808  -26.7916   19.0929 C   0  0  0  0  0  0  0  0  0  0  0  0
  -23.9786   -9.8202   21.7454 C   0  0  0  0  0  0  0  0  0  0  0  0
  -22.0110   -8.6031   20.7228 C   0  0  0  0  0  0  0  0  0  0  0  0
  -22.5937  -10.8506   19.8964 C   0  0  0  0  0  0  0  0  0  0  0  0
  -20.6144  -14.1279   23.3645 C   0  0  0  0  0  0  0  0  0  0  0  0
  -25.3461  -26.5886   20.2064 C   0  0  1  0  0  0  0  0  0  0  0  0
  -26.5443  -23.7774   22.4635 C   0  0  1  0  0  0  0  0  0  0  0  0
  -23.4371  -11.1343   21.1512 C   0  0  2  0  0  0  0  0  0  0  0  0
  -32.0680  -18.3588   22.8269 C   0  0  0  0  0  0  0  0  0  0  0  0
  -28.6765  -22.2364   18.6636 C   0  0  0  0  0  0  0  0  0  0  0  0
  -30.2433  -20.3146   19.0102 C   0  0  0  0  0  0  0  0  0  0  0  0
  -30.8940  -22.6030   19.7602 C   0  0  0  0  0  0  0  0  0  0  0  0
  -29.4938  -19.1622   25.5110 C   0  0  0  0  0  0  0  0  0  0  0  0
  -17.9601  -14.2920   22.1302 C   0  0  0  0  0  0  0  0  0  0  0  0
  -20.8693  -19.1178   23.4339 C   0  0  0  0  0  0  0  0  0  1  0  0
  -18.3870  -11.6984   19.3625 C   0  0  0  0  0  0  0  0  0  0  0  0
  -17.7672  -12.3319   20.5941 C   0  0  0  0  0  0  0  0  0  0  0  0
  -29.1211  -21.3359   21.0421 C   0  0  1  0  0  0  0  0  0  0  0  0
  -31.0216  -19.2049   23.5354 C   0  0  2  0  0  0  0  0  0  0  0  0
  -29.7080  -21.6225   19.6311 C   0  0  0  0  0  0  0  0  0  0  0  0
  -25.7620  -11.6615   20.5192 N   0  0  0  0  0  0  0  0  0  0  0  0
  -24.5525  -12.1259   20.8764 N   0  0  0  0  0  0  0  0  0  0  0  0
  -27.1937  -22.5429   22.0178 N   0  0  0  0  0  0  0  0  0  0  0  0
  -21.5269   -9.8874   20.2107 N   0  0  0  0  0  0  0  0  0  0  0  0
  -23.3417  -14.1188   21.2921 N   0  0  0  0  0  0  0  0  0  0  0  0
  -27.4602  -15.6117   20.1945 N   0  0  0  0  0  0  0  0  0  0  0  0
  -25.9030  -25.7848   21.2733 N   0  0  0  0  0  0  0  0  0  0  0  0
  -30.0828  -20.7793   21.9875 N   0  0  0  0  0  0  0  0  0  0  0  0
  -19.7716  -11.3374   19.5703 N   0  0  0  0  0  0  0  0  0  0  0  0
  -30.5138  -18.4390   24.7087 N   0  3  0  0  0  0  0  0  0  0  0  0
  -18.4795  -13.5947   20.9226 N   0  3  0  0  0  0  0  0  0  0  0  0
  -25.3530  -16.2579   20.8276 O   0  0  0  0  0  0  0  0  0  0  0  0
  -25.4721  -23.6857   20.3619 O   0  0  0  0  0  0  0  0  0  0  0  0
  -29.3012  -23.5347   21.9133 O   0  0  0  0  0  0  0  0  0  0  0  0
  -28.9017  -18.8351   22.4369 O   0  0  0  0  0  0  0  0  0  0  0  0
  -19.3076   -9.2257   20.3334 O   0  0  0  0  0  0  0  0  0  0  0  0
  -31.8517  -12.4632   18.8394 O   0  0  0  0  0  0  0  0  0  0  0  0
  -22.1057  -19.1267   22.7215 O   0  0  0  0  0  0  0  0  0  1  0  0
  -35.0325   -8.7517   21.3912 F   0  0  0  0  0  0  0  0  0  0  0  0
  -31.2562   -9.7660   18.7236 F   0  0  0  0  0  0  0  0  0  0  0  0
  1  2  1  0  0  0  0
  1  5  2  0  0  0  0
  2  6  2  0  0  0  0
  3 10  2  0  0  0  0
  3 18  1  0  0  0  0
  4 11  1  0  0  0  0
  4 18  2  0  0  0  0
  5 20  1  0  0  0  0
  6 22  1  0  0  0  0
  7 12  2  0  0  0  0
  7 21  1  0  0  0  0
  8  9  2  0  0  0  0
  8 25  1  0  0  0  0
  9 26  1  0  0  0  0
 10 27  1  0  0  0  0
 11 27  2  0  0  0  0
 12 28  1  0  0  0  0
 13 14  2  0  0  0  0
 13 29  1  0  0  0  0
 14 30  1  0  0  0  0
 15 23  1  0  0  0  0
 15 25  2  0  0  0  0
 16 24  1  0  0  0  0
 16 28  2  0  0  0  0
 17 30  2  0  0  0  0
 17 31  1  0  0  0  0
 18 32  1  0  0  0  0
 19 32  1  0  0  0  0
 19 33  2  0  0  0  0
 19 34  1  0  0  0  0
 20 22  2  0  0  0  0
 20 39  1  0  0  0  0
 21 24  2  0  0  0  0
 21 40  1  0  0  0  0
 22 51  1  0  0  0  0
 23 26  2  0  0  0  0
 23 50  1  0  0  0  0
 24 41  1  0  0  0  0
 25 60  1  0  0  0  0
 26 59  1  0  0  0  0
 27 82  1  0  0  0  0
 28 83  1  0  0  0  0
 29 31  2  0  0  0  0
 29 82  1  0  0  0  0
 30 84  1  0  0  0  0
 31 85  1  0  0  0  0
 32 66  2  0  0  0  0
 33 67  1  0  0  0  0
 33 70  1  0  0  0  0
 34 71  1  0  0  0  0
 34 77  2  0  0  0  0
 35 52  1  0  0  0  0
 35 72  1  0  0  0  0
 35 78  2  0  0  0  0
 36 63  1  0  0  0  0
 36 68  1  0  0  0  0
 36 79  2  0  0  0  0
 37 64  1  0  0  0  0
 37 73  1  0  0  0  0
 37 80  2  0  0  0  0
 38 69  1  0  0  0  0
 38 74  1  0  0  0  0
 38 81  2  0  0  0  0
 39 42  1  0  0  0  0
 40 52  1  0  0  0  0
 41 68  1  0  0  0  0
 42 46  1  0  0  0  0
 43 47  1  0  0  0  0
 43 48  1  0  0  0  0
 44 45  1  0  0  0  0
 44 50  1  0  0  0  0
 45 50  1  0  0  0  0
 46 51  1  0  0  0  0
 47 53  1  0  0  0  0
 48 69  1  0  0  0  0
 49 53  1  0  0  0  0
 49 69  1  0  0  0  0
 51 72  1  0  0  0  0
 52 68  1  0  0  0  0
 53 67  1  0  0  0  0
 54 64  1  0  0  0  0
 55 65  1  0  0  0  0
 56 65  1  0  0  0  0
 57 65  1  0  0  0  0
 58 75  1  0  0  0  0
 59 76  1  0  0  0  0
 60 83  1  0  0  0  0
 61 62  1  0  0  0  0
 61 74  1  0  0  0  0
 62 76  1  0  0  0  0
 63 65  1  0  0  0  0
 63 73  1  0  0  0  0
 64 75  1  0  0  0  0
 66 67  1  0  0  0  0
M  CHG  2  75   1  76   1
M  ISO  4  38 100  60 101  74 100  83 101
M  END
> <Batch ID>
0126

> <Smiles>
CNC(C)C(=O)NC(C(=O)N1Cc2cc([101O:1][101CH2:1]c3ccc(CNCC[100NH:0][100C:0](=O)N4CCCC(n5nc(-c6ccc(Oc7ccc(F)cc7F)cc6)c(C(N)=O)c5N)C4)c(C4CC4)c3)ccc2CC1C(=O)NC1CCCc2ccccc21)C(C)(C)C

> <Shape>
0.207

> <Color>
0.099

> <Negative vol penalty>
0.000

$$$$

  -OEChem-04052320383D

 81 89  0     1  0  0  0  0  0999 V2000
  -19.0699  -27.7384   23.8882 C   0  0  0  0  0  0  0  0  0  0  0  0
  -20.1087  -26.9488   23.4056 C   0  0  0  0  0  0  0  0  0  0  0  0
  -22.9871  -10.0114   19.9362 C   0  0  0  0  0  0  0  0  0  0  0  0
  -23.8581   -9.8459   22.1837 C   0  0  0  0  0  0  0  0  0  0  0  0
  -18.1795  -28.3371   22.9979 C   0  0  0  0  0  0  0  0  0  0  0  0
  -20.2569  -26.7565   22.0325 C   0  0  0  0  0  0  0  0  0  0  0  0
  -25.0646  -27.2273   20.5127 C   0  0  0  0  0  0  0  0  0  0  0  0
  -22.2188   -8.8671   20.1497 C   0  0  0  0  0  0  0  0  0  0  0  0
  -23.0896   -8.7015   22.3972 C   0  0  0  0  0  0  0  0  0  0  0  0
  -25.9154  -26.1483   20.7483 C   0  0  0  0  0  0  0  0  0  0  0  0
  -21.0832   -5.9433   23.6559 C   0  0  0  0  0  0  0  0  0  0  0  0
  -20.3841   -5.8458   24.8589 C   0  0  0  0  0  0  0  0  0  0  0  0
  -25.6479  -25.4446   18.4565 C   0  0  0  0  0  0  0  0  0  0  0  0
  -19.1699   -7.8629   24.3167 C   0  0  0  0  0  0  0  0  0  0  0  0
  -23.8069  -10.5008   20.9532 C   0  0  0  0  0  0  0  0  0  0  0  0
  -24.2256  -13.0171   20.9772 C   0  0  0  0  0  0  0  0  0  0  0  0
  -18.3226  -28.1599   21.6127 C   0  0  0  0  0  0  0  0  0  0  0  0
  -24.4894  -27.4172   19.2479 C   0  0  0  0  0  0  0  0  0  0  0  0
  -19.3667  -27.3522   21.1230 C   0  0  0  0  0  0  0  0  0  0  0  0
  -24.7921  -26.5282   18.2067 C   0  0  0  0  0  0  0  0  0  0  0  0
  -22.2700   -8.2121   21.3802 C   0  0  0  0  0  0  0  0  0  0  0  0
  -26.2049  -25.2551   19.7210 C   0  0  0  0  0  0  0  0  0  0  0  0
  -20.8257   -7.0006   22.7833 C   0  0  0  0  0  0  0  0  0  0  0  0
  -19.4274   -6.8056   25.1894 C   0  0  0  0  0  0  0  0  0  0  0  0
  -19.8690   -7.9604   23.1137 C   0  0  0  0  0  0  0  0  0  0  0  0
  -24.6013  -11.6826   20.7331 C   0  0  0  0  0  0  0  0  0  0  0  0
  -25.3228  -13.7559   20.6073 C   0  0  0  0  0  0  0  0  0  0  0  0
  -22.9948  -13.5421   21.4923 C   0  0  0  0  0  0  0  0  0  0  0  0
  -21.5177  -27.4766   18.1212 C   0  0  0  0  0  0  0  0  0  0  0  0
  -22.9936  -28.3585   15.3705 C   0  0  0  0  0  0  0  0  0  0  0  0
  -25.8343  -28.3616   13.4791 C   0  0  0  0  0  0  0  0  0  0  0  0
  -30.8398  -14.5967   20.5807 C   0  0  0  0  0  0  0  0  0  0  0  0
  -17.3072  -28.7887   20.6917 C   0  0  0  0  0  0  0  0  0  0  0  0
  -23.5948  -28.6012   19.0027 C   0  0  0  0  0  0  0  0  0  0  0  0
  -24.2165  -26.6992   16.8254 C   0  0  0  0  0  0  0  0  0  0  0  0
  -17.7569  -28.8403   19.2338 C   0  0  0  0  0  0  0  0  0  0  0  0
  -29.5088  -12.4082   18.1078 C   0  0  0  0  0  0  0  0  0  0  0  0
  -18.3378  -27.4961   18.8064 C   0  0  0  0  0  0  0  0  0  0  0  0
  -28.7470  -21.8959   20.3326 C   0  0  0  0  0  0  0  0  0  0  0  0
  -26.9354  -20.5039   19.2432 C   0  0  0  0  0  0  0  0  0  0  0  0
  -28.0853  -12.1297   18.5938 C   0  0  0  0  0  0  0  0  0  0  0  0
  -29.2279  -20.6662   21.1030 C   0  0  0  0  0  0  0  0  0  0  0  0
  -27.4170  -19.2748   20.0138 C   0  0  0  0  0  0  0  0  0  0  0  0
  -30.4903  -12.5227   19.2720 C   0  0  0  0  0  0  0  0  0  0  0  0
  -28.6838  -13.2179   20.7975 C   0  0  0  0  0  0  0  0  0  0  0  0
  -19.5752  -27.1401   19.6392 C   0  0  1  0  0  0  0  0  0  0  0  0
  -22.6577  -28.4062   17.8148 C   0  0  1  0  0  0  0  0  0  0  0  0
  -27.2517  -21.8048   19.9952 C   0  0  0  0  0  0  0  0  0  0  0  0
  -27.6480  -13.1497   19.6623 C   0  0  2  0  0  0  0  0  0  0  0  0
  -28.9039  -19.3850   20.3396 C   0  0  0  0  0  0  0  0  0  0  0  0
  -26.7228  -29.1270   11.2605 C   0  0  0  0  0  0  0  0  0  0  0  0
  -21.5235  -26.0664   13.9938 C   0  0  0  0  0  0  0  0  0  0  0  0
  -23.1291  -26.2759   12.0843 C   0  0  0  0  0  0  0  0  0  0  0  0
  -21.6308  -28.1834   12.6667 C   0  0  0  0  0  0  0  0  0  0  0  0
  -27.8629  -30.0953   14.7588 C   0  0  0  0  0  0  0  0  0  0  0  0
  -26.8085  -23.0189   19.1812 C   0  0  0  0  0  0  0  0  0  1  0  0
  -31.0370  -16.6590   21.9473 C   0  0  0  0  0  0  0  0  0  0  0  0
  -30.7463  -17.8700   21.0806 C   0  0  0  0  0  0  0  0  0  0  0  0
  -23.5733  -27.6245   14.1855 C   0  0  1  0  0  0  0  0  0  0  0  0
  -26.5445  -29.4748   12.7301 C   0  0  2  0  0  0  0  0  0  0  0  0
  -22.4736  -27.0330   13.2590 C   0  0  0  0  0  0  0  0  0  0  0  0
  -25.8404  -11.5766   20.2457 N   0  0  0  0  0  0  0  0  0  0  0  0
  -26.2527  -12.8541   20.1804 N   0  0  0  0  0  0  0  0  0  0  0  0
  -23.3422  -27.8687   16.6372 N   0  0  0  0  0  0  0  0  0  0  0  0
  -30.0180  -13.5070   20.2487 N   0  0  0  0  0  0  0  0  0  0  0  0
  -25.5732  -15.0824   20.6087 N   0  0  0  0  0  0  0  0  0  0  0  0
  -21.9711  -12.6433   21.8220 N   0  0  0  0  0  0  0  0  0  0  0  0
  -20.7266  -27.8856   19.1777 N   0  0  0  0  0  0  0  0  0  0  0  0
  -24.4711  -28.5642   13.5226 N   0  0  0  0  0  0  0  0  0  0  0  0
  -30.3135  -15.4860   21.5097 N   0  0  0  0  0  0  0  0  0  0  0  0
  -29.3030  -18.2168   21.1686 N   0  3  0  0  0  0  0  0  0  0  0  0
  -27.8902  -29.7205   13.3215 N   0  3  0  0  0  0  0  0  0  0  0  0
  -22.8024  -14.7728   21.6400 O   0  0  0  0  0  0  0  0  0  0  0  0
  -21.3662  -26.4639   17.4480 O   0  0  0  0  0  0  0  0  0  0  0  0
  -22.2643  -29.3348   15.1795 O   0  0  0  0  0  0  0  0  0  0  0  0
  -26.4289  -27.4059   13.9726 O   0  0  0  0  0  0  0  0  0  0  0  0
  -31.9574  -14.7676   20.0819 O   0  0  0  0  0  0  0  0  0  0  0  0
  -21.5201   -7.0956   21.5889 O   0  0  0  0  0  0  0  0  0  0  0  0
  -27.0346  -24.2007   19.9485 O   0  0  0  0  0  0  0  0  0  1  0  0
  -18.7550   -6.7110   26.3440 F   0  0  0  0  0  0  0  0  0  0  0  0
  -19.6165   -8.9778   22.2789 F   0  0  0  0  0  0  0  0  0  0  0  0
  1  2  1  0  0  0  0
  1  5  2  0  0  0  0
  2  6  2  0  0  0  0
  3  8  2  0  0  0  0
  3 15  1  0  0  0  0
  4  9  1  0  0  0  0
  4 15  2  0  0  0  0
  5 17  1  0  0  0  0
  6 19  1  0  0  0  0
  7 10  2  0  0  0  0
  7 18  1  0  0  0  0
  8 21  1  0  0  0  0
  9 21  2  0  0  0  0
 10 22  1  0  0  0  0
 11 12  2  0  0  0  0
 11 23  1  0  0  0  0
 12 24  1  0  0  0  0
 13 20  1  0  0  0  0
 13 22  2  0  0  0  0
 14 24  2  0  0  0  0
 14 25  1  0  0  0  0
 15 26  1  0  0  0  0
 16 26  1  0  0  0  0
 16 27  2  0  0  0  0
 16 28  1  0  0  0  0
 17 19  2  0  0  0  0
 17 33  1  0  0  0  0
 18 20  2  0  0  0  0
 18 34  1  0  0  0  0
 19 46  1  0  0  0  0
 20 35  1  0  0  0  0
 21 78  1  0  0  0  0
 22 79  1  0  0  0  0
 23 25  2  0  0  0  0
 23 78  1  0  0  0  0
 24 80  1  0  0  0  0
 25 81  1  0  0  0  0
 26 62  2  0  0  0  0
 27 63  1  0  0  0  0
 27 66  1  0  0  0  0
 28 67  1  0  0  0  0
 28 73  2  0  0  0  0
 29 47  1  0  0  0  0
 29 68  1  0  0  0  0
 29 74  2  0  0  0  0
 30 59  1  0  0  0  0
 30 64  1  0  0  0  0
 30 75  2  0  0  0  0
 31 60  1  0  0  0  0
 31 69  1  0  0  0  0
 31 76  2  0  0  0  0
 32 65  1  0  0  0  0
 32 70  1  0  0  0  0
 32 77  2  0  0  0  0
 33 36  1  0  0  0  0
 34 47  1  0  0  0  0
 35 64  1  0  0  0  0
 36 38  1  0  0  0  0
 37 41  1  0  0  0  0
 37 44  1  0  0  0  0
 38 46  1  0  0  0  0
 39 42  1  0  0  0  0
 39 48  1  0  0  0  0
 40 43  1  0  0  0  0
 40 48  1  0  0  0  0
 41 49  1  0  0  0  0
 42 50  1  0  0  0  0
 43 50  1  0  0  0  0
 44 65  1  0  0  0  0
 45 49  1  0  0  0  0
 45 65  1  0  0  0  0
 46 68  1  0  0  0  0
 47 64  1  0  0  0  0
 48 56  1  0  0  0  0
 49 63  1  0  0  0  0
 50 71  1  0  0  0  0
 51 60  1  0  0  0  0
 52 61  1  0  0  0  0
 53 61  1  0  0  0  0
 54 61  1  0  0  0  0
 55 72  1  0  0  0  0
 56 79  1  0  0  0  0
 57 58  1  0  0  0  0
 57 70  1  0  0  0  0
 58 71  1  0  0  0  0
 59 61  1  0  0  0  0
 59 69  1  0  0  0  0
 60 72  1  0  0  0  0
 62 63  1  0  0  0  0
M  CHG  2  71   1  72   1
M  ISO  4  32 100  56 101  70 100  79 101
M  END
> <Batch ID>
0126

> <Smiles>
CNC(C)C(=O)NC(C(=O)N1Cc2cc([101O:1][101CH2:1]C3CCC(NCC[100NH:0][100C:0](=O)N4CCCC(n5nc(-c6ccc(Oc7ccc(F)cc7F)cc6)c(C(N)=O)c5N)C4)CC3)ccc2CC1C(=O)NC1CCCc2ccccc21)C(C)(C)C

> <Shape>
0.278

> <Color>
0.211

> <Negative vol penalty>
0.000

$$$$

  -OEChem-04052320383D

 83 92  0     1  0  0  0  0  0999 V2000
  -17.1354  -31.6314   23.3459 C   0  0  0  0  0  0  0  0  0  0  0  0
  -18.3227  -32.0361   22.7443 C   0  0  0  0  0  0  0  0  0  0  0  0
  -25.5482  -13.4771   21.8436 C   0  0  0  0  0  0  0  0  0  0  0  0
  -26.9147  -13.1121   19.8849 C   0  0  0  0  0  0  0  0  0  0  0  0
  -17.1113  -30.4818   24.1344 C   0  0  0  0  0  0  0  0  0  0  0  0
  -19.4869  -31.2918   22.9317 C   0  0  0  0  0  0  0  0  0  0  0  0
  -30.1577  -26.2320   18.2924 C   0  0  0  0  0  0  0  0  0  0  0  0
  -25.5052  -29.3926   19.5420 C   0  0  0  0  0  0  0  0  0  0  0  0
  -30.1006  -24.8570   18.0602 C   0  0  0  0  0  0  0  0  0  0  0  0
  -24.5800  -12.6150   21.3289 C   0  0  0  0  0  0  0  0  0  0  0  0
  -25.9465  -12.2499   19.3701 C   0  0  0  0  0  0  0  0  0  0  0  0
  -26.8878  -29.3915   19.7212 C   0  0  0  0  0  0  0  0  0  0  0  0
  -24.1029   -9.2780   21.0653 C   0  0  0  0  0  0  0  0  0  0  0  0
  -23.5495   -8.3342   21.9305 C   0  0  0  0  0  0  0  0  0  0  0  0
  -31.5931  -24.4839   19.9142 C   0  0  0  0  0  0  0  0  0  0  0  0
  -26.7093  -27.3791   21.0395 C   0  0  0  0  0  0  0  0  0  0  0  0
  -21.3579   -9.2822   21.5628 C   0  0  0  0  0  0  0  0  0  0  0  0
  -26.7155  -13.7257   21.1216 C   0  0  0  0  0  0  0  0  0  0  0  0
  -28.8058  -14.2769   22.4760 C   0  0  0  0  0  0  0  0  0  0  0  0
  -18.2736  -29.7177   24.3237 C   0  0  0  0  0  0  0  0  0  0  0  0
  -24.7117  -28.3914   20.1203 C   0  0  0  0  0  0  0  0  0  0  0  0
  -19.4786  -30.1316   23.7246 C   0  0  0  0  0  0  0  0  0  0  0  0
  -30.9196  -26.7538   19.3505 C   0  0  0  0  0  0  0  0  0  0  0  0
  -31.6693  -25.8657   20.1488 C   0  0  0  0  0  0  0  0  0  0  0  0
  -25.3171  -27.3684   20.8640 C   0  0  0  0  0  0  0  0  0  0  0  0
  -30.8124  -23.9828   18.8747 C   0  0  0  0  0  0  0  0  0  0  0  0
  -24.7791  -12.0014   20.0922 C   0  0  0  0  0  0  0  0  0  0  0  0
  -27.4898  -28.3863   20.4724 C   0  0  0  0  0  0  0  0  0  0  0  0
  -23.2839  -10.2240   20.4490 C   0  0  0  0  0  0  0  0  0  0  0  0
  -22.1770   -8.3363   22.1792 C   0  0  0  0  0  0  0  0  0  0  0  0
  -21.9114  -10.2261   20.6977 C   0  0  0  0  0  0  0  0  0  0  0  0
  -27.7158  -14.6167   21.6525 C   0  0  0  0  0  0  0  0  0  0  0  0
  -29.4499  -15.4688   22.7021 C   0  0  0  0  0  0  0  0  0  0  0  0
  -29.2009  -12.9983   22.9905 C   0  0  0  0  0  0  0  0  0  0  0  0
  -22.3665  -28.3472   22.2654 C   0  0  0  0  0  0  0  0  0  0  0  0
  -22.2190  -25.2074   21.4643 C   0  0  0  0  0  0  0  0  0  0  0  0
  -23.8041  -22.4626   20.1992 C   0  0  0  0  0  0  0  0  0  0  0  0
  -29.7065  -20.4594   19.5583 C   0  0  0  0  0  0  0  0  0  0  0  0
  -18.2092  -28.5088   25.2231 C   0  0  0  0  0  0  0  0  0  0  0  0
  -23.2245  -28.3918   19.8953 C   0  0  0  0  0  0  0  0  0  0  0  0
  -32.5207  -26.3657   21.2899 C   0  0  0  0  0  0  0  0  0  0  0  0
  -24.5121  -26.2593   21.4888 C   0  0  0  0  0  0  0  0  0  0  0  0
  -19.4017  -27.5688   25.0664 C   0  0  0  0  0  0  0  0  0  0  0  0
  -28.6243  -20.1738   22.9999 C   0  0  0  0  0  0  0  0  0  0  0  0
  -20.7069  -28.3582   25.0632 C   0  0  0  0  0  0  0  0  0  0  0  0
  -28.3726  -18.6694   23.1158 C   0  0  0  0  0  0  0  0  0  0  0  0
  -28.2082  -20.7000   21.6295 C   0  0  0  0  0  0  0  0  0  0  0  0
  -28.6003  -18.4983   20.5941 C   0  0  0  0  0  0  0  0  0  0  0  0
  -32.9143  -27.8261   21.1367 C   0  0  0  0  0  0  0  0  0  0  0  0
  -20.7567  -29.3371   23.8839 C   0  0  1  0  0  0  0  0  0  0  0  0
  -30.9944  -28.2506   19.5837 C   0  0  1  0  0  0  0  0  0  0  0  0
  -22.4590  -27.6108   20.9590 C   0  0  1  0  0  0  0  0  0  0  0  0
  -29.0215  -17.9012   21.9492 C   0  0  2  0  0  0  0  0  0  0  0  0
  -23.4377  -20.0298   19.7042 C   0  0  0  0  0  0  0  0  0  0  0  0
  -22.4828  -24.5656   24.4356 C   0  0  0  0  0  0  0  0  0  0  0  0
  -23.0618  -22.2129   23.8048 C   0  0  0  0  0  0  0  0  0  0  0  0
  -20.8288  -23.1495   23.2053 C   0  0  0  0  0  0  0  0  0  0  0  0
  -24.2928  -22.8581   17.3072 C   0  0  0  0  0  0  0  0  0  0  0  0
  -30.7458  -22.5131   18.6314 C   0  0  0  0  0  0  0  0  0  0  0  0
  -29.6323  -28.9469   19.6058 C   0  0  0  0  0  0  0  0  0  1  0  0
  -22.8811  -23.9450   21.9613 C   0  0  1  0  0  0  0  0  0  0  0  0
  -23.3794  -21.4465   19.1543 C   0  0  2  0  0  0  0  0  0  0  0  0
  -22.3289  -23.4901   23.3417 C   0  0  0  0  0  0  0  0  0  0  0  0
  -27.6668  -15.9221   21.3744 N   0  0  0  0  0  0  0  0  0  0  0  0
  -28.7341  -16.4132   22.0269 N   0  0  0  0  0  0  0  0  0  0  0  0
  -23.0609  -26.3070   21.2455 N   0  0  0  0  0  0  0  0  0  0  0  0
  -28.8751  -19.9387   20.5638 N   0  0  0  0  0  0  0  0  0  0  0  0
  -30.5529  -15.7906   23.4108 N   0  0  0  0  0  0  0  0  0  0  0  0
  -28.4272  -11.8772   22.6605 N   0  0  0  0  0  0  0  0  0  0  0  0
  -21.0735  -28.6360   22.6582 N   0  0  0  0  0  0  0  0  0  0  0  0
  -22.7241  -22.9566   20.8998 N   0  0  0  0  0  0  0  0  0  0  0  0
  -29.9103  -21.8333   19.5962 N   0  0  0  0  0  0  0  0  0  0  0  0
  -31.6784  -28.6178   20.8810 N   0  3  0  0  0  0  0  0  0  0  0  0
  -24.2711  -21.5252   17.9628 N   0  3  0  0  0  0  0  0  0  0  0  0
  -30.2008  -12.8567   23.7346 O   0  0  0  0  0  0  0  0  0  0  0  0
  -23.3922  -28.6310   22.8730 O   0  0  0  0  0  0  0  0  0  0  0  0
  -21.0008  -25.2153   21.2703 O   0  0  0  0  0  0  0  0  0  0  0  0
  -24.9770  -22.7830   20.3786 O   0  0  0  0  0  0  0  0  0  0  0  0
  -30.2330  -19.7512   18.6933 O   0  0  0  0  0  0  0  0  0  0  0  0
  -23.8347  -11.1599   19.5897 O   0  0  0  0  0  0  0  0  0  0  0  0
  -28.8390  -28.3832   20.6495 O   0  0  0  0  0  0  0  0  0  1  0  0
  -21.6455   -7.4289   23.0088 F   0  0  0  0  0  0  0  0  0  0  0  0
  -21.1193  -11.1317   20.1075 F   0  0  0  0  0  0  0  0  0  0  0  0
  1  2  1  0  0  0  0
  1  5  2  0  0  0  0
  2  6  2  0  0  0  0
  3 10  2  0  0  0  0
  3 18  1  0  0  0  0
  4 11  1  0  0  0  0
  4 18  2  0  0  0  0
  5 20  1  0  0  0  0
  6 22  1  0  0  0  0
  7  9  2  0  0  0  0
  7 23  1  0  0  0  0
  8 12  2  0  0  0  0
  8 21  1  0  0  0  0
  9 26  1  0  0  0  0
 10 27  1  0  0  0  0
 11 27  2  0  0  0  0
 12 28  1  0  0  0  0
 13 14  2  0  0  0  0
 13 29  1  0  0  0  0
 14 30  1  0  0  0  0
 15 24  1  0  0  0  0
 15 26  2  0  0  0  0
 16 25  1  0  0  0  0
 16 28  2  0  0  0  0
 17 30  2  0  0  0  0
 17 31  1  0  0  0  0
 18 32  1  0  0  0  0
 19 32  1  0  0  0  0
 19 33  2  0  0  0  0
 19 34  1  0  0  0  0
 20 22  2  0  0  0  0
 20 39  1  0  0  0  0
 21 25  2  0  0  0  0
 21 40  1  0  0  0  0
 22 50  1  0  0  0  0
 23 24  2  0  0  0  0
 23 51  1  0  0  0  0
 24 41  1  0  0  0  0
 25 42  1  0  0  0  0
 26 59  1  0  0  0  0
 27 80  1  0  0  0  0
 28 81  1  0  0  0  0
 29 31  2  0  0  0  0
 29 80  1  0  0  0  0
 30 82  1  0  0  0  0
 31 83  1  0  0  0  0
 32 64  2  0  0  0  0
 33 65  1  0  0  0  0
 33 68  1  0  0  0  0
 34 69  1  0  0  0  0
 34 75  2  0  0  0  0
 35 52  1  0  0  0  0
 35 70  1  0  0  0  0
 35 76  2  0  0  0  0
 36 61  1  0  0  0  0
 36 66  1  0  0  0  0
 36 77  2  0  0  0  0
 37 62  1  0  0  0  0
 37 71  1  0  0  0  0
 37 78  2  0  0  0  0
 38 67  1  0  0  0  0
 38 72  1  0  0  0  0
 38 79  2  0  0  0  0
 39 43  1  0  0  0  0
 40 52  1  0  0  0  0
 41 49  1  0  0  0  0
 42 66  1  0  0  0  0
 43 45  1  0  0  0  0
 44 46  1  0  0  0  0
 44 47  1  0  0  0  0
 45 50  1  0  0  0  0
 46 53  1  0  0  0  0
 47 67  1  0  0  0  0
 48 53  1  0  0  0  0
 48 67  1  0  0  0  0
 49 73  1  0  0  0  0
 50 70  1  0  0  0  0
 51 60  1  0  0  0  0
 51 73  1  0  0  0  0
 52 66  1  0  0  0  0
 53 65  1  0  0  0  0
 54 62  1  0  0  0  0
 55 63  1  0  0  0  0
 56 63  1  0  0  0  0
 57 63  1  0  0  0  0
 58 74  1  0  0  0  0
 59 72  1  0  0  0  0
 60 81  1  0  0  0  0
 61 63  1  0  0  0  0
 61 71  1  0  0  0  0
 62 74  1  0  0  0  0
 64 65  1  0  0  0  0
M  CHG  2  73   1  74   1
M  ISO  4  38 100  60 101  72 100  81 101
M  END
> <Batch ID>
0126

> <Smiles>
CNC(C)C(=O)NC(C(=O)N1Cc2cc([101O:1][101CH2:1]C3NCCc4cc(C[100NH:0][100C:0](=O)N5CCCC(n6nc(-c7ccc(Oc8ccc(F)cc8F)cc7)c(C(N)=O)c6N)C5)ccc43)ccc2CC1C(=O)NC1CCCc2ccccc21)C(C)(C)C

> <Shape>
0.265

> <Color>
0.076

> <Negative vol penalty>
0.000

$$$$

  -OEChem-04052320383D

 89 98  0     1  0  0  0  0  0999 V2000
  -34.2141  -32.5936   19.8917 C   0  0  0  0  0  0  0  0  0  0  0  0
  -33.5877  -31.7134   19.0152 C   0  0  0  0  0  0  0  0  0  0  0  0
  -24.7800  -15.9888   22.5379 C   0  0  0  0  0  0  0  0  0  0  0  0
  -25.9298  -14.4557   24.0091 C   0  0  0  0  0  0  0  0  0  0  0  0
  -33.9513  -32.5191   21.2589 C   0  0  0  0  0  0  0  0  0  0  0  0
  -32.6988  -30.7575   19.5055 C   0  0  0  0  0  0  0  0  0  0  0  0
  -26.7209  -27.2468   17.7010 C   0  0  0  0  0  0  0  0  0  0  0  0
  -24.7234  -16.9315   23.5645 C   0  0  0  0  0  0  0  0  0  0  0  0
  -25.8733  -15.3984   25.0357 C   0  0  0  0  0  0  0  0  0  0  0  0
  -26.2186  -25.9492   17.6136 C   0  0  0  0  0  0  0  0  0  0  0  0
  -24.5965  -19.8781   25.6896 C   0  0  0  0  0  0  0  0  0  0  0  0
  -24.9202  -21.1982   25.3764 C   0  0  0  0  0  0  0  0  0  0  0  0
  -25.7810  -25.9653   19.9858 C   0  0  0  0  0  0  0  0  0  0  0  0
  -25.6788  -21.6877   18.7616 C   0  0  0  0  0  0  0  0  0  0  0  0
  -27.1281  -20.4945   24.6928 C   0  0  0  0  0  0  0  0  0  0  0  0
  -25.3831  -14.7509   22.7603 C   0  0  0  0  0  0  0  0  0  0  0  0
  -24.3549  -13.1932   21.0213 C   0  0  0  0  0  0  0  0  0  0  0  0
  -33.0514  -31.5681   21.7652 C   0  0  0  0  0  0  0  0  0  0  0  0
  -26.7671  -27.9106   18.9354 C   0  0  0  0  0  0  0  0  0  0  0  0
  -32.4247  -30.6693   20.8810 C   0  0  0  0  0  0  0  0  0  0  0  0
  -26.2819  -27.2723   20.0858 C   0  0  0  0  0  0  0  0  0  0  0  0
  -26.5986  -20.6591   18.9331 C   0  0  0  0  0  0  0  0  0  0  0  0
  -27.9340  -20.9613   19.1752 C   0  0  0  0  0  0  0  0  0  0  0  0
  -25.2701  -16.6363   24.8133 C   0  0  0  0  0  0  0  0  0  0  0  0
  -25.7512  -25.3071   18.7566 C   0  0  0  0  0  0  0  0  0  0  0  0
  -25.5385  -18.8662   25.5045 C   0  0  0  0  0  0  0  0  0  0  0  0
  -26.1860  -21.5064   24.8780 C   0  0  0  0  0  0  0  0  0  0  0  0
  -26.8043  -19.1744   25.0060 C   0  0  0  0  0  0  0  0  0  0  0  0
  -25.4414  -13.7765   21.7004 C   0  0  0  0  0  0  0  0  0  0  0  0
  -28.2959  -22.2974   19.2360 C   0  0  0  0  0  0  0  0  0  0  0  0
  -26.1415  -22.9913   18.8409 C   0  0  0  0  0  0  0  0  0  1  0  0
  -24.9349  -12.3402   20.1144 C   0  0  0  0  0  0  0  0  0  0  0  0
  -22.9474  -13.4036   21.1947 C   0  0  0  0  0  0  0  0  0  0  0  0
  -29.0850  -29.0930   20.7610 C   0  0  0  0  0  0  0  0  0  0  0  0
  -26.5982  -30.2020   22.5241 C   0  0  0  0  0  0  0  0  0  0  0  0
  -23.3218  -29.8927   23.4278 C   0  0  0  0  0  0  0  0  0  0  0  0
  -30.3178  -12.7159   21.6414 C   0  0  0  0  0  0  0  0  0  0  0  0
  -32.8351  -31.4948   23.2560 C   0  0  0  0  0  0  0  0  0  0  0  0
  -27.2871  -29.3200   19.0083 C   0  0  0  0  0  0  0  0  0  0  0  0
  -26.2907  -27.9487   21.4314 C   0  0  0  0  0  0  0  0  0  0  0  0
  -31.5949  -30.6984   23.6532 C   0  0  0  0  0  0  0  0  0  0  0  0
  -28.6437  -13.6510   18.4359 C   0  0  0  0  0  0  0  0  0  0  0  0
  -31.5347  -29.3840   22.8814 C   0  0  0  0  0  0  0  0  0  0  0  0
  -27.7394  -12.4381   18.2198 C   0  0  0  0  0  0  0  0  0  0  0  0
  -31.9736  -13.9780   24.1230 C   0  0  0  0  0  0  0  0  0  0  0  0
  -29.8876  -13.2668   19.2248 C   0  0  0  0  0  0  0  0  0  0  0  0
  -32.2308  -13.9254   22.6172 C   0  0  0  0  0  0  0  0  0  0  0  0
  -28.6712  -11.4209   20.3377 C   0  0  0  0  0  0  0  0  0  0  0  0
  -30.4336  -15.2538   21.4778 C   0  0  0  0  0  0  0  0  0  0  0  0
  -31.4820  -15.3168   24.6496 C   0  0  0  0  0  0  0  0  0  0  0  0
  -31.4353  -29.6348   21.3718 C   0  0  1  0  0  0  0  0  0  0  0  0
  -27.7622  -29.7102   20.4045 C   0  0  1  0  0  0  0  0  0  0  0  0
  -27.3849  -11.7256   19.5424 C   0  0  1  0  0  0  0  0  0  0  0  0
  -30.5606  -16.3545   22.5382 C   0  0  1  0  0  0  0  0  0  0  0  0
  -26.1292  -19.2439   18.8522 C   0  0  0  0  0  0  0  0  0  0  0  0
  -29.7160  -22.6835   19.4930 C   0  0  0  0  0  0  0  0  0  0  0  0
  -21.5833  -30.9221   24.9162 C   0  0  0  0  0  0  0  0  0  0  0  0
  -27.8752  -28.8528   24.9446 C   0  0  0  0  0  0  0  0  0  0  0  0
  -25.6885  -29.0868   26.1412 C   0  0  0  0  0  0  0  0  0  0  0  0
  -26.9243  -31.1215   25.3958 C   0  0  0  0  0  0  0  0  0  0  0  0
  -21.5989  -30.5935   21.1257 C   0  0  0  0  0  0  0  0  0  0  0  0
  -28.9486  -19.8724   19.3650 C   0  0  0  0  0  0  0  0  0  0  0  0
  -29.5738  -17.4874   22.2668 C   0  0  0  0  0  0  0  0  0  0  0  0
  -29.8005  -18.0880   20.8911 C   0  0  0  0  0  0  0  0  0  0  0  0
  -25.7799  -29.6661   23.6740 C   0  0  1  0  0  0  0  0  0  0  0  0
  -22.2037  -30.9146   23.5278 C   0  0  2  0  0  0  0  0  0  0  0  0
  -26.5685  -29.6681   25.0140 C   0  0  0  0  0  0  0  0  0  0  0  0
  -26.6222  -13.3315   21.2625 N   0  0  0  0  0  0  0  0  0  0  0  0
  -27.4310  -23.3238   19.0745 N   0  0  0  0  0  0  0  0  0  0  0  0
  -26.2811  -12.4595   20.2985 N   0  0  0  0  0  0  0  0  0  0  0  0
  -26.8148  -29.3244   21.4523 N   0  0  0  0  0  0  0  0  0  0  0  0
  -29.5413  -12.5919   20.4790 N   0  0  0  0  0  0  0  0  0  0  0  0
  -30.9895  -13.9409   21.8407 N   0  0  0  0  0  0  0  0  0  0  0  0
  -24.4197  -11.5071   19.1854 N   0  0  0  0  0  0  0  0  0  0  0  0
  -22.2583  -12.5942   22.1080 N   0  0  0  0  0  0  0  0  0  0  0  0
  -30.0859  -30.0125   21.0100 N   0  0  0  0  0  0  0  0  0  0  0  0
  -24.5516  -30.4527   23.7024 N   0  0  0  0  0  0  0  0  0  0  0  0
  -30.2813  -15.8052   23.9078 N   0  3  0  0  0  0  0  0  0  0  0  0
  -21.1335  -30.6101   22.5364 N   0  3  0  0  0  0  0  0  0  0  0  0
  -28.8523  -19.2108   20.6952 N   0  3  0  0  0  0  0  0  0  0  0  0
  -22.3162  -14.2725   20.5464 O   0  0  0  0  0  0  0  0  0  0  0  0
  -29.1893  -27.8729   20.8082 O   0  0  0  0  0  0  0  0  0  0  0  0
  -27.0232  -31.3590   22.5718 O   0  0  0  0  0  0  0  0  0  0  0  0
  -23.1236  -28.7147   23.1389 O   0  0  0  0  0  0  0  0  0  0  0  0
  -30.3771  -11.7983   22.4701 O   0  0  0  0  0  0  0  0  0  0  0  0
  -25.2153  -17.5560   25.8152 O   0  0  0  0  0  0  0  0  0  0  0  0
  -25.2541  -24.0221   18.6731 O   0  0  0  0  0  0  0  0  0  1  0  0
  -26.4962  -22.7739   24.5758 F   0  0  0  0  0  0  0  0  0  0  0  0
  -27.7131  -18.2064   24.8249 F   0  0  0  0  0  0  0  0  0  0  0  0
  1  2  1  0  0  0  0
  1  5  2  0  0  0  0
  2  6  2  0  0  0  0
  3  8  2  0  0  0  0
  3 16  1  0  0  0  0
  4  9  1  0  0  0  0
  4 16  2  0  0  0  0
  5 18  1  0  0  0  0
  6 20  1  0  0  0  0
  7 10  2  0  0  0  0
  7 19  1  0  0  0  0
  8 24  1  0  0  0  0
  9 24  2  0  0  0  0
 10 25  1  0  0  0  0
 11 12  2  0  0  0  0
 11 26  1  0  0  0  0
 12 27  1  0  0  0  0
 13 21  1  0  0  0  0
 13 25  2  0  0  0  0
 14 22  2  0  0  0  0
 14 31  1  0  0  0  0
 15 27  2  0  0  0  0
 15 28  1  0  0  0  0
 16 29  1  0  0  0  0
 17 29  1  0  0  0  0
 17 32  2  0  0  0  0
 17 33  1  0  0  0  0
 18 20  2  0  0  0  0
 18 38  1  0  0  0  0
 19 21  2  0  0  0  0
 19 39  1  0  0  0  0
 20 51  1  0  0  0  0
 21 40  1  0  0  0  0
 22 23  1  0  0  0  0
 22 55  1  0  0  0  0
 23 30  2  0  0  0  0
 23 62  1  0  0  0  0
 24 86  1  0  0  0  0
 25 87  1  0  0  0  0
 26 28  2  0  0  0  0
 26 86  1  0  0  0  0
 27 88  1  0  0  0  0
 28 89  1  0  0  0  0
 29 68  2  0  0  0  0
 30 56  1  0  0  0  0
 30 69  1  0  0  0  0
 31 69  2  0  0  0  0
 31 87  1  0  0  0  0
 32 70  1  0  0  0  0
 32 74  1  0  0  0  0
 33 75  1  0  0  0  0
 33 81  2  0  0  0  0
 34 52  1  0  0  0  0
 34 76  1  0  0  0  0
 34 82  2  0  0  0  0
 35 65  1  0  0  0  0
 35 71  1  0  0  0  0
 35 83  2  0  0  0  0
 36 66  1  0  0  0  0
 36 77  1  0  0  0  0
 36 84  2  0  0  0  0
 37 72  1  0  0  0  0
 37 73  1  0  0  0  0
 37 85  2  0  0  0  0
 38 41  1  0  0  0  0
 39 52  1  0  0  0  0
 40 71  1  0  0  0  0
 41 43  1  0  0  0  0
 42 44  1  0  0  0  0
 42 46  1  0  0  0  0
 43 51  1  0  0  0  0
 44 53  1  0  0  0  0
 45 47  1  0  0  0  0
 45 50  1  0  0  0  0
 46 72  1  0  0  0  0
 47 73  1  0  0  0  0
 48 53  1  0  0  0  0
 48 72  1  0  0  0  0
 49 54  1  0  0  0  0
 49 73  1  0  0  0  0
 50 78  1  0  0  0  0
 51 76  1  0  0  0  0
 52 71  1  0  0  0  0
 53 70  1  0  0  0  0
 54 63  1  0  0  0  0
 54 78  1  0  0  0  0
 57 66  1  0  0  0  0
 58 67  1  0  0  0  0
 59 67  1  0  0  0  0
 60 67  1  0  0  0  0
 61 79  1  0  0  0  0
 62 80  1  0  0  0  0
 63 64  1  0  0  0  0
 64 80  1  0  0  0  0
 65 67  1  0  0  0  0
 65 77  1  0  0  0  0
 66 79  1  0  0  0  0
 68 70  1  0  0  0  0
M  CHG  3  78   1  79   1  80   1
M  ISO  4  31 101  37 100  73 100  87 101
M  END
> <Batch ID>
0126

> <Smiles>
CNC(C)C(=O)NC(C(=O)N1Cc2cc([101O:1][101c:1]3cc(C)c(CNCCC4C[100N:0]([100C:0](=O)N5CCCC(n6nc(-c7ccc(Oc8ccc(F)cc8F)cc7)c(C(N)=O)c6N)C5)CCCN4)c(C)n3)ccc2CC1C(=O)NC1CCCc2ccccc21)C(C)(C)C

> <Shape>
0.236

> <Color>
0.095

> <Negative vol penalty>
0.000

$$$$

  -OEChem-04052320383D

 81 89  0     1  0  0  0  0  0999 V2000
  -30.0787  -10.8844   19.7634 C   0  0  0  0  0  0  0  0  0  0  0  0
  -30.0642  -12.2475   19.4853 C   0  0  0  0  0  0  0  0  0  0  0  0
  -21.4426  -28.3685   21.1785 C   0  0  0  0  0  0  0  0  0  0  0  0
  -23.2102  -27.2491   22.3865 C   0  0  0  0  0  0  0  0  0  0  0  0
  -28.8937  -10.2294   20.0959 C   0  0  0  0  0  0  0  0  0  0  0  0
  -28.8644  -12.9560   19.5384 C   0  0  0  0  0  0  0  0  0  0  0  0
  -29.3279  -17.3829   21.9535 C   0  0  0  0  0  0  0  0  0  0  0  0
  -20.5642  -27.3358   21.5067 C   0  0  0  0  0  0  0  0  0  0  0  0
  -22.3318  -26.2164   22.7148 C   0  0  0  0  0  0  0  0  0  0  0  0
  -29.9098  -18.4353   21.2480 C   0  0  0  0  0  0  0  0  0  0  0  0
  -18.7379  -26.3760   24.1856 C   0  0  0  0  0  0  0  0  0  0  0  0
  -17.4635  -26.7261   24.6313 C   0  0  0  0  0  0  0  0  0  0  0  0
  -31.1254  -24.2060   17.2274 C   0  0  0  0  0  0  0  0  0  0  0  0
  -27.7180  -19.3343   20.7932 C   0  0  0  0  0  0  0  0  0  0  0  0
  -29.5534  -23.7748   19.0011 C   0  0  0  0  0  0  0  0  0  0  0  0
  -16.4850  -25.5230   22.7787 C   0  0  0  0  0  0  0  0  0  0  0  0
  -31.1239  -22.8489   16.9377 C   0  0  0  0  0  0  0  0  0  0  0  0
  -22.7656  -28.3251   21.6184 C   0  0  0  0  0  0  0  0  0  0  0  0
  -23.9163  -30.5672   22.0140 C   0  0  0  0  0  0  0  0  0  0  0  0
  -27.6804  -10.9322   20.1626 C   0  0  0  0  0  0  0  0  0  0  0  0
  -27.9339  -17.2923   22.0751 C   0  0  0  0  0  0  0  0  0  0  0  0
  -27.6618  -12.3095   19.8708 C   0  0  0  0  0  0  0  0  0  0  0  0
  -27.1210  -18.2812   21.5030 C   0  0  0  0  0  0  0  0  0  0  0  0
  -30.3301  -24.6694   18.2710 C   0  0  0  0  0  0  0  0  0  0  0  0
  -21.0088  -26.2598   22.2749 C   0  0  0  0  0  0  0  0  0  0  0  0
  -29.1047  -19.4096   20.6652 C   0  0  0  0  0  0  0  0  0  0  0  0
  -18.8860  -25.5995   23.0363 C   0  0  0  0  0  0  0  0  0  0  0  0
  -16.3370  -26.2996   23.9279 C   0  0  0  0  0  0  0  0  0  0  0  0
  -17.7596  -25.1729   22.3329 C   0  0  0  0  0  0  0  0  0  0  0  0
  -23.6735  -29.3912   21.2792 C   0  0  0  0  0  0  0  0  0  0  0  0
  -29.5916  -22.4287   18.6665 C   0  0  0  0  0  0  0  0  0  0  0  0
  -24.8532  -31.2469   21.2746 C   0  0  0  0  0  0  0  0  0  0  0  0
  -23.3459  -31.0059   23.2542 C   0  0  0  0  0  0  0  0  0  0  0  0
  -25.7354  -15.1835   21.1676 C   0  0  0  0  0  0  0  0  0  0  0  0
  -23.7534  -17.0990   22.8778 C   0  0  0  0  0  0  0  0  0  0  0  0
  -23.1216  -20.1903   24.1784 C   0  0  0  0  0  0  0  0  0  0  0  0
  -28.9777  -29.4855   17.3076 C   0  0  0  0  0  0  0  0  0  0  0  0
  -26.4173  -10.1715   20.4802 C   0  0  0  0  0  0  0  0  0  0  0  0
  -27.3230  -16.1655   22.8622 C   0  0  0  0  0  0  0  0  0  0  0  0
  -25.6201  -18.2408   21.6219 C   0  0  0  0  0  0  0  0  0  0  0  0
  -25.2498  -11.0697   20.8806 C   0  0  0  0  0  0  0  0  0  0  0  0
  -26.3600  -31.8388   16.7724 C   0  0  0  0  0  0  0  0  0  0  0  0
  -25.1242  -12.2441   19.9153 C   0  0  0  0  0  0  0  0  0  0  0  0
  -25.3965  -31.5845   17.9330 C   0  0  0  0  0  0  0  0  0  0  0  0
  -26.9925  -30.5430   16.2697 C   0  0  0  0  0  0  0  0  0  0  0  0
  -26.6877  -29.4767   18.4706 C   0  0  0  0  0  0  0  0  0  0  0  0
  -26.3843  -13.1175   19.9423 C   0  0  1  0  0  0  0  0  0  0  0  0
  -25.8700  -15.8925   22.4855 C   0  0  1  0  0  0  0  0  0  0  0  0
  -26.0674  -30.7604   19.0484 C   0  0  2  0  0  0  0  0  0  0  0  0
  -21.4035  -21.4599   25.4951 C   0  0  0  0  0  0  0  0  0  0  0  0
  -21.9827  -17.2692   20.3988 C   0  0  0  0  0  0  0  0  0  0  0  0
  -20.8459  -19.2461   21.4319 C   0  0  0  0  0  0  0  0  0  0  0  0
  -20.7389  -17.0209   22.5541 C   0  0  0  0  0  0  0  0  0  0  0  0
  -25.0381  -20.7453   26.3643 C   0  0  0  0  0  0  0  0  0  0  0  0
  -28.7854  -21.4005   19.4042 C   0  0  0  0  0  0  0  0  0  1  0  0
  -31.0870  -27.0148   17.8814 C   0  0  0  0  0  0  0  0  0  0  0  0
  -30.8753  -28.3976   18.4800 C   0  0  0  0  0  0  0  0  0  0  0  0
  -22.9116  -18.3136   22.5696 C   0  0  1  0  0  0  0  0  0  0  0  0
  -22.6757  -20.6293   25.5615 C   0  0  2  0  0  0  0  0  0  0  0  0
  -21.6479  -17.9625   21.7345 C   0  0  0  0  0  0  0  0  0  0  0  0
  -24.3977  -29.3246   20.1588 N   0  0  0  0  0  0  0  0  0  0  0  0
  -25.1046  -30.4673   20.1841 N   0  0  0  0  0  0  0  0  0  0  0  0
  -30.3664  -22.0094   17.6568 N   0  3  0  0  0  0  0  0  0  0  0  0
  -25.0700  -17.1157   22.3960 N   0  0  0  0  0  0  0  0  0  0  0  0
  -27.6127  -29.8098   17.3759 N   0  0  0  0  0  0  0  0  0  0  0  0
  -25.4782  -32.4294   21.4574 N   0  0  0  0  0  0  0  0  0  0  0  0
  -22.3975  -30.1858   23.8805 N   0  0  0  0  0  0  0  0  0  0  0  0
  -30.3124  -26.0430   18.5895 N   0  0  0  0  0  0  0  0  0  0  0  0
  -26.3863  -13.9657   21.1149 N   0  0  0  0  0  0  0  0  0  0  0  0
  -22.6234  -18.9467   23.8520 N   0  0  0  0  0  0  0  0  0  0  0  0
  -29.4875  -28.7957   18.4008 N   0  0  0  0  0  0  0  0  0  0  0  0
  -23.7376  -21.4473   26.2127 N   0  3  0  0  0  0  0  0  0  0  0  0
  -23.6557  -32.1005   23.7827 O   0  0  0  0  0  0  0  0  0  0  0  0
  -25.0877  -15.7022   20.2659 O   0  0  0  0  0  0  0  0  0  0  0  0
  -23.2632  -16.1728   23.5285 O   0  0  0  0  0  0  0  0  0  0  0  0
  -23.8369  -20.8830   23.4581 O   0  0  0  0  0  0  0  0  0  0  0  0
  -29.6905  -29.7930   16.3462 O   0  0  0  0  0  0  0  0  0  0  0  0
  -20.1520  -25.2521   22.5955 O   0  0  0  0  0  0  0  0  0  0  0  0
  -29.6700  -20.4375   19.9755 O   0  0  0  0  0  0  0  0  0  1  0  0
  -15.1131  -26.6346   24.3569 F   0  0  0  0  0  0  0  0  0  0  0  0
  -17.8955  -24.4256   21.2288 F   0  0  0  0  0  0  0  0  0  0  0  0
  1  2  1  0  0  0  0
  1  5  2  0  0  0  0
  2  6  2  0  0  0  0
  3  8  2  0  0  0  0
  3 18  1  0  0  0  0
  4  9  1  0  0  0  0
  4 18  2  0  0  0  0
  5 20  1  0  0  0  0
  6 22  1  0  0  0  0
  7 10  2  0  0  0  0
  7 21  1  0  0  0  0
  8 25  1  0  0  0  0
  9 25  2  0  0  0  0
 10 26  1  0  0  0  0
 11 12  2  0  0  0  0
 11 27  1  0  0  0  0
 12 28  1  0  0  0  0
 13 17  2  0  0  0  0
 13 24  1  0  0  0  0
 14 23  1  0  0  0  0
 14 26  2  0  0  0  0
 15 24  2  0  0  0  0
 15 31  1  0  0  0  0
 16 28  2  0  0  0  0
 16 29  1  0  0  0  0
 17 63  1  0  0  0  0
 18 30  1  0  0  0  0
 19 30  1  0  0  0  0
 19 32  2  0  0  0  0
 19 33  1  0  0  0  0
 20 22  2  0  0  0  0
 20 38  1  0  0  0  0
 21 23  2  0  0  0  0
 21 39  1  0  0  0  0
 22 47  1  0  0  0  0
 23 40  1  0  0  0  0
 24 68  1  0  0  0  0
 25 78  1  0  0  0  0
 26 79  1  0  0  0  0
 27 29  2  0  0  0  0
 27 78  1  0  0  0  0
 28 80  1  0  0  0  0
 29 81  1  0  0  0  0
 30 61  2  0  0  0  0
 31 55  1  0  0  0  0
 31 63  2  0  0  0  0
 32 62  1  0  0  0  0
 32 66  1  0  0  0  0
 33 67  1  0  0  0  0
 33 73  2  0  0  0  0
 34 48  1  0  0  0  0
 34 69  1  0  0  0  0
 34 74  2  0  0  0  0
 35 58  1  0  0  0  0
 35 64  1  0  0  0  0
 35 75  2  0  0  0  0
 36 59  1  0  0  0  0
 36 70  1  0  0  0  0
 36 76  2  0  0  0  0
 37 65  1  0  0  0  0
 37 71  1  0  0  0  0
 37 77  2  0  0  0  0
 38 41  1  0  0  0  0
 39 48  1  0  0  0  0
 40 64  1  0  0  0  0
 41 43  1  0  0  0  0
 42 44  1  0  0  0  0
 42 45  1  0  0  0  0
 43 47  1  0  0  0  0
 44 49  1  0  0  0  0
 45 65  1  0  0  0  0
 46 49  1  0  0  0  0
 46 65  1  0  0  0  0
 47 69  1  0  0  0  0
 48 64  1  0  0  0  0
 49 62  1  0  0  0  0
 50 59  1  0  0  0  0
 51 60  1  0  0  0  0
 52 60  1  0  0  0  0
 53 60  1  0  0  0  0
 54 72  1  0  0  0  0
 55 79  1  0  0  0  0
 56 57  1  0  0  0  0
 56 68  1  0  0  0  0
 57 71  1  0  0  0  0
 58 60  1  0  0  0  0
 58 70  1  0  0  0  0
 59 72  1  0  0  0  0
 61 62  1  0  0  0  0
M  CHG  2  63   1  72   1
M  ISO  4  37 100  55 101  71 100  79 101
M  END
> <Batch ID>
0126

> <Smiles>
CNC(C)C(=O)NC(C(=O)N1Cc2cc([101O:1][101CH2:1]c3cc(NCC[100NH:0][100C:0](=O)N4CCCC(n5nc(-c6ccc(Oc7ccc(F)cc7F)cc6)c(C(N)=O)c5N)C4)ccn3)ccc2CC1C(=O)NC1CCCc2ccccc21)C(C)(C)C

> <Shape>
0.226

> <Color>
0.074

> <Negative vol penalty>
0.000

$$$$

  -OEChem-04052320383D

 89 98  0     1  0  0  0  0  0999 V2000
  -28.2552  -24.7755   27.4555 C   0  0  0  0  0  0  0  0  0  0  0  0
  -27.8414  -24.3085   26.2121 C   0  0  0  0  0  0  0  0  0  0  0  0
  -23.1906  -10.2316   21.9788 C   0  0  0  0  0  0  0  0  0  0  0  0
  -24.7220  -10.8832   23.7302 C   0  0  0  0  0  0  0  0  0  0  0  0
  -27.7191  -25.9555   27.9694 C   0  0  0  0  0  0  0  0  0  0  0  0
  -26.8903  -25.0207   25.4823 C   0  0  0  0  0  0  0  0  0  0  0  0
  -28.1306  -25.4711   20.5932 C   0  0  0  0  0  0  0  0  0  0  0  0
  -22.6587   -9.2462   22.8105 C   0  0  0  0  0  0  0  0  0  0  0  0
  -24.1901   -9.8978   24.5619 C   0  0  0  0  0  0  0  0  0  0  0  0
  -27.9154  -24.3616   19.7769 C   0  0  0  0  0  0  0  0  0  0  0  0
  -23.5003   -6.1408   23.8461 C   0  0  0  0  0  0  0  0  0  0  0  0
  -23.2885   -4.8759   23.2977 C   0  0  0  0  0  0  0  0  0  0  0  0
  -25.8731  -25.3594   18.9691 C   0  0  0  0  0  0  0  0  0  0  0  0
  -24.7272  -20.0727   19.8327 C   0  0  0  0  0  0  0  0  0  0  0  0
  -20.9316   -5.0536   23.7980 C   0  0  0  0  0  0  0  0  0  0  0  0
  -26.8296  -20.0910   19.0270 C   0  0  0  0  0  0  0  0  0  0  0  0
  -24.2223  -11.0500   22.4386 C   0  0  0  0  0  0  0  0  0  0  0  0
  -24.0879  -13.1531   21.0010 C   0  0  0  0  0  0  0  0  0  0  0  0
  -26.7681  -26.6876   27.2413 C   0  0  0  0  0  0  0  0  0  0  0  0
  -27.2115  -26.5301   20.6117 C   0  0  0  0  0  0  0  0  0  0  0  0
  -26.3399  -26.2109   25.9876 C   0  0  0  0  0  0  0  0  0  0  0  0
  -26.0802  -26.4824   19.7846 C   0  0  0  0  0  0  0  0  0  0  0  0
  -25.5518  -20.5426   18.7809 C   0  0  0  0  0  0  0  0  0  0  0  0
  -23.1585   -9.0793   24.1020 C   0  0  0  0  0  0  0  0  0  0  0  0
  -26.7851  -24.3043   18.9668 C   0  0  0  0  0  0  0  0  0  0  0  0
  -22.4277   -6.8621   24.3706 C   0  0  0  0  0  0  0  0  0  0  0  0
  -22.0042   -4.3323   23.2736 C   0  0  0  0  0  0  0  0  0  0  0  0
  -21.1434   -6.3185   24.3465 C   0  0  0  0  0  0  0  0  0  0  0  0
  -24.7726  -12.0677   21.5798 C   0  0  0  0  0  0  0  0  0  0  0  0
  -25.5263  -19.3485   20.6897 C   0  0  0  0  0  0  0  0  0  0  0  0
  -25.0481  -13.8195   20.2796 C   0  0  0  0  0  0  0  0  0  0  0  0
  -22.7073  -13.5256   21.1061 C   0  0  0  0  0  0  0  0  0  0  0  0
  -25.3432  -27.8402   22.8246 C   0  0  0  0  0  0  0  0  0  0  0  0
  -24.7348  -29.9950   20.4774 C   0  0  0  0  0  0  0  0  0  0  0  0
  -24.1244  -29.9145   16.9224 C   0  0  0  0  0  0  0  0  0  0  0  0
  -31.0058  -14.1657   20.7663 C   0  0  0  0  0  0  0  0  0  0  0  0
  -26.1822  -27.9326   27.8590 C   0  0  0  0  0  0  0  0  0  0  0  0
  -27.4717  -27.7319   21.4779 C   0  0  0  0  0  0  0  0  0  0  0  0
  -25.0735  -27.6023   19.7526 C   0  0  0  0  0  0  0  0  0  0  0  0
  -25.4558  -28.8259   26.8566 C   0  0  0  0  0  0  0  0  0  0  0  0
  -29.1490  -13.0826   17.9280 C   0  0  0  0  0  0  0  0  0  0  0  0
  -24.5330  -27.9943   25.9713 C   0  0  0  0  0  0  0  0  0  0  0  0
  -27.7551  -12.7976   18.4898 C   0  0  0  0  0  0  0  0  0  0  0  0
  -30.4334  -21.3631   23.0027 C   0  0  0  0  0  0  0  0  0  0  0  0
  -30.2460  -12.7003   18.9192 C   0  0  0  0  0  0  0  0  0  0  0  0
  -28.9902  -21.7590   22.7083 C   0  0  0  0  0  0  0  0  0  0  0  0
  -28.7111  -13.0134   20.8218 C   0  0  0  0  0  0  0  0  0  0  0  0
  -30.5417  -19.8950   23.3872 C   0  0  0  0  0  0  0  0  0  0  0  0
  -25.3286  -26.9685   25.1550 C   0  0  1  0  0  0  0  0  0  0  0  0
  -26.2066  -28.5211   21.8006 C   0  0  1  0  0  0  0  0  0  0  0  0
  -27.5699  -13.4346   19.8803 C   0  0  2  0  0  0  0  0  0  0  0  0
  -28.5025  -19.5101   21.9780 C   0  0  2  0  0  0  0  0  0  0  0  0
  -25.1793  -18.6425   21.9404 C   0  0  0  0  0  0  0  0  0  0  0  0
  -24.5305  -31.6516   15.1575 C   0  0  0  0  0  0  0  0  0  0  0  0
  -21.8287  -30.7736   20.9855 C   0  0  0  0  0  0  0  0  0  0  0  0
  -21.5763  -31.1649   18.5255 C   0  0  0  0  0  0  0  0  0  0  0  0
  -23.1950  -32.5300   19.8442 C   0  0  0  0  0  0  0  0  0  0  0  0
  -25.7626  -28.0549   15.3046 C   0  0  0  0  0  0  0  0  0  0  0  0
  -25.1124  -21.3826   17.6064 C   0  0  0  0  0  0  0  0  0  0  0  0
  -27.9545  -18.7253   20.7845 C   0  0  0  0  0  0  0  0  0  0  0  0
  -31.4177  -17.0785   22.3053 C   0  0  0  0  0  0  0  0  0  0  0  0
  -31.6195  -15.6155   22.6848 C   0  0  0  0  0  0  0  0  0  0  0  0
  -30.0239  -17.5801   22.6607 C   0  0  0  0  0  0  0  0  0  0  0  0
  -25.2159  -22.8770   17.8914 C   0  0  0  0  0  0  0  0  0  1  0  0
  -23.7224  -30.1047   19.3630 C   0  0  1  0  0  0  0  0  0  0  0  0
  -25.0611  -30.3942   15.8284 C   0  0  2  0  0  0  0  0  0  0  0  0
  -22.5892  -31.1180   19.6894 C   0  0  0  0  0  0  0  0  0  0  0  0
  -26.0677  -12.0423   21.2541 N   0  0  0  0  0  0  0  0  0  0  0  0
  -26.8023  -19.3666   20.1900 N   0  0  0  0  0  0  0  0  0  0  0  0
  -26.2044  -13.1199   20.4628 N   0  0  0  0  0  0  0  0  0  0  0  0
  -28.4240  -20.9386   21.6404 N   0  0  0  0  0  0  0  0  0  0  0  0
  -25.3691  -28.7530   20.6220 N   0  0  0  0  0  0  0  0  0  0  0  0
  -30.0124  -13.3384   20.2170 N   0  0  0  0  0  0  0  0  0  0  0  0
  -25.0076  -14.9298   19.5128 N   0  0  0  0  0  0  0  0  0  0  0  0
  -21.8584  -12.7305   21.8881 N   0  0  0  0  0  0  0  0  0  0  0  0
  -25.9764  -27.6100   24.0310 N   0  0  0  0  0  0  0  0  0  0  0  0
  -24.4773  -30.4210   18.1554 N   0  0  0  0  0  0  0  0  0  0  0  0
  -30.7012  -14.7362   21.9962 N   0  0  0  0  0  0  0  0  0  0  0  0
  -29.9202  -19.0397   22.3015 N   0  3  2  0  0  0  0  0  0  0  0  0
  -25.2253  -29.3400   14.7879 N   0  3  0  0  0  0  0  0  0  0  0  0
  -22.2368  -14.5243   20.5105 O   0  0  0  0  0  0  0  0  0  0  0  0
  -24.1875  -27.5469   22.5416 O   0  0  0  0  0  0  0  0  0  0  0  0
  -24.9599  -30.9773   21.1888 O   0  0  0  0  0  0  0  0  0  0  0  0
  -23.1725  -29.1683   16.7044 O   0  0  0  0  0  0  0  0  0  0  0  0
  -32.0821  -14.3843   20.2000 O   0  0  0  0  0  0  0  0  0  0  0  0
  -22.6395   -8.1181   24.9140 O   0  0  0  0  0  0  0  0  0  0  0  0
  -26.5723  -23.2221   18.1696 O   0  0  0  0  0  0  0  0  0  1  0  0
  -21.8007   -3.1182   22.7456 F   0  0  0  0  0  0  0  0  0  0  0  0
  -20.1089   -7.0072   24.8478 F   0  0  0  0  0  0  0  0  0  0  0  0
  1  2  1  0  0  0  0
  1  5  2  0  0  0  0
  2  6  2  0  0  0  0
  3  8  2  0  0  0  0
  3 17  1  0  0  0  0
  4  9  1  0  0  0  0
  4 17  2  0  0  0  0
  5 19  1  0  0  0  0
  6 21  1  0  0  0  0
  7 10  2  0  0  0  0
  7 20  1  0  0  0  0
  8 24  1  0  0  0  0
  9 24  2  0  0  0  0
 10 25  1  0  0  0  0
 11 12  2  0  0  0  0
 11 26  1  0  0  0  0
 12 27  1  0  0  0  0
 13 22  1  0  0  0  0
 13 25  2  0  0  0  0
 14 23  1  0  0  0  0
 14 30  2  0  0  0  0
 15 27  2  0  0  0  0
 15 28  1  0  0  0  0
 16 23  2  0  0  0  0
 16 69  1  0  0  0  0
 17 29  1  0  0  0  0
 18 29  1  0  0  0  0
 18 31  2  0  0  0  0
 18 32  1  0  0  0  0
 19 21  2  0  0  0  0
 19 37  1  0  0  0  0
 20 22  2  0  0  0  0
 20 38  1  0  0  0  0
 21 49  1  0  0  0  0
 22 39  1  0  0  0  0
 23 59  1  0  0  0  0
 24 86  1  0  0  0  0
 25 87  1  0  0  0  0
 26 28  2  0  0  0  0
 26 86  1  0  0  0  0
 27 88  1  0  0  0  0
 28 89  1  0  0  0  0
 29 68  2  0  0  0  0
 30 53  1  0  0  0  0
 30 69  1  0  0  0  0
 31 70  1  0  0  0  0
 31 74  1  0  0  0  0
 32 75  1  0  0  0  0
 32 81  2  0  0  0  0
 33 50  1  0  0  0  0
 33 76  1  0  0  0  0
 33 82  2  0  0  0  0
 34 65  1  0  0  0  0
 34 72  1  0  0  0  0
 34 83  2  0  0  0  0
 35 66  1  0  0  0  0
 35 77  1  0  0  0  0
 35 84  2  0  0  0  0
 36 73  1  0  0  0  0
 36 78  1  0  0  0  0
 36 85  2  0  0  0  0
 37 40  1  0  0  0  0
 38 50  1  0  0  0  0
 39 72  1  0  0  0  0
 40 42  1  0  0  0  0
 41 43  1  0  0  0  0
 41 45  1  0  0  0  0
 42 49  1  0  0  0  0
 43 51  1  0  0  0  0
 44 46  1  0  0  0  0
 44 48  1  0  0  0  0
 45 73  1  0  0  0  0
 46 71  1  0  0  0  0
 47 51  1  0  0  0  0
 47 73  1  0  0  0  0
 48 79  1  0  0  0  0
 49 76  1  0  0  0  0
 50 72  1  0  0  0  0
 51 70  1  0  0  0  0
 52 60  1  0  0  0  0
 52 71  1  0  0  0  0
 52 79  1  0  0  0  0
 54 66  1  0  0  0  0
 55 67  1  0  0  0  0
 56 67  1  0  0  0  0
 57 67  1  0  0  0  0
 58 80  1  0  0  0  0
 59 64  1  0  0  0  0
 60 69  1  0  0  0  0
 61 62  1  0  0  0  0
 61 63  1  0  0  0  0
 62 78  1  0  0  0  0
 63 79  1  0  0  0  0
 64 87  1  0  0  0  0
 65 67  1  0  0  0  0
 65 77  1  0  0  0  0
 66 80  1  0  0  0  0
 68 70  1  0  0  0  0
M  CHG  2  79   1  80   1
M  ISO  4  36 100  64 101  78 100  87 101
M  END
> <Batch ID>
0126

> <Smiles>
CNC(C)C(=O)NC(C(=O)N1Cc2cc([101O:1][101CH2:1]Cc3cc(C)n(CC4NCCCN4CCC[100NH:0][100C:0](=O)N4CCCC(n5nc(-c6ccc(Oc7ccc(F)cc7F)cc6)c(C(N)=O)c5N)C4)c3)ccc2CC1C(=O)NC1CCCc2ccccc21)C(C)(C)C

> <Shape>
0.243

> <Color>
0.132

> <Negative vol penalty>
0.000

$$$$

  -OEChem-04052320383D

 83 91  0     1  0  0  0  0  0999 V2000
  -16.8921  -28.9576   24.3316 C   0  0  0  0  0  0  0  0  0  0  0  0
  -17.4998  -27.9644   23.5702 C   0  0  0  0  0  0  0  0  0  0  0  0
  -23.0179  -14.3191   22.8137 C   0  0  0  0  0  0  0  0  0  0  0  0
  -23.4479  -11.9889   22.3418 C   0  0  0  0  0  0  0  0  0  0  0  0
  -17.3478  -30.2728   24.2513 C   0  0  0  0  0  0  0  0  0  0  0  0
  -18.5630  -28.2861   22.7272 C   0  0  0  0  0  0  0  0  0  0  0  0
  -22.3780  -24.9726   23.0605 C   0  0  0  0  0  0  0  0  0  0  0  0
  -22.1579  -13.9508   23.8483 C   0  0  0  0  0  0  0  0  0  0  0  0
  -22.5879  -11.6207   23.3765 C   0  0  0  0  0  0  0  0  0  0  0  0
  -22.2263  -23.7577   22.3936 C   0  0  0  0  0  0  0  0  0  0  0  0
  -18.9831  -12.8367   24.1703 C   0  0  0  0  0  0  0  0  0  0  0  0
  -17.7580  -13.4976   24.2600 C   0  0  0  0  0  0  0  0  0  0  0  0
  -23.5927  -24.5861   20.5864 C   0  0  0  0  0  0  0  0  0  0  0  0
  -18.3425  -14.2813   26.4693 C   0  0  0  0  0  0  0  0  0  0  0  0
  -23.6628  -13.3381   22.0604 C   0  0  0  0  0  0  0  0  0  0  0  0
  -24.2295  -14.4715   19.8463 C   0  0  0  0  0  0  0  0  0  0  0  0
  -18.4234  -30.6091   23.4142 C   0  0  0  0  0  0  0  0  0  0  0  0
  -23.1305  -26.0090   22.4894 C   0  0  0  0  0  0  0  0  0  0  0  0
  -19.0327  -29.6073   22.6347 C   0  0  0  0  0  0  0  0  0  0  0  0
  -23.7546  -25.8122   21.2493 C   0  0  0  0  0  0  0  0  0  0  0  0
  -21.9429  -12.6017   24.1297 C   0  0  0  0  0  0  0  0  0  0  0  0
  -22.8313  -23.5653   21.1550 C   0  0  0  0  0  0  0  0  0  0  0  0
  -19.8879  -12.8980   25.2302 C   0  0  0  0  0  0  0  0  0  0  0  0
  -17.4377  -14.2199   25.4094 C   0  0  0  0  0  0  0  0  0  0  0  0
  -19.5675  -13.6204   26.3797 C   0  0  0  0  0  0  0  0  0  0  0  0
  -24.5509  -13.7178   20.9911 C   0  0  0  0  0  0  0  0  0  0  0  0
  -25.4094  -14.5557   19.1484 C   0  0  0  0  0  0  0  0  0  0  0  0
  -22.9765  -15.0442   19.4494 C   0  0  0  0  0  0  0  0  0  0  0  0
  -22.4986  -28.9706   21.5235 C   0  0  0  0  0  0  0  0  0  0  0  0
  -25.7098  -29.0951   21.0821 C   0  0  0  0  0  0  0  0  0  0  0  0
  -28.6270  -27.4096   20.5382 C   0  0  0  0  0  0  0  0  0  0  0  0
  -31.1299  -13.9274   21.2506 C   0  0  0  0  0  0  0  0  0  0  0  0
  -18.8501  -32.0529   23.3252 C   0  0  0  0  0  0  0  0  0  0  0  0
  -23.3067  -27.3040   23.2339 C   0  0  0  0  0  0  0  0  0  0  0  0
  -24.5896  -26.8860   20.6025 C   0  0  0  0  0  0  0  0  0  0  0  0
  -20.2251  -32.2436   22.6900 C   0  0  0  0  0  0  0  0  0  0  0  0
  -29.5065  -12.2129   18.3999 C   0  0  0  0  0  0  0  0  0  0  0  0
  -20.3468  -31.4080   21.4196 C   0  0  0  0  0  0  0  0  0  0  0  0
  -28.0206  -12.4137   18.6928 C   0  0  0  0  0  0  0  0  0  0  0  0
  -25.5038  -20.3974   21.6060 C   0  0  0  0  0  0  0  0  0  0  0  0
  -25.4214  -18.8534   20.1337 C   0  0  0  0  0  0  0  0  0  0  0  0
  -30.3395  -12.1972   19.6780 C   0  0  0  0  0  0  0  0  0  0  0  0
  -28.6585  -13.5961   20.8319 C   0  0  0  0  0  0  0  0  0  0  0  0
  -20.2046  -29.9125   21.7272 C   0  0  1  0  0  0  0  0  0  0  0  0
  -23.6695  -28.4725   22.3226 C   0  0  1  0  0  0  0  0  0  0  0  0
  -26.5824  -19.5285   20.9089 C   0  0  0  0  0  0  0  0  0  0  0  0
  -24.6068  -20.1524   20.3650 C   0  0  0  0  0  0  0  0  0  0  0  0
  -27.7967  -13.6633   19.5621 C   0  0  2  0  0  0  0  0  0  0  0  0
  -31.0826  -27.7856   20.1832 C   0  0  0  0  0  0  0  0  0  0  0  0
  -22.4050  -19.7063   19.2999 C   0  0  0  0  0  0  0  0  0  0  0  0
  -25.1556  -29.9964   18.2202 C   0  0  0  0  0  0  0  0  0  0  0  0
  -27.5312  -29.4398   17.6589 C   0  0  0  0  0  0  0  0  0  0  0  0
  -27.0315  -31.2046   19.3496 C   0  0  0  0  0  0  0  0  0  0  0  0
  -32.1699  -15.9323   22.2397 C   0  0  0  0  0  0  0  0  0  0  0  0
  -29.3323  -25.8624   22.9606 C   0  0  0  0  0  0  0  0  0  0  0  0
  -27.4128  -18.6315   21.8030 C   0  0  0  0  0  0  0  0  0  0  0  0
  -30.2000  -16.2343   20.7859 C   0  0  0  0  0  0  0  0  0  0  0  0
  -29.2736  -16.9665   21.7387 C   0  0  0  0  0  0  0  0  0  0  0  0
  -22.5126  -21.2133   21.3041 C   0  0  0  0  0  0  0  0  0  1  0  0
  -26.6452  -28.7770   19.9407 C   0  0  1  0  0  0  0  0  0  0  0  0
  -29.9881  -27.5113   21.2028 C   0  0  2  0  0  0  0  0  0  0  0  0
  -23.1236  -19.9861   20.6222 C   0  0  2  0  0  0  0  0  0  0  0  0
  -26.5736  -29.8347   18.8034 C   0  0  0  0  0  0  0  0  0  0  0  0
  -25.8343  -13.3494   21.0224 N   0  0  0  0  0  0  0  0  0  0  0  0
  -26.3298  -13.8737   19.8885 N   0  0  0  0  0  0  0  0  0  0  0  0
  -24.7269  -28.1367   21.3668 N   0  0  0  0  0  0  0  0  0  0  0  0
  -30.0752  -13.3746   20.5057 N   0  0  0  0  0  0  0  0  0  0  0  0
  -25.7390  -15.1459   17.9798 N   0  0  0  0  0  0  0  0  0  0  0  0
  -21.8647  -14.8625   20.2833 N   0  0  0  0  0  0  0  0  0  0  0  0
  -21.4317  -29.3940   22.2929 N   0  0  0  0  0  0  0  0  0  0  0  0
  -27.9707  -28.6222   20.5302 N   0  0  0  0  0  0  0  0  0  0  0  0
  -31.0929  -15.3108   21.4823 N   0  0  0  0  0  0  0  0  0  0  0  0
  -30.3142  -26.2420   21.9124 N   0  3  0  0  0  0  0  0  0  0  0  0
  -28.3554  -17.8510   20.9687 N   0  3  0  0  0  0  0  0  0  0  0  0
  -22.8427  -15.6839   18.3787 O   0  0  0  0  0  0  0  0  0  0  0  0
  -22.5593  -28.9723   20.2996 O   0  0  0  0  0  0  0  0  0  0  0  0
  -25.8508  -30.1517   21.7030 O   0  0  0  0  0  0  0  0  0  0  0  0
  -28.1913  -26.3602   20.0696 O   0  0  0  0  0  0  0  0  0  0  0  0
  -32.0569  -13.2261   21.6757 O   0  0  0  0  0  0  0  0  0  0  0  0
  -21.1040  -12.2420   25.1394 O   0  0  0  0  0  0  0  0  0  0  0  0
  -22.6842  -22.3807   20.5016 O   0  0  0  0  0  0  0  0  0  1  0  0
  -16.2619  -14.8557   25.4948 F   0  0  0  0  0  0  0  0  0  0  0  0
  -20.4332  -13.6839   27.4007 F   0  0  0  0  0  0  0  0  0  0  0  0
  1  2  1  0  0  0  0
  1  5  2  0  0  0  0
  2  6  2  0  0  0  0
  3  8  2  0  0  0  0
  3 15  1  0  0  0  0
  4  9  1  0  0  0  0
  4 15  2  0  0  0  0
  5 17  1  0  0  0  0
  6 19  1  0  0  0  0
  7 10  2  0  0  0  0
  7 18  1  0  0  0  0
  8 21  1  0  0  0  0
  9 21  2  0  0  0  0
 10 22  1  0  0  0  0
 11 12  2  0  0  0  0
 11 23  1  0  0  0  0
 12 24  1  0  0  0  0
 13 20  1  0  0  0  0
 13 22  2  0  0  0  0
 14 24  2  0  0  0  0
 14 25  1  0  0  0  0
 15 26  1  0  0  0  0
 16 26  1  0  0  0  0
 16 27  2  0  0  0  0
 16 28  1  0  0  0  0
 17 19  2  0  0  0  0
 17 33  1  0  0  0  0
 18 20  2  0  0  0  0
 18 34  1  0  0  0  0
 19 44  1  0  0  0  0
 20 35  1  0  0  0  0
 21 80  1  0  0  0  0
 22 81  1  0  0  0  0
 23 25  2  0  0  0  0
 23 80  1  0  0  0  0
 24 82  1  0  0  0  0
 25 83  1  0  0  0  0
 26 64  2  0  0  0  0
 27 65  1  0  0  0  0
 27 68  1  0  0  0  0
 28 69  1  0  0  0  0
 28 75  2  0  0  0  0
 29 45  1  0  0  0  0
 29 70  1  0  0  0  0
 29 76  2  0  0  0  0
 30 60  1  0  0  0  0
 30 66  1  0  0  0  0
 30 77  2  0  0  0  0
 31 61  1  0  0  0  0
 31 71  1  0  0  0  0
 31 78  2  0  0  0  0
 32 67  1  0  0  0  0
 32 72  1  0  0  0  0
 32 79  2  0  0  0  0
 33 36  1  0  0  0  0
 34 45  1  0  0  0  0
 35 66  1  0  0  0  0
 36 38  1  0  0  0  0
 37 39  1  0  0  0  0
 37 42  1  0  0  0  0
 38 44  1  0  0  0  0
 39 48  1  0  0  0  0
 40 46  1  0  0  0  0
 40 47  1  0  0  0  0
 41 46  1  0  0  0  0
 41 47  1  0  0  0  0
 42 67  1  0  0  0  0
 43 48  1  0  0  0  0
 43 67  1  0  0  0  0
 44 70  1  0  0  0  0
 45 66  1  0  0  0  0
 46 56  1  0  0  0  0
 47 62  1  0  0  0  0
 48 65  1  0  0  0  0
 49 61  1  0  0  0  0
 50 62  1  0  0  0  0
 51 63  1  0  0  0  0
 52 63  1  0  0  0  0
 53 63  1  0  0  0  0
 54 72  1  0  0  0  0
 55 73  1  0  0  0  0
 56 74  1  0  0  0  0
 57 58  1  0  0  0  0
 57 72  1  0  0  0  0
 58 74  1  0  0  0  0
 59 62  1  0  0  0  0
 59 81  1  0  0  0  0
 60 63  1  0  0  0  0
 60 71  1  0  0  0  0
 61 73  1  0  0  0  0
 64 65  1  0  0  0  0
M  CHG  2  73   1  74   1
M  ISO  4  32 100  59 101  72 100  81 101
M  END
> <Batch ID>
0126

> <Smiles>
CNC(C)C(=O)NC(C(=O)N1Cc2cc([101O:1][101CH2:1]C(C)C3CC(CNCC[100N:0](C)[100C:0](=O)N4CCCC(n5nc(-c6ccc(Oc7ccc(F)cc7F)cc6)c(C(N)=O)c5N)C4)C3)ccc2CC1C(=O)NC1CCCc2ccccc21)C(C)(C)C

> <Shape>
0.232

> <Color>
0.077

> <Negative vol penalty>
0.000

$$$$

  -OEChem-04052320383D

 86 95  0     1  0  0  0  0  0999 V2000
  -26.7781  -35.3155   15.6756 C   0  0  0  0  0  0  0  0  0  0  0  0
  -27.0563  -33.9980   15.3259 C   0  0  0  0  0  0  0  0  0  0  0  0
  -22.8942  -10.1558   19.9608 C   0  0  0  0  0  0  0  0  0  0  0  0
  -23.8199   -9.8690   22.1739 C   0  0  0  0  0  0  0  0  0  0  0  0
  -26.5304  -35.6445   17.0076 C   0  0  0  0  0  0  0  0  0  0  0  0
  -27.0881  -33.0089   16.3084 C   0  0  0  0  0  0  0  0  0  0  0  0
  -25.6510  -26.0589   17.2818 C   0  0  0  0  0  0  0  0  0  0  0  0
  -29.3273  -21.1079   19.2241 C   0  0  0  0  0  0  0  0  0  0  0  0
  -22.1000   -9.0243   20.1464 C   0  0  0  0  0  0  0  0  0  0  0  0
  -23.0257   -8.7375   22.3595 C   0  0  0  0  0  0  0  0  0  0  0  0
  -26.2457  -24.8931   17.7624 C   0  0  0  0  0  0  0  0  0  0  0  0
  -23.0662   -5.4862   21.4331 C   0  0  0  0  0  0  0  0  0  0  0  0
  -23.6675   -4.3562   21.9872 C   0  0  0  0  0  0  0  0  0  0  0  0
  -29.8447  -19.9986   19.8837 C   0  0  0  0  0  0  0  0  0  0  0  0
  -25.7240  -25.5647   20.0198 C   0  0  0  0  0  0  0  0  0  0  0  0
  -22.1107   -4.4329   23.8332 C   0  0  0  0  0  0  0  0  0  0  0  0
  -23.7542  -10.5782   20.9746 C   0  0  0  0  0  0  0  0  0  0  0  0
  -24.2437  -13.0789   21.0949 C   0  0  0  0  0  0  0  0  0  0  0  0
  -26.5496  -34.6574   18.0055 C   0  0  0  0  0  0  0  0  0  0  0  0
  -25.0970  -26.9931   18.1688 C   0  0  0  0  0  0  0  0  0  0  0  0
  -26.8417  -33.3253   17.6552 C   0  0  0  0  0  0  0  0  0  0  0  0
  -25.1205  -26.7404   19.5478 C   0  0  0  0  0  0  0  0  0  0  0  0
  -27.9774  -21.4168   19.3488 C   0  0  0  0  0  0  0  0  0  0  0  0
  -22.1657   -8.3151   21.3457 C   0  0  0  0  0  0  0  0  0  0  0  0
  -26.2848  -24.6472   19.1317 C   0  0  0  0  0  0  0  0  0  0  0  0
  -21.9872   -6.0896   22.0790 C   0  0  0  0  0  0  0  0  0  0  0  0
  -23.1898   -3.8295   23.1872 C   0  0  0  0  0  0  0  0  0  0  0  0
  -21.5094   -5.5630   23.2790 C   0  0  0  0  0  0  0  0  0  0  0  0
  -24.5752  -11.7467   20.7833 C   0  0  0  0  0  0  0  0  0  0  0  0
  -27.1934  -20.5913   20.1384 C   0  0  0  0  0  0  0  0  0  0  0  0
  -28.9772  -19.2366   20.6495 C   0  0  0  0  0  0  0  0  0  0  0  0
  -25.3509  -13.8034   20.7265 C   0  0  0  0  0  0  0  0  0  0  0  0
  -23.0423  -13.6137   21.6662 C   0  0  0  0  0  0  0  0  0  0  0  0
  -25.7725  -20.8474   20.3191 C   0  0  0  0  0  0  0  0  0  0  0  0
  -25.6839  -30.0359   18.8766 C   0  0  0  0  0  0  0  0  0  0  0  0
  -23.0174  -29.7211   20.6968 C   0  0  0  0  0  0  0  0  0  0  0  0
  -20.9021  -27.6580   22.4044 C   0  0  0  0  0  0  0  0  0  0  0  0
  -30.8866  -14.4964   20.5820 C   0  0  0  0  0  0  0  0  0  0  0  0
  -26.3223  -35.0692   19.4384 C   0  0  0  0  0  0  0  0  0  0  0  0
  -24.4354  -28.2330   17.6328 C   0  0  0  0  0  0  0  0  0  0  0  0
  -24.5220  -27.7019   20.5406 C   0  0  0  0  0  0  0  0  0  0  0  0
  -26.0053  -33.8987   20.3656 C   0  0  0  0  0  0  0  0  0  0  0  0
  -29.4292  -12.4544   18.0555 C   0  0  0  0  0  0  0  0  0  0  0  0
  -26.9769  -32.7478   20.1238 C   0  0  0  0  0  0  0  0  0  0  0  0
  -25.7490  -20.9262   22.8836 C   0  0  0  0  0  0  0  0  0  0  0  0
  -24.4219  -21.4435   22.4164 C   0  0  0  0  0  0  0  0  0  0  0  0
  -28.0119  -12.1933   18.5687 C   0  0  0  0  0  0  0  0  0  0  0  0
  -30.4443  -12.4916   19.1958 C   0  0  0  0  0  0  0  0  0  0  0  0
  -28.6994  -13.1677   20.7995 C   0  0  0  0  0  0  0  0  0  0  0  0
  -26.8607  -32.2201   18.6887 C   0  0  1  0  0  0  0  0  0  0  0  0
  -25.1514  -20.4214   21.6173 C   0  0  0  0  0  0  0  0  0  0  0  0
  -24.3596  -29.3605   18.6577 C   0  0  1  0  0  0  0  0  0  0  0  0
  -27.6321  -13.1770   19.6918 C   0  0  2  0  0  0  0  0  0  0  0  0
  -18.8328  -27.6957   23.8235 C   0  0  0  0  0  0  0  0  0  0  0  0
  -24.6552  -30.7579   23.0532 C   0  0  0  0  0  0  0  0  0  0  0  0
  -22.8746  -29.8885   24.5835 C   0  0  0  0  0  0  0  0  0  0  0  0
  -22.3286  -31.6655   22.9201 C   0  0  0  0  0  0  0  0  0  0  0  0
  -19.4129  -25.9711   20.4821 C   0  0  0  0  0  0  0  0  0  0  0  0
  -27.4145  -22.6132   18.6393 C   0  0  0  0  0  0  0  0  0  1  0  0
  -30.8964  -17.7483   21.2214 C   0  0  0  0  0  0  0  0  0  0  0  0
  -31.1779  -16.4909   22.0297 C   0  0  0  0  0  0  0  0  0  0  0  0
  -22.7378  -29.3024   22.1200 C   0  0  1  0  0  0  0  0  0  0  0  0
  -19.3878  -27.5531   22.4148 C   0  0  2  0  0  0  0  0  0  0  0  0
  -23.1621  -30.3862   23.1509 C   0  0  0  0  0  0  0  0  0  0  0  0
  -25.7973  -11.6290   20.2574 N   0  0  0  0  0  0  0  0  0  0  0  0
  -27.6602  -19.5052   20.7944 N   0  0  0  0  0  0  0  0  0  0  0  0
  -26.2434  -12.8965   20.2355 N   0  0  0  0  0  0  0  0  0  0  0  0
  -23.8920  -28.9030   19.9677 N   0  0  0  0  0  0  0  0  0  0  0  0
  -30.0260  -13.4447   20.2266 N   0  0  0  0  0  0  0  0  0  0  0  0
  -25.6383  -15.1215   20.7779 N   0  0  0  0  0  0  0  0  0  0  0  0
  -22.0031  -12.7292   21.9855 N   0  0  0  0  0  0  0  0  0  0  0  0
  -29.5195  -18.1096   21.3155 N   0  0  0  0  0  0  0  0  0  0  0  0
  -25.6907  -31.3792   18.5526 N   0  0  0  0  0  0  0  0  0  0  0  0
  -21.3229  -28.9503   22.1714 N   0  0  0  0  0  0  0  0  0  0  0  0
  -30.4104  -15.3580   21.5626 N   0  0  0  0  0  0  0  0  0  0  0  0
  -18.9562  -26.2344   21.8710 N   0  3  0  0  0  0  0  0  0  0  0  0
  -22.8884  -14.8415   21.8719 O   0  0  0  0  0  0  0  0  0  0  0  0
  -25.0403  -21.3831   19.4850 O   0  0  0  0  0  0  0  0  0  0  0  0
  -26.6291  -29.3867   19.3088 O   0  0  0  0  0  0  0  0  0  0  0  0
  -22.4741  -30.7328   20.2462 O   0  0  0  0  0  0  0  0  0  0  0  0
  -21.6381  -26.6911   22.5886 O   0  0  0  0  0  0  0  0  0  0  0  0
  -31.9948  -14.6588   20.0600 O   0  0  0  0  0  0  0  0  0  0  0  0
  -21.3907   -7.2110   21.5272 O   0  0  0  0  0  0  0  0  0  0  0  0
  -26.8653  -23.5104   19.6035 O   0  0  0  0  0  0  0  0  0  1  0  0
  -23.7663   -2.7434   23.7185 F   0  0  0  0  0  0  0  0  0  0  0  0
  -20.4723   -6.1377   23.9036 F   0  0  0  0  0  0  0  0  0  0  0  0
  1  2  1  0  0  0  0
  1  5  2  0  0  0  0
  2  6  2  0  0  0  0
  3  9  2  0  0  0  0
  3 17  1  0  0  0  0
  4 10  1  0  0  0  0
  4 17  2  0  0  0  0
  5 19  1  0  0  0  0
  6 21  1  0  0  0  0
  7 11  2  0  0  0  0
  7 20  1  0  0  0  0
  8 14  2  0  0  0  0
  8 23  1  0  0  0  0
  9 24  1  0  0  0  0
 10 24  2  0  0  0  0
 11 25  1  0  0  0  0
 12 13  2  0  0  0  0
 12 26  1  0  0  0  0
 13 27  1  0  0  0  0
 14 31  1  0  0  0  0
 15 22  1  0  0  0  0
 15 25  2  0  0  0  0
 16 27  2  0  0  0  0
 16 28  1  0  0  0  0
 17 29  1  0  0  0  0
 18 29  1  0  0  0  0
 18 32  2  0  0  0  0
 18 33  1  0  0  0  0
 19 21  2  0  0  0  0
 19 39  1  0  0  0  0
 20 22  2  0  0  0  0
 20 40  1  0  0  0  0
 21 50  1  0  0  0  0
 22 41  1  0  0  0  0
 23 30  2  0  0  0  0
 23 59  1  0  0  0  0
 24 83  1  0  0  0  0
 25 84  1  0  0  0  0
 26 28  2  0  0  0  0
 26 83  1  0  0  0  0
 27 85  1  0  0  0  0
 28 86  1  0  0  0  0
 29 65  2  0  0  0  0
 30 34  1  0  0  0  0
 30 66  1  0  0  0  0
 31 66  2  0  0  0  0
 31 72  1  0  0  0  0
 32 67  1  0  0  0  0
 32 70  1  0  0  0  0
 33 71  1  0  0  0  0
 33 77  2  0  0  0  0
 34 51  1  0  0  0  0
 34 78  2  0  0  0  0
 35 52  1  0  0  0  0
 35 73  1  0  0  0  0
 35 79  2  0  0  0  0
 36 62  1  0  0  0  0
 36 68  1  0  0  0  0
 36 80  2  0  0  0  0
 37 63  1  0  0  0  0
 37 74  1  0  0  0  0
 37 81  2  0  0  0  0
 38 69  1  0  0  0  0
 38 75  1  0  0  0  0
 38 82  2  0  0  0  0
 39 42  1  0  0  0  0
 40 52  1  0  0  0  0
 41 68  1  0  0  0  0
 42 44  1  0  0  0  0
 43 47  1  0  0  0  0
 43 48  1  0  0  0  0
 44 50  1  0  0  0  0
 45 46  1  0  0  0  0
 45 51  1  0  0  0  0
 46 51  1  0  0  0  0
 47 53  1  0  0  0  0
 48 69  1  0  0  0  0
 49 53  1  0  0  0  0
 49 69  1  0  0  0  0
 50 73  1  0  0  0  0
 52 68  1  0  0  0  0
 53 67  1  0  0  0  0
 54 63  1  0  0  0  0
 55 64  1  0  0  0  0
 56 64  1  0  0  0  0
 57 64  1  0  0  0  0
 58 76  1  0  0  0  0
 59 84  1  0  0  0  0
 60 61  1  0  0  0  0
 60 72  1  0  0  0  0
 61 75  1  0  0  0  0
 62 64  1  0  0  0  0
 62 74  1  0  0  0  0
 63 76  1  0  0  0  0
 65 67  1  0  0  0  0
M  CHG  1  76   1
M  ISO  4  38 100  59 101  75 100  84 101
M  END
> <Batch ID>
0126

> <Smiles>
CNC(C)C(=O)NC(C(=O)N1Cc2cc([101O:1][101CH2:1]c3ccc(NCC[100NH:0][100C:0](=O)N4CCCC(n5nc(-c6ccc(Oc7ccc(F)cc7F)cc6)c(C(N)=O)c5N)C4)nc3C(=O)C3CC3)ccc2CC1C(=O)NC1CCCc2ccccc21)C(C)(C)C

> <Shape>
0.345

> <Color>
0.197

> <Negative vol penalty>
0.000

$$$$

  -OEChem-04052320383D

 86 95  0     1  0  0  0  0  0999 V2000
  -28.6108  -37.6295   21.9488 C   0  0  0  0  0  0  0  0  0  0  0  0
  -28.7027  -36.6310   20.9845 C   0  0  0  0  0  0  0  0  0  0  0  0
  -22.0441  -13.0476   21.6261 C   0  0  0  0  0  0  0  0  0  0  0  0
  -22.9568  -10.9761   22.4705 C   0  0  0  0  0  0  0  0  0  0  0  0
  -28.3404  -37.2937   23.2747 C   0  0  0  0  0  0  0  0  0  0  0  0
  -28.5253  -35.2959   21.3457 C   0  0  0  0  0  0  0  0  0  0  0  0
  -26.6090  -20.9929   20.0037 C   0  0  0  0  0  0  0  0  0  0  0  0
  -28.7784  -21.9013   19.4508 C   0  0  0  0  0  0  0  0  0  0  0  0
  -25.9827  -29.1091   18.7817 C   0  0  0  0  0  0  0  0  0  0  0  0
  -26.1653  -22.2673   20.3566 C   0  0  0  0  0  0  0  0  0  0  0  0
  -28.3346  -23.1758   19.8037 C   0  0  0  0  0  0  0  0  0  0  0  0
  -20.8438  -12.7884   22.2876 C   0  0  0  0  0  0  0  0  0  0  0  0
  -21.7564  -10.7170   23.1321 C   0  0  0  0  0  0  0  0  0  0  0  0
  -26.3624  -27.7793   18.6047 C   0  0  0  0  0  0  0  0  0  0  0  0
  -18.6777   -9.5617   22.3463 C   0  0  0  0  0  0  0  0  0  0  0  0
  -18.1506   -8.2737   22.2519 C   0  0  0  0  0  0  0  0  0  0  0  0
  -25.8211  -27.3241   20.9110 C   0  0  0  0  0  0  0  0  0  0  0  0
  -18.2808   -8.0443   24.6534 C   0  0  0  0  0  0  0  0  0  0  0  0
  -23.1006  -12.1414   21.7174 C   0  0  0  0  0  0  0  0  0  0  0  0
  -24.5280  -12.5801   19.6492 C   0  0  0  0  0  0  0  0  0  0  0  0
  -27.9156  -20.8099   19.5509 C   0  0  0  0  0  0  0  0  0  0  0  0
  -28.1500  -35.9547   23.6507 C   0  0  0  0  0  0  0  0  0  0  0  0
  -25.5289  -29.5597   20.0297 C   0  0  0  0  0  0  0  0  0  0  0  0
  -28.2534  -34.9418   22.6782 C   0  0  0  0  0  0  0  0  0  0  0  0
  -25.4339  -28.6595   21.1006 C   0  0  0  0  0  0  0  0  0  0  0  0
  -27.0280  -23.3588   20.2566 C   0  0  0  0  0  0  0  0  0  0  0  0
  -20.6999  -11.6232   23.0407 C   0  0  0  0  0  0  0  0  0  0  0  0
  -26.2844  -26.8873   19.6702 C   0  0  0  0  0  0  0  0  0  0  0  0
  -19.0064  -10.0910   23.5944 C   0  0  0  0  0  0  0  0  0  0  0  0
  -17.9521   -7.5151   23.4054 C   0  0  0  0  0  0  0  0  0  0  0  0
  -18.8079   -9.3323   24.7479 C   0  0  0  0  0  0  0  0  0  0  0  0
  -24.3405  -12.4083   21.0338 C   0  0  0  0  0  0  0  0  0  0  0  0
  -25.8753  -12.8082   19.5108 C   0  0  0  0  0  0  0  0  0  0  0  0
  -23.5699  -12.5375   18.5834 C   0  0  0  0  0  0  0  0  0  0  0  0
  -26.5351  -31.7156   22.1376 C   0  0  0  0  0  0  0  0  0  0  0  0
  -23.7516  -30.9807   23.6324 C   0  0  0  0  0  0  0  0  0  0  0  0
  -21.2494  -28.7179   24.1477 C   0  0  0  0  0  0  0  0  0  0  0  0
  -30.0472  -14.9697   23.2222 C   0  0  0  0  0  0  0  0  0  0  0  0
  -27.9066  -35.6364   25.1047 C   0  0  0  0  0  0  0  0  0  0  0  0
  -25.0979  -30.9909   20.1972 C   0  0  0  0  0  0  0  0  0  0  0  0
  -24.9341  -29.0884   22.4551 C   0  0  0  0  0  0  0  0  0  0  0  0
  -27.3606  -34.2300   25.3373 C   0  0  0  0  0  0  0  0  0  0  0  0
  -30.2371  -18.6809   17.7161 C   0  0  0  0  0  0  0  0  0  0  0  0
  -30.0734  -11.8117   21.5781 C   0  0  0  0  0  0  0  0  0  0  0  0
  -28.8390  -19.3009   17.6917 C   0  0  0  0  0  0  0  0  0  0  0  0
  -28.1559  -33.2084   24.5307 C   0  0  0  0  0  0  0  0  0  0  0  0
  -28.6241  -11.6220   21.1273 C   0  0  0  0  0  0  0  0  0  0  0  0
  -30.3217  -17.9777   19.0623 C   0  0  0  0  0  0  0  0  0  0  0  0
  -30.1560  -12.5119   22.9327 C   0  0  0  0  0  0  0  0  0  0  0  0
  -27.9762  -13.6009   22.5636 C   0  0  0  0  0  0  0  0  0  0  0  0
  -28.3974  -19.4287   19.1681 C   0  0  1  0  0  0  0  0  0  0  0  0
  -28.0426  -33.4843   23.0265 C   0  0  1  0  0  0  0  0  0  0  0  0
  -25.1375  -31.4611   21.6480 C   0  0  1  0  0  0  0  0  0  0  0  0
  -27.8432  -12.9491   21.1766 C   0  0  2  0  0  0  0  0  0  0  0  0
  -29.6192  -18.9669   19.9762 C   0  0  1  0  0  0  0  0  0  0  0  0
  -19.1323  -28.3853   25.4533 C   0  0  0  0  0  0  0  0  0  0  0  0
  -25.3910  -30.4388   26.1481 C   0  0  0  0  0  0  0  0  0  0  0  0
  -23.4128  -29.2293   27.0925 C   0  0  0  0  0  0  0  0  0  0  0  0
  -23.2433  -31.6571   26.5449 C   0  0  0  0  0  0  0  0  0  0  0  0
  -19.6316  -28.4661   21.6823 C   0  0  0  0  0  0  0  0  0  0  0  0
  -26.5494  -24.7296   20.6347 C   0  0  0  0  0  0  0  0  0  1  0  0
  -29.7833  -17.4259   23.4604 C   0  0  0  0  0  0  0  0  0  0  0  0
  -30.3171  -18.1150   22.2185 C   0  0  0  0  0  0  0  0  0  0  0  0
  -23.3294  -29.9660   24.6674 C   0  0  1  0  0  0  0  0  0  0  0  0
  -19.7389  -28.8685   24.1451 C   0  0  2  0  0  0  0  0  0  0  0  0
  -23.8554  -30.3149   26.0883 C   0  0  0  0  0  0  0  0  0  0  0  0
  -25.4778  -12.5176   21.7256 N   0  0  0  0  0  0  0  0  0  0  0  0
  -26.3929  -12.7606   20.7718 N   0  0  0  0  0  0  0  0  0  0  0  0
  -24.5305  -30.4995   22.5705 N   0  0  0  0  0  0  0  0  0  0  0  0
  -29.3963  -13.7642   22.9121 N   0  0  0  0  0  0  0  0  0  0  0  0
  -26.6560  -13.0427   18.4347 N   0  0  0  0  0  0  0  0  0  0  0  0
  -22.2272  -12.2919   18.9015 N   0  0  0  0  0  0  0  0  0  0  0  0
  -26.7671  -33.0223   22.5225 N   0  0  0  0  0  0  0  0  0  0  0  0
  -21.8767  -29.8690   24.5751 N   0  0  0  0  0  0  0  0  0  0  0  0
  -29.2556  -16.1107   23.1730 N   0  0  0  0  0  0  0  0  0  0  0  0
  -29.2115  -18.3161   21.2384 N   0  3  0  0  0  0  0  0  0  0  0  0
  -19.1416  -28.0798   23.0305 N   0  3  0  0  0  0  0  0  0  0  0  0
  -23.8974  -12.6958   17.3829 O   0  0  0  0  0  0  0  0  0  0  0  0
  -27.3427  -30.7944   22.1655 O   0  0  0  0  0  0  0  0  0  0  0  0
  -23.3972  -32.1556   23.7576 O   0  0  0  0  0  0  0  0  0  0  0  0
  -21.8161  -27.6814   23.8083 O   0  0  0  0  0  0  0  0  0  0  0  0
  -31.2462  -15.0258   23.5157 O   0  0  0  0  0  0  0  0  0  0  0  0
  -19.5289  -11.3701   23.6866 O   0  0  0  0  0  0  0  0  0  0  0  0
  -26.6549  -25.5889   19.5003 O   0  0  0  0  0  0  0  0  0  1  0  0
  -17.4445   -6.2788   23.3147 F   0  0  0  0  0  0  0  0  0  0  0  0
  -19.1207   -9.8358   25.9497 F   0  0  0  0  0  0  0  0  0  0  0  0
  1  2  1  0  0  0  0
  1  5  2  0  0  0  0
  2  6  2  0  0  0  0
  3 12  2  0  0  0  0
  3 19  1  0  0  0  0
  4 13  1  0  0  0  0
  4 19  2  0  0  0  0
  5 22  1  0  0  0  0
  6 24  1  0  0  0  0
  7 10  2  0  0  0  0
  7 21  1  0  0  0  0
  8 11  1  0  0  0  0
  8 21  2  0  0  0  0
  9 14  2  0  0  0  0
  9 23  1  0  0  0  0
 10 26  1  0  0  0  0
 11 26  2  0  0  0  0
 12 27  1  0  0  0  0
 13 27  2  0  0  0  0
 14 28  1  0  0  0  0
 15 16  2  0  0  0  0
 15 29  1  0  0  0  0
 16 30  1  0  0  0  0
 17 25  1  0  0  0  0
 17 28  2  0  0  0  0
 18 30  2  0  0  0  0
 18 31  1  0  0  0  0
 19 32  1  0  0  0  0
 20 32  1  0  0  0  0
 20 33  2  0  0  0  0
 20 34  1  0  0  0  0
 21 51  1  0  0  0  0
 22 24  2  0  0  0  0
 22 39  1  0  0  0  0
 23 25  2  0  0  0  0
 23 40  1  0  0  0  0
 24 52  1  0  0  0  0
 25 41  1  0  0  0  0
 26 61  1  0  0  0  0
 27 83  1  0  0  0  0
 28 84  1  0  0  0  0
 29 31  2  0  0  0  0
 29 83  1  0  0  0  0
 30 85  1  0  0  0  0
 31 86  1  0  0  0  0
 32 67  2  0  0  0  0
 33 68  1  0  0  0  0
 33 71  1  0  0  0  0
 34 72  1  0  0  0  0
 34 78  2  0  0  0  0
 35 53  1  0  0  0  0
 35 73  1  0  0  0  0
 35 79  2  0  0  0  0
 36 64  1  0  0  0  0
 36 69  1  0  0  0  0
 36 80  2  0  0  0  0
 37 65  1  0  0  0  0
 37 74  1  0  0  0  0
 37 81  2  0  0  0  0
 38 70  1  0  0  0  0
 38 75  1  0  0  0  0
 38 82  2  0  0  0  0
 39 42  1  0  0  0  0
 40 53  1  0  0  0  0
 41 69  1  0  0  0  0
 42 46  1  0  0  0  0
 43 45  1  0  0  0  0
 43 48  1  0  0  0  0
 44 47  1  0  0  0  0
 44 49  1  0  0  0  0
 45 51  1  0  0  0  0
 46 52  1  0  0  0  0
 47 54  1  0  0  0  0
 48 55  1  0  0  0  0
 49 70  1  0  0  0  0
 50 54  1  0  0  0  0
 50 70  1  0  0  0  0
 51 55  1  0  0  0  0
 52 73  1  0  0  0  0
 53 69  1  0  0  0  0
 54 68  1  0  0  0  0
 55 76  1  0  0  0  0
 56 65  1  0  0  0  0
 57 66  1  0  0  0  0
 58 66  1  0  0  0  0
 59 66  1  0  0  0  0
 60 77  1  0  0  0  0
 61 84  1  0  0  0  0
 62 63  1  0  0  0  0
 62 75  1  0  0  0  0
 63 76  1  0  0  0  0
 64 66  1  0  0  0  0
 64 74  1  0  0  0  0
 65 77  1  0  0  0  0
 67 68  1  0  0  0  0
M  CHG  2  76   1  77   1
M  ISO  4  38 100  61 101  75 100  84 101
M  END
> <Batch ID>
0126

> <Smiles>
CNC(C)C(=O)NC(C(=O)N1Cc2cc([101O:1][101CH2:1]c3ccc(C4CCCC4NCC[100NH:0][100C:0](=O)N4CCCC(n5nc(-c6ccc(Oc7ccc(F)cc7F)cc6)c(C(N)=O)c5N)C4)cc3)ccc2CC1C(=O)NC1CCCc2ccccc21)C(C)(C)C

> <Shape>
0.261

> <Color>
0.071

> <Negative vol penalty>
0.000

$$$$

  -OEChem-04052320383D

 83 91  0     1  0  0  0  0  0999 V2000
  -30.8546  -26.7766   16.6340 C   0  0  0  0  0  0  0  0  0  0  0  0
  -30.3090  -25.7540   17.4034 C   0  0  0  0  0  0  0  0  0  0  0  0
  -27.6521  -17.1330   18.9552 C   0  0  0  0  0  0  0  0  0  0  0  0
  -28.0884  -17.1257   21.3315 C   0  0  0  0  0  0  0  0  0  0  0  0
  -30.6562  -28.1066   17.0025 C   0  0  0  0  0  0  0  0  0  0  0  0
  -29.5655  -26.0608   18.5425 C   0  0  0  0  0  0  0  0  0  0  0  0
  -24.7055  -23.0197   20.6961 C   0  0  0  0  0  0  0  0  0  0  0  0
  -28.4234  -18.2869   18.8171 C   0  0  0  0  0  0  0  0  0  0  0  0
  -28.8598  -18.2796   21.1934 C   0  0  0  0  0  0  0  0  0  0  0  0
  -24.5668  -22.0658   21.7034 C   0  0  0  0  0  0  0  0  0  0  0  0
  -30.6479  -21.4267   21.5230 C   0  0  0  0  0  0  0  0  0  0  0  0
  -30.4553  -22.4502   22.4508 C   0  0  0  0  0  0  0  0  0  0  0  0
  -23.9383  -23.8036   23.2540 C   0  0  0  0  0  0  0  0  0  0  0  0
  -24.5918  -20.6556   27.1527 C   0  0  0  0  0  0  0  0  0  0  0  0
  -22.5303  -19.9440   26.1386 C   0  0  0  0  0  0  0  0  0  0  0  0
  -28.1420  -22.6261   21.7764 C   0  0  0  0  0  0  0  0  0  0  0  0
  -27.4845  -16.5524   20.2125 C   0  0  0  0  0  0  0  0  0  0  0  0
  -27.1294  -14.0269   20.2708 C   0  0  0  0  0  0  0  0  0  0  0  0
  -29.9018  -28.4301   18.1413 C   0  0  0  0  0  0  0  0  0  0  0  0
  -24.4719  -24.3763   20.9634 C   0  0  0  0  0  0  0  0  0  0  0  0
  -29.3580  -27.3963   18.9273 C   0  0  0  0  0  0  0  0  0  0  0  0
  -24.0723  -24.7723   22.2477 C   0  0  0  0  0  0  0  0  0  0  0  0
  -23.5918  -20.8398   26.2044 C   0  0  0  0  0  0  0  0  0  0  0  0
  -29.0273  -18.8602   19.9362 C   0  0  0  0  0  0  0  0  0  0  0  0
  -24.1859  -22.4580   22.9833 C   0  0  0  0  0  0  0  0  0  0  0  0
  -29.5876  -21.0029   20.7218 C   0  0  0  0  0  0  0  0  0  0  0  0
  -29.2023  -23.0499   22.5775 C   0  0  0  0  0  0  0  0  0  0  0  0
  -28.3346  -21.6026   20.8485 C   0  0  0  0  0  0  0  0  0  0  0  0
  -26.6874  -15.3607   20.3559 C   0  0  0  0  0  0  0  0  0  0  0  0
  -24.4848  -19.5687   28.0053 C   0  0  0  0  0  0  0  0  0  0  0  0
  -22.5158  -18.8888   27.0364 C   0  0  0  0  0  0  0  0  0  0  0  0
  -25.9978  -13.2763   20.4771 C   0  0  0  0  0  0  0  0  0  0  0  0
  -28.4454  -13.5124   20.0272 C   0  0  0  0  0  0  0  0  0  0  0  0
  -26.2380  -27.0175   20.8703 C   0  0  0  0  0  0  0  0  0  0  0  0
  -23.4069  -28.4659   21.5103 C   0  0  0  0  0  0  0  0  0  0  0  0
  -20.2582  -28.2279   22.8048 C   0  0  0  0  0  0  0  0  0  0  0  0
  -20.8376  -14.3732   23.3090 C   0  0  0  0  0  0  0  0  0  0  0  0
  -29.7542  -29.8808   18.5262 C   0  0  0  0  0  0  0  0  0  0  0  0
  -24.5999  -25.3895   19.8591 C   0  0  0  0  0  0  0  0  0  0  0  0
  -23.7898  -26.2137   22.5811 C   0  0  0  0  0  0  0  0  0  0  0  0
  -28.6390  -30.1322   19.5378 C   0  0  0  0  0  0  0  0  0  0  0  0
  -21.2503  -13.4238   19.9024 C   0  0  0  0  0  0  0  0  0  0  0  0
  -28.7129  -29.1198   20.6764 C   0  0  0  0  0  0  0  0  0  0  0  0
  -22.7305  -13.6922   19.6247 C   0  0  0  0  0  0  0  0  0  0  0  0
  -20.6534  -14.4705   20.8406 C   0  0  0  0  0  0  0  0  0  0  0  0
  -22.8645  -14.9230   21.8305 C   0  0  0  0  0  0  0  0  0  0  0  0
  -28.5247  -27.6896   20.1560 C   0  0  1  0  0  0  0  0  0  0  0  0
  -24.8360  -26.8065   20.3728 C   0  0  1  0  0  0  0  0  0  0  0  0
  -23.5248  -13.8620   20.9336 C   0  0  2  0  0  0  0  0  0  0  0  0
  -25.5388  -19.3405   29.0366 C   0  0  0  0  0  0  0  0  0  0  0  0
  -18.1912  -29.5887   23.2204 C   0  0  0  0  0  0  0  0  0  0  0  0
  -24.7781  -29.8221   23.8747 C   0  0  0  0  0  0  0  0  0  0  0  0
  -22.5114  -30.3825   24.7782 C   0  0  0  0  0  0  0  0  0  0  0  0
  -23.2358  -31.3006   22.5749 C   0  0  0  0  0  0  0  0  0  0  0  0
  -18.6164  -26.4754   21.0751 C   0  0  0  0  0  0  0  0  0  0  0  0
  -23.6572  -22.0011   25.2566 C   0  0  0  0  0  0  0  0  0  1  0  0
  -21.3926  -17.9073   26.9929 C   0  0  0  0  0  0  0  0  0  0  0  0
  -21.1831  -14.2989   25.7655 C   0  0  0  0  0  0  0  0  0  0  0  0
  -20.6838  -15.5904   26.3860 C   0  0  0  0  0  0  0  0  0  0  0  0
  -22.6604  -28.8461   22.7662 C   0  0  1  0  0  0  0  0  0  0  0  0
  -18.9089  -28.6563   22.2570 C   0  0  2  0  0  0  0  0  0  0  0  0
  -23.3036  -30.0608   23.4930 C   0  0  0  0  0  0  0  0  0  0  0  0
  -25.3771  -15.4553   20.5972 N   0  0  0  0  0  0  0  0  0  0  0  0
  -23.4690  -18.6774   27.9715 N   0  0  0  0  0  0  0  0  0  0  0  0
  -24.9861  -14.1713   20.6655 N   0  0  0  0  0  0  0  0  0  0  0  0
  -23.9350  -27.1677   21.4692 N   0  0  0  0  0  0  0  0  0  0  0  0
  -21.4524  -14.5813   22.0634 N   0  0  0  0  0  0  0  0  0  0  0  0
  -25.7795  -11.9446   20.5139 N   0  0  0  0  0  0  0  0  0  0  0  0
  -29.4939  -14.4226   19.8367 N   0  0  0  0  0  0  0  0  0  0  0  0
  -27.1258  -27.4272   19.8939 N   0  0  0  0  0  0  0  0  0  0  0  0
  -21.2722  -29.0542   22.3687 N   0  0  0  0  0  0  0  0  0  0  0  0
  -21.6680  -14.4909   24.4169 N   0  0  0  0  0  0  0  0  0  0  0  0
  -18.0434  -27.4659   22.0225 N   0  3  0  0  0  0  0  0  0  0  0  0
  -21.7730  -16.6017   26.3871 N   0  3  0  0  0  0  0  0  0  0  0  0
  -28.6812  -12.2820   19.9635 O   0  0  0  0  0  0  0  0  0  0  0  0
  -26.4950  -26.8244   22.0529 O   0  0  0  0  0  0  0  0  0  0  0  0
  -23.5113  -29.2878   20.5965 O   0  0  0  0  0  0  0  0  0  0  0  0
  -20.3982  -27.2594   23.5485 O   0  0  0  0  0  0  0  0  0  0  0  0
  -19.6387  -14.0974   23.4250 O   0  0  0  0  0  0  0  0  0  0  0  0
  -29.7803  -19.9861   19.8017 O   0  0  0  0  0  0  0  0  0  0  0  0
  -24.0504  -21.5291   23.9685 O   0  0  0  0  0  0  0  0  0  1  0  0
  -29.0170  -24.0318   23.4696 F   0  0  0  0  0  0  0  0  0  0  0  0
  -27.3119  -21.1989   20.0825 F   0  0  0  0  0  0  0  0  0  0  0  0
  1  2  1  0  0  0  0
  1  5  2  0  0  0  0
  2  6  2  0  0  0  0
  3  8  2  0  0  0  0
  3 17  1  0  0  0  0
  4  9  1  0  0  0  0
  4 17  2  0  0  0  0
  5 19  1  0  0  0  0
  6 21  1  0  0  0  0
  7 10  2  0  0  0  0
  7 20  1  0  0  0  0
  8 24  1  0  0  0  0
  9 24  2  0  0  0  0
 10 25  1  0  0  0  0
 11 12  2  0  0  0  0
 11 26  1  0  0  0  0
 12 27  1  0  0  0  0
 13 22  1  0  0  0  0
 13 25  2  0  0  0  0
 14 23  1  0  0  0  0
 14 30  2  0  0  0  0
 15 23  2  0  0  0  0
 15 31  1  0  0  0  0
 16 27  2  0  0  0  0
 16 28  1  0  0  0  0
 17 29  1  0  0  0  0
 18 29  1  0  0  0  0
 18 32  2  0  0  0  0
 18 33  1  0  0  0  0
 19 21  2  0  0  0  0
 19 38  1  0  0  0  0
 20 22  2  0  0  0  0
 20 39  1  0  0  0  0
 21 47  1  0  0  0  0
 22 40  1  0  0  0  0
 23 56  1  0  0  0  0
 24 80  1  0  0  0  0
 25 81  1  0  0  0  0
 26 28  2  0  0  0  0
 26 80  1  0  0  0  0
 27 82  1  0  0  0  0
 28 83  1  0  0  0  0
 29 63  2  0  0  0  0
 30 50  1  0  0  0  0
 30 64  1  0  0  0  0
 31 57  1  0  0  0  0
 31 64  2  0  0  0  0
 32 65  1  0  0  0  0
 32 68  1  0  0  0  0
 33 69  1  0  0  0  0
 33 75  2  0  0  0  0
 34 48  1  0  0  0  0
 34 70  1  0  0  0  0
 34 76  2  0  0  0  0
 35 60  1  0  0  0  0
 35 66  1  0  0  0  0
 35 77  2  0  0  0  0
 36 61  1  0  0  0  0
 36 71  1  0  0  0  0
 36 78  2  0  0  0  0
 37 67  1  0  0  0  0
 37 72  1  0  0  0  0
 37 79  2  0  0  0  0
 38 41  1  0  0  0  0
 39 48  1  0  0  0  0
 40 66  1  0  0  0  0
 41 43  1  0  0  0  0
 42 44  1  0  0  0  0
 42 45  1  0  0  0  0
 43 47  1  0  0  0  0
 44 49  1  0  0  0  0
 45 67  1  0  0  0  0
 46 49  1  0  0  0  0
 46 67  1  0  0  0  0
 47 70  1  0  0  0  0
 48 66  1  0  0  0  0
 49 65  1  0  0  0  0
 51 61  1  0  0  0  0
 52 62  1  0  0  0  0
 53 62  1  0  0  0  0
 54 62  1  0  0  0  0
 55 73  1  0  0  0  0
 56 81  1  0  0  0  0
 57 74  1  0  0  0  0
 58 59  1  0  0  0  0
 58 72  1  0  0  0  0
 59 74  1  0  0  0  0
 60 62  1  0  0  0  0
 60 71  1  0  0  0  0
 61 73  1  0  0  0  0
 63 65  1  0  0  0  0
M  CHG  2  73   1  74   1
M  ISO  4  37 100  56 101  72 100  81 101
M  END
> <Batch ID>
0126

> <Smiles>
CNC(C)C(=O)NC(C(=O)N1Cc2cc([101O:1][101CH2:1]c3cc(C)nc(CNCC[100NH:0][100C:0](=O)N4CCCC(n5nc(-c6ccc(Oc7ccc(F)cc7F)cc6)c(C(N)=O)c5N)C4)c3)ccc2CC1C(=O)NC1CCCc2ccccc21)C(C)(C)C

> <Shape>
0.233

> <Color>
0.063

> <Negative vol penalty>
0.000

$$$$

  -OEChem-04052320383D

 84 93  0     1  0  0  0  0  0999 V2000
  -17.3964  -12.9826   21.8360 C   0  0  0  0  0  0  0  0  0  0  0  0
  -18.1491  -14.0937   22.2024 C   0  0  0  0  0  0  0  0  0  0  0  0
  -26.2534  -28.6270   26.0066 C   0  0  0  0  0  0  0  0  0  0  0  0
  -27.2925  -28.8688   23.8389 C   0  0  0  0  0  0  0  0  0  0  0  0
  -17.9833  -11.7179   21.8230 C   0  0  0  0  0  0  0  0  0  0  0  0
  -19.4890  -13.9407   22.5571 C   0  0  0  0  0  0  0  0  0  0  0  0
  -24.6922  -17.4027   18.9749 C   0  0  0  0  0  0  0  0  0  0  0  0
  -27.5008  -28.7504   26.6183 C   0  0  0  0  0  0  0  0  0  0  0  0
  -28.5399  -28.9923   24.4506 C   0  0  0  0  0  0  0  0  0  0  0  0
  -25.7269  -18.1934   18.4746 C   0  0  0  0  0  0  0  0  0  0  0  0
  -30.8521  -26.9467   25.8291 C   0  0  0  0  0  0  0  0  0  0  0  0
  -31.9147  -26.2246   25.2858 C   0  0  0  0  0  0  0  0  0  0  0  0
  -27.3106  -17.0332   19.8867 C   0  0  0  0  0  0  0  0  0  0  0  0
  -33.1068  -28.2860   24.8776 C   0  0  0  0  0  0  0  0  0  0  0  0
  -26.1492  -28.6861   24.6168 C   0  0  0  0  0  0  0  0  0  0  0  0
  -23.9620  -29.5945   23.6688 C   0  0  0  0  0  0  0  0  0  0  0  0
  -19.3336  -11.5506   22.1684 C   0  0  0  0  0  0  0  0  0  0  0  0
  -24.9655  -16.4127   19.9228 C   0  0  0  0  0  0  0  0  0  0  0  0
  -20.0941  -12.6724   22.5500 C   0  0  0  0  0  0  0  0  0  0  0  0
  -26.2802  -16.2298   20.3822 C   0  0  0  0  0  0  0  0  0  0  0  0
  -28.6441  -28.9331   25.8403 C   0  0  0  0  0  0  0  0  0  0  0  0
  -27.0328  -18.0093   18.9296 C   0  0  0  0  0  0  0  0  0  0  0  0
  -30.9169  -28.3385   25.8966 C   0  0  0  0  0  0  0  0  0  0  0  0
  -33.0420  -26.8943   24.8101 C   0  0  0  0  0  0  0  0  0  0  0  0
  -32.0442  -29.0081   25.4209 C   0  0  0  0  0  0  0  0  0  0  0  0
  -24.8610  -28.5580   23.9843 C   0  0  0  0  0  0  0  0  0  0  0  0
  -22.8945  -28.9572   23.0851 C   0  0  0  0  0  0  0  0  0  0  0  0
  -24.0814  -31.0069   23.8841 C   0  0  0  0  0  0  0  0  0  0  0  0
  -23.6252  -13.6585   22.0893 C   0  0  0  0  0  0  0  0  0  0  0  0
  -26.3102  -12.6849   20.9698 C   0  0  0  0  0  0  0  0  0  0  0  0
  -29.1927  -12.9827   19.1699 C   0  0  0  0  0  0  0  0  0  0  0  0
  -24.9043  -23.8258   23.0637 C   0  0  0  0  0  0  0  0  0  0  0  0
  -19.9114  -10.1576   22.1852 C   0  0  0  0  0  0  0  0  0  0  0  0
  -23.8726  -15.5790   20.5347 C   0  0  0  0  0  0  0  0  0  0  0  0
  -26.5218  -15.1760   21.4282 C   0  0  0  0  0  0  0  0  0  0  0  0
  -21.4375  -10.1314   22.2131 C   0  0  0  0  0  0  0  0  0  0  0  0
  -21.9160  -25.0310   24.5976 C   0  0  0  0  0  0  0  0  0  0  0  0
  -21.9692  -11.1120   23.2535 C   0  0  0  0  0  0  0  0  0  0  0  0
  -27.9612  -24.9026   23.8927 C   0  0  0  0  0  0  0  0  0  0  0  0
  -29.1771  -24.3512   23.2019 C   0  0  0  0  0  0  0  0  0  0  0  0
  -21.3272  -26.0127   23.5903 C   0  0  0  0  0  0  0  0  0  0  0  0
  -26.1472  -22.4488   19.9623 C   0  0  0  0  0  0  0  0  0  0  0  0
  -22.5757  -23.8611   23.8839 C   0  0  0  0  0  0  0  0  0  0  0  0
  -25.1398  -23.4148   20.5657 C   0  0  0  0  0  0  0  0  0  0  0  0
  -23.1564  -25.3051   21.9448 C   0  0  0  0  0  0  0  0  0  0  0  0
  -21.5571  -12.5503   22.9174 C   0  0  1  0  0  0  0  0  0  0  0  0
  -24.3153  -14.1382   20.8463 C   0  0  1  0  0  0  0  0  0  0  0  0
  -27.9028  -24.5562   22.4307 C   0  0  0  0  0  0  0  0  0  0  0  0
  -27.4740  -22.9532   20.5299 C   0  0  1  0  0  0  0  0  0  0  0  0
  -22.3580  -26.4822   22.5511 C   0  0  2  0  0  0  0  0  0  0  0  0
  -27.1024  -23.3731   21.9642 C   0  0  2  0  0  0  0  0  0  0  0  0
  -30.3866  -23.2687   18.5855 C   0  0  0  0  0  0  0  0  0  0  0  0
  -28.4573  -11.9213   17.0182 C   0  0  0  0  0  0  0  0  0  0  0  0
  -27.5263  -12.0549   23.6952 C   0  0  0  0  0  0  0  0  0  0  0  0
  -29.6882  -11.5548   22.5358 C   0  0  0  0  0  0  0  0  0  0  0  0
  -27.6616  -10.1890   22.0355 C   0  0  0  0  0  0  0  0  0  0  0  0
  -31.6692  -11.3730   18.9828 C   0  0  0  0  0  0  0  0  0  0  0  0
  -28.5705  -21.9005   20.4750 C   0  0  0  0  0  0  0  0  0  0  0  0
  -29.0830  -22.6349   18.1515 C   0  0  0  0  0  0  0  0  0  0  0  0
  -29.7794  -20.3724   18.9240 C   0  0  0  0  0  0  0  0  0  0  0  0
  -29.1390  -19.0508   19.2999 C   0  0  0  0  0  0  0  0  0  1  0  0
  -27.7985  -12.5637   21.1786 C   0  0  1  0  0  0  0  0  0  0  0  0
  -29.6447  -12.3298   17.8761 C   0  0  2  0  0  0  0  0  0  0  0  0
  -28.1561  -11.6159   22.3582 C   0  0  0  0  0  0  0  0  0  0  0  0
  -24.4042  -27.3538   23.6304 N   0  0  0  0  0  0  0  0  0  0  0  0
  -23.2066  -27.6295   23.0866 N   0  0  0  0  0  0  0  0  0  0  0  0
  -25.7544  -13.9628   21.1058 N   0  0  0  0  0  0  0  0  0  0  0  0
  -23.5927  -24.3062   22.9312 N   0  0  0  0  0  0  0  0  0  0  0  0
  -25.6684  -23.6966   21.9008 N   0  0  0  0  0  0  0  0  0  0  0  0
  -21.7286  -29.4087   22.5758 N   0  0  0  0  0  0  0  0  0  0  0  0
  -25.2443  -31.4935   24.4966 N   0  0  0  0  0  0  0  0  0  0  0  0
  -22.3909  -13.0810   21.8602 N   0  0  0  0  0  0  0  0  0  0  0  0
  -28.3591  -12.1573   19.8945 N   0  0  0  0  0  0  0  0  0  0  0  0
  -30.4560  -11.1137   18.1655 N   0  3  0  0  0  0  0  0  0  0  0  0
  -28.7614  -21.4793   19.0702 N   0  3  1  0  0  0  0  0  0  0  0  0
  -23.1763  -31.8120   23.5582 O   0  0  0  0  0  0  0  0  0  0  0  0
  -24.1719  -13.7999   23.1768 O   0  0  0  0  0  0  0  0  0  0  0  0
  -25.6548  -11.6747   20.6989 O   0  0  0  0  0  0  0  0  0  0  0  0
  -29.5469  -14.1106   19.5061 O   0  0  0  0  0  0  0  0  0  0  0  0
  -25.3701  -23.5208   24.1696 O   0  0  0  0  0  0  0  0  0  0  0  0
  -29.8615  -29.0539   26.4370 O   0  0  0  0  0  0  0  0  0  0  0  0
  -28.0461  -18.7872   18.4301 O   0  0  0  0  0  0  0  0  0  1  0  0
  -34.0630  -26.2006   24.2898 F   0  0  0  0  0  0  0  0  0  0  0  0
  -32.1127  -30.3450   25.4841 F   0  0  0  0  0  0  0  0  0  0  0  0
  1  2  1  0  0  0  0
  1  5  2  0  0  0  0
  2  6  2  0  0  0  0
  3  8  2  0  0  0  0
  3 15  1  0  0  0  0
  4  9  1  0  0  0  0
  4 15  2  0  0  0  0
  5 17  1  0  0  0  0
  6 19  1  0  0  0  0
  7 10  2  0  0  0  0
  7 18  1  0  0  0  0
  8 21  1  0  0  0  0
  9 21  2  0  0  0  0
 10 22  1  0  0  0  0
 11 12  2  0  0  0  0
 11 23  1  0  0  0  0
 12 24  1  0  0  0  0
 13 20  1  0  0  0  0
 13 22  2  0  0  0  0
 14 24  2  0  0  0  0
 14 25  1  0  0  0  0
 15 26  1  0  0  0  0
 16 26  1  0  0  0  0
 16 27  2  0  0  0  0
 16 28  1  0  0  0  0
 17 19  2  0  0  0  0
 17 33  1  0  0  0  0
 18 20  2  0  0  0  0
 18 34  1  0  0  0  0
 19 46  1  0  0  0  0
 20 35  1  0  0  0  0
 21 81  1  0  0  0  0
 22 82  1  0  0  0  0
 23 25  2  0  0  0  0
 23 81  1  0  0  0  0
 24 83  1  0  0  0  0
 25 84  1  0  0  0  0
 26 65  2  0  0  0  0
 27 66  1  0  0  0  0
 27 70  1  0  0  0  0
 28 71  1  0  0  0  0
 28 76  2  0  0  0  0
 29 47  1  0  0  0  0
 29 72  1  0  0  0  0
 29 77  2  0  0  0  0
 30 62  1  0  0  0  0
 30 67  1  0  0  0  0
 30 78  2  0  0  0  0
 31 63  1  0  0  0  0
 31 73  1  0  0  0  0
 31 79  2  0  0  0  0
 32 68  1  0  0  0  0
 32 69  1  0  0  0  0
 32 80  2  0  0  0  0
 33 36  1  0  0  0  0
 34 47  1  0  0  0  0
 35 67  1  0  0  0  0
 36 38  1  0  0  0  0
 37 41  1  0  0  0  0
 37 43  1  0  0  0  0
 38 46  1  0  0  0  0
 39 40  1  0  0  0  0
 39 48  1  0  0  0  0
 40 48  1  0  0  0  0
 41 50  1  0  0  0  0
 42 44  1  0  0  0  0
 42 49  1  0  0  0  0
 43 68  1  0  0  0  0
 44 69  1  0  0  0  0
 45 50  1  0  0  0  0
 45 68  1  0  0  0  0
 46 72  1  0  0  0  0
 47 67  1  0  0  0  0
 48 51  1  0  0  0  0
 49 51  1  0  0  0  0
 49 58  1  0  0  0  0
 50 66  1  0  0  0  0
 51 69  1  0  0  0  0
 52 59  1  0  0  0  0
 53 63  1  0  0  0  0
 54 64  1  0  0  0  0
 55 64  1  0  0  0  0
 56 64  1  0  0  0  0
 57 74  1  0  0  0  0
 58 75  1  0  0  0  0
 59 75  1  0  0  0  0
 60 61  1  0  0  0  0
 60 75  1  0  0  0  0
 61 82  1  0  0  0  0
 62 64  1  0  0  0  0
 62 73  1  0  0  0  0
 63 74  1  0  0  0  0
 65 66  1  0  0  0  0
M  CHG  2  74   1  75   1
M  ISO  4  32 100  61 101  69 100  82 101
M  END
> <Batch ID>
0126

> <Smiles>
CCN(CC1CC[100N:0]([100C:0](=O)N2CCCC(n3nc(-c4ccc(Oc5ccc(F)cc5F)cc4)c(C(N)=O)c3N)C2)C1C1CC1)C[101CH2:1][101O:1]c1ccc2c(c1)CN(C(=O)C(NC(=O)C(C)NC)C(C)(C)C)C(C(=O)NC1CCCc3ccccc31)C2

> <Shape>
0.188

> <Color>
0.066

> <Negative vol penalty>
0.000

$$$$

  -OEChem-04052320383D

 84 93  0     1  0  0  0  0  0999 V2000
  -22.3375   -8.8182   20.4072 C   0  0  0  0  0  0  0  0  0  0  0  0
  -22.2287   -9.9780   19.6466 C   0  0  0  0  0  0  0  0  0  0  0  0
  -26.5244  -27.5486   22.1120 C   0  0  0  0  0  0  0  0  0  0  0  0
  -25.1726  -28.0288   20.1680 C   0  0  0  0  0  0  0  0  0  0  0  0
  -23.0549   -8.8347   21.6026 C   0  0  0  0  0  0  0  0  0  0  0  0
  -22.8364  -11.1553   20.0816 C   0  0  0  0  0  0  0  0  0  0  0  0
  -25.3729  -15.4977   16.5866 C   0  0  0  0  0  0  0  0  0  0  0  0
  -27.3124  -26.6854   21.3509 C   0  0  0  0  0  0  0  0  0  0  0  0
  -25.9606  -27.1656   19.4068 C   0  0  0  0  0  0  0  0  0  0  0  0
  -24.9002  -16.7257   16.1257 C   0  0  0  0  0  0  0  0  0  0  0  0
  -29.4598  -24.0786   20.0030 C   0  0  0  0  0  0  0  0  0  0  0  0
  -29.7870  -22.8401   20.5551 C   0  0  0  0  0  0  0  0  0  0  0  0
  -25.9894  -17.8313   17.9725 C   0  0  0  0  0  0  0  0  0  0  0  0
  -27.4398  -22.2887   20.7092 C   0  0  0  0  0  0  0  0  0  0  0  0
  -25.4544  -28.2203   21.5206 C   0  0  0  0  0  0  0  0  0  0  0  0
  -24.8393  -30.4907   22.5080 C   0  0  0  0  0  0  0  0  0  0  0  0
  -23.6798  -10.0103   22.0476 C   0  0  0  0  0  0  0  0  0  0  0  0
  -26.1496  -15.4260   17.7519 C   0  0  0  0  0  0  0  0  0  0  0  0
  -23.5617  -11.1878   21.2847 C   0  0  0  0  0  0  0  0  0  0  0  0
  -26.4729  -16.6015   18.4446 C   0  0  0  0  0  0  0  0  0  0  0  0
  -27.0305  -26.4938   19.9983 C   0  0  0  0  0  0  0  0  0  0  0  0
  -25.2060  -17.8924   16.8203 C   0  0  0  0  0  0  0  0  0  0  0  0
  -28.1226  -24.4221   19.8041 C   0  0  0  0  0  0  0  0  0  0  0  0
  -28.7770  -21.9452   20.9082 C   0  0  0  0  0  0  0  0  0  0  0  0
  -27.1126  -23.5272   20.1571 C   0  0  0  0  0  0  0  0  0  0  0  0
  -24.6397  -29.1118   22.3065 C   0  0  0  0  0  0  0  0  0  0  0  0
  -23.8017  -30.8724   23.3229 C   0  0  0  0  0  0  0  0  0  0  0  0
  -25.8706  -31.3497   22.0037 C   0  0  0  0  0  0  0  0  0  0  0  0
  -25.8130  -14.0341   20.5898 C   0  0  0  0  0  0  0  0  0  0  0  0
  -28.8487  -15.0883   21.0319 C   0  0  0  0  0  0  0  0  0  0  0  0
  -31.2934  -17.3161   20.1910 C   0  0  0  0  0  0  0  0  0  0  0  0
  -21.1014  -26.0644   23.5498 C   0  0  0  0  0  0  0  0  0  0  0  0
  -24.4048   -9.9913   23.3700 C   0  0  0  0  0  0  0  0  0  0  0  0
  -26.6741  -14.0966   18.2211 C   0  0  0  0  0  0  0  0  0  0  0  0
  -27.3201  -16.5807   19.6897 C   0  0  0  0  0  0  0  0  0  0  0  0
  -25.3338  -11.1855   23.5726 C   0  0  0  0  0  0  0  0  0  0  0  0
  -22.4676  -27.9829   26.2368 C   0  0  0  0  0  0  0  0  0  0  0  0
  -18.0927  -25.6788   21.5627 C   0  0  0  0  0  0  0  0  0  0  0  0
  -24.6271  -12.4823   23.1912 C   0  0  0  0  0  0  0  0  0  0  0  0
  -22.1478  -29.4315   25.8847 C   0  0  0  0  0  0  0  0  0  0  0  0
  -19.0962  -25.0649   20.5967 C   0  0  0  0  0  0  0  0  0  0  0  0
  -22.1548  -22.6856   20.0696 C   0  0  0  0  0  0  0  0  0  0  0  0
  -22.5675  -24.4646   18.3347 C   0  0  0  0  0  0  0  0  0  0  0  0
  -21.3403  -27.0626   25.7949 C   0  0  0  0  0  0  0  0  0  0  0  0
  -18.9443  -26.6694   22.3415 C   0  0  0  0  0  0  0  0  0  0  0  0
  -20.7878  -28.5696   23.8950 C   0  0  0  0  0  0  0  0  0  0  0  0
  -22.2652  -21.6169   18.9907 C   0  0  0  0  0  0  0  0  0  0  0  0
  -22.6755  -23.3868   17.2647 C   0  0  0  0  0  0  0  0  0  0  0  0
  -24.2277  -12.4782   21.7107 C   0  0  1  0  0  0  0  0  0  0  0  0
  -27.0267  -14.0835   19.7053 C   0  0  1  0  0  0  0  0  0  0  0  0
  -21.6709  -24.0230   19.4974 C   0  0  0  0  0  0  0  0  0  0  0  0
  -21.8101  -29.6155   24.3965 C   0  0  2  0  0  0  0  0  0  0  0  0
  -20.3717  -24.9566   21.4368 C   0  0  1  0  0  0  0  0  0  0  0  0
  -33.6557  -17.9525   20.7497 C   0  0  0  0  0  0  0  0  0  0  0  0
  -27.8809  -16.4126   23.6048 C   0  0  0  0  0  0  0  0  0  0  0  0
  -29.9769  -17.7818   23.6062 C   0  0  0  0  0  0  0  0  0  0  0  0
  -30.1123  -15.2971   23.7811 C   0  0  0  0  0  0  0  0  0  0  0  0
  -32.2169  -16.7646   17.4338 C   0  0  0  0  0  0  0  0  0  0  0  0
  -21.6273  -25.0939   20.5852 C   0  0  0  0  0  0  0  0  0  0  0  0
  -23.4164  -21.0418   16.8556 C   0  0  0  0  0  0  0  0  0  0  0  0
  -24.4948  -20.0988   17.3513 C   0  0  0  0  0  0  0  0  0  1  0  0
  -29.4736  -16.3513   21.5737 C   0  0  1  0  0  0  0  0  0  0  0  0
  -32.7588  -17.1209   19.8459 C   0  0  2  0  0  0  0  0  0  0  0  0
  -29.3433  -16.4612   23.1191 C   0  0  0  0  0  0  0  0  0  0  0  0
  -23.5601  -28.6488   22.9423 N   0  0  0  0  0  0  0  0  0  0  0  0
  -23.0721  -29.7429   23.5513 N   0  0  0  0  0  0  0  0  0  0  0  0
  -27.8040  -15.2559   20.1120 N   0  0  0  0  0  0  0  0  0  0  0  0
  -21.0471  -27.2022   24.3684 N   0  0  0  0  0  0  0  0  0  0  0  0
  -20.2523  -26.0200   22.4416 N   0  0  0  0  0  0  0  0  0  0  0  0
  -23.4512  -32.0607   23.8592 N   0  0  0  0  0  0  0  0  0  0  0  0
  -26.8592  -30.7943   21.1800 N   0  0  0  0  0  0  0  0  0  0  0  0
  -25.3774  -12.7544   20.8763 N   0  0  0  0  0  0  0  0  0  0  0  0
  -30.8490  -16.3673   21.0873 N   0  0  0  0  0  0  0  0  0  0  0  0
  -23.1744  -22.1066   17.8898 N   0  3  0  0  0  0  0  0  0  0  0  0
  -33.0158  -17.5197   18.4331 N   0  3  0  0  0  0  0  0  0  0  0  0
  -25.9233  -32.5701   22.2888 O   0  0  0  0  0  0  0  0  0  0  0  0
  -25.3100  -15.0796   20.9843 O   0  0  0  0  0  0  0  0  0  0  0  0
  -29.2767  -13.9934   21.4056 O   0  0  0  0  0  0  0  0  0  0  0  0
  -30.6122  -18.2221   19.7160 O   0  0  0  0  0  0  0  0  0  0  0  0
  -21.8671  -25.1249   23.8029 O   0  0  0  0  0  0  0  0  0  0  0  0
  -27.7994  -25.6517   19.2552 O   0  0  0  0  0  0  0  0  0  0  0  0
  -24.7421  -19.1009   16.3697 O   0  0  0  0  0  0  0  0  0  1  0  0
  -29.0914  -20.7553   21.4369 F   0  0  0  0  0  0  0  0  0  0  0  0
  -25.8262  -23.8512   19.9673 F   0  0  0  0  0  0  0  0  0  0  0  0
  1  2  1  0  0  0  0
  1  5  2  0  0  0  0
  2  6  2  0  0  0  0
  3  8  2  0  0  0  0
  3 15  1  0  0  0  0
  4  9  1  0  0  0  0
  4 15  2  0  0  0  0
  5 17  1  0  0  0  0
  6 19  1  0  0  0  0
  7 10  2  0  0  0  0
  7 18  1  0  0  0  0
  8 21  1  0  0  0  0
  9 21  2  0  0  0  0
 10 22  1  0  0  0  0
 11 12  2  0  0  0  0
 11 23  1  0  0  0  0
 12 24  1  0  0  0  0
 13 20  1  0  0  0  0
 13 22  2  0  0  0  0
 14 24  2  0  0  0  0
 14 25  1  0  0  0  0
 15 26  1  0  0  0  0
 16 26  1  0  0  0  0
 16 27  2  0  0  0  0
 16 28  1  0  0  0  0
 17 19  2  0  0  0  0
 17 33  1  0  0  0  0
 18 20  2  0  0  0  0
 18 34  1  0  0  0  0
 19 49  1  0  0  0  0
 20 35  1  0  0  0  0
 21 81  1  0  0  0  0
 22 82  1  0  0  0  0
 23 25  2  0  0  0  0
 23 81  1  0  0  0  0
 24 83  1  0  0  0  0
 25 84  1  0  0  0  0
 26 65  2  0  0  0  0
 27 66  1  0  0  0  0
 27 70  1  0  0  0  0
 28 71  1  0  0  0  0
 28 76  2  0  0  0  0
 29 50  1  0  0  0  0
 29 72  1  0  0  0  0
 29 77  2  0  0  0  0
 30 62  1  0  0  0  0
 30 67  1  0  0  0  0
 30 78  2  0  0  0  0
 31 63  1  0  0  0  0
 31 73  1  0  0  0  0
 31 79  2  0  0  0  0
 32 68  1  0  0  0  0
 32 69  1  0  0  0  0
 32 80  2  0  0  0  0
 33 36  1  0  0  0  0
 34 50  1  0  0  0  0
 35 67  1  0  0  0  0
 36 39  1  0  0  0  0
 37 40  1  0  0  0  0
 37 44  1  0  0  0  0
 38 41  1  0  0  0  0
 38 45  1  0  0  0  0
 39 49  1  0  0  0  0
 40 52  1  0  0  0  0
 41 53  1  0  0  0  0
 42 47  1  0  0  0  0
 42 51  1  0  0  0  0
 43 48  1  0  0  0  0
 43 51  1  0  0  0  0
 44 68  1  0  0  0  0
 45 69  1  0  0  0  0
 46 52  1  0  0  0  0
 46 68  1  0  0  0  0
 47 74  1  0  0  0  0
 48 74  1  0  0  0  0
 49 72  1  0  0  0  0
 50 67  1  0  0  0  0
 51 59  1  0  0  0  0
 52 66  1  0  0  0  0
 53 59  1  0  0  0  0
 53 69  1  0  0  0  0
 54 63  1  0  0  0  0
 55 64  1  0  0  0  0
 56 64  1  0  0  0  0
 57 64  1  0  0  0  0
 58 75  1  0  0  0  0
 60 61  1  0  0  0  0
 60 74  1  0  0  0  0
 61 82  1  0  0  0  0
 62 64  1  0  0  0  0
 62 73  1  0  0  0  0
 63 75  1  0  0  0  0
 65 66  1  0  0  0  0
M  CHG  2  74   1  75   1
M  ISO  4  32 100  61 101  69 100  82 101
M  END
> <Batch ID>
0126

> <Smiles>
CNC(C)C(=O)NC(C(=O)N1Cc2cc([101O:1][101CH2:1]CN3CCC(CC4CCC[100N:0]4[100C:0](=O)N4CCCC(n5nc(-c6ccc(Oc7ccc(F)cc7F)cc6)c(C(N)=O)c5N)C4)CC3)ccc2CC1C(=O)NC1CCCc2ccccc21)C(C)(C)C

> <Shape>
0.244

> <Color>
0.079

> <Negative vol penalty>
0.000

$$$$

  -OEChem-04052320383D

 81 89  0     1  0  0  0  0  0999 V2000
  -27.9274  -33.2914   14.0197 C   0  0  0  0  0  0  0  0  0  0  0  0
  -28.1144  -31.9540   14.3538 C   0  0  0  0  0  0  0  0  0  0  0  0
  -22.8809  -10.1682   19.9718 C   0  0  0  0  0  0  0  0  0  0  0  0
  -23.8052   -9.8848   22.1859 C   0  0  0  0  0  0  0  0  0  0  0  0
  -27.4531  -34.1880   14.9763 C   0  0  0  0  0  0  0  0  0  0  0  0
  -27.8282  -31.5125   15.6452 C   0  0  0  0  0  0  0  0  0  0  0  0
  -25.5700  -26.0518   17.2533 C   0  0  0  0  0  0  0  0  0  0  0  0
  -29.2937  -21.1245   19.1821 C   0  0  0  0  0  0  0  0  0  0  0  0
  -27.1176  -20.6249   20.1050 C   0  0  0  0  0  0  0  0  0  0  0  0
  -29.8275  -20.0170   19.8410 C   0  0  0  0  0  0  0  0  0  0  0  0
  -27.6513  -19.5174   20.7640 C   0  0  0  0  0  0  0  0  0  0  0  0
  -22.0807   -9.0416   20.1616 C   0  0  0  0  0  0  0  0  0  0  0  0
  -23.0050   -8.7582   22.3757 C   0  0  0  0  0  0  0  0  0  0  0  0
  -26.1751  -24.8906   17.7323 C   0  0  0  0  0  0  0  0  0  0  0  0
  -23.0281   -5.5032   21.4615 C   0  0  0  0  0  0  0  0  0  0  0  0
  -23.6234   -4.3721   22.0198 C   0  0  0  0  0  0  0  0  0  0  0  0
  -25.6647  -25.5639   19.9918 C   0  0  0  0  0  0  0  0  0  0  0  0
  -22.0671   -4.4641   23.8655 C   0  0  0  0  0  0  0  0  0  0  0  0
  -23.7432  -10.5898   20.9839 C   0  0  0  0  0  0  0  0  0  0  0  0
  -24.2460  -13.0883   21.0948 C   0  0  0  0  0  0  0  0  0  0  0  0
  -27.1518  -33.7554   16.2773 C   0  0  0  0  0  0  0  0  0  0  0  0
  -25.0164  -26.9845   18.1421 C   0  0  0  0  0  0  0  0  0  0  0  0
  -27.3507  -32.4044   16.6205 C   0  0  0  0  0  0  0  0  0  0  0  0
  -25.0509  -26.7349   19.5214 C   0  0  0  0  0  0  0  0  0  0  0  0
  -27.9388  -21.4285   19.3141 C   0  0  0  0  0  0  0  0  0  0  0  0
  -29.0063  -19.2134   20.6319 C   0  0  0  0  0  0  0  0  0  0  0  0
  -22.1428   -8.3366   21.3635 C   0  0  0  0  0  0  0  0  0  0  0  0
  -26.2251  -24.6480   19.1019 C   0  0  0  0  0  0  0  0  0  0  0  0
  -21.9524   -6.1149   22.1052 C   0  0  0  0  0  0  0  0  0  0  0  0
  -23.1429   -3.8526   23.2218 C   0  0  0  0  0  0  0  0  0  0  0  0
  -21.4719   -5.5953   23.3072 C   0  0  0  0  0  0  0  0  0  0  0  0
  -24.5705  -11.7532   20.7882 C   0  0  0  0  0  0  0  0  0  0  0  0
  -25.3571  -13.8055   20.7237 C   0  0  0  0  0  0  0  0  0  0  0  0
  -23.0476  -13.6316   21.6642 C   0  0  0  0  0  0  0  0  0  0  0  0
  -25.5895  -30.0323   18.8395 C   0  0  0  0  0  0  0  0  0  0  0  0
  -22.9375  -29.7052   20.6785 C   0  0  0  0  0  0  0  0  0  0  0  0
  -20.8465  -27.6329   22.4050 C   0  0  0  0  0  0  0  0  0  0  0  0
  -30.8964  -14.4684   20.5765 C   0  0  0  0  0  0  0  0  0  0  0  0
  -26.6864  -34.7710   17.2906 C   0  0  0  0  0  0  0  0  0  0  0  0
  -24.3436  -28.2192   17.6080 C   0  0  0  0  0  0  0  0  0  0  0  0
  -24.4532  -27.6949   20.5163 C   0  0  0  0  0  0  0  0  0  0  0  0
  -26.0514  -34.1473   18.5307 C   0  0  0  0  0  0  0  0  0  0  0  0
  -29.4280  -12.4248   18.0577 C   0  0  0  0  0  0  0  0  0  0  0  0
  -26.9098  -32.9979   19.0493 C   0  0  0  0  0  0  0  0  0  0  0  0
  -28.0094  -12.1731   18.5719 C   0  0  0  0  0  0  0  0  0  0  0  0
  -30.4434  -12.4608   19.1978 C   0  0  0  0  0  0  0  0  0  0  0  0
  -28.7022  -13.1522   20.7990 C   0  0  0  0  0  0  0  0  0  0  0  0
  -27.0281  -31.8824   18.0038 C   0  0  1  0  0  0  0  0  0  0  0  0
  -24.2679  -29.3484   18.6311 C   0  0  1  0  0  0  0  0  0  0  0  0
  -27.6349  -13.1630   19.6913 C   0  0  2  0  0  0  0  0  0  0  0  0
  -18.7867  -27.6611   23.8381 C   0  0  0  0  0  0  0  0  0  0  0  0
  -24.5849  -30.7570   23.0215 C   0  0  0  0  0  0  0  0  0  0  0  0
  -22.8202  -29.8800   24.5657 C   0  0  0  0  0  0  0  0  0  0  0  0
  -22.2520  -31.6501   22.9024 C   0  0  0  0  0  0  0  0  0  0  0  0
  -19.3545  -25.9329   20.4964 C   0  0  0  0  0  0  0  0  0  0  0  0
  -27.3638  -22.6198   18.6060 C   0  0  0  0  0  0  0  0  0  1  0  0
  -30.9236  -17.7226   21.2037 C   0  0  0  0  0  0  0  0  0  0  0  0
  -31.1984  -16.4668   22.0168 C   0  0  0  0  0  0  0  0  0  0  0  0
  -22.6701  -29.2878   22.1045 C   0  0  1  0  0  0  0  0  0  0  0  0
  -19.3329  -27.5188   22.4259 C   0  0  2  0  0  0  0  0  0  0  0  0
  -23.0949  -30.3764   23.1302 C   0  0  0  0  0  0  0  0  0  0  0  0
  -25.7919  -11.6270   20.2627 N   0  0  0  0  0  0  0  0  0  0  0  0
  -26.2447  -12.8920   20.2361 N   0  0  0  0  0  0  0  0  0  0  0  0
  -23.8120  -28.8908   19.9453 N   0  0  0  0  0  0  0  0  0  0  0  0
  -30.0302  -13.4200   20.2250 N   0  0  0  0  0  0  0  0  0  0  0  0
  -25.6515  -15.1222   20.7702 N   0  0  0  0  0  0  0  0  0  0  0  0
  -22.0036  -12.7538   21.9868 N   0  0  0  0  0  0  0  0  0  0  0  0
  -29.5452  -18.0925   21.2968 N   0  0  0  0  0  0  0  0  0  0  0  0
  -25.8201  -31.0859   17.9756 N   0  0  0  0  0  0  0  0  0  0  0  0
  -21.2578  -28.9272   22.1663 N   0  0  0  0  0  0  0  0  0  0  0  0
  -30.4249  -15.3362   21.5539 N   0  0  0  0  0  0  0  0  0  0  0  0
  -18.9057  -26.1963   21.8878 N   0  3  0  0  0  0  0  0  0  0  0  0
  -22.9003  -14.8610   21.8653 O   0  0  0  0  0  0  0  0  0  0  0  0
  -26.3434  -29.6346   19.7199 O   0  0  0  0  0  0  0  0  0  0  0  0
  -22.3849  -30.7126   20.2296 O   0  0  0  0  0  0  0  0  0  0  0  0
  -21.5896  -26.6709   22.5861 O   0  0  0  0  0  0  0  0  0  0  0  0
  -32.0054  -14.6230   20.0538 O   0  0  0  0  0  0  0  0  0  0  0  0
  -21.3619   -7.2373   21.5492 O   0  0  0  0  0  0  0  0  0  0  0  0
  -26.8157  -23.5157   19.5721 O   0  0  0  0  0  0  0  0  0  1  0  0
  -23.7137   -2.7654   23.7571 F   0  0  0  0  0  0  0  0  0  0  0  0
  -20.4379   -6.1778   23.9296 F   0  0  0  0  0  0  0  0  0  0  0  0
  1  2  1  0  0  0  0
  1  5  2  0  0  0  0
  2  6  2  0  0  0  0
  3 12  2  0  0  0  0
  3 19  1  0  0  0  0
  4 13  1  0  0  0  0
  4 19  2  0  0  0  0
  5 21  1  0  0  0  0
  6 23  1  0  0  0  0
  7 14  2  0  0  0  0
  7 22  1  0  0  0  0
  8 10  2  0  0  0  0
  8 25  1  0  0  0  0
  9 11  1  0  0  0  0
  9 25  2  0  0  0  0
 10 26  1  0  0  0  0
 11 26  2  0  0  0  0
 12 27  1  0  0  0  0
 13 27  2  0  0  0  0
 14 28  1  0  0  0  0
 15 16  2  0  0  0  0
 15 29  1  0  0  0  0
 16 30  1  0  0  0  0
 17 24  1  0  0  0  0
 17 28  2  0  0  0  0
 18 30  2  0  0  0  0
 18 31  1  0  0  0  0
 19 32  1  0  0  0  0
 20 32  1  0  0  0  0
 20 33  2  0  0  0  0
 20 34  1  0  0  0  0
 21 23  2  0  0  0  0
 21 39  1  0  0  0  0
 22 24  2  0  0  0  0
 22 40  1  0  0  0  0
 23 48  1  0  0  0  0
 24 41  1  0  0  0  0
 25 56  1  0  0  0  0
 26 68  1  0  0  0  0
 27 78  1  0  0  0  0
 28 79  1  0  0  0  0
 29 31  2  0  0  0  0
 29 78  1  0  0  0  0
 30 80  1  0  0  0  0
 31 81  1  0  0  0  0
 32 62  2  0  0  0  0
 33 63  1  0  0  0  0
 33 66  1  0  0  0  0
 34 67  1  0  0  0  0
 34 73  2  0  0  0  0
 35 49  1  0  0  0  0
 35 69  1  0  0  0  0
 35 74  2  0  0  0  0
 36 59  1  0  0  0  0
 36 64  1  0  0  0  0
 36 75  2  0  0  0  0
 37 60  1  0  0  0  0
 37 70  1  0  0  0  0
 37 76  2  0  0  0  0
 38 65  1  0  0  0  0
 38 71  1  0  0  0  0
 38 77  2  0  0  0  0
 39 42  1  0  0  0  0
 40 49  1  0  0  0  0
 41 64  1  0  0  0  0
 42 44  1  0  0  0  0
 43 45  1  0  0  0  0
 43 46  1  0  0  0  0
 44 48  1  0  0  0  0
 45 50  1  0  0  0  0
 46 65  1  0  0  0  0
 47 50  1  0  0  0  0
 47 65  1  0  0  0  0
 48 69  1  0  0  0  0
 49 64  1  0  0  0  0
 50 63  1  0  0  0  0
 51 60  1  0  0  0  0
 52 61  1  0  0  0  0
 53 61  1  0  0  0  0
 54 61  1  0  0  0  0
 55 72  1  0  0  0  0
 56 79  1  0  0  0  0
 57 58  1  0  0  0  0
 57 68  1  0  0  0  0
 58 71  1  0  0  0  0
 59 61  1  0  0  0  0
 59 70  1  0  0  0  0
 60 72  1  0  0  0  0
 62 63  1  0  0  0  0
M  CHG  1  72   1
M  ISO  4  38 100  56 101  71 100  79 101
M  END
> <Batch ID>
0126

> <Smiles>
CNC(C)C(=O)NC(C(=O)N1Cc2cc([101O:1][101CH2:1]c3ccc(NCC[100NH:0][100C:0](=O)N4CCCC(n5nc(-c6ccc(Oc7ccc(F)cc7F)cc6)c(C(N)=O)c5N)C4)cc3)ccc2CC1C(=O)NC1CCCc2ccccc21)C(C)(C)C

> <Shape>
0.349

> <Color>
0.203

> <Negative vol penalty>
0.000

$$$$

  -OEChem-04052320383D

 87 97  0     1  0  0  0  0  0999 V2000
  -25.5552  -22.9133   14.6685 C   0  0  0  0  0  0  0  0  0  0  0  0
  -25.0916  -23.1642   15.9560 C   0  0  0  0  0  0  0  0  0  0  0  0
  -26.5831  -12.7675   20.2502 C   0  0  0  0  0  0  0  0  0  0  0  0
  -25.2195  -14.4347   21.3448 C   0  0  0  0  0  0  0  0  0  0  0  0
  -26.8403  -23.3108   14.3018 C   0  0  0  0  0  0  0  0  0  0  0  0
  -25.9133  -23.8117   16.8779 C   0  0  0  0  0  0  0  0  0  0  0  0
  -23.4726  -27.4236   19.4551 C   0  0  0  0  0  0  0  0  0  0  0  0
  -25.4633  -11.9493   20.1013 C   0  0  0  0  0  0  0  0  0  0  0  0
  -24.0996  -13.6165   21.1959 C   0  0  0  0  0  0  0  0  0  0  0  0
  -22.6414  -27.0120   20.4960 C   0  0  0  0  0  0  0  0  0  0  0  0
  -21.9222  -12.7994   18.7440 C   0  0  0  0  0  0  0  0  0  0  0  0
  -20.7423  -13.3936   18.2965 C   0  0  0  0  0  0  0  0  0  0  0  0
  -24.3701  -27.5622   22.0859 C   0  0  0  0  0  0  0  0  0  0  0  0
  -19.6302  -12.7181   20.3323 C   0  0  0  0  0  0  0  0  0  0  0  0
  -26.4612  -14.0102   20.8720 C   0  0  0  0  0  0  0  0  0  0  0  0
  -28.8032  -14.5552   21.7240 C   0  0  0  0  0  0  0  0  0  0  0  0
  -27.6747  -23.9721   15.2167 C   0  0  0  0  0  0  0  0  0  0  0  0
  -24.7650  -27.8982   19.7214 C   0  0  0  0  0  0  0  0  0  0  0  0
  -27.2113  -24.2171   16.5235 C   0  0  0  0  0  0  0  0  0  0  0  0
  -25.2148  -27.9817   21.0468 C   0  0  0  0  0  0  0  0  0  0  0  0
  -24.2216  -12.3738   20.5741 C   0  0  0  0  0  0  0  0  0  0  0  0
  -23.0912  -27.0785   21.8114 C   0  0  0  0  0  0  0  0  0  0  0  0
  -21.9562  -12.1645   19.9855 C   0  0  0  0  0  0  0  0  0  0  0  0
  -19.5962  -13.3530   19.0907 C   0  0  0  0  0  0  0  0  0  0  0  0
  -20.8102  -12.1239   20.7797 C   0  0  0  0  0  0  0  0  0  0  0  0
  -27.6177  -14.8556   21.0267 C   0  0  0  0  0  0  0  0  0  0  0  0
  -29.5831  -15.6758   21.5740 C   0  0  0  0  0  0  0  0  0  0  0  0
  -29.1669  -13.3692   22.4429 C   0  0  0  0  0  0  0  0  0  0  0  0
  -27.7024  -26.9599   18.9502 C   0  0  0  0  0  0  0  0  0  0  0  0
  -28.5490  -29.7384   20.3944 C   0  0  0  0  0  0  0  0  0  0  0  0
  -27.5843  -31.5710   23.3488 C   0  0  0  0  0  0  0  0  0  0  0  0
  -28.2678  -21.4110   20.4919 C   0  0  0  0  0  0  0  0  0  0  0  0
  -29.0732  -24.3404   14.7888 C   0  0  0  0  0  0  0  0  0  0  0  0
  -25.6394  -28.3635   18.5895 C   0  0  0  0  0  0  0  0  0  0  0  0
  -26.5863  -28.5027   21.3875 C   0  0  0  0  0  0  0  0  0  0  0  0
  -29.7447  -25.3553   15.7104 C   0  0  0  0  0  0  0  0  0  0  0  0
  -30.3996  -19.3172   18.6079 C   0  0  0  0  0  0  0  0  0  0  0  0
  -19.7475  -24.5099   25.1373 C   0  0  0  0  0  0  0  0  0  0  0  0
  -29.5510  -24.9602   17.1709 C   0  0  0  0  0  0  0  0  0  0  0  0
  -30.0234  -17.9044   19.0461 C   0  0  0  0  0  0  0  0  0  0  0  0
  -20.6521  -25.7251   25.0848 C   0  0  0  0  0  0  0  0  0  0  0  0
  -25.4548  -22.7331   22.5010 C   0  0  0  0  0  0  0  0  0  0  0  0
  -21.1302  -21.2431   22.2216 C   0  0  0  0  0  0  0  0  0  0  0  0
  -29.1656  -20.2062   18.5318 C   0  0  0  0  0  0  0  0  0  0  0  0
  -26.8617  -22.8493   21.9355 C   0  0  0  0  0  0  0  0  0  0  0  0
  -25.8566  -20.8195   21.1421 C   0  0  0  0  0  0  0  0  0  0  0  0
  -28.0346  -18.8864   20.3006 C   0  0  0  0  0  0  0  0  0  0  0  0
  -20.1138  -23.7361   23.8856 C   0  0  0  0  0  0  0  0  0  0  0  0
  -21.4225  -20.3757   21.0122 C   0  0  0  0  0  0  0  0  0  0  0  0
  -28.0639  -24.9392   17.5442 C   0  0  1  0  0  0  0  0  0  0  0  0
  -27.1250  -28.3470   18.9364 C   0  0  1  0  0  0  0  0  0  0  0  0
  -24.7585  -21.8259   21.4860 C   0  0  1  0  0  0  0  0  0  0  0  0
  -22.3511  -22.1521   22.3020 C   0  0  2  0  0  0  0  0  0  0  0  0
  -29.2487  -17.9373   20.3727 C   0  0  1  0  0  0  0  0  0  0  0  0
  -23.4971  -21.1797   22.0267 C   0  0  1  0  0  0  0  0  0  0  0  0
  -21.9819  -25.1342   24.6407 C   0  0  2  0  0  0  0  0  0  0  0  0
  -27.6878  -34.0275   23.8513 C   0  0  0  0  0  0  0  0  0  0  0  0
  -31.2457  -29.0716   21.6565 C   0  0  0  0  0  0  0  0  0  0  0  0
  -30.7306  -30.7261   23.4636 C   0  0  0  0  0  0  0  0  0  0  0  0
  -30.9250  -31.4877   21.0961 C   0  0  0  0  0  0  0  0  0  0  0  0
  -24.6991  -31.6777   23.9994 C   0  0  0  0  0  0  0  0  0  0  0  0
  -22.4702  -22.8622   23.6411 C   0  0  0  0  0  0  0  0  0  0  0  0
  -22.9095  -26.1444   23.9909 C   0  0  0  0  0  0  0  0  0  1  0  0
  -28.9027  -30.1459   21.8043 C   0  0  1  0  0  0  0  0  0  0  0  0
  -26.8071  -32.8741   23.3964 C   0  0  2  0  0  0  0  0  0  0  0  0
  -30.4333  -30.3361   21.9999 C   0  0  0  0  0  0  0  0  0  0  0  0
  -27.6381  -16.0718   20.4749 N   0  0  0  0  0  0  0  0  0  0  0  0
  -28.8459  -16.5455   20.8254 N   0  0  0  0  0  0  0  0  0  0  0  0
  -27.4063  -28.9397   20.2455 N   0  0  0  0  0  0  0  0  0  0  0  0
  -28.4189  -20.2092   19.7912 N   0  0  0  0  0  0  0  0  0  0  0  0
  -27.0960  -21.5963   21.2244 N   0  0  0  0  0  0  0  0  0  0  0  0
  -30.8206  -15.9922   22.0107 N   0  0  0  0  0  0  0  0  0  0  0  0
  -28.8518  -13.2914   23.8063 N   0  0  0  0  0  0  0  0  0  0  0  0
  -27.5755  -26.2858   17.7506 N   0  0  0  0  0  0  0  0  0  0  0  0
  -28.1105  -31.3358   22.0962 N   0  0  0  0  0  0  0  0  0  0  0  0
  -22.9196  -20.2448   20.9935 N   0  3  0  0  0  0  0  0  0  0  0  0
  -21.5762  -24.0646   23.6358 N   0  3  1  0  0  0  0  0  0  0  0  0
  -25.6595  -32.7586   24.3402 N   0  3  0  0  0  0  0  0  0  0  0  0
  -29.7686  -12.4139   21.8963 O   0  0  0  0  0  0  0  0  0  0  0  0
  -28.2257  -26.5335   19.9729 O   0  0  0  0  0  0  0  0  0  0  0  0
  -29.2563  -30.1208   19.4589 O   0  0  0  0  0  0  0  0  0  0  0  0
  -27.7148  -30.8372   24.3260 O   0  0  0  0  0  0  0  0  0  0  0  0
  -29.1259  -22.3020   20.4323 O   0  0  0  0  0  0  0  0  0  0  0  0
  -23.1286  -11.5757   20.4287 O   0  0  0  0  0  0  0  0  0  0  0  0
  -22.2756  -26.6735   22.8375 O   0  0  0  0  0  0  0  0  0  1  0  0
  -18.4636  -13.9249   18.6615 F   0  0  0  0  0  0  0  0  0  0  0  0
  -20.8370  -11.5164   21.9739 F   0  0  0  0  0  0  0  0  0  0  0  0
  1  2  1  0  0  0  0
  1  5  2  0  0  0  0
  2  6  2  0  0  0  0
  3  8  2  0  0  0  0
  3 15  1  0  0  0  0
  4  9  1  0  0  0  0
  4 15  2  0  0  0  0
  5 17  1  0  0  0  0
  6 19  1  0  0  0  0
  7 10  2  0  0  0  0
  7 18  1  0  0  0  0
  8 21  1  0  0  0  0
  9 21  2  0  0  0  0
 10 22  1  0  0  0  0
 11 12  2  0  0  0  0
 11 23  1  0  0  0  0
 12 24  1  0  0  0  0
 13 20  1  0  0  0  0
 13 22  2  0  0  0  0
 14 24  2  0  0  0  0
 14 25  1  0  0  0  0
 15 26  1  0  0  0  0
 16 26  1  0  0  0  0
 16 27  2  0  0  0  0
 16 28  1  0  0  0  0
 17 19  2  0  0  0  0
 17 33  1  0  0  0  0
 18 20  2  0  0  0  0
 18 34  1  0  0  0  0
 19 50  1  0  0  0  0
 20 35  1  0  0  0  0
 21 84  1  0  0  0  0
 22 85  1  0  0  0  0
 23 25  2  0  0  0  0
 23 84  1  0  0  0  0
 24 86  1  0  0  0  0
 25 87  1  0  0  0  0
 26 67  2  0  0  0  0
 27 68  1  0  0  0  0
 27 72  1  0  0  0  0
 28 73  1  0  0  0  0
 28 79  2  0  0  0  0
 29 51  1  0  0  0  0
 29 74  1  0  0  0  0
 29 80  2  0  0  0  0
 30 64  1  0  0  0  0
 30 69  1  0  0  0  0
 30 81  2  0  0  0  0
 31 65  1  0  0  0  0
 31 75  1  0  0  0  0
 31 82  2  0  0  0  0
 32 70  1  0  0  0  0
 32 71  1  0  0  0  0
 32 83  2  0  0  0  0
 33 36  1  0  0  0  0
 34 51  1  0  0  0  0
 35 69  1  0  0  0  0
 36 39  1  0  0  0  0
 37 40  1  0  0  0  0
 37 44  1  0  0  0  0
 38 41  1  0  0  0  0
 38 48  1  0  0  0  0
 39 50  1  0  0  0  0
 40 54  1  0  0  0  0
 41 56  1  0  0  0  0
 42 45  1  0  0  0  0
 42 52  1  0  0  0  0
 43 49  1  0  0  0  0
 43 53  1  0  0  0  0
 44 70  1  0  0  0  0
 45 71  1  0  0  0  0
 46 52  1  0  0  0  0
 46 71  1  0  0  0  0
 47 54  1  0  0  0  0
 47 70  1  0  0  0  0
 48 77  1  0  0  0  0
 49 76  1  0  0  0  0
 50 74  1  0  0  0  0
 51 69  1  0  0  0  0
 52 55  1  0  0  0  0
 53 55  1  0  0  0  0
 53 62  1  0  0  0  0
 54 68  1  0  0  0  0
 55 76  1  0  0  0  0
 56 63  1  0  0  0  0
 56 77  1  0  0  0  0
 57 65  1  0  0  0  0
 58 66  1  0  0  0  0
 59 66  1  0  0  0  0
 60 66  1  0  0  0  0
 61 78  1  0  0  0  0
 62 77  1  0  0  0  0
 63 85  1  0  0  0  0
 64 66  1  0  0  0  0
 64 75  1  0  0  0  0
 65 78  1  0  0  0  0
 67 68  1  0  0  0  0
M  CHG  3  76   1  77   1  78   1
M  ISO  4  32 100  63 101  71 100  85 101
M  END
> <Batch ID>
0126

> <Smiles>
CNC(C)C(=O)NC(C(=O)N1Cc2cc([101O:1][101CH2:1]C3CCCN3CC3CCNC3C3CC[100N:0]([100C:0](=O)N4CCCC(n5nc(-c6ccc(Oc7ccc(F)cc7F)cc6)c(C(N)=O)c5N)C4)C3)ccc2CC1C(=O)NC1CCCc2ccccc21)C(C)(C)C

> <Shape>
0.212

> <Color>
0.053

> <Negative vol penalty>
0.000

$$$$

  -OEChem-04052320383D

 86 95  0     1  0  0  0  0  0999 V2000
  -24.9212  -28.9350   20.2842 C   0  0  0  0  0  0  0  0  0  0  0  0
  -24.8777  -27.8149   19.4603 C   0  0  0  0  0  0  0  0  0  0  0  0
  -22.1364  -16.4796   25.1677 C   0  0  0  0  0  0  0  0  0  0  0  0
  -24.3777  -17.3434   24.9081 C   0  0  0  0  0  0  0  0  0  0  0  0
  -26.1067  -29.2750   20.9345 C   0  0  0  0  0  0  0  0  0  0  0  0
  -26.0202  -27.0347   19.2853 C   0  0  0  0  0  0  0  0  0  0  0  0
  -25.0489  -22.0735   19.5811 C   0  0  0  0  0  0  0  0  0  0  0  0
  -22.0756  -17.0230   26.4509 C   0  0  0  0  0  0  0  0  0  0  0  0
  -24.3169  -17.8869   26.1913 C   0  0  0  0  0  0  0  0  0  0  0  0
  -24.4741  -21.4695   18.4638 C   0  0  0  0  0  0  0  0  0  0  0  0
  -24.6247  -16.7952   29.3763 C   0  0  0  0  0  0  0  0  0  0  0  0
  -25.7298  -16.6172   30.2085 C   0  0  0  0  0  0  0  0  0  0  0  0
  -28.6866  -12.8225   15.8265 C   0  0  0  0  0  0  0  0  0  0  0  0
  -26.6395  -20.6305   17.8108 C   0  0  0  0  0  0  0  0  0  0  0  0
  -25.9947  -19.0132   30.3691 C   0  0  0  0  0  0  0  0  0  0  0  0
  -27.9375  -13.6832   15.0551 C   0  0  0  0  0  0  0  0  0  0  0  0
  -27.4939  -14.1494   17.2000 C   0  0  0  0  0  0  0  0  0  0  0  0
  -23.2875  -16.6397   24.3963 C   0  0  0  0  0  0  0  0  0  0  0  0
  -22.9724  -16.6989   21.8655 C   0  0  0  0  0  0  0  0  0  0  0  0
  -27.2616  -28.4932   20.7750 C   0  0  0  0  0  0  0  0  0  0  0  0
  -26.4274  -21.9695   19.8162 C   0  0  0  0  0  0  0  0  0  0  0  0
  -27.2226  -27.3654   19.9330 C   0  0  0  0  0  0  0  0  0  0  0  0
  -28.4061  -13.1174   17.1835 C   0  0  0  0  0  0  0  0  0  0  0  0
  -27.2289  -21.2320   18.9332 C   0  0  0  0  0  0  0  0  0  0  0  0
  -23.1658  -17.7266   26.9627 C   0  0  0  0  0  0  0  0  0  0  0  0
  -25.2698  -20.7503   17.5768 C   0  0  0  0  0  0  0  0  0  0  0  0
  -24.2046  -18.0822   29.0404 C   0  0  0  0  0  0  0  0  0  0  0  0
  -26.4148  -17.7262   30.7049 C   0  0  0  0  0  0  0  0  0  0  0  0
  -24.8896  -19.1912   29.5368 C   0  0  0  0  0  0  0  0  0  0  0  0
  -23.3511  -16.0781   23.0709 C   0  0  0  0  0  0  0  0  0  0  0  0
  -23.2249  -15.7558   20.8994 C   0  0  0  0  0  0  0  0  0  0  0  0
  -22.4401  -18.0108   21.6393 C   0  0  0  0  0  0  0  0  0  0  0  0
  -28.8308  -24.0399   20.0185 C   0  0  0  0  0  0  0  0  0  0  0  0
  -30.5138  -21.4055   20.8846 C   0  0  0  0  0  0  0  0  0  0  0  0
  -30.8222  -18.0078   20.8015 C   0  0  0  0  0  0  0  0  0  0  0  0
  -26.9476  -11.6146   19.5666 C   0  0  0  0  0  0  0  0  0  0  0  0
  -28.5326  -28.9274   21.4611 C   0  0  0  0  0  0  0  0  0  0  0  0
  -27.0278  -22.6044   21.0405 C   0  0  0  0  0  0  0  0  0  0  0  0
  -28.7107  -21.0734   19.1514 C   0  0  0  0  0  0  0  0  0  0  0  0
  -29.5975  -27.8351   21.5186 C   0  0  0  0  0  0  0  0  0  0  0  0
  -30.2616  -12.8351   20.3897 C   0  0  0  0  0  0  0  0  0  0  0  0
  -23.7829  -10.8568   20.8472 C   0  0  0  0  0  0  0  0  0  0  0  0
  -30.2749  -13.1176   18.8927 C   0  0  0  0  0  0  0  0  0  0  0  0
  -29.7430  -27.1592   20.1589 C   0  0  0  0  0  0  0  0  0  0  0  0
  -23.3044  -12.1737   21.4552 C   0  0  0  0  0  0  0  0  0  0  0  0
  -25.2698  -10.6484   21.1058 C   0  0  0  0  0  0  0  0  0  0  0  0
  -28.7845  -12.9330   20.7384 C   0  0  0  0  0  0  0  0  0  0  0  0
  -25.6632  -13.0922   21.1815 C   0  0  0  0  0  0  0  0  0  0  0  0
  -28.9988  -12.4284   18.3917 C   0  0  1  0  0  0  0  0  0  0  0  0
  -28.4343  -26.4801   19.7375 C   0  0  1  0  0  0  0  0  0  0  0  0
  -28.5247  -22.8659   20.9049 C   0  0  1  0  0  0  0  0  0  0  0  0
  -24.1595  -13.3492   20.9537 C   0  0  2  0  0  0  0  0  0  0  0  0
  -32.3215  -16.1466   21.5667 C   0  0  0  0  0  0  0  0  0  0  0  0
  -32.5033  -22.1049   18.6795 C   0  0  0  0  0  0  0  0  0  0  0  0
  -33.4088  -19.7773   18.8543 C   0  0  0  0  0  0  0  0  0  0  0  0
  -33.5445  -21.3168   20.8124 C   0  0  0  0  0  0  0  0  0  0  0  0
  -28.6712  -16.7875   22.4273 C   0  0  0  0  0  0  0  0  0  0  0  0
  -24.8244  -15.1399   15.6189 C   0  0  0  0  0  0  0  0  0  0  0  0
  -26.3018  -15.5242   15.4856 C   0  0  0  0  0  0  0  0  0  0  0  0
  -23.8286  -16.2184   15.2062 C   0  0  0  0  0  0  0  0  0  0  0  0
  -23.1052  -18.5650   15.6632 C   0  0  0  0  0  0  0  0  0  0  0  0
  -23.3565  -19.7308   16.5991 C   0  0  0  0  0  0  0  0  0  1  0  0
  -31.3043  -20.3517   20.1474 C   0  0  1  0  0  0  0  0  0  0  0  0
  -31.1031  -16.9948   21.8967 C   0  0  2  0  0  0  0  0  0  0  0  0
  -32.6626  -20.8921   19.6180 C   0  0  0  0  0  0  0  0  0  0  0  0
  -23.8092  -14.8366   22.8898 N   0  0  0  0  0  0  0  0  0  0  0  0
  -27.2161  -14.4850   15.9007 N   0  0  0  0  0  0  0  0  0  0  0  0
  -23.7199  -14.6696   21.5593 N   0  0  0  0  0  0  0  0  0  0  0  0
  -29.2519  -21.7179   20.3594 N   0  0  0  0  0  0  0  0  0  0  0  0
  -26.0600  -11.7871   20.6362 N   0  0  0  0  0  0  0  0  0  0  0  0
  -28.1004  -12.4053   19.5563 N   0  0  0  0  0  0  0  0  0  0  0  0
  -23.0695  -15.7579   19.5585 N   0  0  0  0  0  0  0  0  0  0  0  0
  -22.2432  -18.8515   22.7433 N   0  0  0  0  0  0  0  0  0  0  0  0
  -28.2653  -25.2274   20.4422 N   0  0  0  0  0  0  0  0  0  0  0  0
  -31.4263  -19.2200   21.0600 N   0  0  0  0  0  0  0  0  0  0  0  0
  -29.9340  -16.0882   22.0760 N   0  3  0  0  0  0  0  0  0  0  0  0
  -24.0007  -17.4346   16.0345 N   0  3  0  0  0  0  0  0  0  0  0  0
  -22.1323  -18.4194   20.4939 O   0  0  0  0  0  0  0  0  0  0  0  0
  -29.5297  -23.8805   19.0245 O   0  0  0  0  0  0  0  0  0  0  0  0
  -30.9950  -21.9270   21.8936 O   0  0  0  0  0  0  0  0  0  0  0  0
  -30.1386  -17.7484   19.8136 O   0  0  0  0  0  0  0  0  0  0  0  0
  -26.7336  -10.7814   18.6768 O   0  0  0  0  0  0  0  0  0  0  0  0
  -23.1067  -18.2572   28.2147 O   0  0  0  0  0  0  0  0  0  0  0  0
  -24.7074  -20.1561   16.4772 O   0  0  0  0  0  0  0  0  0  1  0  0
  -27.4751  -17.5551   31.5053 F   0  0  0  0  0  0  0  0  0  0  0  0
  -24.4900  -20.4301   29.2186 F   0  0  0  0  0  0  0  0  0  0  0  0
  1  2  1  0  0  0  0
  1  5  2  0  0  0  0
  2  6  2  0  0  0  0
  3  8  2  0  0  0  0
  3 18  1  0  0  0  0
  4  9  1  0  0  0  0
  4 18  2  0  0  0  0
  5 20  1  0  0  0  0
  6 22  1  0  0  0  0
  7 10  2  0  0  0  0
  7 21  1  0  0  0  0
  8 25  1  0  0  0  0
  9 25  2  0  0  0  0
 10 26  1  0  0  0  0
 11 12  2  0  0  0  0
 11 27  1  0  0  0  0
 12 28  1  0  0  0  0
 13 16  2  0  0  0  0
 13 23  1  0  0  0  0
 14 24  1  0  0  0  0
 14 26  2  0  0  0  0
 15 28  2  0  0  0  0
 15 29  1  0  0  0  0
 16 67  1  0  0  0  0
 17 23  2  0  0  0  0
 17 67  1  0  0  0  0
 18 30  1  0  0  0  0
 19 30  1  0  0  0  0
 19 31  2  0  0  0  0
 19 32  1  0  0  0  0
 20 22  2  0  0  0  0
 20 37  1  0  0  0  0
 21 24  2  0  0  0  0
 21 38  1  0  0  0  0
 22 50  1  0  0  0  0
 23 49  1  0  0  0  0
 24 39  1  0  0  0  0
 25 83  1  0  0  0  0
 26 84  1  0  0  0  0
 27 29  2  0  0  0  0
 27 83  1  0  0  0  0
 28 85  1  0  0  0  0
 29 86  1  0  0  0  0
 30 66  2  0  0  0  0
 31 68  1  0  0  0  0
 31 72  1  0  0  0  0
 32 73  1  0  0  0  0
 32 78  2  0  0  0  0
 33 51  1  0  0  0  0
 33 74  1  0  0  0  0
 33 79  2  0  0  0  0
 34 63  1  0  0  0  0
 34 69  1  0  0  0  0
 34 80  2  0  0  0  0
 35 64  1  0  0  0  0
 35 75  1  0  0  0  0
 35 81  2  0  0  0  0
 36 70  1  0  0  0  0
 36 71  1  0  0  0  0
 36 82  2  0  0  0  0
 37 40  1  0  0  0  0
 38 51  1  0  0  0  0
 39 69  1  0  0  0  0
 40 44  1  0  0  0  0
 41 43  1  0  0  0  0
 41 47  1  0  0  0  0
 42 45  1  0  0  0  0
 42 46  1  0  0  0  0
 43 49  1  0  0  0  0
 44 50  1  0  0  0  0
 45 52  1  0  0  0  0
 46 70  1  0  0  0  0
 47 71  1  0  0  0  0
 48 52  1  0  0  0  0
 48 70  1  0  0  0  0
 49 71  1  0  0  0  0
 50 74  1  0  0  0  0
 51 69  1  0  0  0  0
 52 68  1  0  0  0  0
 53 64  1  0  0  0  0
 54 65  1  0  0  0  0
 55 65  1  0  0  0  0
 56 65  1  0  0  0  0
 57 76  1  0  0  0  0
 58 59  1  0  0  0  0
 58 60  1  0  0  0  0
 59 67  1  0  0  0  0
 60 77  1  0  0  0  0
 61 62  1  0  0  0  0
 61 77  1  0  0  0  0
 62 84  1  0  0  0  0
 63 65  1  0  0  0  0
 63 75  1  0  0  0  0
 64 76  1  0  0  0  0
 66 68  1  0  0  0  0
M  CHG  2  76   1  77   1
M  ISO  4  36 100  62 101  71 100  84 101
M  END
> <Batch ID>
0126

> <Smiles>
CNC(C)C(=O)NC(C(=O)N1Cc2cc([101O:1][101CH2:1]CNCCCn3ccc(C4CCC[100N:0]4[100C:0](=O)N4CCCC(n5nc(-c6ccc(Oc7ccc(F)cc7F)cc6)c(C(N)=O)c5N)C4)c3)ccc2CC1C(=O)NC1CCCc2ccccc21)C(C)(C)C

> <Shape>
0.206

> <Color>
0.071

> <Negative vol penalty>
0.000

$$$$

  -OEChem-04052320383D

 88 97  0     1  0  0  0  0  0999 V2000
  -32.2932  -21.7429   22.2954 C   0  0  0  0  0  0  0  0  0  0  0  0
  -31.1242  -22.1756   22.9131 C   0  0  0  0  0  0  0  0  0  0  0  0
  -29.7102  -27.8466   18.9507 C   0  0  0  0  0  0  0  0  0  0  0  0
  -29.5450  -27.2199   21.2782 C   0  0  0  0  0  0  0  0  0  0  0  0
  -32.2258  -21.0389   21.0938 C   0  0  0  0  0  0  0  0  0  0  0  0
  -29.8871  -21.9055   22.3291 C   0  0  0  0  0  0  0  0  0  0  0  0
  -23.0825  -20.4929   24.0661 C   0  0  0  0  0  0  0  0  0  0  0  0
  -18.9795  -26.8314   20.8252 C   0  0  0  0  0  0  0  0  0  0  0  0
  -19.4852  -28.0331   21.3211 C   0  0  0  0  0  0  0  0  0  0  0  0
  -31.0920  -27.6629   18.9993 C   0  0  0  0  0  0  0  0  0  0  0  0
  -30.9269  -27.0361   21.3267 C   0  0  0  0  0  0  0  0  0  0  0  0
  -21.7876  -20.9306   23.7913 C   0  0  0  0  0  0  0  0  0  0  0  0
  -33.2649  -25.0735   18.9213 C   0  0  0  0  0  0  0  0  0  0  0  0
  -33.8636  -24.3773   17.8713 C   0  0  0  0  0  0  0  0  0  0  0  0
  -21.7891  -19.6375   21.7549 C   0  0  0  0  0  0  0  0  0  0  0  0
  -18.6394  -26.0426   23.0834 C   0  0  0  0  0  0  0  0  0  0  0  0
  -35.2196  -26.3110   17.3623 C   0  0  0  0  0  0  0  0  0  0  0  0
  -28.9367  -27.6252   20.0902 C   0  0  0  0  0  0  0  0  0  0  0  0
  -26.5344  -26.8540   19.7129 C   0  0  0  0  0  0  0  0  0  0  0  0
  -30.9869  -20.7516   20.4997 C   0  0  0  0  0  0  0  0  0  0  0  0
  -23.7456  -19.6314   23.1804 C   0  0  0  0  0  0  0  0  0  0  0  0
  -29.8032  -21.1981   21.1177 C   0  0  0  0  0  0  0  0  0  0  0  0
  -23.0914  -19.1882   22.0220 C   0  0  0  0  0  0  0  0  0  0  0  0
  -18.5565  -25.8362   21.7064 C   0  0  0  0  0  0  0  0  0  0  0  0
  -19.5681  -28.2395   22.6981 C   0  0  0  0  0  0  0  0  0  0  0  0
  -19.1451  -27.2443   23.5793 C   0  0  0  0  0  0  0  0  0  0  0  0
  -31.7004  -27.2577   20.1873 C   0  0  0  0  0  0  0  0  0  0  0  0
  -21.1418  -20.5052   22.6342 C   0  0  0  0  0  0  0  0  0  0  0  0
  -33.6435  -26.3885   19.1917 C   0  0  0  0  0  0  0  0  0  0  0  0
  -34.8410  -24.9960   17.0918 C   0  0  0  0  0  0  0  0  0  0  0  0
  -34.6208  -27.0072   18.4122 C   0  0  0  0  0  0  0  0  0  0  0  0
  -27.5093  -27.8153   20.0408 C   0  0  0  0  0  0  0  0  0  0  0  0
  -25.3415  -27.5277   19.8105 C   0  0  0  0  0  0  0  0  0  0  0  0
  -26.6931  -25.4754   19.3525 C   0  0  0  0  0  0  0  0  0  0  0  0
  -26.3889  -19.8195   21.4250 C   0  0  0  0  0  0  0  0  0  0  0  0
  -25.7327  -16.7036   20.8061 C   0  0  0  0  0  0  0  0  0  0  0  0
  -23.4075  -14.2116   20.6323 C   0  0  0  0  0  0  0  0  0  0  0  0
  -21.9469  -31.0497   22.4971 C   0  0  0  0  0  0  0  0  0  0  0  0
  -30.9667  -20.0287   19.1762 C   0  0  0  0  0  0  0  0  0  0  0  0
  -25.1322  -19.1471   23.5046 C   0  0  0  0  0  0  0  0  0  0  0  0
  -23.7519  -18.2473   21.0490 C   0  0  0  0  0  0  0  0  0  0  0  0
  -29.5979  -19.4576   18.8148 C   0  0  0  0  0  0  0  0  0  0  0  0
  -24.3824  -32.4679   20.3215 C   0  0  0  0  0  0  0  0  0  0  0  0
  -22.2308  -25.8204   26.4602 C   0  0  0  0  0  0  0  0  0  0  0  0
  -21.4232  -26.3365   27.6341 C   0  0  0  0  0  0  0  0  0  0  0  0
  -28.5066  -20.4971   19.0506 C   0  0  0  0  0  0  0  0  0  0  0  0
  -25.3355  -31.3067   20.0328 C   0  0  0  0  0  0  0  0  0  0  0  0
  -23.8662  -32.4305   21.7582 C   0  0  0  0  0  0  0  0  0  0  0  0
  -24.2025  -29.9917   21.8729 C   0  0  0  0  0  0  0  0  0  0  0  0
  -21.2776  -26.0026   25.2986 C   0  0  0  0  0  0  0  0  0  0  0  0
  -20.7295  -27.5727   27.0893 C   0  0  0  0  0  0  0  0  0  0  0  0
  -28.4412  -20.9029   20.5279 C   0  0  1  0  0  0  0  0  0  0  0  0
  -25.9044  -18.6791   22.2749 C   0  0  1  0  0  0  0  0  0  0  0  0
  -24.7057  -29.9550   20.4198 C   0  0  2  0  0  0  0  0  0  0  0  0
  -23.1647  -11.7803   20.0604 C   0  0  0  0  0  0  0  0  0  0  0  0
  -25.9005  -17.3878   17.8373 C   0  0  0  0  0  0  0  0  0  0  0  0
  -24.7409  -15.2243   17.3445 C   0  0  0  0  0  0  0  0  0  0  0  0
  -26.9674  -15.2160   18.4693 C   0  0  0  0  0  0  0  0  0  0  0  0
  -22.4808  -13.5426   23.3623 C   0  0  0  0  0  0  0  0  0  0  0  0
  -20.1141  -29.5337   23.2056 C   0  0  0  0  0  0  0  0  0  0  0  0
  -19.2247  -27.4428   25.0575 C   0  0  0  0  0  0  0  0  0  0  0  0
  -18.0131  -24.5436   21.1727 C   0  0  0  0  0  0  0  0  0  0  0  0
  -18.4388  -22.1055   20.8360 C   0  0  0  0  0  0  0  0  0  0  0  0
  -19.5120  -21.0458   20.9887 C   0  0  0  0  0  0  0  0  0  1  0  0
  -24.9286  -15.9674   19.7618 C   0  0  1  0  0  0  0  0  0  0  0  0
  -23.4108  -12.7917   21.1691 C   0  0  2  0  0  0  0  0  0  0  0  0
  -25.6224  -15.9681   18.3704 C   0  0  0  0  0  0  0  0  0  0  0  0
  -26.9813  -29.0088   20.3252 N   0  0  0  0  0  0  0  0  0  0  0  0
  -25.6618  -28.8019   20.1763 N   0  0  0  0  0  0  0  0  0  0  0  0
  -25.1104  -17.8070   21.4070 N   0  0  0  0  0  0  0  0  0  0  0  0
  -23.2800  -31.1225   22.0607 N   0  0  0  0  0  0  0  0  0  0  0  0
  -24.0602  -27.1484   19.6182 N   0  0  0  0  0  0  0  0  0  0  0  0
  -27.9886  -24.9433   19.3004 N   0  0  0  0  0  0  0  0  0  0  0  0
  -27.7636  -19.8851   21.3021 N   0  0  0  0  0  0  0  0  0  0  0  0
  -24.6774  -14.6363   20.3036 N   0  0  0  0  0  0  0  0  0  0  0  0
  -21.4676  -29.7713   22.7558 N   0  0  0  0  0  0  0  0  0  0  0  0
  -20.6149  -27.3299   25.5955 N   0  3  0  0  0  0  0  0  0  0  0  0
  -22.3485  -12.6255   22.2011 N   0  3  0  0  0  0  0  0  0  0  0  0
  -18.9701  -23.4116   21.3010 N   0  3  0  0  0  0  0  0  0  0  0  0
  -25.7161  -24.7416   19.0686 O   0  0  0  0  0  0  0  0  0  0  0  0
  -25.5755  -20.5825   20.9170 O   0  0  0  0  0  0  0  0  0  0  0  0
  -26.8683  -16.3098   21.0836 O   0  0  0  0  0  0  0  0  0  0  0  0
  -22.3805  -14.8762   20.5129 O   0  0  0  0  0  0  0  0  0  0  0  0
  -21.2348  -32.0493   22.6402 O   0  0  0  0  0  0  0  0  0  0  0  0
  -33.0487  -27.0781   20.2350 O   0  0  0  0  0  0  0  0  0  0  0  0
  -19.8781  -20.9314   22.3632 O   0  0  0  0  0  0  0  0  0  1  0  0
  -35.4169  -24.3268   16.0845 F   0  0  0  0  0  0  0  0  0  0  0  0
  -34.9895  -28.2700   18.6680 F   0  0  0  0  0  0  0  0  0  0  0  0
  1  2  1  0  0  0  0
  1  5  2  0  0  0  0
  2  6  2  0  0  0  0
  3 10  2  0  0  0  0
  3 18  1  0  0  0  0
  4 11  1  0  0  0  0
  4 18  2  0  0  0  0
  5 20  1  0  0  0  0
  6 22  1  0  0  0  0
  7 12  2  0  0  0  0
  7 21  1  0  0  0  0
  8  9  2  0  0  0  0
  8 24  1  0  0  0  0
  9 25  1  0  0  0  0
 10 27  1  0  0  0  0
 11 27  2  0  0  0  0
 12 28  1  0  0  0  0
 13 14  2  0  0  0  0
 13 29  1  0  0  0  0
 14 30  1  0  0  0  0
 15 23  1  0  0  0  0
 15 28  2  0  0  0  0
 16 24  2  0  0  0  0
 16 26  1  0  0  0  0
 17 30  2  0  0  0  0
 17 31  1  0  0  0  0
 18 32  1  0  0  0  0
 19 32  1  0  0  0  0
 19 33  2  0  0  0  0
 19 34  1  0  0  0  0
 20 22  2  0  0  0  0
 20 39  1  0  0  0  0
 21 23  2  0  0  0  0
 21 40  1  0  0  0  0
 22 52  1  0  0  0  0
 23 41  1  0  0  0  0
 24 62  1  0  0  0  0
 25 26  2  0  0  0  0
 25 60  1  0  0  0  0
 26 61  1  0  0  0  0
 27 85  1  0  0  0  0
 28 86  1  0  0  0  0
 29 31  2  0  0  0  0
 29 85  1  0  0  0  0
 30 87  1  0  0  0  0
 31 88  1  0  0  0  0
 32 68  2  0  0  0  0
 33 69  1  0  0  0  0
 33 72  1  0  0  0  0
 34 73  1  0  0  0  0
 34 80  2  0  0  0  0
 35 53  1  0  0  0  0
 35 74  1  0  0  0  0
 35 81  2  0  0  0  0
 36 65  1  0  0  0  0
 36 70  1  0  0  0  0
 36 82  2  0  0  0  0
 37 66  1  0  0  0  0
 37 75  1  0  0  0  0
 37 83  2  0  0  0  0
 38 71  1  0  0  0  0
 38 76  1  0  0  0  0
 38 84  2  0  0  0  0
 39 42  1  0  0  0  0
 40 53  1  0  0  0  0
 41 70  1  0  0  0  0
 42 46  1  0  0  0  0
 43 47  1  0  0  0  0
 43 48  1  0  0  0  0
 44 45  1  0  0  0  0
 44 50  1  0  0  0  0
 45 51  1  0  0  0  0
 46 52  1  0  0  0  0
 47 54  1  0  0  0  0
 48 71  1  0  0  0  0
 49 54  1  0  0  0  0
 49 71  1  0  0  0  0
 50 77  1  0  0  0  0
 51 77  1  0  0  0  0
 52 74  1  0  0  0  0
 53 70  1  0  0  0  0
 54 69  1  0  0  0  0
 55 66  1  0  0  0  0
 56 67  1  0  0  0  0
 57 67  1  0  0  0  0
 58 67  1  0  0  0  0
 59 78  1  0  0  0  0
 60 76  1  0  0  0  0
 61 77  1  0  0  0  0
 62 79  1  0  0  0  0
 63 64  1  0  0  0  0
 63 79  1  0  0  0  0
 64 86  1  0  0  0  0
 65 67  1  0  0  0  0
 65 75  1  0  0  0  0
 66 78  1  0  0  0  0
 68 69  1  0  0  0  0
M  CHG  3  77   1  78   1  79   1
M  ISO  4  38 100  64 101  76 100  86 101
M  END
> <Batch ID>
0126

> <Smiles>
CNC(C)C(=O)NC(C(=O)N1Cc2cc([101O:1][101CH2:1]CNCc3ccc(C[100NH:0][100C:0](=O)N4CCCC(n5nc(-c6ccc(Oc7ccc(F)cc7F)cc6)c(C(N)=O)c5N)C4)c(CN4CCCC4)c3)ccc2CC1C(=O)NC1CCCc2ccccc21)C(C)(C)C

> <Shape>
0.212

> <Color>
0.084

> <Negative vol penalty>
0.000

$$$$

  -OEChem-04052320383D

 85 94  0     1  0  0  0  0  0999 V2000
  -19.5370  -33.2454   19.9186 C   0  0  0  0  0  0  0  0  0  0  0  0
  -20.5632  -32.9927   19.0139 C   0  0  0  0  0  0  0  0  0  0  0  0
  -23.6279  -10.6036   22.9206 C   0  0  0  0  0  0  0  0  0  0  0  0
  -24.2582   -9.4427   20.8977 C   0  0  0  0  0  0  0  0  0  0  0  0
  -19.7764  -33.1445   21.2884 C   0  0  0  0  0  0  0  0  0  0  0  0
  -21.8297  -32.6400   19.4786 C   0  0  0  0  0  0  0  0  0  0  0  0
  -26.1802  -26.3565   17.8604 C   0  0  0  0  0  0  0  0  0  0  0  0
  -23.0709   -9.4272   23.4221 C   0  0  0  0  0  0  0  0  0  0  0  0
  -23.7013   -8.2663   21.3992 C   0  0  0  0  0  0  0  0  0  0  0  0
  -26.9745  -25.2129   17.7747 C   0  0  0  0  0  0  0  0  0  0  0  0
  -20.6199   -6.9190   21.7462 C   0  0  0  0  0  0  0  0  0  0  0  0
  -19.8200   -6.1637   20.8888 C   0  0  0  0  0  0  0  0  0  0  0  0
  -27.8952  -25.6754   19.9625 C   0  0  0  0  0  0  0  0  0  0  0  0
  -21.3239   -4.2892   21.1369 C   0  0  0  0  0  0  0  0  0  0  0  0
  -24.2215  -10.6114   21.6583 C   0  0  0  0  0  0  0  0  0  0  0  0
  -24.1350  -13.0464   20.9026 C   0  0  0  0  0  0  0  0  0  0  0  0
  -21.0439  -32.7809   21.7699 C   0  0  0  0  0  0  0  0  0  0  0  0
  -26.2292  -27.1566   19.0053 C   0  0  0  0  0  0  0  0  0  0  0  0
  -22.0866  -32.5354   20.8562 C   0  0  0  0  0  0  0  0  0  0  0  0
  -27.0928  -26.8154   20.0592 C   0  0  0  0  0  0  0  0  0  0  0  0
  -23.1077   -8.2586   22.6615 C   0  0  0  0  0  0  0  0  0  0  0  0
  -27.8300  -24.8733   18.8231 C   0  0  0  0  0  0  0  0  0  0  0  0
  -21.7719   -6.3595   22.2990 C   0  0  0  0  0  0  0  0  0  0  0  0
  -20.1720   -4.8488   20.5841 C   0  0  0  0  0  0  0  0  0  0  0  0
  -22.1239   -5.0446   21.9944 C   0  0  0  0  0  0  0  0  0  0  0  0
  -24.7964  -11.8264   21.1394 C   0  0  0  0  0  0  0  0  0  0  0  0
  -25.1128  -13.8778   20.4136 C   0  0  0  0  0  0  0  0  0  0  0  0
  -22.7597  -13.3967   21.1065 C   0  0  0  0  0  0  0  0  0  0  0  0
  -24.9463  -30.1965   20.7912 C   0  0  0  0  0  0  0  0  0  0  0  0
  -25.2056  -27.9736   22.8893 C   0  0  0  0  0  0  0  0  0  0  0  0
  -25.2341  -25.1480   24.8004 C   0  0  0  0  0  0  0  0  0  0  0  0
  -31.0704  -13.9561   21.0071 C   0  0  0  0  0  0  0  0  0  0  0  0
  -21.2672  -32.7308   23.2607 C   0  0  0  0  0  0  0  0  0  0  0  0
  -25.4370  -28.4310   19.1151 C   0  0  0  0  0  0  0  0  0  0  0  0
  -27.1379  -27.7245   21.2569 C   0  0  0  0  0  0  0  0  0  0  0  0
  -22.5382  -31.9864   23.6615 C   0  0  0  0  0  0  0  0  0  0  0  0
  -29.2237  -13.7901   17.9675 C   0  0  0  0  0  0  0  0  0  0  0  0
  -23.7147  -32.4376   22.8018 C   0  0  0  0  0  0  0  0  0  0  0  0
  -27.8200  -13.3780   18.4144 C   0  0  0  0  0  0  0  0  0  0  0  0
  -30.1135  -21.0689   20.8864 C   0  0  0  0  0  0  0  0  0  0  0  0
  -27.9309  -21.8367   21.9102 C   0  0  0  0  0  0  0  0  0  0  0  0
  -29.8142  -21.8941   19.6374 C   0  0  0  0  0  0  0  0  0  0  0  0
  -27.6370  -22.6601   20.6588 C   0  0  0  0  0  0  0  0  0  0  0  0
  -28.4225  -18.2886   24.3852 C   0  0  0  0  0  0  0  0  0  0  0  0
  -30.3048  -13.1130   18.8072 C   0  0  0  0  0  0  0  0  0  0  0  0
  -27.9478  -19.4666   23.5335 C   0  0  0  0  0  0  0  0  0  0  0  0
  -28.7569  -12.8808   20.7108 C   0  0  0  0  0  0  0  0  0  0  0  0
  -29.9342  -18.7054   22.5647 C   0  0  0  0  0  0  0  0  0  0  0  0
  -23.4674  -32.1260   21.3209 C   0  0  1  0  0  0  0  0  0  0  0  0
  -24.9479  -28.7161   20.5464 C   0  0  1  0  0  0  0  0  0  0  0  0
  -27.6318  -13.5811   19.9298 C   0  0  2  0  0  0  0  0  0  0  0  0
  -28.8224  -20.6320   21.5880 C   0  0  0  0  0  0  0  0  0  0  0  0
  -29.8517  -18.0409   23.9244 C   0  0  2  0  0  0  0  0  0  0  0  0
  -28.9215  -23.0919   19.9535 C   0  0  0  0  0  0  0  0  0  1  0  0
  -24.7710  -24.3417   27.1312 C   0  0  0  0  0  0  0  0  0  0  0  0
  -27.8349  -29.1994   23.8318 C   0  0  0  0  0  0  0  0  0  0  0  0
  -27.7910  -27.6227   25.7761 C   0  0  0  0  0  0  0  0  0  0  0  0
  -25.9747  -29.3101   25.4997 C   0  0  0  0  0  0  0  0  0  0  0  0
  -23.1107  -23.3099   23.8671 C   0  0  0  0  0  0  0  0  0  0  0  0
  -31.6891  -14.7659   23.2700 C   0  0  0  0  0  0  0  0  0  0  0  0
  -31.5131  -16.2716   23.3343 C   0  0  0  0  0  0  0  0  0  0  0  0
  -26.0665  -27.3214   23.9413 C   0  0  1  0  0  0  0  0  0  0  0  0
  -24.1982  -24.5559   25.7388 C   0  0  2  0  0  0  0  0  0  0  0  0
  -26.9158  -28.3535   24.7356 C   0  0  0  0  0  0  0  0  0  0  0  0
  -26.0940  -11.8741   20.8264 N   0  0  0  0  0  0  0  0  0  0  0  0
  -26.2558  -13.1341   20.3879 N   0  0  0  0  0  0  0  0  0  0  0  0
  -25.7754  -28.1430   21.6215 N   0  0  0  0  0  0  0  0  0  0  0  0
  -30.0690  -13.3454   20.2342 N   0  0  0  0  0  0  0  0  0  0  0  0
  -29.1437  -19.9137   22.8118 N   0  0  1  0  0  0  0  0  0  0  0  0
  -25.0978  -15.1651   20.0073 N   0  0  0  0  0  0  0  0  0  0  0  0
  -21.8906  -12.4225   21.6162 N   0  0  0  0  0  0  0  0  0  0  0  0
  -23.6958  -30.7219   21.0548 N   0  0  0  0  0  0  0  0  0  0  0  0
  -25.1669  -26.5249   24.7687 N   0  0  0  0  0  0  0  0  0  0  0  0
  -30.7632  -14.1451   22.3490 N   0  0  0  0  0  0  0  0  0  0  0  0
  -30.1460  -16.5992   23.8350 N   0  3  0  0  0  0  0  0  0  0  0  0
  -23.7199  -23.2431   25.2204 N   0  3  0  0  0  0  0  0  0  0  0  0
  -22.3113  -14.5349   20.8291 O   0  0  0  0  0  0  0  0  0  0  0  0
  -26.0018  -30.8174   20.7459 O   0  0  0  0  0  0  0  0  0  0  0  0
  -24.0607  -28.3294   23.1824 O   0  0  0  0  0  0  0  0  0  0  0  0
  -26.0264  -24.4583   24.1623 O   0  0  0  0  0  0  0  0  0  0  0  0
  -32.1555  -14.3118   20.5350 O   0  0  0  0  0  0  0  0  0  0  0  0
  -22.5646   -7.1104   23.1507 O   0  0  0  0  0  0  0  0  0  0  0  0
  -28.5992  -23.7529   18.7348 O   0  0  0  0  0  0  0  0  0  1  0  0
  -19.4029   -4.1231   19.7619 F   0  0  0  0  0  0  0  0  0  0  0  0
  -23.2288   -4.5012   22.5233 F   0  0  0  0  0  0  0  0  0  0  0  0
  1  2  1  0  0  0  0
  1  5  2  0  0  0  0
  2  6  2  0  0  0  0
  3  8  2  0  0  0  0
  3 15  1  0  0  0  0
  4  9  1  0  0  0  0
  4 15  2  0  0  0  0
  5 17  1  0  0  0  0
  6 19  1  0  0  0  0
  7 10  2  0  0  0  0
  7 18  1  0  0  0  0
  8 21  1  0  0  0  0
  9 21  2  0  0  0  0
 10 22  1  0  0  0  0
 11 12  2  0  0  0  0
 11 23  1  0  0  0  0
 12 24  1  0  0  0  0
 13 20  1  0  0  0  0
 13 22  2  0  0  0  0
 14 24  2  0  0  0  0
 14 25  1  0  0  0  0
 15 26  1  0  0  0  0
 16 26  1  0  0  0  0
 16 27  2  0  0  0  0
 16 28  1  0  0  0  0
 17 19  2  0  0  0  0
 17 33  1  0  0  0  0
 18 20  2  0  0  0  0
 18 34  1  0  0  0  0
 19 49  1  0  0  0  0
 20 35  1  0  0  0  0
 21 82  1  0  0  0  0
 22 83  1  0  0  0  0
 23 25  2  0  0  0  0
 23 82  1  0  0  0  0
 24 84  1  0  0  0  0
 25 85  1  0  0  0  0
 26 65  2  0  0  0  0
 27 66  1  0  0  0  0
 27 70  1  0  0  0  0
 28 71  1  0  0  0  0
 28 77  2  0  0  0  0
 29 50  1  0  0  0  0
 29 72  1  0  0  0  0
 29 78  2  0  0  0  0
 30 62  1  0  0  0  0
 30 67  1  0  0  0  0
 30 79  2  0  0  0  0
 31 63  1  0  0  0  0
 31 73  1  0  0  0  0
 31 80  2  0  0  0  0
 32 68  1  0  0  0  0
 32 74  1  0  0  0  0
 32 81  2  0  0  0  0
 33 36  1  0  0  0  0
 34 50  1  0  0  0  0
 35 67  1  0  0  0  0
 36 38  1  0  0  0  0
 37 39  1  0  0  0  0
 37 45  1  0  0  0  0
 38 49  1  0  0  0  0
 39 51  1  0  0  0  0
 40 42  1  0  0  0  0
 40 52  1  0  0  0  0
 41 43  1  0  0  0  0
 41 52  1  0  0  0  0
 42 54  1  0  0  0  0
 43 54  1  0  0  0  0
 44 46  1  0  0  0  0
 44 53  1  0  0  0  0
 45 68  1  0  0  0  0
 46 69  1  0  0  0  0
 47 51  1  0  0  0  0
 47 68  1  0  0  0  0
 48 53  1  0  0  0  0
 48 69  1  0  0  0  0
 49 72  1  0  0  0  0
 50 67  1  0  0  0  0
 51 66  1  0  0  0  0
 52 69  1  0  0  0  0
 53 75  1  0  0  0  0
 54 83  1  0  0  0  0
 55 63  1  0  0  0  0
 56 64  1  0  0  0  0
 57 64  1  0  0  0  0
 58 64  1  0  0  0  0
 59 76  1  0  0  0  0
 60 61  1  0  0  0  0
 60 74  1  0  0  0  0
 61 75  1  0  0  0  0
 62 64  1  0  0  0  0
 62 73  1  0  0  0  0
 63 76  1  0  0  0  0
 65 66  1  0  0  0  0
M  CHG  2  75   1  76   1
M  ISO  4  32 100  54 101  74 100  83 101
M  END
> <Batch ID>
0126

> <Smiles>
CNC(C)C(=O)NC(C(=O)N1Cc2cc([101O:1][101CH:1]3CCC(N4CCC(NCC[100NH:0][100C:0](=O)N5CCCC(n6nc(-c7ccc(Oc8ccc(F)cc8F)cc7)c(C(N)=O)c6N)C5)C4)CC3)ccc2CC1C(=O)NC1CCCc2ccccc21)C(C)(C)C

> <Shape>
0.271

> <Color>
0.172

> <Negative vol penalty>
0.000

$$$$

  -OEChem-04052320383D

 90 99  0     1  0  0  0  0  0999 V2000
  -32.0635  -12.6447   21.6358 C   0  0  0  0  0  0  0  0  0  0  0  0
  -31.3312  -13.6782   22.2113 C   0  0  0  0  0  0  0  0  0  0  0  0
  -28.6532  -26.5911   19.4447 C   0  0  0  0  0  0  0  0  0  0  0  0
  -26.5992  -25.3210   19.3759 C   0  0  0  0  0  0  0  0  0  0  0  0
  -31.5327  -11.9288   20.5636 C   0  0  0  0  0  0  0  0  0  0  0  0
  -30.0681  -13.9971   21.7141 C   0  0  0  0  0  0  0  0  0  0  0  0
  -25.2379  -15.9662   24.9231 C   0  0  0  0  0  0  0  0  0  0  0  0
  -20.9873  -22.2906   26.0601 C   0  0  0  0  0  0  0  0  0  0  0  0
  -23.0623  -23.4504   25.6281 C   0  0  0  0  0  0  0  0  0  0  0  0
  -21.6522  -21.0677   25.9708 C   0  0  0  0  0  0  0  0  0  0  0  0
  -23.7272  -22.2275   25.5389 C   0  0  0  0  0  0  0  0  0  0  0  0
  -29.3686  -25.4548   19.0670 C   0  0  0  0  0  0  0  0  0  0  0  0
  -27.3145  -24.1846   18.9982 C   0  0  0  0  0  0  0  0  0  0  0  0
  -24.7142  -17.2393   25.1437 C   0  0  0  0  0  0  0  0  0  0  0  0
  -29.2394  -21.8414   20.4931 C   0  0  0  0  0  0  0  0  0  0  0  0
  -28.9345  -20.6408   21.1343 C   0  0  0  0  0  0  0  0  0  0  0  0
  -23.1483  -16.9010   23.3401 C   0  0  0  0  0  0  0  0  0  0  0  0
  -28.3370  -19.6578   19.0097 C   0  0  0  0  0  0  0  0  0  0  0  0
  -27.2685  -26.5242   19.5992 C   0  0  0  0  0  0  0  0  0  0  0  0
  -25.9591  -28.6650   19.1409 C   0  0  0  0  0  0  0  0  0  0  0  0
  -30.2584  -12.2328   20.0592 C   0  0  0  0  0  0  0  0  0  0  0  0
  -24.7273  -15.1538   23.9006 C   0  0  0  0  0  0  0  0  0  0  0  0
  -29.5203  -13.2855   20.6332 C   0  0  0  0  0  0  0  0  0  0  0  0
  -23.6656  -15.6169   23.1103 C   0  0  0  0  0  0  0  0  0  0  0  0
  -21.6923  -23.4820   25.8887 C   0  0  0  0  0  0  0  0  0  0  0  0
  -23.0222  -21.0361   25.7103 C   0  0  0  0  0  0  0  0  0  0  0  0
  -28.6992  -24.2516   18.8437 C   0  0  0  0  0  0  0  0  0  0  0  0
  -23.6712  -17.7080   24.3502 C   0  0  0  0  0  0  0  0  0  0  0  0
  -29.0930  -21.9502   19.1101 C   0  0  0  0  0  0  0  0  0  0  0  0
  -28.4833  -19.5490   20.3926 C   0  0  0  0  0  0  0  0  0  0  0  0
  -28.6419  -20.8584   18.3685 C   0  0  0  0  0  0  0  0  0  0  0  0
  -26.5291  -27.6975   19.9899 C   0  0  0  0  0  0  0  0  0  0  0  0
  -25.3717  -29.5671   19.9938 C   0  0  0  0  0  0  0  0  0  0  0  0
  -25.9604  -28.7413   17.7091 C   0  0  0  0  0  0  0  0  0  0  0  0
  -25.9236  -13.8592   21.2555 C   0  0  0  0  0  0  0  0  0  0  0  0
  -23.0204  -12.4191   21.1139 C   0  0  0  0  0  0  0  0  0  0  0  0
  -19.7221  -12.4562   21.9895 C   0  0  0  0  0  0  0  0  0  0  0  0
  -23.2814  -29.1252   25.5873 C   0  0  0  0  0  0  0  0  0  0  0  0
  -29.7462  -11.4622   18.8682 C   0  0  0  0  0  0  0  0  0  0  0  0
  -25.2853  -13.7725   23.6929 C   0  0  0  0  0  0  0  0  0  0  0  0
  -23.0683  -14.7760   22.0128 C   0  0  0  0  0  0  0  0  0  0  0  0
  -28.2445  -11.6170   18.6425 C   0  0  0  0  0  0  0  0  0  0  0  0
  -25.7865  -31.3639   24.4086 C   0  0  0  0  0  0  0  0  0  0  0  0
  -27.8381  -13.0839   18.7424 C   0  0  0  0  0  0  0  0  0  0  0  0
  -26.2095  -30.7654   23.0659 C   0  0  0  0  0  0  0  0  0  0  0  0
  -18.8885  -26.5270   22.7166 C   0  0  0  0  0  0  0  0  0  0  0  0
  -25.4682  -30.2788   25.4350 C   0  0  0  0  0  0  0  0  0  0  0  0
  -24.9048  -28.6779   23.6480 C   0  0  0  0  0  0  0  0  0  0  0  0
  -19.4922  -28.7524   23.2889 C   0  0  0  0  0  0  0  0  0  0  0  0
  -28.1363  -13.6451   20.1380 C   0  0  1  0  0  0  0  0  0  0  0  0
  -25.0326  -13.2308   22.2894 C   0  0  1  0  0  0  0  0  0  0  0  0
  -20.0108  -27.3253   23.3689 C   0  0  1  0  0  0  0  0  0  0  0  0
  -25.1822  -29.7331   22.5636 C   0  0  2  0  0  0  0  0  0  0  0  0
  -18.5245  -27.3820   21.5097 C   0  0  1  0  0  0  0  0  0  0  0  0
  -17.5907  -11.1652   21.6934 C   0  0  0  0  0  0  0  0  0  0  0  0
  -16.7894  -25.7639   20.6598 C   0  0  0  0  0  0  0  0  0  0  0  0
  -22.7580  -13.5080   18.2757 C   0  0  0  0  0  0  0  0  0  0  0  0
  -20.3049  -13.0210   18.3902 C   0  0  0  0  0  0  0  0  0  0  0  0
  -21.9542  -11.1582   18.5699 C   0  0  0  0  0  0  0  0  0  0  0  0
  -19.4741  -11.9735   24.8989 C   0  0  0  0  0  0  0  0  0  0  0  0
  -20.9822  -24.7898   25.9840 C   0  0  0  0  0  0  0  0  0  0  0  0
  -23.7370  -19.7203   25.6161 C   0  0  0  0  0  0  0  0  0  1  0  0
  -21.1215  -27.9028   25.5939 C   0  0  0  0  0  0  0  0  0  0  0  0
  -21.6840  -12.7652   20.5029 C   0  0  1  0  0  0  0  0  0  0  0  0
  -18.8200  -11.3783   22.5630 C   0  0  2  0  0  0  0  0  0  0  0  0
  -20.3161  -26.8820   24.7932 C   0  0  2  0  0  0  0  0  0  0  0  0
  -17.0961  -27.2080   21.0348 C   0  0  1  0  0  0  0  0  0  0  0  0
  -21.6876  -12.6299   18.9540 C   0  0  0  0  0  0  0  0  0  0  0  0
  -26.3226  -27.9605   21.2831 N   0  0  0  0  0  0  0  0  0  0  0  0
  -25.6163  -29.1034   21.2529 N   0  0  0  0  0  0  0  0  0  0  0  0
  -23.6525  -13.4351   21.8447 N   0  0  0  0  0  0  0  0  0  0  0  0
  -24.4869  -29.3335   24.8972 N   0  0  0  0  0  0  0  0  0  0  0  0
  -24.6750  -30.7039   19.7822 N   0  0  0  0  0  0  0  0  0  0  0  0
  -26.6101  -27.7311   16.9868 N   0  0  0  0  0  0  0  0  0  0  0  0
  -27.1309  -13.2094   21.0834 N   0  0  0  0  0  0  0  0  0  0  0  0
  -20.6984  -11.9244   21.1739 N   0  0  0  0  0  0  0  0  0  0  0  0
  -22.4043  -28.2179   25.0057 N   0  0  0  0  0  0  0  0  0  0  0  0
  -18.7452  -28.7959   21.9852 N   0  3  0  0  0  0  0  0  0  0  0  0
  -18.3676  -11.7557   23.9319 N   0  3  0  0  0  0  0  0  0  0  0  0
  -21.0657  -25.6000   24.7373 N   0  3  0  0  0  0  0  0  0  0  0  0
  -25.4160  -29.6862   17.0892 O   0  0  0  0  0  0  0  0  0  0  0  0
  -25.5432  -14.8587   20.6572 O   0  0  0  0  0  0  0  0  0  0  0  0
  -23.4830  -11.2867   20.9547 O   0  0  0  0  0  0  0  0  0  0  0  0
  -19.5732  -13.6508   22.2372 O   0  0  0  0  0  0  0  0  0  0  0  0
  -23.0047  -29.7090   26.6407 O   0  0  0  0  0  0  0  0  0  0  0  0
  -16.2000  -27.6207   22.0647 O   0  0  0  0  0  0  0  0  0  0  0  0
  -29.3969  -23.1426   18.4749 O   0  0  0  0  0  0  0  0  0  0  0  0
  -23.1585  -18.9505   24.5629 O   0  0  0  0  0  0  0  0  0  1  0  0
  -28.1920  -18.3956   21.0083 F   0  0  0  0  0  0  0  0  0  0  0  0
  -28.5004  -20.9566   17.0395 F   0  0  0  0  0  0  0  0  0  0  0  0
  1  2  1  0  0  0  0
  1  5  2  0  0  0  0
  2  6  2  0  0  0  0
  3 12  2  0  0  0  0
  3 19  1  0  0  0  0
  4 13  1  0  0  0  0
  4 19  2  0  0  0  0
  5 21  1  0  0  0  0
  6 23  1  0  0  0  0
  7 14  2  0  0  0  0
  7 22  1  0  0  0  0
  8 10  2  0  0  0  0
  8 25  1  0  0  0  0
  9 11  1  0  0  0  0
  9 25  2  0  0  0  0
 10 26  1  0  0  0  0
 11 26  2  0  0  0  0
 12 27  1  0  0  0  0
 13 27  2  0  0  0  0
 14 28  1  0  0  0  0
 15 16  2  0  0  0  0
 15 29  1  0  0  0  0
 16 30  1  0  0  0  0
 17 24  1  0  0  0  0
 17 28  2  0  0  0  0
 18 30  2  0  0  0  0
 18 31  1  0  0  0  0
 19 32  1  0  0  0  0
 20 32  1  0  0  0  0
 20 33  2  0  0  0  0
 20 34  1  0  0  0  0
 21 23  2  0  0  0  0
 21 39  1  0  0  0  0
 22 24  2  0  0  0  0
 22 40  1  0  0  0  0
 23 50  1  0  0  0  0
 24 41  1  0  0  0  0
 25 61  1  0  0  0  0
 26 62  1  0  0  0  0
 27 87  1  0  0  0  0
 28 88  1  0  0  0  0
 29 31  2  0  0  0  0
 29 87  1  0  0  0  0
 30 89  1  0  0  0  0
 31 90  1  0  0  0  0
 32 69  2  0  0  0  0
 33 70  1  0  0  0  0
 33 73  1  0  0  0  0
 34 74  1  0  0  0  0
 34 81  2  0  0  0  0
 35 51  1  0  0  0  0
 35 75  1  0  0  0  0
 35 82  2  0  0  0  0
 36 64  1  0  0  0  0
 36 71  1  0  0  0  0
 36 83  2  0  0  0  0
 37 65  1  0  0  0  0
 37 76  1  0  0  0  0
 37 84  2  0  0  0  0
 38 72  1  0  0  0  0
 38 77  1  0  0  0  0
 38 85  2  0  0  0  0
 39 42  1  0  0  0  0
 40 51  1  0  0  0  0
 41 71  1  0  0  0  0
 42 44  1  0  0  0  0
 43 45  1  0  0  0  0
 43 47  1  0  0  0  0
 44 50  1  0  0  0  0
 45 53  1  0  0  0  0
 46 52  1  0  0  0  0
 46 54  1  0  0  0  0
 47 72  1  0  0  0  0
 48 53  1  0  0  0  0
 48 72  1  0  0  0  0
 49 52  1  0  0  0  0
 49 78  1  0  0  0  0
 50 75  1  0  0  0  0
 51 71  1  0  0  0  0
 52 66  1  0  0  0  0
 53 70  1  0  0  0  0
 54 67  1  0  0  0  0
 54 78  1  0  0  0  0
 55 65  1  0  0  0  0
 56 67  1  0  0  0  0
 57 68  1  0  0  0  0
 58 68  1  0  0  0  0
 59 68  1  0  0  0  0
 60 79  1  0  0  0  0
 61 80  1  0  0  0  0
 62 88  1  0  0  0  0
 63 66  1  0  0  0  0
 63 77  1  0  0  0  0
 64 68  1  0  0  0  0
 64 76  1  0  0  0  0
 65 79  1  0  0  0  0
 66 80  1  0  0  0  0
 67 86  1  0  0  0  0
 69 70  1  0  0  0  0
M  CHG  3  78   1  79   1  80   1
M  ISO  4  38 100  62 101  77 100  88 101
M  END
> <Batch ID>
0126

> <Smiles>
CNC(C)C(=O)NC(C(=O)N1Cc2cc([101O:1][101CH2:1]c3ccc(CNC(C[100NH:0][100C:0](=O)N4CCCC(n5nc(-c6ccc(Oc7ccc(F)cc7F)cc6)c(C(N)=O)c5N)C4)C4CNC(C(C)O)C4)cc3)ccc2CC1C(=O)NC1CCCc2ccccc21)C(C)(C)C

> <Shape>
0.257

> <Color>
0.076

> <Negative vol penalty>
0.000

$$$$

  -OEChem-04052320383D

 82 90  0     1  0  0  0  0  0999 V2000
  -27.1769  -30.7069   28.1174 C   0  0  0  0  0  0  0  0  0  0  0  0
  -27.4013  -29.7976   27.0886 C   0  0  0  0  0  0  0  0  0  0  0  0
  -24.4058   -9.9048   21.2773 C   0  0  0  0  0  0  0  0  0  0  0  0
  -24.8989  -10.8635   23.4395 C   0  0  0  0  0  0  0  0  0  0  0  0
  -25.8942  -31.2073   28.3364 C   0  0  0  0  0  0  0  0  0  0  0  0
  -26.3426  -29.3875   26.2789 C   0  0  0  0  0  0  0  0  0  0  0  0
  -27.5550  -29.3595   21.3622 C   0  0  0  0  0  0  0  0  0  0  0  0
  -24.0968   -8.6889   21.8869 C   0  0  0  0  0  0  0  0  0  0  0  0
  -24.5899   -9.6475   24.0490 C   0  0  0  0  0  0  0  0  0  0  0  0
  -28.3150  -28.2860   20.8999 C   0  0  0  0  0  0  0  0  0  0  0  0
  -22.8308   -5.4373   22.9064 C   0  0  0  0  0  0  0  0  0  0  0  0
  -21.6771   -4.7757   22.4858 C   0  0  0  0  0  0  0  0  0  0  0  0
  -26.3156  -27.2514   20.0333 C   0  0  0  0  0  0  0  0  0  0  0  0
  -27.6858  -21.5695   21.3735 C   0  0  0  0  0  0  0  0  0  0  0  0
  -20.3434   -6.6757   23.1556 C   0  0  0  0  0  0  0  0  0  0  0  0
  -29.7924  -20.1900   20.3223 C   0  0  0  0  0  0  0  0  0  0  0  0
  -24.8069  -10.9921   22.0536 C   0  0  0  0  0  0  0  0  0  0  0  0
  -24.2454  -13.3123   21.1539 C   0  0  0  0  0  0  0  0  0  0  0  0
  -24.8211  -30.8105   27.5229 C   0  0  0  0  0  0  0  0  0  0  0  0
  -26.1657  -29.3819   21.1728 C   0  0  0  0  0  0  0  0  0  0  0  0
  -25.0441  -29.8821   26.4882 C   0  0  0  0  0  0  0  0  0  0  0  0
  -25.5405  -28.3275   20.4919 C   0  0  0  0  0  0  0  0  0  0  0  0
  -27.6513  -20.1795   21.3578 C   0  0  0  0  0  0  0  0  0  0  0  0
  -28.7207  -19.4691   20.8239 C   0  0  0  0  0  0  0  0  0  0  0  0
  -24.1888   -8.5602   23.2727 C   0  0  0  0  0  0  0  0  0  0  0  0
  -27.6950  -27.2303   20.2379 C   0  0  0  0  0  0  0  0  0  0  0  0
  -22.7408   -6.7180   23.4516 C   0  0  0  0  0  0  0  0  0  0  0  0
  -20.4334   -5.3949   22.6104 C   0  0  0  0  0  0  0  0  0  0  0  0
  -21.4971   -7.3372   23.5762 C   0  0  0  0  0  0  0  0  0  0  0  0
  -25.1267  -12.2483   21.4244 C   0  0  0  0  0  0  0  0  0  0  0  0
  -28.8039  -22.1963   20.8474 C   0  0  0  0  0  0  0  0  0  0  0  0
  -25.0316  -14.2649   20.5532 C   0  0  0  0  0  0  0  0  0  0  0  0
  -22.8418  -13.4290   21.4218 C   0  0  0  0  0  0  0  0  0  0  0  0
  -23.6393  -29.4251   23.1013 C   0  0  0  0  0  0  0  0  0  0  0  0
  -22.0108  -29.7904   20.3198 C   0  0  0  0  0  0  0  0  0  0  0  0
  -21.9186  -29.3488   16.9370 C   0  0  0  0  0  0  0  0  0  0  0  0
  -29.7363  -17.2299   20.2753 C   0  0  0  0  0  0  0  0  0  0  0  0
  -23.4433  -31.3426   27.8281 C   0  0  0  0  0  0  0  0  0  0  0  0
  -25.3636  -30.5598   21.6539 C   0  0  0  0  0  0  0  0  0  0  0  0
  -24.0548  -28.3132   20.2452 C   0  0  0  0  0  0  0  0  0  0  0  0
  -22.4474  -31.1438   26.6884 C   0  0  0  0  0  0  0  0  0  0  0  0
  -29.7691  -13.9936   18.7913 C   0  0  0  0  0  0  0  0  0  0  0  0
  -22.5335  -29.7206   26.1463 C   0  0  0  0  0  0  0  0  0  0  0  0
  -28.4917  -13.3386   19.3218 C   0  0  0  0  0  0  0  0  0  0  0  0
  -30.4294  -14.8830   19.8433 C   0  0  0  0  0  0  0  0  0  0  0  0
  -28.2705  -15.2361   20.9764 C   0  0  0  0  0  0  0  0  0  0  0  0
  -23.9262  -29.4320   25.5729 C   0  0  1  0  0  0  0  0  0  0  0  0
  -23.8876  -30.2337   21.8595 C   0  0  1  0  0  0  0  0  0  0  0  0
  -27.5347  -14.3818   19.9312 C   0  0  2  0  0  0  0  0  0  0  0  0
  -25.5295  -18.9527   20.8293 C   0  0  0  0  0  0  0  0  0  0  0  0
  -20.4400  -29.7129   14.9425 C   0  0  0  0  0  0  0  0  0  0  0  0
  -20.3110  -27.3949   21.1458 C   0  0  0  0  0  0  0  0  0  0  0  0
  -19.5293  -27.2201   18.7737 C   0  0  0  0  0  0  0  0  0  0  0  0
  -19.0305  -29.2722   20.1014 C   0  0  0  0  0  0  0  0  0  0  0  0
  -23.8898  -31.1486   15.6587 C   0  0  0  0  0  0  0  0  0  0  0  0
  -26.4593  -19.4766   21.9196 C   0  0  0  0  0  0  0  0  0  0  0  0
  -29.9177  -24.3749   20.3589 C   0  0  0  0  0  0  0  0  0  0  0  0
  -29.6150  -25.8554   20.5187 C   0  0  0  0  0  0  0  0  0  1  0  0
  -21.3948  -28.8520   19.3104 C   0  0  1  0  0  0  0  0  0  0  0  0
  -21.5479  -30.2930   15.8077 C   0  0  2  0  0  0  0  0  0  0  0  0
  -20.0942  -28.1838   19.8390 C   0  0  0  0  0  0  0  0  0  0  0  0
  -29.8618  -21.5401   20.3203 N   0  0  0  0  0  0  0  0  0  0  0  0
  -26.3769  -12.5008   21.0279 N   0  0  0  0  0  0  0  0  0  0  0  0
  -26.2869  -13.7342   20.5021 N   0  0  0  0  0  0  0  0  0  0  0  0
  -23.3130  -29.4846   20.7402 N   0  0  0  0  0  0  0  0  0  0  0  0
  -29.4641  -15.8489   20.3727 N   0  0  0  0  0  0  0  0  0  0  0  0
  -24.7645  -15.4964   20.0689 N   0  0  0  0  0  0  0  0  0  0  0  0
  -22.1891  -12.3568   22.0452 N   0  0  0  0  0  0  0  0  0  0  0  0
  -28.7315  -18.0528   20.7832 N   0  0  0  0  0  0  0  0  0  0  0  0
  -28.8236  -23.5810   20.8695 N   0  0  0  0  0  0  0  0  0  0  0  0
  -24.0689  -30.0345   24.2648 N   0  0  0  0  0  0  0  0  0  0  0  0
  -21.2137  -29.6283   18.0886 N   0  0  0  0  0  0  0  0  0  0  0  0
  -22.7322  -30.5549   14.9416 N   0  3  0  0  0  0  0  0  0  0  0  0
  -22.1823  -14.4472   21.1025 O   0  0  0  0  0  0  0  0  0  0  0  0
  -23.0969  -28.3300   23.0108 O   0  0  0  0  0  0  0  0  0  0  0  0
  -21.3633  -30.7630   20.7152 O   0  0  0  0  0  0  0  0  0  0  0  0
  -22.7477  -28.4505   16.8092 O   0  0  0  0  0  0  0  0  0  0  0  0
  -30.7713  -17.6522   19.7534 O   0  0  0  0  0  0  0  0  0  0  0  0
  -23.8872   -7.3739   23.8679 O   0  0  0  0  0  0  0  0  0  0  0  0
  -28.4344  -26.1810   19.7862 O   0  0  0  0  0  0  0  0  0  1  0  0
  -19.3257   -4.7600   22.2051 F   0  0  0  0  0  0  0  0  0  0  0  0
  -21.4045   -8.5680   24.0981 F   0  0  0  0  0  0  0  0  0  0  0  0
  1  2  1  0  0  0  0
  1  5  2  0  0  0  0
  2  6  2  0  0  0  0
  3  8  2  0  0  0  0
  3 17  1  0  0  0  0
  4  9  1  0  0  0  0
  4 17  2  0  0  0  0
  5 19  1  0  0  0  0
  6 21  1  0  0  0  0
  7 10  2  0  0  0  0
  7 20  1  0  0  0  0
  8 25  1  0  0  0  0
  9 25  2  0  0  0  0
 10 26  1  0  0  0  0
 11 12  2  0  0  0  0
 11 27  1  0  0  0  0
 12 28  1  0  0  0  0
 13 22  1  0  0  0  0
 13 26  2  0  0  0  0
 14 23  1  0  0  0  0
 14 31  2  0  0  0  0
 15 28  2  0  0  0  0
 15 29  1  0  0  0  0
 16 24  1  0  0  0  0
 16 62  2  0  0  0  0
 17 30  1  0  0  0  0
 18 30  1  0  0  0  0
 18 32  2  0  0  0  0
 18 33  1  0  0  0  0
 19 21  2  0  0  0  0
 19 38  1  0  0  0  0
 20 22  2  0  0  0  0
 20 39  1  0  0  0  0
 21 47  1  0  0  0  0
 22 40  1  0  0  0  0
 23 24  2  0  0  0  0
 23 56  1  0  0  0  0
 24 69  1  0  0  0  0
 25 79  1  0  0  0  0
 26 80  1  0  0  0  0
 27 29  2  0  0  0  0
 27 79  1  0  0  0  0
 28 81  1  0  0  0  0
 29 82  1  0  0  0  0
 30 63  2  0  0  0  0
 31 62  1  0  0  0  0
 31 70  1  0  0  0  0
 32 64  1  0  0  0  0
 32 67  1  0  0  0  0
 33 68  1  0  0  0  0
 33 74  2  0  0  0  0
 34 48  1  0  0  0  0
 34 71  1  0  0  0  0
 34 75  2  0  0  0  0
 35 59  1  0  0  0  0
 35 65  1  0  0  0  0
 35 76  2  0  0  0  0
 36 60  1  0  0  0  0
 36 72  1  0  0  0  0
 36 77  2  0  0  0  0
 37 66  1  0  0  0  0
 37 69  1  0  0  0  0
 37 78  2  0  0  0  0
 38 41  1  0  0  0  0
 39 48  1  0  0  0  0
 40 65  1  0  0  0  0
 41 43  1  0  0  0  0
 42 44  1  0  0  0  0
 42 45  1  0  0  0  0
 43 47  1  0  0  0  0
 44 49  1  0  0  0  0
 45 66  1  0  0  0  0
 46 49  1  0  0  0  0
 46 66  1  0  0  0  0
 47 71  1  0  0  0  0
 48 65  1  0  0  0  0
 49 64  1  0  0  0  0
 50 56  1  0  0  0  0
 51 60  1  0  0  0  0
 52 61  1  0  0  0  0
 53 61  1  0  0  0  0
 54 61  1  0  0  0  0
 55 73  1  0  0  0  0
 57 58  1  0  0  0  0
 57 70  1  0  0  0  0
 58 80  1  0  0  0  0
 59 61  1  0  0  0  0
 59 72  1  0  0  0  0
 60 73  1  0  0  0  0
 63 64  1  0  0  0  0
M  CHG  1  73   1
M  ISO  4  37 100  58 101  69 100  80 101
M  END
> <Batch ID>
0126

> <Smiles>
CCc1cc(NC[101CH2:1][101O:1]c2ccc3c(c2)CN(C(=O)C(NC(=O)C(C)NC)C(C)(C)C)C(C(=O)NC2CCCc4ccccc42)C3)ncc1[100NH:0][100C:0](=O)N1CCCC(n2nc(-c3ccc(Oc4ccc(F)cc4F)cc3)c(C(N)=O)c2N)C1

> <Shape>
0.304

> <Color>
0.147

> <Negative vol penalty>
0.000

$$$$

  -OEChem-04052320383D

 94103  0     1  0  0  0  0  0999 V2000
  -29.1115  -34.7641   26.5120 C   0  0  0  0  0  0  0  0  0  0  0  0
  -29.3601  -34.6179   25.1510 C   0  0  0  0  0  0  0  0  0  0  0  0
  -23.2837  -15.1257   21.8407 C   0  0  0  0  0  0  0  0  0  0  0  0
  -23.7507  -15.7160   19.5450 C   0  0  0  0  0  0  0  0  0  0  0  0
  -28.5006  -33.7319   27.2227 C   0  0  0  0  0  0  0  0  0  0  0  0
  -28.9988  -33.4387   24.5002 C   0  0  0  0  0  0  0  0  0  0  0  0
  -25.9241  -29.2813   18.4472 C   0  0  0  0  0  0  0  0  0  0  0  0
  -22.5264  -16.2880   21.9856 C   0  0  0  0  0  0  0  0  0  0  0  0
  -22.9933  -16.8784   19.6898 C   0  0  0  0  0  0  0  0  0  0  0  0
  -25.8348  -27.9754   17.9671 C   0  0  0  0  0  0  0  0  0  0  0  0
  -23.3861  -19.9566   21.0319 C   0  0  0  0  0  0  0  0  0  0  0  0
  -23.9175  -21.1435   20.5273 C   0  0  0  0  0  0  0  0  0  0  0  0
  -24.6699  -27.3229   19.9762 C   0  0  0  0  0  0  0  0  0  0  0  0
  -22.0144  -21.3704   19.0565 C   0  0  0  0  0  0  0  0  0  0  0  0
  -23.8959  -14.8397   20.6204 C   0  0  0  0  0  0  0  0  0  0  0  0
  -24.2385  -12.3118   20.6295 C   0  0  0  0  0  0  0  0  0  0  0  0
  -28.1228  -32.5434   26.5783 C   0  0  0  0  0  0  0  0  0  0  0  0
  -25.3958  -29.6159   19.7023 C   0  0  0  0  0  0  0  0  0  0  0  0
  -28.3834  -32.3891   25.2033 C   0  0  0  0  0  0  0  0  0  0  0  0
  -24.7516  -28.6343   20.4688 C   0  0  0  0  0  0  0  0  0  0  0  0
  -22.3812  -17.1644   20.9102 C   0  0  0  0  0  0  0  0  0  0  0  0
  -25.2102  -26.9954   18.7329 C   0  0  0  0  0  0  0  0  0  0  0  0
  -22.1688  -19.4766   20.5486 C   0  0  0  0  0  0  0  0  0  0  0  0
  -23.2317  -21.8504   19.5397 C   0  0  0  0  0  0  0  0  0  0  0  0
  -21.4829  -20.1835   19.5610 C   0  0  0  0  0  0  0  0  0  0  0  0
  -24.6788  -13.6394   20.4703 C   0  0  0  0  0  0  0  0  0  0  0  0
  -25.3527  -11.5483   20.3804 C   0  0  0  0  0  0  0  0  0  0  0  0
  -22.9385  -11.8133   20.9719 C   0  0  0  0  0  0  0  0  0  0  0  0
  -26.6090  -30.7207   22.4247 C   0  0  0  0  0  0  0  0  0  0  0  0
  -23.4890  -30.8764   23.2986 C   0  0  0  0  0  0  0  0  0  0  0  0
  -20.5466  -28.8202   22.9347 C   0  0  0  0  0  0  0  0  0  0  0  0
  -28.8934  -15.5237   18.9627 C   0  0  0  0  0  0  0  0  0  0  0  0
  -27.5081  -31.4368   27.3983 C   0  0  0  0  0  0  0  0  0  0  0  0
  -25.4767  -31.0350   20.1942 C   0  0  0  0  0  0  0  0  0  0  0  0
  -24.1501  -28.9466   21.8139 C   0  0  0  0  0  0  0  0  0  0  0  0
  -26.8164  -30.3674   26.5567 C   0  0  0  0  0  0  0  0  0  0  0  0
  -30.0965  -12.3580   20.7814 C   0  0  0  0  0  0  0  0  0  0  0  0
  -27.7046  -29.9497   25.3890 C   0  0  0  0  0  0  0  0  0  0  0  0
  -28.6549  -11.9261   21.0195 C   0  0  0  0  0  0  0  0  0  0  0  0
  -26.7428  -20.9707   17.7378 C   0  0  0  0  0  0  0  0  0  0  0  0
  -28.9550  -22.0098   18.3475 C   0  0  0  0  0  0  0  0  0  0  0  0
  -30.1476  -13.8286   20.3767 C   0  0  0  0  0  0  0  0  0  0  0  0
  -30.3176  -18.2004   23.4526 C   0  0  0  0  0  0  0  0  0  0  0  0
  -28.4029  -13.1021   18.7438 C   0  0  0  0  0  0  0  0  0  0  0  0
  -28.2426  -17.1541   22.7655 C   0  0  0  0  0  0  0  0  0  0  0  0
  -27.2076  -19.6481   18.3317 C   0  0  0  0  0  0  0  0  0  0  0  0
  -29.4085  -20.6817   18.9381 C   0  0  0  0  0  0  0  0  0  0  0  0
  -30.7102  -16.9695   24.2598 C   0  0  0  0  0  0  0  0  0  0  0  0
  -27.9837  -31.1349   24.4568 C   0  0  1  0  0  0  0  0  0  0  0  0
  -25.3582  -31.1494   21.7109 C   0  0  1  0  0  0  0  0  0  0  0  0
  -27.9207  -21.8123   17.2331 C   0  0  0  0  0  0  0  0  0  0  0  0
  -27.7963  -12.1039   19.7514 C   0  0  2  0  0  0  0  0  0  0  0  0
  -28.5808  -15.8834   23.5519 C   0  0  2  0  0  0  0  0  0  0  0  0
  -18.1163  -29.4436   22.8876 C   0  0  0  0  0  0  0  0  0  0  0  0
  -26.9463  -22.9967   15.2582 C   0  0  0  0  0  0  0  0  0  0  0  0
  -23.5740  -30.2718   26.2881 C   0  0  0  0  0  0  0  0  0  0  0  0
  -21.2943  -29.2585   26.0772 C   0  0  0  0  0  0  0  0  0  0  0  0
  -21.6355  -31.6754   25.5623 C   0  0  0  0  0  0  0  0  0  0  0  0
  -26.6814  -12.1167   26.2435 C   0  0  0  0  0  0  0  0  0  0  0  0
  -20.1358  -27.4864   20.3249 C   0  0  0  0  0  0  0  0  0  0  0  0
  -27.3380  -15.2077   24.1130 C   0  0  0  0  0  0  0  0  0  0  0  0
  -26.3186  -23.7633   17.5647 C   0  0  0  0  0  0  0  0  0  0  0  0
  -29.1257  -19.0251   21.5275 C   0  0  0  0  0  0  0  0  0  0  0  0
  -29.5954  -17.8887   19.2469 C   0  0  0  0  0  0  0  0  0  0  0  0
  -27.7028  -13.9737   24.9218 C   0  0  0  0  0  0  0  0  0  0  0  0
  -26.1650  -25.2707   17.4025 C   0  0  0  0  0  0  0  0  0  1  0  0
  -22.5150  -29.9302   23.9583 C   0  0  1  0  0  0  0  0  0  0  0  0
  -19.3427  -29.1042   22.0548 C   0  0  2  0  0  0  0  0  0  0  0  0
  -27.4355  -23.1583   16.6991 C   0  0  1  0  0  0  0  0  0  0  0  0
  -28.6068  -18.6478   20.1361 C   0  0  2  0  0  0  0  0  0  0  0  0
  -22.2763  -30.2744   25.4556 C   0  0  0  0  0  0  0  0  0  0  0  0
  -25.9719  -13.7183   20.1453 N   0  0  0  0  0  0  0  0  0  0  0  0
  -26.3538  -12.4307   20.0984 N   0  0  0  0  0  0  0  0  0  0  0  0
  -24.2603  -30.3472   22.2541 N   0  0  0  0  0  0  0  0  0  0  0  0
  -29.1295  -14.2002   19.3845 N   0  0  0  0  0  0  0  0  0  0  0  0
  -29.4633  -17.8384   22.3128 N   0  0  1  0  0  0  0  0  0  0  0  0
  -25.5640  -10.2150   20.3773 N   0  0  0  0  0  0  0  0  0  0  0  0
  -22.0352  -11.5364   19.9367 N   0  0  0  0  0  0  0  0  0  0  0  0
  -26.8385  -31.3925   23.6102 N   0  0  0  0  0  0  0  0  0  0  0  0
  -21.3072  -29.9518   23.1403 N   0  0  0  0  0  0  0  0  0  0  0  0
  -29.7053  -16.4828   19.5625 N   0  0  0  0  0  0  0  0  0  0  0  0
  -29.4735  -16.2578   24.6970 N   0  3  0  0  0  0  0  0  0  0  0  0
  -28.2059  -19.9148   19.4320 N   0  3  0  0  0  0  0  0  0  0  0  0
  -26.4595  -13.3278   25.4065 N   0  3  0  0  0  0  0  0  0  0  0  0
  -19.0249  -27.9164   21.2126 N   0  3  0  0  0  0  0  0  0  0  0  0
  -22.5826  -11.6347   22.1614 O   0  0  0  0  0  0  0  0  0  0  0  0
  -27.3128  -29.8442   21.9368 O   0  0  0  0  0  0  0  0  0  0  0  0
  -23.5576  -32.0439   23.6906 O   0  0  0  0  0  0  0  0  0  0  0  0
  -20.7862  -27.7068   23.3967 O   0  0  0  0  0  0  0  0  0  0  0  0
  -28.0343  -15.8227   18.1278 O   0  0  0  0  0  0  0  0  0  0  0  0
  -21.6421  -18.2986   21.0511 O   0  0  0  0  0  0  0  0  0  0  0  0
  -25.1222  -25.7198   18.2669 O   0  0  0  0  0  0  0  0  0  1  0  0
  -23.7414  -22.9909   19.0564 F   0  0  0  0  0  0  0  0  0  0  0  0
  -20.3125  -19.7280   19.0937 F   0  0  0  0  0  0  0  0  0  0  0  0
  1  2  1  0  0  0  0
  1  5  2  0  0  0  0
  2  6  2  0  0  0  0
  3  8  2  0  0  0  0
  3 15  1  0  0  0  0
  4  9  1  0  0  0  0
  4 15  2  0  0  0  0
  5 17  1  0  0  0  0
  6 19  1  0  0  0  0
  7 10  2  0  0  0  0
  7 18  1  0  0  0  0
  8 21  1  0  0  0  0
  9 21  2  0  0  0  0
 10 22  1  0  0  0  0
 11 12  2  0  0  0  0
 11 23  1  0  0  0  0
 12 24  1  0  0  0  0
 13 20  1  0  0  0  0
 13 22  2  0  0  0  0
 14 24  2  0  0  0  0
 14 25  1  0  0  0  0
 15 26  1  0  0  0  0
 16 26  1  0  0  0  0
 16 27  2  0  0  0  0
 16 28  1  0  0  0  0
 17 19  2  0  0  0  0
 17 33  1  0  0  0  0
 18 20  2  0  0  0  0
 18 34  1  0  0  0  0
 19 49  1  0  0  0  0
 20 35  1  0  0  0  0
 21 91  1  0  0  0  0
 22 92  1  0  0  0  0
 23 25  2  0  0  0  0
 23 91  1  0  0  0  0
 24 93  1  0  0  0  0
 25 94  1  0  0  0  0
 26 72  2  0  0  0  0
 27 73  1  0  0  0  0
 27 77  1  0  0  0  0
 28 78  1  0  0  0  0
 28 86  2  0  0  0  0
 29 50  1  0  0  0  0
 29 79  1  0  0  0  0
 29 87  2  0  0  0  0
 30 67  1  0  0  0  0
 30 74  1  0  0  0  0
 30 88  2  0  0  0  0
 31 68  1  0  0  0  0
 31 80  1  0  0  0  0
 31 89  2  0  0  0  0
 32 75  1  0  0  0  0
 32 81  1  0  0  0  0
 32 90  2  0  0  0  0
 33 36  1  0  0  0  0
 34 50  1  0  0  0  0
 35 74  1  0  0  0  0
 36 38  1  0  0  0  0
 37 39  1  0  0  0  0
 37 42  1  0  0  0  0
 38 49  1  0  0  0  0
 39 52  1  0  0  0  0
 40 46  1  0  0  0  0
 40 51  1  0  0  0  0
 41 47  1  0  0  0  0
 41 51  1  0  0  0  0
 42 75  1  0  0  0  0
 43 48  1  0  0  0  0
 43 76  1  0  0  0  0
 44 52  1  0  0  0  0
 44 75  1  0  0  0  0
 45 53  1  0  0  0  0
 45 76  1  0  0  0  0
 46 83  1  0  0  0  0
 47 83  1  0  0  0  0
 48 82  1  0  0  0  0
 49 79  1  0  0  0  0
 50 74  1  0  0  0  0
 51 69  1  0  0  0  0
 52 73  1  0  0  0  0
 53 61  1  0  0  0  0
 53 82  1  0  0  0  0
 54 68  1  0  0  0  0
 55 69  1  0  0  0  0
 56 71  1  0  0  0  0
 57 71  1  0  0  0  0
 58 71  1  0  0  0  0
 59 84  1  0  0  0  0
 60 85  1  0  0  0  0
 61 65  1  0  0  0  0
 62 66  1  0  0  0  0
 62 69  1  0  0  0  0
 63 70  1  0  0  0  0
 63 76  1  0  0  0  0
 64 70  1  0  0  0  0
 64 81  1  0  0  0  0
 65 84  1  0  0  0  0
 66 92  1  0  0  0  0
 67 71  1  0  0  0  0
 67 80  1  0  0  0  0
 68 85  1  0  0  0  0
 70 83  1  0  0  0  0
 72 73  1  0  0  0  0
M  CHG  4  82   1  83   1  84   1  85   1
M  ISO  4  32 100  66 101  81 100  92 101
M  END
> <Batch ID>
0126

> <Smiles>
CNCCC1CN(CC(C[100NH:0][100C:0](=O)N2CCCC(n3nc(-c4ccc(Oc5ccc(F)cc5F)cc4)c(C(N)=O)c3N)C2)N2CCC(C(C)C[101CH2:1][101O:1]c3ccc4c(c3)CN(C(=O)C(NC(=O)C(C)NC)C(C)(C)C)C(C(=O)NC3CCCc5ccccc53)C4)CC2)CCN1

> <Shape>
0.286

> <Color>
0.076

> <Negative vol penalty>
0.000

$$$$

  -OEChem-04052320383D

 86 95  0     1  0  0  0  0  0999 V2000
  -18.5123  -24.9735   23.3649 C   0  0  0  0  0  0  0  0  0  0  0  0
  -19.8437  -24.7749   23.0138 C   0  0  0  0  0  0  0  0  0  0  0  0
  -26.9192  -14.7741   21.4708 C   0  0  0  0  0  0  0  0  0  0  0  0
  -26.2242  -15.1954   19.1956 C   0  0  0  0  0  0  0  0  0  0  0  0
  -17.9304  -26.2304   23.2052 C   0  0  0  0  0  0  0  0  0  0  0  0
  -20.5938  -25.8330   22.5018 C   0  0  0  0  0  0  0  0  0  0  0  0
  -26.5593  -26.8892   23.3977 C   0  0  0  0  0  0  0  0  0  0  0  0
  -26.5828  -13.4284   21.3244 C   0  0  0  0  0  0  0  0  0  0  0  0
  -25.8878  -13.8497   19.0491 C   0  0  0  0  0  0  0  0  0  0  0  0
  -27.6863  -26.6204   22.6222 C   0  0  0  0  0  0  0  0  0  0  0  0
  -25.5698   -9.9525   21.6646 C   0  0  0  0  0  0  0  0  0  0  0  0
  -24.8562   -9.3447   22.6975 C   0  0  0  0  0  0  0  0  0  0  0  0
  -27.6074  -28.8643   21.7404 C   0  0  0  0  0  0  0  0  0  0  0  0
  -23.0622  -10.9341   22.3933 C   0  0  0  0  0  0  0  0  0  0  0  0
  -28.6810  -26.4702   16.1834 C   0  0  0  0  0  0  0  0  0  0  0  0
  -26.7398  -15.6577   20.4064 C   0  0  0  0  0  0  0  0  0  0  0  0
  -28.3314  -17.6478   20.2878 C   0  0  0  0  0  0  0  0  0  0  0  0
  -18.6765  -27.3068   22.7000 C   0  0  0  0  0  0  0  0  0  0  0  0
  -25.9404  -28.1463   23.3420 C   0  0  0  0  0  0  0  0  0  0  0  0
  -20.0210  -27.1052   22.3339 C   0  0  0  0  0  0  0  0  0  0  0  0
  -26.4742  -29.1474   22.5181 C   0  0  0  0  0  0  0  0  0  0  0  0
  -27.0984  -25.6450   17.7553 C   0  0  0  0  0  0  0  0  0  0  0  0
  -28.4105  -25.9950   17.4565 C   0  0  0  0  0  0  0  0  0  0  0  0
  -26.0672  -12.9661   20.1136 C   0  0  0  0  0  0  0  0  0  0  0  0
  -28.2088  -27.6071   21.7912 C   0  0  0  0  0  0  0  0  0  0  0  0
  -25.0297  -11.0512   20.9960 C   0  0  0  0  0  0  0  0  0  0  0  0
  -26.1110  -25.7789   16.7856 C   0  0  0  0  0  0  0  0  0  0  0  0
  -23.6024   -9.8355   23.0619 C   0  0  0  0  0  0  0  0  0  0  0  0
  -23.7759  -11.5419   21.3604 C   0  0  0  0  0  0  0  0  0  0  0  0
  -27.0866  -17.0480   20.5572 C   0  0  0  0  0  0  0  0  0  0  0  0
  -26.4845  -26.2640   15.5426 C   0  0  0  0  0  0  0  0  0  0  0  0
  -28.1456  -18.9748   20.5894 C   0  0  0  0  0  0  0  0  0  0  0  0
  -29.5469  -17.0581   19.8078 C   0  0  0  0  0  0  0  0  0  0  0  0
  -25.0073  -23.5962   20.2600 C   0  0  0  0  0  0  0  0  0  0  0  0
  -23.0647  -29.1947   22.4848 C   0  0  0  0  0  0  0  0  0  0  0  0
  -24.1963  -32.0262   23.5914 C   0  0  0  0  0  0  0  0  0  0  0  0
  -26.8964  -33.9905   24.2969 C   0  0  0  0  0  0  0  0  0  0  0  0
  -17.9908  -28.6353   22.5009 C   0  0  0  0  0  0  0  0  0  0  0  0
  -24.7413  -28.4290   24.2049 C   0  0  0  0  0  0  0  0  0  0  0  0
  -25.8590  -30.5198   22.4375 C   0  0  0  0  0  0  0  0  0  0  0  0
  -18.9604  -29.7976   22.3027 C   0  0  0  0  0  0  0  0  0  0  0  0
  -24.3544  -21.3236   22.9601 C   0  0  0  0  0  0  0  0  0  0  0  0
  -20.0447  -29.4227   21.2975 C   0  0  0  0  0  0  0  0  0  0  0  0
  -25.0821  -20.0478   22.5378 C   0  0  0  0  0  0  0  0  0  0  0  0
  -27.4971  -23.9412   19.6561 C   0  0  0  0  0  0  0  0  0  0  0  0
  -23.7730  -22.0590   21.7568 C   0  0  0  0  0  0  0  0  0  0  0  0
  -25.5091  -21.1027   20.2728 C   0  0  0  0  0  0  0  0  0  0  0  0
  -26.7480  -25.1260   19.1128 C   0  0  2  0  0  0  0  0  0  0  0  0
  -20.8744  -28.2344   21.7984 C   0  0  1  0  0  0  0  0  0  0  0  0
  -26.0687  -23.7810   19.2240 C   0  0  2  0  0  0  0  0  0  0  0  0
  -23.8869  -29.5797   23.6821 C   0  0  1  0  0  0  0  0  0  0  0  0
  -26.1360  -20.3450   21.4564 C   0  0  2  0  0  0  0  0  0  0  0  0
  -27.5045  -36.2690   25.1548 C   0  0  0  0  0  0  0  0  0  0  0  0
  -31.6350  -26.9250   19.3308 C   0  0  0  0  0  0  0  0  0  0  0  0
  -23.4305  -33.2415   20.8995 C   0  0  0  0  0  0  0  0  0  0  0  0
  -24.8882  -35.2016   21.4484 C   0  0  0  0  0  0  0  0  0  0  0  0
  -22.9121  -34.6797   22.8787 C   0  0  0  0  0  0  0  0  0  0  0  0
  -28.3563  -32.8578   26.6087 C   0  0  0  0  0  0  0  0  0  0  0  0
  -23.9783  -26.4685   17.5804 C   0  0  0  0  0  0  0  0  0  0  0  0
  -29.5240  -25.8710   18.4679 C   0  0  0  0  0  0  0  0  0  0  0  0
  -29.4224  -28.0453   19.7934 C   0  0  0  0  0  0  0  0  0  1  0  0
  -24.9494  -33.1864   22.9866 C   0  0  1  0  0  0  0  0  0  0  0  0
  -27.2496  -34.8153   25.5214 C   0  0  2  0  0  0  0  0  0  0  0  0
  -30.2265  -27.2049   18.7912 C   0  0  1  0  0  0  0  0  0  0  0  0
  -24.0557  -34.0509   22.0531 C   0  0  0  0  0  0  0  0  0  0  0  0
  -27.7485  -26.6143   15.2153 N   0  0  0  0  0  0  0  0  0  0  0  0
  -26.1773  -17.9223   20.9964 N   0  0  0  0  0  0  0  0  0  0  0  0
  -26.8513  -19.0849   21.0053 N   0  0  0  0  0  0  0  0  0  0  0  0
  -24.7976  -22.2995   20.7403 N   0  0  0  0  0  0  0  0  0  0  0  0
  -24.6842  -30.7455   23.2956 N   0  0  0  0  0  0  0  0  0  0  0  0
  -25.4791  -26.4015   14.5528 N   0  0  0  0  0  0  0  0  0  0  0  0
  -28.9647  -20.0466   20.5369 N   0  0  0  0  0  0  0  0  0  0  0  0
  -29.5644  -15.6809   19.5482 N   0  0  0  0  0  0  0  0  0  0  0  0
  -21.8262  -28.6683   22.7985 N   0  0  0  0  0  0  0  0  0  0  0  0
  -25.5329  -33.9211   24.1037 N   0  0  0  0  0  0  0  0  0  0  0  0
  -28.4746  -34.2737   26.1750 N   0  3  0  0  0  0  0  0  0  0  0  0
  -30.5915  -17.7295   19.6303 O   0  0  0  0  0  0  0  0  0  0  0  0
  -24.3851  -24.5890   20.6286 O   0  0  0  0  0  0  0  0  0  0  0  0
  -23.5197  -29.3642   21.3597 O   0  0  0  0  0  0  0  0  0  0  0  0
  -23.2157  -32.2484   24.3060 O   0  0  0  0  0  0  0  0  0  0  0  0
  -27.7453  -33.4638   23.5810 O   0  0  0  0  0  0  0  0  0  0  0  0
  -25.7390  -11.6530   19.9702 O   0  0  0  0  0  0  0  0  0  0  0  0
  -24.8211  -25.4428   17.0566 O   0  0  0  0  0  0  0  0  0  0  0  0
  -29.3084  -27.3471   21.0327 O   0  0  0  0  0  0  0  0  0  1  0  0
  -22.9166   -9.2508   24.0528 F   0  0  0  0  0  0  0  0  0  0  0  0
  -23.2513  -12.5964   20.7211 F   0  0  0  0  0  0  0  0  0  0  0  0
  1  2  1  0  0  0  0
  1  5  2  0  0  0  0
  2  6  2  0  0  0  0
  3  8  2  0  0  0  0
  3 16  1  0  0  0  0
  4  9  1  0  0  0  0
  4 16  2  0  0  0  0
  5 18  1  0  0  0  0
  6 20  1  0  0  0  0
  7 10  2  0  0  0  0
  7 19  1  0  0  0  0
  8 24  1  0  0  0  0
  9 24  2  0  0  0  0
 10 25  1  0  0  0  0
 11 12  2  0  0  0  0
 11 26  1  0  0  0  0
 12 28  1  0  0  0  0
 13 21  1  0  0  0  0
 13 25  2  0  0  0  0
 14 28  2  0  0  0  0
 14 29  1  0  0  0  0
 15 23  1  0  0  0  0
 15 66  2  0  0  0  0
 16 30  1  0  0  0  0
 17 30  1  0  0  0  0
 17 32  2  0  0  0  0
 17 33  1  0  0  0  0
 18 20  2  0  0  0  0
 18 38  1  0  0  0  0
 19 21  2  0  0  0  0
 19 39  1  0  0  0  0
 20 49  1  0  0  0  0
 21 40  1  0  0  0  0
 22 23  2  0  0  0  0
 22 27  1  0  0  0  0
 22 48  1  0  0  0  0
 23 60  1  0  0  0  0
 24 82  1  0  0  0  0
 25 84  1  0  0  0  0
 26 29  2  0  0  0  0
 26 82  1  0  0  0  0
 27 31  2  0  0  0  0
 27 83  1  0  0  0  0
 28 85  1  0  0  0  0
 29 86  1  0  0  0  0
 30 67  2  0  0  0  0
 31 66  1  0  0  0  0
 31 71  1  0  0  0  0
 32 68  1  0  0  0  0
 32 72  1  0  0  0  0
 33 73  1  0  0  0  0
 33 77  2  0  0  0  0
 34 50  1  0  0  0  0
 34 69  1  0  0  0  0
 34 78  2  0  0  0  0
 35 51  1  0  0  0  0
 35 74  1  0  0  0  0
 35 79  2  0  0  0  0
 36 62  1  0  0  0  0
 36 70  1  0  0  0  0
 36 80  2  0  0  0  0
 37 63  1  0  0  0  0
 37 75  1  0  0  0  0
 37 81  2  0  0  0  0
 38 41  1  0  0  0  0
 39 51  1  0  0  0  0
 40 70  1  0  0  0  0
 41 43  1  0  0  0  0
 42 44  1  0  0  0  0
 42 46  1  0  0  0  0
 43 49  1  0  0  0  0
 44 52  1  0  0  0  0
 45 48  1  0  0  0  0
 45 50  1  0  0  0  0
 46 69  1  0  0  0  0
 47 52  1  0  0  0  0
 47 69  1  0  0  0  0
 48 50  1  0  0  0  0
 49 74  1  0  0  0  0
 51 70  1  0  0  0  0
 52 68  1  0  0  0  0
 53 63  1  0  0  0  0
 54 64  1  0  0  0  0
 55 65  1  0  0  0  0
 56 65  1  0  0  0  0
 57 65  1  0  0  0  0
 58 76  1  0  0  0  0
 59 83  1  0  0  0  0
 60 64  1  0  0  0  0
 61 64  1  0  0  0  0
 61 84  1  0  0  0  0
 62 65  1  0  0  0  0
 62 75  1  0  0  0  0
 63 76  1  0  0  0  0
 67 68  1  0  0  0  0
M  CHG  1  76   1
M  ISO  4  34 100  50 100  61 101  84 101
M  END
> <Batch ID>
0126

> <Smiles>
CNC(C)C(=O)NC(C(=O)N1Cc2cc([101O:1][101CH2:1]C(C)Cc3cnc(N)c(OC)c3C3C[100CH:0]3[100C:0](=O)N3CCCC(n4nc(-c5ccc(Oc6ccc(F)cc6F)cc5)c(C(N)=O)c4N)C3)ccc2CC1C(=O)NC1CCCc2ccccc21)C(C)(C)C

> <Shape>
0.264

> <Color>
0.091

> <Negative vol penalty>
0.000

$$$$

  -OEChem-04052320383D

 88 97  0     1  0  0  0  0  0999 V2000
  -27.9416  -30.9974   18.7580 C   0  0  0  0  0  0  0  0  0  0  0  0
  -28.2719  -29.7734   19.3310 C   0  0  0  0  0  0  0  0  0  0  0  0
  -30.4617  -19.6863   19.7914 C   0  0  0  0  0  0  0  0  0  0  0  0
  -28.2007  -19.1903   20.4835 C   0  0  0  0  0  0  0  0  0  0  0  0
  -26.7357  -31.6160   19.0849 C   0  0  0  0  0  0  0  0  0  0  0  0
  -27.3968  -29.1680   20.2322 C   0  0  0  0  0  0  0  0  0  0  0  0
  -24.7412  -22.5913   18.9727 C   0  0  0  0  0  0  0  0  0  0  0  0
  -30.0574  -20.9565   19.3808 C   0  0  0  0  0  0  0  0  0  0  0  0
  -27.7964  -20.4606   20.0730 C   0  0  0  0  0  0  0  0  0  0  0  0
  -24.3564  -21.2520   18.9065 C   0  0  0  0  0  0  0  0  0  0  0  0
  -29.3656  -23.9368   20.8203 C   0  0  0  0  0  0  0  0  0  0  0  0
  -30.1689  -25.0198   21.1774 C   0  0  0  0  0  0  0  0  0  0  0  0
  -23.0672  -21.5108   20.9360 C   0  0  0  0  0  0  0  0  0  0  0  0
  -30.4978  -25.5457   18.8424 C   0  0  0  0  0  0  0  0  0  0  0  0
  -29.5334  -18.8031   20.3427 C   0  0  0  0  0  0  0  0  0  0  0  0
  -30.9165  -17.1792   21.7418 C   0  0  0  0  0  0  0  0  0  0  0  0
  -25.8410  -31.0132   19.9831 C   0  0  0  0  0  0  0  0  0  0  0  0
  -24.2774  -23.4004   20.0137 C   0  0  0  0  0  0  0  0  0  0  0  0
  -26.1784  -29.7798   20.5724 C   0  0  0  0  0  0  0  0  0  0  0  0
  -23.4392  -22.8563   21.0007 C   0  0  0  0  0  0  0  0  0  0  0  0
  -28.7248  -21.3437   19.5216 C   0  0  0  0  0  0  0  0  0  0  0  0
  -23.5217  -20.7131   19.8858 C   0  0  0  0  0  0  0  0  0  0  0  0
  -29.1284  -23.6583   19.4742 C   0  0  0  0  0  0  0  0  0  0  0  0
  -30.7350  -25.8242   20.1884 C   0  0  0  0  0  0  0  0  0  0  0  0
  -29.6945  -24.4627   18.4853 C   0  0  0  0  0  0  0  0  0  0  0  0
  -29.9503  -17.4906   20.7664 C   0  0  0  0  0  0  0  0  0  0  0  0
  -30.9433  -15.8063   21.7724 C   0  0  0  0  0  0  0  0  0  0  0  0
  -31.7180  -18.0528   22.5481 C   0  0  0  0  0  0  0  0  0  0  0  0
  -24.2386  -26.8044   21.5908 C   0  0  0  0  0  0  0  0  0  0  0  0
  -21.3852  -25.6964   21.7923 C   0  0  0  0  0  0  0  0  0  0  0  0
  -18.5644  -24.5697   20.9696 C   0  0  0  0  0  0  0  0  0  0  0  0
  -26.9123  -11.6164   20.3418 C   0  0  0  0  0  0  0  0  0  0  0  0
  -24.5707  -31.7428   20.3419 C   0  0  0  0  0  0  0  0  0  0  0  0
  -24.7157  -24.8324   20.1589 C   0  0  0  0  0  0  0  0  0  0  0  0
  -22.9927  -23.7553   22.1212 C   0  0  0  0  0  0  0  0  0  0  0  0
  -23.5291  -30.8554   21.0187 C   0  0  0  0  0  0  0  0  0  0  0  0
  -30.1883  -11.9835   18.9963 C   0  0  0  0  0  0  0  0  0  0  0  0
  -23.4077  -12.1991   18.1080 C   0  0  0  0  0  0  0  0  0  0  0  0
  -22.3572  -10.5851   23.4499 C   0  0  0  0  0  0  0  0  0  0  0  0
  -24.1754  -30.0143   22.1148 C   0  0  0  0  0  0  0  0  0  0  0  0
  -22.4287  -13.3607   17.9685 C   0  0  0  0  0  0  0  0  0  0  0  0
  -30.5859  -13.4084   19.3854 C   0  0  0  0  0  0  0  0  0  0  0  0
  -22.6105  -11.1252   22.0451 C   0  0  0  0  0  0  0  0  0  0  0  0
  -28.7037  -11.8860   18.6521 C   0  0  0  0  0  0  0  0  0  0  0  0
  -28.1898  -13.8289   20.0785 C   0  0  0  0  0  0  0  0  0  0  0  0
  -23.5630   -9.9671   24.1368 C   0  0  0  0  0  0  0  0  0  0  0  0
  -23.3792  -11.6041   19.5077 C   0  0  0  0  0  0  0  0  0  0  0  0
  -22.6483  -13.8147   20.4416 C   0  0  0  0  0  0  0  0  0  0  0  0
  -25.6153  -11.3498   23.5423 C   0  0  0  0  0  0  0  0  0  0  0  0
  -25.2441  -29.0796   21.5352 C   0  0  1  0  0  0  0  0  0  0  0  0
  -23.6157  -25.7453   20.7297 C   0  0  1  0  0  0  0  0  0  0  0  0
  -22.6763  -14.4285   19.0405 C   0  0  2  0  0  0  0  0  0  0  0  0
  -29.6661  -13.9659   20.4883 C   0  0  2  0  0  0  0  0  0  0  0  0
  -25.1502  -11.4934   22.0918 C   0  0  1  0  0  0  0  0  0  0  0  0
  -23.7595  -12.1355   21.9115 C   0  0  1  0  0  0  0  0  0  0  0  0
  -16.1617  -23.9542   20.5881 C   0  0  0  0  0  0  0  0  0  0  0  0
  -21.9030  -24.9514   24.7044 C   0  0  0  0  0  0  0  0  0  0  0  0
  -19.4619  -24.4452   24.9350 C   0  0  0  0  0  0  0  0  0  0  0  0
  -20.2067  -26.7593   24.3755 C   0  0  0  0  0  0  0  0  0  0  0  0
  -18.1789  -26.7913   19.0526 C   0  0  0  0  0  0  0  0  0  0  0  0
  -21.6557  -15.5401   18.9312 C   0  0  0  0  0  0  0  0  0  0  0  0
  -21.2682  -17.9247   19.5655 C   0  0  0  0  0  0  0  0  0  0  0  0
  -21.8732  -19.0653   20.3599 C   0  0  0  0  0  0  0  0  0  1  0  0
  -20.3756  -24.9452   22.6228 C   0  0  1  0  0  0  0  0  0  0  0  0
  -17.1889  -25.0756   20.5741 C   0  0  2  0  0  0  0  0  0  0  0  0
  -20.5025  -25.2622   24.1396 C   0  0  0  0  0  0  0  0  0  0  0  0
  -29.4030  -16.4031   20.2171 N   0  0  0  0  0  0  0  0  0  0  0  0
  -30.0275  -15.3949   20.8493 N   0  0  0  0  0  0  0  0  0  0  0  0
  -22.6239  -25.0763   21.5887 N   0  0  0  0  0  0  0  0  0  0  0  0
  -27.8863  -12.4297   19.7394 N   0  0  0  0  0  0  0  0  0  0  0  0
  -31.6608  -14.9230   22.4986 N   0  0  0  0  0  0  0  0  0  0  0  0
  -32.9664  -18.4578   22.0564 N   0  0  0  0  0  0  0  0  0  0  0  0
  -24.6247  -27.9367   20.8992 N   0  0  0  0  0  0  0  0  0  0  0  0
  -19.0681  -25.2552   22.0549 N   0  0  0  0  0  0  0  0  0  0  0  0
  -26.1863  -12.2074   21.3685 N   0  0  0  0  0  0  0  0  0  0  0  0
  -24.5298  -11.0369   24.5079 N   0  3  0  0  0  0  0  0  0  0  0  0
  -23.6549  -12.6901   20.5193 N   0  3  1  0  0  0  0  0  0  0  0  0
  -17.2265  -25.6613   19.2042 N   0  3  0  0  0  0  0  0  0  0  0  0
  -22.1596  -16.7406   19.6515 N   0  3  0  0  0  0  0  0  0  0  0  0
  -31.3454  -18.4491   23.6784 O   0  0  0  0  0  0  0  0  0  0  0  0
  -24.3594  -26.6104   22.7948 O   0  0  0  0  0  0  0  0  0  0  0  0
  -21.0883  -26.8057   21.3398 O   0  0  0  0  0  0  0  0  0  0  0  0
  -19.1335  -23.6553   20.3776 O   0  0  0  0  0  0  0  0  0  0  0  0
  -26.7088  -10.4482   19.9941 O   0  0  0  0  0  0  0  0  0  0  0  0
  -28.3299  -22.5833   19.1214 O   0  0  0  0  0  0  0  0  0  0  0  0
  -23.1463  -19.4060   19.8125 O   0  0  0  0  0  0  0  0  0  1  0  0
  -31.5052  -26.8650   20.5315 F   0  0  0  0  0  0  0  0  0  0  0  0
  -29.4692  -24.2008   17.1905 F   0  0  0  0  0  0  0  0  0  0  0  0
  1  2  1  0  0  0  0
  1  5  2  0  0  0  0
  2  6  2  0  0  0  0
  3  8  2  0  0  0  0
  3 15  1  0  0  0  0
  4  9  1  0  0  0  0
  4 15  2  0  0  0  0
  5 17  1  0  0  0  0
  6 19  1  0  0  0  0
  7 10  2  0  0  0  0
  7 18  1  0  0  0  0
  8 21  1  0  0  0  0
  9 21  2  0  0  0  0
 10 22  1  0  0  0  0
 11 12  2  0  0  0  0
 11 23  1  0  0  0  0
 12 24  1  0  0  0  0
 13 20  1  0  0  0  0
 13 22  2  0  0  0  0
 14 24  2  0  0  0  0
 14 25  1  0  0  0  0
 15 26  1  0  0  0  0
 16 26  1  0  0  0  0
 16 27  2  0  0  0  0
 16 28  1  0  0  0  0
 17 19  2  0  0  0  0
 17 33  1  0  0  0  0
 18 20  2  0  0  0  0
 18 34  1  0  0  0  0
 19 50  1  0  0  0  0
 20 35  1  0  0  0  0
 21 85  1  0  0  0  0
 22 86  1  0  0  0  0
 23 25  2  0  0  0  0
 23 85  1  0  0  0  0
 24 87  1  0  0  0  0
 25 88  1  0  0  0  0
 26 67  2  0  0  0  0
 27 68  1  0  0  0  0
 27 71  1  0  0  0  0
 28 72  1  0  0  0  0
 28 80  2  0  0  0  0
 29 51  1  0  0  0  0
 29 73  1  0  0  0  0
 29 81  2  0  0  0  0
 30 64  1  0  0  0  0
 30 69  1  0  0  0  0
 30 82  2  0  0  0  0
 31 65  1  0  0  0  0
 31 74  1  0  0  0  0
 31 83  2  0  0  0  0
 32 70  1  0  0  0  0
 32 75  1  0  0  0  0
 32 84  2  0  0  0  0
 33 36  1  0  0  0  0
 34 51  1  0  0  0  0
 35 69  1  0  0  0  0
 36 40  1  0  0  0  0
 37 42  1  0  0  0  0
 37 44  1  0  0  0  0
 38 41  1  0  0  0  0
 38 47  1  0  0  0  0
 39 43  1  0  0  0  0
 39 46  1  0  0  0  0
 40 50  1  0  0  0  0
 41 52  1  0  0  0  0
 42 53  1  0  0  0  0
 43 55  1  0  0  0  0
 44 70  1  0  0  0  0
 45 53  1  0  0  0  0
 45 70  1  0  0  0  0
 46 76  1  0  0  0  0
 47 77  1  0  0  0  0
 48 52  1  0  0  0  0
 48 77  1  0  0  0  0
 49 54  1  0  0  0  0
 49 76  1  0  0  0  0
 50 73  1  0  0  0  0
 51 69  1  0  0  0  0
 52 61  1  0  0  0  0
 53 68  1  0  0  0  0
 54 55  1  0  0  0  0
 54 75  1  0  0  0  0
 55 77  1  0  0  0  0
 56 65  1  0  0  0  0
 57 66  1  0  0  0  0
 58 66  1  0  0  0  0
 59 66  1  0  0  0  0
 60 78  1  0  0  0  0
 61 79  1  0  0  0  0
 62 63  1  0  0  0  0
 62 79  1  0  0  0  0
 63 86  1  0  0  0  0
 64 66  1  0  0  0  0
 64 74  1  0  0  0  0
 65 78  1  0  0  0  0
 67 68  1  0  0  0  0
M  CHG  4  76   1  77   1  78   1  79   1
M  ISO  4  32 100  63 101  75 100  86 101
M  END
> <Batch ID>
0126

> <Smiles>
CNC(C)C(=O)NC(C(=O)N1Cc2cc([101O:1][101CH2:1]CNCC3CCCN(C4CCCNCC4[100NH:0][100C:0](=O)N4CCCC(n5nc(-c6ccc(Oc7ccc(F)cc7F)cc6)c(C(N)=O)c5N)C4)C3)ccc2CC1C(=O)NC1CCCc2ccccc21)C(C)(C)C

> <Shape>
0.252

> <Color>
0.043

> <Negative vol penalty>
0.000

$$$$

  -OEChem-04052320383D

 83 91  0     1  0  0  0  0  0999 V2000
  -26.4077  -32.5937   16.9842 C   0  0  0  0  0  0  0  0  0  0  0  0
  -26.4555  -31.2086   16.8623 C   0  0  0  0  0  0  0  0  0  0  0  0
  -23.0436   -9.9285   19.9142 C   0  0  0  0  0  0  0  0  0  0  0  0
  -23.8038   -9.8598   22.2064 C   0  0  0  0  0  0  0  0  0  0  0  0
  -27.3651  -33.2584   17.7494 C   0  0  0  0  0  0  0  0  0  0  0  0
  -27.4613  -30.4876   17.5048 C   0  0  0  0  0  0  0  0  0  0  0  0
  -25.6994  -26.3546   19.8412 C   0  0  0  0  0  0  0  0  0  0  0  0
  -26.8163  -20.6518   19.3803 C   0  0  0  0  0  0  0  0  0  0  0  0
  -22.3004   -8.7674   20.1258 C   0  0  0  0  0  0  0  0  0  0  0  0
  -23.0605   -8.6987   22.4181 C   0  0  0  0  0  0  0  0  0  0  0  0
  -25.4208  -25.2437   19.0461 C   0  0  0  0  0  0  0  0  0  0  0  0
  -23.3530   -5.3971   21.7509 C   0  0  0  0  0  0  0  0  0  0  0  0
  -23.9690   -4.3489   22.4343 C   0  0  0  0  0  0  0  0  0  0  0  0
  -27.3098  -19.6619   20.2228 C   0  0  0  0  0  0  0  0  0  0  0  0
  -27.5265  -24.2603   19.6930 C   0  0  0  0  0  0  0  0  0  0  0  0
  -22.2678   -4.4649   24.1459 C   0  0  0  0  0  0  0  0  0  0  0  0
  -29.0323  -21.0183   18.5983 C   0  0  0  0  0  0  0  0  0  0  0  0
  -23.7954  -10.4748   20.9545 C   0  0  0  0  0  0  0  0  0  0  0  0
  -24.1360  -13.0027   20.9182 C   0  0  0  0  0  0  0  0  0  0  0  0
  -28.3775  -32.5442   18.4094 C   0  0  0  0  0  0  0  0  0  0  0  0
  -26.9005  -26.4317   20.5608 C   0  0  0  0  0  0  0  0  0  0  0  0
  -28.4339  -31.1435   18.2784 C   0  0  0  0  0  0  0  0  0  0  0  0
  -27.8167  -25.3721   20.4985 C   0  0  0  0  0  0  0  0  0  0  0  0
  -27.6873  -21.3476   18.5494 C   0  0  0  0  0  0  0  0  0  0  0  0
  -22.3088   -8.1524   21.3778 C   0  0  0  0  0  0  0  0  0  0  0  0
  -26.3357  -24.1976   18.9696 C   0  0  0  0  0  0  0  0  0  0  0  0
  -22.1943   -5.9794   22.2649 C   0  0  0  0  0  0  0  0  0  0  0  0
  -23.4264   -3.8827   23.6318 C   0  0  0  0  0  0  0  0  0  0  0  0
  -21.6517   -5.5133   23.4624 C   0  0  0  0  0  0  0  0  0  0  0  0
  -24.5639  -11.6739   20.7363 C   0  0  0  0  0  0  0  0  0  0  0  0
  -28.6717  -19.4079   20.1966 C   0  0  0  0  0  0  0  0  0  0  0  0
  -25.2277  -13.7643   20.5799 C   0  0  0  0  0  0  0  0  0  0  0  0
  -22.8653  -13.5037   21.3542 C   0  0  0  0  0  0  0  0  0  0  0  0
  -29.4045  -28.3896   20.5427 C   0  0  0  0  0  0  0  0  0  0  0  0
  -30.3047  -26.6318   23.1160 C   0  0  0  0  0  0  0  0  0  0  0  0
  -30.1000  -23.6865   24.8278 C   0  0  0  0  0  0  0  0  0  0  0  0
  -30.7110  -14.7792   20.8014 C   0  0  0  0  0  0  0  0  0  0  0  0
  -29.4181  -33.3108   19.1867 C   0  0  0  0  0  0  0  0  0  0  0  0
  -27.1740  -27.6248   21.4349 C   0  0  0  0  0  0  0  0  0  0  0  0
  -29.1115  -25.3970   21.2675 C   0  0  0  0  0  0  0  0  0  0  0  0
  -30.2302  -32.4391   20.1411 C   0  0  0  0  0  0  0  0  0  0  0  0
  -29.5743  -12.4747   18.3369 C   0  0  0  0  0  0  0  0  0  0  0  0
  -30.6917  -31.1658   19.4393 C   0  0  0  0  0  0  0  0  0  0  0  0
  -28.1370  -12.1660   18.7600 C   0  0  0  0  0  0  0  0  0  0  0  0
  -30.4914  -12.6560   19.5444 C   0  0  0  0  0  0  0  0  0  0  0  0
  -28.5895  -13.3397   20.9547 C   0  0  0  0  0  0  0  0  0  0  0  0
  -29.4949  -30.3240   18.9804 C   0  0  1  0  0  0  0  0  0  0  0  0
  -28.6587  -27.8286   21.7203 C   0  0  1  0  0  0  0  0  0  0  0  0
  -27.6153  -13.2038   19.7720 C   0  0  2  0  0  0  0  0  0  0  0  0
  -26.7673  -21.8764   16.2653 C   0  0  0  0  0  0  0  0  0  0  0  0
  -30.9783  -22.5335   26.8764 C   0  0  0  0  0  0  0  0  0  0  0  0
  -30.3704  -17.2342   23.5382 C   0  0  0  0  0  0  0  0  0  0  0  0
  -32.9702  -26.1638   21.7068 C   0  0  0  0  0  0  0  0  0  0  0  0
  -33.4072  -24.2881   23.3065 C   0  0  0  0  0  0  0  0  0  0  0  0
  -33.1524  -26.6184   24.1593 C   0  0  0  0  0  0  0  0  0  0  0  0
  -27.3862  -23.4049   25.9745 C   0  0  0  0  0  0  0  0  0  0  0  0
  -30.5385  -18.0392   21.1280 C   0  0  0  0  0  0  0  0  0  0  0  0
  -27.1820  -22.4297   17.6228 C   0  0  1  0  0  0  0  0  0  1  0  0
  -31.1163  -25.3756   23.3217 C   0  0  1  0  0  0  0  0  0  0  0  0
  -29.8629  -23.3901   26.2977 C   0  0  2  0  0  0  0  0  0  0  0  0
  -30.7760  -16.8876   22.1089 C   0  0  2  0  0  0  0  0  0  0  0  0
  -32.6381  -25.6116   23.1075 C   0  0  0  0  0  0  0  0  0  0  0  0
  -29.5487  -20.0629   19.4033 N   0  0  0  0  0  0  0  0  0  0  0  0
  -25.8287  -11.5926   20.3149 N   0  0  0  0  0  0  0  0  0  0  0  0
  -26.2050  -12.8799   20.2292 N   0  0  0  0  0  0  0  0  0  0  0  0
  -29.3362  -26.5881   22.1032 N   0  0  0  0  0  0  0  0  0  0  0  0
  -29.9405  -13.6543   20.4641 N   0  0  0  0  0  0  0  0  0  0  0  0
  -25.4375  -15.0976   20.5511 N   0  0  0  0  0  0  0  0  0  0  0  0
  -21.8539  -12.5833   21.6612 N   0  0  0  0  0  0  0  0  0  0  0  0
  -29.1588  -18.3957   21.0606 N   0  0  0  0  0  0  0  0  0  0  0  0
  -28.9229  -29.6066   20.0996 N   0  0  0  0  0  0  0  0  0  0  0  0
  -30.7697  -24.8784   24.6488 N   0  0  0  0  0  0  0  0  0  0  0  0
  -30.1115  -15.6793   21.6738 N   0  0  0  0  0  0  0  0  0  0  0  0
  -28.5726  -22.6666   26.4786 N   0  3  0  0  0  0  0  0  0  0  0  0
  -22.6285  -14.7316   21.4523 O   0  0  0  0  0  0  0  0  0  0  0  0
  -30.3480  -27.7652   20.0718 O   0  0  0  0  0  0  0  0  0  0  0  0
  -30.5171  -27.6131   23.8326 O   0  0  0  0  0  0  0  0  0  0  0  0
  -29.7315  -22.9340   23.9287 O   0  0  0  0  0  0  0  0  0  0  0  0
  -31.8468  -14.9702   20.3537 O   0  0  0  0  0  0  0  0  0  0  0  0
  -21.5834   -7.0195   21.5848 O   0  0  0  0  0  0  0  0  0  0  0  0
  -26.0666  -23.1125   18.1938 O   0  0  0  0  0  0  0  0  0  1  0  0
  -24.0173   -2.8751   24.2873 F   0  0  0  0  0  0  0  0  0  0  0  0
  -20.5381   -6.0678   23.9606 F   0  0  0  0  0  0  0  0  0  0  0  0
  1  2  1  0  0  0  0
  1  5  2  0  0  0  0
  2  6  2  0  0  0  0
  3  9  2  0  0  0  0
  3 18  1  0  0  0  0
  4 10  1  0  0  0  0
  4 18  2  0  0  0  0
  5 20  1  0  0  0  0
  6 22  1  0  0  0  0
  7 11  2  0  0  0  0
  7 21  1  0  0  0  0
  8 14  2  0  0  0  0
  8 24  1  0  0  0  0
  9 25  1  0  0  0  0
 10 25  2  0  0  0  0
 11 26  1  0  0  0  0
 12 13  2  0  0  0  0
 12 27  1  0  0  0  0
 13 28  1  0  0  0  0
 14 31  1  0  0  0  0
 15 23  1  0  0  0  0
 15 26  2  0  0  0  0
 16 28  2  0  0  0  0
 16 29  1  0  0  0  0
 17 24  2  0  0  0  0
 17 63  1  0  0  0  0
 18 30  1  0  0  0  0
 19 30  1  0  0  0  0
 19 32  2  0  0  0  0
 19 33  1  0  0  0  0
 20 22  2  0  0  0  0
 20 38  1  0  0  0  0
 21 23  2  0  0  0  0
 21 39  1  0  0  0  0
 22 47  1  0  0  0  0
 23 40  1  0  0  0  0
 24 58  1  0  0  0  0
 25 80  1  0  0  0  0
 26 81  1  0  0  0  0
 27 29  2  0  0  0  0
 27 80  1  0  0  0  0
 28 82  1  0  0  0  0
 29 83  1  0  0  0  0
 30 64  2  0  0  0  0
 31 63  2  0  0  0  0
 31 70  1  0  0  0  0
 32 65  1  0  0  0  0
 32 68  1  0  0  0  0
 33 69  1  0  0  0  0
 33 75  2  0  0  0  0
 34 48  1  0  0  0  0
 34 71  1  0  0  0  0
 34 76  2  0  0  0  0
 35 59  1  0  0  0  0
 35 66  1  0  0  0  0
 35 77  2  0  0  0  0
 36 60  1  0  0  0  0
 36 72  1  0  0  0  0
 36 78  2  0  0  0  0
 37 67  1  0  0  0  0
 37 73  1  0  0  0  0
 37 79  2  0  0  0  0
 38 41  1  0  0  0  0
 39 48  1  0  0  0  0
 40 66  1  0  0  0  0
 41 43  1  0  0  0  0
 42 44  1  0  0  0  0
 42 45  1  0  0  0  0
 43 47  1  0  0  0  0
 44 49  1  0  0  0  0
 45 67  1  0  0  0  0
 46 49  1  0  0  0  0
 46 67  1  0  0  0  0
 47 71  1  0  0  0  0
 48 66  1  0  0  0  0
 49 65  1  0  0  0  0
 50 58  1  0  0  0  0
 51 60  1  0  0  0  0
 52 61  1  0  0  0  0
 53 62  1  0  0  0  0
 54 62  1  0  0  0  0
 55 62  1  0  0  0  0
 56 74  1  0  0  0  0
 57 61  1  0  0  0  0
 57 70  1  0  0  0  0
 58 81  1  0  0  0  0
 59 62  1  0  0  0  0
 59 72  1  0  0  0  0
 60 74  1  0  0  0  0
 61 73  1  0  0  0  0
 64 65  1  0  0  0  0
M  CHG  1  74   1
M  ISO  4  37 100  58 101  73 100  81 101
M  END
> <Batch ID>
0126

> <Smiles>
CNC(C)C(=O)NC(C(=O)N1Cc2cc([101O:1][101CH:1](C)c3ccc(NCC(C)[100NH:0][100C:0](=O)N4CCCC(n5nc(-c6ccc(Oc7ccc(F)cc7F)cc6)c(C(N)=O)c5N)C4)nc3)ccc2CC1C(=O)NC1CCCc2ccccc21)C(C)(C)C

> <Shape>
0.258

> <Color>
0.209

> <Negative vol penalty>
0.000

$$$$

  -OEChem-04052320383D

 85 94  0     1  0  0  0  0  0999 V2000
  -27.4269  -29.8024   23.7705 C   0  0  0  0  0  0  0  0  0  0  0  0
  -27.5868  -28.4455   23.5087 C   0  0  0  0  0  0  0  0  0  0  0  0
  -23.2173   -9.7795   19.9765 C   0  0  0  0  0  0  0  0  0  0  0  0
  -23.9512   -9.8980   22.2753 C   0  0  0  0  0  0  0  0  0  0  0  0
  -26.6475  -30.5877   22.9221 C   0  0  0  0  0  0  0  0  0  0  0  0
  -26.9664  -27.8727   22.3990 C   0  0  0  0  0  0  0  0  0  0  0  0
  -30.0489  -24.7851   19.8280 C   0  0  0  0  0  0  0  0  0  0  0  0
  -22.5601   -8.5795   20.2482 C   0  0  0  0  0  0  0  0  0  0  0  0
  -23.2939   -8.6981   22.5470 C   0  0  0  0  0  0  0  0  0  0  0  0
  -30.2615  -23.5127   20.3568 C   0  0  0  0  0  0  0  0  0  0  0  0
  -19.6658   -7.5965   21.6937 C   0  0  0  0  0  0  0  0  0  0  0  0
  -18.3711   -7.4400   21.1988 C   0  0  0  0  0  0  0  0  0  0  0  0
  -29.8183  -19.0158   22.5794 C   0  0  0  0  0  0  0  0  0  0  0  0
  -28.6584  -22.6044   18.7999 C   0  0  0  0  0  0  0  0  0  0  0  0
  -19.0893   -5.5142   19.9289 C   0  0  0  0  0  0  0  0  0  0  0  0
  -31.9171  -18.8596   21.4715 C   0  0  0  0  0  0  0  0  0  0  0  0
  -23.9129  -10.4387   20.9901 C   0  0  0  0  0  0  0  0  0  0  0  0
  -24.0644  -12.9790   20.8116 C   0  0  0  0  0  0  0  0  0  0  0  0
  -26.0251  -30.0263   21.7960 C   0  0  0  0  0  0  0  0  0  0  0  0
  -29.1299  -24.9787   18.7868 C   0  0  0  0  0  0  0  0  0  0  0  0
  -26.1768  -28.6510   21.5356 C   0  0  0  0  0  0  0  0  0  0  0  0
  -29.9442  -17.6791   22.9411 C   0  0  0  0  0  0  0  0  0  0  0  0
  -28.4378  -23.8799   18.2579 C   0  0  0  0  0  0  0  0  0  0  0  0
  -30.8192  -19.6247   21.8306 C   0  0  0  0  0  0  0  0  0  0  0  0
  -22.5984   -8.0388   21.5334 C   0  0  0  0  0  0  0  0  0  0  0  0
  -29.5641  -22.4226   19.8447 C   0  0  0  0  0  0  0  0  0  0  0  0
  -20.6723   -6.7119   21.3061 C   0  0  0  0  0  0  0  0  0  0  0  0
  -18.0829   -6.3989   20.3164 C   0  0  0  0  0  0  0  0  0  0  0  0
  -20.3840   -5.6708   20.4237 C   0  0  0  0  0  0  0  0  0  0  0  0
  -24.5925  -11.6780   20.7099 C   0  0  0  0  0  0  0  0  0  0  0  0
  -31.0812  -17.0010   22.5322 C   0  0  0  0  0  0  0  0  0  0  0  0
  -25.1005  -13.8002   20.4394 C   0  0  0  0  0  0  0  0  0  0  0  0
  -22.7544  -13.4068   21.2073 C   0  0  0  0  0  0  0  0  0  0  0  0
  -26.4380  -26.6352   18.4499 C   0  0  0  0  0  0  0  0  0  0  0  0
  -26.6854  -25.6647   15.3645 C   0  0  0  0  0  0  0  0  0  0  0  0
  -27.9122  -23.3949   13.1309 C   0  0  0  0  0  0  0  0  0  0  0  0
  -30.8606  -14.1981   20.8592 C   0  0  0  0  0  0  0  0  0  0  0  0
  -25.1536  -30.9054   20.9345 C   0  0  0  0  0  0  0  0  0  0  0  0
  -28.9317  -26.3534   18.2094 C   0  0  0  0  0  0  0  0  0  0  0  0
  -27.4552  -24.0313   17.1265 C   0  0  0  0  0  0  0  0  0  0  0  0
  -24.8359  -30.2985   19.5703 C   0  0  0  0  0  0  0  0  0  0  0  0
  -29.2620  -13.1984   17.8390 C   0  0  0  0  0  0  0  0  0  0  0  0
  -24.4122  -28.8408   19.7201 C   0  0  0  0  0  0  0  0  0  0  0  0
  -27.8458  -12.8254   18.2809 C   0  0  0  0  0  0  0  0  0  0  0  0
  -28.6932  -17.6501   25.1493 C   0  0  0  0  0  0  0  0  0  0  0  0
  -27.5109  -16.9609   23.0148 C   0  0  0  0  0  0  0  0  0  0  0  0
  -30.3016  -12.8073   18.8870 C   0  0  0  0  0  0  0  0  0  0  0  0
  -28.6223  -12.9507   20.6851 C   0  0  0  0  0  0  0  0  0  0  0  0
  -27.6040  -16.9586   25.9566 C   0  0  0  0  0  0  0  0  0  0  0  0
  -26.4368  -16.2780   23.8495 C   0  0  0  0  0  0  0  0  0  0  0  0
  -28.8595  -17.0106   23.7576 C   0  0  0  0  0  0  0  0  0  0  0  0
  -25.5400  -27.9981   20.3279 C   0  0  1  0  0  0  0  0  0  0  0  0
  -27.5928  -26.5146   17.4962 C   0  0  1  0  0  0  0  0  0  0  0  0
  -27.5333  -13.3760   19.6853 C   0  0  2  0  0  0  0  0  0  0  0  0
  -27.9147  -22.8436   10.6827 C   0  0  0  0  0  0  0  0  0  0  0  0
  -23.8419  -24.5849   15.6072 C   0  0  0  0  0  0  0  0  0  0  0  0
  -24.2472  -23.2471   13.5302 C   0  0  0  0  0  0  0  0  0  0  0  0
  -24.3387  -25.7385   13.4446 C   0  0  0  0  0  0  0  0  0  0  0  0
  -30.8517  -23.6872   12.9496 C   0  0  0  0  0  0  0  0  0  0  0  0
  -30.7134  -21.0650   21.4232 C   0  0  0  0  0  0  0  0  0  1  0  0
  -31.2698  -15.5632   22.8910 C   0  0  0  0  0  0  0  0  0  0  0  0
  -26.2072  -24.4677   14.5787 C   0  0  1  0  0  0  0  0  0  0  0  0
  -28.6335  -23.5730   11.8071 C   0  0  2  0  0  0  0  0  0  0  0  0
  -24.6758  -24.5067   14.3128 C   0  0  0  0  0  0  0  0  0  0  0  0
  -32.0745  -17.5588   21.8042 N   0  0  0  0  0  0  0  0  0  0  0  0
  -25.8651  -11.6683   20.3047 N   0  0  0  0  0  0  0  0  0  0  0  0
  -26.1454  -12.9734   20.1484 N   0  0  0  0  0  0  0  0  0  0  0  0
  -27.2915  -25.3964   16.6000 N   0  0  0  0  0  0  0  0  0  0  0  0
  -29.9474  -13.3622   20.1956 N   0  0  0  0  0  0  0  0  0  0  0  0
  -25.2105  -15.1417   20.3358 N   0  0  0  0  0  0  0  0  0  0  0  0
  -21.8106  -12.4319   21.5581 N   0  0  0  0  0  0  0  0  0  0  0  0
  -26.5416  -27.6975   19.3275 N   0  0  0  0  0  0  0  0  0  0  0  0
  -27.0226  -24.4209   13.3698 N   0  0  0  0  0  0  0  0  0  0  0  0
  -30.4436  -14.6863   22.0915 N   0  0  0  0  0  0  0  0  0  0  0  0
  -26.3334  -16.9613   25.1728 N   0  3  0  0  0  0  0  0  0  0  0  0
  -30.0230  -23.0421   11.8988 N   0  3  0  0  0  0  0  0  0  0  0  0
  -22.4253  -14.6171   21.2327 O   0  0  0  0  0  0  0  0  0  0  0  0
  -25.5201  -25.8253   18.3927 O   0  0  0  0  0  0  0  0  0  0  0  0
  -26.5333  -26.7957   14.8961 O   0  0  0  0  0  0  0  0  0  0  0  0
  -28.1148  -22.4391   13.8765 O   0  0  0  0  0  0  0  0  0  0  0  0
  -31.9636  -14.4920   20.3860 O   0  0  0  0  0  0  0  0  0  0  0  0
  -21.9570   -6.8681   21.7989 O   0  0  0  0  0  0  0  0  0  0  0  0
  -29.7692  -21.1797   20.3594 O   0  0  0  0  0  0  0  0  0  1  0  0
  -16.8392   -6.2478   19.8425 F   0  0  0  0  0  0  0  0  0  0  0  0
  -21.3465   -4.8171   20.0487 F   0  0  0  0  0  0  0  0  0  0  0  0
  1  2  1  0  0  0  0
  1  5  2  0  0  0  0
  2  6  2  0  0  0  0
  3  8  2  0  0  0  0
  3 17  1  0  0  0  0
  4  9  1  0  0  0  0
  4 17  2  0  0  0  0
  5 19  1  0  0  0  0
  6 21  1  0  0  0  0
  7 10  2  0  0  0  0
  7 20  1  0  0  0  0
  8 25  1  0  0  0  0
  9 25  2  0  0  0  0
 10 26  1  0  0  0  0
 11 12  2  0  0  0  0
 11 27  1  0  0  0  0
 12 28  1  0  0  0  0
 13 22  1  0  0  0  0
 13 24  2  0  0  0  0
 14 23  1  0  0  0  0
 14 26  2  0  0  0  0
 15 28  2  0  0  0  0
 15 29  1  0  0  0  0
 16 24  1  0  0  0  0
 16 65  2  0  0  0  0
 17 30  1  0  0  0  0
 18 30  1  0  0  0  0
 18 32  2  0  0  0  0
 18 33  1  0  0  0  0
 19 21  2  0  0  0  0
 19 38  1  0  0  0  0
 20 23  2  0  0  0  0
 20 39  1  0  0  0  0
 21 52  1  0  0  0  0
 22 31  2  0  0  0  0
 22 51  1  0  0  0  0
 23 40  1  0  0  0  0
 24 60  1  0  0  0  0
 25 82  1  0  0  0  0
 26 83  1  0  0  0  0
 27 29  2  0  0  0  0
 27 82  1  0  0  0  0
 28 84  1  0  0  0  0
 29 85  1  0  0  0  0
 30 66  2  0  0  0  0
 31 61  1  0  0  0  0
 31 65  1  0  0  0  0
 32 67  1  0  0  0  0
 32 70  1  0  0  0  0
 33 71  1  0  0  0  0
 33 77  2  0  0  0  0
 34 53  1  0  0  0  0
 34 72  1  0  0  0  0
 34 78  2  0  0  0  0
 35 62  1  0  0  0  0
 35 68  1  0  0  0  0
 35 79  2  0  0  0  0
 36 63  1  0  0  0  0
 36 73  1  0  0  0  0
 36 80  2  0  0  0  0
 37 69  1  0  0  0  0
 37 74  1  0  0  0  0
 37 81  2  0  0  0  0
 38 41  1  0  0  0  0
 39 53  1  0  0  0  0
 40 68  1  0  0  0  0
 41 43  1  0  0  0  0
 42 44  1  0  0  0  0
 42 47  1  0  0  0  0
 43 52  1  0  0  0  0
 44 54  1  0  0  0  0
 45 49  1  0  0  0  0
 45 51  1  0  0  0  0
 46 50  1  0  0  0  0
 46 51  1  0  0  0  0
 47 69  1  0  0  0  0
 48 54  1  0  0  0  0
 48 69  1  0  0  0  0
 49 75  1  0  0  0  0
 50 75  1  0  0  0  0
 52 72  1  0  0  0  0
 53 68  1  0  0  0  0
 54 67  1  0  0  0  0
 55 63  1  0  0  0  0
 56 64  1  0  0  0  0
 57 64  1  0  0  0  0
 58 64  1  0  0  0  0
 59 76  1  0  0  0  0
 60 83  1  0  0  0  0
 61 74  1  0  0  0  0
 62 64  1  0  0  0  0
 62 73  1  0  0  0  0
 63 76  1  0  0  0  0
 66 67  1  0  0  0  0
M  CHG  2  75   1  76   1
M  ISO  4  37 100  60 101  74 100  83 101
M  END
> <Batch ID>
0126

> <Smiles>
CNC(C)C(=O)NC(C(=O)N1Cc2cc([101O:1][101CH2:1]c3cnc(C[100NH:0][100C:0](=O)N4CCCC(n5nc(-c6ccc(Oc7ccc(F)cc7F)cc6)c(C(N)=O)c5N)C4)c(C4CCNCC4)c3)ccc2CC1C(=O)NC1CCCc2ccccc21)C(C)(C)C

> <Shape>
0.267

> <Color>
0.196

> <Negative vol penalty>
0.000

$$$$

  -OEChem-04052320383D

 81 89  0     1  0  0  0  0  0999 V2000
  -33.4866  -29.1109   14.1098 C   0  0  0  0  0  0  0  0  0  0  0  0
  -34.1110  -28.0884   14.8169 C   0  0  0  0  0  0  0  0  0  0  0  0
  -31.7821  -15.6864   25.3133 C   0  0  0  0  0  0  0  0  0  0  0  0
  -23.7862   -9.5816   20.8198 C   0  0  0  0  0  0  0  0  0  0  0  0
  -24.3867  -10.3006   23.0468 C   0  0  0  0  0  0  0  0  0  0  0  0
  -32.2774  -29.6344   14.5654 C   0  0  0  0  0  0  0  0  0  0  0  0
  -33.5269  -27.5895   15.9807 C   0  0  0  0  0  0  0  0  0  0  0  0
  -33.6663  -21.8028   17.9810 C   0  0  0  0  0  0  0  0  0  0  0  0
  -23.2948   -8.3839   21.3390 C   0  0  0  0  0  0  0  0  0  0  0  0
  -23.8953   -9.1029   23.5660 C   0  0  0  0  0  0  0  0  0  0  0  0
  -34.4615  -21.1559   18.9260 C   0  0  0  0  0  0  0  0  0  0  0  0
  -22.2099   -4.9846   22.0400 C   0  0  0  0  0  0  0  0  0  0  0  0
  -22.5505   -3.8027   21.3822 C   0  0  0  0  0  0  0  0  0  0  0  0
  -33.0134  -16.2284   24.9622 C   0  0  0  0  0  0  0  0  0  0  0  0
  -31.0084  -15.0503   24.3488 C   0  0  0  0  0  0  0  0  0  0  0  0
  -32.7507  -21.4988   20.5917 C   0  0  0  0  0  0  0  0  0  0  0  0
  -24.8904   -4.2581   21.7756 C   0  0  0  0  0  0  0  0  0  0  0  0
  -24.3322  -10.5400   21.6737 C   0  0  0  0  0  0  0  0  0  0  0  0
  -24.1279  -12.9757   20.9433 C   0  0  0  0  0  0  0  0  0  0  0  0
  -31.6734  -29.1351   15.7300 C   0  0  0  0  0  0  0  0  0  0  0  0
  -32.4098  -22.3131   18.3377 C   0  0  0  0  0  0  0  0  0  0  0  0
  -32.3091  -28.1077   16.4530 C   0  0  0  0  0  0  0  0  0  0  0  0
  -31.9403  -22.1495   19.6488 C   0  0  0  0  0  0  0  0  0  0  0  0
  -23.3493   -8.1445   22.7120 C   0  0  0  0  0  0  0  0  0  0  0  0
  -34.0050  -21.0064   20.2322 C   0  0  0  0  0  0  0  0  0  0  0  0
  -23.2095   -5.8033   22.5656 C   0  0  0  0  0  0  0  0  0  0  0  0
  -23.8907   -3.4394   21.2500 C   0  0  0  0  0  0  0  0  0  0  0  0
  -24.5497   -5.4400   22.4334 C   0  0  0  0  0  0  0  0  0  0  0  0
  -24.8404  -11.7772   21.1379 C   0  0  0  0  0  0  0  0  0  0  0  0
  -33.4226  -16.1089   23.6439 C   0  0  0  0  0  0  0  0  0  0  0  0
  -31.5072  -14.9837   23.0578 C   0  0  0  0  0  0  0  0  0  0  0  0
  -25.0526  -13.8429   20.4148 C   0  0  0  0  0  0  0  0  0  0  0  0
  -22.7532  -13.2780   21.2159 C   0  0  0  0  0  0  0  0  0  0  0  0
  -31.0993  -25.2084   18.3981 C   0  0  0  0  0  0  0  0  0  0  0  0
  -28.4160  -23.5518   19.1580 C   0  0  0  0  0  0  0  0  0  0  0  0
  -27.0327  -20.7190   20.4654 C   0  0  0  0  0  0  0  0  0  0  0  0
  -31.0117  -14.1482   20.7334 C   0  0  0  0  0  0  0  0  0  0  0  0
  -30.3896  -29.7651   16.2093 C   0  0  0  0  0  0  0  0  0  0  0  0
  -31.5527  -22.9848   17.3000 C   0  0  0  0  0  0  0  0  0  0  0  0
  -30.5902  -22.6614   20.0774 C   0  0  0  0  0  0  0  0  0  0  0  0
  -29.6485  -28.9245   17.2460 C   0  0  0  0  0  0  0  0  0  0  0  0
  -29.0471  -13.9053   17.7739 C   0  0  0  0  0  0  0  0  0  0  0  0
  -30.6135  -28.4239   18.3160 C   0  0  0  0  0  0  0  0  0  0  0  0
  -27.6789  -13.4469   18.2837 C   0  0  0  0  0  0  0  0  0  0  0  0
  -30.1892  -13.2652   18.5612 C   0  0  0  0  0  0  0  0  0  0  0  0
  -28.7364  -12.9666   20.5282 C   0  0  0  0  0  0  0  0  0  0  0  0
  -31.6944  -27.5231   17.7062 C   0  0  1  0  0  0  0  0  0  0  0  0
  -30.5079  -23.9194   17.9018 C   0  0  1  0  0  0  0  0  0  0  0  0
  -27.5536  -13.6348   19.8083 C   0  0  2  0  0  0  0  0  0  0  0  0
  -24.8135  -19.6708   20.9883 C   0  0  0  0  0  0  0  0  0  0  0  0
  -28.1330  -25.3706   21.5915 C   0  0  0  0  0  0  0  0  0  0  0  0
  -26.5157  -23.7180   22.5516 C   0  0  0  0  0  0  0  0  0  0  0  0
  -25.9881  -24.8743   20.4051 C   0  0  0  0  0  0  0  0  0  0  0  0
  -27.5466  -18.4450   18.6423 C   0  0  0  0  0  0  0  0  0  0  0  0
  -34.7458  -16.6818   23.2293 C   0  0  0  0  0  0  0  0  0  0  0  0
  -35.9128  -18.3492   21.7814 C   0  0  0  0  0  0  0  0  0  0  0  0
  -35.6628  -19.3612   20.6808 C   0  0  0  0  0  0  0  0  0  1  0  0
  -27.7750  -23.0861   20.4431 C   0  0  1  0  0  0  0  0  0  0  0  0
  -25.9245  -19.8133   19.9596 C   0  0  2  0  0  0  0  0  0  0  0  0
  -27.1293  -24.2542   21.2405 C   0  0  0  0  0  0  0  0  0  0  0  0
  -26.1191  -11.8709   20.7634 N   0  0  0  0  0  0  0  0  0  0  0  0
  -32.6986  -15.4983   22.6792 N   0  0  0  0  0  0  0  0  0  0  0  0
  -26.2173  -13.1386   20.3281 N   0  0  0  0  0  0  0  0  0  0  0  0
  -29.7920  -23.3165   19.0280 N   0  0  0  0  0  0  0  0  0  0  0  0
  -30.0058  -13.4875   19.9971 N   0  0  0  0  0  0  0  0  0  0  0  0
  -24.9749  -15.1317   20.0205 N   0  0  0  0  0  0  0  0  0  0  0  0
  -21.9427  -12.2715   21.7586 N   0  0  0  0  0  0  0  0  0  0  0  0
  -30.7120  -14.3317   22.0829 N   0  0  0  0  0  0  0  0  0  0  0  0
  -31.1624  -26.2036   17.4414 N   0  0  0  0  0  0  0  0  0  0  0  0
  -26.8420  -22.0272   20.0735 N   0  0  0  0  0  0  0  0  0  0  0  0
  -26.4618  -18.4565   19.6572 N   0  3  0  0  0  0  0  0  0  0  0  0
  -34.6255  -17.7204   22.1707 N   0  3  0  0  0  0  0  0  0  0  0  0
  -22.2540  -14.4022   20.9698 O   0  0  0  0  0  0  0  0  0  0  0  0
  -31.4695  -25.2943   19.5631 O   0  0  0  0  0  0  0  0  0  0  0  0
  -27.7199  -24.0976   18.2983 O   0  0  0  0  0  0  0  0  0  0  0  0
  -27.9716  -20.3079   21.1436 O   0  0  0  0  0  0  0  0  0  0  0  0
  -32.0499  -14.5479   20.2000 O   0  0  0  0  0  0  0  0  0  0  0  0
  -22.8697   -6.9760   23.2190 O   0  0  0  0  0  0  0  0  0  0  0  0
  -34.7795  -20.3760   21.1567 O   0  0  0  0  0  0  0  0  0  1  0  0
  -24.2175   -2.3037   20.6196 F   0  0  0  0  0  0  0  0  0  0  0  0
  -25.5144   -6.2219   22.9372 F   0  0  0  0  0  0  0  0  0  0  0  0
  1  2  1  0  0  0  0
  1  6  2  0  0  0  0
  2  7  2  0  0  0  0
  3 14  2  0  0  0  0
  3 15  1  0  0  0  0
  4  9  2  0  0  0  0
  4 18  1  0  0  0  0
  5 10  1  0  0  0  0
  5 18  2  0  0  0  0
  6 20  1  0  0  0  0
  7 22  1  0  0  0  0
  8 11  2  0  0  0  0
  8 21  1  0  0  0  0
  9 24  1  0  0  0  0
 10 24  2  0  0  0  0
 11 25  1  0  0  0  0
 12 13  2  0  0  0  0
 12 26  1  0  0  0  0
 13 27  1  0  0  0  0
 14 30  1  0  0  0  0
 15 31  2  0  0  0  0
 16 23  1  0  0  0  0
 16 25  2  0  0  0  0
 17 27  2  0  0  0  0
 17 28  1  0  0  0  0
 18 29  1  0  0  0  0
 19 29  1  0  0  0  0
 19 32  2  0  0  0  0
 19 33  1  0  0  0  0
 20 22  2  0  0  0  0
 20 38  1  0  0  0  0
 21 23  2  0  0  0  0
 21 39  1  0  0  0  0
 22 47  1  0  0  0  0
 23 40  1  0  0  0  0
 24 78  1  0  0  0  0
 25 79  1  0  0  0  0
 26 28  2  0  0  0  0
 26 78  1  0  0  0  0
 27 80  1  0  0  0  0
 28 81  1  0  0  0  0
 29 61  2  0  0  0  0
 30 55  1  0  0  0  0
 30 62  2  0  0  0  0
 31 62  1  0  0  0  0
 31 68  1  0  0  0  0
 32 63  1  0  0  0  0
 32 66  1  0  0  0  0
 33 67  1  0  0  0  0
 33 73  2  0  0  0  0
 34 48  1  0  0  0  0
 34 69  1  0  0  0  0
 34 74  2  0  0  0  0
 35 58  1  0  0  0  0
 35 64  1  0  0  0  0
 35 75  2  0  0  0  0
 36 59  1  0  0  0  0
 36 70  1  0  0  0  0
 36 76  2  0  0  0  0
 37 65  1  0  0  0  0
 37 68  1  0  0  0  0
 37 77  2  0  0  0  0
 38 41  1  0  0  0  0
 39 48  1  0  0  0  0
 40 64  1  0  0  0  0
 41 43  1  0  0  0  0
 42 44  1  0  0  0  0
 42 45  1  0  0  0  0
 43 47  1  0  0  0  0
 44 49  1  0  0  0  0
 45 65  1  0  0  0  0
 46 49  1  0  0  0  0
 46 65  1  0  0  0  0
 47 69  1  0  0  0  0
 48 64  1  0  0  0  0
 49 63  1  0  0  0  0
 50 59  1  0  0  0  0
 51 60  1  0  0  0  0
 52 60  1  0  0  0  0
 53 60  1  0  0  0  0
 54 71  1  0  0  0  0
 55 72  1  0  0  0  0
 56 57  1  0  0  0  0
 56 72  1  0  0  0  0
 57 79  1  0  0  0  0
 58 60  1  0  0  0  0
 58 70  1  0  0  0  0
 59 71  1  0  0  0  0
 61 63  1  0  0  0  0
M  CHG  2  71   1  72   1
M  ISO  4  37 100  57 101  68 100  79 101
M  END
> <Batch ID>
0126

> <Smiles>
CNC(C)C(=O)NC(C(=O)N1Cc2cc([101O:1][101CH2:1]CNCc3cccc([100NH:0][100C:0](=O)N4CCCC(n5nc(-c6ccc(Oc7ccc(F)cc7F)cc6)c(C(N)=O)c5N)C4)n3)ccc2CC1C(=O)NC1CCCc2ccccc21)C(C)(C)C

> <Shape>
0.206

> <Color>
0.145

> <Negative vol penalty>
0.000

$$$$
