
  -OEChem-04052320403D

 79 87  0     1  0  0  0  0  0999 V2000
  -26.2557  -33.1308   18.4077 C   0  0  0  0  0  0  0  0  0  0  0  0
  -26.8579  -31.9800   18.9060 C   0  0  0  0  0  0  0  0  0  0  0  0
  -23.1007   -9.8373   19.9341 C   0  0  0  0  0  0  0  0  0  0  0  0
  -23.8695   -9.8462   22.2244 C   0  0  0  0  0  0  0  0  0  0  0  0
  -25.3740  -33.0446   17.3311 C   0  0  0  0  0  0  0  0  0  0  0  0
  -26.5779  -30.7420   18.3287 C   0  0  0  0  0  0  0  0  0  0  0  0
  -30.4333  -26.0292   17.6725 C   0  0  0  0  0  0  0  0  0  0  0  0
  -29.1411  -18.7571   21.0185 C   0  0  0  0  0  0  0  0  0  0  0  0
  -31.3554  -18.5679   20.0707 C   0  0  0  0  0  0  0  0  0  0  0  0
  -28.8580  -19.8089   20.1472 C   0  0  0  0  0  0  0  0  0  0  0  0
  -31.0723  -19.6197   19.1994 C   0  0  0  0  0  0  0  0  0  0  0  0
  -22.3825   -8.6671   20.1797 C   0  0  0  0  0  0  0  0  0  0  0  0
  -23.1512   -8.6760   22.4701 C   0  0  0  0  0  0  0  0  0  0  0  0
  -30.6269  -24.8652   18.4152 C   0  0  0  0  0  0  0  0  0  0  0  0
  -19.9432   -7.8061   23.0802 C   0  0  0  0  0  0  0  0  0  0  0  0
  -19.1920   -7.7429   24.2538 C   0  0  0  0  0  0  0  0  0  0  0  0
  -29.1880  -23.6642   16.8965 C   0  0  0  0  0  0  0  0  0  0  0  0
  -20.4772   -5.8277   24.9732 C   0  0  0  0  0  0  0  0  0  0  0  0
  -23.8443  -10.4268   20.9564 C   0  0  0  0  0  0  0  0  0  0  0  0
  -24.1320  -12.9594   20.8509 C   0  0  0  0  0  0  0  0  0  0  0  0
  -25.0904  -31.8062   16.7341 C   0  0  0  0  0  0  0  0  0  0  0  0
  -29.6055  -26.0219   16.5406 C   0  0  0  0  0  0  0  0  0  0  0  0
  -25.6905  -30.6389   17.2439 C   0  0  0  0  0  0  0  0  0  0  0  0
  -28.9876  -24.8287   16.1397 C   0  0  0  0  0  0  0  0  0  0  0  0
  -30.3898  -18.1366   20.9803 C   0  0  0  0  0  0  0  0  0  0  0  0
  -29.8236  -20.2402   19.2377 C   0  0  0  0  0  0  0  0  0  0  0  0
  -22.4077   -8.0864   21.4477 C   0  0  0  0  0  0  0  0  0  0  0  0
  -30.0019  -23.6832   18.0289 C   0  0  0  0  0  0  0  0  0  0  0  0
  -20.9613   -6.8801   22.8531 C   0  0  0  0  0  0  0  0  0  0  0  0
  -19.4590   -6.7537   25.2003 C   0  0  0  0  0  0  0  0  0  0  0  0
  -21.2283   -5.8909   23.7996 C   0  0  0  0  0  0  0  0  0  0  0  0
  -24.5869  -11.6354   20.7032 C   0  0  0  0  0  0  0  0  0  0  0  0
  -25.2065  -13.7341   20.4881 C   0  0  0  0  0  0  0  0  0  0  0  0
  -22.8525  -13.4455   21.2780 C   0  0  0  0  0  0  0  0  0  0  0  0
  -26.9174  -27.5054   15.7179 C   0  0  0  0  0  0  0  0  0  0  0  0
  -27.4575  -26.0678   12.8607 C   0  0  0  0  0  0  0  0  0  0  0  0
  -28.9270  -23.5185   11.1320 C   0  0  0  0  0  0  0  0  0  0  0  0
  -30.6681  -14.8682   20.6614 C   0  0  0  0  0  0  0  0  0  0  0  0
  -24.0943  -31.7568   15.6028 C   0  0  0  0  0  0  0  0  0  0  0  0
  -29.4283  -27.2796   15.7349 C   0  0  0  0  0  0  0  0  0  0  0  0
  -28.1054  -24.7632   14.9207 C   0  0  0  0  0  0  0  0  0  0  0  0
  -24.1397  -30.4546   14.8075 C   0  0  0  0  0  0  0  0  0  0  0  0
  -29.5717  -12.4749   18.2642 C   0  0  0  0  0  0  0  0  0  0  0  0
  -24.1751  -29.2550   15.7492 C   0  0  0  0  0  0  0  0  0  0  0  0
  -28.1426  -12.1480   18.7009 C   0  0  0  0  0  0  0  0  0  0  0  0
  -30.4888  -12.7077   19.4629 C   0  0  0  0  0  0  0  0  0  0  0  0
  -28.5776  -13.3896   20.8614 C   0  0  0  0  0  0  0  0  0  0  0  0
  -25.4311  -29.2809   16.6286 C   0  0  1  0  0  0  0  0  0  0  0  0
  -28.1542  -27.2771   14.8958 C   0  0  1  0  0  0  0  0  0  0  0  0
  -27.6026  -13.2017   19.6865 C   0  0  2  0  0  0  0  0  0  0  0  0
  -29.1577  -22.5866    8.8134 C   0  0  0  0  0  0  0  0  0  0  0  0
  -24.6287  -24.9379   13.0360 C   0  0  0  0  0  0  0  0  0  0  0  0
  -25.2453  -23.3033   11.2426 C   0  0  0  0  0  0  0  0  0  0  0  0
  -25.2883  -25.7512   10.7649 C   0  0  0  0  0  0  0  0  0  0  0  0
  -31.8638  -23.8847   11.1519 C   0  0  0  0  0  0  0  0  0  0  0  0
  -30.6933  -17.0120   21.9115 C   0  0  0  0  0  0  0  0  0  0  0  0
  -29.5177  -21.3705   18.2996 C   0  0  0  0  0  0  0  0  0  1  0  0
  -27.0774  -24.7449   12.2408 C   0  0  1  0  0  0  0  0  0  0  0  0
  -29.7581  -23.5105    9.8616 C   0  0  2  0  0  0  0  0  0  0  0  0
  -25.5749  -24.6857   11.8452 C   0  0  0  0  0  0  0  0  0  0  0  0
  -25.8518  -11.5690   20.2794 N   0  0  0  0  0  0  0  0  0  0  0  0
  -26.2008  -12.8611   20.1576 N   0  0  0  0  0  0  0  0  0  0  0  0
  -27.9582  -26.0208   14.1695 N   0  0  0  0  0  0  0  0  0  0  0  0
  -29.9201  -13.7188   20.3574 N   0  0  0  0  0  0  0  0  0  0  0  0
  -25.3883  -15.0702   20.4226 N   0  0  0  0  0  0  0  0  0  0  0  0
  -21.8615  -12.5130   21.6135 N   0  0  0  0  0  0  0  0  0  0  0  0
  -26.5846  -28.8373   15.8756 N   0  0  0  0  0  0  0  0  0  0  0  0
  -27.9970  -24.5365   11.1275 N   0  0  0  0  0  0  0  0  0  0  0  0
  -30.0528  -15.7789   21.5116 N   0  0  0  0  0  0  0  0  0  0  0  0
  -31.1456  -23.0516   10.1533 N   0  3  0  0  0  0  0  0  0  0  0  0
  -22.5905  -14.6704   21.3440 O   0  0  0  0  0  0  0  0  0  0  0  0
  -26.3092  -26.5444   16.1741 O   0  0  0  0  0  0  0  0  0  0  0  0
  -27.3221  -27.1040   12.2052 O   0  0  0  0  0  0  0  0  0  0  0  0
  -29.0845  -22.7010   12.0361 O   0  0  0  0  0  0  0  0  0  0  0  0
  -31.7982  -15.0706   20.2045 O   0  0  0  0  0  0  0  0  0  0  0  0
  -21.7068   -6.9447   21.6878 O   0  0  0  0  0  0  0  0  0  0  0  0
  -30.1886  -22.5458   18.7524 O   0  0  0  0  0  0  0  0  0  1  0  0
  -18.7385   -6.6940   26.3279 F   0  0  0  0  0  0  0  0  0  0  0  0
  -22.2060   -4.9993   23.5875 F   0  0  0  0  0  0  0  0  0  0  0  0
  1  2  1  0  0  0  0
  1  5  2  0  0  0  0
  2  6  2  0  0  0  0
  3 12  2  0  0  0  0
  3 19  1  0  0  0  0
  4 13  1  0  0  0  0
  4 19  2  0  0  0  0
  5 21  1  0  0  0  0
  6 23  1  0  0  0  0
  7 14  2  0  0  0  0
  7 22  1  0  0  0  0
  8 10  2  0  0  0  0
  8 25  1  0  0  0  0
  9 11  1  0  0  0  0
  9 25  2  0  0  0  0
 10 26  1  0  0  0  0
 11 26  2  0  0  0  0
 12 27  1  0  0  0  0
 13 27  2  0  0  0  0
 14 28  1  0  0  0  0
 15 16  2  0  0  0  0
 15 29  1  0  0  0  0
 16 30  1  0  0  0  0
 17 24  1  0  0  0  0
 17 28  2  0  0  0  0
 18 30  2  0  0  0  0
 18 31  1  0  0  0  0
 19 32  1  0  0  0  0
 20 32  1  0  0  0  0
 20 33  2  0  0  0  0
 20 34  1  0  0  0  0
 21 23  2  0  0  0  0
 21 39  1  0  0  0  0
 22 24  2  0  0  0  0
 22 40  1  0  0  0  0
 23 48  1  0  0  0  0
 24 41  1  0  0  0  0
 25 56  1  0  0  0  0
 26 57  1  0  0  0  0
 27 76  1  0  0  0  0
 28 77  1  0  0  0  0
 29 31  2  0  0  0  0
 29 76  1  0  0  0  0
 30 78  1  0  0  0  0
 31 79  1  0  0  0  0
 32 61  2  0  0  0  0
 33 62  1  0  0  0  0
 33 65  1  0  0  0  0
 34 66  1  0  0  0  0
 34 71  2  0  0  0  0
 35 49  1  0  0  0  0
 35 67  1  0  0  0  0
 35 72  2  0  0  0  0
 36 58  1  0  0  0  0
 36 63  1  0  0  0  0
 36 73  2  0  0  0  0
 37 59  1  0  0  0  0
 37 68  1  0  0  0  0
 37 74  2  0  0  0  0
 38 64  1  0  0  0  0
 38 69  1  0  0  0  0
 38 75  2  0  0  0  0
 39 42  1  0  0  0  0
 40 49  1  0  0  0  0
 41 63  1  0  0  0  0
 42 44  1  0  0  0  0
 43 45  1  0  0  0  0
 43 46  1  0  0  0  0
 44 48  1  0  0  0  0
 45 50  1  0  0  0  0
 46 64  1  0  0  0  0
 47 50  1  0  0  0  0
 47 64  1  0  0  0  0
 48 67  1  0  0  0  0
 49 63  1  0  0  0  0
 50 62  1  0  0  0  0
 51 59  1  0  0  0  0
 52 60  1  0  0  0  0
 53 60  1  0  0  0  0
 54 60  1  0  0  0  0
 55 70  1  0  0  0  0
 56 69  1  0  0  0  0
 57 77  1  0  0  0  0
 58 60  1  0  0  0  0
 58 68  1  0  0  0  0
 59 70  1  0  0  0  0
 61 62  1  0  0  0  0
M  CHG  1  70   1
M  ISO  4  38 100  57 101  69 100  77 101
M  END
> <Batch ID>
0127

> <Smiles>
CNC(C)C(=O)NC(C(=O)N1Cc2cc([101O:1][101CH2:1]c3ccc(C[100NH:0][100C:0](=O)N4CCCC(n5nc(-c6ccc(Oc7ccc(F)cc7F)cc6)c(C(N)=O)c5N)C4)cc3)ccc2CC1C(=O)NC1CCCc2ccccc21)C(C)(C)C

> <Shape>
0.232

> <Color>
0.203

> <Negative vol penalty>
0.000

$$$$

  -OEChem-04052320403D

 85 93  0     1  0  0  0  0  0999 V2000
  -28.3234  -33.4110   20.3539 C   0  0  0  0  0  0  0  0  0  0  0  0
  -28.3731  -32.1391   20.9154 C   0  0  0  0  0  0  0  0  0  0  0  0
  -24.0340  -11.0969   23.6757 C   0  0  0  0  0  0  0  0  0  0  0  0
  -24.0484  -13.4890   24.0137 C   0  0  0  0  0  0  0  0  0  0  0  0
  -27.1687  -34.1823   20.4788 C   0  0  0  0  0  0  0  0  0  0  0  0
  -27.2683  -31.6382   21.6031 C   0  0  0  0  0  0  0  0  0  0  0  0
  -26.2217  -26.8404   20.3659 C   0  0  0  0  0  0  0  0  0  0  0  0
  -23.4783  -10.9211   24.9429 C   0  0  0  0  0  0  0  0  0  0  0  0
  -23.4925  -13.3133   25.2809 C   0  0  0  0  0  0  0  0  0  0  0  0
  -27.0176  -25.8477   20.9359 C   0  0  0  0  0  0  0  0  0  0  0  0
  -20.4419  -12.6955   26.5971 C   0  0  0  0  0  0  0  0  0  0  0  0
  -19.3873  -13.5322   26.9623 C   0  0  0  0  0  0  0  0  0  0  0  0
  -25.2958  -25.4134   22.5687 C   0  0  0  0  0  0  0  0  0  0  0  0
  -29.1457  -19.6383   22.4435 C   0  0  0  0  0  0  0  0  0  0  0  0
  -20.6860  -14.3558   28.8257 C   0  0  0  0  0  0  0  0  0  0  0  0
  -29.5737  -19.1014   19.8026 C   0  0  0  0  0  0  0  0  0  0  0  0
  -24.3191  -12.3808   23.2111 C   0  0  0  0  0  0  0  0  0  0  0  0
  -24.2038  -12.7389   20.6880 C   0  0  0  0  0  0  0  0  0  0  0  0
  -26.0458  -33.6867   21.1600 C   0  0  0  0  0  0  0  0  0  0  0  0
  -24.9593  -27.1350   20.9006 C   0  0  0  0  0  0  0  0  0  0  0  0
  -26.0979  -32.4041   21.7384 C   0  0  0  0  0  0  0  0  0  0  0  0
  -24.4848  -26.4085   22.0021 C   0  0  0  0  0  0  0  0  0  0  0  0
  -29.9397  -18.5536   22.0879 C   0  0  0  0  0  0  0  0  0  0  0  0
  -30.1627  -18.2732   20.7444 C   0  0  0  0  0  0  0  0  0  0  0  0
  -23.2075  -12.0293   25.7455 C   0  0  0  0  0  0  0  0  0  0  0  0
  -26.5559  -25.1360   22.0393 C   0  0  0  0  0  0  0  0  0  0  0  0
  -21.6185  -12.6889   27.3463 C   0  0  0  0  0  0  0  0  0  0  0  0
  -19.5093  -14.3623   28.0766 C   0  0  0  0  0  0  0  0  0  0  0  0
  -21.7406  -13.5190   28.4605 C   0  0  0  0  0  0  0  0  0  0  0  0
  -24.8938  -12.5630   21.9024 C   0  0  0  0  0  0  0  0  0  0  0  0
  -28.6024  -20.4055   21.4256 C   0  0  0  0  0  0  0  0  0  0  0  0
  -25.1947  -12.8670   19.7456 C   0  0  0  0  0  0  0  0  0  0  0  0
  -22.7933  -12.7828   20.4345 C   0  0  0  0  0  0  0  0  0  0  0  0
  -23.6248  -29.7012   22.2188 C   0  0  0  0  0  0  0  0  0  0  0  0
  -20.9515  -27.8652   22.1504 C   0  0  0  0  0  0  0  0  0  0  0  0
  -19.5852  -24.7390   22.0662 C   0  0  0  0  0  0  0  0  0  0  0  0
  -30.9000  -14.6590   20.0454 C   0  0  0  0  0  0  0  0  0  0  0  0
  -24.8367  -34.5758   21.3098 C   0  0  0  0  0  0  0  0  0  0  0  0
  -24.1019  -28.1904   20.2577 C   0  0  0  0  0  0  0  0  0  0  0  0
  -23.1284  -26.6723   22.6013 C   0  0  0  0  0  0  0  0  0  0  0  0
  -23.5766  -33.8245   21.7316 C   0  0  0  0  0  0  0  0  0  0  0  0
  -29.6991  -11.5304   18.8428 C   0  0  0  0  0  0  0  0  0  0  0  0
  -23.8824  -32.8747   22.8853 C   0  0  0  0  0  0  0  0  0  0  0  0
  -28.2691  -11.4561   19.3810 C   0  0  0  0  0  0  0  0  0  0  0  0
  -30.6421  -12.2041   19.8373 C   0  0  0  0  0  0  0  0  0  0  0  0
  -28.7737  -13.4585   20.8420 C   0  0  0  0  0  0  0  0  0  0  0  0
  -24.9112  -31.8160   22.4705 C   0  0  1  0  0  0  0  0  0  0  0  0
  -23.0464  -28.7592   21.2010 C   0  0  1  0  0  0  0  0  0  0  0  0
  -27.7745  -12.8373   19.8511 C   0  0  2  0  0  0  0  0  0  0  0  0
  -17.3720  -23.5560   22.0564 C   0  0  0  0  0  0  0  0  0  0  0  0
  -31.8997  -19.5940   24.2052 C   0  0  0  0  0  0  0  0  0  0  0  0
  -32.4896  -17.2107   24.6907 C   0  0  0  0  0  0  0  0  0  0  0  0
  -20.6416  -28.4254   25.1337 C   0  0  0  0  0  0  0  0  0  0  0  0
  -19.0332  -26.5106   25.2553 C   0  0  0  0  0  0  0  0  0  0  0  0
  -18.5068  -28.4909   23.8327 C   0  0  0  0  0  0  0  0  0  0  0  0
  -20.1266  -23.5025   19.4324 C   0  0  0  0  0  0  0  0  0  0  0  0
  -30.5406  -17.7069   23.1605 C   0  0  0  0  0  0  0  0  0  0  0  0
  -31.0043  -17.1246   20.3080 C   0  0  0  0  0  0  0  0  0  0  0  0
  -27.5354  -21.8381   23.1676 C   0  0  0  0  0  0  0  0  0  0  0  0
  -26.6565  -23.0764   23.2241 C   0  0  0  0  0  0  0  0  0  1  0  0
  -20.3081  -26.8780   23.0941 C   0  0  1  0  0  0  0  0  0  0  0  0
  -18.4869  -24.1426   21.2045 C   0  0  2  0  0  0  0  0  0  0  0  0
  -31.9379  -18.1734   23.6362 C   0  0  0  0  0  0  0  0  0  0  0  0
  -19.6488  -27.5723   24.3191 C   0  0  0  0  0  0  0  0  0  0  0  0
  -28.7965  -20.1641   20.1096 N   0  0  0  0  0  0  0  0  0  0  0  0
  -26.2205  -12.5773   21.7485 N   0  0  0  0  0  0  0  0  0  0  0  0
  -26.3721  -12.7637   20.4262 N   0  0  0  0  0  0  0  0  0  0  0  0
  -22.3300  -27.7184   21.9411 N   0  0  0  0  0  0  0  0  0  0  0  0
  -30.1161  -13.5101   20.2418 N   0  0  0  0  0  0  0  0  0  0  0  0
  -25.1650  -13.0567   18.4093 N   0  0  0  0  0  0  0  0  0  0  0  0
  -21.9151  -12.6344   21.5166 N   0  0  0  0  0  0  0  0  0  0  0  0
  -27.8138  -21.4825   21.7950 N   0  0  0  0  0  0  0  0  0  0  0  0
  -24.2826  -30.7861   21.6714 N   0  0  0  0  0  0  0  0  0  0  0  0
  -19.3856  -26.0851   22.2886 N   0  0  0  0  0  0  0  0  0  0  0  0
  -30.3239  -15.8567   20.4508 N   0  0  0  0  0  0  0  0  0  0  0  0
  -19.0368  -23.0603   20.3400 N   0  3  0  0  0  0  0  0  0  0  0  0
  -22.3255  -12.9322   19.2802 O   0  0  0  0  0  0  0  0  0  0  0  0
  -23.4834  -29.4621   23.4123 O   0  0  0  0  0  0  0  0  0  0  0  0
  -20.2552  -28.7301   21.6131 O   0  0  0  0  0  0  0  0  0  0  0  0
  -20.5241  -24.0762   22.5017 O   0  0  0  0  0  0  0  0  0  0  0  0
  -32.0274  -14.6209   19.5409 O   0  0  0  0  0  0  0  0  0  0  0  0
  -22.6649  -11.8582   26.9820 O   0  0  0  0  0  0  0  0  0  0  0  0
  -27.3310  -24.1670   22.5980 O   0  0  0  0  0  0  0  0  0  1  0  0
  -18.4971  -15.1669   28.4262 F   0  0  0  0  0  0  0  0  0  0  0  0
  -22.8690  -13.5179   29.1834 F   0  0  0  0  0  0  0  0  0  0  0  0
  1  2  1  0  0  0  0
  1  5  2  0  0  0  0
  2  6  2  0  0  0  0
  3  8  2  0  0  0  0
  3 17  1  0  0  0  0
  4  9  1  0  0  0  0
  4 17  2  0  0  0  0
  5 19  1  0  0  0  0
  6 21  1  0  0  0  0
  7 10  2  0  0  0  0
  7 20  1  0  0  0  0
  8 25  1  0  0  0  0
  9 25  2  0  0  0  0
 10 26  1  0  0  0  0
 11 12  2  0  0  0  0
 11 27  1  0  0  0  0
 12 28  1  0  0  0  0
 13 22  1  0  0  0  0
 13 26  2  0  0  0  0
 14 23  2  0  0  0  0
 14 31  1  0  0  0  0
 15 28  2  0  0  0  0
 15 29  1  0  0  0  0
 16 24  2  0  0  0  0
 16 65  1  0  0  0  0
 17 30  1  0  0  0  0
 18 30  1  0  0  0  0
 18 32  2  0  0  0  0
 18 33  1  0  0  0  0
 19 21  2  0  0  0  0
 19 38  1  0  0  0  0
 20 22  2  0  0  0  0
 20 39  1  0  0  0  0
 21 47  1  0  0  0  0
 22 40  1  0  0  0  0
 23 24  1  0  0  0  0
 23 57  1  0  0  0  0
 24 58  1  0  0  0  0
 25 82  1  0  0  0  0
 26 83  1  0  0  0  0
 27 29  2  0  0  0  0
 27 82  1  0  0  0  0
 28 84  1  0  0  0  0
 29 85  1  0  0  0  0
 30 66  2  0  0  0  0
 31 65  2  0  0  0  0
 31 72  1  0  0  0  0
 32 67  1  0  0  0  0
 32 70  1  0  0  0  0
 33 71  1  0  0  0  0
 33 77  2  0  0  0  0
 34 48  1  0  0  0  0
 34 73  1  0  0  0  0
 34 78  2  0  0  0  0
 35 61  1  0  0  0  0
 35 68  1  0  0  0  0
 35 79  2  0  0  0  0
 36 62  1  0  0  0  0
 36 74  1  0  0  0  0
 36 80  2  0  0  0  0
 37 69  1  0  0  0  0
 37 75  1  0  0  0  0
 37 81  2  0  0  0  0
 38 41  1  0  0  0  0
 39 48  1  0  0  0  0
 40 68  1  0  0  0  0
 41 43  1  0  0  0  0
 42 44  1  0  0  0  0
 42 45  1  0  0  0  0
 43 47  1  0  0  0  0
 44 49  1  0  0  0  0
 45 69  1  0  0  0  0
 46 49  1  0  0  0  0
 46 69  1  0  0  0  0
 47 73  1  0  0  0  0
 48 68  1  0  0  0  0
 49 67  1  0  0  0  0
 50 62  1  0  0  0  0
 51 63  1  0  0  0  0
 52 63  1  0  0  0  0
 53 64  1  0  0  0  0
 54 64  1  0  0  0  0
 55 64  1  0  0  0  0
 56 76  1  0  0  0  0
 57 63  1  0  0  0  0
 58 75  1  0  0  0  0
 59 60  1  0  0  0  0
 59 72  1  0  0  0  0
 60 83  1  0  0  0  0
 61 64  1  0  0  0  0
 61 74  1  0  0  0  0
 62 76  1  0  0  0  0
 66 67  1  0  0  0  0
M  CHG  1  76   1
M  ISO  4  37 100  60 101  75 100  83 101
M  END
> <Batch ID>
0127

> <Smiles>
CNC(C)C(=O)NC(C(=O)N1Cc2cc([101O:1][101CH2:1]CNc3cc(CC(C)C)c(C[100NH:0][100C:0](=O)N4CCCC(n5nc(-c6ccc(Oc7ccc(F)cc7F)cc6)c(C(N)=O)c5N)C4)cn3)ccc2CC1C(=O)NC1CCCc2ccccc21)C(C)(C)C

> <Shape>
0.227

> <Color>
0.090

> <Negative vol penalty>
0.000

$$$$

  -OEChem-04052320403D

 84 92  0     1  0  0  0  0  0999 V2000
  -32.4120  -14.4413   21.5396 C   0  0  0  0  0  0  0  0  0  0  0  0
  -31.5770  -15.5538   21.5160 C   0  0  0  0  0  0  0  0  0  0  0  0
  -30.0042  -24.0485   19.7123 C   0  0  0  0  0  0  0  0  0  0  0  0
  -27.7244  -23.8694   18.9329 C   0  0  0  0  0  0  0  0  0  0  0  0
  -31.9526  -13.2161   21.0583 C   0  0  0  0  0  0  0  0  0  0  0  0
  -30.2824  -15.4420   21.0101 C   0  0  0  0  0  0  0  0  0  0  0  0
  -25.2956  -18.4090   22.9682 C   0  0  0  0  0  0  0  0  0  0  0  0
  -20.4172  -25.7447   22.1837 C   0  0  0  0  0  0  0  0  0  0  0  0
  -21.9217  -25.3585   24.0343 C   0  0  0  0  0  0  0  0  0  0  0  0
  -30.0639  -22.6624   19.8562 C   0  0  0  0  0  0  0  0  0  0  0  0
  -27.7841  -22.4833   19.0768 C   0  0  0  0  0  0  0  0  0  0  0  0
  -24.6387  -19.5476   22.5036 C   0  0  0  0  0  0  0  0  0  0  0  0
  -20.3684  -24.3727   21.9371 C   0  0  0  0  0  0  0  0  0  0  0  0
  -21.8728  -23.9865   23.7877 C   0  0  0  0  0  0  0  0  0  0  0  0
  -29.0470  -19.8554   17.3680 C   0  0  0  0  0  0  0  0  0  0  0  0
  -28.5377  -19.0751   16.3301 C   0  0  0  0  0  0  0  0  0  0  0  0
  -23.1030  -18.1524   21.2731 C   0  0  0  0  0  0  0  0  0  0  0  0
  -26.9454  -18.0865   17.8547 C   0  0  0  0  0  0  0  0  0  0  0  0
  -28.8345  -24.6520   19.2506 C   0  0  0  0  0  0  0  0  0  0  0  0
  -29.1037  -26.8353   17.9590 C   0  0  0  0  0  0  0  0  0  0  0  0
  -30.6484  -13.0868   20.5552 C   0  0  0  0  0  0  0  0  0  0  0  0
  -24.8671  -17.1316   22.5793 C   0  0  0  0  0  0  0  0  0  0  0  0
  -29.8056  -14.2141   20.5205 C   0  0  0  0  0  0  0  0  0  0  0  0
  -23.7545  -16.9990   21.7361 C   0  0  0  0  0  0  0  0  0  0  0  0
  -21.1939  -26.2376   23.2323 C   0  0  0  0  0  0  0  0  0  0  0  0
  -28.9539  -21.8798   19.5385 C   0  0  0  0  0  0  0  0  0  0  0  0
  -21.0961  -23.4936   22.7390 C   0  0  0  0  0  0  0  0  0  0  0  0
  -23.5441  -19.4195   21.6537 C   0  0  0  0  0  0  0  0  0  0  0  0
  -28.5056  -19.7512   18.6494 C   0  0  0  0  0  0  0  0  0  0  0  0
  -27.4869  -18.1906   16.5734 C   0  0  0  0  0  0  0  0  0  0  0  0
  -27.4548  -18.8668   18.8927 C   0  0  0  0  0  0  0  0  0  0  0  0
  -28.7720  -26.0839   19.1023 C   0  0  0  0  0  0  0  0  0  0  0  0
  -28.8748  -28.1388   18.3265 C   0  0  0  0  0  0  0  0  0  0  0  0
  -29.5764  -26.3945   16.6791 C   0  0  0  0  0  0  0  0  0  0  0  0
  -26.1735  -14.7199   20.9729 C   0  0  0  0  0  0  0  0  0  0  0  0
  -23.4426  -13.1880   21.8201 C   0  0  0  0  0  0  0  0  0  0  0  0
  -20.1676  -13.4081   22.7544 C   0  0  0  0  0  0  0  0  0  0  0  0
  -25.3134  -30.6524   22.4312 C   0  0  0  0  0  0  0  0  0  0  0  0
  -30.2125  -11.7531   20.0024 C   0  0  0  0  0  0  0  0  0  0  0  0
  -25.5698  -15.9125   23.1105 C   0  0  0  0  0  0  0  0  0  0  0  0
  -23.2424  -15.6497   21.3053 C   0  0  0  0  0  0  0  0  0  0  0  0
  -28.7008  -11.6304   19.8286 C   0  0  0  0  0  0  0  0  0  0  0  0
  -28.8468  -30.9978   22.1627 C   0  0  0  0  0  0  0  0  0  0  0  0
  -28.1386  -12.8759   19.1508 C   0  0  0  0  0  0  0  0  0  0  0  0
  -29.2582  -29.8454   21.2447 C   0  0  0  0  0  0  0  0  0  0  0  0
  -27.7008  -30.5992   23.0899 C   0  0  0  0  0  0  0  0  0  0  0  0
  -26.9284  -28.8912   21.4899 C   0  0  0  0  0  0  0  0  0  0  0  0
  -28.3864  -14.1269   20.0023 C   0  0  1  0  0  0  0  0  0  0  0  0
  -25.3650  -14.6774   22.2387 C   0  0  1  0  0  0  0  0  0  0  0  0
  -28.0436  -29.2626   20.4976 C   0  0  2  0  0  0  0  0  0  0  0  0
  -18.1863  -11.9839   23.3406 C   0  0  0  0  0  0  0  0  0  0  0  0
  -23.0386  -12.5384   18.8664 C   0  0  0  0  0  0  0  0  0  0  0  0
  -20.6539  -11.9811   19.3867 C   0  0  0  0  0  0  0  0  0  0  0  0
  -22.4971  -10.6635   20.4303 C   0  0  0  0  0  0  0  0  0  0  0  0
  -19.9990  -14.5590   25.4757 C   0  0  0  0  0  0  0  0  0  0  0  0
  -21.2458  -27.7044   23.4965 C   0  0  0  0  0  0  0  0  0  0  0  0
  -22.9537  -30.5857   21.6653 C   0  0  0  0  0  0  0  0  0  0  0  0
  -22.0955  -29.9235   22.7271 C   0  0  0  0  0  0  0  0  0  0  0  0
  -20.8348  -21.7441   21.1494 C   0  0  0  0  0  0  0  0  0  0  0  0
  -21.5074  -20.4045   20.9202 C   0  0  0  0  0  0  0  0  0  1  0  0
  -22.0712  -13.0309   21.2089 C   0  0  1  0  0  0  0  0  0  0  0  0
  -19.3928  -12.7395   23.8756 C   0  0  2  0  0  0  0  0  0  0  0  0
  -22.0758  -12.0791   19.9795 C   0  0  0  0  0  0  0  0  0  0  0  0
  -28.3637  -26.8465   20.1200 N   0  0  0  0  0  0  0  0  0  0  0  0
  -28.4373  -28.0907   19.6174 N   0  0  0  0  0  0  0  0  0  0  0  0
  -23.9670  -14.4880   21.8464 N   0  0  0  0  0  0  0  0  0  0  0  0
  -26.5800  -30.0558   22.3189 N   0  0  0  0  0  0  0  0  0  0  0  0
  -29.0072  -29.3099   17.6682 N   0  0  0  0  0  0  0  0  0  0  0  0
  -29.7564  -25.0203   16.4704 N   0  0  0  0  0  0  0  0  0  0  0  0
  -27.4426  -14.1877   21.0978 N   0  0  0  0  0  0  0  0  0  0  0  0
  -21.1886  -12.6061   22.2901 N   0  0  0  0  0  0  0  0  0  0  0  0
  -24.3082  -30.0796   21.6617 N   0  0  0  0  0  0  0  0  0  0  0  0
  -18.9142  -13.7574   24.8532 N   0  3  0  0  0  0  0  0  0  0  0  0
  -22.0776  -28.4529   22.5140 N   0  3  0  0  0  0  0  0  0  0  0  0
  -29.8471  -27.1967   15.7536 O   0  0  0  0  0  0  0  0  0  0  0  0
  -25.6816  -15.1986   19.9577 O   0  0  0  0  0  0  0  0  0  0  0  0
  -24.0239  -12.1949   22.2646 O   0  0  0  0  0  0  0  0  0  0  0  0
  -19.8920  -14.5282   22.3301 O   0  0  0  0  0  0  0  0  0  0  0  0
  -25.0957  -31.6270   23.1591 O   0  0  0  0  0  0  0  0  0  0  0  0
  -29.0118  -20.5272   19.6786 O   0  0  0  0  0  0  0  0  0  0  0  0
  -21.0470  -22.1459   22.4974 O   0  0  0  0  0  0  0  0  0  0  0  0
  -22.9015  -20.5293   21.1983 O   0  0  0  0  0  0  0  0  0  1  0  0
  -26.9968  -17.4425   15.5763 F   0  0  0  0  0  0  0  0  0  0  0  0
  -26.9297  -18.7632   20.1213 F   0  0  0  0  0  0  0  0  0  0  0  0
  1  2  1  0  0  0  0
  1  5  2  0  0  0  0
  2  6  2  0  0  0  0
  3 10  2  0  0  0  0
  3 19  1  0  0  0  0
  4 11  1  0  0  0  0
  4 19  2  0  0  0  0
  5 21  1  0  0  0  0
  6 23  1  0  0  0  0
  7 12  2  0  0  0  0
  7 22  1  0  0  0  0
  8 13  2  0  0  0  0
  8 25  1  0  0  0  0
  9 14  1  0  0  0  0
  9 25  2  0  0  0  0
 10 26  1  0  0  0  0
 11 26  2  0  0  0  0
 12 28  1  0  0  0  0
 13 27  1  0  0  0  0
 14 27  2  0  0  0  0
 15 16  2  0  0  0  0
 15 29  1  0  0  0  0
 16 30  1  0  0  0  0
 17 24  1  0  0  0  0
 17 28  2  0  0  0  0
 18 30  2  0  0  0  0
 18 31  1  0  0  0  0
 19 32  1  0  0  0  0
 20 32  1  0  0  0  0
 20 33  2  0  0  0  0
 20 34  1  0  0  0  0
 21 23  2  0  0  0  0
 21 39  1  0  0  0  0
 22 24  2  0  0  0  0
 22 40  1  0  0  0  0
 23 48  1  0  0  0  0
 24 41  1  0  0  0  0
 25 56  1  0  0  0  0
 26 80  1  0  0  0  0
 27 81  1  0  0  0  0
 28 82  1  0  0  0  0
 29 31  2  0  0  0  0
 29 80  1  0  0  0  0
 30 83  1  0  0  0  0
 31 84  1  0  0  0  0
 32 64  2  0  0  0  0
 33 65  1  0  0  0  0
 33 68  1  0  0  0  0
 34 69  1  0  0  0  0
 34 75  2  0  0  0  0
 35 49  1  0  0  0  0
 35 70  1  0  0  0  0
 35 76  2  0  0  0  0
 36 61  1  0  0  0  0
 36 66  1  0  0  0  0
 36 77  2  0  0  0  0
 37 62  1  0  0  0  0
 37 71  1  0  0  0  0
 37 78  2  0  0  0  0
 38 67  1  0  0  0  0
 38 72  1  0  0  0  0
 38 79  2  0  0  0  0
 39 42  1  0  0  0  0
 40 49  1  0  0  0  0
 41 66  1  0  0  0  0
 42 44  1  0  0  0  0
 43 45  1  0  0  0  0
 43 46  1  0  0  0  0
 44 48  1  0  0  0  0
 45 50  1  0  0  0  0
 46 67  1  0  0  0  0
 47 50  1  0  0  0  0
 47 67  1  0  0  0  0
 48 70  1  0  0  0  0
 49 66  1  0  0  0  0
 50 65  1  0  0  0  0
 51 62  1  0  0  0  0
 52 63  1  0  0  0  0
 53 63  1  0  0  0  0
 54 63  1  0  0  0  0
 55 73  1  0  0  0  0
 56 74  1  0  0  0  0
 57 58  1  0  0  0  0
 57 72  1  0  0  0  0
 58 74  1  0  0  0  0
 59 60  1  0  0  0  0
 59 81  1  0  0  0  0
 60 82  1  0  0  0  0
 61 63  1  0  0  0  0
 61 71  1  0  0  0  0
 62 73  1  0  0  0  0
 64 65  1  0  0  0  0
M  CHG  2  73   1  74   1
M  ISO  4  38 100  60 101  72 100  82 101
M  END
> <Batch ID>
0127

> <Smiles>
CNC(C)C(=O)NC(C(=O)N1Cc2cc([101O:1][101CH2:1]COc3ccc(CNCC[100NH:0][100C:0](=O)N4CCCC(n5nc(-c6ccc(Oc7ccc(F)cc7F)cc6)c(C(N)=O)c5N)C4)cc3)ccc2CC1C(=O)NC1CCCc2ccccc21)C(C)(C)C

> <Shape>
0.247

> <Color>
0.076

> <Negative vol penalty>
0.000

$$$$

  -OEChem-04052320403D

 86 95  0     1  0  0  0  0  0999 V2000
  -15.7736  -25.3321   24.2049 C   0  0  0  0  0  0  0  0  0  0  0  0
  -16.8992  -24.7586   23.6222 C   0  0  0  0  0  0  0  0  0  0  0  0
  -22.8868  -10.0214   20.0536 C   0  0  0  0  0  0  0  0  0  0  0  0
  -23.6300  -10.0788   22.3517 C   0  0  0  0  0  0  0  0  0  0  0  0
  -15.6674  -26.7192   24.2962 C   0  0  0  0  0  0  0  0  0  0  0  0
  -17.9189  -25.5722   23.1295 C   0  0  0  0  0  0  0  0  0  0  0  0
  -22.5238  -23.9302   24.4502 C   0  0  0  0  0  0  0  0  0  0  0  0
  -22.0820   -8.9191   20.3414 C   0  0  0  0  0  0  0  0  0  0  0  0
  -22.8251   -8.9766   22.6396 C   0  0  0  0  0  0  0  0  0  0  0  0
  -23.0458  -22.8542   23.7336 C   0  0  0  0  0  0  0  0  0  0  0  0
  -22.9459   -5.6247   22.2143 C   0  0  0  0  0  0  0  0  0  0  0  0
  -25.3064  -19.0965   19.0838 C   0  0  0  0  0  0  0  0  0  0  0  0
  -23.5019   -4.5977   22.9771 C   0  0  0  0  0  0  0  0  0  0  0  0
  -24.8839  -20.2715   19.6955 C   0  0  0  0  0  0  0  0  0  0  0  0
  -24.3725  -24.3811   22.4191 C   0  0  0  0  0  0  0  0  0  0  0  0
  -21.8000   -4.9264   24.6601 C   0  0  0  0  0  0  0  0  0  0  0  0
  -23.6609  -10.6012   21.0588 C   0  0  0  0  0  0  0  0  0  0  0  0
  -24.1351  -13.0985   20.8439 C   0  0  0  0  0  0  0  0  0  0  0  0
  -16.6906  -27.5500   23.8131 C   0  0  0  0  0  0  0  0  0  0  0  0
  -22.9146  -25.2428   24.1488 C   0  0  0  0  0  0  0  0  0  0  0  0
  -17.8257  -26.9718   23.2133 C   0  0  0  0  0  0  0  0  0  0  0  0
  -23.8558  -25.4718   23.1351 C   0  0  0  0  0  0  0  0  0  0  0  0
  -22.0511   -8.3967   21.6344 C   0  0  0  0  0  0  0  0  0  0  0  0
  -23.9681  -23.0798   22.7159 C   0  0  0  0  0  0  0  0  0  0  0  0
  -21.8169   -6.3025   22.6745 C   0  0  0  0  0  0  0  0  0  0  0  0
  -26.6531  -18.7513   19.1096 C   0  0  0  0  0  0  0  0  0  0  0  0
  -22.9290   -4.2485   24.2000 C   0  0  0  0  0  0  0  0  0  0  0  0
  -21.2440   -5.9534   23.8974 C   0  0  0  0  0  0  0  0  0  0  0  0
  -24.4930  -11.7395   20.7619 C   0  0  0  0  0  0  0  0  0  0  0  0
  -25.8398  -21.0604   20.3147 C   0  0  0  0  0  0  0  0  0  0  0  0
  -27.5299  -19.6084   19.7549 C   0  0  0  0  0  0  0  0  0  0  0  0
  -25.2675  -13.7754   20.4616 C   0  0  0  0  0  0  0  0  0  0  0  0
  -22.8904  -13.6957   21.2310 C   0  0  0  0  0  0  0  0  0  0  0  0
  -21.4134  -27.8515   23.1266 C   0  0  0  0  0  0  0  0  0  0  0  0
  -24.3025  -29.2380   23.6296 C   0  0  0  0  0  0  0  0  0  0  0  0
  -27.6847  -28.8709   23.8988 C   0  0  0  0  0  0  0  0  0  0  0  0
  -30.7955  -14.5147   20.6597 C   0  0  0  0  0  0  0  0  0  0  0  0
  -16.5096  -29.0452   23.8914 C   0  0  0  0  0  0  0  0  0  0  0  0
  -22.3623  -26.3905   24.9490 C   0  0  0  0  0  0  0  0  0  0  0  0
  -24.3234  -26.8603   22.7860 C   0  0  0  0  0  0  0  0  0  0  0  0
  -17.8040  -29.8272   23.6834 C   0  0  0  0  0  0  0  0  0  0  0  0
  -29.5515  -12.1007   18.3572 C   0  0  0  0  0  0  0  0  0  0  0  0
  -18.5668  -29.2862   22.4783 C   0  0  0  0  0  0  0  0  0  0  0  0
  -28.0977  -11.8993   18.7882 C   0  0  0  0  0  0  0  0  0  0  0  0
  -27.3971  -16.2390   16.4621 C   0  0  0  0  0  0  0  0  0  0  0  0
  -25.9204  -16.3603   16.7008 C   0  0  0  0  0  0  0  0  0  0  0  0
  -30.4706  -12.3206   19.5568 C   0  0  0  0  0  0  0  0  0  0  0  0
  -28.6000  -13.2033   20.8968 C   0  0  0  0  0  0  0  0  0  0  0  0
  -18.9641  -27.8203   22.6896 C   0  0  1  0  0  0  0  0  0  0  0  0
  -22.4428  -27.7248   24.2138 C   0  0  1  0  0  0  0  0  0  0  0  0
  -27.6263  -13.0335   19.7181 C   0  0  2  0  0  0  0  0  0  0  0  0
  -26.8409  -17.4731   17.1129 C   0  0  0  0  0  0  0  0  0  0  0  0
  -29.7857  -30.1908   24.2746 C   0  0  0  0  0  0  0  0  0  0  0  0
  -24.1746  -30.2554   20.7559 C   0  0  0  0  0  0  0  0  0  0  0  0
  -26.6313  -30.7202   20.8848 C   0  0  0  0  0  0  0  0  0  0  0  0
  -25.0569  -31.9105   22.4102 C   0  0  0  0  0  0  0  0  0  0  0  0
  -28.3156  -27.3808   26.3767 C   0  0  0  0  0  0  0  0  0  0  0  0
  -28.9869  -19.2840   19.8104 C   0  0  0  0  0  0  0  0  0  0  0  0
  -25.4194  -22.3351   20.9853 C   0  0  0  0  0  0  0  0  0  1  0  0
  -30.9651  -16.7059   21.8127 C   0  0  0  0  0  0  0  0  0  0  0  0
  -30.7498  -17.8236   20.8095 C   0  0  0  0  0  0  0  0  0  0  0  0
  -25.5417  -29.4594   22.7963 C   0  0  1  0  0  0  0  0  0  0  0  0
  -28.6748  -29.3840   24.9288 C   0  0  2  0  0  0  0  0  0  0  0  0
  -25.3411  -30.5603   21.7168 C   0  0  0  0  0  0  0  0  0  0  0  0
  -25.7540  -11.5617   20.3591 N   0  0  0  0  0  0  0  0  0  0  0  0
  -27.1567  -20.7581   20.3604 N   0  0  0  0  0  0  0  0  0  0  0  0
  -26.1984  -12.8179   20.1844 N   0  0  0  0  0  0  0  0  0  0  0  0
  -23.7496  -27.9501   23.5928 N   0  0  0  0  0  0  0  0  0  0  0  0
  -29.9683  -13.4103   20.3972 N   0  0  0  0  0  0  0  0  0  0  0  0
  -25.5477  -15.0902   20.3389 N   0  0  0  0  0  0  0  0  0  0  0  0
  -21.8301  -12.8543   21.5941 N   0  0  0  0  0  0  0  0  0  0  0  0
  -20.1100  -27.7290   23.5689 N   0  0  0  0  0  0  0  0  0  0  0  0
  -26.6223  -29.7348   23.7370 N   0  0  0  0  0  0  0  0  0  0  0  0
  -30.2399  -15.5058   21.4596 N   0  0  0  0  0  0  0  0  0  0  0  0
  -29.2923  -28.2454   25.6658 N   0  3  0  0  0  0  0  0  0  0  0  0
  -29.3126  -18.2021   20.7790 N   0  3  0  0  0  0  0  0  0  0  0  0
  -22.7184  -14.9382   21.2383 O   0  0  0  0  0  0  0  0  0  0  0  0
  -21.7748  -28.0474   21.9722 O   0  0  0  0  0  0  0  0  0  0  0  0
  -23.8461  -30.1714   24.2945 O   0  0  0  0  0  0  0  0  0  0  0  0
  -27.8403  -27.8117   23.2952 O   0  0  0  0  0  0  0  0  0  0  0  0
  -31.9422  -14.6130   20.2099 O   0  0  0  0  0  0  0  0  0  0  0  0
  -21.2656   -7.3213   21.9157 O   0  0  0  0  0  0  0  0  0  0  0  0
  -27.0759  -17.6063   18.5156 O   0  0  0  0  0  0  0  0  0  0  0  0
  -24.4788  -22.0314   22.0145 O   0  0  0  0  0  0  0  0  0  1  0  0
  -23.4621   -3.2613   24.9316 F   0  0  0  0  0  0  0  0  0  0  0  0
  -20.1587   -6.6002   24.3441 F   0  0  0  0  0  0  0  0  0  0  0  0
  1  2  1  0  0  0  0
  1  5  2  0  0  0  0
  2  6  2  0  0  0  0
  3  8  2  0  0  0  0
  3 17  1  0  0  0  0
  4  9  1  0  0  0  0
  4 17  2  0  0  0  0
  5 19  1  0  0  0  0
  6 21  1  0  0  0  0
  7 10  2  0  0  0  0
  7 20  1  0  0  0  0
  8 23  1  0  0  0  0
  9 23  2  0  0  0  0
 10 24  1  0  0  0  0
 11 13  2  0  0  0  0
 11 25  1  0  0  0  0
 12 14  2  0  0  0  0
 12 26  1  0  0  0  0
 13 27  1  0  0  0  0
 14 30  1  0  0  0  0
 15 22  1  0  0  0  0
 15 24  2  0  0  0  0
 16 27  2  0  0  0  0
 16 28  1  0  0  0  0
 17 29  1  0  0  0  0
 18 29  1  0  0  0  0
 18 32  2  0  0  0  0
 18 33  1  0  0  0  0
 19 21  2  0  0  0  0
 19 38  1  0  0  0  0
 20 22  2  0  0  0  0
 20 39  1  0  0  0  0
 21 49  1  0  0  0  0
 22 40  1  0  0  0  0
 23 82  1  0  0  0  0
 24 84  1  0  0  0  0
 25 28  2  0  0  0  0
 25 82  1  0  0  0  0
 26 31  2  0  0  0  0
 26 83  1  0  0  0  0
 27 85  1  0  0  0  0
 28 86  1  0  0  0  0
 29 65  2  0  0  0  0
 30 59  1  0  0  0  0
 30 66  2  0  0  0  0
 31 58  1  0  0  0  0
 31 66  1  0  0  0  0
 32 67  1  0  0  0  0
 32 70  1  0  0  0  0
 33 71  1  0  0  0  0
 33 77  2  0  0  0  0
 34 50  1  0  0  0  0
 34 72  1  0  0  0  0
 34 78  2  0  0  0  0
 35 62  1  0  0  0  0
 35 68  1  0  0  0  0
 35 79  2  0  0  0  0
 36 63  1  0  0  0  0
 36 73  1  0  0  0  0
 36 80  2  0  0  0  0
 37 69  1  0  0  0  0
 37 74  1  0  0  0  0
 37 81  2  0  0  0  0
 38 41  1  0  0  0  0
 39 50  1  0  0  0  0
 40 68  1  0  0  0  0
 41 43  1  0  0  0  0
 42 44  1  0  0  0  0
 42 47  1  0  0  0  0
 43 49  1  0  0  0  0
 44 51  1  0  0  0  0
 45 46  1  0  0  0  0
 45 52  1  0  0  0  0
 46 52  1  0  0  0  0
 47 69  1  0  0  0  0
 48 51  1  0  0  0  0
 48 69  1  0  0  0  0
 49 72  1  0  0  0  0
 50 68  1  0  0  0  0
 51 67  1  0  0  0  0
 52 83  1  0  0  0  0
 53 63  1  0  0  0  0
 54 64  1  0  0  0  0
 55 64  1  0  0  0  0
 56 64  1  0  0  0  0
 57 75  1  0  0  0  0
 58 76  1  0  0  0  0
 59 84  1  0  0  0  0
 60 61  1  0  0  0  0
 60 74  1  0  0  0  0
 61 76  1  0  0  0  0
 62 64  1  0  0  0  0
 62 73  1  0  0  0  0
 63 75  1  0  0  0  0
 65 67  1  0  0  0  0
M  CHG  2  75   1  76   1
M  ISO  4  37 100  59 101  74 100  84 101
M  END
> <Batch ID>
0127

> <Smiles>
CNC(C)C(=O)NC(C(=O)N1Cc2cc([101O:1][101CH2:1]c3ccc(OC4CC4)c(CNCC[100NH:0][100C:0](=O)N4CCCC(n5nc(-c6ccc(Oc7ccc(F)cc7F)cc6)c(C(N)=O)c5N)C4)n3)ccc2CC1C(=O)NC1CCCc2ccccc21)C(C)(C)C

> <Shape>
0.327

> <Color>
0.197

> <Negative vol penalty>
0.000

$$$$

  -OEChem-04052320403D

 83 91  0     1  0  0  0  0  0999 V2000
  -27.6218  -36.1083   20.7068 C   0  0  0  0  0  0  0  0  0  0  0  0
  -27.9755  -34.7663   20.8033 C   0  0  0  0  0  0  0  0  0  0  0  0
  -27.0151  -16.6441   23.2961 C   0  0  0  0  0  0  0  0  0  0  0  0
  -25.8129  -17.4806   21.3746 C   0  0  0  0  0  0  0  0  0  0  0  0
  -26.4811  -36.5760   21.3579 C   0  0  0  0  0  0  0  0  0  0  0  0
  -27.1892  -33.8913   21.5519 C   0  0  0  0  0  0  0  0  0  0  0  0
  -26.3474  -29.5069   19.1617 C   0  0  0  0  0  0  0  0  0  0  0  0
  -27.0241  -17.9250   23.8481 C   0  0  0  0  0  0  0  0  0  0  0  0
  -25.8219  -18.7615   21.9266 C   0  0  0  0  0  0  0  0  0  0  0  0
  -27.3805  -28.5707   19.1661 C   0  0  0  0  0  0  0  0  0  0  0  0
  -24.1151  -20.4631   24.2956 C   0  0  0  0  0  0  0  0  0  0  0  0
  -22.9261  -21.1914   24.2585 C   0  0  0  0  0  0  0  0  0  0  0  0
  -26.2857  -27.3798   20.9555 C   0  0  0  0  0  0  0  0  0  0  0  0
  -24.0196  -22.9104   22.9598 C   0  0  0  0  0  0  0  0  0  0  0  0
  -26.4095  -16.4218   22.0593 C   0  0  0  0  0  0  0  0  0  0  0  0
  -25.4218  -14.1028   21.6666 C   0  0  0  0  0  0  0  0  0  0  0  0
  -25.6750  -35.7043   22.1070 C   0  0  0  0  0  0  0  0  0  0  0  0
  -25.2793  -29.3924   20.0631 C   0  0  0  0  0  0  0  0  0  0  0  0
  -26.0373  -34.3480   22.2148 C   0  0  0  0  0  0  0  0  0  0  0  0
  -25.2389  -28.3144   20.9588 C   0  0  0  0  0  0  0  0  0  0  0  0
  -26.4275  -18.9837   23.1634 C   0  0  0  0  0  0  0  0  0  0  0  0
  -27.3512  -27.5086   20.0650 C   0  0  0  0  0  0  0  0  0  0  0  0
  -25.2564  -20.9584   23.6649 C   0  0  0  0  0  0  0  0  0  0  0  0
  -22.8783  -22.4151   23.5906 C   0  0  0  0  0  0  0  0  0  0  0  0
  -25.2086  -22.1820   22.9970 C   0  0  0  0  0  0  0  0  0  0  0  0
  -26.4004  -15.0990   21.4883 C   0  0  0  0  0  0  0  0  0  0  0  0
  -25.8728  -13.0411   20.9212 C   0  0  0  0  0  0  0  0  0  0  0  0
  -24.2131  -14.1345   22.4372 C   0  0  0  0  0  0  0  0  0  0  0  0
  -24.1312  -31.1893   22.4204 C   0  0  0  0  0  0  0  0  0  0  0  0
  -21.7765  -28.9584   22.4505 C   0  0  0  0  0  0  0  0  0  0  0  0
  -20.7959  -25.7709   21.7257 C   0  0  0  0  0  0  0  0  0  0  0  0
  -30.3316  -15.4131   18.6957 C   0  0  0  0  0  0  0  0  0  0  0  0
  -24.4775  -36.2656   22.8320 C   0  0  0  0  0  0  0  0  0  0  0  0
  -24.1592  -30.3957   20.0276 C   0  0  0  0  0  0  0  0  0  0  0  0
  -24.1045  -28.1351   21.9332 C   0  0  0  0  0  0  0  0  0  0  0  0
  -23.4914  -35.1972   23.2973 C   0  0  0  0  0  0  0  0  0  0  0  0
  -30.1480  -12.4858   20.7364 C   0  0  0  0  0  0  0  0  0  0  0  0
  -30.1677  -16.4939   15.2382 C   0  0  0  0  0  0  0  0  0  0  0  0
  -24.2304  -34.0464   23.9726 C   0  0  0  0  0  0  0  0  0  0  0  0
  -28.9110  -11.7430   20.2437 C   0  0  0  0  0  0  0  0  0  0  0  0
  -29.8113  -17.8095   15.9160 C   0  0  0  0  0  0  0  0  0  0  0  0
  -30.8593  -13.1689   19.5787 C   0  0  0  0  0  0  0  0  0  0  0  0
  -29.6722  -15.4603   16.2377 C   0  0  0  0  0  0  0  0  0  0  0  0
  -28.7062  -13.4774   18.3725 C   0  0  0  0  0  0  0  0  0  0  0  0
  -25.1961  -33.3628   22.9971 C   0  0  1  0  0  0  0  0  0  0  0  0
  -23.3801  -30.4680   21.3372 C   0  0  1  0  0  0  0  0  0  0  0  0
  -27.9605  -12.6474   19.4429 C   0  0  2  0  0  0  0  0  0  0  0  0
  -30.0864  -17.5283   17.3957 C   0  0  1  0  0  0  0  0  0  0  0  0
  -18.8240  -24.2287   21.9005 C   0  0  0  0  0  0  0  0  0  0  0  0
  -30.8852  -21.9329   20.1197 C   0  0  0  0  0  0  0  0  0  0  0  0
  -22.3168  -28.6096   25.4331 C   0  0  0  0  0  0  0  0  0  0  0  0
  -21.0370  -26.4597   25.3425 C   0  0  0  0  0  0  0  0  0  0  0  0
  -19.8961  -28.6119   24.8047 C   0  0  0  0  0  0  0  0  0  0  0  0
  -20.6534  -25.4322   18.7891 C   0  0  0  0  0  0  0  0  0  0  0  0
  -29.1647  -18.3276   18.3078 C   0  0  0  0  0  0  0  0  0  0  0  0
  -28.9332  -24.2879   19.7326 C   0  0  0  0  0  0  0  0  0  0  0  0
  -28.8697  -20.6073   19.2849 C   0  0  0  0  0  0  0  0  0  0  0  0
  -28.0277  -25.2644   20.4674 C   0  0  0  0  0  0  0  0  0  1  0  0
  -21.5570  -27.6451   23.1619 C   0  0  1  0  0  0  0  0  0  0  0  0
  -19.5613  -25.2313   21.0264 C   0  0  2  0  0  0  0  0  0  0  0  0
  -29.5236  -21.9807   19.4333 C   0  0  1  0  0  0  0  0  0  0  0  0
  -21.2242  -27.8358   24.6686 C   0  0  0  0  0  0  0  0  0  0  0  0
  -27.3979  -14.7052   20.6921 N   0  0  0  0  0  0  0  0  0  0  0  0
  -27.0486  -13.4498   20.3637 N   0  0  0  0  0  0  0  0  0  0  0  0
  -23.0362  -29.1457   21.8640 N   0  0  0  0  0  0  0  0  0  0  0  0
  -29.9688  -14.0659   18.8419 N   0  0  0  0  0  0  0  0  0  0  0  0
  -29.9079  -16.0788   17.5432 N   0  0  0  0  0  0  0  0  0  0  0  0
  -25.3745  -11.8070   20.6948 N   0  0  0  0  0  0  0  0  0  0  0  0
  -23.9010  -15.3045   23.1427 N   0  0  0  0  0  0  0  0  0  0  0  0
  -24.4725  -32.4891   22.0985 N   0  0  0  0  0  0  0  0  0  0  0  0
  -20.5273  -26.9392   22.4072 N   0  0  0  0  0  0  0  0  0  0  0  0
  -28.6457  -22.9061   20.1106 N   0  0  0  0  0  0  0  0  0  0  0  0
  -19.9408  -24.5553   19.7536 N   0  3  0  0  0  0  0  0  0  0  0  0
  -29.7084  -19.6941   18.4576 N   0  3  0  0  0  0  0  0  0  0  0  0
  -23.4412  -13.1485   22.5113 O   0  0  0  0  0  0  0  0  0  0  0  0
  -24.3811  -30.6101   23.4709 O   0  0  0  0  0  0  0  0  0  0  0  0
  -20.8614  -29.7847   22.4102 O   0  0  0  0  0  0  0  0  0  0  0  0
  -21.8884  -25.2101   21.6758 O   0  0  0  0  0  0  0  0  0  0  0  0
  -31.0126  -15.9931   19.5518 O   0  0  0  0  0  0  0  0  0  0  0  0
  -26.4359  -20.2337   23.7019 O   0  0  0  0  0  0  0  0  0  0  0  0
  -28.3659  -26.5873   20.0719 O   0  0  0  0  0  0  0  0  0  1  0  0
  -21.7361  -23.1137   23.5538 F   0  0  0  0  0  0  0  0  0  0  0  0
  -26.3015  -22.6624   22.3881 F   0  0  0  0  0  0  0  0  0  0  0  0
  1  2  1  0  0  0  0
  1  5  2  0  0  0  0
  2  6  2  0  0  0  0
  3  8  2  0  0  0  0
  3 15  1  0  0  0  0
  4  9  1  0  0  0  0
  4 15  2  0  0  0  0
  5 17  1  0  0  0  0
  6 19  1  0  0  0  0
  7 10  2  0  0  0  0
  7 18  1  0  0  0  0
  8 21  1  0  0  0  0
  9 21  2  0  0  0  0
 10 22  1  0  0  0  0
 11 12  2  0  0  0  0
 11 23  1  0  0  0  0
 12 24  1  0  0  0  0
 13 20  1  0  0  0  0
 13 22  2  0  0  0  0
 14 24  2  0  0  0  0
 14 25  1  0  0  0  0
 15 26  1  0  0  0  0
 16 26  1  0  0  0  0
 16 27  2  0  0  0  0
 16 28  1  0  0  0  0
 17 19  2  0  0  0  0
 17 33  1  0  0  0  0
 18 20  2  0  0  0  0
 18 34  1  0  0  0  0
 19 45  1  0  0  0  0
 20 35  1  0  0  0  0
 21 80  1  0  0  0  0
 22 81  1  0  0  0  0
 23 25  2  0  0  0  0
 23 80  1  0  0  0  0
 24 82  1  0  0  0  0
 25 83  1  0  0  0  0
 26 63  2  0  0  0  0
 27 64  1  0  0  0  0
 27 68  1  0  0  0  0
 28 69  1  0  0  0  0
 28 75  2  0  0  0  0
 29 46  1  0  0  0  0
 29 70  1  0  0  0  0
 29 76  2  0  0  0  0
 30 59  1  0  0  0  0
 30 65  1  0  0  0  0
 30 77  2  0  0  0  0
 31 60  1  0  0  0  0
 31 71  1  0  0  0  0
 31 78  2  0  0  0  0
 32 66  1  0  0  0  0
 32 67  1  0  0  0  0
 32 79  2  0  0  0  0
 33 36  1  0  0  0  0
 34 46  1  0  0  0  0
 35 65  1  0  0  0  0
 36 39  1  0  0  0  0
 37 40  1  0  0  0  0
 37 42  1  0  0  0  0
 38 41  1  0  0  0  0
 38 43  1  0  0  0  0
 39 45  1  0  0  0  0
 40 47  1  0  0  0  0
 41 48  1  0  0  0  0
 42 66  1  0  0  0  0
 43 67  1  0  0  0  0
 44 47  1  0  0  0  0
 44 66  1  0  0  0  0
 45 70  1  0  0  0  0
 46 65  1  0  0  0  0
 47 64  1  0  0  0  0
 48 55  1  0  0  0  0
 48 67  1  0  0  0  0
 49 60  1  0  0  0  0
 50 61  1  0  0  0  0
 51 62  1  0  0  0  0
 52 62  1  0  0  0  0
 53 62  1  0  0  0  0
 54 73  1  0  0  0  0
 55 74  1  0  0  0  0
 56 58  1  0  0  0  0
 56 72  1  0  0  0  0
 57 61  1  0  0  0  0
 57 74  1  0  0  0  0
 58 81  1  0  0  0  0
 59 62  1  0  0  0  0
 59 71  1  0  0  0  0
 60 73  1  0  0  0  0
 61 72  1  0  0  0  0
 63 64  1  0  0  0  0
M  CHG  2  73   1  74   1
M  ISO  4  32 100  58 101  67 100  81 101
M  END
> <Batch ID>
0127

> <Smiles>
CNC(C)C(=O)NC(C(=O)N1Cc2cc([101O:1][101CH2:1]CNC(C)CNCC3CCC[100N:0]3[100C:0](=O)N3CCCC(n4nc(-c5ccc(Oc6ccc(F)cc6F)cc5)c(C(N)=O)c4N)C3)ccc2CC1C(=O)NC1CCCc2ccccc21)C(C)(C)C

> <Shape>
0.254

> <Color>
0.076

> <Negative vol penalty>
0.000

$$$$

  -OEChem-04052320403D

 86 95  0     1  0  0  0  0  0999 V2000
  -27.2117  -18.7697   17.5028 C   0  0  0  0  0  0  0  0  0  0  0  0
  -26.2673  -19.7901   17.4544 C   0  0  0  0  0  0  0  0  0  0  0  0
  -22.7344  -16.8094   19.0020 C   0  0  0  0  0  0  0  0  0  0  0  0
  -24.2414  -18.3988   20.0218 C   0  0  0  0  0  0  0  0  0  0  0  0
  -28.2047  -18.7862   18.4814 C   0  0  0  0  0  0  0  0  0  0  0  0
  -26.3148  -20.8272   18.3854 C   0  0  0  0  0  0  0  0  0  0  0  0
  -24.9346  -27.8279   19.0191 C   0  0  0  0  0  0  0  0  0  0  0  0
  -23.6774  -15.7980   19.1849 C   0  0  0  0  0  0  0  0  0  0  0  0
  -25.1844  -17.3873   20.2047 C   0  0  0  0  0  0  0  0  0  0  0  0
  -24.2311  -28.7179   19.8295 C   0  0  0  0  0  0  0  0  0  0  0  0
  -24.7611  -13.8301   21.7119 C   0  0  0  0  0  0  0  0  0  0  0  0
  -24.3124  -12.6085   22.2137 C   0  0  0  0  0  0  0  0  0  0  0  0
  -26.0393  -28.6841   21.4259 C   0  0  0  0  0  0  0  0  0  0  0  0
  -20.0396  -27.9592   23.8322 C   0  0  0  0  0  0  0  0  0  0  0  0
  -19.8439  -28.5490   21.5088 C   0  0  0  0  0  0  0  0  0  0  0  0
  -25.0951  -11.4999   20.2149 C   0  0  0  0  0  0  0  0  0  0  0  0
  -23.0165  -18.1098   19.4204 C   0  0  0  0  0  0  0  0  0  0  0  0
  -20.7370  -19.2054   19.7543 C   0  0  0  0  0  0  0  0  0  0  0  0
  -28.2702  -19.8291   19.4188 C   0  0  0  0  0  0  0  0  0  0  0  0
  -26.1931  -27.3499   19.4119 C   0  0  0  0  0  0  0  0  0  0  0  0
  -27.3089  -20.8570   19.3782 C   0  0  0  0  0  0  0  0  0  0  0  0
  -26.7578  -27.7900   20.6175 C   0  0  0  0  0  0  0  0  0  0  0  0
  -20.1395  -28.9067   22.8195 C   0  0  0  0  0  0  0  0  0  0  0  0
  -24.9023  -16.0869   19.7863 C   0  0  0  0  0  0  0  0  0  0  0  0
  -24.7822  -29.1439   21.0345 C   0  0  0  0  0  0  0  0  0  0  0  0
  -25.3769  -13.8867   20.4616 C   0  0  0  0  0  0  0  0  0  0  0  0
  -24.4794  -11.4434   21.4652 C   0  0  0  0  0  0  0  0  0  0  0  0
  -25.5439  -12.7216   19.7131 C   0  0  0  0  0  0  0  0  0  0  0  0
  -22.0431  -19.1552   19.2313 C   0  0  0  0  0  0  0  0  0  0  0  0
  -19.6429  -26.6779   23.4847 C   0  0  0  0  0  0  0  0  0  0  0  0
  -19.4562  -27.2412   21.2653 C   0  0  0  0  0  0  0  0  0  0  0  0
  -20.2261  -20.3923   19.2886 C   0  0  0  0  0  0  0  0  0  0  0  0
  -20.0474  -18.2635   20.5868 C   0  0  0  0  0  0  0  0  0  0  0  0
  -27.3965  -24.4842   20.0773 C   0  0  0  0  0  0  0  0  0  0  0  0
  -30.1855  -26.1299   20.2661 C   0  0  0  0  0  0  0  0  0  0  0  0
  -31.7597  -29.1132   20.7843 C   0  0  0  0  0  0  0  0  0  0  0  0
  -20.7592  -25.8525   18.2653 C   0  0  0  0  0  0  0  0  0  0  0  0
  -29.3335  -19.7791   20.4872 C   0  0  0  0  0  0  0  0  0  0  0  0
  -26.9508  -26.4110   18.5138 C   0  0  0  0  0  0  0  0  0  0  0  0
  -28.1145  -27.3224   21.0750 C   0  0  0  0  0  0  0  0  0  0  0  0
  -29.5394  -21.1108   21.2045 C   0  0  0  0  0  0  0  0  0  0  0  0
  -22.0026  -23.6000   15.8042 C   0  0  0  0  0  0  0  0  0  0  0  0
  -28.1965  -21.7202   21.5947 C   0  0  0  0  0  0  0  0  0  0  0  0
  -22.0220  -22.2490   16.5214 C   0  0  0  0  0  0  0  0  0  0  0  0
  -19.9724  -31.3954   22.1988 C   0  0  0  0  0  0  0  0  0  0  0  0
  -22.3715  -24.7442   16.7459 C   0  0  0  0  0  0  0  0  0  0  0  0
  -21.5892  -23.4609   18.6991 C   0  0  0  0  0  0  0  0  0  0  0  0
  -20.0906  -32.7141   22.9425 C   0  0  0  0  0  0  0  0  0  0  0  0
  -20.0299  -30.8385   24.4951 C   0  0  0  0  0  0  0  0  0  0  0  0
  -27.3422  -22.0122   20.3552 C   0  0  1  0  0  0  0  0  0  0  0  0
  -27.9995  -25.5892   19.2569 C   0  0  1  0  0  0  0  0  0  0  0  0
  -21.1692  -22.2826   17.8039 C   0  0  2  0  0  0  0  0  0  0  0  0
  -20.5712  -30.3351   23.1458 C   0  0  1  0  0  0  0  0  0  0  0  0
  -19.5232  -25.6354   24.5457 C   0  0  0  0  0  0  0  0  0  0  0  0
  -34.0471  -30.1371   20.9140 C   0  0  0  0  0  0  0  0  0  0  0  0
  -30.5687  -24.9166   23.0394 C   0  0  0  0  0  0  0  0  0  0  0  0
  -32.3086  -26.6607   23.4856 C   0  0  0  0  0  0  0  0  0  0  0  0
  -32.6432  -25.0098   21.6457 C   0  0  0  0  0  0  0  0  0  0  0  0
  -31.2054  -30.9230   18.5091 C   0  0  0  0  0  0  0  0  0  0  0  0
  -19.1332  -26.8221   19.8700 C   0  0  0  0  0  0  0  0  0  0  0  0
  -22.1129  -30.3874   23.1215 C   0  0  0  0  0  0  0  0  0  0  0  0
  -22.6726  -29.9544   21.7751 C   0  0  0  0  0  0  0  0  0  1  0  0
  -30.9306  -26.8483   21.3651 C   0  0  1  0  0  0  0  0  0  0  0  0
  -32.8631  -29.8169   20.0149 C   0  0  2  0  0  0  0  0  0  0  0  0
  -31.5864  -25.8663   22.3765 C   0  0  0  0  0  0  0  0  0  0  0  0
  -22.3431  -20.2250   18.4899 N   0  0  0  0  0  0  0  0  0  0  0  0
  -19.3476  -26.2931   22.2229 N   0  0  0  0  0  0  0  0  0  0  0  0
  -21.2183  -20.9585   18.5437 N   0  0  0  0  0  0  0  0  0  0  0  0
  -28.8134  -26.3999   20.1650 N   0  0  0  0  0  0  0  0  0  0  0  0
  -21.5250  -24.7204   17.9412 N   0  0  0  0  0  0  0  0  0  0  0  0
  -19.0293  -20.9962   19.4477 N   0  0  0  0  0  0  0  0  0  0  0  0
  -20.1500  -18.4008   21.9778 N   0  0  0  0  0  0  0  0  0  0  0  0
  -27.7998  -23.2180   19.6985 N   0  0  0  0  0  0  0  0  0  0  0  0
  -31.8744  -27.7416   20.7019 N   0  0  0  0  0  0  0  0  0  0  0  0
  -19.9801  -25.7439   19.4107 N   0  0  0  0  0  0  0  0  0  0  0  0
  -20.0580  -32.3351   24.3899 N   0  3  0  0  0  0  0  0  0  0  0  0
  -32.3567  -31.0919   19.4328 N   0  3  0  0  0  0  0  0  0  0  0  0
  -19.3740  -17.3181   20.1111 O   0  0  0  0  0  0  0  0  0  0  0  0
  -26.6238  -24.7600   20.9876 O   0  0  0  0  0  0  0  0  0  0  0  0
  -30.7997  -25.3631   19.5203 O   0  0  0  0  0  0  0  0  0  0  0  0
  -30.8859  -29.7196   21.4000 O   0  0  0  0  0  0  0  0  0  0  0  0
  -20.7651  -26.8817   17.5815 O   0  0  0  0  0  0  0  0  0  0  0  0
  -25.8226  -15.1002   19.9651 O   0  0  0  0  0  0  0  0  0  0  0  0
  -24.0974  -30.0122   21.8277 O   0  0  0  0  0  0  0  0  0  1  0  0
  -24.0497  -10.2701   21.9479 F   0  0  0  0  0  0  0  0  0  0  0  0
  -26.1357  -12.7695   18.5117 F   0  0  0  0  0  0  0  0  0  0  0  0
  1  2  1  0  0  0  0
  1  5  2  0  0  0  0
  2  6  2  0  0  0  0
  3  8  2  0  0  0  0
  3 17  1  0  0  0  0
  4  9  1  0  0  0  0
  4 17  2  0  0  0  0
  5 19  1  0  0  0  0
  6 21  1  0  0  0  0
  7 10  2  0  0  0  0
  7 20  1  0  0  0  0
  8 24  1  0  0  0  0
  9 24  2  0  0  0  0
 10 25  1  0  0  0  0
 11 12  2  0  0  0  0
 11 26  1  0  0  0  0
 12 27  1  0  0  0  0
 13 22  1  0  0  0  0
 13 25  2  0  0  0  0
 14 23  1  0  0  0  0
 14 30  2  0  0  0  0
 15 23  2  0  0  0  0
 15 31  1  0  0  0  0
 16 27  2  0  0  0  0
 16 28  1  0  0  0  0
 17 29  1  0  0  0  0
 18 29  1  0  0  0  0
 18 32  2  0  0  0  0
 18 33  1  0  0  0  0
 19 21  2  0  0  0  0
 19 38  1  0  0  0  0
 20 22  2  0  0  0  0
 20 39  1  0  0  0  0
 21 50  1  0  0  0  0
 22 40  1  0  0  0  0
 23 53  1  0  0  0  0
 24 83  1  0  0  0  0
 25 84  1  0  0  0  0
 26 28  2  0  0  0  0
 26 83  1  0  0  0  0
 27 85  1  0  0  0  0
 28 86  1  0  0  0  0
 29 66  2  0  0  0  0
 30 54  1  0  0  0  0
 30 67  1  0  0  0  0
 31 60  1  0  0  0  0
 31 67  2  0  0  0  0
 32 68  1  0  0  0  0
 32 71  1  0  0  0  0
 33 72  1  0  0  0  0
 33 78  2  0  0  0  0
 34 51  1  0  0  0  0
 34 73  1  0  0  0  0
 34 79  2  0  0  0  0
 35 63  1  0  0  0  0
 35 69  1  0  0  0  0
 35 80  2  0  0  0  0
 36 64  1  0  0  0  0
 36 74  1  0  0  0  0
 36 81  2  0  0  0  0
 37 70  1  0  0  0  0
 37 75  1  0  0  0  0
 37 82  2  0  0  0  0
 38 41  1  0  0  0  0
 39 51  1  0  0  0  0
 40 69  1  0  0  0  0
 41 43  1  0  0  0  0
 42 44  1  0  0  0  0
 42 46  1  0  0  0  0
 43 50  1  0  0  0  0
 44 52  1  0  0  0  0
 45 48  1  0  0  0  0
 45 53  1  0  0  0  0
 46 70  1  0  0  0  0
 47 52  1  0  0  0  0
 47 70  1  0  0  0  0
 48 76  1  0  0  0  0
 49 53  1  0  0  0  0
 49 76  1  0  0  0  0
 50 73  1  0  0  0  0
 51 69  1  0  0  0  0
 52 68  1  0  0  0  0
 53 61  1  0  0  0  0
 55 64  1  0  0  0  0
 56 65  1  0  0  0  0
 57 65  1  0  0  0  0
 58 65  1  0  0  0  0
 59 77  1  0  0  0  0
 60 75  1  0  0  0  0
 61 62  1  0  0  0  0
 62 84  1  0  0  0  0
 63 65  1  0  0  0  0
 63 74  1  0  0  0  0
 64 77  1  0  0  0  0
 66 68  1  0  0  0  0
M  CHG  2  76   1  77   1
M  ISO  4  37 100  62 101  75 100  84 101
M  END
> <Batch ID>
0127

> <Smiles>
CNC(C)C(=O)NC(C(=O)N1Cc2cc([101O:1][101CH2:1]CC3(c4cc(C)nc(C[100NH:0][100C:0](=O)N5CCCC(n6nc(-c7ccc(Oc8ccc(F)cc8F)cc7)c(C(N)=O)c6N)C5)c4)CCNC3)ccc2CC1C(=O)NC1CCCc2ccccc21)C(C)(C)C

> <Shape>
0.216

> <Color>
0.077

> <Negative vol penalty>
0.000

$$$$

  -OEChem-04052320403D

 90 99  0     1  0  0  0  0  0999 V2000
  -24.3438  -37.3174   21.2109 C   0  0  0  0  0  0  0  0  0  0  0  0
  -25.2029  -36.2871   20.8424 C   0  0  0  0  0  0  0  0  0  0  0  0
  -26.8012  -12.8537   20.5269 C   0  0  0  0  0  0  0  0  0  0  0  0
  -24.4889  -13.5104   20.7698 C   0  0  0  0  0  0  0  0  0  0  0  0
  -23.4330  -37.1263   22.2491 C   0  0  0  0  0  0  0  0  0  0  0  0
  -25.1524  -35.0653   21.5126 C   0  0  0  0  0  0  0  0  0  0  0  0
  -26.0960  -29.5094   19.1152 C   0  0  0  0  0  0  0  0  0  0  0  0
  -26.3998  -11.5533   20.2210 C   0  0  0  0  0  0  0  0  0  0  0  0
  -24.0875  -12.2100   20.4638 C   0  0  0  0  0  0  0  0  0  0  0  0
  -27.2099  -28.6711   19.1003 C   0  0  0  0  0  0  0  0  0  0  0  0
  -22.4651   -8.9781   20.0999 C   0  0  0  0  0  0  0  0  0  0  0  0
  -21.4711   -8.4032   20.8917 C   0  0  0  0  0  0  0  0  0  0  0  0
  -26.3434  -27.4957   21.0204 C   0  0  0  0  0  0  0  0  0  0  0  0
  -32.5643  -24.2095   19.4210 C   0  0  0  0  0  0  0  0  0  0  0  0
  -31.7959  -26.4997   19.3849 C   0  0  0  0  0  0  0  0  0  0  0  0
  -22.8775   -8.6551   22.8400 C   0  0  0  0  0  0  0  0  0  0  0  0
  -25.8457  -13.8322   20.8014 C   0  0  0  0  0  0  0  0  0  0  0  0
  -27.0740  -15.5833   22.1916 C   0  0  0  0  0  0  0  0  0  0  0  0
  -23.3647  -35.8984   22.9260 C   0  0  0  0  0  0  0  0  0  0  0  0
  -25.1011  -29.3539   20.0911 C   0  0  0  0  0  0  0  0  0  0  0  0
  -24.2407  -34.8580   22.5617 C   0  0  0  0  0  0  0  0  0  0  0  0
  -25.2167  -28.3317   21.0440 C   0  0  0  0  0  0  0  0  0  0  0  0
  -32.8322  -25.5751   19.5151 C   0  0  0  0  0  0  0  0  0  0  0  0
  -31.2602  -23.7684   19.1966 C   0  0  0  0  0  0  0  0  0  0  0  0
  -30.4917  -26.0586   19.1605 C   0  0  0  0  0  0  0  0  0  0  0  0
  -30.2239  -24.6929   19.0664 C   0  0  0  0  0  0  0  0  0  0  0  0
  -25.0429  -11.2315   20.1894 C   0  0  0  0  0  0  0  0  0  0  0  0
  -27.3352  -27.6659   20.0547 C   0  0  0  0  0  0  0  0  0  0  0  0
  -23.6653   -9.3915   20.6780 C   0  0  0  0  0  0  0  0  0  0  0  0
  -21.6773   -8.2417   22.2618 C   0  0  0  0  0  0  0  0  0  0  0  0
  -23.8715   -9.2300   22.0481 C   0  0  0  0  0  0  0  0  0  0  0  0
  -26.2598  -15.1755   21.1180 C   0  0  0  0  0  0  0  0  0  0  0  0
  -27.1694  -16.9463   22.0517 C   0  0  0  0  0  0  0  0  0  0  0  0
  -27.6891  -14.8000   23.2230 C   0  0  0  0  0  0  0  0  0  0  0  0
  -23.9394  -31.1781   22.4206 C   0  0  0  0  0  0  0  0  0  0  0  0
  -21.8085  -28.7517   22.7281 C   0  0  0  0  0  0  0  0  0  0  0  0
  -21.0852  -25.4520   22.2426 C   0  0  0  0  0  0  0  0  0  0  0  0
  -26.6492  -20.6082   17.3431 C   0  0  0  0  0  0  0  0  0  0  0  0
  -22.3961  -35.7547   24.0731 C   0  0  0  0  0  0  0  0  0  0  0  0
  -23.8926  -30.2493   20.0773 C   0  0  0  0  0  0  0  0  0  0  0  0
  -24.1664  -28.1101   22.1006 C   0  0  0  0  0  0  0  0  0  0  0  0
  -22.1493  -34.3054   24.4840 C   0  0  0  0  0  0  0  0  0  0  0  0
  -30.5331  -20.1587   13.6336 C   0  0  0  0  0  0  0  0  0  0  0  0
  -29.1176  -20.6867   13.4327 C   0  0  0  0  0  0  0  0  0  0  0  0
  -24.7570  -20.7145   20.3572 C   0  0  0  0  0  0  0  0  0  0  0  0
  -23.4698  -33.5501   24.5966 C   0  0  0  0  0  0  0  0  0  0  0  0
  -31.0477  -20.4578   15.0386 C   0  0  0  0  0  0  0  0  0  0  0  0
  -25.0010  -19.3438   20.9908 C   0  0  0  0  0  0  0  0  0  0  0  0
  -28.1650  -20.1477   14.4960 C   0  0  0  0  0  0  0  0  0  0  0  0
  -24.6718  -20.6255   18.8351 C   0  0  0  0  0  0  0  0  0  0  0  0
  -26.0635  -18.5916   18.8219 C   0  0  0  0  0  0  0  0  0  0  0  0
  -24.1992  -33.5101   23.2483 C   0  0  1  0  0  0  0  0  0  0  0  0
  -23.1928  -30.3295   21.4305 C   0  0  1  0  0  0  0  0  0  0  0  0
  -30.1037  -19.9149   16.1247 C   0  0  2  0  0  0  0  0  0  0  0  0
  -26.2127  -18.6385   20.3523 C   0  0  2  0  0  0  0  0  0  0  0  0
  -28.6703  -20.4457   15.9120 C   0  0  2  0  0  0  0  0  0  0  0  0
  -34.2266  -26.0468   19.7543 C   0  0  0  0  0  0  0  0  0  0  0  0
  -28.8257  -24.2196   18.8263 C   0  0  0  0  0  0  0  0  0  0  0  0
  -19.2798  -23.7531   22.6318 C   0  0  0  0  0  0  0  0  0  0  0  0
  -22.5627  -28.6304   25.6822 C   0  0  0  0  0  0  0  0  0  0  0  0
  -21.4850  -26.3733   25.7930 C   0  0  0  0  0  0  0  0  0  0  0  0
  -20.1181  -28.3793   25.2185 C   0  0  0  0  0  0  0  0  0  0  0  0
  -20.7930  -24.9280   19.3445 C   0  0  0  0  0  0  0  0  0  0  0  0
  -30.9999  -22.3004   19.1011 C   0  0  0  0  0  0  0  0  0  0  0  0
  -29.3949  -27.0734   19.0241 C   0  0  0  0  0  0  0  0  0  1  0  0
  -30.8629  -21.7869   17.6541 C   0  0  0  0  0  0  0  0  0  0  0  0
  -21.7565  -27.4687   23.5220 C   0  0  1  0  0  0  0  0  0  0  0  0
  -19.8652  -24.7637   21.6577 C   0  0  2  0  0  0  0  0  0  0  0  0
  -30.6512  -20.2739   17.5091 C   0  0  2  0  0  0  0  0  0  0  0  0
  -21.5015  -27.7181   25.0353 C   0  0  0  0  0  0  0  0  0  0  0  0
  -25.8659  -16.1968   20.3527 N   0  0  0  0  0  0  0  0  0  0  0  0
  -26.4349  -17.2599   20.9461 N   0  0  0  0  0  0  0  0  0  0  0  0
  -23.0066  -29.0154   22.0493 N   0  0  0  0  0  0  0  0  0  0  0  0
  -25.8516  -19.9478   18.2922 N   0  0  0  0  0  0  0  0  0  0  0  0
  -27.8091  -17.8952   22.7678 N   0  0  0  0  0  0  0  0  0  0  0  0
  -26.9753  -14.5773   24.4084 N   0  0  0  0  0  0  0  0  0  0  0  0
  -23.6025  -32.5176   22.3802 N   0  0  0  0  0  0  0  0  0  0  0  0
  -20.7520  -26.6301   22.8770 N   0  0  0  0  0  0  0  0  0  0  0  0
  -27.7518  -19.8974   16.8849 N   0  0  0  0  0  0  0  0  0  0  0  0
  -31.9473  -19.5618   17.6864 N   0  3  0  0  0  0  0  0  0  0  0  0
  -20.2262  -24.0499   20.4003 N   0  3  0  0  0  0  0  0  0  0  0  0
  -28.8443  -14.3259   23.1038 O   0  0  0  0  0  0  0  0  0  0  0  0
  -24.7591  -30.6559   23.1669 O   0  0  0  0  0  0  0  0  0  0  0  0
  -20.8199  -29.4892   22.7053 O   0  0  0  0  0  0  0  0  0  0  0  0
  -22.2199  -24.9890   22.1495 O   0  0  0  0  0  0  0  0  0  0  0  0
  -26.4004  -21.7489   16.9383 O   0  0  0  0  0  0  0  0  0  0  0  0
  -24.6509   -9.9628   19.8907 O   0  0  0  0  0  0  0  0  0  0  0  0
  -28.4217  -26.8467   20.0428 O   0  0  0  0  0  0  0  0  0  1  0  0
  -20.7220   -7.6910   23.0223 F   0  0  0  0  0  0  0  0  0  0  0  0
  -25.0220   -9.6263   22.6095 F   0  0  0  0  0  0  0  0  0  0  0  0
  1  2  1  0  0  0  0
  1  5  2  0  0  0  0
  2  6  2  0  0  0  0
  3  8  2  0  0  0  0
  3 17  1  0  0  0  0
  4  9  1  0  0  0  0
  4 17  2  0  0  0  0
  5 19  1  0  0  0  0
  6 21  1  0  0  0  0
  7 10  2  0  0  0  0
  7 20  1  0  0  0  0
  8 27  1  0  0  0  0
  9 27  2  0  0  0  0
 10 28  1  0  0  0  0
 11 12  2  0  0  0  0
 11 29  1  0  0  0  0
 12 30  1  0  0  0  0
 13 22  1  0  0  0  0
 13 28  2  0  0  0  0
 14 23  1  0  0  0  0
 14 24  2  0  0  0  0
 15 23  2  0  0  0  0
 15 25  1  0  0  0  0
 16 30  2  0  0  0  0
 16 31  1  0  0  0  0
 17 32  1  0  0  0  0
 18 32  1  0  0  0  0
 18 33  2  0  0  0  0
 18 34  1  0  0  0  0
 19 21  2  0  0  0  0
 19 39  1  0  0  0  0
 20 22  2  0  0  0  0
 20 40  1  0  0  0  0
 21 52  1  0  0  0  0
 22 41  1  0  0  0  0
 23 57  1  0  0  0  0
 24 26  1  0  0  0  0
 24 64  1  0  0  0  0
 25 26  2  0  0  0  0
 25 65  1  0  0  0  0
 26 58  1  0  0  0  0
 27 87  1  0  0  0  0
 28 88  1  0  0  0  0
 29 31  2  0  0  0  0
 29 87  1  0  0  0  0
 30 89  1  0  0  0  0
 31 90  1  0  0  0  0
 32 71  2  0  0  0  0
 33 72  1  0  0  0  0
 33 75  1  0  0  0  0
 34 76  1  0  0  0  0
 34 82  2  0  0  0  0
 35 53  1  0  0  0  0
 35 77  1  0  0  0  0
 35 83  2  0  0  0  0
 36 67  1  0  0  0  0
 36 73  1  0  0  0  0
 36 84  2  0  0  0  0
 37 68  1  0  0  0  0
 37 78  1  0  0  0  0
 37 85  2  0  0  0  0
 38 74  1  0  0  0  0
 38 79  1  0  0  0  0
 38 86  2  0  0  0  0
 39 42  1  0  0  0  0
 40 53  1  0  0  0  0
 41 73  1  0  0  0  0
 42 46  1  0  0  0  0
 43 44  1  0  0  0  0
 43 47  1  0  0  0  0
 44 49  1  0  0  0  0
 45 48  1  0  0  0  0
 45 50  1  0  0  0  0
 46 52  1  0  0  0  0
 47 54  1  0  0  0  0
 48 55  1  0  0  0  0
 49 56  1  0  0  0  0
 50 74  1  0  0  0  0
 51 55  1  0  0  0  0
 51 74  1  0  0  0  0
 52 77  1  0  0  0  0
 53 73  1  0  0  0  0
 54 56  1  0  0  0  0
 54 69  1  0  0  0  0
 55 72  1  0  0  0  0
 56 79  1  0  0  0  0
 59 68  1  0  0  0  0
 60 70  1  0  0  0  0
 61 70  1  0  0  0  0
 62 70  1  0  0  0  0
 63 81  1  0  0  0  0
 64 66  1  0  0  0  0
 65 88  1  0  0  0  0
 66 69  1  0  0  0  0
 67 70  1  0  0  0  0
 67 78  1  0  0  0  0
 68 81  1  0  0  0  0
 69 80  1  0  0  0  0
 71 72  1  0  0  0  0
M  CHG  2  80   1  81   1
M  ISO  4  38 100  65 101  79 100  88 101
M  END
> <Batch ID>
0127

> <Smiles>
CNC(C)C(=O)NC(C(=O)N1Cc2cc([101O:1][101CH2:1]c3cc(C)cc(CCC(N)C4CCCCC4[100NH:0][100C:0](=O)N4CCCC(n5nc(-c6ccc(Oc7ccc(F)cc7F)cc6)c(C(N)=O)c5N)C4)c3C)ccc2CC1C(=O)NC1CCCc2ccccc21)C(C)(C)C

> <Shape>
0.247

> <Color>
0.076

> <Negative vol penalty>
0.000

$$$$

  -OEChem-04052320403D

 85 94  0     1  0  0  0  0  0999 V2000
  -27.0634  -32.7340   25.9874 C   0  0  0  0  0  0  0  0  0  0  0  0
  -27.3351  -31.3893   25.7567 C   0  0  0  0  0  0  0  0  0  0  0  0
  -23.0143  -10.0266   19.8984 C   0  0  0  0  0  0  0  0  0  0  0  0
  -23.8804   -9.8402   22.1461 C   0  0  0  0  0  0  0  0  0  0  0  0
  -25.9475  -33.3292   25.4006 C   0  0  0  0  0  0  0  0  0  0  0  0
  -26.4903  -30.6386   24.9399 C   0  0  0  0  0  0  0  0  0  0  0  0
  -28.1026  -26.0956   21.1626 C   0  0  0  0  0  0  0  0  0  0  0  0
  -31.7259  -18.3257   20.2805 C   0  0  0  0  0  0  0  0  0  0  0  0
  -31.5397  -19.4174   19.4379 C   0  0  0  0  0  0  0  0  0  0  0  0
  -22.2615   -8.8685   20.0924 C   0  0  0  0  0  0  0  0  0  0  0  0
  -23.1275   -8.6821   22.3402 C   0  0  0  0  0  0  0  0  0  0  0  0
  -28.0714  -24.7083   21.2971 C   0  0  0  0  0  0  0  0  0  0  0  0
  -19.9167   -7.8873   23.0323 C   0  0  0  0  0  0  0  0  0  0  0  0
  -19.2145   -7.7659   24.2314 C   0  0  0  0  0  0  0  0  0  0  0  0
  -25.9433  -24.6521   20.1626 C   0  0  0  0  0  0  0  0  0  0  0  0
  -20.4525   -5.7578   24.7530 C   0  0  0  0  0  0  0  0  0  0  0  0
  -23.8238  -10.5125   20.9253 C   0  0  0  0  0  0  0  0  0  0  0  0
  -24.2068  -13.0338   20.9877 C   0  0  0  0  0  0  0  0  0  0  0  0
  -25.0939  -32.5878   24.5684 C   0  0  0  0  0  0  0  0  0  0  0  0
  -27.0474  -26.7738   20.5357 C   0  0  0  0  0  0  0  0  0  0  0  0
  -25.3611  -31.2240   24.3425 C   0  0  0  0  0  0  0  0  0  0  0  0
  -25.9647  -26.0479   20.0191 C   0  0  0  0  0  0  0  0  0  0  0  0
  -29.5043  -18.6543   21.2085 C   0  0  0  0  0  0  0  0  0  0  0  0
  -29.3125  -19.7560   20.3533 C   0  0  0  0  0  0  0  0  0  0  0  0
  -30.7118  -17.9418   21.1570 C   0  0  0  0  0  0  0  0  0  0  0  0
  -30.3398  -20.1272   19.4715 C   0  0  0  0  0  0  0  0  0  0  0  0
  -22.3181   -8.1963   21.3133 C   0  0  0  0  0  0  0  0  0  0  0  0
  -26.9903  -23.9866   20.7996 C   0  0  0  0  0  0  0  0  0  0  0  0
  -20.8867   -6.9439   22.6935 C   0  0  0  0  0  0  0  0  0  0  0  0
  -19.4825   -6.7012   25.0918 C   0  0  0  0  0  0  0  0  0  0  0  0
  -21.1546   -5.8792   23.5538 C   0  0  0  0  0  0  0  0  0  0  0  0
  -24.6022  -11.7084   20.7253 C   0  0  0  0  0  0  0  0  0  0  0  0
  -25.2947  -13.7933   20.6325 C   0  0  0  0  0  0  0  0  0  0  0  0
  -22.9672  -13.5337   21.5064 C   0  0  0  0  0  0  0  0  0  0  0  0
  -24.9369  -28.9696   21.4459 C   0  0  0  0  0  0  0  0  0  0  0  0
  -24.1272  -28.9313   18.3050 C   0  0  0  0  0  0  0  0  0  0  0  0
  -24.0695  -27.2275   15.3485 C   0  0  0  0  0  0  0  0  0  0  0  0
  -30.7993  -14.7121   20.6370 C   0  0  0  0  0  0  0  0  0  0  0  0
  -23.8734  -33.2628   23.9944 C   0  0  0  0  0  0  0  0  0  0  0  0
  -27.1087  -28.2681   20.3749 C   0  0  0  0  0  0  0  0  0  0  0  0
  -28.4085  -18.1786   22.1298 C   0  0  0  0  0  0  0  0  0  0  0  0
  -24.8163  -26.7265   19.3197 C   0  0  0  0  0  0  0  0  0  0  0  0
  -23.2372  -32.4920   22.8405 C   0  0  0  0  0  0  0  0  0  0  0  0
  -29.5072  -12.5418   18.1276 C   0  0  0  0  0  0  0  0  0  0  0  0
  -23.1069  -31.0138   23.1936 C   0  0  0  0  0  0  0  0  0  0  0  0
  -28.0863  -12.2362   18.6046 C   0  0  0  0  0  0  0  0  0  0  0  0
  -30.4834  -12.6529   19.2967 C   0  0  0  0  0  0  0  0  0  0  0  0
  -28.6624  -13.3000   20.8261 C   0  0  0  0  0  0  0  0  0  0  0  0
  -27.3679  -19.2458   22.4327 C   0  0  0  0  0  0  0  0  0  0  0  0
  -24.4822  -30.3828   23.4426 C   0  0  1  0  0  0  0  0  0  0  0  0
  -28.0222  -20.5444   20.3778 C   0  0  2  0  0  0  0  0  0  0  0  0
  -25.7366  -28.9044   20.1755 C   0  0  1  0  0  0  0  0  0  0  0  0
  -27.6312  -13.2340   19.6865 C   0  0  2  0  0  0  0  0  0  0  0  0
  -23.3092  -27.4409   12.9666 C   0  0  0  0  0  0  0  0  0  0  0  0
  -21.2475  -28.4338   19.1822 C   0  0  0  0  0  0  0  0  0  0  0  0
  -20.7303  -27.7208   16.8386 C   0  0  0  0  0  0  0  0  0  0  0  0
  -21.4974  -30.0510   17.2910 C   0  0  0  0  0  0  0  0  0  0  0  0
  -31.2990  -21.9314   18.0418 C   0  0  0  0  0  0  0  0  0  0  0  0
  -26.8312  -26.9527   14.3207 C   0  0  0  0  0  0  0  0  0  0  0  0
  -30.9630  -16.7565   22.0344 C   0  0  0  0  0  0  0  0  0  0  0  0
  -28.2107  -21.9509   20.9498 C   0  0  0  0  0  0  0  0  0  1  0  0
  -23.1513  -28.1465   17.4621 C   0  0  1  0  0  0  0  0  0  0  0  0
  -24.4600  -27.6397   13.9407 C   0  0  2  0  0  0  0  0  0  0  0  0
  -21.6772  -28.5751   17.7083 C   0  0  0  0  0  0  0  0  0  0  0  0
  -25.8441  -11.6272   20.2405 N   0  0  0  0  0  0  0  0  0  0  0  0
  -26.2386  -12.9111   20.1955 N   0  0  0  0  0  0  0  0  0  0  0  0
  -24.9195  -28.1897   19.1928 N   0  0  0  0  0  0  0  0  0  0  0  0
  -29.9941  -13.6160   20.2861 N   0  0  0  0  0  0  0  0  0  0  0  0
  -25.5263  -15.1231   20.6543 N   0  0  0  0  0  0  0  0  0  0  0  0
  -21.9553  -12.6158   21.8193 N   0  0  0  0  0  0  0  0  0  0  0  0
  -30.1928  -21.1750   18.5354 N   0  0  0  0  0  0  0  0  0  0  0  0
  -25.1507  -30.1160   22.1871 N   0  0  0  0  0  0  0  0  0  0  0  0
  -23.5940  -28.2954   16.0799 N   0  0  0  0  0  0  0  0  0  0  0  0
  -30.2576  -15.5800   21.5772 N   0  0  0  0  0  0  0  0  0  0  0  0
  -26.9203  -19.8582   21.1476 N   0  3  0  0  0  0  0  0  0  0  0  0
  -25.6206  -26.8331   13.4680 N   0  3  0  0  0  0  0  0  0  0  0  0
  -22.7569  -14.7592   21.6715 O   0  0  0  0  0  0  0  0  0  0  0  0
  -24.1808  -28.0486   21.7318 O   0  0  0  0  0  0  0  0  0  0  0  0
  -24.1896  -30.1564   18.1753 O   0  0  0  0  0  0  0  0  0  0  0  0
  -24.1723  -26.0730   15.7573 O   0  0  0  0  0  0  0  0  0  0  0  0
  -31.9160  -14.9060   20.1445 O   0  0  0  0  0  0  0  0  0  0  0  0
  -21.5834   -7.0663   21.5030 O   0  0  0  0  0  0  0  0  0  0  0  0
  -26.9571  -22.6324   20.9301 O   0  0  0  0  0  0  0  0  0  1  0  0
  -18.8093   -6.5856   26.2440 F   0  0  0  0  0  0  0  0  0  0  0  0
  -22.0862   -4.9704   23.2343 F   0  0  0  0  0  0  0  0  0  0  0  0
  1  2  1  0  0  0  0
  1  5  2  0  0  0  0
  2  6  2  0  0  0  0
  3 10  2  0  0  0  0
  3 17  1  0  0  0  0
  4 11  1  0  0  0  0
  4 17  2  0  0  0  0
  5 19  1  0  0  0  0
  6 21  1  0  0  0  0
  7 12  2  0  0  0  0
  7 20  1  0  0  0  0
  8  9  2  0  0  0  0
  8 25  1  0  0  0  0
  9 26  1  0  0  0  0
 10 27  1  0  0  0  0
 11 27  2  0  0  0  0
 12 28  1  0  0  0  0
 13 14  2  0  0  0  0
 13 29  1  0  0  0  0
 14 30  1  0  0  0  0
 15 22  1  0  0  0  0
 15 28  2  0  0  0  0
 16 30  2  0  0  0  0
 16 31  1  0  0  0  0
 17 32  1  0  0  0  0
 18 32  1  0  0  0  0
 18 33  2  0  0  0  0
 18 34  1  0  0  0  0
 19 21  2  0  0  0  0
 19 39  1  0  0  0  0
 20 22  2  0  0  0  0
 20 40  1  0  0  0  0
 21 50  1  0  0  0  0
 22 42  1  0  0  0  0
 23 24  1  0  0  0  0
 23 25  2  0  0  0  0
 23 41  1  0  0  0  0
 24 26  2  0  0  0  0
 24 51  1  0  0  0  0
 25 60  1  0  0  0  0
 26 71  1  0  0  0  0
 27 82  1  0  0  0  0
 28 83  1  0  0  0  0
 29 31  2  0  0  0  0
 29 82  1  0  0  0  0
 30 84  1  0  0  0  0
 31 85  1  0  0  0  0
 32 65  2  0  0  0  0
 33 66  1  0  0  0  0
 33 69  1  0  0  0  0
 34 70  1  0  0  0  0
 34 77  2  0  0  0  0
 35 52  1  0  0  0  0
 35 72  1  0  0  0  0
 35 78  2  0  0  0  0
 36 62  1  0  0  0  0
 36 67  1  0  0  0  0
 36 79  2  0  0  0  0
 37 63  1  0  0  0  0
 37 73  1  0  0  0  0
 37 80  2  0  0  0  0
 38 68  1  0  0  0  0
 38 74  1  0  0  0  0
 38 81  2  0  0  0  0
 39 43  1  0  0  0  0
 40 52  1  0  0  0  0
 41 49  1  0  0  0  0
 42 67  1  0  0  0  0
 43 45  1  0  0  0  0
 44 46  1  0  0  0  0
 44 47  1  0  0  0  0
 45 50  1  0  0  0  0
 46 53  1  0  0  0  0
 47 68  1  0  0  0  0
 48 53  1  0  0  0  0
 48 68  1  0  0  0  0
 49 75  1  0  0  0  0
 50 72  1  0  0  0  0
 51 61  1  0  0  0  0
 51 75  1  0  0  0  0
 52 67  1  0  0  0  0
 53 66  1  0  0  0  0
 54 63  1  0  0  0  0
 55 64  1  0  0  0  0
 56 64  1  0  0  0  0
 57 64  1  0  0  0  0
 58 71  1  0  0  0  0
 59 76  1  0  0  0  0
 60 74  1  0  0  0  0
 61 83  1  0  0  0  0
 62 64  1  0  0  0  0
 62 73  1  0  0  0  0
 63 76  1  0  0  0  0
 65 66  1  0  0  0  0
M  CHG  2  75   1  76   1
M  ISO  4  38 100  61 101  74 100  83 101
M  END
> <Batch ID>
0127

> <Smiles>
CNc1ccc(C[100NH:0][100C:0](=O)N2CCCC(n3nc(-c4ccc(Oc5ccc(F)cc5F)cc4)c(C(N)=O)c3N)C2)c2c1C([101CH2:1][101O:1]c1ccc3c(c1)CN(C(=O)C(NC(=O)C(C)NC)C(C)(C)C)C(C(=O)NC1CCCc4ccccc41)C3)NCC2

> <Shape>
0.346

> <Color>
0.192

> <Negative vol penalty>
0.000

$$$$

  -OEChem-04052320403D

 81 89  0     1  0  0  0  0  0999 V2000
  -32.4960  -23.7854   28.0475 C   0  0  0  0  0  0  0  0  0  0  0  0
  -32.0881  -23.9299   26.7253 C   0  0  0  0  0  0  0  0  0  0  0  0
  -28.1424  -26.6299   15.1314 C   0  0  0  0  0  0  0  0  0  0  0  0
  -29.3448  -25.9831   14.8462 C   0  0  0  0  0  0  0  0  0  0  0  0
  -27.8043  -13.8636   21.9478 C   0  0  0  0  0  0  0  0  0  0  0  0
  -27.4026  -14.4762   19.6455 C   0  0  0  0  0  0  0  0  0  0  0  0
  -31.5845  -23.3647   29.0150 C   0  0  0  0  0  0  0  0  0  0  0  0
  -30.7686  -23.6526   26.3696 C   0  0  0  0  0  0  0  0  0  0  0  0
  -28.7993  -27.1762   23.3116 C   0  0  0  0  0  0  0  0  0  0  0  0
  -27.6244  -26.6002   16.4262 C   0  0  0  0  0  0  0  0  0  0  0  0
  -30.0293  -25.3064   15.8558 C   0  0  0  0  0  0  0  0  0  0  0  0
  -26.9171  -12.7951   21.8183 C   0  0  0  0  0  0  0  0  0  0  0  0
  -26.5154  -13.4077   19.5160 C   0  0  0  0  0  0  0  0  0  0  0  0
  -29.1643  -27.1281   21.9668 C   0  0  0  0  0  0  0  0  0  0  0  0
  -24.4832  -10.1200   22.1976 C   0  0  0  0  0  0  0  0  0  0  0  0
  -23.5580   -9.9156   23.2213 C   0  0  0  0  0  0  0  0  0  0  0  0
  -27.0764  -26.0382   21.4454 C   0  0  0  0  0  0  0  0  0  0  0  0
  -22.6429  -12.1178   22.8339 C   0  0  0  0  0  0  0  0  0  0  0  0
  -28.0470  -14.7042   20.8614 C   0  0  0  0  0  0  0  0  0  0  0  0
  -30.3492  -15.7974   20.7497 C   0  0  0  0  0  0  0  0  0  0  0  0
  -30.2507  -23.0914   28.6728 C   0  0  0  0  0  0  0  0  0  0  0  0
  -27.5728  -26.6449   23.7356 C   0  0  0  0  0  0  0  0  0  0  0  0
  -29.8387  -23.2266   27.3333 C   0  0  0  0  0  0  0  0  0  0  0  0
  -26.6971  -26.0830   22.7957 C   0  0  0  0  0  0  0  0  0  0  0  0
  -28.3088  -25.9236   17.4358 C   0  0  0  0  0  0  0  0  0  0  0  0
  -29.5113  -25.2767   17.1507 C   0  0  0  0  0  0  0  0  0  0  0  0
  -26.2726  -12.5672   20.6024 C   0  0  0  0  0  0  0  0  0  0  0  0
  -28.3040  -26.5565   21.0340 C   0  0  0  0  0  0  0  0  0  0  0  0
  -24.4883  -11.3234   21.4922 C   0  0  0  0  0  0  0  0  0  0  0  0
  -22.6379  -10.9145   23.5394 C   0  0  0  0  0  0  0  0  0  0  0  0
  -23.5682  -12.3222   21.8103 C   0  0  0  0  0  0  0  0  0  0  0  0
  -28.9630  -15.8084   20.9947 C   0  0  0  0  0  0  0  0  0  0  0  0
  -30.7558  -17.0813   21.0195 C   0  0  0  0  0  0  0  0  0  0  0  0
  -31.1938  -14.7227   20.3168 C   0  0  0  0  0  0  0  0  0  0  0  0
  -26.7019  -24.3094   25.7081 C   0  0  0  0  0  0  0  0  0  0  0  0
  -23.7229  -25.4477   25.1149 C   0  0  0  0  0  0  0  0  0  0  0  0
  -21.6392  -27.1613   23.0248 C   0  0  0  0  0  0  0  0  0  0  0  0
  -30.0374  -22.6007   20.6129 C   0  0  0  0  0  0  0  0  0  0  0  0
  -29.3136  -22.5939   29.7447 C   0  0  0  0  0  0  0  0  0  0  0  0
  -27.1823  -26.7285   25.1858 C   0  0  0  0  0  0  0  0  0  0  0  0
  -25.3602  -25.5170   23.1966 C   0  0  0  0  0  0  0  0  0  0  0  0
  -27.8404  -22.6809   29.3542 C   0  0  0  0  0  0  0  0  0  0  0  0
  -28.3044  -20.9157   23.2272 C   0  0  0  0  0  0  0  0  0  0  0  0
  -27.6287  -22.1368   27.9449 C   0  0  0  0  0  0  0  0  0  0  0  0
  -28.4303  -19.4371   22.8559 C   0  0  0  0  0  0  0  0  0  0  0  0
  -28.1420  -21.7964   21.9903 C   0  0  0  0  0  0  0  0  0  0  0  0
  -29.3087  -20.1379   20.5896 C   0  0  0  0  0  0  0  0  0  0  0  0
  -28.4097  -22.9593   26.9129 C   0  0  1  0  0  0  0  0  0  0  0  0
  -26.1332  -25.6945   25.5827 C   0  0  1  0  0  0  0  0  0  0  0  0
  -29.5307  -19.2158   21.8006 C   0  0  2  0  0  0  0  0  0  0  0  0
  -19.2509  -27.8953   22.7911 C   0  0  0  0  0  0  0  0  0  0  0  0
  -22.9289  -22.6071   24.3332 C   0  0  0  0  0  0  0  0  0  0  0  0
  -20.8894  -23.5546   23.2327 C   0  0  0  0  0  0  0  0  0  0  0  0
  -21.2215  -23.8318   25.6895 C   0  0  0  0  0  0  0  0  0  0  0  0
  -22.3981  -30.0219   23.0118 C   0  0  0  0  0  0  0  0  0  0  0  0
  -27.7285  -25.9079   18.8194 C   0  0  0  0  0  0  0  0  0  1  0  0
  -31.4527  -23.9094   17.9170 C   0  0  0  0  0  0  0  0  0  0  0  0
  -31.9635  -23.2512   19.1896 C   0  0  0  0  0  0  0  0  0  0  0  0
  -22.6545  -25.1626   24.0871 C   0  0  1  0  0  0  0  0  0  0  0  0
  -20.6379  -28.2715   23.2885 C   0  0  2  0  0  0  0  0  0  0  0  0
  -21.9495  -23.7978   24.3280 C   0  0  0  0  0  0  0  0  0  0  0  0
  -28.5188  -17.0044   21.3900 N   0  0  0  0  0  0  0  0  0  0  0  0
  -29.6323  -17.7569   21.3955 N   0  0  0  0  0  0  0  0  0  0  0  0
  -25.0264  -25.6167   24.6270 N   0  0  0  0  0  0  0  0  0  0  0  0
  -29.2179  -21.5388   21.0300 N   0  0  0  0  0  0  0  0  0  0  0  0
  -31.9613  -17.6869   20.9696 N   0  0  0  0  0  0  0  0  0  0  0  0
  -30.6132  -13.4683   20.0851 N   0  0  0  0  0  0  0  0  0  0  0  0
  -30.2179  -24.5868   18.1601 N   0  0  0  0  0  0  0  0  0  0  0  0
  -27.7232  -24.2021   26.6328 N   0  0  0  0  0  0  0  0  0  0  0  0
  -21.7549  -26.3110   24.1041 N   0  0  0  0  0  0  0  0  0  0  0  0
  -31.0368  -22.2689   19.7064 N   0  0  0  0  0  0  0  0  0  0  0  0
  -21.0603  -29.5241   22.6004 N   0  3  0  0  0  0  0  0  0  0  0  0
  -32.4296  -14.8662   20.1565 O   0  0  0  0  0  0  0  0  0  0  0  0
  -26.2468  -23.4046   25.0182 O   0  0  0  0  0  0  0  0  0  0  0  0
  -23.4111  -25.5248   26.3059 O   0  0  0  0  0  0  0  0  0  0  0  0
  -22.2541  -27.0566   21.9658 O   0  0  0  0  0  0  0  0  0  0  0  0
  -29.8927  -23.7575   21.0224 O   0  0  0  0  0  0  0  0  0  0  0  0
  -25.4070  -11.5245   20.4756 O   0  0  0  0  0  0  0  0  0  0  0  0
  -28.6580  -26.5077   19.7209 O   0  0  0  0  0  0  0  0  0  1  0  0
  -21.7484  -10.7175   24.5214 F   0  0  0  0  0  0  0  0  0  0  0  0
  -23.5674  -13.4799   21.1353 F   0  0  0  0  0  0  0  0  0  0  0  0
  1  2  1  0  0  0  0
  1  7  2  0  0  0  0
  2  8  2  0  0  0  0
  3  4  1  0  0  0  0
  3 10  2  0  0  0  0
  4 11  2  0  0  0  0
  5 12  2  0  0  0  0
  5 19  1  0  0  0  0
  6 13  1  0  0  0  0
  6 19  2  0  0  0  0
  7 21  1  0  0  0  0
  8 23  1  0  0  0  0
  9 14  2  0  0  0  0
  9 22  1  0  0  0  0
 10 25  1  0  0  0  0
 11 26  1  0  0  0  0
 12 27  1  0  0  0  0
 13 27  2  0  0  0  0
 14 28  1  0  0  0  0
 15 16  2  0  0  0  0
 15 29  1  0  0  0  0
 16 30  1  0  0  0  0
 17 24  1  0  0  0  0
 17 28  2  0  0  0  0
 18 30  2  0  0  0  0
 18 31  1  0  0  0  0
 19 32  1  0  0  0  0
 20 32  1  0  0  0  0
 20 33  2  0  0  0  0
 20 34  1  0  0  0  0
 21 23  2  0  0  0  0
 21 39  1  0  0  0  0
 22 24  2  0  0  0  0
 22 40  1  0  0  0  0
 23 48  1  0  0  0  0
 24 41  1  0  0  0  0
 25 26  2  0  0  0  0
 25 56  1  0  0  0  0
 26 68  1  0  0  0  0
 27 78  1  0  0  0  0
 28 79  1  0  0  0  0
 29 31  2  0  0  0  0
 29 78  1  0  0  0  0
 30 80  1  0  0  0  0
 31 81  1  0  0  0  0
 32 62  2  0  0  0  0
 33 63  1  0  0  0  0
 33 66  1  0  0  0  0
 34 67  1  0  0  0  0
 34 73  2  0  0  0  0
 35 49  1  0  0  0  0
 35 69  1  0  0  0  0
 35 74  2  0  0  0  0
 36 59  1  0  0  0  0
 36 64  1  0  0  0  0
 36 75  2  0  0  0  0
 37 60  1  0  0  0  0
 37 70  1  0  0  0  0
 37 76  2  0  0  0  0
 38 65  1  0  0  0  0
 38 71  1  0  0  0  0
 38 77  2  0  0  0  0
 39 42  1  0  0  0  0
 40 49  1  0  0  0  0
 41 64  1  0  0  0  0
 42 44  1  0  0  0  0
 43 45  1  0  0  0  0
 43 46  1  0  0  0  0
 44 48  1  0  0  0  0
 45 50  1  0  0  0  0
 46 65  1  0  0  0  0
 47 50  1  0  0  0  0
 47 65  1  0  0  0  0
 48 69  1  0  0  0  0
 49 64  1  0  0  0  0
 50 63  1  0  0  0  0
 51 60  1  0  0  0  0
 52 61  1  0  0  0  0
 53 61  1  0  0  0  0
 54 61  1  0  0  0  0
 55 72  1  0  0  0  0
 56 79  1  0  0  0  0
 57 58  1  0  0  0  0
 57 68  1  0  0  0  0
 58 71  1  0  0  0  0
 59 61  1  0  0  0  0
 59 70  1  0  0  0  0
 60 72  1  0  0  0  0
 62 63  1  0  0  0  0
M  CHG  1  72   1
M  ISO  4  38 100  56 101  71 100  79 101
M  END
> <Batch ID>
0127

> <Smiles>
CNC(C)C(=O)NC(C(=O)N1Cc2cc([101O:1][101CH2:1]c3ccccc3NCC[100NH:0][100C:0](=O)N3CCCC(n4nc(-c5ccc(Oc6ccc(F)cc6F)cc5)c(C(N)=O)c4N)C3)ccc2CC1C(=O)NC1CCCc2ccccc21)C(C)(C)C

> <Shape>
0.202

> <Color>
0.059

> <Negative vol penalty>
0.000

$$$$

  -OEChem-04052320403D

 88 97  0     1  0  0  0  0  0999 V2000
  -27.2825  -37.6220   22.7195 C   0  0  0  0  0  0  0  0  0  0  0  0
  -27.8436  -36.4557   22.2095 C   0  0  0  0  0  0  0  0  0  0  0  0
  -26.4413  -12.1845   21.4272 C   0  0  0  0  0  0  0  0  0  0  0  0
  -25.9361  -13.2080   19.2978 C   0  0  0  0  0  0  0  0  0  0  0  0
  -26.2712  -37.5472   23.6763 C   0  0  0  0  0  0  0  0  0  0  0  0
  -27.3945  -35.2137   22.6569 C   0  0  0  0  0  0  0  0  0  0  0  0
  -26.9293  -30.0655   19.3726 C   0  0  0  0  0  0  0  0  0  0  0  0
  -30.9717  -23.2973   21.2264 C   0  0  0  0  0  0  0  0  0  0  0  0
  -30.0196  -24.2948   21.4359 C   0  0  0  0  0  0  0  0  0  0  0  0
  -25.1083  -11.7945   21.5560 C   0  0  0  0  0  0  0  0  0  0  0  0
  -24.6031  -12.8179   19.4265 C   0  0  0  0  0  0  0  0  0  0  0  0
  -27.7585  -28.9512   19.2529 C   0  0  0  0  0  0  0  0  0  0  0  0
  -23.0991   -9.3558   20.3523 C   0  0  0  0  0  0  0  0  0  0  0  0
  -22.8434   -8.0514   20.7752 C   0  0  0  0  0  0  0  0  0  0  0  0
  -26.4380  -27.7980   20.9098 C   0  0  0  0  0  0  0  0  0  0  0  0
  -29.9430  -22.7605   19.1073 C   0  0  0  0  0  0  0  0  0  0  0  0
  -21.6581   -8.9075   22.6986 C   0  0  0  0  0  0  0  0  0  0  0  0
  -26.8552  -12.8914   20.2981 C   0  0  0  0  0  0  0  0  0  0  0  0
  -29.2773  -12.5665   19.5663 C   0  0  0  0  0  0  0  0  0  0  0  0
  -25.8027  -36.3035   24.1285 C   0  0  0  0  0  0  0  0  0  0  0  0
  -25.8528  -30.0585   20.2714 C   0  0  0  0  0  0  0  0  0  0  0  0
  -26.3769  -35.1221   23.6216 C   0  0  0  0  0  0  0  0  0  0  0  0
  -25.5950  -28.9126   21.0373 C   0  0  0  0  0  0  0  0  0  0  0  0
  -30.9335  -22.5302   20.0620 C   0  0  0  0  0  0  0  0  0  0  0  0
  -29.0291  -24.5252   20.4812 C   0  0  0  0  0  0  0  0  0  0  0  0
  -28.9908  -23.7580   19.3168 C   0  0  0  0  0  0  0  0  0  0  0  0
  -24.1892  -12.1111   20.5557 C   0  0  0  0  0  0  0  0  0  0  0  0
  -27.5147  -27.8182   20.0236 C   0  0  0  0  0  0  0  0  0  0  0  0
  -22.6344  -10.4360   21.1025 C   0  0  0  0  0  0  0  0  0  0  0  0
  -22.1228   -7.8273   21.9483 C   0  0  0  0  0  0  0  0  0  0  0  0
  -21.9139  -10.2119   22.2757 C   0  0  0  0  0  0  0  0  0  0  0  0
  -28.2319  -13.2951   20.1647 C   0  0  0  0  0  0  0  0  0  0  0  0
  -30.3782  -13.3778   19.6940 C   0  0  0  0  0  0  0  0  0  0  0  0
  -29.2552  -11.2722   18.9499 C   0  0  0  0  0  0  0  0  0  0  0  0
  -25.0622  -31.7591   22.8378 C   0  0  0  0  0  0  0  0  0  0  0  0
  -22.3153  -30.0443   22.6470 C   0  0  0  0  0  0  0  0  0  0  0  0
  -20.7337  -27.2166   21.5747 C   0  0  0  0  0  0  0  0  0  0  0  0
  -30.9108  -19.2372   20.1829 C   0  0  0  0  0  0  0  0  0  0  0  0
  -24.7404  -36.2735   25.1987 C   0  0  0  0  0  0  0  0  0  0  0  0
  -24.9517  -31.2588   20.3693 C   0  0  0  0  0  0  0  0  0  0  0  0
  -24.4403  -28.8468   22.0020 C   0  0  0  0  0  0  0  0  0  0  0  0
  -24.0611  -34.9142   25.3447 C   0  0  0  0  0  0  0  0  0  0  0  0
  -26.2181  -17.9124   20.4766 C   0  0  0  0  0  0  0  0  0  0  0  0
  -24.7530  -17.7132   20.0847 C   0  0  0  0  0  0  0  0  0  0  0  0
  -32.2106  -16.7879   22.5085 C   0  0  0  0  0  0  0  0  0  0  0  0
  -25.1006  -33.7982   25.3721 C   0  0  0  0  0  0  0  0  0  0  0  0
  -26.5218  -19.3896   20.2460 C   0  0  0  0  0  0  0  0  0  0  0  0
  -24.2407  -19.0840   19.6549 C   0  0  0  0  0  0  0  0  0  0  0  0
  -31.4261  -15.5384   22.1043 C   0  0  0  0  0  0  0  0  0  0  0  0
  -31.3438  -18.0399   22.4126 C   0  0  0  0  0  0  0  0  0  0  0  0
  -29.9377  -17.0105   20.6700 C   0  0  0  0  0  0  0  0  0  0  0  0
  -25.8993  -33.7559   24.0637 C   0  0  1  0  0  0  0  0  0  0  0  0
  -24.1922  -31.3295   21.6905 C   0  0  1  0  0  0  0  0  0  0  0  0
  -25.4971  -19.8205   19.2013 C   0  0  0  0  0  0  0  0  0  0  0  0
  -30.7655  -15.7136   20.7241 C   0  0  2  0  0  0  0  0  0  0  0  0
  -18.4963  -26.0806   21.6012 C   0  0  0  0  0  0  0  0  0  0  0  0
  -22.7546  -29.2523   25.5607 C   0  0  0  0  0  0  0  0  0  0  0  0
  -21.0784  -27.4199   25.2426 C   0  0  0  0  0  0  0  0  0  0  0  0
  -20.3862  -29.8014   24.9746 C   0  0  0  0  0  0  0  0  0  0  0  0
  -20.5492  -27.2559   18.6212 C   0  0  0  0  0  0  0  0  0  0  0  0
  -27.9395  -23.9864   18.2808 C   0  0  0  0  0  0  0  0  0  0  0  0
  -31.9513  -21.4634   19.8385 C   0  0  0  0  0  0  0  0  0  0  0  0
  -28.0150  -25.6029   20.7292 C   0  0  0  0  0  0  0  0  0  1  0  0
  -25.3146  -21.3263   19.1270 C   0  0  0  0  0  0  0  0  0  0  0  0
  -26.5631  -23.4377   18.6563 C   0  0  0  0  0  0  0  0  0  0  0  0
  -21.8372  -28.7258   23.2055 C   0  0  1  0  0  0  0  0  0  0  0  0
  -19.4224  -27.0141   20.8372 C   0  0  2  0  0  0  0  0  0  0  0  0
  -21.5371  -28.8015   24.7292 C   0  0  0  0  0  0  0  0  0  0  0  0
  -28.6328  -14.4782   20.6376 N   0  0  0  0  0  0  0  0  0  0  0  0
  -29.9423  -14.4992   20.3365 N   0  0  0  0  0  0  0  0  0  0  0  0
  -23.5916  -30.0481   22.0665 N   0  0  0  0  0  0  0  0  0  0  0  0
  -30.7600  -18.1576   21.0689 N   0  0  0  0  0  0  0  0  0  0  0  0
  -31.6669  -13.2342   19.3184 N   0  0  0  0  0  0  0  0  0  0  0  0
  -28.0403  -10.5748   18.9038 N   0  0  0  0  0  0  0  0  0  0  0  0
  -25.1217  -33.1279   23.0170 N   0  0  0  0  0  0  0  0  0  0  0  0
  -20.6945  -28.3276   22.3905 N   0  0  0  0  0  0  0  0  0  0  0  0
  -31.6992  -20.2863   20.6396 N   0  0  0  0  0  0  0  0  0  0  0  0
  -19.6713  -26.4295   19.4891 N   0  3  0  0  0  0  0  0  0  0  0  0
  -26.6229  -21.9638   18.8159 N   0  3  0  0  0  0  0  0  0  0  0  0
  -30.2857  -10.7425   18.4694 O   0  0  0  0  0  0  0  0  0  0  0  0
  -25.6358  -30.9112   23.5115 O   0  0  0  0  0  0  0  0  0  0  0  0
  -21.5806  -31.0326   22.7166 O   0  0  0  0  0  0  0  0  0  0  0  0
  -21.6952  -26.4625   21.4434 O   0  0  0  0  0  0  0  0  0  0  0  0
  -30.3858  -19.2623   19.0644 O   0  0  0  0  0  0  0  0  0  0  0  0
  -22.8885  -11.7304   20.6809 O   0  0  0  0  0  0  0  0  0  0  0  0
  -28.3229  -26.7294   19.9092 O   0  0  0  0  0  0  0  0  0  1  0  0
  -21.8760   -6.5747   22.3535 F   0  0  0  0  0  0  0  0  0  0  0  0
  -21.4638  -11.2456   23.0000 F   0  0  0  0  0  0  0  0  0  0  0  0
  1  2  1  0  0  0  0
  1  5  2  0  0  0  0
  2  6  2  0  0  0  0
  3 10  2  0  0  0  0
  3 18  1  0  0  0  0
  4 11  1  0  0  0  0
  4 18  2  0  0  0  0
  5 20  1  0  0  0  0
  6 22  1  0  0  0  0
  7 12  2  0  0  0  0
  7 21  1  0  0  0  0
  8  9  2  0  0  0  0
  8 24  1  0  0  0  0
  9 25  1  0  0  0  0
 10 27  1  0  0  0  0
 11 27  2  0  0  0  0
 12 28  1  0  0  0  0
 13 14  2  0  0  0  0
 13 29  1  0  0  0  0
 14 30  1  0  0  0  0
 15 23  1  0  0  0  0
 15 28  2  0  0  0  0
 16 24  2  0  0  0  0
 16 26  1  0  0  0  0
 17 30  2  0  0  0  0
 17 31  1  0  0  0  0
 18 32  1  0  0  0  0
 19 32  1  0  0  0  0
 19 33  2  0  0  0  0
 19 34  1  0  0  0  0
 20 22  2  0  0  0  0
 20 39  1  0  0  0  0
 21 23  2  0  0  0  0
 21 40  1  0  0  0  0
 22 52  1  0  0  0  0
 23 41  1  0  0  0  0
 24 62  1  0  0  0  0
 25 26  2  0  0  0  0
 25 63  1  0  0  0  0
 26 61  1  0  0  0  0
 27 85  1  0  0  0  0
 28 86  1  0  0  0  0
 29 31  2  0  0  0  0
 29 85  1  0  0  0  0
 30 87  1  0  0  0  0
 31 88  1  0  0  0  0
 32 69  2  0  0  0  0
 33 70  1  0  0  0  0
 33 73  1  0  0  0  0
 34 74  1  0  0  0  0
 34 80  2  0  0  0  0
 35 53  1  0  0  0  0
 35 75  1  0  0  0  0
 35 81  2  0  0  0  0
 36 66  1  0  0  0  0
 36 71  1  0  0  0  0
 36 82  2  0  0  0  0
 37 67  1  0  0  0  0
 37 76  1  0  0  0  0
 37 83  2  0  0  0  0
 38 72  1  0  0  0  0
 38 77  1  0  0  0  0
 38 84  2  0  0  0  0
 39 42  1  0  0  0  0
 40 53  1  0  0  0  0
 41 71  1  0  0  0  0
 42 46  1  0  0  0  0
 43 44  1  0  0  0  0
 43 47  1  0  0  0  0
 44 48  1  0  0  0  0
 45 49  1  0  0  0  0
 45 50  1  0  0  0  0
 46 52  1  0  0  0  0
 47 54  1  0  0  0  0
 48 54  1  0  0  0  0
 49 55  1  0  0  0  0
 50 72  1  0  0  0  0
 51 55  1  0  0  0  0
 51 72  1  0  0  0  0
 52 75  1  0  0  0  0
 53 71  1  0  0  0  0
 54 64  1  0  0  0  0
 55 70  1  0  0  0  0
 56 67  1  0  0  0  0
 57 68  1  0  0  0  0
 58 68  1  0  0  0  0
 59 68  1  0  0  0  0
 60 78  1  0  0  0  0
 61 65  1  0  0  0  0
 62 77  1  0  0  0  0
 63 86  1  0  0  0  0
 64 79  1  0  0  0  0
 65 79  1  0  0  0  0
 66 68  1  0  0  0  0
 66 76  1  0  0  0  0
 67 78  1  0  0  0  0
 69 70  1  0  0  0  0
M  CHG  2  78   1  79   1
M  ISO  4  38 100  63 101  77 100  86 101
M  END
> <Batch ID>
0127

> <Smiles>
CNC(C)C(=O)NC(C(=O)N1Cc2cc([101O:1][101CH2:1]c3ccc(C[100NH:0][100C:0](=O)N4CCCC(n5nc(-c6ccc(Oc7ccc(F)cc7F)cc6)c(C(N)=O)c5N)C4)cc3CCNCC3CCCC3)ccc2CC1C(=O)NC1CCCc2ccccc21)C(C)(C)C

> <Shape>
0.369

> <Color>
0.086

> <Negative vol penalty>
0.000

$$$$

  -OEChem-04052320403D

 87 96  0     1  0  0  0  0  0999 V2000
  -29.0873  -32.6000    9.5608 C   0  0  0  0  0  0  0  0  0  0  0  0
  -28.9158  -31.2205    9.6168 C   0  0  0  0  0  0  0  0  0  0  0  0
  -23.1210   -9.8299   19.9505 C   0  0  0  0  0  0  0  0  0  0  0  0
  -23.8675   -9.8818   22.2476 C   0  0  0  0  0  0  0  0  0  0  0  0
  -30.0273  -33.2184   10.3841 C   0  0  0  0  0  0  0  0  0  0  0  0
  -29.6851  -30.4585   10.4955 C   0  0  0  0  0  0  0  0  0  0  0  0
  -27.9318  -25.4208   13.5042 C   0  0  0  0  0  0  0  0  0  0  0  0
  -28.4324  -17.9508   19.4378 C   0  0  0  0  0  0  0  0  0  0  0  0
  -28.1976  -17.9858   18.0663 C   0  0  0  0  0  0  0  0  0  0  0  0
  -22.4017   -8.6635   20.2105 C   0  0  0  0  0  0  0  0  0  0  0  0
  -23.1482   -8.7154   22.5077 C   0  0  0  0  0  0  0  0  0  0  0  0
  -28.1217  -24.0630   13.2508 C   0  0  0  0  0  0  0  0  0  0  0  0
  -19.9353   -7.8528   23.1026 C   0  0  0  0  0  0  0  0  0  0  0  0
  -19.1728   -7.8101   24.2698 C   0  0  0  0  0  0  0  0  0  0  0  0
  -30.0296  -24.0605   14.7270 C   0  0  0  0  0  0  0  0  0  0  0  0
  -20.4530   -5.9100   25.0366 C   0  0  0  0  0  0  0  0  0  0  0  0
  -23.8540  -10.4390   20.9690 C   0  0  0  0  0  0  0  0  0  0  0  0
  -24.1400  -12.9696   20.8199 C   0  0  0  0  0  0  0  0  0  0  0  0
  -30.8017  -32.4648   11.2802 C   0  0  0  0  0  0  0  0  0  0  0  0
  -28.7973  -26.1122   14.3639 C   0  0  0  0  0  0  0  0  0  0  0  0
  -30.6373  -31.0673   11.3306 C   0  0  0  0  0  0  0  0  0  0  0  0
  -29.8469  -25.4264   14.9917 C   0  0  0  0  0  0  0  0  0  0  0  0
  -30.6867  -18.7663   19.0720 C   0  0  0  0  0  0  0  0  0  0  0  0
  -29.6731  -18.3374   19.9405 C   0  0  0  0  0  0  0  0  0  0  0  0
  -29.2064  -18.3990   17.1945 C   0  0  0  0  0  0  0  0  0  0  0  0
  -30.4666  -18.7774   17.6796 C   0  0  0  0  0  0  0  0  0  0  0  0
  -22.4152   -8.1062   21.4892 C   0  0  0  0  0  0  0  0  0  0  0  0
  -29.1725  -23.3834   13.8599 C   0  0  0  0  0  0  0  0  0  0  0  0
  -20.9566   -6.9240   22.9023 C   0  0  0  0  0  0  0  0  0  0  0  0
  -19.4317   -6.8388   25.2368 C   0  0  0  0  0  0  0  0  0  0  0  0
  -21.2155   -5.9527   23.8693 C   0  0  0  0  0  0  0  0  0  0  0  0
  -24.5977  -11.6436   20.7009 C   0  0  0  0  0  0  0  0  0  0  0  0
  -25.2172  -13.7389   20.4534 C   0  0  0  0  0  0  0  0  0  0  0  0
  -22.8560  -13.4618   21.2256 C   0  0  0  0  0  0  0  0  0  0  0  0
  -30.8009  -28.5584   14.0382 C   0  0  0  0  0  0  0  0  0  0  0  0
  -31.0834  -28.2508   17.2550 C   0  0  0  0  0  0  0  0  0  0  0  0
  -30.8230  -26.2511   20.0082 C   0  0  0  0  0  0  0  0  0  0  0  0
  -30.6756  -14.8828   20.6588 C   0  0  0  0  0  0  0  0  0  0  0  0
  -31.8384  -33.1722   12.1164 C   0  0  0  0  0  0  0  0  0  0  0  0
  -28.5628  -27.5706   14.6478 C   0  0  0  0  0  0  0  0  0  0  0  0
  -32.0277  -19.1742   19.6320 C   0  0  0  0  0  0  0  0  0  0  0  0
  -30.7919  -26.1182   15.9387 C   0  0  0  0  0  0  0  0  0  0  0  0
  -32.3496  -32.3372   13.2877 C   0  0  0  0  0  0  0  0  0  0  0  0
  -32.7943  -20.0576   18.6479 C   0  0  0  0  0  0  0  0  0  0  0  0
  -29.6051  -12.4446   18.2953 C   0  0  0  0  0  0  0  0  0  0  0  0
  -32.6817  -30.9209   12.8288 C   0  0  0  0  0  0  0  0  0  0  0  0
  -28.1722  -12.1240   18.7241 C   0  0  0  0  0  0  0  0  0  0  0  0
  -32.8071  -19.4184   17.2643 C   0  0  0  0  0  0  0  0  0  0  0  0
  -30.5103  -12.7004   19.4983 C   0  0  0  0  0  0  0  0  0  0  0  0
  -28.5849  -13.4055   20.8656 C   0  0  0  0  0  0  0  0  0  0  0  0
  -31.4353  -30.2096   12.2884 C   0  0  1  0  0  0  0  0  0  0  0  0
  -29.8138  -28.2923   15.1394 C   0  0  1  0  0  0  0  0  0  0  0  0
  -27.6215  -13.1948   19.6850 C   0  0  2  0  0  0  0  0  0  0  0  0
  -31.1568  -26.2700   22.4953 C   0  0  0  0  0  0  0  0  0  0  0  0
  -34.1030  -28.0879   16.8486 C   0  0  0  0  0  0  0  0  0  0  0  0
  -34.2961  -27.1731   19.1711 C   0  0  0  0  0  0  0  0  0  0  0  0
  -33.3870  -29.4675   18.8078 C   0  0  0  0  0  0  0  0  0  0  0  0
  -27.9709  -25.6424   20.5123 C   0  0  0  0  0  0  0  0  0  0  0  0
  -29.8830  -18.2733   21.4194 C   0  0  0  0  0  0  0  0  0  0  0  0
  -28.8968  -18.4161   15.7265 C   0  0  0  0  0  0  0  0  0  0  0  0
  -30.6864  -17.0491   21.8696 C   0  0  0  0  0  0  0  0  0  0  0  0
  -28.4330  -19.8426   13.7294 C   0  0  0  0  0  0  0  0  0  0  0  0
  -28.2009  -21.2822   13.3148 C   0  0  0  0  0  0  0  0  0  1  0  0
  -31.9804  -27.4630   18.1790 C   0  0  1  0  0  0  0  0  0  0  0  0
  -30.1677  -26.4768   21.3588 C   0  0  2  0  0  0  0  0  0  0  0  0
  -33.4252  -28.0350   18.2323 C   0  0  0  0  0  0  0  0  0  0  0  0
  -25.8668  -11.5711   20.2906 N   0  0  0  0  0  0  0  0  0  0  0  0
  -26.2156  -12.8612   20.1486 N   0  0  0  0  0  0  0  0  0  0  0  0
  -31.4526  -19.1989   16.7950 N   0  0  0  0  0  0  0  0  0  0  0  0
  -30.5250  -27.5460   16.1792 N   0  0  0  0  0  0  0  0  0  0  0  0
  -29.9319  -13.7270   20.3687 N   0  0  0  0  0  0  0  0  0  0  0  0
  -25.3982  -15.0737   20.3652 N   0  0  0  0  0  0  0  0  0  0  0  0
  -21.8627  -12.5344   21.5685 N   0  0  0  0  0  0  0  0  0  0  0  0
  -30.5994  -29.7561   13.3793 N   0  0  0  0  0  0  0  0  0  0  0  0
  -31.3041  -27.4264   19.4712 N   0  0  0  0  0  0  0  0  0  0  0  0
  -30.0511  -15.8081   21.4861 N   0  0  0  0  0  0  0  0  0  0  0  0
  -29.0308  -25.5319   21.5473 N   0  3  0  0  0  0  0  0  0  0  0  0
  -28.6825  -19.7880   15.1919 N   0  3  0  0  0  0  0  0  0  0  0  0
  -22.5919  -14.6875   21.2666 O   0  0  0  0  0  0  0  0  0  0  0  0
  -31.6811  -27.7383   13.8047 O   0  0  0  0  0  0  0  0  0  0  0  0
  -30.8797  -29.4458   17.4836 O   0  0  0  0  0  0  0  0  0  0  0  0
  -30.9035  -25.1424   19.4839 O   0  0  0  0  0  0  0  0  0  0  0  0
  -31.8099  -15.0781   20.2092 O   0  0  0  0  0  0  0  0  0  0  0  0
  -21.7132   -6.9682   21.7433 O   0  0  0  0  0  0  0  0  0  0  0  0
  -29.3605  -22.0582   13.6138 O   0  0  0  0  0  0  0  0  0  1  0  0
  -18.7004   -6.7989   26.3583 F   0  0  0  0  0  0  0  0  0  0  0  0
  -22.1961   -5.0585   23.6831 F   0  0  0  0  0  0  0  0  0  0  0  0
  1  2  1  0  0  0  0
  1  5  2  0  0  0  0
  2  6  2  0  0  0  0
  3 10  2  0  0  0  0
  3 17  1  0  0  0  0
  4 11  1  0  0  0  0
  4 17  2  0  0  0  0
  5 19  1  0  0  0  0
  6 21  1  0  0  0  0
  7 12  2  0  0  0  0
  7 20  1  0  0  0  0
  8  9  2  0  0  0  0
  8 24  1  0  0  0  0
  9 25  1  0  0  0  0
 10 27  1  0  0  0  0
 11 27  2  0  0  0  0
 12 28  1  0  0  0  0
 13 14  2  0  0  0  0
 13 29  1  0  0  0  0
 14 30  1  0  0  0  0
 15 22  1  0  0  0  0
 15 28  2  0  0  0  0
 16 30  2  0  0  0  0
 16 31  1  0  0  0  0
 17 32  1  0  0  0  0
 18 32  1  0  0  0  0
 18 33  2  0  0  0  0
 18 34  1  0  0  0  0
 19 21  2  0  0  0  0
 19 39  1  0  0  0  0
 20 22  2  0  0  0  0
 20 40  1  0  0  0  0
 21 51  1  0  0  0  0
 22 42  1  0  0  0  0
 23 24  2  0  0  0  0
 23 26  1  0  0  0  0
 23 41  1  0  0  0  0
 24 59  1  0  0  0  0
 25 26  2  0  0  0  0
 25 60  1  0  0  0  0
 26 69  1  0  0  0  0
 27 84  1  0  0  0  0
 28 85  1  0  0  0  0
 29 31  2  0  0  0  0
 29 84  1  0  0  0  0
 30 86  1  0  0  0  0
 31 87  1  0  0  0  0
 32 67  2  0  0  0  0
 33 68  1  0  0  0  0
 33 72  1  0  0  0  0
 34 73  1  0  0  0  0
 34 79  2  0  0  0  0
 35 52  1  0  0  0  0
 35 74  1  0  0  0  0
 35 80  2  0  0  0  0
 36 64  1  0  0  0  0
 36 70  1  0  0  0  0
 36 81  2  0  0  0  0
 37 65  1  0  0  0  0
 37 75  1  0  0  0  0
 37 82  2  0  0  0  0
 38 71  1  0  0  0  0
 38 76  1  0  0  0  0
 38 83  2  0  0  0  0
 39 43  1  0  0  0  0
 40 52  1  0  0  0  0
 41 44  1  0  0  0  0
 42 70  1  0  0  0  0
 43 46  1  0  0  0  0
 44 48  1  0  0  0  0
 45 47  1  0  0  0  0
 45 49  1  0  0  0  0
 46 51  1  0  0  0  0
 47 53  1  0  0  0  0
 48 69  1  0  0  0  0
 49 71  1  0  0  0  0
 50 53  1  0  0  0  0
 50 71  1  0  0  0  0
 51 74  1  0  0  0  0
 52 70  1  0  0  0  0
 53 68  1  0  0  0  0
 54 65  1  0  0  0  0
 55 66  1  0  0  0  0
 56 66  1  0  0  0  0
 57 66  1  0  0  0  0
 58 77  1  0  0  0  0
 59 61  1  0  0  0  0
 60 78  1  0  0  0  0
 61 76  1  0  0  0  0
 62 63  1  0  0  0  0
 62 78  1  0  0  0  0
 63 85  1  0  0  0  0
 64 66  1  0  0  0  0
 64 75  1  0  0  0  0
 65 77  1  0  0  0  0
 67 68  1  0  0  0  0
M  CHG  2  77   1  78   1
M  ISO  4  38 100  63 101  76 100  85 101
M  END
> <Batch ID>
0127

> <Smiles>
CNC(C)C(=O)NC(C(=O)N1Cc2cc([101O:1][101CH2:1]CNCc3ccc(CC[100NH:0][100C:0](=O)N4CCCC(n5nc(-c6ccc(Oc7ccc(F)cc7F)cc6)c(C(N)=O)c5N)C4)c4c3NCCC4)ccc2CC1C(=O)NC1CCCc2ccccc21)C(C)(C)C

> <Shape>
0.227

> <Color>
0.206

> <Negative vol penalty>
0.000

$$$$

  -OEChem-04052320403D

 84 92  0     1  0  0  0  0  0999 V2000
  -19.0656  -29.4018   22.4868 C   0  0  0  0  0  0  0  0  0  0  0  0
  -20.1876  -28.8210   21.9043 C   0  0  0  0  0  0  0  0  0  0  0  0
  -23.1044   -9.8101   19.9337 C   0  0  0  0  0  0  0  0  0  0  0  0
  -23.8484   -9.8411   22.2321 C   0  0  0  0  0  0  0  0  0  0  0  0
  -18.1708  -28.6146   23.2103 C   0  0  0  0  0  0  0  0  0  0  0  0
  -20.4160  -27.4527   22.0460 C   0  0  0  0  0  0  0  0  0  0  0  0
  -22.9420  -23.6954   17.9219 C   0  0  0  0  0  0  0  0  0  0  0  0
  -30.5815  -18.9085   20.4260 C   0  0  0  0  0  0  0  0  0  0  0  0
  -28.7489  -18.3354   21.8923 C   0  0  0  0  0  0  0  0  0  0  0  0
  -22.3649   -8.6553   20.1887 C   0  0  0  0  0  0  0  0  0  0  0  0
  -23.1088   -8.6863   22.4871 C   0  0  0  0  0  0  0  0  0  0  0  0
  -24.2355  -23.1961   17.7762 C   0  0  0  0  0  0  0  0  0  0  0  0
  -29.8650  -20.0113   19.9613 C   0  0  0  0  0  0  0  0  0  0  0  0
  -28.0323  -19.4383   21.4277 C   0  0  0  0  0  0  0  0  0  0  0  0
  -19.8807   -7.8768   23.0744 C   0  0  0  0  0  0  0  0  0  0  0  0
  -19.1159   -7.8432   24.2404 C   0  0  0  0  0  0  0  0  0  0  0  0
  -23.5842  -21.1859   18.9398 C   0  0  0  0  0  0  0  0  0  0  0  0
  -20.3622   -5.9188   25.0023 C   0  0  0  0  0  0  0  0  0  0  0  0
  -23.8463  -10.4030   20.9554 C   0  0  0  0  0  0  0  0  0  0  0  0
  -24.1758  -12.9287   20.8156 C   0  0  0  0  0  0  0  0  0  0  0  0
  -18.3833  -27.2343   23.3529 C   0  0  0  0  0  0  0  0  0  0  0  0
  -21.9610  -22.9471   18.5883 C   0  0  0  0  0  0  0  0  0  0  0  0
  -19.5239  -26.6466   22.7733 C   0  0  0  0  0  0  0  0  0  0  0  0
  -22.2783  -21.6768   19.0903 C   0  0  0  0  0  0  0  0  0  0  0  0
  -30.0235  -18.0705   21.3914 C   0  0  0  0  0  0  0  0  0  0  0  0
  -22.3670   -8.0934   21.4654 C   0  0  0  0  0  0  0  0  0  0  0  0
  -28.5904  -20.2762   20.4622 C   0  0  0  0  0  0  0  0  0  0  0  0
  -24.5576  -21.9424   18.2877 C   0  0  0  0  0  0  0  0  0  0  0  0
  -20.8863   -6.9314   22.8723 C   0  0  0  0  0  0  0  0  0  0  0  0
  -19.3567   -6.8642   25.2044 C   0  0  0  0  0  0  0  0  0  0  0  0
  -21.1270   -5.9524   23.8363 C   0  0  0  0  0  0  0  0  0  0  0  0
  -24.6109  -11.5955   20.6925 C   0  0  0  0  0  0  0  0  0  0  0  0
  -25.2666  -13.6807   20.4533 C   0  0  0  0  0  0  0  0  0  0  0  0
  -22.8998  -13.4415   21.2212 C   0  0  0  0  0  0  0  0  0  0  0  0
  -20.2102  -23.3710   21.2072 C   0  0  0  0  0  0  0  0  0  0  0  0
  -18.7764  -20.6336   20.2205 C   0  0  0  0  0  0  0  0  0  0  0  0
  -18.9793  -17.7452   18.4143 C   0  0  0  0  0  0  0  0  0  0  0  0
  -30.7435  -14.7301   20.6703 C   0  0  0  0  0  0  0  0  0  0  0  0
  -17.4132  -26.4326   24.1841 C   0  0  0  0  0  0  0  0  0  0  0  0
  -20.5633  -23.4884   18.7137 C   0  0  0  0  0  0  0  0  0  0  0  0
  -21.2561  -20.8251   19.7962 C   0  0  0  0  0  0  0  0  0  0  0  0
  -17.5295  -24.9254   23.9712 C   0  0  0  0  0  0  0  0  0  0  0  0
  -29.6348  -12.3189   18.2968 C   0  0  0  0  0  0  0  0  0  0  0  0
  -18.9918  -24.4925   24.0072 C   0  0  0  0  0  0  0  0  0  0  0  0
  -28.1960  -12.0214   18.7224 C   0  0  0  0  0  0  0  0  0  0  0  0
  -30.5425  -12.5550   19.5020 C   0  0  0  0  0  0  0  0  0  0  0  0
  -28.6274  -13.2882   20.8690 C   0  0  0  0  0  0  0  0  0  0  0  0
  -19.7930  -25.1615   22.8838 C   0  0  1  0  0  0  0  0  0  0  0  0
  -19.7797  -22.8594   19.8616 C   0  0  1  0  0  0  0  0  0  0  0  0
  -27.6623  -13.0982   19.6863 C   0  0  2  0  0  0  0  0  0  0  0  0
  -17.6623  -15.6906   17.8300 C   0  0  0  0  0  0  0  0  0  0  0  0
  -31.8336  -15.6432   23.8821 C   0  0  0  0  0  0  0  0  0  0  0  0
  -31.8659  -18.1367   23.8476 C   0  0  0  0  0  0  0  0  0  0  0  0
  -19.3401  -19.4873   22.9915 C   0  0  0  0  0  0  0  0  0  0  0  0
  -18.8886  -17.2063   22.0633 C   0  0  0  0  0  0  0  0  0  0  0  0
  -17.0833  -18.9279   22.0704 C   0  0  0  0  0  0  0  0  0  0  0  0
  -19.0263  -18.3948   15.5273 C   0  0  0  0  0  0  0  0  0  0  0  0
  -28.1386  -21.7702   18.6678 C   0  0  0  0  0  0  0  0  0  0  0  0
  -26.8831  -22.4032   18.0998 C   0  0  0  0  0  0  0  0  0  1  0  0
  -30.7897  -16.8917   21.8887 C   0  0  1  0  0  0  0  0  0  0  0  0
  -19.0114  -19.1604   20.4516 C   0  0  1  0  0  0  0  0  0  0  0  0
  -18.0242  -17.1096   17.4201 C   0  0  2  0  0  0  0  0  0  0  0  0
  -31.0687  -16.8947   23.4278 C   0  0  0  0  0  0  0  0  0  0  0  0
  -18.6009  -18.7121   21.8826 C   0  0  0  0  0  0  0  0  0  0  0  0
  -25.8791  -11.5027   20.2838 N   0  0  0  0  0  0  0  0  0  0  0  0
  -26.2503  -12.7871   20.1468 N   0  0  0  0  0  0  0  0  0  0  0  0
  -19.9050  -21.4010   19.8992 N   0  0  0  0  0  0  0  0  0  0  0  0
  -29.9805  -13.5883   20.3751 N   0  0  0  0  0  0  0  0  0  0  0  0
  -25.4706  -15.0126   20.3700 N   0  0  0  0  0  0  0  0  0  0  0  0
  -21.8903  -12.5300   21.5595 N   0  0  0  0  0  0  0  0  0  0  0  0
  -19.5366  -24.5047   21.6199 N   0  0  0  0  0  0  0  0  0  0  0  0
  -18.3072  -18.4620   19.3816 N   0  0  0  0  0  0  0  0  0  0  0  0
  -30.1338  -15.6631   21.5001 N   0  0  0  0  0  0  0  0  0  0  0  0
  -18.6420  -17.0642   16.0647 N   0  3  0  0  0  0  0  0  0  0  0  0
  -22.6568  -14.6713   21.2661 O   0  0  0  0  0  0  0  0  0  0  0  0
  -21.0874  -22.7799   21.8259 O   0  0  0  0  0  0  0  0  0  0  0  0
  -17.6325  -21.0856   20.3145 O   0  0  0  0  0  0  0  0  0  0  0  0
  -20.1993  -17.6154   18.3422 O   0  0  0  0  0  0  0  0  0  0  0  0
  -31.8817  -14.9076   20.2230 O   0  0  0  0  0  0  0  0  0  0  0  0
  -21.6452   -6.9666   21.7146 O   0  0  0  0  0  0  0  0  0  0  0  0
  -27.8873  -21.3602   20.0066 O   0  0  0  0  0  0  0  0  0  0  0  0
  -25.8196  -21.4530   18.1474 O   0  0  0  0  0  0  0  0  0  1  0  0
  -18.6232   -6.8329   26.3247 F   0  0  0  0  0  0  0  0  0  0  0  0
  -22.0925   -5.0422   23.6483 F   0  0  0  0  0  0  0  0  0  0  0  0
  1  2  1  0  0  0  0
  1  5  2  0  0  0  0
  2  6  2  0  0  0  0
  3 10  2  0  0  0  0
  3 19  1  0  0  0  0
  4 11  1  0  0  0  0
  4 19  2  0  0  0  0
  5 21  1  0  0  0  0
  6 23  1  0  0  0  0
  7 12  2  0  0  0  0
  7 22  1  0  0  0  0
  8 13  2  0  0  0  0
  8 25  1  0  0  0  0
  9 14  1  0  0  0  0
  9 25  2  0  0  0  0
 10 26  1  0  0  0  0
 11 26  2  0  0  0  0
 12 28  1  0  0  0  0
 13 27  1  0  0  0  0
 14 27  2  0  0  0  0
 15 16  2  0  0  0  0
 15 29  1  0  0  0  0
 16 30  1  0  0  0  0
 17 24  1  0  0  0  0
 17 28  2  0  0  0  0
 18 30  2  0  0  0  0
 18 31  1  0  0  0  0
 19 32  1  0  0  0  0
 20 32  1  0  0  0  0
 20 33  2  0  0  0  0
 20 34  1  0  0  0  0
 21 23  2  0  0  0  0
 21 39  1  0  0  0  0
 22 24  2  0  0  0  0
 22 40  1  0  0  0  0
 23 48  1  0  0  0  0
 24 41  1  0  0  0  0
 25 60  1  0  0  0  0
 26 80  1  0  0  0  0
 27 81  1  0  0  0  0
 28 82  1  0  0  0  0
 29 31  2  0  0  0  0
 29 80  1  0  0  0  0
 30 83  1  0  0  0  0
 31 84  1  0  0  0  0
 32 65  2  0  0  0  0
 33 66  1  0  0  0  0
 33 69  1  0  0  0  0
 34 70  1  0  0  0  0
 34 75  2  0  0  0  0
 35 49  1  0  0  0  0
 35 71  1  0  0  0  0
 35 76  2  0  0  0  0
 36 61  1  0  0  0  0
 36 67  1  0  0  0  0
 36 77  2  0  0  0  0
 37 62  1  0  0  0  0
 37 72  1  0  0  0  0
 37 78  2  0  0  0  0
 38 68  1  0  0  0  0
 38 73  1  0  0  0  0
 38 79  2  0  0  0  0
 39 42  1  0  0  0  0
 40 49  1  0  0  0  0
 41 67  1  0  0  0  0
 42 44  1  0  0  0  0
 43 45  1  0  0  0  0
 43 46  1  0  0  0  0
 44 48  1  0  0  0  0
 45 50  1  0  0  0  0
 46 68  1  0  0  0  0
 47 50  1  0  0  0  0
 47 68  1  0  0  0  0
 48 71  1  0  0  0  0
 49 67  1  0  0  0  0
 50 66  1  0  0  0  0
 51 62  1  0  0  0  0
 52 63  1  0  0  0  0
 53 63  1  0  0  0  0
 54 64  1  0  0  0  0
 55 64  1  0  0  0  0
 56 64  1  0  0  0  0
 57 74  1  0  0  0  0
 58 59  1  0  0  0  0
 58 81  1  0  0  0  0
 59 82  1  0  0  0  0
 60 63  1  0  0  0  0
 60 73  1  0  0  0  0
 61 64  1  0  0  0  0
 61 72  1  0  0  0  0
 62 74  1  0  0  0  0
 65 66  1  0  0  0  0
M  CHG  1  74   1
M  ISO  4  38 100  59 101  73 100  82 101
M  END
> <Batch ID>
0127

> <Smiles>
CNC(C)C(=O)NC(C(=O)N1Cc2cc([101O:1][101CH2:1]COc3ccc(C([100NH:0][100C:0](=O)N4CCCC(n5nc(-c6ccc(Oc7ccc(F)cc7F)cc6)c(C(N)=O)c5N)C4)C(C)C)cc3)ccc2CC1C(=O)NC1CCCc2ccccc21)C(C)(C)C

> <Shape>
0.255

> <Color>
0.215

> <Negative vol penalty>
0.000

$$$$

  -OEChem-04052320403D

 88 97  0     1  0  0  0  0  0999 V2000
  -31.7289  -26.0284   17.5414 C   0  0  0  0  0  0  0  0  0  0  0  0
  -30.3535  -25.8196   17.5337 C   0  0  0  0  0  0  0  0  0  0  0  0
  -28.1715  -14.8798   21.6885 C   0  0  0  0  0  0  0  0  0  0  0  0
  -27.1930  -15.2843   19.5169 C   0  0  0  0  0  0  0  0  0  0  0  0
  -32.3409  -26.5931   18.6597 C   0  0  0  0  0  0  0  0  0  0  0  0
  -29.5894  -26.1744   18.6449 C   0  0  0  0  0  0  0  0  0  0  0  0
  -21.0797  -22.0851   21.9714 C   0  0  0  0  0  0  0  0  0  0  0  0
  -23.8652  -28.3515   18.6333 C   0  0  0  0  0  0  0  0  0  0  0  0
  -21.5941  -21.7687   20.7125 C   0  0  0  0  0  0  0  0  0  0  0  0
  -27.4831  -13.6696   21.7733 C   0  0  0  0  0  0  0  0  0  0  0  0
  -26.5046  -14.0741   19.6016 C   0  0  0  0  0  0  0  0  0  0  0  0
  -22.6290  -27.7409   18.8403 C   0  0  0  0  0  0  0  0  0  0  0  0
  -23.7310  -12.8872   21.1278 C   0  0  0  0  0  0  0  0  0  0  0  0
  -22.3847  -12.8805   20.7629 C   0  0  0  0  0  0  0  0  0  0  0  0
  -20.8437  -23.9036   19.8225 C   0  0  0  0  0  0  0  0  0  0  0  0
  -22.6884  -28.4188   21.1546 C   0  0  0  0  0  0  0  0  0  0  0  0
  -22.8603  -11.2563   19.0387 C   0  0  0  0  0  0  0  0  0  0  0  0
  -28.0264  -15.6872   20.5603 C   0  0  0  0  0  0  0  0  0  0  0  0
  -30.0199  -17.1504   19.9336 C   0  0  0  0  0  0  0  0  0  0  0  0
  -31.5825  -26.9638   19.7814 C   0  0  0  0  0  0  0  0  0  0  0  0
  -24.5285  -28.9919   19.6899 C   0  0  0  0  0  0  0  0  0  0  0  0
  -30.1919  -26.7432   19.7798 C   0  0  0  0  0  0  0  0  0  0  0  0
  -20.4473  -23.3072   22.1382 C   0  0  0  0  0  0  0  0  0  0  0  0
  -20.3323  -24.2102   21.0744 C   0  0  0  0  0  0  0  0  0  0  0  0
  -23.9317  -29.0389   20.9578 C   0  0  0  0  0  0  0  0  0  0  0  0
  -21.4766  -22.6716   19.6452 C   0  0  0  0  0  0  0  0  0  0  0  0
  -26.6497  -13.2667   20.7299 C   0  0  0  0  0  0  0  0  0  0  0  0
  -22.0418  -27.7720   20.1017 C   0  0  0  0  0  0  0  0  0  0  0  0
  -24.6419  -12.0786   20.4482 C   0  0  0  0  0  0  0  0  0  0  0  0
  -21.9494  -12.0650   19.7183 C   0  0  0  0  0  0  0  0  0  0  0  0
  -24.2066  -11.2631   19.4036 C   0  0  0  0  0  0  0  0  0  0  0  0
  -28.7368  -16.9377   20.4723 C   0  0  0  0  0  0  0  0  0  0  0  0
  -30.2371  -18.4980   20.0858 C   0  0  0  0  0  0  0  0  0  0  0  0
  -30.9337  -16.2136   19.3479 C   0  0  0  0  0  0  0  0  0  0  0  0
  -27.3011  -28.5659   21.1847 C   0  0  0  0  0  0  0  0  0  0  0  0
  -26.4705  -31.3196   22.6846 C   0  0  0  0  0  0  0  0  0  0  0  0
  -23.9915  -33.4489   23.6683 C   0  0  0  0  0  0  0  0  0  0  0  0
  -26.5527  -23.1937   20.5622 C   0  0  0  0  0  0  0  0  0  0  0  0
  -32.2950  -27.5271   20.9854 C   0  0  0  0  0  0  0  0  0  0  0  0
  -25.8489  -29.6689   19.4439 C   0  0  0  0  0  0  0  0  0  0  0  0
  -24.5932  -29.7312   22.1205 C   0  0  0  0  0  0  0  0  0  0  0  0
  -31.3628  -28.2205   21.9756 C   0  0  0  0  0  0  0  0  0  0  0  0
  -29.0518  -22.1886   22.8904 C   0  0  0  0  0  0  0  0  0  0  0  0
  -30.1315  -27.3603   22.2418 C   0  0  0  0  0  0  0  0  0  0  0  0
  -29.3702  -20.7480   22.4861 C   0  0  0  0  0  0  0  0  0  0  0  0
  -19.0225  -25.0456   22.8512 C   0  0  0  0  0  0  0  0  0  0  0  0
  -27.5691  -22.5093   22.7151 C   0  0  0  0  0  0  0  0  0  0  0  0
  -27.3471  -20.7852   20.9681 C   0  0  0  0  0  0  0  0  0  0  0  0
  -19.6317  -25.4705   21.4956 C   0  0  1  0  0  0  0  0  0  0  0  0
  -29.3257  -27.1377   20.9563 C   0  0  1  0  0  0  0  0  0  0  0  0
  -19.8470  -23.8617   23.3903 C   0  0  2  0  0  0  0  0  0  0  0  0
  -26.6744  -29.8480   20.7143 C   0  0  1  0  0  0  0  0  0  0  0  0
  -28.8404  -20.4317   21.0745 C   0  0  2  0  0  0  0  0  0  0  0  0
  -23.6177  -35.5972   24.9102 C   0  0  0  0  0  0  0  0  0  0  0  0
  -26.9064  -29.8632   25.3302 C   0  0  0  0  0  0  0  0  0  0  0  0
  -25.6340  -31.6947   26.4680 C   0  0  0  0  0  0  0  0  0  0  0  0
  -27.7647  -32.2116   25.2784 C   0  0  0  0  0  0  0  0  0  0  0  0
  -22.8196  -34.7571   21.2862 C   0  0  0  0  0  0  0  0  0  0  0  0
  -20.2811  -24.5252   25.7545 C   0  0  0  0  0  0  0  0  0  0  0  0
  -22.0967  -23.4907   24.4002 C   0  0  0  0  0  0  0  0  0  0  0  0
  -22.0257  -22.3074   18.3063 C   0  0  0  0  0  0  0  0  0  0  0  0
  -20.5813  -26.6559   21.6108 C   0  0  0  0  0  0  0  0  0  1  0  0
  -25.5676  -23.7298   18.3483 C   0  0  0  0  0  0  0  0  0  0  0  0
  -24.0547  -23.7559   18.4605 C   0  0  0  0  0  0  0  0  0  0  0  0
  -25.6951  -31.6651   23.9330 C   0  0  1  0  0  0  0  0  0  0  0  0
  -23.8531  -34.9561   23.5514 C   0  0  2  0  0  0  0  0  0  0  0  0
  -26.4882  -31.3439   25.2312 C   0  0  0  0  0  0  0  0  0  0  0  0
  -28.1782  -18.0602   20.9326 N   0  0  0  0  0  0  0  0  0  0  0  0
  -29.1148  -18.9913   20.6835 N   0  0  0  0  0  0  0  0  0  0  0  0
  -25.8863  -30.3729   21.8312 N   0  0  0  0  0  0  0  0  0  0  0  0
  -27.1303  -22.1881   21.3549 N   0  0  0  0  0  0  0  0  0  0  0  0
  -31.2767  -19.2973   19.7654 N   0  0  0  0  0  0  0  0  0  0  0  0
  -30.5519  -14.8673   19.2700 N   0  0  0  0  0  0  0  0  0  0  0  0
  -28.5454  -28.3145   20.6388 N   0  0  0  0  0  0  0  0  0  0  0  0
  -25.3095  -33.0658   23.7995 N   0  0  0  0  0  0  0  0  0  0  0  0
  -26.1704  -22.8065   19.2837 N   0  0  0  0  0  0  0  0  0  0  0  0
  -22.7081  -35.3038   22.6630 N   0  3  0  0  0  0  0  0  0  0  0  0
  -23.5101  -22.3914   18.2351 N   0  3  0  0  0  0  0  0  0  0  0  0
  -20.8529  -24.3471   24.3678 N   0  3  0  0  0  0  0  0  0  0  0  0
  -32.0622  -16.5573   18.9215 O   0  0  0  0  0  0  0  0  0  0  0  0
  -26.7010  -27.8581   21.9850 O   0  0  0  0  0  0  0  0  0  0  0  0
  -27.5511  -31.8746   22.4709 O   0  0  0  0  0  0  0  0  0  0  0  0
  -23.0266  -32.6879   23.6491 O   0  0  0  0  0  0  0  0  0  0  0  0
  -26.3946  -24.3521   20.9623 O   0  0  0  0  0  0  0  0  0  0  0  0
  -25.9780  -12.0858   20.8122 O   0  0  0  0  0  0  0  0  0  0  0  0
  -20.8356  -27.1762   20.3066 O   0  0  0  0  0  0  0  0  0  1  0  0
  -20.6563  -12.0574   19.3690 F   0  0  0  0  0  0  0  0  0  0  0  0
  -25.0768  -10.4831   18.7477 F   0  0  0  0  0  0  0  0  0  0  0  0
  1  2  1  0  0  0  0
  1  5  2  0  0  0  0
  2  6  2  0  0  0  0
  3 10  2  0  0  0  0
  3 18  1  0  0  0  0
  4 11  1  0  0  0  0
  4 18  2  0  0  0  0
  5 20  1  0  0  0  0
  6 22  1  0  0  0  0
  7  9  2  0  0  0  0
  7 23  1  0  0  0  0
  8 12  2  0  0  0  0
  8 21  1  0  0  0  0
  9 26  1  0  0  0  0
 10 27  1  0  0  0  0
 11 27  2  0  0  0  0
 12 28  1  0  0  0  0
 13 14  2  0  0  0  0
 13 29  1  0  0  0  0
 14 30  1  0  0  0  0
 15 24  1  0  0  0  0
 15 26  2  0  0  0  0
 16 25  1  0  0  0  0
 16 28  2  0  0  0  0
 17 30  2  0  0  0  0
 17 31  1  0  0  0  0
 18 32  1  0  0  0  0
 19 32  1  0  0  0  0
 19 33  2  0  0  0  0
 19 34  1  0  0  0  0
 20 22  2  0  0  0  0
 20 39  1  0  0  0  0
 21 25  2  0  0  0  0
 21 40  1  0  0  0  0
 22 50  1  0  0  0  0
 23 24  2  0  0  0  0
 23 51  1  0  0  0  0
 24 49  1  0  0  0  0
 25 41  1  0  0  0  0
 26 61  1  0  0  0  0
 27 85  1  0  0  0  0
 28 86  1  0  0  0  0
 29 31  2  0  0  0  0
 29 85  1  0  0  0  0
 30 87  1  0  0  0  0
 31 88  1  0  0  0  0
 32 68  2  0  0  0  0
 33 69  1  0  0  0  0
 33 72  1  0  0  0  0
 34 73  1  0  0  0  0
 34 80  2  0  0  0  0
 35 52  1  0  0  0  0
 35 74  1  0  0  0  0
 35 81  2  0  0  0  0
 36 65  1  0  0  0  0
 36 70  1  0  0  0  0
 36 82  2  0  0  0  0
 37 66  1  0  0  0  0
 37 75  1  0  0  0  0
 37 83  2  0  0  0  0
 38 71  1  0  0  0  0
 38 76  1  0  0  0  0
 38 84  2  0  0  0  0
 39 42  1  0  0  0  0
 40 52  1  0  0  0  0
 41 70  1  0  0  0  0
 42 44  1  0  0  0  0
 43 45  1  0  0  0  0
 43 47  1  0  0  0  0
 44 50  1  0  0  0  0
 45 53  1  0  0  0  0
 46 49  1  0  0  0  0
 46 51  1  0  0  0  0
 47 71  1  0  0  0  0
 48 53  1  0  0  0  0
 48 71  1  0  0  0  0
 49 62  1  0  0  0  0
 50 74  1  0  0  0  0
 51 79  1  0  0  0  0
 52 70  1  0  0  0  0
 53 69  1  0  0  0  0
 54 66  1  0  0  0  0
 55 67  1  0  0  0  0
 56 67  1  0  0  0  0
 57 67  1  0  0  0  0
 58 77  1  0  0  0  0
 59 79  1  0  0  0  0
 60 79  1  0  0  0  0
 61 78  1  0  0  0  0
 62 86  1  0  0  0  0
 63 64  1  0  0  0  0
 63 76  1  0  0  0  0
 64 78  1  0  0  0  0
 65 67  1  0  0  0  0
 65 75  1  0  0  0  0
 66 77  1  0  0  0  0
 68 69  1  0  0  0  0
M  CHG  3  77   1  78   1  79   1
M  ISO  4  38 100  62 101  76 100  86 101
M  END
> <Batch ID>
0127

> <Smiles>
CNC(C)C(=O)NC(C(=O)N1Cc2cc([101O:1][101CH2:1]C3CC(N(C)C)c4ccc(CNCC[100NH:0][100C:0](=O)N5CCCC(n6nc(-c7ccc(Oc8ccc(F)cc8F)cc7)c(C(N)=O)c6N)C5)cc43)ccc2CC1C(=O)NC1CCCc2ccccc21)C(C)(C)C

> <Shape>
0.284

> <Color>
0.061

> <Negative vol penalty>
0.000

$$$$

  -OEChem-04052320403D

 81 90  0     1  0  0  0  0  0999 V2000
  -18.5817  -31.7207   22.7912 C   0  0  0  0  0  0  0  0  0  0  0  0
  -19.9626  -31.6511   22.6371 C   0  0  0  0  0  0  0  0  0  0  0  0
  -26.9032  -17.5701   19.1889 C   0  0  0  0  0  0  0  0  0  0  0  0
  -29.2491  -17.3218   19.7106 C   0  0  0  0  0  0  0  0  0  0  0  0
  -17.8322  -30.5491   22.8875 C   0  0  0  0  0  0  0  0  0  0  0  0
  -20.5949  -30.4095   22.5804 C   0  0  0  0  0  0  0  0  0  0  0  0
  -25.5219  -28.9360   19.2548 C   0  0  0  0  0  0  0  0  0  0  0  0
  -26.6854  -16.2361   19.5330 C   0  0  0  0  0  0  0  0  0  0  0  0
  -29.0313  -15.9877   20.0548 C   0  0  0  0  0  0  0  0  0  0  0  0
  -26.8753  -28.8390   19.5755 C   0  0  0  0  0  0  0  0  0  0  0  0
  -28.6143  -13.0384   18.4552 C   0  0  0  0  0  0  0  0  0  0  0  0
  -29.5184  -12.0899   17.9772 C   0  0  0  0  0  0  0  0  0  0  0  0
  -26.6187  -26.4644   19.9140 C   0  0  0  0  0  0  0  0  0  0  0  0
  -30.0656  -11.4676   20.2466 C   0  0  0  0  0  0  0  0  0  0  0  0
  -33.3031  -27.9916   15.5453 C   0  0  0  0  0  0  0  0  0  0  0  0
  -28.1851  -18.1130   19.2777 C   0  0  0  0  0  0  0  0  0  0  0  0
  -28.3405  -20.6109   19.7718 C   0  0  0  0  0  0  0  0  0  0  0  0
  -18.4546  -29.2924   22.8222 C   0  0  0  0  0  0  0  0  0  0  0  0
  -24.7030  -27.7978   19.2719 C   0  0  0  0  0  0  0  0  0  0  0  0
  -19.8532  -29.2199   22.6772 C   0  0  0  0  0  0  0  0  0  0  0  0
  -25.2558  -26.5492   19.5906 C   0  0  0  0  0  0  0  0  0  0  0  0
  -31.7575  -26.9017   17.4071 C   0  0  0  0  0  0  0  0  0  0  0  0
  -27.7495  -15.4449   19.9660 C   0  0  0  0  0  0  0  0  0  0  0  0
  -27.4232  -27.6036   19.9080 C   0  0  0  0  0  0  0  0  0  0  0  0
  -28.4358  -13.2015   19.8290 C   0  0  0  0  0  0  0  0  0  0  0  0
  -30.2440  -11.3045   18.8728 C   0  0  0  0  0  0  0  0  0  0  0  0
  -29.1614  -12.4161   20.7247 C   0  0  0  0  0  0  0  0  0  0  0  0
  -28.4108  -19.4909   18.9218 C   0  0  0  0  0  0  0  0  0  0  0  0
  -32.2909  -28.1691   17.5615 C   0  0  0  0  0  0  0  0  0  0  0  0
  -32.0540  -26.2165   16.2579 C   0  0  0  0  0  0  0  0  0  0  0  0
  -28.6351  -21.6779   18.9588 C   0  0  0  0  0  0  0  0  0  0  0  0
  -28.0362  -20.6804   21.1712 C   0  0  0  0  0  0  0  0  0  0  0  0
  -22.1364  -26.9056   20.9213 C   0  0  0  0  0  0  0  0  0  0  0  0
  -22.1844  -24.3827   18.8829 C   0  0  0  0  0  0  0  0  0  0  0  0
  -23.9915  -22.3844   16.7882 C   0  0  0  0  0  0  0  0  0  0  0  0
  -31.7165  -24.0690   14.9849 C   0  0  0  0  0  0  0  0  0  0  0  0
  -17.6080  -28.0541   22.9783 C   0  0  0  0  0  0  0  0  0  0  0  0
  -23.2510  -27.9148   18.8976 C   0  0  0  0  0  0  0  0  0  0  0  0
  -30.9430  -26.5111   18.5896 C   0  0  0  0  0  0  0  0  0  0  0  0
  -24.4239  -25.2937   19.6039 C   0  0  0  0  0  0  0  0  0  0  0  0
  -18.3119  -26.7749   22.5330 C   0  0  0  0  0  0  0  0  0  0  0  0
  -29.0469  -21.9665   13.9220 C   0  0  0  0  0  0  0  0  0  0  0  0
  -19.7273  -26.7196   23.0992 C   0  0  0  0  0  0  0  0  0  0  0  0
  -28.6376  -21.2271   15.1979 C   0  0  0  0  0  0  0  0  0  0  0  0
  -30.5572  -22.1850   13.8528 C   0  0  0  0  0  0  0  0  0  0  0  0
  -30.7363  -22.0932   16.3082 C   0  0  0  0  0  0  0  0  0  0  0  0
  -20.5727  -27.8917   22.5865 C   0  0  1  0  0  0  0  0  0  0  0  0
  -22.3985  -26.7754   19.4475 C   0  0  1  0  0  0  0  0  0  0  0  0
  -29.2171  -21.9072   16.4538 C   0  0  2  0  0  0  0  0  0  0  0  0
  -30.9930  -27.8001   19.4543 C   0  0  2  0  0  0  0  0  0  0  0  0
  -23.7643  -20.3815   15.2934 C   0  0  0  0  0  0  0  0  0  0  0  0
  -22.1371  -22.5634   21.3319 C   0  0  0  0  0  0  0  0  0  0  0  0
  -22.8613  -20.6748   19.8564 C   0  0  0  0  0  0  0  0  0  0  0  0
  -20.6788  -21.8106   19.4448 C   0  0  0  0  0  0  0  0  0  0  0  0
  -24.7856  -23.9350   14.3957 C   0  0  0  0  0  0  0  0  0  0  0  0
  -29.6289  -28.4392   19.6036 C   0  0  0  0  0  0  0  0  0  1  0  0
  -22.8290  -23.0176   18.8863 C   0  0  1  0  0  0  0  0  0  0  0  0
  -23.7201  -21.8994   15.3755 C   0  0  2  0  0  0  0  0  0  0  0  0
  -22.1420  -22.0404   19.8815 C   0  0  0  0  0  0  0  0  0  0  0  0
  -33.0765  -28.7502   16.6396 N   0  0  0  0  0  0  0  0  0  0  0  0
  -32.8349  -26.7464   15.2946 N   0  0  0  0  0  0  0  0  0  0  0  0
  -28.7252  -19.8162   17.6651 N   0  0  0  0  0  0  0  0  0  0  0  0
  -28.8550  -21.1527   17.7194 N   0  0  0  0  0  0  0  0  0  0  0  0
  -31.8960  -28.7265   18.7824 N   0  0  0  0  0  0  0  0  0  0  0  0
  -23.0080  -25.4608   19.2367 N   0  0  0  0  0  0  0  0  0  0  0  0
  -31.0344  -22.8371   15.0743 N   0  0  0  0  0  0  0  0  0  0  0  0
  -28.7249  -23.0049   19.1902 N   0  0  0  0  0  0  0  0  0  0  0  0
  -27.7574  -19.4889   21.8543 N   0  0  0  0  0  0  0  0  0  0  0  0
  -31.5268  -24.9136   16.0782 N   0  0  0  0  0  0  0  0  0  0  0  0
  -21.0098  -27.6440   21.2293 N   0  0  0  0  0  0  0  0  0  0  0  0
  -22.8243  -22.5606   17.5008 N   0  0  0  0  0  0  0  0  0  0  0  0
  -24.7358  -22.4507   14.4345 N   0  3  0  0  0  0  0  0  0  0  0  0
  -27.9962  -21.7688   21.7936 O   0  0  0  0  0  0  0  0  0  0  0  0
  -22.8991  -26.3741   21.7198 O   0  0  0  0  0  0  0  0  0  0  0  0
  -20.9958  -24.4895   18.5706 O   0  0  0  0  0  0  0  0  0  0  0  0
  -25.1257  -22.5831   17.2179 O   0  0  0  0  0  0  0  0  0  0  0  0
  -32.3953  -24.3649   13.9982 O   0  0  0  0  0  0  0  0  0  0  0  0
  -27.5373  -14.1431   20.3020 O   0  0  0  0  0  0  0  0  0  0  0  0
  -28.7437  -27.5062   20.2220 O   0  0  0  0  0  0  0  0  0  1  0  0
  -31.1111  -10.3926   18.4136 F   0  0  0  0  0  0  0  0  0  0  0  0
  -28.9934  -12.5675   22.0455 F   0  0  0  0  0  0  0  0  0  0  0  0
  1  2  1  0  0  0  0
  1  5  2  0  0  0  0
  2  6  2  0  0  0  0
  3  8  2  0  0  0  0
  3 16  1  0  0  0  0
  4  9  1  0  0  0  0
  4 16  2  0  0  0  0
  5 18  1  0  0  0  0
  6 20  1  0  0  0  0
  7 10  2  0  0  0  0
  7 19  1  0  0  0  0
  8 23  1  0  0  0  0
  9 23  2  0  0  0  0
 10 24  1  0  0  0  0
 11 12  2  0  0  0  0
 11 25  1  0  0  0  0
 12 26  1  0  0  0  0
 13 21  1  0  0  0  0
 13 24  2  0  0  0  0
 14 26  2  0  0  0  0
 14 27  1  0  0  0  0
 15 60  1  0  0  0  0
 15 61  2  0  0  0  0
 16 28  1  0  0  0  0
 17 28  1  0  0  0  0
 17 31  2  0  0  0  0
 17 32  1  0  0  0  0
 18 20  2  0  0  0  0
 18 37  1  0  0  0  0
 19 21  2  0  0  0  0
 19 38  1  0  0  0  0
 20 47  1  0  0  0  0
 21 40  1  0  0  0  0
 22 29  1  0  0  0  0
 22 30  2  0  0  0  0
 22 39  1  0  0  0  0
 23 78  1  0  0  0  0
 24 79  1  0  0  0  0
 25 27  2  0  0  0  0
 25 78  1  0  0  0  0
 26 80  1  0  0  0  0
 27 81  1  0  0  0  0
 28 62  2  0  0  0  0
 29 60  2  0  0  0  0
 29 64  1  0  0  0  0
 30 61  1  0  0  0  0
 30 69  1  0  0  0  0
 31 63  1  0  0  0  0
 31 67  1  0  0  0  0
 32 68  1  0  0  0  0
 32 73  2  0  0  0  0
 33 48  1  0  0  0  0
 33 70  1  0  0  0  0
 33 74  2  0  0  0  0
 34 57  1  0  0  0  0
 34 65  1  0  0  0  0
 34 75  2  0  0  0  0
 35 58  1  0  0  0  0
 35 71  1  0  0  0  0
 35 76  2  0  0  0  0
 36 66  1  0  0  0  0
 36 69  1  0  0  0  0
 36 77  2  0  0  0  0
 37 41  1  0  0  0  0
 38 48  1  0  0  0  0
 39 50  1  0  0  0  0
 40 65  1  0  0  0  0
 41 43  1  0  0  0  0
 42 44  1  0  0  0  0
 42 45  1  0  0  0  0
 43 47  1  0  0  0  0
 44 49  1  0  0  0  0
 45 66  1  0  0  0  0
 46 49  1  0  0  0  0
 46 66  1  0  0  0  0
 47 70  1  0  0  0  0
 48 65  1  0  0  0  0
 49 63  1  0  0  0  0
 50 56  1  0  0  0  0
 50 64  1  0  0  0  0
 51 58  1  0  0  0  0
 52 59  1  0  0  0  0
 53 59  1  0  0  0  0
 54 59  1  0  0  0  0
 55 72  1  0  0  0  0
 56 79  1  0  0  0  0
 57 59  1  0  0  0  0
 57 71  1  0  0  0  0
 58 72  1  0  0  0  0
 62 63  1  0  0  0  0
M  CHG  1  72   1
M  ISO  4  36 100  56 101  69 100  79 101
M  END
> <Batch ID>
0127

> <Smiles>
CNC(C)C(=O)NC(C(=O)N1Cc2cc([101O:1][101CH2:1]C3Cc4c(ncnc4[100NH:0][100C:0](=O)N4CCCC(n5nc(-c6ccc(Oc7ccc(F)cc7F)cc6)c(C(N)=O)c5N)C4)N3)ccc2CC1C(=O)NC1CCCc2ccccc21)C(C)(C)C

> <Shape>
0.217

> <Color>
0.062

> <Negative vol penalty>
0.000

$$$$

  -OEChem-04052320403D

 81 89  0     1  0  0  0  0  0999 V2000
  -18.6643  -33.9165   23.5317 C   0  0  0  0  0  0  0  0  0  0  0  0
  -19.8531  -33.8733   22.8103 C   0  0  0  0  0  0  0  0  0  0  0  0
  -24.8706  -13.3089   19.4105 C   0  0  0  0  0  0  0  0  0  0  0  0
  -25.7606  -14.0526   21.5299 C   0  0  0  0  0  0  0  0  0  0  0  0
  -18.3452  -32.8818   24.4100 C   0  0  0  0  0  0  0  0  0  0  0  0
  -20.7241  -32.7958   22.9678 C   0  0  0  0  0  0  0  0  0  0  0  0
  -25.4303  -28.8383   19.2927 C   0  0  0  0  0  0  0  0  0  0  0  0
  -24.8830  -11.9911   19.8677 C   0  0  0  0  0  0  0  0  0  0  0  0
  -25.7731  -12.7349   21.9871 C   0  0  0  0  0  0  0  0  0  0  0  0
  -26.7478  -28.3881   19.3652 C   0  0  0  0  0  0  0  0  0  0  0  0
  -22.9860  -10.0290   21.8637 C   0  0  0  0  0  0  0  0  0  0  0  0
  -21.8574   -9.2470   21.6183 C   0  0  0  0  0  0  0  0  0  0  0  0
  -33.1682  -25.8373   20.0528 C   0  0  0  0  0  0  0  0  0  0  0  0
  -26.0550  -26.6189   20.8516 C   0  0  0  0  0  0  0  0  0  0  0  0
  -30.8948  -25.5863   19.2966 C   0  0  0  0  0  0  0  0  0  0  0  0
  -23.2099   -7.6897   20.3603 C   0  0  0  0  0  0  0  0  0  0  0  0
  -32.8776  -27.1508   20.3931 C   0  0  0  0  0  0  0  0  0  0  0  0
  -25.3094  -14.3396   20.2416 C   0  0  0  0  0  0  0  0  0  0  0  0
  -24.2469  -16.6312   19.8846 C   0  0  0  0  0  0  0  0  0  0  0  0
  -19.2082  -31.7863   24.5710 C   0  0  0  0  0  0  0  0  0  0  0  0
  -24.4153  -28.1877   20.0089 C   0  0  0  0  0  0  0  0  0  0  0  0
  -20.4169  -31.7461   23.8501 C   0  0  0  0  0  0  0  0  0  0  0  0
  -24.7250  -27.0613   20.7844 C   0  0  0  0  0  0  0  0  0  0  0  0
  -32.1630  -25.0504   19.4991 C   0  0  0  0  0  0  0  0  0  0  0  0
  -25.3343  -11.7041   21.1560 C   0  0  0  0  0  0  0  0  0  0  0  0
  -27.0608  -27.2800   20.1470 C   0  0  0  0  0  0  0  0  0  0  0  0
  -24.2266   -9.6414   21.3574 C   0  0  0  0  0  0  0  0  0  0  0  0
  -21.9693   -8.0774   20.8666 C   0  0  0  0  0  0  0  0  0  0  0  0
  -24.3386   -8.4718   20.6057 C   0  0  0  0  0  0  0  0  0  0  0  0
  -25.2973  -15.7010   19.7697 C   0  0  0  0  0  0  0  0  0  0  0  0
  -30.6617  -26.9061   19.6561 C   0  0  0  0  0  0  0  0  0  0  0  0
  -24.7285  -17.7687   19.2841 C   0  0  0  0  0  0  0  0  0  0  0  0
  -22.9518  -16.4806   20.4809 C   0  0  0  0  0  0  0  0  0  0  0  0
  -22.4075  -29.0332   22.3235 C   0  0  0  0  0  0  0  0  0  0  0  0
  -21.1675  -26.0832   21.7923 C   0  0  0  0  0  0  0  0  0  0  0  0
  -21.6396  -22.9073   20.6357 C   0  0  0  0  0  0  0  0  0  0  0  0
  -30.2254  -19.7691   18.4850 C   0  0  0  0  0  0  0  0  0  0  0  0
  -18.8428  -30.7147   25.5675 C   0  0  0  0  0  0  0  0  0  0  0  0
  -22.9947  -28.6696   19.8989 C   0  0  0  0  0  0  0  0  0  0  0  0
  -23.6687  -26.3152   21.5564 C   0  0  0  0  0  0  0  0  0  0  0  0
  -19.6427  -29.4258   25.3966 C   0  0  0  0  0  0  0  0  0  0  0  0
  -27.7740  -19.2056   15.8829 C   0  0  0  0  0  0  0  0  0  0  0  0
  -21.1268  -29.7367   25.2299 C   0  0  0  0  0  0  0  0  0  0  0  0
  -26.7566  -18.3240   16.6094 C   0  0  0  0  0  0  0  0  0  0  0  0
  -29.2002  -18.8702   16.3093 C   0  0  0  0  0  0  0  0  0  0  0  0
  -28.4229  -18.0682   18.5062 C   0  0  0  0  0  0  0  0  0  0  0  0
  -21.3758  -30.5821   23.9750 C   0  0  1  0  0  0  0  0  0  0  0  0
  -22.1257  -28.2420   21.0776 C   0  0  1  0  0  0  0  0  0  0  0  0
  -26.9603  -18.3738   18.1352 C   0  0  2  0  0  0  0  0  0  0  0  0
  -20.4542  -20.7117   20.3684 C   0  0  0  0  0  0  0  0  0  0  0  0
  -21.5001  -25.5430   24.7769 C   0  0  0  0  0  0  0  0  0  0  0  0
  -21.2163  -23.1024   24.2958 C   0  0  0  0  0  0  0  0  0  0  0  0
  -19.3623  -24.6944   23.7950 C   0  0  0  0  0  0  0  0  0  0  0  0
  -21.9423  -22.9701   17.6923 C   0  0  0  0  0  0  0  0  0  0  0  0
  -29.3235  -27.5588   19.4699 C   0  0  0  0  0  0  0  0  0  1  0  0
  -31.4425  -22.8501   18.5689 C   0  0  0  0  0  0  0  0  0  0  0  0
  -32.0238  -21.4693   18.3060 C   0  0  0  0  0  0  0  0  0  0  0  0
  -21.4282  -24.6998   22.3376 C   0  0  1  0  0  0  0  0  0  0  0  0
  -20.8063  -22.0375   19.7118 C   0  0  2  0  0  0  0  0  0  0  0  0
  -20.8972  -24.5249   23.7884 C   0  0  0  0  0  0  0  0  0  0  0  0
  -26.3655  -16.2039   19.1452 N   0  0  0  0  0  0  0  0  0  0  0  0
  -25.9888  -17.4625   18.8621 N   0  0  0  0  0  0  0  0  0  0  0  0
  -31.6477  -27.6416   20.1875 N   0  3  0  0  0  0  0  0  0  0  0  0
  -22.2955  -26.8288   21.4217 N   0  0  0  0  0  0  0  0  0  0  0  0
  -29.3315  -18.9541   17.7708 N   0  0  0  0  0  0  0  0  0  0  0  0
  -24.1926  -18.9910   19.0810 N   0  0  0  0  0  0  0  0  0  0  0  0
  -22.6193  -15.2451   21.0532 N   0  0  0  0  0  0  0  0  0  0  0  0
  -32.4294  -23.7124   19.1418 N   0  0  0  0  0  0  0  0  0  0  0  0
  -21.3244  -29.7539   22.7893 N   0  0  0  0  0  0  0  0  0  0  0  0
  -20.8540  -23.7665   21.3745 N   0  0  0  0  0  0  0  0  0  0  0  0
  -31.0560  -20.5728   17.7138 N   0  0  0  0  0  0  0  0  0  0  0  0
  -21.5527  -21.7551   18.4533 N   0  3  0  0  0  0  0  0  0  0  0  0
  -22.1080  -17.4087   20.4909 O   0  0  0  0  0  0  0  0  0  0  0  0
  -23.5244  -28.9916   22.8260 O   0  0  0  0  0  0  0  0  0  0  0  0
  -20.0054  -26.4845   21.6920 O   0  0  0  0  0  0  0  0  0  0  0  0
  -22.8645  -22.8295   20.6985 O   0  0  0  0  0  0  0  0  0  0  0  0
  -30.2759  -19.7836   19.7197 O   0  0  0  0  0  0  0  0  0  0  0  0
  -25.3463  -10.4185   21.6025 O   0  0  0  0  0  0  0  0  0  0  0  0
  -28.3461  -26.8389   20.2201 O   0  0  0  0  0  0  0  0  0  1  0  0
  -20.8857   -7.3257   20.6324 F   0  0  0  0  0  0  0  0  0  0  0  0
  -25.5279   -8.0937   20.1176 F   0  0  0  0  0  0  0  0  0  0  0  0
  1  2  1  0  0  0  0
  1  5  2  0  0  0  0
  2  6  2  0  0  0  0
  3  8  2  0  0  0  0
  3 18  1  0  0  0  0
  4  9  1  0  0  0  0
  4 18  2  0  0  0  0
  5 20  1  0  0  0  0
  6 22  1  0  0  0  0
  7 10  2  0  0  0  0
  7 21  1  0  0  0  0
  8 25  1  0  0  0  0
  9 25  2  0  0  0  0
 10 26  1  0  0  0  0
 11 12  2  0  0  0  0
 11 27  1  0  0  0  0
 12 28  1  0  0  0  0
 13 17  2  0  0  0  0
 13 24  1  0  0  0  0
 14 23  1  0  0  0  0
 14 26  2  0  0  0  0
 15 24  2  0  0  0  0
 15 31  1  0  0  0  0
 16 28  2  0  0  0  0
 16 29  1  0  0  0  0
 17 63  1  0  0  0  0
 18 30  1  0  0  0  0
 19 30  1  0  0  0  0
 19 32  2  0  0  0  0
 19 33  1  0  0  0  0
 20 22  2  0  0  0  0
 20 38  1  0  0  0  0
 21 23  2  0  0  0  0
 21 39  1  0  0  0  0
 22 47  1  0  0  0  0
 23 40  1  0  0  0  0
 24 68  1  0  0  0  0
 25 78  1  0  0  0  0
 26 79  1  0  0  0  0
 27 29  2  0  0  0  0
 27 78  1  0  0  0  0
 28 80  1  0  0  0  0
 29 81  1  0  0  0  0
 30 61  2  0  0  0  0
 31 55  1  0  0  0  0
 31 63  2  0  0  0  0
 32 62  1  0  0  0  0
 32 66  1  0  0  0  0
 33 67  1  0  0  0  0
 33 73  2  0  0  0  0
 34 48  1  0  0  0  0
 34 69  1  0  0  0  0
 34 74  2  0  0  0  0
 35 58  1  0  0  0  0
 35 64  1  0  0  0  0
 35 75  2  0  0  0  0
 36 59  1  0  0  0  0
 36 70  1  0  0  0  0
 36 76  2  0  0  0  0
 37 65  1  0  0  0  0
 37 71  1  0  0  0  0
 37 77  2  0  0  0  0
 38 41  1  0  0  0  0
 39 48  1  0  0  0  0
 40 64  1  0  0  0  0
 41 43  1  0  0  0  0
 42 44  1  0  0  0  0
 42 45  1  0  0  0  0
 43 47  1  0  0  0  0
 44 49  1  0  0  0  0
 45 65  1  0  0  0  0
 46 49  1  0  0  0  0
 46 65  1  0  0  0  0
 47 69  1  0  0  0  0
 48 64  1  0  0  0  0
 49 62  1  0  0  0  0
 50 59  1  0  0  0  0
 51 60  1  0  0  0  0
 52 60  1  0  0  0  0
 53 60  1  0  0  0  0
 54 72  1  0  0  0  0
 55 79  1  0  0  0  0
 56 57  1  0  0  0  0
 56 68  1  0  0  0  0
 57 71  1  0  0  0  0
 58 60  1  0  0  0  0
 58 70  1  0  0  0  0
 59 72  1  0  0  0  0
 61 62  1  0  0  0  0
M  CHG  2  63   1  72   1
M  ISO  4  37 100  55 101  71 100  79 101
M  END
> <Batch ID>
0127

> <Smiles>
CNC(C)C(=O)NC(C(=O)N1Cc2cc([101O:1][101CH2:1]c3cc(NCC[100NH:0][100C:0](=O)N4CCCC(n5nc(-c6ccc(Oc7ccc(F)cc7F)cc6)c(C(N)=O)c5N)C4)ccn3)ccc2CC1C(=O)NC1CCCc2ccccc21)C(C)(C)C

> <Shape>
0.200

> <Color>
0.102

> <Negative vol penalty>
0.000

$$$$

  -OEChem-04052320403D

 83 92  0     1  0  0  0  0  0999 V2000
  -16.6000  -28.8331   24.0790 C   0  0  0  0  0  0  0  0  0  0  0  0
  -17.0261  -28.0212   23.0327 C   0  0  0  0  0  0  0  0  0  0  0  0
  -26.6255  -12.8114   21.6818 C   0  0  0  0  0  0  0  0  0  0  0  0
  -26.0748  -14.0464   19.6796 C   0  0  0  0  0  0  0  0  0  0  0  0
  -17.3157  -29.9852   24.4017 C   0  0  0  0  0  0  0  0  0  0  0  0
  -18.1676  -28.3616   22.3078 C   0  0  0  0  0  0  0  0  0  0  0  0
  -23.6658  -25.3717   18.8226 C   0  0  0  0  0  0  0  0  0  0  0  0
  -25.3121  -12.3479   21.7572 C   0  0  0  0  0  0  0  0  0  0  0  0
  -24.7614  -13.5828   19.7549 C   0  0  0  0  0  0  0  0  0  0  0  0
  -24.3081  -25.4139   17.5859 C   0  0  0  0  0  0  0  0  0  0  0  0
  -23.4200   -9.9719   20.2714 C   0  0  0  0  0  0  0  0  0  0  0  0
  -23.2251   -8.6174   20.5415 C   0  0  0  0  0  0  0  0  0  0  0  0
  -25.5099  -27.3856   18.2842 C   0  0  0  0  0  0  0  0  0  0  0  0
  -28.8236  -22.5837   17.5772 C   0  0  0  0  0  0  0  0  0  0  0  0
  -21.9994   -9.1929   22.5425 C   0  0  0  0  0  0  0  0  0  0  0  0
  -29.9202  -22.6901   20.0735 C   0  0  0  0  0  0  0  0  0  0  0  0
  -27.0068  -13.6607   20.6431 C   0  0  0  0  0  0  0  0  0  0  0  0
  -29.4421  -13.5339   19.8941 C   0  0  0  0  0  0  0  0  0  0  0  0
  -18.4720  -30.3348   23.6866 C   0  0  0  0  0  0  0  0  0  0  0  0
  -23.9331  -26.3441   19.7970 C   0  0  0  0  0  0  0  0  0  0  0  0
  -18.8987  -29.5203   22.6204 C   0  0  0  0  0  0  0  0  0  0  0  0
  -24.8715  -27.3520   19.5333 C   0  0  0  0  0  0  0  0  0  0  0  0
  -29.2781  -21.4125   18.1730 C   0  0  0  0  0  0  0  0  0  0  0  0
  -29.8382  -21.4581   19.4448 C   0  0  0  0  0  0  0  0  0  0  0  0
  -24.3800  -12.7336   20.7937 C   0  0  0  0  0  0  0  0  0  0  0  0
  -25.2282  -26.4226   17.3155 C   0  0  0  0  0  0  0  0  0  0  0  0
  -22.9047  -10.9369   21.1368 C   0  0  0  0  0  0  0  0  0  0  0  0
  -22.5148   -8.2279   21.6770 C   0  0  0  0  0  0  0  0  0  0  0  0
  -22.1944  -10.5474   22.2723 C   0  0  0  0  0  0  0  0  0  0  0  0
  -28.3633  -14.1404   20.5650 C   0  0  0  0  0  0  0  0  0  0  0  0
  -28.9508  -23.7653   18.2896 C   0  0  0  0  0  0  0  0  0  0  0  0
  -30.5038  -14.3755   20.1201 C   0  0  0  0  0  0  0  0  0  0  0  0
  -29.4810  -12.3186   19.1343 C   0  0  0  0  0  0  0  0  0  0  0  0
  -22.2082  -28.5592   21.2878 C   0  0  0  0  0  0  0  0  0  0  0  0
  -24.9343  -28.9750   22.9961 C   0  0  0  0  0  0  0  0  0  0  0  0
  -28.3287  -28.6610   23.1572 C   0  0  0  0  0  0  0  0  0  0  0  0
  -30.8983  -20.2079   21.3578 C   0  0  0  0  0  0  0  0  0  0  0  0
  -19.1859  -31.6151   24.0417 C   0  0  0  0  0  0  0  0  0  0  0  0
  -23.2516  -26.2691   21.1358 C   0  0  0  0  0  0  0  0  0  0  0  0
  -25.2088  -28.4079   20.5530 C   0  0  0  0  0  0  0  0  0  0  0  0
  -20.5969  -31.7055   23.4663 C   0  0  0  0  0  0  0  0  0  0  0  0
  -32.1715  -17.5238   23.3203 C   0  0  0  0  0  0  0  0  0  0  0  0
  -20.6013  -31.2973   21.9966 C   0  0  0  0  0  0  0  0  0  0  0  0
  -31.4421  -16.2955   22.7713 C   0  0  0  0  0  0  0  0  0  0  0  0
  -28.9418  -25.2568   15.2722 C   0  0  0  0  0  0  0  0  0  0  0  0
  -27.9172  -26.2254   14.6485 C   0  0  0  0  0  0  0  0  0  0  0  0
  -31.2698  -18.7568   23.3405 C   0  0  0  0  0  0  0  0  0  0  0  0
  -29.8932  -17.8454   21.5120 C   0  0  0  0  0  0  0  0  0  0  0  0
  -20.1460  -29.8428   21.8266 C   0  0  1  0  0  0  0  0  0  0  0  0
  -23.2185  -27.6086   21.8653 C   0  0  1  0  0  0  0  0  0  0  0  0
  -30.7806  -16.5939   21.4116 C   0  0  2  0  0  0  0  0  0  0  0  0
  -27.9063  -24.9909   16.3837 C   0  0  2  0  0  0  0  0  0  0  0  0
  -27.2994  -26.3790   16.0596 C   0  0  2  0  0  0  0  0  0  1  0  0
  -29.1523  -20.1234   17.4292 C   0  0  0  0  0  0  0  0  0  0  0  0
  -30.2803  -29.1224   24.6658 C   0  0  0  0  0  0  0  0  0  0  0  0
  -24.7766  -31.9391   22.2893 C   0  0  0  0  0  0  0  0  0  0  0  0
  -27.1721  -32.1604   22.9830 C   0  0  0  0  0  0  0  0  0  0  0  0
  -25.4519  -31.4639   24.6500 C   0  0  0  0  0  0  0  0  0  0  0  0
  -29.0427  -25.7926   23.3032 C   0  0  0  0  0  0  0  0  0  0  0  0
  -26.1655  -29.8365   22.8516 C   0  0  1  0  0  0  0  0  0  0  0  0
  -29.2385  -28.1014   24.2359 C   0  0  2  0  0  0  0  0  0  0  0  0
  -25.8840  -31.3313   23.1734 C   0  0  0  0  0  0  0  0  0  0  0  0
  -29.4894  -23.8490   19.5267 N   0  0  0  0  0  0  0  0  0  0  0  0
  -28.7081  -15.2791   21.1720 N   0  0  0  0  0  0  0  0  0  0  0  0
  -30.0155  -15.3949   20.8833 N   0  0  0  0  0  0  0  0  0  0  0  0
  -24.5115  -28.2955   21.8448 N   0  0  0  0  0  0  0  0  0  0  0  0
  -30.6817  -18.9799   22.0180 N   0  0  0  0  0  0  0  0  0  0  0  0
  -31.7981  -14.3354   19.7386 N   0  0  0  0  0  0  0  0  0  0  0  0
  -28.3001  -11.5755   19.0016 N   0  0  0  0  0  0  0  0  0  0  0  0
  -30.3175  -20.2928   20.0929 N   0  0  0  0  0  0  0  0  0  0  0  0
  -28.4895  -24.9356   17.6767 N   0  0  0  0  0  0  0  0  0  0  0  0
  -21.2172  -28.9340   22.1747 N   0  0  0  0  0  0  0  0  0  0  0  0
  -27.1908  -29.2272   23.6919 N   0  0  0  0  0  0  0  0  0  0  0  0
  -29.9467  -26.8883   23.7382 N   0  3  0  0  0  0  0  0  0  0  0  0
  -30.5356  -11.8955   18.6030 O   0  0  0  0  0  0  0  0  0  0  0  0
  -22.3205  -28.9265   20.1241 O   0  0  0  0  0  0  0  0  0  0  0  0
  -24.3725  -28.9019   24.0918 O   0  0  0  0  0  0  0  0  0  0  0  0
  -28.6020  -28.6051   21.9602 O   0  0  0  0  0  0  0  0  0  0  0  0
  -31.5737  -21.1071   21.8651 O   0  0  0  0  0  0  0  0  0  0  0  0
  -23.0984  -12.2812   20.8668 O   0  0  0  0  0  0  0  0  0  0  0  0
  -25.8561  -26.4665   16.1089 O   0  0  0  0  0  0  0  0  0  1  0  0
  -22.3264   -6.9272   21.9355 F   0  0  0  0  0  0  0  0  0  0  0  0
  -21.6959  -11.4699   23.1068 F   0  0  0  0  0  0  0  0  0  0  0  0
  1  2  1  0  0  0  0
  1  5  2  0  0  0  0
  2  6  2  0  0  0  0
  3  8  2  0  0  0  0
  3 17  1  0  0  0  0
  4  9  1  0  0  0  0
  4 17  2  0  0  0  0
  5 19  1  0  0  0  0
  6 21  1  0  0  0  0
  7 10  2  0  0  0  0
  7 20  1  0  0  0  0
  8 25  1  0  0  0  0
  9 25  2  0  0  0  0
 10 26  1  0  0  0  0
 11 12  2  0  0  0  0
 11 27  1  0  0  0  0
 12 28  1  0  0  0  0
 13 22  1  0  0  0  0
 13 26  2  0  0  0  0
 14 23  2  0  0  0  0
 14 31  1  0  0  0  0
 15 28  2  0  0  0  0
 15 29  1  0  0  0  0
 16 24  2  0  0  0  0
 16 63  1  0  0  0  0
 17 30  1  0  0  0  0
 18 30  1  0  0  0  0
 18 32  2  0  0  0  0
 18 33  1  0  0  0  0
 19 21  2  0  0  0  0
 19 38  1  0  0  0  0
 20 22  2  0  0  0  0
 20 39  1  0  0  0  0
 21 49  1  0  0  0  0
 22 40  1  0  0  0  0
 23 24  1  0  0  0  0
 23 54  1  0  0  0  0
 24 70  1  0  0  0  0
 25 80  1  0  0  0  0
 26 81  1  0  0  0  0
 27 29  2  0  0  0  0
 27 80  1  0  0  0  0
 28 82  1  0  0  0  0
 29 83  1  0  0  0  0
 30 64  2  0  0  0  0
 31 63  2  0  0  0  0
 31 71  1  0  0  0  0
 32 65  1  0  0  0  0
 32 68  1  0  0  0  0
 33 69  1  0  0  0  0
 33 75  2  0  0  0  0
 34 50  1  0  0  0  0
 34 72  1  0  0  0  0
 34 76  2  0  0  0  0
 35 60  1  0  0  0  0
 35 66  1  0  0  0  0
 35 77  2  0  0  0  0
 36 61  1  0  0  0  0
 36 73  1  0  0  0  0
 36 78  2  0  0  0  0
 37 67  1  0  0  0  0
 37 70  1  0  0  0  0
 37 79  2  0  0  0  0
 38 41  1  0  0  0  0
 39 50  1  0  0  0  0
 40 66  1  0  0  0  0
 41 43  1  0  0  0  0
 42 44  1  0  0  0  0
 42 47  1  0  0  0  0
 43 49  1  0  0  0  0
 44 51  1  0  0  0  0
 45 46  1  0  0  0  0
 45 52  1  0  0  0  0
 46 53  1  0  0  0  0
 47 67  1  0  0  0  0
 48 51  1  0  0  0  0
 48 67  1  0  0  0  0
 49 72  1  0  0  0  0
 50 66  1  0  0  0  0
 51 65  1  0  0  0  0
 52 53  1  0  0  0  0
 52 71  1  0  0  0  0
 53 81  1  0  0  0  0
 55 61  1  0  0  0  0
 56 62  1  0  0  0  0
 57 62  1  0  0  0  0
 58 62  1  0  0  0  0
 59 74  1  0  0  0  0
 60 62  1  0  0  0  0
 60 73  1  0  0  0  0
 61 74  1  0  0  0  0
 64 65  1  0  0  0  0
M  CHG  1  74   1
M  ISO  4  37 100  53 101  70 100  81 101
M  END
> <Batch ID>
0127

> <Smiles>
CNC(C)C(=O)NC(C(=O)N1Cc2cc([101O:1][101CH:1]3CCC3Nc3cc(C)c([100NH:0][100C:0](=O)N4CCCC(n5nc(-c6ccc(Oc7ccc(F)cc7F)cc6)c(C(N)=O)c5N)C4)cn3)ccc2CC1C(=O)NC1CCCc2ccccc21)C(C)(C)C

> <Shape>
0.311

> <Color>
0.082

> <Negative vol penalty>
0.000

$$$$

  -OEChem-04052320403D

 81 90  0     1  0  0  0  0  0999 V2000
  -32.3119  -28.7894   24.2996 C   0  0  0  0  0  0  0  0  0  0  0  0
  -31.7687  -27.8902   23.3876 C   0  0  0  0  0  0  0  0  0  0  0  0
  -22.7239  -10.4517   20.9247 C   0  0  0  0  0  0  0  0  0  0  0  0
  -24.5299   -9.0931   21.7789 C   0  0  0  0  0  0  0  0  0  0  0  0
  -31.4811  -29.4551   25.1999 C   0  0  0  0  0  0  0  0  0  0  0  0
  -30.3942  -27.6552   23.3762 C   0  0  0  0  0  0  0  0  0  0  0  0
  -28.4695  -27.6124   18.6924 C   0  0  0  0  0  0  0  0  0  0  0  0
  -21.8977   -9.3287   20.8852 C   0  0  0  0  0  0  0  0  0  0  0  0
  -23.7036   -7.9700   21.7394 C   0  0  0  0  0  0  0  0  0  0  0  0
  -28.6657  -26.4592   17.9339 C   0  0  0  0  0  0  0  0  0  0  0  0
  -21.2221   -6.6384   23.6074 C   0  0  0  0  0  0  0  0  0  0  0  0
  -21.2289   -5.7914   24.7156 C   0  0  0  0  0  0  0  0  0  0  0  0
  -26.4254  -25.7376   18.4627 C   0  0  0  0  0  0  0  0  0  0  0  0
  -21.9678   -3.9661   23.3158 C   0  0  0  0  0  0  0  0  0  0  0  0
  -24.0401  -10.3339   21.3715 C   0  0  0  0  0  0  0  0  0  0  0  0
  -24.6870  -12.6768   22.1461 C   0  0  0  0  0  0  0  0  0  0  0  0
  -30.0946  -29.2354   25.1931 C   0  0  0  0  0  0  0  0  0  0  0  0
  -27.2515  -27.8321   19.3517 C   0  0  0  0  0  0  0  0  0  0  0  0
  -29.5442  -28.3175   24.2782 C   0  0  0  0  0  0  0  0  0  0  0  0
  -26.2154  -26.8957   19.2268 C   0  0  0  0  0  0  0  0  0  0  0  0
  -22.3875   -8.0878   21.2925 C   0  0  0  0  0  0  0  0  0  0  0  0
  -27.6446  -25.5202   17.8213 C   0  0  0  0  0  0  0  0  0  0  0  0
  -21.5880   -6.1493   22.3534 C   0  0  0  0  0  0  0  0  0  0  0  0
  -21.6018   -4.4552   24.5698 C   0  0  0  0  0  0  0  0  0  0  0  0
  -21.9609   -4.8131   22.2076 C   0  0  0  0  0  0  0  0  0  0  0  0
  -24.8942  -11.4936   21.4121 C   0  0  0  0  0  0  0  0  0  0  0  0
  -25.7739  -13.4614   21.8469 C   0  0  0  0  0  0  0  0  0  0  0  0
  -23.6084  -13.0347   23.0203 C   0  0  0  0  0  0  0  0  0  0  0  0
  -26.3727  -28.1637   22.3884 C   0  0  0  0  0  0  0  0  0  0  0  0
  -23.4849  -28.8360   21.0729 C   0  0  0  0  0  0  0  0  0  0  0  0
  -21.4578  -27.5572   18.3761 C   0  0  0  0  0  0  0  0  0  0  0  0
  -29.3527  -15.5462   18.1075 C   0  0  0  0  0  0  0  0  0  0  0  0
  -29.2425  -29.9427   26.2169 C   0  0  0  0  0  0  0  0  0  0  0  0
  -27.0464  -29.0940   20.1442 C   0  0  0  0  0  0  0  0  0  0  0  0
  -24.8820  -27.0941   19.8984 C   0  0  0  0  0  0  0  0  0  0  0  0
  -27.7516  -29.9185   25.8900 C   0  0  0  0  0  0  0  0  0  0  0  0
  -30.0904  -12.3730   19.4847 C   0  0  0  0  0  0  0  0  0  0  0  0
  -27.3173  -28.5145   25.4814 C   0  0  0  0  0  0  0  0  0  0  0  0
  -26.4474  -20.9592   17.7482 C   0  0  0  0  0  0  0  0  0  0  0  0
  -28.9190  -20.9850   18.2832 C   0  0  0  0  0  0  0  0  0  0  0  0
  -28.7837  -11.9341   20.1394 C   0  0  0  0  0  0  0  0  0  0  0  0
  -26.5687  -22.3521   17.1378 C   0  0  0  0  0  0  0  0  0  0  0  0
  -29.0334  -22.3783   17.6718 C   0  0  0  0  0  0  0  0  0  0  0  0
  -26.5949  -17.9276   17.6522 C   0  0  0  0  0  0  0  0  0  0  0  0
  -29.8201  -13.1224   18.1871 C   0  0  0  0  0  0  0  0  0  0  0  0
  -26.9889  -16.5404   18.1430 C   0  0  0  0  0  0  0  0  0  0  0  0
  -28.9080  -17.9801   18.2165 C   0  0  0  0  0  0  0  0  0  0  0  0
  -27.6318  -13.9219   19.0380 C   0  0  0  0  0  0  0  0  0  0  0  0
  -28.0551  -28.0545   24.2183 C   0  0  1  0  0  0  0  0  0  0  0  0
  -25.9461  -28.9684   21.1934 C   0  0  1  0  0  0  0  0  0  0  0  0
  -27.7694  -20.1845   17.6557 C   0  0  0  0  0  0  0  0  0  0  0  0
  -27.6406  -18.8239   18.3164 C   0  0  1  0  0  0  0  0  0  0  0  0
  -27.8520  -13.1380   20.3481 C   0  0  1  0  0  0  0  0  0  0  0  0
  -27.7149  -23.1437   17.7618 C   0  0  0  0  0  0  0  0  0  1  0  0
  -19.7198  -28.6888   16.9631 C   0  0  0  0  0  0  0  0  0  0  0  0
  -21.5136  -27.7221   23.1181 C   0  0  0  0  0  0  0  0  0  0  0  0
  -19.9219  -27.2763   21.2377 C   0  0  0  0  0  0  0  0  0  0  0  0
  -20.6309  -29.6143   21.7416 C   0  0  0  0  0  0  0  0  0  0  0  0
  -22.8441  -26.8129   15.8695 C   0  0  0  0  0  0  0  0  0  0  0  0
  -22.2781  -28.0232   20.6705 C   0  0  1  0  0  0  0  0  0  0  0  0
  -21.1706  -28.2413   17.0517 C   0  0  2  0  0  0  0  0  0  0  0  0
  -21.1123  -28.1478   21.6917 C   0  0  0  0  0  0  0  0  0  0  0  0
  -26.0240  -11.5198   20.7000 N   0  0  0  0  0  0  0  0  0  0  0  0
  -26.5363  -12.7290   20.9851 N   0  0  0  0  0  0  0  0  0  0  0  0
  -24.7323  -28.3407   20.6672 N   0  0  0  0  0  0  0  0  0  0  0  0
  -28.9077  -14.2497   18.3887 N   0  0  0  0  0  0  0  0  0  0  0  0
  -28.4473  -16.5951   18.2635 N   0  0  0  0  0  0  0  0  0  0  0  0
  -26.1423  -14.6994   22.2394 N   0  0  0  0  0  0  0  0  0  0  0  0
  -23.7178  -12.7173   24.3811 N   0  0  0  0  0  0  0  0  0  0  0  0
  -27.4785  -28.6717   23.0431 N   0  0  0  0  0  0  0  0  0  0  0  0
  -21.9345  -28.4453   19.3169 N   0  0  0  0  0  0  0  0  0  0  0  0
  -21.4462  -27.3132   15.9188 N   0  3  0  0  0  0  0  0  0  0  0  0
  -22.5710  -13.6040   22.6042 O   0  0  0  0  0  0  0  0  0  0  0  0
  -25.7443  -27.1572   22.6947 O   0  0  0  0  0  0  0  0  0  0  0  0
  -23.3262  -29.8760   21.7170 O   0  0  0  0  0  0  0  0  0  0  0  0
  -21.2738  -26.3558   18.5589 O   0  0  0  0  0  0  0  0  0  0  0  0
  -30.5006  -15.7559   17.6926 O   0  0  0  0  0  0  0  0  0  0  0  0
  -21.5814   -6.9917   21.2543 O   0  0  0  0  0  0  0  0  0  0  0  0
  -27.8349  -24.3860   17.0773 O   0  0  0  0  0  0  0  0  0  1  0  0
  -21.6099   -3.6423   25.6343 F   0  0  0  0  0  0  0  0  0  0  0  0
  -22.3146   -4.3378   21.0056 F   0  0  0  0  0  0  0  0  0  0  0  0
  1  2  1  0  0  0  0
  1  5  2  0  0  0  0
  2  6  2  0  0  0  0
  3  8  2  0  0  0  0
  3 15  1  0  0  0  0
  4  9  1  0  0  0  0
  4 15  2  0  0  0  0
  5 17  1  0  0  0  0
  6 19  1  0  0  0  0
  7 10  2  0  0  0  0
  7 18  1  0  0  0  0
  8 21  1  0  0  0  0
  9 21  2  0  0  0  0
 10 22  1  0  0  0  0
 11 12  2  0  0  0  0
 11 23  1  0  0  0  0
 12 24  1  0  0  0  0
 13 20  1  0  0  0  0
 13 22  2  0  0  0  0
 14 24  2  0  0  0  0
 14 25  1  0  0  0  0
 15 26  1  0  0  0  0
 16 26  1  0  0  0  0
 16 27  2  0  0  0  0
 16 28  1  0  0  0  0
 17 19  2  0  0  0  0
 17 33  1  0  0  0  0
 18 20  2  0  0  0  0
 18 34  1  0  0  0  0
 19 49  1  0  0  0  0
 20 35  1  0  0  0  0
 21 78  1  0  0  0  0
 22 79  1  0  0  0  0
 23 25  2  0  0  0  0
 23 78  1  0  0  0  0
 24 80  1  0  0  0  0
 25 81  1  0  0  0  0
 26 63  2  0  0  0  0
 27 64  1  0  0  0  0
 27 68  1  0  0  0  0
 28 69  1  0  0  0  0
 28 73  2  0  0  0  0
 29 50  1  0  0  0  0
 29 70  1  0  0  0  0
 29 74  2  0  0  0  0
 30 60  1  0  0  0  0
 30 65  1  0  0  0  0
 30 75  2  0  0  0  0
 31 61  1  0  0  0  0
 31 71  1  0  0  0  0
 31 76  2  0  0  0  0
 32 66  1  0  0  0  0
 32 67  1  0  0  0  0
 32 77  2  0  0  0  0
 33 36  1  0  0  0  0
 34 50  1  0  0  0  0
 35 65  1  0  0  0  0
 36 38  1  0  0  0  0
 37 41  1  0  0  0  0
 37 45  1  0  0  0  0
 38 49  1  0  0  0  0
 39 42  1  0  0  0  0
 39 51  1  0  0  0  0
 40 43  1  0  0  0  0
 40 51  1  0  0  0  0
 41 53  1  0  0  0  0
 42 54  1  0  0  0  0
 43 54  1  0  0  0  0
 44 46  1  0  0  0  0
 44 52  1  0  0  0  0
 45 66  1  0  0  0  0
 46 67  1  0  0  0  0
 47 52  1  0  0  0  0
 47 67  1  0  0  0  0
 48 53  1  0  0  0  0
 48 66  1  0  0  0  0
 49 70  1  0  0  0  0
 50 65  1  0  0  0  0
 51 52  1  0  0  0  0
 53 64  1  0  0  0  0
 54 79  1  0  0  0  0
 55 61  1  0  0  0  0
 56 62  1  0  0  0  0
 57 62  1  0  0  0  0
 58 62  1  0  0  0  0
 59 72  1  0  0  0  0
 60 62  1  0  0  0  0
 60 71  1  0  0  0  0
 61 72  1  0  0  0  0
 63 64  1  0  0  0  0
M  CHG  1  72   1
M  ISO  4  32 100  54 101  67 100  79 101
M  END
> <Batch ID>
0127

> <Smiles>
CNC(C)C(=O)NC(C(=O)N1Cc2cc([101O:1][101CH:1]3CCC(C4CC[100N:0]([100C:0](=O)N5CCCC(n6nc(-c7ccc(Oc8ccc(F)cc8F)cc7)c(C(N)=O)c6N)C5)C4)CC3)ccc2CC1C(=O)NC1CCCc2ccccc21)C(C)(C)C

> <Shape>
0.261

> <Color>
0.127

> <Negative vol penalty>
0.000

$$$$

  -OEChem-04052320403D

 83 91  0     1  0  0  0  0  0999 V2000
  -28.0258  -32.9940   26.6173 C   0  0  0  0  0  0  0  0  0  0  0  0
  -28.1328  -31.8201   25.8784 C   0  0  0  0  0  0  0  0  0  0  0  0
  -24.8604  -11.2949   20.6233 C   0  0  0  0  0  0  0  0  0  0  0  0
  -25.3721  -12.2098   22.8000 C   0  0  0  0  0  0  0  0  0  0  0  0
  -26.7678  -33.5092   26.9269 C   0  0  0  0  0  0  0  0  0  0  0  0
  -26.9817  -31.1601   25.4496 C   0  0  0  0  0  0  0  0  0  0  0  0
  -27.2843  -29.6648   20.6208 C   0  0  0  0  0  0  0  0  0  0  0  0
  -24.9143  -10.0055   21.1525 C   0  0  0  0  0  0  0  0  0  0  0  0
  -25.4260  -10.9203   23.3293 C   0  0  0  0  0  0  0  0  0  0  0  0
  -28.0319  -28.5185   20.3549 C   0  0  0  0  0  0  0  0  0  0  0  0
  -22.9157   -7.9747   22.9732 C   0  0  0  0  0  0  0  0  0  0  0  0
  -21.9018   -7.0853   22.6177 C   0  0  0  0  0  0  0  0  0  0  0  0
  -25.9983  -27.2259   20.2414 C   0  0  0  0  0  0  0  0  0  0  0  0
  -29.9587  -21.7708   21.5766 C   0  0  0  0  0  0  0  0  0  0  0  0
  -23.5439   -5.5991   21.6524 C   0  0  0  0  0  0  0  0  0  0  0  0
  -28.1458  -22.0691   22.8783 C   0  0  0  0  0  0  0  0  0  0  0  0
  -25.0894  -12.3971   21.4470 C   0  0  0  0  0  0  0  0  0  0  0  0
  -23.9062  -14.5667   20.8142 C   0  0  0  0  0  0  0  0  0  0  0  0
  -25.6008  -32.8604   26.4935 C   0  0  0  0  0  0  0  0  0  0  0  0
  -25.8864  -29.5982   20.7100 C   0  0  0  0  0  0  0  0  0  0  0  0
  -25.7069  -31.6664   25.7549 C   0  0  0  0  0  0  0  0  0  0  0  0
  -25.2351  -28.3733   20.5060 C   0  0  0  0  0  0  0  0  0  0  0  0
  -28.9900  -22.7135   22.0011 C   0  0  0  0  0  0  0  0  0  0  0  0
  -25.1970   -9.8182   22.5055 C   0  0  0  0  0  0  0  0  0  0  0  0
  -27.3892  -27.2982   20.1680 C   0  0  0  0  0  0  0  0  0  0  0  0
  -24.2438   -7.6764   22.6681 C   0  0  0  0  0  0  0  0  0  0  0  0
  -22.2158   -5.8974   21.9574 C   0  0  0  0  0  0  0  0  0  0  0  0
  -24.5578   -6.4886   22.0078 C   0  0  0  0  0  0  0  0  0  0  0  0
  -25.0345  -13.7292   20.9008 C   0  0  0  0  0  0  0  0  0  0  0  0
  -29.6769  -20.5791   22.2073 C   0  0  0  0  0  0  0  0  0  0  0  0
  -24.3750  -15.7142   20.2227 C   0  0  0  0  0  0  0  0  0  0  0  0
  -22.5553  -14.3287   21.2314 C   0  0  0  0  0  0  0  0  0  0  0  0
  -23.7548  -30.1705   22.9974 C   0  0  0  0  0  0  0  0  0  0  0  0
  -21.6266  -29.6370   20.6081 C   0  0  0  0  0  0  0  0  0  0  0  0
  -20.9606  -28.1857   17.5919 C   0  0  0  0  0  0  0  0  0  0  0  0
  -29.7992  -18.2342   19.9419 C   0  0  0  0  0  0  0  0  0  0  0  0
  -24.2626  -33.4298   26.8931 C   0  0  0  0  0  0  0  0  0  0  0  0
  -25.0926  -30.8488   20.9710 C   0  0  0  0  0  0  0  0  0  0  0  0
  -23.7352  -28.2522   20.5713 C   0  0  0  0  0  0  0  0  0  0  0  0
  -23.0964  -32.8721   26.0811 C   0  0  0  0  0  0  0  0  0  0  0  0
  -27.7462  -17.2610   17.2005 C   0  0  0  0  0  0  0  0  0  0  0  0
  -23.1971  -31.3537   25.9758 C   0  0  0  0  0  0  0  0  0  0  0  0
  -26.7166  -16.3211   17.8302 C   0  0  0  0  0  0  0  0  0  0  0  0
  -29.1220  -17.1037   17.8443 C   0  0  0  0  0  0  0  0  0  0  0  0
  -28.1085  -16.3008   19.9423 C   0  0  0  0  0  0  0  0  0  0  0  0
  -24.4818  -30.9350   25.2508 C   0  0  1  0  0  0  0  0  0  0  0  0
  -23.7089  -30.5685   21.5492 C   0  0  1  0  0  0  0  0  0  0  0  0
  -26.6923  -16.4627   19.3640 C   0  0  2  0  0  0  0  0  0  0  0  0
  -19.1216  -27.8935   15.9097 C   0  0  0  0  0  0  0  0  0  0  0  0
  -26.5087  -19.4769   23.3836 C   0  0  0  0  0  0  0  0  0  0  0  0
  -28.0044  -20.1441   25.3133 C   0  0  0  0  0  0  0  0  0  0  0  0
  -20.3016  -27.5695   22.4191 C   0  0  0  0  0  0  0  0  0  0  0  0
  -19.1209  -26.6646   20.4054 C   0  0  0  0  0  0  0  0  0  0  0  0
  -18.7072  -29.0119   21.1416 C   0  0  0  0  0  0  0  0  0  0  0  0
  -22.5177  -29.5542   15.4797 C   0  0  0  0  0  0  0  0  0  0  0  0
  -30.3670  -19.2756   22.1218 C   0  0  0  0  0  0  0  0  0  0  0  0
  -29.8189  -24.6641   20.6845 C   0  0  0  0  0  0  0  0  0  0  0  0
  -29.4323  -26.1161   20.4579 C   0  0  0  0  0  0  0  0  0  1  0  0
  -20.9157  -28.4228   20.0610 C   0  0  1  0  0  0  0  0  0  0  0  0
  -20.3175  -28.7334   16.3307 C   0  0  2  0  0  0  0  0  0  0  0  0
  -27.9416  -19.7736   23.8303 C   0  0  0  0  0  0  0  0  0  0  0  0
  -19.7897  -27.9188   21.0074 C   0  0  0  0  0  0  0  0  0  0  0  0
  -26.1369  -14.2964   20.4038 N   0  0  0  0  0  0  0  0  0  0  0  0
  -28.5727  -20.7722   22.9958 N   0  0  0  0  0  0  0  0  0  0  0  0
  -25.7037  -15.5025   19.9992 N   0  0  0  0  0  0  0  0  0  0  0  0
  -23.0035  -29.5021   20.8354 N   0  0  0  0  0  0  0  0  0  0  0  0
  -29.0296  -17.2506   19.2989 N   0  0  0  0  0  0  0  0  0  0  0  0
  -23.7761  -16.8736   19.8770 N   0  0  0  0  0  0  0  0  0  0  0  0
  -22.2457  -13.0957   21.8215 N   0  0  0  0  0  0  0  0  0  0  0  0
  -28.9023  -24.0394   21.6105 N   0  0  0  0  0  0  0  0  0  0  0  0
  -24.3371  -31.1141   23.8220 N   0  0  0  0  0  0  0  0  0  0  0  0
  -20.4552  -28.7867   18.7253 N   0  0  0  0  0  0  0  0  0  0  0  0
  -29.6473  -18.3105   21.3209 N   0  0  0  0  0  0  0  0  0  0  0  0
  -21.3010  -28.7454   15.2110 N   0  3  0  0  0  0  0  0  0  0  0  0
  -21.6461  -15.1777   21.0702 O   0  0  0  0  0  0  0  0  0  0  0  0
  -23.2944  -29.0882   23.3414 O   0  0  0  0  0  0  0  0  0  0  0  0
  -20.9853  -30.6694   20.8190 O   0  0  0  0  0  0  0  0  0  0  0  0
  -21.8223  -27.3095   17.5738 O   0  0  0  0  0  0  0  0  0  0  0  0
  -30.5609  -18.9919   19.3315 O   0  0  0  0  0  0  0  0  0  0  0  0
  -25.2494   -8.5601   23.0224 O   0  0  0  0  0  0  0  0  0  0  0  0
  -28.1165  -26.1777   19.9090 O   0  0  0  0  0  0  0  0  0  1  0  0
  -21.2422   -5.0426   21.6175 F   0  0  0  0  0  0  0  0  0  0  0  0
  -25.8320   -6.1960   21.7132 F   0  0  0  0  0  0  0  0  0  0  0  0
  1  2  1  0  0  0  0
  1  5  2  0  0  0  0
  2  6  2  0  0  0  0
  3  8  2  0  0  0  0
  3 17  1  0  0  0  0
  4  9  1  0  0  0  0
  4 17  2  0  0  0  0
  5 19  1  0  0  0  0
  6 21  1  0  0  0  0
  7 10  2  0  0  0  0
  7 20  1  0  0  0  0
  8 24  1  0  0  0  0
  9 24  2  0  0  0  0
 10 25  1  0  0  0  0
 11 12  2  0  0  0  0
 11 26  1  0  0  0  0
 12 27  1  0  0  0  0
 13 22  1  0  0  0  0
 13 25  2  0  0  0  0
 14 23  1  0  0  0  0
 14 30  2  0  0  0  0
 15 27  2  0  0  0  0
 15 28  1  0  0  0  0
 16 23  2  0  0  0  0
 16 64  1  0  0  0  0
 17 29  1  0  0  0  0
 18 29  1  0  0  0  0
 18 31  2  0  0  0  0
 18 32  1  0  0  0  0
 19 21  2  0  0  0  0
 19 37  1  0  0  0  0
 20 22  2  0  0  0  0
 20 38  1  0  0  0  0
 21 46  1  0  0  0  0
 22 39  1  0  0  0  0
 23 70  1  0  0  0  0
 24 80  1  0  0  0  0
 25 81  1  0  0  0  0
 26 28  2  0  0  0  0
 26 80  1  0  0  0  0
 27 82  1  0  0  0  0
 28 83  1  0  0  0  0
 29 63  2  0  0  0  0
 30 56  1  0  0  0  0
 30 64  1  0  0  0  0
 31 65  1  0  0  0  0
 31 68  1  0  0  0  0
 32 69  1  0  0  0  0
 32 75  2  0  0  0  0
 33 47  1  0  0  0  0
 33 71  1  0  0  0  0
 33 76  2  0  0  0  0
 34 59  1  0  0  0  0
 34 66  1  0  0  0  0
 34 77  2  0  0  0  0
 35 60  1  0  0  0  0
 35 72  1  0  0  0  0
 35 78  2  0  0  0  0
 36 67  1  0  0  0  0
 36 73  1  0  0  0  0
 36 79  2  0  0  0  0
 37 40  1  0  0  0  0
 38 47  1  0  0  0  0
 39 66  1  0  0  0  0
 40 42  1  0  0  0  0
 41 43  1  0  0  0  0
 41 44  1  0  0  0  0
 42 46  1  0  0  0  0
 43 48  1  0  0  0  0
 44 67  1  0  0  0  0
 45 48  1  0  0  0  0
 45 67  1  0  0  0  0
 46 71  1  0  0  0  0
 47 66  1  0  0  0  0
 48 65  1  0  0  0  0
 49 60  1  0  0  0  0
 50 61  1  0  0  0  0
 51 61  1  0  0  0  0
 52 62  1  0  0  0  0
 53 62  1  0  0  0  0
 54 62  1  0  0  0  0
 55 74  1  0  0  0  0
 56 73  1  0  0  0  0
 57 58  1  0  0  0  0
 57 70  1  0  0  0  0
 58 81  1  0  0  0  0
 59 62  1  0  0  0  0
 59 72  1  0  0  0  0
 60 74  1  0  0  0  0
 61 64  1  0  0  0  0
 63 65  1  0  0  0  0
M  CHG  1  74   1
M  ISO  4  36 100  58 101  73 100  81 101
M  END
> <Batch ID>
0127

> <Smiles>
CNC(C)C(=O)NC(C(=O)N1Cc2cc([101O:1][101CH2:1]CNc3cc(C[100NH:0][100C:0](=O)N4CCCC(n5nc(-c6ccc(Oc7ccc(F)cc7F)cc6)c(C(N)=O)c5N)C4)n(C(C)C)c3)ccc2CC1C(=O)NC1CCCc2ccccc21)C(C)(C)C

> <Shape>
0.297

> <Color>
0.087

> <Negative vol penalty>
0.000

$$$$

  -OEChem-04052320403D

 80 88  0     1  0  0  0  0  0999 V2000
  -32.3976  -27.4533   14.4062 C   0  0  0  0  0  0  0  0  0  0  0  0
  -31.0871  -27.0048   14.5361 C   0  0  0  0  0  0  0  0  0  0  0  0
  -30.3550  -18.6023   21.0266 C   0  0  0  0  0  0  0  0  0  0  0  0
  -28.2540  -18.0433   19.9729 C   0  0  0  0  0  0  0  0  0  0  0  0
  -33.1676  -27.6915   15.5439 C   0  0  0  0  0  0  0  0  0  0  0  0
  -30.5462  -26.7933   15.8038 C   0  0  0  0  0  0  0  0  0  0  0  0
  -24.3419  -27.1872   19.3630 C   0  0  0  0  0  0  0  0  0  0  0  0
  -30.8923  -17.3880   20.5995 C   0  0  0  0  0  0  0  0  0  0  0  0
  -28.7913  -16.8290   19.5457 C   0  0  0  0  0  0  0  0  0  0  0  0
  -23.5174  -26.4139   20.1791 C   0  0  0  0  0  0  0  0  0  0  0  0
  -29.4476  -13.7902   20.8744 C   0  0  0  0  0  0  0  0  0  0  0  0
  -28.6687  -12.6444   21.0356 C   0  0  0  0  0  0  0  0  0  0  0  0
  -24.9153  -26.9346   22.0748 C   0  0  0  0  0  0  0  0  0  0  0  0
  -19.7466  -22.7350   24.6558 C   0  0  0  0  0  0  0  0  0  0  0  0
  -19.9106  -24.6580   23.2207 C   0  0  0  0  0  0  0  0  0  0  0  0
  -28.7160  -12.2764   18.6482 C   0  0  0  0  0  0  0  0  0  0  0  0
  -29.0358  -18.9299   20.7134 C   0  0  0  0  0  0  0  0  0  0  0  0
  -28.4986  -21.4114   20.4660 C   0  0  0  0  0  0  0  0  0  0  0  0
  -32.6328  -27.4921   16.8264 C   0  0  0  0  0  0  0  0  0  0  0  0
  -25.4674  -27.8322   19.8955 C   0  0  0  0  0  0  0  0  0  0  0  0
  -31.3102  -27.0278   16.9597 C   0  0  0  0  0  0  0  0  0  0  0  0
  -25.7511  -27.7176   21.2639 C   0  0  0  0  0  0  0  0  0  0  0  0
  -19.2217  -23.9345   24.1877 C   0  0  0  0  0  0  0  0  0  0  0  0
  -30.1105  -16.5014   19.8590 C   0  0  0  0  0  0  0  0  0  0  0  0
  -23.8056  -26.2851   21.5346 C   0  0  0  0  0  0  0  0  0  0  0  0
  -29.8606  -14.1792   19.6001 C   0  0  0  0  0  0  0  0  0  0  0  0
  -28.3029  -11.8874   19.9225 C   0  0  0  0  0  0  0  0  0  0  0  0
  -29.4948  -13.4223   18.4870 C   0  0  0  0  0  0  0  0  0  0  0  0
  -28.4800  -20.1838   21.1548 C   0  0  0  0  0  0  0  0  0  0  0  0
  -20.9541  -22.3060   24.1290 C   0  0  0  0  0  0  0  0  0  0  0  0
  -21.1109  -24.1430   22.7582 C   0  0  0  0  0  0  0  0  0  0  0  0
  -27.8461  -22.2842   21.3021 C   0  0  0  0  0  0  0  0  0  0  0  0
  -29.0558  -21.7340   19.1849 C   0  0  0  0  0  0  0  0  0  0  0  0
  -28.6011  -27.6560   19.3925 C   0  0  0  0  0  0  0  0  0  0  0  0
  -28.6766  -30.1753   21.4346 C   0  0  0  0  0  0  0  0  0  0  0  0
  -27.1653  -31.9053   23.9584 C   0  0  0  0  0  0  0  0  0  0  0  0
  -23.7609  -21.5181   25.6119 C   0  0  0  0  0  0  0  0  0  0  0  0
  -33.5189  -27.7179   18.0257 C   0  0  0  0  0  0  0  0  0  0  0  0
  -26.3317  -28.6844   19.0072 C   0  0  0  0  0  0  0  0  0  0  0  0
  -26.9359  -28.4064   21.8886 C   0  0  0  0  0  0  0  0  0  0  0  0
  -32.7495  -27.8276   19.3395 C   0  0  0  0  0  0  0  0  0  0  0  0
  -26.9500  -23.0678   25.9361 C   0  0  0  0  0  0  0  0  0  0  0  0
  -31.7138  -26.7128   19.4464 C   0  0  0  0  0  0  0  0  0  0  0  0
  -27.7054  -22.6151   24.6853 C   0  0  0  0  0  0  0  0  0  0  0  0
  -26.0393  -21.9666   26.4747 C   0  0  0  0  0  0  0  0  0  0  0  0
  -25.8547  -20.9499   24.2373 C   0  0  0  0  0  0  0  0  0  0  0  0
  -30.6798  -26.8104   18.3182 C   0  0  1  0  0  0  0  0  0  0  0  0
  -27.7425  -28.8785   19.5543 C   0  0  1  0  0  0  0  0  0  0  0  0
  -26.7439  -22.0456   23.6249 C   0  0  2  0  0  0  0  0  0  0  0  0
  -17.9245  -24.4423   24.7199 C   0  0  0  0  0  0  0  0  0  0  0  0
  -27.4860  -33.9002   25.4467 C   0  0  0  0  0  0  0  0  0  0  0  0
  -30.7008  -28.6082   23.0950 C   0  0  0  0  0  0  0  0  0  0  0  0
  -30.2615  -30.1841   24.9902 C   0  0  0  0  0  0  0  0  0  0  0  0
  -31.2140  -31.0436   22.8509 C   0  0  0  0  0  0  0  0  0  0  0  0
  -24.7218  -33.2156   22.9235 C   0  0  0  0  0  0  0  0  0  0  0  0
  -21.5467  -21.0225   24.6065 C   0  0  0  0  0  0  0  0  0  0  0  0
  -21.8821  -24.8984   21.7160 C   0  0  0  0  0  0  0  0  0  1  0  0
  -28.7884  -30.3351   22.9315 C   0  0  1  0  0  0  0  0  0  0  0  0
  -26.8951  -33.3877   24.1425 C   0  0  2  0  0  0  0  0  0  0  0  0
  -30.2199  -30.0281   23.4551 C   0  0  0  0  0  0  0  0  0  0  0  0
  -27.8646  -20.2654   22.3375 N   0  0  0  0  0  0  0  0  0  0  0  0
  -21.6523  -22.9815   23.1889 N   0  0  0  0  0  0  0  0  0  0  0  0
  -27.4905  -21.5548   22.3983 N   0  0  0  0  0  0  0  0  0  0  0  0
  -27.7544  -29.2233   20.9774 N   0  0  0  0  0  0  0  0  0  0  0  0
  -25.1516  -21.4710   25.4201 N   0  0  0  0  0  0  0  0  0  0  0  0
  -27.5477  -23.5967   21.1992 N   0  0  0  0  0  0  0  0  0  0  0  0
  -29.6915  -20.7182   18.4580 N   0  0  0  0  0  0  0  0  0  0  0  0
  -29.7179  -27.8534   18.6031 N   0  0  0  0  0  0  0  0  0  0  0  0
  -28.3175  -31.6823   23.2345 N   0  0  0  0  0  0  0  0  0  0  0  0
  -22.9919  -21.0343   24.5606 N   0  0  0  0  0  0  0  0  0  0  0  0
  -25.4279  -33.6489   24.1566 N   0  3  0  0  0  0  0  0  0  0  0  0
  -29.0063  -22.8925   18.7065 O   0  0  0  0  0  0  0  0  0  0  0  0
  -28.2752  -26.6115   19.9443 O   0  0  0  0  0  0  0  0  0  0  0  0
  -29.3765  -30.8746   20.6978 O   0  0  0  0  0  0  0  0  0  0  0  0
  -26.4301  -31.0325   24.4146 O   0  0  0  0  0  0  0  0  0  0  0  0
  -23.2429  -21.9636   26.6416 O   0  0  0  0  0  0  0  0  0  0  0  0
  -30.6345  -15.3166   19.4418 O   0  0  0  0  0  0  0  0  0  0  0  0
  -23.0028  -25.5304   22.3332 O   0  0  0  0  0  0  0  0  0  1  0  0
  -27.5562  -10.7863   20.0776 F   0  0  0  0  0  0  0  0  0  0  0  0
  -29.8896  -13.7903   17.2605 F   0  0  0  0  0  0  0  0  0  0  0  0
  1  2  1  0  0  0  0
  1  5  2  0  0  0  0
  2  6  2  0  0  0  0
  3  8  2  0  0  0  0
  3 17  1  0  0  0  0
  4  9  1  0  0  0  0
  4 17  2  0  0  0  0
  5 19  1  0  0  0  0
  6 21  1  0  0  0  0
  7 10  2  0  0  0  0
  7 20  1  0  0  0  0
  8 24  1  0  0  0  0
  9 24  2  0  0  0  0
 10 25  1  0  0  0  0
 11 12  2  0  0  0  0
 11 26  1  0  0  0  0
 12 27  1  0  0  0  0
 13 22  1  0  0  0  0
 13 25  2  0  0  0  0
 14 23  1  0  0  0  0
 14 30  2  0  0  0  0
 15 23  2  0  0  0  0
 15 31  1  0  0  0  0
 16 27  2  0  0  0  0
 16 28  1  0  0  0  0
 17 29  1  0  0  0  0
 18 29  1  0  0  0  0
 18 32  2  0  0  0  0
 18 33  1  0  0  0  0
 19 21  2  0  0  0  0
 19 38  1  0  0  0  0
 20 22  2  0  0  0  0
 20 39  1  0  0  0  0
 21 47  1  0  0  0  0
 22 40  1  0  0  0  0
 23 50  1  0  0  0  0
 24 77  1  0  0  0  0
 25 78  1  0  0  0  0
 26 28  2  0  0  0  0
 26 77  1  0  0  0  0
 27 79  1  0  0  0  0
 28 80  1  0  0  0  0
 29 61  2  0  0  0  0
 30 56  1  0  0  0  0
 30 62  1  0  0  0  0
 31 57  1  0  0  0  0
 31 62  2  0  0  0  0
 32 63  1  0  0  0  0
 32 66  1  0  0  0  0
 33 67  1  0  0  0  0
 33 72  2  0  0  0  0
 34 48  1  0  0  0  0
 34 68  1  0  0  0  0
 34 73  2  0  0  0  0
 35 58  1  0  0  0  0
 35 64  1  0  0  0  0
 35 74  2  0  0  0  0
 36 59  1  0  0  0  0
 36 69  1  0  0  0  0
 36 75  2  0  0  0  0
 37 65  1  0  0  0  0
 37 70  1  0  0  0  0
 37 76  2  0  0  0  0
 38 41  1  0  0  0  0
 39 48  1  0  0  0  0
 40 64  1  0  0  0  0
 41 43  1  0  0  0  0
 42 44  1  0  0  0  0
 42 45  1  0  0  0  0
 43 47  1  0  0  0  0
 44 49  1  0  0  0  0
 45 65  1  0  0  0  0
 46 49  1  0  0  0  0
 46 65  1  0  0  0  0
 47 68  1  0  0  0  0
 48 64  1  0  0  0  0
 49 63  1  0  0  0  0
 51 59  1  0  0  0  0
 52 60  1  0  0  0  0
 53 60  1  0  0  0  0
 54 60  1  0  0  0  0
 55 71  1  0  0  0  0
 56 70  1  0  0  0  0
 57 78  1  0  0  0  0
 58 60  1  0  0  0  0
 58 69  1  0  0  0  0
 59 71  1  0  0  0  0
 61 63  1  0  0  0  0
M  CHG  1  71   1
M  ISO  4  37 100  57 101  70 100  78 101
M  END
> <Batch ID>
0127

> <Smiles>
CNC(C)C(=O)NC(C(=O)N1Cc2cc([101O:1][101CH2:1]c3cc(C)cc(C[100NH:0][100C:0](=O)N4CCCC(n5nc(-c6ccc(Oc7ccc(F)cc7F)cc6)c(C(N)=O)c5N)C4)n3)ccc2CC1C(=O)NC1CCCc2ccccc21)C(C)(C)C

> <Shape>
0.204

> <Color>
0.089

> <Negative vol penalty>
0.000

$$$$

  -OEChem-04052320403D

 85 94  0     1  0  0  0  0  0999 V2000
  -15.7394  -25.3416   14.5906 C   0  0  0  0  0  0  0  0  0  0  0  0
  -16.9192  -24.6435   14.8276 C   0  0  0  0  0  0  0  0  0  0  0  0
  -23.0735   -9.8740   19.9403 C   0  0  0  0  0  0  0  0  0  0  0  0
  -23.8386   -9.8757   22.2320 C   0  0  0  0  0  0  0  0  0  0  0  0
  -15.5375  -26.5879   15.1821 C   0  0  0  0  0  0  0  0  0  0  0  0
  -17.8982  -25.1917   15.6554 C   0  0  0  0  0  0  0  0  0  0  0  0
  -21.6311  -22.1614   19.4486 C   0  0  0  0  0  0  0  0  0  0  0  0
  -29.1726  -20.9470   18.2138 C   0  0  0  0  0  0  0  0  0  0  0  0
  -22.3296   -8.7207   20.1895 C   0  0  0  0  0  0  0  0  0  0  0  0
  -23.0945   -8.7224   22.4812 C   0  0  0  0  0  0  0  0  0  0  0  0
  -22.9533  -21.7374   19.3230 C   0  0  0  0  0  0  0  0  0  0  0  0
  -19.8673   -7.9252   23.0893 C   0  0  0  0  0  0  0  0  0  0  0  0
  -19.1130   -7.8832   24.2618 C   0  0  0  0  0  0  0  0  0  0  0  0
  -29.6362  -19.9769   19.0954 C   0  0  0  0  0  0  0  0  0  0  0  0
  -23.6935  -23.7239   20.4741 C   0  0  0  0  0  0  0  0  0  0  0  0
  -20.3549   -5.9435   24.9913 C   0  0  0  0  0  0  0  0  0  0  0  0
  -23.8281  -10.4514   20.9615 C   0  0  0  0  0  0  0  0  0  0  0  0
  -24.1711  -12.9766   20.8461 C   0  0  0  0  0  0  0  0  0  0  0  0
  -16.5104  -27.1474   16.0254 C   0  0  0  0  0  0  0  0  0  0  0  0
  -21.3305  -23.3773   20.0793 C   0  0  0  0  0  0  0  0  0  0  0  0
  -17.7097  -26.4473   16.2577 C   0  0  0  0  0  0  0  0  0  0  0  0
  -27.8177  -21.2574   18.1803 C   0  0  0  0  0  0  0  0  0  0  0  0
  -22.3665  -24.1600   20.6086 C   0  0  0  0  0  0  0  0  0  0  0  0
  -22.3400   -8.1450   21.4599 C   0  0  0  0  0  0  0  0  0  0  0  0
  -23.9850  -22.5200   19.8332 C   0  0  0  0  0  0  0  0  0  0  0  0
  -20.8654   -6.9763   22.8677 C   0  0  0  0  0  0  0  0  0  0  0  0
  -19.3568   -6.8924   25.2128 C   0  0  0  0  0  0  0  0  0  0  0  0
  -21.1092   -5.9855   23.8188 C   0  0  0  0  0  0  0  0  0  0  0  0
  -24.5973  -11.6424   20.7046 C   0  0  0  0  0  0  0  0  0  0  0  0
  -26.9743  -20.5746   19.0419 C   0  0  0  0  0  0  0  0  0  0  0  0
  -28.7115  -19.3516   19.9162 C   0  0  0  0  0  0  0  0  0  0  0  0
  -25.2628  -13.7263   20.4819 C   0  0  0  0  0  0  0  0  0  0  0  0
  -22.9018  -13.4923   21.2689 C   0  0  0  0  0  0  0  0  0  0  0  0
  -19.9544  -26.0950   19.1715 C   0  0  0  0  0  0  0  0  0  0  0  0
  -20.2292  -26.8313   22.3187 C   0  0  0  0  0  0  0  0  0  0  0  0
  -21.8331  -26.3128   25.2861 C   0  0  0  0  0  0  0  0  0  0  0  0
  -30.7476  -14.7418   20.6602 C   0  0  0  0  0  0  0  0  0  0  0  0
  -16.2674  -28.5186   16.6044 C   0  0  0  0  0  0  0  0  0  0  0  0
  -19.8972  -23.8077   20.2303 C   0  0  0  0  0  0  0  0  0  0  0  0
  -22.0953  -25.4636   21.3125 C   0  0  0  0  0  0  0  0  0  0  0  0
  -17.1943  -28.8615   17.7679 C   0  0  0  0  0  0  0  0  0  0  0  0
  -29.6033  -12.3630   18.2709 C   0  0  0  0  0  0  0  0  0  0  0  0
  -28.2526  -23.3760   16.7672 C   0  0  0  0  0  0  0  0  0  0  0  0
  -27.1539  -23.7134   17.7261 C   0  0  0  0  0  0  0  0  0  0  0  0
  -18.6366  -28.5024   17.4251 C   0  0  0  0  0  0  0  0  0  0  0  0
  -28.1666  -12.0692   18.7064 C   0  0  0  0  0  0  0  0  0  0  0  0
  -30.5232  -12.5808   19.4702 C   0  0  0  0  0  0  0  0  0  0  0  0
  -28.6250  -13.3100   20.8626 C   0  0  0  0  0  0  0  0  0  0  0  0
  -27.3132  -22.2963   17.2389 C   0  0  0  0  0  0  0  0  0  0  0  0
  -18.7847  -26.9977   17.1695 C   0  0  1  0  0  0  0  0  0  0  0  0
  -19.7435  -25.3115   20.4362 C   0  0  1  0  0  0  0  0  0  0  0  0
  -27.6481  -13.1384   19.6868 C   0  0  2  0  0  0  0  0  0  0  0  0
  -21.8604  -27.0887   27.6724 C   0  0  0  0  0  0  0  0  0  0  0  0
  -30.4153  -17.2810   23.3202 C   0  0  0  0  0  0  0  0  0  0  0  0
  -21.6493  -29.3940   21.4666 C   0  0  0  0  0  0  0  0  0  0  0  0
  -22.4726  -29.6371   23.8185 C   0  0  0  0  0  0  0  0  0  0  0  0
  -20.0236  -29.6776   23.3457 C   0  0  0  0  0  0  0  0  0  0  0  0
  -21.1801  -23.6081   26.2946 C   0  0  0  0  0  0  0  0  0  0  0  0
  -25.5023  -20.8649   19.0495 C   0  0  0  0  0  0  0  0  0  1  0  0
  -30.5790  -18.0105   20.8857 C   0  0  0  0  0  0  0  0  0  0  0  0
  -21.2832  -27.4921   23.1739 C   0  0  1  0  0  0  0  0  0  0  0  0
  -21.3040  -26.0715   26.6883 C   0  0  2  0  0  0  0  0  0  0  0  0
  -30.8174  -16.8897   21.9014 C   0  0  2  0  0  0  0  0  0  0  0  0
  -21.3628  -29.0266   22.9363 C   0  0  0  0  0  0  0  0  0  0  0  0
  -25.8611  -11.5468   20.2833 N   0  0  0  0  0  0  0  0  0  0  0  0
  -27.3878  -19.6263   19.9121 N   0  0  0  0  0  0  0  0  0  0  0  0
  -26.2385  -12.8304   20.1568 N   0  0  0  0  0  0  0  0  0  0  0  0
  -20.6780  -25.8445   21.4295 N   0  0  0  0  0  0  0  0  0  0  0  0
  -29.9752  -13.6077   20.3596 N   0  0  0  0  0  0  0  0  0  0  0  0
  -25.4738  -15.0578   20.4113 N   0  0  0  0  0  0  0  0  0  0  0  0
  -21.8902  -12.5830   21.6065 N   0  0  0  0  0  0  0  0  0  0  0  0
  -29.1995  -18.3662   20.8102 N   0  0  0  0  0  0  0  0  0  0  0  0
  -18.8073  -26.2722   18.4216 N   0  0  0  0  0  0  0  0  0  0  0  0
  -20.9860  -27.1155   24.5517 N   0  0  0  0  0  0  0  0  0  0  0  0
  -30.1508  -15.6692   21.5055 N   0  0  0  0  0  0  0  0  0  0  0  0
  -21.6822  -24.7084   27.1572 N   0  3  0  0  0  0  0  0  0  0  0  0
  -22.6664  -14.7229   21.3294 O   0  0  0  0  0  0  0  0  0  0  0  0
  -21.0745  -26.5094   18.8972 O   0  0  0  0  0  0  0  0  0  0  0  0
  -19.0502  -27.1729   22.4403 O   0  0  0  0  0  0  0  0  0  0  0  0
  -22.8937  -25.8398   24.8838 O   0  0  0  0  0  0  0  0  0  0  0  0
  -31.8826  -14.9176   20.2044 O   0  0  0  0  0  0  0  0  0  0  0  0
  -21.6140   -7.0197   21.7035 O   0  0  0  0  0  0  0  0  0  0  0  0
  -25.2764  -22.1087   19.7114 O   0  0  0  0  0  0  0  0  0  1  0  0
  -18.6333   -6.8531   26.3394 F   0  0  0  0  0  0  0  0  0  0  0  0
  -22.0676   -5.0719   23.6121 F   0  0  0  0  0  0  0  0  0  0  0  0
  1  2  1  0  0  0  0
  1  5  2  0  0  0  0
  2  6  2  0  0  0  0
  3  9  2  0  0  0  0
  3 17  1  0  0  0  0
  4 10  1  0  0  0  0
  4 17  2  0  0  0  0
  5 19  1  0  0  0  0
  6 21  1  0  0  0  0
  7 11  2  0  0  0  0
  7 20  1  0  0  0  0
  8 14  2  0  0  0  0
  8 22  1  0  0  0  0
  9 24  1  0  0  0  0
 10 24  2  0  0  0  0
 11 25  1  0  0  0  0
 12 13  2  0  0  0  0
 12 26  1  0  0  0  0
 13 27  1  0  0  0  0
 14 31  1  0  0  0  0
 15 23  1  0  0  0  0
 15 25  2  0  0  0  0
 16 27  2  0  0  0  0
 16 28  1  0  0  0  0
 17 29  1  0  0  0  0
 18 29  1  0  0  0  0
 18 32  2  0  0  0  0
 18 33  1  0  0  0  0
 19 21  2  0  0  0  0
 19 38  1  0  0  0  0
 20 23  2  0  0  0  0
 20 39  1  0  0  0  0
 21 50  1  0  0  0  0
 22 30  2  0  0  0  0
 22 49  1  0  0  0  0
 23 40  1  0  0  0  0
 24 82  1  0  0  0  0
 25 83  1  0  0  0  0
 26 28  2  0  0  0  0
 26 82  1  0  0  0  0
 27 84  1  0  0  0  0
 28 85  1  0  0  0  0
 29 65  2  0  0  0  0
 30 59  1  0  0  0  0
 30 66  1  0  0  0  0
 31 66  2  0  0  0  0
 31 72  1  0  0  0  0
 32 67  1  0  0  0  0
 32 70  1  0  0  0  0
 33 71  1  0  0  0  0
 33 77  2  0  0  0  0
 34 51  1  0  0  0  0
 34 73  1  0  0  0  0
 34 78  2  0  0  0  0
 35 61  1  0  0  0  0
 35 68  1  0  0  0  0
 35 79  2  0  0  0  0
 36 62  1  0  0  0  0
 36 74  1  0  0  0  0
 36 80  2  0  0  0  0
 37 69  1  0  0  0  0
 37 75  1  0  0  0  0
 37 81  2  0  0  0  0
 38 41  1  0  0  0  0
 39 51  1  0  0  0  0
 40 68  1  0  0  0  0
 41 45  1  0  0  0  0
 42 46  1  0  0  0  0
 42 47  1  0  0  0  0
 43 44  1  0  0  0  0
 43 49  1  0  0  0  0
 44 49  1  0  0  0  0
 45 50  1  0  0  0  0
 46 52  1  0  0  0  0
 47 69  1  0  0  0  0
 48 52  1  0  0  0  0
 48 69  1  0  0  0  0
 50 73  1  0  0  0  0
 51 68  1  0  0  0  0
 52 67  1  0  0  0  0
 53 62  1  0  0  0  0
 54 63  1  0  0  0  0
 55 64  1  0  0  0  0
 56 64  1  0  0  0  0
 57 64  1  0  0  0  0
 58 76  1  0  0  0  0
 59 83  1  0  0  0  0
 60 63  1  0  0  0  0
 60 72  1  0  0  0  0
 61 64  1  0  0  0  0
 61 74  1  0  0  0  0
 62 76  1  0  0  0  0
 63 75  1  0  0  0  0
 65 67  1  0  0  0  0
M  CHG  1  76   1
M  ISO  4  37 100  59 101  75 100  83 101
M  END
> <Batch ID>
0127

> <Smiles>
CNC(C)C(=O)NC(C(=O)N1Cc2cc([101O:1][101CH2:1]c3nc(NCC(C)[100NH:0][100C:0](=O)N4CCCC(n5nc(-c6ccc(Oc7ccc(F)cc7F)cc6)c(C(N)=O)c5N)C4)ccc3C3CC3)ccc2CC1C(=O)NC1CCCc2ccccc21)C(C)(C)C

> <Shape>
0.268

> <Color>
0.192

> <Negative vol penalty>
0.000

$$$$

  -OEChem-04052320403D

 81 89  0     1  0  0  0  0  0999 V2000
  -27.9274  -33.2914   14.0197 C   0  0  0  0  0  0  0  0  0  0  0  0
  -28.1144  -31.9540   14.3538 C   0  0  0  0  0  0  0  0  0  0  0  0
  -22.8809  -10.1682   19.9718 C   0  0  0  0  0  0  0  0  0  0  0  0
  -23.8052   -9.8848   22.1859 C   0  0  0  0  0  0  0  0  0  0  0  0
  -27.4531  -34.1880   14.9763 C   0  0  0  0  0  0  0  0  0  0  0  0
  -27.8282  -31.5125   15.6452 C   0  0  0  0  0  0  0  0  0  0  0  0
  -25.5700  -26.0518   17.2533 C   0  0  0  0  0  0  0  0  0  0  0  0
  -29.2937  -21.1245   19.1821 C   0  0  0  0  0  0  0  0  0  0  0  0
  -27.1176  -20.6249   20.1050 C   0  0  0  0  0  0  0  0  0  0  0  0
  -29.8275  -20.0170   19.8410 C   0  0  0  0  0  0  0  0  0  0  0  0
  -27.6513  -19.5174   20.7640 C   0  0  0  0  0  0  0  0  0  0  0  0
  -22.0807   -9.0416   20.1616 C   0  0  0  0  0  0  0  0  0  0  0  0
  -23.0050   -8.7582   22.3757 C   0  0  0  0  0  0  0  0  0  0  0  0
  -26.1751  -24.8906   17.7323 C   0  0  0  0  0  0  0  0  0  0  0  0
  -23.0281   -5.5032   21.4615 C   0  0  0  0  0  0  0  0  0  0  0  0
  -23.6234   -4.3721   22.0198 C   0  0  0  0  0  0  0  0  0  0  0  0
  -25.6647  -25.5639   19.9918 C   0  0  0  0  0  0  0  0  0  0  0  0
  -22.0671   -4.4641   23.8655 C   0  0  0  0  0  0  0  0  0  0  0  0
  -23.7432  -10.5898   20.9839 C   0  0  0  0  0  0  0  0  0  0  0  0
  -24.2460  -13.0883   21.0948 C   0  0  0  0  0  0  0  0  0  0  0  0
  -27.1518  -33.7554   16.2773 C   0  0  0  0  0  0  0  0  0  0  0  0
  -25.0164  -26.9845   18.1421 C   0  0  0  0  0  0  0  0  0  0  0  0
  -27.3507  -32.4044   16.6205 C   0  0  0  0  0  0  0  0  0  0  0  0
  -25.0509  -26.7349   19.5214 C   0  0  0  0  0  0  0  0  0  0  0  0
  -27.9388  -21.4285   19.3141 C   0  0  0  0  0  0  0  0  0  0  0  0
  -29.0063  -19.2134   20.6319 C   0  0  0  0  0  0  0  0  0  0  0  0
  -22.1428   -8.3366   21.3635 C   0  0  0  0  0  0  0  0  0  0  0  0
  -26.2251  -24.6480   19.1019 C   0  0  0  0  0  0  0  0  0  0  0  0
  -21.9524   -6.1149   22.1052 C   0  0  0  0  0  0  0  0  0  0  0  0
  -23.1429   -3.8526   23.2218 C   0  0  0  0  0  0  0  0  0  0  0  0
  -21.4719   -5.5953   23.3072 C   0  0  0  0  0  0  0  0  0  0  0  0
  -24.5705  -11.7532   20.7882 C   0  0  0  0  0  0  0  0  0  0  0  0
  -25.3571  -13.8055   20.7237 C   0  0  0  0  0  0  0  0  0  0  0  0
  -23.0476  -13.6316   21.6642 C   0  0  0  0  0  0  0  0  0  0  0  0
  -25.5895  -30.0323   18.8395 C   0  0  0  0  0  0  0  0  0  0  0  0
  -22.9375  -29.7052   20.6785 C   0  0  0  0  0  0  0  0  0  0  0  0
  -20.8465  -27.6329   22.4050 C   0  0  0  0  0  0  0  0  0  0  0  0
  -30.8964  -14.4684   20.5765 C   0  0  0  0  0  0  0  0  0  0  0  0
  -26.6864  -34.7710   17.2906 C   0  0  0  0  0  0  0  0  0  0  0  0
  -24.3436  -28.2192   17.6080 C   0  0  0  0  0  0  0  0  0  0  0  0
  -24.4532  -27.6949   20.5163 C   0  0  0  0  0  0  0  0  0  0  0  0
  -26.0514  -34.1473   18.5307 C   0  0  0  0  0  0  0  0  0  0  0  0
  -29.4280  -12.4248   18.0577 C   0  0  0  0  0  0  0  0  0  0  0  0
  -26.9098  -32.9979   19.0493 C   0  0  0  0  0  0  0  0  0  0  0  0
  -28.0094  -12.1731   18.5719 C   0  0  0  0  0  0  0  0  0  0  0  0
  -30.4434  -12.4608   19.1978 C   0  0  0  0  0  0  0  0  0  0  0  0
  -28.7022  -13.1522   20.7990 C   0  0  0  0  0  0  0  0  0  0  0  0
  -27.0281  -31.8824   18.0038 C   0  0  1  0  0  0  0  0  0  0  0  0
  -24.2679  -29.3484   18.6311 C   0  0  1  0  0  0  0  0  0  0  0  0
  -27.6349  -13.1630   19.6913 C   0  0  2  0  0  0  0  0  0  0  0  0
  -18.7867  -27.6611   23.8381 C   0  0  0  0  0  0  0  0  0  0  0  0
  -24.5849  -30.7570   23.0215 C   0  0  0  0  0  0  0  0  0  0  0  0
  -22.8202  -29.8800   24.5657 C   0  0  0  0  0  0  0  0  0  0  0  0
  -22.2520  -31.6501   22.9024 C   0  0  0  0  0  0  0  0  0  0  0  0
  -19.3545  -25.9329   20.4964 C   0  0  0  0  0  0  0  0  0  0  0  0
  -27.3638  -22.6198   18.6060 C   0  0  0  0  0  0  0  0  0  1  0  0
  -30.9236  -17.7226   21.2037 C   0  0  0  0  0  0  0  0  0  0  0  0
  -31.1984  -16.4668   22.0168 C   0  0  0  0  0  0  0  0  0  0  0  0
  -22.6701  -29.2878   22.1045 C   0  0  1  0  0  0  0  0  0  0  0  0
  -19.3329  -27.5188   22.4259 C   0  0  2  0  0  0  0  0  0  0  0  0
  -23.0949  -30.3764   23.1302 C   0  0  0  0  0  0  0  0  0  0  0  0
  -25.7919  -11.6270   20.2627 N   0  0  0  0  0  0  0  0  0  0  0  0
  -26.2447  -12.8920   20.2361 N   0  0  0  0  0  0  0  0  0  0  0  0
  -23.8120  -28.8908   19.9453 N   0  0  0  0  0  0  0  0  0  0  0  0
  -30.0302  -13.4200   20.2250 N   0  0  0  0  0  0  0  0  0  0  0  0
  -25.6515  -15.1222   20.7702 N   0  0  0  0  0  0  0  0  0  0  0  0
  -22.0036  -12.7538   21.9868 N   0  0  0  0  0  0  0  0  0  0  0  0
  -29.5452  -18.0925   21.2968 N   0  0  0  0  0  0  0  0  0  0  0  0
  -25.8201  -31.0859   17.9756 N   0  0  0  0  0  0  0  0  0  0  0  0
  -21.2578  -28.9272   22.1663 N   0  0  0  0  0  0  0  0  0  0  0  0
  -30.4249  -15.3362   21.5539 N   0  0  0  0  0  0  0  0  0  0  0  0
  -18.9057  -26.1963   21.8878 N   0  3  0  0  0  0  0  0  0  0  0  0
  -22.9003  -14.8610   21.8653 O   0  0  0  0  0  0  0  0  0  0  0  0
  -26.3434  -29.6346   19.7199 O   0  0  0  0  0  0  0  0  0  0  0  0
  -22.3849  -30.7126   20.2296 O   0  0  0  0  0  0  0  0  0  0  0  0
  -21.5896  -26.6709   22.5861 O   0  0  0  0  0  0  0  0  0  0  0  0
  -32.0054  -14.6230   20.0538 O   0  0  0  0  0  0  0  0  0  0  0  0
  -21.3619   -7.2373   21.5492 O   0  0  0  0  0  0  0  0  0  0  0  0
  -26.8157  -23.5157   19.5721 O   0  0  0  0  0  0  0  0  0  1  0  0
  -23.7137   -2.7654   23.7571 F   0  0  0  0  0  0  0  0  0  0  0  0
  -20.4379   -6.1778   23.9296 F   0  0  0  0  0  0  0  0  0  0  0  0
  1  2  1  0  0  0  0
  1  5  2  0  0  0  0
  2  6  2  0  0  0  0
  3 12  2  0  0  0  0
  3 19  1  0  0  0  0
  4 13  1  0  0  0  0
  4 19  2  0  0  0  0
  5 21  1  0  0  0  0
  6 23  1  0  0  0  0
  7 14  2  0  0  0  0
  7 22  1  0  0  0  0
  8 10  2  0  0  0  0
  8 25  1  0  0  0  0
  9 11  1  0  0  0  0
  9 25  2  0  0  0  0
 10 26  1  0  0  0  0
 11 26  2  0  0  0  0
 12 27  1  0  0  0  0
 13 27  2  0  0  0  0
 14 28  1  0  0  0  0
 15 16  2  0  0  0  0
 15 29  1  0  0  0  0
 16 30  1  0  0  0  0
 17 24  1  0  0  0  0
 17 28  2  0  0  0  0
 18 30  2  0  0  0  0
 18 31  1  0  0  0  0
 19 32  1  0  0  0  0
 20 32  1  0  0  0  0
 20 33  2  0  0  0  0
 20 34  1  0  0  0  0
 21 23  2  0  0  0  0
 21 39  1  0  0  0  0
 22 24  2  0  0  0  0
 22 40  1  0  0  0  0
 23 48  1  0  0  0  0
 24 41  1  0  0  0  0
 25 56  1  0  0  0  0
 26 68  1  0  0  0  0
 27 78  1  0  0  0  0
 28 79  1  0  0  0  0
 29 31  2  0  0  0  0
 29 78  1  0  0  0  0
 30 80  1  0  0  0  0
 31 81  1  0  0  0  0
 32 62  2  0  0  0  0
 33 63  1  0  0  0  0
 33 66  1  0  0  0  0
 34 67  1  0  0  0  0
 34 73  2  0  0  0  0
 35 49  1  0  0  0  0
 35 69  1  0  0  0  0
 35 74  2  0  0  0  0
 36 59  1  0  0  0  0
 36 64  1  0  0  0  0
 36 75  2  0  0  0  0
 37 60  1  0  0  0  0
 37 70  1  0  0  0  0
 37 76  2  0  0  0  0
 38 65  1  0  0  0  0
 38 71  1  0  0  0  0
 38 77  2  0  0  0  0
 39 42  1  0  0  0  0
 40 49  1  0  0  0  0
 41 64  1  0  0  0  0
 42 44  1  0  0  0  0
 43 45  1  0  0  0  0
 43 46  1  0  0  0  0
 44 48  1  0  0  0  0
 45 50  1  0  0  0  0
 46 65  1  0  0  0  0
 47 50  1  0  0  0  0
 47 65  1  0  0  0  0
 48 69  1  0  0  0  0
 49 64  1  0  0  0  0
 50 63  1  0  0  0  0
 51 60  1  0  0  0  0
 52 61  1  0  0  0  0
 53 61  1  0  0  0  0
 54 61  1  0  0  0  0
 55 72  1  0  0  0  0
 56 79  1  0  0  0  0
 57 58  1  0  0  0  0
 57 68  1  0  0  0  0
 58 71  1  0  0  0  0
 59 61  1  0  0  0  0
 59 70  1  0  0  0  0
 60 72  1  0  0  0  0
 62 63  1  0  0  0  0
M  CHG  1  72   1
M  ISO  4  38 100  56 101  71 100  79 101
M  END
> <Batch ID>
0127

> <Smiles>
CNC(C)C(=O)NC(C(=O)N1Cc2cc([101O:1][101CH2:1]c3ccc(NCC[100NH:0][100C:0](=O)N4CCCC(n5nc(-c6ccc(Oc7ccc(F)cc7F)cc6)c(C(N)=O)c5N)C4)cc3)ccc2CC1C(=O)NC1CCCc2ccccc21)C(C)(C)C

> <Shape>
0.349

> <Color>
0.203

> <Negative vol penalty>
0.000

$$$$

  -OEChem-04052320403D

 83 91  0     1  0  0  0  0  0999 V2000
  -17.3826  -24.5508   20.7270 C   0  0  0  0  0  0  0  0  0  0  0  0
  -17.5493  -23.2699   20.2103 C   0  0  0  0  0  0  0  0  0  0  0  0
  -26.0899  -25.7088   20.0773 C   0  0  0  0  0  0  0  0  0  0  0  0
  -27.0325  -25.2709   22.2582 C   0  0  0  0  0  0  0  0  0  0  0  0
  -18.4398  -25.1794   21.3836 C   0  0  0  0  0  0  0  0  0  0  0  0
  -18.7738  -22.6173   20.3489 C   0  0  0  0  0  0  0  0  0  0  0  0
  -21.5437  -16.0654   21.1953 C   0  0  0  0  0  0  0  0  0  0  0  0
  -25.2803  -26.7030   20.6268 C   0  0  0  0  0  0  0  0  0  0  0  0
  -26.2230  -26.2650   22.8078 C   0  0  0  0  0  0  0  0  0  0  0  0
  -22.4989  -15.2191   20.6340 C   0  0  0  0  0  0  0  0  0  0  0  0
  -25.6122  -29.9164   21.6250 C   0  0  0  0  0  0  0  0  0  0  0  0
  -25.5212  -31.1293   20.9421 C   0  0  0  0  0  0  0  0  0  0  0  0
  -24.2298  -16.3715   21.8567 C   0  0  0  0  0  0  0  0  0  0  0  0
  -23.1365  -30.8190   20.7089 C   0  0  0  0  0  0  0  0  0  0  0  0
  -26.9659  -24.9927   20.8930 C   0  0  0  0  0  0  0  0  0  0  0  0
  -29.0975  -24.1192   19.7972 C   0  0  0  0  0  0  0  0  0  0  0  0
  -19.6749  -24.5303   21.5388 C   0  0  0  0  0  0  0  0  0  0  0  0
  -21.9263  -17.0798   22.0847 C   0  0  0  0  0  0  0  0  0  0  0  0
  -19.8489  -23.2383   21.0070 C   0  0  0  0  0  0  0  0  0  0  0  0
  -23.2773  -17.2277   22.4300 C   0  0  0  0  0  0  0  0  0  0  0  0
  -25.3469  -26.9811   21.9920 C   0  0  0  0  0  0  0  0  0  0  0  0
  -23.8425  -15.3739   20.9623 C   0  0  0  0  0  0  0  0  0  0  0  0
  -24.4654  -29.1548   21.8498 C   0  0  0  0  0  0  0  0  0  0  0  0
  -24.2833  -31.5806   20.4841 C   0  0  0  0  0  0  0  0  0  0  0  0
  -23.2276  -29.6061   21.3918 C   0  0  0  0  0  0  0  0  0  0  0  0
  -27.8020  -23.9653   20.3261 C   0  0  0  0  0  0  0  0  0  0  0  0
  -29.4545  -22.8569   19.3903 C   0  0  0  0  0  0  0  0  0  0  0  0
  -29.9060  -25.2978   19.6839 C   0  0  0  0  0  0  0  0  0  0  0  0
  -21.7434  -20.2532   22.0806 C   0  0  0  0  0  0  0  0  0  0  0  0
  -22.8765  -19.9335   25.1032 C   0  0  0  0  0  0  0  0  0  0  0  0
  -24.5964  -18.0471   27.3682 C   0  0  0  0  0  0  0  0  0  0  0  0
  -29.8280  -17.4806   20.3408 C   0  0  0  0  0  0  0  0  0  0  0  0
  -20.8031  -25.2687   22.2146 C   0  0  0  0  0  0  0  0  0  0  0  0
  -20.8807  -17.9673   22.7023 C   0  0  0  0  0  0  0  0  0  0  0  0
  -23.7375  -18.2882   23.3954 C   0  0  0  0  0  0  0  0  0  0  0  0
  -21.9516  -24.3613   22.6479 C   0  0  0  0  0  0  0  0  0  0  0  0
  -26.6990  -18.6385   18.9386 C   0  0  0  0  0  0  0  0  0  0  0  0
  -22.3295  -23.4039   21.5221 C   0  0  0  0  0  0  0  0  0  0  0  0
  -29.1255  -13.3507   20.8622 C   0  0  0  0  0  0  0  0  0  0  0  0
  -29.3937  -13.7721   18.3809 C   0  0  0  0  0  0  0  0  0  0  0  0
  -26.8192  -20.1510   19.1342 C   0  0  0  0  0  0  0  0  0  0  0  0
  -28.4916  -11.9910   20.5657 C   0  0  0  0  0  0  0  0  0  0  0  0
  -28.7596  -12.4136   18.0787 C   0  0  0  0  0  0  0  0  0  0  0  0
  -27.3013  -17.8791   20.1170 C   0  0  0  0  0  0  0  0  0  0  0  0
  -28.8419  -19.7384   20.6102 C   0  0  0  0  0  0  0  0  0  0  0  0
  -21.1543  -22.4880   21.1591 C   0  0  1  0  0  0  0  0  0  0  0  0
  -21.4423  -19.2960   23.1990 C   0  0  1  0  0  0  0  0  0  0  0  0
  -30.0886  -13.7835   19.7489 C   0  0  0  0  0  0  0  0  0  0  0  0
  -28.2712  -20.5625   19.4418 C   0  0  2  0  0  0  0  0  0  0  0  0
  -27.8312  -11.9231   19.1892 C   0  0  0  0  0  0  0  0  0  0  0  0
  -25.3916  -18.0661   29.7482 C   0  0  0  0  0  0  0  0  0  0  0  0
  -31.6635  -15.5627   18.9470 C   0  0  0  0  0  0  0  0  0  0  0  0
  -31.3876  -15.1498   21.4023 C   0  0  0  0  0  0  0  0  0  0  0  0
  -25.0972  -21.8831   24.3432 C   0  0  0  0  0  0  0  0  0  0  0  0
  -26.3531  -21.1365   26.3763 C   0  0  0  0  0  0  0  0  0  0  0  0
  -24.1296  -22.2406   26.6215 C   0  0  0  0  0  0  0  0  0  0  0  0
  -23.0169  -15.6353   28.0370 C   0  0  0  0  0  0  0  0  0  0  0  0
  -25.5506  -12.2885   20.1479 C   0  0  0  0  0  0  0  0  0  0  0  0
  -24.3607  -13.2255   20.0837 C   0  0  0  0  0  0  0  0  0  1  0  0
  -24.2486  -19.8776   25.7303 C   0  0  1  0  0  0  0  0  0  0  0  0
  -24.2779  -17.6523   28.7989 C   0  0  2  0  0  0  0  0  0  0  0  0
  -30.6693  -15.1649   20.0463 C   0  0  0  0  0  0  0  0  0  0  0  0
  -24.9490  -21.2656   25.7481 C   0  0  0  0  0  0  0  0  0  0  0  0
  -27.3654  -22.7046   20.2622 N   0  0  0  0  0  0  0  0  0  0  0  0
  -28.3923  -22.0549   19.6883 N   0  0  0  0  0  0  0  0  0  0  0  0
  -22.6781  -19.1352   23.9678 N   0  0  0  0  0  0  0  0  0  0  0  0
  -28.6897  -18.3039   20.3450 N   0  0  0  0  0  0  0  0  0  0  0  0
  -30.5702  -22.3658   18.8103 N   0  0  0  0  0  0  0  0  0  0  0  0
  -29.3860  -26.5123   20.1518 N   0  0  0  0  0  0  0  0  0  0  0  0
  -21.0188  -21.4285   22.1355 N   0  0  0  0  0  0  0  0  0  0  0  0
  -24.0704  -19.2813   27.0498 N   0  0  0  0  0  0  0  0  0  0  0  0
  -29.5968  -16.1339   20.0885 N   0  0  0  0  0  0  0  0  0  0  0  0
  -26.5916  -12.7524   19.1964 N   0  3  0  0  0  0  0  0  0  0  0  0
  -24.0974  -16.1765   28.9011 N   0  3  0  0  0  0  0  0  0  0  0  0
  -31.0491  -25.2777   19.1677 O   0  0  0  0  0  0  0  0  0  0  0  0
  -22.5729  -19.9486   21.2315 O   0  0  0  0  0  0  0  0  0  0  0  0
  -22.0104  -20.6533   25.6066 O   0  0  0  0  0  0  0  0  0  0  0  0
  -25.2500  -17.3339   26.6101 O   0  0  0  0  0  0  0  0  0  0  0  0
  -30.9674  -17.9146   20.5418 O   0  0  0  0  0  0  0  0  0  0  0  0
  -24.5573  -27.9513   22.5285 O   0  0  0  0  0  0  0  0  0  0  0  0
  -24.7769  -14.5496   20.4153 O   0  0  0  0  0  0  0  0  0  1  0  0
  -24.1958  -32.7460   19.8298 F   0  0  0  0  0  0  0  0  0  0  0  0
  -22.1222  -28.8793   21.6057 F   0  0  0  0  0  0  0  0  0  0  0  0
  1  2  1  0  0  0  0
  1  5  2  0  0  0  0
  2  6  2  0  0  0  0
  3  8  2  0  0  0  0
  3 15  1  0  0  0  0
  4  9  1  0  0  0  0
  4 15  2  0  0  0  0
  5 17  1  0  0  0  0
  6 19  1  0  0  0  0
  7 10  2  0  0  0  0
  7 18  1  0  0  0  0
  8 21  1  0  0  0  0
  9 21  2  0  0  0  0
 10 22  1  0  0  0  0
 11 12  2  0  0  0  0
 11 23  1  0  0  0  0
 12 24  1  0  0  0  0
 13 20  1  0  0  0  0
 13 22  2  0  0  0  0
 14 24  2  0  0  0  0
 14 25  1  0  0  0  0
 15 26  1  0  0  0  0
 16 26  1  0  0  0  0
 16 27  2  0  0  0  0
 16 28  1  0  0  0  0
 17 19  2  0  0  0  0
 17 33  1  0  0  0  0
 18 20  2  0  0  0  0
 18 34  1  0  0  0  0
 19 46  1  0  0  0  0
 20 35  1  0  0  0  0
 21 80  1  0  0  0  0
 22 81  1  0  0  0  0
 23 25  2  0  0  0  0
 23 80  1  0  0  0  0
 24 82  1  0  0  0  0
 25 83  1  0  0  0  0
 26 64  2  0  0  0  0
 27 65  1  0  0  0  0
 27 68  1  0  0  0  0
 28 69  1  0  0  0  0
 28 75  2  0  0  0  0
 29 47  1  0  0  0  0
 29 70  1  0  0  0  0
 29 76  2  0  0  0  0
 30 60  1  0  0  0  0
 30 66  1  0  0  0  0
 30 77  2  0  0  0  0
 31 61  1  0  0  0  0
 31 71  1  0  0  0  0
 31 78  2  0  0  0  0
 32 67  1  0  0  0  0
 32 72  1  0  0  0  0
 32 79  2  0  0  0  0
 33 36  1  0  0  0  0
 34 47  1  0  0  0  0
 35 66  1  0  0  0  0
 36 38  1  0  0  0  0
 37 41  1  0  0  0  0
 37 44  1  0  0  0  0
 38 46  1  0  0  0  0
 39 42  1  0  0  0  0
 39 48  1  0  0  0  0
 40 43  1  0  0  0  0
 40 48  1  0  0  0  0
 41 49  1  0  0  0  0
 42 50  1  0  0  0  0
 43 50  1  0  0  0  0
 44 67  1  0  0  0  0
 45 49  1  0  0  0  0
 45 67  1  0  0  0  0
 46 70  1  0  0  0  0
 47 66  1  0  0  0  0
 48 62  1  0  0  0  0
 49 65  1  0  0  0  0
 50 73  1  0  0  0  0
 51 61  1  0  0  0  0
 52 62  1  0  0  0  0
 53 62  1  0  0  0  0
 54 63  1  0  0  0  0
 55 63  1  0  0  0  0
 56 63  1  0  0  0  0
 57 74  1  0  0  0  0
 58 59  1  0  0  0  0
 58 73  1  0  0  0  0
 59 81  1  0  0  0  0
 60 63  1  0  0  0  0
 60 71  1  0  0  0  0
 61 74  1  0  0  0  0
 62 72  1  0  0  0  0
 64 65  1  0  0  0  0
M  CHG  2  73   1  74   1
M  ISO  4  32 100  59 101  72 100  81 101
M  END
> <Batch ID>
0127

> <Smiles>
CNC(C)C(=O)NC(C(=O)N1Cc2cc([101O:1][101CH2:1]CNC3CCC(C(C)(C)[100NH:0][100C:0](=O)N4CCCC(n5nc(-c6ccc(Oc7ccc(F)cc7F)cc6)c(C(N)=O)c5N)C4)CC3)ccc2CC1C(=O)NC1CCCc2ccccc21)C(C)(C)C

> <Shape>
0.210

> <Color>
0.069

> <Negative vol penalty>
0.000

$$$$

  -OEChem-04052320403D

 77 85  0     1  0  0  0  0  0999 V2000
  -25.2083  -20.1917   31.7237 C   0  0  0  0  0  0  0  0  0  0  0  0
  -25.7542  -19.8145   30.5010 C   0  0  0  0  0  0  0  0  0  0  0  0
  -23.1378   -9.8649   21.3923 C   0  0  0  0  0  0  0  0  0  0  0  0
  -23.9047  -10.7011   23.5253 C   0  0  0  0  0  0  0  0  0  0  0  0
  -23.8480  -20.0053   31.9657 C   0  0  0  0  0  0  0  0  0  0  0  0
  -24.9402  -19.2495   29.5199 C   0  0  0  0  0  0  0  0  0  0  0  0
  -25.8012  -21.1946   24.9242 C   0  0  0  0  0  0  0  0  0  0  0  0
  -22.4243   -8.8586   22.0433 C   0  0  0  0  0  0  0  0  0  0  0  0
  -23.1911   -9.6949   24.1763 C   0  0  0  0  0  0  0  0  0  0  0  0
  -26.9281  -20.7394   24.2411 C   0  0  0  0  0  0  0  0  0  0  0  0
  -20.6905   -5.8511   23.1263 C   0  0  0  0  0  0  0  0  0  0  0  0
  -20.7769   -4.5569   22.6134 C   0  0  0  0  0  0  0  0  0  0  0  0
  -25.5359  -19.2549   22.9460 C   0  0  0  0  0  0  0  0  0  0  0  0
  -23.1664   -4.5750   22.9702 C   0  0  0  0  0  0  0  0  0  0  0  0
  -23.8781  -10.7861   22.1332 C   0  0  0  0  0  0  0  0  0  0  0  0
  -24.1553  -13.1120   21.1227 C   0  0  0  0  0  0  0  0  0  0  0  0
  -23.0150  -19.4467   30.9836 C   0  0  0  0  0  0  0  0  0  0  0  0
  -24.5325  -20.6746   24.6304 C   0  0  0  0  0  0  0  0  0  0  0  0
  -23.5676  -19.0542   29.7495 C   0  0  0  0  0  0  0  0  0  0  0  0
  -24.3942  -19.7070   23.6250 C   0  0  0  0  0  0  0  0  0  0  0  0
  -22.4509   -8.7736   23.4353 C   0  0  0  0  0  0  0  0  0  0  0  0
  -26.7960  -19.7673   23.2538 C   0  0  0  0  0  0  0  0  0  0  0  0
  -21.8421   -6.5074   23.5612 C   0  0  0  0  0  0  0  0  0  0  0  0
  -22.0149   -3.9189   22.5353 C   0  0  0  0  0  0  0  0  0  0  0  0
  -23.0800   -5.8693   23.4831 C   0  0  0  0  0  0  0  0  0  0  0  0
  -24.6158  -11.8255   21.4613 C   0  0  0  0  0  0  0  0  0  0  0  0
  -25.2269  -13.7086   20.5045 C   0  0  0  0  0  0  0  0  0  0  0  0
  -22.8735  -13.7139   21.3470 C   0  0  0  0  0  0  0  0  0  0  0  0
  -22.3359  -19.0609   26.2659 C   0  0  0  0  0  0  0  0  0  0  0  0
  -20.5756  -19.4958   23.5761 C   0  0  0  0  0  0  0  0  0  0  0  0
  -20.5181  -20.0765   20.2136 C   0  0  0  0  0  0  0  0  0  0  0  0
  -30.5603  -14.8660   20.0735 C   0  0  0  0  0  0  0  0  0  0  0  0
  -21.5596  -19.2212   31.3086 C   0  0  0  0  0  0  0  0  0  0  0  0
  -23.3234  -21.1955   25.3578 C   0  0  0  0  0  0  0  0  0  0  0  0
  -23.0518  -19.1313   23.2577 C   0  0  0  0  0  0  0  0  0  0  0  0
  -20.6940  -18.9609   30.0785 C   0  0  0  0  0  0  0  0  0  0  0  0
  -29.5960  -11.7729   18.8665 C   0  0  0  0  0  0  0  0  0  0  0  0
  -21.3625  -17.9419   29.1611 C   0  0  0  0  0  0  0  0  0  0  0  0
  -28.1731  -11.6033   19.3988 C   0  0  0  0  0  0  0  0  0  0  0  0
  -30.2702  -18.3678   21.2480 C   0  0  0  0  0  0  0  0  0  0  0  0
  -29.3605  -16.8313   23.0257 C   0  0  0  0  0  0  0  0  0  0  0  0
  -30.5032  -12.3947   19.9221 C   0  0  0  0  0  0  0  0  0  0  0  0
  -31.0741  -17.2024   20.6783 C   0  0  0  0  0  0  0  0  0  0  0  0
  -30.1853  -15.6970   22.4264 C   0  0  0  0  0  0  0  0  0  0  0  0
  -28.5902  -13.5525   20.9784 C   0  0  0  0  0  0  0  0  0  0  0  0
  -22.7123  -18.4609   28.6510 C   0  0  1  0  0  0  0  0  0  0  0  0
  -22.1472  -20.2242   25.3337 C   0  0  1  0  0  0  0  0  0  0  0  0
  -30.0070  -18.1955   22.7495 C   0  0  0  0  0  0  0  0  0  0  0  0
  -27.6259  -12.9333   19.9467 C   0  0  2  0  0  0  0  0  0  0  0  0
  -18.9319  -20.3424   18.2873 C   0  0  0  0  0  0  0  0  0  0  0  0
  -20.1268  -16.4781   23.5323 C   0  0  0  0  0  0  0  0  0  0  0  0
  -19.3829  -16.6934   21.1514 C   0  0  0  0  0  0  0  0  0  0  0  0
  -18.1089  -17.8412   22.9631 C   0  0  0  0  0  0  0  0  0  0  0  0
  -21.4474  -22.8350   19.6786 C   0  0  0  0  0  0  0  0  0  0  0  0
  -29.1332  -19.3285   23.2823 C   0  0  0  0  0  0  0  0  0  1  0  0
  -20.3792  -18.7280   22.2912 C   0  0  1  0  0  0  0  0  0  0  0  0
  -19.7194  -21.0574   19.3743 C   0  0  2  0  0  0  0  0  0  0  0  0
  -19.5251  -17.4444   22.4925 C   0  0  0  0  0  0  0  0  0  0  0  0
  -25.8814  -11.6163   21.0889 N   0  0  0  0  0  0  0  0  0  0  0  0
  -26.2252  -12.7793   20.5098 N   0  0  0  0  0  0  0  0  0  0  0  0
  -21.9004  -19.6683   24.0017 N   0  0  0  0  0  0  0  0  0  0  0  0
  -29.9469  -13.6527   20.4201 N   0  0  0  0  0  0  0  0  0  0  0  0
  -30.4547  -15.9173   20.9992 N   0  0  0  0  0  0  0  0  0  0  0  0
  -25.4032  -14.9322   19.9622 N   0  0  0  0  0  0  0  0  0  0  0  0
  -21.8861  -12.9606   21.9965 N   0  0  0  0  0  0  0  0  0  0  0  0
  -22.5150  -19.4224   27.5875 N   0  0  0  0  0  0  0  0  0  0  0  0
  -19.8193  -19.6739   21.3320 N   0  0  0  0  0  0  0  0  0  0  0  0
  -20.6284  -22.0435   18.7247 N   0  3  0  0  0  0  0  0  0  0  0  0
  -22.6062  -14.8793   20.9677 O   0  0  0  0  0  0  0  0  0  0  0  0
  -22.3187  -17.9199   25.8193 O   0  0  0  0  0  0  0  0  0  0  0  0
  -19.5904  -19.9327   24.1762 O   0  0  0  0  0  0  0  0  0  0  0  0
  -21.6475  -19.7020   19.9058 O   0  0  0  0  0  0  0  0  0  0  0  0
  -31.1622  -15.0058   19.0015 O   0  0  0  0  0  0  0  0  0  0  0  0
  -21.7545   -7.7919   24.0709 O   0  0  0  0  0  0  0  0  0  0  0  0
  -27.9044  -19.3167   22.5798 O   0  0  0  0  0  0  0  0  0  1  0  0
  -22.0975   -2.6755   22.0441 F   0  0  0  0  0  0  0  0  0  0  0  0
  -24.1896   -6.4942   23.9004 F   0  0  0  0  0  0  0  0  0  0  0  0
  1  2  1  0  0  0  0
  1  5  2  0  0  0  0
  2  6  2  0  0  0  0
  3  8  2  0  0  0  0
  3 15  1  0  0  0  0
  4  9  1  0  0  0  0
  4 15  2  0  0  0  0
  5 17  1  0  0  0  0
  6 19  1  0  0  0  0
  7 10  2  0  0  0  0
  7 18  1  0  0  0  0
  8 21  1  0  0  0  0
  9 21  2  0  0  0  0
 10 22  1  0  0  0  0
 11 12  2  0  0  0  0
 11 23  1  0  0  0  0
 12 24  1  0  0  0  0
 13 20  1  0  0  0  0
 13 22  2  0  0  0  0
 14 24  2  0  0  0  0
 14 25  1  0  0  0  0
 15 26  1  0  0  0  0
 16 26  1  0  0  0  0
 16 27  2  0  0  0  0
 16 28  1  0  0  0  0
 17 19  2  0  0  0  0
 17 33  1  0  0  0  0
 18 20  2  0  0  0  0
 18 34  1  0  0  0  0
 19 46  1  0  0  0  0
 20 35  1  0  0  0  0
 21 74  1  0  0  0  0
 22 75  1  0  0  0  0
 23 25  2  0  0  0  0
 23 74  1  0  0  0  0
 24 76  1  0  0  0  0
 25 77  1  0  0  0  0
 26 59  2  0  0  0  0
 27 60  1  0  0  0  0
 27 64  1  0  0  0  0
 28 65  1  0  0  0  0
 28 69  2  0  0  0  0
 29 47  1  0  0  0  0
 29 66  1  0  0  0  0
 29 70  2  0  0  0  0
 30 56  1  0  0  0  0
 30 61  1  0  0  0  0
 30 71  2  0  0  0  0
 31 57  1  0  0  0  0
 31 67  1  0  0  0  0
 31 72  2  0  0  0  0
 32 62  1  0  0  0  0
 32 63  1  0  0  0  0
 32 73  2  0  0  0  0
 33 36  1  0  0  0  0
 34 47  1  0  0  0  0
 35 61  1  0  0  0  0
 36 38  1  0  0  0  0
 37 39  1  0  0  0  0
 37 42  1  0  0  0  0
 38 46  1  0  0  0  0
 39 49  1  0  0  0  0
 40 43  1  0  0  0  0
 40 48  1  0  0  0  0
 41 44  1  0  0  0  0
 41 48  1  0  0  0  0
 42 62  1  0  0  0  0
 43 63  1  0  0  0  0
 44 63  1  0  0  0  0
 45 49  1  0  0  0  0
 45 62  1  0  0  0  0
 46 66  1  0  0  0  0
 47 61  1  0  0  0  0
 48 55  1  0  0  0  0
 49 60  1  0  0  0  0
 50 57  1  0  0  0  0
 51 58  1  0  0  0  0
 52 58  1  0  0  0  0
 53 58  1  0  0  0  0
 54 68  1  0  0  0  0
 55 75  1  0  0  0  0
 56 58  1  0  0  0  0
 56 67  1  0  0  0  0
 57 68  1  0  0  0  0
 59 60  1  0  0  0  0
M  CHG  1  68   1
M  ISO  4  32 100  55 101  63 100  75 101
M  END
> <Batch ID>
0127

> <Smiles>
CNC(C)C(=O)NC(C(=O)N1Cc2cc([101O:1][101CH2:1]C3CC[100N:0]([100C:0](=O)N4CCCC(n5nc(-c6ccc(Oc7ccc(F)cc7F)cc6)c(C(N)=O)c5N)C4)CC3)ccc2CC1C(=O)NC1CCCc2ccccc21)C(C)(C)C

> <Shape>
0.164

> <Color>
0.146

> <Negative vol penalty>
0.000

$$$$

  -OEChem-04052320403D

 86 95  0     1  0  0  0  0  0999 V2000
  -18.0839  -32.0794   19.9950 C   0  0  0  0  0  0  0  0  0  0  0  0
  -19.4261  -31.9515   19.6523 C   0  0  0  0  0  0  0  0  0  0  0  0
  -29.0767  -17.7486   20.9959 C   0  0  0  0  0  0  0  0  0  0  0  0
  -31.4337  -18.0853   20.5861 C   0  0  0  0  0  0  0  0  0  0  0  0
  -17.6460  -31.6760   21.2557 C   0  0  0  0  0  0  0  0  0  0  0  0
  -20.3316  -31.4211   20.5705 C   0  0  0  0  0  0  0  0  0  0  0  0
  -25.2106  -27.9320   19.3348 C   0  0  0  0  0  0  0  0  0  0  0  0
  -29.2858  -16.3714   21.0670 C   0  0  0  0  0  0  0  0  0  0  0  0
  -31.6429  -16.7080   20.6573 C   0  0  0  0  0  0  0  0  0  0  0  0
  -26.5675  -28.2270   19.2105 C   0  0  0  0  0  0  0  0  0  0  0  0
  -29.7354  -13.8061   18.9125 C   0  0  0  0  0  0  0  0  0  0  0  0
  -28.8405  -12.9796   18.2330 C   0  0  0  0  0  0  0  0  0  0  0  0
  -26.9128  -27.5782   21.5081 C   0  0  0  0  0  0  0  0  0  0  0  0
  -31.1611  -30.1583   19.6454 C   0  0  0  0  0  0  0  0  0  0  0  0
  -28.2449  -11.9115   20.3167 C   0  0  0  0  0  0  0  0  0  0  0  0
  -30.1507  -18.6056   20.7554 C   0  0  0  0  0  0  0  0  0  0  0  0
  -29.9878  -20.9525   21.7418 C   0  0  0  0  0  0  0  0  0  0  0  0
  -18.5448  -31.1314   22.1864 C   0  0  0  0  0  0  0  0  0  0  0  0
  -24.6917  -27.4673   20.5519 C   0  0  0  0  0  0  0  0  0  0  0  0
  -19.9056  -31.0112   21.8454 C   0  0  0  0  0  0  0  0  0  0  0  0
  -25.5494  -27.2755   21.6445 C   0  0  0  0  0  0  0  0  0  0  0  0
  -32.5428  -30.3529   19.6858 C   0  0  0  0  0  0  0  0  0  0  0  0
  -33.3866  -29.4156   19.0736 C   0  0  0  0  0  0  0  0  0  0  0  0
  -30.5688  -15.8511   20.8977 C   0  0  0  0  0  0  0  0  0  0  0  0
  -27.4183  -28.0529   20.2981 C   0  0  0  0  0  0  0  0  0  0  0  0
  -29.8851  -13.6853   20.2941 C   0  0  0  0  0  0  0  0  0  0  0  0
  -28.0953  -12.0323   18.9351 C   0  0  0  0  0  0  0  0  0  0  0  0
  -29.1398  -12.7381   20.9962 C   0  0  0  0  0  0  0  0  0  0  0  0
  -29.9352  -20.0283   20.6812 C   0  0  0  0  0  0  0  0  0  0  0  0
  -30.6748  -29.0480   18.9743 C   0  0  0  0  0  0  0  0  0  0  0  0
  -32.7888  -28.3436   18.4183 C   0  0  0  0  0  0  0  0  0  0  0  0
  -29.7137  -22.1639   21.1556 C   0  0  0  0  0  0  0  0  0  0  0  0
  -30.2602  -20.7353   23.1326 C   0  0  0  0  0  0  0  0  0  0  0  0
  -22.5417  -28.5440   22.6308 C   0  0  0  0  0  0  0  0  0  0  0  0
  -23.0430  -25.6682   24.0451 C   0  0  0  0  0  0  0  0  0  0  0  0
  -25.1177  -23.0032   24.5357 C   0  0  0  0  0  0  0  0  0  0  0  0
  -30.3444  -24.2263   15.5698 C   0  0  0  0  0  0  0  0  0  0  0  0
  -18.0333  -30.7531   23.5539 C   0  0  0  0  0  0  0  0  0  0  0  0
  -23.2305  -27.1282   20.6618 C   0  0  0  0  0  0  0  0  0  0  0  0
  -34.8810  -29.5897   19.0630 C   0  0  0  0  0  0  0  0  0  0  0  0
  -25.0458  -26.7600   22.9670 C   0  0  0  0  0  0  0  0  0  0  0  0
  -33.1147  -31.5290   20.4247 C   0  0  0  0  0  0  0  0  0  0  0  0
  -18.9886  -29.8539   24.3343 C   0  0  0  0  0  0  0  0  0  0  0  0
  -27.3400  -24.0912   17.4756 C   0  0  0  0  0  0  0  0  0  0  0  0
  -20.4136  -30.3924   24.2547 C   0  0  0  0  0  0  0  0  0  0  0  0
  -27.6692  -23.1180   18.6090 C   0  0  0  0  0  0  0  0  0  0  0  0
  -28.0035  -23.6758   16.1644 C   0  0  0  0  0  0  0  0  0  0  0  0
  -29.7900  -22.4915   17.3808 C   0  0  0  0  0  0  0  0  0  0  0  0
  -35.3802  -30.5282   20.1555 C   0  0  0  0  0  0  0  0  0  0  0  0
  -20.9137  -30.4175   22.8053 C   0  0  1  0  0  0  0  0  0  0  0  0
  -22.7184  -27.1500   22.0987 C   0  0  1  0  0  0  0  0  0  0  0  0
  -29.1888  -22.8994   18.7367 C   0  0  2  0  0  0  0  0  0  0  0  0
  -25.2679  -20.8253   25.7732 C   0  0  0  0  0  0  0  0  0  0  0  0
  -23.6127  -27.1808   26.6330 C   0  0  0  0  0  0  0  0  0  0  0  0
  -24.6580  -25.0946   27.5404 C   0  0  0  0  0  0  0  0  0  0  0  0
  -22.2428  -25.1077   26.9163 C   0  0  0  0  0  0  0  0  0  0  0  0
  -25.3395  -21.4569   22.0219 C   0  0  0  0  0  0  0  0  0  0  0  0
  -33.6166  -27.3237   17.7052 C   0  0  0  0  0  0  0  0  0  0  0  0
  -29.1935  -28.8173   18.9123 C   0  0  0  0  0  0  0  0  0  1  0  0
  -32.7378  -24.6802   15.0961 C   0  0  0  0  0  0  0  0  0  0  0  0
  -33.6377  -25.4832   16.0168 C   0  0  0  0  0  0  0  0  0  0  0  0
  -23.9943  -25.1437   25.0934 C   0  0  1  0  0  0  0  0  0  0  0  0
  -24.8675  -21.5072   24.4742 C   0  0  2  0  0  0  0  0  0  0  0  0
  -23.6364  -25.6432   26.5216 C   0  0  0  0  0  0  0  0  0  0  0  0
  -29.6500  -20.6034   19.5099 N   0  0  0  0  0  0  0  0  0  0  0  0
  -31.4544  -28.1351   18.3559 N   0  0  0  0  0  0  0  0  0  0  0  0
  -29.5208  -21.9019   19.8311 N   0  0  0  0  0  0  0  0  0  0  0  0
  -23.6081  -26.4485   23.0265 N   0  0  0  0  0  0  0  0  0  0  0  0
  -29.4437  -23.4864   16.3537 N   0  0  0  0  0  0  0  0  0  0  0  0
  -29.6212  -23.4171   21.6490 N   0  0  0  0  0  0  0  0  0  0  0  0
  -30.5215  -19.4284   23.5662 N   0  0  0  0  0  0  0  0  0  0  0  0
  -21.2967  -29.0884   22.3796 N   0  0  0  0  0  0  0  0  0  0  0  0
  -23.9977  -23.6917   24.9516 N   0  0  0  0  0  0  0  0  0  0  0  0
  -31.6913  -23.9909   15.8174 N   0  0  0  0  0  0  0  0  0  0  0  0
  -34.5628  -31.7773   20.1262 N   0  3  0  0  0  0  0  0  0  0  0  0
  -25.6497  -20.8965   23.3623 N   0  3  0  0  0  0  0  0  0  0  0  0
  -32.8263  -26.4678   16.7800 N   0  3  0  0  0  0  0  0  0  0  0  0
  -30.2553  -21.6702   23.9691 O   0  0  0  0  0  0  0  0  0  0  0  0
  -23.4659  -29.0851   23.2264 O   0  0  0  0  0  0  0  0  0  0  0  0
  -21.8438  -25.3896   24.1231 O   0  0  0  0  0  0  0  0  0  0  0  0
  -26.1996  -23.5100   24.2474 O   0  0  0  0  0  0  0  0  0  0  0  0
  -29.9756  -25.0404   14.7166 O   0  0  0  0  0  0  0  0  0  0  0  0
  -30.7733  -14.5072   20.9673 O   0  0  0  0  0  0  0  0  0  0  0  0
  -28.7431  -28.3408   20.1798 O   0  0  0  0  0  0  0  0  0  1  0  0
  -27.2349  -11.2397   18.2827 F   0  0  0  0  0  0  0  0  0  0  0  0
  -29.2784  -12.6182   22.3237 F   0  0  0  0  0  0  0  0  0  0  0  0
  1  2  1  0  0  0  0
  1  5  2  0  0  0  0
  2  6  2  0  0  0  0
  3  8  2  0  0  0  0
  3 16  1  0  0  0  0
  4  9  1  0  0  0  0
  4 16  2  0  0  0  0
  5 18  1  0  0  0  0
  6 20  1  0  0  0  0
  7 10  2  0  0  0  0
  7 19  1  0  0  0  0
  8 24  1  0  0  0  0
  9 24  2  0  0  0  0
 10 25  1  0  0  0  0
 11 12  2  0  0  0  0
 11 26  1  0  0  0  0
 12 27  1  0  0  0  0
 13 21  1  0  0  0  0
 13 25  2  0  0  0  0
 14 22  2  0  0  0  0
 14 30  1  0  0  0  0
 15 27  2  0  0  0  0
 15 28  1  0  0  0  0
 16 29  1  0  0  0  0
 17 29  1  0  0  0  0
 17 32  2  0  0  0  0
 17 33  1  0  0  0  0
 18 20  2  0  0  0  0
 18 38  1  0  0  0  0
 19 21  2  0  0  0  0
 19 39  1  0  0  0  0
 20 50  1  0  0  0  0
 21 41  1  0  0  0  0
 22 23  1  0  0  0  0
 22 42  1  0  0  0  0
 23 31  2  0  0  0  0
 23 40  1  0  0  0  0
 24 83  1  0  0  0  0
 25 84  1  0  0  0  0
 26 28  2  0  0  0  0
 26 83  1  0  0  0  0
 27 85  1  0  0  0  0
 28 86  1  0  0  0  0
 29 65  2  0  0  0  0
 30 59  1  0  0  0  0
 30 66  2  0  0  0  0
 31 58  1  0  0  0  0
 31 66  1  0  0  0  0
 32 67  1  0  0  0  0
 32 70  1  0  0  0  0
 33 71  1  0  0  0  0
 33 78  2  0  0  0  0
 34 51  1  0  0  0  0
 34 72  1  0  0  0  0
 34 79  2  0  0  0  0
 35 62  1  0  0  0  0
 35 68  1  0  0  0  0
 35 80  2  0  0  0  0
 36 63  1  0  0  0  0
 36 73  1  0  0  0  0
 36 81  2  0  0  0  0
 37 69  1  0  0  0  0
 37 74  1  0  0  0  0
 37 82  2  0  0  0  0
 38 43  1  0  0  0  0
 39 51  1  0  0  0  0
 40 49  1  0  0  0  0
 41 68  1  0  0  0  0
 42 75  1  0  0  0  0
 43 45  1  0  0  0  0
 44 46  1  0  0  0  0
 44 47  1  0  0  0  0
 45 50  1  0  0  0  0
 46 52  1  0  0  0  0
 47 69  1  0  0  0  0
 48 52  1  0  0  0  0
 48 69  1  0  0  0  0
 49 75  1  0  0  0  0
 50 72  1  0  0  0  0
 51 68  1  0  0  0  0
 52 67  1  0  0  0  0
 53 63  1  0  0  0  0
 54 64  1  0  0  0  0
 55 64  1  0  0  0  0
 56 64  1  0  0  0  0
 57 76  1  0  0  0  0
 58 77  1  0  0  0  0
 59 84  1  0  0  0  0
 60 61  1  0  0  0  0
 60 74  1  0  0  0  0
 61 77  1  0  0  0  0
 62 64  1  0  0  0  0
 62 73  1  0  0  0  0
 63 76  1  0  0  0  0
 65 67  1  0  0  0  0
M  CHG  3  75   1  76   1  77   1
M  ISO  4  37 100  59 101  74 100  84 101
M  END
> <Batch ID>
0127

> <Smiles>
CNC(C)C(=O)NC(C(=O)N1Cc2cc([101O:1][101CH2:1]c3cc4c(c(CNCC[100NH:0][100C:0](=O)N5CCCC(n6nc(-c7ccc(Oc8ccc(F)cc8F)cc7)c(C(N)=O)c6N)C5)n3)CCNC4)ccc2CC1C(=O)NC1CCCc2ccccc21)C(C)(C)C

> <Shape>
0.190

> <Color>
0.082

> <Negative vol penalty>
0.000

$$$$

  -OEChem-04052320403D

 87 95  0     1  0  0  0  0  0999 V2000
  -27.1405  -24.3099   13.6397 C   0  0  0  0  0  0  0  0  0  0  0  0
  -26.4411  -24.1827   14.8356 C   0  0  0  0  0  0  0  0  0  0  0  0
  -25.9525  -13.9566   18.9317 C   0  0  0  0  0  0  0  0  0  0  0  0
  -26.0620  -13.6661   21.3277 C   0  0  0  0  0  0  0  0  0  0  0  0
  -28.4125  -24.8808   13.6347 C   0  0  0  0  0  0  0  0  0  0  0  0
  -27.0139  -24.6253   16.0274 C   0  0  0  0  0  0  0  0  0  0  0  0
  -23.7644  -27.2555   18.8853 C   0  0  0  0  0  0  0  0  0  0  0  0
  -24.7965  -13.1771   18.8900 C   0  0  0  0  0  0  0  0  0  0  0  0
  -24.9060  -12.8867   21.2860 C   0  0  0  0  0  0  0  0  0  0  0  0
  -22.8253  -26.5281   19.6152 C   0  0  0  0  0  0  0  0  0  0  0  0
  -24.0712   -9.7090   20.4880 C   0  0  0  0  0  0  0  0  0  0  0  0
  -24.0615   -8.5244   21.2243 C   0  0  0  0  0  0  0  0  0  0  0  0
  -24.1852  -26.7684   21.5931 C   0  0  0  0  0  0  0  0  0  0  0  0
  -22.1784   -9.3346   22.5029 C   0  0  0  0  0  0  0  0  0  0  0  0
  -26.5853  -14.2010   20.1505 C   0  0  0  0  0  0  0  0  0  0  0  0
  -29.0011  -14.7503   19.5423 C   0  0  0  0  0  0  0  0  0  0  0  0
  -28.9972  -25.3394   14.8257 C   0  0  0  0  0  0  0  0  0  0  0  0
  -24.9282  -27.7363   19.5024 C   0  0  0  0  0  0  0  0  0  0  0  0
  -28.2955  -25.2016   16.0385 C   0  0  0  0  0  0  0  0  0  0  0  0
  -25.1363  -27.5039   20.8694 C   0  0  0  0  0  0  0  0  0  0  0  0
  -24.2732  -12.6422   20.0671 C   0  0  0  0  0  0  0  0  0  0  0  0
  -23.0370  -26.2820   20.9686 C   0  0  0  0  0  0  0  0  0  0  0  0
  -23.1346  -10.7065   20.7592 C   0  0  0  0  0  0  0  0  0  0  0  0
  -23.1150   -8.3371   22.2317 C   0  0  0  0  0  0  0  0  0  0  0  0
  -22.1882  -10.5193   21.7666 C   0  0  0  0  0  0  0  0  0  0  0  0
  -27.7798  -15.0057   20.1942 C   0  0  0  0  0  0  0  0  0  0  0  0
  -29.8080  -15.8025   19.9002 C   0  0  0  0  0  0  0  0  0  0  0  0
  -29.3729  -13.6595   18.6893 C   0  0  0  0  0  0  0  0  0  0  0  0
  -28.0437  -27.2457   19.1063 C   0  0  0  0  0  0  0  0  0  0  0  0
  -28.3002  -29.6057   21.3169 C   0  0  0  0  0  0  0  0  0  0  0  0
  -26.8738  -31.3284   23.8946 C   0  0  0  0  0  0  0  0  0  0  0  0
  -28.6569  -21.4084   21.6609 C   0  0  0  0  0  0  0  0  0  0  0  0
  -30.3939  -25.9064   14.7773 C   0  0  0  0  0  0  0  0  0  0  0  0
  -25.9186  -28.5422   18.7073 C   0  0  0  0  0  0  0  0  0  0  0  0
  -26.3596  -28.0157   21.5836 C   0  0  0  0  0  0  0  0  0  0  0  0
  -30.7761  -26.6920   16.0291 C   0  0  0  0  0  0  0  0  0  0  0  0
  -30.5140  -18.9450   23.4382 C   0  0  0  0  0  0  0  0  0  0  0  0
  -17.5023  -23.4467   20.8818 C   0  0  0  0  0  0  0  0  0  0  0  0
  -30.3886  -25.9171   17.2846 C   0  0  0  0  0  0  0  0  0  0  0  0
  -30.1341  -17.6330   22.7495 C   0  0  0  0  0  0  0  0  0  0  0  0
  -18.8973  -22.8451   20.7439 C   0  0  0  0  0  0  0  0  0  0  0  0
  -17.4435  -24.4373   22.0414 C   0  0  0  0  0  0  0  0  0  0  0  0
  -29.3303  -19.9069   23.5124 C   0  0  0  0  0  0  0  0  0  0  0  0
  -28.2933  -18.8692   21.5321 C   0  0  0  0  0  0  0  0  0  0  0  0
  -28.8730  -25.6924   17.3484 C   0  0  1  0  0  0  0  0  0  0  0  0
  -27.3162  -28.5431   19.3189 C   0  0  1  0  0  0  0  0  0  0  0  0
  -29.4693  -17.8888   21.3835 C   0  0  2  0  0  0  0  0  0  0  0  0
  -19.9427  -23.9579   20.6694 C   0  0  1  0  0  0  0  0  0  0  0  0
  -19.8175  -24.9334   21.8534 C   0  0  1  0  0  0  0  0  0  0  0  0
  -27.3418  -33.1764   25.5266 C   0  0  0  0  0  0  0  0  0  0  0  0
  -20.6932  -27.0256   22.9603 C   0  0  0  0  0  0  0  0  0  0  0  0
  -30.0664  -27.7209   22.9412 C   0  0  0  0  0  0  0  0  0  0  0  0
  -29.7161  -29.2118   24.9218 C   0  0  0  0  0  0  0  0  0  0  0  0
  -30.8508  -30.0949   22.8833 C   0  0  0  0  0  0  0  0  0  0  0  0
  -24.6353  -32.9652   22.8608 C   0  0  0  0  0  0  0  0  0  0  0  0
  -27.9425  -22.7798   19.7196 C   0  0  0  0  0  0  0  0  0  0  0  0
  -26.6090  -23.4353   20.0265 C   0  0  0  0  0  0  0  0  0  0  0  0
  -21.6842  -22.7463   19.3511 C   0  0  0  0  0  0  0  0  0  0  0  0
  -24.1436  -23.0424   19.9483 C   0  0  0  0  0  0  0  0  0  0  0  0
  -28.3616  -29.6563   22.8245 C   0  0  1  0  0  0  0  0  0  0  0  0
  -26.7578  -32.8169   24.1692 C   0  0  2  0  0  0  0  0  0  0  0  0
  -20.7999  -26.1031   21.7555 C   0  0  1  0  0  0  0  0  0  1  0  0
  -23.0530  -22.0787   19.4774 C   0  0  1  0  0  0  0  0  0  0  0  0
  -29.7265  -29.1595   23.3791 C   0  0  0  0  0  0  0  0  0  0  0  0
  -27.8041  -16.1317   20.9121 N   0  0  0  0  0  0  0  0  0  0  0  0
  -29.0506  -16.5932   20.7135 N   0  0  0  0  0  0  0  0  0  0  0  0
  -18.4535  -25.4864   21.9018 N   0  0  0  0  0  0  0  0  0  0  0  0
  -27.3017  -28.7930   20.7617 N   0  0  0  0  0  0  0  0  0  0  0  0
  -28.7463  -20.1080   22.1841 N   0  0  0  0  0  0  0  0  0  0  0  0
  -31.0844  -16.1192   19.5957 N   0  0  0  0  0  0  0  0  0  0  0  0
  -28.4224  -12.6639   18.4250 N   0  0  0  0  0  0  0  0  0  0  0  0
  -22.9774  -20.9507   20.3866 N   0  0  0  0  0  0  0  0  0  0  0  0
  -28.2006  -26.8999   17.7777 N   0  0  0  0  0  0  0  0  0  0  0  0
  -28.0263  -31.0254   23.2009 N   0  0  0  0  0  0  0  0  0  0  0  0
  -28.0964  -21.5097   20.3934 N   0  0  0  0  0  0  0  0  0  0  0  0
  -21.2910  -23.3253   20.6620 N   0  3  0  0  0  0  0  0  0  0  0  0
  -25.3284  -33.2379   24.1462 N   0  3  0  0  0  0  0  0  0  0  0  0
  -25.4986  -22.5249   19.6353 N   0  3  0  0  0  0  0  0  0  0  0  0
  -30.5194  -13.5617   18.1898 O   0  0  0  0  0  0  0  0  0  0  0  0
  -28.4350  -26.6065   20.0758 O   0  0  0  0  0  0  0  0  0  0  0  0
  -29.1040  -30.2685   20.6564 O   0  0  0  0  0  0  0  0  0  0  0  0
  -26.0287  -30.5153   24.2623 O   0  0  0  0  0  0  0  0  0  0  0  0
  -29.0525  -22.4049   22.2753 O   0  0  0  0  0  0  0  0  0  0  0  0
  -23.1451  -11.8818   20.0268 O   0  0  0  0  0  0  0  0  0  0  0  0
  -22.1223  -25.5717   21.6832 O   0  0  0  0  0  0  0  0  0  1  0  0
  -23.1048   -7.1988   22.9376 F   0  0  0  0  0  0  0  0  0  0  0  0
  -21.2851  -11.4734   22.0309 F   0  0  0  0  0  0  0  0  0  0  0  0
  1  2  1  0  0  0  0
  1  5  2  0  0  0  0
  2  6  2  0  0  0  0
  3  8  2  0  0  0  0
  3 15  1  0  0  0  0
  4  9  1  0  0  0  0
  4 15  2  0  0  0  0
  5 17  1  0  0  0  0
  6 19  1  0  0  0  0
  7 10  2  0  0  0  0
  7 18  1  0  0  0  0
  8 21  1  0  0  0  0
  9 21  2  0  0  0  0
 10 22  1  0  0  0  0
 11 12  2  0  0  0  0
 11 23  1  0  0  0  0
 12 24  1  0  0  0  0
 13 20  1  0  0  0  0
 13 22  2  0  0  0  0
 14 24  2  0  0  0  0
 14 25  1  0  0  0  0
 15 26  1  0  0  0  0
 16 26  1  0  0  0  0
 16 27  2  0  0  0  0
 16 28  1  0  0  0  0
 17 19  2  0  0  0  0
 17 33  1  0  0  0  0
 18 20  2  0  0  0  0
 18 34  1  0  0  0  0
 19 45  1  0  0  0  0
 20 35  1  0  0  0  0
 21 84  1  0  0  0  0
 22 85  1  0  0  0  0
 23 25  2  0  0  0  0
 23 84  1  0  0  0  0
 24 86  1  0  0  0  0
 25 87  1  0  0  0  0
 26 65  2  0  0  0  0
 27 66  1  0  0  0  0
 27 70  1  0  0  0  0
 28 71  1  0  0  0  0
 28 79  2  0  0  0  0
 29 46  1  0  0  0  0
 29 73  1  0  0  0  0
 29 80  2  0  0  0  0
 30 60  1  0  0  0  0
 30 68  1  0  0  0  0
 30 81  2  0  0  0  0
 31 61  1  0  0  0  0
 31 74  1  0  0  0  0
 31 82  2  0  0  0  0
 32 69  1  0  0  0  0
 32 75  1  0  0  0  0
 32 83  2  0  0  0  0
 33 36  1  0  0  0  0
 34 46  1  0  0  0  0
 35 68  1  0  0  0  0
 36 39  1  0  0  0  0
 37 40  1  0  0  0  0
 37 43  1  0  0  0  0
 38 41  1  0  0  0  0
 38 42  1  0  0  0  0
 39 45  1  0  0  0  0
 40 47  1  0  0  0  0
 41 48  1  0  0  0  0
 42 67  1  0  0  0  0
 43 69  1  0  0  0  0
 44 47  1  0  0  0  0
 44 69  1  0  0  0  0
 45 73  1  0  0  0  0
 46 68  1  0  0  0  0
 47 66  1  0  0  0  0
 48 49  1  0  0  0  0
 48 76  1  0  0  0  0
 49 62  1  0  0  0  0
 49 67  1  0  0  0  0
 50 61  1  0  0  0  0
 51 62  1  0  0  0  0
 52 64  1  0  0  0  0
 53 64  1  0  0  0  0
 54 64  1  0  0  0  0
 55 77  1  0  0  0  0
 56 57  1  0  0  0  0
 56 75  1  0  0  0  0
 57 78  1  0  0  0  0
 58 63  1  0  0  0  0
 58 76  1  0  0  0  0
 59 63  1  0  0  0  0
 59 78  1  0  0  0  0
 60 64  1  0  0  0  0
 60 74  1  0  0  0  0
 61 77  1  0  0  0  0
 62 85  1  0  0  0  0
 63 72  1  0  0  0  0
 65 66  1  0  0  0  0
M  CHG  3  76   1  77   1  78   1
M  ISO  4  32 100  62 101  75 100  85 101
M  END
> <Batch ID>
0127

> <Smiles>
CNC(C)C(=O)NC(C(=O)N1Cc2cc([101O:1][101CH:1](C)C3NCCCC3NCC(N)CNCC[100NH:0][100C:0](=O)N3CCCC(n4nc(-c5ccc(Oc6ccc(F)cc6F)cc5)c(C(N)=O)c4N)C3)ccc2CC1C(=O)NC1CCCc2ccccc21)C(C)(C)C

> <Shape>
0.257

> <Color>
0.067

> <Negative vol penalty>
0.000

$$$$

  -OEChem-04052320403D

 87 96  0     1  0  0  0  0  0999 V2000
  -26.8590  -25.4186   13.6870 C   0  0  0  0  0  0  0  0  0  0  0  0
  -26.8267  -24.7782   14.9217 C   0  0  0  0  0  0  0  0  0  0  0  0
  -22.7929   -9.9952   20.1466 C   0  0  0  0  0  0  0  0  0  0  0  0
  -24.3493   -9.5062   21.9286 C   0  0  0  0  0  0  0  0  0  0  0  0
  -27.4463  -26.6778   13.5713 C   0  0  0  0  0  0  0  0  0  0  0  0
  -27.3828  -25.3963   16.0411 C   0  0  0  0  0  0  0  0  0  0  0  0
  -24.4082  -25.0576   20.1255 C   0  0  0  0  0  0  0  0  0  0  0  0
  -22.1234   -8.7987   20.4029 C   0  0  0  0  0  0  0  0  0  0  0  0
  -23.6798   -8.3097   22.1850 C   0  0  0  0  0  0  0  0  0  0  0  0
  -24.4010  -23.8425   20.8090 C   0  0  0  0  0  0  0  0  0  0  0  0
  -22.1637   -5.2983   23.5457 C   0  0  0  0  0  0  0  0  0  0  0  0
  -21.8956   -4.9765   24.8762 C   0  0  0  0  0  0  0  0  0  0  0  0
  -25.9166  -24.7609   22.4457 C   0  0  0  0  0  0  0  0  0  0  0  0
  -20.5943   -6.9995   25.1032 C   0  0  0  0  0  0  0  0  0  0  0  0
  -23.9059  -10.3490   20.9094 C   0  0  0  0  0  0  0  0  0  0  0  0
  -24.0669  -12.8867   20.7058 C   0  0  0  0  0  0  0  0  0  0  0  0
  -28.0013  -27.3158   14.6918 C   0  0  0  0  0  0  0  0  0  0  0  0
  -25.1796  -26.1319   20.5918 C   0  0  0  0  0  0  0  0  0  0  0  0
  -27.9793  -26.6646   15.9400 C   0  0  0  0  0  0  0  0  0  0  0  0
  -25.9299  -25.9895   21.7677 C   0  0  0  0  0  0  0  0  0  0  0  0
  -22.5668   -7.9559   21.4221 C   0  0  0  0  0  0  0  0  0  0  0  0
  -25.1575  -23.6930   21.9676 C   0  0  0  0  0  0  0  0  0  0  0  0
  -21.6472   -6.4707   22.9940 C   0  0  0  0  0  0  0  0  0  0  0  0
  -21.1109   -5.8271   25.6549 C   0  0  0  0  0  0  0  0  0  0  0  0
  -20.8625   -7.3213   23.7727 C   0  0  0  0  0  0  0  0  0  0  0  0
  -24.5983  -11.5845   20.6447 C   0  0  0  0  0  0  0  0  0  0  0  0
  -25.1193  -13.7031   20.3706 C   0  0  0  0  0  0  0  0  0  0  0  0
  -22.7405  -13.3197   21.0361 C   0  0  0  0  0  0  0  0  0  0  0  0
  -27.6123  -27.8169   19.4315 C   0  0  0  0  0  0  0  0  0  0  0  0
  -27.1401  -29.6026   22.0980 C   0  0  0  0  0  0  0  0  0  0  0  0
  -26.4129  -28.9952   25.5794 C   0  0  0  0  0  0  0  0  0  0  0  0
  -30.8547  -14.1061   21.0466 C   0  0  0  0  0  0  0  0  0  0  0  0
  -28.6673  -28.6564   14.5081 C   0  0  0  0  0  0  0  0  0  0  0  0
  -25.1556  -27.4446   19.8579 C   0  0  0  0  0  0  0  0  0  0  0  0
  -26.7589  -27.1186   22.3212 C   0  0  0  0  0  0  0  0  0  0  0  0
  -28.9005  -29.4053   15.8177 C   0  0  0  0  0  0  0  0  0  0  0  0
  -29.2030  -22.4785   25.7706 C   0  0  0  0  0  0  0  0  0  0  0  0
  -29.3943  -13.0683   17.9698 C   0  0  0  0  0  0  0  0  0  0  0  0
  -27.8616  -21.8039   26.0368 C   0  0  0  0  0  0  0  0  0  0  0  0
  -29.2771  -23.0175   24.3461 C   0  0  0  0  0  0  0  0  0  0  0  0
  -29.5011  -28.4737   16.8657 C   0  0  0  0  0  0  0  0  0  0  0  0
  -26.8130  -18.0537   22.0020 C   0  0  0  0  0  0  0  0  0  0  0  0
  -25.5214  -18.8471   21.7627 C   0  0  0  0  0  0  0  0  0  0  0  0
  -27.9592  -12.7009   18.3516 C   0  0  0  0  0  0  0  0  0  0  0  0
  -30.3850  -12.6904   19.0688 C   0  0  0  0  0  0  0  0  0  0  0  0
  -28.6258  -12.8567   20.7868 C   0  0  0  0  0  0  0  0  0  0  0  0
  -27.5562  -20.7294   25.0030 C   0  0  0  0  0  0  0  0  0  0  0  0
  -28.9663  -21.9390   23.3183 C   0  0  0  0  0  0  0  0  0  0  0  0
  -28.5499  -27.3134   17.1824 C   0  0  1  0  0  0  0  0  0  0  0  0
  -26.3811  -28.3086   20.1386 C   0  0  1  0  0  0  0  0  0  0  0  0
  -27.6942  -18.9359   22.8958 C   0  0  2  0  0  0  0  0  0  0  0  0
  -25.6887  -20.1708   22.5202 C   0  0  1  0  0  0  0  0  0  0  0  0
  -27.5836  -13.2693   19.7333 C   0  0  2  0  0  0  0  0  0  0  0  0
  -27.2048  -20.3433   22.5642 C   0  0  1  0  0  0  0  0  0  0  0  0
  -25.2476  -30.4295   27.2771 C   0  0  0  0  0  0  0  0  0  0  0  0
  -29.9557  -30.5300   22.8207 C   0  0  0  0  0  0  0  0  0  0  0  0
  -29.2580  -30.5465   25.2250 C   0  0  0  0  0  0  0  0  0  0  0  0
  -28.1265  -32.0523   23.5894 C   0  0  0  0  0  0  0  0  0  0  0  0
  -24.4565  -26.8650   26.2070 C   0  0  0  0  0  0  0  0  0  0  0  0
  -29.1807  -18.7221   22.6566 C   0  0  0  0  0  0  0  0  0  0  0  0
  -24.9508  -21.3262   21.8622 C   0  0  0  0  0  0  0  0  0  1  0  0
  -31.1720  -15.4970   23.0773 C   0  0  0  0  0  0  0  0  0  0  0  0
  -30.9463  -16.9569   22.7312 C   0  0  0  0  0  0  0  0  0  0  0  0
  -27.6622  -29.5682   23.5141 C   0  0  1  0  0  0  0  0  0  0  0  0
  -25.1049  -29.2755   26.2969 C   0  0  2  0  0  0  0  0  0  0  0  0
  -28.7483  -30.6505   23.7717 C   0  0  0  0  0  0  0  0  0  0  0  0
  -25.8880  -11.5697   20.2978 N   0  0  0  0  0  0  0  0  0  0  0  0
  -26.1759  -12.8727   20.1379 N   0  0  0  0  0  0  0  0  0  0  0  0
  -26.7076  -28.3803   21.5643 N   0  0  0  0  0  0  0  0  0  0  0  0
  -29.9720  -13.2620   20.3528 N   0  0  0  0  0  0  0  0  0  0  0  0
  -25.2347  -15.0432   20.2552 N   0  0  0  0  0  0  0  0  0  0  0  0
  -22.4426  -13.5963   22.3774 N   0  0  0  0  0  0  0  0  0  0  0  0
  -27.4853  -27.7568   18.0568 N   0  0  0  0  0  0  0  0  0  0  0  0
  -26.4946  -29.6747   24.3824 N   0  0  0  0  0  0  0  0  0  0  0  0
  -30.3824  -14.6100   22.2523 N   0  0  0  0  0  0  0  0  0  0  0  0
  -27.6162  -21.3326   23.6195 N   0  3  0  0  0  0  0  0  0  0  0  0
  -24.6594  -28.0701   27.0517 N   0  3  0  0  0  0  0  0  0  0  0  0
  -29.5219  -17.3191   22.9774 N   0  3  0  0  0  0  0  0  0  0  0  0
  -21.8415  -13.4413   20.1698 O   0  0  0  0  0  0  0  0  0  0  0  0
  -28.6045  -27.5158   20.0846 O   0  0  0  0  0  0  0  0  0  0  0  0
  -27.1102  -30.6757   21.4904 O   0  0  0  0  0  0  0  0  0  0  0  0
  -27.2775  -28.2510   26.0369 O   0  0  0  0  0  0  0  0  0  0  0  0
  -31.9783  -14.3940   20.6202 O   0  0  0  0  0  0  0  0  0  0  0  0
  -21.9136   -6.7884   21.6727 O   0  0  0  0  0  0  0  0  0  0  0  0
  -25.1528  -22.5078   22.6363 O   0  0  0  0  0  0  0  0  0  1  0  0
  -20.8522   -5.5171   26.9321 F   0  0  0  0  0  0  0  0  0  0  0  0
  -20.3625   -8.4484   23.2479 F   0  0  0  0  0  0  0  0  0  0  0  0
  1  2  1  0  0  0  0
  1  5  2  0  0  0  0
  2  6  2  0  0  0  0
  3  8  2  0  0  0  0
  3 15  1  0  0  0  0
  4  9  1  0  0  0  0
  4 15  2  0  0  0  0
  5 17  1  0  0  0  0
  6 19  1  0  0  0  0
  7 10  2  0  0  0  0
  7 18  1  0  0  0  0
  8 21  1  0  0  0  0
  9 21  2  0  0  0  0
 10 22  1  0  0  0  0
 11 12  2  0  0  0  0
 11 23  1  0  0  0  0
 12 24  1  0  0  0  0
 13 20  1  0  0  0  0
 13 22  2  0  0  0  0
 14 24  2  0  0  0  0
 14 25  1  0  0  0  0
 15 26  1  0  0  0  0
 16 26  1  0  0  0  0
 16 27  2  0  0  0  0
 16 28  1  0  0  0  0
 17 19  2  0  0  0  0
 17 33  1  0  0  0  0
 18 20  2  0  0  0  0
 18 34  1  0  0  0  0
 19 49  1  0  0  0  0
 20 35  1  0  0  0  0
 21 84  1  0  0  0  0
 22 85  1  0  0  0  0
 23 25  2  0  0  0  0
 23 84  1  0  0  0  0
 24 86  1  0  0  0  0
 25 87  1  0  0  0  0
 26 67  2  0  0  0  0
 27 68  1  0  0  0  0
 27 71  1  0  0  0  0
 28 72  1  0  0  0  0
 28 79  2  0  0  0  0
 29 50  1  0  0  0  0
 29 73  1  0  0  0  0
 29 80  2  0  0  0  0
 30 64  1  0  0  0  0
 30 69  1  0  0  0  0
 30 81  2  0  0  0  0
 31 65  1  0  0  0  0
 31 74  1  0  0  0  0
 31 82  2  0  0  0  0
 32 70  1  0  0  0  0
 32 75  1  0  0  0  0
 32 83  2  0  0  0  0
 33 36  1  0  0  0  0
 34 50  1  0  0  0  0
 35 69  1  0  0  0  0
 36 41  1  0  0  0  0
 37 39  1  0  0  0  0
 37 40  1  0  0  0  0
 38 44  1  0  0  0  0
 38 45  1  0  0  0  0
 39 47  1  0  0  0  0
 40 48  1  0  0  0  0
 41 49  1  0  0  0  0
 42 43  1  0  0  0  0
 42 51  1  0  0  0  0
 43 52  1  0  0  0  0
 44 53  1  0  0  0  0
 45 70  1  0  0  0  0
 46 53  1  0  0  0  0
 46 70  1  0  0  0  0
 47 76  1  0  0  0  0
 48 76  1  0  0  0  0
 49 73  1  0  0  0  0
 50 69  1  0  0  0  0
 51 54  1  0  0  0  0
 51 60  1  0  0  0  0
 52 54  1  0  0  0  0
 52 61  1  0  0  0  0
 53 68  1  0  0  0  0
 54 76  1  0  0  0  0
 55 65  1  0  0  0  0
 56 66  1  0  0  0  0
 57 66  1  0  0  0  0
 58 66  1  0  0  0  0
 59 77  1  0  0  0  0
 60 78  1  0  0  0  0
 61 85  1  0  0  0  0
 62 63  1  0  0  0  0
 62 75  1  0  0  0  0
 63 78  1  0  0  0  0
 64 66  1  0  0  0  0
 64 74  1  0  0  0  0
 65 77  1  0  0  0  0
 67 68  1  0  0  0  0
M  CHG  3  76   1  77   1  78   1
M  ISO  4  32 100  61 101  75 100  85 101
M  END
> <Batch ID>
0127

> <Smiles>
CNC(C)C(=O)NC(C(=O)N1Cc2cc([101O:1][101CH2:1]C3CCC(CNCC[100NH:0][100C:0](=O)N4CCCC(n5nc(-c6ccc(Oc7ccc(F)cc7F)cc6)c(C(N)=O)c5N)C4)C3N3CCCCC3)ccc2CC1C(=O)NC1CCCc2ccccc21)C(C)(C)C

> <Shape>
0.256

> <Color>
0.170

> <Negative vol penalty>
0.000

$$$$

  -OEChem-04052320403D

 87 95  0     1  0  0  0  0  0999 V2000
  -17.3125  -30.5620   23.9345 C   0  0  0  0  0  0  0  0  0  0  0  0
  -18.6769  -30.8303   23.9783 C   0  0  0  0  0  0  0  0  0  0  0  0
  -24.7270  -10.6227   23.3017 C   0  0  0  0  0  0  0  0  0  0  0  0
  -24.6012  -12.8580   24.2099 C   0  0  0  0  0  0  0  0  0  0  0  0
  -16.8591  -29.3397   23.4401 C   0  0  0  0  0  0  0  0  0  0  0  0
  -19.5887  -29.8759   23.5288 C   0  0  0  0  0  0  0  0  0  0  0  0
  -25.9685  -29.3271   20.3174 C   0  0  0  0  0  0  0  0  0  0  0  0
  -24.4997  -10.0937   24.5721 C   0  0  0  0  0  0  0  0  0  0  0  0
  -24.3739  -12.3290   25.4804 C   0  0  0  0  0  0  0  0  0  0  0  0
  -27.2082  -28.7110   20.4828 C   0  0  0  0  0  0  0  0  0  0  0  0
  -21.7826  -11.0038   27.1977 C   0  0  0  0  0  0  0  0  0  0  0  0
  -20.7701  -11.5786   27.9658 C   0  0  0  0  0  0  0  0  0  0  0  0
  -26.3060  -26.6658   19.5759 C   0  0  0  0  0  0  0  0  0  0  0  0
  -22.3859  -12.1491   29.6690 C   0  0  0  0  0  0  0  0  0  0  0  0
  -24.7778  -12.0049   23.1205 C   0  0  0  0  0  0  0  0  0  0  0  0
  -24.0465  -12.8902   20.8426 C   0  0  0  0  0  0  0  0  0  0  0  0
  -17.7654  -28.3737   22.9754 C   0  0  0  0  0  0  0  0  0  0  0  0
  -24.8835  -28.6128   19.7892 C   0  0  0  0  0  0  0  0  0  0  0  0
  -19.1471  -28.6390   23.0291 C   0  0  0  0  0  0  0  0  0  0  0  0
  -25.0543  -27.2759   19.4024 C   0  0  0  0  0  0  0  0  0  0  0  0
  -24.3231  -10.9468   25.6615 C   0  0  0  0  0  0  0  0  0  0  0  0
  -27.3763  -27.3793   20.1148 C   0  0  0  0  0  0  0  0  0  0  0  0
  -23.0968  -11.0014   27.6653 C   0  0  0  0  0  0  0  0  0  0  0  0
  -21.0717  -12.1513   29.2014 C   0  0  0  0  0  0  0  0  0  0  0  0
  -23.3984  -11.5741   28.9009 C   0  0  0  0  0  0  0  0  0  0  0  0
  -25.0131  -12.5519   21.8085 C   0  0  0  0  0  0  0  0  0  0  0  0
  -24.7750  -13.3642   19.7791 C   0  0  0  0  0  0  0  0  0  0  0  0
  -22.6178  -12.7855   20.9015 C   0  0  0  0  0  0  0  0  0  0  0  0
  -22.0149  -27.7692   20.8675 C   0  0  0  0  0  0  0  0  0  0  0  0
  -21.6151  -26.7072   17.8286 C   0  0  0  0  0  0  0  0  0  0  0  0
  -23.0463  -25.6145   14.9296 C   0  0  0  0  0  0  0  0  0  0  0  0
  -30.2056  -15.8477   19.3401 C   0  0  0  0  0  0  0  0  0  0  0  0
  -17.2302  -27.0484   22.4938 C   0  0  0  0  0  0  0  0  0  0  0  0
  -23.5600  -29.2997   19.5922 C   0  0  0  0  0  0  0  0  0  0  0  0
  -23.9266  -26.4710   18.8117 C   0  0  0  0  0  0  0  0  0  0  0  0
  -18.2433  -26.2386   21.6888 C   0  0  0  0  0  0  0  0  0  0  0  0
  -29.0484  -12.9219   17.6735 C   0  0  0  0  0  0  0  0  0  0  0  0
  -19.5953  -26.2218   22.3950 C   0  0  0  0  0  0  0  0  0  0  0  0
  -27.7958  -12.5259   18.4571 C   0  0  0  0  0  0  0  0  0  0  0  0
  -29.7643  -25.7798   22.6901 C   0  0  0  0  0  0  0  0  0  0  0  0
  -30.1314  -13.4882   18.5892 C   0  0  0  0  0  0  0  0  0  0  0  0
  -28.4416  -14.2080   20.2325 C   0  0  0  0  0  0  0  0  0  0  0  0
  -31.0744  -23.1934   22.5747 C   0  0  0  0  0  0  0  0  0  0  0  0
  -20.1661  -27.6389   22.5276 C   0  0  1  0  0  0  0  0  0  0  0  0
  -22.3866  -28.3271   19.5228 C   0  0  1  0  0  0  0  0  0  0  0  0
  -29.7950  -25.0137   21.3566 C   0  0  1  0  0  0  0  0  0  0  0  0
  -27.3002  -13.6834   19.3446 C   0  0  2  0  0  0  0  0  0  0  0  0
  -29.8990  -23.5077   21.6481 C   0  0  1  0  0  0  0  0  0  0  0  0
  -30.9480  -25.3918   23.5881 C   0  0  1  0  0  0  0  0  0  0  0  0
  -30.8648  -26.1162   24.9305 C   0  0  0  0  0  0  0  0  0  0  0  0
  -22.4614  -24.7834   12.6352 C   0  0  0  0  0  0  0  0  0  0  0  0
  -31.5002  -20.6581   18.7754 C   0  0  0  0  0  0  0  0  0  0  0  0
  -20.8378  -24.0031   19.0090 C   0  0  0  0  0  0  0  0  0  0  0  0
  -21.1937  -22.9916   16.7466 C   0  0  0  0  0  0  0  0  0  0  0  0
  -19.4394  -24.7354   17.0693 C   0  0  0  0  0  0  0  0  0  0  0  0
  -24.4640  -27.8625   13.6275 C   0  0  0  0  0  0  0  0  0  0  0  0
  -27.2420  -19.8741   18.3869 C   0  0  0  0  0  0  0  0  0  0  0  0
  -28.5810  -25.3703   20.5256 C   0  0  0  0  0  0  0  0  0  1  0  0
  -30.1427  -18.1834   20.1767 C   0  0  0  0  0  0  0  0  0  0  0  0
  -29.7497  -21.3099   20.4708 C   0  0  0  0  0  0  0  0  0  0  0  0
  -21.8765  -25.4070   17.1074 C   0  0  1  0  0  0  0  0  0  0  0  0
  -22.8071  -25.9992   13.4807 C   0  0  2  0  0  0  0  0  0  0  0  0
  -30.0100  -20.5728   19.1450 C   0  0  2  0  0  0  0  0  0  0  0  0
  -29.4975  -19.1080   19.1382 C   0  0  2  0  0  0  0  0  0  0  0  0
  -20.8578  -24.2986   17.4960 C   0  0  0  0  0  0  0  0  0  0  0  0
  -26.2606  -12.7906   21.3951 N   0  0  0  0  0  0  0  0  0  0  0  0
  -26.0828  -13.2838   20.1577 N   0  0  0  0  0  0  0  0  0  0  0  0
  -30.9679  -23.9441   23.8270 N   0  0  0  0  0  0  0  0  0  0  0  0
  -22.6501  -27.1853   18.6448 N   0  0  0  0  0  0  0  0  0  0  0  0
  -29.5971  -14.5832   19.4025 N   0  0  0  0  0  0  0  0  0  0  0  0
  -24.4181  -13.8377   18.5663 N   0  0  0  0  0  0  0  0  0  0  0  0
  -22.0327  -12.2773   22.0693 N   0  0  0  0  0  0  0  0  0  0  0  0
  -20.7287  -28.0770   21.2683 N   0  0  0  0  0  0  0  0  0  0  0  0
  -21.8977  -25.7268   15.6842 N   0  0  0  0  0  0  0  0  0  0  0  0
  -29.6328  -16.8309   20.1376 N   0  0  0  0  0  0  0  0  0  0  0  0
  -30.0937  -22.7525   20.3790 N   0  3  0  0  0  0  0  0  0  0  0  0
  -24.0243  -26.6399   12.9072 N   0  3  0  0  0  0  0  0  0  0  0  0
  -28.0194  -19.0973   19.3818 N   0  3  0  0  0  0  0  0  0  0  0  0
  -21.8827  -13.1169   19.9406 O   0  0  0  0  0  0  0  0  0  0  0  0
  -22.8337  -27.1073   21.4943 O   0  0  0  0  0  0  0  0  0  0  0  0
  -20.5352  -27.2814   17.6680 O   0  0  0  0  0  0  0  0  0  0  0  0
  -24.1416  -25.2473   15.3492 O   0  0  0  0  0  0  0  0  0  0  0  0
  -31.1833  -16.0844   18.6225 O   0  0  0  0  0  0  0  0  0  0  0  0
  -24.1010  -10.4310   26.9013 O   0  0  0  0  0  0  0  0  0  0  0  0
  -28.5851  -26.7753   20.2758 O   0  0  0  0  0  0  0  0  0  1  0  0
  -20.0996  -12.7047   29.9381 F   0  0  0  0  0  0  0  0  0  0  0  0
  -24.6593  -11.5760   29.3548 F   0  0  0  0  0  0  0  0  0  0  0  0
  1  2  1  0  0  0  0
  1  5  2  0  0  0  0
  2  6  2  0  0  0  0
  3  8  2  0  0  0  0
  3 15  1  0  0  0  0
  4  9  1  0  0  0  0
  4 15  2  0  0  0  0
  5 17  1  0  0  0  0
  6 19  1  0  0  0  0
  7 10  2  0  0  0  0
  7 18  1  0  0  0  0
  8 21  1  0  0  0  0
  9 21  2  0  0  0  0
 10 22  1  0  0  0  0
 11 12  2  0  0  0  0
 11 23  1  0  0  0  0
 12 24  1  0  0  0  0
 13 20  1  0  0  0  0
 13 22  2  0  0  0  0
 14 24  2  0  0  0  0
 14 25  1  0  0  0  0
 15 26  1  0  0  0  0
 16 26  1  0  0  0  0
 16 27  2  0  0  0  0
 16 28  1  0  0  0  0
 17 19  2  0  0  0  0
 17 33  1  0  0  0  0
 18 20  2  0  0  0  0
 18 34  1  0  0  0  0
 19 44  1  0  0  0  0
 20 35  1  0  0  0  0
 21 84  1  0  0  0  0
 22 85  1  0  0  0  0
 23 25  2  0  0  0  0
 23 84  1  0  0  0  0
 24 86  1  0  0  0  0
 25 87  1  0  0  0  0
 26 66  2  0  0  0  0
 27 67  1  0  0  0  0
 27 71  1  0  0  0  0
 28 72  1  0  0  0  0
 28 79  2  0  0  0  0
 29 45  1  0  0  0  0
 29 73  1  0  0  0  0
 29 80  2  0  0  0  0
 30 61  1  0  0  0  0
 30 69  1  0  0  0  0
 30 81  2  0  0  0  0
 31 62  1  0  0  0  0
 31 74  1  0  0  0  0
 31 82  2  0  0  0  0
 32 70  1  0  0  0  0
 32 75  1  0  0  0  0
 32 83  2  0  0  0  0
 33 36  1  0  0  0  0
 34 45  1  0  0  0  0
 35 69  1  0  0  0  0
 36 38  1  0  0  0  0
 37 39  1  0  0  0  0
 37 41  1  0  0  0  0
 38 44  1  0  0  0  0
 39 47  1  0  0  0  0
 40 46  1  0  0  0  0
 40 49  1  0  0  0  0
 41 70  1  0  0  0  0
 42 47  1  0  0  0  0
 42 70  1  0  0  0  0
 43 48  1  0  0  0  0
 43 68  1  0  0  0  0
 44 73  1  0  0  0  0
 45 69  1  0  0  0  0
 46 48  1  0  0  0  0
 46 58  1  0  0  0  0
 47 67  1  0  0  0  0
 48 76  1  0  0  0  0
 49 50  1  0  0  0  0
 49 68  1  0  0  0  0
 51 62  1  0  0  0  0
 52 63  1  0  0  0  0
 53 65  1  0  0  0  0
 54 65  1  0  0  0  0
 55 65  1  0  0  0  0
 56 77  1  0  0  0  0
 57 78  1  0  0  0  0
 58 85  1  0  0  0  0
 59 64  1  0  0  0  0
 59 75  1  0  0  0  0
 60 63  1  0  0  0  0
 60 76  1  0  0  0  0
 61 65  1  0  0  0  0
 61 74  1  0  0  0  0
 62 77  1  0  0  0  0
 63 64  1  0  0  0  0
 64 78  1  0  0  0  0
 66 67  1  0  0  0  0
M  CHG  3  76   1  77   1  78   1
M  ISO  4  32 100  58 101  75 100  85 101
M  END
> <Batch ID>
0127

> <Smiles>
CNC(C)C(=O)NC(C(=O)N1Cc2cc([101O:1][101CH2:1]C3CC(C)NCC3NCC(C)C(C[100NH:0][100C:0](=O)N3CCCC(n4nc(-c5ccc(Oc6ccc(F)cc6F)cc5)c(C(N)=O)c4N)C3)NC)ccc2CC1C(=O)NC1CCCc2ccccc21)C(C)(C)C

> <Shape>
0.247

> <Color>
0.098

> <Negative vol penalty>
0.000

$$$$

  -OEChem-04052320403D

 86 95  0     1  0  0  0  0  0999 V2000
  -32.4004  -14.4645   21.0362 C   0  0  0  0  0  0  0  0  0  0  0  0
  -31.5761  -15.5808   21.1351 C   0  0  0  0  0  0  0  0  0  0  0  0
  -18.5198  -25.8311   22.4781 C   0  0  0  0  0  0  0  0  0  0  0  0
  -28.1427  -23.8746   20.7228 C   0  0  0  0  0  0  0  0  0  0  0  0
  -28.8940  -24.9800   18.7102 C   0  0  0  0  0  0  0  0  0  0  0  0
  -31.8933  -13.2673   20.5328 C   0  0  0  0  0  0  0  0  0  0  0  0
  -30.2444  -15.5008   20.7296 C   0  0  0  0  0  0  0  0  0  0  0  0
  -25.4559  -18.3894   23.2262 C   0  0  0  0  0  0  0  0  0  0  0  0
  -28.3050  -22.6357   20.1029 C   0  0  0  0  0  0  0  0  0  0  0  0
  -29.0563  -23.7411   18.0903 C   0  0  0  0  0  0  0  0  0  0  0  0
  -24.7742  -19.5531   22.8731 C   0  0  0  0  0  0  0  0  0  0  0  0
  -26.6196  -20.7204   17.8858 C   0  0  0  0  0  0  0  0  0  0  0  0
  -25.5987  -19.7821   18.0372 C   0  0  0  0  0  0  0  0  0  0  0  0
  -19.2403  -26.7159   23.2726 C   0  0  0  0  0  0  0  0  0  0  0  0
  -19.1879  -25.0243   21.5638 C   0  0  0  0  0  0  0  0  0  0  0  0
  -23.1330  -18.2291   21.7015 C   0  0  0  0  0  0  0  0  0  0  0  0
  -27.1550  -18.2573   19.0812 C   0  0  0  0  0  0  0  0  0  0  0  0
  -28.4371  -25.0468   20.0264 C   0  0  0  0  0  0  0  0  0  0  0  0
  -29.2284  -27.0363   21.4134 C   0  0  0  0  0  0  0  0  0  0  0  0
  -30.5521  -13.1699   20.1299 C   0  0  0  0  0  0  0  0  0  0  0  0
  -24.9865  -17.1353   22.8096 C   0  0  0  0  0  0  0  0  0  0  0  0
  -29.7192  -14.3016   20.2190 C   0  0  0  0  0  0  0  0  0  0  0  0
  -23.8092  -17.0508   22.0528 C   0  0  0  0  0  0  0  0  0  0  0  0
  -28.7618  -22.5689   18.7867 C   0  0  0  0  0  0  0  0  0  0  0  0
  -23.6142  -19.4734   22.1082 C   0  0  0  0  0  0  0  0  0  0  0  0
  -27.9083  -20.4272   18.3320 C   0  0  0  0  0  0  0  0  0  0  0  0
  -25.8664  -18.5506   18.6350 C   0  0  0  0  0  0  0  0  0  0  0  0
  -28.1760  -19.1956   18.9297 C   0  0  0  0  0  0  0  0  0  0  0  0
  -28.2691  -26.3270   20.6660 C   0  0  0  0  0  0  0  0  0  0  0  0
  -20.6163  -26.7556   23.1155 C   0  0  0  0  0  0  0  0  0  0  0  0
  -20.5663  -25.1398   21.4831 C   0  0  0  0  0  0  0  0  0  0  0  0
  -28.5814  -28.1840   21.8013 C   0  0  0  0  0  0  0  0  0  0  0  0
  -30.5832  -26.6887   21.7287 C   0  0  0  0  0  0  0  0  0  0  0  0
  -26.1393  -14.8014   20.9855 C   0  0  0  0  0  0  0  0  0  0  0  0
  -23.4712  -13.2419   21.9713 C   0  0  0  0  0  0  0  0  0  0  0  0
  -20.2832  -13.4305   23.1746 C   0  0  0  0  0  0  0  0  0  0  0  0
  -22.5723  -29.1614   22.2803 C   0  0  0  0  0  0  0  0  0  0  0  0
  -30.0616  -11.8678   19.5479 C   0  0  0  0  0  0  0  0  0  0  0  0
  -25.7186  -15.8876   23.2214 C   0  0  0  0  0  0  0  0  0  0  0  0
  -23.2524  -15.7274   21.5976 C   0  0  0  0  0  0  0  0  0  0  0  0
  -28.5399  -11.7614   19.4899 C   0  0  0  0  0  0  0  0  0  0  0  0
  -25.0940  -31.1676   20.4545 C   0  0  0  0  0  0  0  0  0  0  0  0
  -27.9365  -13.0421   18.9222 C   0  0  0  0  0  0  0  0  0  0  0  0
  -26.2500  -30.1769   20.3125 C   0  0  0  0  0  0  0  0  0  0  0  0
  -23.4091  -26.7421   24.9936 C   0  0  0  0  0  0  0  0  0  0  0  0
  -23.7447  -30.4598   20.5408 C   0  0  0  0  0  0  0  0  0  0  0  0
  -23.8435  -27.8529   24.0508 C   0  0  0  0  0  0  0  0  0  0  0  0
  -24.8233  -28.4319   21.4457 C   0  0  0  0  0  0  0  0  0  0  0  0
  -28.2625  -14.2474   19.8125 C   0  0  1  0  0  0  0  0  0  0  0  0
  -21.4348  -27.7081   23.9655 C   0  0  1  0  0  0  0  0  0  0  0  0
  -25.4340  -14.6990   22.3084 C   0  0  1  0  0  0  0  0  0  0  0  0
  -26.2011  -29.1079   21.4194 C   0  0  1  0  0  0  0  0  0  0  0  0
  -21.9392  -27.0507   25.2604 C   0  0  2  0  0  0  0  0  0  0  0  0
  -18.3425  -11.9881   23.8458 C   0  0  0  0  0  0  0  0  0  0  0  0
  -22.8273  -12.7440   19.0307 C   0  0  0  0  0  0  0  0  0  0  0  0
  -20.4868  -12.1727   19.7119 C   0  0  0  0  0  0  0  0  0  0  0  0
  -22.3956  -10.7953   20.5375 C   0  0  0  0  0  0  0  0  0  0  0  0
  -20.3424  -14.4435   25.9548 C   0  0  0  0  0  0  0  0  0  0  0  0
  -21.3165  -24.2893   20.5129 C   0  0  0  0  0  0  0  0  0  0  0  0
  -22.1359  -21.9938   19.9669 C   0  0  0  0  0  0  0  0  0  0  0  0
  -22.2283  -20.5895   20.5304 C   0  0  0  0  0  0  0  0  0  1  0  0
  -22.0541  -13.1225   21.4648 C   0  0  1  0  0  0  0  0  0  0  0  0
  -19.5944  -12.7099   24.3195 C   0  0  2  0  0  0  0  0  0  0  0  0
  -21.9522  -12.2339   20.1930 C   0  0  0  0  0  0  0  0  0  0  0  0
  -27.1015  -26.9702   20.5828 N   0  0  0  0  0  0  0  0  0  0  0  0
  -21.3004  -25.9876   22.2381 N   0  0  0  0  0  0  0  0  0  0  0  0
  -27.3228  -28.0958   21.2831 N   0  0  0  0  0  0  0  0  0  0  0  0
  -24.0076  -14.5364   22.0203 N   0  0  0  0  0  0  0  0  0  0  0  0
  -23.7534  -29.4280   21.5760 N   0  0  0  0  0  0  0  0  0  0  0  0
  -22.6457  -28.1838   23.2785 N   0  0  0  0  0  0  0  0  0  0  0  0
  -28.9718  -29.2501   22.5317 N   0  0  0  0  0  0  0  0  0  0  0  0
  -31.0895  -25.4725   21.2506 N   0  0  0  0  0  0  0  0  0  0  0  0
  -27.4096  -14.2575   20.9817 N   0  0  0  0  0  0  0  0  0  0  0  0
  -21.2568  -12.6480   22.5907 N   0  0  0  0  0  0  0  0  0  0  0  0
  -19.2043  -13.6795   25.3819 N   0  3  0  0  0  0  0  0  0  0  0  0
  -21.4414  -22.8705   20.9458 N   0  3  0  0  0  0  0  0  0  0  0  0
  -31.3176  -27.4270   22.4280 O   0  0  0  0  0  0  0  0  0  0  0  0
  -25.5723  -15.3330   20.0381 O   0  0  0  0  0  0  0  0  0  0  0  0
  -24.0773  -12.2249   22.3177 O   0  0  0  0  0  0  0  0  0  0  0  0
  -19.9846  -14.5718   22.8301 O   0  0  0  0  0  0  0  0  0  0  0  0
  -21.5252  -29.7772   22.0470 O   0  0  0  0  0  0  0  0  0  0  0  0
  -21.8538  -27.9820   26.3358 O   0  0  0  0  0  0  0  0  0  0  0  0
  -28.9205  -21.3601   18.1816 O   0  0  0  0  0  0  0  0  0  0  0  0
  -22.9425  -20.6159   21.7592 O   0  0  0  0  0  0  0  0  0  1  0  0
  -24.8856  -17.6502   18.7817 F   0  0  0  0  0  0  0  0  0  0  0  0
  -29.4117  -18.9086   19.3614 F   0  0  0  0  0  0  0  0  0  0  0  0
  1  2  1  0  0  0  0
  1  6  2  0  0  0  0
  2  7  2  0  0  0  0
  3 14  1  0  0  0  0
  3 15  2  0  0  0  0
  4  9  2  0  0  0  0
  4 18  1  0  0  0  0
  5 10  1  0  0  0  0
  5 18  2  0  0  0  0
  6 20  1  0  0  0  0
  7 22  1  0  0  0  0
  8 11  2  0  0  0  0
  8 21  1  0  0  0  0
  9 24  1  0  0  0  0
 10 24  2  0  0  0  0
 11 25  1  0  0  0  0
 12 13  2  0  0  0  0
 12 26  1  0  0  0  0
 13 27  1  0  0  0  0
 14 30  2  0  0  0  0
 15 31  1  0  0  0  0
 16 23  1  0  0  0  0
 16 25  2  0  0  0  0
 17 27  2  0  0  0  0
 17 28  1  0  0  0  0
 18 29  1  0  0  0  0
 19 29  1  0  0  0  0
 19 32  2  0  0  0  0
 19 33  1  0  0  0  0
 20 22  2  0  0  0  0
 20 38  1  0  0  0  0
 21 23  2  0  0  0  0
 21 39  1  0  0  0  0
 22 49  1  0  0  0  0
 23 40  1  0  0  0  0
 24 83  1  0  0  0  0
 25 84  1  0  0  0  0
 26 28  2  0  0  0  0
 26 83  1  0  0  0  0
 27 85  1  0  0  0  0
 28 86  1  0  0  0  0
 29 65  2  0  0  0  0
 30 50  1  0  0  0  0
 30 66  1  0  0  0  0
 31 59  1  0  0  0  0
 31 66  2  0  0  0  0
 32 67  1  0  0  0  0
 32 71  1  0  0  0  0
 33 72  1  0  0  0  0
 33 77  2  0  0  0  0
 34 51  1  0  0  0  0
 34 73  1  0  0  0  0
 34 78  2  0  0  0  0
 35 62  1  0  0  0  0
 35 68  1  0  0  0  0
 35 79  2  0  0  0  0
 36 63  1  0  0  0  0
 36 74  1  0  0  0  0
 36 80  2  0  0  0  0
 37 69  1  0  0  0  0
 37 70  1  0  0  0  0
 37 81  2  0  0  0  0
 38 41  1  0  0  0  0
 39 51  1  0  0  0  0
 40 68  1  0  0  0  0
 41 43  1  0  0  0  0
 42 44  1  0  0  0  0
 42 46  1  0  0  0  0
 43 49  1  0  0  0  0
 44 52  1  0  0  0  0
 45 47  1  0  0  0  0
 45 53  1  0  0  0  0
 46 69  1  0  0  0  0
 47 70  1  0  0  0  0
 48 52  1  0  0  0  0
 48 69  1  0  0  0  0
 49 73  1  0  0  0  0
 50 53  1  0  0  0  0
 50 70  1  0  0  0  0
 51 68  1  0  0  0  0
 52 67  1  0  0  0  0
 53 82  1  0  0  0  0
 54 63  1  0  0  0  0
 55 64  1  0  0  0  0
 56 64  1  0  0  0  0
 57 64  1  0  0  0  0
 58 75  1  0  0  0  0
 59 76  1  0  0  0  0
 60 61  1  0  0  0  0
 60 76  1  0  0  0  0
 61 84  1  0  0  0  0
 62 64  1  0  0  0  0
 62 74  1  0  0  0  0
 63 75  1  0  0  0  0
 65 67  1  0  0  0  0
M  CHG  2  75   1  76   1
M  ISO  4  37 100  61 101  70 100  84 101
M  END
> <Batch ID>
0127

> <Smiles>
CNC(C)C(=O)NC(C(=O)N1Cc2cc([101O:1][101CH2:1]CNCc3cccc(C4C(O)CC[100N:0]4[100C:0](=O)N4CCCC(n5nc(-c6ccc(Oc7ccc(F)cc7F)cc6)c(C(N)=O)c5N)C4)n3)ccc2CC1C(=O)NC1CCCc2ccccc21)C(C)(C)C

> <Shape>
0.264

> <Color>
0.057

> <Negative vol penalty>
0.000

$$$$

  -OEChem-04052320403D

 86 95  0     1  0  0  0  0  0999 V2000
  -19.1962  -31.9295   15.8894 C   0  0  0  0  0  0  0  0  0  0  0  0
  -20.2153  -30.9867   15.9779 C   0  0  0  0  0  0  0  0  0  0  0  0
  -22.8220  -10.6550   20.5714 C   0  0  0  0  0  0  0  0  0  0  0  0
  -24.4821   -8.9000   20.6011 C   0  0  0  0  0  0  0  0  0  0  0  0
  -19.3203  -33.1524   16.5475 C   0  0  0  0  0  0  0  0  0  0  0  0
  -21.3598  -31.2667   16.7237 C   0  0  0  0  0  0  0  0  0  0  0  0
  -29.8764  -20.1856   21.6425 C   0  0  0  0  0  0  0  0  0  0  0  0
  -24.6837  -27.2983   19.9962 C   0  0  0  0  0  0  0  0  0  0  0  0
  -29.9005  -18.7910   21.6324 C   0  0  0  0  0  0  0  0  0  0  0  0
  -21.8534   -9.7460   20.9969 C   0  0  0  0  0  0  0  0  0  0  0  0
  -23.5135   -7.9910   21.0267 C   0  0  0  0  0  0  0  0  0  0  0  0
  -25.8673  -26.6151   19.7208 C   0  0  0  0  0  0  0  0  0  0  0  0
  -21.9576   -7.1817   23.9154 C   0  0  0  0  0  0  0  0  0  0  0  0
  -22.2954   -6.3168   24.9562 C   0  0  0  0  0  0  0  0  0  0  0  0
  -28.3017  -20.1718   19.8103 C   0  0  0  0  0  0  0  0  0  0  0  0
  -27.1170  -28.3293   20.8692 C   0  0  0  0  0  0  0  0  0  0  0  0
  -21.8957   -4.4220   23.5115 C   0  0  0  0  0  0  0  0  0  0  0  0
  -24.1364  -10.2320   20.3734 C   0  0  0  0  0  0  0  0  0  0  0  0
  -28.3257  -18.7771   19.8001 C   0  0  0  0  0  0  0  0  0  0  0  0
  -25.1347  -11.9194   18.7413 C   0  0  0  0  0  0  0  0  0  0  0  0
  -29.0770  -20.8760   20.7315 C   0  0  0  0  0  0  0  0  0  0  0  0
  -20.4627  -33.4437   17.3096 C   0  0  0  0  0  0  0  0  0  0  0  0
  -24.7089  -28.5098   20.7020 C   0  0  0  0  0  0  0  0  0  0  0  0
  -21.5000  -32.4952   17.3914 C   0  0  0  0  0  0  0  0  0  0  0  0
  -25.9321  -29.0247   21.1545 C   0  0  0  0  0  0  0  0  0  0  0  0
  -29.1252  -18.0868   20.7112 C   0  0  0  0  0  0  0  0  0  0  0  0
  -22.1991   -8.4140   21.2246 C   0  0  0  0  0  0  0  0  0  0  0  0
  -27.0845  -27.1320   20.1548 C   0  0  0  0  0  0  0  0  0  0  0  0
  -21.5887   -6.6668   22.6726 C   0  0  0  0  0  0  0  0  0  0  0  0
  -22.2646   -4.9370   24.7543 C   0  0  0  0  0  0  0  0  0  0  0  0
  -21.5578   -5.2869   22.4707 C   0  0  0  0  0  0  0  0  0  0  0  0
  -25.1373  -11.1704   19.9333 C   0  0  0  0  0  0  0  0  0  0  0  0
  -26.2948  -12.6527   18.7942 C   0  0  0  0  0  0  0  0  0  0  0  0
  -27.5036  -18.0711   18.8248 C   0  0  0  0  0  0  0  0  0  0  0  0
  -24.1699  -11.9495   17.6812 C   0  0  0  0  0  0  0  0  0  0  0  0
  -23.8709  -31.5052   20.0469 C   0  0  0  0  0  0  0  0  0  0  0  0
  -24.5805  -31.9763   23.1769 C   0  0  0  0  0  0  0  0  0  0  0  0
  -26.2974  -30.9551   25.9439 C   0  0  0  0  0  0  0  0  0  0  0  0
  -29.9133  -15.8515   21.5650 C   0  0  0  0  0  0  0  0  0  0  0  0
  -20.5726  -34.7979   17.9644 C   0  0  0  0  0  0  0  0  0  0  0  0
  -23.4208  -29.2210   21.0142 C   0  0  0  0  0  0  0  0  0  0  0  0
  -26.0114  -30.3113   21.9335 C   0  0  0  0  0  0  0  0  0  0  0  0
  -21.6527  -34.8681   19.0409 C   0  0  0  0  0  0  0  0  0  0  0  0
  -30.2585  -12.3262   21.9253 C   0  0  0  0  0  0  0  0  0  0  0  0
  -27.6519  -22.9403   21.0763 C   0  0  0  0  0  0  0  0  0  0  0  0
  -29.5758  -22.9847   19.4223 C   0  0  0  0  0  0  0  0  0  0  0  0
  -22.9475  -34.2363   18.5399 C   0  0  0  0  0  0  0  0  0  0  0  0
  -28.9567  -11.7728   21.3411 C   0  0  0  0  0  0  0  0  0  0  0  0
  -27.6396  -24.4667   21.0931 C   0  0  0  0  0  0  0  0  0  0  0  0
  -29.5538  -24.5107   19.4482 C   0  0  0  0  0  0  0  0  0  0  0  0
  -30.0303  -13.6342   22.6807 C   0  0  0  0  0  0  0  0  0  0  0  0
  -28.0237  -14.1215   21.3372 C   0  0  0  0  0  0  0  0  0  0  0  0
  -29.0515  -22.3936   20.7430 C   0  0  0  0  0  0  0  0  0  0  0  0
  -22.7459  -32.7521   18.2110 C   0  0  1  0  0  0  0  0  0  0  0  0
  -23.6122  -30.7084   21.2942 C   0  0  1  0  0  0  0  0  0  0  0  0
  -28.2135  -12.8384   20.5118 C   0  0  2  0  0  0  0  0  0  0  0  0
  -28.1650  -25.0498   19.7825 C   0  0  0  0  0  0  0  0  0  1  0  0
  -26.7060  -31.5625   28.3442 C   0  0  0  0  0  0  0  0  0  0  0  0
  -26.4339  -34.2313   22.2882 C   0  0  0  0  0  0  0  0  0  0  0  0
  -27.4993  -34.1541   24.5526 C   0  0  0  0  0  0  0  0  0  0  0  0
  -25.0834  -34.7351   24.3319 C   0  0  0  0  0  0  0  0  0  0  0  0
  -25.1737  -28.3913   26.9048 C   0  0  0  0  0  0  0  0  0  0  0  0
  -25.8245  -32.3488   23.9468 C   0  0  1  0  0  0  0  0  0  0  0  0
  -25.8579  -30.7457   27.3817 C   0  0  2  0  0  0  0  0  0  0  0  0
  -26.2093  -33.8440   23.7635 C   0  0  0  0  0  0  0  0  0  0  0  0
  -26.2137  -11.4062   20.6882 N   0  0  0  0  0  0  0  0  0  0  0  0
  -26.8984  -12.3115   19.9687 N   0  0  0  0  0  0  0  0  0  0  0  0
  -24.7252  -30.9729   22.2083 N   0  0  0  0  0  0  0  0  0  0  0  0
  -29.3254  -14.5969   21.8315 N   0  0  0  0  0  0  0  0  0  0  0  0
  -26.8474  -13.5497   17.9500 N   0  0  0  0  0  0  0  0  0  0  0  0
  -26.2065  -17.7373   19.1973 N   0  0  0  0  0  0  0  0  0  0  0  0
  -24.3216  -11.0536   16.6141 N   0  0  0  0  0  0  0  0  0  0  0  0
  -29.1660  -16.6704   20.7190 N   0  0  0  0  0  0  0  0  0  0  0  0
  -22.7256  -31.9637   19.4245 N   0  0  0  0  0  0  0  0  0  0  0  0
  -25.5792  -31.9603   25.3315 N   0  0  0  0  0  0  0  0  0  0  0  0
  -25.9759  -29.3079   27.7554 N   0  3  0  0  0  0  0  0  0  0  0  0
  -27.9499  -17.7633   17.7078 O   0  0  0  0  0  0  0  0  0  0  0  0
  -23.2113  -12.7584   17.6721 O   0  0  0  0  0  0  0  0  0  0  0  0
  -25.0244  -31.6916   19.6774 O   0  0  0  0  0  0  0  0  0  0  0  0
  -23.5180  -32.5493   23.4306 O   0  0  0  0  0  0  0  0  0  0  0  0
  -27.1912  -30.2956   25.4179 O   0  0  0  0  0  0  0  0  0  0  0  0
  -31.0124  -16.1650   22.0294 O   0  0  0  0  0  0  0  0  0  0  0  0
  -21.2542   -7.5268   21.6400 O   0  0  0  0  0  0  0  0  0  0  0  0
  -28.2414  -26.4674   19.8867 O   0  0  0  0  0  0  0  0  0  1  0  0
  -22.5906   -4.1065   25.7535 F   0  0  0  0  0  0  0  0  0  0  0  0
  -21.2054   -4.7864   21.2786 F   0  0  0  0  0  0  0  0  0  0  0  0
  1  2  1  0  0  0  0
  1  5  2  0  0  0  0
  2  6  2  0  0  0  0
  3 10  2  0  0  0  0
  3 18  1  0  0  0  0
  4 11  1  0  0  0  0
  4 18  2  0  0  0  0
  5 22  1  0  0  0  0
  6 24  1  0  0  0  0
  7  9  2  0  0  0  0
  7 21  1  0  0  0  0
  8 12  2  0  0  0  0
  8 23  1  0  0  0  0
  9 26  1  0  0  0  0
 10 27  1  0  0  0  0
 11 27  2  0  0  0  0
 12 28  1  0  0  0  0
 13 14  2  0  0  0  0
 13 29  1  0  0  0  0
 14 30  1  0  0  0  0
 15 19  1  0  0  0  0
 15 21  2  0  0  0  0
 16 25  1  0  0  0  0
 16 28  2  0  0  0  0
 17 30  2  0  0  0  0
 17 31  1  0  0  0  0
 18 32  1  0  0  0  0
 19 26  2  0  0  0  0
 19 34  1  0  0  0  0
 20 32  1  0  0  0  0
 20 33  2  0  0  0  0
 20 35  1  0  0  0  0
 21 53  1  0  0  0  0
 22 24  2  0  0  0  0
 22 40  1  0  0  0  0
 23 25  2  0  0  0  0
 23 41  1  0  0  0  0
 24 54  1  0  0  0  0
 25 42  1  0  0  0  0
 26 73  1  0  0  0  0
 27 83  1  0  0  0  0
 28 84  1  0  0  0  0
 29 31  2  0  0  0  0
 29 83  1  0  0  0  0
 30 85  1  0  0  0  0
 31 86  1  0  0  0  0
 32 66  2  0  0  0  0
 33 67  1  0  0  0  0
 33 70  1  0  0  0  0
 34 71  1  0  0  0  0
 34 77  2  0  0  0  0
 35 72  1  0  0  0  0
 35 78  2  0  0  0  0
 36 55  1  0  0  0  0
 36 74  1  0  0  0  0
 36 79  2  0  0  0  0
 37 63  1  0  0  0  0
 37 68  1  0  0  0  0
 37 80  2  0  0  0  0
 38 64  1  0  0  0  0
 38 75  1  0  0  0  0
 38 81  2  0  0  0  0
 39 69  1  0  0  0  0
 39 73  1  0  0  0  0
 39 82  2  0  0  0  0
 40 43  1  0  0  0  0
 41 55  1  0  0  0  0
 42 68  1  0  0  0  0
 43 47  1  0  0  0  0
 44 48  1  0  0  0  0
 44 51  1  0  0  0  0
 45 49  1  0  0  0  0
 45 53  1  0  0  0  0
 46 50  1  0  0  0  0
 46 53  1  0  0  0  0
 47 54  1  0  0  0  0
 48 56  1  0  0  0  0
 49 57  1  0  0  0  0
 50 57  1  0  0  0  0
 51 69  1  0  0  0  0
 52 56  1  0  0  0  0
 52 69  1  0  0  0  0
 54 74  1  0  0  0  0
 55 68  1  0  0  0  0
 56 67  1  0  0  0  0
 57 84  1  0  0  0  0
 58 64  1  0  0  0  0
 59 65  1  0  0  0  0
 60 65  1  0  0  0  0
 61 65  1  0  0  0  0
 62 76  1  0  0  0  0
 63 65  1  0  0  0  0
 63 75  1  0  0  0  0
 64 76  1  0  0  0  0
 66 67  1  0  0  0  0
M  CHG  1  76   1
M  ISO  4  39 100  57 101  73 100  84 101
M  END
> <Batch ID>
0127

> <Smiles>
CNC(C)C(=O)NC(C(=O)N1Cc2cc([101O:1][101CH:1]3CCC(c4ccc([100NH:0][100C:0](=O)N5CCCC(n6nc(-c7ccc(Oc8ccc(F)cc8F)cc7)c(C(N)=O)c6N)C5)c(C(N)=O)c4)CC3)ccc2CC1C(=O)NC1CCCc2ccccc21)C(C)(C)C

> <Shape>
0.350

> <Color>
0.122

> <Negative vol penalty>
0.000

$$$$

  -OEChem-04052320403D

 82 90  0     1  0  0  0  0  0999 V2000
  -20.5052  -35.4455   25.0190 C   0  0  0  0  0  0  0  0  0  0  0  0
  -20.3123  -34.6677   23.8818 C   0  0  0  0  0  0  0  0  0  0  0  0
  -25.6250  -13.8158   21.4213 C   0  0  0  0  0  0  0  0  0  0  0  0
  -25.1806  -14.3863   19.1160 C   0  0  0  0  0  0  0  0  0  0  0  0
  -21.7915  -35.8458   25.3784 C   0  0  0  0  0  0  0  0  0  0  0  0
  -21.4056  -34.2907   23.1026 C   0  0  0  0  0  0  0  0  0  0  0  0
  -22.1172  -29.0230   20.0612 C   0  0  0  0  0  0  0  0  0  0  0  0
  -24.6085  -12.8615   21.3811 C   0  0  0  0  0  0  0  0  0  0  0  0
  -24.1641  -13.4320   19.0758 C   0  0  0  0  0  0  0  0  0  0  0  0
  -21.9219  -28.6778   18.7246 C   0  0  0  0  0  0  0  0  0  0  0  0
  -24.1896   -9.7159   20.2137 C   0  0  0  0  0  0  0  0  0  0  0  0
  -24.4545   -8.4629   20.7662 C   0  0  0  0  0  0  0  0  0  0  0  0
  -24.2694  -29.0316   18.2964 C   0  0  0  0  0  0  0  0  0  0  0  0
  -22.6372   -8.7676   22.3288 C   0  0  0  0  0  0  0  0  0  0  0  0
  -25.9110  -14.5783   20.2887 C   0  0  0  0  0  0  0  0  0  0  0  0
  -28.3203  -15.3724   20.0199 C   0  0  0  0  0  0  0  0  0  0  0  0
  -22.9021  -35.4655   24.6086 C   0  0  0  0  0  0  0  0  0  0  0  0
  -23.3902  -29.3862   20.5238 C   0  0  0  0  0  0  0  0  0  0  0  0
  -22.7078  -34.6875   23.4513 C   0  0  0  0  0  0  0  0  0  0  0  0
  -24.4787  -29.3785   19.6399 C   0  0  0  0  0  0  0  0  0  0  0  0
  -23.8780  -12.6696   20.2084 C   0  0  0  0  0  0  0  0  0  0  0  0
  -22.9975  -28.6849   17.8413 C   0  0  0  0  0  0  0  0  0  0  0  0
  -23.1485  -10.4949   20.7188 C   0  0  0  0  0  0  0  0  0  0  0  0
  -23.6784   -7.9887   21.8237 C   0  0  0  0  0  0  0  0  0  0  0  0
  -22.3723  -10.0207   21.7763 C   0  0  0  0  0  0  0  0  0  0  0  0
  -26.9606  -15.5646   20.3298 C   0  0  0  0  0  0  0  0  0  0  0  0
  -28.8942  -16.6052   20.2135 C   0  0  0  0  0  0  0  0  0  0  0  0
  -29.0036  -14.1857   19.5950 C   0  0  0  0  0  0  0  0  0  0  0  0
  -24.6483  -32.0114   21.8003 C   0  0  0  0  0  0  0  0  0  0  0  0
  -27.2539  -30.1144   22.1668 C   0  0  0  0  0  0  0  0  0  0  0  0
  -29.0040  -27.3674   21.1481 C   0  0  0  0  0  0  0  0  0  0  0  0
  -26.7196  -22.1822   20.0740 C   0  0  0  0  0  0  0  0  0  0  0  0
  -24.2683  -35.9620   25.0106 C   0  0  0  0  0  0  0  0  0  0  0  0
  -23.5894  -29.7301   21.9745 C   0  0  0  0  0  0  0  0  0  0  0  0
  -25.8692  -29.7411   20.0910 C   0  0  0  0  0  0  0  0  0  0  0  0
  -25.4126  -35.2066   24.3397 C   0  0  0  0  0  0  0  0  0  0  0  0
  -28.3945  -20.6048   22.7912 C   0  0  0  0  0  0  0  0  0  0  0  0
  -25.1464  -35.0513   22.8457 C   0  0  0  0  0  0  0  0  0  0  0  0
  -28.3397  -19.1168   22.4405 C   0  0  0  0  0  0  0  0  0  0  0  0
  -21.0594  -25.5943   14.6329 C   0  0  0  0  0  0  0  0  0  0  0  0
  -27.1209  -21.3321   22.3660 C   0  0  0  0  0  0  0  0  0  0  0  0
  -26.6960  -19.6680   20.5985 C   0  0  0  0  0  0  0  0  0  0  0  0
  -19.9704  -26.4003   13.9445 C   0  0  0  0  0  0  0  0  0  0  0  0
  -22.1321  -27.5162   13.7457 C   0  0  0  0  0  0  0  0  0  0  0  0
  -23.8711  -34.2377   22.5943 C   0  0  1  0  0  0  0  0  0  0  0  0
  -24.8313  -30.5809   22.2218 C   0  0  1  0  0  0  0  0  0  0  0  0
  -27.9813  -18.9031   20.9576 C   0  0  2  0  0  0  0  0  0  0  0  0
  -22.1405  -26.6229   14.9853 C   0  0  2  0  0  0  0  0  0  0  0  0
  -30.7947  -25.6094   21.1646 C   0  0  0  0  0  0  0  0  0  0  0  0
  -28.8634  -32.2562   20.7066 C   0  0  0  0  0  0  0  0  0  0  0  0
  -30.6746  -30.5622   20.3631 C   0  0  0  0  0  0  0  0  0  0  0  0
  -30.0244  -31.2391   22.6743 C   0  0  0  0  0  0  0  0  0  0  0  0
  -27.4415  -25.6277   22.9621 C   0  0  0  0  0  0  0  0  0  0  0  0
  -23.5045  -25.9613   15.1892 C   0  0  0  0  0  0  0  0  0  0  0  0
  -21.7679  -27.4168   16.2489 C   0  0  0  0  0  0  0  0  0  1  0  0
  -26.3146  -22.8786   17.7267 C   0  0  0  0  0  0  0  0  0  0  0  0
  -23.4330  -24.9223   16.2881 C   0  0  0  0  0  0  0  0  0  0  0  0
  -24.8788  -23.3461   17.5781 C   0  0  0  0  0  0  0  0  0  0  0  0
  -28.4612  -29.7817   21.3237 C   0  0  1  0  0  0  0  0  0  0  0  0
  -29.6346  -26.2283   21.9287 C   0  0  2  0  0  0  0  0  0  0  0  0
  -29.4795  -30.9548   21.2577 C   0  0  0  0  0  0  0  0  0  0  0  0
  -26.6870  -16.8205   20.6929 N   0  0  0  0  0  0  0  0  0  0  0  0
  -27.8828  -17.4286   20.6124 N   0  0  0  0  0  0  0  0  0  0  0  0
  -26.0118  -30.0759   21.5176 N   0  0  0  0  0  0  0  0  0  0  0  0
  -26.8384  -21.0899   20.9491 N   0  0  0  0  0  0  0  0  0  0  0  0
  -30.1602  -17.0542   20.0799 N   0  0  0  0  0  0  0  0  0  0  0  0
  -28.2628  -13.0052   19.4464 N   0  0  0  0  0  0  0  0  0  0  0  0
  -24.1260  -32.8261   22.7866 N   0  0  0  0  0  0  0  0  0  0  0  0
  -29.0100  -28.5439   21.8671 N   0  0  0  0  0  0  0  0  0  0  0  0
  -26.4575  -21.8641   18.7471 N   0  0  0  0  0  0  0  0  0  0  0  0
  -20.6852  -27.5783   13.3481 N   0  3  0  0  0  0  0  0  0  0  0  0
  -28.6268  -25.1635   22.1964 N   0  3  0  0  0  0  0  0  0  0  0  0
  -24.7864  -24.3485   16.4812 N   0  3  0  0  0  0  0  0  0  0  0  0
  -30.2375  -14.1686   19.3700 O   0  0  0  0  0  0  0  0  0  0  0  0
  -24.9593  -32.3512   20.6647 O   0  0  0  0  0  0  0  0  0  0  0  0
  -27.4067  -30.3911   23.3591 O   0  0  0  0  0  0  0  0  0  0  0  0
  -28.5548  -27.2283   20.0126 O   0  0  0  0  0  0  0  0  0  0  0  0
  -26.8437  -23.3538   20.4466 O   0  0  0  0  0  0  0  0  0  0  0  0
  -22.8862  -11.7384   20.1687 O   0  0  0  0  0  0  0  0  0  0  0  0
  -22.8094  -28.3490   16.5361 O   0  0  0  0  0  0  0  0  0  1  0  0
  -23.9319   -6.7847   22.3531 F   0  0  0  0  0  0  0  0  0  0  0  0
  -21.3700  -10.7640   22.2650 F   0  0  0  0  0  0  0  0  0  0  0  0
  1  2  1  0  0  0  0
  1  5  2  0  0  0  0
  2  6  2  0  0  0  0
  3  8  2  0  0  0  0
  3 15  1  0  0  0  0
  4  9  1  0  0  0  0
  4 15  2  0  0  0  0
  5 17  1  0  0  0  0
  6 19  1  0  0  0  0
  7 10  2  0  0  0  0
  7 18  1  0  0  0  0
  8 21  1  0  0  0  0
  9 21  2  0  0  0  0
 10 22  1  0  0  0  0
 11 12  2  0  0  0  0
 11 23  1  0  0  0  0
 12 24  1  0  0  0  0
 13 20  1  0  0  0  0
 13 22  2  0  0  0  0
 14 24  2  0  0  0  0
 14 25  1  0  0  0  0
 15 26  1  0  0  0  0
 16 26  1  0  0  0  0
 16 27  2  0  0  0  0
 16 28  1  0  0  0  0
 17 19  2  0  0  0  0
 17 33  1  0  0  0  0
 18 20  2  0  0  0  0
 18 34  1  0  0  0  0
 19 45  1  0  0  0  0
 20 35  1  0  0  0  0
 21 79  1  0  0  0  0
 22 80  1  0  0  0  0
 23 25  2  0  0  0  0
 23 79  1  0  0  0  0
 24 81  1  0  0  0  0
 25 82  1  0  0  0  0
 26 62  2  0  0  0  0
 27 63  1  0  0  0  0
 27 66  1  0  0  0  0
 28 67  1  0  0  0  0
 28 74  2  0  0  0  0
 29 46  1  0  0  0  0
 29 68  1  0  0  0  0
 29 75  2  0  0  0  0
 30 59  1  0  0  0  0
 30 64  1  0  0  0  0
 30 76  2  0  0  0  0
 31 60  1  0  0  0  0
 31 69  1  0  0  0  0
 31 77  2  0  0  0  0
 32 65  1  0  0  0  0
 32 70  1  0  0  0  0
 32 78  2  0  0  0  0
 33 36  1  0  0  0  0
 34 46  1  0  0  0  0
 35 64  1  0  0  0  0
 36 38  1  0  0  0  0
 37 39  1  0  0  0  0
 37 41  1  0  0  0  0
 38 45  1  0  0  0  0
 39 47  1  0  0  0  0
 40 43  1  0  0  0  0
 40 48  1  0  0  0  0
 41 65  1  0  0  0  0
 42 47  1  0  0  0  0
 42 65  1  0  0  0  0
 43 71  1  0  0  0  0
 44 48  1  0  0  0  0
 44 71  1  0  0  0  0
 45 68  1  0  0  0  0
 46 64  1  0  0  0  0
 47 63  1  0  0  0  0
 48 54  1  0  0  0  0
 48 55  1  0  0  0  0
 49 60  1  0  0  0  0
 50 61  1  0  0  0  0
 51 61  1  0  0  0  0
 52 61  1  0  0  0  0
 53 72  1  0  0  0  0
 54 57  1  0  0  0  0
 55 80  1  0  0  0  0
 56 58  1  0  0  0  0
 56 70  1  0  0  0  0
 57 73  1  0  0  0  0
 58 73  1  0  0  0  0
 59 61  1  0  0  0  0
 59 69  1  0  0  0  0
 60 72  1  0  0  0  0
 62 63  1  0  0  0  0
M  CHG  3  71   1  72   1  73   1
M  ISO  4  32 100  55 101  70 100  80 101
M  END
> <Batch ID>
0127

> <Smiles>
CNC(C)C(=O)NC(C(=O)N1Cc2cc([101O:1][101CH2:1]C3(CCNCC[100NH:0][100C:0](=O)N4CCCC(n5nc(-c6ccc(Oc7ccc(F)cc7F)cc6)c(C(N)=O)c5N)C4)CCNC3)ccc2CC1C(=O)NC1CCCc2ccccc21)C(C)(C)C

> <Shape>
0.222

> <Color>
0.066

> <Negative vol penalty>
0.000

$$$$

  -OEChem-04052320403D

 81 89  0     1  0  0  0  0  0999 V2000
  -19.8384   -9.8364   21.7984 C   0  0  0  0  0  0  0  0  0  0  0  0
  -20.3990  -10.9773   22.3637 C   0  0  0  0  0  0  0  0  0  0  0  0
  -27.2926  -29.0499   20.6826 C   0  0  0  0  0  0  0  0  0  0  0  0
  -25.7195  -27.6974   19.4443 C   0  0  0  0  0  0  0  0  0  0  0  0
  -20.6571   -8.8908   21.1822 C   0  0  0  0  0  0  0  0  0  0  0  0
  -21.7787  -11.1728   22.3141 C   0  0  0  0  0  0  0  0  0  0  0  0
  -23.0247  -15.9034   21.0050 C   0  0  0  0  0  0  0  0  0  0  0  0
  -26.3881  -30.1117   20.6719 C   0  0  0  0  0  0  0  0  0  0  0  0
  -24.8150  -28.7592   19.4336 C   0  0  0  0  0  0  0  0  0  0  0  0
  -22.9286  -16.8834   21.9919 C   0  0  0  0  0  0  0  0  0  0  0  0
  -24.3748  -31.6397   17.7191 C   0  0  0  0  0  0  0  0  0  0  0  0
  -23.7317  -31.9311   16.5161 C   0  0  0  0  0  0  0  0  0  0  0  0
  -25.3107  -16.7491   22.3486 C   0  0  0  0  0  0  0  0  0  0  0  0
  -21.5919  -31.5241   17.5615 C   0  0  0  0  0  0  0  0  0  0  0  0
  -26.9583  -27.8428   20.0687 C   0  0  0  0  0  0  0  0  0  0  0  0
  -29.1920  -26.7308   19.5380 C   0  0  0  0  0  0  0  0  0  0  0  0
  -22.0466   -9.0795   21.1165 C   0  0  0  0  0  0  0  0  0  0  0  0
  -24.2650  -15.3301   20.6895 C   0  0  0  0  0  0  0  0  0  0  0  0
  -22.6169  -10.2282   21.6975 C   0  0  0  0  0  0  0  0  0  0  0  0
  -25.4202  -15.7639   21.3554 C   0  0  0  0  0  0  0  0  0  0  0  0
  -25.1493  -29.9664   20.0474 C   0  0  0  0  0  0  0  0  0  0  0  0
  -24.0713  -17.3044   22.6659 C   0  0  0  0  0  0  0  0  0  0  0  0
  -23.6264  -31.2904   18.8432 C   0  0  0  0  0  0  0  0  0  0  0  0
  -22.3402  -31.8733   16.4373 C   0  0  0  0  0  0  0  0  0  0  0  0
  -22.2350  -31.2326   18.7644 C   0  0  0  0  0  0  0  0  0  0  0  0
  -27.8925  -26.7458   20.0789 C   0  0  0  0  0  0  0  0  0  0  0  0
  -29.6606  -25.4677   19.8052 C   0  0  0  0  0  0  0  0  0  0  0  0
  -29.9113  -27.7662   18.8551 C   0  0  0  0  0  0  0  0  0  0  0  0
  -25.4794  -12.3958   20.8255 C   0  0  0  0  0  0  0  0  0  0  0  0
  -28.1784  -21.4455   24.0167 C   0  0  0  0  0  0  0  0  0  0  0  0
  -28.0012  -13.7911   19.3369 C   0  0  0  0  0  0  0  0  0  0  0  0
  -29.7609  -16.6390   18.6740 C   0  0  0  0  0  0  0  0  0  0  0  0
  -22.8956   -8.0068   20.4816 C   0  0  0  0  0  0  0  0  0  0  0  0
  -24.3557  -14.2932   19.6036 C   0  0  0  0  0  0  0  0  0  0  0  0
  -26.7784  -15.1946   21.0399 C   0  0  0  0  0  0  0  0  0  0  0  0
  -24.3096   -8.4708   20.1416 C   0  0  0  0  0  0  0  0  0  0  0  0
  -28.1750  -20.9759   20.4643 C   0  0  0  0  0  0  0  0  0  0  0  0
  -24.9195   -9.2291   21.3162 C   0  0  0  0  0  0  0  0  0  0  0  0
  -23.8875  -18.4828   28.0179 C   0  0  0  0  0  0  0  0  0  0  0  0
  -23.3345  -17.8527   26.7230 C   0  0  0  0  0  0  0  0  0  0  0  0
  -28.1915  -22.4013   19.9137 C   0  0  0  0  0  0  0  0  0  0  0  0
  -27.3614  -20.8838   21.7514 C   0  0  0  0  0  0  0  0  0  0  0  0
  -27.8193  -23.2594   22.2696 C   0  0  0  0  0  0  0  0  0  0  0  0
  -24.1067  -10.4879   21.6420 C   0  0  1  0  0  0  0  0  0  0  0  0
  -25.5939  -13.4100   19.7228 C   0  0  1  0  0  0  0  0  0  0  0  0
  -25.1802  -18.8079   27.2258 C   0  0  1  0  0  0  0  0  0  0  0  0
  -24.2969  -18.7836   25.9410 C   0  0  1  0  0  0  0  0  0  0  0  0
  -28.6561  -23.4027   20.9860 C   0  0  2  0  0  0  0  0  0  0  0  0
  -31.7978  -17.4581   17.4585 C   0  0  0  0  0  0  0  0  0  0  0  0
  -29.8243  -22.8758   27.1754 C   0  0  0  0  0  0  0  0  0  0  0  0
  -29.7732  -12.6558   21.5462 C   0  0  0  0  0  0  0  0  0  0  0  0
  -31.5649  -14.2529   20.8340 C   0  0  0  0  0  0  0  0  0  0  0  0
  -30.7484  -12.5092   19.2480 C   0  0  0  0  0  0  0  0  0  0  0  0
  -28.1508  -18.4023   16.9255 C   0  0  0  0  0  0  0  0  0  0  0  0
  -28.6430  -22.5141   24.9739 C   0  0  0  0  0  0  0  0  0  0  0  0
  -25.8612  -20.1206   27.5556 C   0  0  0  0  0  0  0  0  0  0  0  0
  -24.9306  -18.2032   24.6931 C   0  0  0  0  0  0  0  0  0  1  0  0
  -27.0909  -20.3416   26.6862 C   0  0  0  0  0  0  0  0  0  0  0  0
  -29.2637  -14.4816   19.7932 C   0  0  1  0  0  0  0  0  0  0  0  0
  -30.2995  -17.2109   17.3751 C   0  0  2  0  0  0  0  0  0  0  0  0
  -28.9980  -21.9153   26.3321 C   0  0  2  0  0  0  0  0  0  0  0  0
  -30.3118  -13.4844   20.3629 C   0  0  0  0  0  0  0  0  0  0  0  0
  -27.5569  -25.5843   20.6467 N   0  0  0  0  0  0  0  0  0  0  0  0
  -28.6524  -24.8277   20.4640 N   0  0  0  0  0  0  0  0  0  0  0  0
  -26.8144  -14.1788   19.9748 N   0  0  0  0  0  0  0  0  0  0  0  0
  -27.8188  -21.8659   22.7360 N   0  0  0  0  0  0  0  0  0  0  0  0
  -30.8326  -24.8531   19.5384 N   0  0  0  0  0  0  0  0  0  0  0  0
  -29.7942  -27.8534   17.4612 N   0  0  0  0  0  0  0  0  0  0  0  0
  -24.4025  -11.5401   20.6934 N   0  0  0  0  0  0  0  0  0  0  0  0
  -29.7375  -15.2605   18.6543 N   0  0  0  0  0  0  0  0  0  0  0  0
  -29.6269  -18.5028   17.0596 N   0  3  0  0  0  0  0  0  0  0  0  0
  -27.7443  -21.6141   27.0763 N   0  3  0  0  0  0  0  0  0  0  0  0
  -30.6495  -28.5794   19.4612 O   0  0  0  0  0  0  0  0  0  0  0  0
  -26.3078  -12.3890   21.7286 O   0  0  0  0  0  0  0  0  0  0  0  0
  -28.1397  -20.2724   24.3967 O   0  0  0  0  0  0  0  0  0  0  0  0
  -28.0647  -12.9441   18.4423 O   0  0  0  0  0  0  0  0  0  0  0  0
  -29.4007  -17.3445   19.6137 O   0  0  0  0  0  0  0  0  0  0  0  0
  -24.2664  -31.0022   20.0370 O   0  0  0  0  0  0  0  0  0  0  0  0
  -23.9802  -18.2603   23.6302 O   0  0  0  0  0  0  0  0  0  1  0  0
  -21.7227  -32.1547   15.2825 F   0  0  0  0  0  0  0  0  0  0  0  0
  -21.5107  -30.8988   19.8413 F   0  0  0  0  0  0  0  0  0  0  0  0
  1  2  1  0  0  0  0
  1  5  2  0  0  0  0
  2  6  2  0  0  0  0
  3  8  2  0  0  0  0
  3 15  1  0  0  0  0
  4  9  1  0  0  0  0
  4 15  2  0  0  0  0
  5 17  1  0  0  0  0
  6 19  1  0  0  0  0
  7 10  2  0  0  0  0
  7 18  1  0  0  0  0
  8 21  1  0  0  0  0
  9 21  2  0  0  0  0
 10 22  1  0  0  0  0
 11 12  2  0  0  0  0
 11 23  1  0  0  0  0
 12 24  1  0  0  0  0
 13 20  1  0  0  0  0
 13 22  2  0  0  0  0
 14 24  2  0  0  0  0
 14 25  1  0  0  0  0
 15 26  1  0  0  0  0
 16 26  1  0  0  0  0
 16 27  2  0  0  0  0
 16 28  1  0  0  0  0
 17 19  2  0  0  0  0
 17 33  1  0  0  0  0
 18 20  2  0  0  0  0
 18 34  1  0  0  0  0
 19 44  1  0  0  0  0
 20 35  1  0  0  0  0
 21 78  1  0  0  0  0
 22 79  1  0  0  0  0
 23 25  2  0  0  0  0
 23 78  1  0  0  0  0
 24 80  1  0  0  0  0
 25 81  1  0  0  0  0
 26 63  2  0  0  0  0
 27 64  1  0  0  0  0
 27 67  1  0  0  0  0
 28 68  1  0  0  0  0
 28 73  2  0  0  0  0
 29 45  1  0  0  0  0
 29 69  1  0  0  0  0
 29 74  2  0  0  0  0
 30 55  1  0  0  0  0
 30 66  1  0  0  0  0
 30 75  2  0  0  0  0
 31 59  1  0  0  0  0
 31 65  1  0  0  0  0
 31 76  2  0  0  0  0
 32 60  1  0  0  0  0
 32 70  1  0  0  0  0
 32 77  2  0  0  0  0
 33 36  1  0  0  0  0
 34 45  1  0  0  0  0
 35 65  1  0  0  0  0
 36 38  1  0  0  0  0
 37 41  1  0  0  0  0
 37 42  1  0  0  0  0
 38 44  1  0  0  0  0
 39 40  1  0  0  0  0
 39 46  1  0  0  0  0
 40 47  1  0  0  0  0
 41 48  1  0  0  0  0
 42 66  1  0  0  0  0
 43 48  1  0  0  0  0
 43 66  1  0  0  0  0
 44 69  1  0  0  0  0
 45 65  1  0  0  0  0
 46 47  1  0  0  0  0
 46 56  1  0  0  0  0
 47 57  1  0  0  0  0
 48 64  1  0  0  0  0
 49 60  1  0  0  0  0
 50 61  1  0  0  0  0
 51 62  1  0  0  0  0
 52 62  1  0  0  0  0
 53 62  1  0  0  0  0
 54 71  1  0  0  0  0
 55 61  1  0  0  0  0
 56 58  1  0  0  0  0
 57 79  1  0  0  0  0
 58 72  1  0  0  0  0
 59 62  1  0  0  0  0
 59 70  1  0  0  0  0
 60 71  1  0  0  0  0
 61 72  1  0  0  0  0
 63 64  1  0  0  0  0
M  CHG  2  71   1  72   1
M  ISO  4  30 100  55 100  57 101  79 101
M  END
> <Batch ID>
0127

> <Smiles>
CNC(C)C(=O)NC(C(=O)N1Cc2cc([101O:1][101CH2:1]C3CCC3CCNC(C)[100CH2:0][100C:0](=O)N3CCCC(n4nc(-c5ccc(Oc6ccc(F)cc6F)cc5)c(C(N)=O)c4N)C3)ccc2CC1C(=O)NC1CCCc2ccccc21)C(C)(C)C

> <Shape>
0.226

> <Color>
0.056

> <Negative vol penalty>
0.000

$$$$

  -OEChem-04052320403D

 86 94  0     1  0  0  0  0  0999 V2000
  -33.0071  -19.1506   26.6128 C   0  0  0  0  0  0  0  0  0  0  0  0
  -31.9563  -20.0567   26.5115 C   0  0  0  0  0  0  0  0  0  0  0  0
  -31.0306  -27.5744   19.3376 C   0  0  0  0  0  0  0  0  0  0  0  0
  -30.7825  -26.8862   21.6401 C   0  0  0  0  0  0  0  0  0  0  0  0
  -33.3133  -18.3169   25.5381 C   0  0  0  0  0  0  0  0  0  0  0  0
  -31.2117  -20.1302   25.3348 C   0  0  0  0  0  0  0  0  0  0  0  0
  -24.5676  -21.4533   23.0062 C   0  0  0  0  0  0  0  0  0  0  0  0
  -32.3376  -27.9843   19.6010 C   0  0  0  0  0  0  0  0  0  0  0  0
  -32.0895  -27.2960   21.9035 C   0  0  0  0  0  0  0  0  0  0  0  0
  -23.8869  -22.2536   22.0897 C   0  0  0  0  0  0  0  0  0  0  0  0
  -35.8609  -28.8793   19.5807 C   0  0  0  0  0  0  0  0  0  0  0  0
  -36.8495  -28.5233   18.6634 C   0  0  0  0  0  0  0  0  0  0  0  0
  -24.4562  -20.7086   20.3267 C   0  0  0  0  0  0  0  0  0  0  0  0
  -36.3646  -26.1878   19.0473 C   0  0  0  0  0  0  0  0  0  0  0  0
  -30.2530  -27.0254   20.3572 C   0  0  0  0  0  0  0  0  0  0  0  0
  -28.4802  -25.3288   19.6599 C   0  0  0  0  0  0  0  0  0  0  0  0
  -32.5659  -18.3735   24.3512 C   0  0  0  0  0  0  0  0  0  0  0  0
  -25.2081  -20.2782   22.5871 C   0  0  0  0  0  0  0  0  0  0  0  0
  -31.5089  -19.2974   24.2427 C   0  0  0  0  0  0  0  0  0  0  0  0
  -25.1422  -19.8938   21.2403 C   0  0  0  0  0  0  0  0  0  0  0  0
  -32.8670  -27.8451   20.8839 C   0  0  0  0  0  0  0  0  0  0  0  0
  -23.8336  -21.8829   20.7493 C   0  0  0  0  0  0  0  0  0  0  0  0
  -35.1241  -27.8896   20.2314 C   0  0  0  0  0  0  0  0  0  0  0  0
  -37.1014  -27.1775   18.3967 C   0  0  0  0  0  0  0  0  0  0  0  0
  -35.3760  -26.5439   19.9647 C   0  0  0  0  0  0  0  0  0  0  0  0
  -28.9026  -26.6023   20.0859 C   0  0  0  0  0  0  0  0  0  0  0  0
  -27.1158  -25.4396   19.5469 C   0  0  0  0  0  0  0  0  0  0  0  0
  -29.2520  -24.1509   19.3905 C   0  0  0  0  0  0  0  0  0  0  0  0
  -28.2142  -19.2455   22.5709 C   0  0  0  0  0  0  0  0  0  0  0  0
  -26.8500  -16.4855   21.5493 C   0  0  0  0  0  0  0  0  0  0  0  0
  -24.2151  -14.9497   20.0179 C   0  0  0  0  0  0  0  0  0  0  0  0
  -23.2223  -28.9813   22.2213 C   0  0  0  0  0  0  0  0  0  0  0  0
  -32.9644  -17.4852   23.1993 C   0  0  0  0  0  0  0  0  0  0  0  0
  -25.9155  -19.4119   23.5928 C   0  0  0  0  0  0  0  0  0  0  0  0
  -25.7959  -18.6313   20.7431 C   0  0  0  0  0  0  0  0  0  0  0  0
  -31.8886  -17.3642   22.1230 C   0  0  0  0  0  0  0  0  0  0  0  0
  -20.4777  -30.7867   25.2969 C   0  0  0  0  0  0  0  0  0  0  0  0
  -19.3020  -30.8993   24.3263 C   0  0  0  0  0  0  0  0  0  0  0  0
  -23.6813  -28.6492   18.6469 C   0  0  0  0  0  0  0  0  0  0  0  0
  -31.3268  -18.7384   21.7729 C   0  0  0  0  0  0  0  0  0  0  0  0
  -25.0448  -27.9591   18.5781 C   0  0  0  0  0  0  0  0  0  0  0  0
  -21.6721  -30.3231   24.4653 C   0  0  0  0  0  0  0  0  0  0  0  0
  -19.8428  -30.4970   22.9555 C   0  0  0  0  0  0  0  0  0  0  0  0
  -23.6340  -29.6681   19.7817 C   0  0  0  0  0  0  0  0  0  0  0  0
  -25.3372  -28.4234   21.0558 C   0  0  0  0  0  0  0  0  0  0  0  0
  -30.6622  -19.3896   22.9918 C   0  0  1  0  0  0  0  0  0  0  0  0
  -26.9679  -18.5040   22.9640 C   0  0  1  0  0  0  0  0  0  0  0  0
  -25.4416  -27.3651   19.9426 C   0  0  2  0  0  0  0  0  0  0  0  0
  -21.0574  -29.6112   23.2550 C   0  0  0  0  0  0  0  0  0  0  0  0
  -23.4028  -12.6886   19.2932 C   0  0  0  0  0  0  0  0  0  0  0  0
  -28.7834  -16.5498   19.1897 C   0  0  0  0  0  0  0  0  0  0  0  0
  -27.3306  -14.8637   18.0431 C   0  0  0  0  0  0  0  0  0  0  0  0
  -28.4446  -14.2870   20.1994 C   0  0  0  0  0  0  0  0  0  0  0  0
  -21.8315  -15.1181   21.7641 C   0  0  0  0  0  0  0  0  0  0  0  0
  -20.6431  -28.1739   23.5913 C   0  0  0  0  0  0  0  0  0  0  0  0
  -19.9966  -27.4818   22.3920 C   0  0  0  0  0  0  0  0  0  0  0  0
  -18.1593  -23.3802   20.3934 C   0  0  0  0  0  0  0  0  0  0  0  0
  -19.6229  -26.0454   22.7265 C   0  0  0  0  0  0  0  0  0  0  0  0
  -18.6912  -23.9700   21.6952 C   0  0  0  0  0  0  0  0  0  0  0  0
  -19.0943  -23.4692   19.1918 C   0  0  0  0  0  0  0  0  0  0  0  0
  -21.3175  -22.7354   18.3215 C   0  0  0  0  0  0  0  0  0  0  0  0
  -22.5815  -22.0055   18.7311 C   0  0  0  0  0  0  0  0  0  1  0  0
  -26.4987  -15.9012   20.2024 C   0  0  1  0  0  0  0  0  0  0  0  0
  -23.3984  -13.7292   20.4023 C   0  0  2  0  0  0  0  0  0  0  0  0
  -27.7535  -15.4253   19.4173 C   0  0  0  0  0  0  0  0  0  0  0  0
  -27.8888  -27.4593   20.2333 N   0  0  0  0  0  0  0  0  0  0  0  0
  -26.8158  -26.7229   19.8980 N   0  0  0  0  0  0  0  0  0  0  0  0
  -26.4809  -17.8210   21.7638 N   0  0  0  0  0  0  0  0  0  0  0  0
  -24.0039  -29.0346   21.0553 N   0  0  0  0  0  0  0  0  0  0  0  0
  -26.1556  -24.5637   19.1823 N   0  0  0  0  0  0  0  0  0  0  0  0
  -30.6423  -24.2105   19.5574 N   0  0  0  0  0  0  0  0  0  0  0  0
  -29.3543  -18.8144   23.2219 N   0  0  0  0  0  0  0  0  0  0  0  0
  -25.5187  -14.8507   20.4562 N   0  0  0  0  0  0  0  0  0  0  0  0
  -21.9758  -29.5897   22.1397 N   0  0  0  0  0  0  0  0  0  0  0  0
  -21.9860  -14.1167   20.6777 N   0  3  0  0  0  0  0  0  0  0  0  0
  -19.0397  -25.3988   21.5182 N   0  3  0  0  0  0  0  0  0  0  0  0
  -20.3687  -22.7510   19.4633 N   0  3  0  0  0  0  0  0  0  0  0  0
  -28.7261  -23.0821   18.9972 O   0  0  0  0  0  0  0  0  0  0  0  0
  -28.1467  -20.1414   21.7376 O   0  0  0  0  0  0  0  0  0  0  0  0
  -27.4242  -15.7807   22.3831 O   0  0  0  0  0  0  0  0  0  0  0  0
  -23.7447  -15.8946   19.3882 O   0  0  0  0  0  0  0  0  0  0  0  0
  -23.6049  -28.4274   23.2576 O   0  0  0  0  0  0  0  0  0  0  0  0
  -34.1424  -28.2448   21.1412 O   0  0  0  0  0  0  0  0  0  0  0  0
  -23.1704  -22.6626   19.8526 O   0  0  0  0  0  0  0  0  0  1  0  0
  -38.0497  -26.8357   17.5146 F   0  0  0  0  0  0  0  0  0  0  0  0
  -34.6706  -25.5886   20.5858 F   0  0  0  0  0  0  0  0  0  0  0  0
  1  2  1  0  0  0  0
  1  5  2  0  0  0  0
  2  6  2  0  0  0  0
  3  8  2  0  0  0  0
  3 15  1  0  0  0  0
  4  9  1  0  0  0  0
  4 15  2  0  0  0  0
  5 17  1  0  0  0  0
  6 19  1  0  0  0  0
  7 10  2  0  0  0  0
  7 18  1  0  0  0  0
  8 21  1  0  0  0  0
  9 21  2  0  0  0  0
 10 22  1  0  0  0  0
 11 12  2  0  0  0  0
 11 23  1  0  0  0  0
 12 24  1  0  0  0  0
 13 20  1  0  0  0  0
 13 22  2  0  0  0  0
 14 24  2  0  0  0  0
 14 25  1  0  0  0  0
 15 26  1  0  0  0  0
 16 26  1  0  0  0  0
 16 27  2  0  0  0  0
 16 28  1  0  0  0  0
 17 19  2  0  0  0  0
 17 33  1  0  0  0  0
 18 20  2  0  0  0  0
 18 34  1  0  0  0  0
 19 46  1  0  0  0  0
 20 35  1  0  0  0  0
 21 83  1  0  0  0  0
 22 84  1  0  0  0  0
 23 25  2  0  0  0  0
 23 83  1  0  0  0  0
 24 85  1  0  0  0  0
 25 86  1  0  0  0  0
 26 66  2  0  0  0  0
 27 67  1  0  0  0  0
 27 70  1  0  0  0  0
 28 71  1  0  0  0  0
 28 78  2  0  0  0  0
 29 47  1  0  0  0  0
 29 72  1  0  0  0  0
 29 79  2  0  0  0  0
 30 63  1  0  0  0  0
 30 68  1  0  0  0  0
 30 80  2  0  0  0  0
 31 64  1  0  0  0  0
 31 73  1  0  0  0  0
 31 81  2  0  0  0  0
 32 69  1  0  0  0  0
 32 74  1  0  0  0  0
 32 82  2  0  0  0  0
 33 36  1  0  0  0  0
 34 47  1  0  0  0  0
 35 68  1  0  0  0  0
 36 40  1  0  0  0  0
 37 38  1  0  0  0  0
 37 42  1  0  0  0  0
 38 43  1  0  0  0  0
 39 41  1  0  0  0  0
 39 44  1  0  0  0  0
 40 46  1  0  0  0  0
 41 48  1  0  0  0  0
 42 49  1  0  0  0  0
 43 49  1  0  0  0  0
 44 69  1  0  0  0  0
 45 48  1  0  0  0  0
 45 69  1  0  0  0  0
 46 72  1  0  0  0  0
 47 68  1  0  0  0  0
 48 67  1  0  0  0  0
 49 55  1  0  0  0  0
 49 74  1  0  0  0  0
 50 64  1  0  0  0  0
 51 65  1  0  0  0  0
 52 65  1  0  0  0  0
 53 65  1  0  0  0  0
 54 75  1  0  0  0  0
 55 56  1  0  0  0  0
 56 58  1  0  0  0  0
 57 59  1  0  0  0  0
 57 60  1  0  0  0  0
 58 76  1  0  0  0  0
 59 76  1  0  0  0  0
 60 77  1  0  0  0  0
 61 62  1  0  0  0  0
 61 77  1  0  0  0  0
 62 84  1  0  0  0  0
 63 65  1  0  0  0  0
 63 73  1  0  0  0  0
 64 75  1  0  0  0  0
 66 67  1  0  0  0  0
M  CHG  3  75   1  76   1  77   1
M  ISO  4  32 100  62 101  74 100  84 101
M  END
> <Batch ID>
0127

> <Smiles>
CNC(C)C(=O)NC(C(=O)N1Cc2cc([101O:1][101CH2:1]CNCCCNCCCC3([100NH:0][100C:0](=O)N4CCCC(n5nc(-c6ccc(Oc7ccc(F)cc7F)cc6)c(C(N)=O)c5N)C4)CCCC3)ccc2CC1C(=O)NC1CCCc2ccccc21)C(C)(C)C

> <Shape>
0.190

> <Color>
0.072

> <Negative vol penalty>
0.000

$$$$

  -OEChem-04052320403D

 83 91  0     1  0  0  0  0  0999 V2000
  -30.0281  -21.9691   29.9488 C   0  0  0  0  0  0  0  0  0  0  0  0
  -30.5163  -21.8487   28.6517 C   0  0  0  0  0  0  0  0  0  0  0  0
  -23.0000   -9.9068   19.9667 C   0  0  0  0  0  0  0  0  0  0  0  0
  -23.8390   -9.8769   22.2321 C   0  0  0  0  0  0  0  0  0  0  0  0
  -28.7432  -22.4650   30.1656 C   0  0  0  0  0  0  0  0  0  0  0  0
  -29.7194  -22.2231   27.5704 C   0  0  0  0  0  0  0  0  0  0  0  0
  -32.2548  -24.9553   24.1423 C   0  0  0  0  0  0  0  0  0  0  0  0
  -22.2590   -8.7538   20.2259 C   0  0  0  0  0  0  0  0  0  0  0  0
  -23.0979   -8.7240   22.4914 C   0  0  0  0  0  0  0  0  0  0  0  0
  -33.0968  -24.2632   23.2729 C   0  0  0  0  0  0  0  0  0  0  0  0
  -23.3512   -5.4090   21.8771 C   0  0  0  0  0  0  0  0  0  0  0  0
  -23.9856   -4.3704   22.5586 C   0  0  0  0  0  0  0  0  0  0  0  0
  -31.4026  -24.3677   21.5588 C   0  0  0  0  0  0  0  0  0  0  0  0
  -22.3454   -4.5278   24.3255 C   0  0  0  0  0  0  0  0  0  0  0  0
  -29.7121  -18.3252   21.2932 C   0  0  0  0  0  0  0  0  0  0  0  0
  -23.7901  -10.4683   20.9698 C   0  0  0  0  0  0  0  0  0  0  0  0
  -24.1413  -12.9932   20.8739 C   0  0  0  0  0  0  0  0  0  0  0  0
  -27.9337  -22.8547   29.0870 C   0  0  0  0  0  0  0  0  0  0  0  0
  -30.9741  -25.3499   23.7294 C   0  0  0  0  0  0  0  0  0  0  0  0
  -28.4219  -22.7234   27.7729 C   0  0  0  0  0  0  0  0  0  0  0  0
  -30.5473  -25.0669   22.4241 C   0  0  0  0  0  0  0  0  0  0  0  0
  -22.3079   -8.1625   21.4883 C   0  0  0  0  0  0  0  0  0  0  0  0
  -32.6696  -23.9668   21.9819 C   0  0  0  0  0  0  0  0  0  0  0  0
  -22.2139   -6.0071   22.4198 C   0  0  0  0  0  0  0  0  0  0  0  0
  -23.4827   -3.9298   23.7827 C   0  0  0  0  0  0  0  0  0  0  0  0
  -21.7110   -5.5665   23.6440 C   0  0  0  0  0  0  0  0  0  0  0  0
  -24.5562  -11.6590   20.7025 C   0  0  0  0  0  0  0  0  0  0  0  0
  -25.2243  -13.7424   20.4836 C   0  0  0  0  0  0  0  0  0  0  0  0
  -30.4481  -17.2011   21.0451 C   0  0  0  0  0  0  0  0  0  0  0  0
  -31.8537  -18.8615   21.4552 C   0  0  0  0  0  0  0  0  0  0  0  0
  -22.8889  -13.5092   21.3440 C   0  0  0  0  0  0  0  0  0  0  0  0
  -28.0110  -24.6905   24.6721 C   0  0  0  0  0  0  0  0  0  0  0  0
  -27.2291  -26.9676   22.4983 C   0  0  0  0  0  0  0  0  0  0  0  0
  -28.0776  -28.6962   19.6807 C   0  0  0  0  0  0  0  0  0  0  0  0
  -30.6989  -14.7583   20.4832 C   0  0  0  0  0  0  0  0  0  0  0  0
  -26.5339  -23.3407   29.3683 C   0  0  0  0  0  0  0  0  0  0  0  0
  -30.0882  -26.1191   24.6706 C   0  0  0  0  0  0  0  0  0  0  0  0
  -29.1894  -25.4862   21.9254 C   0  0  0  0  0  0  0  0  0  0  0  0
  -25.8926  -24.0667   28.1885 C   0  0  0  0  0  0  0  0  0  0  0  0
  -29.4898  -12.3844   18.1209 C   0  0  0  0  0  0  0  0  0  0  0  0
  -26.1042  -23.2803   26.8988 C   0  0  0  0  0  0  0  0  0  0  0  0
  -28.0644  -12.0938   18.5960 C   0  0  0  0  0  0  0  0  0  0  0  0
  -30.4473  -12.5913   19.2931 C   0  0  0  0  0  0  0  0  0  0  0  0
  -28.5934  -13.3052   20.7500 C   0  0  0  0  0  0  0  0  0  0  0  0
  -27.5969  -23.1423   26.5754 C   0  0  1  0  0  0  0  0  0  0  0  0
  -28.6085  -26.0214   24.3125 C   0  0  1  0  0  0  0  0  0  0  0  0
  -27.5794  -13.1538   19.6044 C   0  0  2  0  0  0  0  0  0  0  0  0
  -30.3884  -21.0137   23.3376 C   0  0  0  0  0  0  0  0  0  0  0  0
  -27.2201  -30.4667   18.1226 C   0  0  0  0  0  0  0  0  0  0  0  0
  -35.2384  -21.7183   19.4098 C   0  0  0  0  0  0  0  0  0  0  0  0
  -25.3291  -24.9378   21.2414 C   0  0  0  0  0  0  0  0  0  0  0  0
  -25.2376  -26.3895   19.2037 C   0  0  0  0  0  0  0  0  0  0  0  0
  -24.4204  -27.2629   21.3927 C   0  0  0  0  0  0  0  0  0  0  0  0
  -30.3551  -30.4891   20.2783 C   0  0  0  0  0  0  0  0  0  0  0  0
  -33.1282  -19.6296   21.6550 C   0  0  0  0  0  0  0  0  0  0  0  0
  -30.2514  -20.7071   21.8562 C   0  0  0  0  0  0  0  0  0  0  0  0
  -34.4132  -22.3720   21.7129 C   0  0  0  0  0  0  0  0  0  1  0  0
  -26.9046  -26.9716   21.0239 C   0  0  1  0  0  0  0  0  0  0  0  0
  -28.0516  -30.1805   19.3634 C   0  0  2  0  0  0  0  0  0  0  0  0
  -34.6758  -21.2204   20.7414 C   0  0  1  0  0  0  0  0  0  0  0  0
  -25.4978  -26.3807   20.7252 C   0  0  0  0  0  0  0  0  0  0  0  0
  -25.8053  -11.5629   20.2392 N   0  0  0  0  0  0  0  0  0  0  0  0
  -30.6073  -19.3370   21.5443 N   0  0  0  0  0  0  0  0  0  0  0  0
  -26.1845  -12.8463   20.1161 N   0  0  0  0  0  0  0  0  0  0  0  0
  -31.7696  -17.5621   21.1518 N   0  3  0  0  0  0  0  0  0  0  0  0
  -28.3573  -26.2305   22.8852 N   0  0  0  0  0  0  0  0  0  0  0  0
  -29.9247  -13.6121   20.2040 N   0  0  0  0  0  0  0  0  0  0  0  0
  -25.4393  -15.0737   20.4223 N   0  0  0  0  0  0  0  0  0  0  0  0
  -21.8844  -12.6003   21.7033 N   0  0  0  0  0  0  0  0  0  0  0  0
  -29.9539  -15.9094   20.7371 N   0  0  0  0  0  0  0  0  0  0  0  0
  -28.1083  -24.3741   26.0137 N   0  0  0  0  0  0  0  0  0  0  0  0
  -27.0838  -28.3466   20.5703 N   0  0  0  0  0  0  0  0  0  0  0  0
  -33.4327  -20.4841   20.5177 N   0  0  0  0  0  0  0  0  0  0  0  0
  -29.4343  -30.6844   19.1289 N   0  3  0  0  0  0  0  0  0  0  0  0
  -22.6615  -14.7400   21.4270 O   0  0  0  0  0  0  0  0  0  0  0  0
  -27.4982  -24.0022   23.7974 O   0  0  0  0  0  0  0  0  0  0  0  0
  -26.5123  -27.6011   23.2770 O   0  0  0  0  0  0  0  0  0  0  0  0
  -28.8952  -27.9235   19.1857 O   0  0  0  0  0  0  0  0  0  0  0  0
  -31.9321  -14.7276   20.4693 O   0  0  0  0  0  0  0  0  0  0  0  0
  -21.5847   -7.0376   21.7416 O   0  0  0  0  0  0  0  0  0  0  0  0
  -33.4891  -23.2908   21.1314 O   0  0  0  0  0  0  0  0  0  1  0  0
  -24.0912   -2.9314   24.4363 F   0  0  0  0  0  0  0  0  0  0  0  0
  -20.6180   -6.1364   24.1698 F   0  0  0  0  0  0  0  0  0  0  0  0
  1  2  1  0  0  0  0
  1  5  2  0  0  0  0
  2  6  2  0  0  0  0
  3  8  2  0  0  0  0
  3 16  1  0  0  0  0
  4  9  1  0  0  0  0
  4 16  2  0  0  0  0
  5 18  1  0  0  0  0
  6 20  1  0  0  0  0
  7 10  2  0  0  0  0
  7 19  1  0  0  0  0
  8 22  1  0  0  0  0
  9 22  2  0  0  0  0
 10 23  1  0  0  0  0
 11 12  2  0  0  0  0
 11 24  1  0  0  0  0
 12 25  1  0  0  0  0
 13 21  1  0  0  0  0
 13 23  2  0  0  0  0
 14 25  2  0  0  0  0
 14 26  1  0  0  0  0
 15 29  2  0  0  0  0
 15 63  1  0  0  0  0
 16 27  1  0  0  0  0
 17 27  1  0  0  0  0
 17 28  2  0  0  0  0
 17 31  1  0  0  0  0
 18 20  2  0  0  0  0
 18 36  1  0  0  0  0
 19 21  2  0  0  0  0
 19 37  1  0  0  0  0
 20 45  1  0  0  0  0
 21 38  1  0  0  0  0
 22 80  1  0  0  0  0
 23 81  1  0  0  0  0
 24 26  2  0  0  0  0
 24 80  1  0  0  0  0
 25 82  1  0  0  0  0
 26 83  1  0  0  0  0
 27 62  2  0  0  0  0
 28 64  1  0  0  0  0
 28 68  1  0  0  0  0
 29 65  1  0  0  0  0
 29 70  1  0  0  0  0
 30 55  1  0  0  0  0
 30 63  1  0  0  0  0
 30 65  2  0  0  0  0
 31 69  1  0  0  0  0
 31 75  2  0  0  0  0
 32 46  1  0  0  0  0
 32 71  1  0  0  0  0
 32 76  2  0  0  0  0
 33 58  1  0  0  0  0
 33 66  1  0  0  0  0
 33 77  2  0  0  0  0
 34 59  1  0  0  0  0
 34 72  1  0  0  0  0
 34 78  2  0  0  0  0
 35 67  1  0  0  0  0
 35 70  1  0  0  0  0
 35 79  2  0  0  0  0
 36 39  1  0  0  0  0
 37 46  1  0  0  0  0
 38 66  1  0  0  0  0
 39 41  1  0  0  0  0
 40 42  1  0  0  0  0
 40 43  1  0  0  0  0
 41 45  1  0  0  0  0
 42 47  1  0  0  0  0
 43 67  1  0  0  0  0
 44 47  1  0  0  0  0
 44 67  1  0  0  0  0
 45 71  1  0  0  0  0
 46 66  1  0  0  0  0
 47 64  1  0  0  0  0
 48 56  1  0  0  0  0
 49 59  1  0  0  0  0
 50 60  1  0  0  0  0
 51 61  1  0  0  0  0
 52 61  1  0  0  0  0
 53 61  1  0  0  0  0
 54 74  1  0  0  0  0
 55 73  1  0  0  0  0
 56 63  1  0  0  0  0
 57 60  1  0  0  0  0
 57 81  1  0  0  0  0
 58 61  1  0  0  0  0
 58 72  1  0  0  0  0
 59 74  1  0  0  0  0
 60 73  1  0  0  0  0
 62 64  1  0  0  0  0
M  CHG  2  65   1  74   1
M  ISO  4  35 100  57 101  70 100  81 101
M  END
> <Batch ID>
0127

> <Smiles>
CCn1cc([100NH:0][100C:0](=O)N2CCCC(n3nc(-c4ccc(Oc5ccc(F)cc5F)cc4)c(C(N)=O)c3N)C2)nc1CNC(C)[101CH2:1][101O:1]c1ccc2c(c1)CN(C(=O)C(NC(=O)C(C)NC)C(C)(C)C)C(C(=O)NC1CCCc3ccccc31)C2

> <Shape>
0.216

> <Color>
0.185

> <Negative vol penalty>
0.000

$$$$

  -OEChem-04052320403D

 82 90  0     1  0  0  0  0  0999 V2000
  -30.1064  -34.8366   18.3019 C   0  0  0  0  0  0  0  0  0  0  0  0
  -30.1272  -33.5977   17.6694 C   0  0  0  0  0  0  0  0  0  0  0  0
  -24.0429  -10.6923   23.4144 C   0  0  0  0  0  0  0  0  0  0  0  0
  -24.1697  -12.9357   24.3023 C   0  0  0  0  0  0  0  0  0  0  0  0
  -29.8979  -34.9119   19.6784 C   0  0  0  0  0  0  0  0  0  0  0  0
  -29.9405  -32.4331   18.4134 C   0  0  0  0  0  0  0  0  0  0  0  0
  -27.1386  -25.8613   17.8876 C   0  0  0  0  0  0  0  0  0  0  0  0
  -23.5527  -10.2358   24.6378 C   0  0  0  0  0  0  0  0  0  0  0  0
  -23.6794  -12.4791   25.5258 C   0  0  0  0  0  0  0  0  0  0  0  0
  -27.4804  -24.5252   18.0918 C   0  0  0  0  0  0  0  0  0  0  0  0
  -20.6050  -10.2293   26.2942 C   0  0  0  0  0  0  0  0  0  0  0  0
  -19.5137   -9.3608   26.2720 C   0  0  0  0  0  0  0  0  0  0  0  0
  -27.0497  -24.7819   20.4514 C   0  0  0  0  0  0  0  0  0  0  0  0
  -20.8326   -7.6748   27.3921 C   0  0  0  0  0  0  0  0  0  0  0  0
  -24.3514  -12.0423   23.2466 C   0  0  0  0  0  0  0  0  0  0  0  0
  -24.1087  -12.9895   20.8904 C   0  0  0  0  0  0  0  0  0  0  0  0
  -29.6990  -33.7483   20.4381 C   0  0  0  0  0  0  0  0  0  0  0  0
  -26.7596  -26.6720   18.9672 C   0  0  0  0  0  0  0  0  0  0  0  0
  -29.7305  -32.4929   19.8016 C   0  0  0  0  0  0  0  0  0  0  0  0
  -26.7011  -26.1273   20.2579 C   0  0  0  0  0  0  0  0  0  0  0  0
  -23.3710  -11.1291   25.6935 C   0  0  0  0  0  0  0  0  0  0  0  0
  -27.4388  -23.9860   19.3743 C   0  0  0  0  0  0  0  0  0  0  0  0
  -21.8101   -9.8204   26.8654 C   0  0  0  0  0  0  0  0  0  0  0  0
  -19.6275   -8.0836   26.8209 C   0  0  0  0  0  0  0  0  0  0  0  0
  -21.9239   -8.5432   27.4144 C   0  0  0  0  0  0  0  0  0  0  0  0
  -24.8584  -12.5144   21.9832 C   0  0  0  0  0  0  0  0  0  0  0  0
  -25.0494  -13.3122   19.9431 C   0  0  0  0  0  0  0  0  0  0  0  0
  -22.6890  -13.1269   20.7448 C   0  0  0  0  0  0  0  0  0  0  0  0
  -27.9188  -29.3121   20.3051 C   0  0  0  0  0  0  0  0  0  0  0  0
  -25.2015  -29.1440   22.0687 C   0  0  0  0  0  0  0  0  0  0  0  0
  -22.6821  -27.2198   23.3323 C   0  0  0  0  0  0  0  0  0  0  0  0
  -30.8282  -14.8408   20.2903 C   0  0  0  0  0  0  0  0  0  0  0  0
  -29.5245  -33.8769   21.9307 C   0  0  0  0  0  0  0  0  0  0  0  0
  -26.3681  -28.1042   18.7264 C   0  0  0  0  0  0  0  0  0  0  0  0
  -26.2813  -26.9500   21.4476 C   0  0  0  0  0  0  0  0  0  0  0  0
  -28.9616  -32.6197   22.5886 C   0  0  0  0  0  0  0  0  0  0  0  0
  -29.4403  -12.1158   18.4668 C   0  0  0  0  0  0  0  0  0  0  0  0
  -29.6924  -31.3798   22.0831 C   0  0  0  0  0  0  0  0  0  0  0  0
  -29.9148  -20.7764   22.0004 C   0  0  0  0  0  0  0  0  0  0  0  0
  -30.8230  -19.5566   21.8580 C   0  0  0  0  0  0  0  0  0  0  0  0
  -28.0410  -11.9519   19.0626 C   0  0  0  0  0  0  0  0  0  0  0  0
  -28.5187  -19.9698   20.0593 C   0  0  0  0  0  0  0  0  0  0  0  0
  -30.4633  -12.5118   19.5292 C   0  0  0  0  0  0  0  0  0  0  0  0
  -28.7047  -13.5390   20.9171 C   0  0  0  0  0  0  0  0  0  0  0  0
  -29.5073  -31.2087   20.5705 C   0  0  1  0  0  0  0  0  0  0  0  0
  -26.4927  -28.9753   19.9726 C   0  0  1  0  0  0  0  0  0  0  0  0
  -29.2706  -21.1632   20.6640 C   0  0  1  0  0  0  0  0  0  0  0  0
  -30.0799  -18.3530   21.2540 C   0  0  1  0  0  0  0  0  0  0  0  0
  -27.6279  -13.1946   19.8740 C   0  0  2  0  0  0  0  0  0  0  0  0
  -29.4359  -18.7533   19.9146 C   0  0  1  0  0  0  0  0  0  0  0  0
  -27.5514  -16.5032   17.4884 C   0  0  0  0  0  0  0  0  0  0  0  0
  -20.6288  -27.3575   24.7684 C   0  0  0  0  0  0  0  0  0  0  0  0
  -26.9570  -29.3018   24.5593 C   0  0  0  0  0  0  0  0  0  0  0  0
  -25.0052  -28.4911   25.9014 C   0  0  0  0  0  0  0  0  0  0  0  0
  -24.8589  -30.6580   24.6742 C   0  0  0  0  0  0  0  0  0  0  0  0
  -20.9339  -26.3171   21.1214 C   0  0  0  0  0  0  0  0  0  0  0  0
  -31.0433  -17.1710   21.1166 C   0  0  0  0  0  0  0  0  0  0  0  0
  -28.3434  -22.3466   20.8405 C   0  0  0  0  0  0  0  0  0  1  0  0
  -28.3557  -17.7105   17.9185 C   0  0  0  0  0  0  0  0  0  0  0  0
  -24.8121  -28.4909   23.3729 C   0  0  1  0  0  0  0  0  0  0  0  0
  -21.1769  -27.4163   23.3511 C   0  0  2  0  0  0  0  0  0  0  0  0
  -25.4181  -29.2202   24.6050 C   0  0  0  0  0  0  0  0  0  0  0  0
  -26.1739  -12.5319   21.7526 N   0  0  0  0  0  0  0  0  0  0  0  0
  -26.2582  -13.0218   20.5040 N   0  0  0  0  0  0  0  0  0  0  0  0
  -25.9140  -28.3468   21.1618 N   0  0  0  0  0  0  0  0  0  0  0  0
  -30.0123  -13.6978   20.2614 N   0  0  0  0  0  0  0  0  0  0  0  0
  -24.9522  -13.8132   18.6933 N   0  0  0  0  0  0  0  0  0  0  0  0
  -21.8678  -12.7487   21.8157 N   0  0  0  0  0  0  0  0  0  0  0  0
  -28.1979  -30.6653   20.2798 N   0  0  0  0  0  0  0  0  0  0  0  0
  -23.3548  -28.4226   23.3761 N   0  0  0  0  0  0  0  0  0  0  0  0
  -30.3230  -15.9226   21.0011 N   0  0  0  0  0  0  0  0  0  0  0  0
  -28.6233  -17.6257   19.3774 N   0  3  0  0  0  0  0  0  0  0  0  0
  -20.5063  -26.3584   22.5436 N   0  3  0  0  0  0  0  0  0  0  0  0
  -22.1634  -13.5565   19.6900 O   0  0  0  0  0  0  0  0  0  0  0  0
  -28.7071  -28.4112   20.5667 O   0  0  0  0  0  0  0  0  0  0  0  0
  -24.8789  -30.3161   21.8594 O   0  0  0  0  0  0  0  0  0  0  0  0
  -23.2084  -26.1100   23.2874 O   0  0  0  0  0  0  0  0  0  0  0  0
  -31.9231  -14.8951   19.7201 O   0  0  0  0  0  0  0  0  0  0  0  0
  -22.8924  -10.6840   26.8874 O   0  0  0  0  0  0  0  0  0  0  0  0
  -27.7726  -22.6824   19.5765 O   0  0  0  0  0  0  0  0  0  1  0  0
  -18.5789   -7.2503   26.8009 F   0  0  0  0  0  0  0  0  0  0  0  0
  -23.0787   -8.1452   27.9655 F   0  0  0  0  0  0  0  0  0  0  0  0
  1  2  1  0  0  0  0
  1  5  2  0  0  0  0
  2  6  2  0  0  0  0
  3  8  2  0  0  0  0
  3 15  1  0  0  0  0
  4  9  1  0  0  0  0
  4 15  2  0  0  0  0
  5 17  1  0  0  0  0
  6 19  1  0  0  0  0
  7 10  2  0  0  0  0
  7 18  1  0  0  0  0
  8 21  1  0  0  0  0
  9 21  2  0  0  0  0
 10 22  1  0  0  0  0
 11 12  2  0  0  0  0
 11 23  1  0  0  0  0
 12 24  1  0  0  0  0
 13 20  1  0  0  0  0
 13 22  2  0  0  0  0
 14 24  2  0  0  0  0
 14 25  1  0  0  0  0
 15 26  1  0  0  0  0
 16 26  1  0  0  0  0
 16 27  2  0  0  0  0
 16 28  1  0  0  0  0
 17 19  2  0  0  0  0
 17 33  1  0  0  0  0
 18 20  2  0  0  0  0
 18 34  1  0  0  0  0
 19 45  1  0  0  0  0
 20 35  1  0  0  0  0
 21 79  1  0  0  0  0
 22 80  1  0  0  0  0
 23 25  2  0  0  0  0
 23 79  1  0  0  0  0
 24 81  1  0  0  0  0
 25 82  1  0  0  0  0
 26 63  2  0  0  0  0
 27 64  1  0  0  0  0
 27 67  1  0  0  0  0
 28 68  1  0  0  0  0
 28 74  2  0  0  0  0
 29 46  1  0  0  0  0
 29 69  1  0  0  0  0
 29 75  2  0  0  0  0
 30 60  1  0  0  0  0
 30 65  1  0  0  0  0
 30 76  2  0  0  0  0
 31 61  1  0  0  0  0
 31 70  1  0  0  0  0
 31 77  2  0  0  0  0
 32 66  1  0  0  0  0
 32 71  1  0  0  0  0
 32 78  2  0  0  0  0
 33 36  1  0  0  0  0
 34 46  1  0  0  0  0
 35 65  1  0  0  0  0
 36 38  1  0  0  0  0
 37 41  1  0  0  0  0
 37 43  1  0  0  0  0
 38 45  1  0  0  0  0
 39 40  1  0  0  0  0
 39 47  1  0  0  0  0
 40 48  1  0  0  0  0
 41 49  1  0  0  0  0
 42 47  1  0  0  0  0
 42 50  1  0  0  0  0
 43 66  1  0  0  0  0
 44 49  1  0  0  0  0
 44 66  1  0  0  0  0
 45 69  1  0  0  0  0
 46 65  1  0  0  0  0
 47 58  1  0  0  0  0
 48 50  1  0  0  0  0
 48 57  1  0  0  0  0
 49 64  1  0  0  0  0
 50 72  1  0  0  0  0
 51 59  1  0  0  0  0
 52 61  1  0  0  0  0
 53 62  1  0  0  0  0
 54 62  1  0  0  0  0
 55 62  1  0  0  0  0
 56 73  1  0  0  0  0
 57 71  1  0  0  0  0
 58 80  1  0  0  0  0
 59 72  1  0  0  0  0
 60 62  1  0  0  0  0
 60 70  1  0  0  0  0
 61 73  1  0  0  0  0
 63 64  1  0  0  0  0
M  CHG  2  72   1  73   1
M  ISO  4  32 100  58 101  71 100  80 101
M  END
> <Batch ID>
0127

> <Smiles>
CCNC1CC([101CH2:1][101O:1]c2ccc3c(c2)CN(C(=O)C(NC(=O)C(C)NC)C(C)(C)C)C(C(=O)NC2CCCc4ccccc42)C3)CCC1C[100NH:0][100C:0](=O)N1CCCC(n2nc(-c3ccc(Oc4ccc(F)cc4F)cc3)c(C(N)=O)c2N)C1

> <Shape>
0.241

> <Color>
0.088

> <Negative vol penalty>
0.000

$$$$

  -OEChem-04052320403D

 79 87  0     1  0  0  0  0  0999 V2000
  -22.6450  -11.0915   18.8378 C   0  0  0  0  0  0  0  0  0  0  0  0
  -22.1615  -12.3950   18.8892 C   0  0  0  0  0  0  0  0  0  0  0  0
  -29.4827  -28.2036   21.1244 C   0  0  0  0  0  0  0  0  0  0  0  0
  -28.5815  -25.9834   21.4342 C   0  0  0  0  0  0  0  0  0  0  0  0
  -23.8307  -10.7627   19.4935 C   0  0  0  0  0  0  0  0  0  0  0  0
  -22.8629  -13.3702   19.5973 C   0  0  0  0  0  0  0  0  0  0  0  0
  -23.3679  -19.3051   18.1733 C   0  0  0  0  0  0  0  0  0  0  0  0
  -30.7046  -27.7805   21.6472 C   0  0  0  0  0  0  0  0  0  0  0  0
  -29.8035  -25.5604   21.9570 C   0  0  0  0  0  0  0  0  0  0  0  0
  -22.6971  -20.4393   18.6286 C   0  0  0  0  0  0  0  0  0  0  0  0
  -31.4681  -25.7808   24.8915 C   0  0  0  0  0  0  0  0  0  0  0  0
  -31.4433  -25.0033   26.0493 C   0  0  0  0  0  0  0  0  0  0  0  0
  -24.4771  -20.8526   20.2033 C   0  0  0  0  0  0  0  0  0  0  0  0
  -32.5485  -23.2088   24.8679 C   0  0  0  0  0  0  0  0  0  0  0  0
  -20.7774  -25.1795   19.5116 C   0  0  0  0  0  0  0  0  0  0  0  0
  -20.2189  -24.0461   21.3112 C   0  0  0  0  0  0  0  0  0  0  0  0
  -28.4210  -27.3050   21.0179 C   0  0  0  0  0  0  0  0  0  0  0  0
  -26.7558  -27.7166   19.1297 C   0  0  0  0  0  0  0  0  0  0  0  0
  -24.5520  -11.7365   20.2020 C   0  0  0  0  0  0  0  0  0  0  0  0
  -24.5952  -18.9293   18.7381 C   0  0  0  0  0  0  0  0  0  0  0  0
  -24.0587  -13.0538   20.2643 C   0  0  0  0  0  0  0  0  0  0  0  0
  -25.1628  -19.7146   19.7517 C   0  0  0  0  0  0  0  0  0  0  0  0
  -20.8052  -23.8914   20.0788 C   0  0  0  0  0  0  0  0  0  0  0  0
  -30.8651  -26.4589   22.0634 C   0  0  0  0  0  0  0  0  0  0  0  0
  -23.2503  -21.2116   19.6457 C   0  0  0  0  0  0  0  0  0  0  0  0
  -32.0330  -25.2723   23.7218 C   0  0  0  0  0  0  0  0  0  0  0  0
  -31.9835  -23.7173   26.0375 C   0  0  0  0  0  0  0  0  0  0  0  0
  -32.5732  -23.9863   23.7100 C   0  0  0  0  0  0  0  0  0  0  0  0
  -27.1583  -27.7416   20.4785 C   0  0  0  0  0  0  0  0  0  0  0  0
  -25.4834  -28.2337   19.1415 C   0  0  0  0  0  0  0  0  0  0  0  0
  -27.4683  -27.2660   17.9700 C   0  0  0  0  0  0  0  0  0  0  0  0
  -25.6458  -16.3898   20.3352 C   0  0  0  0  0  0  0  0  0  0  0  0
  -28.5093  -17.8892   20.0632 C   0  0  0  0  0  0  0  0  0  0  0  0
  -30.2208  -20.8100   19.6308 C   0  0  0  0  0  0  0  0  0  0  0  0
  -21.2413  -28.5305   23.3566 C   0  0  0  0  0  0  0  0  0  0  0  0
  -25.8039  -11.3229   20.9344 C   0  0  0  0  0  0  0  0  0  0  0  0
  -25.3192  -17.7181   18.2174 C   0  0  0  0  0  0  0  0  0  0  0  0
  -26.4877  -19.3656   20.3772 C   0  0  0  0  0  0  0  0  0  0  0  0
  -26.6832  -12.4994   21.3503 C   0  0  0  0  0  0  0  0  0  0  0  0
  -22.6924  -31.2561   21.5840 C   0  0  0  0  0  0  0  0  0  0  0  0
  -25.8390  -13.5964   21.9911 C   0  0  0  0  0  0  0  0  0  0  0  0
  -23.9651  -30.6622   20.9780 C   0  0  0  0  0  0  0  0  0  0  0  0
  -22.4062  -30.6822   22.9699 C   0  0  0  0  0  0  0  0  0  0  0  0
  -23.6341  -28.6155   22.4271 C   0  0  0  0  0  0  0  0  0  0  0  0
  -24.8040  -14.1451   21.0014 C   0  0  1  0  0  0  0  0  0  0  0  0
  -26.3148  -17.1406   19.2188 C   0  0  1  0  0  0  0  0  0  0  0  0
  -23.9338  -29.1222   21.0060 C   0  0  2  0  0  0  0  0  0  0  0  0
  -32.5537  -21.7238   19.4898 C   0  0  0  0  0  0  0  0  0  0  0  0
  -28.7904  -17.6319   23.0905 C   0  0  0  0  0  0  0  0  0  0  0  0
  -30.6073  -19.3520   22.9981 C   0  0  0  0  0  0  0  0  0  0  0  0
  -30.8877  -17.1788   21.8058 C   0  0  0  0  0  0  0  0  0  0  0  0
  -29.7908  -21.8002   16.8751 C   0  0  0  0  0  0  0  0  0  0  0  0
  -21.3496  -22.6307   19.4741 C   0  0  0  0  0  0  0  0  0  1  0  0
  -19.2449  -26.0113   22.5229 C   0  0  0  0  0  0  0  0  0  0  0  0
  -20.2025  -26.2994   23.6762 C   0  0  0  0  0  0  0  0  0  0  0  0
  -29.2723  -18.8951   20.8909 C   0  0  1  0  0  0  0  0  0  0  0  0
  -31.3690  -21.1776   18.7083 C   0  0  2  0  0  0  0  0  0  0  0  0
  -29.8635  -18.2702   22.1861 C   0  0  0  0  0  0  0  0  0  0  0  0
  -20.2176  -26.0858   20.3175 N   0  0  0  0  0  0  0  0  0  0  0  0
  -26.2179  -28.2358   21.2881 N   0  0  0  0  0  0  0  0  0  0  0  0
  -19.8882  -25.3661   21.4035 N   0  0  0  0  0  0  0  0  0  0  0  0
  -25.2119  -28.5261   20.4457 N   0  0  0  0  0  0  0  0  0  0  0  0
  -27.1539  -18.1685   19.8382 N   0  0  0  0  0  0  0  0  0  0  0  0
  -22.3884  -29.2181   22.9272 N   0  0  0  0  0  0  0  0  0  0  0  0
  -24.5817  -28.4625   18.1633 N   0  0  0  0  0  0  0  0  0  0  0  0
  -28.7659  -26.7633   18.1365 N   0  0  0  0  0  0  0  0  0  0  0  0
  -25.4320  -15.0517   20.0643 N   0  0  0  0  0  0  0  0  0  0  0  0
  -30.2689  -19.4830   20.0023 N   0  0  0  0  0  0  0  0  0  0  0  0
  -21.3056  -27.1447   23.2772 N   0  0  0  0  0  0  0  0  0  0  0  0
  -30.9349  -22.2129   17.7282 N   0  3  0  0  0  0  0  0  0  0  0  0
  -26.9752  -27.3232   16.8180 O   0  0  0  0  0  0  0  0  0  0  0  0
  -25.3471  -16.9803   21.3665 O   0  0  0  0  0  0  0  0  0  0  0  0
  -29.0962  -16.8961   19.6261 O   0  0  0  0  0  0  0  0  0  0  0  0
  -29.3687  -21.6200   19.9891 O   0  0  0  0  0  0  0  0  0  0  0  0
  -20.2324  -29.1089   23.7744 O   0  0  0  0  0  0  0  0  0  0  0  0
  -32.0575  -26.0457   22.5734 O   0  0  0  0  0  0  0  0  0  0  0  0
  -22.5973  -22.3188   20.0924 O   0  0  0  0  0  0  0  0  0  1  0  0
  -31.9611  -22.9714   27.1498 F   0  0  0  0  0  0  0  0  0  0  0  0
  -33.1183  -23.4928   22.5897 F   0  0  0  0  0  0  0  0  0  0  0  0
  1  2  1  0  0  0  0
  1  5  2  0  0  0  0
  2  6  2  0  0  0  0
  3  8  2  0  0  0  0
  3 17  1  0  0  0  0
  4  9  1  0  0  0  0
  4 17  2  0  0  0  0
  5 19  1  0  0  0  0
  6 21  1  0  0  0  0
  7 10  2  0  0  0  0
  7 20  1  0  0  0  0
  8 24  1  0  0  0  0
  9 24  2  0  0  0  0
 10 25  1  0  0  0  0
 11 12  2  0  0  0  0
 11 26  1  0  0  0  0
 12 27  1  0  0  0  0
 13 22  1  0  0  0  0
 13 25  2  0  0  0  0
 14 27  2  0  0  0  0
 14 28  1  0  0  0  0
 15 23  1  0  0  0  0
 15 59  2  0  0  0  0
 16 23  2  0  0  0  0
 16 61  1  0  0  0  0
 17 29  1  0  0  0  0
 18 29  1  0  0  0  0
 18 30  2  0  0  0  0
 18 31  1  0  0  0  0
 19 21  2  0  0  0  0
 19 36  1  0  0  0  0
 20 22  2  0  0  0  0
 20 37  1  0  0  0  0
 21 45  1  0  0  0  0
 22 38  1  0  0  0  0
 23 53  1  0  0  0  0
 24 76  1  0  0  0  0
 25 77  1  0  0  0  0
 26 28  2  0  0  0  0
 26 76  1  0  0  0  0
 27 78  1  0  0  0  0
 28 79  1  0  0  0  0
 29 60  2  0  0  0  0
 30 62  1  0  0  0  0
 30 65  1  0  0  0  0
 31 66  1  0  0  0  0
 31 71  2  0  0  0  0
 32 46  1  0  0  0  0
 32 67  1  0  0  0  0
 32 72  2  0  0  0  0
 33 56  1  0  0  0  0
 33 63  1  0  0  0  0
 33 73  2  0  0  0  0
 34 57  1  0  0  0  0
 34 68  1  0  0  0  0
 34 74  2  0  0  0  0
 35 64  1  0  0  0  0
 35 69  1  0  0  0  0
 35 75  2  0  0  0  0
 36 39  1  0  0  0  0
 37 46  1  0  0  0  0
 38 63  1  0  0  0  0
 39 41  1  0  0  0  0
 40 42  1  0  0  0  0
 40 43  1  0  0  0  0
 41 45  1  0  0  0  0
 42 47  1  0  0  0  0
 43 64  1  0  0  0  0
 44 47  1  0  0  0  0
 44 64  1  0  0  0  0
 45 67  1  0  0  0  0
 46 63  1  0  0  0  0
 47 62  1  0  0  0  0
 48 57  1  0  0  0  0
 49 58  1  0  0  0  0
 50 58  1  0  0  0  0
 51 58  1  0  0  0  0
 52 70  1  0  0  0  0
 53 77  1  0  0  0  0
 54 55  1  0  0  0  0
 54 61  1  0  0  0  0
 55 69  1  0  0  0  0
 56 58  1  0  0  0  0
 56 68  1  0  0  0  0
 57 70  1  0  0  0  0
 59 61  1  0  0  0  0
 60 62  1  0  0  0  0
M  CHG  1  70   1
M  ISO  4  35 100  53 101  69 100  77 101
M  END
> <Batch ID>
0127

> <Smiles>
CNC(C)C(=O)NC(C(=O)N1Cc2cc([101O:1][101CH2:1]c3cnn(CC[100NH:0][100C:0](=O)N4CCCC(n5nc(-c6ccc(Oc7ccc(F)cc7F)cc6)c(C(N)=O)c5N)C4)c3)ccc2CC1C(=O)NC1CCCc2ccccc21)C(C)(C)C

> <Shape>
0.219

> <Color>
0.061

> <Negative vol penalty>
0.000

$$$$

  -OEChem-04052320403D

 82 90  0     1  0  0  0  0  0999 V2000
  -28.3825  -16.0164   13.4760 C   0  0  0  0  0  0  0  0  0  0  0  0
  -28.2267  -16.1378   14.8531 C   0  0  0  0  0  0  0  0  0  0  0  0
  -23.0909   -9.8980   19.9758 C   0  0  0  0  0  0  0  0  0  0  0  0
  -23.5029  -10.0812   22.3493 C   0  0  0  0  0  0  0  0  0  0  0  0
  -29.1018  -16.9793   12.7694 C   0  0  0  0  0  0  0  0  0  0  0  0
  -28.7912  -17.2217   15.5246 C   0  0  0  0  0  0  0  0  0  0  0  0
  -26.4924  -20.1380   20.3945 C   0  0  0  0  0  0  0  0  0  0  0  0
  -22.2706   -8.7931   20.2034 C   0  0  0  0  0  0  0  0  0  0  0  0
  -22.6826   -8.9763   22.5770 C   0  0  0  0  0  0  0  0  0  0  0  0
  -26.7581  -20.0379   21.7595 C   0  0  0  0  0  0  0  0  0  0  0  0
  -20.9852   -5.9847   23.7516 C   0  0  0  0  0  0  0  0  0  0  0  0
  -21.4423   -5.0095   24.6378 C   0  0  0  0  0  0  0  0  0  0  0  0
  -28.2838  -21.8990   21.5929 C   0  0  0  0  0  0  0  0  0  0  0  0
  -23.3705   -4.6350   23.2310 C   0  0  0  0  0  0  0  0  0  0  0  0
  -23.7071  -10.5420   21.0488 C   0  0  0  0  0  0  0  0  0  0  0  0
  -24.1684  -13.0362   20.7771 C   0  0  0  0  0  0  0  0  0  0  0  0
  -29.6672  -18.0807   13.4312 C   0  0  0  0  0  0  0  0  0  0  0  0
  -27.1297  -21.1141   19.6151 C   0  0  0  0  0  0  0  0  0  0  0  0
  -29.5199  -18.1996   14.8264 C   0  0  0  0  0  0  0  0  0  0  0  0
  -28.0225  -22.0111   20.2188 C   0  0  0  0  0  0  0  0  0  0  0  0
  -22.0664   -8.3322   21.5040 C   0  0  0  0  0  0  0  0  0  0  0  0
  -27.6560  -20.9165   22.3583 C   0  0  0  0  0  0  0  0  0  0  0  0
  -21.7206   -6.2851   22.6050 C   0  0  0  0  0  0  0  0  0  0  0  0
  -22.6350   -4.3346   24.3775 C   0  0  0  0  0  0  0  0  0  0  0  0
  -22.9133   -5.6103   22.3447 C   0  0  0  0  0  0  0  0  0  0  0  0
  -24.5551  -11.6831   20.8142 C   0  0  0  0  0  0  0  0  0  0  0  0
  -25.3327  -13.7192   20.5232 C   0  0  0  0  0  0  0  0  0  0  0  0
  -22.8727  -13.6233   20.9563 C   0  0  0  0  0  0  0  0  0  0  0  0
  -29.1124  -21.0586   17.1312 C   0  0  0  0  0  0  0  0  0  0  0  0
  -28.6678  -24.2711   17.2015 C   0  0  0  0  0  0  0  0  0  0  0  0
  -27.8282  -27.0409   19.0098 C   0  0  0  0  0  0  0  0  0  0  0  0
  -31.1014  -12.4492   21.5031 C   0  0  0  0  0  0  0  0  0  0  0  0
  -30.4764  -19.0710   12.6316 C   0  0  0  0  0  0  0  0  0  0  0  0
  -26.8121  -21.2262   18.1492 C   0  0  0  0  0  0  0  0  0  0  0  0
  -28.7176  -23.0897   19.4302 C   0  0  0  0  0  0  0  0  0  0  0  0
  -30.7248  -20.3870   13.3641 C   0  0  0  0  0  0  0  0  0  0  0  0
  -29.5786  -13.2131   18.3767 C   0  0  0  0  0  0  0  0  0  0  0  0
  -31.1763  -20.1235   14.7971 C   0  0  0  0  0  0  0  0  0  0  0  0
  -28.0836  -13.0297   18.6436 C   0  0  0  0  0  0  0  0  0  0  0  0
  -29.3983  -16.6926   26.0007 C   0  0  0  0  0  0  0  0  0  0  0  0
  -30.6940  -17.1283   23.8849 C   0  0  0  0  0  0  0  0  0  0  0  0
  -30.4174  -12.1880   19.1366 C   0  0  0  0  0  0  0  0  0  0  0  0
  -28.6670  -11.9490   20.8549 C   0  0  0  0  0  0  0  0  0  0  0  0
  -29.5023  -18.1683   26.3606 C   0  0  0  0  0  0  0  0  0  0  0  0
  -30.7915  -18.6018   24.2558 C   0  0  0  0  0  0  0  0  0  0  0  0
  -30.0963  -19.3741   15.5868 C   0  0  1  0  0  0  0  0  0  0  0  0
  -27.9073  -21.9284   17.3524 C   0  0  1  0  0  0  0  0  0  0  0  0
  -30.5723  -16.2368   25.1263 C   0  0  0  0  0  0  0  0  0  0  0  0
  -27.7837  -12.9954   20.1542 C   0  0  2  0  0  0  0  0  0  0  0  0
  -27.5924  -29.5307   18.8043 C   0  0  0  0  0  0  0  0  0  0  0  0
  -31.7037  -24.5634   17.2897 C   0  0  0  0  0  0  0  0  0  0  0  0
  -31.3842  -26.9333   18.0314 C   0  0  0  0  0  0  0  0  0  0  0  0
  -30.5408  -26.2019   15.8006 C   0  0  0  0  0  0  0  0  0  0  0  0
  -24.9469  -26.9397   19.6783 C   0  0  0  0  0  0  0  0  0  0  0  0
  -30.4140  -14.7711   24.7277 C   0  0  0  0  0  0  0  0  0  0  0  0
  -31.7439  -14.1779   24.2648 C   0  0  0  0  0  0  0  0  0  0  0  0
  -31.6291  -12.6978   23.9153 C   0  0  0  0  0  0  0  0  0  0  0  0
  -29.5811  -20.4630   25.3897 C   0  0  0  0  0  0  0  0  0  0  0  0
  -29.2162  -21.2194   24.1276 C   0  0  0  0  0  0  0  0  0  1  0  0
  -29.3470  -25.4295   17.8912 C   0  0  1  0  0  0  0  0  0  0  0  0
  -26.8815  -28.1895   18.7119 C   0  0  2  0  0  0  0  0  0  0  0  0
  -30.7325  -25.7606   17.2680 C   0  0  0  0  0  0  0  0  0  0  0  0
  -25.8627  -11.5145   20.6007 N   0  0  0  0  0  0  0  0  0  0  0  0
  -26.3079  -12.7706   20.4270 N   0  0  0  0  0  0  0  0  0  0  0  0
  -28.3787  -23.1547   17.9990 N   0  0  0  0  0  0  0  0  0  0  0  0
  -30.0859  -12.2073   20.5633 N   0  0  0  0  0  0  0  0  0  0  0  0
  -25.6072  -15.0326   20.3749 N   0  0  0  0  0  0  0  0  0  0  0  0
  -21.7848  -12.7768   21.2097 N   0  0  0  0  0  0  0  0  0  0  0  0
  -29.0439  -20.2819   15.9904 N   0  0  0  0  0  0  0  0  0  0  0  0
  -28.3976  -26.5368   17.8596 N   0  0  0  0  0  0  0  0  0  0  0  0
  -30.7005  -12.4568   22.8335 N   0  0  0  0  0  0  0  0  0  0  0  0
  -29.5990  -18.9880   25.0968 N   0  3  0  0  0  0  0  0  0  0  0  0
  -25.7480  -28.1908   19.6794 N   0  3  0  0  0  0  0  0  0  0  0  0
  -22.6823  -14.8607   20.8772 O   0  0  0  0  0  0  0  0  0  0  0  0
  -30.0367  -21.0911   17.9352 O   0  0  0  0  0  0  0  0  0  0  0  0
  -28.3972  -24.3564   16.0010 O   0  0  0  0  0  0  0  0  0  0  0  0
  -28.0441  -26.6340   20.1493 O   0  0  0  0  0  0  0  0  0  0  0  0
  -32.2773  -12.6492   21.1801 O   0  0  0  0  0  0  0  0  0  0  0  0
  -21.2658   -7.2542   21.7265 O   0  0  0  0  0  0  0  0  0  0  0  0
  -27.9177  -20.8205   23.6903 O   0  0  0  0  0  0  0  0  0  1  0  0
  -23.0747   -3.3992   25.2294 F   0  0  0  0  0  0  0  0  0  0  0  0
  -23.6248   -5.8954   21.2455 F   0  0  0  0  0  0  0  0  0  0  0  0
  1  2  1  0  0  0  0
  1  5  2  0  0  0  0
  2  6  2  0  0  0  0
  3  8  2  0  0  0  0
  3 15  1  0  0  0  0
  4  9  1  0  0  0  0
  4 15  2  0  0  0  0
  5 17  1  0  0  0  0
  6 19  1  0  0  0  0
  7 10  2  0  0  0  0
  7 18  1  0  0  0  0
  8 21  1  0  0  0  0
  9 21  2  0  0  0  0
 10 22  1  0  0  0  0
 11 12  2  0  0  0  0
 11 23  1  0  0  0  0
 12 24  1  0  0  0  0
 13 20  1  0  0  0  0
 13 22  2  0  0  0  0
 14 24  2  0  0  0  0
 14 25  1  0  0  0  0
 15 26  1  0  0  0  0
 16 26  1  0  0  0  0
 16 27  2  0  0  0  0
 16 28  1  0  0  0  0
 17 19  2  0  0  0  0
 17 33  1  0  0  0  0
 18 20  2  0  0  0  0
 18 34  1  0  0  0  0
 19 46  1  0  0  0  0
 20 35  1  0  0  0  0
 21 79  1  0  0  0  0
 22 80  1  0  0  0  0
 23 25  2  0  0  0  0
 23 79  1  0  0  0  0
 24 81  1  0  0  0  0
 25 82  1  0  0  0  0
 26 63  2  0  0  0  0
 27 64  1  0  0  0  0
 27 67  1  0  0  0  0
 28 68  1  0  0  0  0
 28 74  2  0  0  0  0
 29 47  1  0  0  0  0
 29 69  1  0  0  0  0
 29 75  2  0  0  0  0
 30 60  1  0  0  0  0
 30 65  1  0  0  0  0
 30 76  2  0  0  0  0
 31 61  1  0  0  0  0
 31 70  1  0  0  0  0
 31 77  2  0  0  0  0
 32 66  1  0  0  0  0
 32 71  1  0  0  0  0
 32 78  2  0  0  0  0
 33 36  1  0  0  0  0
 34 47  1  0  0  0  0
 35 65  1  0  0  0  0
 36 38  1  0  0  0  0
 37 39  1  0  0  0  0
 37 42  1  0  0  0  0
 38 46  1  0  0  0  0
 39 49  1  0  0  0  0
 40 44  1  0  0  0  0
 40 48  1  0  0  0  0
 41 45  1  0  0  0  0
 41 48  1  0  0  0  0
 42 66  1  0  0  0  0
 43 49  1  0  0  0  0
 43 66  1  0  0  0  0
 44 72  1  0  0  0  0
 45 72  1  0  0  0  0
 46 69  1  0  0  0  0
 47 65  1  0  0  0  0
 48 55  1  0  0  0  0
 49 64  1  0  0  0  0
 50 61  1  0  0  0  0
 51 62  1  0  0  0  0
 52 62  1  0  0  0  0
 53 62  1  0  0  0  0
 54 73  1  0  0  0  0
 55 56  1  0  0  0  0
 56 57  1  0  0  0  0
 57 71  1  0  0  0  0
 58 59  1  0  0  0  0
 58 72  1  0  0  0  0
 59 80  1  0  0  0  0
 60 62  1  0  0  0  0
 60 70  1  0  0  0  0
 61 73  1  0  0  0  0
 63 64  1  0  0  0  0
M  CHG  2  72   1  73   1
M  ISO  4  32 100  59 101  71 100  80 101
M  END
> <Batch ID>
0127

> <Smiles>
CNC(C)C(=O)NC(C(=O)N1Cc2cc([101O:1][101CH2:1]CN3CCC(CCC[100NH:0][100C:0](=O)N4CCCC(n5nc(-c6ccc(Oc7ccc(F)cc7F)cc6)c(C(N)=O)c5N)C4)CC3)ccc2CC1C(=O)NC1CCCc2ccccc21)C(C)(C)C

> <Shape>
0.232

> <Color>
0.198

> <Negative vol penalty>
0.000

$$$$

  -OEChem-04052320403D

 83 91  0     1  0  0  0  0  0999 V2000
  -26.1930  -35.4213   23.4921 C   0  0  0  0  0  0  0  0  0  0  0  0
  -26.7068  -34.1553   23.2305 C   0  0  0  0  0  0  0  0  0  0  0  0
  -24.6820  -15.2674   21.0524 C   0  0  0  0  0  0  0  0  0  0  0  0
  -26.6477  -16.2715   20.0701 C   0  0  0  0  0  0  0  0  0  0  0  0
  -24.8866  -35.5593   23.9593 C   0  0  0  0  0  0  0  0  0  0  0  0
  -25.9149  -33.0263   23.4369 C   0  0  0  0  0  0  0  0  0  0  0  0
  -26.2260  -29.7109   19.6217 C   0  0  0  0  0  0  0  0  0  0  0  0
  -25.4820  -24.2265   17.4409 C   0  0  0  0  0  0  0  0  0  0  0  0
  -27.3106  -25.1428   16.1550 C   0  0  0  0  0  0  0  0  0  0  0  0
  -26.1743  -24.5002   18.6205 C   0  0  0  0  0  0  0  0  0  0  0  0
  -28.0029  -25.4165   17.3346 C   0  0  0  0  0  0  0  0  0  0  0  0
  -25.4258  -14.1348   21.3833 C   0  0  0  0  0  0  0  0  0  0  0  0
  -27.3916  -15.1388   20.4010 C   0  0  0  0  0  0  0  0  0  0  0  0
  -27.3584  -28.8990   19.5744 C   0  0  0  0  0  0  0  0  0  0  0  0
  -29.7245  -12.3644   20.6654 C   0  0  0  0  0  0  0  0  0  0  0  0
  -30.5800  -11.8441   19.6943 C   0  0  0  0  0  0  0  0  0  0  0  0
  -26.0959  -27.0914   20.5532 C   0  0  0  0  0  0  0  0  0  0  0  0
  -28.6959  -11.4912   18.2236 C   0  0  0  0  0  0  0  0  0  0  0  0
  -25.2929  -16.3358   20.3958 C   0  0  0  0  0  0  0  0  0  0  0  0
  -24.3314  -18.6563   20.8412 C   0  0  0  0  0  0  0  0  0  0  0  0
  -24.0750  -34.4320   24.1624 C   0  0  0  0  0  0  0  0  0  0  0  0
  -25.0209  -29.2217   20.1460 C   0  0  0  0  0  0  0  0  0  0  0  0
  -24.5969  -33.1492   23.9086 C   0  0  0  0  0  0  0  0  0  0  0  0
  -24.9490  -27.8983   20.6037 C   0  0  0  0  0  0  0  0  0  0  0  0
  -26.0501  -24.5478   16.2082 C   0  0  0  0  0  0  0  0  0  0  0  0
  -27.4347  -25.0952   18.5673 C   0  0  0  0  0  0  0  0  0  0  0  0
  -26.7806  -14.0705   21.0576 C   0  0  0  0  0  0  0  0  0  0  0  0
  -27.2943  -27.5900   20.0429 C   0  0  0  0  0  0  0  0  0  0  0  0
  -28.3547  -12.4480   20.4157 C   0  0  0  0  0  0  0  0  0  0  0  0
  -30.0657  -11.4075   18.4734 C   0  0  0  0  0  0  0  0  0  0  0  0
  -27.8404  -12.0115   19.1948 C   0  0  0  0  0  0  0  0  0  0  0  0
  -24.5250  -17.5058   20.0533 C   0  0  0  0  0  0  0  0  0  0  0  0
  -23.5336  -19.4684   20.0728 C   0  0  0  0  0  0  0  0  0  0  0  0
  -24.8283  -18.9633   22.1506 C   0  0  0  0  0  0  0  0  0  0  0  0
  -23.1613  -30.0052   22.6020 C   0  0  0  0  0  0  0  0  0  0  0  0
  -21.1958  -27.7617   21.3270 C   0  0  0  0  0  0  0  0  0  0  0  0
  -20.8539  -24.9740   19.3881 C   0  0  0  0  0  0  0  0  0  0  0  0
  -22.6378  -19.8975   14.1682 C   0  0  0  0  0  0  0  0  0  0  0  0
  -22.6849  -34.6281   24.7137 C   0  0  0  0  0  0  0  0  0  0  0  0
  -23.8012  -30.1017   20.1654 C   0  0  0  0  0  0  0  0  0  0  0  0
  -23.6738  -27.3188   21.1573 C   0  0  0  0  0  0  0  0  0  0  0  0
  -21.7864  -33.4050   24.5496 C   0  0  0  0  0  0  0  0  0  0  0  0
  -20.1778  -19.2828   16.6676 C   0  0  0  0  0  0  0  0  0  0  0  0
  -22.5250  -32.1393   24.9732 C   0  0  0  0  0  0  0  0  0  0  0  0
  -20.9955  -18.8615   17.8898 C   0  0  0  0  0  0  0  0  0  0  0  0
  -20.7930  -18.7626   15.3704 C   0  0  0  0  0  0  0  0  0  0  0  0
  -23.0314  -18.6867   16.3988 C   0  0  0  0  0  0  0  0  0  0  0  0
  -23.7606  -31.9020   24.0965 C   0  0  1  0  0  0  0  0  0  0  0  0
  -22.7638  -29.6625   21.1941 C   0  0  1  0  0  0  0  0  0  0  0  0
  -22.4811  -19.2351   17.7265 C   0  0  2  0  0  0  0  0  0  0  0  0
  -29.5331  -24.6883   19.8994 C   0  0  0  0  0  0  0  0  0  0  0  0
  -19.1302  -23.3477   18.5630 C   0  0  0  0  0  0  0  0  0  0  0  0
  -21.1459  -26.4265   24.0701 C   0  0  0  0  0  0  0  0  0  0  0  0
  -20.2339  -24.3683   22.9745 C   0  0  0  0  0  0  0  0  0  0  0  0
  -18.9348  -26.4967   22.9037 C   0  0  0  0  0  0  0  0  0  0  0  0
  -21.3773  -25.6753   16.5609 C   0  0  0  0  0  0  0  0  0  0  0  0
  -25.3106  -24.2555   14.9466 C   0  0  0  0  0  0  0  0  0  0  0  0
  -24.5828  -21.0000   13.0908 C   0  0  0  0  0  0  0  0  0  0  0  0
  -24.5306  -22.4926   13.3583 C   0  0  0  0  0  0  0  0  0  0  0  0
  -28.1836  -25.3931   19.8462 C   0  0  1  0  0  0  0  0  0  1  0  0
  -21.0227  -26.2715   21.4958 C   0  0  1  0  0  0  0  0  0  0  0  0
  -19.8826  -24.6367   18.2714 C   0  0  2  0  0  0  0  0  0  0  0  0
  -20.3590  -25.9020   22.8525 C   0  0  0  0  0  0  0  0  0  0  0  0
  -23.9004  -17.5769   18.8748 N   0  0  0  0  0  0  0  0  0  0  0  0
  -23.3064  -18.7817   18.9165 N   0  0  0  0  0  0  0  0  0  0  0  0
  -22.5101  -28.2207   21.1609 N   0  0  0  0  0  0  0  0  0  0  0  0
  -22.2020  -19.1523   15.2762 N   0  0  0  0  0  0  0  0  0  0  0  0
  -23.0112  -20.6958   20.2802 N   0  0  0  0  0  0  0  0  0  0  0  0
  -25.6343  -18.0172   22.7982 N   0  0  0  0  0  0  0  0  0  0  0  0
  -23.3729  -31.3541   22.8144 N   0  0  0  0  0  0  0  0  0  0  0  0
  -20.2848  -25.8110   20.3246 N   0  0  0  0  0  0  0  0  0  0  0  0
  -23.9867  -20.2307   14.1602 N   0  0  0  0  0  0  0  0  0  0  0  0
  -20.6120  -24.4737   16.9821 N   0  3  0  0  0  0  0  0  0  0  0  0
  -25.3107  -22.8116   14.5823 N   0  3  0  0  0  0  0  0  0  0  0  0
  -24.5519  -20.0379   22.7358 O   0  0  0  0  0  0  0  0  0  0  0  0
  -23.2667  -29.1120   23.4344 O   0  0  0  0  0  0  0  0  0  0  0  0
  -20.2008  -28.4908   21.3347 O   0  0  0  0  0  0  0  0  0  0  0  0
  -22.0015  -24.5357   19.4279 O   0  0  0  0  0  0  0  0  0  0  0  0
  -21.8797  -20.2450   13.2563 O   0  0  0  0  0  0  0  0  0  0  0  0
  -27.5067  -12.9655   21.3805 O   0  0  0  0  0  0  0  0  0  0  0  0
  -28.3983  -26.7956   19.9985 O   0  0  0  0  0  0  0  0  0  1  0  0
  -30.8876  -10.9094   17.5404 F   0  0  0  0  0  0  0  0  0  0  0  0
  -26.5255  -12.0904   18.9486 F   0  0  0  0  0  0  0  0  0  0  0  0
  1  2  1  0  0  0  0
  1  5  2  0  0  0  0
  2  6  2  0  0  0  0
  3 12  2  0  0  0  0
  3 19  1  0  0  0  0
  4 13  1  0  0  0  0
  4 19  2  0  0  0  0
  5 21  1  0  0  0  0
  6 23  1  0  0  0  0
  7 14  2  0  0  0  0
  7 22  1  0  0  0  0
  8 10  2  0  0  0  0
  8 25  1  0  0  0  0
  9 11  1  0  0  0  0
  9 25  2  0  0  0  0
 10 26  1  0  0  0  0
 11 26  2  0  0  0  0
 12 27  1  0  0  0  0
 13 27  2  0  0  0  0
 14 28  1  0  0  0  0
 15 16  2  0  0  0  0
 15 29  1  0  0  0  0
 16 30  1  0  0  0  0
 17 24  1  0  0  0  0
 17 28  2  0  0  0  0
 18 30  2  0  0  0  0
 18 31  1  0  0  0  0
 19 32  1  0  0  0  0
 20 32  1  0  0  0  0
 20 33  2  0  0  0  0
 20 34  1  0  0  0  0
 21 23  2  0  0  0  0
 21 39  1  0  0  0  0
 22 24  2  0  0  0  0
 22 40  1  0  0  0  0
 23 48  1  0  0  0  0
 24 41  1  0  0  0  0
 25 57  1  0  0  0  0
 26 60  1  0  0  0  0
 27 80  1  0  0  0  0
 28 81  1  0  0  0  0
 29 31  2  0  0  0  0
 29 80  1  0  0  0  0
 30 82  1  0  0  0  0
 31 83  1  0  0  0  0
 32 64  2  0  0  0  0
 33 65  1  0  0  0  0
 33 68  1  0  0  0  0
 34 69  1  0  0  0  0
 34 75  2  0  0  0  0
 35 49  1  0  0  0  0
 35 70  1  0  0  0  0
 35 76  2  0  0  0  0
 36 61  1  0  0  0  0
 36 66  1  0  0  0  0
 36 77  2  0  0  0  0
 37 62  1  0  0  0  0
 37 71  1  0  0  0  0
 37 78  2  0  0  0  0
 38 67  1  0  0  0  0
 38 72  1  0  0  0  0
 38 79  2  0  0  0  0
 39 42  1  0  0  0  0
 40 49  1  0  0  0  0
 41 66  1  0  0  0  0
 42 44  1  0  0  0  0
 43 45  1  0  0  0  0
 43 46  1  0  0  0  0
 44 48  1  0  0  0  0
 45 50  1  0  0  0  0
 46 67  1  0  0  0  0
 47 50  1  0  0  0  0
 47 67  1  0  0  0  0
 48 70  1  0  0  0  0
 49 66  1  0  0  0  0
 50 65  1  0  0  0  0
 51 60  1  0  0  0  0
 52 62  1  0  0  0  0
 53 63  1  0  0  0  0
 54 63  1  0  0  0  0
 55 63  1  0  0  0  0
 56 73  1  0  0  0  0
 57 74  1  0  0  0  0
 58 59  1  0  0  0  0
 58 72  1  0  0  0  0
 59 74  1  0  0  0  0
 60 81  1  0  0  0  0
 61 63  1  0  0  0  0
 61 71  1  0  0  0  0
 62 73  1  0  0  0  0
 64 65  1  0  0  0  0
M  CHG  2  73   1  74   1
M  ISO  4  38 100  60 101  72 100  81 101
M  END
> <Batch ID>
0127

> <Smiles>
CNC(C)C(=O)NC(C(=O)N1Cc2cc([101O:1][101CH:1](C)c3ccc(CNCC[100NH:0][100C:0](=O)N4CCCC(n5nc(-c6ccc(Oc7ccc(F)cc7F)cc6)c(C(N)=O)c5N)C4)cc3)ccc2CC1C(=O)NC1CCCc2ccccc21)C(C)(C)C

> <Shape>
0.216

> <Color>
0.064

> <Negative vol penalty>
0.000

$$$$

  -OEChem-04052320403D

 90 99  0     1  0  0  0  0  0999 V2000
  -16.6227  -27.3715   26.8706 C   0  0  0  0  0  0  0  0  0  0  0  0
  -17.9785  -27.1192   27.0538 C   0  0  0  0  0  0  0  0  0  0  0  0
  -22.9982  -11.1692   22.6153 C   0  0  0  0  0  0  0  0  0  0  0  0
  -23.1145  -10.2395   20.3884 C   0  0  0  0  0  0  0  0  0  0  0  0
  -16.1860  -28.0270   25.7202 C   0  0  0  0  0  0  0  0  0  0  0  0
  -18.8984  -27.5213   26.0861 C   0  0  0  0  0  0  0  0  0  0  0  0
  -24.6115  -29.5109   27.0386 C   0  0  0  0  0  0  0  0  0  0  0  0
  -22.0967  -10.1711   22.9849 C   0  0  0  0  0  0  0  0  0  0  0  0
  -22.2130   -9.2413   20.7580 C   0  0  0  0  0  0  0  0  0  0  0  0
  -25.8506  -28.8763   26.9628 C   0  0  0  0  0  0  0  0  0  0  0  0
  -18.8018   -9.5239   22.5985 C   0  0  0  0  0  0  0  0  0  0  0  0
  -17.6755   -9.9064   23.3270 C   0  0  0  0  0  0  0  0  0  0  0  0
  -26.1309  -29.7053   24.7148 C   0  0  0  0  0  0  0  0  0  0  0  0
  -18.3585   -8.4634   25.1405 C   0  0  0  0  0  0  0  0  0  0  0  0
  -23.5071  -11.2034   21.3170 C   0  0  0  0  0  0  0  0  0  0  0  0
  -24.2201  -13.6252   20.9505 C   0  0  0  0  0  0  0  0  0  0  0  0
  -17.1020  -28.4459   24.7423 C   0  0  0  0  0  0  0  0  0  0  0  0
  -24.1171  -30.2396   25.9473 C   0  0  0  0  0  0  0  0  0  0  0  0
  -18.4734  -28.1819   24.9208 C   0  0  0  0  0  0  0  0  0  0  0  0
  -24.8864  -30.3503   24.7802 C   0  0  0  0  0  0  0  0  0  0  0  0
  -21.7041   -9.2072   22.0563 C   0  0  0  0  0  0  0  0  0  0  0  0
  -26.6092  -28.9710   25.7998 C   0  0  0  0  0  0  0  0  0  0  0  0
  -19.7064   -8.6111   23.1409 C   0  0  0  0  0  0  0  0  0  0  0  0
  -17.4539   -9.3762   24.5980 C   0  0  0  0  0  0  0  0  0  0  0  0
  -19.4848   -8.0809   24.4119 C   0  0  0  0  0  0  0  0  0  0  0  0
  -24.4380  -12.2345   20.9344 C   0  0  0  0  0  0  0  0  0  0  0  0
  -25.4009  -14.1630   20.5000 C   0  0  0  0  0  0  0  0  0  0  0  0
  -23.0545  -14.3647   21.3380 C   0  0  0  0  0  0  0  0  0  0  0  0
  -21.5722  -30.0000   24.0579 C   0  0  0  0  0  0  0  0  0  0  0  0
  -22.6657  -32.8180   22.8809 C   0  0  0  0  0  0  0  0  0  0  0  0
  -25.3047  -34.9275   22.3985 C   0  0  0  0  0  0  0  0  0  0  0  0
  -31.0682  -14.0501   20.9781 C   0  0  0  0  0  0  0  0  0  0  0  0
  -16.5778  -29.1089   23.4932 C   0  0  0  0  0  0  0  0  0  0  0  0
  -22.7906  -30.9405   26.0546 C   0  0  0  0  0  0  0  0  0  0  0  0
  -24.4097  -31.1376   23.5880 C   0  0  0  0  0  0  0  0  0  0  0  0
  -17.6546  -29.8355   22.6916 C   0  0  0  0  0  0  0  0  0  0  0  0
  -29.4281  -11.9919   18.3676 C   0  0  0  0  0  0  0  0  0  0  0  0
  -18.8915  -28.9560   22.5393 C   0  0  0  0  0  0  0  0  0  0  0  0
  -27.9822  -11.9298   18.8565 C   0  0  0  0  0  0  0  0  0  0  0  0
  -32.1669  -23.3864   25.5939 C   0  0  0  0  0  0  0  0  0  0  0  0
  -31.7748  -24.0373   23.1791 C   0  0  0  0  0  0  0  0  0  0  0  0
  -30.9429  -24.1994   26.0115 C   0  0  0  0  0  0  0  0  0  0  0  0
  -30.5501  -24.8493   23.5968 C   0  0  0  0  0  0  0  0  0  0  0  0
  -32.1870  -16.8733   22.6558 C   0  0  0  0  0  0  0  0  0  0  0  0
  -30.2730  -17.4793   21.1224 C   0  0  0  0  0  0  0  0  0  0  0  0
  -30.4093  -12.1694   19.5220 C   0  0  0  0  0  0  0  0  0  0  0  0
  -31.5110  -15.5295   22.9148 C   0  0  0  0  0  0  0  0  0  0  0  0
  -29.6461  -16.1082   21.3919 C   0  0  0  0  0  0  0  0  0  0  0  0
  -28.6644  -13.2824   20.8781 C   0  0  0  0  0  0  0  0  0  0  0  0
  -19.5044  -28.6246   23.9054 C   0  0  1  0  0  0  0  0  0  0  0  0
  -22.1553  -31.2281   24.6978 C   0  0  1  0  0  0  0  0  0  0  0  0
  -27.6481  -13.1483   19.7340 C   0  0  2  0  0  0  0  0  0  0  0  0
  -32.0466  -22.8857   24.1518 C   0  0  0  0  0  0  0  0  0  0  0  0
  -30.6867  -25.3442   25.0345 C   0  0  0  0  0  0  0  0  0  0  0  0
  -31.1421  -17.9273   22.2955 C   0  0  0  0  0  0  0  0  0  0  0  0
  -25.8963  -37.1394   21.3714 C   0  0  0  0  0  0  0  0  0  0  0  0
  -34.2702  -20.9831   21.8967 C   0  0  0  0  0  0  0  0  0  0  0  0
  -22.5721  -31.5519   20.1063 C   0  0  0  0  0  0  0  0  0  0  0  0
  -24.0317  -33.4126   19.2843 C   0  0  0  0  0  0  0  0  0  0  0  0
  -21.7674  -33.9179   20.2010 C   0  0  0  0  0  0  0  0  0  0  0  0
  -26.1604  -36.0397   25.0042 C   0  0  0  0  0  0  0  0  0  0  0  0
  -29.5807  -26.9537   26.5848 C   0  0  0  0  0  0  0  0  0  0  0  0
  -32.2300  -20.0279   23.0973 C   0  0  0  0  0  0  0  0  0  0  0  0
  -28.2504  -27.6226   26.8694 C   0  0  0  0  0  0  0  0  0  1  0  0
  -23.6157  -33.2195   21.7784 C   0  0  1  0  0  0  0  0  0  0  0  0
  -25.4589  -36.4187   22.6372 C   0  0  2  0  0  0  0  0  0  0  0  0
  -32.9784  -21.2834   22.6507 C   0  0  1  0  0  0  0  0  0  0  0  0
  -23.0051  -33.0090   20.3641 C   0  0  0  0  0  0  0  0  0  0  0  0
  -25.6611  -11.9092   20.5074 N   0  0  0  0  0  0  0  0  0  0  0  0
  -26.2222  -13.1031   20.2509 N   0  0  0  0  0  0  0  0  0  0  0  0
  -23.1035  -31.7996   23.7394 N   0  0  0  0  0  0  0  0  0  0  0  0
  -30.0445  -13.3048   20.3695 N   0  0  0  0  0  0  0  0  0  0  0  0
  -30.6748  -15.1319   21.7805 N   0  0  0  0  0  0  0  0  0  0  0  0
  -25.8063  -15.4345   20.2966 N   0  0  0  0  0  0  0  0  0  0  0  0
  -21.9282  -13.6551   21.7766 N   0  0  0  0  0  0  0  0  0  0  0  0
  -20.2585  -29.7529   24.4081 N   0  0  0  0  0  0  0  0  0  0  0  0
  -24.0098  -34.5956   22.0603 N   0  0  0  0  0  0  0  0  0  0  0  0
  -33.2348  -22.1628   23.7673 N   0  0  0  0  0  0  0  0  0  0  0  0
  -29.4307  -26.0380   25.4257 N   0  3  0  0  0  0  0  0  0  0  0  0
  -31.8332  -19.1916   21.9329 N   0  3  0  0  0  0  0  0  0  0  0  0
  -26.4757  -36.6712   23.6970 N   0  3  0  0  0  0  0  0  0  0  0  0
  -23.0073  -15.6169   21.2810 O   0  0  0  0  0  0  0  0  0  0  0  0
  -22.2626  -29.3272   23.3013 O   0  0  0  0  0  0  0  0  0  0  0  0
  -21.5784  -33.3918   22.9810 O   0  0  0  0  0  0  0  0  0  0  0  0
  -26.2402  -34.1367   22.4983 O   0  0  0  0  0  0  0  0  0  0  0  0
  -32.2610  -13.7662   20.8119 O   0  0  0  0  0  0  0  0  0  0  0  0
  -20.8245   -8.2330   22.4167 O   0  0  0  0  0  0  0  0  0  0  0  0
  -27.8274  -28.3476   25.7223 O   0  0  0  0  0  0  0  0  0  1  0  0
  -16.3731   -9.7448   25.2982 F   0  0  0  0  0  0  0  0  0  0  0  0
  -20.3509   -7.2045   24.9387 F   0  0  0  0  0  0  0  0  0  0  0  0
  1  2  1  0  0  0  0
  1  5  2  0  0  0  0
  2  6  2  0  0  0  0
  3  8  2  0  0  0  0
  3 15  1  0  0  0  0
  4  9  1  0  0  0  0
  4 15  2  0  0  0  0
  5 17  1  0  0  0  0
  6 19  1  0  0  0  0
  7 10  2  0  0  0  0
  7 18  1  0  0  0  0
  8 21  1  0  0  0  0
  9 21  2  0  0  0  0
 10 22  1  0  0  0  0
 11 12  2  0  0  0  0
 11 23  1  0  0  0  0
 12 24  1  0  0  0  0
 13 20  1  0  0  0  0
 13 22  2  0  0  0  0
 14 24  2  0  0  0  0
 14 25  1  0  0  0  0
 15 26  1  0  0  0  0
 16 26  1  0  0  0  0
 16 27  2  0  0  0  0
 16 28  1  0  0  0  0
 17 19  2  0  0  0  0
 17 33  1  0  0  0  0
 18 20  2  0  0  0  0
 18 34  1  0  0  0  0
 19 50  1  0  0  0  0
 20 35  1  0  0  0  0
 21 87  1  0  0  0  0
 22 88  1  0  0  0  0
 23 25  2  0  0  0  0
 23 87  1  0  0  0  0
 24 89  1  0  0  0  0
 25 90  1  0  0  0  0
 26 69  2  0  0  0  0
 27 70  1  0  0  0  0
 27 74  1  0  0  0  0
 28 75  1  0  0  0  0
 28 82  2  0  0  0  0
 29 51  1  0  0  0  0
 29 76  1  0  0  0  0
 29 83  2  0  0  0  0
 30 65  1  0  0  0  0
 30 71  1  0  0  0  0
 30 84  2  0  0  0  0
 31 66  1  0  0  0  0
 31 77  1  0  0  0  0
 31 85  2  0  0  0  0
 32 72  1  0  0  0  0
 32 73  1  0  0  0  0
 32 86  2  0  0  0  0
 33 36  1  0  0  0  0
 34 51  1  0  0  0  0
 35 71  1  0  0  0  0
 36 38  1  0  0  0  0
 37 39  1  0  0  0  0
 37 46  1  0  0  0  0
 38 50  1  0  0  0  0
 39 52  1  0  0  0  0
 40 42  1  0  0  0  0
 40 53  1  0  0  0  0
 41 43  1  0  0  0  0
 41 53  1  0  0  0  0
 42 54  1  0  0  0  0
 43 54  1  0  0  0  0
 44 47  1  0  0  0  0
 44 55  1  0  0  0  0
 45 48  1  0  0  0  0
 45 55  1  0  0  0  0
 46 72  1  0  0  0  0
 47 73  1  0  0  0  0
 48 73  1  0  0  0  0
 49 52  1  0  0  0  0
 49 72  1  0  0  0  0
 50 76  1  0  0  0  0
 51 71  1  0  0  0  0
 52 70  1  0  0  0  0
 53 78  1  0  0  0  0
 54 79  1  0  0  0  0
 55 80  1  0  0  0  0
 56 66  1  0  0  0  0
 57 67  1  0  0  0  0
 58 68  1  0  0  0  0
 59 68  1  0  0  0  0
 60 68  1  0  0  0  0
 61 81  1  0  0  0  0
 62 64  1  0  0  0  0
 62 79  1  0  0  0  0
 63 67  1  0  0  0  0
 63 80  1  0  0  0  0
 64 88  1  0  0  0  0
 65 68  1  0  0  0  0
 65 77  1  0  0  0  0
 66 81  1  0  0  0  0
 67 78  1  0  0  0  0
 69 70  1  0  0  0  0
M  CHG  3  79   1  80   1  81   1
M  ISO  4  32 100  64 101  73 100  88 101
M  END
> <Batch ID>
0127

> <Smiles>
CNC(C)C(=O)NC(C(=O)N1Cc2cc([101O:1][101CH2:1]CNC3CCC(NC(C)CNC4CC[100N:0]([100C:0](=O)N5CCCC(n6nc(-c7ccc(Oc8ccc(F)cc8F)cc7)c(C(N)=O)c6N)C5)CC4)CC3)ccc2CC1C(=O)NC1CCCc2ccccc21)C(C)(C)C

> <Shape>
0.249

> <Color>
0.153

> <Negative vol penalty>
0.000

$$$$

  -OEChem-04052320403D

 85 94  0     1  0  0  0  0  0999 V2000
  -17.6261  -32.6116   23.6718 C   0  0  0  0  0  0  0  0  0  0  0  0
  -18.8226  -32.8968   23.0218 C   0  0  0  0  0  0  0  0  0  0  0  0
  -21.4036  -18.2191   21.6729 C   0  0  0  0  0  0  0  0  0  0  0  0
  -22.5359  -18.4349   23.7962 C   0  0  0  0  0  0  0  0  0  0  0  0
  -17.5120  -31.4565   24.4443 C   0  0  0  0  0  0  0  0  0  0  0  0
  -19.9060  -32.0276   23.1447 C   0  0  0  0  0  0  0  0  0  0  0  0
  -29.7458  -25.9326   17.9468 C   0  0  0  0  0  0  0  0  0  0  0  0
  -25.5253  -29.5535   19.4543 C   0  0  0  0  0  0  0  0  0  0  0  0
  -29.5291  -24.5765   17.6981 C   0  0  0  0  0  0  0  0  0  0  0  0
  -20.3106  -18.9183   22.1847 C   0  0  0  0  0  0  0  0  0  0  0  0
  -21.4429  -19.1341   24.3080 C   0  0  0  0  0  0  0  0  0  0  0  0
  -26.9061  -29.3994   19.5695 C   0  0  0  0  0  0  0  0  0  0  0  0
  -17.6545  -18.2775   24.1743 C   0  0  0  0  0  0  0  0  0  0  0  0
  -16.3816  -17.7715   23.9113 C   0  0  0  0  0  0  0  0  0  0  0  0
  -31.0528  -24.0089   19.4758 C   0  0  0  0  0  0  0  0  0  0  0  0
  -26.5682  -27.3935   20.8661 C   0  0  0  0  0  0  0  0  0  0  0  0
  -15.7986  -19.8255   22.7807 C   0  0  0  0  0  0  0  0  0  0  0  0
  -22.5163  -17.9774   22.4786 C   0  0  0  0  0  0  0  0  0  0  0  0
  -23.6525  -15.9418   21.4426 C   0  0  0  0  0  0  0  0  0  0  0  0
  -18.5914  -30.5678   24.5689 C   0  0  0  0  0  0  0  0  0  0  0  0
  -24.6539  -28.6331   20.0544 C   0  0  0  0  0  0  0  0  0  0  0  0
  -19.8066  -30.8602   23.9207 C   0  0  0  0  0  0  0  0  0  0  0  0
  -30.6063  -26.3487   18.9759 C   0  0  0  0  0  0  0  0  0  0  0  0
  -31.2894  -25.3697   19.7261 C   0  0  0  0  0  0  0  0  0  0  0  0
  -25.1767  -27.5367   20.7549 C   0  0  0  0  0  0  0  0  0  0  0  0
  -30.1769  -23.6152   18.4665 C   0  0  0  0  0  0  0  0  0  0  0  0
  -20.3302  -19.3758   23.5022 C   0  0  0  0  0  0  0  0  0  0  0  0
  -27.4278  -28.3209   20.2779 C   0  0  0  0  0  0  0  0  0  0  0  0
  -17.9995  -19.5576   23.7407 C   0  0  0  0  0  0  0  0  0  0  0  0
  -15.4536  -18.5455   23.2145 C   0  0  0  0  0  0  0  0  0  0  0  0
  -17.0715  -20.3316   23.0438 C   0  0  0  0  0  0  0  0  0  0  0  0
  -23.6455  -17.2547   21.9507 C   0  0  0  0  0  0  0  0  0  0  0  0
  -24.9567  -15.7244   21.0708 C   0  0  0  0  0  0  0  0  0  0  0  0
  -22.5762  -15.0028   21.3178 C   0  0  0  0  0  0  0  0  0  0  0  0
  -22.4153  -28.8021   22.3048 C   0  0  0  0  0  0  0  0  0  0  0  0
  -21.8914  -25.7124   21.4670 C   0  0  0  0  0  0  0  0  0  0  0  0
  -23.1104  -22.8369   20.0915 C   0  0  0  0  0  0  0  0  0  0  0  0
  -29.4103  -19.3980   19.4830 C   0  0  0  0  0  0  0  0  0  0  0  0
  -18.4356  -29.3560   25.4532 C   0  0  0  0  0  0  0  0  0  0  0  0
  -23.1671  -28.7987   19.8983 C   0  0  0  0  0  0  0  0  0  0  0  0
  -32.2400  -25.7528   20.8336 C   0  0  0  0  0  0  0  0  0  0  0  0
  -24.2842  -26.5095   21.4005 C   0  0  0  0  0  0  0  0  0  0  0  0
  -19.5105  -28.2957   25.2284 C   0  0  0  0  0  0  0  0  0  0  0  0
  -29.4276  -17.0412   22.1517 C   0  0  0  0  0  0  0  0  0  0  0  0
  -20.8925  -28.9392   25.1761 C   0  0  0  0  0  0  0  0  0  0  0  0
  -27.9483  -16.7102   22.3569 C   0  0  0  0  0  0  0  0  0  0  0  0
  -29.6317  -18.5094   21.7847 C   0  0  0  0  0  0  0  0  0  0  0  0
  -27.3613  -18.6440   20.8356 C   0  0  0  0  0  0  0  0  0  0  0  0
  -32.7831  -27.1647   20.6830 C   0  0  0  0  0  0  0  0  0  0  0  0
  -20.9963  -29.9292   24.0096 C   0  0  1  0  0  0  0  0  0  0  0  0
  -30.8539  -27.8239   19.2264 C   0  0  1  0  0  0  0  0  0  0  0  0
  -22.3691  -28.0850   20.9852 C   0  0  1  0  0  0  0  0  0  0  0  0
  -27.1004  -17.1615   21.1525 C   0  0  2  0  0  0  0  0  0  0  0  0
  -23.0921  -20.4877   19.2092 C   0  0  0  0  0  0  0  0  0  0  0  0
  -22.2152  -24.9894   24.4136 C   0  0  0  0  0  0  0  0  0  0  0  0
  -22.5060  -22.6004   23.7236 C   0  0  0  0  0  0  0  0  0  0  0  0
  -20.3639  -23.7842   23.2411 C   0  0  0  0  0  0  0  0  0  0  0  0
  -22.3370  -23.7376   17.3805 C   0  0  0  0  0  0  0  0  0  0  0  0
  -29.5780  -28.6629   19.3212 C   0  0  0  0  0  0  0  0  0  1  0  0
  -29.0725  -21.7732   17.1964 C   0  0  0  0  0  0  0  0  0  0  0  0
  -29.0292  -20.2528   17.1845 C   0  0  0  0  0  0  0  0  0  0  0  0
  -22.4334  -24.3766   21.9151 C   0  0  1  0  0  0  0  0  0  0  0  0
  -22.5317  -21.8928   19.0531 C   0  0  2  0  0  0  0  0  0  0  0  0
  -21.8967  -23.9579   23.3130 C   0  0  0  0  0  0  0  0  0  0  0  0
  -24.8498  -17.8308   21.9072 N   0  0  0  0  0  0  0  0  0  0  0  0
  -25.6257  -16.8753   21.3675 N   0  0  0  0  0  0  0  0  0  0  0  0
  -22.8374  -26.7185   21.2251 N   0  0  0  0  0  0  0  0  0  0  0  0
  -28.8007  -18.8729   20.6344 N   0  0  0  0  0  0  0  0  0  0  0  0
  -25.5851  -14.6629   20.5224 N   0  0  0  0  0  0  0  0  0  0  0  0
  -22.3231  -14.1308   22.3855 N   0  0  0  0  0  0  0  0  0  0  0  0
  -29.9529  -22.2450   18.2203 N   0  0  0  0  0  0  0  0  0  0  0  0
  -21.1802  -29.2214   22.7608 N   0  0  0  0  0  0  0  0  0  0  0  0
  -22.1228  -23.4313   20.8481 N   0  0  0  0  0  0  0  0  0  0  0  0
  -28.5511  -19.7101   18.4366 N   0  0  0  0  0  0  0  0  0  0  0  0
  -31.6307  -28.0902   20.4959 N   0  3  0  0  0  0  0  0  0  0  0  0
  -22.8497  -22.3757   17.6796 N   0  3  0  0  0  0  0  0  0  0  0  0
  -21.8706  -14.9277   20.2834 O   0  0  0  0  0  0  0  0  0  0  0  0
  -23.4918  -28.9617   22.8682 O   0  0  0  0  0  0  0  0  0  0  0  0
  -20.6739  -25.8557   21.3297 O   0  0  0  0  0  0  0  0  0  0  0  0
  -24.3180  -23.0251   20.2211 O   0  0  0  0  0  0  0  0  0  0  0  0
  -30.6306  -19.5706   19.3922 O   0  0  0  0  0  0  0  0  0  0  0  0
  -19.2639  -20.0583   24.0019 O   0  0  0  0  0  0  0  0  0  0  0  0
  -28.7752  -28.1686   20.3924 O   0  0  0  0  0  0  0  0  0  1  0  0
  -14.2318  -18.0588   22.9606 F   0  0  0  0  0  0  0  0  0  0  0  0
  -17.3976  -21.5616   22.6236 F   0  0  0  0  0  0  0  0  0  0  0  0
  1  2  1  0  0  0  0
  1  5  2  0  0  0  0
  2  6  2  0  0  0  0
  3 10  2  0  0  0  0
  3 18  1  0  0  0  0
  4 11  1  0  0  0  0
  4 18  2  0  0  0  0
  5 20  1  0  0  0  0
  6 22  1  0  0  0  0
  7  9  2  0  0  0  0
  7 23  1  0  0  0  0
  8 12  2  0  0  0  0
  8 21  1  0  0  0  0
  9 26  1  0  0  0  0
 10 27  1  0  0  0  0
 11 27  2  0  0  0  0
 12 28  1  0  0  0  0
 13 14  2  0  0  0  0
 13 29  1  0  0  0  0
 14 30  1  0  0  0  0
 15 24  1  0  0  0  0
 15 26  2  0  0  0  0
 16 25  1  0  0  0  0
 16 28  2  0  0  0  0
 17 30  2  0  0  0  0
 17 31  1  0  0  0  0
 18 32  1  0  0  0  0
 19 32  1  0  0  0  0
 19 33  2  0  0  0  0
 19 34  1  0  0  0  0
 20 22  2  0  0  0  0
 20 39  1  0  0  0  0
 21 25  2  0  0  0  0
 21 40  1  0  0  0  0
 22 50  1  0  0  0  0
 23 24  2  0  0  0  0
 23 51  1  0  0  0  0
 24 41  1  0  0  0  0
 25 42  1  0  0  0  0
 26 71  1  0  0  0  0
 27 82  1  0  0  0  0
 28 83  1  0  0  0  0
 29 31  2  0  0  0  0
 29 82  1  0  0  0  0
 30 84  1  0  0  0  0
 31 85  1  0  0  0  0
 32 65  2  0  0  0  0
 33 66  1  0  0  0  0
 33 69  1  0  0  0  0
 34 70  1  0  0  0  0
 34 77  2  0  0  0  0
 35 52  1  0  0  0  0
 35 72  1  0  0  0  0
 35 78  2  0  0  0  0
 36 62  1  0  0  0  0
 36 67  1  0  0  0  0
 36 79  2  0  0  0  0
 37 63  1  0  0  0  0
 37 73  1  0  0  0  0
 37 80  2  0  0  0  0
 38 68  1  0  0  0  0
 38 74  1  0  0  0  0
 38 81  2  0  0  0  0
 39 43  1  0  0  0  0
 40 52  1  0  0  0  0
 41 49  1  0  0  0  0
 42 67  1  0  0  0  0
 43 45  1  0  0  0  0
 44 46  1  0  0  0  0
 44 47  1  0  0  0  0
 45 50  1  0  0  0  0
 46 53  1  0  0  0  0
 47 68  1  0  0  0  0
 48 53  1  0  0  0  0
 48 68  1  0  0  0  0
 49 75  1  0  0  0  0
 50 72  1  0  0  0  0
 51 59  1  0  0  0  0
 51 75  1  0  0  0  0
 52 67  1  0  0  0  0
 53 66  1  0  0  0  0
 54 63  1  0  0  0  0
 55 64  1  0  0  0  0
 56 64  1  0  0  0  0
 57 64  1  0  0  0  0
 58 76  1  0  0  0  0
 59 83  1  0  0  0  0
 60 61  1  0  0  0  0
 60 71  1  0  0  0  0
 61 74  1  0  0  0  0
 62 64  1  0  0  0  0
 62 73  1  0  0  0  0
 63 76  1  0  0  0  0
 65 66  1  0  0  0  0
M  CHG  2  75   1  76   1
M  ISO  4  38 100  59 101  74 100  83 101
M  END
> <Batch ID>
0127

> <Smiles>
CNC(C)C(=O)NC(C(=O)N1Cc2cc([101O:1][101CH2:1]C3NCCc4cc(NCC[100NH:0][100C:0](=O)N5CCCC(n6nc(-c7ccc(Oc8ccc(F)cc8F)cc7)c(C(N)=O)c6N)C5)ccc43)ccc2CC1C(=O)NC1CCCc2ccccc21)C(C)(C)C

> <Shape>
0.193

> <Color>
0.093

> <Negative vol penalty>
0.000

$$$$

  -OEChem-04052320403D

 83 92  0     1  0  0  0  0  0999 V2000
  -27.8853  -10.0327   20.6071 C   0  0  0  0  0  0  0  0  0  0  0  0
  -28.5799  -11.2165   20.3799 C   0  0  0  0  0  0  0  0  0  0  0  0
  -22.9292  -29.3508   21.8946 C   0  0  0  0  0  0  0  0  0  0  0  0
  -22.4511  -29.1403   19.5357 C   0  0  0  0  0  0  0  0  0  0  0  0
  -26.4943  -10.0490   20.7005 C   0  0  0  0  0  0  0  0  0  0  0  0
  -27.8837  -12.4171   20.2448 C   0  0  0  0  0  0  0  0  0  0  0  0
  -29.7160  -17.9626   22.0875 C   0  0  0  0  0  0  0  0  0  0  0  0
  -21.6536  -29.8740   22.1064 C   0  0  0  0  0  0  0  0  0  0  0  0
  -21.1755  -29.6634   19.7476 C   0  0  0  0  0  0  0  0  0  0  0  0
  -30.3083  -19.0278   21.4105 C   0  0  0  0  0  0  0  0  0  0  0  0
  -18.3948  -30.9284   23.3244 C   0  0  0  0  0  0  0  0  0  0  0  0
  -17.6670  -30.4429   24.4107 C   0  0  0  0  0  0  0  0  0  0  0  0
  -28.1387  -20.0414   21.1194 C   0  0  0  0  0  0  0  0  0  0  0  0
  -30.8136  -24.0574   19.7984 C   0  0  0  0  0  0  0  0  0  0  0  0
  -17.7671  -28.2148   23.4821 C   0  0  0  0  0  0  0  0  0  0  0  0
  -30.6983  -24.0980   17.0724 C   0  0  0  0  0  0  0  0  0  0  0  0
  -23.3280  -28.9840   20.6092 C   0  0  0  0  0  0  0  0  0  0  0  0
  -25.0275  -27.0898   20.4330 C   0  0  0  0  0  0  0  0  0  0  0  0
  -25.7814  -11.2518   20.5761 C   0  0  0  0  0  0  0  0  0  0  0  0
  -28.3270  -17.9234   22.2764 C   0  0  0  0  0  0  0  0  0  0  0  0
  -26.4818  -12.4493   20.3352 C   0  0  0  0  0  0  0  0  0  0  0  0
  -27.5315  -18.9759   21.8015 C   0  0  0  0  0  0  0  0  0  0  0  0
  -31.5557  -25.0022   19.0983 C   0  0  0  0  0  0  0  0  0  0  0  0
  -31.5024  -25.0296   17.7091 C   0  0  0  0  0  0  0  0  0  0  0  0
  -20.7768  -30.0302   21.0329 C   0  0  0  0  0  0  0  0  0  0  0  0
  -29.5194  -20.0659   20.9238 C   0  0  0  0  0  0  0  0  0  0  0  0
  -18.8087  -30.0570   22.3168 C   0  0  0  0  0  0  0  0  0  0  0  0
  -17.3531  -29.0861   24.4896 C   0  0  0  0  0  0  0  0  0  0  0  0
  -18.4949  -28.7002   22.3957 C   0  0  0  0  0  0  0  0  0  0  0  0
  -24.6457  -28.4441   20.3897 C   0  0  0  0  0  0  0  0  0  0  0  0
  -30.0401  -23.1695   19.0681 C   0  0  0  0  0  0  0  0  0  0  0  0
  -26.3732  -27.1035   20.1582 C   0  0  0  0  0  0  0  0  0  0  0  0
  -24.2366  -25.9237   20.6978 C   0  0  0  0  0  0  0  0  0  0  0  0
  -25.9948  -15.9622   21.3720 C   0  0  0  0  0  0  0  0  0  0  0  0
  -24.1871  -17.8596   23.2837 C   0  0  0  0  0  0  0  0  0  0  0  0
  -23.7585  -20.8966   24.7802 C   0  0  0  0  0  0  0  0  0  0  0  0
  -30.7102  -28.9375   17.1628 C   0  0  0  0  0  0  0  0  0  0  0  0
  -24.2749  -11.2125   20.6372 C   0  0  0  0  0  0  0  0  0  0  0  0
  -27.7065  -16.7806   23.0322 C   0  0  0  0  0  0  0  0  0  0  0  0
  -26.0381  -18.9913   21.9959 C   0  0  0  0  0  0  0  0  0  0  0  0
  -23.6382  -12.5825   20.8561 C   0  0  0  0  0  0  0  0  0  0  0  0
  -29.6402  -30.9562   19.8935 C   0  0  0  0  0  0  0  0  0  0  0  0
  -32.0277  -26.3151   21.2725 C   0  0  0  0  0  0  0  0  0  0  0  0
  -31.8345  -27.3287   20.1883 C   0  0  0  0  0  0  0  0  0  0  0  0
  -24.2648  -13.6170   19.9265 C   0  0  0  0  0  0  0  0  0  0  0  0
  -28.2749  -30.3750   20.2651 C   0  0  0  0  0  0  0  0  0  0  0  0
  -29.8756  -30.9240   18.3850 C   0  0  0  0  0  0  0  0  0  0  0  0
  -28.3324  -29.0195   18.1301 C   0  0  0  0  0  0  0  0  0  0  0  0
  -32.3996  -25.9736   19.8540 C   0  0  0  0  0  0  0  0  0  0  0  0
  -25.7639  -13.7754   20.2079 C   0  0  1  0  0  0  0  0  0  0  0  0
  -26.2259  -16.5899   22.7174 C   0  0  1  0  0  0  0  0  0  0  0  0
  -28.0723  -28.9791   19.6457 C   0  0  2  0  0  0  0  0  0  0  0  0
  -22.1659  -22.1607   26.2510 C   0  0  0  0  0  0  0  0  0  0  0  0
  -22.3049  -18.2421   20.9128 C   0  0  0  0  0  0  0  0  0  0  0  0
  -21.3097  -20.2036   22.1088 C   0  0  0  0  0  0  0  0  0  0  0  0
  -21.1597  -17.9252   23.1134 C   0  0  0  0  0  0  0  0  0  0  0  0
  -25.8038  -21.2479   26.8902 C   0  0  0  0  0  0  0  0  0  0  0  0
  -32.2761  -26.0187   16.9080 C   0  0  0  0  0  0  0  0  0  0  0  0
  -29.2267  -22.1360   19.7903 C   0  0  0  0  0  0  0  0  0  1  0  0
  -31.4062  -26.8720   15.9760 C   0  0  0  0  0  0  0  0  0  0  0  0
  -23.3858  -19.1235   23.0856 C   0  0  1  0  0  0  0  0  0  0  0  0
  -23.4017  -21.2755   26.2062 C   0  0  2  0  0  0  0  0  0  0  0  0
  -22.0679  -18.8727   22.2996 C   0  0  0  0  0  0  0  0  0  0  0  0
  -29.9632  -23.1654   17.7184 N   0  0  0  0  0  0  0  0  0  0  0  0
  -25.6663  -29.2589   20.1096 N   0  0  0  0  0  0  0  0  0  0  0  0
  -26.7028  -28.4142   19.9745 N   0  0  0  0  0  0  0  0  0  0  0  0
  -25.4776  -17.8484   22.7357 N   0  0  0  0  0  0  0  0  0  0  0  0
  -29.6691  -29.5719   17.8605 N   0  0  0  0  0  0  0  0  0  0  0  0
  -27.2948  -26.1222   20.0583 N   0  0  0  0  0  0  0  0  0  0  0  0
  -22.8699  -26.0889   20.9608 N   0  0  0  0  0  0  0  0  0  0  0  0
  -25.9736  -14.5807   21.3919 N   0  0  0  0  0  0  0  0  0  0  0  0
  -23.1900  -19.6951   24.4135 N   0  0  0  0  0  0  0  0  0  0  0  0
  -30.4335  -27.6551   16.7050 N   0  0  0  0  0  0  0  0  0  0  0  0
  -24.5299  -22.0108   26.8446 N   0  3  0  0  0  0  0  0  0  0  0  0
  -24.7305  -24.7708   20.7174 O   0  0  0  0  0  0  0  0  0  0  0  0
  -25.8451  -16.6783   20.3889 O   0  0  0  0  0  0  0  0  0  0  0  0
  -23.6891  -16.9195   23.9081 O   0  0  0  0  0  0  0  0  0  0  0  0
  -24.4673  -21.5983   24.0620 O   0  0  0  0  0  0  0  0  0  0  0  0
  -31.8070  -29.4721   16.9674 O   0  0  0  0  0  0  0  0  0  0  0  0
  -19.5319  -30.5404   21.2393 O   0  0  0  0  0  0  0  0  0  0  0  0
  -30.0949  -21.1065   20.2620 O   0  0  0  0  0  0  0  0  0  1  0  0
  -16.6555  -28.6198   25.5337 F   0  0  0  0  0  0  0  0  0  0  0  0
  -18.8908  -27.8581   21.4314 F   0  0  0  0  0  0  0  0  0  0  0  0
  1  2  1  0  0  0  0
  1  5  2  0  0  0  0
  2  6  2  0  0  0  0
  3  8  2  0  0  0  0
  3 17  1  0  0  0  0
  4  9  1  0  0  0  0
  4 17  2  0  0  0  0
  5 19  1  0  0  0  0
  6 21  1  0  0  0  0
  7 10  2  0  0  0  0
  7 20  1  0  0  0  0
  8 25  1  0  0  0  0
  9 25  2  0  0  0  0
 10 26  1  0  0  0  0
 11 12  2  0  0  0  0
 11 27  1  0  0  0  0
 12 28  1  0  0  0  0
 13 22  1  0  0  0  0
 13 26  2  0  0  0  0
 14 23  2  0  0  0  0
 14 31  1  0  0  0  0
 15 28  2  0  0  0  0
 15 29  1  0  0  0  0
 16 24  2  0  0  0  0
 16 64  1  0  0  0  0
 17 30  1  0  0  0  0
 18 30  1  0  0  0  0
 18 32  2  0  0  0  0
 18 33  1  0  0  0  0
 19 21  2  0  0  0  0
 19 38  1  0  0  0  0
 20 22  2  0  0  0  0
 20 39  1  0  0  0  0
 21 50  1  0  0  0  0
 22 40  1  0  0  0  0
 23 24  1  0  0  0  0
 23 49  1  0  0  0  0
 24 58  1  0  0  0  0
 25 80  1  0  0  0  0
 26 81  1  0  0  0  0
 27 29  2  0  0  0  0
 27 80  1  0  0  0  0
 28 82  1  0  0  0  0
 29 83  1  0  0  0  0
 30 65  2  0  0  0  0
 31 59  1  0  0  0  0
 31 64  2  0  0  0  0
 32 66  1  0  0  0  0
 32 69  1  0  0  0  0
 33 70  1  0  0  0  0
 33 75  2  0  0  0  0
 34 51  1  0  0  0  0
 34 71  1  0  0  0  0
 34 76  2  0  0  0  0
 35 61  1  0  0  0  0
 35 67  1  0  0  0  0
 35 77  2  0  0  0  0
 36 62  1  0  0  0  0
 36 72  1  0  0  0  0
 36 78  2  0  0  0  0
 37 68  1  0  0  0  0
 37 73  1  0  0  0  0
 37 79  2  0  0  0  0
 38 41  1  0  0  0  0
 39 51  1  0  0  0  0
 40 67  1  0  0  0  0
 41 45  1  0  0  0  0
 42 46  1  0  0  0  0
 42 47  1  0  0  0  0
 43 44  1  0  0  0  0
 43 49  1  0  0  0  0
 44 49  1  0  0  0  0
 45 50  1  0  0  0  0
 46 52  1  0  0  0  0
 47 68  1  0  0  0  0
 48 52  1  0  0  0  0
 48 68  1  0  0  0  0
 50 71  1  0  0  0  0
 51 67  1  0  0  0  0
 52 66  1  0  0  0  0
 53 62  1  0  0  0  0
 54 63  1  0  0  0  0
 55 63  1  0  0  0  0
 56 63  1  0  0  0  0
 57 74  1  0  0  0  0
 58 60  1  0  0  0  0
 59 81  1  0  0  0  0
 60 73  1  0  0  0  0
 61 63  1  0  0  0  0
 61 72  1  0  0  0  0
 62 74  1  0  0  0  0
 65 66  1  0  0  0  0
M  CHG  1  74   1
M  ISO  4  37 100  59 101  73 100  81 101
M  END
> <Batch ID>
0127

> <Smiles>
CNC(C)C(=O)NC(C(=O)N1Cc2cc([101O:1][101CH2:1]c3cc(C4CC4)c(CC[100NH:0][100C:0](=O)N4CCCC(n5nc(-c6ccc(Oc7ccc(F)cc7F)cc6)c(C(N)=O)c5N)C4)cn3)ccc2CC1C(=O)NC1CCCc2ccccc21)C(C)(C)C

> <Shape>
0.223

> <Color>
0.069

> <Negative vol penalty>
0.000

$$$$

  -OEChem-04052320403D

 87 97  0     1  0  0  0  0  0999 V2000
  -21.6466  -34.2858   27.3624 C   0  0  0  0  0  0  0  0  0  0  0  0
  -22.9091  -33.8528   26.9699 C   0  0  0  0  0  0  0  0  0  0  0  0
  -27.3221  -12.0064   21.9231 C   0  0  0  0  0  0  0  0  0  0  0  0
  -26.3102  -14.1683   21.5497 C   0  0  0  0  0  0  0  0  0  0  0  0
  -20.5160  -33.5558   26.9979 C   0  0  0  0  0  0  0  0  0  0  0  0
  -23.0418  -32.6888   26.2137 C   0  0  0  0  0  0  0  0  0  0  0  0
  -30.4036  -22.8068   20.4242 C   0  0  0  0  0  0  0  0  0  0  0  0
  -27.1227  -29.7988   21.0843 C   0  0  0  0  0  0  0  0  0  0  0  0
  -29.8229  -24.0255   20.7750 C   0  0  0  0  0  0  0  0  0  0  0  0
  -26.0608  -11.4549   22.1481 C   0  0  0  0  0  0  0  0  0  0  0  0
  -25.0489  -13.6167   21.7746 C   0  0  0  0  0  0  0  0  0  0  0  0
  -27.8578  -28.6452   20.8149 C   0  0  0  0  0  0  0  0  0  0  0  0
  -23.4342  -10.4061   20.2950 C   0  0  0  0  0  0  0  0  0  0  0  0
  -23.1404   -9.1883   19.6815 C   0  0  0  0  0  0  0  0  0  0  0  0
  -25.8283  -27.5084   20.1762 C   0  0  0  0  0  0  0  0  0  0  0  0
  -30.6707  -25.0151   18.7405 C   0  0  0  0  0  0  0  0  0  0  0  0
  -22.7822   -8.1829   21.8490 C   0  0  0  0  0  0  0  0  0  0  0  0
  -27.4468  -13.3631   21.6240 C   0  0  0  0  0  0  0  0  0  0  0  0
  -29.6728  -13.5667   20.3948 C   0  0  0  0  0  0  0  0  0  0  0  0
  -20.6342  -32.3876   26.2285 C   0  0  0  0  0  0  0  0  0  0  0  0
  -25.7311  -29.8126   20.9118 C   0  0  0  0  0  0  0  0  0  0  0  0
  -21.9118  -31.9418   25.8397 C   0  0  0  0  0  0  0  0  0  0  0  0
  -31.1179  -22.6922   19.2316 C   0  0  0  0  0  0  0  0  0  0  0  0
  -25.0781  -28.6642   20.4417 C   0  0  0  0  0  0  0  0  0  0  0  0
  -29.9564  -25.1297   19.9331 C   0  0  0  0  0  0  0  0  0  0  0  0
  -31.2515  -23.7963   18.3897 C   0  0  0  0  0  0  0  0  0  0  0  0
  -24.9242  -12.2600   22.0738 C   0  0  0  0  0  0  0  0  0  0  0  0
  -27.2103  -27.4989   20.3635 C   0  0  0  0  0  0  0  0  0  0  0  0
  -23.4021  -10.5123   21.6855 C   0  0  0  0  0  0  0  0  0  0  0  0
  -22.8144   -8.0767   20.4585 C   0  0  0  0  0  0  0  0  0  0  0  0
  -23.0761   -9.4007   22.4625 C   0  0  0  0  0  0  0  0  0  0  0  0
  -28.7495  -13.9335   21.3921 C   0  0  0  0  0  0  0  0  0  0  0  0
  -30.7456  -14.4004   20.5967 C   0  0  0  0  0  0  0  0  0  0  0  0
  -29.5701  -12.5622   19.3769 C   0  0  0  0  0  0  0  0  0  0  0  0
  -23.2370  -30.2522   22.8326 C   0  0  0  0  0  0  0  0  0  0  0  0
  -21.5702  -30.1376   20.0522 C   0  0  0  0  0  0  0  0  0  0  0  0
  -21.4167  -29.0918   16.8072 C   0  0  0  0  0  0  0  0  0  0  0  0
  -32.6772  -19.6004   21.6206 C   0  0  0  0  0  0  0  0  0  0  0  0
  -19.3870  -31.6062   25.8989 C   0  0  0  0  0  0  0  0  0  0  0  0
  -24.9560  -31.0731   21.1812 C   0  0  0  0  0  0  0  0  0  0  0  0
  -23.5886  -28.6333   20.2207 C   0  0  0  0  0  0  0  0  0  0  0  0
  -19.5845  -30.5878   24.7790 C   0  0  0  0  0  0  0  0  0  0  0  0
  -31.8610  -17.4926   24.4117 C   0  0  0  0  0  0  0  0  0  0  0  0
  -30.9006  -23.1265   13.5893 C   0  0  0  0  0  0  0  0  0  0  0  0
  -20.8620  -29.7857   25.0061 C   0  0  0  0  0  0  0  0  0  0  0  0
  -31.0106  -16.3798   23.8077 C   0  0  0  0  0  0  0  0  0  0  0  0
  -31.8927  -22.8537   14.7042 C   0  0  0  0  0  0  0  0  0  0  0  0
  -31.6085  -18.8161   23.7021 C   0  0  0  0  0  0  0  0  0  0  0  0
  -33.1355  -20.9001   19.4762 C   0  0  0  0  0  0  0  0  0  0  0  0
  -31.2097  -19.9963   19.4946 C   0  0  0  0  0  0  0  0  0  0  0  0
  -31.0467  -17.6359   21.5937 C   0  0  0  0  0  0  0  0  0  0  0  0
  -30.3135  -24.4707   13.9711 C   0  0  0  0  0  0  0  0  0  0  0  0
  -31.7746  -21.2868   18.8500 C   0  0  0  0  0  0  0  0  0  0  0  0
  -22.0948  -30.6976   24.9978 C   0  0  1  0  0  0  0  0  0  0  0  0
  -23.4783  -30.8175   21.4616 C   0  0  1  0  0  0  0  0  0  0  0  0
  -31.2537  -16.2786   22.2950 C   0  0  2  0  0  0  0  0  0  0  0  0
  -31.1292  -23.2875   15.9469 C   0  0  1  0  0  0  0  0  0  0  0  0
  -19.9124  -29.1159   14.7988 C   0  0  0  0  0  0  0  0  0  0  0  0
  -19.8454  -27.9640   21.3211 C   0  0  0  0  0  0  0  0  0  0  0  0
  -19.0231  -27.3767   19.0304 C   0  0  0  0  0  0  0  0  0  0  0  0
  -18.5788  -29.6445   19.9697 C   0  0  0  0  0  0  0  0  0  0  0  0
  -23.3960  -30.5926   15.1982 C   0  0  0  0  0  0  0  0  0  0  0  0
  -32.0120  -23.6945   17.1090 C   0  0  0  0  0  0  0  0  0  0  0  0
  -29.3353  -26.4325   20.3086 C   0  0  0  0  0  0  0  0  0  1  0  0
  -20.9230  -29.0435   19.2379 C   0  0  1  0  0  0  0  0  0  0  0  0
  -21.0433  -29.8224   15.5300 C   0  0  2  0  0  0  0  0  0  0  0  0
  -19.6204  -28.5068   19.8957 C   0  0  0  0  0  0  0  0  0  0  0  0
  -29.1965  -14.9231   22.1699 N   0  0  0  0  0  0  0  0  0  0  0  0
  -30.4126  -15.1850   21.6614 N   0  0  0  0  0  0  0  0  0  0  0  0
  -22.8738  -29.8888   20.5043 N   0  0  0  0  0  0  0  0  0  0  0  0
  -31.8026  -18.7098   22.2530 N   0  0  0  0  0  0  0  0  0  0  0  0
  -32.4011  -19.9715   20.3242 N   0  0  0  0  0  0  0  0  0  0  0  0
  -31.9317  -14.5313   19.9657 N   0  0  0  0  0  0  0  0  0  0  0  0
  -28.3989  -11.7952   19.3109 N   0  0  0  0  0  0  0  0  0  0  0  0
  -22.4520  -31.0522   23.6409 N   0  0  0  0  0  0  0  0  0  0  0  0
  -20.7350  -29.5887   17.8979 N   0  0  0  0  0  0  0  0  0  0  0  0
  -30.3166  -24.4654   15.4740 N   0  3  0  0  0  0  0  0  0  0  0  0
  -22.2176  -29.9006   14.6158 N   0  3  0  0  0  0  0  0  0  0  0  0
  -30.4963  -12.3400   18.5606 O   0  0  0  0  0  0  0  0  0  0  0  0
  -23.7255  -29.1696   23.1344 O   0  0  0  0  0  0  0  0  0  0  0  0
  -20.9449  -31.1778   20.2726 O   0  0  0  0  0  0  0  0  0  0  0  0
  -22.2291  -28.1698   16.8341 O   0  0  0  0  0  0  0  0  0  0  0  0
  -33.6597  -20.0764   22.2047 O   0  0  0  0  0  0  0  0  0  0  0  0
  -23.6933  -11.7221   22.2930 O   0  0  0  0  0  0  0  0  0  0  0  0
  -27.9302  -26.3636   20.0987 O   0  0  0  0  0  0  0  0  0  1  0  0
  -22.5308   -6.9078   19.8692 F   0  0  0  0  0  0  0  0  0  0  0  0
  -23.0424   -9.4968   23.7987 F   0  0  0  0  0  0  0  0  0  0  0  0
  1  2  1  0  0  0  0
  1  5  2  0  0  0  0
  2  6  2  0  0  0  0
  3 10  2  0  0  0  0
  3 18  1  0  0  0  0
  4 11  1  0  0  0  0
  4 18  2  0  0  0  0
  5 20  1  0  0  0  0
  6 22  1  0  0  0  0
  7  9  2  0  0  0  0
  7 23  1  0  0  0  0
  8 12  2  0  0  0  0
  8 21  1  0  0  0  0
  9 25  1  0  0  0  0
 10 27  1  0  0  0  0
 11 27  2  0  0  0  0
 12 28  1  0  0  0  0
 13 14  2  0  0  0  0
 13 29  1  0  0  0  0
 14 30  1  0  0  0  0
 15 24  1  0  0  0  0
 15 28  2  0  0  0  0
 16 25  2  0  0  0  0
 16 26  1  0  0  0  0
 17 30  2  0  0  0  0
 17 31  1  0  0  0  0
 18 32  1  0  0  0  0
 19 32  1  0  0  0  0
 19 33  2  0  0  0  0
 19 34  1  0  0  0  0
 20 22  2  0  0  0  0
 20 39  1  0  0  0  0
 21 24  2  0  0  0  0
 21 40  1  0  0  0  0
 22 54  1  0  0  0  0
 23 26  2  0  0  0  0
 23 53  1  0  0  0  0
 24 41  1  0  0  0  0
 25 64  1  0  0  0  0
 26 63  1  0  0  0  0
 27 84  1  0  0  0  0
 28 85  1  0  0  0  0
 29 31  2  0  0  0  0
 29 84  1  0  0  0  0
 30 86  1  0  0  0  0
 31 87  1  0  0  0  0
 32 68  2  0  0  0  0
 33 69  1  0  0  0  0
 33 73  1  0  0  0  0
 34 74  1  0  0  0  0
 34 79  2  0  0  0  0
 35 55  1  0  0  0  0
 35 75  1  0  0  0  0
 35 80  2  0  0  0  0
 36 65  1  0  0  0  0
 36 70  1  0  0  0  0
 36 81  2  0  0  0  0
 37 66  1  0  0  0  0
 37 76  1  0  0  0  0
 37 82  2  0  0  0  0
 38 71  1  0  0  0  0
 38 72  1  0  0  0  0
 38 83  2  0  0  0  0
 39 42  1  0  0  0  0
 40 55  1  0  0  0  0
 41 70  1  0  0  0  0
 42 45  1  0  0  0  0
 43 46  1  0  0  0  0
 43 48  1  0  0  0  0
 44 47  1  0  0  0  0
 44 52  1  0  0  0  0
 45 54  1  0  0  0  0
 46 56  1  0  0  0  0
 47 57  1  0  0  0  0
 48 71  1  0  0  0  0
 49 53  1  0  0  0  0
 49 72  1  0  0  0  0
 50 53  1  0  0  0  0
 50 72  1  0  0  0  0
 51 56  1  0  0  0  0
 51 71  1  0  0  0  0
 52 77  1  0  0  0  0
 54 75  1  0  0  0  0
 55 70  1  0  0  0  0
 56 69  1  0  0  0  0
 57 63  1  0  0  0  0
 57 77  1  0  0  0  0
 58 66  1  0  0  0  0
 59 67  1  0  0  0  0
 60 67  1  0  0  0  0
 61 67  1  0  0  0  0
 62 78  1  0  0  0  0
 64 85  1  0  0  0  0
 65 67  1  0  0  0  0
 65 76  1  0  0  0  0
 66 78  1  0  0  0  0
 68 69  1  0  0  0  0
M  CHG  2  77   1  78   1
M  ISO  4  38 100  64 101  72 100  85 101
M  END
> <Batch ID>
0127

> <Smiles>
CNC(C)C(=O)NC(C(=O)N1Cc2cc([101O:1][101CH2:1]c3ccc(C4C[100N:0]([100C:0](=O)N5CCCC(n6nc(-c7ccc(Oc8ccc(F)cc8F)cc7)c(C(N)=O)c6N)C5)C4)c(CC4CCCN4)c3)ccc2CC1C(=O)NC1CCCc2ccccc21)C(C)(C)C

> <Shape>
0.255

> <Color>
0.091

> <Negative vol penalty>
0.000

$$$$

  -OEChem-04052320403D

 88 98  0     1  0  0  0  0  0999 V2000
  -29.3275  -31.9581   25.6427 C   0  0  0  0  0  0  0  0  0  0  0  0
  -28.9996  -30.6527   25.2907 C   0  0  0  0  0  0  0  0  0  0  0  0
  -23.0002  -12.9266   23.2069 C   0  0  0  0  0  0  0  0  0  0  0  0
  -22.8991  -14.8519   21.7509 C   0  0  0  0  0  0  0  0  0  0  0  0
  -28.3358  -32.9372   25.6864 C   0  0  0  0  0  0  0  0  0  0  0  0
  -27.6794  -30.3254   24.9833 C   0  0  0  0  0  0  0  0  0  0  0  0
  -27.3087  -27.4318   20.8439 C   0  0  0  0  0  0  0  0  0  0  0  0
  -22.0489  -13.5096   24.0439 C   0  0  0  0  0  0  0  0  0  0  0  0
  -21.9478  -15.4350   22.5879 C   0  0  0  0  0  0  0  0  0  0  0  0
  -27.6040  -26.0767   20.9858 C   0  0  0  0  0  0  0  0  0  0  0  0
  -18.6942  -13.9301   24.0894 C   0  0  0  0  0  0  0  0  0  0  0  0
  -17.6499  -13.1247   24.5437 C   0  0  0  0  0  0  0  0  0  0  0  0
  -28.5139  -20.2161   17.9231 C   0  0  0  0  0  0  0  0  0  0  0  0
  -25.2458  -25.5802   21.0933 C   0  0  0  0  0  0  0  0  0  0  0  0
  -18.3336  -13.5254   26.8260 C   0  0  0  0  0  0  0  0  0  0  0  0
  -28.6116  -19.2496   16.9351 C   0  0  0  0  0  0  0  0  0  0  0  0
  -23.4253  -13.5978   22.0603 C   0  0  0  0  0  0  0  0  0  0  0  0
  -24.1694  -12.1517   20.0949 C   0  0  0  0  0  0  0  0  0  0  0  0
  -27.0045  -32.6238   25.3700 C   0  0  0  0  0  0  0  0  0  0  0  0
  -25.9777  -27.8733   20.8366 C   0  0  0  0  0  0  0  0  0  0  0  0
  -26.6687  -31.3009   25.0241 C   0  0  0  0  0  0  0  0  0  0  0  0
  -29.1728  -19.9864   19.1257 C   0  0  0  0  0  0  0  0  0  0  0  0
  -24.9362  -26.9412   20.9486 C   0  0  0  0  0  0  0  0  0  0  0  0
  -29.8989  -18.8137   19.3012 C   0  0  0  0  0  0  0  0  0  0  0  0
  -21.5227  -14.7638   23.7345 C   0  0  0  0  0  0  0  0  0  0  0  0
  -26.5726  -25.1509   21.1134 C   0  0  0  0  0  0  0  0  0  0  0  0
  -19.5583  -14.5330   25.0035 C   0  0  0  0  0  0  0  0  0  0  0  0
  -17.4695  -12.9224   25.9119 C   0  0  0  0  0  0  0  0  0  0  0  0
  -19.3780  -14.3308   26.3718 C   0  0  0  0  0  0  0  0  0  0  0  0
  -24.4084  -12.9963   21.1955 C   0  0  0  0  0  0  0  0  0  0  0  0
  -29.9344  -17.9098   18.2516 C   0  0  0  0  0  0  0  0  0  0  0  0
  -25.4205  -11.8538   19.6127 C   0  0  0  0  0  0  0  0  0  0  0  0
  -22.9275  -11.6788   19.5566 C   0  0  0  0  0  0  0  0  0  0  0  0
  -24.2423  -29.7969   22.6782 C   0  0  0  0  0  0  0  0  0  0  0  0
  -21.9953  -29.3212   20.3876 C   0  0  0  0  0  0  0  0  0  0  0  0
  -20.7827  -27.3428   17.8851 C   0  0  0  0  0  0  0  0  0  0  0  0
  -30.6885  -14.6832   19.9183 C   0  0  0  0  0  0  0  0  0  0  0  0
  -25.9590  -33.7055   25.4771 C   0  0  0  0  0  0  0  0  0  0  0  0
  -25.6751  -29.3355   20.6559 C   0  0  0  0  0  0  0  0  0  0  0  0
  -23.4901  -27.3614   20.9264 C   0  0  0  0  0  0  0  0  0  0  0  0
  -24.6495  -33.3587   24.7733 C   0  0  0  0  0  0  0  0  0  0  0  0
  -30.1812  -17.1931   24.8046 C   0  0  0  0  0  0  0  0  0  0  0  0
  -29.9651  -11.3794   21.0312 C   0  0  0  0  0  0  0  0  0  0  0  0
  -24.2137  -31.9399   25.1254 C   0  0  0  0  0  0  0  0  0  0  0  0
  -28.4374  -11.3430   21.1002 C   0  0  0  0  0  0  0  0  0  0  0  0
  -29.8465  -16.2692   23.6143 C   0  0  0  0  0  0  0  0  0  0  0  0
  -30.2761  -18.3501   23.7874 C   0  0  0  0  0  0  0  0  0  0  0  0
  -28.0448  -20.8452   21.2879 C   0  0  0  0  0  0  0  0  0  0  0  0
  -30.5165  -12.7415   21.4469 C   0  0  0  0  0  0  0  0  0  0  0  0
  -28.4183  -13.8529   20.7864 C   0  0  0  0  0  0  0  0  0  0  0  0
  -29.0874  -21.0024   20.2023 C   0  0  2  0  0  0  0  0  0  0  0  0
  -25.2523  -30.9123   24.6598 C   0  0  1  0  0  0  0  0  0  0  0  0
  -24.2970  -29.7295   21.1782 C   0  0  1  0  0  0  0  0  0  0  0  0
  -27.8854  -21.9223   20.2565 C   0  0  2  0  0  0  0  0  0  0  0  0
  -27.8128  -12.5171   20.3226 C   0  0  2  0  0  0  0  0  0  0  0  0
  -30.5956  -17.2811   22.7189 C   0  0  0  0  0  0  0  0  0  0  0  0
  -18.9104  -27.1978   16.2206 C   0  0  0  0  0  0  0  0  0  0  0  0
  -20.0862  -28.4756   22.6124 C   0  0  0  0  0  0  0  0  0  0  0  0
  -18.6088  -27.4613   20.8640 C   0  0  0  0  0  0  0  0  0  0  0  0
  -19.0567  -29.9152   20.8455 C   0  0  0  0  0  0  0  0  0  0  0  0
  -22.6584  -27.3961   15.5964 C   0  0  0  0  0  0  0  0  0  0  0  0
  -30.6163  -18.5384   20.5802 C   0  0  0  0  0  0  0  0  0  0  0  0
  -30.6975  -16.6321   18.3818 C   0  0  0  0  0  0  0  0  0  0  0  0
  -28.0545  -23.3530   20.6365 C   0  0  0  0  0  0  0  0  0  1  0  0
  -20.8920  -28.3152   20.1648 C   0  0  1  0  0  0  0  0  0  0  0  0
  -20.3348  -27.6678   16.4715 C   0  0  2  0  0  0  0  0  0  0  0  0
  -19.6881  -28.5338   21.1241 C   0  0  0  0  0  0  0  0  0  0  0  0
  -29.3073  -18.0983   17.0689 N   0  0  0  0  0  0  0  0  0  0  0  0
  -25.7091  -13.2204   21.4007 N   0  0  0  0  0  0  0  0  0  0  0  0
  -26.2986  -12.5121   20.4224 N   0  0  0  0  0  0  0  0  0  0  0  0
  -23.2456  -28.8029   20.7538 N   0  0  0  0  0  0  0  0  0  0  0  0
  -29.8845  -13.8113   20.6710 N   0  0  0  0  0  0  0  0  0  0  0  0
  -25.8441  -11.0954   18.5793 N   0  0  0  0  0  0  0  0  0  0  0  0
  -21.7353  -12.0817   20.1734 N   0  0  0  0  0  0  0  0  0  0  0  0
  -25.1389  -30.6893   23.2344 N   0  0  0  0  0  0  0  0  0  0  0  0
  -20.5494  -28.3921   18.7488 N   0  0  0  0  0  0  0  0  0  0  0  0
  -30.0091  -15.6649   19.2073 N   0  0  0  0  0  0  0  0  0  0  0  0
  -29.9361  -17.5245   21.4322 N   0  3  0  0  0  0  0  0  0  0  0  0
  -21.2294  -27.0068   15.4798 N   0  3  0  0  0  0  0  0  0  0  0  0
  -22.8773  -10.9081   18.5681 O   0  0  0  0  0  0  0  0  0  0  0  0
  -23.4446  -29.0926   23.2860 O   0  0  0  0  0  0  0  0  0  0  0  0
  -21.7585  -30.5222   20.2351 O   0  0  0  0  0  0  0  0  0  0  0  0
  -21.2857  -26.2646   18.1931 O   0  0  0  0  0  0  0  0  0  0  0  0
  -31.9200  -14.5903   19.8785 O   0  0  0  0  0  0  0  0  0  0  0  0
  -20.5942  -15.3329   24.5510 O   0  0  0  0  0  0  0  0  0  0  0  0
  -26.8582  -23.8277   21.2527 O   0  0  0  0  0  0  0  0  0  1  0  0
  -16.4656  -12.1503   26.3481 F   0  0  0  0  0  0  0  0  0  0  0  0
  -20.2041  -14.9084   27.2547 F   0  0  0  0  0  0  0  0  0  0  0  0
  1  2  1  0  0  0  0
  1  5  2  0  0  0  0
  2  6  2  0  0  0  0
  3  8  2  0  0  0  0
  3 17  1  0  0  0  0
  4  9  1  0  0  0  0
  4 17  2  0  0  0  0
  5 19  1  0  0  0  0
  6 21  1  0  0  0  0
  7 10  2  0  0  0  0
  7 20  1  0  0  0  0
  8 25  1  0  0  0  0
  9 25  2  0  0  0  0
 10 26  1  0  0  0  0
 11 12  2  0  0  0  0
 11 27  1  0  0  0  0
 12 28  1  0  0  0  0
 13 16  2  0  0  0  0
 13 22  1  0  0  0  0
 14 23  1  0  0  0  0
 14 26  2  0  0  0  0
 15 28  2  0  0  0  0
 15 29  1  0  0  0  0
 16 68  1  0  0  0  0
 17 30  1  0  0  0  0
 18 30  1  0  0  0  0
 18 32  2  0  0  0  0
 18 33  1  0  0  0  0
 19 21  2  0  0  0  0
 19 38  1  0  0  0  0
 20 23  2  0  0  0  0
 20 39  1  0  0  0  0
 21 52  1  0  0  0  0
 22 24  2  0  0  0  0
 22 51  1  0  0  0  0
 23 40  1  0  0  0  0
 24 31  1  0  0  0  0
 24 62  1  0  0  0  0
 25 85  1  0  0  0  0
 26 86  1  0  0  0  0
 27 29  2  0  0  0  0
 27 85  1  0  0  0  0
 28 87  1  0  0  0  0
 29 88  1  0  0  0  0
 30 69  2  0  0  0  0
 31 63  1  0  0  0  0
 31 68  2  0  0  0  0
 32 70  1  0  0  0  0
 32 73  1  0  0  0  0
 33 74  1  0  0  0  0
 33 80  2  0  0  0  0
 34 53  1  0  0  0  0
 34 75  1  0  0  0  0
 34 81  2  0  0  0  0
 35 65  1  0  0  0  0
 35 71  1  0  0  0  0
 35 82  2  0  0  0  0
 36 66  1  0  0  0  0
 36 76  1  0  0  0  0
 36 83  2  0  0  0  0
 37 72  1  0  0  0  0
 37 77  1  0  0  0  0
 37 84  2  0  0  0  0
 38 41  1  0  0  0  0
 39 53  1  0  0  0  0
 40 71  1  0  0  0  0
 41 44  1  0  0  0  0
 42 46  1  0  0  0  0
 42 47  1  0  0  0  0
 43 45  1  0  0  0  0
 43 49  1  0  0  0  0
 44 52  1  0  0  0  0
 45 55  1  0  0  0  0
 46 56  1  0  0  0  0
 47 56  1  0  0  0  0
 48 51  1  0  0  0  0
 48 54  1  0  0  0  0
 49 72  1  0  0  0  0
 50 55  1  0  0  0  0
 50 72  1  0  0  0  0
 51 54  1  0  0  0  0
 52 75  1  0  0  0  0
 53 71  1  0  0  0  0
 54 64  1  0  0  0  0
 55 70  1  0  0  0  0
 56 78  1  0  0  0  0
 57 66  1  0  0  0  0
 58 67  1  0  0  0  0
 59 67  1  0  0  0  0
 60 67  1  0  0  0  0
 61 79  1  0  0  0  0
 62 78  1  0  0  0  0
 63 77  1  0  0  0  0
 64 86  1  0  0  0  0
 65 67  1  0  0  0  0
 65 76  1  0  0  0  0
 66 79  1  0  0  0  0
 69 70  1  0  0  0  0
M  CHG  2  78   1  79   1
M  ISO  4  37 100  64 101  77 100  86 101
M  END
> <Batch ID>
0127

> <Smiles>
CNC(C)C(=O)NC(C(=O)N1Cc2cc([101O:1][101CH2:1]C3CC3c3ccnc(C[100NH:0][100C:0](=O)N4CCCC(n5nc(-c6ccc(Oc7ccc(F)cc7F)cc6)c(C(N)=O)c5N)C4)c3CNC3CCC3)ccc2CC1C(=O)NC1CCCc2ccccc21)C(C)(C)C

> <Shape>
0.273

> <Color>
0.059

> <Negative vol penalty>
0.000

$$$$

  -OEChem-04052320403D

 88 97  0     1  0  0  0  0  0999 V2000
  -24.3432  -30.7807   22.0408 C   0  0  0  0  0  0  0  0  0  0  0  0
  -24.3370  -29.4395   22.4070 C   0  0  0  0  0  0  0  0  0  0  0  0
  -19.1012  -21.9421   23.2641 C   0  0  0  0  0  0  0  0  0  0  0  0
  -19.8794  -23.3665   25.0537 C   0  0  0  0  0  0  0  0  0  0  0  0
  -24.8617  -31.1592   20.8043 C   0  0  0  0  0  0  0  0  0  0  0  0
  -24.8602  -28.4778   21.5420 C   0  0  0  0  0  0  0  0  0  0  0  0
  -25.0233  -22.4043   22.0034 C   0  0  0  0  0  0  0  0  0  0  0  0
  -18.4664  -23.0336   22.6714 C   0  0  0  0  0  0  0  0  0  0  0  0
  -19.2447  -24.4580   24.4610 C   0  0  0  0  0  0  0  0  0  0  0  0
  -24.2339  -21.3214   21.6187 C   0  0  0  0  0  0  0  0  0  0  0  0
  -19.8296  -26.5919   21.9066 C   0  0  0  0  0  0  0  0  0  0  0  0
  -20.5428  -27.7877   21.8236 C   0  0  0  0  0  0  0  0  0  0  0  0
  -25.6035  -21.0285   19.6546 C   0  0  0  0  0  0  0  0  0  0  0  0
  -18.8481  -28.8901   23.1464 C   0  0  0  0  0  0  0  0  0  0  0  0
  -19.8076  -22.1085   24.4553 C   0  0  0  0  0  0  0  0  0  0  0  0
  -19.8621  -19.7911   25.5203 C   0  0  0  0  0  0  0  0  0  0  0  0
  -25.3799  -30.1997   19.9190 C   0  0  0  0  0  0  0  0  0  0  0  0
  -26.1040  -22.8149   21.2097 C   0  0  0  0  0  0  0  0  0  0  0  0
  -25.4098  -28.8426   20.2996 C   0  0  0  0  0  0  0  0  0  0  0  0
  -26.4067  -22.1153   20.0328 C   0  0  0  0  0  0  0  0  0  0  0  0
  -18.5382  -24.2916   23.2698 C   0  0  0  0  0  0  0  0  0  0  0  0
  -24.5222  -20.6352   20.4427 C   0  0  0  0  0  0  0  0  0  0  0  0
  -18.6257  -26.5451   22.6094 C   0  0  0  0  0  0  0  0  0  0  0  0
  -20.0521  -28.9368   22.4435 C   0  0  0  0  0  0  0  0  0  0  0  0
  -18.1349  -27.6943   23.2294 C   0  0  0  0  0  0  0  0  0  0  0  0
  -20.4630  -20.9813   25.0684 C   0  0  0  0  0  0  0  0  0  0  0  0
  -20.9045  -19.0473   26.0169 C   0  0  0  0  0  0  0  0  0  0  0  0
  -18.4849  -19.3934   25.4935 C   0  0  0  0  0  0  0  0  0  0  0  0
  -26.8467  -25.4731   19.6329 C   0  0  0  0  0  0  0  0  0  0  0  0
  -29.6521  -23.9251   19.1275 C   0  0  0  0  0  0  0  0  0  0  0  0
  -30.6982  -20.5725   18.3009 C   0  0  0  0  0  0  0  0  0  0  0  0
  -26.1045  -17.0658   25.5941 C   0  0  0  0  0  0  0  0  0  0  0  0
  -25.9357  -30.6656   18.5964 C   0  0  0  0  0  0  0  0  0  0  0  0
  -26.9621  -23.9682   21.6524 C   0  0  0  0  0  0  0  0  0  0  0  0
  -27.5681  -22.5035   19.1559 C   0  0  0  0  0  0  0  0  0  0  0  0
  -26.0573  -29.5410   17.5733 C   0  0  0  0  0  0  0  0  0  0  0  0
  -25.7056  -20.3281   26.9634 C   0  0  0  0  0  0  0  0  0  0  0  0
  -26.7631  -28.3458   18.1962 C   0  0  0  0  0  0  0  0  0  0  0  0
  -23.2455  -16.0039   21.1060 C   0  0  0  0  0  0  0  0  0  0  0  0
  -25.4660  -16.2258   19.9161 C   0  0  0  0  0  0  0  0  0  0  0  0
  -25.9728  -11.9914   20.1292 C   0  0  0  0  0  0  0  0  0  0  0  0
  -24.2592  -20.6927   26.6243 C   0  0  0  0  0  0  0  0  0  0  0  0
  -26.1383  -12.4553   21.5796 C   0  0  0  0  0  0  0  0  0  0  0  0
  -22.8962  -17.4363   20.7134 C   0  0  0  0  0  0  0  0  0  0  0  0
  -25.1108  -17.6578   19.5272 C   0  0  0  0  0  0  0  0  0  0  0  0
  -26.3596  -19.5167   25.8471 C   0  0  0  0  0  0  0  0  0  0  0  0
  -24.1667  -18.6770   25.0988 C   0  0  0  0  0  0  0  0  0  0  0  0
  -25.9456  -27.7756   19.3622 C   0  0  1  0  0  0  0  0  0  0  0  0
  -27.7255  -24.6203   20.5037 C   0  0  1  0  0  0  0  0  0  0  0  0
  -24.2108  -15.3617   20.1000 C   0  0  0  0  0  0  0  0  0  0  0  0
  -24.5886  -13.9490   20.5416 C   0  0  1  0  0  0  0  0  0  0  0  0
  -25.1786  -13.0957   19.4074 C   0  0  2  0  0  0  0  0  0  0  0  0
  -23.4473  -19.4478   26.2189 C   0  0  2  0  0  0  0  0  0  0  0  0
  -25.7188  -13.9166   21.5642 C   0  0  1  0  0  0  0  0  0  0  0  0
  -24.1468  -18.2915   20.5281 C   0  0  0  0  0  0  0  0  0  1  0  0
  -32.8430  -19.3653   18.7905 C   0  0  0  0  0  0  0  0  0  0  0  0
  -24.7869  -11.6970   17.3595 C   0  0  0  0  0  0  0  0  0  0  0  0
  -23.1004  -11.6997   19.2194 C   0  0  0  0  0  0  0  0  0  0  0  0
  -30.4936  -24.8981   16.3607 C   0  0  0  0  0  0  0  0  0  0  0  0
  -31.6270  -22.6939   16.0068 C   0  0  0  0  0  0  0  0  0  0  0  0
  -32.3850  -24.2038   17.8422 C   0  0  0  0  0  0  0  0  0  0  0  0
  -29.2750  -18.3404   19.6242 C   0  0  0  0  0  0  0  0  0  0  0  0
  -25.6909  -14.6355   25.3078 C   0  0  0  0  0  0  0  0  0  0  0  0
  -26.2752  -14.1750   23.9855 C   0  0  0  0  0  0  0  0  0  0  0  0
  -30.1802  -22.9875   18.0687 C   0  0  1  0  0  0  0  0  0  0  0  0
  -31.4006  -19.5876   19.2180 C   0  0  2  0  0  0  0  0  0  0  0  0
  -24.1302  -12.5339   18.4575 C   0  0  0  0  0  0  0  0  0  0  0  0
  -31.1438  -23.6970   17.0759 C   0  0  0  0  0  0  0  0  0  0  0  0
  -21.7846  -20.9971   25.2610 N   0  0  0  0  0  0  0  0  0  0  0  0
  -22.0228  -19.8077   25.8395 N   0  0  0  0  0  0  0  0  0  0  0  0
  -28.3735  -23.6418   19.6281 N   0  0  0  0  0  0  0  0  0  0  0  0
  -25.5406  -18.3495   25.5113 N   0  0  0  0  0  0  0  0  0  0  0  0
  -20.9644  -17.8235   26.5837 N   0  0  0  0  0  0  0  0  0  0  0  0
  -17.6752  -19.7145   26.5916 N   0  0  0  0  0  0  0  0  0  0  0  0
  -26.7391  -26.7845   20.0549 N   0  0  0  0  0  0  0  0  0  0  0  0
  -30.7775  -21.8628   18.7805 N   0  0  0  0  0  0  0  0  0  0  0  0
  -25.2578  -16.0144   25.2648 N   0  0  0  0  0  0  0  0  0  0  0  0
  -25.2666  -14.3490   22.9000 N   0  3  0  0  0  0  0  0  0  0  0  0
  -30.6978  -18.2735   19.2023 N   0  3  0  0  0  0  0  0  0  0  0  0
  -17.9909  -18.7574   24.5318 O   0  0  0  0  0  0  0  0  0  0  0  0
  -26.3073  -24.9782   18.6501 O   0  0  0  0  0  0  0  0  0  0  0  0
  -30.3514  -24.8699   19.5018 O   0  0  0  0  0  0  0  0  0  0  0  0
  -30.1385  -20.2319   17.2611 O   0  0  0  0  0  0  0  0  0  0  0  0
  -27.2743  -16.8706   25.9413 O   0  0  0  0  0  0  0  0  0  0  0  0
  -17.9192  -25.3569   22.6915 O   0  0  0  0  0  0  0  0  0  0  0  0
  -23.7529  -19.5783   20.0645 O   0  0  0  0  0  0  0  0  0  1  0  0
  -20.7378  -30.0848   22.3651 F   0  0  0  0  0  0  0  0  0  0  0  0
  -16.9795  -27.6552   23.9070 F   0  0  0  0  0  0  0  0  0  0  0  0
  1  2  1  0  0  0  0
  1  5  2  0  0  0  0
  2  6  2  0  0  0  0
  3  8  2  0  0  0  0
  3 15  1  0  0  0  0
  4  9  1  0  0  0  0
  4 15  2  0  0  0  0
  5 17  1  0  0  0  0
  6 19  1  0  0  0  0
  7 10  2  0  0  0  0
  7 18  1  0  0  0  0
  8 21  1  0  0  0  0
  9 21  2  0  0  0  0
 10 22  1  0  0  0  0
 11 12  2  0  0  0  0
 11 23  1  0  0  0  0
 12 24  1  0  0  0  0
 13 20  1  0  0  0  0
 13 22  2  0  0  0  0
 14 24  2  0  0  0  0
 14 25  1  0  0  0  0
 15 26  1  0  0  0  0
 16 26  1  0  0  0  0
 16 27  2  0  0  0  0
 16 28  1  0  0  0  0
 17 19  2  0  0  0  0
 17 33  1  0  0  0  0
 18 20  2  0  0  0  0
 18 34  1  0  0  0  0
 19 48  1  0  0  0  0
 20 35  1  0  0  0  0
 21 85  1  0  0  0  0
 22 86  1  0  0  0  0
 23 25  2  0  0  0  0
 23 85  1  0  0  0  0
 24 87  1  0  0  0  0
 25 88  1  0  0  0  0
 26 69  2  0  0  0  0
 27 70  1  0  0  0  0
 27 73  1  0  0  0  0
 28 74  1  0  0  0  0
 28 80  2  0  0  0  0
 29 49  1  0  0  0  0
 29 75  1  0  0  0  0
 29 81  2  0  0  0  0
 30 65  1  0  0  0  0
 30 71  1  0  0  0  0
 30 82  2  0  0  0  0
 31 66  1  0  0  0  0
 31 76  1  0  0  0  0
 31 83  2  0  0  0  0
 32 72  1  0  0  0  0
 32 77  1  0  0  0  0
 32 84  2  0  0  0  0
 33 36  1  0  0  0  0
 34 49  1  0  0  0  0
 35 71  1  0  0  0  0
 36 38  1  0  0  0  0
 37 42  1  0  0  0  0
 37 46  1  0  0  0  0
 38 48  1  0  0  0  0
 39 44  1  0  0  0  0
 39 50  1  0  0  0  0
 40 45  1  0  0  0  0
 40 50  1  0  0  0  0
 41 43  1  0  0  0  0
 41 52  1  0  0  0  0
 42 53  1  0  0  0  0
 43 54  1  0  0  0  0
 44 55  1  0  0  0  0
 45 55  1  0  0  0  0
 46 72  1  0  0  0  0
 47 53  1  0  0  0  0
 47 72  1  0  0  0  0
 48 75  1  0  0  0  0
 49 71  1  0  0  0  0
 50 51  1  0  0  0  0
 51 52  1  0  0  0  0
 51 54  1  0  0  0  0
 52 67  1  0  0  0  0
 53 70  1  0  0  0  0
 54 78  1  0  0  0  0
 55 86  1  0  0  0  0
 56 66  1  0  0  0  0
 57 67  1  0  0  0  0
 58 67  1  0  0  0  0
 59 68  1  0  0  0  0
 60 68  1  0  0  0  0
 61 68  1  0  0  0  0
 62 79  1  0  0  0  0
 63 64  1  0  0  0  0
 63 77  1  0  0  0  0
 64 78  1  0  0  0  0
 65 68  1  0  0  0  0
 65 76  1  0  0  0  0
 66 79  1  0  0  0  0
 69 70  1  0  0  0  0
M  CHG  2  78   1  79   1
M  ISO  4  32 100  55 101  77 100  86 101
M  END
> <Batch ID>
0127

> <Smiles>
CNC(C)C(=O)NC(C(=O)N1Cc2cc([101O:1][101CH:1]3CCC(C4C(NCC[100NH:0][100C:0](=O)N5CCCC(n6nc(-c7ccc(Oc8ccc(F)cc8F)cc7)c(C(N)=O)c6N)C5)CCC4C(C)C)CC3)ccc2CC1C(=O)NC1CCCc2ccccc21)C(C)(C)C

> <Shape>
0.175

> <Color>
0.063

> <Negative vol penalty>
0.000

$$$$

  -OEChem-04052320403D

 84 92  0     1  0  0  0  0  0999 V2000
  -24.5742  -35.6584   23.5124 C   0  0  0  0  0  0  0  0  0  0  0  0
  -25.1554  -34.4842   23.9802 C   0  0  0  0  0  0  0  0  0  0  0  0
  -23.2234  -10.1961   22.0817 C   0  0  0  0  0  0  0  0  0  0  0  0
  -24.7357  -10.9696   23.7998 C   0  0  0  0  0  0  0  0  0  0  0  0
  -23.5590  -35.6006   22.5586 C   0  0  0  0  0  0  0  0  0  0  0  0
  -24.7208  -33.2512   23.4950 C   0  0  0  0  0  0  0  0  0  0  0  0
  -28.1328  -28.2514   22.5642 C   0  0  0  0  0  0  0  0  0  0  0  0
  -22.6993   -9.2543   22.9671 C   0  0  0  0  0  0  0  0  0  0  0  0
  -24.2116  -10.0278   24.6852 C   0  0  0  0  0  0  0  0  0  0  0  0
  -28.3397  -27.1019   23.3256 C   0  0  0  0  0  0  0  0  0  0  0  0
  -23.5747   -6.2264   24.1877 C   0  0  0  0  0  0  0  0  0  0  0  0
  -23.3825   -4.9288   23.7134 C   0  0  0  0  0  0  0  0  0  0  0  0
  -26.6413  -25.9585   22.0499 C   0  0  0  0  0  0  0  0  0  0  0  0
  -21.0205   -5.1043   24.1901 C   0  0  0  0  0  0  0  0  0  0  0  0
  -24.2417  -11.0538   22.4981 C   0  0  0  0  0  0  0  0  0  0  0  0
  -24.0887  -13.0669   20.9387 C   0  0  0  0  0  0  0  0  0  0  0  0
  -23.1184  -34.3667   22.0544 C   0  0  0  0  0  0  0  0  0  0  0  0
  -27.1693  -28.2664   21.5454 C   0  0  0  0  0  0  0  0  0  0  0  0
  -23.6978  -33.1767   22.5345 C   0  0  0  0  0  0  0  0  0  0  0  0
  -26.4258  -27.1086   21.2754 C   0  0  0  0  0  0  0  0  0  0  0  0
  -23.1934   -9.1701   24.2688 C   0  0  0  0  0  0  0  0  0  0  0  0
  -27.5919  -25.9562   23.0704 C   0  0  0  0  0  0  0  0  0  0  0  0
  -22.4897   -6.9630   24.6633 C   0  0  0  0  0  0  0  0  0  0  0  0
  -22.1055   -4.3678   23.7146 C   0  0  0  0  0  0  0  0  0  0  0  0
  -21.2127   -6.4019   24.6645 C   0  0  0  0  0  0  0  0  0  0  0  0
  -24.7839  -12.0265   21.5838 C   0  0  0  0  0  0  0  0  0  0  0  0
  -25.0445  -13.7025   20.1845 C   0  0  0  0  0  0  0  0  0  0  0  0
  -22.7029  -13.4266   21.0145 C   0  0  0  0  0  0  0  0  0  0  0  0
  -24.5053  -29.9131   21.0016 C   0  0  0  0  0  0  0  0  0  0  0  0
  -29.7046  -18.7296   24.8490 C   0  0  0  0  0  0  0  0  0  0  0  0
  -24.5791  -28.3453   18.1628 C   0  0  0  0  0  0  0  0  0  0  0  0
  -25.0549  -26.2049   15.5476 C   0  0  0  0  0  0  0  0  0  0  0  0
  -30.9942  -14.1555   20.6811 C   0  0  0  0  0  0  0  0  0  0  0  0
  -21.9855  -34.3521   21.0589 C   0  0  0  0  0  0  0  0  0  0  0  0
  -26.9768  -29.5061   20.7155 C   0  0  0  0  0  0  0  0  0  0  0  0
  -25.3935  -27.0667   20.1795 C   0  0  0  0  0  0  0  0  0  0  0  0
  -21.8410  -33.0242   20.3200 C   0  0  0  0  0  0  0  0  0  0  0  0
  -29.1687  -12.8833   17.9017 C   0  0  0  0  0  0  0  0  0  0  0  0
  -21.9144  -31.8573   21.2998 C   0  0  0  0  0  0  0  0  0  0  0  0
  -27.7752  -12.6133   18.4720 C   0  0  0  0  0  0  0  0  0  0  0  0
  -31.4253  -15.6701   24.0370 C   0  0  0  0  0  0  0  0  0  0  0  0
  -31.3637  -17.1492   21.9963 C   0  0  0  0  0  0  0  0  0  0  0  0
  -30.2645  -12.5743   18.9194 C   0  0  0  0  0  0  0  0  0  0  0  0
  -30.1275  -16.3175   24.5147 C   0  0  0  0  0  0  0  0  0  0  0  0
  -30.0753  -17.7840   22.5195 C   0  0  0  0  0  0  0  0  0  0  0  0
  -28.7143  -12.9782   20.7922 C   0  0  0  0  0  0  0  0  0  0  0  0
  -23.2708  -31.8213   22.0142 C   0  0  1  0  0  0  0  0  0  0  0  0
  -25.6092  -29.5681   20.0424 C   0  0  1  0  0  0  0  0  0  0  0  0
  -27.5735  -13.3282   19.8216 C   0  0  2  0  0  0  0  0  0  0  0  0
  -31.5777  -15.7233   22.5143 C   0  0  0  0  0  0  0  0  0  0  0  0
  -24.0392  -25.5105   13.3605 C   0  0  0  0  0  0  0  0  0  0  0  0
  -22.4330  -26.7764   19.6603 C   0  0  0  0  0  0  0  0  0  0  0  0
  -22.0885  -25.4083   17.5920 C   0  0  0  0  0  0  0  0  0  0  0  0
  -21.6483  -27.8633   17.5491 C   0  0  0  0  0  0  0  0  0  0  0  0
  -27.4643  -27.0232   14.0362 C   0  0  0  0  0  0  0  0  0  0  0  0
  -29.5726  -20.0982   24.2296 C   0  0  0  0  0  0  0  0  0  0  0  0
  -29.2712  -21.1470   25.2847 C   0  0  0  0  0  0  0  0  0  0  0  0
  -28.8211  -23.5847   25.5913 C   0  0  0  0  0  0  0  0  0  0  0  0
  -28.7831  -24.8989   24.8366 C   0  0  0  0  0  0  0  0  0  1  0  0
  -24.0343  -27.0335   17.6515 C   0  0  1  0  0  0  0  0  0  0  0  0
  -25.0382  -26.4294   14.0463 C   0  0  2  0  0  0  0  0  0  0  0  0
  -22.5767  -26.7721   18.1253 C   0  0  0  0  0  0  0  0  0  0  0  0
  -26.0811  -11.9992   21.2669 N   0  0  0  0  0  0  0  0  0  0  0  0
  -26.2087  -13.0302   20.4144 N   0  0  0  0  0  0  0  0  0  0  0  0
  -25.2377  -28.3058   19.3999 N   0  0  0  0  0  0  0  0  0  0  0  0
  -29.9828  -17.6732   23.9805 N   0  0  0  0  0  0  0  0  0  0  0  0
  -30.0149  -13.2843   20.1762 N   0  0  0  0  0  0  0  0  0  0  0  0
  -24.9943  -14.7653   19.3536 N   0  0  0  0  0  0  0  0  0  0  0  0
  -21.8596  -12.6676   21.8374 N   0  0  0  0  0  0  0  0  0  0  0  0
  -24.2864  -31.2701   21.1430 N   0  0  0  0  0  0  0  0  0  0  0  0
  -24.1953  -27.0620   16.2018 N   0  0  0  0  0  0  0  0  0  0  0  0
  -30.6749  -14.7931   21.8737 N   0  0  0  0  0  0  0  0  0  0  0  0
  -26.3876  -26.1712   13.4689 N   0  3  0  0  0  0  0  0  0  0  0  0
  -29.1736  -22.4902   24.6521 N   0  3  0  0  0  0  0  0  0  0  0  0
  -22.2231  -14.3823   20.3588 O   0  0  0  0  0  0  0  0  0  0  0  0
  -23.8962  -29.0145   21.5702 O   0  0  0  0  0  0  0  0  0  0  0  0
  -29.5671  -18.6055   26.0688 O   0  0  0  0  0  0  0  0  0  0  0  0
  -24.4321  -29.3661   17.4860 O   0  0  0  0  0  0  0  0  0  0  0  0
  -25.7572  -25.3519   16.0858 O   0  0  0  0  0  0  0  0  0  0  0  0
  -32.0710  -14.3547   20.1086 O   0  0  0  0  0  0  0  0  0  0  0  0
  -22.6820   -8.2514   25.1331 O   0  0  0  0  0  0  0  0  0  0  0  0
  -27.7914  -24.8330   23.8125 O   0  0  0  0  0  0  0  0  0  1  0  0
  -21.9208   -3.1223   23.2577 F   0  0  0  0  0  0  0  0  0  0  0  0
  -20.1664   -7.1051   25.1190 F   0  0  0  0  0  0  0  0  0  0  0  0
  1  2  1  0  0  0  0
  1  5  2  0  0  0  0
  2  6  2  0  0  0  0
  3  8  2  0  0  0  0
  3 15  1  0  0  0  0
  4  9  1  0  0  0  0
  4 15  2  0  0  0  0
  5 17  1  0  0  0  0
  6 19  1  0  0  0  0
  7 10  2  0  0  0  0
  7 18  1  0  0  0  0
  8 21  1  0  0  0  0
  9 21  2  0  0  0  0
 10 22  1  0  0  0  0
 11 12  2  0  0  0  0
 11 23  1  0  0  0  0
 12 24  1  0  0  0  0
 13 20  1  0  0  0  0
 13 22  2  0  0  0  0
 14 24  2  0  0  0  0
 14 25  1  0  0  0  0
 15 26  1  0  0  0  0
 16 26  1  0  0  0  0
 16 27  2  0  0  0  0
 16 28  1  0  0  0  0
 17 19  2  0  0  0  0
 17 34  1  0  0  0  0
 18 20  2  0  0  0  0
 18 35  1  0  0  0  0
 19 47  1  0  0  0  0
 20 36  1  0  0  0  0
 21 81  1  0  0  0  0
 22 82  1  0  0  0  0
 23 25  2  0  0  0  0
 23 81  1  0  0  0  0
 24 83  1  0  0  0  0
 25 84  1  0  0  0  0
 26 63  2  0  0  0  0
 27 64  1  0  0  0  0
 27 68  1  0  0  0  0
 28 69  1  0  0  0  0
 28 75  2  0  0  0  0
 29 48  1  0  0  0  0
 29 70  1  0  0  0  0
 29 76  2  0  0  0  0
 30 56  1  0  0  0  0
 30 66  1  0  0  0  0
 30 77  2  0  0  0  0
 31 60  1  0  0  0  0
 31 65  1  0  0  0  0
 31 78  2  0  0  0  0
 32 61  1  0  0  0  0
 32 71  1  0  0  0  0
 32 79  2  0  0  0  0
 33 67  1  0  0  0  0
 33 72  1  0  0  0  0
 33 80  2  0  0  0  0
 34 37  1  0  0  0  0
 35 48  1  0  0  0  0
 36 65  1  0  0  0  0
 37 39  1  0  0  0  0
 38 40  1  0  0  0  0
 38 43  1  0  0  0  0
 39 47  1  0  0  0  0
 40 49  1  0  0  0  0
 41 44  1  0  0  0  0
 41 50  1  0  0  0  0
 42 45  1  0  0  0  0
 42 50  1  0  0  0  0
 43 67  1  0  0  0  0
 44 66  1  0  0  0  0
 45 66  1  0  0  0  0
 46 49  1  0  0  0  0
 46 67  1  0  0  0  0
 47 70  1  0  0  0  0
 48 65  1  0  0  0  0
 49 64  1  0  0  0  0
 50 72  1  0  0  0  0
 51 61  1  0  0  0  0
 52 62  1  0  0  0  0
 53 62  1  0  0  0  0
 54 62  1  0  0  0  0
 55 73  1  0  0  0  0
 56 57  1  0  0  0  0
 57 74  1  0  0  0  0
 58 59  1  0  0  0  0
 58 74  1  0  0  0  0
 59 82  1  0  0  0  0
 60 62  1  0  0  0  0
 60 71  1  0  0  0  0
 61 73  1  0  0  0  0
 63 64  1  0  0  0  0
M  CHG  2  73   1  74   1
M  ISO  4  33 100  59 101  72 100  82 101
M  END
> <Batch ID>
0127

> <Smiles>
CNC(C)C(=O)NC(C(=O)N1Cc2cc([101O:1][101CH2:1]CNCCC(=O)N3CCC([100NH:0][100C:0](=O)N4CCCC(n5nc(-c6ccc(Oc7ccc(F)cc7F)cc6)c(C(N)=O)c5N)C4)CC3)ccc2CC1C(=O)NC1CCCc2ccccc21)C(C)(C)C

> <Shape>
0.243

> <Color>
0.134

> <Negative vol penalty>
0.000

$$$$

  -OEChem-04052320403D

 82 90  0     1  0  0  0  0  0999 V2000
  -27.5001  -34.3032   24.6323 C   0  0  0  0  0  0  0  0  0  0  0  0
  -27.7588  -33.0057   24.2022 C   0  0  0  0  0  0  0  0  0  0  0  0
  -24.5995   -9.1741   21.0770 C   0  0  0  0  0  0  0  0  0  0  0  0
  -23.0556  -10.9887   20.6761 C   0  0  0  0  0  0  0  0  0  0  0  0
  -26.2136  -34.6596   25.0343 C   0  0  0  0  0  0  0  0  0  0  0  0
  -26.7312  -32.0635   24.1749 C   0  0  0  0  0  0  0  0  0  0  0  0
  -26.7000  -29.3462   19.9018 C   0  0  0  0  0  0  0  0  0  0  0  0
  -28.4299  -20.3633   15.8101 C   0  0  0  0  0  0  0  0  0  0  0  0
  -28.0031  -19.1290   15.3203 C   0  0  0  0  0  0  0  0  0  0  0  0
  -23.5905   -8.4577   21.7205 C   0  0  0  0  0  0  0  0  0  0  0  0
  -22.0465  -10.2723   21.3196 C   0  0  0  0  0  0  0  0  0  0  0  0
  -27.6357  -28.3182   19.7941 C   0  0  0  0  0  0  0  0  0  0  0  0
  -20.9162   -6.5847   20.8411 C   0  0  0  0  0  0  0  0  0  0  0  0
  -20.7758   -5.2341   20.5223 C   0  0  0  0  0  0  0  0  0  0  0  0
  -25.9340  -26.7152   20.3892 C   0  0  0  0  0  0  0  0  0  0  0  0
  -29.0415  -19.3217   17.9025 C   0  0  0  0  0  0  0  0  0  0  0  0
  -21.1840   -4.6469   22.8301 C   0  0  0  0  0  0  0  0  0  0  0  0
  -24.3321  -10.4397   20.5548 C   0  0  0  0  0  0  0  0  0  0  0  0
  -25.6963  -11.1521   18.5204 C   0  0  0  0  0  0  0  0  0  0  0  0
  -25.1675  -33.7240   25.0028 C   0  0  0  0  0  0  0  0  0  0  0  0
  -25.3747  -29.0672   20.2652 C   0  0  0  0  0  0  0  0  0  0  0  0
  -25.4297  -32.4074   24.5782 C   0  0  0  0  0  0  0  0  0  0  0  0
  -24.9829  -27.7412   20.4983 C   0  0  0  0  0  0  0  0  0  0  0  0
  -28.9491  -20.4597   17.1012 C   0  0  0  0  0  0  0  0  0  0  0  0
  -28.0955  -17.9910   16.1217 C   0  0  0  0  0  0  0  0  0  0  0  0
  -28.6147  -18.0873   17.4128 C   0  0  0  0  0  0  0  0  0  0  0  0
  -22.3140   -9.0068   21.8418 C   0  0  0  0  0  0  0  0  0  0  0  0
  -27.2534  -27.0028   20.0406 C   0  0  0  0  0  0  0  0  0  0  0  0
  -21.1906   -6.9665   22.1544 C   0  0  0  0  0  0  0  0  0  0  0  0
  -20.9097   -4.2652   21.5168 C   0  0  0  0  0  0  0  0  0  0  0  0
  -21.3245   -5.9976   23.1489 C   0  0  0  0  0  0  0  0  0  0  0  0
  -25.3742  -11.1805   19.8905 C   0  0  0  0  0  0  0  0  0  0  0  0
  -26.7509  -12.0234   18.3975 C   0  0  0  0  0  0  0  0  0  0  0  0
  -25.0958  -10.4051   17.4541 C   0  0  0  0  0  0  0  0  0  0  0  0
  -23.4962  -29.8830   22.6962 C   0  0  0  0  0  0  0  0  0  0  0  0
  -21.2334  -28.3404   20.9577 C   0  0  0  0  0  0  0  0  0  0  0  0
  -20.4993  -26.0072   18.5777 C   0  0  0  0  0  0  0  0  0  0  0  0
  -29.2121  -16.8846   19.5442 C   0  0  0  0  0  0  0  0  0  0  0  0
  -23.8037  -34.1430   25.4918 C   0  0  0  0  0  0  0  0  0  0  0  0
  -24.3711  -30.1843   20.3510 C   0  0  0  0  0  0  0  0  0  0  0  0
  -23.5676  -27.3865   20.8718 C   0  0  0  0  0  0  0  0  0  0  0  0
  -22.6880  -33.1871   25.0777 C   0  0  0  0  0  0  0  0  0  0  0  0
  -29.5967  -14.2697   21.9298 C   0  0  0  0  0  0  0  0  0  0  0  0
  -23.1001  -31.7414   25.3366 C   0  0  0  0  0  0  0  0  0  0  0  0
  -28.5589  -13.2306   21.4993 C   0  0  0  0  0  0  0  0  0  0  0  0
  -29.0905  -15.6961   21.7231 C   0  0  0  0  0  0  0  0  0  0  0  0
  -27.5620  -14.9517   19.9402 C   0  0  0  0  0  0  0  0  0  0  0  0
  -24.3359  -31.3638   24.5108 C   0  0  1  0  0  0  0  0  0  0  0  0
  -23.1714  -29.8436   21.2297 C   0  0  1  0  0  0  0  0  0  0  0  0
  -28.0514  -13.5000   20.0691 C   0  0  2  0  0  0  0  0  0  0  0  0
  -27.6300  -16.6820   15.5712 C   0  0  0  0  0  0  0  0  0  0  0  0
  -18.5587  -24.9411   17.3967 C   0  0  0  0  0  0  0  0  0  0  0  0
  -20.6430  -26.6694   23.4415 C   0  0  0  0  0  0  0  0  0  0  0  0
  -19.4272  -25.0452   21.9745 C   0  0  0  0  0  0  0  0  0  0  0  0
  -18.6174  -27.3967   22.1677 C   0  0  0  0  0  0  0  0  0  0  0  0
  -21.4252  -26.9737   15.9381 C   0  0  0  0  0  0  0  0  0  0  0  0
  -29.4103  -21.7945   17.6297 C   0  0  0  0  0  0  0  0  0  0  0  0
  -28.3129  -22.5896   18.3458 C   0  0  0  0  0  0  0  0  0  0  0  0
  -28.7786  -23.9715   18.8066 C   0  0  0  0  0  0  0  0  0  0  0  0
  -27.6755  -24.7149   19.5476 C   0  0  0  0  0  0  0  0  0  1  0  0
  -20.7356  -26.9177   20.8733 C   0  0  1  0  0  0  0  0  0  0  0  0
  -19.5896  -26.0587   17.3635 C   0  0  2  0  0  0  0  0  0  0  0  0
  -19.8830  -26.5138   22.1091 C   0  0  0  0  0  0  0  0  0  0  0  0
  -26.1607  -12.0044   20.5881 N   0  0  0  0  0  0  0  0  0  0  0  0
  -26.9874  -12.5018   19.6526 N   0  0  0  0  0  0  0  0  0  0  0  0
  -22.6246  -28.5145   20.9490 N   0  0  0  0  0  0  0  0  0  0  0  0
  -28.6303  -15.8789   20.3448 N   0  0  0  0  0  0  0  0  0  0  0  0
  -27.4898  -12.4193   17.3393 N   0  0  0  0  0  0  0  0  0  0  0  0
  -24.0216   -9.5566   17.7550 N   0  0  0  0  0  0  0  0  0  0  0  0
  -28.7173  -16.9427   18.2417 N   0  0  0  0  0  0  0  0  0  0  0  0
  -23.9655  -31.1061   23.1358 N   0  0  0  0  0  0  0  0  0  0  0  0
  -20.0324  -26.8062   19.5999 N   0  0  0  0  0  0  0  0  0  0  0  0
  -20.3878  -25.9247   16.1122 N   0  3  0  0  0  0  0  0  0  0  0  0
  -25.5104  -10.4751   16.2722 O   0  0  0  0  0  0  0  0  0  0  0  0
  -23.3317  -28.8786   23.3787 O   0  0  0  0  0  0  0  0  0  0  0  0
  -20.4179  -29.2636   21.0215 O   0  0  0  0  0  0  0  0  0  0  0  0
  -21.5199  -25.3236   18.6168 O   0  0  0  0  0  0  0  0  0  0  0  0
  -30.1041  -17.6208   19.9734 O   0  0  0  0  0  0  0  0  0  0  0  0
  -21.3290   -8.3078   22.4694 O   0  0  0  0  0  0  0  0  0  0  0  0
  -28.1648  -25.9976   19.9368 O   0  0  0  0  0  0  0  0  0  1  0  0
  -20.7733   -2.9683   21.2108 F   0  0  0  0  0  0  0  0  0  0  0  0
  -21.5869   -6.3583   24.4125 F   0  0  0  0  0  0  0  0  0  0  0  0
  1  2  1  0  0  0  0
  1  5  2  0  0  0  0
  2  6  2  0  0  0  0
  3 10  2  0  0  0  0
  3 18  1  0  0  0  0
  4 11  1  0  0  0  0
  4 18  2  0  0  0  0
  5 20  1  0  0  0  0
  6 22  1  0  0  0  0
  7 12  2  0  0  0  0
  7 21  1  0  0  0  0
  8  9  2  0  0  0  0
  8 24  1  0  0  0  0
  9 25  1  0  0  0  0
 10 27  1  0  0  0  0
 11 27  2  0  0  0  0
 12 28  1  0  0  0  0
 13 14  2  0  0  0  0
 13 29  1  0  0  0  0
 14 30  1  0  0  0  0
 15 23  1  0  0  0  0
 15 28  2  0  0  0  0
 16 24  2  0  0  0  0
 16 26  1  0  0  0  0
 17 30  2  0  0  0  0
 17 31  1  0  0  0  0
 18 32  1  0  0  0  0
 19 32  1  0  0  0  0
 19 33  2  0  0  0  0
 19 34  1  0  0  0  0
 20 22  2  0  0  0  0
 20 39  1  0  0  0  0
 21 23  2  0  0  0  0
 21 40  1  0  0  0  0
 22 48  1  0  0  0  0
 23 41  1  0  0  0  0
 24 57  1  0  0  0  0
 25 26  2  0  0  0  0
 25 51  1  0  0  0  0
 26 70  1  0  0  0  0
 27 79  1  0  0  0  0
 28 80  1  0  0  0  0
 29 31  2  0  0  0  0
 29 79  1  0  0  0  0
 30 81  1  0  0  0  0
 31 82  1  0  0  0  0
 32 64  2  0  0  0  0
 33 65  1  0  0  0  0
 33 68  1  0  0  0  0
 34 69  1  0  0  0  0
 34 74  2  0  0  0  0
 35 49  1  0  0  0  0
 35 71  1  0  0  0  0
 35 75  2  0  0  0  0
 36 61  1  0  0  0  0
 36 66  1  0  0  0  0
 36 76  2  0  0  0  0
 37 62  1  0  0  0  0
 37 72  1  0  0  0  0
 37 77  2  0  0  0  0
 38 67  1  0  0  0  0
 38 70  1  0  0  0  0
 38 78  2  0  0  0  0
 39 42  1  0  0  0  0
 40 49  1  0  0  0  0
 41 66  1  0  0  0  0
 42 44  1  0  0  0  0
 43 45  1  0  0  0  0
 43 46  1  0  0  0  0
 44 48  1  0  0  0  0
 45 50  1  0  0  0  0
 46 67  1  0  0  0  0
 47 50  1  0  0  0  0
 47 67  1  0  0  0  0
 48 71  1  0  0  0  0
 49 66  1  0  0  0  0
 50 65  1  0  0  0  0
 52 62  1  0  0  0  0
 53 63  1  0  0  0  0
 54 63  1  0  0  0  0
 55 63  1  0  0  0  0
 56 73  1  0  0  0  0
 57 58  1  0  0  0  0
 58 59  1  0  0  0  0
 59 60  1  0  0  0  0
 60 80  1  0  0  0  0
 61 63  1  0  0  0  0
 61 72  1  0  0  0  0
 62 73  1  0  0  0  0
 64 65  1  0  0  0  0
M  CHG  1  73   1
M  ISO  4  38 100  60 101  70 100  80 101
M  END
> <Batch ID>
0127

> <Smiles>
CNC(C)C(=O)NC(C(=O)N1Cc2cc([101O:1][101CH2:1]CCCc3ccc(C)c([100NH:0][100C:0](=O)N4CCCC(n5nc(-c6ccc(Oc7ccc(F)cc7F)cc6)c(C(N)=O)c5N)C4)c3)ccc2CC1C(=O)NC1CCCc2ccccc21)C(C)(C)C

> <Shape>
0.302

> <Color>
0.106

> <Negative vol penalty>
0.000

$$$$

  -OEChem-04052320403D

 85 94  0     1  0  0  0  0  0999 V2000
  -19.5062  -24.1430   22.6043 C   0  0  0  0  0  0  0  0  0  0  0  0
  -20.7335  -24.5093   22.0613 C   0  0  0  0  0  0  0  0  0  0  0  0
  -24.8388  -11.2609   19.1244 C   0  0  0  0  0  0  0  0  0  0  0  0
  -25.9869  -10.6055   21.1466 C   0  0  0  0  0  0  0  0  0  0  0  0
  -18.5630  -25.1215   22.9155 C   0  0  0  0  0  0  0  0  0  0  0  0
  -21.0180  -25.8544   21.8282 C   0  0  0  0  0  0  0  0  0  0  0  0
  -25.6700  -27.1490   23.3539 C   0  0  0  0  0  0  0  0  0  0  0  0
  -24.8451   -9.9351   18.6911 C   0  0  0  0  0  0  0  0  0  0  0  0
  -25.9932   -9.2797   20.7134 C   0  0  0  0  0  0  0  0  0  0  0  0
  -26.7342  -26.7883   22.5285 C   0  0  0  0  0  0  0  0  0  0  0  0
  -23.0965   -7.1064   19.3024 C   0  0  0  0  0  0  0  0  0  0  0  0
  -21.9154   -6.5943   18.7655 C   0  0  0  0  0  0  0  0  0  0  0  0
  -26.8009  -29.0318   21.6444 C   0  0  0  0  0  0  0  0  0  0  0  0
  -23.0540   -6.1544   16.6805 C   0  0  0  0  0  0  0  0  0  0  0  0
  -25.4098  -11.5962   20.3521 C   0  0  0  0  0  0  0  0  0  0  0  0
  -24.2791  -13.7794   21.0324 C   0  0  0  0  0  0  0  0  0  0  0  0
  -18.8397  -26.4800   22.6950 C   0  0  0  0  0  0  0  0  0  0  0  0
  -25.1553  -28.4530   23.3227 C   0  0  0  0  0  0  0  0  0  0  0  0
  -20.0771  -26.8519   22.1355 C   0  0  0  0  0  0  0  0  0  0  0  0
  -25.7318  -29.4071   22.4722 C   0  0  0  0  0  0  0  0  0  0  0  0
  -25.4223   -8.9445   19.4856 C   0  0  0  0  0  0  0  0  0  0  0  0
  -27.2979  -27.7290   21.6715 C   0  0  0  0  0  0  0  0  0  0  0  0
  -24.2564   -7.1426   18.5284 C   0  0  0  0  0  0  0  0  0  0  0  0
  -21.8941   -6.1183   17.4545 C   0  0  0  0  0  0  0  0  0  0  0  0
  -24.2351   -6.6665   17.2175 C   0  0  0  0  0  0  0  0  0  0  0  0
  -25.4041  -12.9656   20.8000 C   0  0  0  0  0  0  0  0  0  0  0  0
  -24.8033  -14.9812   21.4415 C   0  0  0  0  0  0  0  0  0  0  0  0
  -22.8849  -13.4760   20.8912 C   0  0  0  0  0  0  0  0  0  0  0  0
  -29.4967  -23.7969   17.8941 C   0  0  0  0  0  0  0  0  0  0  0  0
  -22.3400  -29.7366   22.5947 C   0  0  0  0  0  0  0  0  0  0  0  0
  -23.7514  -32.4638   23.6397 C   0  0  0  0  0  0  0  0  0  0  0  0
  -26.9795  -34.0448   23.3277 C   0  0  0  0  0  0  0  0  0  0  0  0
  -28.4168  -19.0600   20.6305 C   0  0  0  0  0  0  0  0  0  0  0  0
  -17.7705  -27.4980   23.0033 C   0  0  0  0  0  0  0  0  0  0  0  0
  -24.0245  -28.8334   24.2387 C   0  0  0  0  0  0  0  0  0  0  0  0
  -25.2292  -30.8258   22.4156 C   0  0  0  0  0  0  0  0  0  0  0  0
  -18.2951  -28.9299   23.0741 C   0  0  0  0  0  0  0  0  0  0  0  0
  -26.3582  -24.9331   17.2426 C   0  0  0  0  0  0  0  0  0  0  0  0
  -29.4927  -16.2589   22.7773 C   0  0  0  0  0  0  0  0  0  0  0  0
  -19.2066  -29.2238   21.8869 C   0  0  0  0  0  0  0  0  0  0  0  0
  -27.5852  -24.4956   16.4530 C   0  0  0  0  0  0  0  0  0  0  0  0
  -26.8113  -26.2209   17.9081 C   0  0  0  0  0  0  0  0  0  0  0  0
  -28.4513  -15.2014   22.4235 C   0  0  0  0  0  0  0  0  0  0  0  0
  -30.6423  -22.1554   20.4612 C   0  0  0  0  0  0  0  0  0  0  0  0
  -29.8375  -17.1467   21.5823 C   0  0  0  0  0  0  0  0  0  0  0  0
  -27.6030  -16.7234   20.5963 C   0  0  0  0  0  0  0  0  0  0  0  0
  -20.4323  -28.3025   21.8910 C   0  0  1  0  0  0  0  0  0  0  0  0
  -28.7910  -24.9651   17.2762 C   0  0  1  0  0  0  0  0  0  0  0  0
  -23.2451  -30.0513   23.7520 C   0  0  1  0  0  0  0  0  0  0  0  0
  -28.2282  -25.8868   18.3734 C   0  0  1  0  0  0  0  0  0  0  0  0
  -29.7575  -21.8732   19.2817 C   0  0  1  0  0  0  0  0  0  0  0  0
  -27.2079  -15.8522   21.7985 C   0  0  1  0  0  0  0  0  0  0  0  0
  -29.3944  -21.3352   20.6410 C   0  0  1  0  0  0  0  0  0  0  0  0
  -31.0803  -22.7276   16.2933 C   0  0  0  0  0  0  0  0  0  0  0  0
  -28.1649  -35.6484   24.8511 C   0  0  0  0  0  0  0  0  0  0  0  0
  -22.4981  -34.6147   21.8755 C   0  0  0  0  0  0  0  0  0  0  0  0
  -24.6253  -35.9198   22.0753 C   0  0  0  0  0  0  0  0  0  0  0  0
  -23.2739  -35.4214   24.1119 C   0  0  0  0  0  0  0  0  0  0  0  0
  -29.3667  -32.3033   23.4937 C   0  0  0  0  0  0  0  0  0  0  0  0
  -30.9546  -23.5838   17.5398 C   0  0  0  0  0  0  0  0  0  0  0  0
  -29.0768  -27.1306   18.5965 C   0  0  0  0  0  0  0  0  0  0  0  0
  -28.4508  -28.0667   19.6190 C   0  0  0  0  0  0  0  0  0  1  0  0
  -24.5694  -33.5581   22.9976 C   0  0  1  0  0  0  0  0  0  0  0  0
  -28.0257  -34.1975   24.4170 C   0  0  2  0  0  0  0  0  0  0  0  0
  -23.7419  -34.8519   22.7550 C   0  0  0  0  0  0  0  0  0  0  0  0
  -26.5560  -13.5972   21.0412 N   0  0  0  0  0  0  0  0  0  0  0  0
  -28.9549  -22.9837   18.7485 N   0  0  0  0  0  0  0  0  0  0  0  0
  -26.1576  -14.8206   21.4294 N   0  0  0  0  0  0  0  0  0  0  0  0
  -24.1176  -31.1473   23.3259 N   0  0  0  0  0  0  0  0  0  0  0  0
  -28.6289  -17.7089   20.9593 N   0  0  0  0  0  0  0  0  0  0  0  0
  -24.2332  -16.1491   21.8067 N   0  0  0  0  0  0  0  0  0  0  0  0
  -22.2000  -12.9517   21.9959 N   0  0  0  0  0  0  0  0  0  0  0  0
  -21.4030  -28.7571   22.8634 N   0  0  0  0  0  0  0  0  0  0  0  0
  -25.7384  -33.7475   23.8497 N   0  0  0  0  0  0  0  0  0  0  0  0
  -29.4632  -19.9267   20.9255 N   0  0  0  0  0  0  0  0  0  0  0  0
  -29.3523  -33.7229   23.9313 N   0  3  0  0  0  0  0  0  0  0  0  0
  -22.2688  -13.6489   19.8123 O   0  0  0  0  0  0  0  0  0  0  0  0
  -22.4802  -30.3389   21.5368 O   0  0  0  0  0  0  0  0  0  0  0  0
  -22.8263  -32.7659   24.3977 O   0  0  0  0  0  0  0  0  0  0  0  0
  -27.2367  -34.1797   22.1335 O   0  0  0  0  0  0  0  0  0  0  0  0
  -27.3736  -19.4662   20.1066 O   0  0  0  0  0  0  0  0  0  0  0  0
  -25.4284   -7.6506   19.0632 O   0  0  0  0  0  0  0  0  0  0  0  0
  -28.3363  -27.3794   20.8643 O   0  0  0  0  0  0  0  0  0  1  0  0
  -20.7603   -5.6251   16.9395 F   0  0  0  0  0  0  0  0  0  0  0  0
  -25.3466   -6.6976   16.4694 F   0  0  0  0  0  0  0  0  0  0  0  0
  1  2  1  0  0  0  0
  1  5  2  0  0  0  0
  2  6  2  0  0  0  0
  3  8  2  0  0  0  0
  3 15  1  0  0  0  0
  4  9  1  0  0  0  0
  4 15  2  0  0  0  0
  5 17  1  0  0  0  0
  6 19  1  0  0  0  0
  7 10  2  0  0  0  0
  7 18  1  0  0  0  0
  8 21  1  0  0  0  0
  9 21  2  0  0  0  0
 10 22  1  0  0  0  0
 11 12  2  0  0  0  0
 11 23  1  0  0  0  0
 12 24  1  0  0  0  0
 13 20  1  0  0  0  0
 13 22  2  0  0  0  0
 14 24  2  0  0  0  0
 14 25  1  0  0  0  0
 15 26  1  0  0  0  0
 16 26  1  0  0  0  0
 16 27  2  0  0  0  0
 16 28  1  0  0  0  0
 17 19  2  0  0  0  0
 17 34  1  0  0  0  0
 18 20  2  0  0  0  0
 18 35  1  0  0  0  0
 19 47  1  0  0  0  0
 20 36  1  0  0  0  0
 21 82  1  0  0  0  0
 22 83  1  0  0  0  0
 23 25  2  0  0  0  0
 23 82  1  0  0  0  0
 24 84  1  0  0  0  0
 25 85  1  0  0  0  0
 26 66  2  0  0  0  0
 27 68  1  0  0  0  0
 27 71  1  0  0  0  0
 28 72  1  0  0  0  0
 28 77  2  0  0  0  0
 29 48  1  0  0  0  0
 29 60  1  0  0  0  0
 29 67  2  0  0  0  0
 30 49  1  0  0  0  0
 30 73  1  0  0  0  0
 30 78  2  0  0  0  0
 31 63  1  0  0  0  0
 31 69  1  0  0  0  0
 31 79  2  0  0  0  0
 32 64  1  0  0  0  0
 32 74  1  0  0  0  0
 32 80  2  0  0  0  0
 33 70  1  0  0  0  0
 33 75  1  0  0  0  0
 33 81  2  0  0  0  0
 34 37  1  0  0  0  0
 35 49  1  0  0  0  0
 36 69  1  0  0  0  0
 37 40  1  0  0  0  0
 38 41  1  0  0  0  0
 38 42  1  0  0  0  0
 39 43  1  0  0  0  0
 39 45  1  0  0  0  0
 40 47  1  0  0  0  0
 41 48  1  0  0  0  0
 42 50  1  0  0  0  0
 43 52  1  0  0  0  0
 44 51  1  0  0  0  0
 44 53  1  0  0  0  0
 45 70  1  0  0  0  0
 46 52  1  0  0  0  0
 46 70  1  0  0  0  0
 47 73  1  0  0  0  0
 48 50  1  0  0  0  0
 49 69  1  0  0  0  0
 50 61  1  0  0  0  0
 51 53  1  0  0  0  0
 51 67  1  0  0  0  0
 52 68  1  0  0  0  0
 53 75  1  0  0  0  0
 54 60  1  0  0  0  0
 55 64  1  0  0  0  0
 56 65  1  0  0  0  0
 57 65  1  0  0  0  0
 58 65  1  0  0  0  0
 59 76  1  0  0  0  0
 61 62  1  0  0  0  0
 62 83  1  0  0  0  0
 63 65  1  0  0  0  0
 63 74  1  0  0  0  0
 64 76  1  0  0  0  0
 66 68  1  0  0  0  0
M  CHG  1  76   1
M  ISO  4  33 100  62 101  75 100  83 101
M  END
> <Batch ID>
0127

> <Smiles>
CCC(NC1CC1[100NH:0][100C:0](=O)N1CCCC(n2nc(-c3ccc(Oc4ccc(F)cc4F)cc3)c(C(N)=O)c2N)C1)=C1CCCC1C[101CH2:1][101O:1]c1ccc2c(c1)CN(C(=O)C(NC(=O)C(C)NC)C(C)(C)C)C(C(=O)NC1CCCc3ccccc31)C2

> <Shape>
0.282

> <Color>
0.110

> <Negative vol penalty>
0.000

$$$$

  -OEChem-04052320403D

 81 89  0     1  0  0  0  0  0999 V2000
  -28.4987  -24.3389   17.2569 C   0  0  0  0  0  0  0  0  0  0  0  0
  -27.3244  -24.4972   17.9858 C   0  0  0  0  0  0  0  0  0  0  0  0
  -26.1602  -18.2120   19.1819 C   0  0  0  0  0  0  0  0  0  0  0  0
  -23.9034  -17.4060   19.4889 C   0  0  0  0  0  0  0  0  0  0  0  0
  -29.6656  -24.9808   17.6693 C   0  0  0  0  0  0  0  0  0  0  0  0
  -27.3166  -25.2966   19.1283 C   0  0  0  0  0  0  0  0  0  0  0  0
  -23.2920  -28.3639   19.3258 C   0  0  0  0  0  0  0  0  0  0  0  0
  -26.6011  -16.9031   18.9870 C   0  0  0  0  0  0  0  0  0  0  0  0
  -24.3443  -16.0971   19.2939 C   0  0  0  0  0  0  0  0  0  0  0  0
  -22.0801  -27.7995   19.7214 C   0  0  0  0  0  0  0  0  0  0  0  0
  -25.9213  -13.7059   21.0901 C   0  0  0  0  0  0  0  0  0  0  0  0
  -25.4565  -12.7278   21.9692 C   0  0  0  0  0  0  0  0  0  0  0  0
  -22.3999  -28.6843   21.9426 C   0  0  0  0  0  0  0  0  0  0  0  0
  -24.4699  -11.5314   20.1166 C   0  0  0  0  0  0  0  0  0  0  0  0
  -24.8113  -18.4635   19.4329 C   0  0  0  0  0  0  0  0  0  0  0  0
  -23.9002  -20.7147   18.6522 C   0  0  0  0  0  0  0  0  0  0  0  0
  -29.6699  -25.7962   18.8119 C   0  0  0  0  0  0  0  0  0  0  0  0
  -24.0736  -29.0848   20.2402 C   0  0  0  0  0  0  0  0  0  0  0  0
  -28.4851  -25.9489   19.5571 C   0  0  0  0  0  0  0  0  0  0  0  0
  -23.6201  -29.2591   21.5555 C   0  0  0  0  0  0  0  0  0  0  0  0
  -25.6932  -15.8457   19.0430 C   0  0  0  0  0  0  0  0  0  0  0  0
  -21.6353  -27.9572   21.0307 C   0  0  0  0  0  0  0  0  0  0  0  0
  -25.6603  -13.5969   19.7242 C   0  0  0  0  0  0  0  0  0  0  0  0
  -24.7309  -11.6406   21.4825 C   0  0  0  0  0  0  0  0  0  0  0  0
  -24.9347  -12.5096   19.2374 C   0  0  0  0  0  0  0  0  0  0  0  0
  -24.3553  -19.8152   19.6349 C   0  0  0  0  0  0  0  0  0  0  0  0
  -23.5867  -21.8556   19.3497 C   0  0  0  0  0  0  0  0  0  0  0  0
  -23.7721  -20.5349   17.2355 C   0  0  0  0  0  0  0  0  0  0  0  0
  -26.9893  -28.7417   21.4587 C   0  0  0  0  0  0  0  0  0  0  0  0
  -26.3554  -31.6366   22.7777 C   0  0  0  0  0  0  0  0  0  0  0  0
  -24.0205  -33.8958   23.8224 C   0  0  0  0  0  0  0  0  0  0  0  0
  -21.3618  -23.5197   24.4285 C   0  0  0  0  0  0  0  0  0  0  0  0
  -30.9671  -26.4318   19.2454 C   0  0  0  0  0  0  0  0  0  0  0  0
  -25.3656  -29.7100   19.7907 C   0  0  0  0  0  0  0  0  0  0  0  0
  -24.4120  -30.0411   22.5703 C   0  0  0  0  0  0  0  0  0  0  0  0
  -30.7842  -27.5618   20.2553 C   0  0  0  0  0  0  0  0  0  0  0  0
  -24.8534  -23.7037   23.7567 C   0  0  0  0  0  0  0  0  0  0  0  0
  -29.8192  -27.1404   21.3589 C   0  0  0  0  0  0  0  0  0  0  0  0
  -25.0386  -22.8034   22.5340 C   0  0  0  0  0  0  0  0  0  0  0  0
  -23.7953  -23.1513   24.7093 C   0  0  0  0  0  0  0  0  0  0  0  0
  -22.6751  -21.9640   22.8629 C   0  0  0  0  0  0  0  0  0  0  0  0
  -17.3904  -24.3595   21.3542 C   0  0  0  0  0  0  0  0  0  0  0  0
  -28.4307  -26.8278   20.7879 C   0  0  1  0  0  0  0  0  0  0  0  0
  -26.3273  -29.9877   20.9420 C   0  0  1  0  0  0  0  0  0  0  0  0
  -17.5017  -25.3278   20.1564 C   0  0  2  0  0  0  0  0  0  0  0  0
  -23.6923  -22.5087   21.8456 C   0  0  2  0  0  0  0  0  0  0  0  0
  -18.4534  -26.1420   21.0718 C   0  0  2  0  0  0  0  0  0  0  0  0
  -23.8065  -36.1554   24.8927 C   0  0  0  0  0  0  0  0  0  0  0  0
  -16.5033  -27.2456   18.8616 C   0  0  0  0  0  0  0  0  0  0  0  0
  -27.0648  -30.4192   25.4841 C   0  0  0  0  0  0  0  0  0  0  0  0
  -25.9431  -32.3718   26.5782 C   0  0  0  0  0  0  0  0  0  0  0  0
  -27.9354  -32.7355   25.1217 C   0  0  0  0  0  0  0  0  0  0  0  0
  -22.6071  -35.0044   21.4703 C   0  0  0  0  0  0  0  0  0  0  0  0
  -19.7195  -26.6805   20.4343 C   0  0  0  0  0  0  0  0  0  1  0  0
  -18.9312  -23.7982   24.0114 C   0  0  0  0  0  0  0  0  0  0  0  0
  -18.6888  -25.1108   23.2900 C   0  0  0  0  0  0  0  0  0  0  0  0
  -25.7253  -32.1099   24.0653 C   0  0  1  0  0  0  0  0  0  0  0  0
  -23.8849  -35.3885   23.5818 C   0  0  2  0  0  0  0  0  0  0  0  0
  -16.2259  -26.0145   19.7151 C   0  0  1  0  0  0  0  0  0  0  0  0
  -26.6529  -31.8927   25.2940 C   0  0  0  0  0  0  0  0  0  0  0  0
  -24.3345  -20.3397   20.8631 N   0  0  0  0  0  0  0  0  0  0  0  0
  -23.8627  -21.5810   20.6568 N   0  0  0  0  0  0  0  0  0  0  0  0
  -25.6718  -30.6279   22.0842 N   0  0  0  0  0  0  0  0  0  0  0  0
  -22.5426  -22.8950   23.9944 N   0  0  0  0  0  0  0  0  0  0  0  0
  -23.1048  -23.0569   18.9663 N   0  0  0  0  0  0  0  0  0  0  0  0
  -24.1387  -19.3002   16.6828 N   0  0  0  0  0  0  0  0  0  0  0  0
  -27.7132  -28.0523   20.5047 N   0  0  0  0  0  0  0  0  0  0  0  0
  -25.3412  -33.5000   23.8449 N   0  0  0  0  0  0  0  0  0  0  0  0
  -20.2207  -23.2275   23.6915 N   0  0  0  0  0  0  0  0  0  0  0  0
  -18.6885  -24.8856   21.8272 N   0  3  1  0  0  0  0  0  0  0  0  0
  -22.6528  -35.6764   22.7944 N   0  3  0  0  0  0  0  0  0  0  0  0
  -23.3608  -21.4478   16.4799 O   0  0  0  0  0  0  0  0  0  0  0  0
  -26.8545  -28.4297   22.6360 O   0  0  0  0  0  0  0  0  0  0  0  0
  -27.4115  -32.1482   22.3975 O   0  0  0  0  0  0  0  0  0  0  0  0
  -23.0519  -33.1555   23.9786 O   0  0  0  0  0  0  0  0  0  0  0  0
  -21.3281  -24.2855   25.3977 O   0  0  0  0  0  0  0  0  0  0  0  0
  -15.4290  -25.0998   18.9647 O   0  0  0  0  0  0  0  0  0  0  0  0
  -26.1231  -14.5684   18.8526 O   0  0  0  0  0  0  0  0  0  0  0  0
  -20.4530  -27.4068   21.4195 O   0  0  0  0  0  0  0  0  0  1  0  0
  -24.2860  -10.7006   22.3266 F   0  0  0  0  0  0  0  0  0  0  0  0
  -24.6819  -12.3988   17.9261 F   0  0  0  0  0  0  0  0  0  0  0  0
  1  2  1  0  0  0  0
  1  5  2  0  0  0  0
  2  6  2  0  0  0  0
  3  8  2  0  0  0  0
  3 15  1  0  0  0  0
  4  9  1  0  0  0  0
  4 15  2  0  0  0  0
  5 17  1  0  0  0  0
  6 19  1  0  0  0  0
  7 10  2  0  0  0  0
  7 18  1  0  0  0  0
  8 21  1  0  0  0  0
  9 21  2  0  0  0  0
 10 22  1  0  0  0  0
 11 12  2  0  0  0  0
 11 23  1  0  0  0  0
 12 24  1  0  0  0  0
 13 20  1  0  0  0  0
 13 22  2  0  0  0  0
 14 24  2  0  0  0  0
 14 25  1  0  0  0  0
 15 26  1  0  0  0  0
 16 26  1  0  0  0  0
 16 27  2  0  0  0  0
 16 28  1  0  0  0  0
 17 19  2  0  0  0  0
 17 33  1  0  0  0  0
 18 20  2  0  0  0  0
 18 34  1  0  0  0  0
 19 43  1  0  0  0  0
 20 35  1  0  0  0  0
 21 78  1  0  0  0  0
 22 79  1  0  0  0  0
 23 25  2  0  0  0  0
 23 78  1  0  0  0  0
 24 80  1  0  0  0  0
 25 81  1  0  0  0  0
 26 61  2  0  0  0  0
 27 62  1  0  0  0  0
 27 65  1  0  0  0  0
 28 66  1  0  0  0  0
 28 72  2  0  0  0  0
 29 44  1  0  0  0  0
 29 67  1  0  0  0  0
 29 73  2  0  0  0  0
 30 57  1  0  0  0  0
 30 63  1  0  0  0  0
 30 74  2  0  0  0  0
 31 58  1  0  0  0  0
 31 68  1  0  0  0  0
 31 75  2  0  0  0  0
 32 64  1  0  0  0  0
 32 69  1  0  0  0  0
 32 76  2  0  0  0  0
 33 36  1  0  0  0  0
 34 44  1  0  0  0  0
 35 63  1  0  0  0  0
 36 38  1  0  0  0  0
 37 39  1  0  0  0  0
 37 40  1  0  0  0  0
 38 43  1  0  0  0  0
 39 46  1  0  0  0  0
 40 64  1  0  0  0  0
 41 46  1  0  0  0  0
 41 64  1  0  0  0  0
 42 45  1  0  0  0  0
 42 70  1  0  0  0  0
 43 67  1  0  0  0  0
 44 63  1  0  0  0  0
 45 47  1  0  0  0  0
 45 59  1  0  0  0  0
 46 62  1  0  0  0  0
 47 54  1  0  0  0  0
 47 70  1  0  0  0  0
 48 58  1  0  0  0  0
 49 59  1  0  0  0  0
 50 60  1  0  0  0  0
 51 60  1  0  0  0  0
 52 60  1  0  0  0  0
 53 71  1  0  0  0  0
 54 79  1  0  0  0  0
 55 56  1  0  0  0  0
 55 69  1  0  0  0  0
 56 70  1  0  0  0  0
 57 60  1  0  0  0  0
 57 68  1  0  0  0  0
 58 71  1  0  0  0  0
 59 77  1  0  0  0  0
 61 62  1  0  0  0  0
M  CHG  2  70   1  71   1
M  ISO  4  32 100  54 101  69 100  79 101
M  END
> <Batch ID>
0127

> <Smiles>
CNC(C)C(=O)NC(C(=O)N1Cc2cc([101O:1][101CH2:1]C3C(C(C)O)CN3CC[100NH:0][100C:0](=O)N3CCCC(n4nc(-c5ccc(Oc6ccc(F)cc6F)cc5)c(C(N)=O)c4N)C3)ccc2CC1C(=O)NC1CCCc2ccccc21)C(C)(C)C

> <Shape>
0.231

> <Color>
0.066

> <Negative vol penalty>
0.000

$$$$

  -OEChem-04052320403D

 85 94  0     1  0  0  0  0  0999 V2000
  -32.2689  -28.9350   19.5290 C   0  0  0  0  0  0  0  0  0  0  0  0
  -31.3872  -27.9394   19.1208 C   0  0  0  0  0  0  0  0  0  0  0  0
  -25.6757  -13.8252   21.2647 C   0  0  0  0  0  0  0  0  0  0  0  0
  -25.1638  -14.3420   18.9608 C   0  0  0  0  0  0  0  0  0  0  0  0
  -32.1029  -29.5450   20.7716 C   0  0  0  0  0  0  0  0  0  0  0  0
  -30.3395  -27.5523   19.9556 C   0  0  0  0  0  0  0  0  0  0  0  0
  -25.9513  -27.0773   17.4730 C   0  0  0  0  0  0  0  0  0  0  0  0
  -24.6499  -12.8802   21.2806 C   0  0  0  0  0  0  0  0  0  0  0  0
  -24.1380  -13.3970   18.9767 C   0  0  0  0  0  0  0  0  0  0  0  0
  -25.7686  -25.9190   16.7188 C   0  0  0  0  0  0  0  0  0  0  0  0
  -24.1660   -9.7106   20.2072 C   0  0  0  0  0  0  0  0  0  0  0  0
  -24.4371   -8.4692   20.7827 C   0  0  0  0  0  0  0  0  0  0  0  0
  -24.4389  -24.9775   18.4977 C   0  0  0  0  0  0  0  0  0  0  0  0
  -29.2462  -23.9360   13.8603 C   0  0  0  0  0  0  0  0  0  0  0  0
  -22.6729   -8.8308   22.3933 C   0  0  0  0  0  0  0  0  0  0  0  0
  -25.9326  -14.5562   20.1047 C   0  0  0  0  0  0  0  0  0  0  0  0
  -28.3393  -15.3197   19.7404 C   0  0  0  0  0  0  0  0  0  0  0  0
  -31.0469  -29.1721   21.6180 C   0  0  0  0  0  0  0  0  0  0  0  0
  -25.3873  -27.1902   18.7519 C   0  0  0  0  0  0  0  0  0  0  0  0
  -30.1599  -28.1570   21.2113 C   0  0  0  0  0  0  0  0  0  0  0  0
  -24.6138  -26.1393   19.2651 C   0  0  0  0  0  0  0  0  0  0  0  0
  -30.9317  -23.9657   15.5765 C   0  0  0  0  0  0  0  0  0  0  0  0
  -30.4184  -24.4512   14.3780 C   0  0  0  0  0  0  0  0  0  0  0  0
  -23.8810  -12.6661   20.1367 C   0  0  0  0  0  0  0  0  0  0  0  0
  -25.0147  -24.8678   17.2323 C   0  0  0  0  0  0  0  0  0  0  0  0
  -23.1485  -10.5121   20.7248 C   0  0  0  0  0  0  0  0  0  0  0  0
  -23.6905   -8.0293   21.8758 C   0  0  0  0  0  0  0  0  0  0  0  0
  -22.4019  -10.0722   21.8178 C   0  0  0  0  0  0  0  0  0  0  0  0
  -26.9918  -15.5329   20.0878 C   0  0  0  0  0  0  0  0  0  0  0  0
  -28.6365  -22.8980   14.5567 C   0  0  0  0  0  0  0  0  0  0  0  0
  -30.2894  -22.9419   16.2389 C   0  0  0  0  0  0  0  0  0  0  0  0
  -28.9300  -16.5513   19.8845 C   0  0  0  0  0  0  0  0  0  0  0  0
  -28.9980  -14.1161   19.3244 C   0  0  0  0  0  0  0  0  0  0  0  0
  -26.5445  -27.5627   21.6889 C   0  0  0  0  0  0  0  0  0  0  0  0
  -23.4085  -27.8469   22.4682 C   0  0  0  0  0  0  0  0  0  0  0  0
  -20.1561  -27.1696   21.6870 C   0  0  0  0  0  0  0  0  0  0  0  0
  -28.9004  -22.0811   19.1324 C   0  0  0  0  0  0  0  0  0  0  0  0
  -30.9359  -29.8269   22.9721 C   0  0  0  0  0  0  0  0  0  0  0  0
  -25.5714  -28.4568   19.5419 C   0  0  0  0  0  0  0  0  0  0  0  0
  -32.1423  -24.7457   15.9579 C   0  0  0  0  0  0  0  0  0  0  0  0
  -23.9701  -26.2188   20.6245 C   0  0  0  0  0  0  0  0  0  0  0  0
  -29.5779  -29.6215   23.6386 C   0  0  0  0  0  0  0  0  0  0  0  0
  -27.1908  -20.8112   21.9857 C   0  0  0  0  0  0  0  0  0  0  0  0
  -29.1510  -28.1603   23.5411 C   0  0  0  0  0  0  0  0  0  0  0  0
  -27.0924  -19.3089   21.7146 C   0  0  0  0  0  0  0  0  0  0  0  0
  -32.3948  -25.5615   14.6703 C   0  0  0  0  0  0  0  0  0  0  0  0
  -27.0399  -21.6271   20.7037 C   0  0  0  0  0  0  0  0  0  0  0  0
  -27.8597  -19.7425   19.3435 C   0  0  0  0  0  0  0  0  0  0  0  0
  -28.9964  -27.7271   22.0783 C   0  0  1  0  0  0  0  0  0  0  0  0
  -25.3801  -28.2584   21.0424 C   0  0  1  0  0  0  0  0  0  0  0  0
  -28.0618  -18.8759   20.5983 C   0  0  2  0  0  0  0  0  0  0  0  0
  -17.8171  -27.4983   22.5345 C   0  0  0  0  0  0  0  0  0  0  0  0
  -25.9404  -21.6192   16.7408 C   0  0  0  0  0  0  0  0  0  0  0  0
  -23.8535  -25.6521   24.5405 C   0  0  0  0  0  0  0  0  0  0  0  0
  -21.3696  -25.3652   24.6678 C   0  0  0  0  0  0  0  0  0  0  0  0
  -22.4069  -27.5397   25.3144 C   0  0  0  0  0  0  0  0  0  0  0  0
  -19.3805  -28.7189   19.2876 C   0  0  0  0  0  0  0  0  0  0  0  0
  -27.3613  -22.2573   14.0698 C   0  0  0  0  0  0  0  0  0  0  0  0
  -30.7674  -22.3761   17.5242 C   0  0  0  0  0  0  0  0  0  0  0  0
  -26.0877  -22.9350   14.5958 C   0  0  0  0  0  0  0  0  0  0  0  0
  -22.3164  -26.8868   22.8736 C   0  0  1  0  0  0  0  0  0  0  0  0
  -18.9233  -28.0547   21.6517 C   0  0  2  0  0  0  0  0  0  0  0  0
  -26.0068  -23.0112   16.1255 C   0  0  1  0  0  0  0  0  0  1  0  0
  -22.5002  -26.3584   24.3242 C   0  0  0  0  0  0  0  0  0  0  0  0
  -26.7411  -16.8001   20.4273 N   0  0  0  0  0  0  0  0  0  0  0  0
  -27.9391  -17.3943   20.2939 N   0  0  0  0  0  0  0  0  0  0  0  0
  -29.1665  -22.4356   15.7036 N   0  3  0  0  0  0  0  0  0  0  0  0
  -31.1644  -25.5206   13.8879 N   0  0  0  0  0  0  0  0  0  0  0  0
  -24.1844  -27.4755   21.3610 N   0  0  0  0  0  0  0  0  0  0  0  0
  -27.9885  -21.1675   19.6864 N   0  0  0  0  0  0  0  0  0  0  0  0
  -30.1952  -16.9845   19.6998 N   0  0  0  0  0  0  0  0  0  0  0  0
  -28.2424  -12.9395   19.2292 N   0  0  0  0  0  0  0  0  0  0  0  0
  -27.7496  -28.2208   21.5340 N   0  0  0  0  0  0  0  0  0  0  0  0
  -21.0550  -27.5840   22.6470 N   0  0  0  0  0  0  0  0  0  0  0  0
  -29.7684  -21.5618   18.1797 N   0  0  0  0  0  0  0  0  0  0  0  0
  -18.4035  -28.1634   20.2592 N   0  3  0  0  0  0  0  0  0  0  0  0
  -30.2240  -14.0813   19.0613 O   0  0  0  0  0  0  0  0  0  0  0  0
  -26.3626  -26.5078   22.2854 O   0  0  0  0  0  0  0  0  0  0  0  0
  -23.5627  -28.8916   23.1058 O   0  0  0  0  0  0  0  0  0  0  0  0
  -20.3050  -26.2047   20.9405 O   0  0  0  0  0  0  0  0  0  0  0  0
  -28.9418  -23.2701   19.4663 O   0  0  0  0  0  0  0  0  0  0  0  0
  -22.8801  -11.7439   20.1518 O   0  0  0  0  0  0  0  0  0  0  0  0
  -24.8354  -23.7359   16.4985 O   0  0  0  0  0  0  0  0  0  1  0  0
  -23.9499   -6.8366   22.4274 F   0  0  0  0  0  0  0  0  0  0  0  0
  -21.4223  -10.8372   22.3187 F   0  0  0  0  0  0  0  0  0  0  0  0
  1  2  1  0  0  0  0
  1  5  2  0  0  0  0
  2  6  2  0  0  0  0
  3  8  2  0  0  0  0
  3 16  1  0  0  0  0
  4  9  1  0  0  0  0
  4 16  2  0  0  0  0
  5 18  1  0  0  0  0
  6 20  1  0  0  0  0
  7 10  2  0  0  0  0
  7 19  1  0  0  0  0
  8 24  1  0  0  0  0
  9 24  2  0  0  0  0
 10 25  1  0  0  0  0
 11 12  2  0  0  0  0
 11 26  1  0  0  0  0
 12 27  1  0  0  0  0
 13 21  1  0  0  0  0
 13 25  2  0  0  0  0
 14 23  2  0  0  0  0
 14 30  1  0  0  0  0
 15 27  2  0  0  0  0
 15 28  1  0  0  0  0
 16 29  1  0  0  0  0
 17 29  1  0  0  0  0
 17 32  2  0  0  0  0
 17 33  1  0  0  0  0
 18 20  2  0  0  0  0
 18 38  1  0  0  0  0
 19 21  2  0  0  0  0
 19 39  1  0  0  0  0
 20 49  1  0  0  0  0
 21 41  1  0  0  0  0
 22 23  1  0  0  0  0
 22 31  2  0  0  0  0
 22 40  1  0  0  0  0
 23 68  1  0  0  0  0
 24 82  1  0  0  0  0
 25 83  1  0  0  0  0
 26 28  2  0  0  0  0
 26 82  1  0  0  0  0
 27 84  1  0  0  0  0
 28 85  1  0  0  0  0
 29 65  2  0  0  0  0
 30 58  1  0  0  0  0
 30 67  2  0  0  0  0
 31 59  1  0  0  0  0
 31 67  1  0  0  0  0
 32 66  1  0  0  0  0
 32 71  1  0  0  0  0
 33 72  1  0  0  0  0
 33 77  2  0  0  0  0
 34 50  1  0  0  0  0
 34 73  1  0  0  0  0
 34 78  2  0  0  0  0
 35 61  1  0  0  0  0
 35 69  1  0  0  0  0
 35 79  2  0  0  0  0
 36 62  1  0  0  0  0
 36 74  1  0  0  0  0
 36 80  2  0  0  0  0
 37 70  1  0  0  0  0
 37 75  1  0  0  0  0
 37 81  2  0  0  0  0
 38 42  1  0  0  0  0
 39 50  1  0  0  0  0
 40 46  1  0  0  0  0
 41 69  1  0  0  0  0
 42 44  1  0  0  0  0
 43 45  1  0  0  0  0
 43 47  1  0  0  0  0
 44 49  1  0  0  0  0
 45 51  1  0  0  0  0
 46 68  1  0  0  0  0
 47 70  1  0  0  0  0
 48 51  1  0  0  0  0
 48 70  1  0  0  0  0
 49 73  1  0  0  0  0
 50 69  1  0  0  0  0
 51 66  1  0  0  0  0
 52 62  1  0  0  0  0
 53 63  1  0  0  0  0
 54 64  1  0  0  0  0
 55 64  1  0  0  0  0
 56 64  1  0  0  0  0
 57 76  1  0  0  0  0
 58 60  1  0  0  0  0
 59 75  1  0  0  0  0
 60 63  1  0  0  0  0
 61 64  1  0  0  0  0
 61 74  1  0  0  0  0
 62 76  1  0  0  0  0
 63 83  1  0  0  0  0
 65 66  1  0  0  0  0
M  CHG  2  67   1  76   1
M  ISO  4  37 100  63 101  75 100  83 101
M  END
> <Batch ID>
0127

> <Smiles>
CNC(C)C(=O)NC(C(=O)N1Cc2cc([101O:1][101CH:1](C)CCc3cc4c(c(C[100NH:0][100C:0](=O)N5CCCC(n6nc(-c7ccc(Oc8ccc(F)cc8F)cc7)c(C(N)=O)c6N)C5)n3)CCN4)ccc2CC1C(=O)NC1CCCc2ccccc21)C(C)(C)C

> <Shape>
0.228

> <Color>
0.065

> <Negative vol penalty>
0.000

$$$$

  -OEChem-04052320403D

 86 95  0     1  0  0  0  0  0999 V2000
  -28.6655  -26.5587   13.2836 C   0  0  0  0  0  0  0  0  0  0  0  0
  -27.5842  -26.9306   14.0759 C   0  0  0  0  0  0  0  0  0  0  0  0
  -26.5475  -14.3252   18.5377 C   0  0  0  0  0  0  0  0  0  0  0  0
  -25.0269  -14.9021   20.3243 C   0  0  0  0  0  0  0  0  0  0  0  0
  -29.7895  -25.9769   13.8686 C   0  0  0  0  0  0  0  0  0  0  0  0
  -27.6258  -26.7199   15.4537 C   0  0  0  0  0  0  0  0  0  0  0  0
  -25.1687  -30.2706   19.7966 C   0  0  0  0  0  0  0  0  0  0  0  0
  -26.5871  -13.0085   18.9966 C   0  0  0  0  0  0  0  0  0  0  0  0
  -25.0663  -13.5855   20.7831 C   0  0  0  0  0  0  0  0  0  0  0  0
  -23.9768  -30.1852   20.5148 C   0  0  0  0  0  0  0  0  0  0  0  0
  -23.6764  -10.6184   19.9555 C   0  0  0  0  0  0  0  0  0  0  0  0
  -22.4659  -10.0172   20.3002 C   0  0  0  0  0  0  0  0  0  0  0  0
  -25.1502  -29.0998   22.3215 C   0  0  0  0  0  0  0  0  0  0  0  0
  -23.2696   -9.6919   22.5553 C   0  0  0  0  0  0  0  0  0  0  0  0
  -25.7675  -15.2720   19.2016 C   0  0  0  0  0  0  0  0  0  0  0  0
  -24.8314  -17.1795   17.7900 C   0  0  0  0  0  0  0  0  0  0  0  0
  -29.8488  -25.7678   15.2554 C   0  0  0  0  0  0  0  0  0  0  0  0
  -26.3603  -29.7606   20.3318 C   0  0  0  0  0  0  0  0  0  0  0  0
  -28.7510  -26.1336   16.0576 C   0  0  0  0  0  0  0  0  0  0  0  0
  -26.3564  -29.1823   21.6092 C   0  0  0  0  0  0  0  0  0  0  0  0
  -25.8464  -12.6387   20.1192 C   0  0  0  0  0  0  0  0  0  0  0  0
  -23.9669  -29.5971   21.7762 C   0  0  0  0  0  0  0  0  0  0  0  0
  -24.6836  -10.7562   20.9106 C   0  0  0  0  0  0  0  0  0  0  0  0
  -22.2624   -9.5540   21.6001 C   0  0  0  0  0  0  0  0  0  0  0  0
  -24.4802  -10.2930   22.2105 C   0  0  0  0  0  0  0  0  0  0  0  0
  -25.7267  -16.6324   18.7285 C   0  0  0  0  0  0  0  0  0  0  0  0
  -25.2065  -18.4966   17.6850 C   0  0  0  0  0  0  0  0  0  0  0  0
  -23.7567  -16.5532   17.0769 C   0  0  0  0  0  0  0  0  0  0  0  0
  -28.4081  -27.4836   19.4800 C   0  0  0  0  0  0  0  0  0  0  0  0
  -30.1227  -28.6312   21.9831 C   0  0  0  0  0  0  0  0  0  0  0  0
  -30.1424  -30.3083   24.9553 C   0  0  0  0  0  0  0  0  0  0  0  0
  -27.2269  -22.8409   20.9345 C   0  0  0  0  0  0  0  0  0  0  0  0
  -31.0657  -25.0923   15.8363 C   0  0  0  0  0  0  0  0  0  0  0  0
  -27.6427  -29.8845   19.5557 C   0  0  0  0  0  0  0  0  0  0  0  0
  -27.6125  -28.6379   22.2370 C   0  0  0  0  0  0  0  0  0  0  0  0
  -31.1834  -25.2465   17.3505 C   0  0  0  0  0  0  0  0  0  0  0  0
  -29.3258  -21.0373   18.6942 C   0  0  0  0  0  0  0  0  0  0  0  0
  -29.8453  -24.9554   18.0224 C   0  0  0  0  0  0  0  0  0  0  0  0
  -18.4080  -26.5911   22.7195 C   0  0  0  0  0  0  0  0  0  0  0  0
  -28.5284  -19.7684   18.3875 C   0  0  0  0  0  0  0  0  0  0  0  0
  -24.1530  -24.5431   20.6930 C   0  0  0  0  0  0  0  0  0  0  0  0
  -24.6113  -23.8346   23.0815 C   0  0  0  0  0  0  0  0  0  0  0  0
  -19.8115  -26.2880   23.2385 C   0  0  0  0  0  0  0  0  0  0  0  0
  -23.4151  -25.7817   21.2031 C   0  0  0  0  0  0  0  0  0  0  0  0
  -23.8741  -25.0742   23.5899 C   0  0  0  0  0  0  0  0  0  0  0  0
  -19.1709  -28.8918   22.0034 C   0  0  0  0  0  0  0  0  0  0  0  0
  -29.1417  -21.4830   20.1432 C   0  0  0  0  0  0  0  0  0  0  0  0
  -26.9414  -20.3792   20.2602 C   0  0  0  0  0  0  0  0  0  0  0  0
  -28.7686  -25.9440   17.5589 C   0  0  1  0  0  0  0  0  0  0  0  0
  -28.6993  -28.8697   19.9815 C   0  0  1  0  0  0  0  0  0  0  0  0
  -18.1039  -28.0932   22.7659 C   0  0  1  0  0  0  0  0  0  0  0  0
  -20.5907  -28.6002   22.5229 C   0  0  1  0  0  0  0  0  0  0  0  0
  -27.0509  -19.9223   18.7954 C   0  0  2  0  0  0  0  0  0  0  0  0
  -25.2129  -24.0717   21.6928 C   0  0  0  0  0  0  0  0  0  0  0  0
  -22.8184  -25.5296   22.5854 C   0  0  0  0  0  0  0  0  0  0  0  0
  -20.8676  -27.0870   22.4748 C   0  0  1  0  0  0  0  0  0  0  0  0
  -16.7128  -28.3782   22.2022 C   0  0  0  0  0  0  0  0  0  0  0  0
  -31.6885  -31.0560   26.7850 C   0  0  0  0  0  0  0  0  0  0  0  0
  -30.2232  -25.7784   23.0607 C   0  0  0  0  0  0  0  0  0  0  0  0
  -30.9131  -26.7144   25.2779 C   0  0  0  0  0  0  0  0  0  0  0  0
  -32.3648  -27.0515   23.2775 C   0  0  0  0  0  0  0  0  0  0  0  0
  -29.5175  -33.1611   24.4760 C   0  0  0  0  0  0  0  0  0  0  0  0
  -21.5971  -29.4031   21.7267 C   0  0  0  0  0  0  0  0  0  1  0  0
  -30.1907  -28.3289   23.4606 C   0  0  1  0  0  0  0  0  0  0  0  0
  -31.0215  -31.4331   25.4713 C   0  0  2  0  0  0  0  0  0  0  0  0
  -30.8988  -26.9767   23.7568 C   0  0  0  0  0  0  0  0  0  0  0  0
  -26.6046  -17.5286   19.1870 N   0  0  0  0  0  0  0  0  0  0  0  0
  -26.2627  -18.6522   18.5337 N   0  0  0  0  0  0  0  0  0  0  0  0
  -28.8400  -28.7768   21.4360 N   0  0  0  0  0  0  0  0  0  0  0  0
  -27.7185  -21.6115   20.4655 N   0  0  0  0  0  0  0  0  0  0  0  0
  -24.7326  -19.5253   16.9504 N   0  0  0  0  0  0  0  0  0  0  0  0
  -23.5079  -15.1926   17.3035 N   0  0  0  0  0  0  0  0  0  0  0  0
  -28.9294  -27.2169   18.2284 N   0  0  0  0  0  0  0  0  0  0  0  0
  -30.8250  -29.4848   24.0850 N   0  0  0  0  0  0  0  0  0  0  0  0
  -25.8656  -22.8787   21.2102 N   0  0  0  0  0  0  0  0  0  0  0  0
  -22.1966  -26.7874   23.0778 N   0  3  0  0  0  0  0  0  0  0  0  0
  -30.2112  -32.6642   25.6921 N   0  3  0  0  0  0  0  0  0  0  0  0
  -23.0488  -17.1775   16.2506 O   0  0  0  0  0  0  0  0  0  0  0  0
  -27.7597  -26.7125   20.1777 O   0  0  0  0  0  0  0  0  0  0  0  0
  -31.1693  -28.7414   21.3395 O   0  0  0  0  0  0  0  0  0  0  0  0
  -28.9688  -30.1714   25.2935 O   0  0  0  0  0  0  0  0  0  0  0  0
  -27.9469  -23.8330   21.0906 O   0  0  0  0  0  0  0  0  0  0  0  0
  -25.8846  -11.3539   20.5670 O   0  0  0  0  0  0  0  0  0  0  0  0
  -22.8047  -29.5119   22.4791 O   0  0  0  0  0  0  0  0  0  1  0  0
  -21.0993   -8.9781   21.9313 F   0  0  0  0  0  0  0  0  0  0  0  0
  -25.4436  -10.4237   23.1328 F   0  0  0  0  0  0  0  0  0  0  0  0
  1  2  1  0  0  0  0
  1  5  2  0  0  0  0
  2  6  2  0  0  0  0
  3  8  2  0  0  0  0
  3 15  1  0  0  0  0
  4  9  1  0  0  0  0
  4 15  2  0  0  0  0
  5 17  1  0  0  0  0
  6 19  1  0  0  0  0
  7 10  2  0  0  0  0
  7 18  1  0  0  0  0
  8 21  1  0  0  0  0
  9 21  2  0  0  0  0
 10 22  1  0  0  0  0
 11 12  2  0  0  0  0
 11 23  1  0  0  0  0
 12 24  1  0  0  0  0
 13 20  1  0  0  0  0
 13 22  2  0  0  0  0
 14 24  2  0  0  0  0
 14 25  1  0  0  0  0
 15 26  1  0  0  0  0
 16 26  1  0  0  0  0
 16 27  2  0  0  0  0
 16 28  1  0  0  0  0
 17 19  2  0  0  0  0
 17 33  1  0  0  0  0
 18 20  2  0  0  0  0
 18 34  1  0  0  0  0
 19 49  1  0  0  0  0
 20 35  1  0  0  0  0
 21 83  1  0  0  0  0
 22 84  1  0  0  0  0
 23 25  2  0  0  0  0
 23 83  1  0  0  0  0
 24 85  1  0  0  0  0
 25 86  1  0  0  0  0
 26 67  2  0  0  0  0
 27 68  1  0  0  0  0
 27 71  1  0  0  0  0
 28 72  1  0  0  0  0
 28 78  2  0  0  0  0
 29 50  1  0  0  0  0
 29 73  1  0  0  0  0
 29 79  2  0  0  0  0
 30 64  1  0  0  0  0
 30 69  1  0  0  0  0
 30 80  2  0  0  0  0
 31 65  1  0  0  0  0
 31 74  1  0  0  0  0
 31 81  2  0  0  0  0
 32 70  1  0  0  0  0
 32 75  1  0  0  0  0
 32 82  2  0  0  0  0
 33 36  1  0  0  0  0
 34 50  1  0  0  0  0
 35 69  1  0  0  0  0
 36 38  1  0  0  0  0
 37 40  1  0  0  0  0
 37 47  1  0  0  0  0
 38 49  1  0  0  0  0
 39 43  1  0  0  0  0
 39 51  1  0  0  0  0
 40 53  1  0  0  0  0
 41 44  1  0  0  0  0
 41 54  1  0  0  0  0
 42 45  1  0  0  0  0
 42 54  1  0  0  0  0
 43 56  1  0  0  0  0
 44 55  1  0  0  0  0
 45 55  1  0  0  0  0
 46 51  1  0  0  0  0
 46 52  1  0  0  0  0
 47 70  1  0  0  0  0
 48 53  1  0  0  0  0
 48 70  1  0  0  0  0
 49 73  1  0  0  0  0
 50 69  1  0  0  0  0
 51 57  1  0  0  0  0
 52 56  1  0  0  0  0
 52 63  1  0  0  0  0
 53 68  1  0  0  0  0
 54 75  1  0  0  0  0
 55 76  1  0  0  0  0
 56 76  1  0  0  0  0
 58 65  1  0  0  0  0
 59 66  1  0  0  0  0
 60 66  1  0  0  0  0
 61 66  1  0  0  0  0
 62 77  1  0  0  0  0
 63 84  1  0  0  0  0
 64 66  1  0  0  0  0
 64 74  1  0  0  0  0
 65 77  1  0  0  0  0
 67 68  1  0  0  0  0
M  CHG  2  76   1  77   1
M  ISO  4  32 100  63 101  75 100  84 101
M  END
> <Batch ID>
0127

> <Smiles>
CNC(C)C(=O)NC(C(=O)N1Cc2cc([101O:1][101CH2:1]C3CC(C)CCC3NC3CCC([100NH:0][100C:0](=O)N4CCCC(n5nc(-c6ccc(Oc7ccc(F)cc7F)cc6)c(C(N)=O)c5N)C4)CC3)ccc2CC1C(=O)NC1CCCc2ccccc21)C(C)(C)C

> <Shape>
0.229

> <Color>
0.074

> <Negative vol penalty>
0.000

$$$$

  -OEChem-04052320403D

 84 93  0     1  0  0  0  0  0999 V2000
  -33.0043  -27.1938    8.6461 C   0  0  0  0  0  0  0  0  0  0  0  0
  -32.6355  -26.2125    9.5607 C   0  0  0  0  0  0  0  0  0  0  0  0
  -23.0695   -9.8372   19.9416 C   0  0  0  0  0  0  0  0  0  0  0  0
  -23.8361   -9.8499   22.2327 C   0  0  0  0  0  0  0  0  0  0  0  0
  -33.7483  -28.2946    9.0686 C   0  0  0  0  0  0  0  0  0  0  0  0
  -33.0115  -26.3310   10.8982 C   0  0  0  0  0  0  0  0  0  0  0  0
  -29.8003  -24.5440   15.7973 C   0  0  0  0  0  0  0  0  0  0  0  0
  -22.3379   -8.6765   20.1928 C   0  0  0  0  0  0  0  0  0  0  0  0
  -23.1045   -8.6892   22.4839 C   0  0  0  0  0  0  0  0  0  0  0  0
  -29.8652  -23.4033   16.5963 C   0  0  0  0  0  0  0  0  0  0  0  0
  -19.8862   -7.8587   23.0953 C   0  0  0  0  0  0  0  0  0  0  0  0
  -19.1332   -7.8102   24.2684 C   0  0  0  0  0  0  0  0  0  0  0  0
  -31.2572  -24.5910   18.1683 C   0  0  0  0  0  0  0  0  0  0  0  0
  -29.2757  -18.6790   20.8908 C   0  0  0  0  0  0  0  0  0  0  0  0
  -20.3961   -5.8847   24.9995 C   0  0  0  0  0  0  0  0  0  0  0  0
  -23.8186  -10.4239   20.9615 C   0  0  0  0  0  0  0  0  0  0  0  0
  -24.1349  -12.9524   20.8426 C   0  0  0  0  0  0  0  0  0  0  0  0
  -34.1254  -28.4314   10.4138 C   0  0  0  0  0  0  0  0  0  0  0  0
  -30.4735  -25.7154   16.1730 C   0  0  0  0  0  0  0  0  0  0  0  0
  -33.7624  -27.4340   11.3389 C   0  0  0  0  0  0  0  0  0  0  0  0
  -31.1971  -25.7459   17.3736 C   0  0  0  0  0  0  0  0  0  0  0  0
  -29.0905  -19.7044   19.9702 C   0  0  0  0  0  0  0  0  0  0  0  0
  -30.1263  -20.0562   19.1119 C   0  0  0  0  0  0  0  0  0  0  0  0
  -22.3554   -8.1025   21.4639 C   0  0  0  0  0  0  0  0  0  0  0  0
  -30.5961  -23.4258   17.7806 C   0  0  0  0  0  0  0  0  0  0  0  0
  -20.8942   -6.9201   22.8743 C   0  0  0  0  0  0  0  0  0  0  0  0
  -19.3881   -6.8232   25.2205 C   0  0  0  0  0  0  0  0  0  0  0  0
  -21.1491   -5.9331   23.8264 C   0  0  0  0  0  0  0  0  0  0  0  0
  -24.5750  -11.6226   20.7025 C   0  0  0  0  0  0  0  0  0  0  0  0
  -30.5058  -18.0416   20.9128 C   0  0  0  0  0  0  0  0  0  0  0  0
  -31.3184  -19.3574   19.2138 C   0  0  0  0  0  0  0  0  0  0  0  0
  -25.2184  -13.7131   20.4768 C   0  0  0  0  0  0  0  0  0  0  0  0
  -22.8605  -13.4552   21.2657 C   0  0  0  0  0  0  0  0  0  0  0  0
  -32.8045  -27.4670   14.9074 C   0  0  0  0  0  0  0  0  0  0  0  0
  -32.1187  -29.4580   17.3748 C   0  0  0  0  0  0  0  0  0  0  0  0
  -30.8156  -29.8509   20.5044 C   0  0  0  0  0  0  0  0  0  0  0  0
  -30.6922  -14.7867   20.6497 C   0  0  0  0  0  0  0  0  0  0  0  0
  -34.9699  -29.6152   10.8142 C   0  0  0  0  0  0  0  0  0  0  0  0
  -30.3716  -26.9455   15.3135 C   0  0  0  0  0  0  0  0  0  0  0  0
  -31.9210  -26.9846   17.8319 C   0  0  0  0  0  0  0  0  0  0  0  0
  -35.0080  -29.8543   12.3214 C   0  0  0  0  0  0  0  0  0  0  0  0
  -29.5714  -12.3929   18.2643 C   0  0  0  0  0  0  0  0  0  0  0  0
  -27.7459  -21.9080   20.0711 C   0  0  0  0  0  0  0  0  0  0  0  0
  -27.2367  -21.0394   21.1785 C   0  0  0  0  0  0  0  0  0  0  0  0
  -35.2580  -28.5452   13.0635 C   0  0  0  0  0  0  0  0  0  0  0  0
  -28.1383  -12.0845   18.7013 C   0  0  0  0  0  0  0  0  0  0  0  0
  -30.4898  -12.6219   19.4627 C   0  0  0  0  0  0  0  0  0  0  0  0
  -28.5850  -13.3328   20.8555 C   0  0  0  0  0  0  0  0  0  0  0  0
  -27.7761  -20.4103   19.9215 C   0  0  0  0  0  0  0  0  0  0  0  0
  -34.1302  -27.5394   12.8030 C   0  0  1  0  0  0  0  0  0  0  0  0
  -31.5190  -27.9261   15.5353 C   0  0  1  0  0  0  0  0  0  0  0  0
  -27.6092  -13.1494   19.6806 C   0  0  2  0  0  0  0  0  0  0  0  0
  -33.5583  -18.6248   18.3579 C   0  0  0  0  0  0  0  0  0  0  0  0
  -30.4303  -31.5880   22.2739 C   0  0  0  0  0  0  0  0  0  0  0  0
  -35.0771  -29.3573   18.1145 C   0  0  0  0  0  0  0  0  0  0  0  0
  -34.4762  -30.2902   20.3587 C   0  0  0  0  0  0  0  0  0  0  0  0
  -34.0327  -31.6223   18.2968 C   0  0  0  0  0  0  0  0  0  0  0  0
  -27.8821  -29.4733   20.4001 C   0  0  0  0  0  0  0  0  0  0  0  0
  -29.9574  -21.1584   18.1080 C   0  0  0  0  0  0  0  0  0  1  0  0
  -32.4669  -19.6900   18.3183 C   0  0  0  0  0  0  0  0  0  0  0  0
  -30.7403  -16.9368   21.8882 C   0  0  0  0  0  0  0  0  0  0  0  0
  -32.5995  -29.6009   18.7986 C   0  0  1  0  0  0  0  0  0  0  0  0
  -29.8421  -30.8693   21.0696 C   0  0  2  0  0  0  0  0  0  0  0  0
  -34.0345  -30.1936   18.8828 C   0  0  0  0  0  0  0  0  0  0  0  0
  -25.8395  -11.5397   20.2804 N   0  0  0  0  0  0  0  0  0  0  0  0
  -31.5356  -18.3555   20.0951 N   0  0  0  0  0  0  0  0  0  0  0  0
  -26.2032  -12.8271   20.1521 N   0  0  0  0  0  0  0  0  0  0  0  0
  -31.7964  -28.1599   16.9540 N   0  0  0  0  0  0  0  0  0  0  0  0
  -29.9317  -13.6441   20.3512 N   0  0  0  0  0  0  0  0  0  0  0  0
  -25.4153  -15.0466   20.4042 N   0  0  0  0  0  0  0  0  0  0  0  0
  -21.8588  -12.5357   21.6052 N   0  0  0  0  0  0  0  0  0  0  0  0
  -32.9651  -27.8700   13.5954 N   0  0  0  0  0  0  0  0  0  0  0  0
  -31.5865  -30.3869   19.4946 N   0  0  0  0  0  0  0  0  0  0  0  0
  -30.0863  -15.7088   21.4943 N   0  0  0  0  0  0  0  0  0  0  0  0
  -28.5795  -30.1999   21.4922 N   0  3  0  0  0  0  0  0  0  0  0  0
  -22.6122  -14.6833   21.3248 O   0  0  0  0  0  0  0  0  0  0  0  0
  -33.5930  -26.7980   15.5649 O   0  0  0  0  0  0  0  0  0  0  0  0
  -32.0253  -30.4620   16.6643 O   0  0  0  0  0  0  0  0  0  0  0  0
  -30.8878  -28.6964   20.9198 O   0  0  0  0  0  0  0  0  0  0  0  0
  -31.8250  -14.9739   20.1929 O   0  0  0  0  0  0  0  0  0  0  0  0
  -21.6414   -6.9700   21.7094 O   0  0  0  0  0  0  0  0  0  0  0  0
  -30.6616  -22.3136   18.5620 O   0  0  0  0  0  0  0  0  0  1  0  0
  -18.6659   -6.7778   26.3477 F   0  0  0  0  0  0  0  0  0  0  0  0
  -22.1169   -5.0294   23.6201 F   0  0  0  0  0  0  0  0  0  0  0  0
  1  2  1  0  0  0  0
  1  5  2  0  0  0  0
  2  6  2  0  0  0  0
  3  8  2  0  0  0  0
  3 16  1  0  0  0  0
  4  9  1  0  0  0  0
  4 16  2  0  0  0  0
  5 18  1  0  0  0  0
  6 20  1  0  0  0  0
  7 10  2  0  0  0  0
  7 19  1  0  0  0  0
  8 24  1  0  0  0  0
  9 24  2  0  0  0  0
 10 25  1  0  0  0  0
 11 12  2  0  0  0  0
 11 26  1  0  0  0  0
 12 27  1  0  0  0  0
 13 21  1  0  0  0  0
 13 25  2  0  0  0  0
 14 22  2  0  0  0  0
 14 30  1  0  0  0  0
 15 27  2  0  0  0  0
 15 28  1  0  0  0  0
 16 29  1  0  0  0  0
 17 29  1  0  0  0  0
 17 32  2  0  0  0  0
 17 33  1  0  0  0  0
 18 20  2  0  0  0  0
 18 38  1  0  0  0  0
 19 21  2  0  0  0  0
 19 39  1  0  0  0  0
 20 50  1  0  0  0  0
 21 40  1  0  0  0  0
 22 23  1  0  0  0  0
 22 49  1  0  0  0  0
 23 31  2  0  0  0  0
 23 59  1  0  0  0  0
 24 81  1  0  0  0  0
 25 82  1  0  0  0  0
 26 28  2  0  0  0  0
 26 81  1  0  0  0  0
 27 83  1  0  0  0  0
 28 84  1  0  0  0  0
 29 65  2  0  0  0  0
 30 61  1  0  0  0  0
 30 66  2  0  0  0  0
 31 60  1  0  0  0  0
 31 66  1  0  0  0  0
 32 67  1  0  0  0  0
 32 70  1  0  0  0  0
 33 71  1  0  0  0  0
 33 76  2  0  0  0  0
 34 51  1  0  0  0  0
 34 72  1  0  0  0  0
 34 77  2  0  0  0  0
 35 62  1  0  0  0  0
 35 68  1  0  0  0  0
 35 78  2  0  0  0  0
 36 63  1  0  0  0  0
 36 73  1  0  0  0  0
 36 79  2  0  0  0  0
 37 69  1  0  0  0  0
 37 74  1  0  0  0  0
 37 80  2  0  0  0  0
 38 41  1  0  0  0  0
 39 51  1  0  0  0  0
 40 68  1  0  0  0  0
 41 45  1  0  0  0  0
 42 46  1  0  0  0  0
 42 47  1  0  0  0  0
 43 44  1  0  0  0  0
 43 49  1  0  0  0  0
 44 49  1  0  0  0  0
 45 50  1  0  0  0  0
 46 52  1  0  0  0  0
 47 69  1  0  0  0  0
 48 52  1  0  0  0  0
 48 69  1  0  0  0  0
 50 72  1  0  0  0  0
 51 68  1  0  0  0  0
 52 67  1  0  0  0  0
 53 60  1  0  0  0  0
 54 63  1  0  0  0  0
 55 64  1  0  0  0  0
 56 64  1  0  0  0  0
 57 64  1  0  0  0  0
 58 75  1  0  0  0  0
 59 82  1  0  0  0  0
 61 74  1  0  0  0  0
 62 64  1  0  0  0  0
 62 73  1  0  0  0  0
 63 75  1  0  0  0  0
 65 67  1  0  0  0  0
M  CHG  1  75   1
M  ISO  4  37 100  59 101  74 100  82 101
M  END
> <Batch ID>
0127

> <Smiles>
CCc1nc(C[100NH:0][100C:0](=O)N2CCCC(n3nc(-c4ccc(Oc5ccc(F)cc5F)cc4)c(C(N)=O)c3N)C2)cc(C2CC2)c1[101CH2:1][101O:1]c1ccc2c(c1)CN(C(=O)C(NC(=O)C(C)NC)C(C)(C)C)C(C(=O)NC1CCCc3ccccc31)C2

> <Shape>
0.247

> <Color>
0.196

> <Negative vol penalty>
0.000

$$$$

  -OEChem-04052320403D

 81 89  0     1  0  0  0  0  0999 V2000
  -16.5361  -29.8355   23.3019 C   0  0  0  0  0  0  0  0  0  0  0  0
  -17.4741  -30.1318   22.3181 C   0  0  0  0  0  0  0  0  0  0  0  0
  -26.7428  -12.6435   20.6590 C   0  0  0  0  0  0  0  0  0  0  0  0
  -25.3205  -14.5075   21.2418 C   0  0  0  0  0  0  0  0  0  0  0  0
  -16.9555  -29.3497   24.5397 C   0  0  0  0  0  0  0  0  0  0  0  0
  -18.8323  -29.9435   22.5720 C   0  0  0  0  0  0  0  0  0  0  0  0
  -24.9272  -28.1203   19.2789 C   0  0  0  0  0  0  0  0  0  0  0  0
  -29.9785  -22.5633   18.3718 C   0  0  0  0  0  0  0  0  0  0  0  0
  -31.3661  -23.2015   20.2438 C   0  0  0  0  0  0  0  0  0  0  0  0
  -29.8204  -23.9065   18.0310 C   0  0  0  0  0  0  0  0  0  0  0  0
  -31.2081  -24.5448   19.9030 C   0  0  0  0  0  0  0  0  0  0  0  0
  -25.8187  -11.7626   21.2208 C   0  0  0  0  0  0  0  0  0  0  0  0
  -24.3963  -13.6266   21.8035 C   0  0  0  0  0  0  0  0  0  0  0  0
  -26.2336  -28.5742   19.1026 C   0  0  0  0  0  0  0  0  0  0  0  0
  -23.6653   -8.9951   22.1795 C   0  0  0  0  0  0  0  0  0  0  0  0
  -23.3466   -7.8436   21.4598 C   0  0  0  0  0  0  0  0  0  0  0  0
  -26.8363  -27.6548   21.2498 C   0  0  0  0  0  0  0  0  0  0  0  0
  -22.5483   -9.2071   19.6320 C   0  0  0  0  0  0  0  0  0  0  0  0
  -26.4938  -14.0159   20.6696 C   0  0  0  0  0  0  0  0  0  0  0  0
  -27.4923  -15.3770   18.7570 C   0  0  0  0  0  0  0  0  0  0  0  0
  -18.3188  -29.1463   24.8055 C   0  0  0  0  0  0  0  0  0  0  0  0
  -24.5623  -27.4387   20.4488 C   0  0  0  0  0  0  0  0  0  0  0  0
  -19.2704  -29.4559   23.8150 C   0  0  0  0  0  0  0  0  0  0  0  0
  -25.5253  -27.1911   21.4374 C   0  0  0  0  0  0  0  0  0  0  0  0
  -30.7513  -22.2107   19.4783 C   0  0  0  0  0  0  0  0  0  0  0  0
  -30.4352  -24.8973   18.7966 C   0  0  0  0  0  0  0  0  0  0  0  0
  -24.6454  -12.2542   21.7930 C   0  0  0  0  0  0  0  0  0  0  0  0
  -27.1877  -28.3440   20.0894 C   0  0  0  0  0  0  0  0  0  0  0  0
  -23.4255  -10.2526   21.6256 C   0  0  0  0  0  0  0  0  0  0  0  0
  -22.7881   -7.9496   20.1860 C   0  0  0  0  0  0  0  0  0  0  0  0
  -22.8670  -10.3586   20.3518 C   0  0  0  0  0  0  0  0  0  0  0  0
  -27.4483  -14.9264   20.0899 C   0  0  0  0  0  0  0  0  0  0  0  0
  -28.5768  -16.2188   18.7147 C   0  0  0  0  0  0  0  0  0  0  0  0
  -26.6300  -15.0627   17.6555 C   0  0  0  0  0  0  0  0  0  0  0  0
  -22.5055  -27.9796   22.8111 C   0  0  0  0  0  0  0  0  0  0  0  0
  -23.4016  -25.0066   23.7497 C   0  0  0  0  0  0  0  0  0  0  0  0
  -25.7580  -22.5386   23.6953 C   0  0  0  0  0  0  0  0  0  0  0  0
  -31.6430  -20.3253   20.8913 C   0  0  0  0  0  0  0  0  0  0  0  0
  -18.7273  -28.6641   26.1749 C   0  0  0  0  0  0  0  0  0  0  0  0
  -23.1554  -26.9322   20.6120 C   0  0  0  0  0  0  0  0  0  0  0  0
  -25.1895  -26.4464   22.7028 C   0  0  0  0  0  0  0  0  0  0  0  0
  -20.1593  -28.1383   26.2334 C   0  0  0  0  0  0  0  0  0  0  0  0
  -32.2492  -17.0323   22.1019 C   0  0  0  0  0  0  0  0  0  0  0  0
  -21.1103  -29.0999   25.5278 C   0  0  0  0  0  0  0  0  0  0  0  0
  -31.0579  -16.2279   21.5767 C   0  0  0  0  0  0  0  0  0  0  0  0
  -31.8432  -18.4481   22.5072 C   0  0  0  0  0  0  0  0  0  0  0  0
  -29.9347  -18.4034   20.9500 C   0  0  0  0  0  0  0  0  0  0  0  0
  -20.7509  -29.2416   24.0438 C   0  0  1  0  0  0  0  0  0  0  0  0
  -22.7693  -26.6998   22.0695 C   0  0  1  0  0  0  0  0  0  0  0  0
  -30.3069  -16.9916   20.4684 C   0  0  2  0  0  0  0  0  0  0  0  0
  -26.2234  -20.2394   24.5867 C   0  0  0  0  0  0  0  0  0  0  0  0
  -24.0435  -26.1993   26.4838 C   0  0  0  0  0  0  0  0  0  0  0  0
  -25.3593  -24.1325   26.9989 C   0  0  0  0  0  0  0  0  0  0  0  0
  -22.9094  -23.9715   26.5576 C   0  0  0  0  0  0  0  0  0  0  0  0
  -25.9105  -21.3878   20.9729 C   0  0  0  0  0  0  0  0  0  0  0  0
  -30.4622  -28.6626   18.5978 C   0  0  0  0  0  0  0  0  0  0  0  0
  -30.8767  -27.3213   19.1905 C   0  0  0  0  0  0  0  0  0  0  0  0
  -28.9515  -28.8645   18.5815 C   0  0  0  0  0  0  0  0  0  1  0  0
  -24.4857  -24.4478   24.6392 C   0  0  1  0  0  0  0  0  0  0  0  0
  -25.6488  -21.0473   23.4334 C   0  0  2  0  0  0  0  0  0  0  0  0
  -24.2057  -24.7035   26.1470 C   0  0  0  0  0  0  0  0  0  0  0  0
  -28.4271  -15.4394   20.8402 N   0  0  0  0  0  0  0  0  0  0  0  0
  -29.0964  -16.2209   19.9757 N   0  0  0  0  0  0  0  0  0  0  0  0
  -23.7990  -25.9767   22.8185 N   0  0  0  0  0  0  0  0  0  0  0  0
  -31.1408  -19.1117   21.4067 N   0  0  0  0  0  0  0  0  0  0  0  0
  -29.1271  -16.9499   17.7222 N   0  0  0  0  0  0  0  0  0  0  0  0
  -25.5633  -14.1799   17.8727 N   0  0  0  0  0  0  0  0  0  0  0  0
  -30.9104  -20.8461   19.8252 N   0  0  0  0  0  0  0  0  0  0  0  0
  -30.2785  -26.2321   18.4570 N   0  0  0  0  0  0  0  0  0  0  0  0
  -21.2174  -28.0920   23.2988 N   0  0  0  0  0  0  0  0  0  0  0  0
  -24.6169  -23.0382   24.2865 N   0  0  0  0  0  0  0  0  0  0  0  0
  -26.3875  -20.6841   22.1911 N   0  3  0  0  0  0  0  0  0  0  0  0
  -26.8100  -15.5376   16.5084 O   0  0  0  0  0  0  0  0  0  0  0  0
  -23.4044  -28.8035   22.9333 O   0  0  0  0  0  0  0  0  0  0  0  0
  -22.2461  -24.5925   23.8715 O   0  0  0  0  0  0  0  0  0  0  0  0
  -26.7571  -23.1940   23.4078 O   0  0  0  0  0  0  0  0  0  0  0  0
  -32.6644  -20.8490   21.3434 O   0  0  0  0  0  0  0  0  0  0  0  0
  -23.7432  -11.3949   22.3411 O   0  0  0  0  0  0  0  0  0  0  0  0
  -28.4634  -28.7865   19.9201 O   0  0  0  0  0  0  0  0  0  1  0  0
  -22.4834   -6.8437   19.4943 F   0  0  0  0  0  0  0  0  0  0  0  0
  -22.6354  -11.5639   19.8139 F   0  0  0  0  0  0  0  0  0  0  0  0
  1  2  1  0  0  0  0
  1  5  2  0  0  0  0
  2  6  2  0  0  0  0
  3 12  2  0  0  0  0
  3 19  1  0  0  0  0
  4 13  1  0  0  0  0
  4 19  2  0  0  0  0
  5 21  1  0  0  0  0
  6 23  1  0  0  0  0
  7 14  2  0  0  0  0
  7 22  1  0  0  0  0
  8 10  2  0  0  0  0
  8 25  1  0  0  0  0
  9 11  1  0  0  0  0
  9 25  2  0  0  0  0
 10 26  1  0  0  0  0
 11 26  2  0  0  0  0
 12 27  1  0  0  0  0
 13 27  2  0  0  0  0
 14 28  1  0  0  0  0
 15 16  2  0  0  0  0
 15 29  1  0  0  0  0
 16 30  1  0  0  0  0
 17 24  1  0  0  0  0
 17 28  2  0  0  0  0
 18 30  2  0  0  0  0
 18 31  1  0  0  0  0
 19 32  1  0  0  0  0
 20 32  1  0  0  0  0
 20 33  2  0  0  0  0
 20 34  1  0  0  0  0
 21 23  2  0  0  0  0
 21 39  1  0  0  0  0
 22 24  2  0  0  0  0
 22 40  1  0  0  0  0
 23 48  1  0  0  0  0
 24 41  1  0  0  0  0
 25 68  1  0  0  0  0
 26 69  1  0  0  0  0
 27 78  1  0  0  0  0
 28 79  1  0  0  0  0
 29 31  2  0  0  0  0
 29 78  1  0  0  0  0
 30 80  1  0  0  0  0
 31 81  1  0  0  0  0
 32 62  2  0  0  0  0
 33 63  1  0  0  0  0
 33 66  1  0  0  0  0
 34 67  1  0  0  0  0
 34 73  2  0  0  0  0
 35 49  1  0  0  0  0
 35 70  1  0  0  0  0
 35 74  2  0  0  0  0
 36 59  1  0  0  0  0
 36 64  1  0  0  0  0
 36 75  2  0  0  0  0
 37 60  1  0  0  0  0
 37 71  1  0  0  0  0
 37 76  2  0  0  0  0
 38 65  1  0  0  0  0
 38 68  1  0  0  0  0
 38 77  2  0  0  0  0
 39 42  1  0  0  0  0
 40 49  1  0  0  0  0
 41 64  1  0  0  0  0
 42 44  1  0  0  0  0
 43 45  1  0  0  0  0
 43 46  1  0  0  0  0
 44 48  1  0  0  0  0
 45 50  1  0  0  0  0
 46 65  1  0  0  0  0
 47 50  1  0  0  0  0
 47 65  1  0  0  0  0
 48 70  1  0  0  0  0
 49 64  1  0  0  0  0
 50 63  1  0  0  0  0
 51 60  1  0  0  0  0
 52 61  1  0  0  0  0
 53 61  1  0  0  0  0
 54 61  1  0  0  0  0
 55 72  1  0  0  0  0
 56 57  1  0  0  0  0
 56 58  1  0  0  0  0
 57 69  1  0  0  0  0
 58 79  1  0  0  0  0
 59 61  1  0  0  0  0
 59 71  1  0  0  0  0
 60 72  1  0  0  0  0
 62 63  1  0  0  0  0
M  CHG  1  72   1
M  ISO  4  38 100  58 101  68 100  79 101
M  END
> <Batch ID>
0127

> <Smiles>
CNC(C)C(=O)NC(C(=O)N1Cc2cc([101O:1][101CH2:1]CCNc3ccc([100NH:0][100C:0](=O)N4CCCC(n5nc(-c6ccc(Oc7ccc(F)cc7F)cc6)c(C(N)=O)c5N)C4)cc3)ccc2CC1C(=O)NC1CCCc2ccccc21)C(C)(C)C

> <Shape>
0.233

> <Color>
0.082

> <Negative vol penalty>
0.000

$$$$

  -OEChem-04052320403D

 86 95  0     1  0  0  0  0  0999 V2000
  -28.9658  -33.2140   24.1999 C   0  0  0  0  0  0  0  0  0  0  0  0
  -28.8512  -31.9038   23.7462 C   0  0  0  0  0  0  0  0  0  0  0  0
  -23.6580   -9.7114   19.9851 C   0  0  0  0  0  0  0  0  0  0  0  0
  -23.7193   -9.9089   22.3923 C   0  0  0  0  0  0  0  0  0  0  0  0
  -27.8577  -33.8611   24.7452 C   0  0  0  0  0  0  0  0  0  0  0  0
  -27.6286  -31.2397   23.8384 C   0  0  0  0  0  0  0  0  0  0  0  0
  -29.7345  -21.6960   19.7217 C   0  0  0  0  0  0  0  0  0  0  0  0
  -26.4615  -28.7208   19.6031 C   0  0  0  0  0  0  0  0  0  0  0  0
  -29.2716  -23.0008   19.8907 C   0  0  0  0  0  0  0  0  0  0  0  0
  -22.7088   -8.6950   20.0927 C   0  0  0  0  0  0  0  0  0  0  0  0
  -22.7701   -8.8925   22.4998 C   0  0  0  0  0  0  0  0  0  0  0  0
  -27.1006  -27.4998   19.3918 C   0  0  0  0  0  0  0  0  0  0  0  0
  -22.7049   -5.5164   22.3297 C   0  0  0  0  0  0  0  0  0  0  0  0
  -22.9265   -4.5208   23.2810 C   0  0  0  0  0  0  0  0  0  0  0  0
  -25.1369  -26.3422   20.1809 C   0  0  0  0  0  0  0  0  0  0  0  0
  -28.9686  -23.2028   17.5023 C   0  0  0  0  0  0  0  0  0  0  0  0
  -20.8531   -5.1049   24.3752 C   0  0  0  0  0  0  0  0  0  0  0  0
  -24.1633  -10.3183   21.1350 C   0  0  0  0  0  0  0  0  0  0  0  0
  -26.4204  -11.2804   20.4367 C   0  0  0  0  0  0  0  0  0  0  0  0
  -26.6185  -33.2078   24.8353 C   0  0  0  0  0  0  0  0  0  0  0  0
  -25.1570  -28.7619   20.1160 C   0  0  0  0  0  0  0  0  0  0  0  0
  -26.5032  -31.8782   24.3867 C   0  0  0  0  0  0  0  0  0  0  0  0
  -29.8145  -21.1445   18.4429 C   0  0  0  0  0  0  0  0  0  0  0  0
  -24.4825  -27.5648   20.3954 C   0  0  0  0  0  0  0  0  0  0  0  0
  -28.8887  -23.7542   18.7811 C   0  0  0  0  0  0  0  0  0  0  0  0
  -29.4316  -21.8979   17.3333 C   0  0  0  0  0  0  0  0  0  0  0  0
  -22.2648   -8.2855   21.3500 C   0  0  0  0  0  0  0  0  0  0  0  0
  -26.4394  -26.3104   19.6835 C   0  0  0  0  0  0  0  0  0  0  0  0
  -21.5574   -6.3064   22.4011 C   0  0  0  0  0  0  0  0  0  0  0  0
  -22.0006   -4.3150   24.3038 C   0  0  0  0  0  0  0  0  0  0  0  0
  -20.6315   -6.1006   23.4238 C   0  0  0  0  0  0  0  0  0  0  0  0
  -25.1442  -11.3679   21.0245 C   0  0  0  0  0  0  0  0  0  0  0  0
  -26.9541  -12.5371   20.5860 C   0  0  0  0  0  0  0  0  0  0  0  0
  -27.0656  -10.1631   19.8114 C   0  0  0  0  0  0  0  0  0  0  0  0
  -23.8162  -29.9462   22.7434 C   0  0  0  0  0  0  0  0  0  0  0  0
  -21.0670  -29.0425   21.2780 C   0  0  0  0  0  0  0  0  0  0  0  0
  -19.5267  -27.0183   19.0028 C   0  0  0  0  0  0  0  0  0  0  0  0
  -26.4702  -18.0913   20.3370 C   0  0  0  0  0  0  0  0  0  0  0  0
  -25.4609  -33.9321   25.4757 C   0  0  0  0  0  0  0  0  0  0  0  0
  -24.4718  -30.0863   20.3131 C   0  0  0  0  0  0  0  0  0  0  0  0
  -23.0739  -27.5541   20.9287 C   0  0  0  0  0  0  0  0  0  0  0  0
  -24.1070  -33.2858   25.1939 C   0  0  0  0  0  0  0  0  0  0  0  0
  -25.3627  -16.4868   23.3162 C   0  0  0  0  0  0  0  0  0  0  0  0
  -24.1808  -31.7772   25.4074 C   0  0  0  0  0  0  0  0  0  0  0  0
  -25.3065  -15.0064   22.9352 C   0  0  0  0  0  0  0  0  0  0  0  0
  -30.0576  -17.2628   18.8832 C   0  0  0  0  0  0  0  0  0  0  0  0
  -24.9427  -17.3848   22.1548 C   0  0  0  0  0  0  0  0  0  0  0  0
  -25.6210  -15.6740   20.5156 C   0  0  0  0  0  0  0  0  0  0  0  0
  -31.5060  -17.2282   19.3408 C   0  0  0  0  0  0  0  0  0  0  0  0
  -31.7838  -19.6383   18.7453 C   0  0  0  0  0  0  0  0  0  0  0  0
  -30.3221  -19.7195   18.2837 C   0  0  1  0  0  0  0  0  0  0  0  0
  -25.1876  -31.1327   24.4470 C   0  0  1  0  0  0  0  0  0  0  0  0
  -23.3306  -30.0241   21.3236 C   0  0  1  0  0  0  0  0  0  0  0  0
  -29.4407  -18.6675   19.0103 C   0  0  1  0  0  0  0  0  0  0  0  0
  -26.0896  -14.7313   21.6373 C   0  0  2  0  0  0  0  0  0  0  0  0
  -29.5089  -21.3288   15.9545 C   0  0  0  0  0  0  0  0  0  0  0  0
  -17.2659  -26.4845   18.0534 C   0  0  0  0  0  0  0  0  0  0  0  0
  -20.3673  -27.5016   23.8169 C   0  0  0  0  0  0  0  0  0  0  0  0
  -18.6371  -26.2582   22.5020 C   0  0  0  0  0  0  0  0  0  0  0  0
  -18.4512  -28.7301   22.7808 C   0  0  0  0  0  0  0  0  0  0  0  0
  -20.3607  -27.7987   16.2725 C   0  0  0  0  0  0  0  0  0  0  0  0
  -28.3910  -25.1580   18.9630 C   0  0  0  0  0  0  0  0  0  1  0  0
  -28.0070  -18.6430   18.4681 C   0  0  0  0  0  0  0  0  0  0  0  0
  -20.2314  -27.7854   21.2543 C   0  0  1  0  0  0  0  0  0  0  0  0
  -18.5277  -27.3195   17.9002 C   0  0  2  0  0  0  0  0  0  0  0  0
  -19.4490  -27.5688   22.5803 C   0  0  0  0  0  0  0  0  0  0  0  0
  -24.8830  -12.5840   21.5112 N   0  0  0  0  0  0  0  0  0  0  0  0
  -26.0025  -13.2722   21.2295 N   0  0  0  0  0  0  0  0  0  0  0  0
  -22.4488  -28.8746   21.1103 N   0  0  0  0  0  0  0  0  0  0  0  0
  -25.7241  -17.0743   20.9552 N   0  0  0  0  0  0  0  0  0  0  0  0
  -28.1400  -13.0739   20.2285 N   0  0  0  0  0  0  0  0  0  0  0  0
  -27.8438   -9.3104   20.6061 N   0  0  0  0  0  0  0  0  0  0  0  0
  -24.6151  -31.0076   23.1238 N   0  0  0  0  0  0  0  0  0  0  0  0
  -19.3851  -27.8801   20.0697 N   0  0  0  0  0  0  0  0  0  0  0  0
  -27.1872  -17.7106   19.2093 N   0  0  0  0  0  0  0  0  0  0  0  0
  -32.2834  -18.2428   18.5749 N   0  3  0  0  0  0  0  0  0  0  0  0
  -19.1250  -27.0281   16.5663 N   0  3  0  0  0  0  0  0  0  0  0  0
  -26.9686   -9.9372   18.5813 O   0  0  0  0  0  0  0  0  0  0  0  0
  -23.4889  -28.9945   23.4426 O   0  0  0  0  0  0  0  0  0  0  0  0
  -20.5131  -30.1339   21.4323 O   0  0  0  0  0  0  0  0  0  0  0  0
  -20.3479  -26.1070   18.9269 O   0  0  0  0  0  0  0  0  0  0  0  0
  -26.4997  -19.2513   20.7619 O   0  0  0  0  0  0  0  0  0  0  0  0
  -21.3385   -7.2939   21.4553 O   0  0  0  0  0  0  0  0  0  0  0  0
  -27.0611  -25.1173   19.4788 O   0  0  0  0  0  0  0  0  0  1  0  0
  -22.2128   -3.3578   25.2165 F   0  0  0  0  0  0  0  0  0  0  0  0
  -19.5268   -6.8555   23.4969 F   0  0  0  0  0  0  0  0  0  0  0  0
  1  2  1  0  0  0  0
  1  5  2  0  0  0  0
  2  6  2  0  0  0  0
  3 10  2  0  0  0  0
  3 18  1  0  0  0  0
  4 11  1  0  0  0  0
  4 18  2  0  0  0  0
  5 20  1  0  0  0  0
  6 22  1  0  0  0  0
  7  9  2  0  0  0  0
  7 23  1  0  0  0  0
  8 12  2  0  0  0  0
  8 21  1  0  0  0  0
  9 25  1  0  0  0  0
 10 27  1  0  0  0  0
 11 27  2  0  0  0  0
 12 28  1  0  0  0  0
 13 14  2  0  0  0  0
 13 29  1  0  0  0  0
 14 30  1  0  0  0  0
 15 24  1  0  0  0  0
 15 28  2  0  0  0  0
 16 25  2  0  0  0  0
 16 26  1  0  0  0  0
 17 30  2  0  0  0  0
 17 31  1  0  0  0  0
 18 32  1  0  0  0  0
 19 32  1  0  0  0  0
 19 33  2  0  0  0  0
 19 34  1  0  0  0  0
 20 22  2  0  0  0  0
 20 39  1  0  0  0  0
 21 24  2  0  0  0  0
 21 40  1  0  0  0  0
 22 52  1  0  0  0  0
 23 26  2  0  0  0  0
 23 51  1  0  0  0  0
 24 41  1  0  0  0  0
 25 62  1  0  0  0  0
 26 56  1  0  0  0  0
 27 83  1  0  0  0  0
 28 84  1  0  0  0  0
 29 31  2  0  0  0  0
 29 83  1  0  0  0  0
 30 85  1  0  0  0  0
 31 86  1  0  0  0  0
 32 67  2  0  0  0  0
 33 68  1  0  0  0  0
 33 71  1  0  0  0  0
 34 72  1  0  0  0  0
 34 78  2  0  0  0  0
 35 53  1  0  0  0  0
 35 73  1  0  0  0  0
 35 79  2  0  0  0  0
 36 64  1  0  0  0  0
 36 69  1  0  0  0  0
 36 80  2  0  0  0  0
 37 65  1  0  0  0  0
 37 74  1  0  0  0  0
 37 81  2  0  0  0  0
 38 70  1  0  0  0  0
 38 75  1  0  0  0  0
 38 82  2  0  0  0  0
 39 42  1  0  0  0  0
 40 53  1  0  0  0  0
 41 69  1  0  0  0  0
 42 44  1  0  0  0  0
 43 45  1  0  0  0  0
 43 47  1  0  0  0  0
 44 52  1  0  0  0  0
 45 55  1  0  0  0  0
 46 49  1  0  0  0  0
 46 54  1  0  0  0  0
 47 70  1  0  0  0  0
 48 55  1  0  0  0  0
 48 70  1  0  0  0  0
 49 76  1  0  0  0  0
 50 51  1  0  0  0  0
 50 76  1  0  0  0  0
 51 54  1  0  0  0  0
 52 73  1  0  0  0  0
 53 69  1  0  0  0  0
 54 63  1  0  0  0  0
 55 68  1  0  0  0  0
 57 65  1  0  0  0  0
 58 66  1  0  0  0  0
 59 66  1  0  0  0  0
 60 66  1  0  0  0  0
 61 77  1  0  0  0  0
 62 84  1  0  0  0  0
 63 75  1  0  0  0  0
 64 66  1  0  0  0  0
 64 74  1  0  0  0  0
 65 77  1  0  0  0  0
 67 68  1  0  0  0  0
M  CHG  2  76   1  77   1
M  ISO  4  38 100  62 101  75 100  84 101
M  END
> <Batch ID>
0127

> <Smiles>
CNC(C)C(=O)NC(C(=O)N1Cc2cc([101O:1][101CH2:1]c3ccc(C4CNCCC4C[100NH:0][100C:0](=O)N4CCCC(n5nc(-c6ccc(Oc7ccc(F)cc7F)cc6)c(C(N)=O)c5N)C4)c(C)c3)ccc2CC1C(=O)NC1CCCc2ccccc21)C(C)(C)C

> <Shape>
0.334

> <Color>
0.092

> <Negative vol penalty>
0.000

$$$$

  -OEChem-04052320403D

 82 91  0     1  0  0  0  0  0999 V2000
  -31.2587  -33.4036   17.8739 C   0  0  0  0  0  0  0  0  0  0  0  0
  -31.2183  -32.0258   18.0626 C   0  0  0  0  0  0  0  0  0  0  0  0
  -23.3327  -12.0974   23.2967 C   0  0  0  0  0  0  0  0  0  0  0  0
  -24.2603  -10.0468   22.4184 C   0  0  0  0  0  0  0  0  0  0  0  0
  -30.4851  -34.2392   18.6783 C   0  0  0  0  0  0  0  0  0  0  0  0
  -30.4049  -31.4830   19.0567 C   0  0  0  0  0  0  0  0  0  0  0  0
  -27.3878  -26.1578   18.8441 C   0  0  0  0  0  0  0  0  0  0  0  0
  -22.7303  -11.3818   24.3314 C   0  0  0  0  0  0  0  0  0  0  0  0
  -23.6580   -9.3311   23.4532 C   0  0  0  0  0  0  0  0  0  0  0  0
  -27.6786  -24.8939   19.3555 C   0  0  0  0  0  0  0  0  0  0  0  0
  -20.5811   -8.1459   24.2007 C   0  0  0  0  0  0  0  0  0  0  0  0
  -19.9224   -6.9613   23.8716 C   0  0  0  0  0  0  0  0  0  0  0  0
  -26.3267  -25.3741   21.2949 C   0  0  0  0  0  0  0  0  0  0  0  0
  -21.4073   -5.7311   25.3271 C   0  0  0  0  0  0  0  0  0  0  0  0
  -24.0976  -11.4299   22.3401 C   0  0  0  0  0  0  0  0  0  0  0  0
  -24.0780  -12.9560   20.2960 C   0  0  0  0  0  0  0  0  0  0  0  0
  -29.6545  -33.7057   19.6763 C   0  0  0  0  0  0  0  0  0  0  0  0
  -26.5717  -27.0450   19.5605 C   0  0  0  0  0  0  0  0  0  0  0  0
  -29.6205  -32.3123   19.8761 C   0  0  0  0  0  0  0  0  0  0  0  0
  -26.0249  -26.6478   20.7891 C   0  0  0  0  0  0  0  0  0  0  0  0
  -22.8930   -9.9987   24.4097 C   0  0  0  0  0  0  0  0  0  0  0  0
  -27.1505  -24.5029   20.5824 C   0  0  0  0  0  0  0  0  0  0  0  0
  -21.6531   -8.1231   25.0930 C   0  0  0  0  0  0  0  0  0  0  0  0
  -20.3354   -5.7539   24.4348 C   0  0  0  0  0  0  0  0  0  0  0  0
  -22.0661   -6.9157   25.6562 C   0  0  0  0  0  0  0  0  0  0  0  0
  -24.7196  -12.1685   21.2707 C   0  0  0  0  0  0  0  0  0  0  0  0
  -25.1010  -13.4398   19.5176 C   0  0  0  0  0  0  0  0  0  0  0  0
  -22.6821  -13.2260   20.1109 C   0  0  0  0  0  0  0  0  0  0  0  0
  -26.9771  -29.9216   20.8507 C   0  0  0  0  0  0  0  0  0  0  0  0
  -23.7912  -29.6887   21.4145 C   0  0  0  0  0  0  0  0  0  0  0  0
  -20.5657  -28.7225   21.9707 C   0  0  0  0  0  0  0  0  0  0  0  0
  -30.9138  -14.4174   20.5696 C   0  0  0  0  0  0  0  0  0  0  0  0
  -28.8724  -34.6520   20.5524 C   0  0  0  0  0  0  0  0  0  0  0  0
  -26.2457  -28.3949   18.9825 C   0  0  0  0  0  0  0  0  0  0  0  0
  -25.1268  -27.5553   21.5879 C   0  0  0  0  0  0  0  0  0  0  0  0
  -27.7521  -33.9720   21.3353 C   0  0  0  0  0  0  0  0  0  0  0  0
  -29.5159  -12.3465   18.0330 C   0  0  0  0  0  0  0  0  0  0  0  0
  -28.2581  -32.6882   21.9852 C   0  0  0  0  0  0  0  0  0  0  0  0
  -29.1979  -18.6886   20.7882 C   0  0  0  0  0  0  0  0  0  0  0  0
  -29.7613  -19.9552   22.8993 C   0  0  0  0  0  0  0  0  0  0  0  0
  -28.9353  -20.0083   20.0659 C   0  0  0  0  0  0  0  0  0  0  0  0
  -29.4988  -21.2754   22.1779 C   0  0  0  0  0  0  0  0  0  0  0  0
  -28.0703  -12.1371   18.4872 C   0  0  0  0  0  0  0  0  0  0  0  0
  -30.4792  -12.3879   19.2173 C   0  0  0  0  0  0  0  0  0  0  0  0
  -28.6830  -13.1535   20.7211 C   0  0  0  0  0  0  0  0  0  0  0  0
  -31.8476  -16.2414   23.3529 C   0  0  0  0  0  0  0  0  0  0  0  0
  -28.7318  -31.6840   20.9275 C   0  0  1  0  0  0  0  0  0  0  0  0
  -25.8208  -29.4103   20.0388 C   0  0  1  0  0  0  0  0  0  0  0  0
  -30.2091  -18.8591   21.9267 C   0  0  0  0  0  0  0  0  0  0  0  0
  -28.4855  -21.1065   21.0383 C   0  0  0  0  0  0  0  0  0  0  0  0
  -27.6675  -13.1608   19.5657 C   0  0  2  0  0  0  0  0  0  0  0  0
  -31.1946  -16.4423   21.9767 C   0  0  2  0  0  0  0  0  0  0  0  0
  -30.3721  -17.5493   22.6690 C   0  0  1  0  0  0  0  0  0  0  0  0
  -18.4274  -29.5085   23.0231 C   0  0  0  0  0  0  0  0  0  0  0  0
  -24.9360  -29.0935   24.1795 C   0  0  0  0  0  0  0  0  0  0  0  0
  -22.5907  -28.9624   25.0457 C   0  0  0  0  0  0  0  0  0  0  0  0
  -23.4433  -31.0975   24.0777 C   0  0  0  0  0  0  0  0  0  0  0  0
  -19.1180  -28.6059   19.3921 C   0  0  0  0  0  0  0  0  0  0  0  0
  -28.2781  -22.4281   20.3008 C   0  0  0  0  0  0  0  0  0  1  0  0
  -22.9412  -29.1533   22.5414 C   0  0  1  0  0  0  0  0  0  0  0  0
  -19.2463  -29.4381   21.7436 C   0  0  2  0  0  0  0  0  0  0  0  0
  -23.4862  -29.5600   23.9396 C   0  0  0  0  0  0  0  0  0  0  0  0
  -26.0474  -12.1502   21.1266 N   0  0  0  0  0  0  0  0  0  0  0  0
  -26.2484  -12.9322   20.0523 N   0  0  0  0  0  0  0  0  0  0  0  0
  -24.8426  -28.8674   20.9836 N   0  0  0  0  0  0  0  0  0  0  0  0
  -30.0413  -13.3795   20.2026 N   0  0  0  0  0  0  0  0  0  0  0  0
  -25.1219  -14.2456   18.4347 N   0  0  0  0  0  0  0  0  0  0  0  0
  -21.9385  -12.3671   19.2903 N   0  0  0  0  0  0  0  0  0  0  0  0
  -27.5989  -31.0300   20.3083 N   0  0  0  0  0  0  0  0  0  0  0  0
  -21.5797  -29.6055   22.2762 N   0  0  0  0  0  0  0  0  0  0  0  0
  -30.4179  -15.3178   21.5045 N   0  0  0  0  0  0  0  0  0  0  0  0
  -31.4313  -17.6118   23.7003 N   0  3  0  0  0  0  0  0  0  0  0  0
  -18.4426  -28.7269   20.7097 N   0  3  0  0  0  0  0  0  0  0  0  0
  -22.1148  -14.2097   20.6439 O   0  0  0  0  0  0  0  0  0  0  0  0
  -27.2816  -29.3534   21.8929 O   0  0  0  0  0  0  0  0  0  0  0  0
  -23.5274  -30.7918   20.9295 O   0  0  0  0  0  0  0  0  0  0  0  0
  -20.6840  -27.5018   21.8893 O   0  0  0  0  0  0  0  0  0  0  0  0
  -32.0485  -14.5361   20.0949 O   0  0  0  0  0  0  0  0  0  0  0  0
  -22.3056   -9.3001   25.4194 O   0  0  0  0  0  0  0  0  0  0  0  0
  -27.4333  -23.2700   21.0842 O   0  0  0  0  0  0  0  0  0  1  0  0
  -19.7017   -4.6166   24.1198 F   0  0  0  0  0  0  0  0  0  0  0  0
  -23.0945   -6.8877   26.5150 F   0  0  0  0  0  0  0  0  0  0  0  0
  1  2  1  0  0  0  0
  1  5  2  0  0  0  0
  2  6  2  0  0  0  0
  3  8  2  0  0  0  0
  3 15  1  0  0  0  0
  4  9  1  0  0  0  0
  4 15  2  0  0  0  0
  5 17  1  0  0  0  0
  6 19  1  0  0  0  0
  7 10  2  0  0  0  0
  7 18  1  0  0  0  0
  8 21  1  0  0  0  0
  9 21  2  0  0  0  0
 10 22  1  0  0  0  0
 11 12  2  0  0  0  0
 11 23  1  0  0  0  0
 12 24  1  0  0  0  0
 13 20  1  0  0  0  0
 13 22  2  0  0  0  0
 14 24  2  0  0  0  0
 14 25  1  0  0  0  0
 15 26  1  0  0  0  0
 16 26  1  0  0  0  0
 16 27  2  0  0  0  0
 16 28  1  0  0  0  0
 17 19  2  0  0  0  0
 17 33  1  0  0  0  0
 18 20  2  0  0  0  0
 18 34  1  0  0  0  0
 19 47  1  0  0  0  0
 20 35  1  0  0  0  0
 21 79  1  0  0  0  0
 22 80  1  0  0  0  0
 23 25  2  0  0  0  0
 23 79  1  0  0  0  0
 24 81  1  0  0  0  0
 25 82  1  0  0  0  0
 26 63  2  0  0  0  0
 27 64  1  0  0  0  0
 27 67  1  0  0  0  0
 28 68  1  0  0  0  0
 28 74  2  0  0  0  0
 29 48  1  0  0  0  0
 29 69  1  0  0  0  0
 29 75  2  0  0  0  0
 30 60  1  0  0  0  0
 30 65  1  0  0  0  0
 30 76  2  0  0  0  0
 31 61  1  0  0  0  0
 31 70  1  0  0  0  0
 31 77  2  0  0  0  0
 32 66  1  0  0  0  0
 32 71  1  0  0  0  0
 32 78  2  0  0  0  0
 33 36  1  0  0  0  0
 34 48  1  0  0  0  0
 35 65  1  0  0  0  0
 36 38  1  0  0  0  0
 37 43  1  0  0  0  0
 37 44  1  0  0  0  0
 38 47  1  0  0  0  0
 39 41  1  0  0  0  0
 39 49  1  0  0  0  0
 40 42  1  0  0  0  0
 40 49  1  0  0  0  0
 41 50  1  0  0  0  0
 42 50  1  0  0  0  0
 43 51  1  0  0  0  0
 44 66  1  0  0  0  0
 45 51  1  0  0  0  0
 45 66  1  0  0  0  0
 46 52  1  0  0  0  0
 46 72  1  0  0  0  0
 47 69  1  0  0  0  0
 48 65  1  0  0  0  0
 49 53  1  0  0  0  0
 50 59  1  0  0  0  0
 51 64  1  0  0  0  0
 52 53  1  0  0  0  0
 52 71  1  0  0  0  0
 53 72  1  0  0  0  0
 54 61  1  0  0  0  0
 55 62  1  0  0  0  0
 56 62  1  0  0  0  0
 57 62  1  0  0  0  0
 58 73  1  0  0  0  0
 59 80  1  0  0  0  0
 60 62  1  0  0  0  0
 60 70  1  0  0  0  0
 61 73  1  0  0  0  0
 63 64  1  0  0  0  0
M  CHG  2  72   1  73   1
M  ISO  4  32 100  59 101  71 100  80 101
M  END
> <Batch ID>
0127

> <Smiles>
CNC(C)C(=O)NC(C(=O)N1Cc2cc([101O:1][101CH2:1]C3CCC(C4NCC4[100NH:0][100C:0](=O)N4CCCC(n5nc(-c6ccc(Oc7ccc(F)cc7F)cc6)c(C(N)=O)c5N)C4)CC3)ccc2CC1C(=O)NC1CCCc2ccccc21)C(C)(C)C

> <Shape>
0.285

> <Color>
0.117

> <Negative vol penalty>
0.000

$$$$

  -OEChem-04052320403D

 85 93  0     1  0  0  0  0  0999 V2000
  -25.0242  -30.5912   28.6400 C   0  0  0  0  0  0  0  0  0  0  0  0
  -25.2544  -29.5982   27.6932 C   0  0  0  0  0  0  0  0  0  0  0  0
  -23.5815  -11.0468   23.3569 C   0  0  0  0  0  0  0  0  0  0  0  0
  -24.5779   -9.3266   21.9837 C   0  0  0  0  0  0  0  0  0  0  0  0
  -24.0450  -31.5570   28.4116 C   0  0  0  0  0  0  0  0  0  0  0  0
  -24.5046  -29.5697   26.5179 C   0  0  0  0  0  0  0  0  0  0  0  0
  -27.3559  -28.7504   22.4138 C   0  0  0  0  0  0  0  0  0  0  0  0
  -23.1356  -10.0742   24.2517 C   0  0  0  0  0  0  0  0  0  0  0  0
  -24.1320   -8.3540   22.8786 C   0  0  0  0  0  0  0  0  0  0  0  0
  -27.7664  -27.4395   22.1751 C   0  0  0  0  0  0  0  0  0  0  0  0
  -21.2390   -6.7494   23.5762 C   0  0  0  0  0  0  0  0  0  0  0  0
  -20.6454   -5.6041   23.0457 C   0  0  0  0  0  0  0  0  0  0  0  0
  -26.0047  -27.1909   20.5461 C   0  0  0  0  0  0  0  0  0  0  0  0
  -22.3504   -4.2409   24.0810 C   0  0  0  0  0  0  0  0  0  0  0  0
  -24.3026  -10.6730   22.2228 C   0  0  0  0  0  0  0  0  0  0  0  0
  -23.9743  -12.5884   20.5702 C   0  0  0  0  0  0  0  0  0  0  0  0
  -23.2894  -31.5461   27.2285 C   0  0  0  0  0  0  0  0  0  0  0  0
  -26.2580  -29.2886   21.7272 C   0  0  0  0  0  0  0  0  0  0  0  0
  -23.5134  -30.5355   26.2741 C   0  0  0  0  0  0  0  0  0  0  0  0
  -25.5838  -28.5096   20.7761 C   0  0  0  0  0  0  0  0  0  0  0  0
  -23.4108   -8.7278   24.0126 C   0  0  0  0  0  0  0  0  0  0  0  0
  -27.0890  -26.6586   21.2432 C   0  0  0  0  0  0  0  0  0  0  0  0
  -22.3883   -6.6405   24.3591 C   0  0  0  0  0  0  0  0  0  0  0  0
  -21.2010   -4.3498   23.2981 C   0  0  0  0  0  0  0  0  0  0  0  0
  -22.9440   -5.3862   24.6115 C   0  0  0  0  0  0  0  0  0  0  0  0
  -24.7631  -11.6772   21.2978 C   0  0  0  0  0  0  0  0  0  0  0  0
  -24.8796  -13.3214   19.8424 C   0  0  0  0  0  0  0  0  0  0  0  0
  -22.5506  -12.7571   20.5537 C   0  0  0  0  0  0  0  0  0  0  0  0
  -23.4143  -30.4226   22.5821 C   0  0  0  0  0  0  0  0  0  0  0  0
  -23.2107  -31.1940   19.4380 C   0  0  0  0  0  0  0  0  0  0  0  0
  -24.2280  -30.5945   16.2360 C   0  0  0  0  0  0  0  0  0  0  0  0
  -30.6729  -14.6038   20.6453 C   0  0  0  0  0  0  0  0  0  0  0  0
  -22.2093  -32.5831   27.0474 C   0  0  0  0  0  0  0  0  0  0  0  0
  -25.8444  -30.7130   21.9768 C   0  0  0  0  0  0  0  0  0  0  0  0
  -24.4117  -29.0470   19.9977 C   0  0  0  0  0  0  0  0  0  0  0  0
  -21.7157  -32.7033   25.6079 C   0  0  0  0  0  0  0  0  0  0  0  0
  -29.2071  -12.9935   17.8284 C   0  0  0  0  0  0  0  0  0  0  0  0
  -21.4529  -31.3220   25.0165 C   0  0  0  0  0  0  0  0  0  0  0  0
  -27.8307  -12.5557   18.3325 C   0  0  0  0  0  0  0  0  0  0  0  0
  -29.0924  -19.8892   23.7158 C   0  0  0  0  0  0  0  0  0  0  0  0
  -30.2709  -12.8748   18.9175 C   0  0  0  0  0  0  0  0  0  0  0  0
  -28.5700  -13.1297   20.6826 C   0  0  0  0  0  0  0  0  0  0  0  0
  -28.8080  -18.4022   23.5669 C   0  0  0  0  0  0  0  0  0  0  0  0
  -28.3763  -18.7365   21.1086 C   0  0  0  0  0  0  0  0  0  0  0  0
  -22.7376  -30.4858   24.9757 C   0  0  1  0  0  0  0  0  0  0  0  0
  -24.3938  -30.9898   21.5939 C   0  0  1  0  0  0  0  0  0  0  0  0
  -28.3096  -20.7194   22.6908 C   0  0  2  0  0  0  0  0  0  0  0  0
  -28.5845  -20.2514   21.2437 C   0  0  1  0  0  0  0  0  0  0  0  0
  -27.4532  -13.2846   19.6361 C   0  0  2  0  0  0  0  0  0  0  0  0
  -29.9331  -20.7133   20.6826 C   0  0  0  0  0  0  0  0  0  0  0  0
  -23.8572  -31.3605   13.8752 C   0  0  0  0  0  0  0  0  0  0  0  0
  -28.2284  -22.5955   24.3445 C   0  0  0  0  0  0  0  0  0  0  0  0
  -26.3196  -22.8547   21.8760 C   0  0  0  0  0  0  0  0  0  0  0  0
  -20.5566  -29.6903   19.3695 C   0  0  0  0  0  0  0  0  0  0  0  0
  -20.7134  -29.6680   16.8709 C   0  0  0  0  0  0  0  0  0  0  0  0
  -20.5713  -31.8394   18.0906 C   0  0  0  0  0  0  0  0  0  0  0  0
  -27.0555  -31.4151   15.9352 C   0  0  0  0  0  0  0  0  0  0  0  0
  -30.9276  -16.3021   22.4370 C   0  0  0  0  0  0  0  0  0  0  0  0
  -30.5460  -17.6680   21.8975 C   0  0  0  0  0  0  0  0  0  0  0  0
  -28.1051  -24.6237   22.0772 C   0  0  0  0  0  0  0  0  0  1  0  0
  -22.7106  -30.4962   18.1962 C   0  0  1  0  0  0  0  0  0  0  0  0
  -24.6924  -31.5305   15.1347 C   0  0  2  0  0  0  0  0  0  0  0  0
  -28.5643  -22.2130   22.8991 C   0  0  2  0  0  0  0  0  0  0  0  0
  -27.8317  -23.1256   21.8785 C   0  0  1  0  0  0  0  0  0  0  0  0
  -21.1588  -30.4124   18.1477 C   0  0  0  0  0  0  0  0  0  0  0  0
  -26.0690  -11.8166   21.0543 N   0  0  0  0  0  0  0  0  0  0  0  0
  -26.1077  -12.8239   20.1655 N   0  0  0  0  0  0  0  0  0  0  0  0
  -24.0414  -30.4433   20.2819 N   0  0  0  0  0  0  0  0  0  0  0  0
  -29.8523  -13.5888   20.1261 N   0  0  0  0  0  0  0  0  0  0  0  0
  -24.7369  -14.3365   18.9640 N   0  0  0  0  0  0  0  0  0  0  0  0
  -21.7691  -11.9199   21.3617 N   0  0  0  0  0  0  0  0  0  0  0  0
  -23.5745  -30.8987   23.8695 N   0  0  0  0  0  0  0  0  0  0  0  0
  -23.3067  -31.1988   17.0651 N   0  0  0  0  0  0  0  0  0  0  0  0
  -30.1989  -15.2343   21.7893 N   0  0  0  0  0  0  0  0  0  0  0  0
  -29.0909  -17.9318   22.1649 N   0  3  1  0  0  0  0  0  0  0  0  0
  -26.1179  -31.2615   14.7932 N   0  3  0  0  0  0  0  0  0  0  0  0
  -21.9869  -13.6137   19.8311 O   0  0  0  0  0  0  0  0  0  0  0  0
  -22.5744  -29.6142   22.2044 O   0  0  0  0  0  0  0  0  0  0  0  0
  -22.8823  -32.3644   19.6477 O   0  0  0  0  0  0  0  0  0  0  0  0
  -24.6384  -29.4414   16.3473 O   0  0  0  0  0  0  0  0  0  0  0  0
  -31.7456  -14.9280   20.1247 O   0  0  0  0  0  0  0  0  0  0  0  0
  -22.9760   -7.7785   24.8857 O   0  0  0  0  0  0  0  0  0  0  0  0
  -27.4872  -25.3787   21.0088 O   0  0  0  0  0  0  0  0  0  1  0  0
  -20.6300   -3.2499   22.7899 F   0  0  0  0  0  0  0  0  0  0  0  0
  -24.0474   -5.2752   25.3639 F   0  0  0  0  0  0  0  0  0  0  0  0
  1  2  1  0  0  0  0
  1  5  2  0  0  0  0
  2  6  2  0  0  0  0
  3  8  2  0  0  0  0
  3 15  1  0  0  0  0
  4  9  1  0  0  0  0
  4 15  2  0  0  0  0
  5 17  1  0  0  0  0
  6 19  1  0  0  0  0
  7 10  2  0  0  0  0
  7 18  1  0  0  0  0
  8 21  1  0  0  0  0
  9 21  2  0  0  0  0
 10 22  1  0  0  0  0
 11 12  2  0  0  0  0
 11 23  1  0  0  0  0
 12 24  1  0  0  0  0
 13 20  1  0  0  0  0
 13 22  2  0  0  0  0
 14 24  2  0  0  0  0
 14 25  1  0  0  0  0
 15 26  1  0  0  0  0
 16 26  1  0  0  0  0
 16 27  2  0  0  0  0
 16 28  1  0  0  0  0
 17 19  2  0  0  0  0
 17 33  1  0  0  0  0
 18 20  2  0  0  0  0
 18 34  1  0  0  0  0
 19 45  1  0  0  0  0
 20 35  1  0  0  0  0
 21 82  1  0  0  0  0
 22 83  1  0  0  0  0
 23 25  2  0  0  0  0
 23 82  1  0  0  0  0
 24 84  1  0  0  0  0
 25 85  1  0  0  0  0
 26 66  2  0  0  0  0
 27 67  1  0  0  0  0
 27 70  1  0  0  0  0
 28 71  1  0  0  0  0
 28 77  2  0  0  0  0
 29 46  1  0  0  0  0
 29 72  1  0  0  0  0
 29 78  2  0  0  0  0
 30 61  1  0  0  0  0
 30 68  1  0  0  0  0
 30 79  2  0  0  0  0
 31 62  1  0  0  0  0
 31 73  1  0  0  0  0
 31 80  2  0  0  0  0
 32 69  1  0  0  0  0
 32 74  1  0  0  0  0
 32 81  2  0  0  0  0
 33 36  1  0  0  0  0
 34 46  1  0  0  0  0
 35 68  1  0  0  0  0
 36 38  1  0  0  0  0
 37 39  1  0  0  0  0
 37 41  1  0  0  0  0
 38 45  1  0  0  0  0
 39 49  1  0  0  0  0
 40 43  1  0  0  0  0
 40 47  1  0  0  0  0
 41 69  1  0  0  0  0
 42 49  1  0  0  0  0
 42 69  1  0  0  0  0
 43 75  1  0  0  0  0
 44 48  1  0  0  0  0
 44 75  1  0  0  0  0
 45 72  1  0  0  0  0
 46 68  1  0  0  0  0
 47 48  1  0  0  0  0
 47 63  1  0  0  0  0
 48 50  1  0  0  0  0
 49 67  1  0  0  0  0
 51 62  1  0  0  0  0
 52 63  1  0  0  0  0
 53 64  1  0  0  0  0
 54 65  1  0  0  0  0
 55 65  1  0  0  0  0
 56 65  1  0  0  0  0
 57 76  1  0  0  0  0
 58 59  1  0  0  0  0
 58 74  1  0  0  0  0
 59 75  1  0  0  0  0
 60 64  1  0  0  0  0
 60 83  1  0  0  0  0
 61 65  1  0  0  0  0
 61 73  1  0  0  0  0
 62 76  1  0  0  0  0
 63 64  1  0  0  0  0
 66 67  1  0  0  0  0
M  CHG  2  75   1  76   1
M  ISO  4  32 100  60 101  74 100  83 101
M  END
> <Batch ID>
0127

> <Smiles>
CNC(C)C(=O)NC(C(=O)N1Cc2cc([101O:1][101CH2:1]C(C)C(C)C3CCN(CC[100NH:0][100C:0](=O)N4CCCC(n5nc(-c6ccc(Oc7ccc(F)cc7F)cc6)c(C(N)=O)c5N)C4)CC3C)ccc2CC1C(=O)NC1CCCc2ccccc21)C(C)(C)C

> <Shape>
0.261

> <Color>
0.112

> <Negative vol penalty>
0.000

$$$$

  -OEChem-04052320403D

 87 96  0     1  0  0  0  0  0999 V2000
  -23.1381  -15.7915   16.5758 C   0  0  0  0  0  0  0  0  0  0  0  0
  -23.9661  -16.5119   17.4306 C   0  0  0  0  0  0  0  0  0  0  0  0
  -31.0307  -22.0971   25.8730 C   0  0  0  0  0  0  0  0  0  0  0  0
  -29.7668  -22.5153   26.2890 C   0  0  0  0  0  0  0  0  0  0  0  0
  -23.0407   -9.9510   19.9181 C   0  0  0  0  0  0  0  0  0  0  0  0
  -23.8757   -9.8426   22.1826 C   0  0  0  0  0  0  0  0  0  0  0  0
  -22.5611  -16.4194   15.4728 C   0  0  0  0  0  0  0  0  0  0  0  0
  -24.2186  -17.8606   17.1822 C   0  0  0  0  0  0  0  0  0  0  0  0
  -23.8999  -20.6990   21.3639 C   0  0  0  0  0  0  0  0  0  0  0  0
  -31.2849  -21.8872   24.5176 C   0  0  0  0  0  0  0  0  0  0  0  0
  -28.7569  -22.7235   25.3497 C   0  0  0  0  0  0  0  0  0  0  0  0
  -22.3043   -8.7863   20.1338 C   0  0  0  0  0  0  0  0  0  0  0  0
  -23.1392   -8.6778   22.3984 C   0  0  0  0  0  0  0  0  0  0  0  0
  -24.9834  -20.6651   22.2406 C   0  0  0  0  0  0  0  0  0  0  0  0
  -19.9319   -7.8486   23.0659 C   0  0  0  0  0  0  0  0  0  0  0  0
  -19.2139   -7.7491   24.2576 C   0  0  0  0  0  0  0  0  0  0  0  0
  -25.7777  -22.7530   21.3301 C   0  0  0  0  0  0  0  0  0  0  0  0
  -20.4768   -5.7777   24.8539 C   0  0  0  0  0  0  0  0  0  0  0  0
  -23.8265  -10.4792   20.9424 C   0  0  0  0  0  0  0  0  0  0  0  0
  -24.1669  -13.0074   20.9389 C   0  0  0  0  0  0  0  0  0  0  0  0
  -22.7989  -17.7789   15.2162 C   0  0  0  0  0  0  0  0  0  0  0  0
  -23.7528  -21.7565   20.4547 C   0  0  0  0  0  0  0  0  0  0  0  0
  -23.6454  -18.5070   16.0739 C   0  0  0  0  0  0  0  0  0  0  0  0
  -24.6901  -22.7993   20.4447 C   0  0  0  0  0  0  0  0  0  0  0  0
  -30.2749  -22.0953   23.5783 C   0  0  0  0  0  0  0  0  0  0  0  0
  -29.0109  -22.5135   23.9943 C   0  0  0  0  0  0  0  0  0  0  0  0
  -22.3535   -8.1497   21.3740 C   0  0  0  0  0  0  0  0  0  0  0  0
  -25.9241  -21.6907   22.2218 C   0  0  0  0  0  0  0  0  0  0  0  0
  -20.9223   -6.9126   22.7681 C   0  0  0  0  0  0  0  0  0  0  0  0
  -19.4863   -6.7137   25.1516 C   0  0  0  0  0  0  0  0  0  0  0  0
  -21.1948   -5.8772   23.6622 C   0  0  0  0  0  0  0  0  0  0  0  0
  -24.5879  -11.6820   20.7200 C   0  0  0  0  0  0  0  0  0  0  0  0
  -25.2472  -13.7749   20.5782 C   0  0  0  0  0  0  0  0  0  0  0  0
  -22.9114  -13.5006   21.4250 C   0  0  0  0  0  0  0  0  0  0  0  0
  -23.6865  -21.9973   17.2859 C   0  0  0  0  0  0  0  0  0  0  0  0
  -22.9479  -25.0904   17.9260 C   0  0  0  0  0  0  0  0  0  0  0  0
  -23.0760  -27.7068   20.1135 C   0  0  0  0  0  0  0  0  0  0  0  0
  -30.7353  -14.7865   20.6370 C   0  0  0  0  0  0  0  0  0  0  0  0
  -22.1909  -18.4024   13.9848 C   0  0  0  0  0  0  0  0  0  0  0  0
  -22.5639  -21.7919   19.5340 C   0  0  0  0  0  0  0  0  0  0  0  0
  -24.5667  -23.9674   19.5019 C   0  0  0  0  0  0  0  0  0  0  0  0
  -22.2088  -19.9288   14.0028 C   0  0  0  0  0  0  0  0  0  0  0  0
  -29.5172  -12.5249   18.1716 C   0  0  0  0  0  0  0  0  0  0  0  0
  -29.0703  -19.3942   19.6321 C   0  0  0  0  0  0  0  0  0  0  0  0
  -23.5801  -20.4416   14.4311 C   0  0  0  0  0  0  0  0  0  0  0  0
  -29.8074  -18.1291   20.0603 C   0  0  0  0  0  0  0  0  0  0  0  0
  -28.0945  -12.2088   18.6362 C   0  0  0  0  0  0  0  0  0  0  0  0
  -30.4736  -12.6853   19.3512 C   0  0  0  0  0  0  0  0  0  0  0  0
  -28.6193  -13.3443   20.8349 C   0  0  0  0  0  0  0  0  0  0  0  0
  -29.7889  -20.6502   20.1011 C   0  0  0  0  0  0  0  0  0  0  0  0
  -30.7659  -19.3806   22.0314 C   0  0  0  0  0  0  0  0  0  0  0  0
  -23.9234  -19.9779   15.8519 C   0  0  1  0  0  0  0  0  0  0  0  0
  -22.7915  -22.6559   18.2974 C   0  0  1  0  0  0  0  0  0  0  0  0
  -30.0461  -18.1102   21.5746 C   0  0  2  0  0  0  0  0  0  0  0  0
  -27.6067  -13.2288   19.6827 C   0  0  2  0  0  0  0  0  0  0  0  0
  -22.4209  -30.1185   20.3406 C   0  0  0  0  0  0  0  0  0  0  0  0
  -31.0794  -16.8371   23.4812 C   0  0  0  0  0  0  0  0  0  0  0  0
  -25.2684  -25.8890   16.1129 C   0  0  0  0  0  0  0  0  0  0  0  0
  -25.1687  -28.1824   17.1121 C   0  0  0  0  0  0  0  0  0  0  0  0
  -23.2113  -27.2869   15.8513 C   0  0  0  0  0  0  0  0  0  0  0  0
  -21.3275  -27.1338   22.4316 C   0  0  0  0  0  0  0  0  0  0  0  0
  -30.5702  -21.8654   22.1324 C   0  0  0  0  0  0  0  0  0  0  0  0
  -27.9087  -22.7433   23.0026 C   0  0  0  0  0  0  0  0  0  1  0  0
  -23.7414  -26.3565   18.1416 C   0  0  1  0  0  0  0  0  0  0  0  0
  -22.0085  -28.6759   20.5884 C   0  0  2  0  0  0  0  0  0  0  0  0
  -30.8441  -16.8718   21.9781 C   0  0  1  0  0  0  0  0  0  0  0  0
  -24.3511  -26.9059   16.8210 C   0  0  0  0  0  0  0  0  0  0  0  0
  -25.8382  -11.6082   20.2559 N   0  0  0  0  0  0  0  0  0  0  0  0
  -26.2121  -12.8968   20.1803 N   0  0  0  0  0  0  0  0  0  0  0  0
  -23.3903  -23.9534   18.6168 N   0  0  0  0  0  0  0  0  0  0  0  0
  -29.9536  -13.6674   20.3057 N   0  0  0  0  0  0  0  0  0  0  0  0
  -25.4565  -15.1085   20.5656 N   0  0  0  0  0  0  0  0  0  0  0  0
  -21.9102  -12.5749   21.7491 N   0  0  0  0  0  0  0  0  0  0  0  0
  -23.2190  -20.7798   16.8292 N   0  0  0  0  0  0  0  0  0  0  0  0
  -22.8469  -27.2883   18.8198 N   0  0  0  0  0  0  0  0  0  0  0  0
  -30.1652  -15.6712   21.5441 N   0  0  0  0  0  0  0  0  0  0  0  0
  -29.9797  -20.6058   21.6039 N   0  3  1  0  0  0  0  0  0  0  0  0
  -21.7628  -28.5014   22.0479 N   0  3  0  0  0  0  0  0  0  0  0  0
  -22.6785  -14.7266   21.5522 O   0  0  0  0  0  0  0  0  0  0  0  0
  -24.7236  -22.5534   16.9440 O   0  0  0  0  0  0  0  0  0  0  0  0
  -21.9673  -25.1113   17.1780 O   0  0  0  0  0  0  0  0  0  0  0  0
  -24.0209  -27.3588   20.8183 O   0  0  0  0  0  0  0  0  0  0  0  0
  -31.8559  -14.9853   20.1556 O   0  0  0  0  0  0  0  0  0  0  0  0
  -21.6348   -7.0132   21.5850 O   0  0  0  0  0  0  0  0  0  0  0  0
  -26.9830  -21.6597   23.0760 O   0  0  0  0  0  0  0  0  0  1  0  0
  -18.7978   -6.6192   26.2967 F   0  0  0  0  0  0  0  0  0  0  0  0
  -22.1459   -4.9757   23.3822 F   0  0  0  0  0  0  0  0  0  0  0  0
  1  2  1  0  0  0  0
  1  7  2  0  0  0  0
  2  8  2  0  0  0  0
  3  4  1  0  0  0  0
  3 10  2  0  0  0  0
  4 11  2  0  0  0  0
  5 12  2  0  0  0  0
  5 19  1  0  0  0  0
  6 13  1  0  0  0  0
  6 19  2  0  0  0  0
  7 21  1  0  0  0  0
  8 23  1  0  0  0  0
  9 14  2  0  0  0  0
  9 22  1  0  0  0  0
 10 25  1  0  0  0  0
 11 26  1  0  0  0  0
 12 27  1  0  0  0  0
 13 27  2  0  0  0  0
 14 28  1  0  0  0  0
 15 16  2  0  0  0  0
 15 29  1  0  0  0  0
 16 30  1  0  0  0  0
 17 24  1  0  0  0  0
 17 28  2  0  0  0  0
 18 30  2  0  0  0  0
 18 31  1  0  0  0  0
 19 32  1  0  0  0  0
 20 32  1  0  0  0  0
 20 33  2  0  0  0  0
 20 34  1  0  0  0  0
 21 23  2  0  0  0  0
 21 39  1  0  0  0  0
 22 24  2  0  0  0  0
 22 40  1  0  0  0  0
 23 52  1  0  0  0  0
 24 41  1  0  0  0  0
 25 26  2  0  0  0  0
 25 62  1  0  0  0  0
 26 63  1  0  0  0  0
 27 84  1  0  0  0  0
 28 85  1  0  0  0  0
 29 31  2  0  0  0  0
 29 84  1  0  0  0  0
 30 86  1  0  0  0  0
 31 87  1  0  0  0  0
 32 68  2  0  0  0  0
 33 69  1  0  0  0  0
 33 72  1  0  0  0  0
 34 73  1  0  0  0  0
 34 79  2  0  0  0  0
 35 53  1  0  0  0  0
 35 74  1  0  0  0  0
 35 80  2  0  0  0  0
 36 64  1  0  0  0  0
 36 70  1  0  0  0  0
 36 81  2  0  0  0  0
 37 65  1  0  0  0  0
 37 75  1  0  0  0  0
 37 82  2  0  0  0  0
 38 71  1  0  0  0  0
 38 76  1  0  0  0  0
 38 83  2  0  0  0  0
 39 42  1  0  0  0  0
 40 53  1  0  0  0  0
 41 70  1  0  0  0  0
 42 45  1  0  0  0  0
 43 47  1  0  0  0  0
 43 48  1  0  0  0  0
 44 46  1  0  0  0  0
 44 50  1  0  0  0  0
 45 52  1  0  0  0  0
 46 54  1  0  0  0  0
 47 55  1  0  0  0  0
 48 71  1  0  0  0  0
 49 55  1  0  0  0  0
 49 71  1  0  0  0  0
 50 77  1  0  0  0  0
 51 54  1  0  0  0  0
 51 77  1  0  0  0  0
 52 74  1  0  0  0  0
 53 70  1  0  0  0  0
 54 66  1  0  0  0  0
 55 69  1  0  0  0  0
 56 65  1  0  0  0  0
 57 66  1  0  0  0  0
 58 67  1  0  0  0  0
 59 67  1  0  0  0  0
 60 67  1  0  0  0  0
 61 78  1  0  0  0  0
 62 77  1  0  0  0  0
 63 85  1  0  0  0  0
 64 67  1  0  0  0  0
 64 75  1  0  0  0  0
 65 78  1  0  0  0  0
 66 76  1  0  0  0  0
 68 69  1  0  0  0  0
M  CHG  2  77   1  78   1
M  ISO  4  38 100  63 101  76 100  85 101
M  END
> <Batch ID>
0127

> <Smiles>
CNC(C)C(=O)NC(C(=O)N1Cc2cc([101O:1][101CH2:1]c3ccccc3CN3CCCC(C(C)[100NH:0][100C:0](=O)N4CCCC(n5nc(-c6ccc(Oc7ccc(F)cc7F)cc6)c(C(N)=O)c5N)C4)C3)ccc2CC1C(=O)NC1CCCc2ccccc21)C(C)(C)C

> <Shape>
0.231

> <Color>
0.195

> <Negative vol penalty>
0.000

$$$$

  -OEChem-04052320403D

 88 98  0     1  0  0  0  0  0999 V2000
  -13.1326  -16.4687   29.7484 C   0  0  0  0  0  0  0  0  0  0  0  0
  -14.5075  -16.6772   29.7077 C   0  0  0  0  0  0  0  0  0  0  0  0
  -23.1900   -9.8196   19.9313 C   0  0  0  0  0  0  0  0  0  0  0  0
  -23.5684   -9.9996   22.3107 C   0  0  0  0  0  0  0  0  0  0  0  0
  -12.5970  -15.2671   29.2866 C   0  0  0  0  0  0  0  0  0  0  0  0
  -15.3477  -15.6838   29.2061 C   0  0  0  0  0  0  0  0  0  0  0  0
  -21.4884  -14.8561   25.6113 C   0  0  0  0  0  0  0  0  0  0  0  0
  -29.6308  -12.5582   27.9017 C   0  0  0  0  0  0  0  0  0  0  0  0
  -30.9702  -12.2077   27.7150 C   0  0  0  0  0  0  0  0  0  0  0  0
  -22.4238   -8.6728   20.1399 C   0  0  0  0  0  0  0  0  0  0  0  0
  -22.8022   -8.8528   22.5193 C   0  0  0  0  0  0  0  0  0  0  0  0
  -22.7080  -14.1866   25.7024 C   0  0  0  0  0  0  0  0  0  0  0  0
  -21.2453   -5.7686   23.6478 C   0  0  0  0  0  0  0  0  0  0  0  0
  -21.7419   -4.8087   24.5296 C   0  0  0  0  0  0  0  0  0  0  0  0
  -29.3877  -12.8544   25.5289 C   0  0  0  0  0  0  0  0  0  0  0  0
  -21.6638  -12.1823   24.8589 C   0  0  0  0  0  0  0  0  0  0  0  0
  -32.6470  -12.1137   23.9137 C   0  0  0  0  0  0  0  0  0  0  0  0
  -23.7004   -4.5452   23.1397 C   0  0  0  0  0  0  0  0  0  0  0  0
  -30.7350  -12.5018   25.3415 C   0  0  0  0  0  0  0  0  0  0  0  0
  -23.7623  -10.4830   21.0167 C   0  0  0  0  0  0  0  0  0  0  0  0
  -24.1007  -12.9997   20.7733 C   0  0  0  0  0  0  0  0  0  0  0  0
  -13.4302  -14.2622   28.7702 C   0  0  0  0  0  0  0  0  0  0  0  0
  -20.3430  -14.1895   25.1529 C   0  0  0  0  0  0  0  0  0  0  0  0
  -14.8228  -14.4671   28.7382 C   0  0  0  0  0  0  0  0  0  0  0  0
  -20.4315  -12.8463   24.7605 C   0  0  0  0  0  0  0  0  0  0  0  0
  -28.8382  -12.8819   26.8075 C   0  0  0  0  0  0  0  0  0  0  0  0
  -31.5456  -12.1717   26.4478 C   0  0  0  0  0  0  0  0  0  0  0  0
  -31.3137  -12.4660   24.0656 C   0  0  0  0  0  0  0  0  0  0  0  0
  -22.2300   -8.1894   21.4339 C   0  0  0  0  0  0  0  0  0  0  0  0
  -22.7951  -12.8487   25.3289 C   0  0  0  0  0  0  0  0  0  0  0  0
  -21.9762   -6.1168   22.5119 C   0  0  0  0  0  0  0  0  0  0  0  0
  -22.9694   -4.1970   24.2756 C   0  0  0  0  0  0  0  0  0  0  0  0
  -23.2038   -5.5051   22.2579 C   0  0  0  0  0  0  0  0  0  0  0  0
  -24.5543  -11.6673   20.8018 C   0  0  0  0  0  0  0  0  0  0  0  0
  -33.3600  -11.8071   25.0550 C   0  0  0  0  0  0  0  0  0  0  0  0
  -25.2317  -13.7426   20.5381 C   0  0  0  0  0  0  0  0  0  0  0  0
  -22.7754  -13.5194   20.9444 C   0  0  0  0  0  0  0  0  0  0  0  0
  -17.5120  -13.4723   26.4076 C   0  0  0  0  0  0  0  0  0  0  0  0
  -16.8807  -12.4273   23.4024 C   0  0  0  0  0  0  0  0  0  0  0  0
  -18.0824  -11.2719   20.4245 C   0  0  0  0  0  0  0  0  0  0  0  0
  -31.0364  -12.7825   21.5818 C   0  0  0  0  0  0  0  0  0  0  0  0
  -12.8094  -12.9613   28.3265 C   0  0  0  0  0  0  0  0  0  0  0  0
  -19.0410  -14.9333   25.0352 C   0  0  0  0  0  0  0  0  0  0  0  0
  -19.2357  -12.0910   24.2426 C   0  0  0  0  0  0  0  0  0  0  0  0
  -13.7351  -12.1078   27.4634 C   0  0  0  0  0  0  0  0  0  0  0  0
  -29.5236  -13.4644   18.4317 C   0  0  0  0  0  0  0  0  0  0  0  0
  -15.1258  -12.0324   28.0854 C   0  0  0  0  0  0  0  0  0  0  0  0
  -28.0356  -13.2081   18.6810 C   0  0  0  0  0  0  0  0  0  0  0  0
  -25.1949  -10.3540   26.3838 C   0  0  0  0  0  0  0  0  0  0  0  0
  -30.4049  -12.4794   19.1976 C   0  0  0  0  0  0  0  0  0  0  0  0
  -28.6453  -12.1375   20.8876 C   0  0  0  0  0  0  0  0  0  0  0  0
  -26.5535  -11.0120   26.2510 C   0  0  0  0  0  0  0  0  0  0  0  0
  -25.0649  -12.4481   27.5629 C   0  0  0  0  0  0  0  0  0  0  0  0
  -15.7647  -13.4233   28.1784 C   0  0  1  0  0  0  0  0  0  0  0  0
  -17.8244  -14.0128   25.0409 C   0  0  1  0  0  0  0  0  0  0  0  0
  -27.7192  -13.1459   20.1882 C   0  0  2  0  0  0  0  0  0  0  0  0
  -24.2699  -11.5295   26.6482 C   0  0  1  0  0  0  0  0  0  1  0  0
  -34.7961  -11.4179   24.9390 C   0  0  0  0  0  0  0  0  0  0  0  0
  -18.0398  -10.5178   18.0314 C   0  0  0  0  0  0  0  0  0  0  0  0
  -16.0605   -9.7601   24.6366 C   0  0  0  0  0  0  0  0  0  0  0  0
  -16.2325   -8.7330   22.3598 C   0  0  0  0  0  0  0  0  0  0  0  0
  -14.5788  -10.5518   22.7839 C   0  0  0  0  0  0  0  0  0  0  0  0
  -18.4291  -14.0363   19.4259 C   0  0  0  0  0  0  0  0  0  0  0  0
  -27.3997  -13.2608   27.0032 C   0  0  0  0  0  0  0  0  0  0  0  0
  -17.0406  -11.1166   22.6706 C   0  0  1  0  0  0  0  0  0  0  0  0
  -17.7717  -11.6660   18.9918 C   0  0  2  0  0  0  0  0  0  0  0  0
  -16.0004  -10.0538   23.1243 C   0  0  0  0  0  0  0  0  0  0  0  0
  -32.8398  -11.8295   26.3035 N   0  0  0  0  0  0  0  0  0  0  0  0
  -25.8708  -11.5665   20.6005 N   0  0  0  0  0  0  0  0  0  0  0  0
  -26.2542  -12.8449   20.4433 N   0  0  0  0  0  0  0  0  0  0  0  0
  -17.9836  -12.8601   24.1520 N   0  0  0  0  0  0  0  0  0  0  0  0
  -30.0513  -12.4777   20.6188 N   0  0  0  0  0  0  0  0  0  0  0  0
  -25.4415  -15.0695   20.4050 N   0  0  0  0  0  0  0  0  0  0  0  0
  -21.7289  -12.6170   21.1783 N   0  0  0  0  0  0  0  0  0  0  0  0
  -30.5757  -12.7820   22.8980 N   0  0  0  0  0  0  0  0  0  0  0  0
  -16.2675  -13.8359   26.8856 N   0  0  0  0  0  0  0  0  0  0  0  0
  -16.9883  -11.4345   21.2477 N   0  0  0  0  0  0  0  0  0  0  0  0
  -26.5220  -12.0900   27.3092 N   0  3  2  0  0  0  0  0  0  0  0  0
  -18.6096  -12.8279   18.5808 N   0  3  0  0  0  0  0  0  0  0  0  0
  -22.5240  -14.7464   20.8749 O   0  0  0  0  0  0  0  0  0  0  0  0
  -18.3383  -12.7755   26.9852 O   0  0  0  0  0  0  0  0  0  0  0  0
  -15.8189  -13.0478   23.3064 O   0  0  0  0  0  0  0  0  0  0  0  0
  -19.1844  -10.8575   20.7773 O   0  0  0  0  0  0  0  0  0  0  0  0
  -32.1964  -13.0528   21.2604 O   0  0  0  0  0  0  0  0  0  0  0  0
  -21.4822   -7.0706   21.6378 O   0  0  0  0  0  0  0  0  0  0  0  0
  -23.9841  -12.1927   25.4174 O   0  0  0  0  0  0  0  0  0  1  0  0
  -23.4469   -3.2764   25.1233 F   0  0  0  0  0  0  0  0  0  0  0  0
  -23.9111   -5.8363   21.1689 F   0  0  0  0  0  0  0  0  0  0  0  0
  1  2  1  0  0  0  0
  1  5  2  0  0  0  0
  2  6  2  0  0  0  0
  3 10  2  0  0  0  0
  3 20  1  0  0  0  0
  4 11  1  0  0  0  0
  4 20  2  0  0  0  0
  5 22  1  0  0  0  0
  6 24  1  0  0  0  0
  7 12  2  0  0  0  0
  7 23  1  0  0  0  0
  8  9  2  0  0  0  0
  8 26  1  0  0  0  0
  9 27  1  0  0  0  0
 10 29  1  0  0  0  0
 11 29  2  0  0  0  0
 12 30  1  0  0  0  0
 13 14  2  0  0  0  0
 13 31  1  0  0  0  0
 14 32  1  0  0  0  0
 15 19  1  0  0  0  0
 15 26  2  0  0  0  0
 16 25  1  0  0  0  0
 16 30  2  0  0  0  0
 17 28  2  0  0  0  0
 17 35  1  0  0  0  0
 18 32  2  0  0  0  0
 18 33  1  0  0  0  0
 19 27  2  0  0  0  0
 19 28  1  0  0  0  0
 20 34  1  0  0  0  0
 21 34  1  0  0  0  0
 21 36  2  0  0  0  0
 21 37  1  0  0  0  0
 22 24  2  0  0  0  0
 22 42  1  0  0  0  0
 23 25  2  0  0  0  0
 23 43  1  0  0  0  0
 24 54  1  0  0  0  0
 25 44  1  0  0  0  0
 26 64  1  0  0  0  0
 27 68  1  0  0  0  0
 28 75  1  0  0  0  0
 29 85  1  0  0  0  0
 30 86  1  0  0  0  0
 31 33  2  0  0  0  0
 31 85  1  0  0  0  0
 32 87  1  0  0  0  0
 33 88  1  0  0  0  0
 34 69  2  0  0  0  0
 35 58  1  0  0  0  0
 35 68  2  0  0  0  0
 36 70  1  0  0  0  0
 36 73  1  0  0  0  0
 37 74  1  0  0  0  0
 37 80  2  0  0  0  0
 38 55  1  0  0  0  0
 38 76  1  0  0  0  0
 38 81  2  0  0  0  0
 39 65  1  0  0  0  0
 39 71  1  0  0  0  0
 39 82  2  0  0  0  0
 40 66  1  0  0  0  0
 40 77  1  0  0  0  0
 40 83  2  0  0  0  0
 41 72  1  0  0  0  0
 41 75  1  0  0  0  0
 41 84  2  0  0  0  0
 42 45  1  0  0  0  0
 43 55  1  0  0  0  0
 44 71  1  0  0  0  0
 45 47  1  0  0  0  0
 46 48  1  0  0  0  0
 46 50  1  0  0  0  0
 47 54  1  0  0  0  0
 48 56  1  0  0  0  0
 49 52  1  0  0  0  0
 49 57  1  0  0  0  0
 50 72  1  0  0  0  0
 51 56  1  0  0  0  0
 51 72  1  0  0  0  0
 52 78  1  0  0  0  0
 53 57  1  0  0  0  0
 53 78  1  0  0  0  0
 54 76  1  0  0  0  0
 55 71  1  0  0  0  0
 56 70  1  0  0  0  0
 57 86  1  0  0  0  0
 59 66  1  0  0  0  0
 60 67  1  0  0  0  0
 61 67  1  0  0  0  0
 62 67  1  0  0  0  0
 63 79  1  0  0  0  0
 64 78  1  0  0  0  0
 65 67  1  0  0  0  0
 65 77  1  0  0  0  0
 66 79  1  0  0  0  0
 69 70  1  0  0  0  0
M  CHG  2  78   1  79   1
M  ISO  4  41 100  57 101  75 100  86 101
M  END
> <Batch ID>
0127

> <Smiles>
CNC(C)C(=O)NC(C(=O)N1Cc2cc([101O:1][101CH:1]3CCN(Cc4ccc5nc(C)cc([100NH:0][100C:0](=O)N6CCCC(n7nc(-c8ccc(Oc9ccc(F)cc9F)cc8)c(C(N)=O)c7N)C6)c5c4)C3)ccc2CC1C(=O)NC1CCCc2ccccc21)C(C)(C)C

> <Shape>
0.136

> <Color>
0.171

> <Negative vol penalty>
0.000

$$$$

  -OEChem-04052320403D

 84 92  0     1  0  0  0  0  0999 V2000
  -26.8794  -34.8129   22.6285 C   0  0  0  0  0  0  0  0  0  0  0  0
  -27.3277  -33.5051   22.4734 C   0  0  0  0  0  0  0  0  0  0  0  0
  -22.9500  -10.0931   20.0801 C   0  0  0  0  0  0  0  0  0  0  0  0
  -24.1419   -9.3883   22.0599 C   0  0  0  0  0  0  0  0  0  0  0  0
  -25.5796  -35.0553   23.0706 C   0  0  0  0  0  0  0  0  0  0  0  0
  -26.4766  -32.4388   22.7615 C   0  0  0  0  0  0  0  0  0  0  0  0
  -26.2533  -27.0292   19.8992 C   0  0  0  0  0  0  0  0  0  0  0  0
  -28.5443  -21.6789   22.5103 C   0  0  0  0  0  0  0  0  0  0  0  0
  -28.9008  -20.3808   22.8756 C   0  0  0  0  0  0  0  0  0  0  0  0
  -22.2127   -8.9093   20.1025 C   0  0  0  0  0  0  0  0  0  0  0  0
  -23.4046   -8.2044   22.0823 C   0  0  0  0  0  0  0  0  0  0  0  0
  -26.7947  -25.7820   20.2073 C   0  0  0  0  0  0  0  0  0  0  0  0
  -20.3203   -7.2106   23.0414 C   0  0  0  0  0  0  0  0  0  0  0  0
  -19.8052   -6.7928   24.2685 C   0  0  0  0  0  0  0  0  0  0  0  0
  -28.3765  -20.9835   20.2026 C   0  0  0  0  0  0  0  0  0  0  0  0
  -24.7026  -25.1297   21.2157 C   0  0  0  0  0  0  0  0  0  0  0  0
  -21.0684   -4.7403   24.1000 C   0  0  0  0  0  0  0  0  0  0  0  0
  -23.9147  -10.3326   21.0588 C   0  0  0  0  0  0  0  0  0  0  0  0
  -28.7331  -19.6854   20.5679 C   0  0  0  0  0  0  0  0  0  0  0  0
  -24.3517  -12.7717   21.6651 C   0  0  0  0  0  0  0  0  0  0  0  0
  -24.7090  -33.9914   23.3551 C   0  0  0  0  0  0  0  0  0  0  0  0
  -24.9338  -27.3405   20.2573 C   0  0  0  0  0  0  0  0  0  0  0  0
  -25.1643  -32.6671   23.2092 C   0  0  0  0  0  0  0  0  0  0  0  0
  -24.1460  -26.3807   20.9087 C   0  0  0  0  0  0  0  0  0  0  0  0
  -28.2821  -21.9802   21.1738 C   0  0  0  0  0  0  0  0  0  0  0  0
  -28.9952  -19.3840   21.9044 C   0  0  0  0  0  0  0  0  0  0  0  0
  -22.4400   -7.9649   21.1036 C   0  0  0  0  0  0  0  0  0  0  0  0
  -26.0203  -24.8330   20.8682 C   0  0  0  0  0  0  0  0  0  0  0  0
  -21.2094   -6.3932   22.3436 C   0  0  0  0  0  0  0  0  0  0  0  0
  -20.1793   -5.5577   24.7978 C   0  0  0  0  0  0  0  0  0  0  0  0
  -21.5835   -5.1581   22.8729 C   0  0  0  0  0  0  0  0  0  0  0  0
  -24.6770  -11.5551   21.0359 C   0  0  0  0  0  0  0  0  0  0  0  0
  -25.3879  -13.6132   21.3419 C   0  0  0  0  0  0  0  0  0  0  0  0
  -28.8245  -18.6635   19.5337 C   0  0  0  0  0  0  0  0  0  0  0  0
  -23.2146  -13.1107   22.4699 C   0  0  0  0  0  0  0  0  0  0  0  0
  -23.5730  -29.5072   22.1435 C   0  0  0  0  0  0  0  0  0  0  0  0
  -20.8311  -28.2885   20.9111 C   0  0  0  0  0  0  0  0  0  0  0  0
  -19.2355  -25.6547   19.4400 C   0  0  0  0  0  0  0  0  0  0  0  0
  -30.8469  -14.6006   20.7335 C   0  0  0  0  0  0  0  0  0  0  0  0
  -23.3281  -34.3028   23.8756 C   0  0  0  0  0  0  0  0  0  0  0  0
  -24.3560  -28.6809   19.8940 C   0  0  0  0  0  0  0  0  0  0  0  0
  -22.7175  -26.6581   21.2969 C   0  0  0  0  0  0  0  0  0  0  0  0
  -22.3677  -33.1186   23.8008 C   0  0  0  0  0  0  0  0  0  0  0  0
  -29.1486  -13.0732   18.0023 C   0  0  0  0  0  0  0  0  0  0  0  0
  -23.0366  -31.8544   24.3310 C   0  0  0  0  0  0  0  0  0  0  0  0
  -27.8103  -12.6372   18.6015 C   0  0  0  0  0  0  0  0  0  0  0  0
  -30.2921  -12.9177   19.0024 C   0  0  0  0  0  0  0  0  0  0  0  0
  -28.7360  -13.1470   20.8997 C   0  0  0  0  0  0  0  0  0  0  0  0
  -24.2628  -31.4840   23.4879 C   0  0  1  0  0  0  0  0  0  0  0  0
  -23.1657  -29.0740   20.7636 C   0  0  1  0  0  0  0  0  0  0  0  0
  -27.5434  -13.3382   19.9471 C   0  0  2  0  0  0  0  0  0  0  0  0
  -16.9862  -24.9424   18.5852 C   0  0  0  0  0  0  0  0  0  0  0  0
  -19.8787  -27.8635   23.7785 C   0  0  0  0  0  0  0  0  0  0  0  0
  -18.1143  -26.3251   22.8907 C   0  0  0  0  0  0  0  0  0  0  0  0
  -18.1280  -28.7263   22.2148 C   0  0  0  0  0  0  0  0  0  0  0  0
  -20.2656  -25.2963   16.6887 C   0  0  0  0  0  0  0  0  0  0  0  0
  -29.3791  -18.0023   22.3232 C   0  0  0  0  0  0  0  0  0  0  0  0
  -27.8986  -23.3768   20.7815 C   0  0  0  0  0  0  0  0  0  1  0  0
  -30.8550  -17.6463   22.0629 C   0  0  0  0  0  0  0  0  0  0  0  0
  -31.2596  -16.2527   22.5389 C   0  0  0  0  0  0  0  0  0  0  0  0
  -19.8928  -27.1688   21.2919 C   0  0  1  0  0  0  0  0  0  0  0  0
  -18.3210  -25.5790   18.2306 C   0  0  2  0  0  0  0  0  0  0  0  0
  -19.0309  -27.5161   22.5385 C   0  0  0  0  0  0  0  0  0  0  0  0
  -25.8296  -11.6143   20.3637 N   0  0  0  0  0  0  0  0  0  0  0  0
  -26.2376  -12.8783   20.5686 N   0  0  0  0  0  0  0  0  0  0  0  0
  -22.1999  -27.9854   20.9254 N   0  0  0  0  0  0  0  0  0  0  0  0
  -29.9767  -13.6066   20.2562 N   0  0  0  0  0  0  0  0  0  0  0  0
  -25.6460  -14.9028   21.6465 N   0  0  0  0  0  0  0  0  0  0  0  0
  -27.6769  -17.9325   19.2458 N   0  0  0  0  0  0  0  0  0  0  0  0
  -22.2439  -12.1270   22.7031 N   0  0  0  0  0  0  0  0  0  0  0  0
  -23.8539  -30.8560   22.2498 N   0  0  0  0  0  0  0  0  0  0  0  0
  -19.1165  -26.8620   20.0954 N   0  0  0  0  0  0  0  0  0  0  0  0
  -30.4704  -15.2080   21.9251 N   0  0  0  0  0  0  0  0  0  0  0  0
  -18.9554  -24.7706   17.1513 N   0  3  0  0  0  0  0  0  0  0  0  0
  -29.8925  -18.4391   18.9401 O   0  0  0  0  0  0  0  0  0  0  0  0
  -23.0555  -14.2571   22.9538 O   0  0  0  0  0  0  0  0  0  0  0  0
  -23.6270  -28.6793   23.0453 O   0  0  0  0  0  0  0  0  0  0  0  0
  -20.3662  -29.3893   20.6050 O   0  0  0  0  0  0  0  0  0  0  0  0
  -19.9781  -24.7335   19.7722 O   0  0  0  0  0  0  0  0  0  0  0  0
  -31.8799  -14.9265   20.1388 O   0  0  0  0  0  0  0  0  0  0  0  0
  -21.7206   -6.8097   21.1258 O   0  0  0  0  0  0  0  0  0  0  0  0
  -26.5465  -23.6150   21.1707 O   0  0  0  0  0  0  0  0  0  1  0  0
  -19.6857   -5.1573   25.9769 F   0  0  0  0  0  0  0  0  0  0  0  0
  -22.4383   -4.3690   22.2076 F   0  0  0  0  0  0  0  0  0  0  0  0
  1  2  1  0  0  0  0
  1  5  2  0  0  0  0
  2  6  2  0  0  0  0
  3 10  2  0  0  0  0
  3 18  1  0  0  0  0
  4 11  1  0  0  0  0
  4 18  2  0  0  0  0
  5 21  1  0  0  0  0
  6 23  1  0  0  0  0
  7 12  2  0  0  0  0
  7 22  1  0  0  0  0
  8  9  2  0  0  0  0
  8 25  1  0  0  0  0
  9 26  1  0  0  0  0
 10 27  1  0  0  0  0
 11 27  2  0  0  0  0
 12 28  1  0  0  0  0
 13 14  2  0  0  0  0
 13 29  1  0  0  0  0
 14 30  1  0  0  0  0
 15 19  1  0  0  0  0
 15 25  2  0  0  0  0
 16 24  1  0  0  0  0
 16 28  2  0  0  0  0
 17 30  2  0  0  0  0
 17 31  1  0  0  0  0
 18 32  1  0  0  0  0
 19 26  2  0  0  0  0
 19 34  1  0  0  0  0
 20 32  1  0  0  0  0
 20 33  2  0  0  0  0
 20 35  1  0  0  0  0
 21 23  2  0  0  0  0
 21 40  1  0  0  0  0
 22 24  2  0  0  0  0
 22 41  1  0  0  0  0
 23 49  1  0  0  0  0
 24 42  1  0  0  0  0
 25 58  1  0  0  0  0
 26 57  1  0  0  0  0
 27 81  1  0  0  0  0
 28 82  1  0  0  0  0
 29 31  2  0  0  0  0
 29 81  1  0  0  0  0
 30 83  1  0  0  0  0
 31 84  1  0  0  0  0
 32 64  2  0  0  0  0
 33 65  1  0  0  0  0
 33 68  1  0  0  0  0
 34 69  1  0  0  0  0
 34 75  2  0  0  0  0
 35 70  1  0  0  0  0
 35 76  2  0  0  0  0
 36 50  1  0  0  0  0
 36 71  1  0  0  0  0
 36 77  2  0  0  0  0
 37 61  1  0  0  0  0
 37 66  1  0  0  0  0
 37 78  2  0  0  0  0
 38 62  1  0  0  0  0
 38 72  1  0  0  0  0
 38 79  2  0  0  0  0
 39 67  1  0  0  0  0
 39 73  1  0  0  0  0
 39 80  2  0  0  0  0
 40 43  1  0  0  0  0
 41 50  1  0  0  0  0
 42 66  1  0  0  0  0
 43 45  1  0  0  0  0
 44 46  1  0  0  0  0
 44 47  1  0  0  0  0
 45 49  1  0  0  0  0
 46 51  1  0  0  0  0
 47 67  1  0  0  0  0
 48 51  1  0  0  0  0
 48 67  1  0  0  0  0
 49 71  1  0  0  0  0
 50 66  1  0  0  0  0
 51 65  1  0  0  0  0
 52 62  1  0  0  0  0
 53 63  1  0  0  0  0
 54 63  1  0  0  0  0
 55 63  1  0  0  0  0
 56 74  1  0  0  0  0
 57 59  1  0  0  0  0
 58 82  1  0  0  0  0
 59 60  1  0  0  0  0
 60 73  1  0  0  0  0
 61 63  1  0  0  0  0
 61 72  1  0  0  0  0
 62 74  1  0  0  0  0
 64 65  1  0  0  0  0
M  CHG  1  74   1
M  ISO  4  39 100  58 101  73 100  82 101
M  END
> <Batch ID>
0127

> <Smiles>
CNC(C)C(=O)NC(C(=O)N1Cc2cc([101O:1][101CH2:1]c3ccc(CCC[100NH:0][100C:0](=O)N4CCCC(n5nc(-c6ccc(Oc7ccc(F)cc7F)cc6)c(C(N)=O)c5N)C4)c(C(N)=O)c3)ccc2CC1C(=O)NC1CCCc2ccccc21)C(C)(C)C

> <Shape>
0.382

> <Color>
0.155

> <Negative vol penalty>
0.000

$$$$

  -OEChem-04052320403D

 81 89  0     1  0  0  0  0  0999 V2000
  -19.0699  -27.7384   23.8882 C   0  0  0  0  0  0  0  0  0  0  0  0
  -20.1087  -26.9488   23.4056 C   0  0  0  0  0  0  0  0  0  0  0  0
  -22.9871  -10.0114   19.9362 C   0  0  0  0  0  0  0  0  0  0  0  0
  -23.8581   -9.8459   22.1837 C   0  0  0  0  0  0  0  0  0  0  0  0
  -18.1795  -28.3371   22.9979 C   0  0  0  0  0  0  0  0  0  0  0  0
  -20.2569  -26.7565   22.0325 C   0  0  0  0  0  0  0  0  0  0  0  0
  -25.0646  -27.2273   20.5127 C   0  0  0  0  0  0  0  0  0  0  0  0
  -22.2188   -8.8671   20.1497 C   0  0  0  0  0  0  0  0  0  0  0  0
  -23.0896   -8.7015   22.3972 C   0  0  0  0  0  0  0  0  0  0  0  0
  -25.9154  -26.1483   20.7483 C   0  0  0  0  0  0  0  0  0  0  0  0
  -21.0832   -5.9433   23.6559 C   0  0  0  0  0  0  0  0  0  0  0  0
  -20.3841   -5.8458   24.8589 C   0  0  0  0  0  0  0  0  0  0  0  0
  -25.6479  -25.4446   18.4565 C   0  0  0  0  0  0  0  0  0  0  0  0
  -19.1699   -7.8629   24.3167 C   0  0  0  0  0  0  0  0  0  0  0  0
  -23.8069  -10.5008   20.9532 C   0  0  0  0  0  0  0  0  0  0  0  0
  -24.2256  -13.0171   20.9772 C   0  0  0  0  0  0  0  0  0  0  0  0
  -18.3226  -28.1599   21.6127 C   0  0  0  0  0  0  0  0  0  0  0  0
  -24.4894  -27.4172   19.2479 C   0  0  0  0  0  0  0  0  0  0  0  0
  -19.3667  -27.3522   21.1230 C   0  0  0  0  0  0  0  0  0  0  0  0
  -24.7921  -26.5282   18.2067 C   0  0  0  0  0  0  0  0  0  0  0  0
  -22.2700   -8.2121   21.3802 C   0  0  0  0  0  0  0  0  0  0  0  0
  -26.2049  -25.2551   19.7210 C   0  0  0  0  0  0  0  0  0  0  0  0
  -20.8257   -7.0006   22.7833 C   0  0  0  0  0  0  0  0  0  0  0  0
  -19.4274   -6.8056   25.1894 C   0  0  0  0  0  0  0  0  0  0  0  0
  -19.8690   -7.9604   23.1137 C   0  0  0  0  0  0  0  0  0  0  0  0
  -24.6013  -11.6826   20.7331 C   0  0  0  0  0  0  0  0  0  0  0  0
  -25.3228  -13.7559   20.6073 C   0  0  0  0  0  0  0  0  0  0  0  0
  -22.9948  -13.5421   21.4923 C   0  0  0  0  0  0  0  0  0  0  0  0
  -21.5177  -27.4766   18.1212 C   0  0  0  0  0  0  0  0  0  0  0  0
  -22.9936  -28.3585   15.3705 C   0  0  0  0  0  0  0  0  0  0  0  0
  -25.8343  -28.3616   13.4791 C   0  0  0  0  0  0  0  0  0  0  0  0
  -30.8398  -14.5967   20.5807 C   0  0  0  0  0  0  0  0  0  0  0  0
  -17.3072  -28.7887   20.6917 C   0  0  0  0  0  0  0  0  0  0  0  0
  -23.5948  -28.6012   19.0027 C   0  0  0  0  0  0  0  0  0  0  0  0
  -24.2165  -26.6992   16.8254 C   0  0  0  0  0  0  0  0  0  0  0  0
  -17.7569  -28.8403   19.2338 C   0  0  0  0  0  0  0  0  0  0  0  0
  -29.5088  -12.4082   18.1078 C   0  0  0  0  0  0  0  0  0  0  0  0
  -18.3378  -27.4961   18.8064 C   0  0  0  0  0  0  0  0  0  0  0  0
  -28.7470  -21.8959   20.3326 C   0  0  0  0  0  0  0  0  0  0  0  0
  -26.9354  -20.5039   19.2432 C   0  0  0  0  0  0  0  0  0  0  0  0
  -28.0853  -12.1297   18.5938 C   0  0  0  0  0  0  0  0  0  0  0  0
  -29.2279  -20.6662   21.1030 C   0  0  0  0  0  0  0  0  0  0  0  0
  -27.4170  -19.2748   20.0138 C   0  0  0  0  0  0  0  0  0  0  0  0
  -30.4903  -12.5227   19.2720 C   0  0  0  0  0  0  0  0  0  0  0  0
  -28.6838  -13.2179   20.7975 C   0  0  0  0  0  0  0  0  0  0  0  0
  -19.5752  -27.1401   19.6392 C   0  0  1  0  0  0  0  0  0  0  0  0
  -22.6577  -28.4062   17.8148 C   0  0  1  0  0  0  0  0  0  0  0  0
  -27.2517  -21.8048   19.9952 C   0  0  0  0  0  0  0  0  0  0  0  0
  -27.6480  -13.1497   19.6623 C   0  0  2  0  0  0  0  0  0  0  0  0
  -28.9039  -19.3850   20.3396 C   0  0  0  0  0  0  0  0  0  0  0  0
  -26.7228  -29.1270   11.2605 C   0  0  0  0  0  0  0  0  0  0  0  0
  -21.5235  -26.0664   13.9938 C   0  0  0  0  0  0  0  0  0  0  0  0
  -23.1291  -26.2759   12.0843 C   0  0  0  0  0  0  0  0  0  0  0  0
  -21.6308  -28.1834   12.6667 C   0  0  0  0  0  0  0  0  0  0  0  0
  -27.8629  -30.0953   14.7588 C   0  0  0  0  0  0  0  0  0  0  0  0
  -26.8085  -23.0189   19.1812 C   0  0  0  0  0  0  0  0  0  1  0  0
  -31.0370  -16.6590   21.9473 C   0  0  0  0  0  0  0  0  0  0  0  0
  -30.7463  -17.8700   21.0806 C   0  0  0  0  0  0  0  0  0  0  0  0
  -23.5733  -27.6245   14.1855 C   0  0  1  0  0  0  0  0  0  0  0  0
  -26.5445  -29.4748   12.7301 C   0  0  2  0  0  0  0  0  0  0  0  0
  -22.4736  -27.0330   13.2590 C   0  0  0  0  0  0  0  0  0  0  0  0
  -25.8404  -11.5766   20.2457 N   0  0  0  0  0  0  0  0  0  0  0  0
  -26.2527  -12.8541   20.1804 N   0  0  0  0  0  0  0  0  0  0  0  0
  -23.3422  -27.8687   16.6372 N   0  0  0  0  0  0  0  0  0  0  0  0
  -30.0180  -13.5070   20.2487 N   0  0  0  0  0  0  0  0  0  0  0  0
  -25.5732  -15.0824   20.6087 N   0  0  0  0  0  0  0  0  0  0  0  0
  -21.9711  -12.6433   21.8220 N   0  0  0  0  0  0  0  0  0  0  0  0
  -20.7266  -27.8856   19.1777 N   0  0  0  0  0  0  0  0  0  0  0  0
  -24.4711  -28.5642   13.5226 N   0  0  0  0  0  0  0  0  0  0  0  0
  -30.3135  -15.4860   21.5097 N   0  0  0  0  0  0  0  0  0  0  0  0
  -29.3030  -18.2168   21.1686 N   0  3  0  0  0  0  0  0  0  0  0  0
  -27.8902  -29.7205   13.3215 N   0  3  0  0  0  0  0  0  0  0  0  0
  -22.8024  -14.7728   21.6400 O   0  0  0  0  0  0  0  0  0  0  0  0
  -21.3662  -26.4639   17.4480 O   0  0  0  0  0  0  0  0  0  0  0  0
  -22.2643  -29.3348   15.1795 O   0  0  0  0  0  0  0  0  0  0  0  0
  -26.4289  -27.4059   13.9726 O   0  0  0  0  0  0  0  0  0  0  0  0
  -31.9574  -14.7676   20.0819 O   0  0  0  0  0  0  0  0  0  0  0  0
  -21.5201   -7.0956   21.5889 O   0  0  0  0  0  0  0  0  0  0  0  0
  -27.0346  -24.2007   19.9485 O   0  0  0  0  0  0  0  0  0  1  0  0
  -18.7550   -6.7110   26.3440 F   0  0  0  0  0  0  0  0  0  0  0  0
  -19.6165   -8.9778   22.2789 F   0  0  0  0  0  0  0  0  0  0  0  0
  1  2  1  0  0  0  0
  1  5  2  0  0  0  0
  2  6  2  0  0  0  0
  3  8  2  0  0  0  0
  3 15  1  0  0  0  0
  4  9  1  0  0  0  0
  4 15  2  0  0  0  0
  5 17  1  0  0  0  0
  6 19  1  0  0  0  0
  7 10  2  0  0  0  0
  7 18  1  0  0  0  0
  8 21  1  0  0  0  0
  9 21  2  0  0  0  0
 10 22  1  0  0  0  0
 11 12  2  0  0  0  0
 11 23  1  0  0  0  0
 12 24  1  0  0  0  0
 13 20  1  0  0  0  0
 13 22  2  0  0  0  0
 14 24  2  0  0  0  0
 14 25  1  0  0  0  0
 15 26  1  0  0  0  0
 16 26  1  0  0  0  0
 16 27  2  0  0  0  0
 16 28  1  0  0  0  0
 17 19  2  0  0  0  0
 17 33  1  0  0  0  0
 18 20  2  0  0  0  0
 18 34  1  0  0  0  0
 19 46  1  0  0  0  0
 20 35  1  0  0  0  0
 21 78  1  0  0  0  0
 22 79  1  0  0  0  0
 23 25  2  0  0  0  0
 23 78  1  0  0  0  0
 24 80  1  0  0  0  0
 25 81  1  0  0  0  0
 26 62  2  0  0  0  0
 27 63  1  0  0  0  0
 27 66  1  0  0  0  0
 28 67  1  0  0  0  0
 28 73  2  0  0  0  0
 29 47  1  0  0  0  0
 29 68  1  0  0  0  0
 29 74  2  0  0  0  0
 30 59  1  0  0  0  0
 30 64  1  0  0  0  0
 30 75  2  0  0  0  0
 31 60  1  0  0  0  0
 31 69  1  0  0  0  0
 31 76  2  0  0  0  0
 32 65  1  0  0  0  0
 32 70  1  0  0  0  0
 32 77  2  0  0  0  0
 33 36  1  0  0  0  0
 34 47  1  0  0  0  0
 35 64  1  0  0  0  0
 36 38  1  0  0  0  0
 37 41  1  0  0  0  0
 37 44  1  0  0  0  0
 38 46  1  0  0  0  0
 39 42  1  0  0  0  0
 39 48  1  0  0  0  0
 40 43  1  0  0  0  0
 40 48  1  0  0  0  0
 41 49  1  0  0  0  0
 42 50  1  0  0  0  0
 43 50  1  0  0  0  0
 44 65  1  0  0  0  0
 45 49  1  0  0  0  0
 45 65  1  0  0  0  0
 46 68  1  0  0  0  0
 47 64  1  0  0  0  0
 48 56  1  0  0  0  0
 49 63  1  0  0  0  0
 50 71  1  0  0  0  0
 51 60  1  0  0  0  0
 52 61  1  0  0  0  0
 53 61  1  0  0  0  0
 54 61  1  0  0  0  0
 55 72  1  0  0  0  0
 56 79  1  0  0  0  0
 57 58  1  0  0  0  0
 57 70  1  0  0  0  0
 58 71  1  0  0  0  0
 59 61  1  0  0  0  0
 59 69  1  0  0  0  0
 60 72  1  0  0  0  0
 62 63  1  0  0  0  0
M  CHG  2  71   1  72   1
M  ISO  4  32 100  56 101  70 100  79 101
M  END
> <Batch ID>
0127

> <Smiles>
CNC(C)C(=O)NC(C(=O)N1Cc2cc([101O:1][101CH2:1]C3CCC(NCC[100NH:0][100C:0](=O)N4CCCC(n5nc(-c6ccc(Oc7ccc(F)cc7F)cc6)c(C(N)=O)c5N)C4)CC3)ccc2CC1C(=O)NC1CCCc2ccccc21)C(C)(C)C

> <Shape>
0.278

> <Color>
0.211

> <Negative vol penalty>
0.000

$$$$

  -OEChem-04052320403D

 88 97  0     1  0  0  0  0  0999 V2000
  -23.6198  -29.9330   24.4575 C   0  0  0  0  0  0  0  0  0  0  0  0
  -24.5172  -28.8789   24.5858 C   0  0  0  0  0  0  0  0  0  0  0  0
  -23.3611  -23.8787   25.2404 C   0  0  0  0  0  0  0  0  0  0  0  0
  -21.6425  -23.0396   23.7641 C   0  0  0  0  0  0  0  0  0  0  0  0
  -23.4521  -30.5541   23.2216 C   0  0  0  0  0  0  0  0  0  0  0  0
  -25.2558  -28.4532   23.4812 C   0  0  0  0  0  0  0  0  0  0  0  0
  -29.3380  -16.0925   21.4209 C   0  0  0  0  0  0  0  0  0  0  0  0
  -29.1423  -23.8005   22.8694 C   0  0  0  0  0  0  0  0  0  0  0  0
  -29.3060  -17.3696   21.9808 C   0  0  0  0  0  0  0  0  0  0  0  0
  -23.2796  -25.1279   24.6252 C   0  0  0  0  0  0  0  0  0  0  0  0
  -21.5609  -24.2889   23.1490 C   0  0  0  0  0  0  0  0  0  0  0  0
  -29.0926  -22.4622   22.4816 C   0  0  0  0  0  0  0  0  0  0  0  0
  -20.6449  -27.3582   21.4290 C   0  0  0  0  0  0  0  0  0  0  0  0
  -19.3746  -27.8787   21.1821 C   0  0  0  0  0  0  0  0  0  0  0  0
  -29.7739  -23.0887   20.2539 C   0  0  0  0  0  0  0  0  0  0  0  0
  -28.7499  -18.3020   19.8224 C   0  0  0  0  0  0  0  0  0  0  0  0
  -18.8900  -27.8187   23.5482 C   0  0  0  0  0  0  0  0  0  0  0  0
  -22.5425  -22.8345   24.8098 C   0  0  0  0  0  0  0  0  0  0  0  0
  -21.8905  -21.0938   26.5568 C   0  0  0  0  0  0  0  0  0  0  0  0
  -24.1803  -30.1270   22.0990 C   0  0  0  0  0  0  0  0  0  0  0  0
  -29.4983  -24.7958   21.9479 C   0  0  0  0  0  0  0  0  0  0  0  0
  -25.1183  -29.0829   22.2309 C   0  0  0  0  0  0  0  0  0  0  0  0
  -29.0761  -15.9201   20.0617 C   0  0  0  0  0  0  0  0  0  0  0  0
  -29.8299  -24.4385   20.6332 C   0  0  0  0  0  0  0  0  0  0  0  0
  -29.0119  -18.4744   21.1816 C   0  0  0  0  0  0  0  0  0  0  0  0
  -28.7820  -17.0248   19.2625 C   0  0  0  0  0  0  0  0  0  0  0  0
  -22.3795  -25.3330   23.5795 C   0  0  0  0  0  0  0  0  0  0  0  0
  -29.4055  -22.1064   21.1729 C   0  0  0  0  0  0  0  0  0  0  0  0
  -21.0378  -27.0679   22.7356 C   0  0  0  0  0  0  0  0  0  0  0  0
  -18.4971  -28.1089   22.2417 C   0  0  0  0  0  0  0  0  0  0  0  0
  -20.1603  -27.2982   23.7952 C   0  0  0  0  0  0  0  0  0  0  0  0
  -22.6266  -21.5437   25.4444 C   0  0  0  0  0  0  0  0  0  0  0  0
  -22.3351  -19.8113   26.7668 C   0  0  0  0  0  0  0  0  0  0  0  0
  -20.8939  -21.7742   27.3311 C   0  0  0  0  0  0  0  0  0  0  0  0
  -28.0423  -27.3411   20.7211 C   0  0  0  0  0  0  0  0  0  0  0  0
  -30.9501  -27.8766   19.3870 C   0  0  0  0  0  0  0  0  0  0  0  0
  -33.9356  -26.5993   18.3371 C   0  0  0  0  0  0  0  0  0  0  0  0
  -24.6952  -15.8188   23.1138 C   0  0  0  0  0  0  0  0  0  0  0  0
  -23.9654  -30.8398   20.7871 C   0  0  0  0  0  0  0  0  0  0  0  0
  -29.5732  -26.2318   22.3890 C   0  0  0  0  0  0  0  0  0  0  0  0
  -30.2378  -25.4667   19.6109 C   0  0  0  0  0  0  0  0  0  0  0  0
  -24.4564  -30.0370   19.5868 C   0  0  0  0  0  0  0  0  0  0  0  0
  -26.1925  -17.0408   26.1736 C   0  0  0  0  0  0  0  0  0  0  0  0
  -25.8721  -29.5398   19.8381 C   0  0  0  0  0  0  0  0  0  0  0  0
  -25.3656  -18.3011   26.4346 C   0  0  0  0  0  0  0  0  0  0  0  0
  -27.7834  -12.4769   18.7534 C   0  0  0  0  0  0  0  0  0  0  0  0
  -26.4491  -16.8471   24.6820 C   0  0  0  0  0  0  0  0  0  0  0  0
  -24.3892  -18.0702   24.1037 C   0  0  0  0  0  0  0  0  0  0  0  0
  -28.8328  -11.5728   19.3852 C   0  0  0  0  0  0  0  0  0  0  0  0
  -30.1469  -13.5814   20.1243 C   0  0  0  0  0  0  0  0  0  0  0  0
  -29.1166  -14.5169   19.4735 C   0  0  1  0  0  0  0  0  0  0  0  0
  -25.9102  -28.5828   21.0363 C   0  0  1  0  0  0  0  0  0  0  0  0
  -29.4498  -27.2192   21.2327 C   0  0  1  0  0  0  0  0  0  0  0  0
  -24.0764  -18.3099   25.5919 C   0  0  2  0  0  0  0  0  0  0  0  0
  -27.7163  -13.8664   19.3968 C   0  0  2  0  0  0  0  0  0  0  0  0
  -28.4986  -16.8647   17.8048 C   0  0  0  0  0  0  0  0  0  0  0  0
  -36.0959  -27.2757   17.2540 C   0  0  0  0  0  0  0  0  0  0  0  0
  -29.5413  -28.0410   16.6855 C   0  0  0  0  0  0  0  0  0  0  0  0
  -31.7720  -27.7616   15.5836 C   0  0  0  0  0  0  0  0  0  0  0  0
  -31.3376  -29.7465   17.0308 C   0  0  0  0  0  0  0  0  0  0  0  0
  -35.5167  -25.7421   20.6875 C   0  0  0  0  0  0  0  0  0  0  0  0
  -28.9778  -19.8482   21.7839 C   0  0  0  0  0  0  0  0  0  1  0  0
  -25.1402  -13.5559   22.1981 C   0  0  0  0  0  0  0  0  0  0  0  0
  -25.6405  -13.6771   20.7708 C   0  0  0  0  0  0  0  0  0  0  0  0
  -31.6260  -27.4731   18.0989 C   0  0  1  0  0  0  0  0  0  0  0  0
  -35.3643  -27.0568   18.5692 C   0  0  2  0  0  0  0  0  0  0  0  0
  -31.0597  -28.2362   16.8682 C   0  0  0  0  0  0  0  0  0  0  0  0
  -23.4746  -20.6220   24.9803 N   0  0  0  0  0  0  0  0  0  0  0  0
  -23.2742  -19.5802   25.8051 N   0  0  0  0  0  0  0  0  0  0  0  0
  -30.2900  -26.8582   20.0890 N   0  0  0  0  0  0  0  0  0  0  0  0
  -25.1807  -16.8464   23.9394 N   0  0  0  0  0  0  0  0  0  0  0  0
  -22.0105  -18.8701   27.6785 N   0  0  0  0  0  0  0  0  0  0  0  0
  -20.5560  -23.0880   26.9788 N   0  0  0  0  0  0  0  0  0  0  0  0
  -27.2886  -28.2999   21.3708 N   0  0  0  0  0  0  0  0  0  0  0  0
  -33.0569  -27.6617   18.3122 N   0  0  0  0  0  0  0  0  0  0  0  0
  -25.5082  -14.6971   23.0063 N   0  0  0  0  0  0  0  0  0  0  0  0
  -30.1501  -12.2751   19.3944 N   0  3  0  0  0  0  0  0  0  0  0  0
  -27.1229  -13.7291   20.7614 N   0  3  0  0  0  0  0  0  0  0  0  0
  -36.1124  -26.0384   19.3592 N   0  3  0  0  0  0  0  0  0  0  0  0
  -20.3317  -21.2390   28.3164 O   0  0  0  0  0  0  0  0  0  0  0  0
  -27.6682  -26.6197   19.8039 O   0  0  0  0  0  0  0  0  0  0  0  0
  -31.0118  -29.0507   19.7604 O   0  0  0  0  0  0  0  0  0  0  0  0
  -33.6301  -25.4182   18.1888 O   0  0  0  0  0  0  0  0  0  0  0  0
  -23.6139  -15.8930   22.5201 O   0  0  0  0  0  0  0  0  0  0  0  0
  -22.2996  -26.5520   22.9792 O   0  0  0  0  0  0  0  0  0  0  0  0
  -29.3571  -20.8010   20.7916 O   0  0  0  0  0  0  0  0  0  1  0  0
  -17.2779  -28.6102   22.0045 F   0  0  0  0  0  0  0  0  0  0  0  0
  -20.5326  -27.0223   25.0526 F   0  0  0  0  0  0  0  0  0  0  0  0
  1  2  1  0  0  0  0
  1  5  2  0  0  0  0
  2  6  2  0  0  0  0
  3 10  2  0  0  0  0
  3 18  1  0  0  0  0
  4 11  1  0  0  0  0
  4 18  2  0  0  0  0
  5 20  1  0  0  0  0
  6 22  1  0  0  0  0
  7  9  2  0  0  0  0
  7 23  1  0  0  0  0
  8 12  2  0  0  0  0
  8 21  1  0  0  0  0
  9 25  1  0  0  0  0
 10 27  1  0  0  0  0
 11 27  2  0  0  0  0
 12 28  1  0  0  0  0
 13 14  2  0  0  0  0
 13 29  1  0  0  0  0
 14 30  1  0  0  0  0
 15 24  1  0  0  0  0
 15 28  2  0  0  0  0
 16 25  2  0  0  0  0
 16 26  1  0  0  0  0
 17 30  2  0  0  0  0
 17 31  1  0  0  0  0
 18 32  1  0  0  0  0
 19 32  1  0  0  0  0
 19 33  2  0  0  0  0
 19 34  1  0  0  0  0
 20 22  2  0  0  0  0
 20 39  1  0  0  0  0
 21 24  2  0  0  0  0
 21 40  1  0  0  0  0
 22 52  1  0  0  0  0
 23 26  2  0  0  0  0
 23 51  1  0  0  0  0
 24 41  1  0  0  0  0
 25 62  1  0  0  0  0
 26 56  1  0  0  0  0
 27 85  1  0  0  0  0
 28 86  1  0  0  0  0
 29 31  2  0  0  0  0
 29 85  1  0  0  0  0
 30 87  1  0  0  0  0
 31 88  1  0  0  0  0
 32 68  2  0  0  0  0
 33 69  1  0  0  0  0
 33 72  1  0  0  0  0
 34 73  1  0  0  0  0
 34 80  2  0  0  0  0
 35 53  1  0  0  0  0
 35 74  1  0  0  0  0
 35 81  2  0  0  0  0
 36 65  1  0  0  0  0
 36 70  1  0  0  0  0
 36 82  2  0  0  0  0
 37 66  1  0  0  0  0
 37 75  1  0  0  0  0
 37 83  2  0  0  0  0
 38 71  1  0  0  0  0
 38 76  1  0  0  0  0
 38 84  2  0  0  0  0
 39 42  1  0  0  0  0
 40 53  1  0  0  0  0
 41 70  1  0  0  0  0
 42 44  1  0  0  0  0
 43 45  1  0  0  0  0
 43 47  1  0  0  0  0
 44 52  1  0  0  0  0
 45 54  1  0  0  0  0
 46 49  1  0  0  0  0
 46 55  1  0  0  0  0
 47 71  1  0  0  0  0
 48 54  1  0  0  0  0
 48 71  1  0  0  0  0
 49 77  1  0  0  0  0
 50 51  1  0  0  0  0
 50 77  1  0  0  0  0
 51 55  1  0  0  0  0
 52 74  1  0  0  0  0
 53 70  1  0  0  0  0
 54 69  1  0  0  0  0
 55 78  1  0  0  0  0
 57 66  1  0  0  0  0
 58 67  1  0  0  0  0
 59 67  1  0  0  0  0
 60 67  1  0  0  0  0
 61 79  1  0  0  0  0
 62 86  1  0  0  0  0
 63 64  1  0  0  0  0
 63 76  1  0  0  0  0
 64 78  1  0  0  0  0
 65 67  1  0  0  0  0
 65 75  1  0  0  0  0
 66 79  1  0  0  0  0
 68 69  1  0  0  0  0
M  CHG  3  77   1  78   1  79   1
M  ISO  4  38 100  62 101  76 100  86 101
M  END
> <Batch ID>
0127

> <Smiles>
CNC(C)C(=O)NC(C(=O)N1Cc2cc([101O:1][101CH2:1]c3ccc(C4CNCCC4NCC[100NH:0][100C:0](=O)N4CCCC(n5nc(-c6ccc(Oc7ccc(F)cc7F)cc6)c(C(N)=O)c5N)C4)c(C)c3)ccc2CC1C(=O)NC1CCCc2ccccc21)C(C)(C)C

> <Shape>
0.233

> <Color>
0.064

> <Negative vol penalty>
0.000

$$$$

  -OEChem-04052320403D

 85 94  0     1  0  0  0  0  0999 V2000
  -25.7922  -33.2845   19.0147 C   0  0  0  0  0  0  0  0  0  0  0  0
  -26.9838  -32.7616   19.5065 C   0  0  0  0  0  0  0  0  0  0  0  0
  -22.9816  -10.0042   19.9126 C   0  0  0  0  0  0  0  0  0  0  0  0
  -23.8414   -9.8158   22.1626 C   0  0  0  0  0  0  0  0  0  0  0  0
  -24.5832  -32.6531   19.3041 C   0  0  0  0  0  0  0  0  0  0  0  0
  -26.9672  -31.6076   20.2890 C   0  0  0  0  0  0  0  0  0  0  0  0
  -30.8794  -25.7820   21.7291 C   0  0  0  0  0  0  0  0  0  0  0  0
  -22.2030   -8.8647   20.1148 C   0  0  0  0  0  0  0  0  0  0  0  0
  -23.0628   -8.6763   22.3647 C   0  0  0  0  0  0  0  0  0  0  0  0
  -31.4129  -25.0834   22.8113 C   0  0  0  0  0  0  0  0  0  0  0  0
  -19.8345   -7.9586   23.0599 C   0  0  0  0  0  0  0  0  0  0  0  0
  -19.1289   -7.8620   24.2592 C   0  0  0  0  0  0  0  0  0  0  0  0
  -29.2730  -24.0330   23.1806 C   0  0  0  0  0  0  0  0  0  0  0  0
  -31.7567  -17.3339   21.2584 C   0  0  0  0  0  0  0  0  0  0  0  0
  -20.3214   -5.8309   24.7973 C   0  0  0  0  0  0  0  0  0  0  0  0
  -23.8009  -10.4798   20.9365 C   0  0  0  0  0  0  0  0  0  0  0  0
  -24.2399  -12.9923   20.9801 C   0  0  0  0  0  0  0  0  0  0  0  0
  -24.5527  -31.4853   20.0825 C   0  0  0  0  0  0  0  0  0  0  0  0
  -29.5334  -25.6193   21.3707 C   0  0  0  0  0  0  0  0  0  0  0  0
  -25.7566  -30.9607   20.5902 C   0  0  0  0  0  0  0  0  0  0  0  0
  -28.7254  -24.7287   22.0919 C   0  0  0  0  0  0  0  0  0  0  0  0
  -31.1049  -18.2525   23.8247 C   0  0  0  0  0  0  0  0  0  0  0  0
  -32.0006  -18.9818   23.0235 C   0  0  0  0  0  0  0  0  0  0  0  0
  -32.3300  -18.5078   21.7463 C   0  0  0  0  0  0  0  0  0  0  0  0
  -30.5258  -17.0800   23.3193 C   0  0  0  0  0  0  0  0  0  0  0  0
  -30.8535  -16.6218   22.0434 C   0  0  0  0  0  0  0  0  0  0  0  0
  -22.2436   -8.2007   21.3408 C   0  0  0  0  0  0  0  0  0  0  0  0
  -30.6090  -24.2109   23.5390 C   0  0  0  0  0  0  0  0  0  0  0  0
  -20.7835   -6.9912   22.7292 C   0  0  0  0  0  0  0  0  0  0  0  0
  -19.3723   -6.7982   25.1279 C   0  0  0  0  0  0  0  0  0  0  0  0
  -21.0270   -5.9274   23.5979 C   0  0  0  0  0  0  0  0  0  0  0  0
  -24.6058  -11.6565   20.7281 C   0  0  0  0  0  0  0  0  0  0  0  0
  -25.3446  -13.7247   20.6201 C   0  0  0  0  0  0  0  0  0  0  0  0
  -23.0112  -13.5237   21.4936 C   0  0  0  0  0  0  0  0  0  0  0  0
  -27.0054  -27.5399   21.2160 C   0  0  0  0  0  0  0  0  0  0  0  0
  -25.5902  -24.9293   19.9106 C   0  0  0  0  0  0  0  0  0  0  0  0
  -25.5279  -21.5344   19.5680 C   0  0  0  0  0  0  0  0  0  0  0  0
  -30.8513  -14.5488   20.6120 C   0  0  0  0  0  0  0  0  0  0  0  0
  -23.2172  -30.8647   20.4081 C   0  0  0  0  0  0  0  0  0  0  0  0
  -28.9801  -26.3600   20.1843 C   0  0  0  0  0  0  0  0  0  0  0  0
  -30.7087  -18.7492   25.1919 C   0  0  0  0  0  0  0  0  0  0  0  0
  -27.2796  -24.5032   21.7353 C   0  0  0  0  0  0  0  0  0  0  0  0
  -32.6532  -20.2353   23.5392 C   0  0  0  0  0  0  0  0  0  0  0  0
  -23.3215  -29.4347   20.9322 C   0  0  0  0  0  0  0  0  0  0  0  0
  -29.5360  -12.3572   18.1333 C   0  0  0  0  0  0  0  0  0  0  0  0
  -24.4077  -29.3349   21.9985 C   0  0  0  0  0  0  0  0  0  0  0  0
  -28.1060  -12.0894   18.6081 C   0  0  0  0  0  0  0  0  0  0  0  0
  -30.5118  -12.4635   19.3039 C   0  0  0  0  0  0  0  0  0  0  0  0
  -28.6987  -13.1567   20.8210 C   0  0  0  0  0  0  0  0  0  0  0  0
  -31.7091  -19.7328   25.7891 C   0  0  0  0  0  0  0  0  0  0  0  0
  -25.7818  -29.6966   21.4218 C   0  0  1  0  0  0  0  0  0  0  0  0
  -27.4621  -26.5060   20.2260 C   0  0  1  0  0  0  0  0  0  0  0  0
  -27.6687  -13.1062   19.6808 C   0  0  2  0  0  0  0  0  0  0  0  0
  -33.3035  -19.2329   20.8728 C   0  0  0  0  0  0  0  0  0  0  0  0
  -29.5366  -16.3070   24.1384 C   0  0  0  0  0  0  0  0  0  0  0  0
  -24.2308  -19.6889   18.4686 C   0  0  0  0  0  0  0  0  0  0  0  0
  -23.3967  -25.2228   22.0112 C   0  0  0  0  0  0  0  0  0  0  0  0
  -22.6808  -22.8810   21.4901 C   0  0  0  0  0  0  0  0  0  0  0  0
  -22.5772  -24.6377   19.7220 C   0  0  0  0  0  0  0  0  0  0  0  0
  -27.8775  -20.6642   17.9928 C   0  0  0  0  0  0  0  0  0  0  0  0
  -32.7766  -21.9516   25.3549 C   0  0  0  0  0  0  0  0  0  0  0  0
  -32.5159  -23.2047   24.5425 C   0  0  0  0  0  0  0  0  0  1  0  0
  -24.8271  -23.7442   20.4512 C   0  0  1  0  0  0  0  0  0  0  0  0
  -25.4043  -20.6478   18.3420 C   0  0  2  0  0  0  0  0  0  0  0  0
  -23.3972  -24.1269   20.9268 C   0  0  0  0  0  0  0  0  0  0  0  0
  -25.8460  -11.5439   20.2453 N   0  0  0  0  0  0  0  0  0  0  0  0
  -26.2690  -12.8184   20.1908 N   0  0  0  0  0  0  0  0  0  0  0  0
  -26.7832  -25.2553   20.5710 N   0  0  0  0  0  0  0  0  0  0  0  0
  -30.0346  -13.4480   20.2774 N   0  0  0  0  0  0  0  0  0  0  0  0
  -25.6058  -15.0491   20.6319 N   0  0  0  0  0  0  0  0  0  0  0  0
  -21.9789  -12.6310   21.8126 N   0  0  0  0  0  0  0  0  0  0  0  0
  -30.2790  -15.4356   21.5234 N   0  0  0  0  0  0  0  0  0  0  0  0
  -26.3125  -28.5932   20.6503 N   0  0  0  0  0  0  0  0  0  0  0  0
  -24.8569  -22.7278   19.4050 N   0  0  0  0  0  0  0  0  0  0  0  0
  -31.9900  -20.8114   24.7737 N   0  3  1  0  0  0  0  0  0  0  0  0
  -26.6472  -19.8472   18.1543 N   0  3  0  0  0  0  0  0  0  0  0  0
  -22.8282  -14.7549   21.6492 O   0  0  0  0  0  0  0  0  0  0  0  0
  -27.2613  -27.3922   22.4053 O   0  0  0  0  0  0  0  0  0  0  0  0
  -25.1477  -25.5389   18.9337 O   0  0  0  0  0  0  0  0  0  0  0  0
  -26.1538  -21.2000   20.5715 O   0  0  0  0  0  0  0  0  0  0  0  0
  -31.9647  -14.7086   20.1051 O   0  0  0  0  0  0  0  0  0  0  0  0
  -21.4838   -7.0889   21.5385 O   0  0  0  0  0  0  0  0  0  0  0  0
  -31.1271  -23.5283   24.5961 O   0  0  0  0  0  0  0  0  0  1  0  0
  -18.6958   -6.7065   26.2803 F   0  0  0  0  0  0  0  0  0  0  0  0
  -21.9383   -4.9957   23.2862 F   0  0  0  0  0  0  0  0  0  0  0  0
  1  2  1  0  0  0  0
  1  5  2  0  0  0  0
  2  6  2  0  0  0  0
  3  8  2  0  0  0  0
  3 16  1  0  0  0  0
  4  9  1  0  0  0  0
  4 16  2  0  0  0  0
  5 18  1  0  0  0  0
  6 20  1  0  0  0  0
  7 10  2  0  0  0  0
  7 19  1  0  0  0  0
  8 27  1  0  0  0  0
  9 27  2  0  0  0  0
 10 28  1  0  0  0  0
 11 12  2  0  0  0  0
 11 29  1  0  0  0  0
 12 30  1  0  0  0  0
 13 21  1  0  0  0  0
 13 28  2  0  0  0  0
 14 24  2  0  0  0  0
 14 26  1  0  0  0  0
 15 30  2  0  0  0  0
 15 31  1  0  0  0  0
 16 32  1  0  0  0  0
 17 32  1  0  0  0  0
 17 33  2  0  0  0  0
 17 34  1  0  0  0  0
 18 20  2  0  0  0  0
 18 39  1  0  0  0  0
 19 21  2  0  0  0  0
 19 40  1  0  0  0  0
 20 51  1  0  0  0  0
 21 42  1  0  0  0  0
 22 23  2  0  0  0  0
 22 25  1  0  0  0  0
 22 41  1  0  0  0  0
 23 24  1  0  0  0  0
 23 43  1  0  0  0  0
 24 54  1  0  0  0  0
 25 26  2  0  0  0  0
 25 55  1  0  0  0  0
 26 72  1  0  0  0  0
 27 82  1  0  0  0  0
 28 83  1  0  0  0  0
 29 31  2  0  0  0  0
 29 82  1  0  0  0  0
 30 84  1  0  0  0  0
 31 85  1  0  0  0  0
 32 66  2  0  0  0  0
 33 67  1  0  0  0  0
 33 70  1  0  0  0  0
 34 71  1  0  0  0  0
 34 77  2  0  0  0  0
 35 52  1  0  0  0  0
 35 73  1  0  0  0  0
 35 78  2  0  0  0  0
 36 63  1  0  0  0  0
 36 68  1  0  0  0  0
 36 79  2  0  0  0  0
 37 64  1  0  0  0  0
 37 74  1  0  0  0  0
 37 80  2  0  0  0  0
 38 69  1  0  0  0  0
 38 72  1  0  0  0  0
 38 81  2  0  0  0  0
 39 44  1  0  0  0  0
 40 52  1  0  0  0  0
 41 50  1  0  0  0  0
 42 68  1  0  0  0  0
 43 75  1  0  0  0  0
 44 46  1  0  0  0  0
 45 47  1  0  0  0  0
 45 48  1  0  0  0  0
 46 51  1  0  0  0  0
 47 53  1  0  0  0  0
 48 69  1  0  0  0  0
 49 53  1  0  0  0  0
 49 69  1  0  0  0  0
 50 75  1  0  0  0  0
 51 73  1  0  0  0  0
 52 68  1  0  0  0  0
 53 67  1  0  0  0  0
 56 64  1  0  0  0  0
 57 65  1  0  0  0  0
 58 65  1  0  0  0  0
 59 65  1  0  0  0  0
 60 76  1  0  0  0  0
 61 62  1  0  0  0  0
 61 75  1  0  0  0  0
 62 83  1  0  0  0  0
 63 65  1  0  0  0  0
 63 74  1  0  0  0  0
 64 76  1  0  0  0  0
 66 67  1  0  0  0  0
M  CHG  2  75   1  76   1
M  ISO  4  38 100  62 101  72 100  83 101
M  END
> <Batch ID>
0127

> <Smiles>
CNC(C)C(=O)NC(C(=O)N1Cc2cc([101O:1][101CH2:1]CN3CCc4c(C)c([100NH:0][100C:0](=O)N5CCCC(n6nc(-c7ccc(Oc8ccc(F)cc8F)cc7)c(C(N)=O)c6N)C5)cc(C)c4C3)ccc2CC1C(=O)NC1CCCc2ccccc21)C(C)(C)C

> <Shape>
0.255

> <Color>
0.203

> <Negative vol penalty>
0.000

$$$$

  -OEChem-04052320403D

 85 93  0     1  0  0  0  0  0999 V2000
  -30.0087  -24.0592   17.7215 C   0  0  0  0  0  0  0  0  0  0  0  0
  -28.7641  -24.1131   18.3408 C   0  0  0  0  0  0  0  0  0  0  0  0
  -27.8817  -17.2134   21.3005 C   0  0  0  0  0  0  0  0  0  0  0  0
  -27.4582  -17.1883   18.9220 C   0  0  0  0  0  0  0  0  0  0  0  0
  -31.0656  -24.8224   18.2158 C   0  0  0  0  0  0  0  0  0  0  0  0
  -28.5760  -24.9295   19.4555 C   0  0  0  0  0  0  0  0  0  0  0  0
  -24.2688  -27.5819   19.2162 C   0  0  0  0  0  0  0  0  0  0  0  0
  -28.5499  -18.4307   21.1687 C   0  0  0  0  0  0  0  0  0  0  0  0
  -28.1263  -18.4056   18.7902 C   0  0  0  0  0  0  0  0  0  0  0  0
  -23.0875  -26.9068   19.5204 C   0  0  0  0  0  0  0  0  0  0  0  0
  -27.7359  -21.6944   20.8240 C   0  0  0  0  0  0  0  0  0  0  0  0
  -27.4467  -22.6962   21.7504 C   0  0  0  0  0  0  0  0  0  0  0  0
  -23.1193  -27.8616   21.7355 C   0  0  0  0  0  0  0  0  0  0  0  0
  -29.7622  -22.7271   22.4397 C   0  0  0  0  0  0  0  0  0  0  0  0
  -27.3360  -16.5921   20.1771 C   0  0  0  0  0  0  0  0  0  0  0  0
  -27.1735  -14.1239   20.8008 C   0  0  0  0  0  0  0  0  0  0  0  0
  -30.8878  -25.6560   19.3312 C   0  0  0  0  0  0  0  0  0  0  0  0
  -24.8910  -28.3948   20.1746 C   0  0  0  0  0  0  0  0  0  0  0  0
  -29.6319  -25.7036   19.9660 C   0  0  0  0  0  0  0  0  0  0  0  0
  -24.3070  -28.5480   21.4401 C   0  0  0  0  0  0  0  0  0  0  0  0
  -28.6721  -19.0268   19.9135 C   0  0  0  0  0  0  0  0  0  0  0  0
  -22.5141  -27.0442   20.7812 C   0  0  0  0  0  0  0  0  0  0  0  0
  -29.0382  -21.2088   20.7054 C   0  0  0  0  0  0  0  0  0  0  0  0
  -28.4599  -23.2126   22.5583 C   0  0  0  0  0  0  0  0  0  0  0  0
  -30.0513  -21.7252   21.5132 C   0  0  0  0  0  0  0  0  0  0  0  0
  -26.6462  -15.3344   20.3126 C   0  0  0  0  0  0  0  0  0  0  0  0
  -26.1260  -13.2386   20.7274 C   0  0  0  0  0  0  0  0  0  0  0  0
  -28.4924  -13.8263   21.2780 C   0  0  0  0  0  0  0  0  0  0  0  0
  -27.7057  -28.3686   21.6513 C   0  0  0  0  0  0  0  0  0  0  0  0
  -26.6759  -31.2104   22.8287 C   0  0  0  0  0  0  0  0  0  0  0  0
  -24.0470  -33.2441   23.6027 C   0  0  0  0  0  0  0  0  0  0  0  0
  -20.1804  -13.9468   20.7426 C   0  0  0  0  0  0  0  0  0  0  0  0
  -32.0726  -26.4264   19.8580 C   0  0  0  0  0  0  0  0  0  0  0  0
  -26.1506  -29.1375   19.8220 C   0  0  0  0  0  0  0  0  0  0  0  0
  -24.9246  -29.4247   22.4977 C   0  0  0  0  0  0  0  0  0  0  0  0
  -31.6903  -27.5516   20.8162 C   0  0  0  0  0  0  0  0  0  0  0  0
  -22.1401  -12.3524   18.2337 C   0  0  0  0  0  0  0  0  0  0  0  0
  -30.6764  -27.0570   21.8429 C   0  0  0  0  0  0  0  0  0  0  0  0
  -23.5647  -12.8267   18.5261 C   0  0  0  0  0  0  0  0  0  0  0  0
  -19.1970  -22.9819   23.8951 C   0  0  0  0  0  0  0  0  0  0  0  0
  -21.1421  -22.0297   22.5950 C   0  0  0  0  0  0  0  0  0  0  0  0
  -21.1135  -13.4507   18.5021 C   0  0  0  0  0  0  0  0  0  0  0  0
  -22.6096  -14.5239   20.1403 C   0  0  0  0  0  0  0  0  0  0  0  0
  -18.7412  -23.7314   22.6483 C   0  0  0  0  0  0  0  0  0  0  0  0
  -20.6653  -22.7768   21.3553 C   0  0  0  0  0  0  0  0  0  0  0  0
  -29.3819  -26.5960   21.1623 C   0  0  1  0  0  0  0  0  0  0  0  0
  -26.9737  -29.5320   21.0444 C   0  0  1  0  0  0  0  0  0  0  0  0
  -23.6752  -13.4331   19.9379 C   0  0  2  0  0  0  0  0  0  0  0  0
  -20.0053  -21.7229   23.5719 C   0  0  0  0  0  0  0  0  0  0  0  0
  -23.5177  -35.4911   24.5868 C   0  0  0  0  0  0  0  0  0  0  0  0
  -27.2565  -30.1222   25.6196 C   0  0  0  0  0  0  0  0  0  0  0  0
  -25.8556  -31.9734   26.5570 C   0  0  0  0  0  0  0  0  0  0  0  0
  -27.9248  -32.5066   25.2697 C   0  0  0  0  0  0  0  0  0  0  0  0
  -22.7475  -34.1604   21.1065 C   0  0  0  0  0  0  0  0  0  0  0  0
  -19.3949  -14.4927   23.0326 C   0  0  0  0  0  0  0  0  0  0  0  0
  -19.8107  -19.3783   23.1938 C   0  0  0  0  0  0  0  0  0  0  0  0
  -19.5571  -24.8743   20.5888 C   0  0  0  0  0  0  0  0  0  0  0  0
  -18.5800  -15.7721   22.9965 C   0  0  0  0  0  0  0  0  0  0  0  0
  -18.7928  -18.2595   23.0766 C   0  0  0  0  0  0  0  0  0  0  0  0
  -20.7936  -25.5710   20.0562 C   0  0  0  0  0  0  0  0  0  1  0  0
  -25.8899  -31.6428   24.0429 C   0  0  1  0  0  0  0  0  0  0  0  0
  -23.7878  -34.7109   23.3096 C   0  0  2  0  0  0  0  0  0  0  0  0
  -26.7209  -31.5431   25.3532 C   0  0  0  0  0  0  0  0  0  0  0  0
  -25.3633  -15.2311   19.9553 N   0  0  0  0  0  0  0  0  0  0  0  0
  -25.0758  -13.9451   20.2192 N   0  0  0  0  0  0  0  0  0  0  0  0
  -26.1591  -30.1252   22.1069 N   0  0  0  0  0  0  0  0  0  0  0  0
  -21.2710  -13.9823   19.8580 N   0  0  0  0  0  0  0  0  0  0  0  0
  -26.0099  -11.9326   21.0486 N   0  0  0  0  0  0  0  0  0  0  0  0
  -29.4475  -14.8520   21.2855 N   0  0  0  0  0  0  0  0  0  0  0  0
  -28.5761  -27.7369   20.7836 N   0  0  0  0  0  0  0  0  0  0  0  0
  -25.3927  -32.9830   23.7512 N   0  0  0  0  0  0  0  0  0  0  0  0
  -20.4168  -14.4651   22.0100 N   0  0  0  0  0  0  0  0  0  0  0  0
  -19.1567  -20.6695   23.0636 N   0  0  0  0  0  0  0  0  0  0  0  0
  -19.9351  -24.0297   21.7746 N   0  3  0  0  0  0  0  0  0  0  0  0
  -22.6087  -34.8589   22.4103 N   0  3  0  0  0  0  0  0  0  0  0  0
  -19.4795  -16.9468   23.1579 N   0  3  0  0  0  0  0  0  0  0  0  0
  -28.8189  -12.6805   21.6704 O   0  0  0  0  0  0  0  0  0  0  0  0
  -27.4975  -28.0673   22.8208 O   0  0  0  0  0  0  0  0  0  0  0  0
  -27.7066  -31.8177   22.5277 O   0  0  0  0  0  0  0  0  0  0  0  0
  -23.1455  -32.4138   23.6947 O   0  0  0  0  0  0  0  0  0  0  0  0
  -19.0794  -13.4823   20.4281 O   0  0  0  0  0  0  0  0  0  0  0  0
  -29.3238  -20.2148   19.7846 O   0  0  0  0  0  0  0  0  0  0  0  0
  -21.3615  -26.3858   21.0809 O   0  0  0  0  0  0  0  0  0  1  0  0
  -28.1823  -24.1757   23.4468 F   0  0  0  0  0  0  0  0  0  0  0  0
  -31.3045  -21.2636   21.4030 F   0  0  0  0  0  0  0  0  0  0  0  0
  1  2  1  0  0  0  0
  1  5  2  0  0  0  0
  2  6  2  0  0  0  0
  3  8  2  0  0  0  0
  3 15  1  0  0  0  0
  4  9  1  0  0  0  0
  4 15  2  0  0  0  0
  5 17  1  0  0  0  0
  6 19  1  0  0  0  0
  7 10  2  0  0  0  0
  7 18  1  0  0  0  0
  8 21  1  0  0  0  0
  9 21  2  0  0  0  0
 10 22  1  0  0  0  0
 11 12  2  0  0  0  0
 11 23  1  0  0  0  0
 12 24  1  0  0  0  0
 13 20  1  0  0  0  0
 13 22  2  0  0  0  0
 14 24  2  0  0  0  0
 14 25  1  0  0  0  0
 15 26  1  0  0  0  0
 16 26  1  0  0  0  0
 16 27  2  0  0  0  0
 16 28  1  0  0  0  0
 17 19  2  0  0  0  0
 17 33  1  0  0  0  0
 18 20  2  0  0  0  0
 18 34  1  0  0  0  0
 19 46  1  0  0  0  0
 20 35  1  0  0  0  0
 21 82  1  0  0  0  0
 22 83  1  0  0  0  0
 23 25  2  0  0  0  0
 23 82  1  0  0  0  0
 24 84  1  0  0  0  0
 25 85  1  0  0  0  0
 26 64  2  0  0  0  0
 27 65  1  0  0  0  0
 27 68  1  0  0  0  0
 28 69  1  0  0  0  0
 28 77  2  0  0  0  0
 29 47  1  0  0  0  0
 29 70  1  0  0  0  0
 29 78  2  0  0  0  0
 30 61  1  0  0  0  0
 30 66  1  0  0  0  0
 30 79  2  0  0  0  0
 31 62  1  0  0  0  0
 31 71  1  0  0  0  0
 31 80  2  0  0  0  0
 32 67  1  0  0  0  0
 32 72  1  0  0  0  0
 32 81  2  0  0  0  0
 33 36  1  0  0  0  0
 34 47  1  0  0  0  0
 35 66  1  0  0  0  0
 36 38  1  0  0  0  0
 37 39  1  0  0  0  0
 37 42  1  0  0  0  0
 38 46  1  0  0  0  0
 39 48  1  0  0  0  0
 40 44  1  0  0  0  0
 40 49  1  0  0  0  0
 41 45  1  0  0  0  0
 41 49  1  0  0  0  0
 42 67  1  0  0  0  0
 43 48  1  0  0  0  0
 43 67  1  0  0  0  0
 44 74  1  0  0  0  0
 45 74  1  0  0  0  0
 46 70  1  0  0  0  0
 47 66  1  0  0  0  0
 48 65  1  0  0  0  0
 49 73  1  0  0  0  0
 50 62  1  0  0  0  0
 51 63  1  0  0  0  0
 52 63  1  0  0  0  0
 53 63  1  0  0  0  0
 54 75  1  0  0  0  0
 55 58  1  0  0  0  0
 55 72  1  0  0  0  0
 56 59  1  0  0  0  0
 56 73  1  0  0  0  0
 57 60  1  0  0  0  0
 57 74  1  0  0  0  0
 58 76  1  0  0  0  0
 59 76  1  0  0  0  0
 60 83  1  0  0  0  0
 61 63  1  0  0  0  0
 61 71  1  0  0  0  0
 62 75  1  0  0  0  0
 64 65  1  0  0  0  0
M  CHG  3  74   1  75   1  76   1
M  ISO  4  32 100  60 101  72 100  83 101
M  END
> <Batch ID>
0127

> <Smiles>
CNC(C)C(=O)NC(C(=O)N1Cc2cc([101O:1][101CH2:1]CN3CCC(NCCNCC[100NH:0][100C:0](=O)N4CCCC(n5nc(-c6ccc(Oc7ccc(F)cc7F)cc6)c(C(N)=O)c5N)C4)CC3)ccc2CC1C(=O)NC1CCCc2ccccc21)C(C)(C)C

> <Shape>
0.285

> <Color>
0.086

> <Negative vol penalty>
0.000

$$$$

  -OEChem-04052320403D

 88 97  0     1  0  0  0  0  0999 V2000
  -24.7713  -32.9217   19.4399 C   0  0  0  0  0  0  0  0  0  0  0  0
  -24.5061  -31.5721   19.6487 C   0  0  0  0  0  0  0  0  0  0  0  0
  -22.7032  -10.0304   20.1609 C   0  0  0  0  0  0  0  0  0  0  0  0
  -24.3040   -9.4190   21.8640 C   0  0  0  0  0  0  0  0  0  0  0  0
  -26.0865  -33.3557   19.2789 C   0  0  0  0  0  0  0  0  0  0  0  0
  -25.5559  -30.6554   19.6955 C   0  0  0  0  0  0  0  0  0  0  0  0
  -27.4833  -24.5323   22.8749 C   0  0  0  0  0  0  0  0  0  0  0  0
  -21.9934   -8.8549   20.4061 C   0  0  0  0  0  0  0  0  0  0  0  0
  -23.5942   -8.2436   22.1093 C   0  0  0  0  0  0  0  0  0  0  0  0
  -27.9491  -23.2561   22.5615 C   0  0  0  0  0  0  0  0  0  0  0  0
  -20.8002   -7.3241   23.7732 C   0  0  0  0  0  0  0  0  0  0  0  0
  -20.5691   -6.9739   25.1034 C   0  0  0  0  0  0  0  0  0  0  0  0
  -30.1869  -24.1316   22.3496 C   0  0  0  0  0  0  0  0  0  0  0  0
  -21.7722   -4.9058   24.7679 C   0  0  0  0  0  0  0  0  0  0  0  0
  -23.8585  -10.3124   20.8898 C   0  0  0  0  0  0  0  0  0  0  0  0
  -24.1200  -12.8466   20.7591 C   0  0  0  0  0  0  0  0  0  0  0  0
  -27.1537  -32.4453   19.3334 C   0  0  0  0  0  0  0  0  0  0  0  0
  -28.3655  -25.6215   22.9173 C   0  0  0  0  0  0  0  0  0  0  0  0
  -26.8865  -31.0775   19.5337 C   0  0  0  0  0  0  0  0  0  0  0  0
  -29.7302  -25.4201   22.6663 C   0  0  0  0  0  0  0  0  0  0  0  0
  -22.4389   -7.9616   21.3803 C   0  0  0  0  0  0  0  0  0  0  0  0
  -29.3006  -23.0561   22.2960 C   0  0  0  0  0  0  0  0  0  0  0  0
  -21.5172   -6.4651   22.9402 C   0  0  0  0  0  0  0  0  0  0  0  0
  -21.0552   -5.7648   25.6008 C   0  0  0  0  0  0  0  0  0  0  0  0
  -22.0032   -5.2560   23.4376 C   0  0  0  0  0  0  0  0  0  0  0  0
  -24.5925  -11.5262   20.6366 C   0  0  0  0  0  0  0  0  0  0  0  0
  -25.1928  -13.6292   20.4082 C   0  0  0  0  0  0  0  0  0  0  0  0
  -22.8269  -13.3232   21.1548 C   0  0  0  0  0  0  0  0  0  0  0  0
  -28.6356  -28.3532   21.3147 C   0  0  0  0  0  0  0  0  0  0  0  0
  -30.9734  -28.9433   23.4845 C   0  0  0  0  0  0  0  0  0  0  0  0
  -27.7567  -21.3057   18.0357 C   0  0  0  0  0  0  0  0  0  0  0  0
  -33.2656  -27.6977   25.6848 C   0  0  0  0  0  0  0  0  0  0  0  0
  -30.6369  -14.8275   20.6760 C   0  0  0  0  0  0  0  0  0  0  0  0
  -28.5549  -32.9549   19.1067 C   0  0  0  0  0  0  0  0  0  0  0  0
  -27.8517  -26.9870   23.2832 C   0  0  0  0  0  0  0  0  0  0  0  0
  -30.7218  -26.5526   22.7188 C   0  0  0  0  0  0  0  0  0  0  0  0
  -29.6385  -31.9724   19.5435 C   0  0  0  0  0  0  0  0  0  0  0  0
  -31.1048  -22.1939   15.6991 C   0  0  0  0  0  0  0  0  0  0  0  0
  -30.6325  -23.6052   16.0529 C   0  0  0  0  0  0  0  0  0  0  0  0
  -29.6154  -12.3933   18.2869 C   0  0  0  0  0  0  0  0  0  0  0  0
  -29.3234  -30.5693   19.0348 C   0  0  0  0  0  0  0  0  0  0  0  0
  -30.4151  -21.2562   16.6852 C   0  0  0  0  0  0  0  0  0  0  0  0
  -29.6670  -23.4465   17.2228 C   0  0  0  0  0  0  0  0  0  0  0  0
  -28.1815  -12.0554   18.6991 C   0  0  0  0  0  0  0  0  0  0  0  0
  -30.5057  -12.6509   19.5005 C   0  0  0  0  0  0  0  0  0  0  0  0
  -28.5594  -13.3277   20.8525 C   0  0  0  0  0  0  0  0  0  0  0  0
  -28.7783  -18.3310   20.8355 C   0  0  0  0  0  0  0  0  0  0  0  0
  -28.0002  -30.0562   19.6156 C   0  0  1  0  0  0  0  0  0  0  0  0
  -28.7537  -28.1157   22.7936 C   0  0  1  0  0  0  0  0  0  0  0  0
  -30.1037  -22.1441   17.8860 C   0  0  0  0  0  0  0  0  0  0  0  0
  -27.6102  -13.1145   19.6609 C   0  0  2  0  0  0  0  0  0  0  0  0
  -30.2926  -18.1046   20.9099 C   0  0  2  0  0  0  0  0  0  0  0  0
  -30.8220  -20.4253   20.3322 C   0  0  1  0  0  0  0  0  0  0  0  0
  -29.5578  -20.2762   19.4522 C   0  0  2  0  0  0  0  0  0  0  0  0
  -35.0582  -28.4238   27.2838 C   0  0  0  0  0  0  0  0  0  0  0  0
  -32.8404  -29.4981   21.1358 C   0  0  0  0  0  0  0  0  0  0  0  0
  -34.7741  -29.2764   22.7106 C   0  0  0  0  0  0  0  0  0  0  0  0
  -33.0847  -31.0786   23.0585 C   0  0  0  0  0  0  0  0  0  0  0  0
  -31.8568  -26.4938   27.9924 C   0  0  0  0  0  0  0  0  0  0  0  0
  -30.6132  -16.9863   21.9000 C   0  0  0  0  0  0  0  0  0  0  0  0
  -30.8924  -21.7307   21.1274 C   0  0  0  0  0  0  0  0  0  1  0  0
  -32.4583  -28.6799   23.5546 C   0  0  1  0  0  0  0  0  0  0  0  0
  -29.0480  -21.5576   18.8067 C   0  0  2  0  0  0  0  0  0  0  0  0
  -33.5884  -28.0688   27.1210 C   0  0  2  0  0  0  0  0  0  0  0  0
  -33.2706  -29.6120   22.6119 C   0  0  0  0  0  0  0  0  0  0  0  0
  -25.8663  -11.4692   20.2388 N   0  0  0  0  0  0  0  0  0  0  0  0
  -26.2033  -12.7636   20.1082 N   0  0  0  0  0  0  0  0  0  0  0  0
  -30.9782  -19.3310   21.3079 N   0  0  0  0  0  0  0  0  0  0  0  0
  -30.1696  -27.8701   23.0749 N   0  0  0  0  0  0  0  0  0  0  0  0
  -29.9080  -13.6661   20.3712 N   0  0  0  0  0  0  0  0  0  0  0  0
  -25.3610  -14.9663   20.3301 N   0  0  0  0  0  0  0  0  0  0  0  0
  -22.5924  -13.5679   22.5148 N   0  0  0  0  0  0  0  0  0  0  0  0
  -26.9098  -22.3934   18.0256 N   0  0  0  0  0  0  0  0  0  0  0  0
  -28.1847  -29.6163   20.9819 N   0  0  0  0  0  0  0  0  0  0  0  0
  -32.8258  -28.7867   24.9624 N   0  0  0  0  0  0  0  0  0  0  0  0
  -29.9946  -15.7412   21.5026 N   0  0  0  0  0  0  0  0  0  0  0  0
  -28.4629  -19.6923   20.2917 N   0  3  0  0  0  0  0  0  0  0  0  0
  -33.2757  -26.9321   28.0325 N   0  3  0  0  0  0  0  0  0  0  0  0
  -21.9016  -13.5104   20.3289 O   0  0  0  0  0  0  0  0  0  0  0  0
  -28.9329  -27.4573   20.5332 O   0  0  0  0  0  0  0  0  0  0  0  0
  -30.5420  -30.0581   23.7892 O   0  0  0  0  0  0  0  0  0  0  0  0
  -27.4958  -20.2427   17.4774 O   0  0  0  0  0  0  0  0  0  0  0  0
  -33.3945  -26.5567   25.2466 O   0  0  0  0  0  0  0  0  0  0  0  0
  -31.7736  -15.0372   20.2391 O   0  0  0  0  0  0  0  0  0  0  0  0
  -21.7464   -6.8146   21.6200 O   0  0  0  0  0  0  0  0  0  0  0  0
  -29.7578  -21.8117   21.9892 O   0  0  0  0  0  0  0  0  0  1  0  0
  -20.8346   -5.4293   26.8787 F   0  0  0  0  0  0  0  0  0  0  0  0
  -22.6937   -4.4272   22.6425 F   0  0  0  0  0  0  0  0  0  0  0  0
  1  2  1  0  0  0  0
  1  5  2  0  0  0  0
  2  6  2  0  0  0  0
  3  8  2  0  0  0  0
  3 15  1  0  0  0  0
  4  9  1  0  0  0  0
  4 15  2  0  0  0  0
  5 17  1  0  0  0  0
  6 19  1  0  0  0  0
  7 10  2  0  0  0  0
  7 18  1  0  0  0  0
  8 21  1  0  0  0  0
  9 21  2  0  0  0  0
 10 22  1  0  0  0  0
 11 12  2  0  0  0  0
 11 23  1  0  0  0  0
 12 24  1  0  0  0  0
 13 20  1  0  0  0  0
 13 22  2  0  0  0  0
 14 24  2  0  0  0  0
 14 25  1  0  0  0  0
 15 26  1  0  0  0  0
 16 26  1  0  0  0  0
 16 27  2  0  0  0  0
 16 28  1  0  0  0  0
 17 19  2  0  0  0  0
 17 34  1  0  0  0  0
 18 20  2  0  0  0  0
 18 35  1  0  0  0  0
 19 48  1  0  0  0  0
 20 36  1  0  0  0  0
 21 85  1  0  0  0  0
 22 86  1  0  0  0  0
 23 25  2  0  0  0  0
 23 85  1  0  0  0  0
 24 87  1  0  0  0  0
 25 88  1  0  0  0  0
 26 66  2  0  0  0  0
 27 67  1  0  0  0  0
 27 71  1  0  0  0  0
 28 72  1  0  0  0  0
 28 79  2  0  0  0  0
 29 49  1  0  0  0  0
 29 74  1  0  0  0  0
 29 80  2  0  0  0  0
 30 62  1  0  0  0  0
 30 69  1  0  0  0  0
 30 81  2  0  0  0  0
 31 63  1  0  0  0  0
 31 73  1  0  0  0  0
 31 82  2  0  0  0  0
 32 64  1  0  0  0  0
 32 75  1  0  0  0  0
 32 83  2  0  0  0  0
 33 70  1  0  0  0  0
 33 76  1  0  0  0  0
 33 84  2  0  0  0  0
 34 37  1  0  0  0  0
 35 49  1  0  0  0  0
 36 69  1  0  0  0  0
 37 41  1  0  0  0  0
 38 39  1  0  0  0  0
 38 42  1  0  0  0  0
 39 43  1  0  0  0  0
 40 44  1  0  0  0  0
 40 45  1  0  0  0  0
 41 48  1  0  0  0  0
 42 50  1  0  0  0  0
 43 50  1  0  0  0  0
 44 51  1  0  0  0  0
 45 70  1  0  0  0  0
 46 51  1  0  0  0  0
 46 70  1  0  0  0  0
 47 52  1  0  0  0  0
 47 77  1  0  0  0  0
 48 74  1  0  0  0  0
 49 69  1  0  0  0  0
 50 63  1  0  0  0  0
 51 67  1  0  0  0  0
 52 60  1  0  0  0  0
 52 68  1  0  0  0  0
 53 54  1  0  0  0  0
 53 61  1  0  0  0  0
 53 68  1  0  0  0  0
 54 63  1  0  0  0  0
 54 77  1  0  0  0  0
 55 64  1  0  0  0  0
 56 65  1  0  0  0  0
 57 65  1  0  0  0  0
 58 65  1  0  0  0  0
 59 78  1  0  0  0  0
 60 76  1  0  0  0  0
 61 86  1  0  0  0  0
 62 65  1  0  0  0  0
 62 75  1  0  0  0  0
 64 78  1  0  0  0  0
 66 67  1  0  0  0  0
M  CHG  2  77   1  78   1
M  ISO  4  33 100  61 101  76 100  86 101
M  END
> <Batch ID>
0127

> <Smiles>
CNC(C)C(=O)NC(C(=O)N1Cc2cc([101O:1][101CH2:1]C3NC(C[100NH:0][100C:0](=O)N4CCCC(n5nc(-c6ccc(Oc7ccc(F)cc7F)cc6)c(C(N)=O)c5N)C4)CNC3C(C(N)=O)C3CCCC3)ccc2CC1C(=O)NC1CCCc2ccccc21)C(C)(C)C

> <Shape>
0.272

> <Color>
0.164

> <Negative vol penalty>
0.000

$$$$

  -OEChem-04052320403D

 90 98  0     1  0  0  0  0  0999 V2000
  -26.2473   -8.9647   22.0008 C   0  0  0  0  0  0  0  0  0  0  0  0
  -26.4747  -10.2112   21.4264 C   0  0  0  0  0  0  0  0  0  0  0  0
  -20.2916  -28.5786   22.4404 C   0  0  0  0  0  0  0  0  0  0  0  0
  -21.5312  -26.5485   22.0171 C   0  0  0  0  0  0  0  0  0  0  0  0
  -24.9427   -8.5411   22.2506 C   0  0  0  0  0  0  0  0  0  0  0  0
  -25.3974  -11.0344   21.1004 C   0  0  0  0  0  0  0  0  0  0  0  0
  -26.1330  -15.8439   22.5049 C   0  0  0  0  0  0  0  0  0  0  0  0
  -27.4580  -24.5463   19.7287 C   0  0  0  0  0  0  0  0  0  0  0  0
  -19.3747  -28.2252   21.4505 C   0  0  0  0  0  0  0  0  0  0  0  0
  -20.6142  -26.1950   21.0272 C   0  0  0  0  0  0  0  0  0  0  0  0
  -26.9625  -16.6227   21.6993 C   0  0  0  0  0  0  0  0  0  0  0  0
  -27.2394  -23.2470   20.1863 C   0  0  0  0  0  0  0  0  0  0  0  0
  -17.5118  -24.8644   20.8685 C   0  0  0  0  0  0  0  0  0  0  0  0
  -17.0521  -23.5476   20.8535 C   0  0  0  0  0  0  0  0  0  0  0  0
  -25.0201  -17.6100   20.6641 C   0  0  0  0  0  0  0  0  0  0  0  0
  -29.2636  -22.5190   19.0864 C   0  0  0  0  0  0  0  0  0  0  0  0
  -17.9384  -23.2637   18.6239 C   0  0  0  0  0  0  0  0  0  0  0  0
  -21.3699  -27.7402   22.7237 C   0  0  0  0  0  0  0  0  0  0  0  0
  -22.2578  -27.7827   25.1148 C   0  0  0  0  0  0  0  0  0  0  0  0
  -23.8493   -9.3635   21.9365 C   0  0  0  0  0  0  0  0  0  0  0  0
  -24.7385  -15.9345   22.3883 C   0  0  0  0  0  0  0  0  0  0  0  0
  -24.0768  -10.6208   21.3451 C   0  0  0  0  0  0  0  0  0  0  0  0
  -24.1751  -16.8332   21.4712 C   0  0  0  0  0  0  0  0  0  0  0  0
  -28.5794  -24.8320   18.9498 C   0  0  0  0  0  0  0  0  0  0  0  0
  -29.4822  -23.8183   18.6287 C   0  0  0  0  0  0  0  0  0  0  0  0
  -19.5360  -27.0335   20.7439 C   0  0  0  0  0  0  0  0  0  0  0  0
  -26.4062  -17.5038   20.7766 C   0  0  0  0  0  0  0  0  0  0  0  0
  -28.1422  -22.2333   19.8652 C   0  0  0  0  0  0  0  0  0  0  0  0
  -18.1848  -25.3809   19.7612 C   0  0  0  0  0  0  0  0  0  0  0  0
  -17.2654  -22.7472   19.7311 C   0  0  0  0  0  0  0  0  0  0  0  0
  -18.3981  -24.5805   18.6389 C   0  0  0  0  0  0  0  0  0  0  0  0
  -22.3178  -28.1050   23.7458 C   0  0  0  0  0  0  0  0  0  0  0  0
  -23.3837  -28.3570   25.6524 C   0  0  0  0  0  0  0  0  0  0  0  0
  -21.2725  -27.0312   25.8361 C   0  0  0  0  0  0  0  0  0  0  0  0
  -22.4180  -13.9132   21.5925 C   0  0  0  0  0  0  0  0  0  0  0  0
  -20.5019  -16.3895   22.4405 C   0  0  0  0  0  0  0  0  0  0  0  0
  -20.1398  -19.7547   22.8782 C   0  0  0  0  0  0  0  0  0  0  0  0
  -28.6895  -29.8785   23.3321 C   0  0  0  0  0  0  0  0  0  0  0  0
  -22.4552   -8.8428   22.1815 C   0  0  0  0  0  0  0  0  0  0  0  0
  -23.8573  -15.1071   23.2834 C   0  0  0  0  0  0  0  0  0  0  0  0
  -22.6839  -16.9828   21.3214 C   0  0  0  0  0  0  0  0  0  0  0  0
  -21.3846   -9.9305   22.1514 C   0  0  0  0  0  0  0  0  0  0  0  0
  -26.3910  -32.0215   25.0058 C   0  0  0  0  0  0  0  0  0  0  0  0
  -21.5798  -10.8383   20.9411 C   0  0  0  0  0  0  0  0  0  0  0  0
  -25.0811  -31.2317   24.9962 C   0  0  0  0  0  0  0  0  0  0  0  0
  -27.1872  -31.8096   23.7200 C   0  0  0  0  0  0  0  0  0  0  0  0
  -26.1356  -29.6088   23.3674 C   0  0  0  0  0  0  0  0  0  0  0  0
  -22.9354  -11.5526   21.0002 C   0  0  1  0  0  0  0  0  0  0  0  0
  -22.4539  -14.9059   22.7199 C   0  0  1  0  0  0  0  0  0  0  0  0
  -25.3242  -29.7465   24.6670 C   0  0  2  0  0  0  0  0  0  0  0  0
  -18.4468  -21.4839   23.5421 C   0  0  0  0  0  0  0  0  0  0  0  0
  -31.4472  -23.3858   14.0241 C   0  0  0  0  0  0  0  0  0  0  0  0
  -32.0554  -25.4000   15.3782 C   0  0  0  0  0  0  0  0  0  0  0  0
  -19.1709  -16.1324   19.7070 C   0  0  0  0  0  0  0  0  0  0  0  0
  -18.1925  -18.4118   20.0465 C   0  0  0  0  0  0  0  0  0  0  0  0
  -17.5925  -16.5549   21.6003 C   0  0  0  0  0  0  0  0  0  0  0  0
  -21.7639  -20.6229   25.1949 C   0  0  0  0  0  0  0  0  0  0  0  0
  -28.7922  -26.2306   18.4714 C   0  0  0  0  0  0  0  0  0  0  0  0
  -30.6890  -24.1003   17.7954 C   0  0  0  0  0  0  0  0  0  0  0  0
  -30.5141  -23.6122   16.3460 C   0  0  0  0  0  0  0  0  0  0  0  0
  -30.0625  -27.8477   22.9454 C   0  0  0  0  0  0  0  0  0  0  0  0
  -29.8771  -26.9927   19.2322 C   0  0  0  0  0  0  0  0  0  0  0  0
  -30.5233  -27.8160   21.5001 C   0  0  0  0  0  0  0  0  0  0  0  0
  -28.4818  -18.6375   20.5263 C   0  0  0  0  0  0  0  0  0  1  0  0
  -28.8910  -19.9775   19.9463 C   0  0  0  0  0  0  0  0  0  0  0  0
  -19.9033  -17.5735   21.7202 C   0  0  1  0  0  0  0  0  0  0  0  0
  -19.5589  -20.5648   24.0230 C   0  0  2  0  0  0  0  0  0  0  0  0
  -31.7210  -23.9088   15.4365 C   0  0  0  0  0  0  0  0  0  0  0  0
  -18.7429  -17.1641   20.7697 C   0  0  0  0  0  0  0  0  0  0  0  0
  -23.3963  -28.8281   23.4331 N   0  0  0  0  0  0  0  0  0  0  0  0
  -24.0244  -28.9650   24.6132 N   0  0  0  0  0  0  0  0  0  0  0  0
  -21.8644  -16.1474   22.2147 N   0  0  0  0  0  0  0  0  0  0  0  0
  -27.3845  -30.3804   23.4663 N   0  0  0  0  0  0  0  0  0  0  0  0
  -23.8782  -28.3962   26.9080 N   0  0  0  0  0  0  0  0  0  0  0  0
  -20.1791  -26.5119   25.1296 N   0  0  0  0  0  0  0  0  0  0  0  0
  -22.8841  -12.6578   21.9332 N   0  0  0  0  0  0  0  0  0  0  0  0
  -19.5203  -18.5291   22.7538 N   0  0  0  0  0  0  0  0  0  0  0  0
  -28.7876  -28.5122   23.0993 N   0  0  0  0  0  0  0  0  0  0  0  0
  -20.6183  -21.4002   24.6562 N   0  3  0  0  0  0  0  0  0  0  0  0
  -29.5007  -27.1347   20.6604 N   0  3  0  0  0  0  0  0  0  0  0  0
  -21.3506  -26.8403   27.0734 O   0  0  0  0  0  0  0  0  0  0  0  0
  -21.9971  -14.2602   20.4952 O   0  0  0  0  0  0  0  0  0  0  0  0
  -19.7887  -15.7090   23.1821 O   0  0  0  0  0  0  0  0  0  0  0  0
  -21.0495  -20.1691   22.1632 O   0  0  0  0  0  0  0  0  0  0  0  0
  -29.6932  -30.5942   23.4189 O   0  0  0  0  0  0  0  0  0  0  0  0
  -18.6413  -26.6882   19.7780 O   0  0  0  0  0  0  0  0  0  0  0  0
  -27.2136  -18.2647   19.9886 O   0  0  0  0  0  0  0  0  0  1  0  0
  -27.9273  -20.9569   20.3143 O   0  0  0  0  0  0  0  0  0  0  0  0
  -16.8252  -21.4822   19.7174 F   0  0  0  0  0  0  0  0  0  0  0  0
  -19.0450  -25.0708   17.5726 F   0  0  0  0  0  0  0  0  0  0  0  0
  1  2  1  0  0  0  0
  1  5  2  0  0  0  0
  2  6  2  0  0  0  0
  3  9  2  0  0  0  0
  3 18  1  0  0  0  0
  4 10  1  0  0  0  0
  4 18  2  0  0  0  0
  5 20  1  0  0  0  0
  6 22  1  0  0  0  0
  7 11  2  0  0  0  0
  7 21  1  0  0  0  0
  8 12  2  0  0  0  0
  8 24  1  0  0  0  0
  9 26  1  0  0  0  0
 10 26  2  0  0  0  0
 11 27  1  0  0  0  0
 12 28  1  0  0  0  0
 13 14  2  0  0  0  0
 13 29  1  0  0  0  0
 14 30  1  0  0  0  0
 15 23  1  0  0  0  0
 15 27  2  0  0  0  0
 16 25  1  0  0  0  0
 16 28  2  0  0  0  0
 17 30  2  0  0  0  0
 17 31  1  0  0  0  0
 18 32  1  0  0  0  0
 19 32  1  0  0  0  0
 19 33  2  0  0  0  0
 19 34  1  0  0  0  0
 20 22  2  0  0  0  0
 20 39  1  0  0  0  0
 21 23  2  0  0  0  0
 21 40  1  0  0  0  0
 22 48  1  0  0  0  0
 23 41  1  0  0  0  0
 24 25  2  0  0  0  0
 24 58  1  0  0  0  0
 25 59  1  0  0  0  0
 26 86  1  0  0  0  0
 27 87  1  0  0  0  0
 28 88  1  0  0  0  0
 29 31  2  0  0  0  0
 29 86  1  0  0  0  0
 30 89  1  0  0  0  0
 31 90  1  0  0  0  0
 32 70  2  0  0  0  0
 33 71  1  0  0  0  0
 33 74  1  0  0  0  0
 34 75  1  0  0  0  0
 34 81  2  0  0  0  0
 35 49  1  0  0  0  0
 35 76  1  0  0  0  0
 35 82  2  0  0  0  0
 36 66  1  0  0  0  0
 36 72  1  0  0  0  0
 36 83  2  0  0  0  0
 37 67  1  0  0  0  0
 37 77  1  0  0  0  0
 37 84  2  0  0  0  0
 38 73  1  0  0  0  0
 38 78  1  0  0  0  0
 38 85  2  0  0  0  0
 39 42  1  0  0  0  0
 40 49  1  0  0  0  0
 41 72  1  0  0  0  0
 42 44  1  0  0  0  0
 43 45  1  0  0  0  0
 43 46  1  0  0  0  0
 44 48  1  0  0  0  0
 45 50  1  0  0  0  0
 46 73  1  0  0  0  0
 47 50  1  0  0  0  0
 47 73  1  0  0  0  0
 48 76  1  0  0  0  0
 49 72  1  0  0  0  0
 50 71  1  0  0  0  0
 51 67  1  0  0  0  0
 52 68  1  0  0  0  0
 53 68  1  0  0  0  0
 54 69  1  0  0  0  0
 55 69  1  0  0  0  0
 56 69  1  0  0  0  0
 57 79  1  0  0  0  0
 58 62  1  0  0  0  0
 59 60  1  0  0  0  0
 60 68  1  0  0  0  0
 61 63  1  0  0  0  0
 61 78  1  0  0  0  0
 62 80  1  0  0  0  0
 63 80  1  0  0  0  0
 64 65  1  0  0  0  0
 64 87  1  0  0  0  0
 65 88  1  0  0  0  0
 66 69  1  0  0  0  0
 66 77  1  0  0  0  0
 67 79  1  0  0  0  0
 70 71  1  0  0  0  0
M  CHG  2  79   1  80   1
M  ISO  4  38 100  64 101  78 100  87 101
M  END
> <Batch ID>
0127

> <Smiles>
CNC(C)C(=O)NC(C(=O)N1Cc2cc([101O:1][101CH2:1]COc3ccc(CCNCC[100NH:0][100C:0](=O)N4CCCC(n5nc(-c6ccc(Oc7ccc(F)cc7F)cc6)c(C(N)=O)c5N)C4)c(CCC(C)C)c3)ccc2CC1C(=O)NC1CCCc2ccccc21)C(C)(C)C

> <Shape>
0.212

> <Color>
0.050

> <Negative vol penalty>
0.000

$$$$

  -OEChem-04052320403D

 84 92  0     1  0  0  0  0  0999 V2000
  -29.8938  -11.0049   16.2999 C   0  0  0  0  0  0  0  0  0  0  0  0
  -28.8524  -11.8149   15.8585 C   0  0  0  0  0  0  0  0  0  0  0  0
  -30.5169  -24.6467   18.1707 C   0  0  0  0  0  0  0  0  0  0  0  0
  -28.2606  -24.9057   17.3466 C   0  0  0  0  0  0  0  0  0  0  0  0
  -30.2882  -11.0452   17.6366 C   0  0  0  0  0  0  0  0  0  0  0  0
  -28.2041  -12.6649   16.7538 C   0  0  0  0  0  0  0  0  0  0  0  0
  -24.9634  -19.0469   17.0431 C   0  0  0  0  0  0  0  0  0  0  0  0
  -30.6756  -23.5096   17.3787 C   0  0  0  0  0  0  0  0  0  0  0  0
  -28.4194  -23.7686   16.5545 C   0  0  0  0  0  0  0  0  0  0  0  0
  -23.7675  -19.6297   17.4601 C   0  0  0  0  0  0  0  0  0  0  0  0
  -31.3007  -22.8030   14.1317 C   0  0  0  0  0  0  0  0  0  0  0  0
  -32.4852  -22.6789   13.4056 C   0  0  0  0  0  0  0  0  0  0  0  0
  -24.5867  -19.6732   19.7287 C   0  0  0  0  0  0  0  0  0  0  0  0
  -32.9847  -20.6228   14.5718 C   0  0  0  0  0  0  0  0  0  0  0  0
  -29.3093  -25.3448   18.1547 C   0  0  0  0  0  0  0  0  0  0  0  0
  -29.9006  -27.7054   18.9198 C   0  0  0  0  0  0  0  0  0  0  0  0
  -29.6508  -11.9032   18.5466 C   0  0  0  0  0  0  0  0  0  0  0  0
  -25.9774  -18.7624   17.9690 C   0  0  0  0  0  0  0  0  0  0  0  0
  -28.5895  -12.7157   18.1042 C   0  0  0  0  0  0  0  0  0  0  0  0
  -25.7956  -19.0892   19.3204 C   0  0  0  0  0  0  0  0  0  0  0  0
  -29.6269  -23.0705   16.5706 C   0  0  0  0  0  0  0  0  0  0  0  0
  -23.5778  -19.9403   18.8035 C   0  0  0  0  0  0  0  0  0  0  0  0
  -30.9583  -21.8369   15.0779 C   0  0  0  0  0  0  0  0  0  0  0  0
  -33.3272  -21.5888   13.6256 C   0  0  0  0  0  0  0  0  0  0  0  0
  -31.8003  -20.7469   15.2979 C   0  0  0  0  0  0  0  0  0  0  0  0
  -29.1445  -26.5192   18.9731 C   0  0  0  0  0  0  0  0  0  0  0  0
  -29.3529  -28.5057   19.8924 C   0  0  0  0  0  0  0  0  0  0  0  0
  -30.9998  -28.0529   18.0672 C   0  0  0  0  0  0  0  0  0  0  0  0
  -27.4250  -16.1145   18.9673 C   0  0  0  0  0  0  0  0  0  0  0  0
  -29.2985  -18.2135   20.5818 C   0  0  0  0  0  0  0  0  0  0  0  0
  -21.3851  -22.4247   20.2767 C   0  0  0  0  0  0  0  0  0  0  0  0
  -28.8265  -21.2489   22.4741 C   0  0  0  0  0  0  0  0  0  0  0  0
  -23.9310  -28.7161   22.4240 C   0  0  0  0  0  0  0  0  0  0  0  0
  -30.0809  -11.8773   19.9920 C   0  0  0  0  0  0  0  0  0  0  0  0
  -27.2721  -18.1582   17.4989 C   0  0  0  0  0  0  0  0  0  0  0  0
  -26.8611  -18.8226   20.3510 C   0  0  0  0  0  0  0  0  0  0  0  0
  -29.5906  -13.0795   20.7950 C   0  0  0  0  0  0  0  0  0  0  0  0
  -27.0508  -28.2673   24.0798 C   0  0  0  0  0  0  0  0  0  0  0  0
  -18.8549  -27.9924   23.2408 C   0  0  0  0  0  0  0  0  0  0  0  0
  -28.1131  -13.3393   20.5187 C   0  0  0  0  0  0  0  0  0  0  0  0
  -28.0094  -27.8754   22.9540 C   0  0  0  0  0  0  0  0  0  0  0  0
  -19.3047  -26.5669   22.9940 C   0  0  0  0  0  0  0  0  0  0  0  0
  -25.6580  -27.6789   23.8655 C   0  0  0  0  0  0  0  0  0  0  0  0
  -26.0123  -27.5878   21.4283 C   0  0  0  0  0  0  0  0  0  0  0  0
  -20.1088  -28.8084   22.9913 C   0  0  0  0  0  0  0  0  0  0  0  0
  -27.8781  -13.6691   19.0397 C   0  0  1  0  0  0  0  0  0  0  0  0
  -28.0342  -17.4404   18.6087 C   0  0  1  0  0  0  0  0  0  0  0  0
  -27.4146  -28.2038   21.5714 C   0  0  2  0  0  0  0  0  0  0  0  0
  -20.1576  -26.6995   21.7408 C   0  0  2  0  0  0  0  0  0  0  0  0
  -30.3892  -23.1657   22.8999 C   0  0  0  0  0  0  0  0  0  0  0  0
  -29.9973  -16.6984   23.1364 C   0  0  0  0  0  0  0  0  0  0  0  0
  -30.1224  -18.8987   24.3243 C   0  0  0  0  0  0  0  0  0  0  0  0
  -31.6853  -18.4084   22.4429 C   0  0  0  0  0  0  0  0  0  0  0  0
  -26.8840  -23.2179   21.4211 C   0  0  0  0  0  0  0  0  0  0  0  0
  -22.4734  -21.3749   20.3456 C   0  0  0  0  0  0  0  0  0  1  0  0
  -21.1580  -25.5721   21.5638 C   0  0  0  0  0  0  0  0  0  0  0  0
  -22.2966  -29.7234   20.8513 C   0  0  0  0  0  0  0  0  0  0  0  0
  -21.1178  -28.7842   20.6762 C   0  0  0  0  0  0  0  0  0  0  0  0
  -29.2487  -18.8625   21.9439 C   0  0  1  0  0  0  0  0  0  0  0  0
  -29.2318  -22.6515   22.0580 C   0  0  2  0  0  0  0  0  0  0  0  0
  -30.2397  -18.2093   22.9482 C   0  0  0  0  0  0  0  0  0  0  0  0
  -28.1893  -26.5580   19.9059 N   0  0  0  0  0  0  0  0  0  0  0  0
  -28.3416  -27.7784   20.4478 N   0  0  0  0  0  0  0  0  0  0  0  0
  -28.1069  -18.2248   19.8430 N   0  0  0  0  0  0  0  0  0  0  0  0
  -25.1505  -28.0282   22.5365 N   0  0  0  0  0  0  0  0  0  0  0  0
  -29.6426  -29.7535   20.3183 N   0  0  0  0  0  0  0  0  0  0  0  0
  -30.7246  -28.6797   16.8442 N   0  0  0  0  0  0  0  0  0  0  0  0
  -28.2630  -15.0357   18.7592 N   0  0  0  0  0  0  0  0  0  0  0  0
  -29.4720  -20.2876   21.7254 N   0  0  0  0  0  0  0  0  0  0  0  0
  -21.4181  -23.2625   21.3785 N   0  0  0  0  0  0  0  0  0  0  0  0
  -23.5256  -29.0140   21.1288 N   0  0  0  0  0  0  0  0  0  0  0  0
  -20.4863  -24.2825   21.4760 N   0  0  0  0  0  0  0  0  0  0  0  0
  -20.8831  -28.0232   21.9452 N   0  3  1  0  0  0  0  0  0  0  0  0
  -28.0844  -23.5897   22.2134 N   0  3  0  0  0  0  0  0  0  0  0  0
  -32.1896  -27.7998   18.3733 O   0  0  0  0  0  0  0  0  0  0  0  0
  -26.2800  -16.0735   19.4021 O   0  0  0  0  0  0  0  0  0  0  0  0
  -30.3576  -17.7212   20.1848 O   0  0  0  0  0  0  0  0  0  0  0  0
  -20.5879  -22.4945   19.3447 O   0  0  0  0  0  0  0  0  0  0  0  0
  -28.0209  -21.0282   23.3756 O   0  0  0  0  0  0  0  0  0  0  0  0
  -23.2562  -29.0454   23.4054 O   0  0  0  0  0  0  0  0  0  0  0  0
  -29.7816  -21.9611   15.7974 O   0  0  0  0  0  0  0  0  0  0  0  0
  -22.4112  -20.5086   19.2134 O   0  0  0  0  0  0  0  0  0  1  0  0
  -34.4639  -21.4691   12.9272 F   0  0  0  0  0  0  0  0  0  0  0  0
  -31.4760  -19.8150   16.2047 F   0  0  0  0  0  0  0  0  0  0  0  0
  1  2  1  0  0  0  0
  1  5  2  0  0  0  0
  2  6  2  0  0  0  0
  3  8  2  0  0  0  0
  3 15  1  0  0  0  0
  4  9  1  0  0  0  0
  4 15  2  0  0  0  0
  5 17  1  0  0  0  0
  6 19  1  0  0  0  0
  7 10  2  0  0  0  0
  7 18  1  0  0  0  0
  8 21  1  0  0  0  0
  9 21  2  0  0  0  0
 10 22  1  0  0  0  0
 11 12  2  0  0  0  0
 11 23  1  0  0  0  0
 12 24  1  0  0  0  0
 13 20  1  0  0  0  0
 13 22  2  0  0  0  0
 14 24  2  0  0  0  0
 14 25  1  0  0  0  0
 15 26  1  0  0  0  0
 16 26  1  0  0  0  0
 16 27  2  0  0  0  0
 16 28  1  0  0  0  0
 17 19  2  0  0  0  0
 17 34  1  0  0  0  0
 18 20  2  0  0  0  0
 18 35  1  0  0  0  0
 19 46  1  0  0  0  0
 20 36  1  0  0  0  0
 21 81  1  0  0  0  0
 22 82  1  0  0  0  0
 23 25  2  0  0  0  0
 23 81  1  0  0  0  0
 24 83  1  0  0  0  0
 25 84  1  0  0  0  0
 26 62  2  0  0  0  0
 27 63  1  0  0  0  0
 27 66  1  0  0  0  0
 28 67  1  0  0  0  0
 28 75  2  0  0  0  0
 29 47  1  0  0  0  0
 29 68  1  0  0  0  0
 29 76  2  0  0  0  0
 30 59  1  0  0  0  0
 30 64  1  0  0  0  0
 30 77  2  0  0  0  0
 31 55  1  0  0  0  0
 31 70  1  0  0  0  0
 31 78  2  0  0  0  0
 32 60  1  0  0  0  0
 32 69  1  0  0  0  0
 32 79  2  0  0  0  0
 33 65  1  0  0  0  0
 33 71  1  0  0  0  0
 33 80  2  0  0  0  0
 34 37  1  0  0  0  0
 35 47  1  0  0  0  0
 36 64  1  0  0  0  0
 37 40  1  0  0  0  0
 38 41  1  0  0  0  0
 38 43  1  0  0  0  0
 39 42  1  0  0  0  0
 39 45  1  0  0  0  0
 40 46  1  0  0  0  0
 41 48  1  0  0  0  0
 42 49  1  0  0  0  0
 43 65  1  0  0  0  0
 44 48  1  0  0  0  0
 44 65  1  0  0  0  0
 45 73  1  0  0  0  0
 46 68  1  0  0  0  0
 47 64  1  0  0  0  0
 48 63  1  0  0  0  0
 49 56  1  0  0  0  0
 49 73  1  0  0  0  0
 50 60  1  0  0  0  0
 51 61  1  0  0  0  0
 52 61  1  0  0  0  0
 53 61  1  0  0  0  0
 54 74  1  0  0  0  0
 55 82  1  0  0  0  0
 56 72  1  0  0  0  0
 57 58  1  0  0  0  0
 57 71  1  0  0  0  0
 58 73  1  0  0  0  0
 59 61  1  0  0  0  0
 59 69  1  0  0  0  0
 60 74  1  0  0  0  0
 62 63  1  0  0  0  0
 70 72  1  0  0  0  0
M  CHG  2  73   1  74   1
M  ISO  4  33 100  55 101  71 100  82 101
M  END
> <Batch ID>
0127

> <Smiles>
CNC(C)C(=O)NC(C(=O)N1Cc2cc([101O:1][101CH2:1]C(=O)NNCC3CCCN3CC[100NH:0][100C:0](=O)N3CCCC(n4nc(-c5ccc(Oc6ccc(F)cc6F)cc5)c(C(N)=O)c4N)C3)ccc2CC1C(=O)NC1CCCc2ccccc21)C(C)(C)C

> <Shape>
0.219

> <Color>
0.087

> <Negative vol penalty>
0.000

$$$$

  -OEChem-04052320403D

 89 98  0     1  0  0  0  0  0999 V2000
  -28.7437  -38.9455   25.7719 C   0  0  0  0  0  0  0  0  0  0  0  0
  -29.5480  -37.9565   25.2148 C   0  0  0  0  0  0  0  0  0  0  0  0
  -24.3988   -9.5507   21.3039 C   0  0  0  0  0  0  0  0  0  0  0  0
  -24.8764  -10.5178   23.4657 C   0  0  0  0  0  0  0  0  0  0  0  0
  -27.3764  -38.7236   25.9300 C   0  0  0  0  0  0  0  0  0  0  0  0
  -28.9854  -36.7443   24.8165 C   0  0  0  0  0  0  0  0  0  0  0  0
  -29.7120  -31.6083   19.8758 C   0  0  0  0  0  0  0  0  0  0  0  0
  -29.8704  -25.2708   20.5870 C   0  0  0  0  0  0  0  0  0  0  0  0
  -29.8038  -23.8817   20.4792 C   0  0  0  0  0  0  0  0  0  0  0  0
  -24.0693   -8.3421   21.9173 C   0  0  0  0  0  0  0  0  0  0  0  0
  -24.5469   -9.3092   24.0792 C   0  0  0  0  0  0  0  0  0  0  0  0
  -29.8448  -30.2244   19.7724 C   0  0  0  0  0  0  0  0  0  0  0  0
  -21.4364   -7.0320   23.5859 C   0  0  0  0  0  0  0  0  0  0  0  0
  -20.2786   -6.3823   23.1581 C   0  0  0  0  0  0  0  0  0  0  0  0
  -27.4576  -29.9827   20.0210 C   0  0  0  0  0  0  0  0  0  0  0  0
  -30.2439  -25.4377   18.2058 C   0  0  0  0  0  0  0  0  0  0  0  0
  -21.5945   -4.4610   22.5146 C   0  0  0  0  0  0  0  0  0  0  0  0
  -24.8024  -10.6385   22.0780 C   0  0  0  0  0  0  0  0  0  0  0  0
  -24.2771  -12.9588   21.1570 C   0  0  0  0  0  0  0  0  0  0  0  0
  -26.7952  -37.5117   25.5246 C   0  0  0  0  0  0  0  0  0  0  0  0
  -28.4500  -32.1902   20.0638 C   0  0  0  0  0  0  0  0  0  0  0  0
  -27.6093  -36.5054   24.9706 C   0  0  0  0  0  0  0  0  0  0  0  0
  -27.3111  -31.3744   20.1239 C   0  0  0  0  0  0  0  0  0  0  0  0
  -30.0904  -26.0488   19.4503 C   0  0  0  0  0  0  0  0  0  0  0  0
  -29.9573  -23.2706   19.2347 C   0  0  0  0  0  0  0  0  0  0  0  0
  -30.1774  -24.0486   18.0980 C   0  0  0  0  0  0  0  0  0  0  0  0
  -24.1434   -8.2214   23.3050 C   0  0  0  0  0  0  0  0  0  0  0  0
  -28.7179  -29.4111   19.8479 C   0  0  0  0  0  0  0  0  0  0  0  0
  -22.6733   -6.3962   23.4780 C   0  0  0  0  0  0  0  0  0  0  0  0
  -20.3577   -5.0968   22.6225 C   0  0  0  0  0  0  0  0  0  0  0  0
  -22.7523   -5.1107   22.9424 C   0  0  0  0  0  0  0  0  0  0  0  0
  -25.1434  -11.8871   21.4449 C   0  0  0  0  0  0  0  0  0  0  0  0
  -25.0807  -13.8990   20.5598 C   0  0  0  0  0  0  0  0  0  0  0  0
  -22.8717  -13.0925   21.4073 C   0  0  0  0  0  0  0  0  0  0  0  0
  -26.5640  -22.6615   19.7141 C   0  0  0  0  0  0  0  0  0  0  0  0
  -27.1112  -33.9564   22.3423 C   0  0  0  0  0  0  0  0  0  0  0  0
  -24.6582  -34.1277   20.2267 C   0  0  0  0  0  0  0  0  0  0  0  0
  -23.0245  -32.7477   17.5671 C   0  0  0  0  0  0  0  0  0  0  0  0
  -29.8446  -16.7978   20.3410 C   0  0  0  0  0  0  0  0  0  0  0  0
  -25.3205  -37.2996   25.7591 C   0  0  0  0  0  0  0  0  0  0  0  0
  -28.3205  -33.6864   20.1467 C   0  0  0  0  0  0  0  0  0  0  0  0
  -25.9314  -31.9509   20.3047 C   0  0  0  0  0  0  0  0  0  0  0  0
  -24.7396  -36.1313   24.9667 C   0  0  0  0  0  0  0  0  0  0  0  0
  -29.8300  -13.5640   18.8514 C   0  0  0  0  0  0  0  0  0  0  0  0
  -25.6407  -34.9061   25.0842 C   0  0  0  0  0  0  0  0  0  0  0  0
  -26.5947  -20.5340   18.3906 C   0  0  0  0  0  0  0  0  0  0  0  0
  -28.5418  -12.9262   19.3744 C   0  0  0  0  0  0  0  0  0  0  0  0
  -27.0043  -19.4505   19.3707 C   0  0  0  0  0  0  0  0  0  0  0  0
  -30.4920  -14.4464   19.9074 C   0  0  0  0  0  0  0  0  0  0  0  0
  -28.3258  -14.8394   21.0151 C   0  0  0  0  0  0  0  0  0  0  0  0
  -27.0319  -35.1868   24.5035 C   0  0  1  0  0  0  0  0  0  0  0  0
  -27.3740  -21.7664   18.8332 C   0  0  2  0  0  0  0  0  0  0  0  0
  -27.0453  -34.1376   20.8522 C   0  0  1  0  0  0  0  0  0  0  0  0
  -27.5924  -13.9848   19.9672 C   0  0  2  0  0  0  0  0  0  0  0  0
  -28.4913  -19.7062   19.5561 C   0  0  2  0  0  0  0  0  0  0  0  0
  -30.3450  -23.4164   16.7553 C   0  0  0  0  0  0  0  0  0  0  0  0
  -25.8348  -23.7931   19.0418 C   0  0  0  0  0  0  0  0  0  0  0  0
  -21.0301  -33.0952   16.0841 C   0  0  0  0  0  0  0  0  0  0  0  0
  -22.8289  -33.1365   22.4586 C   0  0  0  0  0  0  0  0  0  0  0  0
  -21.1102  -32.6030   20.7180 C   0  0  0  0  0  0  0  0  0  0  0  0
  -21.8595  -34.9594   21.0473 C   0  0  0  0  0  0  0  0  0  0  0  0
  -24.7165  -32.9773   15.1499 C   0  0  0  0  0  0  0  0  0  0  0  0
  -29.8833  -21.7816   19.1443 C   0  0  0  0  0  0  0  0  0  0  0  0
  -30.1625  -27.5430   19.5666 C   0  0  0  0  0  0  0  0  0  1  0  0
  -29.0519  -19.0983   20.8292 C   0  0  0  0  0  0  0  0  0  0  0  0
  -23.4240  -33.3029   19.9518 C   0  0  1  0  0  0  0  0  0  0  0  0
  -22.5169  -33.3545   16.2715 C   0  0  2  0  0  0  0  0  0  0  0  0
  -22.3317  -33.4892   21.0425 C   0  0  0  0  0  0  0  0  0  0  0  0
  -26.4010  -12.1234   21.0618 N   0  0  0  0  0  0  0  0  0  0  0  0
  -26.3307  -13.3544   20.5271 N   0  0  0  0  0  0  0  0  0  0  0  0
  -25.8574  -33.4190   20.3868 N   0  0  0  0  0  0  0  0  0  0  0  0
  -29.5389  -15.4296   20.4278 N   0  0  0  0  0  0  0  0  0  0  0  0
  -24.8329  -15.1302   20.0645 N   0  0  0  0  0  0  0  0  0  0  0  0
  -22.2000  -12.0314   22.0296 N   0  0  0  0  0  0  0  0  0  0  0  0
  -26.9964  -35.1331   23.0578 N   0  0  0  0  0  0  0  0  0  0  0  0
  -22.9894  -33.6554   18.6045 N   0  0  0  0  0  0  0  0  0  0  0  0
  -28.8843  -17.6623   20.8521 N   0  0  0  0  0  0  0  0  0  0  0  0
  -28.5715  -21.2237   19.6081 N   0  3  1  0  0  0  0  0  0  0  0  0
  -23.2454  -32.7749   15.1078 N   0  3  0  0  0  0  0  0  0  0  0  0
  -22.2273  -14.1157   21.0736 O   0  0  0  0  0  0  0  0  0  0  0  0
  -26.4951  -22.4808   20.9288 O   0  0  0  0  0  0  0  0  0  0  0  0
  -27.2541  -32.8322   22.8086 O   0  0  0  0  0  0  0  0  0  0  0  0
  -24.5631  -35.3559   20.2897 O   0  0  0  0  0  0  0  0  0  0  0  0
  -23.4098  -31.5837   17.6514 O   0  0  0  0  0  0  0  0  0  0  0  0
  -30.8930  -17.2181   19.8399 O   0  0  0  0  0  0  0  0  0  0  0  0
  -23.8217   -7.0422   23.9040 O   0  0  0  0  0  0  0  0  0  0  0  0
  -28.8448  -28.0599   19.7479 O   0  0  0  0  0  0  0  0  0  1  0  0
  -19.2456   -4.4724   22.2131 F   0  0  0  0  0  0  0  0  0  0  0  0
  -23.9376   -4.4944   22.8374 F   0  0  0  0  0  0  0  0  0  0  0  0
  1  2  1  0  0  0  0
  1  5  2  0  0  0  0
  2  6  2  0  0  0  0
  3 10  2  0  0  0  0
  3 18  1  0  0  0  0
  4 11  1  0  0  0  0
  4 18  2  0  0  0  0
  5 20  1  0  0  0  0
  6 22  1  0  0  0  0
  7 12  2  0  0  0  0
  7 21  1  0  0  0  0
  8  9  2  0  0  0  0
  8 24  1  0  0  0  0
  9 25  1  0  0  0  0
 10 27  1  0  0  0  0
 11 27  2  0  0  0  0
 12 28  1  0  0  0  0
 13 14  2  0  0  0  0
 13 29  1  0  0  0  0
 14 30  1  0  0  0  0
 15 23  1  0  0  0  0
 15 28  2  0  0  0  0
 16 24  2  0  0  0  0
 16 26  1  0  0  0  0
 17 30  2  0  0  0  0
 17 31  1  0  0  0  0
 18 32  1  0  0  0  0
 19 32  1  0  0  0  0
 19 33  2  0  0  0  0
 19 34  1  0  0  0  0
 20 22  2  0  0  0  0
 20 40  1  0  0  0  0
 21 23  2  0  0  0  0
 21 41  1  0  0  0  0
 22 51  1  0  0  0  0
 23 42  1  0  0  0  0
 24 64  1  0  0  0  0
 25 26  2  0  0  0  0
 25 63  1  0  0  0  0
 26 56  1  0  0  0  0
 27 86  1  0  0  0  0
 28 87  1  0  0  0  0
 29 31  2  0  0  0  0
 29 86  1  0  0  0  0
 30 88  1  0  0  0  0
 31 89  1  0  0  0  0
 32 69  2  0  0  0  0
 33 70  1  0  0  0  0
 33 73  1  0  0  0  0
 34 74  1  0  0  0  0
 34 80  2  0  0  0  0
 35 52  1  0  0  0  0
 35 57  1  0  0  0  0
 35 81  2  0  0  0  0
 36 53  1  0  0  0  0
 36 75  1  0  0  0  0
 36 82  2  0  0  0  0
 37 66  1  0  0  0  0
 37 71  1  0  0  0  0
 37 83  2  0  0  0  0
 38 67  1  0  0  0  0
 38 76  1  0  0  0  0
 38 84  2  0  0  0  0
 39 72  1  0  0  0  0
 39 77  1  0  0  0  0
 39 85  2  0  0  0  0
 40 43  1  0  0  0  0
 41 53  1  0  0  0  0
 42 71  1  0  0  0  0
 43 45  1  0  0  0  0
 44 47  1  0  0  0  0
 44 49  1  0  0  0  0
 45 51  1  0  0  0  0
 46 48  1  0  0  0  0
 46 52  1  0  0  0  0
 47 54  1  0  0  0  0
 48 55  1  0  0  0  0
 49 72  1  0  0  0  0
 50 54  1  0  0  0  0
 50 72  1  0  0  0  0
 51 75  1  0  0  0  0
 52 78  1  0  0  0  0
 53 71  1  0  0  0  0
 54 70  1  0  0  0  0
 55 65  1  0  0  0  0
 55 78  1  0  0  0  0
 58 67  1  0  0  0  0
 59 68  1  0  0  0  0
 60 68  1  0  0  0  0
 61 68  1  0  0  0  0
 62 79  1  0  0  0  0
 63 78  1  0  0  0  0
 64 87  1  0  0  0  0
 65 77  1  0  0  0  0
 66 68  1  0  0  0  0
 66 76  1  0  0  0  0
 67 79  1  0  0  0  0
 69 70  1  0  0  0  0
M  CHG  2  78   1  79   1
M  ISO  4  39 100  64 101  77 100  87 101
M  END
> <Batch ID>
0127

> <Smiles>
CNC(C)C(=O)NC(C(=O)N1Cc2cc([101O:1][101CH2:1]c3ccc(CN4C(C[100NH:0][100C:0](=O)N5CCCC(n6nc(-c7ccc(Oc8ccc(F)cc8F)cc7)c(C(N)=O)c6N)C5)CCC4C(C)=O)c(C)c3)ccc2CC1C(=O)NC1CCCc2ccccc21)C(C)(C)C

> <Shape>
0.290

> <Color>
0.100

> <Negative vol penalty>
0.000

$$$$

  -OEChem-04052320403D

 83 92  0     1  0  0  0  0  0999 V2000
  -28.4302  -33.4732   24.6053 C   0  0  0  0  0  0  0  0  0  0  0  0
  -29.2141  -32.4100   25.0416 C   0  0  0  0  0  0  0  0  0  0  0  0
  -23.2061   -9.8425   19.9543 C   0  0  0  0  0  0  0  0  0  0  0  0
  -23.9152   -9.9287   22.2623 C   0  0  0  0  0  0  0  0  0  0  0  0
  -27.4667  -33.2686   23.6185 C   0  0  0  0  0  0  0  0  0  0  0  0
  -29.0343  -31.1411   24.4921 C   0  0  0  0  0  0  0  0  0  0  0  0
  -32.6967  -25.2256   22.7862 C   0  0  0  0  0  0  0  0  0  0  0  0
  -22.5180   -8.6564   20.2100 C   0  0  0  0  0  0  0  0  0  0  0  0
  -23.2271   -8.7426   22.5180 C   0  0  0  0  0  0  0  0  0  0  0  0
  -32.6697  -23.8464   22.9880 C   0  0  0  0  0  0  0  0  0  0  0  0
  -20.0327   -7.7872   23.0687 C   0  0  0  0  0  0  0  0  0  0  0  0
  -19.2539   -7.7278   24.2243 C   0  0  0  0  0  0  0  0  0  0  0  0
  -29.9906  -18.9065   22.6970 C   0  0  0  0  0  0  0  0  0  0  0  0
  -31.0293  -23.6278   21.2329 C   0  0  0  0  0  0  0  0  0  0  0  0
  -20.5784   -5.8710   25.0214 C   0  0  0  0  0  0  0  0  0  0  0  0
  -23.9048  -10.4786   20.9805 C   0  0  0  0  0  0  0  0  0  0  0  0
  -24.1172  -13.0158   20.8214 C   0  0  0  0  0  0  0  0  0  0  0  0
  -27.2816  -31.9986   23.0497 C   0  0  0  0  0  0  0  0  0  0  0  0
  -31.8808  -25.8186   21.8120 C   0  0  0  0  0  0  0  0  0  0  0  0
  -28.0665  -30.9189   23.4977 C   0  0  0  0  0  0  0  0  0  0  0  0
  -30.0795  -17.5648   23.0510 C   0  0  0  0  0  0  0  0  0  0  0  0
  -31.0497  -25.0145   21.0190 C   0  0  0  0  0  0  0  0  0  0  0  0
  -31.0151  -19.4958   21.9646 C   0  0  0  0  0  0  0  0  0  0  0  0
  -22.5285   -8.1065   21.4919 C   0  0  0  0  0  0  0  0  0  0  0  0
  -31.8338  -23.0476   22.2133 C   0  0  0  0  0  0  0  0  0  0  0  0
  -21.0843   -6.8884   22.8893 C   0  0  0  0  0  0  0  0  0  0  0  0
  -19.5267   -6.7697   25.2007 C   0  0  0  0  0  0  0  0  0  0  0  0
  -21.3571   -5.9304   23.8657 C   0  0  0  0  0  0  0  0  0  0  0  0
  -24.6162  -11.7035   20.7169 C   0  0  0  0  0  0  0  0  0  0  0  0
  -31.2047  -16.8618   22.6515 C   0  0  0  0  0  0  0  0  0  0  0  0
  -32.0984  -18.7065   21.6138 C   0  0  0  0  0  0  0  0  0  0  0  0
  -25.1764  -13.8151   20.4669 C   0  0  0  0  0  0  0  0  0  0  0  0
  -22.8129  -13.4714   21.2046 C   0  0  0  0  0  0  0  0  0  0  0  0
  -29.5173  -27.9435   21.8561 C   0  0  0  0  0  0  0  0  0  0  0  0
  -29.7747  -27.7160   18.6305 C   0  0  0  0  0  0  0  0  0  0  0  0
  -30.7382  -25.8743   15.9237 C   0  0  0  0  0  0  0  0  0  0  0  0
  -30.9389  -14.0759   20.9567 C   0  0  0  0  0  0  0  0  0  0  0  0
  -26.1953  -31.8159   22.0195 C   0  0  0  0  0  0  0  0  0  0  0  0
  -31.9414  -27.3048   21.5885 C   0  0  0  0  0  0  0  0  0  0  0  0
  -30.1693  -25.5997   19.9462 C   0  0  0  0  0  0  0  0  0  0  0  0
  -26.3240  -30.5208   21.2217 C   0  0  0  0  0  0  0  0  0  0  0  0
  -29.3533  -13.1338   17.9112 C   0  0  0  0  0  0  0  0  0  0  0  0
  -27.8962  -16.1849   23.1051 C   0  0  0  0  0  0  0  0  0  0  0  0
  -27.5942  -17.4984   23.7560 C   0  0  0  0  0  0  0  0  0  0  0  0
  -26.5965  -29.3445   22.1538 C   0  0  0  0  0  0  0  0  0  0  0  0
  -27.9238  -12.7909   18.3340 C   0  0  0  0  0  0  0  0  0  0  0  0
  -30.3711  -12.7117   18.9685 C   0  0  0  0  0  0  0  0  0  0  0  0
  -28.6745  -12.8822   20.7478 C   0  0  0  0  0  0  0  0  0  0  0  0
  -28.9860  -16.9261   23.8357 C   0  0  0  0  0  0  0  0  0  0  0  0
  -27.9182  -29.5331   22.9082 C   0  0  1  0  0  0  0  0  0  0  0  0
  -30.6883  -27.8598   20.9183 C   0  0  1  0  0  0  0  0  0  0  0  0
  -27.6075  -13.3394   19.7384 C   0  0  2  0  0  0  0  0  0  0  0  0
  -33.2282  -19.2862   20.8273 C   0  0  0  0  0  0  0  0  0  0  0  0
  -30.7872  -25.9360   13.4155 C   0  0  0  0  0  0  0  0  0  0  0  0
  -26.7844  -27.1132   18.5597 C   0  0  0  0  0  0  0  0  0  0  0  0
  -27.0815  -26.2652   16.2229 C   0  0  0  0  0  0  0  0  0  0  0  0
  -27.5818  -28.6503   16.7553 C   0  0  0  0  0  0  0  0  0  0  0  0
  -33.6915  -25.6934   15.8612 C   0  0  0  0  0  0  0  0  0  0  0  0
  -30.9252  -20.9432   21.5793 C   0  0  0  0  0  0  0  0  0  1  0  0
  -31.3556  -15.4177   23.0025 C   0  0  0  0  0  0  0  0  0  0  0  0
  -29.1526  -26.8433   17.5673 C   0  0  1  0  0  0  0  0  0  0  0  0
  -31.5514  -26.2392   14.6949 C   0  0  2  0  0  0  0  0  0  0  0  0
  -27.6651  -27.2069   17.2977 C   0  0  0  0  0  0  0  0  0  0  0  0
  -25.8930  -11.6669   20.3264 N   0  0  0  0  0  0  0  0  0  0  0  0
  -32.2200  -17.4000   21.9394 N   0  0  0  0  0  0  0  0  0  0  0  0
  -26.2053  -12.9661   20.1824 N   0  0  0  0  0  0  0  0  0  0  0  0
  -30.2594  -27.0586   19.7701 N   0  0  0  0  0  0  0  0  0  0  0  0
  -30.0144  -13.2660   20.2767 N   0  0  0  0  0  0  0  0  0  0  0  0
  -25.3188  -15.1543   20.3739 N   0  0  0  0  0  0  0  0  0  0  0  0
  -21.8427  -12.5164   21.5376 N   0  0  0  0  0  0  0  0  0  0  0  0
  -29.0400  -29.2262   22.0470 N   0  0  0  0  0  0  0  0  0  0  0  0
  -30.0154  -26.9495   16.3957 N   0  0  0  0  0  0  0  0  0  0  0  0
  -30.5188  -14.5656   22.1873 N   0  0  0  0  0  0  0  0  0  0  0  0
  -32.8287  -25.4719   14.6724 N   0  3  0  0  0  0  0  0  0  0  0  0
  -22.5118  -14.6888   21.2346 O   0  0  0  0  0  0  0  0  0  0  0  0
  -29.0782  -26.9200   22.3673 O   0  0  0  0  0  0  0  0  0  0  0  0
  -29.8350  -28.9352   18.4531 O   0  0  0  0  0  0  0  0  0  0  0  0
  -30.7408  -24.7471   16.4136 O   0  0  0  0  0  0  0  0  0  0  0  0
  -32.0540  -14.3472   20.4985 O   0  0  0  0  0  0  0  0  0  0  0  0
  -21.8570   -6.9492   21.7418 O   0  0  0  0  0  0  0  0  0  0  0  0
  -31.8050  -21.7011   22.4087 O   0  0  0  0  0  0  0  0  0  1  0  0
  -18.7798   -6.7137   26.3111 F   0  0  0  0  0  0  0  0  0  0  0  0
  -22.3668   -5.0651   23.6995 F   0  0  0  0  0  0  0  0  0  0  0  0
  1  2  1  0  0  0  0
  1  5  2  0  0  0  0
  2  6  2  0  0  0  0
  3  8  2  0  0  0  0
  3 16  1  0  0  0  0
  4  9  1  0  0  0  0
  4 16  2  0  0  0  0
  5 18  1  0  0  0  0
  6 20  1  0  0  0  0
  7 10  2  0  0  0  0
  7 19  1  0  0  0  0
  8 24  1  0  0  0  0
  9 24  2  0  0  0  0
 10 25  1  0  0  0  0
 11 12  2  0  0  0  0
 11 26  1  0  0  0  0
 12 27  1  0  0  0  0
 13 21  2  0  0  0  0
 13 23  1  0  0  0  0
 14 22  1  0  0  0  0
 14 25  2  0  0  0  0
 15 27  2  0  0  0  0
 15 28  1  0  0  0  0
 16 29  1  0  0  0  0
 17 29  1  0  0  0  0
 17 32  2  0  0  0  0
 17 33  1  0  0  0  0
 18 20  2  0  0  0  0
 18 38  1  0  0  0  0
 19 22  2  0  0  0  0
 19 39  1  0  0  0  0
 20 50  1  0  0  0  0
 21 30  1  0  0  0  0
 21 49  1  0  0  0  0
 22 40  1  0  0  0  0
 23 31  2  0  0  0  0
 23 59  1  0  0  0  0
 24 80  1  0  0  0  0
 25 81  1  0  0  0  0
 26 28  2  0  0  0  0
 26 80  1  0  0  0  0
 27 82  1  0  0  0  0
 28 83  1  0  0  0  0
 29 64  2  0  0  0  0
 30 60  1  0  0  0  0
 30 65  2  0  0  0  0
 31 53  1  0  0  0  0
 31 65  1  0  0  0  0
 32 66  1  0  0  0  0
 32 69  1  0  0  0  0
 33 70  1  0  0  0  0
 33 75  2  0  0  0  0
 34 51  1  0  0  0  0
 34 71  1  0  0  0  0
 34 76  2  0  0  0  0
 35 61  1  0  0  0  0
 35 67  1  0  0  0  0
 35 77  2  0  0  0  0
 36 62  1  0  0  0  0
 36 72  1  0  0  0  0
 36 78  2  0  0  0  0
 37 68  1  0  0  0  0
 37 73  1  0  0  0  0
 37 79  2  0  0  0  0
 38 41  1  0  0  0  0
 39 51  1  0  0  0  0
 40 67  1  0  0  0  0
 41 45  1  0  0  0  0
 42 46  1  0  0  0  0
 42 47  1  0  0  0  0
 43 44  1  0  0  0  0
 43 49  1  0  0  0  0
 44 49  1  0  0  0  0
 45 50  1  0  0  0  0
 46 52  1  0  0  0  0
 47 68  1  0  0  0  0
 48 52  1  0  0  0  0
 48 68  1  0  0  0  0
 50 71  1  0  0  0  0
 51 67  1  0  0  0  0
 52 66  1  0  0  0  0
 54 62  1  0  0  0  0
 55 63  1  0  0  0  0
 56 63  1  0  0  0  0
 57 63  1  0  0  0  0
 58 74  1  0  0  0  0
 59 81  1  0  0  0  0
 60 73  1  0  0  0  0
 61 63  1  0  0  0  0
 61 72  1  0  0  0  0
 62 74  1  0  0  0  0
 64 66  1  0  0  0  0
M  CHG  1  74   1
M  ISO  4  37 100  59 101  73 100  81 101
M  END
> <Batch ID>
0127

> <Smiles>
CNC(C)C(=O)NC(C(=O)N1Cc2cc([101O:1][101CH2:1]c3cc(C4CC4)c(C[100NH:0][100C:0](=O)N4CCCC(n5nc(-c6ccc(Oc7ccc(F)cc7F)cc6)c(C(N)=O)c5N)C4)nc3C)ccc2CC1C(=O)NC1CCCc2ccccc21)C(C)(C)C

> <Shape>
0.278

> <Color>
0.189

> <Negative vol penalty>
0.000

$$$$

  -OEChem-04052320403D

 82 90  0     1  0  0  0  0  0999 V2000
  -22.5282  -34.5488   21.9951 C   0  0  0  0  0  0  0  0  0  0  0  0
  -23.5574  -33.6130   22.0144 C   0  0  0  0  0  0  0  0  0  0  0  0
  -28.5580  -17.6655   21.9646 C   0  0  0  0  0  0  0  0  0  0  0  0
  -27.5283  -17.3925   19.7961 C   0  0  0  0  0  0  0  0  0  0  0  0
  -21.2491  -34.1853   22.4141 C   0  0  0  0  0  0  0  0  0  0  0  0
  -23.3083  -32.3132   22.4537 C   0  0  0  0  0  0  0  0  0  0  0  0
  -25.3851  -28.8124   19.4411 C   0  0  0  0  0  0  0  0  0  0  0  0
  -28.4833  -16.2884   22.1734 C   0  0  0  0  0  0  0  0  0  0  0  0
  -27.4536  -16.0154   20.0049 C   0  0  0  0  0  0  0  0  0  0  0  0
  -26.7545  -28.5878   19.5758 C   0  0  0  0  0  0  0  0  0  0  0  0
  -25.4865  -13.8571   21.7089 C   0  0  0  0  0  0  0  0  0  0  0  0
  -24.2903  -13.2166   21.3858 C   0  0  0  0  0  0  0  0  0  0  0  0
  -26.2961  -26.6326   20.9124 C   0  0  0  0  0  0  0  0  0  0  0  0
  -25.4635  -11.8282   19.7943 C   0  0  0  0  0  0  0  0  0  0  0  0
  -28.0805  -18.2176   20.7759 C   0  0  0  0  0  0  0  0  0  0  0  0
  -27.5633  -20.6514   21.3389 C   0  0  0  0  0  0  0  0  0  0  0  0
  -20.9819  -32.8778   22.8497 C   0  0  0  0  0  0  0  0  0  0  0  0
  -24.4595  -27.9536   20.0511 C   0  0  0  0  0  0  0  0  0  0  0  0
  -22.0247  -31.9322   22.8802 C   0  0  0  0  0  0  0  0  0  0  0  0
  -24.9155  -26.8471   20.7818 C   0  0  0  0  0  0  0  0  0  0  0  0
  -27.9311  -15.4634   21.1936 C   0  0  0  0  0  0  0  0  0  0  0  0
  -27.2102  -27.4994   20.3140 C   0  0  0  0  0  0  0  0  0  0  0  0
  -26.6713  -13.4832   21.0746 C   0  0  0  0  0  0  0  0  0  0  0  0
  -24.2788  -12.2021   20.4286 C   0  0  0  0  0  0  0  0  0  0  0  0
  -26.6598  -12.4687   20.1173 C   0  0  0  0  0  0  0  0  0  0  0  0
  -28.1568  -19.6401   20.5599 C   0  0  0  0  0  0  0  0  0  0  0  0
  -27.9319  -21.8215   20.7212 C   0  0  0  0  0  0  0  0  0  0  0  0
  -26.7514  -20.5428   22.5156 C   0  0  0  0  0  0  0  0  0  0  0  0
  -22.2095  -28.2926   22.2707 C   0  0  0  0  0  0  0  0  0  0  0  0
  -21.5300  -25.2169   21.4955 C   0  0  0  0  0  0  0  0  0  0  0  0
  -22.6079  -22.2501   20.1984 C   0  0  0  0  0  0  0  0  0  0  0  0
  -32.5491  -23.2980   17.2066 C   0  0  0  0  0  0  0  0  0  0  0  0
  -19.5943  -32.5446   23.3378 C   0  0  0  0  0  0  0  0  0  0  0  0
  -22.9854  -28.1945   19.8739 C   0  0  0  0  0  0  0  0  0  0  0  0
  -23.9626  -25.8838   21.4394 C   0  0  0  0  0  0  0  0  0  0  0  0
  -19.3266  -31.0448   23.4349 C   0  0  0  0  0  0  0  0  0  0  0  0
  -29.0871  -23.5860   16.4267 C   0  0  0  0  0  0  0  0  0  0  0  0
  -20.4894  -30.3385   24.1247 C   0  0  0  0  0  0  0  0  0  0  0  0
  -28.4026  -22.6986   17.4678 C   0  0  0  0  0  0  0  0  0  0  0  0
  -31.3661  -26.7397   20.8388 C   0  0  0  0  0  0  0  0  0  0  0  0
  -30.4216  -22.9979   15.9737 C   0  0  0  0  0  0  0  0  0  0  0  0
  -30.6751  -21.7899   18.1068 C   0  0  0  0  0  0  0  0  0  0  0  0
  -32.7681  -28.7655   21.3888 C   0  0  0  0  0  0  0  0  0  0  0  0
  -30.4150  -28.6134   22.2377 C   0  0  0  0  0  0  0  0  0  0  0  0
  -21.7881  -30.5057   23.3267 C   0  0  1  0  0  0  0  0  0  0  0  0
  -22.1389  -27.5491   20.9669 C   0  0  1  0  0  0  0  0  0  0  0  0
  -32.7837  -27.2630   21.1129 C   0  0  2  0  0  0  0  0  0  0  0  0
  -30.3990  -27.1088   21.9733 C   0  0  1  0  0  0  0  0  0  0  0  0
  -29.3520  -22.3696   18.6356 C   0  0  2  0  0  0  0  0  0  0  0  0
  -21.8369  -19.9081   19.7315 C   0  0  0  0  0  0  0  0  0  0  0  0
  -21.7836  -24.5449   24.4610 C   0  0  0  0  0  0  0  0  0  0  0  0
  -21.9535  -22.1287   23.8275 C   0  0  0  0  0  0  0  0  0  0  0  0
  -19.8830  -23.4136   23.2937 C   0  0  0  0  0  0  0  0  0  0  0  0
  -23.0593  -22.5574   17.2896 C   0  0  0  0  0  0  0  0  0  0  0  0
  -33.7109  -26.9469   19.9409 C   0  0  0  0  0  0  0  0  0  0  0  0
  -28.9822  -26.6406   21.6476 C   0  0  0  0  0  0  0  0  0  1  0  0
  -34.6168  -23.5092   18.5629 C   0  0  0  0  0  0  0  0  0  0  0  0
  -34.6239  -25.0249   18.6329 C   0  0  0  0  0  0  0  0  0  0  0  0
  -21.9951  -23.8647   21.9793 C   0  0  1  0  0  0  0  0  0  0  0  0
  -21.9906  -21.3148   19.1744 C   0  0  2  0  0  0  0  0  0  0  0  0
  -21.4220  -23.5070   23.3797 C   0  0  0  0  0  0  0  0  0  0  0  0
  -28.8497  -20.1253   19.5262 N   0  0  0  0  0  0  0  0  0  0  0  0
  -28.6938  -21.4542   19.6513 N   0  0  0  0  0  0  0  0  0  0  0  0
  -22.5310  -26.1655   21.2425 N   0  0  0  0  0  0  0  0  0  0  0  0
  -31.2758  -22.7100   17.1284 N   0  0  0  0  0  0  0  0  0  0  0  0
  -27.6753  -23.1184   20.9944 N   0  0  0  0  0  0  0  0  0  0  0  0
  -25.3622  -20.4398   22.3617 N   0  0  0  0  0  0  0  0  0  0  0  0
  -21.8016  -29.6103   22.1898 N   0  0  0  0  0  0  0  0  0  0  0  0
  -21.6456  -22.9133   20.9299 N   0  0  0  0  0  0  0  0  0  0  0  0
  -33.2912  -22.9776   18.3368 N   0  0  0  0  0  0  0  0  0  0  0  0
  -31.8173  -29.0519   22.5041 N   0  3  0  0  0  0  0  0  0  0  0  0
  -22.8438  -21.2465   17.9544 N   0  3  0  0  0  0  0  0  0  0  0  0
  -33.7918  -25.4807   19.7832 N   0  3  0  0  0  0  0  0  0  0  0  0
  -27.2421  -20.5537   23.6701 O   0  0  0  0  0  0  0  0  0  0  0  0
  -22.6035  -27.7131   23.2760 O   0  0  0  0  0  0  0  0  0  0  0  0
  -20.3234  -25.4217   21.3407 O   0  0  0  0  0  0  0  0  0  0  0  0
  -23.8225  -22.3766   20.3380 O   0  0  0  0  0  0  0  0  0  0  0  0
  -32.9896  -24.0568   16.3365 O   0  0  0  0  0  0  0  0  0  0  0  0
  -27.8582  -14.1195   21.3970 O   0  0  0  0  0  0  0  0  0  0  0  0
  -28.5462  -27.2782   20.4477 O   0  0  0  0  0  0  0  0  0  1  0  0
  -23.1302  -11.5861   20.1196 F   0  0  0  0  0  0  0  0  0  0  0  0
  -27.7950  -12.1043   19.5055 F   0  0  0  0  0  0  0  0  0  0  0  0
  1  2  1  0  0  0  0
  1  5  2  0  0  0  0
  2  6  2  0  0  0  0
  3  8  2  0  0  0  0
  3 15  1  0  0  0  0
  4  9  1  0  0  0  0
  4 15  2  0  0  0  0
  5 17  1  0  0  0  0
  6 19  1  0  0  0  0
  7 10  2  0  0  0  0
  7 18  1  0  0  0  0
  8 21  1  0  0  0  0
  9 21  2  0  0  0  0
 10 22  1  0  0  0  0
 11 12  2  0  0  0  0
 11 23  1  0  0  0  0
 12 24  1  0  0  0  0
 13 20  1  0  0  0  0
 13 22  2  0  0  0  0
 14 24  2  0  0  0  0
 14 25  1  0  0  0  0
 15 26  1  0  0  0  0
 16 26  1  0  0  0  0
 16 27  2  0  0  0  0
 16 28  1  0  0  0  0
 17 19  2  0  0  0  0
 17 33  1  0  0  0  0
 18 20  2  0  0  0  0
 18 34  1  0  0  0  0
 19 45  1  0  0  0  0
 20 35  1  0  0  0  0
 21 79  1  0  0  0  0
 22 80  1  0  0  0  0
 23 25  2  0  0  0  0
 23 79  1  0  0  0  0
 24 81  1  0  0  0  0
 25 82  1  0  0  0  0
 26 62  2  0  0  0  0
 27 63  1  0  0  0  0
 27 66  1  0  0  0  0
 28 67  1  0  0  0  0
 28 74  2  0  0  0  0
 29 46  1  0  0  0  0
 29 68  1  0  0  0  0
 29 75  2  0  0  0  0
 30 59  1  0  0  0  0
 30 64  1  0  0  0  0
 30 76  2  0  0  0  0
 31 60  1  0  0  0  0
 31 69  1  0  0  0  0
 31 77  2  0  0  0  0
 32 65  1  0  0  0  0
 32 70  1  0  0  0  0
 32 78  2  0  0  0  0
 33 36  1  0  0  0  0
 34 46  1  0  0  0  0
 35 64  1  0  0  0  0
 36 38  1  0  0  0  0
 37 39  1  0  0  0  0
 37 41  1  0  0  0  0
 38 45  1  0  0  0  0
 39 49  1  0  0  0  0
 40 47  1  0  0  0  0
 40 48  1  0  0  0  0
 41 65  1  0  0  0  0
 42 49  1  0  0  0  0
 42 65  1  0  0  0  0
 43 47  1  0  0  0  0
 43 71  1  0  0  0  0
 44 48  1  0  0  0  0
 44 71  1  0  0  0  0
 45 68  1  0  0  0  0
 46 64  1  0  0  0  0
 47 55  1  0  0  0  0
 48 56  1  0  0  0  0
 49 63  1  0  0  0  0
 50 60  1  0  0  0  0
 51 61  1  0  0  0  0
 52 61  1  0  0  0  0
 53 61  1  0  0  0  0
 54 72  1  0  0  0  0
 55 73  1  0  0  0  0
 56 80  1  0  0  0  0
 57 58  1  0  0  0  0
 57 70  1  0  0  0  0
 58 73  1  0  0  0  0
 59 61  1  0  0  0  0
 59 69  1  0  0  0  0
 60 72  1  0  0  0  0
 62 63  1  0  0  0  0
M  CHG  3  71   1  72   1  73   1
M  ISO  4  32 100  56 101  70 100  80 101
M  END
> <Batch ID>
0127

> <Smiles>
CNC(C)C(=O)NC(C(=O)N1Cc2cc([101O:1][101CH2:1]C3CNCC(CNCC[100NH:0][100C:0](=O)N4CCCC(n5nc(-c6ccc(Oc7ccc(F)cc7F)cc6)c(C(N)=O)c5N)C4)C3)ccc2CC1C(=O)NC1CCCc2ccccc21)C(C)(C)C

> <Shape>
0.199

> <Color>
0.069

> <Negative vol penalty>
0.000

$$$$

  -OEChem-04052320403D

 85 94  0     1  0  0  0  0  0999 V2000
  -28.9652  -24.4884   15.5619 C   0  0  0  0  0  0  0  0  0  0  0  0
  -27.6029  -24.6407   15.7993 C   0  0  0  0  0  0  0  0  0  0  0  0
  -26.9106  -15.3393   21.7320 C   0  0  0  0  0  0  0  0  0  0  0  0
  -26.3595  -15.4512   19.3824 C   0  0  0  0  0  0  0  0  0  0  0  0
  -29.8796  -24.7040   16.5921 C   0  0  0  0  0  0  0  0  0  0  0  0
  -27.1541  -25.0076   17.0676 C   0  0  0  0  0  0  0  0  0  0  0  0
  -17.4317  -22.8063   21.2914 C   0  0  0  0  0  0  0  0  0  0  0  0
  -22.3339  -28.5480   18.3854 C   0  0  0  0  0  0  0  0  0  0  0  0
  -18.1392  -22.4884   20.1309 C   0  0  0  0  0  0  0  0  0  0  0  0
  -26.4899  -14.0099   21.7674 C   0  0  0  0  0  0  0  0  0  0  0  0
  -25.9388  -14.1217   19.4177 C   0  0  0  0  0  0  0  0  0  0  0  0
  -21.0261  -28.2488   18.7645 C   0  0  0  0  0  0  0  0  0  0  0  0
  -25.8987  -10.4778   22.3921 C   0  0  0  0  0  0  0  0  0  0  0  0
  -26.7099   -9.5584   23.0570 C   0  0  0  0  0  0  0  0  0  0  0  0
  -18.8531  -24.8013   19.8804 C   0  0  0  0  0  0  0  0  0  0  0  0
  -21.6385  -28.5340   21.0803 C   0  0  0  0  0  0  0  0  0  0  0  0
  -28.5242  -10.0649   21.5440 C   0  0  0  0  0  0  0  0  0  0  0  0
  -26.8453  -16.0600   20.5395 C   0  0  0  0  0  0  0  0  0  0  0  0
  -28.5741  -17.9087   20.2211 C   0  0  0  0  0  0  0  0  0  0  0  0
  -29.4424  -25.0832   17.8710 C   0  0  0  0  0  0  0  0  0  0  0  0
  -17.4561  -24.1176   21.7373 C   0  0  0  0  0  0  0  0  0  0  0  0
  -23.3081  -28.8323   19.3531 C   0  0  0  0  0  0  0  0  0  0  0  0
  -28.0635  -25.2272   18.1162 C   0  0  0  0  0  0  0  0  0  0  0  0
  -18.1603  -25.1096   21.0408 C   0  0  0  0  0  0  0  0  0  0  0  0
  -22.9574  -28.8390   20.7107 C   0  0  0  0  0  0  0  0  0  0  0  0
  -18.8446  -23.4787   19.4305 C   0  0  0  0  0  0  0  0  0  0  0  0
  -26.0041  -13.4011   20.6103 C   0  0  0  0  0  0  0  0  0  0  0  0
  -20.6789  -28.2389   20.1123 C   0  0  0  0  0  0  0  0  0  0  0  0
  -26.4002  -11.1907   21.3030 C   0  0  0  0  0  0  0  0  0  0  0  0
  -28.0226   -9.3520   22.6331 C   0  0  0  0  0  0  0  0  0  0  0  0
  -27.7129  -10.9843   20.8790 C   0  0  0  0  0  0  0  0  0  0  0  0
  -27.2791  -17.4335   20.5024 C   0  0  0  0  0  0  0  0  0  0  0  0
  -28.4655  -19.2749   20.3108 C   0  0  0  0  0  0  0  0  0  0  0  0
  -29.7683  -17.1802   19.9068 C   0  0  0  0  0  0  0  0  0  0  0  0
  -26.0543  -27.4943   20.2319 C   0  0  0  0  0  0  0  0  0  0  0  0
  -26.2706  -30.1115   22.1361 C   0  0  0  0  0  0  0  0  0  0  0  0
  -24.6698  -32.6298   23.7921 C   0  0  0  0  0  0  0  0  0  0  0  0
  -23.8629  -23.0503   19.6677 C   0  0  0  0  0  0  0  0  0  0  0  0
  -30.4653  -25.2591   18.9653 C   0  0  0  0  0  0  0  0  0  0  0  0
  -16.7516  -24.6926   22.9257 C   0  0  0  0  0  0  0  0  0  0  0  0
  -24.7081  -29.1793   18.9263 C   0  0  0  0  0  0  0  0  0  0  0  0
  -23.9612  -29.1573   21.7875 C   0  0  0  0  0  0  0  0  0  0  0  0
  -29.9321  -26.0105   20.1825 C   0  0  0  0  0  0  0  0  0  0  0  0
  -17.5173  -26.0104   23.1113 C   0  0  0  0  0  0  0  0  0  0  0  0
  -25.9567  -22.6944   22.5253 C   0  0  0  0  0  0  0  0  0  0  0  0
  -28.5690  -25.4626   20.5931 C   0  0  0  0  0  0  0  0  0  0  0  0
  -26.6499  -21.3487   22.3055 C   0  0  0  0  0  0  0  0  0  0  0  0
  -24.5130  -22.6735   22.0282 C   0  0  0  0  0  0  0  0  0  0  0  0
  -25.0391  -20.8910   20.4096 C   0  0  0  0  0  0  0  0  0  0  0  0
  -17.9798  -26.4468   21.7051 C   0  0  1  0  0  0  0  0  0  0  0  0
  -27.5393  -25.6482   19.4720 C   0  0  1  0  0  0  0  0  0  0  0  0
  -25.7418  -28.9493   20.0244 C   0  0  1  0  0  0  0  0  0  0  0  0
  -26.5147  -20.8803   20.8441 C   0  0  2  0  0  0  0  0  0  0  0  0
  -25.1098  -34.5909   25.2947 C   0  0  0  0  0  0  0  0  0  0  0  0
  -26.6997  -28.2122   24.4853 C   0  0  0  0  0  0  0  0  0  0  0  0
  -26.1838  -30.1154   26.0281 C   0  0  0  0  0  0  0  0  0  0  0  0
  -28.1569  -30.2446   24.5073 C   0  0  0  0  0  0  0  0  0  0  0  0
  -23.5442  -34.5356   21.8274 C   0  0  0  0  0  0  0  0  0  0  0  0
  -19.5870  -23.1154   18.1874 C   0  0  0  0  0  0  0  0  0  0  0  0
  -19.2251  -27.3186   21.7541 C   0  0  0  0  0  0  0  0  0  1  0  0
  -23.2870  -23.2878   17.2654 C   0  0  0  0  0  0  0  0  0  0  0  0
  -21.8144  -22.9816   17.0653 C   0  0  0  0  0  0  0  0  0  0  0  0
  -25.8305  -30.4518   23.5395 C   0  0  1  0  0  0  0  0  0  0  0  0
  -24.9387  -34.1224   23.8581 C   0  0  2  0  0  0  0  0  0  0  0  0
  -26.6990  -29.7481   24.6201 C   0  0  0  0  0  0  0  0  0  0  0  0
  -26.4116  -18.4179   20.7523 N   0  0  0  0  0  0  0  0  0  0  0  0
  -27.1629  -19.5253   20.6283 N   0  0  0  0  0  0  0  0  0  0  0  0
  -25.3185  -29.4841   21.3202 N   0  0  0  0  0  0  0  0  0  0  0  0
  -24.4544  -22.2221   20.6357 N   0  0  0  0  0  0  0  0  0  0  0  0
  -29.3581  -20.2745   20.1483 N   0  0  0  0  0  0  0  0  0  0  0  0
  -29.7037  -15.7811   19.8561 N   0  0  0  0  0  0  0  0  0  0  0  0
  -27.0765  -27.0189   19.4328 N   0  0  0  0  0  0  0  0  0  0  0  0
  -25.8330  -31.9082   23.6262 N   0  0  0  0  0  0  0  0  0  0  0  0
  -23.8546  -22.5496   18.3716 N   0  0  0  0  0  0  0  0  0  0  0  0
  -23.8093  -34.8796   23.2481 N   0  3  0  0  0  0  0  0  0  0  0  0
  -21.0477  -23.3889   18.2717 N   0  3  0  0  0  0  0  0  0  0  0  0
  -30.8642  -17.7522   19.6938 O   0  0  0  0  0  0  0  0  0  0  0  0
  -25.4163  -26.8510   21.0570 O   0  0  0  0  0  0  0  0  0  0  0  0
  -27.4146  -30.3983   21.7749 O   0  0  0  0  0  0  0  0  0  0  0  0
  -23.5413  -32.1516   23.8828 O   0  0  0  0  0  0  0  0  0  0  0  0
  -23.3828  -24.1565   19.9375 O   0  0  0  0  0  0  0  0  0  0  0  0
  -25.5938  -12.1037   20.6443 O   0  0  0  0  0  0  0  0  0  0  0  0
  -19.4032  -27.9465   20.4851 O   0  0  0  0  0  0  0  0  0  1  0  0
  -28.8020   -8.4702   23.2727 F   0  0  0  0  0  0  0  0  0  0  0  0
  -28.2006  -11.6671   19.8342 F   0  0  0  0  0  0  0  0  0  0  0  0
  1  2  1  0  0  0  0
  1  5  2  0  0  0  0
  2  6  2  0  0  0  0
  3 10  2  0  0  0  0
  3 18  1  0  0  0  0
  4 11  1  0  0  0  0
  4 18  2  0  0  0  0
  5 20  1  0  0  0  0
  6 23  1  0  0  0  0
  7  9  2  0  0  0  0
  7 21  1  0  0  0  0
  8 12  2  0  0  0  0
  8 22  1  0  0  0  0
  9 26  1  0  0  0  0
 10 27  1  0  0  0  0
 11 27  2  0  0  0  0
 12 28  1  0  0  0  0
 13 14  2  0  0  0  0
 13 29  1  0  0  0  0
 14 30  1  0  0  0  0
 15 24  1  0  0  0  0
 15 26  2  0  0  0  0
 16 25  1  0  0  0  0
 16 28  2  0  0  0  0
 17 30  2  0  0  0  0
 17 31  1  0  0  0  0
 18 32  1  0  0  0  0
 19 32  1  0  0  0  0
 19 33  2  0  0  0  0
 19 34  1  0  0  0  0
 20 23  2  0  0  0  0
 20 39  1  0  0  0  0
 21 24  2  0  0  0  0
 21 40  1  0  0  0  0
 22 25  2  0  0  0  0
 22 41  1  0  0  0  0
 23 51  1  0  0  0  0
 24 50  1  0  0  0  0
 25 42  1  0  0  0  0
 26 59  1  0  0  0  0
 27 82  1  0  0  0  0
 28 83  1  0  0  0  0
 29 31  2  0  0  0  0
 29 82  1  0  0  0  0
 30 84  1  0  0  0  0
 31 85  1  0  0  0  0
 32 66  2  0  0  0  0
 33 67  1  0  0  0  0
 33 70  1  0  0  0  0
 34 71  1  0  0  0  0
 34 77  2  0  0  0  0
 35 52  1  0  0  0  0
 35 72  1  0  0  0  0
 35 78  2  0  0  0  0
 36 63  1  0  0  0  0
 36 68  1  0  0  0  0
 36 79  2  0  0  0  0
 37 64  1  0  0  0  0
 37 73  1  0  0  0  0
 37 80  2  0  0  0  0
 38 69  1  0  0  0  0
 38 74  1  0  0  0  0
 38 81  2  0  0  0  0
 39 43  1  0  0  0  0
 40 44  1  0  0  0  0
 41 52  1  0  0  0  0
 42 68  1  0  0  0  0
 43 46  1  0  0  0  0
 44 50  1  0  0  0  0
 45 47  1  0  0  0  0
 45 48  1  0  0  0  0
 46 51  1  0  0  0  0
 47 53  1  0  0  0  0
 48 69  1  0  0  0  0
 49 53  1  0  0  0  0
 49 69  1  0  0  0  0
 50 60  1  0  0  0  0
 51 72  1  0  0  0  0
 52 68  1  0  0  0  0
 53 67  1  0  0  0  0
 54 64  1  0  0  0  0
 55 65  1  0  0  0  0
 56 65  1  0  0  0  0
 57 65  1  0  0  0  0
 58 75  1  0  0  0  0
 59 76  1  0  0  0  0
 60 83  1  0  0  0  0
 61 62  1  0  0  0  0
 61 74  1  0  0  0  0
 62 76  1  0  0  0  0
 63 65  1  0  0  0  0
 63 73  1  0  0  0  0
 64 75  1  0  0  0  0
 66 67  1  0  0  0  0
M  CHG  2  75   1  76   1
M  ISO  4  38 100  60 101  74 100  83 101
M  END
> <Batch ID>
0127

> <Smiles>
CNC(C)C(=O)NC(C(=O)N1Cc2cc([101O:1][101CH2:1]C3CCc4ccc(CNCC[100NH:0][100C:0](=O)N5CCCC(n6nc(-c7ccc(Oc8ccc(F)cc8F)cc7)c(C(N)=O)c6N)C5)cc43)ccc2CC1C(=O)NC1CCCc2ccccc21)C(C)(C)C

> <Shape>
0.249

> <Color>
0.068

> <Negative vol penalty>
0.000

$$$$

  -OEChem-04052320403D

 83 91  0     1  0  0  0  0  0999 V2000
  -22.6131  -11.6740   19.6359 C   0  0  0  0  0  0  0  0  0  0  0  0
  -22.1121  -12.9717   19.6171 C   0  0  0  0  0  0  0  0  0  0  0  0
  -29.6190  -26.9061   18.3758 C   0  0  0  0  0  0  0  0  0  0  0  0
  -29.4834  -26.7696   20.7842 C   0  0  0  0  0  0  0  0  0  0  0  0
  -23.8705  -11.4213   20.1827 C   0  0  0  0  0  0  0  0  0  0  0  0
  -22.8677  -14.0174   20.1462 C   0  0  0  0  0  0  0  0  0  0  0  0
  -23.0920  -19.7913   18.1170 C   0  0  0  0  0  0  0  0  0  0  0  0
  -20.2459  -24.6083   21.1810 C   0  0  0  0  0  0  0  0  0  0  0  0
  -19.7827  -25.8243   21.6834 C   0  0  0  0  0  0  0  0  0  0  0  0
  -30.9748  -26.5837   18.4338 C   0  0  0  0  0  0  0  0  0  0  0  0
  -30.8393  -26.4471   20.8422 C   0  0  0  0  0  0  0  0  0  0  0  0
  -22.4529  -20.9578   18.5348 C   0  0  0  0  0  0  0  0  0  0  0  0
  -34.3465  -25.9412   21.6506 C   0  0  0  0  0  0  0  0  0  0  0  0
  -35.1265  -26.5887   22.6086 C   0  0  0  0  0  0  0  0  0  0  0  0
  -20.6185  -25.6395   19.0282 C   0  0  0  0  0  0  0  0  0  0  0  0
  -24.3877  -21.5382   19.8535 C   0  0  0  0  0  0  0  0  0  0  0  0
  -34.5785  -28.7210   21.6135 C   0  0  0  0  0  0  0  0  0  0  0  0
  -28.8733  -26.9992   19.5510 C   0  0  0  0  0  0  0  0  0  0  0  0
  -20.1552  -26.8555   19.5305 C   0  0  0  0  0  0  0  0  0  0  0  0
  -26.4558  -26.6177   18.8314 C   0  0  0  0  0  0  0  0  0  0  0  0
  -24.6461  -12.4659   20.7101 C   0  0  0  0  0  0  0  0  0  0  0  0
  -24.3816  -19.4835   18.5737 C   0  0  0  0  0  0  0  0  0  0  0  0
  -24.1361  -13.7782   20.7018 C   0  0  0  0  0  0  0  0  0  0  0  0
  -25.0419  -20.3685   19.4380 C   0  0  0  0  0  0  0  0  0  0  0  0
  -20.6639  -24.5159   19.8534 C   0  0  0  0  0  0  0  0  0  0  0  0
  -19.7373  -26.9479   20.8581 C   0  0  0  0  0  0  0  0  0  0  0  0
  -31.5849  -26.3542   19.6670 C   0  0  0  0  0  0  0  0  0  0  0  0
  -23.0996  -21.8301   19.4054 C   0  0  0  0  0  0  0  0  0  0  0  0
  -33.6825  -26.6835   20.6739 C   0  0  0  0  0  0  0  0  0  0  0  0
  -35.2425  -27.9786   22.5901 C   0  0  0  0  0  0  0  0  0  0  0  0
  -33.7985  -28.0734   20.6554 C   0  0  0  0  0  0  0  0  0  0  0  0
  -27.4728  -27.3328   19.4918 C   0  0  0  0  0  0  0  0  0  0  0  0
  -25.3139  -27.3413   19.0745 C   0  0  0  0  0  0  0  0  0  0  0  0
  -26.5360  -25.4076   18.0667 C   0  0  0  0  0  0  0  0  0  0  0  0
  -20.1173  -28.0306   18.6410 C   0  0  0  0  0  0  0  0  0  0  0  0
  -25.6536  -17.1203   20.2769 C   0  0  0  0  0  0  0  0  0  0  0  0
  -28.4386  -18.6135   19.5443 C   0  0  0  0  0  0  0  0  0  0  0  0
  -30.0323  -21.4948   18.6471 C   0  0  0  0  0  0  0  0  0  0  0  0
  -22.0000  -30.1812   22.5528 C   0  0  0  0  0  0  0  0  0  0  0  0
  -25.9794  -12.1368   21.3334 C   0  0  0  0  0  0  0  0  0  0  0  0
  -25.0678  -18.2345   18.0926 C   0  0  0  0  0  0  0  0  0  0  0  0
  -26.4347  -20.0942   19.9413 C   0  0  0  0  0  0  0  0  0  0  0  0
  -26.8754  -13.3563   21.5344 C   0  0  0  0  0  0  0  0  0  0  0  0
  -24.6991  -31.9552   21.0546 C   0  0  0  0  0  0  0  0  0  0  0  0
  -26.0853  -14.5021   22.1586 C   0  0  0  0  0  0  0  0  0  0  0  0
  -25.5800  -30.8518   20.4659 C   0  0  0  0  0  0  0  0  0  0  0  0
  -24.0712  -31.5291   22.3798 C   0  0  0  0  0  0  0  0  0  0  0  0
  -24.2097  -29.1522   21.7435 C   0  0  0  0  0  0  0  0  0  0  0  0
  -24.9363  -14.9428   21.2437 C   0  0  1  0  0  0  0  0  0  0  0  0
  -26.1796  -17.7660   19.0263 C   0  0  1  0  0  0  0  0  0  0  0  0
  -24.8204  -29.5144   20.3789 C   0  0  2  0  0  0  0  0  0  0  0  0
  -32.3163  -22.4128   18.1592 C   0  0  0  0  0  0  0  0  0  0  0  0
  -29.0583  -18.6527   22.5316 C   0  0  0  0  0  0  0  0  0  0  0  0
  -30.8186  -20.3729   22.0730 C   0  0  0  0  0  0  0  0  0  0  0  0
  -31.0092  -18.0974   21.0687 C   0  0  0  0  0  0  0  0  0  0  0  0
  -29.2799  -22.2098   15.8755 C   0  0  0  0  0  0  0  0  0  0  0  0
  -19.2351  -28.2375   21.4210 C   0  0  0  0  0  0  0  0  0  0  0  0
  -21.1633  -23.2079   19.3140 C   0  0  0  0  0  0  0  0  0  1  0  0
  -20.0069  -28.7063   22.6590 C   0  0  0  0  0  0  0  0  0  0  0  0
  -29.2680  -19.7018   20.1819 C   0  0  1  0  0  0  0  0  0  0  0  0
  -31.0636  -21.7823   17.5709 C   0  0  2  0  0  0  0  0  0  0  0  0
  -30.0115  -19.2107   21.4560 C   0  0  0  0  0  0  0  0  0  0  0  0
  -27.0173  -28.4268   20.1080 N   0  0  0  0  0  0  0  0  0  0  0  0
  -25.7014  -28.4046   19.8358 N   0  0  0  0  0  0  0  0  0  0  0  0
  -27.0612  -18.8568   19.4473 N   0  0  0  0  0  0  0  0  0  0  0  0
  -23.3648  -30.2547   22.2286 N   0  0  0  0  0  0  0  0  0  0  0  0
  -24.0263  -27.1655   18.7092 N   0  0  0  0  0  0  0  0  0  0  0  0
  -26.3733  -24.1848   18.7320 N   0  0  0  0  0  0  0  0  0  0  0  0
  -25.4382  -15.7604   20.1601 N   0  0  0  0  0  0  0  0  0  0  0  0
  -30.1480  -20.2105   19.1353 N   0  0  0  0  0  0  0  0  0  0  0  0
  -21.4056  -28.9380   22.3746 N   0  0  0  0  0  0  0  0  0  0  0  0
  -30.5028  -22.7139   16.5518 N   0  3  0  0  0  0  0  0  0  0  0  0
  -19.0507  -28.2524   17.9563 O   0  5  0  0  0  0  0  0  0  0  0  0
  -26.7621  -25.4098   16.8329 O   0  0  0  0  0  0  0  0  0  0  0  0
  -21.1523  -28.7928   18.5804 O   0  0  0  0  0  0  0  0  0  0  0  0
  -25.4591  -17.8050   21.2745 O   0  0  0  0  0  0  0  0  0  0  0  0
  -28.9933  -17.5884   19.1405 O   0  0  0  0  0  0  0  0  0  0  0  0
  -29.2089  -22.3275   19.0202 O   0  0  0  0  0  0  0  0  0  0  0  0
  -21.3576  -31.1529   22.9651 O   0  0  0  0  0  0  0  0  0  0  0  0
  -32.9079  -26.0392   19.7239 O   0  0  0  0  0  0  0  0  0  0  0  0
  -22.4778  -22.9691   19.8153 O   0  0  0  0  0  0  0  0  0  1  0  0
  -35.9903  -28.6004   23.5111 F   0  0  0  0  0  0  0  0  0  0  0  0
  -33.1621  -28.7921   19.7204 F   0  0  0  0  0  0  0  0  0  0  0  0
  1  2  1  0  0  0  0
  1  5  2  0  0  0  0
  2  6  2  0  0  0  0
  3 10  2  0  0  0  0
  3 18  1  0  0  0  0
  4 11  1  0  0  0  0
  4 18  2  0  0  0  0
  5 21  1  0  0  0  0
  6 23  1  0  0  0  0
  7 12  2  0  0  0  0
  7 22  1  0  0  0  0
  8  9  2  0  0  0  0
  8 25  1  0  0  0  0
  9 26  1  0  0  0  0
 10 27  1  0  0  0  0
 11 27  2  0  0  0  0
 12 28  1  0  0  0  0
 13 14  2  0  0  0  0
 13 29  1  0  0  0  0
 14 30  1  0  0  0  0
 15 19  1  0  0  0  0
 15 25  2  0  0  0  0
 16 24  1  0  0  0  0
 16 28  2  0  0  0  0
 17 30  2  0  0  0  0
 17 31  1  0  0  0  0
 18 32  1  0  0  0  0
 19 26  2  0  0  0  0
 19 35  1  0  0  0  0
 20 32  1  0  0  0  0
 20 33  2  0  0  0  0
 20 34  1  0  0  0  0
 21 23  2  0  0  0  0
 21 40  1  0  0  0  0
 22 24  2  0  0  0  0
 22 41  1  0  0  0  0
 23 49  1  0  0  0  0
 24 42  1  0  0  0  0
 25 58  1  0  0  0  0
 26 57  1  0  0  0  0
 27 80  1  0  0  0  0
 28 81  1  0  0  0  0
 29 31  2  0  0  0  0
 29 80  1  0  0  0  0
 30 82  1  0  0  0  0
 31 83  1  0  0  0  0
 32 63  2  0  0  0  0
 33 64  1  0  0  0  0
 33 67  1  0  0  0  0
 34 68  1  0  0  0  0
 34 74  2  0  0  0  0
 35 73  1  0  0  0  0
 35 75  2  0  0  0  0
 36 50  1  0  0  0  0
 36 69  1  0  0  0  0
 36 76  2  0  0  0  0
 37 60  1  0  0  0  0
 37 65  1  0  0  0  0
 37 77  2  0  0  0  0
 38 61  1  0  0  0  0
 38 70  1  0  0  0  0
 38 78  2  0  0  0  0
 39 66  1  0  0  0  0
 39 71  1  0  0  0  0
 39 79  2  0  0  0  0
 40 43  1  0  0  0  0
 41 50  1  0  0  0  0
 42 65  1  0  0  0  0
 43 45  1  0  0  0  0
 44 46  1  0  0  0  0
 44 47  1  0  0  0  0
 45 49  1  0  0  0  0
 46 51  1  0  0  0  0
 47 66  1  0  0  0  0
 48 51  1  0  0  0  0
 48 66  1  0  0  0  0
 49 69  1  0  0  0  0
 50 65  1  0  0  0  0
 51 64  1  0  0  0  0
 52 61  1  0  0  0  0
 53 62  1  0  0  0  0
 54 62  1  0  0  0  0
 55 62  1  0  0  0  0
 56 72  1  0  0  0  0
 57 59  1  0  0  0  0
 58 81  1  0  0  0  0
 59 71  1  0  0  0  0
 60 62  1  0  0  0  0
 60 70  1  0  0  0  0
 61 72  1  0  0  0  0
 63 64  1  0  0  0  0
M  CHG  2  72   1  73  -1
M  ISO  4  39 100  58 101  71 100  81 101
M  END
> <Batch ID>
0127

> <Smiles>
CNC(C)C(=O)NC(C(=O)N1Cc2cc([101O:1][101CH2:1]c3ccc(CC[100NH:0][100C:0](=O)N4CCCC(n5nc(-c6ccc(Oc7ccc(F)cc7F)cc6)c(C(N)=O)c5N)C4)c(C(=O)O)c3)ccc2CC1C(=O)NC1CCCc2ccccc21)C(C)(C)C

> <Shape>
0.240

> <Color>
0.068

> <Negative vol penalty>
0.000

$$$$

  -OEChem-04052320403D

 86 95  0     1  0  0  0  0  0999 V2000
  -21.4996  -34.0185   21.6526 C   0  0  0  0  0  0  0  0  0  0  0  0
  -21.3255  -32.7661   22.2327 C   0  0  0  0  0  0  0  0  0  0  0  0
  -22.8991   -9.9140   20.0901 C   0  0  0  0  0  0  0  0  0  0  0  0
  -23.6491  -10.0524   22.3825 C   0  0  0  0  0  0  0  0  0  0  0  0
  -22.2086  -34.1399   20.4583 C   0  0  0  0  0  0  0  0  0  0  0  0
  -21.8595  -31.6340   21.6181 C   0  0  0  0  0  0  0  0  0  0  0  0
  -26.5809  -27.4231   25.0631 C   0  0  0  0  0  0  0  0  0  0  0  0
  -22.1048   -8.8148   20.4163 C   0  0  0  0  0  0  0  0  0  0  0  0
  -22.8548   -8.9531   22.7088 C   0  0  0  0  0  0  0  0  0  0  0  0
  -27.3270  -26.4516   25.7307 C   0  0  0  0  0  0  0  0  0  0  0  0
  -23.0034   -5.5903   22.3919 C   0  0  0  0  0  0  0  0  0  0  0  0
  -23.5708   -4.5935   23.1856 C   0  0  0  0  0  0  0  0  0  0  0  0
  -27.4764  -25.1530   23.6962 C   0  0  0  0  0  0  0  0  0  0  0  0
  -21.8716   -4.9619   24.8631 C   0  0  0  0  0  0  0  0  0  0  0  0
  -23.6713  -10.5328   21.0732 C   0  0  0  0  0  0  0  0  0  0  0  0
  -24.1230  -13.0258   20.7758 C   0  0  0  0  0  0  0  0  0  0  0  0
  -22.7598  -33.0099   19.8338 C   0  0  0  0  0  0  0  0  0  0  0  0
  -26.2925  -27.2704   23.7041 C   0  0  0  0  0  0  0  0  0  0  0  0
  -22.5754  -31.7402   20.4136 C   0  0  0  0  0  0  0  0  0  0  0  0
  -26.7401  -26.1288   23.0192 C   0  0  0  0  0  0  0  0  0  0  0  0
  -22.0826   -8.3343   21.7256 C   0  0  0  0  0  0  0  0  0  0  0  0
  -27.7734  -25.3193   25.0490 C   0  0  0  0  0  0  0  0  0  0  0  0
  -21.8701   -6.2730   22.8338 C   0  0  0  0  0  0  0  0  0  0  0  0
  -23.0049   -4.2793   24.4211 C   0  0  0  0  0  0  0  0  0  0  0  0
  -21.3042   -5.9588   24.0694 C   0  0  0  0  0  0  0  0  0  0  0  0
  -24.4924  -11.6679   20.7367 C   0  0  0  0  0  0  0  0  0  0  0  0
  -25.2482  -13.6996   20.3679 C   0  0  0  0  0  0  0  0  0  0  0  0
  -22.8744  -13.6245   21.1477 C   0  0  0  0  0  0  0  0  0  0  0  0
  -24.6561  -28.6954   20.6434 C   0  0  0  0  0  0  0  0  0  0  0  0
  -27.3276  -27.4852   19.7440 C   0  0  0  0  0  0  0  0  0  0  0  0
  -30.5261  -26.4127   19.2379 C   0  0  0  0  0  0  0  0  0  0  0  0
  -30.7702  -14.4926   20.5226 C   0  0  0  0  0  0  0  0  0  0  0  0
  -23.4778  -33.1850   18.5190 C   0  0  0  0  0  0  0  0  0  0  0  0
  -25.4397  -28.2615   22.9595 C   0  0  0  0  0  0  0  0  0  0  0  0
  -26.3765  -25.9900   21.5661 C   0  0  0  0  0  0  0  0  0  0  0  0
  -24.3327  -31.9826   18.1271 C   0  0  0  0  0  0  0  0  0  0  0  0
  -29.5399  -11.9946   18.3039 C   0  0  0  0  0  0  0  0  0  0  0  0
  -23.5517  -30.6866   18.3201 C   0  0  0  0  0  0  0  0  0  0  0  0
  -28.0893  -11.7947   18.7463 C   0  0  0  0  0  0  0  0  0  0  0  0
  -32.8804  -22.0855   26.0085 C   0  0  0  0  0  0  0  0  0  0  0  0
  -29.9587  -17.8989   21.7273 C   0  0  0  0  0  0  0  0  0  0  0  0
  -31.7491  -16.5452   22.8769 C   0  0  0  0  0  0  0  0  0  0  0  0
  -30.4608  -12.2611   19.4925 C   0  0  0  0  0  0  0  0  0  0  0  0
  -28.5869  -13.1707   20.8097 C   0  0  0  0  0  0  0  0  0  0  0  0
  -33.4965  -23.3654   26.5474 C   0  0  0  0  0  0  0  0  0  0  0  0
  -30.6889  -19.1791   22.1115 C   0  0  0  0  0  0  0  0  0  0  0  0
  -32.4695  -17.8324   23.2564 C   0  0  0  0  0  0  0  0  0  0  0  0
  -31.2876  -24.5214   26.3806 C   0  0  0  0  0  0  0  0  0  0  0  0
  -23.1608  -30.4917   19.7901 C   0  0  1  0  0  0  0  0  0  0  0  0
  -25.8675  -28.4435   21.4922 C   0  0  1  0  0  0  0  0  0  0  0  0
  -31.6677  -22.3633   25.1027 C   0  0  2  0  0  0  0  0  0  0  0  0
  -30.6302  -23.2494   25.8358 C   0  0  2  0  0  0  0  0  0  0  0  0
  -27.6109  -12.9544   19.6405 C   0  0  2  0  0  0  0  0  0  0  0  0
  -30.9225  -16.7184   21.6026 C   0  0  0  0  0  0  0  0  0  0  0  0
  -32.2457  -26.1277   17.4326 C   0  0  0  0  0  0  0  0  0  0  0  0
  -25.8443  -25.0224   18.7250 C   0  0  0  0  0  0  0  0  0  0  0  0
  -27.9763  -24.2712   17.6486 C   0  0  0  0  0  0  0  0  0  0  0  0
  -26.9098  -26.4119   16.9394 C   0  0  0  0  0  0  0  0  0  0  0  0
  -32.4064  -28.2658   20.5756 C   0  0  0  0  0  0  0  0  0  0  0  0
  -31.0741  -21.0354   24.6251 C   0  0  0  0  0  0  0  0  0  0  0  0
  -29.4549  -23.6408   24.9360 C   0  0  0  0  0  0  0  0  0  1  0  0
  -32.1100  -20.2204   23.8753 C   0  0  0  0  0  0  0  0  0  0  0  0
  -28.0492  -26.2816   19.1926 C   0  0  1  0  0  0  0  0  0  0  0  0
  -31.6990  -27.0478   18.5129 C   0  0  2  0  0  0  0  0  0  0  0  0
  -27.1939  -25.5020   18.1544 C   0  0  0  0  0  0  0  0  0  0  0  0
  -25.7536  -11.4881   20.3355 N   0  0  0  0  0  0  0  0  0  0  0  0
  -26.1865  -12.7417   20.1186 N   0  0  0  0  0  0  0  0  0  0  0  0
  -26.5377  -27.2826   20.8822 N   0  0  0  0  0  0  0  0  0  0  0  0
  -29.9518  -13.3731   20.2989 N   0  0  0  0  0  0  0  0  0  0  0  0
  -25.5165  -15.0122   20.2016 N   0  0  0  0  0  0  0  0  0  0  0  0
  -21.8226  -12.7861   21.5417 N   0  0  0  0  0  0  0  0  0  0  0  0
  -24.2962  -30.0268   20.5576 N   0  0  0  0  0  0  0  0  0  0  0  0
  -29.3210  -26.7713   18.6719 N   0  0  0  0  0  0  0  0  0  0  0  0
  -30.2085  -15.5042   21.2919 N   0  0  0  0  0  0  0  0  0  0  0  0
  -32.4451  -24.1556   27.2471 N   0  3  0  0  0  0  0  0  0  0  0  0
  -31.4656  -18.9524   23.3862 N   0  3  0  0  0  0  0  0  0  0  0  0
  -32.7982  -27.3513   19.4724 N   0  3  0  0  0  0  0  0  0  0  0  0
  -22.6916  -14.8650   21.1155 O   0  0  0  0  0  0  0  0  0  0  0  0
  -24.0895  -27.7521   20.1041 O   0  0  0  0  0  0  0  0  0  0  0  0
  -27.4544  -28.5754   19.1795 O   0  0  0  0  0  0  0  0  0  0  0  0
  -30.6654  -25.6696   20.2069 O   0  0  0  0  0  0  0  0  0  0  0  0
  -31.9145  -14.5861   20.0658 O   0  0  0  0  0  0  0  0  0  0  0  0
  -21.3075   -7.2619   22.0443 O   0  0  0  0  0  0  0  0  0  0  0  0
  -28.5052  -24.3769   25.7057 O   0  0  0  0  0  0  0  0  0  1  0  0
  -23.5490   -3.3209   25.1825 F   0  0  0  0  0  0  0  0  0  0  0  0
  -20.2147   -6.6103   24.4987 F   0  0  0  0  0  0  0  0  0  0  0  0
  1  2  1  0  0  0  0
  1  5  2  0  0  0  0
  2  6  2  0  0  0  0
  3  8  2  0  0  0  0
  3 15  1  0  0  0  0
  4  9  1  0  0  0  0
  4 15  2  0  0  0  0
  5 17  1  0  0  0  0
  6 19  1  0  0  0  0
  7 10  2  0  0  0  0
  7 18  1  0  0  0  0
  8 21  1  0  0  0  0
  9 21  2  0  0  0  0
 10 22  1  0  0  0  0
 11 12  2  0  0  0  0
 11 23  1  0  0  0  0
 12 24  1  0  0  0  0
 13 20  1  0  0  0  0
 13 22  2  0  0  0  0
 14 24  2  0  0  0  0
 14 25  1  0  0  0  0
 15 26  1  0  0  0  0
 16 26  1  0  0  0  0
 16 27  2  0  0  0  0
 16 28  1  0  0  0  0
 17 19  2  0  0  0  0
 17 33  1  0  0  0  0
 18 20  2  0  0  0  0
 18 34  1  0  0  0  0
 19 49  1  0  0  0  0
 20 35  1  0  0  0  0
 21 83  1  0  0  0  0
 22 84  1  0  0  0  0
 23 25  2  0  0  0  0
 23 83  1  0  0  0  0
 24 85  1  0  0  0  0
 25 86  1  0  0  0  0
 26 66  2  0  0  0  0
 27 67  1  0  0  0  0
 27 70  1  0  0  0  0
 28 71  1  0  0  0  0
 28 78  2  0  0  0  0
 29 50  1  0  0  0  0
 29 72  1  0  0  0  0
 29 79  2  0  0  0  0
 30 63  1  0  0  0  0
 30 68  1  0  0  0  0
 30 80  2  0  0  0  0
 31 64  1  0  0  0  0
 31 73  1  0  0  0  0
 31 81  2  0  0  0  0
 32 69  1  0  0  0  0
 32 74  1  0  0  0  0
 32 82  2  0  0  0  0
 33 36  1  0  0  0  0
 34 50  1  0  0  0  0
 35 68  1  0  0  0  0
 36 38  1  0  0  0  0
 37 39  1  0  0  0  0
 37 43  1  0  0  0  0
 38 49  1  0  0  0  0
 39 53  1  0  0  0  0
 40 45  1  0  0  0  0
 40 51  1  0  0  0  0
 41 46  1  0  0  0  0
 41 54  1  0  0  0  0
 42 47  1  0  0  0  0
 42 54  1  0  0  0  0
 43 69  1  0  0  0  0
 44 53  1  0  0  0  0
 44 69  1  0  0  0  0
 45 75  1  0  0  0  0
 46 76  1  0  0  0  0
 47 76  1  0  0  0  0
 48 52  1  0  0  0  0
 48 75  1  0  0  0  0
 49 72  1  0  0  0  0
 50 68  1  0  0  0  0
 51 52  1  0  0  0  0
 51 60  1  0  0  0  0
 52 61  1  0  0  0  0
 53 67  1  0  0  0  0
 54 74  1  0  0  0  0
 55 64  1  0  0  0  0
 56 65  1  0  0  0  0
 57 65  1  0  0  0  0
 58 65  1  0  0  0  0
 59 77  1  0  0  0  0
 60 62  1  0  0  0  0
 61 84  1  0  0  0  0
 62 76  1  0  0  0  0
 63 65  1  0  0  0  0
 63 73  1  0  0  0  0
 64 77  1  0  0  0  0
 66 67  1  0  0  0  0
M  CHG  3  75   1  76   1  77   1
M  ISO  4  32 100  61 101  74 100  84 101
M  END
> <Batch ID>
0127

> <Smiles>
CNC(C)C(=O)NC(C(=O)N1Cc2cc([101O:1][101CH2:1]C3CNCCC3CCN3CCC([100NH:0][100C:0](=O)N4CCCC(n5nc(-c6ccc(Oc7ccc(F)cc7F)cc6)c(C(N)=O)c5N)C4)CC3)ccc2CC1C(=O)NC1CCCc2ccccc21)C(C)(C)C

> <Shape>
0.274

> <Color>
0.191

> <Negative vol penalty>
0.000

$$$$

  -OEChem-04052320403D

 84 93  0     1  0  0  0  0  0999 V2000
  -27.3134  -34.6355   25.2623 C   0  0  0  0  0  0  0  0  0  0  0  0
  -27.6151  -33.3690   24.7722 C   0  0  0  0  0  0  0  0  0  0  0  0
  -23.0349  -13.5169   24.6306 C   0  0  0  0  0  0  0  0  0  0  0  0
  -23.2278  -15.6818   23.5755 C   0  0  0  0  0  0  0  0  0  0  0  0
  -25.9945  -34.9668   25.5698 C   0  0  0  0  0  0  0  0  0  0  0  0
  -26.5981  -32.4325   24.5903 C   0  0  0  0  0  0  0  0  0  0  0  0
  -26.9620  -30.0049   20.1609 C   0  0  0  0  0  0  0  0  0  0  0  0
  -30.2948  -20.2808   18.1026 C   0  0  0  0  0  0  0  0  0  0  0  0
  -27.9947  -20.0652   17.3956 C   0  0  0  0  0  0  0  0  0  0  0  0
  -30.2251  -19.0278   18.7115 C   0  0  0  0  0  0  0  0  0  0  0  0
  -27.9250  -18.8122   18.0044 C   0  0  0  0  0  0  0  0  0  0  0  0
  -22.1310  -14.0463   25.5516 C   0  0  0  0  0  0  0  0  0  0  0  0
  -22.3239  -16.2112   24.4965 C   0  0  0  0  0  0  0  0  0  0  0  0
  -27.9078  -28.9846   20.0699 C   0  0  0  0  0  0  0  0  0  0  0  0
  -18.9772  -16.2404   24.9649 C   0  0  0  0  0  0  0  0  0  0  0  0
  -17.9655  -17.0669   24.4761 C   0  0  0  0  0  0  0  0  0  0  0  0
  -26.1663  -27.3488   20.4021 C   0  0  0  0  0  0  0  0  0  0  0  0
  -18.7773  -18.8765   25.8557 C   0  0  0  0  0  0  0  0  0  0  0  0
  -23.5834  -14.3347   23.6426 C   0  0  0  0  0  0  0  0  0  0  0  0
  -24.2884  -12.7395   21.7809 C   0  0  0  0  0  0  0  0  0  0  0  0
  -24.9594  -34.0372   25.3825 C   0  0  0  0  0  0  0  0  0  0  0  0
  -25.6105  -29.7047   20.3846 C   0  0  0  0  0  0  0  0  0  0  0  0
  -25.2642  -32.7512   24.8968 C   0  0  0  0  0  0  0  0  0  0  0  0
  -25.2049  -28.3669   20.4931 C   0  0  0  0  0  0  0  0  0  0  0  0
  -29.1796  -20.7995   17.4447 C   0  0  0  0  0  0  0  0  0  0  0  0
  -29.0402  -18.2935   18.6624 C   0  0  0  0  0  0  0  0  0  0  0  0
  -21.7754  -15.3934   25.4846 C   0  0  0  0  0  0  0  0  0  0  0  0
  -27.5105  -27.6565   20.1934 C   0  0  0  0  0  0  0  0  0  0  0  0
  -19.8889  -16.7319   25.8992 C   0  0  0  0  0  0  0  0  0  0  0  0
  -17.8656  -18.3850   24.9215 C   0  0  0  0  0  0  0  0  0  0  0  0
  -19.7890  -18.0500   26.3446 C   0  0  0  0  0  0  0  0  0  0  0  0
  -24.5176  -13.7886   22.6912 C   0  0  0  0  0  0  0  0  0  0  0  0
  -25.4783  -12.6021   21.1087 C   0  0  0  0  0  0  0  0  0  0  0  0
  -23.1057  -11.9590   21.5624 C   0  0  0  0  0  0  0  0  0  0  0  0
  -23.5180  -30.3608   22.6856 C   0  0  0  0  0  0  0  0  0  0  0  0
  -21.4269  -28.9410   20.6524 C   0  0  0  0  0  0  0  0  0  0  0  0
  -21.4065  -26.0546   18.4877 C   0  0  0  0  0  0  0  0  0  0  0  0
  -29.9831  -16.3602   19.9738 C   0  0  0  0  0  0  0  0  0  0  0  0
  -23.5555  -34.4253   25.7736 C   0  0  0  0  0  0  0  0  0  0  0  0
  -24.5987  -30.8155   20.4537 C   0  0  0  0  0  0  0  0  0  0  0  0
  -23.7633  -27.9907   20.7135 C   0  0  0  0  0  0  0  0  0  0  0  0
  -22.4854  -33.5009   25.1986 C   0  0  0  0  0  0  0  0  0  0  0  0
  -30.1916  -13.2369   21.6704 C   0  0  0  0  0  0  0  0  0  0  0  0
  -22.8787  -32.0405   25.3970 C   0  0  0  0  0  0  0  0  0  0  0  0
  -28.7387  -12.9255   22.0365 C   0  0  0  0  0  0  0  0  0  0  0  0
  -29.4602  -25.7198   18.1349 C   0  0  0  0  0  0  0  0  0  0  0  0
  -28.0664  -24.3248   19.6983 C   0  0  0  0  0  0  0  0  0  0  0  0
  -30.4960  -14.7300   21.7778 C   0  0  0  0  0  0  0  0  0  0  0  0
  -28.1277  -15.2939   21.4007 C   0  0  0  0  0  0  0  0  0  0  0  0
  -29.3823  -24.6196   17.0882 C   0  0  0  0  0  0  0  0  0  0  0  0
  -27.9908  -23.2276   18.6482 C   0  0  0  0  0  0  0  0  0  0  0  0
  -24.1852  -31.7163   24.6625 C   0  0  1  0  0  0  0  0  0  0  0  0
  -23.3264  -30.4194   21.1964 C   0  0  1  0  0  0  0  0  0  0  0  0
  -27.7559  -13.8103   21.2447 C   0  0  2  0  0  0  0  0  0  0  0  0
  -28.2526  -25.7013   19.0681 C   0  0  0  0  0  0  0  0  0  1  0  0
  -20.1015  -25.5945   16.3942 C   0  0  0  0  0  0  0  0  0  0  0  0
  -19.4471  -27.5782   22.5321 C   0  0  0  0  0  0  0  0  0  0  0  0
  -19.1036  -25.8201   20.7830 C   0  0  0  0  0  0  0  0  0  0  0  0
  -18.5092  -28.1935   20.2968 C   0  0  0  0  0  0  0  0  0  0  0  0
  -23.8661  -25.5019   16.9373 C   0  0  0  0  0  0  0  0  0  0  0  0
  -29.2546  -22.1473   16.7898 C   0  0  0  0  0  0  0  0  0  0  0  0
  -20.9447  -27.5280   20.4295 C   0  0  1  0  0  0  0  0  0  0  0  0
  -21.4310  -26.0568   16.9699 C   0  0  2  0  0  0  0  0  0  0  0  0
  -19.5272  -27.2854   21.0205 C   0  0  0  0  0  0  0  0  0  0  0  0
  -25.7557  -14.2825   22.6076 N   0  0  0  0  0  0  0  0  0  0  0  0
  -26.3153  -13.5405   21.6369 N   0  0  0  0  0  0  0  0  0  0  0  0
  -22.8125  -29.1128   20.7803 N   0  0  0  0  0  0  0  0  0  0  0  0
  -29.5274  -15.5050   20.9993 N   0  0  0  0  0  0  0  0  0  0  0  0
  -25.8797  -11.7714   20.1233 N   0  0  0  0  0  0  0  0  0  0  0  0
  -21.9720  -12.2318   22.3400 N   0  0  0  0  0  0  0  0  0  0  0  0
  -28.9692  -17.0204   19.2805 N   0  0  0  0  0  0  0  0  0  0  0  0
  -23.9409  -31.5512   23.2456 N   0  0  0  0  0  0  0  0  0  0  0  0
  -21.0434  -27.2845   18.9944 N   0  0  0  0  0  0  0  0  0  0  0  0
  -29.2220  -23.2836   17.7746 N   0  3  0  0  0  0  0  0  0  0  0  0
  -22.5014  -25.1496   16.4678 N   0  3  0  0  0  0  0  0  0  0  0  0
  -23.0609  -11.0357   20.7144 O   0  0  0  0  0  0  0  0  0  0  0  0
  -23.2971  -29.3136   23.2824 O   0  0  0  0  0  0  0  0  0  0  0  0
  -20.6051  -29.8595   20.7037 O   0  0  0  0  0  0  0  0  0  0  0  0
  -21.6783  -25.0602   19.1569 O   0  0  0  0  0  0  0  0  0  0  0  0
  -31.1829  -16.4761   19.7107 O   0  0  0  0  0  0  0  0  0  0  0  0
  -20.8932  -15.9103   26.3830 O   0  0  0  0  0  0  0  0  0  0  0  0
  -28.4317  -26.6587   20.1055 O   0  0  0  0  0  0  0  0  0  1  0  0
  -16.8949  -19.1790   24.4508 F   0  0  0  0  0  0  0  0  0  0  0  0
  -20.6627  -18.5282   27.2411 F   0  0  0  0  0  0  0  0  0  0  0  0
  1  2  1  0  0  0  0
  1  5  2  0  0  0  0
  2  6  2  0  0  0  0
  3 12  2  0  0  0  0
  3 19  1  0  0  0  0
  4 13  1  0  0  0  0
  4 19  2  0  0  0  0
  5 21  1  0  0  0  0
  6 23  1  0  0  0  0
  7 14  2  0  0  0  0
  7 22  1  0  0  0  0
  8 10  2  0  0  0  0
  8 25  1  0  0  0  0
  9 11  1  0  0  0  0
  9 25  2  0  0  0  0
 10 26  1  0  0  0  0
 11 26  2  0  0  0  0
 12 27  1  0  0  0  0
 13 27  2  0  0  0  0
 14 28  1  0  0  0  0
 15 16  2  0  0  0  0
 15 29  1  0  0  0  0
 16 30  1  0  0  0  0
 17 24  1  0  0  0  0
 17 28  2  0  0  0  0
 18 30  2  0  0  0  0
 18 31  1  0  0  0  0
 19 32  1  0  0  0  0
 20 32  1  0  0  0  0
 20 33  2  0  0  0  0
 20 34  1  0  0  0  0
 21 23  2  0  0  0  0
 21 39  1  0  0  0  0
 22 24  2  0  0  0  0
 22 40  1  0  0  0  0
 23 52  1  0  0  0  0
 24 41  1  0  0  0  0
 25 61  1  0  0  0  0
 26 71  1  0  0  0  0
 27 81  1  0  0  0  0
 28 82  1  0  0  0  0
 29 31  2  0  0  0  0
 29 81  1  0  0  0  0
 30 83  1  0  0  0  0
 31 84  1  0  0  0  0
 32 65  2  0  0  0  0
 33 66  1  0  0  0  0
 33 69  1  0  0  0  0
 34 70  1  0  0  0  0
 34 76  2  0  0  0  0
 35 53  1  0  0  0  0
 35 72  1  0  0  0  0
 35 77  2  0  0  0  0
 36 62  1  0  0  0  0
 36 67  1  0  0  0  0
 36 78  2  0  0  0  0
 37 63  1  0  0  0  0
 37 73  1  0  0  0  0
 37 79  2  0  0  0  0
 38 68  1  0  0  0  0
 38 71  1  0  0  0  0
 38 80  2  0  0  0  0
 39 42  1  0  0  0  0
 40 53  1  0  0  0  0
 41 67  1  0  0  0  0
 42 44  1  0  0  0  0
 43 45  1  0  0  0  0
 43 48  1  0  0  0  0
 44 52  1  0  0  0  0
 45 54  1  0  0  0  0
 46 50  1  0  0  0  0
 46 55  1  0  0  0  0
 47 51  1  0  0  0  0
 47 55  1  0  0  0  0
 48 68  1  0  0  0  0
 49 54  1  0  0  0  0
 49 68  1  0  0  0  0
 50 74  1  0  0  0  0
 51 74  1  0  0  0  0
 52 72  1  0  0  0  0
 53 67  1  0  0  0  0
 54 66  1  0  0  0  0
 55 82  1  0  0  0  0
 56 63  1  0  0  0  0
 57 64  1  0  0  0  0
 58 64  1  0  0  0  0
 59 64  1  0  0  0  0
 60 75  1  0  0  0  0
 61 74  1  0  0  0  0
 62 64  1  0  0  0  0
 62 73  1  0  0  0  0
 63 75  1  0  0  0  0
 65 66  1  0  0  0  0
M  CHG  2  74   1  75   1
M  ISO  4  38 100  55 101  71 100  82 101
M  END
> <Batch ID>
0127

> <Smiles>
CNC(C)C(=O)NC(C(=O)N1Cc2cc([101O:1][101CH:1]3CCN(Cc4ccc([100NH:0][100C:0](=O)N5CCCC(n6nc(-c7ccc(Oc8ccc(F)cc8F)cc7)c(C(N)=O)c6N)C5)cc4)CC3)ccc2CC1C(=O)NC1CCCc2ccccc21)C(C)(C)C

> <Shape>
0.254

> <Color>
0.085

> <Negative vol penalty>
0.000

$$$$

  -OEChem-04052320403D

 86 95  0     1  0  0  0  0  0999 V2000
  -23.0212  -21.1754   31.3700 C   0  0  0  0  0  0  0  0  0  0  0  0
  -22.9882  -20.9210   30.0027 C   0  0  0  0  0  0  0  0  0  0  0  0
  -22.6353  -10.3101   20.3483 C   0  0  0  0  0  0  0  0  0  0  0  0
  -24.1247   -9.8347   22.1903 C   0  0  0  0  0  0  0  0  0  0  0  0
  -22.3068  -22.2514   31.8951 C   0  0  0  0  0  0  0  0  0  0  0  0
  -22.2399  -21.7418   29.1597 C   0  0  0  0  0  0  0  0  0  0  0  0
  -24.7508  -23.0051   24.9473 C   0  0  0  0  0  0  0  0  0  0  0  0
  -21.8547   -9.2074   20.6949 C   0  0  0  0  0  0  0  0  0  0  0  0
  -23.3440   -8.7320   22.5370 C   0  0  0  0  0  0  0  0  0  0  0  0
  -24.8233  -22.0465   23.9376 C   0  0  0  0  0  0  0  0  0  0  0  0
  -20.4344   -8.1518   24.1551 C   0  0  0  0  0  0  0  0  0  0  0  0
  -20.1265   -7.9760   25.5041 C   0  0  0  0  0  0  0  0  0  0  0  0
  -23.0343  -23.1585   22.7618 C   0  0  0  0  0  0  0  0  0  0  0  0
  -21.2331   -5.8285   25.4769 C   0  0  0  0  0  0  0  0  0  0  0  0
  -23.7704  -10.6238   21.0960 C   0  0  0  0  0  0  0  0  0  0  0  0
  -24.1700  -13.1086   20.6795 C   0  0  0  0  0  0  0  0  0  0  0  0
  -21.5571  -23.0917   31.0568 C   0  0  0  0  0  0  0  0  0  0  0  0
  -23.8106  -24.0432   24.8771 C   0  0  0  0  0  0  0  0  0  0  0  0
  -21.5137  -22.8293   29.6742 C   0  0  0  0  0  0  0  0  0  0  0  0
  -22.9537  -24.1304   23.7706 C   0  0  0  0  0  0  0  0  0  0  0  0
  -22.2090   -8.4183   21.7892 C   0  0  0  0  0  0  0  0  0  0  0  0
  -23.9631  -22.1214   22.8460 C   0  0  0  0  0  0  0  0  0  0  0  0
  -21.1417   -7.1659   23.4669 C   0  0  0  0  0  0  0  0  0  0  0  0
  -20.5258   -6.8144   26.1650 C   0  0  0  0  0  0  0  0  0  0  0  0
  -21.5410   -6.0043   24.1278 C   0  0  0  0  0  0  0  0  0  0  0  0
  -24.5775  -11.7624   20.7382 C   0  0  0  0  0  0  0  0  0  0  0  0
  -25.2969  -13.7920   20.2930 C   0  0  0  0  0  0  0  0  0  0  0  0
  -22.8874  -13.6894   20.9504 C   0  0  0  0  0  0  0  0  0  0  0  0
  -21.3440  -24.9599   26.6601 C   0  0  0  0  0  0  0  0  0  0  0  0
  -21.2973  -27.4739   24.6108 C   0  0  0  0  0  0  0  0  0  0  0  0
  -22.0959  -28.7204   21.5359 C   0  0  0  0  0  0  0  0  0  0  0  0
  -30.7790  -14.7580   20.6909 C   0  0  0  0  0  0  0  0  0  0  0  0
  -20.7631  -24.2143   31.6765 C   0  0  0  0  0  0  0  0  0  0  0  0
  -23.7631  -25.0846   25.9613 C   0  0  0  0  0  0  0  0  0  0  0  0
  -21.9402  -25.2366   23.6378 C   0  0  0  0  0  0  0  0  0  0  0  0
  -20.2964  -25.2598   30.6669 C   0  0  0  0  0  0  0  0  0  0  0  0
  -29.7384  -12.1036   18.5584 C   0  0  0  0  0  0  0  0  0  0  0  0
  -19.6945  -24.5845   29.4387 C   0  0  0  0  0  0  0  0  0  0  0  0
  -26.4954  -18.9525   20.1115 C   0  0  0  0  0  0  0  0  0  0  0  0
  -27.6558  -21.0796   20.8361 C   0  0  0  0  0  0  0  0  0  0  0  0
  -28.2719  -11.8854   18.9350 C   0  0  0  0  0  0  0  0  0  0  0  0
  -25.1509  -19.5559   20.5064 C   0  0  0  0  0  0  0  0  0  0  0  0
  -26.3081  -21.6769   21.2297 C   0  0  0  0  0  0  0  0  0  0  0  0
  -28.1701  -19.5961   16.9419 C   0  0  0  0  0  0  0  0  0  0  0  0
  -30.5862  -12.4639   19.7763 C   0  0  0  0  0  0  0  0  0  0  0  0
  -28.6200  -13.3893   20.9389 C   0  0  0  0  0  0  0  0  0  0  0  0
  -28.6354  -18.9510   15.6510 C   0  0  0  0  0  0  0  0  0  0  0  0
  -30.2552  -18.5739   17.4374 C   0  0  0  0  0  0  0  0  0  0  0  0
  -20.7335  -23.7118   28.7242 C   0  0  1  0  0  0  0  0  0  0  0  0
  -22.4205  -25.8048   26.0397 C   0  0  1  0  0  0  0  0  0  0  0  0
  -27.5081  -20.0373   19.7190 C   0  0  0  0  0  0  0  0  0  0  0  0
  -28.8589  -18.7584   18.0108 C   0  0  1  0  0  0  0  0  0  0  0  0
  -27.7148  -13.0785   19.7346 C   0  0  2  0  0  0  0  0  0  0  0  0
  -25.3022  -20.5942   21.6150 C   0  0  0  0  0  0  0  0  0  1  0  0
  -21.8956  -30.7952   20.1386 C   0  0  0  0  0  0  0  0  0  0  0  0
  -18.3542  -26.8467   24.1058 C   0  0  0  0  0  0  0  0  0  0  0  0
  -18.4696  -28.2883   22.0621 C   0  0  0  0  0  0  0  0  0  0  0  0
  -18.8811  -29.2827   24.3125 C   0  0  0  0  0  0  0  0  0  0  0  0
  -25.0345  -29.0016   21.3244 C   0  0  0  0  0  0  0  0  0  0  0  0
  -30.8143  -17.0476   21.6480 C   0  0  0  0  0  0  0  0  0  0  0  0
  -30.6133  -18.0630   20.5386 C   0  0  0  0  0  0  0  0  0  0  0  0
  -20.6255  -27.7646   23.2905 C   0  0  1  0  0  0  0  0  0  0  0  0
  -22.7625  -30.0184   21.1172 C   0  0  2  0  0  0  0  0  0  0  0  0
  -28.8612  -19.4145   19.3801 C   0  0  2  0  0  0  0  0  0  0  0  0
  -19.1003  -28.0235   23.4459 C   0  0  0  0  0  0  0  0  0  0  0  0
  -25.8630  -11.5983   20.4146 N   0  0  0  0  0  0  0  0  0  0  0  0
  -26.2729  -12.8503   20.1488 N   0  0  0  0  0  0  0  0  0  0  0  0
  -21.9283  -26.2273   24.7269 N   0  0  0  0  0  0  0  0  0  0  0  0
  -30.0045  -13.6037   20.4895 N   0  0  0  0  0  0  0  0  0  0  0  0
  -25.5383  -15.1006   20.0656 N   0  0  0  0  0  0  0  0  0  0  0  0
  -22.6059  -14.1073   22.2582 N   0  0  0  0  0  0  0  0  0  0  0  0
  -21.6323  -24.5338   27.9426 N   0  0  0  0  0  0  0  0  0  0  0  0
  -21.3620  -28.8733   22.6931 N   0  0  0  0  0  0  0  0  0  0  0  0
  -30.1495  -15.7939   21.3701 N   0  0  0  0  0  0  0  0  0  0  0  0
  -30.0273  -18.4760   15.9554 N   0  3  0  0  0  0  0  0  0  0  0  0
  -24.0737  -29.7407   20.4656 N   0  3  0  0  0  0  0  0  0  0  0  0
  -29.1668  -18.3819   20.4044 N   0  3  0  0  0  0  0  0  0  0  0  0
  -22.0107  -13.8186   20.0625 O   0  0  0  0  0  0  0  0  0  0  0  0
  -20.3264  -24.7141   26.0231 O   0  0  0  0  0  0  0  0  0  0  0  0
  -21.2695  -28.3246   25.5036 O   0  0  0  0  0  0  0  0  0  0  0  0
  -22.2115  -27.6763   20.8979 O   0  0  0  0  0  0  0  0  0  0  0  0
  -31.9435  -14.8601   20.2901 O   0  0  0  0  0  0  0  0  0  0  0  0
  -21.4473   -7.3423   22.1278 O   0  0  0  0  0  0  0  0  0  0  0  0
  -24.0313  -21.1867   21.8594 O   0  0  0  0  0  0  0  0  0  1  0  0
  -20.2314   -6.6464   27.4609 F   0  0  0  0  0  0  0  0  0  0  0  0
  -22.2217   -5.0542   23.4723 F   0  0  0  0  0  0  0  0  0  0  0  0
  1  2  1  0  0  0  0
  1  5  2  0  0  0  0
  2  6  2  0  0  0  0
  3  8  2  0  0  0  0
  3 15  1  0  0  0  0
  4  9  1  0  0  0  0
  4 15  2  0  0  0  0
  5 17  1  0  0  0  0
  6 19  1  0  0  0  0
  7 10  2  0  0  0  0
  7 18  1  0  0  0  0
  8 21  1  0  0  0  0
  9 21  2  0  0  0  0
 10 22  1  0  0  0  0
 11 12  2  0  0  0  0
 11 23  1  0  0  0  0
 12 24  1  0  0  0  0
 13 20  1  0  0  0  0
 13 22  2  0  0  0  0
 14 24  2  0  0  0  0
 14 25  1  0  0  0  0
 15 26  1  0  0  0  0
 16 26  1  0  0  0  0
 16 27  2  0  0  0  0
 16 28  1  0  0  0  0
 17 19  2  0  0  0  0
 17 33  1  0  0  0  0
 18 20  2  0  0  0  0
 18 34  1  0  0  0  0
 19 49  1  0  0  0  0
 20 35  1  0  0  0  0
 21 83  1  0  0  0  0
 22 84  1  0  0  0  0
 23 25  2  0  0  0  0
 23 83  1  0  0  0  0
 24 85  1  0  0  0  0
 25 86  1  0  0  0  0
 26 66  2  0  0  0  0
 27 67  1  0  0  0  0
 27 70  1  0  0  0  0
 28 71  1  0  0  0  0
 28 78  2  0  0  0  0
 29 50  1  0  0  0  0
 29 72  1  0  0  0  0
 29 79  2  0  0  0  0
 30 62  1  0  0  0  0
 30 68  1  0  0  0  0
 30 80  2  0  0  0  0
 31 63  1  0  0  0  0
 31 73  1  0  0  0  0
 31 81  2  0  0  0  0
 32 69  1  0  0  0  0
 32 74  1  0  0  0  0
 32 82  2  0  0  0  0
 33 36  1  0  0  0  0
 34 50  1  0  0  0  0
 35 68  1  0  0  0  0
 36 38  1  0  0  0  0
 37 41  1  0  0  0  0
 37 45  1  0  0  0  0
 38 49  1  0  0  0  0
 39 42  1  0  0  0  0
 39 51  1  0  0  0  0
 40 43  1  0  0  0  0
 40 51  1  0  0  0  0
 41 53  1  0  0  0  0
 42 54  1  0  0  0  0
 43 54  1  0  0  0  0
 44 47  1  0  0  0  0
 44 52  1  0  0  0  0
 45 69  1  0  0  0  0
 46 53  1  0  0  0  0
 46 69  1  0  0  0  0
 47 75  1  0  0  0  0
 48 52  1  0  0  0  0
 48 75  1  0  0  0  0
 49 72  1  0  0  0  0
 50 68  1  0  0  0  0
 51 64  1  0  0  0  0
 52 64  1  0  0  0  0
 53 67  1  0  0  0  0
 54 84  1  0  0  0  0
 55 63  1  0  0  0  0
 56 65  1  0  0  0  0
 57 65  1  0  0  0  0
 58 65  1  0  0  0  0
 59 76  1  0  0  0  0
 60 61  1  0  0  0  0
 60 74  1  0  0  0  0
 61 77  1  0  0  0  0
 62 65  1  0  0  0  0
 62 73  1  0  0  0  0
 63 76  1  0  0  0  0
 64 77  1  0  0  0  0
 66 67  1  0  0  0  0
M  CHG  3  75   1  76   1  77   1
M  ISO  4  32 100  54 101  74 100  84 101
M  END
> <Batch ID>
0127

> <Smiles>
CNC(C)C(=O)NC(C(=O)N1Cc2cc([101O:1][101CH:1]3CCC(C(NCC[100NH:0][100C:0](=O)N4CCCC(n5nc(-c6ccc(Oc7ccc(F)cc7F)cc6)c(C(N)=O)c5N)C4)C4CCNC4)CC3)ccc2CC1C(=O)NC1CCCc2ccccc21)C(C)(C)C

> <Shape>
0.281

> <Color>
0.158

> <Negative vol penalty>
0.000

$$$$

  -OEChem-04052320403D

 85 94  0     1  0  0  0  0  0999 V2000
  -19.3496  -28.2758   21.2169 C   0  0  0  0  0  0  0  0  0  0  0  0
  -20.3539  -28.5487   22.1401 C   0  0  0  0  0  0  0  0  0  0  0  0
  -22.7308  -10.2786   20.1681 C   0  0  0  0  0  0  0  0  0  0  0  0
  -24.2775   -9.5224   21.8630 C   0  0  0  0  0  0  0  0  0  0  0  0
  -18.4166  -27.2735   21.4793 C   0  0  0  0  0  0  0  0  0  0  0  0
  -20.4251  -27.8201   23.3269 C   0  0  0  0  0  0  0  0  0  0  0  0
  -26.3261  -23.6420   26.2845 C   0  0  0  0  0  0  0  0  0  0  0  0
  -21.9965   -9.1016   20.3130 C   0  0  0  0  0  0  0  0  0  0  0  0
  -23.5433   -8.3453   22.0079 C   0  0  0  0  0  0  0  0  0  0  0  0
  -27.2428  -22.7445   26.8325 C   0  0  0  0  0  0  0  0  0  0  0  0
  -19.5110   -6.4550   20.4934 C   0  0  0  0  0  0  0  0  0  0  0  0
  -18.1219   -6.5614   20.5623 C   0  0  0  0  0  0  0  0  0  0  0  0
  -25.4398  -21.5398   27.9029 C   0  0  0  0  0  0  0  0  0  0  0  0
  -18.3256   -7.9429   22.5339 C   0  0  0  0  0  0  0  0  0  0  0  0
  -23.8713  -10.4890   20.9431 C   0  0  0  0  0  0  0  0  0  0  0  0
  -24.1759  -13.0212   20.9965 C   0  0  0  0  0  0  0  0  0  0  0  0
  -18.4822  -26.5257   22.6656 C   0  0  0  0  0  0  0  0  0  0  0  0
  -24.9597  -23.4826   26.5314 C   0  0  0  0  0  0  0  0  0  0  0  0
  -19.4913  -26.8078   23.6061 C   0  0  0  0  0  0  0  0  0  0  0  0
  -24.5158  -22.4284   27.3465 C   0  0  0  0  0  0  0  0  0  0  0  0
  -22.4027   -8.1349   21.2329 C   0  0  0  0  0  0  0  0  0  0  0  0
  -26.8007  -21.6961   27.6399 C   0  0  0  0  0  0  0  0  0  0  0  0
  -20.3074   -7.0924   21.4448 C   0  0  0  0  0  0  0  0  0  0  0  0
  -17.5292   -7.3054   21.5825 C   0  0  0  0  0  0  0  0  0  0  0  0
  -19.7147   -7.8364   22.4650 C   0  0  0  0  0  0  0  0  0  0  0  0
  -24.6306  -11.7044   20.7935 C   0  0  0  0  0  0  0  0  0  0  0  0
  -25.2696  -13.8074   20.7277 C   0  0  0  0  0  0  0  0  0  0  0  0
  -22.8808  -13.4916   21.3928 C   0  0  0  0  0  0  0  0  0  0  0  0
  -21.4756  -24.7427   25.9408 C   0  0  0  0  0  0  0  0  0  0  0  0
  -21.3466  -21.6799   25.8273 C   0  0  0  0  0  0  0  0  0  0  0  0
  -21.7065  -18.3197   25.3616 C   0  0  0  0  0  0  0  0  0  0  0  0
  -31.1671  -12.7890   20.9103 C   0  0  0  0  0  0  0  0  0  0  0  0
  -17.4231  -25.4842   22.9267 C   0  0  0  0  0  0  0  0  0  0  0  0
  -23.9419  -24.4615   26.0122 C   0  0  0  0  0  0  0  0  0  0  0  0
  -23.0396  -22.3162   27.6132 C   0  0  0  0  0  0  0  0  0  0  0  0
  -17.7926  -24.5050   24.0380 C   0  0  0  0  0  0  0  0  0  0  0  0
  -29.2701  -13.8868   18.1045 C   0  0  0  0  0  0  0  0  0  0  0  0
  -18.3382  -25.2538   25.2497 C   0  0  0  0  0  0  0  0  0  0  0  0
  -27.9899  -17.0807   28.4853 C   0  0  0  0  0  0  0  0  0  0  0  0
  -29.0630  -18.6752   26.8474 C   0  0  0  0  0  0  0  0  0  0  0  0
  -29.1421  -16.0981   28.2835 C   0  0  0  0  0  0  0  0  0  0  0  0
  -30.2151  -17.6926   26.6456 C   0  0  0  0  0  0  0  0  0  0  0  0
  -27.8249  -13.5708   18.4938 C   0  0  0  0  0  0  0  0  0  0  0  0
  -30.2378  -12.8212   18.6143 C   0  0  0  0  0  0  0  0  0  0  0  0
  -28.7034  -12.2284   20.4495 C   0  0  0  0  0  0  0  0  0  0  0  0
  -30.6221  -14.6692   24.3882 C   0  0  0  0  0  0  0  0  0  0  0  0
  -32.5792  -14.4734   25.0924 C   0  0  0  0  0  0  0  0  0  0  0  0
  -19.6165  -26.0225   24.8937 C   0  0  1  0  0  0  0  0  0  0  0  0
  -22.6031  -23.7995   25.6399 C   0  0  1  0  0  0  0  0  0  0  0  0
  -28.4300  -18.5290   28.2369 C   0  0  0  0  0  0  0  0  0  0  0  0
  -29.7749  -16.2443   26.8939 C   0  0  0  0  0  0  0  0  0  0  0  0
  -31.9246  -14.1690   23.7282 C   0  0  0  0  0  0  0  0  0  0  0  0
  -27.6970  -13.3038   20.0056 C   0  0  2  0  0  0  0  0  0  0  0  0
  -20.3872  -16.2523   24.8298 C   0  0  0  0  0  0  0  0  0  0  0  0
  -32.0814  -15.6077   27.6996 C   0  0  0  0  0  0  0  0  0  0  0  0
  -20.2647  -21.6412   28.6790 C   0  0  0  0  0  0  0  0  0  0  0  0
  -19.7932  -19.1992   28.3914 C   0  0  0  0  0  0  0  0  0  0  0  0
  -18.6443  -20.8693   26.9375 C   0  0  0  0  0  0  0  0  0  0  0  0
  -23.2502  -17.8315   22.8842 C   0  0  0  0  0  0  0  0  0  0  0  0
  -31.9470  -12.7277   23.2655 C   0  0  0  0  0  0  0  0  0  0  0  0
  -27.2502  -19.4862   28.3958 C   0  0  0  0  0  0  0  0  0  1  0  0
  -21.1016  -20.3955   26.5781 C   0  0  1  0  0  0  0  0  0  0  0  0
  -21.2131  -17.3963   24.2624 C   0  0  2  0  0  0  0  0  0  0  0  0
  -30.9547  -15.2871   26.7349 C   0  0  2  0  0  0  0  0  0  0  0  0
  -19.9772  -20.5365   27.6427 C   0  0  0  0  0  0  0  0  0  0  0  0
  -25.9131  -11.6530   20.4240 N   0  0  0  0  0  0  0  0  0  0  0  0
  -26.2737  -12.9472   20.3927 N   0  0  0  0  0  0  0  0  0  0  0  0
  -22.2851  -22.5632   26.3745 N   0  0  0  0  0  0  0  0  0  0  0  0
  -30.0665  -12.6170   20.0547 N   0  0  0  0  0  0  0  0  0  0  0  0
  -25.4607  -15.1436   20.7474 N   0  0  0  0  0  0  0  0  0  0  0  0
  -22.6154  -13.6452   22.7604 N   0  0  0  0  0  0  0  0  0  0  0  0
  -20.7469  -25.1211   24.8294 N   0  0  0  0  0  0  0  0  0  0  0  0
  -20.8434  -19.3751   25.5679 N   0  0  0  0  0  0  0  0  0  0  0  0
  -30.9168  -12.5823   22.2614 N   0  0  0  0  0  0  0  0  0  0  0  0
  -31.4667  -15.4077   25.3450 N   0  3  0  0  0  0  0  0  0  0  0  0
  -22.3657  -16.8184   23.5152 N   0  3  0  0  0  0  0  0  0  0  0  0
  -21.9800  -13.7520   20.5595 O   0  0  0  0  0  0  0  0  0  0  0  0
  -21.2792  -25.1005   27.0963 O   0  0  0  0  0  0  0  0  0  0  0  0
  -20.7201  -21.8992   24.7868 O   0  0  0  0  0  0  0  0  0  0  0  0
  -22.7511  -18.1223   25.9784 O   0  0  0  0  0  0  0  0  0  0  0  0
  -32.2884  -13.1086   20.5011 O   0  0  0  0  0  0  0  0  0  0  0  0
  -21.6863   -6.9863   21.3746 O   0  0  0  0  0  0  0  0  0  0  0  0
  -27.7006  -20.8209   28.1679 O   0  0  0  0  0  0  0  0  0  1  0  0
  -16.1953   -7.4089   21.6475 F   0  0  0  0  0  0  0  0  0  0  0  0
  -20.4746   -8.4520   23.3812 F   0  0  0  0  0  0  0  0  0  0  0  0
  1  2  1  0  0  0  0
  1  5  2  0  0  0  0
  2  6  2  0  0  0  0
  3  8  2  0  0  0  0
  3 15  1  0  0  0  0
  4  9  1  0  0  0  0
  4 15  2  0  0  0  0
  5 17  1  0  0  0  0
  6 19  1  0  0  0  0
  7 10  2  0  0  0  0
  7 18  1  0  0  0  0
  8 21  1  0  0  0  0
  9 21  2  0  0  0  0
 10 22  1  0  0  0  0
 11 12  2  0  0  0  0
 11 23  1  0  0  0  0
 12 24  1  0  0  0  0
 13 20  1  0  0  0  0
 13 22  2  0  0  0  0
 14 24  2  0  0  0  0
 14 25  1  0  0  0  0
 15 26  1  0  0  0  0
 16 26  1  0  0  0  0
 16 27  2  0  0  0  0
 16 28  1  0  0  0  0
 17 19  2  0  0  0  0
 17 33  1  0  0  0  0
 18 20  2  0  0  0  0
 18 34  1  0  0  0  0
 19 48  1  0  0  0  0
 20 35  1  0  0  0  0
 21 82  1  0  0  0  0
 22 83  1  0  0  0  0
 23 25  2  0  0  0  0
 23 82  1  0  0  0  0
 24 84  1  0  0  0  0
 25 85  1  0  0  0  0
 26 66  2  0  0  0  0
 27 67  1  0  0  0  0
 27 70  1  0  0  0  0
 28 71  1  0  0  0  0
 28 77  2  0  0  0  0
 29 49  1  0  0  0  0
 29 72  1  0  0  0  0
 29 78  2  0  0  0  0
 30 62  1  0  0  0  0
 30 68  1  0  0  0  0
 30 79  2  0  0  0  0
 31 63  1  0  0  0  0
 31 73  1  0  0  0  0
 31 80  2  0  0  0  0
 32 69  1  0  0  0  0
 32 74  1  0  0  0  0
 32 81  2  0  0  0  0
 33 36  1  0  0  0  0
 34 49  1  0  0  0  0
 35 68  1  0  0  0  0
 36 38  1  0  0  0  0
 37 43  1  0  0  0  0
 37 44  1  0  0  0  0
 38 48  1  0  0  0  0
 39 41  1  0  0  0  0
 39 50  1  0  0  0  0
 40 42  1  0  0  0  0
 40 50  1  0  0  0  0
 41 51  1  0  0  0  0
 42 51  1  0  0  0  0
 43 53  1  0  0  0  0
 44 69  1  0  0  0  0
 45 53  1  0  0  0  0
 45 69  1  0  0  0  0
 46 52  1  0  0  0  0
 46 75  1  0  0  0  0
 47 52  1  0  0  0  0
 47 75  1  0  0  0  0
 48 72  1  0  0  0  0
 49 68  1  0  0  0  0
 50 61  1  0  0  0  0
 51 64  1  0  0  0  0
 52 60  1  0  0  0  0
 53 67  1  0  0  0  0
 54 63  1  0  0  0  0
 55 64  1  0  0  0  0
 56 65  1  0  0  0  0
 57 65  1  0  0  0  0
 58 65  1  0  0  0  0
 59 76  1  0  0  0  0
 60 74  1  0  0  0  0
 61 83  1  0  0  0  0
 62 65  1  0  0  0  0
 62 73  1  0  0  0  0
 63 76  1  0  0  0  0
 64 75  1  0  0  0  0
 66 67  1  0  0  0  0
M  CHG  2  75   1  76   1
M  ISO  4  32 100  61 101  74 100  83 101
M  END
> <Batch ID>
0127

> <Smiles>
CNC(C)C(=O)NC(C(=O)N1Cc2cc([101O:1][101CH2:1]C3CCC(C(C)N4CC(C[100NH:0][100C:0](=O)N5CCCC(n6nc(-c7ccc(Oc8ccc(F)cc8F)cc7)c(C(N)=O)c6N)C5)C4)CC3)ccc2CC1C(=O)NC1CCCc2ccccc21)C(C)(C)C

> <Shape>
0.161

> <Color>
0.168

> <Negative vol penalty>
0.000

$$$$

  -OEChem-04052320403D

 84 93  0     1  0  0  0  0  0999 V2000
  -32.4419  -32.8926   23.4889 C   0  0  0  0  0  0  0  0  0  0  0  0
  -32.2719  -31.5906   23.9486 C   0  0  0  0  0  0  0  0  0  0  0  0
  -23.0741   -9.9147   19.9443 C   0  0  0  0  0  0  0  0  0  0  0  0
  -23.8308   -9.9236   22.2387 C   0  0  0  0  0  0  0  0  0  0  0  0
  -31.5553  -33.4211   22.5516 C   0  0  0  0  0  0  0  0  0  0  0  0
  -31.2143  -30.8166   23.4720 C   0  0  0  0  0  0  0  0  0  0  0  0
  -32.6351  -26.1012   22.2924 C   0  0  0  0  0  0  0  0  0  0  0  0
  -32.7433  -17.4321   23.4188 C   0  0  0  0  0  0  0  0  0  0  0  0
  -32.1279  -16.5582   22.5226 C   0  0  0  0  0  0  0  0  0  0  0  0
  -22.3181   -8.7704   20.1980 C   0  0  0  0  0  0  0  0  0  0  0  0
  -23.0747   -8.7792   22.4924 C   0  0  0  0  0  0  0  0  0  0  0  0
  -32.8062  -25.2052   23.3468 C   0  0  0  0  0  0  0  0  0  0  0  0
  -19.8376   -8.0171   23.0935 C   0  0  0  0  0  0  0  0  0  0  0  0
  -19.0786   -7.9899   24.2634 C   0  0  0  0  0  0  0  0  0  0  0  0
  -30.5841  -18.3299   24.0260 C   0  0  0  0  0  0  0  0  0  0  0  0
  -30.6303  -24.2671   22.8947 C   0  0  0  0  0  0  0  0  0  0  0  0
  -20.2990   -6.0430   25.0099 C   0  0  0  0  0  0  0  0  0  0  0  0
  -23.8305  -10.4914   20.9646 C   0  0  0  0  0  0  0  0  0  0  0  0
  -24.1985  -13.0123   20.8345 C   0  0  0  0  0  0  0  0  0  0  0  0
  -30.4920  -32.6499   22.0561 C   0  0  0  0  0  0  0  0  0  0  0  0
  -31.4537  -26.0941   21.5369 C   0  0  0  0  0  0  0  0  0  0  0  0
  -30.3118  -31.3358   22.5282 C   0  0  0  0  0  0  0  0  0  0  0  0
  -29.9687  -17.4561   23.1297 C   0  0  0  0  0  0  0  0  0  0  0  0
  -30.4477  -25.1623   21.8296 C   0  0  0  0  0  0  0  0  0  0  0  0
  -31.9714  -18.3179   24.1706 C   0  0  0  0  0  0  0  0  0  0  0  0
  -30.7406  -16.5702   22.3780 C   0  0  0  0  0  0  0  0  0  0  0  0
  -22.3183   -8.2026   21.4720 C   0  0  0  0  0  0  0  0  0  0  0  0
  -31.8025  -24.2899   23.6499 C   0  0  0  0  0  0  0  0  0  0  0  0
  -20.8273   -7.0572   22.8817 C   0  0  0  0  0  0  0  0  0  0  0  0
  -19.3093   -7.0029   25.2216 C   0  0  0  0  0  0  0  0  0  0  0  0
  -21.0580   -6.0702   23.8399 C   0  0  0  0  0  0  0  0  0  0  0  0
  -24.6122  -11.6732   20.7030 C   0  0  0  0  0  0  0  0  0  0  0  0
  -25.2988  -13.7490   20.4697 C   0  0  0  0  0  0  0  0  0  0  0  0
  -22.9327  -13.5429   21.2494 C   0  0  0  0  0  0  0  0  0  0  0  0
  -29.1305  -28.1925   20.9864 C   0  0  0  0  0  0  0  0  0  0  0  0
  -28.1100  -25.9274   18.9008 C   0  0  0  0  0  0  0  0  0  0  0  0
  -28.0761  -22.6413   17.9801 C   0  0  0  0  0  0  0  0  0  0  0  0
  -30.7752  -14.7391   20.6481 C   0  0  0  0  0  0  0  0  0  0  0  0
  -29.5315  -33.2806   21.0791 C   0  0  0  0  0  0  0  0  0  0  0  0
  -31.2957  -27.0493   20.3858 C   0  0  0  0  0  0  0  0  0  0  0  0
  -29.1691  -25.1002   21.0361 C   0  0  0  0  0  0  0  0  0  0  0  0
  -28.6575  -32.2675   20.3443 C   0  0  0  0  0  0  0  0  0  0  0  0
  -29.6394  -12.3269   18.2884 C   0  0  0  0  0  0  0  0  0  0  0  0
  -27.8770  -17.7019   21.6336 C   0  0  0  0  0  0  0  0  0  0  0  0
  -27.8065  -18.7907   22.6582 C   0  0  0  0  0  0  0  0  0  0  0  0
  -28.0782  -31.2521   21.3242 C   0  0  0  0  0  0  0  0  0  0  0  0
  -28.1962  -12.0520   18.7170 C   0  0  0  0  0  0  0  0  0  0  0  0
  -30.5551  -12.5514   19.4904 C   0  0  0  0  0  0  0  0  0  0  0  0
  -28.6537  -13.3012   20.8658 C   0  0  0  0  0  0  0  0  0  0  0  0
  -28.4812  -17.4883   22.9953 C   0  0  0  0  0  0  0  0  0  0  0  0
  -29.1914  -30.4566   22.0166 C   0  0  1  0  0  0  0  0  0  0  0  0
  -29.8379  -27.2961   20.0099 C   0  0  1  0  0  0  0  0  0  0  0  0
  -27.6809  -13.1330   19.6873 C   0  0  2  0  0  0  0  0  0  0  0  0
  -27.1242  -21.0891   16.2534 C   0  0  0  0  0  0  0  0  0  0  0  0
  -25.3975  -26.0459   20.2932 C   0  0  0  0  0  0  0  0  0  0  0  0
  -24.8168  -23.8723   19.1948 C   0  0  0  0  0  0  0  0  0  0  0  0
  -25.2842  -25.8869   17.7999 C   0  0  0  0  0  0  0  0  0  0  0  0
  -30.7681  -21.8613   17.0293 C   0  0  0  0  0  0  0  0  0  0  0  0
  -32.6336  -19.2565   25.1357 C   0  0  0  0  0  0  0  0  0  0  0  0
  -33.2793  -21.6238   25.6023 C   0  0  0  0  0  0  0  0  0  0  0  0
  -33.3007  -23.0041   24.9758 C   0  0  0  0  0  0  0  0  0  1  0  0
  -27.1940  -24.7304   18.9862 C   0  0  1  0  0  0  0  0  0  0  0  0
  -28.3034  -21.9688   16.6383 C   0  0  2  0  0  0  0  0  0  0  0  0
  -25.6963  -25.1360   19.0849 C   0  0  0  0  0  0  0  0  0  0  0  0
  -25.8766  -11.5626   20.2870 N   0  0  0  0  0  0  0  0  0  0  0  0
  -26.2668  -12.8417   20.1539 N   0  0  0  0  0  0  0  0  0  0  0  0
  -29.0591  -26.0590   19.9243 N   0  0  0  0  0  0  0  0  0  0  0  0
  -30.0055  -13.5916   20.3626 N   0  0  0  0  0  0  0  0  0  0  0  0
  -25.5230  -15.0779   20.3914 N   0  0  0  0  0  0  0  0  0  0  0  0
  -21.9110  -12.6456   21.5889 N   0  0  0  0  0  0  0  0  0  0  0  0
  -30.1362  -15.6742   21.4617 N   0  0  0  0  0  0  0  0  0  0  0  0
  -29.7115  -29.4381   21.1297 N   0  0  0  0  0  0  0  0  0  0  0  0
  -27.5112  -23.8908   17.8360 N   0  0  0  0  0  0  0  0  0  0  0  0
  -29.5275  -21.1200   16.6851 N   0  3  0  0  0  0  0  0  0  0  0  0
  -32.6831  -20.6597   24.6434 N   0  3  0  0  0  0  0  0  0  0  0  0
  -22.7091  -14.7761   21.3012 O   0  0  0  0  0  0  0  0  0  0  0  0
  -28.1306  -27.7849   21.5659 O   0  0  0  0  0  0  0  0  0  0  0  0
  -27.9924  -26.7126   17.9567 O   0  0  0  0  0  0  0  0  0  0  0  0
  -28.3670  -22.1098   19.0494 O   0  0  0  0  0  0  0  0  0  0  0  0
  -31.9066  -14.8943   20.1815 O   0  0  0  0  0  0  0  0  0  0  0  0
  -21.5805   -7.0861   21.7200 O   0  0  0  0  0  0  0  0  0  0  0  0
  -31.9667  -23.4147   24.6789 O   0  0  0  0  0  0  0  0  0  1  0  0
  -18.5814   -6.9778   26.3458 F   0  0  0  0  0  0  0  0  0  0  0  0
  -22.0081   -5.1460   23.6425 F   0  0  0  0  0  0  0  0  0  0  0  0
  1  2  1  0  0  0  0
  1  5  2  0  0  0  0
  2  6  2  0  0  0  0
  3 10  2  0  0  0  0
  3 18  1  0  0  0  0
  4 11  1  0  0  0  0
  4 18  2  0  0  0  0
  5 20  1  0  0  0  0
  6 22  1  0  0  0  0
  7 12  2  0  0  0  0
  7 21  1  0  0  0  0
  8  9  2  0  0  0  0
  8 25  1  0  0  0  0
  9 26  1  0  0  0  0
 10 27  1  0  0  0  0
 11 27  2  0  0  0  0
 12 28  1  0  0  0  0
 13 14  2  0  0  0  0
 13 29  1  0  0  0  0
 14 30  1  0  0  0  0
 15 23  1  0  0  0  0
 15 25  2  0  0  0  0
 16 24  1  0  0  0  0
 16 28  2  0  0  0  0
 17 30  2  0  0  0  0
 17 31  1  0  0  0  0
 18 32  1  0  0  0  0
 19 32  1  0  0  0  0
 19 33  2  0  0  0  0
 19 34  1  0  0  0  0
 20 22  2  0  0  0  0
 20 39  1  0  0  0  0
 21 24  2  0  0  0  0
 21 40  1  0  0  0  0
 22 51  1  0  0  0  0
 23 26  2  0  0  0  0
 23 50  1  0  0  0  0
 24 41  1  0  0  0  0
 25 59  1  0  0  0  0
 26 71  1  0  0  0  0
 27 81  1  0  0  0  0
 28 82  1  0  0  0  0
 29 31  2  0  0  0  0
 29 81  1  0  0  0  0
 30 83  1  0  0  0  0
 31 84  1  0  0  0  0
 32 65  2  0  0  0  0
 33 66  1  0  0  0  0
 33 69  1  0  0  0  0
 34 70  1  0  0  0  0
 34 76  2  0  0  0  0
 35 52  1  0  0  0  0
 35 72  1  0  0  0  0
 35 77  2  0  0  0  0
 36 62  1  0  0  0  0
 36 67  1  0  0  0  0
 36 78  2  0  0  0  0
 37 63  1  0  0  0  0
 37 73  1  0  0  0  0
 37 79  2  0  0  0  0
 38 68  1  0  0  0  0
 38 71  1  0  0  0  0
 38 80  2  0  0  0  0
 39 42  1  0  0  0  0
 40 52  1  0  0  0  0
 41 67  1  0  0  0  0
 42 46  1  0  0  0  0
 43 47  1  0  0  0  0
 43 48  1  0  0  0  0
 44 45  1  0  0  0  0
 44 50  1  0  0  0  0
 45 50  1  0  0  0  0
 46 51  1  0  0  0  0
 47 53  1  0  0  0  0
 48 68  1  0  0  0  0
 49 53  1  0  0  0  0
 49 68  1  0  0  0  0
 51 72  1  0  0  0  0
 52 67  1  0  0  0  0
 53 66  1  0  0  0  0
 54 63  1  0  0  0  0
 55 64  1  0  0  0  0
 56 64  1  0  0  0  0
 57 64  1  0  0  0  0
 58 74  1  0  0  0  0
 59 75  1  0  0  0  0
 60 61  1  0  0  0  0
 60 75  1  0  0  0  0
 61 82  1  0  0  0  0
 62 64  1  0  0  0  0
 62 73  1  0  0  0  0
 63 74  1  0  0  0  0
 65 66  1  0  0  0  0
M  CHG  2  74   1  75   1
M  ISO  4  38 100  61 101  71 100  82 101
M  END
> <Batch ID>
0127

> <Smiles>
CNC(C)C(=O)NC(C(=O)N1Cc2cc([101O:1][101CH2:1]CNCc3ccc([100NH:0][100C:0](=O)N4CCCC(n5nc(-c6ccc(Oc7ccc(F)cc7F)cc6)c(C(N)=O)c5N)C4)c(C4CC4)c3)ccc2CC1C(=O)NC1CCCc2ccccc21)C(C)(C)C

> <Shape>
0.243

> <Color>
0.200

> <Negative vol penalty>
0.000

$$$$

  -OEChem-04052320403D

 87 96  0     1  0  0  0  0  0999 V2000
  -21.0302  -25.8942   21.6207 C   0  0  0  0  0  0  0  0  0  0  0  0
  -21.0992  -24.7684   20.8063 C   0  0  0  0  0  0  0  0  0  0  0  0
  -28.5177  -12.1256   18.2503 C   0  0  0  0  0  0  0  0  0  0  0  0
  -26.6775  -26.0729   18.1844 C   0  0  0  0  0  0  0  0  0  0  0  0
  -26.7236  -26.1474   20.5988 C   0  0  0  0  0  0  0  0  0  0  0  0
  -21.9175  -26.0376   22.6865 C   0  0  0  0  0  0  0  0  0  0  0  0
  -22.0564  -23.7858   21.0567 C   0  0  0  0  0  0  0  0  0  0  0  0
  -23.0424  -16.7055   20.5932 C   0  0  0  0  0  0  0  0  0  0  0  0
  -29.5593  -11.4569   18.8932 C   0  0  0  0  0  0  0  0  0  0  0  0
  -27.7420  -13.0478   18.9529 C   0  0  0  0  0  0  0  0  0  0  0  0
  -25.6833  -27.0511   18.1732 C   0  0  0  0  0  0  0  0  0  0  0  0
  -25.7294  -27.1257   20.5876 C   0  0  0  0  0  0  0  0  0  0  0  0
  -23.9408  -15.7750   20.0729 C   0  0  0  0  0  0  0  0  0  0  0  0
  -25.5185  -30.4543   20.0429 C   0  0  0  0  0  0  0  0  0  0  0  0
  -25.6875  -31.5575   20.8795 C   0  0  0  0  0  0  0  0  0  0  0  0
  -25.3698  -16.0915   21.9905 C   0  0  0  0  0  0  0  0  0  0  0  0
  -23.6300  -31.0076   22.0204 C   0  0  0  0  0  0  0  0  0  0  0  0
  -27.1977  -25.6210   19.3972 C   0  0  0  0  0  0  0  0  0  0  0  0
  -29.6171  -24.8125   19.3769 C   0  0  0  0  0  0  0  0  0  0  0  0
  -22.8798  -25.0516   22.9559 C   0  0  0  0  0  0  0  0  0  0  0  0
  -23.3067  -17.3452   21.8128 C   0  0  0  0  0  0  0  0  0  0  0  0
  -22.9583  -23.9168   22.1263 C   0  0  0  0  0  0  0  0  0  0  0  0
  -24.4719  -17.0279   22.5253 C   0  0  0  0  0  0  0  0  0  0  0  0
  -29.0495  -12.6323   20.9416 C   0  0  0  0  0  0  0  0  0  0  0  0
  -29.8252  -11.7102   20.2389 C   0  0  0  0  0  0  0  0  0  0  0  0
  -28.0079  -13.3011   20.2986 C   0  0  0  0  0  0  0  0  0  0  0  0
  -25.2092  -27.5776   19.3748 C   0  0  0  0  0  0  0  0  0  0  0  0
  -25.1061  -15.4700   20.7701 C   0  0  0  0  0  0  0  0  0  0  0  0
  -24.4052  -29.6277   20.1950 C   0  0  0  0  0  0  0  0  0  0  0  0
  -24.7433  -31.8341   21.8683 C   0  0  0  0  0  0  0  0  0  0  0  0
  -23.4610  -29.9043   21.1838 C   0  0  0  0  0  0  0  0  0  0  0  0
  -28.2243  -24.6101   19.4095 C   0  0  0  0  0  0  0  0  0  0  0  0
  -30.1488  -23.5464   19.4066 C   0  0  0  0  0  0  0  0  0  0  0  0
  -30.3634  -26.0355   19.3244 C   0  0  0  0  0  0  0  0  0  0  0  0
  -23.7676  -20.3592   22.7111 C   0  0  0  0  0  0  0  0  0  0  0  0
  -23.7649  -19.0638   25.6850 C   0  0  0  0  0  0  0  0  0  0  0  0
  -24.2417  -16.3124   27.6471 C   0  0  0  0  0  0  0  0  0  0  0  0
  -30.3230  -18.5093   21.5384 C   0  0  0  0  0  0  0  0  0  0  0  0
  -23.8482  -25.2733   24.0907 C   0  0  0  0  0  0  0  0  0  0  0  0
  -22.3145  -18.3269   22.3735 C   0  0  0  0  0  0  0  0  0  0  0  0
  -24.7923  -17.6718   23.8486 C   0  0  0  0  0  0  0  0  0  0  0  0
  -24.5886  -24.0078   24.5156 C   0  0  0  0  0  0  0  0  0  0  0  0
  -27.9347  -19.0297   18.8696 C   0  0  0  0  0  0  0  0  0  0  0  0
  -25.1156  -23.2619   23.2938 C   0  0  0  0  0  0  0  0  0  0  0  0
  -27.9153  -20.5562   18.7721 C   0  0  0  0  0  0  0  0  0  0  0  0
  -28.0644  -18.5699   20.3187 C   0  0  0  0  0  0  0  0  0  0  0  0
  -28.3381  -12.8046   24.6062 C   0  0  0  0  0  0  0  0  0  0  0  0
  -29.2278  -20.6511   20.9420 C   0  0  0  0  0  0  0  0  0  0  0  0
  -28.6304  -14.2751   24.8468 C   0  0  0  0  0  0  0  0  0  0  0  0
  -29.3346  -12.9038   22.3845 C   0  0  1  0  0  0  0  0  0  0  0  0
  -23.9666  -22.8173   22.3808 C   0  0  1  0  0  0  0  0  0  0  0  0
  -22.9346  -19.2983   23.3731 C   0  0  1  0  0  0  0  0  0  0  0  0
  -29.1211  -21.1795   19.4999 C   0  0  2  0  0  0  0  0  0  0  0  0
  -29.6869  -14.3982   22.5848 C   0  0  2  0  0  0  0  0  0  0  0  0
  -30.9466  -10.9809   20.9039 C   0  0  0  0  0  0  0  0  0  0  0  0
  -24.2036  -15.5721   30.0446 C   0  0  0  0  0  0  0  0  0  0  0  0
  -26.4517  -20.4338   26.1483 C   0  0  0  0  0  0  0  0  0  0  0  0
  -26.8009  -18.9282   28.1179 C   0  0  0  0  0  0  0  0  0  0  0  0
  -24.8847  -20.5251   28.0952 C   0  0  0  0  0  0  0  0  0  0  0  0
  -22.0858  -14.3523   27.1285 C   0  0  0  0  0  0  0  0  0  0  0  0
  -27.1588  -14.2978   21.0313 C   0  0  0  0  0  0  0  0  0  1  0  0
  -30.9993  -14.8049   21.9180 C   0  0  0  0  0  0  0  0  0  0  0  0
  -31.2966  -16.2899   22.0708 C   0  0  0  0  0  0  0  0  0  0  0  0
  -24.8174  -18.4869   26.6008 C   0  0  1  0  0  0  0  0  0  0  0  0
  -23.4021  -15.7109   28.7596 C   0  0  2  0  0  0  0  0  0  0  0  0
  -25.7338  -19.5826   27.2147 C   0  0  0  0  0  0  0  0  0  0  0  0
  -27.8921  -23.3172   19.4563 N   0  0  0  0  0  0  0  0  0  0  0  0
  -29.0837  -22.6958   19.4531 N   0  0  0  0  0  0  0  0  0  0  0  0
  -28.1525  -12.5231   23.1829 N   0  0  0  0  0  0  0  0  0  0  0  0
  -23.7941  -18.6297   24.3522 N   0  0  0  0  0  0  0  0  0  0  0  0
  -29.2417  -19.1845   20.9482 N   0  0  0  0  0  0  0  0  0  0  0  0
  -31.4188  -23.0889   19.3972 N   0  0  0  0  0  0  0  0  0  0  0  0
  -29.6595  -27.2472   19.2997 N   0  0  0  0  0  0  0  0  0  0  0  0
  -23.3128  -21.6464   22.9249 N   0  0  0  0  0  0  0  0  0  0  0  0
  -24.1039  -17.6831   27.5873 N   0  0  0  0  0  0  0  0  0  0  0  0
  -30.2559  -17.1218   21.5086 N   0  0  0  0  0  0  0  0  0  0  0  0
  -29.8380  -14.6575   24.0602 N   0  3  0  0  0  0  0  0  0  0  0  0
  -22.9097  -14.3609   28.3648 N   0  3  0  0  0  0  0  0  0  0  0  0
  -31.6170  -26.0528   19.2836 O   0  0  0  0  0  0  0  0  0  0  0  0
  -24.7510  -20.0342   22.0562 O   0  0  0  0  0  0  0  0  0  0  0  0
  -22.9427  -19.8644   26.1374 O   0  0  0  0  0  0  0  0  0  0  0  0
  -24.9519  -15.6347   26.9077 O   0  0  0  0  0  0  0  0  0  0  0  0
  -31.2808  -19.0996   22.0496 O   0  0  0  0  0  0  0  0  0  0  0  0
  -24.2392  -28.5323   19.3642 O   0  0  0  0  0  0  0  0  0  0  0  0
  -25.9850  -14.5625   20.2643 O   0  0  0  0  0  0  0  0  0  1  0  0
  -24.9065  -32.8927   22.6726 F   0  0  0  0  0  0  0  0  0  0  0  0
  -22.3901  -29.1132   21.3354 F   0  0  0  0  0  0  0  0  0  0  0  0
  1  2  1  0  0  0  0
  1  6  2  0  0  0  0
  2  7  2  0  0  0  0
  3  9  1  0  0  0  0
  3 10  2  0  0  0  0
  4 11  2  0  0  0  0
  4 18  1  0  0  0  0
  5 12  1  0  0  0  0
  5 18  2  0  0  0  0
  6 20  1  0  0  0  0
  7 22  1  0  0  0  0
  8 13  2  0  0  0  0
  8 21  1  0  0  0  0
  9 25  2  0  0  0  0
 10 26  1  0  0  0  0
 11 27  1  0  0  0  0
 12 27  2  0  0  0  0
 13 28  1  0  0  0  0
 14 15  2  0  0  0  0
 14 29  1  0  0  0  0
 15 30  1  0  0  0  0
 16 23  1  0  0  0  0
 16 28  2  0  0  0  0
 17 30  2  0  0  0  0
 17 31  1  0  0  0  0
 18 32  1  0  0  0  0
 19 32  1  0  0  0  0
 19 33  2  0  0  0  0
 19 34  1  0  0  0  0
 20 22  2  0  0  0  0
 20 39  1  0  0  0  0
 21 23  2  0  0  0  0
 21 40  1  0  0  0  0
 22 51  1  0  0  0  0
 23 41  1  0  0  0  0
 24 25  1  0  0  0  0
 24 26  2  0  0  0  0
 24 50  1  0  0  0  0
 25 55  1  0  0  0  0
 26 61  1  0  0  0  0
 27 84  1  0  0  0  0
 28 85  1  0  0  0  0
 29 31  2  0  0  0  0
 29 84  1  0  0  0  0
 30 86  1  0  0  0  0
 31 87  1  0  0  0  0
 32 67  2  0  0  0  0
 33 68  1  0  0  0  0
 33 72  1  0  0  0  0
 34 73  1  0  0  0  0
 34 79  2  0  0  0  0
 35 52  1  0  0  0  0
 35 74  1  0  0  0  0
 35 80  2  0  0  0  0
 36 64  1  0  0  0  0
 36 70  1  0  0  0  0
 36 81  2  0  0  0  0
 37 65  1  0  0  0  0
 37 75  1  0  0  0  0
 37 82  2  0  0  0  0
 38 71  1  0  0  0  0
 38 76  1  0  0  0  0
 38 83  2  0  0  0  0
 39 42  1  0  0  0  0
 40 52  1  0  0  0  0
 41 70  1  0  0  0  0
 42 44  1  0  0  0  0
 43 45  1  0  0  0  0
 43 46  1  0  0  0  0
 44 51  1  0  0  0  0
 45 53  1  0  0  0  0
 46 71  1  0  0  0  0
 47 49  1  0  0  0  0
 47 69  1  0  0  0  0
 48 53  1  0  0  0  0
 48 71  1  0  0  0  0
 49 77  1  0  0  0  0
 50 54  1  0  0  0  0
 50 69  1  0  0  0  0
 51 74  1  0  0  0  0
 52 70  1  0  0  0  0
 53 68  1  0  0  0  0
 54 62  1  0  0  0  0
 54 77  1  0  0  0  0
 56 65  1  0  0  0  0
 57 66  1  0  0  0  0
 58 66  1  0  0  0  0
 59 66  1  0  0  0  0
 60 78  1  0  0  0  0
 61 85  1  0  0  0  0
 62 63  1  0  0  0  0
 63 76  1  0  0  0  0
 64 66  1  0  0  0  0
 64 75  1  0  0  0  0
 65 78  1  0  0  0  0
 67 68  1  0  0  0  0
M  CHG  2  77   1  78   1
M  ISO  4  38 100  61 101  76 100  85 101
M  END
> <Batch ID>
0127

> <Smiles>
CNC(C)C(=O)NC(C(=O)N1Cc2cc([101O:1][101CH2:1]c3cccc(C)c3C3NCCNC3CC[100NH:0][100C:0](=O)N3CCCC(n4nc(-c5ccc(Oc6ccc(F)cc6F)cc5)c(C(N)=O)c4N)C3)ccc2CC1C(=O)NC1CCCc2ccccc21)C(C)(C)C

> <Shape>
0.244

> <Color>
0.044

> <Negative vol penalty>
0.000

$$$$

  -OEChem-04052320403D

 86 94  0     1  0  0  0  0  0999 V2000
  -25.0877  -13.8556   21.4519 C   0  0  0  0  0  0  0  0  0  0  0  0
  -25.2476  -15.2294   21.6018 C   0  0  0  0  0  0  0  0  0  0  0  0
  -28.9408  -17.6901   19.5901 C   0  0  0  0  0  0  0  0  0  0  0  0
  -30.6322  -18.0963   21.2668 C   0  0  0  0  0  0  0  0  0  0  0  0
  -25.0109  -13.2990   20.1759 C   0  0  0  0  0  0  0  0  0  0  0  0
  -25.3318  -16.0474   20.4756 C   0  0  0  0  0  0  0  0  0  0  0  0
  -23.1947  -21.7582   19.9053 C   0  0  0  0  0  0  0  0  0  0  0  0
  -29.4756  -16.4230   19.3575 C   0  0  0  0  0  0  0  0  0  0  0  0
  -31.1670  -16.8292   21.0342 C   0  0  0  0  0  0  0  0  0  0  0  0
  -23.8109  -23.0047   20.0061 C   0  0  0  0  0  0  0  0  0  0  0  0
  -30.1758  -12.9422   18.5776 C   0  0  0  0  0  0  0  0  0  0  0  0
  -29.2870  -11.8722   18.4735 C   0  0  0  0  0  0  0  0  0  0  0  0
  -24.0784  -23.0597   17.6093 C   0  0  0  0  0  0  0  0  0  0  0  0
  -25.8088  -27.5382   18.9753 C   0  0  0  0  0  0  0  0  0  0  0  0
  -28.5029  -12.3054   20.7173 C   0  0  0  0  0  0  0  0  0  0  0  0
  -26.2213  -27.4844   21.1882 C   0  0  0  0  0  0  0  0  0  0  0  0
  -29.5192  -18.5268   20.5447 C   0  0  0  0  0  0  0  0  0  0  0  0
  -27.9658  -20.1792   21.7127 C   0  0  0  0  0  0  0  0  0  0  0  0
  -25.0845  -14.1116   19.0336 C   0  0  0  0  0  0  0  0  0  0  0  0
  -23.0252  -21.1471   18.6546 C   0  0  0  0  0  0  0  0  0  0  0  0
  -25.2572  -15.5010   19.1831 C   0  0  0  0  0  0  0  0  0  0  0  0
  -23.4574  -21.8065   17.4950 C   0  0  0  0  0  0  0  0  0  0  0  0
  -25.6569  -26.7690   20.1553 C   0  0  0  0  0  0  0  0  0  0  0  0
  -30.5887  -15.9925   20.0796 C   0  0  0  0  0  0  0  0  0  0  0  0
  -24.2555  -23.6544   18.8583 C   0  0  0  0  0  0  0  0  0  0  0  0
  -30.2283  -13.6937   19.7516 C   0  0  0  0  0  0  0  0  0  0  0  0
  -28.4505  -11.5538   19.5433 C   0  0  0  0  0  0  0  0  0  0  0  0
  -29.3918  -13.3753   20.8214 C   0  0  0  0  0  0  0  0  0  0  0  0
  -28.9675  -19.8360   20.7850 C   0  0  0  0  0  0  0  0  0  0  0  0
  -26.4616  -28.7002   19.3230 C   0  0  0  0  0  0  0  0  0  0  0  0
  -27.7997  -21.5333   21.5534 C   0  0  0  0  0  0  0  0  0  0  0  0
  -27.2495  -19.3484   22.6358 C   0  0  0  0  0  0  0  0  0  0  0  0
  -24.0542  -18.4539   17.3160 C   0  0  0  0  0  0  0  0  0  0  0  0
  -22.0736  -19.3516   14.9091 C   0  0  0  0  0  0  0  0  0  0  0  0
  -20.4343  -21.8713   13.2933 C   0  0  0  0  0  0  0  0  0  0  0  0
  -30.8690  -26.3104   20.4248 C   0  0  0  0  0  0  0  0  0  0  0  0
  -25.0441  -13.4590   17.6746 C   0  0  0  0  0  0  0  0  0  0  0  0
  -22.3345  -19.8142   18.5603 C   0  0  0  0  0  0  0  0  0  0  0  0
  -23.2809  -21.2023   16.1267 C   0  0  0  0  0  0  0  0  0  0  0  0
  -24.7656  -14.4378   16.5368 C   0  0  0  0  0  0  0  0  0  0  0  0
  -28.8173  -24.7691   17.9567 C   0  0  0  0  0  0  0  0  0  0  0  0
  -25.6351  -15.6831   16.6792 C   0  0  0  0  0  0  0  0  0  0  0  0
  -28.5537  -23.3718   18.5206 C   0  0  0  0  0  0  0  0  0  0  0  0
  -30.2302  -25.2505   18.2789 C   0  0  0  0  0  0  0  0  0  0  0  0
  -30.3267  -23.8046   20.2723 C   0  0  0  0  0  0  0  0  0  0  0  0
  -25.3277  -16.4241   17.9860 C   0  0  1  0  0  0  0  0  0  0  0  0
  -22.6767  -19.0530   17.2832 C   0  0  1  0  0  0  0  0  0  0  0  0
  -28.8957  -23.2990   20.0210 C   0  0  2  0  0  0  0  0  0  0  0  0
  -25.6718  -30.5713   17.8300 C   0  0  0  0  0  0  0  0  0  0  0  0
  -27.8899  -29.4576   17.3890 C   0  0  0  0  0  0  0  0  0  0  0  0
  -18.9226  -22.3014   11.3370 C   0  0  0  0  0  0  0  0  0  0  0  0
  -26.3869  -30.7564   21.9050 C   0  0  0  0  0  0  0  0  0  0  0  0
  -24.4458  -19.0525   13.0135 C   0  0  0  0  0  0  0  0  0  0  0  0
  -23.1668  -20.3757   11.3159 C   0  0  0  0  0  0  0  0  0  0  0  0
  -22.2779  -18.1867   12.1163 C   0  0  0  0  0  0  0  0  0  0  0  0
  -18.2844  -22.9191   15.0366 C   0  0  0  0  0  0  0  0  0  0  0  0
  -25.0019  -25.4233   20.2618 C   0  0  0  0  0  0  0  0  0  1  0  0
  -31.4791  -27.2292   22.6481 C   0  0  0  0  0  0  0  0  0  0  0  0
  -30.2815  -27.9432   23.2465 C   0  0  0  0  0  0  0  0  0  0  0  0
  -28.1660  -29.1216   22.6341 C   0  0  0  0  0  0  0  0  0  0  0  0
  -26.8699  -29.8457   18.4838 C   0  0  0  0  0  0  0  0  0  0  0  0
  -22.2189  -20.1877   13.6605 C   0  0  1  0  0  0  0  0  0  0  0  0
  -18.9958  -21.9999   12.8258 C   0  0  2  0  0  0  0  0  0  0  0  0
  -27.3753  -29.6804   21.4438 C   0  0  1  0  0  0  0  0  0  0  0  0
  -23.0325  -19.4614   12.5524 C   0  0  0  0  0  0  0  0  0  0  0  0
  -29.4068  -20.8872   20.0879 N   0  0  0  0  0  0  0  0  0  0  0  0
  -26.7075  -28.6565   20.6705 N   0  0  0  0  0  0  0  0  0  0  0  0
  -28.6776  -21.9043   20.5778 N   0  0  0  0  0  0  0  0  0  0  0  0
  -22.6055  -19.8948   16.0872 N   0  0  0  0  0  0  0  0  0  0  0  0
  -30.4903  -25.1574   19.7175 N   0  0  0  0  0  0  0  0  0  0  0  0
  -26.9898  -22.4309   22.1540 N   0  0  0  0  0  0  0  0  0  0  0  0
  -27.5442  -17.9785   22.6693 N   0  0  0  0  0  0  0  0  0  0  0  0
  -24.1029  -17.1845   17.8599 N   0  0  0  0  0  0  0  0  0  0  0  0
  -20.8669  -20.5625   13.2606 N   0  0  0  0  0  0  0  0  0  0  0  0
  -31.0901  -26.1358   21.7855 N   0  0  0  0  0  0  0  0  0  0  0  0
  -18.3080  -23.0980   13.5620 N   0  3  0  0  0  0  0  0  0  0  0  0
  -29.4044  -28.4536   22.1586 N   0  3  0  0  0  0  0  0  0  0  0  0
  -26.3625  -19.8043   23.3967 O   0  0  0  0  0  0  0  0  0  0  0  0
  -25.0025  -19.0952   16.8789 O   0  0  0  0  0  0  0  0  0  0  0  0
  -21.5026  -18.2602   14.8430 O   0  0  0  0  0  0  0  0  0  0  0  0
  -21.1081  -22.8360   13.6483 O   0  0  0  0  0  0  0  0  0  0  0  0
  -30.9951  -27.4147   19.8849 O   0  0  0  0  0  0  0  0  0  0  0  0
  -31.1107  -14.7561   19.8530 O   0  0  0  0  0  0  0  0  0  0  0  0
  -24.8579  -24.8709   18.9539 O   0  0  0  0  0  0  0  0  0  1  0  0
  -27.5960  -10.5273   19.4427 F   0  0  0  0  0  0  0  0  0  0  0  0
  -29.4368  -14.0943   21.9513 F   0  0  0  0  0  0  0  0  0  0  0  0
  1  2  1  0  0  0  0
  1  5  2  0  0  0  0
  2  6  2  0  0  0  0
  3  8  2  0  0  0  0
  3 17  1  0  0  0  0
  4  9  1  0  0  0  0
  4 17  2  0  0  0  0
  5 19  1  0  0  0  0
  6 21  1  0  0  0  0
  7 10  2  0  0  0  0
  7 20  1  0  0  0  0
  8 24  1  0  0  0  0
  9 24  2  0  0  0  0
 10 25  1  0  0  0  0
 11 12  2  0  0  0  0
 11 26  1  0  0  0  0
 12 27  1  0  0  0  0
 13 22  1  0  0  0  0
 13 25  2  0  0  0  0
 14 23  1  0  0  0  0
 14 30  2  0  0  0  0
 15 27  2  0  0  0  0
 15 28  1  0  0  0  0
 16 23  2  0  0  0  0
 16 67  1  0  0  0  0
 17 29  1  0  0  0  0
 18 29  1  0  0  0  0
 18 31  2  0  0  0  0
 18 32  1  0  0  0  0
 19 21  2  0  0  0  0
 19 37  1  0  0  0  0
 20 22  2  0  0  0  0
 20 38  1  0  0  0  0
 21 46  1  0  0  0  0
 22 39  1  0  0  0  0
 23 57  1  0  0  0  0
 24 83  1  0  0  0  0
 25 84  1  0  0  0  0
 26 28  2  0  0  0  0
 26 83  1  0  0  0  0
 27 85  1  0  0  0  0
 28 86  1  0  0  0  0
 29 66  2  0  0  0  0
 30 61  1  0  0  0  0
 30 67  1  0  0  0  0
 31 68  1  0  0  0  0
 31 71  1  0  0  0  0
 32 72  1  0  0  0  0
 32 78  2  0  0  0  0
 33 47  1  0  0  0  0
 33 73  1  0  0  0  0
 33 79  2  0  0  0  0
 34 62  1  0  0  0  0
 34 69  1  0  0  0  0
 34 80  2  0  0  0  0
 35 63  1  0  0  0  0
 35 74  1  0  0  0  0
 35 81  2  0  0  0  0
 36 70  1  0  0  0  0
 36 75  1  0  0  0  0
 36 82  2  0  0  0  0
 37 40  1  0  0  0  0
 38 47  1  0  0  0  0
 39 69  1  0  0  0  0
 40 42  1  0  0  0  0
 41 43  1  0  0  0  0
 41 44  1  0  0  0  0
 42 46  1  0  0  0  0
 43 48  1  0  0  0  0
 44 70  1  0  0  0  0
 45 48  1  0  0  0  0
 45 70  1  0  0  0  0
 46 73  1  0  0  0  0
 47 69  1  0  0  0  0
 48 68  1  0  0  0  0
 49 61  1  0  0  0  0
 50 61  1  0  0  0  0
 51 63  1  0  0  0  0
 52 64  1  0  0  0  0
 53 65  1  0  0  0  0
 54 65  1  0  0  0  0
 55 65  1  0  0  0  0
 56 76  1  0  0  0  0
 57 84  1  0  0  0  0
 58 59  1  0  0  0  0
 58 75  1  0  0  0  0
 59 77  1  0  0  0  0
 60 64  1  0  0  0  0
 60 77  1  0  0  0  0
 62 65  1  0  0  0  0
 62 74  1  0  0  0  0
 63 76  1  0  0  0  0
 64 67  1  0  0  0  0
 66 68  1  0  0  0  0
M  CHG  2  76   1  77   1
M  ISO  4  36 100  57 101  75 100  84 101
M  END
> <Batch ID>
0127

> <Smiles>
CNC(C)C(=O)NC(C(=O)N1Cc2cc([101O:1][101CH2:1]c3cc(C(C)C)n(C(C)CNCC[100NH:0][100C:0](=O)N4CCCC(n5nc(-c6ccc(Oc7ccc(F)cc7F)cc6)c(C(N)=O)c5N)C4)c3)ccc2CC1C(=O)NC1CCCc2ccccc21)C(C)(C)C

> <Shape>
0.211

> <Color>
0.058

> <Negative vol penalty>
0.000

$$$$

  -OEChem-04052320403D

 93102  0     1  0  0  0  0  0999 V2000
  -26.2065  -38.1561   22.8602 C   0  0  0  0  0  0  0  0  0  0  0  0
  -26.8345  -36.9532   23.1670 C   0  0  0  0  0  0  0  0  0  0  0  0
  -23.3818   -9.8523   22.3432 C   0  0  0  0  0  0  0  0  0  0  0  0
  -24.2149   -9.0543   20.2204 C   0  0  0  0  0  0  0  0  0  0  0  0
  -24.8145  -38.2233   22.8171 C   0  0  0  0  0  0  0  0  0  0  0  0
  -26.0708  -35.8170   23.4321 C   0  0  0  0  0  0  0  0  0  0  0  0
  -26.8224  -29.8393   19.4833 C   0  0  0  0  0  0  0  0  0  0  0  0
  -22.1634   -9.2169   22.1040 C   0  0  0  0  0  0  0  0  0  0  0  0
  -22.9964   -8.4188   19.9812 C   0  0  0  0  0  0  0  0  0  0  0  0
  -27.0573  -28.5898   18.9089 C   0  0  0  0  0  0  0  0  0  0  0  0
  -20.9125   -6.0806   22.2822 C   0  0  0  0  0  0  0  0  0  0  0  0
  -20.3462   -5.3501   23.3268 C   0  0  0  0  0  0  0  0  0  0  0  0
  -25.2621  -27.6377   20.2200 C   0  0  0  0  0  0  0  0  0  0  0  0
  -30.4033  -21.0135   23.6504 C   0  0  0  0  0  0  0  0  0  0  0  0
  -18.3926   -6.7700   23.2609 C   0  0  0  0  0  0  0  0  0  0  0  0
  -31.8025  -21.1126   21.8891 C   0  0  0  0  0  0  0  0  0  0  0  0
  -24.4076   -9.7711   21.4014 C   0  0  0  0  0  0  0  0  0  0  0  0
  -26.5497  -10.1976   22.7193 C   0  0  0  0  0  0  0  0  0  0  0  0
  -24.0336  -37.0850   23.0723 C   0  0  0  0  0  0  0  0  0  0  0  0
  -25.7952  -29.9962   20.4180 C   0  0  0  0  0  0  0  0  0  0  0  0
  -24.6670  -35.8694   23.3938 C   0  0  0  0  0  0  0  0  0  0  0  0
  -25.0141  -28.8895   20.7895 C   0  0  0  0  0  0  0  0  0  0  0  0
  -30.6730  -20.4838   22.3644 C   0  0  0  0  0  0  0  0  0  0  0  0
  -21.9707   -8.5001   20.9230 C   0  0  0  0  0  0  0  0  0  0  0  0
  -26.2792  -27.4918   19.2766 C   0  0  0  0  0  0  0  0  0  0  0  0
  -20.2188   -7.1559   21.7269 C   0  0  0  0  0  0  0  0  0  0  0  0
  -19.0863   -5.6947   23.8161 C   0  0  0  0  0  0  0  0  0  0  0  0
  -18.9589   -7.5006   22.2162 C   0  0  0  0  0  0  0  0  0  0  0  0
  -25.6662  -10.4278   21.6477 C   0  0  0  0  0  0  0  0  0  0  0  0
  -27.5904  -11.0665   22.4989 C   0  0  0  0  0  0  0  0  0  0  0  0
  -31.3762  -21.9502   23.9217 C   0  0  0  0  0  0  0  0  0  0  0  0
  -26.4396   -9.2804   23.8158 C   0  0  0  0  0  0  0  0  0  0  0  0
  -23.9202  -32.3198   22.6898 C   0  0  0  0  0  0  0  0  0  0  0  0
  -21.8436  -30.4667   21.3998 C   0  0  0  0  0  0  0  0  0  0  0  0
  -19.0309  -29.0744   20.0629 C   0  0  0  0  0  0  0  0  0  0  0  0
  -29.2894  -16.1736   21.3232 C   0  0  0  0  0  0  0  0  0  0  0  0
  -22.5313  -37.2179   23.0605 C   0  0  0  0  0  0  0  0  0  0  0  0
  -25.5464  -31.3099   21.1080 C   0  0  0  0  0  0  0  0  0  0  0  0
  -23.9426  -29.0978   21.8246 C   0  0  0  0  0  0  0  0  0  0  0  0
  -21.8020  -35.8789   22.9861 C   0  0  0  0  0  0  0  0  0  0  0  0
  -26.1493  -20.1309   18.4130 C   0  0  0  0  0  0  0  0  0  0  0  0
  -26.3941  -19.1225   19.5306 C   0  0  0  0  0  0  0  0  0  0  0  0
  -28.7520  -13.8817   18.4822 C   0  0  0  0  0  0  0  0  0  0  0  0
  -22.3998  -34.8894   23.9813 C   0  0  0  0  0  0  0  0  0  0  0  0
  -27.9233  -12.7843   19.1433 C   0  0  0  0  0  0  0  0  0  0  0  0
  -27.3531  -21.0469   18.1940 C   0  0  0  0  0  0  0  0  0  0  0  0
  -26.8176  -19.8077   20.8288 C   0  0  0  0  0  0  0  0  0  0  0  0
  -28.4568  -15.2590   19.0748 C   0  0  0  0  0  0  0  0  0  0  0  0
  -27.7807  -14.2150   21.2189 C   0  0  0  0  0  0  0  0  0  0  0  0
  -23.8735  -34.6093   23.6630 C   0  0  1  0  0  0  0  0  0  0  0  0
  -24.0569  -31.5657   21.3998 C   0  0  1  0  0  0  0  0  0  0  0  0
  -28.0995  -12.8162   20.6692 C   0  0  1  0  0  0  0  0  0  0  0  0
  -27.8218  -21.7350   19.4833 C   0  0  2  0  0  0  0  0  0  0  0  0
  -28.0077  -20.7546   20.6492 C   0  0  2  0  0  0  0  0  0  0  0  0
  -16.6221  -28.6084   20.5899 C   0  0  0  0  0  0  0  0  0  0  0  0
  -33.2327  -23.8530   21.5636 C   0  0  0  0  0  0  0  0  0  0  0  0
  -34.6765  -22.0545   22.6061 C   0  0  0  0  0  0  0  0  0  0  0  0
  -22.6893  -28.1613   23.2090 C   0  0  0  0  0  0  0  0  0  0  0  0
  -20.3974  -27.1935   22.9279 C   0  0  0  0  0  0  0  0  0  0  0  0
  -20.6831  -29.4273   24.0007 C   0  0  0  0  0  0  0  0  0  0  0  0
  -18.0940  -30.7347   17.7992 C   0  0  0  0  0  0  0  0  0  0  0  0
  -30.6370  -22.6130   26.0828 C   0  0  0  0  0  0  0  0  0  0  0  0
  -27.1436  -23.9934   19.0763 C   0  0  0  0  0  0  0  0  0  0  0  0
  -30.7157  -18.1975   21.2857 C   0  0  0  0  0  0  0  0  0  0  0  0
  -26.2189  -25.1244   19.4993 C   0  0  0  0  0  0  0  0  0  1  0  0
  -29.8699  -19.4236   21.6441 C   0  0  2  0  0  0  0  0  0  0  0  0
  -21.0430  -29.1938   21.5091 C   0  0  1  0  0  0  0  0  0  0  0  0
  -17.6046  -29.5843   19.9615 C   0  0  2  0  0  0  0  0  0  0  0  0
  -33.3797  -22.8586   22.7169 C   0  0  0  0  0  0  0  0  0  0  0  0
  -21.2195  -28.4994   22.8890 C   0  0  0  0  0  0  0  0  0  0  0  0
  -26.1070  -11.3692   20.8090 N   0  0  0  0  0  0  0  0  0  0  0  0
  -32.2211  -22.0022   22.8440 N   0  0  0  0  0  0  0  0  0  0  0  0
  -27.2789  -11.7383   21.3535 N   0  0  0  0  0  0  0  0  0  0  0  0
  -23.2299  -30.3581   21.5634 N   0  0  0  0  0  0  0  0  0  0  0  0
  -28.5689  -15.2522   20.5419 N   0  0  0  0  0  0  0  0  0  0  0  0
  -28.7323  -11.3138   23.1751 N   0  0  0  0  0  0  0  0  0  0  0  0
  -25.3051   -8.4608   23.8899 N   0  0  0  0  0  0  0  0  0  0  0  0
  -23.9845  -33.6929   22.5484 N   0  0  0  0  0  0  0  0  0  0  0  0
  -19.6644  -29.5500   21.1914 N   0  0  0  0  0  0  0  0  0  0  0  0
  -29.9446  -17.1800   20.6227 N   0  0  0  0  0  0  0  0  0  0  0  0
  -26.9056  -22.7903   19.8614 N   0  0  0  0  0  0  0  0  0  0  0  0
  -29.2381  -19.9423   20.4066 N   0  3  0  0  0  0  0  0  0  0  0  0
  -17.2247  -29.7799   18.5338 N   0  3  0  0  0  0  0  0  0  0  0  0
  -27.3134   -9.2019   24.7124 O   0  0  0  0  0  0  0  0  0  0  0  0
  -23.7660  -31.7025   23.7371 O   0  0  0  0  0  0  0  0  0  0  0  0
  -21.2577  -31.5308   21.1809 O   0  0  0  0  0  0  0  0  0  0  0  0
  -19.5316  -28.3257   19.2266 O   0  0  0  0  0  0  0  0  0  0  0  0
  -29.3418  -16.1095   22.5564 O   0  0  0  0  0  0  0  0  0  0  0  0
  -20.7820   -7.8797   20.6893 O   0  0  0  0  0  0  0  0  0  0  0  0
  -26.5110  -26.2759   18.7086 O   0  0  0  0  0  0  0  0  0  1  0  0
  -31.5670  -22.7202   24.9848 O   0  0  0  0  0  0  0  0  0  0  0  0
  -18.5420   -4.9921   24.8183 F   0  0  0  0  0  0  0  0  0  0  0  0
  -18.2872   -8.5318   21.6860 F   0  0  0  0  0  0  0  0  0  0  0  0
  1  2  1  0  0  0  0
  1  5  2  0  0  0  0
  2  6  2  0  0  0  0
  3  8  2  0  0  0  0
  3 17  1  0  0  0  0
  4  9  1  0  0  0  0
  4 17  2  0  0  0  0
  5 19  1  0  0  0  0
  6 21  1  0  0  0  0
  7 10  2  0  0  0  0
  7 20  1  0  0  0  0
  8 24  1  0  0  0  0
  9 24  2  0  0  0  0
 10 25  1  0  0  0  0
 11 12  2  0  0  0  0
 11 26  1  0  0  0  0
 12 27  1  0  0  0  0
 13 22  1  0  0  0  0
 13 25  2  0  0  0  0
 14 23  1  0  0  0  0
 14 31  2  0  0  0  0
 15 27  2  0  0  0  0
 15 28  1  0  0  0  0
 16 23  2  0  0  0  0
 16 72  1  0  0  0  0
 17 29  1  0  0  0  0
 18 29  1  0  0  0  0
 18 30  2  0  0  0  0
 18 32  1  0  0  0  0
 19 21  2  0  0  0  0
 19 37  1  0  0  0  0
 20 22  2  0  0  0  0
 20 38  1  0  0  0  0
 21 50  1  0  0  0  0
 22 39  1  0  0  0  0
 23 66  1  0  0  0  0
 24 89  1  0  0  0  0
 25 90  1  0  0  0  0
 26 28  2  0  0  0  0
 26 89  1  0  0  0  0
 27 92  1  0  0  0  0
 28 93  1  0  0  0  0
 29 71  2  0  0  0  0
 30 73  1  0  0  0  0
 30 76  1  0  0  0  0
 31 72  1  0  0  0  0
 31 91  1  0  0  0  0
 32 77  1  0  0  0  0
 32 84  2  0  0  0  0
 33 51  1  0  0  0  0
 33 78  1  0  0  0  0
 33 85  2  0  0  0  0
 34 67  1  0  0  0  0
 34 74  1  0  0  0  0
 34 86  2  0  0  0  0
 35 68  1  0  0  0  0
 35 79  1  0  0  0  0
 35 87  2  0  0  0  0
 36 75  1  0  0  0  0
 36 80  1  0  0  0  0
 36 88  2  0  0  0  0
 37 40  1  0  0  0  0
 38 51  1  0  0  0  0
 39 74  1  0  0  0  0
 40 44  1  0  0  0  0
 41 42  1  0  0  0  0
 41 46  1  0  0  0  0
 42 47  1  0  0  0  0
 43 45  1  0  0  0  0
 43 48  1  0  0  0  0
 44 50  1  0  0  0  0
 45 52  1  0  0  0  0
 46 53  1  0  0  0  0
 47 54  1  0  0  0  0
 48 75  1  0  0  0  0
 49 52  1  0  0  0  0
 49 75  1  0  0  0  0
 50 78  1  0  0  0  0
 51 74  1  0  0  0  0
 52 73  1  0  0  0  0
 53 54  1  0  0  0  0
 53 81  1  0  0  0  0
 54 82  1  0  0  0  0
 55 68  1  0  0  0  0
 56 69  1  0  0  0  0
 57 69  1  0  0  0  0
 58 70  1  0  0  0  0
 59 70  1  0  0  0  0
 60 70  1  0  0  0  0
 61 83  1  0  0  0  0
 62 91  1  0  0  0  0
 63 65  1  0  0  0  0
 63 81  1  0  0  0  0
 64 66  1  0  0  0  0
 64 80  1  0  0  0  0
 65 90  1  0  0  0  0
 66 82  1  0  0  0  0
 67 70  1  0  0  0  0
 67 79  1  0  0  0  0
 68 83  1  0  0  0  0
 69 72  1  0  0  0  0
 71 73  1  0  0  0  0
M  CHG  2  82   1  83   1
M  ISO  4  36 100  65 101  80 100  90 101
M  END
> <Batch ID>
0127

> <Smiles>
CNC(C)C(=O)NC(C(=O)N1Cc2cc([101O:1][101CH2:1]CNC3CCCCC3NC(C[100NH:0][100C:0](=O)N3CCCC(n4nc(-c5ccc(Oc6ccc(F)cc6F)cc5)c(C(N)=O)c4N)C3)c3cc(OC)n(C(C)C)c3)ccc2CC1C(=O)NC1CCCc2ccccc21)C(C)(C)C

> <Shape>
0.271

> <Color>
0.080

> <Negative vol penalty>
0.000

$$$$

  -OEChem-04052320403D

 87 97  0     1  0  0  0  0  0999 V2000
  -32.7635  -12.2237   20.1803 C   0  0  0  0  0  0  0  0  0  0  0  0
  -32.7721  -13.5961   19.9526 C   0  0  0  0  0  0  0  0  0  0  0  0
  -19.3315  -25.2265   19.4620 C   0  0  0  0  0  0  0  0  0  0  0  0
  -20.4042  -24.0305   21.2664 C   0  0  0  0  0  0  0  0  0  0  0  0
  -31.5696  -11.5100   20.0853 C   0  0  0  0  0  0  0  0  0  0  0  0
  -31.5868  -14.2554   19.6288 C   0  0  0  0  0  0  0  0  0  0  0  0
  -29.9758  -19.9389   21.2439 C   0  0  0  0  0  0  0  0  0  0  0  0
  -18.5883  -24.0883   19.1494 C   0  0  0  0  0  0  0  0  0  0  0  0
  -19.6610  -22.8923   20.9539 C   0  0  0  0  0  0  0  0  0  0  0  0
  -30.0299  -21.1571   20.5680 C   0  0  0  0  0  0  0  0  0  0  0  0
  -17.7838  -19.7801   20.8595 C   0  0  0  0  0  0  0  0  0  0  0  0
  -17.1976  -19.0781   21.9126 C   0  0  0  0  0  0  0  0  0  0  0  0
  -27.7253  -20.8865   19.9084 C   0  0  0  0  0  0  0  0  0  0  0  0
  -15.9345  -21.0457   22.5211 C   0  0  0  0  0  0  0  0  0  0  0  0
  -20.2395  -25.1976   20.5205 C   0  0  0  0  0  0  0  0  0  0  0  0
  -20.6531  -27.4016   21.7365 C   0  0  0  0  0  0  0  0  0  0  0  0
  -30.3674  -12.1624   19.7696 C   0  0  0  0  0  0  0  0  0  0  0  0
  -28.7974  -19.1789   21.2481 C   0  0  0  0  0  0  0  0  0  0  0  0
  -30.3759  -13.5495   19.5282 C   0  0  0  0  0  0  0  0  0  0  0  0
  -27.6581  -19.6602   20.5873 C   0  0  0  0  0  0  0  0  0  0  0  0
  -18.7530  -22.9212   19.8953 C   0  0  0  0  0  0  0  0  0  0  0  0
  -28.9054  -21.6297   19.8976 C   0  0  0  0  0  0  0  0  0  0  0  0
  -17.4455  -21.1150   20.6372 C   0  0  0  0  0  0  0  0  0  0  0  0
  -16.2730  -19.7108   22.7434 C   0  0  0  0  0  0  0  0  0  0  0  0
  -16.5208  -21.7477   21.4680 C   0  0  0  0  0  0  0  0  0  0  0  0
  -21.0079  -26.3729   20.8435 C   0  0  0  0  0  0  0  0  0  0  0  0
  -21.7104  -28.2771   21.6894 C   0  0  0  0  0  0  0  0  0  0  0  0
  -19.4733  -27.5524   22.5372 C   0  0  0  0  0  0  0  0  0  0  0  0
  -27.9888  -16.2882   20.2022 C   0  0  0  0  0  0  0  0  0  0  0  0
  -25.1880  -16.9585   21.6951 C   0  0  0  0  0  0  0  0  0  0  0  0
  -23.0241  -19.3217   22.8696 C   0  0  0  0  0  0  0  0  0  0  0  0
  -27.2165  -29.2007   21.6986 C   0  0  0  0  0  0  0  0  0  0  0  0
  -29.1100  -11.3410   19.6319 C   0  0  0  0  0  0  0  0  0  0  0  0
  -28.7473  -17.8797   22.0044 C   0  0  0  0  0  0  0  0  0  0  0  0
  -26.3626  -18.8921   20.5786 C   0  0  0  0  0  0  0  0  0  0  0  0
  -27.8320  -12.1755   19.6519 C   0  0  0  0  0  0  0  0  0  0  0  0
  -34.9967  -30.0871   21.3086 C   0  0  0  0  0  0  0  0  0  0  0  0
  -34.0479  -30.3563   22.4725 C   0  0  0  0  0  0  0  0  0  0  0  0
  -34.3178  -30.3285   19.9640 C   0  0  0  0  0  0  0  0  0  0  0  0
  -25.6503  -28.5340   18.5370 C   0  0  0  0  0  0  0  0  0  0  0  0
  -27.9702  -13.3856   18.7336 C   0  0  0  0  0  0  0  0  0  0  0  0
  -32.7568  -29.5511   22.3447 C   0  0  0  0  0  0  0  0  0  0  0  0
  -33.0270  -29.5234   19.8320 C   0  0  0  0  0  0  0  0  0  0  0  0
  -24.2852  -27.9687   18.9295 C   0  0  0  0  0  0  0  0  0  0  0  0
  -30.6133  -26.1884   19.3940 C   0  0  0  0  0  0  0  0  0  0  0  0
  -30.2913  -25.2958   21.7436 C   0  0  0  0  0  0  0  0  0  0  0  0
  -29.7730  -25.0378   18.8453 C   0  0  0  0  0  0  0  0  0  0  0  0
  -29.4522  -24.1471   21.1892 C   0  0  0  0  0  0  0  0  0  0  0  0
  -26.7371  -28.1041   19.5177 C   0  0  0  0  0  0  0  0  0  0  0  0
  -25.0702  -27.8745   21.3366 C   0  0  0  0  0  0  0  0  0  0  0  0
  -29.0838  -30.8030   21.3685 C   0  0  0  0  0  0  0  0  0  0  0  0
  -29.1063  -14.3044   19.1989 C   0  0  1  0  0  0  0  0  0  0  0  0
  -27.6488  -16.9431   21.5111 C   0  0  1  0  0  0  0  0  0  0  0  0
  -32.0661  -29.7982   20.9966 C   0  0  0  0  0  0  0  0  0  0  0  0
  -23.9409  -28.3151   20.3894 C   0  0  2  0  0  0  0  0  0  0  0  0
  -30.2108  -26.5172   20.8302 C   0  0  0  0  0  0  0  0  0  0  0  0
  -29.8404  -23.8081   19.7497 C   0  0  0  0  0  0  0  0  0  1  0  0
  -29.6768  -29.4809   21.6736 C   0  0  2  0  0  0  0  0  0  0  0  0
  -20.8005  -19.5651   24.0070 C   0  0  0  0  0  0  0  0  0  0  0  0
  -23.7765  -16.3019   19.0708 C   0  0  0  0  0  0  0  0  0  0  0  0
  -21.7383  -17.4523   19.9600 C   0  0  0  0  0  0  0  0  0  0  0  0
  -22.6323  -15.4312   21.1171 C   0  0  0  0  0  0  0  0  0  0  0  0
  -24.2345  -20.6892   25.1984 C   0  0  0  0  0  0  0  0  0  0  0  0
  -23.8913  -17.6168   21.2898 C   0  0  1  0  0  0  0  0  0  0  0  0
  -22.3051  -19.4569   24.1997 C   0  0  2  0  0  0  0  0  0  0  0  0
  -30.8071  -28.9424   20.8707 C   0  0  2  0  0  0  0  0  0  0  0  0
  -23.0345  -16.7143   20.3578 C   0  0  0  0  0  0  0  0  0  0  0  0
  -22.1976  -26.5748   20.2707 N   0  0  0  0  0  0  0  0  0  0  0  0
  -22.5994  -27.7406   20.8051 N   0  0  0  0  0  0  0  0  0  0  0  0
  -26.3657  -17.6243   21.3271 N   0  0  0  0  0  0  0  0  0  0  0  0
  -26.3588  -28.4265   20.8935 N   0  0  0  0  0  0  0  0  0  0  0  0
  -28.3908  -29.5855   21.0536 N   0  0  0  0  0  0  0  0  0  0  0  0
  -21.9569  -29.4459   22.3184 N   0  0  0  0  0  0  0  0  0  0  0  0
  -18.4860  -26.5602   22.4656 N   0  0  0  0  0  0  0  0  0  0  0  0
  -28.6817  -15.0996   20.3311 N   0  0  0  0  0  0  0  0  0  0  0  0
  -23.2237  -18.0006   22.5289 N   0  0  0  0  0  0  0  0  0  0  0  0
  -31.1186  -27.5715   21.3551 N   0  3  0  0  0  0  0  0  0  0  0  0
  -22.7751  -20.6732   24.9213 N   0  3  0  0  0  0  0  0  0  0  0  0
  -19.2925  -28.5459   23.2814 O   0  0  0  0  0  0  0  0  0  0  0  0
  -27.6465  -16.8210   19.1531 O   0  0  0  0  0  0  0  0  0  0  0  0
  -25.1569  -15.8963   22.3215 O   0  0  0  0  0  0  0  0  0  0  0  0
  -23.3704  -20.2910   22.1980 O   0  0  0  0  0  0  0  0  0  0  0  0
  -26.9572  -29.5074   22.8655 O   0  0  0  0  0  0  0  0  0  0  0  0
  -18.0278  -21.8104   19.5908 O   0  0  0  0  0  0  0  0  0  0  0  0
  -28.9557  -22.8180   19.2365 O   0  0  0  0  0  0  0  0  0  1  0  0
  -15.7089  -19.0360   23.7537 F   0  0  0  0  0  0  0  0  0  0  0  0
  -16.1909  -23.0296   21.2587 F   0  0  0  0  0  0  0  0  0  0  0  0
  1  2  1  0  0  0  0
  1  5  2  0  0  0  0
  2  6  2  0  0  0  0
  3  8  2  0  0  0  0
  3 15  1  0  0  0  0
  4  9  1  0  0  0  0
  4 15  2  0  0  0  0
  5 17  1  0  0  0  0
  6 19  1  0  0  0  0
  7 10  2  0  0  0  0
  7 18  1  0  0  0  0
  8 21  1  0  0  0  0
  9 21  2  0  0  0  0
 10 22  1  0  0  0  0
 11 12  2  0  0  0  0
 11 23  1  0  0  0  0
 12 24  1  0  0  0  0
 13 20  1  0  0  0  0
 13 22  2  0  0  0  0
 14 24  2  0  0  0  0
 14 25  1  0  0  0  0
 15 26  1  0  0  0  0
 16 26  1  0  0  0  0
 16 27  2  0  0  0  0
 16 28  1  0  0  0  0
 17 19  2  0  0  0  0
 17 33  1  0  0  0  0
 18 20  2  0  0  0  0
 18 34  1  0  0  0  0
 19 52  1  0  0  0  0
 20 35  1  0  0  0  0
 21 84  1  0  0  0  0
 22 85  1  0  0  0  0
 23 25  2  0  0  0  0
 23 84  1  0  0  0  0
 24 86  1  0  0  0  0
 25 87  1  0  0  0  0
 26 68  2  0  0  0  0
 27 69  1  0  0  0  0
 27 73  1  0  0  0  0
 28 74  1  0  0  0  0
 28 79  2  0  0  0  0
 29 53  1  0  0  0  0
 29 75  1  0  0  0  0
 29 80  2  0  0  0  0
 30 64  1  0  0  0  0
 30 70  1  0  0  0  0
 30 81  2  0  0  0  0
 31 65  1  0  0  0  0
 31 76  1  0  0  0  0
 31 82  2  0  0  0  0
 32 71  1  0  0  0  0
 32 72  1  0  0  0  0
 32 83  2  0  0  0  0
 33 36  1  0  0  0  0
 34 53  1  0  0  0  0
 35 70  1  0  0  0  0
 36 41  1  0  0  0  0
 37 38  1  0  0  0  0
 37 39  1  0  0  0  0
 38 42  1  0  0  0  0
 39 43  1  0  0  0  0
 40 44  1  0  0  0  0
 40 49  1  0  0  0  0
 41 52  1  0  0  0  0
 42 54  1  0  0  0  0
 43 54  1  0  0  0  0
 44 55  1  0  0  0  0
 45 47  1  0  0  0  0
 45 56  1  0  0  0  0
 46 48  1  0  0  0  0
 46 56  1  0  0  0  0
 47 57  1  0  0  0  0
 48 57  1  0  0  0  0
 49 71  1  0  0  0  0
 50 55  1  0  0  0  0
 50 71  1  0  0  0  0
 51 58  1  0  0  0  0
 51 72  1  0  0  0  0
 52 75  1  0  0  0  0
 53 70  1  0  0  0  0
 54 66  1  0  0  0  0
 55 69  1  0  0  0  0
 56 77  1  0  0  0  0
 57 85  1  0  0  0  0
 58 66  1  0  0  0  0
 58 72  1  0  0  0  0
 59 65  1  0  0  0  0
 60 67  1  0  0  0  0
 61 67  1  0  0  0  0
 62 67  1  0  0  0  0
 63 78  1  0  0  0  0
 64 67  1  0  0  0  0
 64 76  1  0  0  0  0
 65 78  1  0  0  0  0
 66 77  1  0  0  0  0
 68 69  1  0  0  0  0
M  CHG  2  77   1  78   1
M  ISO  4  32 100  57 101  72 100  85 101
M  END
> <Batch ID>
0127

> <Smiles>
CNC(C)C(=O)NC(C(=O)N1Cc2cc([101O:1][101CH:1]3CCC(NC(C4CCCCC4)C4C[100N:0]4[100C:0](=O)N4CCCC(n5nc(-c6ccc(Oc7ccc(F)cc7F)cc6)c(C(N)=O)c5N)C4)CC3)ccc2CC1C(=O)NC1CCCc2ccccc21)C(C)(C)C

> <Shape>
0.216

> <Color>
0.060

> <Negative vol penalty>
0.000

$$$$

  -OEChem-04052320403D

 85 93  0     1  0  0  0  0  0999 V2000
  -29.7542  -33.2337   25.0691 C   0  0  0  0  0  0  0  0  0  0  0  0
  -29.5252  -31.9958   24.4769 C   0  0  0  0  0  0  0  0  0  0  0  0
  -22.9276  -10.0941   20.0760 C   0  0  0  0  0  0  0  0  0  0  0  0
  -24.1342   -9.3687   22.0394 C   0  0  0  0  0  0  0  0  0  0  0  0
  -28.6877  -33.9611   25.5959 C   0  0  0  0  0  0  0  0  0  0  0  0
  -28.2297  -31.4841   24.4122 C   0  0  0  0  0  0  0  0  0  0  0  0
  -27.1362  -29.5333   19.8687 C   0  0  0  0  0  0  0  0  0  0  0  0
  -29.1522  -21.1566   20.9409 C   0  0  0  0  0  0  0  0  0  0  0  0
  -22.1702   -8.9233   20.1088 C   0  0  0  0  0  0  0  0  0  0  0  0
  -23.3767   -8.1978   22.0722 C   0  0  0  0  0  0  0  0  0  0  0  0
  -27.6432  -28.2669   19.5807 C   0  0  0  0  0  0  0  0  0  0  0  0
  -20.2891   -7.2578   23.0739 C   0  0  0  0  0  0  0  0  0  0  0  0
  -19.7837   -6.8491   24.3081 C   0  0  0  0  0  0  0  0  0  0  0  0
  -29.7569  -19.9493   21.2727 C   0  0  0  0  0  0  0  0  0  0  0  0
  -25.4977  -27.2959   20.1034 C   0  0  0  0  0  0  0  0  0  0  0  0
  -21.0087   -4.7749   24.1227 C   0  0  0  0  0  0  0  0  0  0  0  0
  -23.9096  -10.3168   21.0412 C   0  0  0  0  0  0  0  0  0  0  0  0
  -24.3973  -12.7479   21.6408 C   0  0  0  0  0  0  0  0  0  0  0  0
  -27.3772  -33.4623   25.5290 C   0  0  0  0  0  0  0  0  0  0  0  0
  -25.8071  -29.6896   20.2873 C   0  0  0  0  0  0  0  0  0  0  0  0
  -27.1449  -32.2048   24.9398 C   0  0  0  0  0  0  0  0  0  0  0  0
  -24.9755  -28.5656   20.3935 C   0  0  0  0  0  0  0  0  0  0  0  0
  -27.8282  -21.3860   21.2983 C   0  0  0  0  0  0  0  0  0  0  0  0
  -22.3948   -7.9751   21.1069 C   0  0  0  0  0  0  0  0  0  0  0  0
  -26.8247  -27.1476   19.7009 C   0  0  0  0  0  0  0  0  0  0  0  0
  -21.1542   -6.4251   22.3641 C   0  0  0  0  0  0  0  0  0  0  0  0
  -20.1435   -5.6077   24.8325 C   0  0  0  0  0  0  0  0  0  0  0  0
  -21.5140   -5.1836   22.8885 C   0  0  0  0  0  0  0  0  0  0  0  0
  -24.6927  -11.5258   21.0076 C   0  0  0  0  0  0  0  0  0  0  0  0
  -27.1579  -20.3839   21.9812 C   0  0  0  0  0  0  0  0  0  0  0  0
  -29.0003  -19.0117   21.9569 C   0  0  0  0  0  0  0  0  0  0  0  0
  -25.4435  -13.5713   21.3032 C   0  0  0  0  0  0  0  0  0  0  0  0
  -23.2774  -13.1067   22.4611 C   0  0  0  0  0  0  0  0  0  0  0  0
  -24.3978  -30.7843   22.9178 C   0  0  0  0  0  0  0  0  0  0  0  0
  -21.6949  -30.3708   21.1727 C   0  0  0  0  0  0  0  0  0  0  0  0
  -27.7645  -23.6891   20.2856 C   0  0  0  0  0  0  0  0  0  0  0  0
  -20.1250  -28.7741   18.5973 C   0  0  0  0  0  0  0  0  0  0  0  0
  -30.9099  -14.4636   20.6196 C   0  0  0  0  0  0  0  0  0  0  0  0
  -26.2628  -34.2634   26.1544 C   0  0  0  0  0  0  0  0  0  0  0  0
  -25.2678  -31.0654   20.5683 C   0  0  0  0  0  0  0  0  0  0  0  0
  -23.5356  -28.6819   20.8195 C   0  0  0  0  0  0  0  0  0  0  0  0
  -24.8710  -33.8202   25.7108 C   0  0  0  0  0  0  0  0  0  0  0  0
  -29.1479  -12.9659   17.9124 C   0  0  0  0  0  0  0  0  0  0  0  0
  -24.7490  -32.3011   25.7741 C   0  0  0  0  0  0  0  0  0  0  0  0
  -27.8106  -12.5532   18.5300 C   0  0  0  0  0  0  0  0  0  0  0  0
  -30.3021  -12.7906   18.8967 C   0  0  0  0  0  0  0  0  0  0  0  0
  -28.7765  -13.0469   20.8152 C   0  0  0  0  0  0  0  0  0  0  0  0
  -25.7506  -31.6273   24.8284 C   0  0  1  0  0  0  0  0  0  0  0  0
  -24.0461  -31.0531   21.4820 C   0  0  1  0  0  0  0  0  0  0  0  0
  -27.5745  -13.2588   19.8790 C   0  0  2  0  0  0  0  0  0  0  0  0
  -25.7335  -20.5710   22.3925 C   0  0  0  0  0  0  0  0  0  0  0  0
  -17.9053  -28.6173   17.4372 C   0  0  0  0  0  0  0  0  0  0  0  0
  -20.6078  -28.7013   23.4837 C   0  0  0  0  0  0  0  0  0  0  0  0
  -18.8607  -27.8110   21.9271 C   0  0  0  0  0  0  0  0  0  0  0  0
  -18.9432  -30.2503   22.4424 C   0  0  0  0  0  0  0  0  0  0  0  0
  -21.2719  -29.6932   16.0285 C   0  0  0  0  0  0  0  0  0  0  0  0
  -26.7533  -24.8103   20.1341 C   0  0  0  0  0  0  0  0  0  1  0  0
  -30.9854  -17.5001   21.9454 C   0  0  0  0  0  0  0  0  0  0  0  0
  -31.3760  -16.1083   22.4187 C   0  0  0  0  0  0  0  0  0  0  0  0
  -20.7226  -29.2356   20.9604 C   0  0  1  0  0  0  0  0  0  0  0  0
  -19.2647  -29.2985   17.4617 C   0  0  2  0  0  0  0  0  0  0  0  0
  -19.8112  -28.9968   22.1972 C   0  0  0  0  0  0  0  0  0  0  0  0
  -25.8368  -11.5650   20.3195 N   0  0  0  0  0  0  0  0  0  0  0  0
  -27.7118  -19.1985   22.3209 N   0  0  0  0  0  0  0  0  0  0  0  0
  -26.2696  -12.8217   20.5184 N   0  0  0  0  0  0  0  0  0  0  0  0
  -23.0567  -30.0476   21.0892 N   0  0  0  0  0  0  0  0  0  0  0  0
  -30.0161  -13.4849   20.1545 N   0  0  0  0  0  0  0  0  0  0  0  0
  -25.7281  -14.8562   21.6039 N   0  0  0  0  0  0  0  0  0  0  0  0
  -22.2931  -12.1400   22.7079 N   0  0  0  0  0  0  0  0  0  0  0  0
  -27.2052  -22.6119   20.9645 N   0  0  0  0  0  0  0  0  0  0  0  0
  -29.6304  -17.7864   22.2880 N   0  0  0  0  0  0  0  0  0  0  0  0
  -25.2809  -31.6976   23.4613 N   0  0  0  0  0  0  0  0  0  0  0  0
  -19.9961  -29.5445   19.7335 N   0  0  0  0  0  0  0  0  0  0  0  0
  -30.5605  -15.0775   21.8161 N   0  0  0  0  0  0  0  0  0  0  0  0
  -19.9340  -29.0593   16.1518 N   0  3  0  0  0  0  0  0  0  0  0  0
  -23.1450  -14.2556   22.9468 O   0  0  0  0  0  0  0  0  0  0  0  0
  -23.9034  -29.8204   23.4907 O   0  0  0  0  0  0  0  0  0  0  0  0
  -21.2620  -31.5039   21.3970 O   0  0  0  0  0  0  0  0  0  0  0  0
  -28.9046  -23.7883   19.8442 O   0  0  0  0  0  0  0  0  0  0  0  0
  -20.8370  -27.7782   18.4884 O   0  0  0  0  0  0  0  0  0  0  0  0
  -31.9401  -14.7715   20.0106 O   0  0  0  0  0  0  0  0  0  0  0  0
  -21.6557   -6.8326   21.1393 O   0  0  0  0  0  0  0  0  0  0  0  0
  -27.3172  -25.9102   19.4211 O   0  0  0  0  0  0  0  0  0  1  0  0
  -19.6593   -5.2160   26.0184 F   0  0  0  0  0  0  0  0  0  0  0  0
  -22.3457   -4.3798   22.2118 F   0  0  0  0  0  0  0  0  0  0  0  0
  1  2  1  0  0  0  0
  1  5  2  0  0  0  0
  2  6  2  0  0  0  0
  3  9  2  0  0  0  0
  3 17  1  0  0  0  0
  4 10  1  0  0  0  0
  4 17  2  0  0  0  0
  5 19  1  0  0  0  0
  6 21  1  0  0  0  0
  7 11  2  0  0  0  0
  7 20  1  0  0  0  0
  8 14  2  0  0  0  0
  8 23  1  0  0  0  0
  9 24  1  0  0  0  0
 10 24  2  0  0  0  0
 11 25  1  0  0  0  0
 12 13  2  0  0  0  0
 12 26  1  0  0  0  0
 13 27  1  0  0  0  0
 14 31  1  0  0  0  0
 15 22  1  0  0  0  0
 15 25  2  0  0  0  0
 16 27  2  0  0  0  0
 16 28  1  0  0  0  0
 17 29  1  0  0  0  0
 18 29  1  0  0  0  0
 18 32  2  0  0  0  0
 18 33  1  0  0  0  0
 19 21  2  0  0  0  0
 19 39  1  0  0  0  0
 20 22  2  0  0  0  0
 20 40  1  0  0  0  0
 21 48  1  0  0  0  0
 22 41  1  0  0  0  0
 23 30  2  0  0  0  0
 23 70  1  0  0  0  0
 24 82  1  0  0  0  0
 25 83  1  0  0  0  0
 26 28  2  0  0  0  0
 26 82  1  0  0  0  0
 27 84  1  0  0  0  0
 28 85  1  0  0  0  0
 29 63  2  0  0  0  0
 30 51  1  0  0  0  0
 30 64  1  0  0  0  0
 31 64  2  0  0  0  0
 31 71  1  0  0  0  0
 32 65  1  0  0  0  0
 32 68  1  0  0  0  0
 33 69  1  0  0  0  0
 33 76  2  0  0  0  0
 34 49  1  0  0  0  0
 34 72  1  0  0  0  0
 34 77  2  0  0  0  0
 35 60  1  0  0  0  0
 35 66  1  0  0  0  0
 35 78  2  0  0  0  0
 36 57  1  0  0  0  0
 36 70  1  0  0  0  0
 36 79  2  0  0  0  0
 37 61  1  0  0  0  0
 37 73  1  0  0  0  0
 37 80  2  0  0  0  0
 38 67  1  0  0  0  0
 38 74  1  0  0  0  0
 38 81  2  0  0  0  0
 39 42  1  0  0  0  0
 40 49  1  0  0  0  0
 41 66  1  0  0  0  0
 42 44  1  0  0  0  0
 43 45  1  0  0  0  0
 43 46  1  0  0  0  0
 44 48  1  0  0  0  0
 45 50  1  0  0  0  0
 46 67  1  0  0  0  0
 47 50  1  0  0  0  0
 47 67  1  0  0  0  0
 48 72  1  0  0  0  0
 49 66  1  0  0  0  0
 50 65  1  0  0  0  0
 52 61  1  0  0  0  0
 53 62  1  0  0  0  0
 54 62  1  0  0  0  0
 55 62  1  0  0  0  0
 56 75  1  0  0  0  0
 57 83  1  0  0  0  0
 58 59  1  0  0  0  0
 58 71  1  0  0  0  0
 59 74  1  0  0  0  0
 60 62  1  0  0  0  0
 60 73  1  0  0  0  0
 61 75  1  0  0  0  0
 63 65  1  0  0  0  0
M  CHG  1  75   1
M  ISO  4  38 100  57 101  74 100  83 101
M  END
> <Batch ID>
0127

> <Smiles>
CNC(C)C(=O)NC(C(=O)N1Cc2cc([101O:1][101CH2:1]C(=O)Nc3ccc(NCC[100NH:0][100C:0](=O)N4CCCC(n5nc(-c6ccc(Oc7ccc(F)cc7F)cc6)c(C(N)=O)c5N)C4)nc3C)ccc2CC1C(=O)NC1CCCc2ccccc21)C(C)(C)C

> <Shape>
0.393

> <Color>
0.179

> <Negative vol penalty>
0.000

$$$$

  -OEChem-04052320403D

 85 94  0     1  0  0  0  0  0999 V2000
  -15.9132  -25.9898   22.5424 C   0  0  0  0  0  0  0  0  0  0  0  0
  -16.7562  -24.9566   22.1457 C   0  0  0  0  0  0  0  0  0  0  0  0
  -29.4845  -23.0276   18.9126 C   0  0  0  0  0  0  0  0  0  0  0  0
  -27.8344  -22.8175   20.6647 C   0  0  0  0  0  0  0  0  0  0  0  0
  -16.4406  -27.2496   22.8226 C   0  0  0  0  0  0  0  0  0  0  0  0
  -18.1270  -25.1831   22.0278 C   0  0  0  0  0  0  0  0  0  0  0  0
  -20.9408  -21.4247   24.1370 C   0  0  0  0  0  0  0  0  0  0  0  0
  -21.6605  -16.7377   19.8696 C   0  0  0  0  0  0  0  0  0  0  0  0
  -22.0042  -15.6110   19.1227 C   0  0  0  0  0  0  0  0  0  0  0  0
  -29.2862  -24.4081   18.8913 C   0  0  0  0  0  0  0  0  0  0  0  0
  -27.6360  -24.1980   20.6434 C   0  0  0  0  0  0  0  0  0  0  0  0
  -21.0975  -20.2357   23.4259 C   0  0  0  0  0  0  0  0  0  0  0  0
  -29.4755  -28.0287   18.6265 C   0  0  0  0  0  0  0  0  0  0  0  0
  -30.6052  -28.8456   18.5829 C   0  0  0  0  0  0  0  0  0  0  0  0
  -23.2501  -20.9937   22.6448 C   0  0  0  0  0  0  0  0  0  0  0  0
  -22.1198  -15.5261   21.9088 C   0  0  0  0  0  0  0  0  0  0  0  0
  -31.3643  -27.9076   20.6760 C   0  0  0  0  0  0  0  0  0  0  0  0
  -28.7586  -22.2322   19.7992 C   0  0  0  0  0  0  0  0  0  0  0  0
  -29.8871  -20.0916   20.6066 C   0  0  0  0  0  0  0  0  0  0  0  0
  -17.8198  -27.4891   22.7174 C   0  0  0  0  0  0  0  0  0  0  0  0
  -21.9345  -22.4135   24.0992 C   0  0  0  0  0  0  0  0  0  0  0  0
  -18.6732  -26.4478   22.3055 C   0  0  0  0  0  0  0  0  0  0  0  0
  -23.1056  -22.1921   23.3601 C   0  0  0  0  0  0  0  0  0  0  0  0
  -21.7184  -16.6953   21.2627 C   0  0  0  0  0  0  0  0  0  0  0  0
  -22.4057  -14.4418   19.7688 C   0  0  0  0  0  0  0  0  0  0  0  0
  -22.4635  -14.3993   21.1618 C   0  0  0  0  0  0  0  0  0  0  0  0
  -28.3620  -24.9933   19.7567 C   0  0  0  0  0  0  0  0  0  0  0  0
  -22.2513  -20.0211   22.6778 C   0  0  0  0  0  0  0  0  0  0  0  0
  -29.2901  -27.1513   19.6949 C   0  0  0  0  0  0  0  0  0  0  0  0
  -31.5497  -28.7851   19.6076 C   0  0  0  0  0  0  0  0  0  0  0  0
  -30.2345  -27.0908   20.7196 C   0  0  0  0  0  0  0  0  0  0  0  0
  -28.9626  -20.8061   19.8213 C   0  0  0  0  0  0  0  0  0  0  0  0
  -29.6871  -18.7773   20.2618 C   0  0  0  0  0  0  0  0  0  0  0  0
  -30.8413  -20.5730   21.5624 C   0  0  0  0  0  0  0  0  0  0  0  0
  -22.1308  -25.4690   23.1658 C   0  0  0  0  0  0  0  0  0  0  0  0
  -25.1618  -25.1362   24.4906 C   0  0  0  0  0  0  0  0  0  0  0  0
  -25.5292  -28.5261   24.3758 C   0  0  0  0  0  0  0  0  0  0  0  0
  -25.4316  -15.2310   18.9475 C   0  0  0  0  0  0  0  0  0  0  0  0
  -18.3375  -28.8802   22.9850 C   0  0  0  0  0  0  0  0  0  0  0  0
  -21.7593  -23.6767   24.8981 C   0  0  0  0  0  0  0  0  0  0  0  0
  -24.2025  -23.2201   23.2905 C   0  0  0  0  0  0  0  0  0  0  0  0
  -19.8480  -28.9374   23.1978 C   0  0  0  0  0  0  0  0  0  0  0  0
  -24.7092  -12.0050   23.7180 C   0  0  0  0  0  0  0  0  0  0  0  0
  -27.6742  -16.4582   16.3857 C   0  0  0  0  0  0  0  0  0  0  0  0
  -20.5693  -28.1266   22.1259 C   0  0  0  0  0  0  0  0  0  0  0  0
  -28.3286  -17.6440   17.0970 C   0  0  0  0  0  0  0  0  0  0  0  0
  -24.3378  -13.4999   23.7960 C   0  0  0  0  0  0  0  0  0  0  0  0
  -23.1997  -11.6894   23.7385 C   0  0  0  0  0  0  0  0  0  0  0  0
  -26.2001  -16.3341   16.7600 C   0  0  0  0  0  0  0  0  0  0  0  0
  -26.5956  -17.4191   18.9371 C   0  0  0  0  0  0  0  0  0  0  0  0
  -20.1688  -26.6477   22.1900 C   0  0  1  0  0  0  0  0  0  0  0  0
  -22.6448  -24.8269   24.4231 C   0  0  1  0  0  0  0  0  0  0  0  0
  -28.0925  -17.5849   18.6178 C   0  0  2  0  0  0  0  0  0  0  0  0
  -22.9408  -13.1315   23.2531 C   0  0  0  0  0  0  0  0  0  0  0  0
  -27.0489  -30.3699   25.1430 C   0  0  0  0  0  0  0  0  0  0  0  0
  -24.0342  -24.8864   27.3140 C   0  0  0  0  0  0  0  0  0  0  0  0
  -24.8037  -27.2281   27.7526 C   0  0  0  0  0  0  0  0  0  0  0  0
  -26.4681  -25.4514   27.2087 C   0  0  0  0  0  0  0  0  0  0  0  0
  -26.1158  -29.3564   21.5964 C   0  0  0  0  0  0  0  0  0  0  0  0
  -22.7663  -13.2493   18.9439 C   0  0  0  0  0  0  0  0  0  0  0  0
  -21.3486  -17.9077   22.0657 C   0  0  0  0  0  0  0  0  0  1  0  0
  -24.2774  -13.0394   18.8004 C   0  0  0  0  0  0  0  0  0  0  0  0
  -24.9559  -26.3334   25.3846 C   0  0  1  0  0  0  0  0  0  0  0  0
  -26.7190  -29.3991   24.0198 C   0  0  2  0  0  0  0  0  0  0  0  0
  -25.0478  -25.9692   26.8934 C   0  0  0  0  0  0  0  0  0  0  0  0
  -28.2299  -20.0114   19.0366 N   0  0  0  0  0  0  0  0  0  0  0  0
  -28.6939  -18.7841   19.3270 N   0  0  0  0  0  0  0  0  0  0  0  0
  -24.0221  -24.3954   24.1526 N   0  0  0  0  0  0  0  0  0  0  0  0
  -26.0460  -16.2638   18.2199 N   0  0  0  0  0  0  0  0  0  0  0  0
  -30.2658  -17.6279   20.6699 N   0  0  0  0  0  0  0  0  0  0  0  0
  -30.9148  -21.9530   21.7961 N   0  0  0  0  0  0  0  0  0  0  0  0
  -22.8659  -13.2238   21.8327 N   0  0  0  0  0  0  0  0  0  0  0  0
  -20.8540  -25.9853   23.2791 N   0  0  0  0  0  0  0  0  0  0  0  0
  -25.9225  -27.3369   24.9522 N   0  0  0  0  0  0  0  0  0  0  0  0
  -24.9311  -14.1772   18.1928 N   0  0  0  0  0  0  0  0  0  0  0  0
  -26.4335  -30.1862   22.7870 N   0  3  0  0  0  0  0  0  0  0  0  0
  -31.6173  -19.8038   22.1785 O   0  0  0  0  0  0  0  0  0  0  0  0
  -22.8405  -25.4955   22.1672 O   0  0  0  0  0  0  0  0  0  0  0  0
  -26.3018  -24.8588   24.1075 O   0  0  0  0  0  0  0  0  0  0  0  0
  -24.3669  -28.8669   24.1672 O   0  0  0  0  0  0  0  0  0  0  0  0
  -25.3406  -15.2443   20.1798 O   0  0  0  0  0  0  0  0  0  0  0  0
  -28.1683  -26.3404   19.7364 O   0  0  0  0  0  0  0  0  0  0  0  0
  -22.4070  -18.8612   21.9833 O   0  0  0  0  0  0  0  0  0  1  0  0
  -32.6353  -29.5685   19.5648 F   0  0  0  0  0  0  0  0  0  0  0  0
  -30.0624  -26.2490   21.7480 F   0  0  0  0  0  0  0  0  0  0  0  0
  1  2  1  0  0  0  0
  1  5  2  0  0  0  0
  2  6  2  0  0  0  0
  3 10  2  0  0  0  0
  3 18  1  0  0  0  0
  4 11  1  0  0  0  0
  4 18  2  0  0  0  0
  5 20  1  0  0  0  0
  6 22  1  0  0  0  0
  7 12  2  0  0  0  0
  7 21  1  0  0  0  0
  8  9  2  0  0  0  0
  8 24  1  0  0  0  0
  9 25  1  0  0  0  0
 10 27  1  0  0  0  0
 11 27  2  0  0  0  0
 12 28  1  0  0  0  0
 13 14  2  0  0  0  0
 13 29  1  0  0  0  0
 14 30  1  0  0  0  0
 15 23  1  0  0  0  0
 15 28  2  0  0  0  0
 16 24  2  0  0  0  0
 16 26  1  0  0  0  0
 17 30  2  0  0  0  0
 17 31  1  0  0  0  0
 18 32  1  0  0  0  0
 19 32  1  0  0  0  0
 19 33  2  0  0  0  0
 19 34  1  0  0  0  0
 20 22  2  0  0  0  0
 20 39  1  0  0  0  0
 21 23  2  0  0  0  0
 21 40  1  0  0  0  0
 22 51  1  0  0  0  0
 23 41  1  0  0  0  0
 24 61  1  0  0  0  0
 25 26  2  0  0  0  0
 25 60  1  0  0  0  0
 26 72  1  0  0  0  0
 27 82  1  0  0  0  0
 28 83  1  0  0  0  0
 29 31  2  0  0  0  0
 29 82  1  0  0  0  0
 30 84  1  0  0  0  0
 31 85  1  0  0  0  0
 32 66  2  0  0  0  0
 33 67  1  0  0  0  0
 33 70  1  0  0  0  0
 34 71  1  0  0  0  0
 34 77  2  0  0  0  0
 35 52  1  0  0  0  0
 35 73  1  0  0  0  0
 35 78  2  0  0  0  0
 36 63  1  0  0  0  0
 36 68  1  0  0  0  0
 36 79  2  0  0  0  0
 37 64  1  0  0  0  0
 37 74  1  0  0  0  0
 37 80  2  0  0  0  0
 38 69  1  0  0  0  0
 38 75  1  0  0  0  0
 38 81  2  0  0  0  0
 39 42  1  0  0  0  0
 40 52  1  0  0  0  0
 41 68  1  0  0  0  0
 42 45  1  0  0  0  0
 43 47  1  0  0  0  0
 43 48  1  0  0  0  0
 44 46  1  0  0  0  0
 44 49  1  0  0  0  0
 45 51  1  0  0  0  0
 46 53  1  0  0  0  0
 47 54  1  0  0  0  0
 48 54  1  0  0  0  0
 49 69  1  0  0  0  0
 50 53  1  0  0  0  0
 50 69  1  0  0  0  0
 51 73  1  0  0  0  0
 52 68  1  0  0  0  0
 53 67  1  0  0  0  0
 54 72  1  0  0  0  0
 55 64  1  0  0  0  0
 56 65  1  0  0  0  0
 57 65  1  0  0  0  0
 58 65  1  0  0  0  0
 59 76  1  0  0  0  0
 60 62  1  0  0  0  0
 61 83  1  0  0  0  0
 62 75  1  0  0  0  0
 63 65  1  0  0  0  0
 63 74  1  0  0  0  0
 64 76  1  0  0  0  0
 66 67  1  0  0  0  0
M  CHG  1  76   1
M  ISO  4  38 100  61 101  75 100  83 101
M  END
> <Batch ID>
0127

> <Smiles>
CNC(C)C(=O)NC(C(=O)N1Cc2cc([101O:1][101CH2:1]c3ccc(CC[100NH:0][100C:0](=O)N4CCCC(n5nc(-c6ccc(Oc7ccc(F)cc7F)cc6)c(C(N)=O)c5N)C4)c(NC4CCC4)c3)ccc2CC1C(=O)NC1CCCc2ccccc21)C(C)(C)C

> <Shape>
0.202

> <Color>
0.077

> <Negative vol penalty>
0.000

$$$$

  -OEChem-04052320403D

 86 95  0     1  0  0  0  0  0999 V2000
  -28.8197  -22.4731   15.9063 C   0  0  0  0  0  0  0  0  0  0  0  0
  -28.2230  -22.1381   17.1175 C   0  0  0  0  0  0  0  0  0  0  0  0
  -33.7882  -12.0649   24.2837 C   0  0  0  0  0  0  0  0  0  0  0  0
  -23.2459   -9.7868   19.9999 C   0  0  0  0  0  0  0  0  0  0  0  0
  -23.8244   -9.9755   22.3380 C   0  0  0  0  0  0  0  0  0  0  0  0
  -29.9016  -21.7309   15.4346 C   0  0  0  0  0  0  0  0  0  0  0  0
  -28.7071  -21.0598   17.8573 C   0  0  0  0  0  0  0  0  0  0  0  0
  -29.5662  -18.8677   24.6229 C   0  0  0  0  0  0  0  0  0  0  0  0
  -32.9551  -12.3554   23.2034 C   0  0  0  0  0  0  0  0  0  0  0  0
  -33.2812  -12.0931   25.5829 C   0  0  0  0  0  0  0  0  0  0  0  0
  -22.5359   -8.6170   20.2700 C   0  0  0  0  0  0  0  0  0  0  0  0
  -23.1143   -8.8056   22.6081 C   0  0  0  0  0  0  0  0  0  0  0  0
  -29.2805  -17.7803   25.4472 C   0  0  0  0  0  0  0  0  0  0  0  0
  -19.5214   -7.7714   21.5470 C   0  0  0  0  0  0  0  0  0  0  0  0
  -18.2594   -7.6312   20.9697 C   0  0  0  0  0  0  0  0  0  0  0  0
  -31.2052  -16.6189   24.5722 C   0  0  0  0  0  0  0  0  0  0  0  0
  -31.1078  -12.7026   24.7214 C   0  0  0  0  0  0  0  0  0  0  0  0
  -19.0042   -5.6381   19.8254 C   0  0  0  0  0  0  0  0  0  0  0  0
  -23.8902  -10.4661   21.0340 C   0  0  0  0  0  0  0  0  0  0  0  0
  -24.1299  -12.9922   20.7718 C   0  0  0  0  0  0  0  0  0  0  0  0
  -30.4054  -20.6489   16.1737 C   0  0  0  0  0  0  0  0  0  0  0  0
  -30.6692  -18.8345   23.7576 C   0  0  0  0  0  0  0  0  0  0  0  0
  -29.7959  -20.3016   17.3944 C   0  0  0  0  0  0  0  0  0  0  0  0
  -31.5042  -17.7082   23.7397 C   0  0  0  0  0  0  0  0  0  0  0  0
  -31.6150  -12.6743   23.4222 C   0  0  0  0  0  0  0  0  0  0  0  0
  -22.4700   -8.1264   21.5740 C   0  0  0  0  0  0  0  0  0  0  0  0
  -30.0983  -16.6545   25.4199 C   0  0  0  0  0  0  0  0  0  0  0  0
  -31.9410  -12.4120   25.8017 C   0  0  0  0  0  0  0  0  0  0  0  0
  -20.5249   -6.8450   21.2634 C   0  0  0  0  0  0  0  0  0  0  0  0
  -18.0008   -6.5646   20.1089 C   0  0  0  0  0  0  0  0  0  0  0  0
  -20.2663   -5.7783   20.4026 C   0  0  0  0  0  0  0  0  0  0  0  0
  -24.6243  -11.6742   20.7556 C   0  0  0  0  0  0  0  0  0  0  0  0
  -25.2133  -13.7694   20.4419 C   0  0  0  0  0  0  0  0  0  0  0  0
  -22.8095  -13.4711   21.0594 C   0  0  0  0  0  0  0  0  0  0  0  0
  -31.0520  -18.9723   20.6051 C   0  0  0  0  0  0  0  0  0  0  0  0
  -34.2004  -19.0506   21.3823 C   0  0  0  0  0  0  0  0  0  0  0  0
  -36.6442  -18.3168   23.6486 C   0  0  0  0  0  0  0  0  0  0  0  0
  -31.1131  -12.9852   20.9732 C   0  0  0  0  0  0  0  0  0  0  0  0
  -31.5467  -19.8469   15.6003 C   0  0  0  0  0  0  0  0  0  0  0  0
  -30.9793  -20.0264   22.8941 C   0  0  0  0  0  0  0  0  0  0  0  0
  -32.7122  -17.6308   22.8435 C   0  0  0  0  0  0  0  0  0  0  0  0
  -32.2374  -18.9513   16.6256 C   0  0  0  0  0  0  0  0  0  0  0  0
  -29.3119  -13.6246   17.9692 C   0  0  0  0  0  0  0  0  0  0  0  0
  -32.7939  -15.3544   30.1519 C   0  0  0  0  0  0  0  0  0  0  0  0
  -31.2049  -18.1903   17.4512 C   0  0  0  0  0  0  0  0  0  0  0  0
  -27.8596  -13.3228   18.3460 C   0  0  0  0  0  0  0  0  0  0  0  0
  -32.4601  -13.8963   30.4055 C   0  0  0  0  0  0  0  0  0  0  0  0
  -30.2859  -12.6659   18.6518 C   0  0  0  0  0  0  0  0  0  0  0  0
  -28.6912  -12.2685   20.4870 C   0  0  0  0  0  0  0  0  0  0  0  0
  -31.4942  -15.9028   29.6066 C   0  0  0  0  0  0  0  0  0  0  0  0
  -30.3083  -19.1541   18.2377 C   0  0  1  0  0  0  0  0  0  0  0  0
  -31.8321  -19.6777   21.6782 C   0  0  1  0  0  0  0  0  0  0  0  0
  -27.6778  -13.2492   19.8747 C   0  0  2  0  0  0  0  0  0  0  0  0
  -31.5774  -13.4853   29.2273 C   0  0  2  0  0  0  0  0  0  0  0  0
  -39.1263  -18.4658   23.9867 C   0  0  0  0  0  0  0  0  0  0  0  0
  -34.5972  -16.6881   19.4925 C   0  0  0  0  0  0  0  0  0  0  0  0
  -36.8204  -16.2876   20.5720 C   0  0  0  0  0  0  0  0  0  0  0  0
  -36.3862  -18.4316   19.3730 C   0  0  0  0  0  0  0  0  0  0  0  0
  -36.3332  -20.0547   26.0238 C   0  0  0  0  0  0  0  0  0  0  0  0
  -32.3472  -12.7886   28.1145 C   0  0  0  0  0  0  0  0  0  0  0  0
  -29.5366  -14.7954   28.4742 C   0  0  0  0  0  0  0  0  0  0  0  0
  -29.1742  -15.8667   27.4647 C   0  0  0  0  0  0  0  0  0  1  0  0
  -35.2730  -18.0116   21.6038 C   0  0  1  0  0  0  0  0  0  0  0  0
  -37.7854  -19.1494   24.2044 C   0  0  2  0  0  0  0  0  0  0  0  0
  -35.7454  -17.3551   20.2759 C   0  0  0  0  0  0  0  0  0  0  0  0
  -25.9208  -11.6137   20.4402 N   0  0  0  0  0  0  0  0  0  0  0  0
  -26.2502  -12.9034   20.2551 N   0  0  0  0  0  0  0  0  0  0  0  0
  -32.9699  -18.8190   22.0133 N   0  0  0  0  0  0  0  0  0  0  0  0
  -30.0575  -12.6517   20.0983 N   0  0  0  0  0  0  0  0  0  0  0  0
  -25.3705  -15.1023   20.2962 N   0  0  0  0  0  0  0  0  0  0  0  0
  -21.8150  -12.5370   21.3801 N   0  0  0  0  0  0  0  0  0  0  0  0
  -30.7690  -12.9691   22.3244 N   0  0  0  0  0  0  0  0  0  0  0  0
  -31.0042  -19.6539   19.4040 N   0  0  0  0  0  0  0  0  0  0  0  0
  -36.3347  -18.6745   22.3534 N   0  0  0  0  0  0  0  0  0  0  0  0
  -31.0169  -14.8004   28.6894 N   0  3  1  0  0  0  0  0  0  0  0  0
  -37.6018  -19.3690   25.6670 N   0  3  0  0  0  0  0  0  0  0  0  0
  -22.5161  -14.6900   21.0168 O   0  0  0  0  0  0  0  0  0  0  0  0
  -30.5332  -17.8891   20.8483 O   0  0  0  0  0  0  0  0  0  0  0  0
  -34.4475  -20.0350   20.6812 O   0  0  0  0  0  0  0  0  0  0  0  0
  -36.0858  -17.4346   24.2971 O   0  0  0  0  0  0  0  0  0  0  0  0
  -32.2320  -13.2911   20.5531 O   0  0  0  0  0  0  0  0  0  0  0  0
  -21.7771   -6.9851   21.8379 O   0  0  0  0  0  0  0  0  0  0  0  0
  -31.4422  -12.4400   27.0794 O   0  0  0  0  0  0  0  0  0  0  0  0
  -29.8213  -15.5914   26.2230 O   0  0  0  0  0  0  0  0  0  1  0  0
  -16.7883   -6.4292   19.5559 F   0  0  0  0  0  0  0  0  0  0  0  0
  -21.2260   -4.8844   20.1273 F   0  0  0  0  0  0  0  0  0  0  0  0
  1  2  1  0  0  0  0
  1  6  2  0  0  0  0
  2  7  2  0  0  0  0
  3  9  1  0  0  0  0
  3 10  2  0  0  0  0
  4 11  2  0  0  0  0
  4 19  1  0  0  0  0
  5 12  1  0  0  0  0
  5 19  2  0  0  0  0
  6 21  1  0  0  0  0
  7 23  1  0  0  0  0
  8 13  2  0  0  0  0
  8 22  1  0  0  0  0
  9 25  2  0  0  0  0
 10 28  1  0  0  0  0
 11 26  1  0  0  0  0
 12 26  2  0  0  0  0
 13 27  1  0  0  0  0
 14 15  2  0  0  0  0
 14 29  1  0  0  0  0
 15 30  1  0  0  0  0
 16 24  1  0  0  0  0
 16 27  2  0  0  0  0
 17 25  1  0  0  0  0
 17 28  2  0  0  0  0
 18 30  2  0  0  0  0
 18 31  1  0  0  0  0
 19 32  1  0  0  0  0
 20 32  1  0  0  0  0
 20 33  2  0  0  0  0
 20 34  1  0  0  0  0
 21 23  2  0  0  0  0
 21 39  1  0  0  0  0
 22 24  2  0  0  0  0
 22 40  1  0  0  0  0
 23 51  1  0  0  0  0
 24 41  1  0  0  0  0
 25 72  1  0  0  0  0
 26 82  1  0  0  0  0
 27 84  1  0  0  0  0
 28 83  1  0  0  0  0
 29 31  2  0  0  0  0
 29 82  1  0  0  0  0
 30 85  1  0  0  0  0
 31 86  1  0  0  0  0
 32 66  2  0  0  0  0
 33 67  1  0  0  0  0
 33 70  1  0  0  0  0
 34 71  1  0  0  0  0
 34 77  2  0  0  0  0
 35 52  1  0  0  0  0
 35 73  1  0  0  0  0
 35 78  2  0  0  0  0
 36 63  1  0  0  0  0
 36 68  1  0  0  0  0
 36 79  2  0  0  0  0
 37 64  1  0  0  0  0
 37 74  1  0  0  0  0
 37 80  2  0  0  0  0
 38 69  1  0  0  0  0
 38 72  1  0  0  0  0
 38 81  2  0  0  0  0
 39 42  1  0  0  0  0
 40 52  1  0  0  0  0
 41 68  1  0  0  0  0
 42 45  1  0  0  0  0
 43 46  1  0  0  0  0
 43 48  1  0  0  0  0
 44 47  1  0  0  0  0
 44 50  1  0  0  0  0
 45 51  1  0  0  0  0
 46 53  1  0  0  0  0
 47 54  1  0  0  0  0
 48 69  1  0  0  0  0
 49 53  1  0  0  0  0
 49 69  1  0  0  0  0
 50 75  1  0  0  0  0
 51 73  1  0  0  0  0
 52 68  1  0  0  0  0
 53 67  1  0  0  0  0
 54 60  1  0  0  0  0
 54 75  1  0  0  0  0
 55 64  1  0  0  0  0
 56 65  1  0  0  0  0
 57 65  1  0  0  0  0
 58 65  1  0  0  0  0
 59 76  1  0  0  0  0
 60 83  1  0  0  0  0
 61 62  1  0  0  0  0
 61 75  1  0  0  0  0
 62 84  1  0  0  0  0
 63 65  1  0  0  0  0
 63 74  1  0  0  0  0
 64 76  1  0  0  0  0
 66 67  1  0  0  0  0
M  CHG  2  75   1  76   1
M  ISO  4  38 100  62 101  72 100  84 101
M  END
> <Batch ID>
0127

> <Smiles>
CNC(C)C(=O)NC(C(=O)N1Cc2cc([101O:1][101CH2:1]CN3CCCC3COc3cccc([100NH:0][100C:0](=O)N4CCCC(n5nc(-c6ccc(Oc7ccc(F)cc7F)cc6)c(C(N)=O)c5N)C4)c3)ccc2CC1C(=O)NC1CCCc2ccccc21)C(C)(C)C

> <Shape>
0.146

> <Color>
0.173

> <Negative vol penalty>
0.000

$$$$

  -OEChem-04052320403D

 82 90  0     1  0  0  0  0  0999 V2000
  -31.1421  -26.8640   17.3721 C   0  0  0  0  0  0  0  0  0  0  0  0
  -30.2993  -25.8119   17.7162 C   0  0  0  0  0  0  0  0  0  0  0  0
  -29.6350  -16.7396   19.9714 C   0  0  0  0  0  0  0  0  0  0  0  0
  -27.6500  -17.5063   21.1154 C   0  0  0  0  0  0  0  0  0  0  0  0
  -31.1199  -28.0445   18.1136 C   0  0  0  0  0  0  0  0  0  0  0  0
  -29.4346  -25.9395   18.8026 C   0  0  0  0  0  0  0  0  0  0  0  0
  -23.8153  -23.5633   19.3341 C   0  0  0  0  0  0  0  0  0  0  0  0
  -29.9947  -18.0616   19.7095 C   0  0  0  0  0  0  0  0  0  0  0  0
  -28.0097  -18.8283   20.8537 C   0  0  0  0  0  0  0  0  0  0  0  0
  -23.3374  -22.4182   19.9699 C   0  0  0  0  0  0  0  0  0  0  0  0
  -30.1575  -21.1179   22.1047 C   0  0  0  0  0  0  0  0  0  0  0  0
  -30.0514  -22.0358   23.1495 C   0  0  0  0  0  0  0  0  0  0  0  0
  -22.7644  -23.7392   21.9053 C   0  0  0  0  0  0  0  0  0  0  0  0
  -28.4843  -23.3354   21.8486 C   0  0  0  0  0  0  0  0  0  0  0  0
  -28.4626  -16.4619   20.6743 C   0  0  0  0  0  0  0  0  0  0  0  0
  -28.8254  -14.1434   21.6745 C   0  0  0  0  0  0  0  0  0  0  0  0
  -30.2476  -28.1902   19.2037 C   0  0  0  0  0  0  0  0  0  0  0  0
  -23.7813  -24.8052   19.9845 C   0  0  0  0  0  0  0  0  0  0  0  0
  -29.4017  -27.1226   19.5602 C   0  0  0  0  0  0  0  0  0  0  0  0
  -23.2402  -24.8990   21.2746 C   0  0  0  0  0  0  0  0  0  0  0  0
  -29.1821  -19.1059   20.1507 C   0  0  0  0  0  0  0  0  0  0  0  0
  -22.8145  -22.5056   21.2568 C   0  0  0  0  0  0  0  0  0  0  0  0
  -29.4271  -21.3087   20.9317 C   0  0  0  0  0  0  0  0  0  0  0  0
  -29.2148  -23.1446   23.0215 C   0  0  0  0  0  0  0  0  0  0  0  0
  -28.5904  -22.4174   20.8037 C   0  0  0  0  0  0  0  0  0  0  0  0
  -28.0902  -15.0965   20.9445 C   0  0  0  0  0  0  0  0  0  0  0  0
  -28.0472  -13.0120   21.6432 C   0  0  0  0  0  0  0  0  0  0  0  0
  -30.0979  -14.2695   22.3230 C   0  0  0  0  0  0  0  0  0  0  0  0
  -25.9738  -26.9068   20.9224 C   0  0  0  0  0  0  0  0  0  0  0  0
  -23.3746  -28.7018   21.6603 C   0  0  0  0  0  0  0  0  0  0  0  0
  -20.0566  -28.8076   22.4519 C   0  0  0  0  0  0  0  0  0  0  0  0
  -22.1662  -12.1261   20.9501 C   0  0  0  0  0  0  0  0  0  0  0  0
  -30.2932  -29.4676   20.0042 C   0  0  0  0  0  0  0  0  0  0  0  0
  -24.2762  -26.0355   19.2747 C   0  0  0  0  0  0  0  0  0  0  0  0
  -23.1623  -26.2120   22.0084 C   0  0  0  0  0  0  0  0  0  0  0  0
  -29.0807  -29.6616   20.9112 C   0  0  0  0  0  0  0  0  0  0  0  0
  -24.7843  -10.7852   18.9440 C   0  0  0  0  0  0  0  0  0  0  0  0
  -28.7756  -28.3777   21.6764 C   0  0  0  0  0  0  0  0  0  0  0  0
  -25.9948  -11.6521   19.2951 C   0  0  0  0  0  0  0  0  0  0  0  0
  -21.2231  -17.0019   24.1873 C   0  0  0  0  0  0  0  0  0  0  0  0
  -20.3273  -17.4536   21.8803 C   0  0  0  0  0  0  0  0  0  0  0  0
  -23.4929  -11.6001   18.9253 C   0  0  0  0  0  0  0  0  0  0  0  0
  -24.4391  -13.2368   20.5063 C   0  0  0  0  0  0  0  0  0  0  0  0
  -20.5435  -15.6416   24.1820 C   0  0  0  0  0  0  0  0  0  0  0  0
  -19.6499  -16.0921   21.8802 C   0  0  0  0  0  0  0  0  0  0  0  0
  -28.4320  -27.2320   20.7168 C   0  0  1  0  0  0  0  0  0  0  0  0
  -24.6650  -27.1602   20.2293 C   0  0  1  0  0  0  0  0  0  0  0  0
  -25.7570  -12.4481   20.5924 C   0  0  2  0  0  0  0  0  0  0  0  0
  -20.4936  -18.0020   23.2953 C   0  0  0  0  0  0  0  0  0  0  0  0
  -18.2213  -30.4159   23.0368 C   0  0  0  0  0  0  0  0  0  0  0  0
  -24.5300  -28.9950   24.4691 C   0  0  0  0  0  0  0  0  0  0  0  0
  -22.2753  -29.7620   25.2411 C   0  0  0  0  0  0  0  0  0  0  0  0
  -23.5227  -31.0835   23.5322 C   0  0  0  0  0  0  0  0  0  0  0  0
  -18.4586  -28.0245   20.0871 C   0  0  0  0  0  0  0  0  0  0  0  0
  -20.9620  -12.7451   23.0299 C   0  0  0  0  0  0  0  0  0  0  0  0
  -19.8716  -13.7485   22.7038 C   0  0  0  0  0  0  0  0  0  0  0  0
  -21.2882  -21.5648   22.8192 C   0  0  0  0  0  0  0  0  0  1  0  0
  -20.4373  -20.3099   22.8461 C   0  0  0  0  0  0  0  0  0  0  0  0
  -22.4996  -28.8655   22.8796 C   0  0  1  0  0  0  0  0  0  0  0  0
  -18.9202  -29.6604   21.9173 C   0  0  2  0  0  0  0  0  0  0  0  0
  -23.2100  -29.6513   24.0177 C   0  0  0  0  0  0  0  0  0  0  0  0
  -26.9339  -14.6127   20.4830 N   0  0  0  0  0  0  0  0  0  0  0  0
  -26.9367  -13.3433   20.9241 N   0  0  0  0  0  0  0  0  0  0  0  0
  -23.6647  -27.3854   21.2747 N   0  0  0  0  0  0  0  0  0  0  0  0
  -23.3263  -12.3296   20.1847 N   0  0  0  0  0  0  0  0  0  0  0  0
  -28.2115  -11.7761   22.1608 N   0  0  0  0  0  0  0  0  0  0  0  0
  -30.1277  -14.6868   23.6606 N   0  0  0  0  0  0  0  0  0  0  0  0
  -27.0762  -27.3700   20.2299 N   0  0  0  0  0  0  0  0  0  0  0  0
  -21.2606  -29.4786   22.4134 N   0  0  0  0  0  0  0  0  0  0  0  0
  -22.0908  -12.8519   22.1326 N   0  0  0  0  0  0  0  0  0  0  0  0
  -20.4305  -15.1437   22.7600 N   0  3  0  0  0  0  0  0  0  0  0  0
  -17.9129  -28.8068   21.2260 N   0  3  0  0  0  0  0  0  0  0  0  0
  -31.1775  -14.0352   21.7287 O   0  0  0  0  0  0  0  0  0  0  0  0
  -25.9827  -26.3348   22.0061 O   0  0  0  0  0  0  0  0  0  0  0  0
  -23.7797  -29.7049   21.0676 O   0  0  0  0  0  0  0  0  0  0  0  0
  -19.8921  -27.6621   22.8659 O   0  0  0  0  0  0  0  0  0  0  0  0
  -21.2670  -11.3508   20.6078 O   0  0  0  0  0  0  0  0  0  0  0  0
  -29.5330  -20.3960   19.8956 O   0  0  0  0  0  0  0  0  0  0  0  0
  -22.3479  -21.3893   21.8799 O   0  0  0  0  0  0  0  0  0  1  0  0
  -21.2421  -19.2116   23.2575 O   0  0  0  0  0  0  0  0  0  0  0  0
  -29.1118  -24.0252   24.0255 F   0  0  0  0  0  0  0  0  0  0  0  0
  -27.8853  -22.6054   19.6798 F   0  0  0  0  0  0  0  0  0  0  0  0
  1  2  1  0  0  0  0
  1  5  2  0  0  0  0
  2  6  2  0  0  0  0
  3  8  2  0  0  0  0
  3 15  1  0  0  0  0
  4  9  1  0  0  0  0
  4 15  2  0  0  0  0
  5 17  1  0  0  0  0
  6 19  1  0  0  0  0
  7 10  2  0  0  0  0
  7 18  1  0  0  0  0
  8 21  1  0  0  0  0
  9 21  2  0  0  0  0
 10 22  1  0  0  0  0
 11 12  2  0  0  0  0
 11 23  1  0  0  0  0
 12 24  1  0  0  0  0
 13 20  1  0  0  0  0
 13 22  2  0  0  0  0
 14 24  2  0  0  0  0
 14 25  1  0  0  0  0
 15 26  1  0  0  0  0
 16 26  1  0  0  0  0
 16 27  2  0  0  0  0
 16 28  1  0  0  0  0
 17 19  2  0  0  0  0
 17 33  1  0  0  0  0
 18 20  2  0  0  0  0
 18 34  1  0  0  0  0
 19 46  1  0  0  0  0
 20 35  1  0  0  0  0
 21 78  1  0  0  0  0
 22 79  1  0  0  0  0
 23 25  2  0  0  0  0
 23 78  1  0  0  0  0
 24 81  1  0  0  0  0
 25 82  1  0  0  0  0
 26 62  2  0  0  0  0
 27 63  1  0  0  0  0
 27 66  1  0  0  0  0
 28 67  1  0  0  0  0
 28 73  2  0  0  0  0
 29 47  1  0  0  0  0
 29 68  1  0  0  0  0
 29 74  2  0  0  0  0
 30 59  1  0  0  0  0
 30 64  1  0  0  0  0
 30 75  2  0  0  0  0
 31 60  1  0  0  0  0
 31 69  1  0  0  0  0
 31 76  2  0  0  0  0
 32 65  1  0  0  0  0
 32 70  1  0  0  0  0
 32 77  2  0  0  0  0
 33 36  1  0  0  0  0
 34 47  1  0  0  0  0
 35 64  1  0  0  0  0
 36 38  1  0  0  0  0
 37 39  1  0  0  0  0
 37 42  1  0  0  0  0
 38 46  1  0  0  0  0
 39 48  1  0  0  0  0
 40 44  1  0  0  0  0
 40 49  1  0  0  0  0
 41 45  1  0  0  0  0
 41 49  1  0  0  0  0
 42 65  1  0  0  0  0
 43 48  1  0  0  0  0
 43 65  1  0  0  0  0
 44 71  1  0  0  0  0
 45 71  1  0  0  0  0
 46 68  1  0  0  0  0
 47 64  1  0  0  0  0
 48 63  1  0  0  0  0
 49 80  1  0  0  0  0
 50 60  1  0  0  0  0
 51 61  1  0  0  0  0
 52 61  1  0  0  0  0
 53 61  1  0  0  0  0
 54 72  1  0  0  0  0
 55 56  1  0  0  0  0
 55 70  1  0  0  0  0
 56 71  1  0  0  0  0
 57 58  1  0  0  0  0
 57 79  1  0  0  0  0
 58 80  1  0  0  0  0
 59 61  1  0  0  0  0
 59 69  1  0  0  0  0
 60 72  1  0  0  0  0
 62 63  1  0  0  0  0
M  CHG  2  71   1  72   1
M  ISO  4  32 100  57 101  70 100  79 101
M  END
> <Batch ID>
0127

> <Smiles>
CNC(C)C(=O)NC(C(=O)N1Cc2cc([101O:1][101CH2:1]COC3CCN(CC[100NH:0][100C:0](=O)N4CCCC(n5nc(-c6ccc(Oc7ccc(F)cc7F)cc6)c(C(N)=O)c5N)C4)CC3)ccc2CC1C(=O)NC1CCCc2ccccc21)C(C)(C)C

> <Shape>
0.239

> <Color>
0.060

> <Negative vol penalty>
0.000

$$$$

  -OEChem-04052320403D

 88 97  0     1  0  0  0  0  0999 V2000
  -31.7685  -16.4505   19.8850 C   0  0  0  0  0  0  0  0  0  0  0  0
  -30.6118  -17.2060   20.0485 C   0  0  0  0  0  0  0  0  0  0  0  0
  -29.5822  -25.1460   20.6961 C   0  0  0  0  0  0  0  0  0  0  0  0
  -27.4547  -24.9381   19.5702 C   0  0  0  0  0  0  0  0  0  0  0  0
  -31.6767  -15.0792   19.6505 C   0  0  0  0  0  0  0  0  0  0  0  0
  -29.3625  -16.5907   19.9765 C   0  0  0  0  0  0  0  0  0  0  0  0
  -22.1297  -24.2572   21.3423 C   0  0  0  0  0  0  0  0  0  0  0  0
  -20.3578  -23.8126   22.9234 C   0  0  0  0  0  0  0  0  0  0  0  0
  -26.2389  -18.0984   23.6663 C   0  0  0  0  0  0  0  0  0  0  0  0
  -22.5665  -22.9379   21.4608 C   0  0  0  0  0  0  0  0  0  0  0  0
  -20.7946  -22.4932   23.0419 C   0  0  0  0  0  0  0  0  0  0  0  0
  -29.6748  -23.7567   20.7778 C   0  0  0  0  0  0  0  0  0  0  0  0
  -27.5473  -23.5487   19.6519 C   0  0  0  0  0  0  0  0  0  0  0  0
  -25.6271  -19.3420   23.5141 C   0  0  0  0  0  0  0  0  0  0  0  0
  -27.3941  -19.9394   19.2421 C   0  0  0  0  0  0  0  0  0  0  0  0
  -27.0770  -19.1995   18.1030 C   0  0  0  0  0  0  0  0  0  0  0  0
  -23.6120  -18.2515   22.7594 C   0  0  0  0  0  0  0  0  0  0  0  0
  -28.8386  -20.3185   16.8858 C   0  0  0  0  0  0  0  0  0  0  0  0
  -28.4721  -25.7368   20.0924 C   0  0  0  0  0  0  0  0  0  0  0  0
  -28.8453  -27.9960   18.9680 C   0  0  0  0  0  0  0  0  0  0  0  0
  -21.0254  -24.6946   22.0737 C   0  0  0  0  0  0  0  0  0  0  0  0
  -30.4260  -14.4451   19.5852 C   0  0  0  0  0  0  0  0  0  0  0  0
  -25.5442  -16.9207   23.3553 C   0  0  0  0  0  0  0  0  0  0  0  0
  -29.2539  -15.2098   19.7396 C   0  0  0  0  0  0  0  0  0  0  0  0
  -24.2163  -16.9942   22.9110 C   0  0  0  0  0  0  0  0  0  0  0  0
  -21.8989  -22.0558   22.3105 C   0  0  0  0  0  0  0  0  0  0  0  0
  -28.6574  -22.9580   20.2557 C   0  0  0  0  0  0  0  0  0  0  0  0
  -24.3144  -19.4188   23.0579 C   0  0  0  0  0  0  0  0  0  0  0  0
  -28.4334  -20.8690   19.2031 C   0  0  0  0  0  0  0  0  0  0  0  0
  -27.7993  -19.3890   16.9249 C   0  0  0  0  0  0  0  0  0  0  0  0
  -29.1557  -21.0585   18.0249 C   0  0  0  0  0  0  0  0  0  0  0  0
  -28.3756  -27.1719   20.0082 C   0  0  0  0  0  0  0  0  0  0  0  0
  -28.5118  -29.2690   19.3612 C   0  0  0  0  0  0  0  0  0  0  0  0
  -29.5225  -27.6423   17.7547 C   0  0  0  0  0  0  0  0  0  0  0  0
  -25.9486  -14.5648   21.2600 C   0  0  0  0  0  0  0  0  0  0  0  0
  -23.4425  -13.2492   22.8446 C   0  0  0  0  0  0  0  0  0  0  0  0
  -20.6851  -13.7145   24.8009 C   0  0  0  0  0  0  0  0  0  0  0  0
  -24.2755  -31.4358   22.9956 C   0  0  0  0  0  0  0  0  0  0  0  0
  -30.3757  -12.9685   19.2826 C   0  0  0  0  0  0  0  0  0  0  0  0
  -26.2094  -15.5858   23.5503 C   0  0  0  0  0  0  0  0  0  0  0  0
  -23.4203  -15.7584   22.5828 C   0  0  0  0  0  0  0  0  0  0  0  0
  -29.0251  -12.3287   19.5937 C   0  0  0  0  0  0  0  0  0  0  0  0
  -27.7924  -31.9080   23.2866 C   0  0  0  0  0  0  0  0  0  0  0  0
  -27.8892  -13.1853   19.0434 C   0  0  0  0  0  0  0  0  0  0  0  0
  -18.6532  -27.7317   21.3510 C   0  0  0  0  0  0  0  0  0  0  0  0
  -28.3831  -30.8221   22.3855 C   0  0  0  0  0  0  0  0  0  0  0  0
  -18.8065  -28.4258   22.7023 C   0  0  0  0  0  0  0  0  0  0  0  0
  -20.6989  -26.8574   23.3012 C   0  0  0  0  0  0  0  0  0  0  0  0
  -26.5367  -31.4221   24.0071 C   0  0  0  0  0  0  0  0  0  0  0  0
  -26.0829  -29.7820   22.2245 C   0  0  0  0  0  0  0  0  0  0  0  0
  -20.5479  -26.1347   21.9450 C   0  0  2  0  0  0  0  0  0  0  0  0
  -27.8813  -14.5744   19.6930 C   0  0  1  0  0  0  0  0  0  0  0  0
  -25.5794  -14.4764   22.7138 C   0  0  1  0  0  0  0  0  0  0  0  0
  -19.0996  -26.2594   21.3986 C   0  0  2  0  0  0  0  0  0  0  0  0
  -27.3190  -30.2433   21.4336 C   0  0  2  0  0  0  0  0  0  0  0  0
  -20.2133  -28.3062   23.2808 C   0  0  1  0  0  0  0  0  0  0  0  0
  -18.9583  -25.6461   20.0000 C   0  0  0  0  0  0  0  0  0  0  0  0
  -18.8164  -12.4536   25.9034 C   0  0  0  0  0  0  0  0  0  0  0  0
  -22.0507  -12.9561   20.1451 C   0  0  0  0  0  0  0  0  0  0  0  0
  -19.8974  -12.6019   21.3723 C   0  0  0  0  0  0  0  0  0  0  0  0
  -21.7824  -10.9964   21.6754 C   0  0  0  0  0  0  0  0  0  0  0  0
  -21.5324  -14.5877   27.4987 C   0  0  0  0  0  0  0  0  0  0  0  0
  -22.3684  -20.6363   22.4360 C   0  0  0  0  0  0  0  0  0  1  0  0
  -22.0626  -31.3365   21.8765 C   0  0  0  0  0  0  0  0  0  0  0  0
  -21.0815  -30.5894   22.7605 C   0  0  0  0  0  0  0  0  0  0  0  0
  -21.9406  -13.3016   22.7014 C   0  0  1  0  0  0  0  0  0  0  0  0
  -20.2190  -13.0183   26.0667 C   0  0  2  0  0  0  0  0  0  0  0  0
  -21.4331  -12.4876   21.4778 C   0  0  0  0  0  0  0  0  0  0  0  0
  -27.7885  -27.8634   20.9886 N   0  0  0  0  0  0  0  0  0  0  0  0
  -27.8872  -29.1353   20.5662 N   0  0  0  0  0  0  0  0  0  0  0  0
  -24.1168  -14.4770   22.7837 N   0  0  0  0  0  0  0  0  0  0  0  0
  -25.5674  -30.8869   23.0479 N   0  0  0  0  0  0  0  0  0  0  0  0
  -28.6949  -30.4785   18.7902 N   0  0  0  0  0  0  0  0  0  0  0  0
  -29.7867  -26.2883   17.5073 N   0  0  0  0  0  0  0  0  0  0  0  0
  -27.3083  -14.5084   21.0203 N   0  0  0  0  0  0  0  0  0  0  0  0
  -21.3930  -12.8621   23.9802 N   0  0  0  0  0  0  0  0  0  0  0  0
  -23.4213  -30.8748   22.0541 N   0  0  0  0  0  0  0  0  0  0  0  0
  -21.1545  -29.1338   22.4738 N   0  3  0  0  0  0  0  0  0  0  0  0
  -20.2107  -13.9738   27.2104 N   0  3  0  0  0  0  0  0  0  0  0  0
  -29.8973  -28.5029   16.9226 O   0  0  0  0  0  0  0  0  0  0  0  0
  -25.0651  -14.6746   20.4179 O   0  0  0  0  0  0  0  0  0  0  0  0
  -23.9964  -12.1597   23.0117 O   0  0  0  0  0  0  0  0  0  0  0  0
  -20.4420  -14.8953   24.5620 O   0  0  0  0  0  0  0  0  0  0  0  0
  -23.9119  -32.3609   23.7297 O   0  0  0  0  0  0  0  0  0  0  0  0
  -28.7475  -21.6022   20.3350 O   0  0  0  0  0  0  0  0  0  0  0  0
  -23.7152  -20.6313   22.9078 O   0  0  0  0  0  0  0  0  0  1  0  0
  -27.4957  -18.6773   15.8315 F   0  0  0  0  0  0  0  0  0  0  0  0
  -30.1560  -21.9492   17.9816 F   0  0  0  0  0  0  0  0  0  0  0  0
  1  2  1  0  0  0  0
  1  5  2  0  0  0  0
  2  6  2  0  0  0  0
  3 12  2  0  0  0  0
  3 19  1  0  0  0  0
  4 13  1  0  0  0  0
  4 19  2  0  0  0  0
  5 22  1  0  0  0  0
  6 24  1  0  0  0  0
  7 10  2  0  0  0  0
  7 21  1  0  0  0  0
  8 11  1  0  0  0  0
  8 21  2  0  0  0  0
  9 14  2  0  0  0  0
  9 23  1  0  0  0  0
 10 26  1  0  0  0  0
 11 26  2  0  0  0  0
 12 27  1  0  0  0  0
 13 27  2  0  0  0  0
 14 28  1  0  0  0  0
 15 16  2  0  0  0  0
 15 29  1  0  0  0  0
 16 30  1  0  0  0  0
 17 25  1  0  0  0  0
 17 28  2  0  0  0  0
 18 30  2  0  0  0  0
 18 31  1  0  0  0  0
 19 32  1  0  0  0  0
 20 32  1  0  0  0  0
 20 33  2  0  0  0  0
 20 34  1  0  0  0  0
 21 51  1  0  0  0  0
 22 24  2  0  0  0  0
 22 39  1  0  0  0  0
 23 25  2  0  0  0  0
 23 40  1  0  0  0  0
 24 52  1  0  0  0  0
 25 41  1  0  0  0  0
 26 63  1  0  0  0  0
 27 85  1  0  0  0  0
 28 86  1  0  0  0  0
 29 31  2  0  0  0  0
 29 85  1  0  0  0  0
 30 87  1  0  0  0  0
 31 88  1  0  0  0  0
 32 69  2  0  0  0  0
 33 70  1  0  0  0  0
 33 73  1  0  0  0  0
 34 74  1  0  0  0  0
 34 80  2  0  0  0  0
 35 53  1  0  0  0  0
 35 75  1  0  0  0  0
 35 81  2  0  0  0  0
 36 66  1  0  0  0  0
 36 71  1  0  0  0  0
 36 82  2  0  0  0  0
 37 67  1  0  0  0  0
 37 76  1  0  0  0  0
 37 83  2  0  0  0  0
 38 72  1  0  0  0  0
 38 77  1  0  0  0  0
 38 84  2  0  0  0  0
 39 42  1  0  0  0  0
 40 53  1  0  0  0  0
 41 71  1  0  0  0  0
 42 44  1  0  0  0  0
 43 46  1  0  0  0  0
 43 49  1  0  0  0  0
 44 52  1  0  0  0  0
 45 47  1  0  0  0  0
 45 54  1  0  0  0  0
 46 55  1  0  0  0  0
 47 56  1  0  0  0  0
 48 51  1  0  0  0  0
 48 56  1  0  0  0  0
 49 72  1  0  0  0  0
 50 55  1  0  0  0  0
 50 72  1  0  0  0  0
 51 54  1  0  0  0  0
 52 75  1  0  0  0  0
 53 71  1  0  0  0  0
 54 57  1  0  0  0  0
 55 70  1  0  0  0  0
 56 78  1  0  0  0  0
 58 67  1  0  0  0  0
 59 68  1  0  0  0  0
 60 68  1  0  0  0  0
 61 68  1  0  0  0  0
 62 79  1  0  0  0  0
 63 86  1  0  0  0  0
 64 65  1  0  0  0  0
 64 77  1  0  0  0  0
 65 78  1  0  0  0  0
 66 68  1  0  0  0  0
 66 76  1  0  0  0  0
 67 79  1  0  0  0  0
 69 70  1  0  0  0  0
M  CHG  2  78   1  79   1
M  ISO  4  38 100  63 101  77 100  86 101
M  END
> <Batch ID>
0127

> <Smiles>
CNC(C)C(=O)NC(C(=O)N1Cc2cc([101O:1][101CH2:1]c3ccc(C4CC(NCC[100NH:0][100C:0](=O)N5CCCC(n6nc(-c7ccc(Oc8ccc(F)cc8F)cc7)c(C(N)=O)c6N)C5)CCC4C)cc3)ccc2CC1C(=O)NC1CCCc2ccccc21)C(C)(C)C

> <Shape>
0.254

> <Color>
0.071

> <Negative vol penalty>
0.000

$$$$

  -OEChem-04052320403D

 89 98  0     1  0  0  0  0  0999 V2000
  -31.1333  -32.2051   26.4179 C   0  0  0  0  0  0  0  0  0  0  0  0
  -31.0242  -31.0846   25.6006 C   0  0  0  0  0  0  0  0  0  0  0  0
  -22.6443  -10.1246   20.1570 C   0  0  0  0  0  0  0  0  0  0  0  0
  -24.3425   -9.3012   21.6653 C   0  0  0  0  0  0  0  0  0  0  0  0
  -30.2032  -33.2381   26.3104 C   0  0  0  0  0  0  0  0  0  0  0  0
  -29.9841  -30.9960   24.6761 C   0  0  0  0  0  0  0  0  0  0  0  0
  -31.5483  -29.3710   20.1420 C   0  0  0  0  0  0  0  0  0  0  0  0
  -28.6608  -23.0600   19.0764 C   0  0  0  0  0  0  0  0  0  0  0  0
  -21.9248   -8.9410   20.3209 C   0  0  0  0  0  0  0  0  0  0  0  0
  -23.6230   -8.1176   21.8293 C   0  0  0  0  0  0  0  0  0  0  0  0
  -31.7805  -28.0035   20.0011 C   0  0  0  0  0  0  0  0  0  0  0  0
  -29.7000  -23.9299   18.7466 C   0  0  0  0  0  0  0  0  0  0  0  0
  -20.9278   -7.0645   23.5750 C   0  0  0  0  0  0  0  0  0  0  0  0
  -20.7798   -6.5721   24.8716 C   0  0  0  0  0  0  0  0  0  0  0  0
  -29.6299  -27.7543   18.9369 C   0  0  0  0  0  0  0  0  0  0  0  0
  -29.2839  -25.1921   20.7640 C   0  0  0  0  0  0  0  0  0  0  0  0
  -21.9069   -4.5347   24.2266 C   0  0  0  0  0  0  0  0  0  0  0  0
  -23.8532  -10.3047   20.8291 C   0  0  0  0  0  0  0  0  0  0  0  0
  -24.1662  -12.8331   20.9597 C   0  0  0  0  0  0  0  0  0  0  0  0
  -29.1568  -33.1665   25.3774 C   0  0  0  0  0  0  0  0  0  0  0  0
  -30.3486  -29.9395   19.6906 C   0  0  0  0  0  0  0  0  0  0  0  0
  -29.0383  -32.0284   24.5569 C   0  0  0  0  0  0  0  0  0  0  0  0
  -29.3861  -29.1297   19.0710 C   0  0  0  0  0  0  0  0  0  0  0  0
  -27.9330  -23.2562   20.2501 C   0  0  0  0  0  0  0  0  0  0  0  0
  -28.2445  -24.3223   21.0939 C   0  0  0  0  0  0  0  0  0  0  0  0
  -22.4141   -7.9375   21.1570 C   0  0  0  0  0  0  0  0  0  0  0  0
  -30.8200  -27.1945   19.4011 C   0  0  0  0  0  0  0  0  0  0  0  0
  -30.0116  -24.9960   19.5904 C   0  0  0  0  0  0  0  0  0  1  0  0
  -21.5653   -6.2919   22.6041 C   0  0  0  0  0  0  0  0  0  0  0  0
  -21.2694   -5.3073   25.1975 C   0  0  0  0  0  0  0  0  0  0  0  0
  -22.0548   -5.0271   22.9299 C   0  0  0  0  0  0  0  0  0  0  0  0
  -24.5973  -11.5269   20.6597 C   0  0  0  0  0  0  0  0  0  0  0  0
  -25.2311  -13.6321   20.6222 C   0  0  0  0  0  0  0  0  0  0  0  0
  -22.9151  -13.2838   21.4957 C   0  0  0  0  0  0  0  0  0  0  0  0
  -27.9349  -31.4772   21.0739 C   0  0  0  0  0  0  0  0  0  0  0  0
  -30.7346  -14.6277   20.7234 C   0  0  0  0  0  0  0  0  0  0  0  0
  -26.9451  -31.8766   18.0107 C   0  0  0  0  0  0  0  0  0  0  0  0
  -27.0098  -30.7817   14.7790 C   0  0  0  0  0  0  0  0  0  0  0  0
  -28.1480  -34.2867   25.3305 C   0  0  0  0  0  0  0  0  0  0  0  0
  -30.1248  -31.4208   19.8260 C   0  0  0  0  0  0  0  0  0  0  0  0
  -28.0902  -29.6944   18.5512 C   0  0  0  0  0  0  0  0  0  0  0  0
  -27.2933  -34.2842   24.0657 C   0  0  0  0  0  0  0  0  0  0  0  0
  -29.4603  -12.5899   18.0657 C   0  0  0  0  0  0  0  0  0  0  0  0
  -26.7784  -32.8787   23.7721 C   0  0  0  0  0  0  0  0  0  0  0  0
  -28.0578  -12.2143   18.5421 C   0  0  0  0  0  0  0  0  0  0  0  0
  -30.4409  -12.6782   19.2309 C   0  0  0  0  0  0  0  0  0  0  0  0
  -31.2000  -18.4501   23.7802 C   0  0  0  0  0  0  0  0  0  0  0  0
  -28.6075  -13.2343   20.7965 C   0  0  0  0  0  0  0  0  0  0  0  0
  -31.5525  -17.5474   24.9616 C   0  0  0  0  0  0  0  0  0  0  0  0
  -32.2378  -16.0377   23.0991 C   0  0  0  0  0  0  0  0  0  0  0  0
  -27.9384  -31.9067   23.5247 C   0  0  1  0  0  0  0  0  0  0  0  0
  -28.6494  -31.8075   19.7940 C   0  0  1  0  0  0  0  0  0  0  0  0
  -27.5788  -13.1644   19.6541 C   0  0  2  0  0  0  0  0  0  0  0  0
  -31.1503  -16.6084   22.1713 C   0  0  1  0  0  0  0  0  0  0  0  0
  -27.4792  -24.5527   22.3555 C   0  0  0  0  0  0  0  0  0  0  0  0
  -26.0713  -31.2898   12.5078 C   0  0  0  0  0  0  0  0  0  0  0  0
  -24.2678  -30.6788   18.8517 C   0  0  0  0  0  0  0  0  0  0  0  0
  -23.7399  -30.3343   16.4287 C   0  0  0  0  0  0  0  0  0  0  0  0
  -24.0948  -32.6407   17.3104 C   0  0  0  0  0  0  0  0  0  0  0  0
  -29.7030  -31.2413   13.6413 C   0  0  0  0  0  0  0  0  0  0  0  0
  -26.8247  -22.3120   20.5822 C   0  0  0  0  0  0  0  0  0  0  0  0
  -30.1485  -15.5078   21.7985 C   0  0  0  0  0  0  0  0  0  0  0  0
  -29.9243  -18.6702   21.7510 C   0  0  0  0  0  0  0  0  0  0  0  0
  -27.1688  -21.3066   21.6810 C   0  0  0  0  0  0  0  0  0  0  0  0
  -28.7386  -19.4572   22.2764 C   0  0  0  0  0  0  0  0  0  0  0  0
  -26.0771  -31.0920   17.0567 C   0  0  1  0  0  0  0  0  0  0  0  0
  -27.2266  -31.5189   13.4698 C   0  0  2  0  0  0  0  0  0  0  0  0
  -24.5684  -31.1752   17.4233 C   0  0  0  0  0  0  0  0  0  0  0  0
  -25.8391  -11.4937   20.1692 N   0  0  0  0  0  0  0  0  0  0  0  0
  -26.1975  -12.7889   20.1583 N   0  0  0  0  0  0  0  0  0  0  0  0
  -27.9153  -31.1473   18.7126 N   0  0  0  0  0  0  0  0  0  0  0  0
  -29.9394  -13.5726   20.2758 N   0  0  0  0  0  0  0  0  0  0  0  0
  -30.4078  -17.7395   22.7724 N   0  0  2  0  0  0  0  0  0  0  0  0
  -25.4258  -14.9667   20.6799 N   0  0  0  0  0  0  0  0  0  0  0  0
  -22.7800  -13.3793   22.8875 N   0  0  0  0  0  0  0  0  0  0  0  0
  -28.4726  -32.0862   22.1917 N   0  0  0  0  0  0  0  0  0  0  0  0
  -26.3949  -31.5809   15.7195 N   0  0  0  0  0  0  0  0  0  0  0  0
  -31.7785  -16.1408   24.5124 N   0  3  0  0  0  0  0  0  0  0  0  0
  -28.4823  -31.0542   12.8155 N   0  3  0  0  0  0  0  0  0  0  0  0
  -28.2902  -20.4363   21.2490 N   0  3  0  0  0  0  0  0  0  0  0  0
  -21.9402  -13.5769   20.7627 O   0  0  0  0  0  0  0  0  0  0  0  0
  -26.9666  -30.7266   21.0489 O   0  0  0  0  0  0  0  0  0  0  0  0
  -31.8645  -14.8740   20.2933 O   0  0  0  0  0  0  0  0  0  0  0  0
  -26.7735  -33.0929   18.1234 O   0  0  0  0  0  0  0  0  0  0  0  0
  -27.3483  -29.6125   14.9490 O   0  0  0  0  0  0  0  0  0  0  0  0
  -21.7121   -6.7824   21.3174 O   0  0  0  0  0  0  0  0  0  0  0  0
  -31.0438  -25.8593   19.2628 O   0  0  0  0  0  0  0  0  0  1  0  0
  -21.1286   -4.8352   26.4431 F   0  0  0  0  0  0  0  0  0  0  0  0
  -22.6692   -4.2808   22.0018 F   0  0  0  0  0  0  0  0  0  0  0  0
  1  2  1  0  0  0  0
  1  5  2  0  0  0  0
  2  6  2  0  0  0  0
  3  9  2  0  0  0  0
  3 18  1  0  0  0  0
  4 10  1  0  0  0  0
  4 18  2  0  0  0  0
  5 20  1  0  0  0  0
  6 22  1  0  0  0  0
  7 11  2  0  0  0  0
  7 21  1  0  0  0  0
  8 12  2  0  0  0  0
  8 24  1  0  0  0  0
  9 26  1  0  0  0  0
 10 26  2  0  0  0  0
 11 27  1  0  0  0  0
 12 28  1  0  0  0  0
 13 14  2  0  0  0  0
 13 29  1  0  0  0  0
 14 30  1  0  0  0  0
 15 23  1  0  0  0  0
 15 27  2  0  0  0  0
 16 25  1  0  0  0  0
 16 28  2  0  0  0  0
 17 30  2  0  0  0  0
 17 31  1  0  0  0  0
 18 32  1  0  0  0  0
 19 32  1  0  0  0  0
 19 33  2  0  0  0  0
 19 34  1  0  0  0  0
 20 22  2  0  0  0  0
 20 39  1  0  0  0  0
 21 23  2  0  0  0  0
 21 40  1  0  0  0  0
 22 51  1  0  0  0  0
 23 41  1  0  0  0  0
 24 25  2  0  0  0  0
 24 61  1  0  0  0  0
 25 55  1  0  0  0  0
 26 86  1  0  0  0  0
 27 87  1  0  0  0  0
 28 87  1  0  0  0  0
 29 31  2  0  0  0  0
 29 86  1  0  0  0  0
 30 88  1  0  0  0  0
 31 89  1  0  0  0  0
 32 69  2  0  0  0  0
 33 70  1  0  0  0  0
 33 74  1  0  0  0  0
 34 75  1  0  0  0  0
 34 81  2  0  0  0  0
 35 52  1  0  0  0  0
 35 76  1  0  0  0  0
 35 82  2  0  0  0  0
 36 62  1  0  0  0  0
 36 72  1  0  0  0  0
 36 83  2  0  0  0  0
 37 66  1  0  0  0  0
 37 71  1  0  0  0  0
 37 84  2  0  0  0  0
 38 67  1  0  0  0  0
 38 77  1  0  0  0  0
 38 85  2  0  0  0  0
 39 42  1  0  0  0  0
 40 52  1  0  0  0  0
 41 71  1  0  0  0  0
 42 44  1  0  0  0  0
 43 45  1  0  0  0  0
 43 46  1  0  0  0  0
 44 51  1  0  0  0  0
 45 53  1  0  0  0  0
 46 72  1  0  0  0  0
 47 49  1  0  0  0  0
 47 73  1  0  0  0  0
 48 53  1  0  0  0  0
 48 72  1  0  0  0  0
 49 78  1  0  0  0  0
 50 54  1  0  0  0  0
 50 78  1  0  0  0  0
 51 76  1  0  0  0  0
 52 71  1  0  0  0  0
 53 70  1  0  0  0  0
 54 62  1  0  0  0  0
 54 73  1  0  0  0  0
 56 67  1  0  0  0  0
 57 68  1  0  0  0  0
 58 68  1  0  0  0  0
 59 68  1  0  0  0  0
 60 79  1  0  0  0  0
 61 64  1  0  0  0  0
 63 65  1  0  0  0  0
 63 73  1  0  0  0  0
 64 80  1  0  0  0  0
 65 80  1  0  0  0  0
 66 68  1  0  0  0  0
 66 77  1  0  0  0  0
 67 79  1  0  0  0  0
 69 70  1  0  0  0  0
M  CHG  3  78   1  79   1  80   1
M  ISO  4  28 101  36 100  62 100  87 101
M  END
> <Batch ID>
0127

> <Smiles>
CNC(C)C(=O)NC(C(=O)N1Cc2cc([101O:1][101c:1]3ccc(CCNCCN4CCNCC4[100CH2:0][100C:0](=O)N4CCCC(n5nc(-c6ccc(Oc7ccc(F)cc7F)cc6)c(C(N)=O)c5N)C4)c(C)c3)ccc2CC1C(=O)NC1CCCc2ccccc21)C(C)(C)C

> <Shape>
0.298

> <Color>
0.182

> <Negative vol penalty>
0.000

$$$$

  -OEChem-04052320403D

 83 91  0     1  0  0  0  0  0999 V2000
  -17.7146  -24.5330   22.2150 C   0  0  0  0  0  0  0  0  0  0  0  0
  -18.6417  -24.4816   21.1790 C   0  0  0  0  0  0  0  0  0  0  0  0
  -26.9957  -12.7203   21.1326 C   0  0  0  0  0  0  0  0  0  0  0  0
  -26.5647  -13.4519   18.8708 C   0  0  0  0  0  0  0  0  0  0  0  0
  -17.6237  -25.6735   23.0117 C   0  0  0  0  0  0  0  0  0  0  0  0
  -19.4779  -25.5713   20.9385 C   0  0  0  0  0  0  0  0  0  0  0  0
  -24.2846  -24.1925   20.1391 C   0  0  0  0  0  0  0  0  0  0  0  0
  -26.3360  -11.5197   20.8700 C   0  0  0  0  0  0  0  0  0  0  0  0
  -25.9051  -12.2513   18.6081 C   0  0  0  0  0  0  0  0  0  0  0  0
  -24.5997  -23.6821   18.8805 C   0  0  0  0  0  0  0  0  0  0  0  0
  -23.1448  -10.4284   20.6480 C   0  0  0  0  0  0  0  0  0  0  0  0
  -22.2399   -9.9646   21.6028 C   0  0  0  0  0  0  0  0  0  0  0  0
  -25.4972  -25.8282   18.2416 C   0  0  0  0  0  0  0  0  0  0  0  0
  -23.5442   -7.9470   21.8588 C   0  0  0  0  0  0  0  0  0  0  0  0
  -27.1100  -13.6865   20.1330 C   0  0  0  0  0  0  0  0  0  0  0  0
  -29.1609  -15.2003   20.2310 C   0  0  0  0  0  0  0  0  0  0  0  0
  -18.4658  -26.7740   22.7870 C   0  0  0  0  0  0  0  0  0  0  0  0
  -24.5640  -25.5298   20.4552 C   0  0  0  0  0  0  0  0  0  0  0  0
  -19.3973  -26.7282   21.7322 C   0  0  0  0  0  0  0  0  0  0  0  0
  -25.1870  -26.3523   19.5058 C   0  0  0  0  0  0  0  0  0  0  0  0
  -25.7908  -11.2852   19.6077 C   0  0  0  0  0  0  0  0  0  0  0  0
  -25.2034  -24.5008   17.9305 C   0  0  0  0  0  0  0  0  0  0  0  0
  -24.2493   -9.6515   20.2985 C   0  0  0  0  0  0  0  0  0  0  0  0
  -22.4396   -8.7239   22.2082 C   0  0  0  0  0  0  0  0  0  0  0  0
  -24.4490   -8.4108   20.9040 C   0  0  0  0  0  0  0  0  0  0  0  0
  -27.7908  -14.9271   20.4039 C   0  0  0  0  0  0  0  0  0  0  0  0
  -29.3028  -16.5081   20.6261 C   0  0  0  0  0  0  0  0  0  0  0  0
  -30.2115  -14.3481   19.7557 C   0  0  0  0  0  0  0  0  0  0  0  0
  -22.8131  -28.0567   21.2630 C   0  0  0  0  0  0  0  0  0  0  0  0
  -25.7148  -29.4384   21.7026 C   0  0  0  0  0  0  0  0  0  0  0  0
  -29.0438  -29.4877   20.9524 C   0  0  0  0  0  0  0  0  0  0  0  0
  -27.5493  -21.8062   20.6376 C   0  0  0  0  0  0  0  0  0  0  0  0
  -18.2983  -28.0033   23.6445 C   0  0  0  0  0  0  0  0  0  0  0  0
  -24.2422  -26.0577   21.8264 C   0  0  0  0  0  0  0  0  0  0  0  0
  -25.5263  -27.7895   19.8023 C   0  0  0  0  0  0  0  0  0  0  0  0
  -19.4773  -28.9694   23.5612 C   0  0  0  0  0  0  0  0  0  0  0  0
  -26.0825  -19.5946   23.0112 C   0  0  0  0  0  0  0  0  0  0  0  0
  -19.8838  -29.1915   22.1078 C   0  0  0  0  0  0  0  0  0  0  0  0
  -26.5039  -18.2062   22.5267 C   0  0  0  0  0  0  0  0  0  0  0  0
  -30.0173  -21.7855   15.1641 C   0  0  0  0  0  0  0  0  0  0  0  0
  -25.7970  -20.5371   21.8441 C   0  0  0  0  0  0  0  0  0  0  0  0
  -27.3100  -19.2626   20.3743 C   0  0  0  0  0  0  0  0  0  0  0  0
  -30.1345  -22.0912   16.6420 C   0  0  0  0  0  0  0  0  0  0  0  0
  -20.3387  -27.8803   21.4556 C   0  0  1  0  0  0  0  0  0  0  0  0
  -24.1035  -27.5764   21.8646 C   0  0  1  0  0  0  0  0  0  0  0  0
  -29.1590  -22.9239   14.6212 C   0  0  1  0  0  0  0  0  0  0  0  0
  -27.6627  -18.2931   21.5153 C   0  0  2  0  0  0  0  0  0  0  0  0
  -28.1174  -23.1630   15.7253 C   0  0  1  0  0  0  0  0  0  0  0  0
  -31.1536  -30.7571   21.4368 C   0  0  0  0  0  0  0  0  0  0  0  0
  -31.1056  -23.8880   13.3465 C   0  0  0  0  0  0  0  0  0  0  0  0
  -29.1011  -25.3173   13.8392 C   0  0  0  0  0  0  0  0  0  0  0  0
  -24.7896  -31.6786   19.8492 C   0  0  0  0  0  0  0  0  0  0  0  0
  -27.1819  -32.3791   19.6157 C   0  0  0  0  0  0  0  0  0  0  0  0
  -26.0770  -32.4459   21.8512 C   0  0  0  0  0  0  0  0  0  0  0  0
  -30.3482  -27.1022   22.1216 C   0  0  0  0  0  0  0  0  0  0  0  0
  -26.8188  -22.3993   15.4908 C   0  0  0  0  0  0  0  0  0  0  0  0
  -29.3629  -22.9350   19.3743 C   0  0  0  0  0  0  0  0  0  0  0  0
  -28.7825  -23.5969   18.1384 C   0  0  0  0  0  0  0  0  0  0  0  0
  -25.8234  -22.6152   16.6205 C   0  0  0  0  0  0  0  0  0  1  0  0
  -26.6740  -30.2115   20.8300 C   0  0  1  0  0  0  0  0  0  0  0  0
  -30.2742  -29.5825   21.8364 C   0  0  2  0  0  0  0  0  0  0  0  0
  -29.9884  -24.1808   14.3490 C   0  0  0  0  0  0  0  0  0  0  0  0
  -26.1726  -31.6523   20.5300 C   0  0  0  0  0  0  0  0  0  0  0  0
  -27.1108  -15.9769   20.8725 N   0  0  0  0  0  0  0  0  0  0  0  0
  -28.0576  -16.9225   20.9975 N   0  0  0  0  0  0  0  0  0  0  0  0
  -25.1862  -28.2609   21.1550 N   0  0  0  0  0  0  0  0  0  0  0  0
  -26.9355  -20.5754   20.9230 N   0  0  0  0  0  0  0  0  0  0  0  0
  -30.3700  -17.3324   20.6887 N   0  0  0  0  0  0  0  0  0  0  0  0
  -29.8919  -13.0329   19.3919 N   0  0  0  0  0  0  0  0  0  0  0  0
  -21.6834  -27.5474   21.8745 N   0  0  0  0  0  0  0  0  0  0  0  0
  -27.9693  -30.1568   21.4992 N   0  0  0  0  0  0  0  0  0  0  0  0
  -28.6252  -21.7526   19.7599 N   0  0  0  0  0  0  0  0  0  0  0  0
  -28.7664  -22.6225   17.0025 N   0  3  2  0  0  0  0  0  0  0  0  0
  -31.0823  -28.3345   21.7350 N   0  3  0  0  0  0  0  0  0  0  0  0
  -31.4013  -14.7364   19.6720 O   0  0  0  0  0  0  0  0  0  0  0  0
  -22.8403  -28.8331   20.3153 O   0  0  0  0  0  0  0  0  0  0  0  0
  -25.4501  -29.8599   22.8312 O   0  0  0  0  0  0  0  0  0  0  0  0
  -29.0375  -28.8838   19.8820 O   0  0  0  0  0  0  0  0  0  0  0  0
  -27.1701  -22.8730   21.1327 O   0  0  0  0  0  0  0  0  0  0  0  0
  -25.1472  -10.1136   19.3510 O   0  0  0  0  0  0  0  0  0  0  0  0
  -25.5114  -24.0053   16.7011 O   0  0  0  0  0  0  0  0  0  1  0  0
  -21.5714   -8.2794   23.1262 F   0  0  0  0  0  0  0  0  0  0  0  0
  -25.5090   -7.6605   20.5732 F   0  0  0  0  0  0  0  0  0  0  0  0
  1  2  1  0  0  0  0
  1  5  2  0  0  0  0
  2  6  2  0  0  0  0
  3  8  2  0  0  0  0
  3 15  1  0  0  0  0
  4  9  1  0  0  0  0
  4 15  2  0  0  0  0
  5 17  1  0  0  0  0
  6 19  1  0  0  0  0
  7 10  2  0  0  0  0
  7 18  1  0  0  0  0
  8 21  1  0  0  0  0
  9 21  2  0  0  0  0
 10 22  1  0  0  0  0
 11 12  2  0  0  0  0
 11 23  1  0  0  0  0
 12 24  1  0  0  0  0
 13 20  1  0  0  0  0
 13 22  2  0  0  0  0
 14 24  2  0  0  0  0
 14 25  1  0  0  0  0
 15 26  1  0  0  0  0
 16 26  1  0  0  0  0
 16 27  2  0  0  0  0
 16 28  1  0  0  0  0
 17 19  2  0  0  0  0
 17 33  1  0  0  0  0
 18 20  2  0  0  0  0
 18 34  1  0  0  0  0
 19 44  1  0  0  0  0
 20 35  1  0  0  0  0
 21 80  1  0  0  0  0
 22 81  1  0  0  0  0
 23 25  2  0  0  0  0
 23 80  1  0  0  0  0
 24 82  1  0  0  0  0
 25 83  1  0  0  0  0
 26 64  2  0  0  0  0
 27 65  1  0  0  0  0
 27 68  1  0  0  0  0
 28 69  1  0  0  0  0
 28 75  2  0  0  0  0
 29 45  1  0  0  0  0
 29 70  1  0  0  0  0
 29 76  2  0  0  0  0
 30 60  1  0  0  0  0
 30 66  1  0  0  0  0
 30 77  2  0  0  0  0
 31 61  1  0  0  0  0
 31 71  1  0  0  0  0
 31 78  2  0  0  0  0
 32 67  1  0  0  0  0
 32 72  1  0  0  0  0
 32 79  2  0  0  0  0
 33 36  1  0  0  0  0
 34 45  1  0  0  0  0
 35 66  1  0  0  0  0
 36 38  1  0  0  0  0
 37 39  1  0  0  0  0
 37 41  1  0  0  0  0
 38 44  1  0  0  0  0
 39 47  1  0  0  0  0
 40 43  1  0  0  0  0
 40 46  1  0  0  0  0
 41 67  1  0  0  0  0
 42 47  1  0  0  0  0
 42 67  1  0  0  0  0
 43 73  1  0  0  0  0
 44 70  1  0  0  0  0
 45 66  1  0  0  0  0
 46 48  1  0  0  0  0
 46 62  1  0  0  0  0
 47 65  1  0  0  0  0
 48 56  1  0  0  0  0
 48 73  1  0  0  0  0
 49 61  1  0  0  0  0
 50 62  1  0  0  0  0
 51 62  1  0  0  0  0
 52 63  1  0  0  0  0
 53 63  1  0  0  0  0
 54 63  1  0  0  0  0
 55 74  1  0  0  0  0
 56 59  1  0  0  0  0
 57 58  1  0  0  0  0
 57 72  1  0  0  0  0
 58 73  1  0  0  0  0
 59 81  1  0  0  0  0
 60 63  1  0  0  0  0
 60 71  1  0  0  0  0
 61 74  1  0  0  0  0
 64 65  1  0  0  0  0
M  CHG  2  73   1  74   1
M  ISO  4  32 100  59 101  72 100  81 101
M  END
> <Batch ID>
0127

> <Smiles>
CNC(C)C(=O)NC(C(=O)N1Cc2cc([101O:1][101CH2:1]CC3C(C(C)C)CCN3CC[100NH:0][100C:0](=O)N3CCCC(n4nc(-c5ccc(Oc6ccc(F)cc6F)cc5)c(C(N)=O)c4N)C3)ccc2CC1C(=O)NC1CCCc2ccccc21)C(C)(C)C

> <Shape>
0.255

> <Color>
0.063

> <Negative vol penalty>
0.000

$$$$

  -OEChem-04052320403D

 85 94  0     1  0  0  0  0  0999 V2000
  -25.8429  -35.9080   21.5065 C   0  0  0  0  0  0  0  0  0  0  0  0
  -26.4303  -34.6474   21.5403 C   0  0  0  0  0  0  0  0  0  0  0  0
  -26.6540  -11.9015   20.8779 C   0  0  0  0  0  0  0  0  0  0  0  0
  -25.0113  -13.5793   20.3093 C   0  0  0  0  0  0  0  0  0  0  0  0
  -24.5666  -36.0954   22.0356 C   0  0  0  0  0  0  0  0  0  0  0  0
  -25.7422  -33.5736   22.1041 C   0  0  0  0  0  0  0  0  0  0  0  0
  -26.0276  -29.3826   19.2760 C   0  0  0  0  0  0  0  0  0  0  0  0
  -25.6394  -10.9542   21.0144 C   0  0  0  0  0  0  0  0  0  0  0  0
  -23.9965  -12.6320   20.4457 C   0  0  0  0  0  0  0  0  0  0  0  0
  -27.2115  -28.6492   19.3421 C   0  0  0  0  0  0  0  0  0  0  0  0
  -23.7287   -9.0406   18.9845 C   0  0  0  0  0  0  0  0  0  0  0  0
  -23.9303   -7.7870   18.4071 C   0  0  0  0  0  0  0  0  0  0  0  0
  -26.1615  -27.1032   20.8674 C   0  0  0  0  0  0  0  0  0  0  0  0
  -28.7885  -23.6337   20.0647 C   0  0  0  0  0  0  0  0  0  0  0  0
  -23.7166   -6.7521   20.5798 C   0  0  0  0  0  0  0  0  0  0  0  0
  -28.8452  -23.7625   17.6905 C   0  0  0  0  0  0  0  0  0  0  0  0
  -26.3400  -13.2141   20.5254 C   0  0  0  0  0  0  0  0  0  0  0  0
  -28.1094  -14.5044   19.2169 C   0  0  0  0  0  0  0  0  0  0  0  0
  -23.8586  -35.0214   22.5975 C   0  0  0  0  0  0  0  0  0  0  0  0
  -24.9032  -28.9872   20.0148 C   0  0  0  0  0  0  0  0  0  0  0  0
  -24.4558  -33.7472   22.6424 C   0  0  0  0  0  0  0  0  0  0  0  0
  -24.9638  -27.8318   20.8070 C   0  0  0  0  0  0  0  0  0  0  0  0
  -29.2268  -24.2836   18.9163 C   0  0  0  0  0  0  0  0  0  0  0  0
  -27.9932  -22.4986   19.9538 C   0  0  0  0  0  0  0  0  0  0  0  0
  -24.3106  -11.3194   20.7982 C   0  0  0  0  0  0  0  0  0  0  0  0
  -27.2795  -27.5110   20.1401 C   0  0  0  0  0  0  0  0  0  0  0  0
  -23.5211   -9.1500   20.3595 C   0  0  0  0  0  0  0  0  0  0  0  0
  -23.9242   -6.6427   19.2047 C   0  0  0  0  0  0  0  0  0  0  0  0
  -23.5150   -8.0057   21.1571 C   0  0  0  0  0  0  0  0  0  0  0  0
  -27.3877  -14.1933   20.3849 C   0  0  0  0  0  0  0  0  0  0  0  0
  -27.6665  -22.0575   18.6816 C   0  0  0  0  0  0  0  0  0  0  0  0
  -28.9819  -15.4915   19.6051 C   0  0  0  0  0  0  0  0  0  0  0  0
  -28.0007  -13.9506   17.8988 C   0  0  0  0  0  0  0  0  0  0  0  0
  -23.1705  -30.2965   22.3359 C   0  0  0  0  0  0  0  0  0  0  0  0
  -21.2928  -27.6925   21.8713 C   0  0  0  0  0  0  0  0  0  0  0  0
  -21.0235  -24.4747   20.7668 C   0  0  0  0  0  0  0  0  0  0  0  0
  -28.8620  -19.5345   24.0200 C   0  0  0  0  0  0  0  0  0  0  0  0
  -22.5007  -35.2828   23.1996 C   0  0  0  0  0  0  0  0  0  0  0  0
  -23.6254  -29.7740   19.9118 C   0  0  0  0  0  0  0  0  0  0  0  0
  -23.7786  -27.3536   21.6038 C   0  0  0  0  0  0  0  0  0  0  0  0
  -21.6871  -34.0139   23.4414 C   0  0  0  0  0  0  0  0  0  0  0  0
  -31.3747  -17.0818   23.4308 C   0  0  0  0  0  0  0  0  0  0  0  0
  -22.5471  -32.9484   24.1137 C   0  0  0  0  0  0  0  0  0  0  0  0
  -27.4649  -19.4872   18.5184 C   0  0  0  0  0  0  0  0  0  0  0  0
  -26.9246  -20.0457   17.2392 C   0  0  0  0  0  0  0  0  0  0  0  0
  -30.7030  -16.0914   22.4780 C   0  0  0  0  0  0  0  0  0  0  0  0
  -30.3889  -17.6337   24.4582 C   0  0  0  0  0  0  0  0  0  0  0  0
  -28.4939  -17.2365   22.9335 C   0  0  0  0  0  0  0  0  0  0  0  0
  -23.7311  -32.5524   23.2234 C   0  0  1  0  0  0  0  0  0  0  0  0
  -26.8120  -20.8423   18.5103 C   0  0  0  0  0  0  0  0  0  0  0  0
  -22.7002  -29.5701   21.1075 C   0  0  1  0  0  0  0  0  0  0  0  0
  -29.4353  -16.6951   21.8441 C   0  0  2  0  0  0  0  0  0  0  0  0
  -19.3721  -22.5975   20.5519 C   0  0  0  0  0  0  0  0  0  0  0  0
  -21.5397  -27.1363   24.8613 C   0  0  0  0  0  0  0  0  0  0  0  0
  -20.7088  -24.8148   24.4272 C   0  0  0  0  0  0  0  0  0  0  0  0
  -19.2518  -26.7746   23.9183 C   0  0  0  0  0  0  0  0  0  0  0  0
  -21.2891  -24.4238   17.8196 C   0  0  0  0  0  0  0  0  0  0  0  0
  -30.0927  -25.5170   19.0024 C   0  0  0  0  0  0  0  0  0  0  0  0
  -27.8708  -22.2715   22.4356 C   0  0  0  0  0  0  0  0  0  0  0  0
  -27.2548  -21.3444   23.4722 C   0  0  0  0  0  0  0  0  0  0  0  0
  -29.2706  -26.8003   19.0509 C   0  0  0  0  0  0  0  0  0  1  0  0
  -21.2447  -26.2943   22.4385 C   0  0  1  0  0  0  0  0  0  0  0  0
  -20.0028  -23.8004   19.8679 C   0  0  2  0  0  0  0  0  0  0  0  0
  -20.7094  -26.2649   23.8979 C   0  0  0  0  0  0  0  0  0  0  0  0
  -28.0736  -22.6623   17.5430 N   0  0  0  0  0  0  0  0  0  0  0  0
  -27.7688  -14.9235   21.4363 N   0  0  0  0  0  0  0  0  0  0  0  0
  -28.7395  -15.7031   20.9305 N   0  0  0  0  0  0  0  0  0  0  0  0
  -22.5538  -28.1603   21.4750 N   0  0  0  0  0  0  0  0  0  0  0  0
  -29.2102  -18.1929   23.7920 N   0  0  0  0  0  0  0  0  0  0  0  0
  -29.9252  -16.1903   18.9387 N   0  0  0  0  0  0  0  0  0  0  0  0
  -27.0519  -12.9441   17.6732 N   0  0  0  0  0  0  0  0  0  0  0  0
  -27.5461  -21.8350   21.1107 N   0  0  0  0  0  0  0  0  0  0  0  0
  -23.2949  -31.6625   22.1687 N   0  0  0  0  0  0  0  0  0  0  0  0
  -20.4616  -25.4993   21.4987 N   0  0  0  0  0  0  0  0  0  0  0  0
  -27.7349  -19.9865   23.3447 N   0  0  0  0  0  0  0  0  0  0  0  0
  -20.6483  -23.3388   18.6064 N   0  3  0  0  0  0  0  0  0  0  0  0
  -28.7348  -14.3255   16.9533 O   0  0  0  0  0  0  0  0  0  0  0  0
  -23.4020  -29.6646   23.3600 O   0  0  0  0  0  0  0  0  0  0  0  0
  -20.2490  -28.3430   21.7766 O   0  0  0  0  0  0  0  0  0  0  0  0
  -22.2006  -24.1249   20.8175 O   0  0  0  0  0  0  0  0  0  0  0  0
  -29.5108  -20.2761   24.7656 O   0  0  0  0  0  0  0  0  0  0  0  0
  -23.3203  -10.3953   20.9311 O   0  0  0  0  0  0  0  0  0  0  0  0
  -28.4340  -26.7937   20.2070 O   0  0  0  0  0  0  0  0  0  1  0  0
  -24.1163   -5.4388   18.6499 F   0  0  0  0  0  0  0  0  0  0  0  0
  -23.3148   -8.1044   22.4785 F   0  0  0  0  0  0  0  0  0  0  0  0
  1  2  1  0  0  0  0
  1  5  2  0  0  0  0
  2  6  2  0  0  0  0
  3  8  2  0  0  0  0
  3 17  1  0  0  0  0
  4  9  1  0  0  0  0
  4 17  2  0  0  0  0
  5 19  1  0  0  0  0
  6 21  1  0  0  0  0
  7 10  2  0  0  0  0
  7 20  1  0  0  0  0
  8 25  1  0  0  0  0
  9 25  2  0  0  0  0
 10 26  1  0  0  0  0
 11 12  2  0  0  0  0
 11 27  1  0  0  0  0
 12 28  1  0  0  0  0
 13 22  1  0  0  0  0
 13 26  2  0  0  0  0
 14 23  2  0  0  0  0
 14 24  1  0  0  0  0
 15 28  2  0  0  0  0
 15 29  1  0  0  0  0
 16 23  1  0  0  0  0
 16 65  2  0  0  0  0
 17 30  1  0  0  0  0
 18 30  1  0  0  0  0
 18 32  2  0  0  0  0
 18 33  1  0  0  0  0
 19 21  2  0  0  0  0
 19 38  1  0  0  0  0
 20 22  2  0  0  0  0
 20 39  1  0  0  0  0
 21 49  1  0  0  0  0
 22 40  1  0  0  0  0
 23 58  1  0  0  0  0
 24 31  2  0  0  0  0
 24 72  1  0  0  0  0
 25 82  1  0  0  0  0
 26 83  1  0  0  0  0
 27 29  2  0  0  0  0
 27 82  1  0  0  0  0
 28 84  1  0  0  0  0
 29 85  1  0  0  0  0
 30 66  2  0  0  0  0
 31 50  1  0  0  0  0
 31 65  1  0  0  0  0
 32 67  1  0  0  0  0
 32 70  1  0  0  0  0
 33 71  1  0  0  0  0
 33 77  2  0  0  0  0
 34 51  1  0  0  0  0
 34 73  1  0  0  0  0
 34 78  2  0  0  0  0
 35 62  1  0  0  0  0
 35 68  1  0  0  0  0
 35 79  2  0  0  0  0
 36 63  1  0  0  0  0
 36 74  1  0  0  0  0
 36 80  2  0  0  0  0
 37 69  1  0  0  0  0
 37 75  1  0  0  0  0
 37 81  2  0  0  0  0
 38 41  1  0  0  0  0
 39 51  1  0  0  0  0
 40 68  1  0  0  0  0
 41 43  1  0  0  0  0
 42 46  1  0  0  0  0
 42 47  1  0  0  0  0
 43 49  1  0  0  0  0
 44 45  1  0  0  0  0
 44 50  1  0  0  0  0
 45 50  1  0  0  0  0
 46 52  1  0  0  0  0
 47 69  1  0  0  0  0
 48 52  1  0  0  0  0
 48 69  1  0  0  0  0
 49 73  1  0  0  0  0
 51 68  1  0  0  0  0
 52 67  1  0  0  0  0
 53 63  1  0  0  0  0
 54 64  1  0  0  0  0
 55 64  1  0  0  0  0
 56 64  1  0  0  0  0
 57 76  1  0  0  0  0
 58 61  1  0  0  0  0
 59 60  1  0  0  0  0
 59 72  1  0  0  0  0
 60 75  1  0  0  0  0
 61 83  1  0  0  0  0
 62 64  1  0  0  0  0
 62 74  1  0  0  0  0
 63 76  1  0  0  0  0
 66 67  1  0  0  0  0
M  CHG  1  76   1
M  ISO  4  37 100  61 101  75 100  83 101
M  END
> <Batch ID>
0127

> <Smiles>
CNC(C)C(=O)NC(C(=O)N1Cc2cc([101O:1][101CH2:1]Cc3cnc(C4CC4)c(NCC[100NH:0][100C:0](=O)N4CCCC(n5nc(-c6ccc(Oc7ccc(F)cc7F)cc6)c(C(N)=O)c5N)C4)c3)ccc2CC1C(=O)NC1CCCc2ccccc21)C(C)(C)C

> <Shape>
0.268

> <Color>
0.066

> <Negative vol penalty>
0.000

$$$$

  -OEChem-04052320403D

 85 93  0     1  0  0  0  0  0999 V2000
  -20.3473  -18.0559   16.9083 C   0  0  0  0  0  0  0  0  0  0  0  0
  -21.4432  -18.6049   17.5664 C   0  0  0  0  0  0  0  0  0  0  0  0
  -25.5635  -30.8819   20.8587 C   0  0  0  0  0  0  0  0  0  0  0  0
  -25.3222  -28.6297   21.6992 C   0  0  0  0  0  0  0  0  0  0  0  0
  -20.0843  -16.6908   17.0140 C   0  0  0  0  0  0  0  0  0  0  0  0
  -22.2761  -17.7891   18.3315 C   0  0  0  0  0  0  0  0  0  0  0  0
  -27.1871  -18.7181   17.5165 C   0  0  0  0  0  0  0  0  0  0  0  0
  -24.2378  -30.8624   20.4256 C   0  0  0  0  0  0  0  0  0  0  0  0
  -23.9964  -28.6102   21.2662 C   0  0  0  0  0  0  0  0  0  0  0  0
  -27.7334  -19.8425   18.1338 C   0  0  0  0  0  0  0  0  0  0  0  0
  -21.0153  -29.8016   22.3217 C   0  0  0  0  0  0  0  0  0  0  0  0
  -20.0562  -29.2949   23.1985 C   0  0  0  0  0  0  0  0  0  0  0  0
  -28.6655  -18.4358   19.8577 C   0  0  0  0  0  0  0  0  0  0  0  0
  -19.4809  -27.5914   21.5846 C   0  0  0  0  0  0  0  0  0  0  0  0
  -26.1058  -29.7655   21.4954 C   0  0  0  0  0  0  0  0  0  0  0  0
  -27.9537  -30.2024   23.1989 C   0  0  0  0  0  0  0  0  0  0  0  0
  -20.9199  -15.8562   17.7728 C   0  0  0  0  0  0  0  0  0  0  0  0
  -27.3670  -17.4432   18.0721 C   0  0  0  0  0  0  0  0  0  0  0  0
  -22.0232  -16.4118   18.4484 C   0  0  0  0  0  0  0  0  0  0  0  0
  -28.1226  -17.2966   19.2441 C   0  0  0  0  0  0  0  0  0  0  0  0
  -23.4542  -29.7265   20.6294 C   0  0  0  0  0  0  0  0  0  0  0  0
  -28.4703  -19.7018   19.3061 C   0  0  0  0  0  0  0  0  0  0  0  0
  -21.2072  -29.2034   21.0763 C   0  0  0  0  0  0  0  0  0  0  0  0
  -19.2890  -28.1898   22.8300 C   0  0  0  0  0  0  0  0  0  0  0  0
  -20.4400  -28.0983   20.7078 C   0  0  0  0  0  0  0  0  0  0  0  0
  -27.4754  -29.7849   21.9424 C   0  0  0  0  0  0  0  0  0  0  0  0
  -29.3140  -30.0277   23.1238 C   0  0  0  0  0  0  0  0  0  0  0  0
  -27.2329  -30.7032   24.3326 C   0  0  0  0  0  0  0  0  0  0  0  0
  -25.4276  -15.2073   19.2311 C   0  0  0  0  0  0  0  0  0  0  0  0
  -28.1648  -13.4755   19.4058 C   0  0  0  0  0  0  0  0  0  0  0  0
  -31.5708  -13.4538   19.6189 C   0  0  0  0  0  0  0  0  0  0  0  0
  -26.0268  -24.8082   20.2078 C   0  0  0  0  0  0  0  0  0  0  0  0
  -29.5888  -27.7287   18.1139 C   0  0  0  0  0  0  0  0  0  0  0  0
  -20.5681  -14.3948   17.8959 C   0  0  0  0  0  0  0  0  0  0  0  0
  -26.7938  -16.2373   17.3794 C   0  0  0  0  0  0  0  0  0  0  0  0
  -28.3619  -15.9476   19.8698 C   0  0  0  0  0  0  0  0  0  0  0  0
  -21.7143  -13.5345   18.4215 C   0  0  0  0  0  0  0  0  0  0  0  0
  -31.1439  -30.7272   19.2791 C   0  0  0  0  0  0  0  0  0  0  0  0
  -30.1130  -24.1479   17.8842 C   0  0  0  0  0  0  0  0  0  0  0  0
  -22.3632  -14.1931   19.6348 C   0  0  0  0  0  0  0  0  0  0  0  0
  -31.6191  -30.3981   20.6900 C   0  0  0  0  0  0  0  0  0  0  0  0
  -28.5942  -24.1730   17.7848 C   0  0  0  0  0  0  0  0  0  0  0  0
  -31.2750  -29.5131   18.3727 C   0  0  0  0  0  0  0  0  0  0  0  0
  -30.4130  -25.3937   18.7033 C   0  0  0  0  0  0  0  0  0  0  0  0
  -30.8899  -27.9773   20.2908 C   0  0  0  0  0  0  0  0  0  0  0  0
  -22.9641  -15.5553   19.2676 C   0  0  1  0  0  0  0  0  0  0  0  0
  -26.6058  -15.0453   18.3128 C   0  0  1  0  0  0  0  0  0  0  0  0
  -30.9112  -29.1670   21.2781 C   0  0  2  0  0  0  0  0  0  0  0  0
  -28.2768  -25.6628   17.6293 C   0  0  1  0  0  0  0  0  0  0  0  0
  -33.5243  -11.8872   19.7836 C   0  0  0  0  0  0  0  0  0  0  0  0
  -27.5139  -12.9767   22.3447 C   0  0  0  0  0  0  0  0  0  0  0  0
  -29.8883  -12.2550   22.6760 C   0  0  0  0  0  0  0  0  0  0  0  0
  -28.4062  -10.9863   21.1215 C   0  0  0  0  0  0  0  0  0  0  0  0
  -32.7193  -14.4330   17.0732 C   0  0  0  0  0  0  0  0  0  0  0  0
  -26.9272  -26.0234   18.2368 C   0  0  0  0  0  0  0  0  0  0  0  0
  -29.0904  -22.1544   21.8991 C   0  0  0  0  0  0  0  0  0  0  0  0
  -27.5798  -24.1325   22.1089 C   0  0  0  0  0  0  0  0  0  0  0  0
  -29.1520  -20.7513   21.3285 C   0  0  0  0  0  0  0  0  0  1  0  0
  -29.2392  -13.2762   20.4474 C   0  0  1  0  0  0  0  0  0  0  0  0
  -32.6234  -12.6780   18.8478 C   0  0  2  0  0  0  0  0  0  0  0  0
  -26.2078  -24.6688   21.7156 C   0  0  2  0  0  0  0  0  0  0  0  0
  -28.7560  -12.3993   21.6369 C   0  0  0  0  0  0  0  0  0  0  0  0
  -28.4524  -29.3760   21.1287 N   0  0  0  0  0  0  0  0  0  0  0  0
  -29.5583  -29.5357   21.8755 N   0  0  0  0  0  0  0  0  0  0  0  0
  -27.7756  -14.7996   19.1585 N   0  0  0  0  0  0  0  0  0  0  0  0
  -30.5637  -28.3517   18.9072 N   0  0  0  0  0  0  0  0  0  0  0  0
  -29.3933  -26.3561   18.2831 N   0  0  0  0  0  0  0  0  0  0  0  0
  -30.3130  -30.2486   24.0045 N   0  0  0  0  0  0  0  0  0  0  0  0
  -25.8392  -30.8189   24.2403 N   0  0  0  0  0  0  0  0  0  0  0  0
  -24.2235  -15.3822   18.5760 N   0  0  0  0  0  0  0  0  0  0  0  0
  -26.9208  -25.7102   19.6274 N   0  0  0  0  0  0  0  0  0  0  0  0
  -30.3977  -12.7396   19.7414 N   0  0  0  0  0  0  0  0  0  0  0  0
  -33.4733  -13.6084   18.0521 N   0  3  0  0  0  0  0  0  0  0  0  0
  -27.7712  -22.7591   21.5737 N   0  3  0  0  0  0  0  0  0  0  0  0
  -27.8093  -31.0536   25.3902 O   0  0  0  0  0  0  0  0  0  0  0  0
  -25.5980  -15.1746   20.4442 O   0  0  0  0  0  0  0  0  0  0  0  0
  -27.6935  -12.4931   18.8275 O   0  0  0  0  0  0  0  0  0  0  0  0
  -31.7707  -14.5791   20.0709 O   0  0  0  0  0  0  0  0  0  0  0  0
  -25.1594  -24.1945   19.5901 O   0  0  0  0  0  0  0  0  0  0  0  0
  -28.9289  -28.3681   17.2840 O   0  0  0  0  0  0  0  0  0  0  0  0
  -25.2079  -23.8126   22.2445 O   0  0  0  0  0  0  0  0  0  0  0  0
  -22.1604  -29.7072   20.2072 O   0  0  0  0  0  0  0  0  0  0  0  0
  -29.0079  -20.8056   19.9154 O   0  0  0  0  0  0  0  0  0  1  0  0
  -18.3690  -27.7022   23.6727 F   0  0  0  0  0  0  0  0  0  0  0  0
  -20.6207  -27.5185   19.5132 F   0  0  0  0  0  0  0  0  0  0  0  0
  1  2  1  0  0  0  0
  1  5  2  0  0  0  0
  2  6  2  0  0  0  0
  3  8  2  0  0  0  0
  3 15  1  0  0  0  0
  4  9  1  0  0  0  0
  4 15  2  0  0  0  0
  5 17  1  0  0  0  0
  6 19  1  0  0  0  0
  7 10  2  0  0  0  0
  7 18  1  0  0  0  0
  8 21  1  0  0  0  0
  9 21  2  0  0  0  0
 10 22  1  0  0  0  0
 11 12  2  0  0  0  0
 11 23  1  0  0  0  0
 12 24  1  0  0  0  0
 13 20  1  0  0  0  0
 13 22  2  0  0  0  0
 14 24  2  0  0  0  0
 14 25  1  0  0  0  0
 15 26  1  0  0  0  0
 16 26  1  0  0  0  0
 16 27  2  0  0  0  0
 16 28  1  0  0  0  0
 17 19  2  0  0  0  0
 17 34  1  0  0  0  0
 18 20  2  0  0  0  0
 18 35  1  0  0  0  0
 19 46  1  0  0  0  0
 20 36  1  0  0  0  0
 21 82  1  0  0  0  0
 22 83  1  0  0  0  0
 23 25  2  0  0  0  0
 23 82  1  0  0  0  0
 24 84  1  0  0  0  0
 25 85  1  0  0  0  0
 26 63  2  0  0  0  0
 27 64  1  0  0  0  0
 27 68  1  0  0  0  0
 28 69  1  0  0  0  0
 28 75  2  0  0  0  0
 29 47  1  0  0  0  0
 29 70  1  0  0  0  0
 29 76  2  0  0  0  0
 30 59  1  0  0  0  0
 30 65  1  0  0  0  0
 30 77  2  0  0  0  0
 31 60  1  0  0  0  0
 31 72  1  0  0  0  0
 31 78  2  0  0  0  0
 32 61  1  0  0  0  0
 32 71  1  0  0  0  0
 32 79  2  0  0  0  0
 33 66  1  0  0  0  0
 33 67  1  0  0  0  0
 33 80  2  0  0  0  0
 34 37  1  0  0  0  0
 35 47  1  0  0  0  0
 36 65  1  0  0  0  0
 37 40  1  0  0  0  0
 38 41  1  0  0  0  0
 38 43  1  0  0  0  0
 39 42  1  0  0  0  0
 39 44  1  0  0  0  0
 40 46  1  0  0  0  0
 41 48  1  0  0  0  0
 42 49  1  0  0  0  0
 43 66  1  0  0  0  0
 44 67  1  0  0  0  0
 45 48  1  0  0  0  0
 45 66  1  0  0  0  0
 46 70  1  0  0  0  0
 47 65  1  0  0  0  0
 48 64  1  0  0  0  0
 49 55  1  0  0  0  0
 49 67  1  0  0  0  0
 50 60  1  0  0  0  0
 51 62  1  0  0  0  0
 52 62  1  0  0  0  0
 53 62  1  0  0  0  0
 54 73  1  0  0  0  0
 55 71  1  0  0  0  0
 56 58  1  0  0  0  0
 56 74  1  0  0  0  0
 57 61  1  0  0  0  0
 57 74  1  0  0  0  0
 58 83  1  0  0  0  0
 59 62  1  0  0  0  0
 59 72  1  0  0  0  0
 60 73  1  0  0  0  0
 61 81  1  0  0  0  0
 63 64  1  0  0  0  0
M  CHG  2  73   1  74   1
M  ISO  4  33 100  58 101  67 100  83 101
M  END
> <Batch ID>
0127

> <Smiles>
CNC(C)C(=O)NC(C(=O)N1Cc2cc([101O:1][101CH2:1]CNCC(O)C(=O)NCC3CCC[100N:0]3[100C:0](=O)N3CCCC(n4nc(-c5ccc(Oc6ccc(F)cc6F)cc5)c(C(N)=O)c4N)C3)ccc2CC1C(=O)NC1CCCc2ccccc21)C(C)(C)C

> <Shape>
0.264

> <Color>
0.067

> <Negative vol penalty>
0.000

$$$$

  -OEChem-04052320403D

 90 98  0     1  0  0  0  0  0999 V2000
  -31.9270  -31.3220   23.8347 C   0  0  0  0  0  0  0  0  0  0  0  0
  -31.1376  -30.2361   23.4699 C   0  0  0  0  0  0  0  0  0  0  0  0
  -27.5852  -11.5075   20.7619 C   0  0  0  0  0  0  0  0  0  0  0  0
  -27.6591  -12.3442   23.0272 C   0  0  0  0  0  0  0  0  0  0  0  0
  -31.3418  -32.4394   24.4287 C   0  0  0  0  0  0  0  0  0  0  0  0
  -29.7626  -30.2665   23.6999 C   0  0  0  0  0  0  0  0  0  0  0  0
  -27.0914  -28.6105   19.7291 C   0  0  0  0  0  0  0  0  0  0  0  0
  -26.6290  -10.5654   21.1411 C   0  0  0  0  0  0  0  0  0  0  0  0
  -26.7029  -11.4022   23.4064 C   0  0  0  0  0  0  0  0  0  0  0  0
  -27.0218  -27.2310   19.5392 C   0  0  0  0  0  0  0  0  0  0  0  0
  -23.3041  -10.4981   21.7522 C   0  0  0  0  0  0  0  0  0  0  0  0
  -22.1968  -10.3280   20.9214 C   0  0  0  0  0  0  0  0  0  0  0  0
  -24.8324  -27.2083   20.5517 C   0  0  0  0  0  0  0  0  0  0  0  0
  -22.7929   -8.0086   20.6018 C   0  0  0  0  0  0  0  0  0  0  0  0
  -28.1004  -12.3969   21.7050 C   0  0  0  0  0  0  0  0  0  0  0  0
  -30.3613  -13.1168   20.7683 C   0  0  0  0  0  0  0  0  0  0  0  0
  -29.9576  -32.4875   24.6573 C   0  0  0  0  0  0  0  0  0  0  0  0
  -26.0349  -29.2987   20.3426 C   0  0  0  0  0  0  0  0  0  0  0  0
  -29.1586  -31.3851   24.2987 C   0  0  0  0  0  0  0  0  0  0  0  0
  -24.8900  -28.5968   20.7458 C   0  0  0  0  0  0  0  0  0  0  0  0
  -26.1878  -10.5128   22.4633 C   0  0  0  0  0  0  0  0  0  0  0  0
  -25.8934  -26.5293   19.9531 C   0  0  0  0  0  0  0  0  0  0  0  0
  -24.1560   -9.4235   22.0078 C   0  0  0  0  0  0  0  0  0  0  0  0
  -21.9411   -9.0833   20.3462 C   0  0  0  0  0  0  0  0  0  0  0  0
  -23.9003   -8.1788   21.4327 C   0  0  0  0  0  0  0  0  0  0  0  0
  -29.0886  -13.3698   21.3141 C   0  0  0  0  0  0  0  0  0  0  0  0
  -30.9051  -14.3628   20.5730 C   0  0  0  0  0  0  0  0  0  0  0  0
  -30.9953  -11.8671   20.4649 C   0  0  0  0  0  0  0  0  0  0  0  0
  -25.7203  -31.0214   22.9954 C   0  0  0  0  0  0  0  0  0  0  0  0
  -22.7523  -31.5834   21.8132 C   0  0  0  0  0  0  0  0  0  0  0  0
  -20.1972  -30.5638   19.7936 C   0  0  0  0  0  0  0  0  0  0  0  0
  -28.4931  -19.7792   19.7387 C   0  0  0  0  0  0  0  0  0  0  0  0
  -29.3772  -33.6976   25.3454 C   0  0  0  0  0  0  0  0  0  0  0  0
  -26.1141  -30.7908   20.5159 C   0  0  0  0  0  0  0  0  0  0  0  0
  -23.7199  -29.2919   21.3911 C   0  0  0  0  0  0  0  0  0  0  0  0
  -27.8602  -33.8045   25.2127 C   0  0  0  0  0  0  0  0  0  0  0  0
  -30.7687  -18.8211   22.3039 C   0  0  0  0  0  0  0  0  0  0  0  0
  -26.4839  -18.3924   10.7946 C   0  0  0  0  0  0  0  0  0  0  0  0
  -27.2024  -32.4604   25.5083 C   0  0  0  0  0  0  0  0  0  0  0  0
  -25.0983  -19.0244   10.8787 C   0  0  0  0  0  0  0  0  0  0  0  0
  -30.7109  -17.2925   22.2919 C   0  0  0  0  0  0  0  0  0  0  0  0
  -29.4021  -19.4397   22.0179 C   0  0  0  0  0  0  0  0  0  0  0  0
  -28.6958  -17.4355   20.7696 C   0  0  0  0  0  0  0  0  0  0  0  0
  -27.5115  -19.2051   11.5595 C   0  0  0  0  0  0  0  0  0  0  0  0
  -27.6600  -31.3907   24.5093 C   0  0  1  0  0  0  0  0  0  0  0  0
  -25.1974  -31.3138   21.6174 C   0  0  1  0  0  0  0  0  0  0  0  0
  -24.6572  -19.2579   12.3354 C   0  0  1  0  0  0  0  0  0  0  0  0
  -30.0618  -16.7661   20.9978 C   0  0  2  0  0  0  0  0  0  0  0  0
  -25.7184  -20.0741   13.1091 C   0  0  1  0  0  0  0  0  0  0  0  0
  -17.8850  -31.2106   19.0635 C   0  0  0  0  0  0  0  0  0  0  0  0
  -22.2311  -19.0600   11.6821 C   0  0  0  0  0  0  0  0  0  0  0  0
  -21.6413  -30.6206   24.4869 C   0  0  0  0  0  0  0  0  0  0  0  0
  -19.4021  -30.3840   23.3921 C   0  0  0  0  0  0  0  0  0  0  0  0
  -20.4863  -32.6259   23.5386 C   0  0  0  0  0  0  0  0  0  0  0  0
  -21.0307  -30.7974   16.9635 C   0  0  0  0  0  0  0  0  0  0  0  0
  -23.8001  -19.4587   17.2509 C   0  0  0  0  0  0  0  0  0  0  0  0
  -25.8021  -23.3859   18.1833 C   0  0  0  0  0  0  0  0  0  0  0  0
  -26.0882  -21.3681   15.1015 C   0  0  0  0  0  0  0  0  0  0  0  0
  -27.5761  -19.9567   17.4394 C   0  0  0  0  0  0  0  0  0  0  0  0
  -26.5215  -24.6427   18.6484 C   0  0  0  0  0  0  0  0  0  1  0  0
  -21.4084  -30.9058   21.9315 C   0  0  1  0  0  0  0  0  0  0  0  0
  -19.3719  -31.3083   18.7597 C   0  0  2  0  0  0  0  0  0  0  0  0
  -23.2814  -19.9346   12.3396 C   0  0  1  0  0  0  0  0  0  0  0  0
  -25.7683  -21.5867   16.5952 C   0  0  1  0  0  0  0  0  0  0  0  0
  -26.1059  -20.3836   17.5093 C   0  0  1  0  0  0  0  0  0  0  0  0
  -20.7572  -31.1204   23.3269 C   0  0  0  0  0  0  0  0  0  0  0  0
  -28.8387  -14.6742   21.4566 N   0  0  0  0  0  0  0  0  0  0  0  0
  -29.9619  -15.2518   20.9975 N   0  0  0  0  0  0  0  0  0  0  0  0
  -23.8477  -30.7505   21.5444 N   0  0  0  0  0  0  0  0  0  0  0  0
  -28.8421  -18.8996   20.7767 N   0  0  0  0  0  0  0  0  0  0  0  0
  -32.0933  -14.7738   20.0814 N   0  0  0  0  0  0  0  0  0  0  0  0
  -31.7708  -11.2529   21.4577 N   0  0  0  0  0  0  0  0  0  0  0  0
  -26.9716  -31.5511   23.2464 N   0  0  0  0  0  0  0  0  0  0  0  0
  -20.6054  -31.3944   20.8158 N   0  0  0  0  0  0  0  0  0  0  0  0
  -27.9753  -19.1843   18.5947 N   0  0  0  0  0  0  0  0  0  0  0  0
  -25.3603  -20.2470   14.5145 N   0  0  0  0  0  0  0  0  0  0  0  0
  -26.4591  -22.7947   17.0261 N   0  0  0  0  0  0  0  0  0  0  0  0
  -27.0448  -19.3793   12.9641 N   0  3  0  0  0  0  0  0  0  0  0  0
  -19.6121  -30.7443   17.4013 N   0  3  0  0  0  0  0  0  0  0  0  0
  -25.2591  -19.2079   17.1455 N   0  3  0  0  0  0  0  0  0  0  0  0
  -30.8910  -11.3197   19.3411 O   0  0  0  0  0  0  0  0  0  0  0  0
  -25.0383  -30.3650   23.7737 O   0  0  0  0  0  0  0  0  0  0  0  0
  -22.8262  -32.8074   21.9471 O   0  0  0  0  0  0  0  0  0  0  0  0
  -20.4509  -29.3645   19.7054 O   0  0  0  0  0  0  0  0  0  0  0  0
  -28.6376  -21.0035   19.8230 O   0  0  0  0  0  0  0  0  0  0  0  0
  -22.9082  -20.2020   13.6838 O   0  0  0  0  0  0  0  0  0  0  0  0
  -25.2545   -9.5938   22.8336 O   0  0  0  0  0  0  0  0  0  0  0  0
  -25.8231  -25.1827   19.7696 O   0  0  0  0  0  0  0  0  0  1  0  0
  -20.8767   -8.9196   19.5496 F   0  0  0  0  0  0  0  0  0  0  0  0
  -24.7144   -7.1424   21.6755 F   0  0  0  0  0  0  0  0  0  0  0  0
  1  2  1  0  0  0  0
  1  5  2  0  0  0  0
  2  6  2  0  0  0  0
  3  8  2  0  0  0  0
  3 15  1  0  0  0  0
  4  9  1  0  0  0  0
  4 15  2  0  0  0  0
  5 17  1  0  0  0  0
  6 19  1  0  0  0  0
  7 10  2  0  0  0  0
  7 18  1  0  0  0  0
  8 21  1  0  0  0  0
  9 21  2  0  0  0  0
 10 22  1  0  0  0  0
 11 12  2  0  0  0  0
 11 23  1  0  0  0  0
 12 24  1  0  0  0  0
 13 20  1  0  0  0  0
 13 22  2  0  0  0  0
 14 24  2  0  0  0  0
 14 25  1  0  0  0  0
 15 26  1  0  0  0  0
 16 26  1  0  0  0  0
 16 27  2  0  0  0  0
 16 28  1  0  0  0  0
 17 19  2  0  0  0  0
 17 33  1  0  0  0  0
 18 20  2  0  0  0  0
 18 34  1  0  0  0  0
 19 45  1  0  0  0  0
 20 35  1  0  0  0  0
 21 87  1  0  0  0  0
 22 88  1  0  0  0  0
 23 25  2  0  0  0  0
 23 87  1  0  0  0  0
 24 89  1  0  0  0  0
 25 90  1  0  0  0  0
 26 67  2  0  0  0  0
 27 68  1  0  0  0  0
 27 71  1  0  0  0  0
 28 72  1  0  0  0  0
 28 81  2  0  0  0  0
 29 46  1  0  0  0  0
 29 73  1  0  0  0  0
 29 82  2  0  0  0  0
 30 61  1  0  0  0  0
 30 69  1  0  0  0  0
 30 83  2  0  0  0  0
 31 62  1  0  0  0  0
 31 74  1  0  0  0  0
 31 84  2  0  0  0  0
 32 70  1  0  0  0  0
 32 75  1  0  0  0  0
 32 85  2  0  0  0  0
 33 36  1  0  0  0  0
 34 46  1  0  0  0  0
 35 69  1  0  0  0  0
 36 39  1  0  0  0  0
 37 41  1  0  0  0  0
 37 42  1  0  0  0  0
 38 40  1  0  0  0  0
 38 44  1  0  0  0  0
 39 45  1  0  0  0  0
 40 47  1  0  0  0  0
 41 48  1  0  0  0  0
 42 70  1  0  0  0  0
 43 48  1  0  0  0  0
 43 70  1  0  0  0  0
 44 78  1  0  0  0  0
 45 73  1  0  0  0  0
 46 69  1  0  0  0  0
 47 49  1  0  0  0  0
 47 63  1  0  0  0  0
 48 68  1  0  0  0  0
 49 76  1  0  0  0  0
 49 78  1  0  0  0  0
 50 62  1  0  0  0  0
 51 63  1  0  0  0  0
 52 66  1  0  0  0  0
 53 66  1  0  0  0  0
 54 66  1  0  0  0  0
 55 79  1  0  0  0  0
 56 80  1  0  0  0  0
 57 60  1  0  0  0  0
 57 77  1  0  0  0  0
 58 64  1  0  0  0  0
 58 76  1  0  0  0  0
 59 65  1  0  0  0  0
 59 75  1  0  0  0  0
 60 88  1  0  0  0  0
 61 66  1  0  0  0  0
 61 74  1  0  0  0  0
 62 79  1  0  0  0  0
 63 86  1  0  0  0  0
 64 65  1  0  0  0  0
 64 77  1  0  0  0  0
 65 80  1  0  0  0  0
 67 68  1  0  0  0  0
M  CHG  3  78   1  79   1  80   1
M  ISO  4  32 100  60 101  75 100  88 101
M  END
> <Batch ID>
0127

> <Smiles>
CNC(C)C(=O)NC(C(=O)N1Cc2cc([101O:1][101CH2:1]CNC(CNC3NCCCC3C(C)O)C(C[100NH:0][100C:0](=O)N3CCCC(n4nc(-c5ccc(Oc6ccc(F)cc6F)cc5)c(C(N)=O)c4N)C3)NC)ccc2CC1C(=O)NC1CCCc2ccccc21)C(C)(C)C

> <Shape>
0.253

> <Color>
0.070

> <Negative vol penalty>
0.000

$$$$

  -OEChem-04052320403D

 86 94  0     1  0  0  0  0  0999 V2000
  -27.4273  -20.9049   14.1135 C   0  0  0  0  0  0  0  0  0  0  0  0
  -28.0793  -20.4068   15.2370 C   0  0  0  0  0  0  0  0  0  0  0  0
  -23.5923   -9.6481   20.6110 C   0  0  0  0  0  0  0  0  0  0  0  0
  -24.1673  -10.2526   22.8783 C   0  0  0  0  0  0  0  0  0  0  0  0
  -27.5658  -22.2483   13.7670 C   0  0  0  0  0  0  0  0  0  0  0  0
  -28.8711  -21.2516   16.0140 C   0  0  0  0  0  0  0  0  0  0  0  0
  -29.6199  -21.0393   22.0886 C   0  0  0  0  0  0  0  0  0  0  0  0
  -23.0150   -8.4653   21.0727 C   0  0  0  0  0  0  0  0  0  0  0  0
  -23.5900   -9.0697   23.3401 C   0  0  0  0  0  0  0  0  0  0  0  0
  -30.6214  -20.4958   22.8918 C   0  0  0  0  0  0  0  0  0  0  0  0
  -20.1206   -7.5126   22.5382 C   0  0  0  0  0  0  0  0  0  0  0  0
  -18.8761   -7.1535   22.0206 C   0  0  0  0  0  0  0  0  0  0  0  0
  -31.6843  -22.6576   23.0189 C   0  0  0  0  0  0  0  0  0  0  0  0
  -19.8217   -5.0982   21.1729 C   0  0  0  0  0  0  0  0  0  0  0  0
  -24.1685  -10.5418   21.5138 C   0  0  0  0  0  0  0  0  0  0  0  0
  -24.1319  -13.0090   20.8663 C   0  0  0  0  0  0  0  0  0  0  0  0
  -28.3520  -23.1122   14.5456 C   0  0  0  0  0  0  0  0  0  0  0  0
  -29.6489  -22.3960   21.7349 C   0  0  0  0  0  0  0  0  0  0  0  0
  -29.0213  -22.6075   15.6768 C   0  0  0  0  0  0  0  0  0  0  0  0
  -30.6805  -23.2165   22.2132 C   0  0  0  0  0  0  0  0  0  0  0  0
  -23.0138   -8.1761   22.4372 C   0  0  0  0  0  0  0  0  0  0  0  0
  -31.6554  -21.3043   23.3547 C   0  0  0  0  0  0  0  0  0  0  0  0
  -21.2157   -6.6645   22.3731 C   0  0  0  0  0  0  0  0  0  0  0  0
  -18.7266   -5.9463   21.3380 C   0  0  0  0  0  0  0  0  0  0  0  0
  -21.0662   -5.4573   21.6904 C   0  0  0  0  0  0  0  0  0  0  0  0
  -24.7655  -11.7635   21.0374 C   0  0  0  0  0  0  0  0  0  0  0  0
  -25.1221  -13.8362   20.3955 C   0  0  0  0  0  0  0  0  0  0  0  0
  -22.7700  -13.3845   21.1111 C   0  0  0  0  0  0  0  0  0  0  0  0
  -29.8598  -23.9963   18.9966 C   0  0  0  0  0  0  0  0  0  0  0  0
  -29.3752  -26.5682   20.9130 C   0  0  0  0  0  0  0  0  0  0  0  0
  -29.5806  -27.9364   24.0327 C   0  0  0  0  0  0  0  0  0  0  0  0
  -31.0893  -13.7385   20.8795 C   0  0  0  0  0  0  0  0  0  0  0  0
  -28.5097  -24.5458   14.1045 C   0  0  0  0  0  0  0  0  0  0  0  0
  -28.5465  -22.9729   20.8898 C   0  0  0  0  0  0  0  0  0  0  0  0
  -30.7466  -24.6836   21.8789 C   0  0  0  0  0  0  0  0  0  0  0  0
  -29.0656  -25.4603   15.1930 C   0  0  0  0  0  0  0  0  0  0  0  0
  -29.1854  -13.7525   17.8709 C   0  0  0  0  0  0  0  0  0  0  0  0
  -30.2665  -24.8112   15.8737 C   0  0  0  0  0  0  0  0  0  0  0  0
  -27.7796  -13.3567   18.3258 C   0  0  0  0  0  0  0  0  0  0  0  0
  -32.2116  -14.7117   25.6684 C   0  0  0  0  0  0  0  0  0  0  0  0
  -30.2632  -13.0123   18.6599 C   0  0  0  0  0  0  0  0  0  0  0  0
  -28.7438  -12.7357   20.5805 C   0  0  0  0  0  0  0  0  0  0  0  0
  -32.0930  -12.3985   24.6379 C   0  0  0  0  0  0  0  0  0  0  0  0
  -29.8691  -23.4982   16.5588 C   0  0  1  0  0  0  0  0  0  0  0  0
  -28.9548  -24.2535   20.1681 C   0  0  1  0  0  0  0  0  0  0  0  0
  -31.5922  -13.8396   24.5625 C   0  0  2  0  0  0  0  0  0  0  0  0
  -33.7344  -14.5665   25.8633 C   0  0  1  0  0  0  0  0  0  0  0  0
  -27.6236  -13.4978   19.8519 C   0  0  2  0  0  0  0  0  0  0  0  0
  -34.1373  -13.0810   25.9183 C   0  0  2  0  0  0  0  0  0  0  0  0
  -29.1459  -30.0697   25.2807 C   0  0  0  0  0  0  0  0  0  0  0  0
  -36.2535  -13.5132   27.1934 C   0  0  0  0  0  0  0  0  0  0  0  0
  -35.9348  -11.3334   25.9891 C   0  0  0  0  0  0  0  0  0  0  0  0
  -31.8997  -27.7855   19.7066 C   0  0  0  0  0  0  0  0  0  0  0  0
  -31.9427  -29.4098   21.6113 C   0  0  0  0  0  0  0  0  0  0  0  0
  -30.0150  -29.3977   20.0282 C   0  0  0  0  0  0  0  0  0  0  0  0
  -27.6052  -26.6311   25.8083 C   0  0  0  0  0  0  0  0  0  0  0  0
  -31.7688  -14.4324   23.1633 C   0  0  0  0  0  0  0  0  0  0  0  0
  -34.5295  -15.3979   24.8515 C   0  0  0  0  0  0  0  0  0  0  0  0
  -34.4223  -19.1841   24.2907 C   0  0  0  0  0  0  0  0  0  0  0  0
  -34.8938  -17.7508   24.0966 C   0  0  0  0  0  0  0  0  0  0  0  0
  -32.9559  -19.4003   23.9375 C   0  0  0  0  0  0  0  0  0  1  0  0
  -30.2677  -27.5073   21.6879 C   0  0  1  0  0  0  0  0  0  0  0  0
  -28.5773  -28.7250   24.8548 C   0  0  2  0  0  0  0  0  0  0  0  0
  -35.6396  -12.8315   25.9725 C   0  0  0  0  0  0  0  0  0  0  0  0
  -31.0314  -28.4970   20.7634 C   0  0  0  0  0  0  0  0  0  0  0  0
  -26.0582  -11.7923   20.7024 N   0  0  0  0  0  0  0  0  0  0  0  0
  -26.2449  -13.0658   20.3160 N   0  0  0  0  0  0  0  0  0  0  0  0
  -29.6489  -25.1994   21.0443 N   0  0  0  0  0  0  0  0  0  0  0  0
  -30.0589  -13.1876   20.0998 N   0  0  0  0  0  0  0  0  0  0  0  0
  -25.1333  -15.1400   20.0458 N   0  0  0  0  0  0  0  0  0  0  0  0
  -21.8850  -12.4111   21.5943 N   0  0  0  0  0  0  0  0  0  0  0  0
  -29.1915  -23.7655   17.8093 N   0  0  0  0  0  0  0  0  0  0  0  0
  -29.4163  -28.1532   22.6810 N   0  0  0  0  0  0  0  0  0  0  0  0
  -30.8110  -13.8761   22.2339 N   0  0  0  0  0  0  0  0  0  0  0  0
  -33.5835  -12.3661   24.7200 N   0  3  0  0  0  0  0  0  0  0  0  0
  -28.2000  -27.9650   26.0800 N   0  3  0  0  0  0  0  0  0  0  0  0
  -34.1439  -16.8302   24.9830 N   0  3  0  0  0  0  0  0  0  0  0  0
  -22.3464  -14.5447   20.8918 O   0  0  0  0  0  0  0  0  0  0  0  0
  -31.0746  -24.0078   19.1576 O   0  0  0  0  0  0  0  0  0  0  0  0
  -28.4642  -27.0317   20.2225 O   0  0  0  0  0  0  0  0  0  0  0  0
  -30.4280  -27.2043   24.5392 O   0  0  0  0  0  0  0  0  0  0  0  0
  -32.1748  -14.0872   20.4029 O   0  0  0  0  0  0  0  0  0  0  0  0
  -22.4504   -7.0221   22.8882 O   0  0  0  0  0  0  0  0  0  0  0  0
  -32.6347  -20.7761   24.1383 O   0  0  0  0  0  0  0  0  0  1  0  0
  -17.5312   -5.6009   20.8423 F   0  0  0  0  0  0  0  0  0  0  0  0
  -22.1144   -4.6379   21.5297 F   0  0  0  0  0  0  0  0  0  0  0  0
  1  2  1  0  0  0  0
  1  5  2  0  0  0  0
  2  6  2  0  0  0  0
  3  8  2  0  0  0  0
  3 15  1  0  0  0  0
  4  9  1  0  0  0  0
  4 15  2  0  0  0  0
  5 17  1  0  0  0  0
  6 19  1  0  0  0  0
  7 10  2  0  0  0  0
  7 18  1  0  0  0  0
  8 21  1  0  0  0  0
  9 21  2  0  0  0  0
 10 22  1  0  0  0  0
 11 12  2  0  0  0  0
 11 23  1  0  0  0  0
 12 24  1  0  0  0  0
 13 20  1  0  0  0  0
 13 22  2  0  0  0  0
 14 24  2  0  0  0  0
 14 25  1  0  0  0  0
 15 26  1  0  0  0  0
 16 26  1  0  0  0  0
 16 27  2  0  0  0  0
 16 28  1  0  0  0  0
 17 19  2  0  0  0  0
 17 33  1  0  0  0  0
 18 20  2  0  0  0  0
 18 34  1  0  0  0  0
 19 44  1  0  0  0  0
 20 35  1  0  0  0  0
 21 83  1  0  0  0  0
 22 84  1  0  0  0  0
 23 25  2  0  0  0  0
 23 83  1  0  0  0  0
 24 85  1  0  0  0  0
 25 86  1  0  0  0  0
 26 66  2  0  0  0  0
 27 67  1  0  0  0  0
 27 70  1  0  0  0  0
 28 71  1  0  0  0  0
 28 78  2  0  0  0  0
 29 45  1  0  0  0  0
 29 72  1  0  0  0  0
 29 79  2  0  0  0  0
 30 62  1  0  0  0  0
 30 68  1  0  0  0  0
 30 80  2  0  0  0  0
 31 63  1  0  0  0  0
 31 73  1  0  0  0  0
 31 81  2  0  0  0  0
 32 69  1  0  0  0  0
 32 74  1  0  0  0  0
 32 82  2  0  0  0  0
 33 36  1  0  0  0  0
 34 45  1  0  0  0  0
 35 68  1  0  0  0  0
 36 38  1  0  0  0  0
 37 39  1  0  0  0  0
 37 41  1  0  0  0  0
 38 44  1  0  0  0  0
 39 48  1  0  0  0  0
 40 46  1  0  0  0  0
 40 47  1  0  0  0  0
 41 69  1  0  0  0  0
 42 48  1  0  0  0  0
 42 69  1  0  0  0  0
 43 46  1  0  0  0  0
 43 75  1  0  0  0  0
 44 72  1  0  0  0  0
 45 68  1  0  0  0  0
 46 57  1  0  0  0  0
 47 49  1  0  0  0  0
 47 58  1  0  0  0  0
 48 67  1  0  0  0  0
 49 64  1  0  0  0  0
 49 75  1  0  0  0  0
 50 63  1  0  0  0  0
 51 64  1  0  0  0  0
 52 64  1  0  0  0  0
 53 65  1  0  0  0  0
 54 65  1  0  0  0  0
 55 65  1  0  0  0  0
 56 76  1  0  0  0  0
 57 74  1  0  0  0  0
 58 77  1  0  0  0  0
 59 60  1  0  0  0  0
 59 61  1  0  0  0  0
 60 77  1  0  0  0  0
 61 84  1  0  0  0  0
 62 65  1  0  0  0  0
 62 73  1  0  0  0  0
 63 76  1  0  0  0  0
 66 67  1  0  0  0  0
M  CHG  3  75   1  76   1  77   1
M  ISO  4  32 100  61 101  74 100  84 101
M  END
> <Batch ID>
0127

> <Smiles>
CNC(C)C(=O)NC(C(=O)N1Cc2cc([101O:1][101CH2:1]CCNCC3CC(C[100NH:0][100C:0](=O)N4CCCC(n5nc(-c6ccc(Oc7ccc(F)cc7F)cc6)c(C(N)=O)c5N)C4)CNC3C(C)C)ccc2CC1C(=O)NC1CCCc2ccccc21)C(C)(C)C

> <Shape>
0.211

> <Color>
0.157

> <Negative vol penalty>
0.000

$$$$

  -OEChem-04052320403D

 91101  0     1  0  0  0  0  0999 V2000
  -20.2201  -11.6509   18.8461 C   0  0  0  0  0  0  0  0  0  0  0  0
  -20.6337  -12.9062   18.4117 C   0  0  0  0  0  0  0  0  0  0  0  0
  -22.9522  -26.3640   22.5812 C   0  0  0  0  0  0  0  0  0  0  0  0
  -21.6544  -26.7749   24.5772 C   0  0  0  0  0  0  0  0  0  0  0  0
  -20.8819  -11.0274   19.9031 C   0  0  0  0  0  0  0  0  0  0  0  0
  -21.7087  -13.5391   19.0347 C   0  0  0  0  0  0  0  0  0  0  0  0
  -27.1685  -17.9562   17.6217 C   0  0  0  0  0  0  0  0  0  0  0  0
  -30.7659  -31.9795   20.6491 C   0  0  0  0  0  0  0  0  0  0  0  0
  -31.3279  -24.2597   19.3869 C   0  0  0  0  0  0  0  0  0  0  0  0
  -30.6378  -23.1751   18.8456 C   0  0  0  0  0  0  0  0  0  0  0  0
  -23.1014  -25.0280   22.9532 C   0  0  0  0  0  0  0  0  0  0  0  0
  -21.8036  -25.4388   24.9492 C   0  0  0  0  0  0  0  0  0  0  0  0
  -27.7348  -19.1475   18.0733 C   0  0  0  0  0  0  0  0  0  0  0  0
  -21.5378  -22.0519   26.2439 C   0  0  0  0  0  0  0  0  0  0  0  0
  -20.4082  -21.3766   26.7061 C   0  0  0  0  0  0  0  0  0  0  0  0
  -31.4805  -30.7890   20.7633 C   0  0  0  0  0  0  0  0  0  0  0  0
  -28.8527  -17.9403   19.8374 C   0  0  0  0  0  0  0  0  0  0  0  0
  -19.3028  -21.7817   24.5964 C   0  0  0  0  0  0  0  0  0  0  0  0
  -22.2287  -27.2375   23.3932 C   0  0  0  0  0  0  0  0  0  0  0  0
  -21.0450  -29.1727   22.2264 C   0  0  0  0  0  0  0  0  0  0  0  0
  -21.9717  -11.6488   20.5330 C   0  0  0  0  0  0  0  0  0  0  0  0
  -27.4319  -16.7476   18.2823 C   0  0  0  0  0  0  0  0  0  0  0  0
  -22.3849  -12.9238   20.1019 C   0  0  0  0  0  0  0  0  0  0  0  0
  -29.5194  -32.0412   21.2356 C   0  0  0  0  0  0  0  0  0  0  0  0
  -28.2906  -16.7347   19.3907 C   0  0  0  0  0  0  0  0  0  0  0  0
  -30.9096  -24.8207   20.5935 C   0  0  0  0  0  0  0  0  0  0  0  0
  -29.5292  -22.6516   19.5109 C   0  0  0  0  0  0  0  0  0  0  0  0
  -29.8010  -24.2972   21.2589 C   0  0  0  0  0  0  0  0  0  0  0  0
  -29.1108  -23.2126   20.7176 C   0  0  0  0  0  0  0  0  0  0  0  0
  -22.5271  -24.5654   24.1371 C   0  0  0  0  0  0  0  0  0  0  0  0
  -28.5747  -19.1401   19.1830 C   0  0  0  0  0  0  0  0  0  0  0  0
  -21.5498  -22.5922   24.9580 C   0  0  0  0  0  0  0  0  0  0  0  0
  -19.2907  -21.2415   25.8823 C   0  0  0  0  0  0  0  0  0  0  0  0
  -20.4324  -22.4571   24.1342 C   0  0  0  0  0  0  0  0  0  0  0  0
  -22.0747  -28.6178   23.0098 C   0  0  0  0  0  0  0  0  0  0  0  0
  -29.0321  -30.9279   21.9088 C   0  0  0  0  0  0  0  0  0  0  0  0
  -30.9039  -29.7257   21.4595 C   0  0  0  0  0  0  0  0  0  0  0  0
  -21.3524  -30.5093   22.1521 C   0  0  0  0  0  0  0  0  0  0  0  0
  -19.9121  -28.5368   21.6200 C   0  0  0  0  0  0  0  0  0  0  0  0
  -25.6645  -14.6034   19.8259 C   0  0  0  0  0  0  0  0  0  0  0  0
  -28.4541  -12.9510   19.9252 C   0  0  0  0  0  0  0  0  0  0  0  0
  -31.8650  -13.0163   19.8335 C   0  0  0  0  0  0  0  0  0  0  0  0
  -26.5170  -33.4984   22.6939 C   0  0  0  0  0  0  0  0  0  0  0  0
  -22.6257  -10.9562   21.7024 C   0  0  0  0  0  0  0  0  0  0  0  0
  -26.8346  -15.4671   17.7665 C   0  0  0  0  0  0  0  0  0  0  0  0
  -28.5405  -33.1597   21.2861 C   0  0  0  0  0  0  0  0  0  0  0  0
  -28.6214  -15.4607   20.1228 C   0  0  0  0  0  0  0  0  0  0  0  0
  -27.6557  -31.2045   22.4383 C   0  0  0  0  0  0  0  0  0  0  0  0
  -23.9932  -11.5307   22.0634 C   0  0  0  0  0  0  0  0  0  0  0  0
  -23.5405  -34.0023   24.5430 C   0  0  0  0  0  0  0  0  0  0  0  0
  -23.9376  -13.0545   22.1064 C   0  0  0  0  0  0  0  0  0  0  0  0
  -22.7425  -32.7198   24.3262 C   0  0  0  0  0  0  0  0  0  0  0  0
  -25.0285  -33.6999   24.6540 C   0  0  0  0  0  0  0  0  0  0  0  0
  -24.7886  -31.7081   23.1913 C   0  0  0  0  0  0  0  0  0  0  0  0
  -23.5626  -13.6317   20.7361 C   0  0  1  0  0  0  0  0  0  0  0  0
  -26.7622  -14.3721   18.8263 C   0  0  1  0  0  0  0  0  0  0  0  0
  -23.2689  -31.9571   23.1010 C   0  0  1  0  0  0  0  0  0  0  0  0
  -29.3554  -24.9000   22.5533 C   0  0  0  0  0  0  0  0  0  0  0  0
  -27.9207  -22.6508   21.4290 C   0  0  0  0  0  0  0  0  0  0  0  0
  -33.8686  -11.5122   19.9768 C   0  0  0  0  0  0  0  0  0  0  0  0
  -28.0762  -12.7393   22.9455 C   0  0  0  0  0  0  0  0  0  0  0  0
  -30.4897  -12.1005   23.1326 C   0  0  0  0  0  0  0  0  0  0  0  0
  -28.9140  -10.6530   21.8502 C   0  0  0  0  0  0  0  0  0  0  0  0
  -32.7591  -13.7552   17.1108 C   0  0  0  0  0  0  0  0  0  0  0  0
  -31.6700  -25.9864   21.1539 C   0  0  0  0  0  0  0  0  0  0  0  0
  -28.8068  -21.4910   18.9086 C   0  0  0  0  0  0  0  0  0  1  0  0
  -31.6637  -28.4466   21.5854 C   0  0  0  0  0  0  0  0  0  0  0  0
  -29.6203  -12.8787   20.8810 C   0  0  1  0  0  0  0  0  0  0  0  0
  -32.8677  -12.1870   19.0518 C   0  0  2  0  0  0  0  0  0  0  0  0
  -29.2675  -12.1173   22.1899 C   0  0  0  0  0  0  0  0  0  0  0  0
  -22.9693  -29.5276   23.4049 N   0  0  0  0  0  0  0  0  0  0  0  0
  -29.6812  -29.7604   22.0424 N   0  0  0  0  0  0  0  0  0  0  0  0
  -22.5028  -30.6676   22.8674 N   0  0  0  0  0  0  0  0  0  0  0  0
  -28.0078  -14.2356   19.5840 N   0  0  0  0  0  0  0  0  0  0  0  0
  -27.4334  -32.6267   22.1008 N   0  0  0  0  0  0  0  0  0  0  0  0
  -25.5201  -32.9420   23.5024 N   0  0  0  0  0  0  0  0  0  0  0  0
  -20.7481  -31.5529   21.5453 N   0  0  0  0  0  0  0  0  0  0  0  0
  -19.7472  -27.1561   21.7961 N   0  0  0  0  0  0  0  0  0  0  0  0
  -24.7052  -13.6091   19.8482 N   0  0  0  0  0  0  0  0  0  0  0  0
  -30.7275  -12.2958   20.1307 N   0  0  0  0  0  0  0  0  0  0  0  0
  -33.6185  -13.0484   18.0951 N   0  3  0  0  0  0  0  0  0  0  0  0
  -30.9571  -27.2802   20.9892 N   0  3  0  0  0  0  0  0  0  0  0  0
  -19.0797  -29.1711   20.9285 O   0  0  0  0  0  0  0  0  0  0  0  0
  -25.6869  -15.6089   20.5261 O   0  0  0  0  0  0  0  0  0  0  0  0
  -27.9619  -11.9063   19.4915 O   0  0  0  0  0  0  0  0  0  0  0  0
  -32.0718  -14.1852   20.1522 O   0  0  0  0  0  0  0  0  0  0  0  0
  -26.6151  -34.7241   22.5488 O   0  0  0  0  0  0  0  0  0  0  0  0
  -22.6723  -23.2617   24.5003 O   0  0  0  0  0  0  0  0  0  0  0  0
  -29.1322  -20.3099   19.6295 O   0  0  0  0  0  0  0  0  0  1  0  0
  -18.2066  -20.5916   26.3257 F   0  0  0  0  0  0  0  0  0  0  0  0
  -20.4385  -22.9730   22.8974 F   0  0  0  0  0  0  0  0  0  0  0  0
  1  2  1  0  0  0  0
  1  5  2  0  0  0  0
  2  6  2  0  0  0  0
  3 11  2  0  0  0  0
  3 19  1  0  0  0  0
  4 12  1  0  0  0  0
  4 19  2  0  0  0  0
  5 21  1  0  0  0  0
  6 23  1  0  0  0  0
  7 13  2  0  0  0  0
  7 22  1  0  0  0  0
  8 16  2  0  0  0  0
  8 24  1  0  0  0  0
  9 10  2  0  0  0  0
  9 26  1  0  0  0  0
 10 27  1  0  0  0  0
 11 30  1  0  0  0  0
 12 30  2  0  0  0  0
 13 31  1  0  0  0  0
 14 15  2  0  0  0  0
 14 32  1  0  0  0  0
 15 33  1  0  0  0  0
 16 37  1  0  0  0  0
 17 25  1  0  0  0  0
 17 31  2  0  0  0  0
 18 33  2  0  0  0  0
 18 34  1  0  0  0  0
 19 35  1  0  0  0  0
 20 35  1  0  0  0  0
 20 38  2  0  0  0  0
 20 39  1  0  0  0  0
 21 23  2  0  0  0  0
 21 44  1  0  0  0  0
 22 25  2  0  0  0  0
 22 45  1  0  0  0  0
 23 55  1  0  0  0  0
 24 36  2  0  0  0  0
 24 46  1  0  0  0  0
 25 47  1  0  0  0  0
 26 28  2  0  0  0  0
 26 65  1  0  0  0  0
 27 29  2  0  0  0  0
 27 66  1  0  0  0  0
 28 29  1  0  0  0  0
 28 58  1  0  0  0  0
 29 59  1  0  0  0  0
 30 88  1  0  0  0  0
 31 89  1  0  0  0  0
 32 34  2  0  0  0  0
 32 88  1  0  0  0  0
 33 90  1  0  0  0  0
 34 91  1  0  0  0  0
 35 71  2  0  0  0  0
 36 48  1  0  0  0  0
 36 72  1  0  0  0  0
 37 67  1  0  0  0  0
 37 72  2  0  0  0  0
 38 73  1  0  0  0  0
 38 77  1  0  0  0  0
 39 78  1  0  0  0  0
 39 83  2  0  0  0  0
 40 56  1  0  0  0  0
 40 79  1  0  0  0  0
 40 84  2  0  0  0  0
 41 68  1  0  0  0  0
 41 74  1  0  0  0  0
 41 85  2  0  0  0  0
 42 69  1  0  0  0  0
 42 80  1  0  0  0  0
 42 86  2  0  0  0  0
 43 75  1  0  0  0  0
 43 76  1  0  0  0  0
 43 87  2  0  0  0  0
 44 49  1  0  0  0  0
 45 56  1  0  0  0  0
 46 75  1  0  0  0  0
 47 74  1  0  0  0  0
 48 75  1  0  0  0  0
 49 51  1  0  0  0  0
 50 52  1  0  0  0  0
 50 53  1  0  0  0  0
 51 55  1  0  0  0  0
 52 57  1  0  0  0  0
 53 76  1  0  0  0  0
 54 57  1  0  0  0  0
 54 76  1  0  0  0  0
 55 79  1  0  0  0  0
 56 74  1  0  0  0  0
 57 73  1  0  0  0  0
 60 69  1  0  0  0  0
 61 70  1  0  0  0  0
 62 70  1  0  0  0  0
 63 70  1  0  0  0  0
 64 81  1  0  0  0  0
 65 82  1  0  0  0  0
 66 89  1  0  0  0  0
 67 82  1  0  0  0  0
 68 70  1  0  0  0  0
 68 80  1  0  0  0  0
 69 81  1  0  0  0  0
 71 73  1  0  0  0  0
M  CHG  2  81   1  82   1
M  ISO  4  43 100  66 101  75 100  89 101
M  END
> <Batch ID>
0127

> <Smiles>
CNC(C)C(=O)NC(C(=O)N1Cc2cc([101O:1][101CH2:1]c3ccc(CNCc4ccc5c(n4)C[100N:0]([100C:0](=O)N4CCCC(n6nc(-c7ccc(Oc8ccc(F)cc8F)cc7)c(C(N)=O)c6N)C4)C5)c(C)c3C)ccc2CC1C(=O)NC1CCCc2ccccc21)C(C)(C)C

> <Shape>
0.250

> <Color>
0.071

> <Negative vol penalty>
0.000

$$$$

  -OEChem-04052320403D

 87 96  0     1  0  0  0  0  0999 V2000
  -31.7453  -24.6084   17.6138 C   0  0  0  0  0  0  0  0  0  0  0  0
  -30.3838  -24.8022   17.8176 C   0  0  0  0  0  0  0  0  0  0  0  0
  -28.2385  -16.3906   18.7808 C   0  0  0  0  0  0  0  0  0  0  0  0
  -28.0731  -16.9003   21.1366 C   0  0  0  0  0  0  0  0  0  0  0  0
  -32.6672  -25.2280   18.4549 C   0  0  0  0  0  0  0  0  0  0  0  0
  -29.9439  -25.6251   18.8550 C   0  0  0  0  0  0  0  0  0  0  0  0
  -25.1220  -26.5798   19.0592 C   0  0  0  0  0  0  0  0  0  0  0  0
  -29.0953  -17.4772   18.6059 C   0  0  0  0  0  0  0  0  0  0  0  0
  -28.9300  -17.9870   20.9617 C   0  0  0  0  0  0  0  0  0  0  0  0
  -24.1805  -25.6262   19.4437 C   0  0  0  0  0  0  0  0  0  0  0  0
  -30.7873  -21.1092   21.0705 C   0  0  0  0  0  0  0  0  0  0  0  0
  -30.4403  -22.3136   21.6826 C   0  0  0  0  0  0  0  0  0  0  0  0
  -24.0054  -26.6800   21.6066 C   0  0  0  0  0  0  0  0  0  0  0  0
  -22.1271  -19.9728   25.9036 C   0  0  0  0  0  0  0  0  0  0  0  0
  -23.4693  -21.7000   24.9037 C   0  0  0  0  0  0  0  0  0  0  0  0
  -28.3823  -22.3632   20.4180 C   0  0  0  0  0  0  0  0  0  0  0  0
  -27.7273  -16.1021   20.0462 C   0  0  0  0  0  0  0  0  0  0  0  0
  -27.2010  -13.6553   20.5396 C   0  0  0  0  0  0  0  0  0  0  0  0
  -32.2373  -26.0487   19.5107 C   0  0  0  0  0  0  0  0  0  0  0  0
  -25.5211  -27.5859   19.9508 C   0  0  0  0  0  0  0  0  0  0  0  0
  -30.8593  -26.2783   19.6999 C   0  0  0  0  0  0  0  0  0  0  0  0
  -24.9503  -27.6467   21.2301 C   0  0  0  0  0  0  0  0  0  0  0  0
  -23.1824  -20.8745   25.9851 C   0  0  0  0  0  0  0  0  0  0  0  0
  -29.4411  -18.2754   19.6963 C   0  0  0  0  0  0  0  0  0  0  0  0
  -23.6241  -25.6744   20.7185 C   0  0  0  0  0  0  0  0  0  0  0  0
  -29.9318  -20.5318   20.1321 C   0  0  0  0  0  0  0  0  0  0  0  0
  -29.2378  -22.9406   21.3564 C   0  0  0  0  0  0  0  0  0  0  0  0
  -28.7293  -21.1588   19.8059 C   0  0  0  0  0  0  0  0  0  0  0  0
  -26.8417  -14.9801   20.2275 C   0  0  0  0  0  0  0  0  0  0  0  0
  -21.3950  -19.9359   24.7278 C   0  0  0  0  0  0  0  0  0  0  0  0
  -22.6772  -21.5856   23.7726 C   0  0  0  0  0  0  0  0  0  0  0  0
  -26.0060  -12.9811   20.6024 C   0  0  0  0  0  0  0  0  0  0  0  0
  -28.4989  -13.0850   20.7537 C   0  0  0  0  0  0  0  0  0  0  0  0
  -28.2714  -28.4160   21.3112 C   0  0  0  0  0  0  0  0  0  0  0  0
  -26.5300  -30.9311   22.3900 C   0  0  0  0  0  0  0  0  0  0  0  0
  -23.4636  -32.2098   23.1706 C   0  0  0  0  0  0  0  0  0  0  0  0
  -20.3914  -14.7313   21.7269 C   0  0  0  0  0  0  0  0  0  0  0  0
  -33.2783  -26.7010   20.3859 C   0  0  0  0  0  0  0  0  0  0  0  0
  -26.5180  -28.6230   19.5115 C   0  0  0  0  0  0  0  0  0  0  0  0
  -25.3298  -28.7186   22.2177 C   0  0  0  0  0  0  0  0  0  0  0  0
  -32.7149  -27.1896   21.7164 C   0  0  0  0  0  0  0  0  0  0  0  0
  -21.5682  -13.0525   18.8159 C   0  0  0  0  0  0  0  0  0  0  0  0
  -25.4968  -20.7825   27.1293 C   0  0  0  0  0  0  0  0  0  0  0  0
  -24.6625  -19.7080   27.7535 C   0  0  0  0  0  0  0  0  0  0  0  0
  -31.4539  -28.0067   21.4781 C   0  0  0  0  0  0  0  0  0  0  0  0
  -23.0855  -13.2366   18.8758 C   0  0  0  0  0  0  0  0  0  0  0  0
  -20.8293  -14.2863   19.3297 C   0  0  0  0  0  0  0  0  0  0  0  0
  -22.7526  -14.9201   20.7342 C   0  0  0  0  0  0  0  0  0  0  0  0
  -24.0030  -20.9561   27.2259 C   0  0  0  0  0  0  0  0  0  0  0  0
  -30.3568  -27.1446   20.8408 C   0  0  1  0  0  0  0  0  0  0  0  0
  -27.2320  -29.2977   20.6787 C   0  0  1  0  0  0  0  0  0  0  0  0
  -23.5416  -13.6807   20.2787 C   0  0  2  0  0  0  0  0  0  0  0  0
  -22.3620  -34.2796   24.0649 C   0  0  0  0  0  0  0  0  0  0  0  0
  -27.4594  -30.2067   25.2045 C   0  0  0  0  0  0  0  0  0  0  0  0
  -25.6278  -31.6554   26.1070 C   0  0  0  0  0  0  0  0  0  0  0  0
  -27.4364  -32.6586   24.7122 C   0  0  0  0  0  0  0  0  0  0  0  0
  -21.8983  -32.5897   20.6878 C   0  0  0  0  0  0  0  0  0  0  0  0
  -20.2544  -18.9815   24.6054 C   0  0  0  0  0  0  0  0  0  0  0  0
  -20.1139  -15.1943   24.1492 C   0  0  0  0  0  0  0  0  0  0  0  0
  -22.2409  -22.4114   21.4589 C   0  0  0  0  0  0  0  0  0  0  0  0
  -19.5643  -16.5960   24.3368 C   0  0  0  0  0  0  0  0  0  0  0  0
  -22.8118  -23.4493   20.5071 C   0  0  0  0  0  0  0  0  0  1  0  0
  -25.6869  -31.2018   23.6126 C   0  0  1  0  0  0  0  0  0  0  0  0
  -22.8033  -33.5303   22.8173 C   0  0  2  0  0  0  0  0  0  0  0  0
  -26.5467  -31.4091   24.8914 C   0  0  0  0  0  0  0  0  0  0  0  0
  -25.5217  -15.1402   20.1007 N   0  0  0  0  0  0  0  0  0  0  0  0
  -21.6437  -20.7218   23.6564 N   0  0  0  0  0  0  0  0  0  0  0  0
  -25.0411  -13.9070   20.3342 N   0  0  0  0  0  0  0  0  0  0  0  0
  -26.3133  -29.7061   21.7433 N   0  0  0  0  0  0  0  0  0  0  0  0
  -21.3073  -14.6538   20.6647 N   0  0  0  0  0  0  0  0  0  0  0  0
  -25.6969  -11.6926   20.8603 N   0  0  0  0  0  0  0  0  0  0  0  0
  -29.6205  -13.9192   20.6512 N   0  0  0  0  0  0  0  0  0  0  0  0
  -22.9750  -22.4143   22.7035 N   0  0  0  0  0  0  0  0  0  0  0  0
  -29.2593  -27.9972   20.4405 N   0  0  0  0  0  0  0  0  0  0  0  0
  -24.8326  -32.3357   23.2766 N   0  0  0  0  0  0  0  0  0  0  0  0
  -20.9285  -15.0800   22.9601 N   0  0  0  0  0  0  0  0  0  0  0  0
  -21.6062  -33.2979   21.9606 N   0  3  0  0  0  0  0  0  0  0  0  0
  -20.6845  -17.5705   24.4043 N   0  3  0  0  0  0  0  0  0  0  0  0
  -28.6605  -11.8681   21.0116 O   0  0  0  0  0  0  0  0  0  0  0  0
  -28.1843  -28.1375   22.5014 O   0  0  0  0  0  0  0  0  0  0  0  0
  -27.3455  -31.7786   22.0181 O   0  0  0  0  0  0  0  0  0  0  0  0
  -22.8282  -31.1715   23.3394 O   0  0  0  0  0  0  0  0  0  0  0  0
  -19.1853  -14.5012   21.5878 O   0  0  0  0  0  0  0  0  0  0  0  0
  -30.2774  -19.3357   19.5259 O   0  0  0  0  0  0  0  0  0  0  0  0
  -22.7054  -24.7445   21.0966 O   0  0  0  0  0  0  0  0  0  1  0  0
  -28.9040  -24.0964   21.9454 F   0  0  0  0  0  0  0  0  0  0  0  0
  -27.9028  -20.6084   18.9061 F   0  0  0  0  0  0  0  0  0  0  0  0
  1  2  1  0  0  0  0
  1  5  2  0  0  0  0
  2  6  2  0  0  0  0
  3  8  2  0  0  0  0
  3 17  1  0  0  0  0
  4  9  1  0  0  0  0
  4 17  2  0  0  0  0
  5 19  1  0  0  0  0
  6 21  1  0  0  0  0
  7 10  2  0  0  0  0
  7 20  1  0  0  0  0
  8 24  1  0  0  0  0
  9 24  2  0  0  0  0
 10 25  1  0  0  0  0
 11 12  2  0  0  0  0
 11 26  1  0  0  0  0
 12 27  1  0  0  0  0
 13 22  1  0  0  0  0
 13 25  2  0  0  0  0
 14 23  1  0  0  0  0
 14 30  2  0  0  0  0
 15 23  2  0  0  0  0
 15 31  1  0  0  0  0
 16 27  2  0  0  0  0
 16 28  1  0  0  0  0
 17 29  1  0  0  0  0
 18 29  1  0  0  0  0
 18 32  2  0  0  0  0
 18 33  1  0  0  0  0
 19 21  2  0  0  0  0
 19 38  1  0  0  0  0
 20 22  2  0  0  0  0
 20 39  1  0  0  0  0
 21 50  1  0  0  0  0
 22 40  1  0  0  0  0
 23 49  1  0  0  0  0
 24 84  1  0  0  0  0
 25 85  1  0  0  0  0
 26 28  2  0  0  0  0
 26 84  1  0  0  0  0
 27 86  1  0  0  0  0
 28 87  1  0  0  0  0
 29 66  2  0  0  0  0
 30 58  1  0  0  0  0
 30 67  1  0  0  0  0
 31 67  2  0  0  0  0
 31 73  1  0  0  0  0
 32 68  1  0  0  0  0
 32 71  1  0  0  0  0
 33 72  1  0  0  0  0
 33 79  2  0  0  0  0
 34 51  1  0  0  0  0
 34 74  1  0  0  0  0
 34 80  2  0  0  0  0
 35 63  1  0  0  0  0
 35 69  1  0  0  0  0
 35 81  2  0  0  0  0
 36 64  1  0  0  0  0
 36 75  1  0  0  0  0
 36 82  2  0  0  0  0
 37 70  1  0  0  0  0
 37 76  1  0  0  0  0
 37 83  2  0  0  0  0
 38 41  1  0  0  0  0
 39 51  1  0  0  0  0
 40 69  1  0  0  0  0
 41 45  1  0  0  0  0
 42 46  1  0  0  0  0
 42 47  1  0  0  0  0
 43 44  1  0  0  0  0
 43 49  1  0  0  0  0
 44 49  1  0  0  0  0
 45 50  1  0  0  0  0
 46 52  1  0  0  0  0
 47 70  1  0  0  0  0
 48 52  1  0  0  0  0
 48 70  1  0  0  0  0
 50 74  1  0  0  0  0
 51 69  1  0  0  0  0
 52 68  1  0  0  0  0
 53 64  1  0  0  0  0
 54 65  1  0  0  0  0
 55 65  1  0  0  0  0
 56 65  1  0  0  0  0
 57 77  1  0  0  0  0
 58 78  1  0  0  0  0
 59 61  1  0  0  0  0
 59 76  1  0  0  0  0
 60 62  1  0  0  0  0
 60 73  1  0  0  0  0
 61 78  1  0  0  0  0
 62 85  1  0  0  0  0
 63 65  1  0  0  0  0
 63 75  1  0  0  0  0
 64 77  1  0  0  0  0
 66 68  1  0  0  0  0
M  CHG  2  77   1  78   1
M  ISO  4  37 100  62 101  76 100  85 101
M  END
> <Batch ID>
0127

> <Smiles>
CNC(C)C(=O)NC(C(=O)N1Cc2cc([101O:1][101CH2:1]CNc3cc(C4CC4)cc(CNCC[100NH:0][100C:0](=O)N4CCCC(n5nc(-c6ccc(Oc7ccc(F)cc7F)cc6)c(C(N)=O)c5N)C4)n3)ccc2CC1C(=O)NC1CCCc2ccccc21)C(C)(C)C

> <Shape>
0.268

> <Color>
0.068

> <Negative vol penalty>
0.000

$$$$

  -OEChem-04052320403D

 85 93  0     1  0  0  0  0  0999 V2000
  -16.8904  -20.6114   28.7967 C   0  0  0  0  0  0  0  0  0  0  0  0
  -17.8470  -20.4997   27.7928 C   0  0  0  0  0  0  0  0  0  0  0  0
  -23.0418   -9.9368   19.9143 C   0  0  0  0  0  0  0  0  0  0  0  0
  -23.8779   -9.8224   22.1781 C   0  0  0  0  0  0  0  0  0  0  0  0
  -15.9637  -21.6525   28.7623 C   0  0  0  0  0  0  0  0  0  0  0  0
  -17.8766  -21.4285   26.7531 C   0  0  0  0  0  0  0  0  0  0  0  0
  -22.5670  -23.0274   25.7096 C   0  0  0  0  0  0  0  0  0  0  0  0
  -22.3021   -8.7738   20.1287 C   0  0  0  0  0  0  0  0  0  0  0  0
  -23.1382   -8.6594   22.3926 C   0  0  0  0  0  0  0  0  0  0  0  0
  -23.3786  -22.1754   24.9619 C   0  0  0  0  0  0  0  0  0  0  0  0
  -19.9289   -7.8383   23.0607 C   0  0  0  0  0  0  0  0  0  0  0  0
  -19.2113   -7.7389   24.2527 C   0  0  0  0  0  0  0  0  0  0  0  0
  -26.2105  -19.0686   19.7043 C   0  0  0  0  0  0  0  0  0  0  0  0
  -25.0058  -19.7362   20.0363 C   0  0  0  0  0  0  0  0  0  0  0  0
  -22.8962  -23.4643   22.9807 C   0  0  0  0  0  0  0  0  0  0  0  0
  -20.4690   -5.7630   24.8451 C   0  0  0  0  0  0  0  0  0  0  0  0
  -23.8297  -10.4611   20.9390 C   0  0  0  0  0  0  0  0  0  0  0  0
  -24.1773  -12.9883   20.9393 C   0  0  0  0  0  0  0  0  0  0  0  0
  -15.9880  -22.6001   27.7268 C   0  0  0  0  0  0  0  0  0  0  0  0
  -21.9041  -24.0997   25.0954 C   0  0  0  0  0  0  0  0  0  0  0  0
  -16.9485  -22.4825   26.7040 C   0  0  0  0  0  0  0  0  0  0  0  0
  -22.0788  -24.3300   23.7233 C   0  0  0  0  0  0  0  0  0  0  0  0
  -22.3503   -8.1351   21.3678 C   0  0  0  0  0  0  0  0  0  0  0  0
  -23.5410  -22.3920   23.5967 C   0  0  0  0  0  0  0  0  0  0  0  0
  -20.9165   -6.8999   22.7609 C   0  0  0  0  0  0  0  0  0  0  0  0
  -19.4814   -6.7013   25.1449 C   0  0  0  0  0  0  0  0  0  0  0  0
  -21.1865   -5.8623   23.6531 C   0  0  0  0  0  0  0  0  0  0  0  0
  -24.5944  -11.6621   20.7180 C   0  0  0  0  0  0  0  0  0  0  0  0
  -27.2403  -19.7510   20.3134 C   0  0  0  0  0  0  0  0  0  0  0  0
  -25.3362  -20.8065   20.8380 C   0  0  0  0  0  0  0  0  0  0  0  0
  -25.2596  -13.7533   20.5791 C   0  0  0  0  0  0  0  0  0  0  0  0
  -22.9235  -13.4843   21.4270 C   0  0  0  0  0  0  0  0  0  0  0  0
  -18.8596  -24.9153   24.6837 C   0  0  0  0  0  0  0  0  0  0  0  0
  -20.1563  -27.6261   23.4622 C   0  0  0  0  0  0  0  0  0  0  0  0
  -22.8356  -29.1522   21.9994 C   0  0  0  0  0  0  0  0  0  0  0  0
  -30.7506  -14.7491   20.6361 C   0  0  0  0  0  0  0  0  0  0  0  0
  -14.9360  -23.6806   27.7067 C   0  0  0  0  0  0  0  0  0  0  0  0
  -21.0535  -25.0256   25.9209 C   0  0  0  0  0  0  0  0  0  0  0  0
  -21.4053  -25.4791   23.0200 C   0  0  0  0  0  0  0  0  0  0  0  0
  -15.2713  -24.8399   26.7719 C   0  0  0  0  0  0  0  0  0  0  0  0
  -29.5245  -12.4950   18.1679 C   0  0  0  0  0  0  0  0  0  0  0  0
  -15.7486  -24.3156   25.4212 C   0  0  0  0  0  0  0  0  0  0  0  0
  -28.1011  -12.1822   18.6329 C   0  0  0  0  0  0  0  0  0  0  0  0
  -30.4821  -12.6508   19.3472 C   0  0  0  0  0  0  0  0  0  0  0  0
  -28.6306  -13.3127   20.8331 C   0  0  0  0  0  0  0  0  0  0  0  0
  -17.0284  -23.4846   25.5729 C   0  0  1  0  0  0  0  0  0  0  0  0
  -20.0170  -25.7808   25.0946 C   0  0  1  0  0  0  0  0  0  0  0  0
  -27.6170  -13.2019   19.6813 C   0  0  2  0  0  0  0  0  0  0  0  0
  -23.5836  -31.3650   21.0822 C   0  0  0  0  0  0  0  0  0  0  0  0
  -28.9127  -23.8518   21.7876 C   0  0  0  0  0  0  0  0  0  0  0  0
  -27.0883  -23.5975   20.0926 C   0  0  0  0  0  0  0  0  0  0  0  0
  -18.4691  -27.1581   20.9633 C   0  0  0  0  0  0  0  0  0  0  0  0
  -19.9276  -28.7965   19.7564 C   0  0  0  0  0  0  0  0  0  0  0  0
  -18.5775  -29.5400   21.7178 C   0  0  0  0  0  0  0  0  0  0  0  0
  -25.0432  -29.3498   23.9605 C   0  0  0  0  0  0  0  0  0  0  0  0
  -28.6933  -19.4838   20.2969 C   0  0  0  0  0  0  0  0  0  0  0  0
  -24.4537  -21.8420   21.4706 C   0  0  0  0  0  0  0  0  0  1  0  0
  -27.4461  -21.7711   21.7762 C   0  0  0  0  0  0  0  0  0  0  0  0
  -30.8662  -16.8321   21.9805 C   0  0  0  0  0  0  0  0  0  0  0  0
  -30.5567  -18.0242   21.0943 C   0  0  0  0  0  0  0  0  0  0  0  0
  -20.6032  -28.0740   22.0915 C   0  0  1  0  0  0  0  0  0  0  0  0
  -23.5395  -30.4620   22.3050 C   0  0  2  0  0  0  0  0  0  0  0  0
  -28.1339  -22.8547   20.9268 C   0  0  0  0  0  0  0  0  0  0  0  0
  -19.4056  -28.3693   21.1448 C   0  0  0  0  0  0  0  0  0  0  0  0
  -25.8442  -11.5855   20.2531 N   0  0  0  0  0  0  0  0  0  0  0  0
  -26.6971  -20.8057   20.9996 N   0  0  0  0  0  0  0  0  0  0  0  0
  -26.2217  -12.8731   20.1792 N   0  0  0  0  0  0  0  0  0  0  0  0
  -20.5788  -26.3527   23.8692 N   0  0  0  0  0  0  0  0  0  0  0  0
  -29.9655  -13.6329   20.3035 N   0  0  0  0  0  0  0  0  0  0  0  0
  -25.4727  -15.0863   20.5686 N   0  0  0  0  0  0  0  0  0  0  0  0
  -21.9199  -12.5610   21.7502 N   0  0  0  0  0  0  0  0  0  0  0  0
  -18.1757  -24.3501   25.7431 N   0  0  0  0  0  0  0  0  0  0  0  0
  -21.4919  -29.2114   22.3033 N   0  0  0  0  0  0  0  0  0  0  0  0
  -30.1835  -15.6341   21.5451 N   0  0  0  0  0  0  0  0  0  0  0  0
  -24.9382  -30.2064   22.7513 N   0  3  0  0  0  0  0  0  0  0  0  0
  -29.1060  -18.3304   21.1532 N   0  3  0  0  0  0  0  0  0  0  0  0
  -22.6942  -14.7108   21.5562 O   0  0  0  0  0  0  0  0  0  0  0  0
  -18.6049  -24.7721   23.4936 O   0  0  0  0  0  0  0  0  0  0  0  0
  -19.4641  -28.3813   24.1493 O   0  0  0  0  0  0  0  0  0  0  0  0
  -23.4185  -28.1755   21.5338 O   0  0  0  0  0  0  0  0  0  0  0  0
  -31.8714  -14.9456   20.1544 O   0  0  0  0  0  0  0  0  0  0  0  0
  -21.6285   -7.0004   21.5774 O   0  0  0  0  0  0  0  0  0  0  0  0
  -24.3321  -21.5614   22.8644 O   0  0  0  0  0  0  0  0  0  1  0  0
  -18.7933   -6.6069   26.2902 F   0  0  0  0  0  0  0  0  0  0  0  0
  -22.1349   -4.9585   23.3711 F   0  0  0  0  0  0  0  0  0  0  0  0
  1  2  1  0  0  0  0
  1  5  2  0  0  0  0
  2  6  2  0  0  0  0
  3  8  2  0  0  0  0
  3 17  1  0  0  0  0
  4  9  1  0  0  0  0
  4 17  2  0  0  0  0
  5 19  1  0  0  0  0
  6 21  1  0  0  0  0
  7 10  2  0  0  0  0
  7 20  1  0  0  0  0
  8 23  1  0  0  0  0
  9 23  2  0  0  0  0
 10 24  1  0  0  0  0
 11 12  2  0  0  0  0
 11 25  1  0  0  0  0
 12 26  1  0  0  0  0
 13 14  1  0  0  0  0
 13 29  2  0  0  0  0
 14 30  2  0  0  0  0
 15 22  1  0  0  0  0
 15 24  2  0  0  0  0
 16 26  2  0  0  0  0
 16 27  1  0  0  0  0
 17 28  1  0  0  0  0
 18 28  1  0  0  0  0
 18 31  2  0  0  0  0
 18 32  1  0  0  0  0
 19 21  2  0  0  0  0
 19 37  1  0  0  0  0
 20 22  2  0  0  0  0
 20 38  1  0  0  0  0
 21 46  1  0  0  0  0
 22 39  1  0  0  0  0
 23 82  1  0  0  0  0
 24 83  1  0  0  0  0
 25 27  2  0  0  0  0
 25 82  1  0  0  0  0
 26 84  1  0  0  0  0
 27 85  1  0  0  0  0
 28 65  2  0  0  0  0
 29 56  1  0  0  0  0
 29 66  1  0  0  0  0
 30 57  1  0  0  0  0
 30 66  1  0  0  0  0
 31 67  1  0  0  0  0
 31 70  1  0  0  0  0
 32 71  1  0  0  0  0
 32 77  2  0  0  0  0
 33 47  1  0  0  0  0
 33 72  1  0  0  0  0
 33 78  2  0  0  0  0
 34 61  1  0  0  0  0
 34 68  1  0  0  0  0
 34 79  2  0  0  0  0
 35 62  1  0  0  0  0
 35 73  1  0  0  0  0
 35 80  2  0  0  0  0
 36 69  1  0  0  0  0
 36 74  1  0  0  0  0
 36 81  2  0  0  0  0
 37 40  1  0  0  0  0
 38 47  1  0  0  0  0
 39 68  1  0  0  0  0
 40 42  1  0  0  0  0
 41 43  1  0  0  0  0
 41 44  1  0  0  0  0
 42 46  1  0  0  0  0
 43 48  1  0  0  0  0
 44 69  1  0  0  0  0
 45 48  1  0  0  0  0
 45 69  1  0  0  0  0
 46 72  1  0  0  0  0
 47 68  1  0  0  0  0
 48 67  1  0  0  0  0
 49 62  1  0  0  0  0
 50 63  1  0  0  0  0
 51 63  1  0  0  0  0
 52 64  1  0  0  0  0
 53 64  1  0  0  0  0
 54 64  1  0  0  0  0
 55 75  1  0  0  0  0
 56 76  1  0  0  0  0
 57 83  1  0  0  0  0
 58 63  1  0  0  0  0
 58 66  1  0  0  0  0
 59 60  1  0  0  0  0
 59 74  1  0  0  0  0
 60 76  1  0  0  0  0
 61 64  1  0  0  0  0
 61 73  1  0  0  0  0
 62 75  1  0  0  0  0
 65 67  1  0  0  0  0
M  CHG  2  75   1  76   1
M  ISO  4  36 100  57 101  74 100  83 101
M  END
> <Batch ID>
0127

> <Smiles>
CNC(C)C(=O)NC(C(=O)N1Cc2cc([101O:1][101CH2:1]c3ccc(CNCC[100NH:0][100C:0](=O)N4CCCC(n5nc(-c6ccc(Oc7ccc(F)cc7F)cc6)c(C(N)=O)c5N)C4)n3CC(C)C)ccc2CC1C(=O)NC1CCCc2ccccc21)C(C)(C)C

> <Shape>
0.287

> <Color>
0.210

> <Negative vol penalty>
0.000

$$$$

  -OEChem-04052320403D

 84 93  0     1  0  0  0  0  0999 V2000
  -27.7939  -35.0273   24.2702 C   0  0  0  0  0  0  0  0  0  0  0  0
  -28.5804  -33.9152   23.9871 C   0  0  0  0  0  0  0  0  0  0  0  0
  -23.0032  -12.8981   21.0419 C   0  0  0  0  0  0  0  0  0  0  0  0
  -23.3073  -11.8075   18.9077 C   0  0  0  0  0  0  0  0  0  0  0  0
  -26.4115  -34.8901   24.3885 C   0  0  0  0  0  0  0  0  0  0  0  0
  -27.9849  -32.6650   23.8233 C   0  0  0  0  0  0  0  0  0  0  0  0
  -28.7346  -26.5629   20.1464 C   0  0  0  0  0  0  0  0  0  0  0  0
  -21.7628  -13.3771   20.6204 C   0  0  0  0  0  0  0  0  0  0  0  0
  -22.0669  -12.2864   18.4862 C   0  0  0  0  0  0  0  0  0  0  0  0
  -28.8096  -25.1856   20.3491 C   0  0  0  0  0  0  0  0  0  0  0  0
  -18.3562  -14.5867   20.2371 C   0  0  0  0  0  0  0  0  0  0  0  0
  -17.2860  -14.4859   21.1259 C   0  0  0  0  0  0  0  0  0  0  0  0
  -26.4041  -25.0825   20.4978 C   0  0  0  0  0  0  0  0  0  0  0  0
  -28.5690  -20.5433   22.1992 C   0  0  0  0  0  0  0  0  0  0  0  0
  -17.5461  -12.0842   21.1665 C   0  0  0  0  0  0  0  0  0  0  0  0
  -23.7755  -12.1133   20.1855 C   0  0  0  0  0  0  0  0  0  0  0  0
  -25.3202  -10.4027   21.2788 C   0  0  0  0  0  0  0  0  0  0  0  0
  -25.7978  -33.6393   24.2165 C   0  0  0  0  0  0  0  0  0  0  0  0
  -27.4923  -27.2131   20.1287 C   0  0  0  0  0  0  0  0  0  0  0  0
  -26.5931  -32.5107   23.9408 C   0  0  0  0  0  0  0  0  0  0  0  0
  -26.3159  -26.4678   20.2921 C   0  0  0  0  0  0  0  0  0  0  0  0
  -28.4538  -19.1661   22.3512 C   0  0  0  0  0  0  0  0  0  0  0  0
  -28.6519  -18.3324   21.2562 C   0  0  0  0  0  0  0  0  0  0  0  0
  -21.2946  -13.0712   19.3426 C   0  0  0  0  0  0  0  0  0  0  0  0
  -27.6445  -24.4456   20.5277 C   0  0  0  0  0  0  0  0  0  0  0  0
  -19.0214  -13.4364   19.8129 C   0  0  0  0  0  0  0  0  0  0  0  0
  -16.8809  -13.2346   21.5906 C   0  0  0  0  0  0  0  0  0  0  0  0
  -18.6163  -12.1851   20.2776 C   0  0  0  0  0  0  0  0  0  0  0  0
  -25.0571  -11.6187   20.6201 C   0  0  0  0  0  0  0  0  0  0  0  0
  -28.8816  -21.0331   20.9413 C   0  0  0  0  0  0  0  0  0  0  0  0
  -28.9606  -18.9211   20.0405 C   0  0  0  0  0  0  0  0  0  0  0  0
  -26.6801  -10.4036   21.4711 C   0  0  0  0  0  0  0  0  0  0  0  0
  -24.4161   -9.3650   21.6807 C   0  0  0  0  0  0  0  0  0  0  0  0
  -26.1178  -29.4728   21.8919 C   0  0  0  0  0  0  0  0  0  0  0  0
  -23.7892  -29.2648   19.6432 C   0  0  0  0  0  0  0  0  0  0  0  0
  -22.2357  -27.3986   17.2451 C   0  0  0  0  0  0  0  0  0  0  0  0
  -27.7458  -15.3853   19.4753 C   0  0  0  0  0  0  0  0  0  0  0  0
  -24.3047  -33.5318   24.4007 C   0  0  0  0  0  0  0  0  0  0  0  0
  -27.4268  -28.6955   19.8823 C   0  0  0  0  0  0  0  0  0  0  0  0
  -24.9563  -27.1151   20.2613 C   0  0  0  0  0  0  0  0  0  0  0  0
  -23.7136  -32.2400   23.8422 C   0  0  0  0  0  0  0  0  0  0  0  0
  -29.1040  -12.2907   18.4002 C   0  0  0  0  0  0  0  0  0  0  0  0
  -24.5506  -31.0398   24.2731 C   0  0  0  0  0  0  0  0  0  0  0  0
  -29.3298  -11.4940   19.6811 C   0  0  0  0  0  0  0  0  0  0  0  0
  -24.9306  -16.1743   20.5875 C   0  0  0  0  0  0  0  0  0  0  0  0
  -25.3682  -16.9032   21.8227 C   0  0  0  0  0  0  0  0  0  0  0  0
  -29.4042  -13.7655   18.6224 C   0  0  0  0  0  0  0  0  0  0  0  0
  -28.7324  -13.6038   21.0083 C   0  0  0  0  0  0  0  0  0  0  0  0
  -25.9817  -31.1423   23.7317 C   0  0  1  0  0  0  0  0  0  0  0  0
  -26.1383  -29.3303   20.3962 C   0  0  1  0  0  0  0  0  0  0  0  0
  -28.5709  -12.0710   20.8878 C   0  0  1  0  0  0  0  0  0  0  0  0
  -26.2143  -16.9584   20.5803 C   0  0  0  0  0  0  0  0  0  0  0  0
  -28.1152  -18.6100   23.6948 C   0  0  0  0  0  0  0  0  0  0  0  0
  -29.1861  -18.0773   18.8285 C   0  0  0  0  0  0  0  0  0  0  0  0
  -20.3396  -27.4840   15.6036 C   0  0  0  0  0  0  0  0  0  0  0  0
  -21.8025  -28.8397   21.9196 C   0  0  0  0  0  0  0  0  0  0  0  0
  -20.1547  -28.0006   20.2318 C   0  0  0  0  0  0  0  0  0  0  0  0
  -20.9921  -30.3464   20.0955 C   0  0  0  0  0  0  0  0  0  0  0  0
  -24.0606  -27.0451   14.9421 C   0  0  0  0  0  0  0  0  0  0  0  0
  -28.5373  -16.8510   21.3900 C   0  0  0  0  0  0  0  0  0  0  0  0
  -29.0154  -22.5139   20.7401 C   0  0  0  0  0  0  0  0  0  1  0  0
  -22.5349  -28.4416   19.4760 C   0  0  1  0  0  0  0  0  0  0  0  0
  -21.8247  -27.7281   15.8214 C   0  0  2  0  0  0  0  0  0  0  0  0
  -21.3966  -28.8949   20.4333 C   0  0  0  0  0  0  0  0  0  0  0  0
  -26.1613  -12.3399   20.4084 N   0  0  0  0  0  0  0  0  0  0  0  0
  -29.0811  -20.2546   19.8542 N   0  0  0  0  0  0  0  0  0  0  0  0
  -27.1313  -11.5747   20.9371 N   0  0  0  0  0  0  0  0  0  0  0  0
  -24.9449  -28.5680   20.0236 N   0  0  0  0  0  0  0  0  0  0  0  0
  -28.6208  -14.3177   19.7272 N   0  0  0  0  0  0  0  0  0  0  0  0
  -27.5220   -9.5170   22.0434 N   0  0  0  0  0  0  0  0  0  0  0  0
  -23.0511   -9.5246   21.4056 N   0  0  0  0  0  0  0  0  0  0  0  0
  -26.0194  -30.7792   22.3313 N   0  0  0  0  0  0  0  0  0  0  0  0
  -22.1877  -28.5093   18.0607 N   0  0  0  0  0  0  0  0  0  0  0  0
  -27.5042  -16.2919   20.5164 N   0  0  0  0  0  0  0  0  0  0  0  0
  -22.5860  -26.8873   14.8547 N   0  3  0  0  0  0  0  0  0  0  0  0
  -24.8050   -8.3346   22.2812 O   0  0  0  0  0  0  0  0  0  0  0  0
  -26.1848  -28.4715   22.5951 O   0  0  0  0  0  0  0  0  0  0  0  0
  -23.7469  -30.4802   19.4367 O   0  0  0  0  0  0  0  0  0  0  0  0
  -22.5628  -26.2680   17.5993 O   0  0  0  0  0  0  0  0  0  0  0  0
  -27.1987  -15.5248   18.3729 O   0  0  0  0  0  0  0  0  0  0  0  0
  -20.0842  -13.5382   18.9311 O   0  0  0  0  0  0  0  0  0  0  0  0
  -27.7149  -23.1012   20.7264 O   0  0  0  0  0  0  0  0  0  1  0  0
  -15.8541  -13.1380   22.4453 F   0  0  0  0  0  0  0  0  0  0  0  0
  -19.2522  -11.0765   19.8746 F   0  0  0  0  0  0  0  0  0  0  0  0
  1  2  1  0  0  0  0
  1  5  2  0  0  0  0
  2  6  2  0  0  0  0
  3  8  2  0  0  0  0
  3 16  1  0  0  0  0
  4  9  1  0  0  0  0
  4 16  2  0  0  0  0
  5 18  1  0  0  0  0
  6 20  1  0  0  0  0
  7 10  2  0  0  0  0
  7 19  1  0  0  0  0
  8 24  1  0  0  0  0
  9 24  2  0  0  0  0
 10 25  1  0  0  0  0
 11 12  2  0  0  0  0
 11 26  1  0  0  0  0
 12 27  1  0  0  0  0
 13 21  1  0  0  0  0
 13 25  2  0  0  0  0
 14 22  2  0  0  0  0
 14 30  1  0  0  0  0
 15 27  2  0  0  0  0
 15 28  1  0  0  0  0
 16 29  1  0  0  0  0
 17 29  1  0  0  0  0
 17 32  2  0  0  0  0
 17 33  1  0  0  0  0
 18 20  2  0  0  0  0
 18 38  1  0  0  0  0
 19 21  2  0  0  0  0
 19 39  1  0  0  0  0
 20 49  1  0  0  0  0
 21 40  1  0  0  0  0
 22 23  1  0  0  0  0
 22 53  1  0  0  0  0
 23 31  2  0  0  0  0
 23 60  1  0  0  0  0
 24 81  1  0  0  0  0
 25 82  1  0  0  0  0
 26 28  2  0  0  0  0
 26 81  1  0  0  0  0
 27 83  1  0  0  0  0
 28 84  1  0  0  0  0
 29 65  2  0  0  0  0
 30 61  1  0  0  0  0
 30 66  2  0  0  0  0
 31 54  1  0  0  0  0
 31 66  1  0  0  0  0
 32 67  1  0  0  0  0
 32 70  1  0  0  0  0
 33 71  1  0  0  0  0
 33 76  2  0  0  0  0
 34 50  1  0  0  0  0
 34 72  1  0  0  0  0
 34 77  2  0  0  0  0
 35 62  1  0  0  0  0
 35 68  1  0  0  0  0
 35 78  2  0  0  0  0
 36 63  1  0  0  0  0
 36 73  1  0  0  0  0
 36 79  2  0  0  0  0
 37 69  1  0  0  0  0
 37 74  1  0  0  0  0
 37 80  2  0  0  0  0
 38 41  1  0  0  0  0
 39 50  1  0  0  0  0
 40 68  1  0  0  0  0
 41 43  1  0  0  0  0
 42 44  1  0  0  0  0
 42 47  1  0  0  0  0
 43 49  1  0  0  0  0
 44 51  1  0  0  0  0
 45 46  1  0  0  0  0
 45 52  1  0  0  0  0
 46 52  1  0  0  0  0
 47 69  1  0  0  0  0
 48 51  1  0  0  0  0
 48 69  1  0  0  0  0
 49 72  1  0  0  0  0
 50 68  1  0  0  0  0
 51 67  1  0  0  0  0
 52 74  1  0  0  0  0
 55 63  1  0  0  0  0
 56 64  1  0  0  0  0
 57 64  1  0  0  0  0
 58 64  1  0  0  0  0
 59 75  1  0  0  0  0
 60 74  1  0  0  0  0
 61 82  1  0  0  0  0
 62 64  1  0  0  0  0
 62 73  1  0  0  0  0
 63 75  1  0  0  0  0
 65 67  1  0  0  0  0
M  CHG  1  75   1
M  ISO  4  37 100  61 101  74 100  82 101
M  END
> <Batch ID>
0127

> <Smiles>
CNC(C)C(=O)NC(C(=O)N1Cc2cc([101O:1][101CH2:1]c3cc(C)c(C[100N:0](C4CC4)[100C:0](=O)N4CCCC(n5nc(-c6ccc(Oc7ccc(F)cc7F)cc6)c(C(N)=O)c5N)C4)c(C)n3)ccc2CC1C(=O)NC1CCCc2ccccc21)C(C)(C)C

> <Shape>
0.286

> <Color>
0.067

> <Negative vol penalty>
0.000

$$$$

  -OEChem-04052320403D

 87 96  0     1  0  0  0  0  0999 V2000
  -22.6688   -7.4835   21.4732 C   0  0  0  0  0  0  0  0  0  0  0  0
  -23.6173   -8.3651   21.9815 C   0  0  0  0  0  0  0  0  0  0  0  0
  -21.5649  -26.0904   23.5076 C   0  0  0  0  0  0  0  0  0  0  0  0
  -21.2706  -25.3531   21.2258 C   0  0  0  0  0  0  0  0  0  0  0  0
  -28.6619  -19.6972   22.5054 C   0  0  0  0  0  0  0  0  0  0  0  0
  -21.6344   -7.9614   20.6697 C   0  0  0  0  0  0  0  0  0  0  0  0
  -23.5326   -9.7252   21.6857 C   0  0  0  0  0  0  0  0  0  0  0  0
  -25.0534  -14.3912   25.3491 C   0  0  0  0  0  0  0  0  0  0  0  0
  -20.2647  -26.5954   23.5122 C   0  0  0  0  0  0  0  0  0  0  0  0
  -19.9703  -25.8580   21.2303 C   0  0  0  0  0  0  0  0  0  0  0  0
  -28.2014  -19.1090   23.6833 C   0  0  0  0  0  0  0  0  0  0  0  0
  -26.1967  -15.1848   25.4318 C   0  0  0  0  0  0  0  0  0  0  0  0
  -18.6529  -29.3346   22.3621 C   0  0  0  0  0  0  0  0  0  0  0  0
  -18.4538  -30.6055   22.9013 C   0  0  0  0  0  0  0  0  0  0  0  0
  -27.8957  -17.0166   22.5211 C   0  0  0  0  0  0  0  0  0  0  0  0
  -25.1315  -16.8527   24.0525 C   0  0  0  0  0  0  0  0  0  0  0  0
  -16.9478  -29.6726   24.5441 C   0  0  0  0  0  0  0  0  0  0  0  0
  -22.0679  -25.4693   22.3644 C   0  0  0  0  0  0  0  0  0  0  0  0
  -28.7413  -18.9424   21.3275 C   0  0  0  0  0  0  0  0  0  0  0  0
  -23.8216  -23.6520   22.7245 C   0  0  0  0  0  0  0  0  0  0  0  0
  -21.5315   -9.3293   20.3718 C   0  0  0  0  0  0  0  0  0  0  0  0
  -23.9427  -14.8183   24.6072 C   0  0  0  0  0  0  0  0  0  0  0  0
  -22.4967  -10.2217   20.8764 C   0  0  0  0  0  0  0  0  0  0  0  0
  -28.3701  -17.5882   21.3309 C   0  0  0  0  0  0  0  0  0  0  0  0
  -23.9743  -16.0639   23.9641 C   0  0  0  0  0  0  0  0  0  0  0  0
  -19.4674  -26.4791   22.3736 C   0  0  0  0  0  0  0  0  0  0  0  0
  -27.8159  -17.7715   23.6911 C   0  0  0  0  0  0  0  0  0  1  0  0
  -26.2370  -16.4144   24.7810 C   0  0  0  0  0  0  0  0  0  0  0  0
  -17.9993  -28.2327   22.9137 C   0  0  0  0  0  0  0  0  0  0  0  0
  -17.6013  -30.7745   23.9923 C   0  0  0  0  0  0  0  0  0  0  0  0
  -17.1467  -28.4017   24.0047 C   0  0  0  0  0  0  0  0  0  0  0  0
  -23.4112  -24.9480   22.3589 C   0  0  0  0  0  0  0  0  0  0  0  0
  -25.1833  -23.6598   22.5455 C   0  0  0  0  0  0  0  0  0  0  0  0
  -29.2145  -19.5820   20.0716 C   0  0  0  0  0  0  0  0  0  0  0  0
  -23.0416  -22.5405   23.1848 C   0  0  0  0  0  0  0  0  0  0  0  0
  -22.3894  -13.7200   22.0607 C   0  0  0  0  0  0  0  0  0  0  0  0
  -20.3519  -16.1511   22.7397 C   0  0  0  0  0  0  0  0  0  0  0  0
  -19.8566  -19.1915   24.2085 C   0  0  0  0  0  0  0  0  0  0  0  0
  -29.6871  -24.9717   19.5222 C   0  0  0  0  0  0  0  0  0  0  0  0
  -20.4228   -9.7923   19.4601 C   0  0  0  0  0  0  0  0  0  0  0  0
  -22.7070  -13.9626   24.5500 C   0  0  0  0  0  0  0  0  0  0  0  0
  -28.4240  -16.7438   20.0862 C   0  0  0  0  0  0  0  0  0  0  0  0
  -22.8009  -16.5771   23.1716 C   0  0  0  0  0  0  0  0  0  0  0  0
  -20.1900  -11.3004   19.5015 C   0  0  0  0  0  0  0  0  0  0  0  0
  -29.4283  -17.2902   19.0785 C   0  0  0  0  0  0  0  0  0  0  0  0
  -28.3662  -27.4910   21.6634 C   0  0  0  0  0  0  0  0  0  0  0  0
  -21.5164  -12.0480   19.4104 C   0  0  0  0  0  0  0  0  0  0  0  0
  -26.9914  -26.9500   22.0600 C   0  0  0  0  0  0  0  0  0  0  0  0
  -28.7149  -27.1411   20.2185 C   0  0  0  0  0  0  0  0  0  0  0  0
  -27.2420  -25.1663   20.2840 C   0  0  0  0  0  0  0  0  0  0  0  0
  -22.4244  -11.7074   20.5982 C   0  0  1  0  0  0  0  0  0  0  0  0
  -29.2021  -18.7720   18.7819 C   0  0  1  0  0  0  0  0  0  0  0  0
  -21.8257  -14.2658   23.3422 C   0  0  1  0  0  0  0  0  0  0  0  0
  -26.8700  -25.4458   21.7502 C   0  0  2  0  0  0  0  0  0  0  0  0
  -18.0961  -20.9442   24.5639 C   0  0  0  0  0  0  0  0  0  0  0  0
  -27.6480  -17.9370   16.9955 C   0  0  0  0  0  0  0  0  0  0  0  0
  -26.7296  -19.1558   18.9891 C   0  0  0  0  0  0  0  0  0  0  0  0
  -20.6997  -17.0820   19.8548 C   0  0  0  0  0  0  0  0  0  0  0  0
  -19.7234  -19.2886   20.5225 C   0  0  0  0  0  0  0  0  0  0  0  0
  -18.3559  -17.2115   20.7174 C   0  0  0  0  0  0  0  0  0  0  0  0
  -19.9884  -18.8930   27.1500 C   0  0  0  0  0  0  0  0  0  0  0  0
  -30.0398  -21.2909   18.7530 C   0  0  0  0  0  0  0  0  0  0  0  0
  -30.5204  -22.7273   18.8683 C   0  0  0  0  0  0  0  0  0  0  0  0
  -20.2517  -17.6043   22.3433 C   0  0  1  0  0  0  0  0  0  0  0  0
  -18.7615  -19.6990   25.1292 C   0  0  2  0  0  0  0  0  0  0  0  0
  -27.9049  -19.0386   18.0213 C   0  0  0  0  0  0  0  0  0  0  0  0
  -19.7807  -17.7863   20.8727 C   0  0  0  0  0  0  0  0  0  0  0  0
  -24.4298  -25.7228   21.9766 N   0  0  0  0  0  0  0  0  0  0  0  0
  -29.6081  -20.8158   20.0577 N   0  0  0  0  0  0  0  0  0  0  0  0
  -25.4937  -24.9113   22.1012 N   0  0  0  0  0  0  0  0  0  0  0  0
  -21.6180  -15.7012   23.1402 N   0  0  0  0  0  0  0  0  0  0  0  0
  -28.5814  -25.7002   19.9910 N   0  0  0  0  0  0  0  0  0  0  0  0
  -26.1335  -22.7181   22.7265 N   0  0  0  0  0  0  0  0  0  0  0  0
  -21.6554  -22.7038   23.3116 N   0  0  0  0  0  0  0  0  0  0  0  0
  -21.9991  -12.4242   21.7813 N   0  0  0  0  0  0  0  0  0  0  0  0
  -19.3851  -18.2381   23.3311 N   0  0  0  0  0  0  0  0  0  0  0  0
  -29.4769  -23.6103   19.3396 N   0  0  0  0  0  0  0  0  0  0  0  0
  -19.3240  -20.0334   26.4681 N   0  3  0  0  0  0  0  0  0  0  0  0
  -23.5606  -21.4402   23.4907 O   0  0  0  0  0  0  0  0  0  0  0  0
  -23.1227  -14.4230   21.3755 O   0  0  0  0  0  0  0  0  0  0  0  0
  -19.3425  -15.4431   22.7024 O   0  0  0  0  0  0  0  0  0  0  0  0
  -21.0137  -19.6027   24.2599 O   0  0  0  0  0  0  0  0  0  0  0  0
  -30.7821  -25.4947   19.2890 O   0  0  0  0  0  0  0  0  0  0  0  0
  -18.1985  -26.9715   22.3777 O   0  0  0  0  0  0  0  0  0  0  0  0
  -27.3519  -17.1907   24.8596 O   0  0  0  0  0  0  0  0  0  1  0  0
  -17.4115  -31.9948   24.5111 F   0  0  0  0  0  0  0  0  0  0  0  0
  -16.5170  -27.3467   24.5398 F   0  0  0  0  0  0  0  0  0  0  0  0
  1  2  1  0  0  0  0
  1  6  2  0  0  0  0
  2  7  2  0  0  0  0
  3  9  2  0  0  0  0
  3 18  1  0  0  0  0
  4 10  1  0  0  0  0
  4 18  2  0  0  0  0
  5 11  2  0  0  0  0
  5 19  1  0  0  0  0
  6 21  1  0  0  0  0
  7 23  1  0  0  0  0
  8 12  2  0  0  0  0
  8 22  1  0  0  0  0
  9 26  1  0  0  0  0
 10 26  2  0  0  0  0
 11 27  1  0  0  0  0
 12 28  1  0  0  0  0
 13 14  2  0  0  0  0
 13 29  1  0  0  0  0
 14 30  1  0  0  0  0
 15 24  1  0  0  0  0
 15 27  2  0  0  0  0
 16 25  1  0  0  0  0
 16 28  2  0  0  0  0
 17 30  2  0  0  0  0
 17 31  1  0  0  0  0
 18 32  1  0  0  0  0
 19 24  2  0  0  0  0
 19 34  1  0  0  0  0
 20 32  1  0  0  0  0
 20 33  2  0  0  0  0
 20 35  1  0  0  0  0
 21 23  2  0  0  0  0
 21 40  1  0  0  0  0
 22 25  2  0  0  0  0
 22 41  1  0  0  0  0
 23 51  1  0  0  0  0
 24 42  1  0  0  0  0
 25 43  1  0  0  0  0
 26 84  1  0  0  0  0
 27 85  1  0  0  0  0
 28 85  1  0  0  0  0
 29 31  2  0  0  0  0
 29 84  1  0  0  0  0
 30 86  1  0  0  0  0
 31 87  1  0  0  0  0
 32 68  2  0  0  0  0
 33 70  1  0  0  0  0
 33 73  1  0  0  0  0
 34 52  1  0  0  0  0
 34 69  2  0  0  0  0
 35 74  1  0  0  0  0
 35 79  2  0  0  0  0
 36 53  1  0  0  0  0
 36 75  1  0  0  0  0
 36 80  2  0  0  0  0
 37 64  1  0  0  0  0
 37 71  1  0  0  0  0
 37 81  2  0  0  0  0
 38 65  1  0  0  0  0
 38 76  1  0  0  0  0
 38 82  2  0  0  0  0
 39 72  1  0  0  0  0
 39 77  1  0  0  0  0
 39 83  2  0  0  0  0
 40 44  1  0  0  0  0
 41 53  1  0  0  0  0
 42 45  1  0  0  0  0
 43 71  1  0  0  0  0
 44 47  1  0  0  0  0
 45 52  1  0  0  0  0
 46 48  1  0  0  0  0
 46 49  1  0  0  0  0
 47 51  1  0  0  0  0
 48 54  1  0  0  0  0
 49 72  1  0  0  0  0
 50 54  1  0  0  0  0
 50 72  1  0  0  0  0
 51 75  1  0  0  0  0
 52 66  1  0  0  0  0
 53 71  1  0  0  0  0
 54 70  1  0  0  0  0
 55 65  1  0  0  0  0
 56 66  1  0  0  0  0
 57 66  1  0  0  0  0
 58 67  1  0  0  0  0
 59 67  1  0  0  0  0
 60 67  1  0  0  0  0
 61 78  1  0  0  0  0
 62 63  1  0  0  0  0
 62 69  1  0  0  0  0
 63 77  1  0  0  0  0
 64 67  1  0  0  0  0
 64 76  1  0  0  0  0
 65 78  1  0  0  0  0
 68 70  1  0  0  0  0
M  CHG  1  78   1
M  ISO  4  27 101  39 100  77 100  85 101
M  END
> <Batch ID>
0127

> <Smiles>
CNC(C)C(=O)NC(C(=O)N1Cc2cc([101O:1][101c:1]3ccc4c(c3)CCC(C(C)C)C4=NCC[100NH:0][100C:0](=O)N3CCCC(n4nc(-c5ccc(Oc6ccc(F)cc6F)cc5)c(C(N)=O)c4N)C3)ccc2CC1C(=O)NC1CCCc2ccccc21)C(C)(C)C

> <Shape>
0.197

> <Color>
0.086

> <Negative vol penalty>
0.000

$$$$

  -OEChem-04052320403D

 86 95  0     1  0  0  0  0  0999 V2000
  -16.5130  -29.0844   23.5645 C   0  0  0  0  0  0  0  0  0  0  0  0
  -17.3406  -28.4097   22.6727 C   0  0  0  0  0  0  0  0  0  0  0  0
  -26.6610  -11.3377   21.2806 C   0  0  0  0  0  0  0  0  0  0  0  0
  -26.0613  -11.6688   18.9637 C   0  0  0  0  0  0  0  0  0  0  0  0
  -17.0504  -30.0399   24.4260 C   0  0  0  0  0  0  0  0  0  0  0  0
  -18.7060  -28.6908   22.6412 C   0  0  0  0  0  0  0  0  0  0  0  0
  -25.0289  -25.5394   21.4554 C   0  0  0  0  0  0  0  0  0  0  0  0
  -25.4963  -10.5955   21.4760 C   0  0  0  0  0  0  0  0  0  0  0  0
  -24.8966  -10.9266   19.1591 C   0  0  0  0  0  0  0  0  0  0  0  0
  -26.1831  -25.6953   20.6891 C   0  0  0  0  0  0  0  0  0  0  0  0
  -24.4063   -7.4581   20.8425 C   0  0  0  0  0  0  0  0  0  0  0  0
  -24.5110   -6.2627   21.5536 C   0  0  0  0  0  0  0  0  0  0  0  0
  -31.9554  -25.5617   17.9366 C   0  0  0  0  0  0  0  0  0  0  0  0
  -27.0132  -27.3087   22.2788 C   0  0  0  0  0  0  0  0  0  0  0  0
  -22.9655   -7.1103   23.2060 C   0  0  0  0  0  0  0  0  0  0  0  0
  -32.0864  -26.7669   17.2657 C   0  0  0  0  0  0  0  0  0  0  0  0
  -26.9435  -11.8744   20.0244 C   0  0  0  0  0  0  0  0  0  0  0  0
  -29.4072  -12.1571   19.4262 C   0  0  0  0  0  0  0  0  0  0  0  0
  -18.4247  -30.3259   24.4117 C   0  0  0  0  0  0  0  0  0  0  0  0
  -24.8529  -26.2763   22.6354 C   0  0  0  0  0  0  0  0  0  0  0  0
  -19.2621  -29.6520   23.5024 C   0  0  0  0  0  0  0  0  0  0  0  0
  -25.8570  -27.1584   23.0596 C   0  0  0  0  0  0  0  0  0  0  0  0
  -29.7127  -26.2250   18.4977 C   0  0  0  0  0  0  0  0  0  0  0  0
  -24.6141  -10.3899   20.4153 C   0  0  0  0  0  0  0  0  0  0  0  0
  -27.1742  -26.5822   21.0993 C   0  0  0  0  0  0  0  0  0  0  0  0
  -23.5812   -8.4796   21.3131 C   0  0  0  0  0  0  0  0  0  0  0  0
  -30.7428  -25.2932   18.5617 C   0  0  0  0  0  0  0  0  0  0  0  0
  -23.7906   -6.0888   22.7354 C   0  0  0  0  0  0  0  0  0  0  0  0
  -22.8608   -8.3057   22.4948 C   0  0  0  0  0  0  0  0  0  0  0  0
  -28.1462  -12.6417   19.8221 C   0  0  0  0  0  0  0  0  0  0  0  0
  -29.9441  -27.4006   17.8018 C   0  0  0  0  0  0  0  0  0  0  0  0
  -30.2049  -13.2742   19.3785 C   0  0  0  0  0  0  0  0  0  0  0  0
  -29.8206  -10.8170   19.1281 C   0  0  0  0  0  0  0  0  0  0  0  0
  -22.7497  -28.4389   23.6370 C   0  0  0  0  0  0  0  0  0  0  0  0
  -24.3537  -28.1301   26.4396 C   0  0  0  0  0  0  0  0  0  0  0  0
  -27.2406  -27.2758   28.0465 C   0  0  0  0  0  0  0  0  0  0  0  0
  -29.3875  -18.8796   17.8362 C   0  0  0  0  0  0  0  0  0  0  0  0
  -18.9520  -31.4007   25.3290 C   0  0  0  0  0  0  0  0  0  0  0  0
  -23.6140  -26.0768   23.4646 C   0  0  0  0  0  0  0  0  0  0  0  0
  -25.7256  -27.9579   24.3292 C   0  0  0  0  0  0  0  0  0  0  0  0
  -20.4695  -31.3714   25.4925 C   0  0  0  0  0  0  0  0  0  0  0  0
  -30.0262  -17.7877   21.3587 C   0  0  0  0  0  0  0  0  0  0  0  0
  -21.1500  -31.2272   24.1350 C   0  0  0  0  0  0  0  0  0  0  0  0
  -29.6462  -16.3101   21.2784 C   0  0  0  0  0  0  0  0  0  0  0  0
  -29.3671  -22.5779   17.8670 C   0  0  0  0  0  0  0  0  0  0  0  0
  -29.2493  -18.6143   20.3410 C   0  0  0  0  0  0  0  0  0  0  0  0
  -29.3846  -21.2447   17.1317 C   0  0  0  0  0  0  0  0  0  0  0  0
  -31.2226  -20.4453   18.5781 C   0  0  0  0  0  0  0  0  0  0  0  0
  -29.0174  -16.6562   18.8460 C   0  0  0  0  0  0  0  0  0  0  0  0
  -20.7523  -29.9114   23.4554 C   0  0  1  0  0  0  0  0  0  0  0  0
  -23.3107  -27.2593   24.3796 C   0  0  1  0  0  0  0  0  0  0  0  0
  -31.2384  -21.7654   19.3587 C   0  0  2  0  0  0  0  0  0  0  0  0
  -29.7966  -15.7814   19.8419 C   0  0  2  0  0  0  0  0  0  0  0  0
  -30.7298  -22.9167   18.4723 C   0  0  2  0  0  0  0  0  0  0  0  0
  -28.8751  -28.4390   17.7004 C   0  0  0  0  0  0  0  0  0  0  0  0
  -32.6453  -22.0382   19.8963 C   0  0  0  0  0  0  0  0  0  0  0  0
  -28.2620  -27.1648   30.3360 C   0  0  0  0  0  0  0  0  0  0  0  0
  -24.7119  -31.1602   26.4240 C   0  0  0  0  0  0  0  0  0  0  0  0
  -26.4974  -30.8881   28.1578 C   0  0  0  0  0  0  0  0  0  0  0  0
  -24.1567  -30.1868   28.6598 C   0  0  0  0  0  0  0  0  0  0  0  0
  -27.6427  -24.3502   27.8520 C   0  0  0  0  0  0  0  0  0  0  0  0
  -28.4038  -25.9592   19.1613 C   0  0  0  0  0  0  0  0  0  1  0  0
  -25.5501  -28.8042   27.0664 C   0  0  1  0  0  0  0  0  0  0  0  0
  -27.4963  -26.4055   29.2637 C   0  0  2  0  0  0  0  0  0  0  0  0
  -25.2310  -30.2464   27.5520 C   0  0  0  0  0  0  0  0  0  0  0  0
  -31.1085  -27.6966   17.1819 N   0  0  0  0  0  0  0  0  0  0  0  0
  -28.1384  -13.9637   20.0125 N   0  0  0  0  0  0  0  0  0  0  0  0
  -29.4044  -14.3193   19.7352 N   0  0  0  0  0  0  0  0  0  0  0  0
  -24.4930  -27.7326   25.1023 N   0  0  0  0  0  0  0  0  0  0  0  0
  -29.3790  -18.0686   18.9835 N   0  0  0  0  0  0  0  0  0  0  0  0
  -29.9066  -20.1769   17.9828 N   0  0  0  0  0  0  0  0  0  0  0  0
  -31.5059  -13.4547   19.0668 N   0  0  0  0  0  0  0  0  0  0  0  0
  -28.8739   -9.7882   19.2269 N   0  0  0  0  0  0  0  0  0  0  0  0
  -21.4780  -28.8026   24.0371 N   0  0  0  0  0  0  0  0  0  0  0  0
  -26.0179  -27.9091   28.1192 N   0  0  0  0  0  0  0  0  0  0  0  0
  -28.2891  -25.2024   28.8830 N   0  3  0  0  0  0  0  0  0  0  0  0
  -30.9987  -10.5377   18.8003 O   0  0  0  0  0  0  0  0  0  0  0  0
  -23.4214  -28.9799   22.7665 O   0  0  0  0  0  0  0  0  0  0  0  0
  -23.3355  -27.9561   27.1138 O   0  0  0  0  0  0  0  0  0  0  0  0
  -28.0467  -27.3860   27.1253 O   0  0  0  0  0  0  0  0  0  0  0  0
  -28.9595  -18.4708   16.7497 O   0  0  0  0  0  0  0  0  0  0  0  0
  -23.4777   -9.6655   20.6055 O   0  0  0  0  0  0  0  0  0  0  0  0
  -30.5815  -24.1112   19.2338 O   0  0  0  0  0  0  0  0  0  0  0  0
  -28.3093  -26.7378   20.3478 O   0  0  0  0  0  0  0  0  0  1  0  0
  -23.8901   -4.9403   23.4174 F   0  0  0  0  0  0  0  0  0  0  0  0
  -22.0656   -9.2830   22.9513 F   0  0  0  0  0  0  0  0  0  0  0  0
  1  2  1  0  0  0  0
  1  5  2  0  0  0  0
  2  6  2  0  0  0  0
  3  8  2  0  0  0  0
  3 17  1  0  0  0  0
  4  9  1  0  0  0  0
  4 17  2  0  0  0  0
  5 19  1  0  0  0  0
  6 21  1  0  0  0  0
  7 10  2  0  0  0  0
  7 20  1  0  0  0  0
  8 24  1  0  0  0  0
  9 24  2  0  0  0  0
 10 25  1  0  0  0  0
 11 12  2  0  0  0  0
 11 26  1  0  0  0  0
 12 28  1  0  0  0  0
 13 16  1  0  0  0  0
 13 27  2  0  0  0  0
 14 22  1  0  0  0  0
 14 25  2  0  0  0  0
 15 28  2  0  0  0  0
 15 29  1  0  0  0  0
 16 66  2  0  0  0  0
 17 30  1  0  0  0  0
 18 30  1  0  0  0  0
 18 32  2  0  0  0  0
 18 33  1  0  0  0  0
 19 21  2  0  0  0  0
 19 38  1  0  0  0  0
 20 22  2  0  0  0  0
 20 39  1  0  0  0  0
 21 50  1  0  0  0  0
 22 40  1  0  0  0  0
 23 27  1  0  0  0  0
 23 31  2  0  0  0  0
 23 62  1  0  0  0  0
 24 82  1  0  0  0  0
 25 84  1  0  0  0  0
 26 29  2  0  0  0  0
 26 82  1  0  0  0  0
 27 83  1  0  0  0  0
 28 85  1  0  0  0  0
 29 86  1  0  0  0  0
 30 67  2  0  0  0  0
 31 55  1  0  0  0  0
 31 66  1  0  0  0  0
 32 68  1  0  0  0  0
 32 72  1  0  0  0  0
 33 73  1  0  0  0  0
 33 77  2  0  0  0  0
 34 51  1  0  0  0  0
 34 74  1  0  0  0  0
 34 78  2  0  0  0  0
 35 63  1  0  0  0  0
 35 69  1  0  0  0  0
 35 79  2  0  0  0  0
 36 64  1  0  0  0  0
 36 75  1  0  0  0  0
 36 80  2  0  0  0  0
 37 70  1  0  0  0  0
 37 71  1  0  0  0  0
 37 81  2  0  0  0  0
 38 41  1  0  0  0  0
 39 51  1  0  0  0  0
 40 69  1  0  0  0  0
 41 43  1  0  0  0  0
 42 44  1  0  0  0  0
 42 46  1  0  0  0  0
 43 50  1  0  0  0  0
 44 53  1  0  0  0  0
 45 47  1  0  0  0  0
 45 54  1  0  0  0  0
 46 70  1  0  0  0  0
 47 71  1  0  0  0  0
 48 52  1  0  0  0  0
 48 71  1  0  0  0  0
 49 53  1  0  0  0  0
 49 70  1  0  0  0  0
 50 74  1  0  0  0  0
 51 69  1  0  0  0  0
 52 54  1  0  0  0  0
 52 56  1  0  0  0  0
 53 68  1  0  0  0  0
 54 83  1  0  0  0  0
 57 64  1  0  0  0  0
 58 65  1  0  0  0  0
 59 65  1  0  0  0  0
 60 65  1  0  0  0  0
 61 76  1  0  0  0  0
 62 84  1  0  0  0  0
 63 65  1  0  0  0  0
 63 75  1  0  0  0  0
 64 76  1  0  0  0  0
 67 68  1  0  0  0  0
M  CHG  1  76   1
M  ISO  4  37 100  62 101  71 100  84 101
M  END
> <Batch ID>
0127

> <Smiles>
CNC(C)C(=O)NC(C(=O)N1Cc2cc([101O:1][101CH2:1]c3c(OC4CC[100N:0]([100C:0](=O)N5CCCC(n6nc(-c7ccc(Oc8ccc(F)cc8F)cc7)c(C(N)=O)c6N)C5)CC4C)ccnc3C)ccc2CC1C(=O)NC1CCCc2ccccc21)C(C)(C)C

> <Shape>
0.249

> <Color>
0.073

> <Negative vol penalty>
0.000

$$$$

  -OEChem-04052320403D

 87 96  0     1  0  0  0  0  0999 V2000
  -20.5760  -10.1068   19.4726 C   0  0  0  0  0  0  0  0  0  0  0  0
  -20.7292  -11.3723   18.9155 C   0  0  0  0  0  0  0  0  0  0  0  0
  -19.6273  -27.8474   23.7294 C   0  0  0  0  0  0  0  0  0  0  0  0
  -19.9160  -26.6289   21.6633 C   0  0  0  0  0  0  0  0  0  0  0  0
  -21.3790   -9.7159   20.5433 C   0  0  0  0  0  0  0  0  0  0  0  0
  -21.6847  -12.2482   19.4295 C   0  0  0  0  0  0  0  0  0  0  0  0
  -26.1568  -17.4574   17.3848 C   0  0  0  0  0  0  0  0  0  0  0  0
  -28.6180  -23.3268   18.0262 C   0  0  0  0  0  0  0  0  0  0  0  0
  -18.2537  -27.6103   23.6773 C   0  0  0  0  0  0  0  0  0  0  0  0
  -18.5424  -26.3918   21.6112 C   0  0  0  0  0  0  0  0  0  0  0  0
  -26.5014  -18.7693   17.7073 C   0  0  0  0  0  0  0  0  0  0  0  0
  -29.1078  -24.5594   18.4580 C   0  0  0  0  0  0  0  0  0  0  0  0
  -15.5711  -28.8591   22.0437 C   0  0  0  0  0  0  0  0  0  0  0  0
  -14.7187  -29.9296   22.3141 C   0  0  0  0  0  0  0  0  0  0  0  0
  -27.8863  -17.9566   19.5074 C   0  0  0  0  0  0  0  0  0  0  0  0
  -27.6545  -24.4616   20.3855 C   0  0  0  0  0  0  0  0  0  0  0  0
  -13.7713  -28.7065   24.1697 C   0  0  0  0  0  0  0  0  0  0  0  0
  -20.4584  -27.3567   22.7224 C   0  0  0  0  0  0  0  0  0  0  0  0
  -22.8568  -26.7966   23.3869 C   0  0  0  0  0  0  0  0  0  0  0  0
  -22.3515  -10.5838   21.0644 C   0  0  0  0  0  0  0  0  0  0  0  0
  -26.6666  -16.3840   18.1293 C   0  0  0  0  0  0  0  0  0  0  0  0
  -22.5006  -11.8690   20.5090 C   0  0  0  0  0  0  0  0  0  0  0  0
  -27.5487  -16.6319   19.1907 C   0  0  0  0  0  0  0  0  0  0  0  0
  -27.1647  -23.2290   19.9537 C   0  0  0  0  0  0  0  0  0  0  0  0
  -27.6464  -22.6616   18.7740 C   0  0  0  0  0  0  0  0  0  0  0  0
  -17.7113  -26.8825   22.6182 C   0  0  0  0  0  0  0  0  0  0  0  0
  -27.3640  -19.0192   18.7705 C   0  0  0  0  0  0  0  0  0  0  0  0
  -28.6260  -25.1268   19.6377 C   0  0  0  0  0  0  0  0  0  0  0  0
  -15.5236  -27.7123   22.8364 C   0  0  0  0  0  0  0  0  0  0  0  0
  -13.8188  -29.8533   23.3771 C   0  0  0  0  0  0  0  0  0  0  0  0
  -14.6237  -27.6360   23.8994 C   0  0  0  0  0  0  0  0  0  0  0  0
  -21.8773  -27.6018   22.7754 C   0  0  0  0  0  0  0  0  0  0  0  0
  -24.0377  -27.4602   23.1596 C   0  0  0  0  0  0  0  0  0  0  0  0
  -22.7122  -25.5594   24.0968 C   0  0  0  0  0  0  0  0  0  0  0  0
  -25.3907  -14.0976   19.9315 C   0  0  0  0  0  0  0  0  0  0  0  0
  -28.4449  -13.0092   20.0282 C   0  0  0  0  0  0  0  0  0  0  0  0
  -31.7764  -13.6997   19.7615 C   0  0  0  0  0  0  0  0  0  0  0  0
  -27.4756  -30.2525   19.7641 C   0  0  0  0  0  0  0  0  0  0  0  0
  -23.1637  -10.1342   22.2531 C   0  0  0  0  0  0  0  0  0  0  0  0
  -26.3063  -14.9733   17.7519 C   0  0  0  0  0  0  0  0  0  0  0  0
  -28.1394  -15.5135   20.0085 C   0  0  0  0  0  0  0  0  0  0  0  0
  -24.4085  -10.9836   22.4966 C   0  0  0  0  0  0  0  0  0  0  0  0
  -24.9090  -32.1153   21.3826 C   0  0  0  0  0  0  0  0  0  0  0  0
  -24.0662  -12.4678   22.4158 C   0  0  0  0  0  0  0  0  0  0  0  0
  -23.9697  -31.0412   21.9338 C   0  0  0  0  0  0  0  0  0  0  0  0
  -26.6190  -22.1509   22.1857 C   0  0  0  0  0  0  0  0  0  0  0  0
  -24.8009  -23.3333   20.8722 C   0  0  0  0  0  0  0  0  0  0  0  0
  -25.4932  -31.7139   20.0299 C   0  0  0  0  0  0  0  0  0  0  0  0
  -25.2173  -29.3228   20.5593 C   0  0  0  0  0  0  0  0  0  0  0  0
  -25.5467  -21.4389   22.9978 C   0  0  0  0  0  0  0  0  0  0  0  0
  -23.7517  -22.6061   21.7011 C   0  0  0  0  0  0  0  0  0  0  0  0
  -26.1100  -22.5266   20.7810 C   0  0  0  0  0  0  0  0  0  0  0  0
  -23.5430  -12.8383   21.0228 C   0  0  1  0  0  0  0  0  0  0  0  0
  -26.4784  -13.9848   18.9011 C   0  0  1  0  0  0  0  0  0  0  0  0
  -24.6470  -29.6576   21.9482 C   0  0  2  0  0  0  0  0  0  0  0  0
  -34.0328  -12.6141   19.9288 C   0  0  0  0  0  0  0  0  0  0  0  0
  -28.2151  -13.0060   23.0708 C   0  0  0  0  0  0  0  0  0  0  0  0
  -30.7109  -12.8473   23.1895 C   0  0  0  0  0  0  0  0  0  0  0  0
  -29.3966  -11.0214   22.1118 C   0  0  0  0  0  0  0  0  0  0  0  0
  -32.4228  -14.3418   16.9456 C   0  0  0  0  0  0  0  0  0  0  0  0
  -27.1350  -21.3369   18.2893 C   0  0  0  0  0  0  0  0  0  1  0  0
  -29.3732  -28.6661   19.5604 C   0  0  0  0  0  0  0  0  0  0  0  0
  -29.5370  -27.2445   19.0533 C   0  0  0  0  0  0  0  0  0  0  0  0
  -29.6350  -13.2423   20.9274 C   0  0  1  0  0  0  0  0  0  0  0  0
  -32.8917  -13.0039   19.0021 C   0  0  2  0  0  0  0  0  0  0  0  0
  -29.4769  -12.5506   22.3109 C   0  0  0  0  0  0  0  0  0  0  0  0
  -22.3912  -28.6936   22.2027 N   0  0  0  0  0  0  0  0  0  0  0  0
  -23.7066  -28.5792   22.4536 N   0  0  0  0  0  0  0  0  0  0  0  0
  -27.7519  -14.1519   19.6044 N   0  0  0  0  0  0  0  0  0  0  0  0
  -26.1221  -30.3934   20.1121 N   0  0  0  0  0  0  0  0  0  0  0  0
  -25.3166  -27.1900   23.4969 N   0  0  0  0  0  0  0  0  0  0  0  0
  -21.4279  -25.0164   24.2384 N   0  0  0  0  0  0  0  0  0  0  0  0
  -24.6389  -12.9482   20.0840 N   0  0  0  0  0  0  0  0  0  0  0  0
  -30.8069  -12.8101   20.1737 N   0  0  0  0  0  0  0  0  0  0  0  0
  -27.9950  -28.9686   19.8764 N   0  0  0  0  0  0  0  0  0  0  0  0
  -24.3197  -22.2881   23.0447 N   0  3  0  0  0  0  0  0  0  0  0  0
  -33.4330  -13.8995   17.9410 N   0  3  0  0  0  0  0  0  0  0  0  0
  -23.6909  -24.9616   24.6052 O   0  0  0  0  0  0  0  0  0  0  0  0
  -25.2453  -15.1490   20.5439 O   0  0  0  0  0  0  0  0  0  0  0  0
  -28.1458  -11.8562   19.7077 O   0  0  0  0  0  0  0  0  0  0  0  0
  -31.7682  -14.9106   19.9715 O   0  0  0  0  0  0  0  0  0  0  0  0
  -28.1711  -31.2016   19.3867 O   0  0  0  0  0  0  0  0  0  0  0  0
  -16.3711  -26.6507   22.5672 O   0  0  0  0  0  0  0  0  0  0  0  0
  -27.7015  -20.2988   19.0878 O   0  0  0  0  0  0  0  0  0  1  0  0
  -29.1035  -26.3297   20.0589 O   0  0  0  0  0  0  0  0  0  0  0  0
  -13.0014  -30.8819   23.6375 F   0  0  0  0  0  0  0  0  0  0  0  0
  -14.5742  -26.5373   24.6651 F   0  0  0  0  0  0  0  0  0  0  0  0
  1  2  1  0  0  0  0
  1  5  2  0  0  0  0
  2  6  2  0  0  0  0
  3  9  2  0  0  0  0
  3 18  1  0  0  0  0
  4 10  1  0  0  0  0
  4 18  2  0  0  0  0
  5 20  1  0  0  0  0
  6 22  1  0  0  0  0
  7 11  2  0  0  0  0
  7 21  1  0  0  0  0
  8 12  2  0  0  0  0
  8 25  1  0  0  0  0
  9 26  1  0  0  0  0
 10 26  2  0  0  0  0
 11 27  1  0  0  0  0
 12 28  1  0  0  0  0
 13 14  2  0  0  0  0
 13 29  1  0  0  0  0
 14 30  1  0  0  0  0
 15 23  1  0  0  0  0
 15 27  2  0  0  0  0
 16 24  1  0  0  0  0
 16 28  2  0  0  0  0
 17 30  2  0  0  0  0
 17 31  1  0  0  0  0
 18 32  1  0  0  0  0
 19 32  1  0  0  0  0
 19 33  2  0  0  0  0
 19 34  1  0  0  0  0
 20 22  2  0  0  0  0
 20 39  1  0  0  0  0
 21 23  2  0  0  0  0
 21 40  1  0  0  0  0
 22 53  1  0  0  0  0
 23 41  1  0  0  0  0
 24 25  2  0  0  0  0
 24 52  1  0  0  0  0
 25 61  1  0  0  0  0
 26 83  1  0  0  0  0
 27 84  1  0  0  0  0
 28 85  1  0  0  0  0
 29 31  2  0  0  0  0
 29 83  1  0  0  0  0
 30 86  1  0  0  0  0
 31 87  1  0  0  0  0
 32 67  2  0  0  0  0
 33 68  1  0  0  0  0
 33 71  1  0  0  0  0
 34 72  1  0  0  0  0
 34 78  2  0  0  0  0
 35 54  1  0  0  0  0
 35 73  1  0  0  0  0
 35 79  2  0  0  0  0
 36 64  1  0  0  0  0
 36 69  1  0  0  0  0
 36 80  2  0  0  0  0
 37 65  1  0  0  0  0
 37 74  1  0  0  0  0
 37 81  2  0  0  0  0
 38 70  1  0  0  0  0
 38 75  1  0  0  0  0
 38 82  2  0  0  0  0
 39 42  1  0  0  0  0
 40 54  1  0  0  0  0
 41 69  1  0  0  0  0
 42 44  1  0  0  0  0
 43 45  1  0  0  0  0
 43 48  1  0  0  0  0
 44 53  1  0  0  0  0
 45 55  1  0  0  0  0
 46 50  1  0  0  0  0
 46 52  1  0  0  0  0
 47 51  1  0  0  0  0
 47 52  1  0  0  0  0
 48 70  1  0  0  0  0
 49 55  1  0  0  0  0
 49 70  1  0  0  0  0
 50 76  1  0  0  0  0
 51 76  1  0  0  0  0
 53 73  1  0  0  0  0
 54 69  1  0  0  0  0
 55 68  1  0  0  0  0
 56 65  1  0  0  0  0
 57 66  1  0  0  0  0
 58 66  1  0  0  0  0
 59 66  1  0  0  0  0
 60 77  1  0  0  0  0
 61 84  1  0  0  0  0
 62 63  1  0  0  0  0
 62 75  1  0  0  0  0
 63 85  1  0  0  0  0
 64 66  1  0  0  0  0
 64 74  1  0  0  0  0
 65 77  1  0  0  0  0
 67 68  1  0  0  0  0
M  CHG  2  76   1  77   1
M  ISO  4  38 100  61 101  75 100  84 101
M  END
> <Batch ID>
0127

> <Smiles>
CNC(C)C(=O)NC(C(=O)N1Cc2cc([101O:1][101CH2:1]c3ccc(OCC[100NH:0][100C:0](=O)N4CCCC(n5nc(-c6ccc(Oc7ccc(F)cc7F)cc6)c(C(N)=O)c5N)C4)cc3C3CCNCC3)ccc2CC1C(=O)NC1CCCc2ccccc21)C(C)(C)C

> <Shape>
0.252

> <Color>
0.072

> <Negative vol penalty>
0.000

$$$$

  -OEChem-04052320403D

 85 94  0     1  0  0  0  0  0999 V2000
  -16.5873  -30.2527   23.2302 C   0  0  0  0  0  0  0  0  0  0  0  0
  -17.6030  -30.6279   22.3567 C   0  0  0  0  0  0  0  0  0  0  0  0
  -26.1623  -15.5292   20.5628 C   0  0  0  0  0  0  0  0  0  0  0  0
  -28.0570  -14.7175   19.3025 C   0  0  0  0  0  0  0  0  0  0  0  0
  -16.8916  -29.5249   24.3798 C   0  0  0  0  0  0  0  0  0  0  0  0
  -18.9238  -30.2764   22.6329 C   0  0  0  0  0  0  0  0  0  0  0  0
  -25.0344  -28.5036   19.3414 C   0  0  0  0  0  0  0  0  0  0  0  0
  -25.7582  -14.2157   20.8014 C   0  0  0  0  0  0  0  0  0  0  0  0
  -27.6529  -13.4039   19.5411 C   0  0  0  0  0  0  0  0  0  0  0  0
  -26.3816  -28.8608   19.3059 C   0  0  0  0  0  0  0  0  0  0  0  0
  -27.3205   -9.8305   20.1227 C   0  0  0  0  0  0  0  0  0  0  0  0
  -28.2962   -8.9107   20.5069 C   0  0  0  0  0  0  0  0  0  0  0  0
  -31.0993  -26.8647   20.6578 C   0  0  0  0  0  0  0  0  0  0  0  0
  -31.4853  -24.5905   19.9394 C   0  0  0  0  0  0  0  0  0  0  0  0
  -26.7791  -27.5343   21.2812 C   0  0  0  0  0  0  0  0  0  0  0  0
  -31.0449  -26.3151   18.3057 C   0  0  0  0  0  0  0  0  0  0  0  0
  -28.7892  -10.2485   22.4574 C   0  0  0  0  0  0  0  0  0  0  0  0
  -27.3117  -15.7802   19.8133 C   0  0  0  0  0  0  0  0  0  0  0  0
  -28.5914  -17.9187   20.3580 C   0  0  0  0  0  0  0  0  0  0  0  0
  -18.2156  -29.1560   24.6653 C   0  0  0  0  0  0  0  0  0  0  0  0
  -24.5465  -27.6664   20.3550 C   0  0  0  0  0  0  0  0  0  0  0  0
  -19.2463  -29.5442   23.7882 C   0  0  0  0  0  0  0  0  0  0  0  0
  -31.3747  -25.5318   20.9629 C   0  0  0  0  0  0  0  0  0  0  0  0
  -25.4258  -27.1659   21.3258 C   0  0  0  0  0  0  0  0  0  0  0  0
  -30.9343  -27.2563   19.3292 C   0  0  0  0  0  0  0  0  0  0  0  0
  -31.3204  -24.9822   18.6108 C   0  0  0  0  0  0  0  0  0  0  0  0
  -26.5035  -13.1531   20.2906 C   0  0  0  0  0  0  0  0  0  0  0  0
  -27.2536  -28.3785   20.2776 C   0  0  0  0  0  0  0  0  0  0  0  0
  -27.0792  -10.9593   20.9058 C   0  0  0  0  0  0  0  0  0  0  0  0
  -29.0305   -9.1197   21.6743 C   0  0  0  0  0  0  0  0  0  0  0  0
  -27.8135  -11.1683   22.0732 C   0  0  0  0  0  0  0  0  0  0  0  0
  -27.7293  -17.1368   19.5660 C   0  0  0  0  0  0  0  0  0  0  0  0
  -28.6683  -19.1207   19.6979 C   0  0  0  0  0  0  0  0  0  0  0  0
  -29.2626  -17.5880   21.5810 C   0  0  0  0  0  0  0  0  0  0  0  0
  -22.4042  -27.9761   22.6827 C   0  0  0  0  0  0  0  0  0  0  0  0
  -22.9978  -24.8171   23.1192 C   0  0  0  0  0  0  0  0  0  0  0  0
  -25.1444  -22.1922   22.7331 C   0  0  0  0  0  0  0  0  0  0  0  0
  -29.2233  -22.0582   14.9853 C   0  0  0  0  0  0  0  0  0  0  0  0
  -18.5016  -28.4100   25.9445 C   0  0  0  0  0  0  0  0  0  0  0  0
  -23.0959  -27.2689   20.3638 C   0  0  0  0  0  0  0  0  0  0  0  0
  -24.9560  -26.2478   22.4234 C   0  0  0  0  0  0  0  0  0  0  0  0
  -19.8799  -27.7544   25.9722 C   0  0  0  0  0  0  0  0  0  0  0  0
  -25.9532  -20.9351   15.8350 C   0  0  0  0  0  0  0  0  0  0  0  0
  -30.6963  -24.0006   22.9299 C   0  0  0  0  0  0  0  0  0  0  0  0
  -30.4581  -25.4093   23.3760 C   0  0  0  0  0  0  0  0  0  0  0  0
  -20.9462  -28.7330   25.4905 C   0  0  0  0  0  0  0  0  0  0  0  0
  -26.1955  -19.9074   16.9417 C   0  0  0  0  0  0  0  0  0  0  0  0
  -27.0494  -20.8897   14.7728 C   0  0  0  0  0  0  0  0  0  0  0  0
  -28.6653  -19.9894   16.4013 C   0  0  0  0  0  0  0  0  0  0  0  0
  -31.5514  -25.1138   22.3820 C   0  0  0  0  0  0  0  0  0  0  0  0
  -20.6882  -29.1604   24.0406 C   0  0  1  0  0  0  0  0  0  0  0  0
  -22.6064  -26.8247   21.7387 C   0  0  1  0  0  0  0  0  0  0  0  0
  -27.6156  -20.0355   17.5249 C   0  0  2  0  0  0  0  0  0  0  0  0
  -25.9501  -19.8162   22.7850 C   0  0  0  0  0  0  0  0  0  0  0  0
  -23.5715  -25.4574   26.0468 C   0  0  0  0  0  0  0  0  0  0  0  0
  -24.6817  -23.2222   26.2458 C   0  0  0  0  0  0  0  0  0  0  0  0
  -22.2573  -23.3624   25.6753 C   0  0  0  0  0  0  0  0  0  0  0  0
  -24.0886  -21.6528   20.0214 C   0  0  0  0  0  0  0  0  0  0  0  0
  -30.6369  -28.6988   18.9987 C   0  0  0  0  0  0  0  0  0  0  0  0
  -31.2745  -24.3638   16.1940 C   0  0  0  0  0  0  0  0  0  0  0  0
  -31.4371  -23.1282   15.3219 C   0  0  0  0  0  0  0  0  0  0  0  0
  -29.1403  -28.9892   18.9648 C   0  0  0  0  0  0  0  0  0  1  0  0
  -23.9782  -24.0173   23.9428 C   0  0  1  0  0  0  0  0  0  0  0  0
  -24.9298  -20.7845   22.2071 C   0  0  2  0  0  0  0  0  0  0  0  0
  -23.6310  -24.0337   25.4582 C   0  0  0  0  0  0  0  0  0  0  0  0
  -27.2899  -17.7875   18.4854 N   0  0  0  0  0  0  0  0  0  0  0  0
  -27.8782  -18.9909   18.5938 N   0  0  0  0  0  0  0  0  0  0  0  0
  -23.5275  -25.8930   22.3928 N   0  0  0  0  0  0  0  0  0  0  0  0
  -28.3712  -21.0180   15.3912 N   0  0  0  0  0  0  0  0  0  0  0  0
  -29.3341  -20.2655   19.9601 N   0  0  0  0  0  0  0  0  0  0  0  0
  -29.0736  -16.3090   22.1222 N   0  0  0  0  0  0  0  0  0  0  0  0
  -31.4319  -24.0305   17.5758 N   0  0  0  0  0  0  0  0  0  0  0  0
  -21.1029  -28.1189   23.1253 N   0  0  0  0  0  0  0  0  0  0  0  0
  -24.0147  -22.6837   23.3525 N   0  0  0  0  0  0  0  0  0  0  0  0
  -30.4549  -22.1116   15.6264 N   0  0  0  0  0  0  0  0  0  0  0  0
  -25.0498  -20.7626   20.7218 N   0  3  0  0  0  0  0  0  0  0  0  0
  -29.9949  -18.4081   22.1850 O   0  0  0  0  0  0  0  0  0  0  0  0
  -23.3584  -28.6817   22.9882 O   0  0  0  0  0  0  0  0  0  0  0  0
  -21.8072  -24.4945   23.1147 O   0  0  0  0  0  0  0  0  0  0  0  0
  -26.2089  -22.7940   22.6105 O   0  0  0  0  0  0  0  0  0  0  0  0
  -28.9076  -22.8818   14.1199 O   0  0  0  0  0  0  0  0  0  0  0  0
  -26.1096  -11.8712   20.5235 O   0  0  0  0  0  0  0  0  0  0  0  0
  -28.5689  -28.7261   20.2457 O   0  0  0  0  0  0  0  0  0  1  0  0
  -29.9664   -8.2355   22.0439 F   0  0  0  0  0  0  0  0  0  0  0  0
  -27.5854  -12.2503   22.8302 F   0  0  0  0  0  0  0  0  0  0  0  0
  1  2  1  0  0  0  0
  1  5  2  0  0  0  0
  2  6  2  0  0  0  0
  3  8  2  0  0  0  0
  3 18  1  0  0  0  0
  4  9  1  0  0  0  0
  4 18  2  0  0  0  0
  5 20  1  0  0  0  0
  6 22  1  0  0  0  0
  7 10  2  0  0  0  0
  7 21  1  0  0  0  0
  8 27  1  0  0  0  0
  9 27  2  0  0  0  0
 10 28  1  0  0  0  0
 11 12  2  0  0  0  0
 11 29  1  0  0  0  0
 12 30  1  0  0  0  0
 13 23  1  0  0  0  0
 13 25  2  0  0  0  0
 14 23  2  0  0  0  0
 14 26  1  0  0  0  0
 15 24  1  0  0  0  0
 15 28  2  0  0  0  0
 16 25  1  0  0  0  0
 16 26  2  0  0  0  0
 17 30  2  0  0  0  0
 17 31  1  0  0  0  0
 18 32  1  0  0  0  0
 19 32  1  0  0  0  0
 19 33  2  0  0  0  0
 19 34  1  0  0  0  0
 20 22  2  0  0  0  0
 20 39  1  0  0  0  0
 21 24  2  0  0  0  0
 21 40  1  0  0  0  0
 22 51  1  0  0  0  0
 23 50  1  0  0  0  0
 24 41  1  0  0  0  0
 25 59  1  0  0  0  0
 26 72  1  0  0  0  0
 27 82  1  0  0  0  0
 28 83  1  0  0  0  0
 29 31  2  0  0  0  0
 29 82  1  0  0  0  0
 30 84  1  0  0  0  0
 31 85  1  0  0  0  0
 32 66  2  0  0  0  0
 33 67  1  0  0  0  0
 33 70  1  0  0  0  0
 34 71  1  0  0  0  0
 34 77  2  0  0  0  0
 35 52  1  0  0  0  0
 35 73  1  0  0  0  0
 35 78  2  0  0  0  0
 36 63  1  0  0  0  0
 36 68  1  0  0  0  0
 36 79  2  0  0  0  0
 37 64  1  0  0  0  0
 37 74  1  0  0  0  0
 37 80  2  0  0  0  0
 38 69  1  0  0  0  0
 38 75  1  0  0  0  0
 38 81  2  0  0  0  0
 39 42  1  0  0  0  0
 40 52  1  0  0  0  0
 41 68  1  0  0  0  0
 42 46  1  0  0  0  0
 43 47  1  0  0  0  0
 43 48  1  0  0  0  0
 44 45  1  0  0  0  0
 44 50  1  0  0  0  0
 45 50  1  0  0  0  0
 46 51  1  0  0  0  0
 47 53  1  0  0  0  0
 48 69  1  0  0  0  0
 49 53  1  0  0  0  0
 49 69  1  0  0  0  0
 51 73  1  0  0  0  0
 52 68  1  0  0  0  0
 53 67  1  0  0  0  0
 54 64  1  0  0  0  0
 55 65  1  0  0  0  0
 56 65  1  0  0  0  0
 57 65  1  0  0  0  0
 58 76  1  0  0  0  0
 59 62  1  0  0  0  0
 60 61  1  0  0  0  0
 60 72  1  0  0  0  0
 61 75  1  0  0  0  0
 62 83  1  0  0  0  0
 63 65  1  0  0  0  0
 63 74  1  0  0  0  0
 64 76  1  0  0  0  0
 66 67  1  0  0  0  0
M  CHG  1  76   1
M  ISO  4  38 100  62 101  75 100  83 101
M  END
> <Batch ID>
0127

> <Smiles>
CNC(C)C(=O)NC(C(=O)N1Cc2cc([101O:1][101CH2:1]Cc3cc(NCC[100NH:0][100C:0](=O)N4CCCC(n5nc(-c6ccc(Oc7ccc(F)cc7F)cc6)c(C(N)=O)c5N)C4)cc(C4CC4)c3)ccc2CC1C(=O)NC1CCCc2ccccc21)C(C)(C)C

> <Shape>
0.196

> <Color>
0.091

> <Negative vol penalty>
0.000

$$$$

  -OEChem-04052320403D

 85 94  0     1  0  0  0  0  0999 V2000
  -17.8786  -30.5331   23.5793 C   0  0  0  0  0  0  0  0  0  0  0  0
  -19.2623  -30.6563   23.6542 C   0  0  0  0  0  0  0  0  0  0  0  0
  -34.5476  -27.4165   22.4200 C   0  0  0  0  0  0  0  0  0  0  0  0
  -34.9287  -27.0859   21.1195 C   0  0  0  0  0  0  0  0  0  0  0  0
  -26.9909  -17.4625   19.6838 C   0  0  0  0  0  0  0  0  0  0  0  0
  -28.7849  -17.5127   21.3013 C   0  0  0  0  0  0  0  0  0  0  0  0
  -17.3088  -29.3358   23.1485 C   0  0  0  0  0  0  0  0  0  0  0  0
  -20.0770  -29.5816   23.2994 C   0  0  0  0  0  0  0  0  0  0  0  0
  -33.4127  -26.8334   22.9837 C   0  0  0  0  0  0  0  0  0  0  0  0
  -25.5608  -29.8576   20.5867 C   0  0  0  0  0  0  0  0  0  0  0  0
  -34.1749  -26.1724   20.3828 C   0  0  0  0  0  0  0  0  0  0  0  0
  -26.9787  -16.0689   19.7405 C   0  0  0  0  0  0  0  0  0  0  0  0
  -28.7727  -16.1191   21.3580 C   0  0  0  0  0  0  0  0  0  0  0  0
  -26.8598  -29.7855   21.0878 C   0  0  0  0  0  0  0  0  0  0  0  0
  -26.2311  -12.5113   19.7298 C   0  0  0  0  0  0  0  0  0  0  0  0
  -24.9922  -11.8767   19.8178 C   0  0  0  0  0  0  0  0  0  0  0  0
  -26.9233  -27.4308   20.5678 C   0  0  0  0  0  0  0  0  0  0  0  0
  -24.5464  -13.0341   21.8911 C   0  0  0  0  0  0  0  0  0  0  0  0
  -27.8940  -18.1845   20.4641 C   0  0  0  0  0  0  0  0  0  0  0  0
  -27.1638  -20.5143   21.2031 C   0  0  0  0  0  0  0  0  0  0  0  0
  -18.1171  -28.2492   22.7790 C   0  0  0  0  0  0  0  0  0  0  0  0
  -24.9282  -28.7125   20.0816 C   0  0  0  0  0  0  0  0  0  0  0  0
  -19.5175  -28.3682   22.8645 C   0  0  0  0  0  0  0  0  0  0  0  0
  -32.6589  -25.9198   22.2469 C   0  0  0  0  0  0  0  0  0  0  0  0
  -25.6172  -27.4915   20.0585 C   0  0  0  0  0  0  0  0  0  0  0  0
  -33.0400  -25.5893   20.9464 C   0  0  0  0  0  0  0  0  0  0  0  0
  -27.8696  -15.3971   20.5777 C   0  0  0  0  0  0  0  0  0  0  0  0
  -27.5403  -28.5714   21.0811 C   0  0  0  0  0  0  0  0  0  0  0  0
  -26.6278  -13.4074   20.7226 C   0  0  0  0  0  0  0  0  0  0  0  0
  -24.1498  -12.1381   20.8983 C   0  0  0  0  0  0  0  0  0  0  0  0
  -25.7854  -13.6688   21.8032 C   0  0  0  0  0  0  0  0  0  0  0  0
  -27.9075  -19.6241   20.4055 C   0  0  0  0  0  0  0  0  0  0  0  0
  -27.5303  -21.7613   20.7591 C   0  0  0  0  0  0  0  0  0  0  0  0
  -26.2255  -20.2387   22.2516 C   0  0  0  0  0  0  0  0  0  0  0  0
  -22.3334  -27.0528   20.8662 C   0  0  0  0  0  0  0  0  0  0  0  0
  -23.0272  -25.4260   18.1469 C   0  0  0  0  0  0  0  0  0  0  0  0
  -25.3729  -24.4779   15.8566 C   0  0  0  0  0  0  0  0  0  0  0  0
  -32.1385  -24.6370   18.7955 C   0  0  0  0  0  0  0  0  0  0  0  0
  -17.4545  -26.9593   22.3646 C   0  0  0  0  0  0  0  0  0  0  0  0
  -23.5364  -28.8125   19.5201 C   0  0  0  0  0  0  0  0  0  0  0  0
  -24.9901  -26.2374   19.5086 C   0  0  0  0  0  0  0  0  0  0  0  0
  -18.3957  -25.9932   21.6496 C   0  0  0  0  0  0  0  0  0  0  0  0
  -29.5613  -23.5237   16.6054 C   0  0  0  0  0  0  0  0  0  0  0  0
  -19.7172  -25.8796   22.4029 C   0  0  0  0  0  0  0  0  0  0  0  0
  -28.7983  -22.4914   17.4387 C   0  0  0  0  0  0  0  0  0  0  0  0
  -31.7906  -23.9508   23.5400 C   0  0  0  0  0  0  0  0  0  0  0  0
  -31.0634  -23.4755   16.8797 C   0  0  0  0  0  0  0  0  0  0  0  0
  -30.6767  -22.5471   19.1286 C   0  0  0  0  0  0  0  0  0  0  0  0
  -30.5844  -23.2927   24.1892 C   0  0  0  0  0  0  0  0  0  0  0  0
  -29.5271  -25.5252   24.5576 C   0  0  0  0  0  0  0  0  0  0  0  0
  -31.4266  -25.3002   22.8874 C   0  0  1  0  0  0  0  0  0  0  0  0
  -20.4352  -27.2332   22.4647 C   0  0  1  0  0  0  0  0  0  0  0  0
  -22.8017  -27.4756   19.5026 C   0  0  1  0  0  0  0  0  0  0  0  0
  -30.7170  -26.2365   23.9038 C   0  0  1  0  0  0  0  0  0  0  0  0
  -29.1525  -22.6017   18.9347 C   0  0  2  0  0  0  0  0  0  0  0  0
  -25.6477  -23.1173   13.7660 C   0  0  0  0  0  0  0  0  0  0  0  0
  -22.9371  -22.8657   19.8042 C   0  0  0  0  0  0  0  0  0  0  0  0
  -24.1244  -21.6969   17.9354 C   0  0  0  0  0  0  0  0  0  0  0  0
  -21.8677  -22.6878   17.5505 C   0  0  0  0  0  0  0  0  0  0  0  0
  -26.2281  -26.8405   14.2927 C   0  0  0  0  0  0  0  0  0  0  0  0
  -30.2242  -27.5307   23.2470 C   0  0  0  0  0  0  0  0  0  0  0  0
  -29.2114  -27.2563   22.1458 C   0  0  0  0  0  0  0  0  0  1  0  0
  -23.8648  -24.2164   17.8090 C   0  0  1  0  0  0  0  0  0  0  0  0
  -25.3642  -24.4973   14.3387 C   0  0  2  0  0  0  0  0  0  0  0  0
  -23.2099  -22.8898   18.2870 C   0  0  0  0  0  0  0  0  0  0  0  0
  -28.6875  -20.2521   19.5217 N   0  0  0  0  0  0  0  0  0  0  0  0
  -28.4358  -21.5504   19.7612 N   0  0  0  0  0  0  0  0  0  0  0  0
  -23.6252  -26.3850   18.9767 N   0  0  0  0  0  0  0  0  0  0  0  0
  -31.3232  -23.5898   18.3164 N   0  0  0  0  0  0  0  0  0  0  0  0
  -27.1632  -23.0067   21.1287 N   0  0  0  0  0  0  0  0  0  0  0  0
  -25.9652  -18.9015   22.5808 N   0  0  0  0  0  0  0  0  0  0  0  0
  -32.2875  -24.6637   20.1817 N   0  0  0  0  0  0  0  0  0  0  0  0
  -21.0777  -27.5227   21.2006 N   0  0  0  0  0  0  0  0  0  0  0  0
  -24.1098  -24.2780   16.3721 N   0  0  0  0  0  0  0  0  0  0  0  0
  -29.9819  -24.2422   25.1674 N   0  3  0  0  0  0  0  0  0  0  0  0
  -26.3986  -25.4401   13.8268 N   0  3  0  0  0  0  0  0  0  0  0  0
  -25.6232  -21.1509   22.8670 O   0  0  0  0  0  0  0  0  0  0  0  0
  -23.0571  -26.3508   21.5628 O   0  0  0  0  0  0  0  0  0  0  0  0
  -21.8871  -25.5201   17.6856 O   0  0  0  0  0  0  0  0  0  0  0  0
  -26.3983  -24.6216   16.5188 O   0  0  0  0  0  0  0  0  0  0  0  0
  -32.6435  -25.4663   18.0344 O   0  0  0  0  0  0  0  0  0  0  0  0
  -27.8578  -14.0373   20.6335 O   0  0  0  0  0  0  0  0  0  0  0  0
  -28.8080  -28.4982   21.5702 O   0  0  0  0  0  0  0  0  0  1  0  0
  -22.9594  -11.5297   20.9818 F   0  0  0  0  0  0  0  0  0  0  0  0
  -26.1605  -14.5295   22.7594 F   0  0  0  0  0  0  0  0  0  0  0  0
  1  2  1  0  0  0  0
  1  7  2  0  0  0  0
  2  8  2  0  0  0  0
  3  4  1  0  0  0  0
  3  9  2  0  0  0  0
  4 11  2  0  0  0  0
  5 12  2  0  0  0  0
  5 19  1  0  0  0  0
  6 13  1  0  0  0  0
  6 19  2  0  0  0  0
  7 21  1  0  0  0  0
  8 23  1  0  0  0  0
  9 24  1  0  0  0  0
 10 14  2  0  0  0  0
 10 22  1  0  0  0  0
 11 26  1  0  0  0  0
 12 27  1  0  0  0  0
 13 27  2  0  0  0  0
 14 28  1  0  0  0  0
 15 16  2  0  0  0  0
 15 29  1  0  0  0  0
 16 30  1  0  0  0  0
 17 25  1  0  0  0  0
 17 28  2  0  0  0  0
 18 30  2  0  0  0  0
 18 31  1  0  0  0  0
 19 32  1  0  0  0  0
 20 32  1  0  0  0  0
 20 33  2  0  0  0  0
 20 34  1  0  0  0  0
 21 23  2  0  0  0  0
 21 39  1  0  0  0  0
 22 25  2  0  0  0  0
 22 40  1  0  0  0  0
 23 52  1  0  0  0  0
 24 26  2  0  0  0  0
 24 51  1  0  0  0  0
 25 41  1  0  0  0  0
 26 72  1  0  0  0  0
 27 82  1  0  0  0  0
 28 83  1  0  0  0  0
 29 31  2  0  0  0  0
 29 82  1  0  0  0  0
 30 84  1  0  0  0  0
 31 85  1  0  0  0  0
 32 66  2  0  0  0  0
 33 67  1  0  0  0  0
 33 70  1  0  0  0  0
 34 71  1  0  0  0  0
 34 77  2  0  0  0  0
 35 53  1  0  0  0  0
 35 73  1  0  0  0  0
 35 78  2  0  0  0  0
 36 63  1  0  0  0  0
 36 68  1  0  0  0  0
 36 79  2  0  0  0  0
 37 64  1  0  0  0  0
 37 74  1  0  0  0  0
 37 80  2  0  0  0  0
 38 69  1  0  0  0  0
 38 72  1  0  0  0  0
 38 81  2  0  0  0  0
 39 42  1  0  0  0  0
 40 53  1  0  0  0  0
 41 68  1  0  0  0  0
 42 44  1  0  0  0  0
 43 45  1  0  0  0  0
 43 47  1  0  0  0  0
 44 52  1  0  0  0  0
 45 55  1  0  0  0  0
 46 49  1  0  0  0  0
 46 51  1  0  0  0  0
 47 69  1  0  0  0  0
 48 55  1  0  0  0  0
 48 69  1  0  0  0  0
 49 75  1  0  0  0  0
 50 54  1  0  0  0  0
 50 75  1  0  0  0  0
 51 54  1  0  0  0  0
 52 73  1  0  0  0  0
 53 68  1  0  0  0  0
 54 61  1  0  0  0  0
 55 67  1  0  0  0  0
 56 64  1  0  0  0  0
 57 65  1  0  0  0  0
 58 65  1  0  0  0  0
 59 65  1  0  0  0  0
 60 76  1  0  0  0  0
 61 62  1  0  0  0  0
 62 83  1  0  0  0  0
 63 65  1  0  0  0  0
 63 74  1  0  0  0  0
 64 76  1  0  0  0  0
 66 67  1  0  0  0  0
M  CHG  2  75   1  76   1
M  ISO  4  38 100  62 101  72 100  83 101
M  END
> <Batch ID>
0127

> <Smiles>
CNC(C)C(=O)NC(C(=O)N1Cc2cc([101O:1][101CH2:1]CC3CNCCC3c3ccccc3[100NH:0][100C:0](=O)N3CCCC(n4nc(-c5ccc(Oc6ccc(F)cc6F)cc5)c(C(N)=O)c4N)C3)ccc2CC1C(=O)NC1CCCc2ccccc21)C(C)(C)C

> <Shape>
0.234

> <Color>
0.061

> <Negative vol penalty>
0.000

$$$$
