
  -OEChem-04052320423D

 83 91  0     1  0  0  0  0  0999 V2000
  -28.0975  -33.0437   20.8057 C   0  0  0  0  0  0  0  0  0  0  0  0
  -27.6694  -31.7945   20.3680 C   0  0  0  0  0  0  0  0  0  0  0  0
  -26.6711  -14.1313   19.1918 C   0  0  0  0  0  0  0  0  0  0  0  0
  -25.3627  -14.5012   21.1889 C   0  0  0  0  0  0  0  0  0  0  0  0
  -27.6517  -33.5430   22.0288 C   0  0  0  0  0  0  0  0  0  0  0  0
  -26.7959  -31.0433   21.1537 C   0  0  0  0  0  0  0  0  0  0  0  0
  -22.3519  -27.3176   19.1849 C   0  0  0  0  0  0  0  0  0  0  0  0
  -26.5529  -12.7529   19.3696 C   0  0  0  0  0  0  0  0  0  0  0  0
  -25.2444  -13.1228   21.3667 C   0  0  0  0  0  0  0  0  0  0  0  0
  -22.2931  -25.9349   19.0168 C   0  0  0  0  0  0  0  0  0  0  0  0
  -23.3997  -10.5970   20.0867 C   0  0  0  0  0  0  0  0  0  0  0  0
  -22.1405  -10.0927   20.4116 C   0  0  0  0  0  0  0  0  0  0  0  0
  -21.2614  -25.7210   21.1868 C   0  0  0  0  0  0  0  0  0  0  0  0
  -23.0304   -9.1977   22.4717 C   0  0  0  0  0  0  0  0  0  0  0  0
  -26.0760  -15.0055   20.1014 C   0  0  0  0  0  0  0  0  0  0  0  0
  -25.3321  -17.2711   19.1954 C   0  0  0  0  0  0  0  0  0  0  0  0
  -26.7647  -32.8018   22.8253 C   0  0  0  0  0  0  0  0  0  0  0  0
  -21.8751  -27.9125   20.3619 C   0  0  0  0  0  0  0  0  0  0  0  0
  -26.3388  -31.5326   22.3891 C   0  0  0  0  0  0  0  0  0  0  0  0
  -21.3130  -27.1117   21.3664 C   0  0  0  0  0  0  0  0  0  0  0  0
  -25.8395  -12.2486   20.4571 C   0  0  0  0  0  0  0  0  0  0  0  0
  -21.7504  -25.1361   20.0190 C   0  0  0  0  0  0  0  0  0  0  0  0
  -24.4743  -10.4016   20.9543 C   0  0  0  0  0  0  0  0  0  0  0  0
  -21.9558   -9.3931   21.6041 C   0  0  0  0  0  0  0  0  0  0  0  0
  -24.2897   -9.7020   22.1468 C   0  0  0  0  0  0  0  0  0  0  0  0
  -26.1983  -16.4294   19.9186 C   0  0  0  0  0  0  0  0  0  0  0  0
  -25.8822  -18.5229   19.3250 C   0  0  0  0  0  0  0  0  0  0  0  0
  -24.1369  -16.9501   18.4713 C   0  0  0  0  0  0  0  0  0  0  0  0
  -23.1791  -29.6409   22.6892 C   0  0  0  0  0  0  0  0  0  0  0  0
  -20.1043  -29.8989   23.6900 C   0  0  0  0  0  0  0  0  0  0  0  0
  -16.9451  -28.6082   23.7072 C   0  0  0  0  0  0  0  0  0  0  0  0
  -29.4525  -21.0012   23.4434 C   0  0  0  0  0  0  0  0  0  0  0  0
  -26.3474  -33.3625   24.1618 C   0  0  0  0  0  0  0  0  0  0  0  0
  -21.9214  -29.4079   20.5166 C   0  0  0  0  0  0  0  0  0  0  0  0
  -20.7689  -27.7030   22.6402 C   0  0  0  0  0  0  0  0  0  0  0  0
  -25.1280  -32.6662   24.7606 C   0  0  0  0  0  0  0  0  0  0  0  0
  -30.0866  -20.7187   19.9513 C   0  0  0  0  0  0  0  0  0  0  0  0
  -25.2773  -31.1512   24.6636 C   0  0  0  0  0  0  0  0  0  0  0  0
  -29.0838  -19.6634   19.4817 C   0  0  0  0  0  0  0  0  0  0  0  0
  -25.4157  -24.1204   23.2023 C   0  0  0  0  0  0  0  0  0  0  0  0
  -23.5993  -22.9790   24.5439 C   0  0  0  0  0  0  0  0  0  0  0  0
  -30.6258  -20.4042   21.3450 C   0  0  0  0  0  0  0  0  0  0  0  0
  -28.5895  -19.1341   21.9054 C   0  0  0  0  0  0  0  0  0  0  0  0
  -25.0523  -23.2603   21.9974 C   0  0  0  0  0  0  0  0  0  0  0  0
  -23.2501  -22.1281   23.3284 C   0  0  0  0  0  0  0  0  0  0  0  0
  -25.3721  -30.6986   23.2015 C   0  0  1  0  0  0  0  0  0  0  0  0
  -21.8764  -29.8596   21.9731 C   0  0  1  0  0  0  0  0  0  0  0  0
  -27.9758  -19.4379   20.5279 C   0  0  2  0  0  0  0  0  0  0  0  0
  -25.0440  -23.4754   24.5362 C   0  0  0  0  0  0  0  0  0  0  0  0
  -14.6538  -29.0204   24.6440 C   0  0  0  0  0  0  0  0  0  0  0  0
  -22.9360  -22.4260   18.3037 C   0  0  0  0  0  0  0  0  0  0  0  0
  -21.0358  -28.8791   26.4107 C   0  0  0  0  0  0  0  0  0  0  0  0
  -18.6421  -28.4129   26.9776 C   0  0  0  0  0  0  0  0  0  0  0  0
  -19.3789  -30.7497   26.5092 C   0  0  0  0  0  0  0  0  0  0  0  0
  -15.7624  -28.8733   21.0073 C   0  0  0  0  0  0  0  0  0  0  0  0
  -28.1602  -21.4930   25.5043 C   0  0  0  0  0  0  0  0  0  0  0  0
  -23.1482  -22.1447   20.8374 C   0  0  0  0  0  0  0  0  0  0  0  0
  -27.3070  -22.7282   25.2840 C   0  0  0  0  0  0  0  0  0  0  0  0
  -19.2062  -29.0988   24.6022 C   0  0  1  0  0  0  0  0  0  0  0  0
  -15.5919  -29.2538   23.4700 C   0  0  2  0  0  0  0  0  0  0  0  0
  -22.9297  -23.1006   19.6692 C   0  0  2  0  0  0  0  0  0  1  0  0
  -19.5777  -29.2735   26.1019 C   0  0  0  0  0  0  0  0  0  0  0  0
  -27.2211  -17.0907   20.4668 N   0  0  0  0  0  0  0  0  0  0  0  0
  -27.0011  -18.3612   20.0879 N   0  0  0  0  0  0  0  0  0  0  0  0
  -20.8425  -29.1695   22.7471 N   0  0  0  0  0  0  0  0  0  0  0  0
  -29.5245  -20.2031   22.2898 N   0  0  0  0  0  0  0  0  0  0  0  0
  -25.5132  -19.7352   18.8595 N   0  0  0  0  0  0  0  0  0  0  0  0
  -23.7130  -15.6146   18.4400 N   0  0  0  0  0  0  0  0  0  0  0  0
  -24.0621  -30.6988   22.5864 N   0  0  0  0  0  0  0  0  0  0  0  0
  -17.8393  -29.4904   24.2757 N   0  0  0  0  0  0  0  0  0  0  0  0
  -28.3739  -20.7498   24.2825 N   0  0  0  0  0  0  0  0  0  0  0  0
  -23.5907  -22.8875   22.0683 N   0  3  0  0  0  0  0  0  0  0  0  0
  -25.9602  -22.3291   24.8015 N   0  3  0  0  0  0  0  0  0  0  0  0
  -14.9582  -28.6929   22.2433 N   0  3  0  0  0  0  0  0  0  0  0  0
  -23.4739  -17.8192   17.8561 O   0  0  0  0  0  0  0  0  0  0  0  0
  -23.3684  -28.5907   23.2916 O   0  0  0  0  0  0  0  0  0  0  0  0
  -20.1438  -31.1264   23.8048 O   0  0  0  0  0  0  0  0  0  0  0  0
  -17.1838  -27.4371   23.4206 O   0  0  0  0  0  0  0  0  0  0  0  0
  -30.2847  -21.8769   23.7035 O   0  0  0  0  0  0  0  0  0  0  0  0
  -25.7237  -10.9036   20.6308 O   0  0  0  0  0  0  0  0  0  0  0  0
  -21.6923  -23.7861   19.8577 O   0  0  0  0  0  0  0  0  0  1  0  0
  -20.7461   -8.9102   21.9166 F   0  0  0  0  0  0  0  0  0  0  0  0
  -25.3180   -9.5122   22.9849 F   0  0  0  0  0  0  0  0  0  0  0  0
  1  2  1  0  0  0  0
  1  5  2  0  0  0  0
  2  6  2  0  0  0  0
  3  8  2  0  0  0  0
  3 15  1  0  0  0  0
  4  9  1  0  0  0  0
  4 15  2  0  0  0  0
  5 17  1  0  0  0  0
  6 19  1  0  0  0  0
  7 10  2  0  0  0  0
  7 18  1  0  0  0  0
  8 21  1  0  0  0  0
  9 21  2  0  0  0  0
 10 22  1  0  0  0  0
 11 12  2  0  0  0  0
 11 23  1  0  0  0  0
 12 24  1  0  0  0  0
 13 20  1  0  0  0  0
 13 22  2  0  0  0  0
 14 24  2  0  0  0  0
 14 25  1  0  0  0  0
 15 26  1  0  0  0  0
 16 26  1  0  0  0  0
 16 27  2  0  0  0  0
 16 28  1  0  0  0  0
 17 19  2  0  0  0  0
 17 33  1  0  0  0  0
 18 20  2  0  0  0  0
 18 34  1  0  0  0  0
 19 46  1  0  0  0  0
 20 35  1  0  0  0  0
 21 80  1  0  0  0  0
 22 81  1  0  0  0  0
 23 25  2  0  0  0  0
 23 80  1  0  0  0  0
 24 82  1  0  0  0  0
 25 83  1  0  0  0  0
 26 63  2  0  0  0  0
 27 64  1  0  0  0  0
 27 67  1  0  0  0  0
 28 68  1  0  0  0  0
 28 75  2  0  0  0  0
 29 47  1  0  0  0  0
 29 69  1  0  0  0  0
 29 76  2  0  0  0  0
 30 59  1  0  0  0  0
 30 65  1  0  0  0  0
 30 77  2  0  0  0  0
 31 60  1  0  0  0  0
 31 70  1  0  0  0  0
 31 78  2  0  0  0  0
 32 66  1  0  0  0  0
 32 71  1  0  0  0  0
 32 79  2  0  0  0  0
 33 36  1  0  0  0  0
 34 47  1  0  0  0  0
 35 65  1  0  0  0  0
 36 38  1  0  0  0  0
 37 39  1  0  0  0  0
 37 42  1  0  0  0  0
 38 46  1  0  0  0  0
 39 48  1  0  0  0  0
 40 44  1  0  0  0  0
 40 49  1  0  0  0  0
 41 45  1  0  0  0  0
 41 49  1  0  0  0  0
 42 66  1  0  0  0  0
 43 48  1  0  0  0  0
 43 66  1  0  0  0  0
 44 72  1  0  0  0  0
 45 72  1  0  0  0  0
 46 69  1  0  0  0  0
 47 65  1  0  0  0  0
 48 64  1  0  0  0  0
 49 73  1  0  0  0  0
 50 60  1  0  0  0  0
 51 61  1  0  0  0  0
 52 62  1  0  0  0  0
 53 62  1  0  0  0  0
 54 62  1  0  0  0  0
 55 74  1  0  0  0  0
 56 58  1  0  0  0  0
 56 71  1  0  0  0  0
 57 61  1  0  0  0  0
 57 72  1  0  0  0  0
 58 73  1  0  0  0  0
 59 62  1  0  0  0  0
 59 70  1  0  0  0  0
 60 74  1  0  0  0  0
 61 81  1  0  0  0  0
 63 64  1  0  0  0  0
M  CHG  3  72   1  73   1  74   1
M  ISO  4  32 100  61 101  71 100  81 101
M  END
> <Batch ID>
0128

> <Smiles>
CNC(C)C(=O)NC(C(=O)N1Cc2cc([101O:1][101CH:1](C)CN3CCC(NCC[100NH:0][100C:0](=O)N4CCCC(n5nc(-c6ccc(Oc7ccc(F)cc7F)cc6)c(C(N)=O)c5N)C4)CC3)ccc2CC1C(=O)NC1CCCc2ccccc21)C(C)(C)C

> <Shape>
0.229

> <Color>
0.041

> <Negative vol penalty>
0.000

$$$$

  -OEChem-04052320423D

 84 93  0     1  0  0  0  0  0999 V2000
  -26.5959  -37.3302   27.6505 C   0  0  0  0  0  0  0  0  0  0  0  0
  -26.5656  -35.9578   27.8762 C   0  0  0  0  0  0  0  0  0  0  0  0
  -23.0932  -12.4445   23.2300 C   0  0  0  0  0  0  0  0  0  0  0  0
  -24.2599  -10.3392   23.0211 C   0  0  0  0  0  0  0  0  0  0  0  0
  -25.9150  -37.8715   26.5609 C   0  0  0  0  0  0  0  0  0  0  0  0
  -25.8532  -35.1259   27.0130 C   0  0  0  0  0  0  0  0  0  0  0  0
  -28.2637  -28.9228   22.9218 C   0  0  0  0  0  0  0  0  0  0  0  0
  -22.4645  -11.9814   24.3859 C   0  0  0  0  0  0  0  0  0  0  0  0
  -23.6312   -9.8761   24.1769 C   0  0  0  0  0  0  0  0  0  0  0  0
  -28.6082  -27.9075   22.0293 C   0  0  0  0  0  0  0  0  0  0  0  0
  -20.6096   -8.6290   25.0404 C   0  0  0  0  0  0  0  0  0  0  0  0
  -20.0821   -7.3380   25.0183 C   0  0  0  0  0  0  0  0  0  0  0  0
  -26.7824  -28.5482   20.5789 C   0  0  0  0  0  0  0  0  0  0  0  0
  -21.5317   -6.7143   26.8477 C   0  0  0  0  0  0  0  0  0  0  0  0
  -23.9908  -11.6233   22.5476 C   0  0  0  0  0  0  0  0  0  0  0  0
  -24.0226  -12.5203   20.1597 C   0  0  0  0  0  0  0  0  0  0  0  0
  -25.2019  -37.0448   25.6784 C   0  0  0  0  0  0  0  0  0  0  0  0
  -27.1853  -29.7655   22.6383 C   0  0  0  0  0  0  0  0  0  0  0  0
  -25.1610  -35.6568   25.9114 C   0  0  0  0  0  0  0  0  0  0  0  0
  -26.4403  -29.5749   21.4630 C   0  0  0  0  0  0  0  0  0  0  0  0
  -22.7336  -10.6972   24.8593 C   0  0  0  0  0  0  0  0  0  0  0  0
  -27.8692  -27.7205   20.8609 C   0  0  0  0  0  0  0  0  0  0  0  0
  -21.5983   -8.9627   25.9661 C   0  0  0  0  0  0  0  0  0  0  0  0
  -20.5431   -6.3807   25.9220 C   0  0  0  0  0  0  0  0  0  0  0  0
  -22.0593   -8.0054   26.8698 C   0  0  0  0  0  0  0  0  0  0  0  0
  -24.6401  -12.1009   21.3532 C   0  0  0  0  0  0  0  0  0  0  0  0
  -25.0657  -12.8756   19.3399 C   0  0  0  0  0  0  0  0  0  0  0  0
  -22.6305  -12.5833   19.8223 C   0  0  0  0  0  0  0  0  0  0  0  0
  -25.0905  -32.6854   23.7163 C   0  0  0  0  0  0  0  0  0  0  0  0
  -25.5090  -32.9582   20.6896 C   0  0  0  0  0  0  0  0  0  0  0  0
  -26.5538  -33.1197   17.4462 C   0  0  0  0  0  0  0  0  0  0  0  0
  -30.6645  -14.7004   20.4234 C   0  0  0  0  0  0  0  0  0  0  0  0
  -24.4423  -37.6811   24.5414 C   0  0  0  0  0  0  0  0  0  0  0  0
  -26.7404  -30.8331   23.6007 C   0  0  0  0  0  0  0  0  0  0  0  0
  -25.2670  -30.4834   21.2162 C   0  0  0  0  0  0  0  0  0  0  0  0
  -24.0206  -36.6893   23.4602 C   0  0  0  0  0  0  0  0  0  0  0  0
  -29.6680  -11.8806   18.4914 C   0  0  0  0  0  0  0  0  0  0  0  0
  -23.4059  -35.4431   24.0894 C   0  0  0  0  0  0  0  0  0  0  0  0
  -28.2107  -11.6552   18.8981 C   0  0  0  0  0  0  0  0  0  0  0  0
  -27.9325  -24.3637   20.2540 C   0  0  0  0  0  0  0  0  0  0  0  0
  -30.2201  -25.3895   19.9453 C   0  0  0  0  0  0  0  0  0  0  0  0
  -28.5777  -23.0627   20.7160 C   0  0  0  0  0  0  0  0  0  0  0  0
  -30.8654  -24.0889   20.4081 C   0  0  0  0  0  0  0  0  0  0  0  0
  -30.3856  -18.0018   20.0694 C   0  0  0  0  0  0  0  0  0  0  0  0
  -30.5181  -12.3444   19.6722 C   0  0  0  0  0  0  0  0  0  0  0  0
  -28.5412  -13.3025   20.7891 C   0  0  0  0  0  0  0  0  0  0  0  0
  -30.1220  -17.7966   22.4232 C   0  0  0  0  0  0  0  0  0  0  0  0
  -24.4198  -34.7190   24.9833 C   0  0  1  0  0  0  0  0  0  0  0  0
  -26.1993  -32.0913   22.8983 C   0  0  1  0  0  0  0  0  0  0  0  0
  -27.6326  -12.8878   19.6191 C   0  0  2  0  0  0  0  0  0  0  0  0
  -30.6485  -17.0403   21.2176 C   0  0  1  0  0  0  0  0  0  0  0  0
  -28.8251  -25.5691   20.5435 C   0  0  0  0  0  0  0  0  0  1  0  0
  -29.9731  -22.8834   20.1184 C   0  0  0  0  0  0  0  0  0  0  0  0
  -30.8120  -19.3424   20.6563 C   0  0  1  0  0  0  0  0  0  0  0  0
  -26.3358  -34.5179   15.3738 C   0  0  0  0  0  0  0  0  0  0  0  0
  -22.7162  -31.8242   20.2228 C   0  0  0  0  0  0  0  0  0  0  0  0
  -22.9443  -32.4461   17.8084 C   0  0  0  0  0  0  0  0  0  0  0  0
  -22.9936  -34.2201   19.5616 C   0  0  0  0  0  0  0  0  0  0  0  0
  -29.4594  -33.6780   17.3772 C   0  0  0  0  0  0  0  0  0  0  0  0
  -30.1167  -20.5391   20.0389 C   0  0  0  0  0  0  0  0  0  0  0  0
  -24.9767  -32.6724   19.3082 C   0  0  1  0  0  0  0  0  0  0  0  0
  -27.1462  -34.2571   16.6340 C   0  0  2  0  0  0  0  0  0  0  0  0
  -23.4268  -32.7736   19.2377 C   0  0  0  0  0  0  0  0  0  0  0  0
  -25.9723  -12.1815   21.3005 N   0  0  0  0  0  0  0  0  0  0  0  0
  -26.2004  -12.6556   20.0638 N   0  0  0  0  0  0  0  0  0  0  0  0
  -25.6228  -31.8686   21.5615 N   0  0  0  0  0  0  0  0  0  0  0  0
  -29.9160  -13.5172   20.3109 N   0  0  0  0  0  0  0  0  0  0  0  0
  -25.1138  -13.3515   18.0775 N   0  0  0  0  0  0  0  0  0  0  0  0
  -21.6916  -12.1806   20.7818 N   0  0  0  0  0  0  0  0  0  0  0  0
  -25.3532  -33.9611   24.1778 N   0  0  0  0  0  0  0  0  0  0  0  0
  -25.6765  -33.5798   18.4052 N   0  0  0  0  0  0  0  0  0  0  0  0
  -30.0167  -15.7661   21.0360 N   0  0  0  0  0  0  0  0  0  0  0  0
  -30.4553  -19.2317   22.1182 N   0  3  0  0  0  0  0  0  0  0  0  0
  -28.5453  -33.9346   16.2346 N   0  3  0  0  0  0  0  0  0  0  0  0
  -22.2317  -12.9693   18.6973 O   0  0  0  0  0  0  0  0  0  0  0  0
  -24.0704  -32.0358   23.9136 O   0  0  0  0  0  0  0  0  0  0  0  0
  -25.8112  -34.1160   20.9919 O   0  0  0  0  0  0  0  0  0  0  0  0
  -26.8380  -31.9406   17.2472 O   0  0  0  0  0  0  0  0  0  0  0  0
  -31.8224  -14.8013   20.0039 O   0  0  0  0  0  0  0  0  0  0  0  0
  -22.1205  -10.2451   25.9873 O   0  0  0  0  0  0  0  0  0  0  0  0
  -28.2138  -26.7302   19.9918 O   0  0  0  0  0  0  0  0  0  1  0  0
  -30.5845  -21.7224   20.6701 O   0  0  0  0  0  0  0  0  0  0  0  0
  -20.0352   -5.1413   25.9016 F   0  0  0  0  0  0  0  0  0  0  0  0
  -23.0081   -8.3204   27.7622 F   0  0  0  0  0  0  0  0  0  0  0  0
  1  2  1  0  0  0  0
  1  5  2  0  0  0  0
  2  6  2  0  0  0  0
  3  8  2  0  0  0  0
  3 15  1  0  0  0  0
  4  9  1  0  0  0  0
  4 15  2  0  0  0  0
  5 17  1  0  0  0  0
  6 19  1  0  0  0  0
  7 10  2  0  0  0  0
  7 18  1  0  0  0  0
  8 21  1  0  0  0  0
  9 21  2  0  0  0  0
 10 22  1  0  0  0  0
 11 12  2  0  0  0  0
 11 23  1  0  0  0  0
 12 24  1  0  0  0  0
 13 20  1  0  0  0  0
 13 22  2  0  0  0  0
 14 24  2  0  0  0  0
 14 25  1  0  0  0  0
 15 26  1  0  0  0  0
 16 26  1  0  0  0  0
 16 27  2  0  0  0  0
 16 28  1  0  0  0  0
 17 19  2  0  0  0  0
 17 33  1  0  0  0  0
 18 20  2  0  0  0  0
 18 34  1  0  0  0  0
 19 48  1  0  0  0  0
 20 35  1  0  0  0  0
 21 80  1  0  0  0  0
 22 81  1  0  0  0  0
 23 25  2  0  0  0  0
 23 80  1  0  0  0  0
 24 83  1  0  0  0  0
 25 84  1  0  0  0  0
 26 64  2  0  0  0  0
 27 65  1  0  0  0  0
 27 68  1  0  0  0  0
 28 69  1  0  0  0  0
 28 75  2  0  0  0  0
 29 49  1  0  0  0  0
 29 70  1  0  0  0  0
 29 76  2  0  0  0  0
 30 61  1  0  0  0  0
 30 66  1  0  0  0  0
 30 77  2  0  0  0  0
 31 62  1  0  0  0  0
 31 71  1  0  0  0  0
 31 78  2  0  0  0  0
 32 67  1  0  0  0  0
 32 72  1  0  0  0  0
 32 79  2  0  0  0  0
 33 36  1  0  0  0  0
 34 49  1  0  0  0  0
 35 66  1  0  0  0  0
 36 38  1  0  0  0  0
 37 39  1  0  0  0  0
 37 45  1  0  0  0  0
 38 48  1  0  0  0  0
 39 50  1  0  0  0  0
 40 42  1  0  0  0  0
 40 52  1  0  0  0  0
 41 43  1  0  0  0  0
 41 52  1  0  0  0  0
 42 53  1  0  0  0  0
 43 53  1  0  0  0  0
 44 51  1  0  0  0  0
 44 54  1  0  0  0  0
 45 67  1  0  0  0  0
 46 50  1  0  0  0  0
 46 67  1  0  0  0  0
 47 51  1  0  0  0  0
 47 73  1  0  0  0  0
 48 70  1  0  0  0  0
 49 66  1  0  0  0  0
 50 65  1  0  0  0  0
 51 72  1  0  0  0  0
 52 81  1  0  0  0  0
 53 82  1  0  0  0  0
 54 60  1  0  0  0  0
 54 73  1  0  0  0  0
 55 62  1  0  0  0  0
 56 63  1  0  0  0  0
 57 63  1  0  0  0  0
 58 63  1  0  0  0  0
 59 74  1  0  0  0  0
 60 82  1  0  0  0  0
 61 63  1  0  0  0  0
 61 71  1  0  0  0  0
 62 74  1  0  0  0  0
 64 65  1  0  0  0  0
M  CHG  2  73   1  74   1
M  ISO  4  32 100  52 101  72 100  81 101
M  END
> <Batch ID>
0128

> <Smiles>
CNC(C)C(=O)NC(C(=O)N1Cc2cc([101O:1][101CH:1]3CCC(OCC4CC([100NH:0][100C:0](=O)N5CCCC(n6nc(-c7ccc(Oc8ccc(F)cc8F)cc7)c(C(N)=O)c6N)C5)CN4)CC3)ccc2CC1C(=O)NC1CCCc2ccccc21)C(C)(C)C

> <Shape>
0.270

> <Color>
0.120

> <Negative vol penalty>
0.000

$$$$

  -OEChem-04052320423D

 83 91  0     1  0  0  0  0  0999 V2000
  -24.4991  -30.4863   17.6682 C   0  0  0  0  0  0  0  0  0  0  0  0
  -23.8428  -29.2741   17.4807 C   0  0  0  0  0  0  0  0  0  0  0  0
  -30.6337  -20.0359   19.6069 C   0  0  0  0  0  0  0  0  0  0  0  0
  -28.3694  -19.7244   20.3900 C   0  0  0  0  0  0  0  0  0  0  0  0
  -25.5485  -30.5756   18.5819 C   0  0  0  0  0  0  0  0  0  0  0  0
  -24.2363  -28.1501   18.2062 C   0  0  0  0  0  0  0  0  0  0  0  0
  -21.5649  -22.1965   21.1617 C   0  0  0  0  0  0  0  0  0  0  0  0
  -22.9197  -15.9339   20.2684 C   0  0  0  0  0  0  0  0  0  0  0  0
  -23.2507  -14.5895   20.4379 C   0  0  0  0  0  0  0  0  0  0  0  0
  -30.2988  -21.3087   19.1449 C   0  0  0  0  0  0  0  0  0  0  0  0
  -28.0346  -20.9972   19.9280 C   0  0  0  0  0  0  0  0  0  0  0  0
  -21.7702  -20.8176   21.1802 C   0  0  0  0  0  0  0  0  0  0  0  0
  -29.8483  -24.3944   20.4520 C   0  0  0  0  0  0  0  0  0  0  0  0
  -30.7311  -25.4379   20.7299 C   0  0  0  0  0  0  0  0  0  0  0  0
  -23.5440  -21.1094   22.7889 C   0  0  0  0  0  0  0  0  0  0  0  0
  -22.3750  -16.0958   22.6167 C   0  0  0  0  0  0  0  0  0  0  0  0
  -31.0162  -25.8273   18.3626 C   0  0  0  0  0  0  0  0  0  0  0  0
  -29.6690  -19.2437   20.2294 C   0  0  0  0  0  0  0  0  0  0  0  0
  -30.9898  -17.6017   21.6670 C   0  0  0  0  0  0  0  0  0  0  0  0
  -25.9487  -29.4545   19.3259 C   0  0  0  0  0  0  0  0  0  0  0  0
  -22.3562  -23.0446   21.9497 C   0  0  0  0  0  0  0  0  0  0  0  0
  -25.2929  -28.2241   19.1297 C   0  0  0  0  0  0  0  0  0  0  0  0
  -23.3450  -22.4984   22.7805 C   0  0  0  0  0  0  0  0  0  0  0  0
  -22.4819  -16.6871   21.3578 C   0  0  0  0  0  0  0  0  0  0  0  0
  -23.1439  -13.9983   21.6967 C   0  0  0  0  0  0  0  0  0  0  0  0
  -22.7060  -14.7514   22.7862 C   0  0  0  0  0  0  0  0  0  0  0  0
  -28.9993  -21.7894   19.3055 C   0  0  0  0  0  0  0  0  0  0  0  0
  -22.7618  -20.2741   21.9917 C   0  0  0  0  0  0  0  0  0  0  0  0
  -29.5495  -24.0672   19.1293 C   0  0  0  0  0  0  0  0  0  0  0  0
  -31.3151  -26.1544   19.6853 C   0  0  0  0  0  0  0  0  0  0  0  0
  -30.1334  -24.7837   18.0846 C   0  0  0  0  0  0  0  0  0  0  0  0
  -30.0141  -17.9286   20.7063 C   0  0  0  0  0  0  0  0  0  0  0  0
  -30.9290  -16.2331   21.7661 C   0  0  0  0  0  0  0  0  0  0  0  0
  -31.8720  -18.4585   22.4040 C   0  0  0  0  0  0  0  0  0  0  0  0
  -24.3907  -25.4122   21.3504 C   0  0  0  0  0  0  0  0  0  0  0  0
  -24.3942  -25.7056   24.5809 C   0  0  0  0  0  0  0  0  0  0  0  0
  -23.8895  -24.2442   27.6234 C   0  0  0  0  0  0  0  0  0  0  0  0
  -26.5914  -12.2541   20.6691 C   0  0  0  0  0  0  0  0  0  0  0  0
  -27.1193  -29.5882   20.2674 C   0  0  0  0  0  0  0  0  0  0  0  0
  -22.1044  -24.5274   21.9386 C   0  0  0  0  0  0  0  0  0  0  0  0
  -24.2080  -23.3638   23.6607 C   0  0  0  0  0  0  0  0  0  0  0  0
  -27.2290  -28.4419   21.2695 C   0  0  0  0  0  0  0  0  0  0  0  0
  -29.8382  -12.3385   19.2102 C   0  0  0  0  0  0  0  0  0  0  0  0
  -27.0589  -27.0994   20.5655 C   0  0  0  0  0  0  0  0  0  0  0  0
  -30.3394  -13.7513   19.5149 C   0  0  0  0  0  0  0  0  0  0  0  0
  -28.3398  -12.3227   18.9155 C   0  0  0  0  0  0  0  0  0  0  0  0
  -27.9995  -14.3621   20.2566 C   0  0  0  0  0  0  0  0  0  0  0  0
  -25.6743  -26.9886   19.9159 C   0  0  1  0  0  0  0  0  0  0  0  0
  -23.3115  -25.3419   22.3935 C   0  0  1  0  0  0  0  0  0  0  0  0
  -29.4943  -14.4210   20.6150 C   0  0  2  0  0  0  0  0  0  0  0  0
  -21.1346  -14.1530   24.6640 C   0  0  0  0  0  0  0  0  0  0  0  0
  -23.5166  -14.8032   25.1724 C   0  0  0  0  0  0  0  0  0  0  0  0
  -24.0082  -24.7247   30.0835 C   0  0  0  0  0  0  0  0  0  0  0  0
  -27.4369  -25.5060   24.4706 C   0  0  0  0  0  0  0  0  0  0  0  0
  -27.4257  -25.0369   26.9299 C   0  0  0  0  0  0  0  0  0  0  0  0
  -26.5609  -27.2143   26.0734 C   0  0  0  0  0  0  0  0  0  0  0  0
  -21.0021  -23.7053   27.9859 C   0  0  0  0  0  0  0  0  0  0  0  0
  -23.5028  -12.5571   21.8535 C   0  0  0  0  0  0  0  0  0  0  0  0
  -22.1254  -18.1330   21.1752 C   0  0  0  0  0  0  0  0  0  1  0  0
  -24.8875  -12.3349   22.4716 C   0  0  0  0  0  0  0  0  0  0  0  0
  -22.5834  -14.1397   24.1432 C   0  0  0  0  0  0  0  0  0  0  0  0
  -25.2051  -25.1120   25.7075 C   0  0  1  0  0  0  0  0  0  0  0  0
  -23.1214  -24.7071   28.8482 C   0  0  2  0  0  0  0  0  0  0  0  0
  -26.6423  -25.7009   25.7774 C   0  0  0  0  0  0  0  0  0  0  0  0
  -29.3801  -16.8542   20.2290 N   0  0  0  0  0  0  0  0  0  0  0  0
  -29.9587  -15.8388   20.8925 N   0  0  0  0  0  0  0  0  0  0  0  0
  -23.9275  -24.8082   23.6100 N   0  0  0  0  0  0  0  0  0  0  0  0
  -27.5955  -12.9712   19.9978 N   0  0  0  0  0  0  0  0  0  0  0  0
  -31.6116  -15.3406   22.5144 N   0  0  0  0  0  0  0  0  0  0  0  0
  -31.4392  -18.9597   23.6393 N   0  0  0  0  0  0  0  0  0  0  0  0
  -24.6695  -26.6935   20.9147 N   0  0  0  0  0  0  0  0  0  0  0  0
  -24.4201  -25.3061   26.9218 N   0  0  0  0  0  0  0  0  0  0  0  0
  -25.9392  -12.9408   21.6858 N   0  0  0  0  0  0  0  0  0  0  0  0
  -21.9686  -23.7998   29.1102 N   0  3  0  0  0  0  0  0  0  0  0  0
  -33.0040  -18.7836   21.9722 O   0  0  0  0  0  0  0  0  0  0  0  0
  -24.9316  -24.3803   20.9702 O   0  0  0  0  0  0  0  0  0  0  0  0
  -24.1767  -26.9197   24.5669 O   0  0  0  0  0  0  0  0  0  0  0  0
  -24.0101  -23.0590   27.3214 O   0  0  0  0  0  0  0  0  0  0  0  0
  -26.3017  -11.0864   20.3870 O   0  0  0  0  0  0  0  0  0  0  0  0
  -28.6723  -23.0314   18.8550 O   0  0  0  0  0  0  0  0  0  0  0  0
  -22.9647  -18.9286   22.0112 O   0  0  0  0  0  0  0  0  0  1  0  0
  -32.1616  -27.1575   19.9523 F   0  0  0  0  0  0  0  0  0  0  0  0
  -29.8493  -24.4748   16.8120 F   0  0  0  0  0  0  0  0  0  0  0  0
  1  2  1  0  0  0  0
  1  5  2  0  0  0  0
  2  6  2  0  0  0  0
  3 10  2  0  0  0  0
  3 18  1  0  0  0  0
  4 11  1  0  0  0  0
  4 18  2  0  0  0  0
  5 20  1  0  0  0  0
  6 22  1  0  0  0  0
  7 12  2  0  0  0  0
  7 21  1  0  0  0  0
  8  9  2  0  0  0  0
  8 24  1  0  0  0  0
  9 25  1  0  0  0  0
 10 27  1  0  0  0  0
 11 27  2  0  0  0  0
 12 28  1  0  0  0  0
 13 14  2  0  0  0  0
 13 29  1  0  0  0  0
 14 30  1  0  0  0  0
 15 23  1  0  0  0  0
 15 28  2  0  0  0  0
 16 24  2  0  0  0  0
 16 26  1  0  0  0  0
 17 30  2  0  0  0  0
 17 31  1  0  0  0  0
 18 32  1  0  0  0  0
 19 32  1  0  0  0  0
 19 33  2  0  0  0  0
 19 34  1  0  0  0  0
 20 22  2  0  0  0  0
 20 39  1  0  0  0  0
 21 23  2  0  0  0  0
 21 40  1  0  0  0  0
 22 48  1  0  0  0  0
 23 41  1  0  0  0  0
 24 59  1  0  0  0  0
 25 26  2  0  0  0  0
 25 58  1  0  0  0  0
 26 61  1  0  0  0  0
 27 80  1  0  0  0  0
 28 81  1  0  0  0  0
 29 31  2  0  0  0  0
 29 80  1  0  0  0  0
 30 82  1  0  0  0  0
 31 83  1  0  0  0  0
 32 65  2  0  0  0  0
 33 66  1  0  0  0  0
 33 69  1  0  0  0  0
 34 70  1  0  0  0  0
 34 75  2  0  0  0  0
 35 49  1  0  0  0  0
 35 71  1  0  0  0  0
 35 76  2  0  0  0  0
 36 62  1  0  0  0  0
 36 67  1  0  0  0  0
 36 77  2  0  0  0  0
 37 63  1  0  0  0  0
 37 72  1  0  0  0  0
 37 78  2  0  0  0  0
 38 68  1  0  0  0  0
 38 73  1  0  0  0  0
 38 79  2  0  0  0  0
 39 42  1  0  0  0  0
 40 49  1  0  0  0  0
 41 67  1  0  0  0  0
 42 44  1  0  0  0  0
 43 45  1  0  0  0  0
 43 46  1  0  0  0  0
 44 48  1  0  0  0  0
 45 50  1  0  0  0  0
 46 68  1  0  0  0  0
 47 50  1  0  0  0  0
 47 68  1  0  0  0  0
 48 71  1  0  0  0  0
 49 67  1  0  0  0  0
 50 66  1  0  0  0  0
 51 61  1  0  0  0  0
 52 61  1  0  0  0  0
 53 63  1  0  0  0  0
 54 64  1  0  0  0  0
 55 64  1  0  0  0  0
 56 64  1  0  0  0  0
 57 74  1  0  0  0  0
 58 60  1  0  0  0  0
 59 81  1  0  0  0  0
 60 73  1  0  0  0  0
 62 64  1  0  0  0  0
 62 72  1  0  0  0  0
 63 74  1  0  0  0  0
 65 66  1  0  0  0  0
M  CHG  1  74   1
M  ISO  4  38 100  59 101  73 100  81 101
M  END
> <Batch ID>
0128

> <Smiles>
CNC(C)C(=O)NC(C(=O)N1Cc2cc([101O:1][101CH2:1]c3ccc(CC[100NH:0][100C:0](=O)N4CCCC(n5nc(-c6ccc(Oc7ccc(F)cc7F)cc6)c(C(N)=O)c5N)C4)c(C(C)C)c3)ccc2CC1C(=O)NC1CCCc2ccccc21)C(C)(C)C

> <Shape>
0.207

> <Color>
0.063

> <Negative vol penalty>
0.000

$$$$

  -OEChem-04052320423D

 90 99  0     1  0  0  0  0  0999 V2000
  -16.8086  -29.2899   23.6826 C   0  0  0  0  0  0  0  0  0  0  0  0
  -17.5198  -28.1731   23.2554 C   0  0  0  0  0  0  0  0  0  0  0  0
  -23.2498  -11.8904   23.1643 C   0  0  0  0  0  0  0  0  0  0  0  0
  -22.5765  -13.8829   21.9753 C   0  0  0  0  0  0  0  0  0  0  0  0
  -17.4128  -30.5464   23.6702 C   0  0  0  0  0  0  0  0  0  0  0  0
  -18.8354  -28.3124   22.8146 C   0  0  0  0  0  0  0  0  0  0  0  0
  -30.3050  -20.1909   19.1607 C   0  0  0  0  0  0  0  0  0  0  0  0
  -23.4061  -24.3019   23.5424 C   0  0  0  0  0  0  0  0  0  0  0  0
  -30.2390  -18.8146   19.3770 C   0  0  0  0  0  0  0  0  0  0  0  0
  -22.2467  -12.1141   24.1073 C   0  0  0  0  0  0  0  0  0  0  0  0
  -21.5733  -14.1066   22.9183 C   0  0  0  0  0  0  0  0  0  0  0  0
  -23.9525  -23.3385   22.6955 C   0  0  0  0  0  0  0  0  0  0  0  0
  -18.4804  -12.9225   23.5909 C   0  0  0  0  0  0  0  0  0  0  0  0
  -17.2154  -13.2721   23.1186 C   0  0  0  0  0  0  0  0  0  0  0  0
  -25.6698  -24.8997   22.0375 C   0  0  0  0  0  0  0  0  0  0  0  0
  -28.0211  -18.7705   18.4199 C   0  0  0  0  0  0  0  0  0  0  0  0
  -17.3357  -15.3545   24.3377 C   0  0  0  0  0  0  0  0  0  0  0  0
  -23.4148  -12.7748   22.0983 C   0  0  0  0  0  0  0  0  0  0  0  0
  -24.3488  -11.7999   19.9339 C   0  0  0  0  0  0  0  0  0  0  0  0
  -18.7396  -30.6997   23.2381 C   0  0  0  0  0  0  0  0  0  0  0  0
  -23.9820  -25.5771   23.6351 C   0  0  0  0  0  0  0  0  0  0  0  0
  -19.4574  -29.5723   22.7951 C   0  0  0  0  0  0  0  0  0  0  0  0
  -29.2290  -20.8571   18.5740 C   0  0  0  0  0  0  0  0  0  0  0  0
  -25.1303  -25.8766   22.8882 C   0  0  0  0  0  0  0  0  0  0  0  0
  -28.0871  -20.1469   18.2036 C   0  0  0  0  0  0  0  0  0  0  0  0
  -29.0971  -18.1043   19.0066 C   0  0  0  0  0  0  0  0  0  0  0  0
  -21.4084  -13.2222   23.9843 C   0  0  0  0  0  0  0  0  0  0  0  0
  -25.0827  -23.6383   21.9407 C   0  0  0  0  0  0  0  0  0  0  0  0
  -19.1731  -13.7889   24.4367 C   0  0  0  0  0  0  0  0  0  0  0  0
  -16.6431  -14.4881   23.4919 C   0  0  0  0  0  0  0  0  0  0  0  0
  -18.6008  -15.0049   24.8100 C   0  0  0  0  0  0  0  0  0  0  0  0
  -24.4512  -12.5446   21.1242 C   0  0  0  0  0  0  0  0  0  0  0  0
  -25.5972  -11.8847   19.3674 C   0  0  0  0  0  0  0  0  0  0  0  0
  -23.2257  -11.0947   19.3890 C   0  0  0  0  0  0  0  0  0  0  0  0
  -22.9970  -28.5340   23.0109 C   0  0  0  0  0  0  0  0  0  0  0  0
  -25.8460  -29.3449   24.3328 C   0  0  0  0  0  0  0  0  0  0  0  0
  -29.0450  -28.4392   25.1032 C   0  0  0  0  0  0  0  0  0  0  0  0
  -30.0094  -15.8917   19.7929 C   0  0  0  0  0  0  0  0  0  0  0  0
  -19.3346  -32.0850   23.1980 C   0  0  0  0  0  0  0  0  0  0  0  0
  -23.3964  -26.5963   24.5735 C   0  0  0  0  0  0  0  0  0  0  0  0
  -25.7985  -27.2241   22.9671 C   0  0  0  0  0  0  0  0  0  0  0  0
  -20.8557  -32.0911   23.0695 C   0  0  0  0  0  0  0  0  0  0  0  0
  -30.2112  -12.4153   20.5353 C   0  0  0  0  0  0  0  0  0  0  0  0
  -30.6696  -24.1577   17.2421 C   0  0  0  0  0  0  0  0  0  0  0  0
  -30.4920  -22.6509   17.4074 C   0  0  0  0  0  0  0  0  0  0  0  0
  -21.3038  -31.1156   21.9859 C   0  0  0  0  0  0  0  0  0  0  0  0
  -28.7476  -11.9849   20.6562 C   0  0  0  0  0  0  0  0  0  0  0  0
  -30.4377  -13.8187   21.0946 C   0  0  0  0  0  0  0  0  0  0  0  0
  -28.0877  -14.4244   20.6703 C   0  0  0  0  0  0  0  0  0  0  0  0
  -30.8256  -24.8574   18.5841 C   0  0  0  0  0  0  0  0  0  0  0  0
  -29.4912  -23.0483   19.6990 C   0  0  0  0  0  0  0  0  0  0  0  0
  -29.3226  -22.3313   18.3532 C   0  0  2  0  0  0  0  0  0  0  0  0
  -20.8946  -29.6792   22.3332 C   0  0  1  0  0  0  0  0  0  0  0  0
  -23.7619  -28.0301   24.2019 C   0  0  1  0  0  0  0  0  0  0  0  0
  -27.7980  -13.0430   20.0610 C   0  0  2  0  0  0  0  0  0  0  0  0
  -31.1465  -29.3277   26.1480 C   0  0  0  0  0  0  0  0  0  0  0  0
  -26.4173  -30.9578   21.8066 C   0  0  0  0  0  0  0  0  0  0  0  0
  -28.8290  -31.0208   22.4759 C   0  0  0  0  0  0  0  0  0  0  0  0
  -27.1033  -32.0762   23.9357 C   0  0  0  0  0  0  0  0  0  0  0  0
  -28.9967  -26.3803   27.2286 C   0  0  0  0  0  0  0  0  0  0  0  0
  -26.9185  -20.8418   17.5692 C   0  0  0  0  0  0  0  0  0  0  0  0
  -29.6788  -25.3023   20.7528 C   0  0  0  0  0  0  0  0  0  0  0  0
  -25.4808  -20.8264   19.6116 C   0  0  0  0  0  0  0  0  0  0  0  0
  -29.2060  -26.7214   20.5066 C   0  0  0  0  0  0  0  0  0  0  0  0
  -24.7202  -21.7458   20.5468 C   0  0  0  0  0  0  0  0  0  1  0  0
  -27.2463  -29.5551   23.8094 C   0  0  1  0  0  0  0  0  0  0  0  0
  -29.8485  -28.5713   26.3844 C   0  0  2  0  0  0  0  0  0  0  0  0
  -27.3855  -30.8776   23.0037 C   0  0  0  0  0  0  0  0  0  0  0  0
  -25.6685  -13.0640   21.3044 N   0  0  0  0  0  0  0  0  0  0  0  0
  -26.3425  -12.6451   20.2199 N   0  0  0  0  0  0  0  0  0  0  0  0
  -25.1846  -28.1891   23.8941 N   0  0  0  0  0  0  0  0  0  0  0  0
  -29.5059  -14.7681   20.4819 N   0  0  0  0  0  0  0  0  0  0  0  0
  -26.1191  -11.3822   18.2284 N   0  0  0  0  0  0  0  0  0  0  0  0
  -22.0181  -11.1101   20.1001 N   0  0  0  0  0  0  0  0  0  0  0  0
  -29.0304  -16.7058   19.2243 N   0  0  0  0  0  0  0  0  0  0  0  0
  -21.7887  -29.1252   23.3272 N   0  0  0  0  0  0  0  0  0  0  0  0
  -28.1322  -29.4634   24.9649 N   0  0  0  0  0  0  0  0  0  0  0  0
  -29.6392  -24.5345   19.4603 N   0  3  1  0  0  0  0  0  0  0  0  0
  -30.1817  -27.2243   26.9280 N   0  3  0  0  0  0  0  0  0  0  0  0
  -26.1146  -21.6338   18.5389 N   0  3  0  0  0  0  0  0  0  0  0  0
  -23.2958  -10.4557   18.3118 O   0  0  0  0  0  0  0  0  0  0  0  0
  -23.4688  -28.3979   21.8881 O   0  0  0  0  0  0  0  0  0  0  0  0
  -25.3598  -30.1719   25.1082 O   0  0  0  0  0  0  0  0  0  0  0  0
  -29.2131  -27.5215   24.3031 O   0  0  0  0  0  0  0  0  0  0  0  0
  -31.2209  -16.1006   19.6900 O   0  0  0  0  0  0  0  0  0  0  0  0
  -27.8629  -26.7017   20.0417 O   0  0  0  0  0  0  0  0  0  0  0  0
  -20.4293  -13.4407   24.9042 O   0  0  0  0  0  0  0  0  0  0  0  0
  -25.6177  -22.7000   21.1128 O   0  0  0  0  0  0  0  0  0  1  0  0
  -15.4289  -14.8243   23.0370 F   0  0  0  0  0  0  0  0  0  0  0  0
  -19.2619  -15.8418   25.6214 F   0  0  0  0  0  0  0  0  0  0  0  0
  1  2  1  0  0  0  0
  1  5  2  0  0  0  0
  2  6  2  0  0  0  0
  3 10  2  0  0  0  0
  3 18  1  0  0  0  0
  4 11  1  0  0  0  0
  4 18  2  0  0  0  0
  5 20  1  0  0  0  0
  6 22  1  0  0  0  0
  7  9  2  0  0  0  0
  7 23  1  0  0  0  0
  8 12  2  0  0  0  0
  8 21  1  0  0  0  0
  9 26  1  0  0  0  0
 10 27  1  0  0  0  0
 11 27  2  0  0  0  0
 12 28  1  0  0  0  0
 13 14  2  0  0  0  0
 13 29  1  0  0  0  0
 14 30  1  0  0  0  0
 15 24  1  0  0  0  0
 15 28  2  0  0  0  0
 16 25  1  0  0  0  0
 16 26  2  0  0  0  0
 17 30  2  0  0  0  0
 17 31  1  0  0  0  0
 18 32  1  0  0  0  0
 19 32  1  0  0  0  0
 19 33  2  0  0  0  0
 19 34  1  0  0  0  0
 20 22  2  0  0  0  0
 20 39  1  0  0  0  0
 21 24  2  0  0  0  0
 21 40  1  0  0  0  0
 22 53  1  0  0  0  0
 23 25  2  0  0  0  0
 23 52  1  0  0  0  0
 24 41  1  0  0  0  0
 25 61  1  0  0  0  0
 26 75  1  0  0  0  0
 27 87  1  0  0  0  0
 28 88  1  0  0  0  0
 29 31  2  0  0  0  0
 29 87  1  0  0  0  0
 30 89  1  0  0  0  0
 31 90  1  0  0  0  0
 32 69  2  0  0  0  0
 33 70  1  0  0  0  0
 33 73  1  0  0  0  0
 34 74  1  0  0  0  0
 34 81  2  0  0  0  0
 35 54  1  0  0  0  0
 35 76  1  0  0  0  0
 35 82  2  0  0  0  0
 36 66  1  0  0  0  0
 36 71  1  0  0  0  0
 36 83  2  0  0  0  0
 37 67  1  0  0  0  0
 37 77  1  0  0  0  0
 37 84  2  0  0  0  0
 38 72  1  0  0  0  0
 38 75  1  0  0  0  0
 38 85  2  0  0  0  0
 39 42  1  0  0  0  0
 40 54  1  0  0  0  0
 41 71  1  0  0  0  0
 42 46  1  0  0  0  0
 43 47  1  0  0  0  0
 43 48  1  0  0  0  0
 44 45  1  0  0  0  0
 44 50  1  0  0  0  0
 45 52  1  0  0  0  0
 46 53  1  0  0  0  0
 47 55  1  0  0  0  0
 48 72  1  0  0  0  0
 49 55  1  0  0  0  0
 49 72  1  0  0  0  0
 50 78  1  0  0  0  0
 51 52  1  0  0  0  0
 51 78  1  0  0  0  0
 53 76  1  0  0  0  0
 54 71  1  0  0  0  0
 55 70  1  0  0  0  0
 56 67  1  0  0  0  0
 57 68  1  0  0  0  0
 58 68  1  0  0  0  0
 59 68  1  0  0  0  0
 60 79  1  0  0  0  0
 61 80  1  0  0  0  0
 62 64  1  0  0  0  0
 62 78  1  0  0  0  0
 63 65  1  0  0  0  0
 63 80  1  0  0  0  0
 64 86  1  0  0  0  0
 65 88  1  0  0  0  0
 66 68  1  0  0  0  0
 66 77  1  0  0  0  0
 67 79  1  0  0  0  0
 69 70  1  0  0  0  0
M  CHG  3  78   1  79   1  80   1
M  ISO  4  38 100  65 101  75 100  88 101
M  END
> <Batch ID>
0128

> <Smiles>
CNC(C)C(=O)NC(C(=O)N1Cc2cc([101O:1][101CH2:1]CNCc3cc([100NH:0][100C:0](=O)N4CCCC(n5nc(-c6ccc(Oc7ccc(F)cc7F)cc6)c(C(N)=O)c5N)C4)ccc3C3CCCN(CCO)C3)ccc2CC1C(=O)NC1CCCc2ccccc21)C(C)(C)C

> <Shape>
0.261

> <Color>
0.059

> <Negative vol penalty>
0.000

$$$$

  -OEChem-04052320423D

 80 88  0     1  0  0  0  0  0999 V2000
  -19.9852  -17.5743   32.5156 C   0  0  0  0  0  0  0  0  0  0  0  0
  -21.2555  -17.3470   31.9958 C   0  0  0  0  0  0  0  0  0  0  0  0
  -23.1900   -9.8193   19.9313 C   0  0  0  0  0  0  0  0  0  0  0  0
  -23.5673   -9.9997   22.3109 C   0  0  0  0  0  0  0  0  0  0  0  0
  -18.8952  -17.7071   31.6564 C   0  0  0  0  0  0  0  0  0  0  0  0
  -21.4363  -17.2512   30.6164 C   0  0  0  0  0  0  0  0  0  0  0  0
  -26.2974  -19.1319   27.4013 C   0  0  0  0  0  0  0  0  0  0  0  0
  -22.4236   -8.6726   20.1398 C   0  0  0  0  0  0  0  0  0  0  0  0
  -22.8008   -8.8531   22.5194 C   0  0  0  0  0  0  0  0  0  0  0  0
  -27.4087  -18.4559   26.8994 C   0  0  0  0  0  0  0  0  0  0  0  0
  -21.2428   -5.7694   23.6477 C   0  0  0  0  0  0  0  0  0  0  0  0
  -21.7387   -4.8096   24.5300 C   0  0  0  0  0  0  0  0  0  0  0  0
  -26.3070  -18.2428   24.7639 C   0  0  0  0  0  0  0  0  0  0  0  0
  -31.8248  -17.1275   24.8382 C   0  0  0  0  0  0  0  0  0  0  0  0
  -30.5806  -15.0738   24.9763 C   0  0  0  0  0  0  0  0  0  0  0  0
  -23.6980   -4.5455   23.1411 C   0  0  0  0  0  0  0  0  0  0  0  0
  -23.7619  -10.4828   21.0169 C   0  0  0  0  0  0  0  0  0  0  0  0
  -24.1008  -12.9994   20.7731 C   0  0  0  0  0  0  0  0  0  0  0  0
  -19.0643  -17.6225   30.2654 C   0  0  0  0  0  0  0  0  0  0  0  0
  -25.1764  -19.3592   26.5901 C   0  0  0  0  0  0  0  0  0  0  0  0
  -20.3473  -17.3816   29.7379 C   0  0  0  0  0  0  0  0  0  0  0  0
  -25.1838  -18.9241   25.2572 C   0  0  0  0  0  0  0  0  0  0  0  0
  -30.6916  -16.4331   25.2470 C   0  0  0  0  0  0  0  0  0  0  0  0
  -22.2289   -8.1896   21.4338 C   0  0  0  0  0  0  0  0  0  0  0  0
  -27.4125  -18.0087   25.5814 C   0  0  0  0  0  0  0  0  0  0  0  0
  -21.9743   -6.1172   22.5121 C   0  0  0  0  0  0  0  0  0  0  0  0
  -22.9663   -4.1977   24.2767 C   0  0  0  0  0  0  0  0  0  0  0  0
  -23.2019   -5.5053   22.2589 C   0  0  0  0  0  0  0  0  0  0  0  0
  -24.5542  -11.6670   20.8021 C   0  0  0  0  0  0  0  0  0  0  0  0
  -32.8107  -16.4221   24.1672 C   0  0  0  0  0  0  0  0  0  0  0  0
  -31.6221  -14.4604   24.2990 C   0  0  0  0  0  0  0  0  0  0  0  0
  -25.2321  -13.7420   20.5383 C   0  0  0  0  0  0  0  0  0  0  0  0
  -22.7755  -13.5194   20.9434 C   0  0  0  0  0  0  0  0  0  0  0  0
  -22.1208  -18.4890   26.6914 C   0  0  0  0  0  0  0  0  0  0  0  0
  -21.8728  -20.4817   24.1439 C   0  0  0  0  0  0  0  0  0  0  0  0
  -23.4075  -22.0390   21.5236 C   0  0  0  0  0  0  0  0  0  0  0  0
  -31.0464  -12.7519   21.5699 C   0  0  0  0  0  0  0  0  0  0  0  0
  -17.8485  -17.7254   29.3788 C   0  0  0  0  0  0  0  0  0  0  0  0
  -23.9962  -20.1135   27.1386 C   0  0  0  0  0  0  0  0  0  0  0  0
  -24.0135  -19.1608   24.3392 C   0  0  0  0  0  0  0  0  0  0  0  0
  -18.1843  -17.9846   27.9123 C   0  0  0  0  0  0  0  0  0  0  0  0
  -29.5204  -13.4692   18.4342 C   0  0  0  0  0  0  0  0  0  0  0  0
  -19.3008  -17.0548   27.4480 C   0  0  0  0  0  0  0  0  0  0  0  0
  -28.0336  -13.2089   18.6828 C   0  0  0  0  0  0  0  0  0  0  0  0
  -30.4013  -12.4798   19.1938 C   0  0  0  0  0  0  0  0  0  0  0  0
  -28.6471  -12.1372   20.8905 C   0  0  0  0  0  0  0  0  0  0  0  0
  -20.5876  -17.2963   28.2463 C   0  0  1  0  0  0  0  0  0  0  0  0
  -22.7040  -19.8375   26.3763 C   0  0  1  0  0  0  0  0  0  0  0  0
  -27.7199  -13.1450   20.1897 C   0  0  2  0  0  0  0  0  0  0  0  0
  -34.0415  -17.1343   23.7149 C   0  0  0  0  0  0  0  0  0  0  0  0
  -22.9373  -23.5746   19.5953 C   0  0  0  0  0  0  0  0  0  0  0  0
  -20.5873  -18.1714   22.6207 C   0  0  0  0  0  0  0  0  0  0  0  0
  -21.0127  -19.4267   20.4967 C   0  0  0  0  0  0  0  0  0  0  0  0
  -19.5144  -20.3979   22.2388 C   0  0  0  0  0  0  0  0  0  0  0  0
  -25.2671  -24.0960   22.5577 C   0  0  0  0  0  0  0  0  0  0  0  0
  -29.5935  -17.1476   25.9784 C   0  0  0  0  0  0  0  0  0  1  0  0
  -31.5356  -13.0031   23.9900 C   0  0  0  0  0  0  0  0  0  0  0  0
  -22.0083  -20.3269   22.6483 C   0  0  1  0  0  0  0  0  0  0  0  0
  -23.3741  -23.4806   21.0489 C   0  0  2  0  0  0  0  0  0  0  0  0
  -20.8021  -19.5744   22.0187 C   0  0  0  0  0  0  0  0  0  0  0  0
  -25.8708  -11.5658   20.6015 N   0  0  0  0  0  0  0  0  0  0  0  0
  -32.7383  -15.1018   23.8861 N   0  0  0  0  0  0  0  0  0  0  0  0
  -26.2545  -12.8442   20.4442 N   0  0  0  0  0  0  0  0  0  0  0  0
  -22.8807  -19.8974   24.9239 N   0  0  0  0  0  0  0  0  0  0  0  0
  -30.0542  -12.4687   20.6169 N   0  0  0  0  0  0  0  0  0  0  0  0
  -25.4422  -15.0689   20.4051 N   0  0  0  0  0  0  0  0  0  0  0  0
  -21.7287  -12.6172   21.1771 N   0  0  0  0  0  0  0  0  0  0  0  0
  -21.2603  -18.4869   27.7726 N   0  0  0  0  0  0  0  0  0  0  0  0
  -22.2189  -21.6689   22.1165 N   0  0  0  0  0  0  0  0  0  0  0  0
  -30.6317  -12.7266   22.8959 N   0  0  0  0  0  0  0  0  0  0  0  0
  -24.7243  -24.0988   21.1749 N   0  3  0  0  0  0  0  0  0  0  0  0
  -22.5244  -14.7464   20.8736 O   0  0  0  0  0  0  0  0  0  0  0  0
  -22.4278  -17.5223   26.0037 O   0  0  0  0  0  0  0  0  0  0  0  0
  -20.9119  -21.1044   24.6028 O   0  0  0  0  0  0  0  0  0  0  0  0
  -24.3884  -21.3128   21.3792 O   0  0  0  0  0  0  0  0  0  0  0  0
  -32.2141  -13.0134   21.2618 O   0  0  0  0  0  0  0  0  0  0  0  0
  -21.4809   -7.0709   21.6376 O   0  0  0  0  0  0  0  0  0  0  0  0
  -28.4956  -17.3481   25.0892 O   0  0  0  0  0  0  0  0  0  1  0  0
  -23.4432   -3.2771   25.1248 F   0  0  0  0  0  0  0  0  0  0  0  0
  -23.9098   -5.8361   21.1702 F   0  0  0  0  0  0  0  0  0  0  0  0
  1  2  1  0  0  0  0
  1  5  2  0  0  0  0
  2  6  2  0  0  0  0
  3  8  2  0  0  0  0
  3 17  1  0  0  0  0
  4  9  1  0  0  0  0
  4 17  2  0  0  0  0
  5 19  1  0  0  0  0
  6 21  1  0  0  0  0
  7 10  2  0  0  0  0
  7 20  1  0  0  0  0
  8 24  1  0  0  0  0
  9 24  2  0  0  0  0
 10 25  1  0  0  0  0
 11 12  2  0  0  0  0
 11 26  1  0  0  0  0
 12 27  1  0  0  0  0
 13 22  1  0  0  0  0
 13 25  2  0  0  0  0
 14 23  1  0  0  0  0
 14 30  2  0  0  0  0
 15 23  2  0  0  0  0
 15 31  1  0  0  0  0
 16 27  2  0  0  0  0
 16 28  1  0  0  0  0
 17 29  1  0  0  0  0
 18 29  1  0  0  0  0
 18 32  2  0  0  0  0
 18 33  1  0  0  0  0
 19 21  2  0  0  0  0
 19 38  1  0  0  0  0
 20 22  2  0  0  0  0
 20 39  1  0  0  0  0
 21 47  1  0  0  0  0
 22 40  1  0  0  0  0
 23 56  1  0  0  0  0
 24 77  1  0  0  0  0
 25 78  1  0  0  0  0
 26 28  2  0  0  0  0
 26 77  1  0  0  0  0
 27 79  1  0  0  0  0
 28 80  1  0  0  0  0
 29 61  2  0  0  0  0
 30 50  1  0  0  0  0
 30 62  1  0  0  0  0
 31 57  1  0  0  0  0
 31 62  2  0  0  0  0
 32 63  1  0  0  0  0
 32 66  1  0  0  0  0
 33 67  1  0  0  0  0
 33 72  2  0  0  0  0
 34 48  1  0  0  0  0
 34 68  1  0  0  0  0
 34 73  2  0  0  0  0
 35 58  1  0  0  0  0
 35 64  1  0  0  0  0
 35 74  2  0  0  0  0
 36 59  1  0  0  0  0
 36 69  1  0  0  0  0
 36 75  2  0  0  0  0
 37 65  1  0  0  0  0
 37 70  1  0  0  0  0
 37 76  2  0  0  0  0
 38 41  1  0  0  0  0
 39 48  1  0  0  0  0
 40 64  1  0  0  0  0
 41 43  1  0  0  0  0
 42 44  1  0  0  0  0
 42 45  1  0  0  0  0
 43 47  1  0  0  0  0
 44 49  1  0  0  0  0
 45 65  1  0  0  0  0
 46 49  1  0  0  0  0
 46 65  1  0  0  0  0
 47 68  1  0  0  0  0
 48 64  1  0  0  0  0
 49 63  1  0  0  0  0
 51 59  1  0  0  0  0
 52 60  1  0  0  0  0
 53 60  1  0  0  0  0
 54 60  1  0  0  0  0
 55 71  1  0  0  0  0
 56 78  1  0  0  0  0
 57 70  1  0  0  0  0
 58 60  1  0  0  0  0
 58 69  1  0  0  0  0
 59 71  1  0  0  0  0
 61 63  1  0  0  0  0
M  CHG  1  71   1
M  ISO  4  37 100  56 101  70 100  78 101
M  END
> <Batch ID>
0128

> <Smiles>
CNC(C)C(=O)NC(C(=O)N1Cc2cc([101O:1][101CH2:1]c3cc(C)nc(C[100NH:0][100C:0](=O)N4CCCC(n5nc(-c6ccc(Oc7ccc(F)cc7F)cc6)c(C(N)=O)c5N)C4)c3)ccc2CC1C(=O)NC1CCCc2ccccc21)C(C)(C)C

> <Shape>
0.142

> <Color>
0.186

> <Negative vol penalty>
0.000

$$$$

  -OEChem-04052320423D

 83 91  0     1  0  0  0  0  0999 V2000
  -24.5053  -28.7362   15.1394 C   0  0  0  0  0  0  0  0  0  0  0  0
  -25.1550  -28.0162   16.1367 C   0  0  0  0  0  0  0  0  0  0  0  0
  -23.3205   -9.5842   20.2703 C   0  0  0  0  0  0  0  0  0  0  0  0
  -23.8267  -10.1001   22.5756 C   0  0  0  0  0  0  0  0  0  0  0  0
  -24.2550  -30.0967   15.3138 C   0  0  0  0  0  0  0  0  0  0  0  0
  -25.5560  -28.6565   17.3088 C   0  0  0  0  0  0  0  0  0  0  0  0
  -24.4538  -25.9762   21.4616 C   0  0  0  0  0  0  0  0  0  0  0  0
  -22.6403   -8.4362   20.6765 C   0  0  0  0  0  0  0  0  0  0  0  0
  -23.1465   -8.9521   22.9819 C   0  0  0  0  0  0  0  0  0  0  0  0
  -25.2914  -24.9049   21.7689 C   0  0  0  0  0  0  0  0  0  0  0  0
  -19.9392   -7.9884   23.4348 C   0  0  0  0  0  0  0  0  0  0  0  0
  -19.0656   -8.1031   24.5161 C   0  0  0  0  0  0  0  0  0  0  0  0
  -26.4284  -26.2698   23.4009 C   0  0  0  0  0  0  0  0  0  0  0  0
  -20.3588   -6.4658   25.7344 C   0  0  0  0  0  0  0  0  0  0  0  0
  -23.9138  -10.4161   21.2199 C   0  0  0  0  0  0  0  0  0  0  0  0
  -24.0812  -12.8923   20.6299 C   0  0  0  0  0  0  0  0  0  0  0  0
  -24.6445  -30.7519   16.4927 C   0  0  0  0  0  0  0  0  0  0  0  0
  -24.6045  -27.2077   22.1150 C   0  0  0  0  0  0  0  0  0  0  0  0
  -25.3119  -30.0273   17.4986 C   0  0  0  0  0  0  0  0  0  0  0  0
  -25.5897  -27.3544   23.1019 C   0  0  0  0  0  0  0  0  0  0  0  0
  -22.5532   -8.1201   22.0323 C   0  0  0  0  0  0  0  0  0  0  0  0
  -26.2808  -25.0524   22.7366 C   0  0  0  0  0  0  0  0  0  0  0  0
  -21.0225   -7.1123   23.5032 C   0  0  0  0  0  0  0  0  0  0  0  0
  -19.2754   -7.3418   25.6660 C   0  0  0  0  0  0  0  0  0  0  0  0
  -21.2323   -6.3511   24.6530 C   0  0  0  0  0  0  0  0  0  0  0  0
  -24.6171  -11.6018   20.8008 C   0  0  0  0  0  0  0  0  0  0  0  0
  -25.1484  -13.6565   20.2255 C   0  0  0  0  0  0  0  0  0  0  0  0
  -22.7387  -13.3586   20.8199 C   0  0  0  0  0  0  0  0  0  0  0  0
  -25.3140  -30.1652   21.1910 C   0  0  0  0  0  0  0  0  0  0  0  0
  -24.6688  -30.8711   24.2907 C   0  0  0  0  0  0  0  0  0  0  0  0
  -24.4593  -29.7977   27.5234 C   0  0  0  0  0  0  0  0  0  0  0  0
  -30.4909  -15.1968   20.7056 C   0  0  0  0  0  0  0  0  0  0  0  0
  -24.3945  -32.2341   16.6159 C   0  0  0  0  0  0  0  0  0  0  0  0
  -23.6755  -28.3455   21.7911 C   0  0  0  0  0  0  0  0  0  0  0  0
  -25.7795  -28.6497   23.8467 C   0  0  0  0  0  0  0  0  0  0  0  0
  -24.5175  -32.7558   18.0452 C   0  0  0  0  0  0  0  0  0  0  0  0
  -29.7939  -12.3048   18.7493 C   0  0  0  0  0  0  0  0  0  0  0  0
  -25.7802  -32.2114   18.7054 C   0  0  0  0  0  0  0  0  0  0  0  0
  -28.3435  -11.9673   19.0992 C   0  0  0  0  0  0  0  0  0  0  0  0
  -30.5579  -12.8353   19.9604 C   0  0  0  0  0  0  0  0  0  0  0  0
  -30.6912  -20.5332   19.2713 C   0  0  0  0  0  0  0  0  0  0  0  0
  -28.4697  -13.6385   20.9940 C   0  0  0  0  0  0  0  0  0  0  0  0
  -29.6736  -20.5694   21.3968 C   0  0  0  0  0  0  0  0  0  0  0  0
  -25.7402  -30.6810   18.7945 C   0  0  1  0  0  0  0  0  0  0  0  0
  -24.2533  -29.7102   22.1531 C   0  0  1  0  0  0  0  0  0  0  0  0
  -30.4779  -22.0034   19.6682 C   0  0  1  0  0  0  0  0  0  0  0  0
  -27.6433  -13.1523   19.7911 C   0  0  2  0  0  0  0  0  0  0  0  0
  -30.2803  -21.9407   21.1800 C   0  0  1  0  0  0  0  0  0  0  0  0
  -23.9444  -30.6129   29.8403 C   0  0  0  0  0  0  0  0  0  0  0  0
  -27.4064  -32.2119   24.4247 C   0  0  0  0  0  0  0  0  0  0  0  0
  -27.2365  -32.1512   26.9218 C   0  0  0  0  0  0  0  0  0  0  0  0
  -25.5774  -33.4556   25.5919 C   0  0  0  0  0  0  0  0  0  0  0  0
  -22.1715  -27.9399   27.7939 C   0  0  0  0  0  0  0  0  0  0  0  0
  -31.6256  -22.9128   19.2556 C   0  0  0  0  0  0  0  0  0  0  0  0
  -29.9925  -18.4306   20.2855 C   0  0  0  0  0  0  0  0  0  0  0  0
  -30.2661  -17.5408   21.4892 C   0  0  0  0  0  0  0  0  0  0  0  0
  -29.3590  -23.1884   23.1243 C   0  0  0  0  0  0  0  0  0  0  0  0
  -28.4203  -24.3251   23.4777 C   0  0  0  0  0  0  0  0  0  1  0  0
  -25.4770  -30.9295   25.5644 C   0  0  1  0  0  0  0  0  0  0  0  0
  -23.3819  -29.9795   28.5773 C   0  0  2  0  0  0  0  0  0  0  0  0
  -26.4222  -32.1631   25.6105 C   0  0  0  0  0  0  0  0  0  0  0  0
  -25.9232  -11.5455   20.5271 N   0  0  0  0  0  0  0  0  0  0  0  0
  -26.2169  -12.8101   20.1801 N   0  0  0  0  0  0  0  0  0  0  0  0
  -24.8505  -29.7346   23.4899 N   0  0  0  0  0  0  0  0  0  0  0  0
  -29.8416  -13.9587   20.5693 N   0  0  0  0  0  0  0  0  0  0  0  0
  -30.5219  -19.7658   20.5137 N   0  0  1  0  0  0  0  0  0  0  0  0
  -25.2676  -14.9631   19.9077 N   0  0  0  0  0  0  0  0  0  0  0  0
  -21.7655  -12.4409   21.2382 N   0  0  0  0  0  0  0  0  0  0  0  0
  -24.8826  -30.2603   19.8817 N   0  0  0  0  0  0  0  0  0  0  0  0
  -24.5160  -30.8717   26.6606 N   0  0  0  0  0  0  0  0  0  0  0  0
  -29.7384  -16.2098   21.2872 N   0  0  0  0  0  0  0  0  0  0  0  0
  -29.3751  -23.0062   21.6509 N   0  3  0  0  0  0  0  0  0  0  0  0
  -22.7831  -28.6633   28.9382 N   0  3  0  0  0  0  0  0  0  0  0  0
  -22.4084  -14.5502   20.6087 O   0  0  0  0  0  0  0  0  0  0  0  0
  -26.4400  -30.4132   21.6061 O   0  0  0  0  0  0  0  0  0  0  0  0
  -23.8992  -31.7963   24.0199 O   0  0  0  0  0  0  0  0  0  0  0  0
  -25.1811  -28.8042   27.4731 O   0  0  0  0  0  0  0  0  0  0  0  0
  -31.6532  -15.3868   20.3316 O   0  0  0  0  0  0  0  0  0  0  0  0
  -31.7724  -22.8496   17.8474 O   0  0  0  0  0  0  0  0  0  0  0  0
  -21.8893   -7.0002   22.4291 O   0  0  0  0  0  0  0  0  0  0  0  0
  -27.1002  -24.0086   23.0380 O   0  0  0  0  0  0  0  0  0  1  0  0
  -18.4374   -7.4532   26.7049 F   0  0  0  0  0  0  0  0  0  0  0  0
  -22.2720   -5.5087   24.7251 F   0  0  0  0  0  0  0  0  0  0  0  0
  1  2  1  0  0  0  0
  1  5  2  0  0  0  0
  2  6  2  0  0  0  0
  3  8  2  0  0  0  0
  3 15  1  0  0  0  0
  4  9  1  0  0  0  0
  4 15  2  0  0  0  0
  5 17  1  0  0  0  0
  6 19  1  0  0  0  0
  7 10  2  0  0  0  0
  7 18  1  0  0  0  0
  8 21  1  0  0  0  0
  9 21  2  0  0  0  0
 10 22  1  0  0  0  0
 11 12  2  0  0  0  0
 11 23  1  0  0  0  0
 12 24  1  0  0  0  0
 13 20  1  0  0  0  0
 13 22  2  0  0  0  0
 14 24  2  0  0  0  0
 14 25  1  0  0  0  0
 15 26  1  0  0  0  0
 16 26  1  0  0  0  0
 16 27  2  0  0  0  0
 16 28  1  0  0  0  0
 17 19  2  0  0  0  0
 17 33  1  0  0  0  0
 18 20  2  0  0  0  0
 18 34  1  0  0  0  0
 19 44  1  0  0  0  0
 20 35  1  0  0  0  0
 21 80  1  0  0  0  0
 22 81  1  0  0  0  0
 23 25  2  0  0  0  0
 23 80  1  0  0  0  0
 24 82  1  0  0  0  0
 25 83  1  0  0  0  0
 26 62  2  0  0  0  0
 27 63  1  0  0  0  0
 27 67  1  0  0  0  0
 28 68  1  0  0  0  0
 28 74  2  0  0  0  0
 29 45  1  0  0  0  0
 29 69  1  0  0  0  0
 29 75  2  0  0  0  0
 30 59  1  0  0  0  0
 30 64  1  0  0  0  0
 30 76  2  0  0  0  0
 31 60  1  0  0  0  0
 31 70  1  0  0  0  0
 31 77  2  0  0  0  0
 32 65  1  0  0  0  0
 32 71  1  0  0  0  0
 32 78  2  0  0  0  0
 33 36  1  0  0  0  0
 34 45  1  0  0  0  0
 35 64  1  0  0  0  0
 36 38  1  0  0  0  0
 37 39  1  0  0  0  0
 37 40  1  0  0  0  0
 38 44  1  0  0  0  0
 39 47  1  0  0  0  0
 40 65  1  0  0  0  0
 41 46  1  0  0  0  0
 41 66  1  0  0  0  0
 42 47  1  0  0  0  0
 42 65  1  0  0  0  0
 43 48  1  0  0  0  0
 43 66  1  0  0  0  0
 44 69  1  0  0  0  0
 45 64  1  0  0  0  0
 46 48  1  0  0  0  0
 46 54  1  0  0  0  0
 47 63  1  0  0  0  0
 48 72  1  0  0  0  0
 49 60  1  0  0  0  0
 50 61  1  0  0  0  0
 51 61  1  0  0  0  0
 52 61  1  0  0  0  0
 53 73  1  0  0  0  0
 54 79  1  0  0  0  0
 55 56  1  0  0  0  0
 55 66  1  0  0  0  0
 56 71  1  0  0  0  0
 57 58  1  0  0  0  0
 57 72  1  0  0  0  0
 58 81  1  0  0  0  0
 59 61  1  0  0  0  0
 59 70  1  0  0  0  0
 60 73  1  0  0  0  0
 62 63  1  0  0  0  0
M  CHG  2  72   1  73   1
M  ISO  4  32 100  58 101  71 100  81 101
M  END
> <Batch ID>
0128

> <Smiles>
CNC(C)C(=O)NC(C(=O)N1Cc2cc([101O:1][101CH2:1]CNC3CN(CC[100NH:0][100C:0](=O)N4CCCC(n5nc(-c6ccc(Oc7ccc(F)cc7F)cc6)c(C(N)=O)c5N)C4)CC3CO)ccc2CC1C(=O)NC1CCCc2ccccc21)C(C)(C)C

> <Shape>
0.284

> <Color>
0.168

> <Negative vol penalty>
0.000

$$$$

  -OEChem-04052320423D

 86 95  0     1  0  0  0  0  0999 V2000
  -31.6513  -38.0854   27.7848 C   0  0  0  0  0  0  0  0  0  0  0  0
  -32.2951  -37.0638   27.0940 C   0  0  0  0  0  0  0  0  0  0  0  0
  -23.9297   -9.5356   20.4856 C   0  0  0  0  0  0  0  0  0  0  0  0
  -24.4444  -10.1396   22.7675 C   0  0  0  0  0  0  0  0  0  0  0  0
  -30.2914  -37.9805   28.0742 C   0  0  0  0  0  0  0  0  0  0  0  0
  -31.5796  -35.9360   26.6932 C   0  0  0  0  0  0  0  0  0  0  0  0
  -31.3021  -31.0773   21.4366 C   0  0  0  0  0  0  0  0  0  0  0  0
  -23.4851   -8.2857   20.9167 C   0  0  0  0  0  0  0  0  0  0  0  0
  -23.9997   -8.8898   23.1986 C   0  0  0  0  0  0  0  0  0  0  0  0
  -31.2878  -29.6962   21.2461 C   0  0  0  0  0  0  0  0  0  0  0  0
  -21.0408   -7.3705   23.7963 C   0  0  0  0  0  0  0  0  0  0  0  0
  -20.2130   -7.3304   24.9182 C   0  0  0  0  0  0  0  0  0  0  0  0
  -28.9252  -29.6597   21.7319 C   0  0  0  0  0  0  0  0  0  0  0  0
  -30.9123  -24.7372   21.7896 C   0  0  0  0  0  0  0  0  0  0  0  0
  -21.8337   -5.9534   26.0648 C   0  0  0  0  0  0  0  0  0  0  0  0
  -30.8634  -23.7671   19.2396 C   0  0  0  0  0  0  0  0  0  0  0  0
  -24.4094  -10.4625   21.4110 C   0  0  0  0  0  0  0  0  0  0  0  0
  -24.1044  -12.9273   20.8283 C   0  0  0  0  0  0  0  0  0  0  0  0
  -29.5568  -36.8553   27.6683 C   0  0  0  0  0  0  0  0  0  0  0  0
  -30.1283  -31.7596   21.7875 C   0  0  0  0  0  0  0  0  0  0  0  0
  -30.2089  -35.8153   26.9787 C   0  0  0  0  0  0  0  0  0  0  0  0
  -28.9268  -31.0498   21.9238 C   0  0  0  0  0  0  0  0  0  0  0  0
  -30.7017  -23.3788   21.5805 C   0  0  0  0  0  0  0  0  0  0  0  0
  -30.6754  -22.8764   20.2843 C   0  0  0  0  0  0  0  0  0  0  0  0
  -23.5201   -7.9628   22.2732 C   0  0  0  0  0  0  0  0  0  0  0  0
  -30.0999  -28.9868   21.3965 C   0  0  0  0  0  0  0  0  0  0  0  0
  -22.2650   -6.7020   23.8086 C   0  0  0  0  0  0  0  0  0  0  0  0
  -20.6094   -6.6219   26.0525 C   0  0  0  0  0  0  0  0  0  0  0  0
  -22.6615   -5.9935   24.9428 C   0  0  0  0  0  0  0  0  0  0  0  0
  -24.8693  -11.7535   20.9662 C   0  0  0  0  0  0  0  0  0  0  0  0
  -31.0899  -25.5445   20.6776 C   0  0  0  0  0  0  0  0  0  0  0  0
  -24.9978  -13.8685   20.3785 C   0  0  0  0  0  0  0  0  0  0  0  0
  -22.7108  -13.1471   21.0839 C   0  0  0  0  0  0  0  0  0  0  0  0
  -29.2034  -33.4940   24.2854 C   0  0  0  0  0  0  0  0  0  0  0  0
  -26.5799  -34.0232   22.4526 C   0  0  0  0  0  0  0  0  0  0  0  0
  -24.5612  -32.9699   19.9105 C   0  0  0  0  0  0  0  0  0  0  0  0
  -29.9967  -16.3385   20.6156 C   0  0  0  0  0  0  0  0  0  0  0  0
  -28.0993  -36.7652   28.0455 C   0  0  0  0  0  0  0  0  0  0  0  0
  -30.1549  -33.2531   21.9632 C   0  0  0  0  0  0  0  0  0  0  0  0
  -27.6352  -31.7380   22.2796 C   0  0  0  0  0  0  0  0  0  0  0  0
  -27.3305  -35.7075   27.2577 C   0  0  0  0  0  0  0  0  0  0  0  0
  -29.7347  -13.3633   18.6774 C   0  0  0  0  0  0  0  0  0  0  0  0
  -27.1247  -20.6186   19.2375 C   0  0  0  0  0  0  0  0  0  0  0  0
  -28.1145  -34.3998   27.2139 C   0  0  0  0  0  0  0  0  0  0  0  0
  -28.3860  -12.7734   19.0933 C   0  0  0  0  0  0  0  0  0  0  0  0
  -27.4146  -19.3466   20.0077 C   0  0  0  0  0  0  0  0  0  0  0  0
  -30.4483  -14.0249   19.8543 C   0  0  0  0  0  0  0  0  0  0  0  0
  -28.3018  -14.4454   20.9897 C   0  0  0  0  0  0  0  0  0  0  0  0
  -27.9391  -21.6692   19.9679 C   0  0  0  0  0  0  0  0  0  0  0  0
  -29.4615  -34.5875   26.5055 C   0  0  1  0  0  0  0  0  0  0  0  0
  -29.0070  -33.7742   22.8224 C   0  0  1  0  0  0  0  0  0  0  0  0
  -27.5192  -13.8164   19.8242 C   0  0  2  0  0  0  0  0  0  0  0  0
  -28.9149  -19.4367   20.2459 C   0  0  2  0  0  0  0  0  0  0  0  0
  -30.5071  -22.4818   22.7578 C   0  0  0  0  0  0  0  0  0  0  0  0
  -22.4723  -33.5922   18.6668 C   0  0  0  0  0  0  0  0  0  0  0  0
  -24.8946  -33.0655   24.8090 C   0  0  0  0  0  0  0  0  0  0  0  0
  -22.9666  -32.8031   23.2335 C   0  0  0  0  0  0  0  0  0  0  0  0
  -23.9722  -35.0552   23.6071 C   0  0  0  0  0  0  0  0  0  0  0  0
  -26.0175  -33.1952   17.3439 C   0  0  0  0  0  0  0  0  0  0  0  0
  -30.4531  -21.4308   20.0037 C   0  0  0  0  0  0  0  0  0  0  0  0
  -31.3192  -27.0154   20.8652 C   0  0  0  0  0  0  0  0  0  1  0  0
  -29.3948  -18.6069   21.4225 C   0  0  0  0  0  0  0  0  0  0  0  0
  -25.2496  -33.3344   22.2658 C   0  0  1  0  0  0  0  0  0  0  0  0
  -23.9886  -33.7014   18.7099 C   0  0  2  0  0  0  0  0  0  0  0  0
  -24.2953  -33.5510   23.4741 C   0  0  0  0  0  0  0  0  0  0  0  0
  -31.0708  -25.0929   19.4035 N   0  0  0  0  0  0  0  0  0  0  0  0
  -26.1501  -11.9304   20.6310 N   0  0  0  0  0  0  0  0  0  0  0  0
  -26.1968  -13.2262   20.2779 N   0  0  0  0  0  0  0  0  0  0  0  0
  -27.7139  -33.1986   22.4473 N   0  0  0  0  0  0  0  0  0  0  0  0
  -29.5728  -15.0041   20.5028 N   0  0  0  0  0  0  0  0  0  0  0  0
  -24.8670  -15.1745   20.0630 N   0  0  0  0  0  0  0  0  0  0  0  0
  -21.9378  -12.0716   21.5422 N   0  0  0  0  0  0  0  0  0  0  0  0
  -29.2765  -34.6287   25.0707 N   0  0  0  0  0  0  0  0  0  0  0  0
  -24.7191  -33.8097   20.9926 N   0  0  0  0  0  0  0  0  0  0  0  0
  -29.1040  -17.2026   21.2378 N   0  0  0  0  0  0  0  0  0  0  0  0
  -29.1418  -20.9185   20.5161 N   0  3  1  0  0  0  0  0  0  0  0  0
  -24.5368  -33.1320   17.4465 N   0  3  0  0  0  0  0  0  0  0  0  0
  -22.1637  -14.2601   20.8954 O   0  0  0  0  0  0  0  0  0  0  0  0
  -29.2814  -32.3342   24.6734 O   0  0  0  0  0  0  0  0  0  0  0  0
  -26.6123  -35.2485   22.5907 O   0  0  0  0  0  0  0  0  0  0  0  0
  -24.8372  -31.7724   19.8914 O   0  0  0  0  0  0  0  0  0  0  0  0
  -31.0874  -16.7318   20.1884 O   0  0  0  0  0  0  0  0  0  0  0  0
  -23.0861   -6.7434   22.6942 O   0  0  0  0  0  0  0  0  0  0  0  0
  -30.0833  -27.6387   21.2118 O   0  0  0  0  0  0  0  0  0  1  0  0
  -19.8151   -6.5848   27.1303 F   0  0  0  0  0  0  0  0  0  0  0  0
  -23.8369   -5.3503   24.9610 F   0  0  0  0  0  0  0  0  0  0  0  0
  1  2  1  0  0  0  0
  1  5  2  0  0  0  0
  2  6  2  0  0  0  0
  3  8  2  0  0  0  0
  3 17  1  0  0  0  0
  4  9  1  0  0  0  0
  4 17  2  0  0  0  0
  5 19  1  0  0  0  0
  6 21  1  0  0  0  0
  7 10  2  0  0  0  0
  7 20  1  0  0  0  0
  8 25  1  0  0  0  0
  9 25  2  0  0  0  0
 10 26  1  0  0  0  0
 11 12  2  0  0  0  0
 11 27  1  0  0  0  0
 12 28  1  0  0  0  0
 13 22  1  0  0  0  0
 13 26  2  0  0  0  0
 14 23  2  0  0  0  0
 14 31  1  0  0  0  0
 15 28  2  0  0  0  0
 15 29  1  0  0  0  0
 16 24  2  0  0  0  0
 16 66  1  0  0  0  0
 17 30  1  0  0  0  0
 18 30  1  0  0  0  0
 18 32  2  0  0  0  0
 18 33  1  0  0  0  0
 19 21  2  0  0  0  0
 19 38  1  0  0  0  0
 20 22  2  0  0  0  0
 20 39  1  0  0  0  0
 21 50  1  0  0  0  0
 22 40  1  0  0  0  0
 23 24  1  0  0  0  0
 23 54  1  0  0  0  0
 24 60  1  0  0  0  0
 25 83  1  0  0  0  0
 26 84  1  0  0  0  0
 27 29  2  0  0  0  0
 27 83  1  0  0  0  0
 28 85  1  0  0  0  0
 29 86  1  0  0  0  0
 30 67  2  0  0  0  0
 31 61  1  0  0  0  0
 31 66  2  0  0  0  0
 32 68  1  0  0  0  0
 32 71  1  0  0  0  0
 33 72  1  0  0  0  0
 33 78  2  0  0  0  0
 34 51  1  0  0  0  0
 34 73  1  0  0  0  0
 34 79  2  0  0  0  0
 35 63  1  0  0  0  0
 35 69  1  0  0  0  0
 35 80  2  0  0  0  0
 36 64  1  0  0  0  0
 36 74  1  0  0  0  0
 36 81  2  0  0  0  0
 37 70  1  0  0  0  0
 37 75  1  0  0  0  0
 37 82  2  0  0  0  0
 38 41  1  0  0  0  0
 39 51  1  0  0  0  0
 40 69  1  0  0  0  0
 41 44  1  0  0  0  0
 42 45  1  0  0  0  0
 42 47  1  0  0  0  0
 43 46  1  0  0  0  0
 43 49  1  0  0  0  0
 44 50  1  0  0  0  0
 45 52  1  0  0  0  0
 46 53  1  0  0  0  0
 47 70  1  0  0  0  0
 48 52  1  0  0  0  0
 48 70  1  0  0  0  0
 49 76  1  0  0  0  0
 50 73  1  0  0  0  0
 51 69  1  0  0  0  0
 52 68  1  0  0  0  0
 53 62  1  0  0  0  0
 53 76  1  0  0  0  0
 55 64  1  0  0  0  0
 56 65  1  0  0  0  0
 57 65  1  0  0  0  0
 58 65  1  0  0  0  0
 59 77  1  0  0  0  0
 60 76  1  0  0  0  0
 61 84  1  0  0  0  0
 62 75  1  0  0  0  0
 63 65  1  0  0  0  0
 63 74  1  0  0  0  0
 64 77  1  0  0  0  0
 67 68  1  0  0  0  0
M  CHG  2  76   1  77   1
M  ISO  4  37 100  61 101  75 100  84 101
M  END
> <Batch ID>
0128

> <Smiles>
CNC(C)C(=O)NC(C(=O)N1Cc2cc([101O:1][101CH2:1]c3cc(C)c(CN4CCCC4C[100NH:0][100C:0](=O)N4CCCC(n5nc(-c6ccc(Oc7ccc(F)cc7F)cc6)c(C(N)=O)c5N)C4)cn3)ccc2CC1C(=O)NC1CCCc2ccccc21)C(C)(C)C

> <Shape>
0.266

> <Color>
0.140

> <Negative vol penalty>
0.000

$$$$

  -OEChem-04052320423D

 84 92  0     1  0  0  0  0  0999 V2000
  -19.5294  -13.1921   21.5506 C   0  0  0  0  0  0  0  0  0  0  0  0
  -20.2060  -14.3771   21.2797 C   0  0  0  0  0  0  0  0  0  0  0  0
  -20.0125  -27.9282   23.8079 C   0  0  0  0  0  0  0  0  0  0  0  0
  -20.7616  -27.4768   21.5557 C   0  0  0  0  0  0  0  0  0  0  0  0
  -20.1584  -12.1820   22.2772 C   0  0  0  0  0  0  0  0  0  0  0  0
  -21.5118  -14.5531   21.7361 C   0  0  0  0  0  0  0  0  0  0  0  0
  -26.0180  -17.5963   18.9185 C   0  0  0  0  0  0  0  0  0  0  0  0
  -18.7394  -28.2292   23.3241 C   0  0  0  0  0  0  0  0  0  0  0  0
  -19.4884  -27.7778   21.0719 C   0  0  0  0  0  0  0  0  0  0  0  0
  -26.5218  -18.8864   19.0788 C   0  0  0  0  0  0  0  0  0  0  0  0
  -17.2008  -30.8312   21.8119 C   0  0  0  0  0  0  0  0  0  0  0  0
  -16.5719  -31.9720   22.3105 C   0  0  0  0  0  0  0  0  0  0  0  0
  -28.2521  -18.0249   20.5221 C   0  0  0  0  0  0  0  0  0  0  0  0
  -28.0075  -23.3172   20.8653 C   0  0  0  0  0  0  0  0  0  0  0  0
  -14.7592  -30.6088   23.1430 C   0  0  0  0  0  0  0  0  0  0  0  0
  -21.0237  -27.5520   22.9237 C   0  0  0  0  0  0  0  0  0  0  0  0
  -22.8172  -25.9828   23.8338 C   0  0  0  0  0  0  0  0  0  0  0  0
  -21.4760  -12.3418   22.7345 C   0  0  0  0  0  0  0  0  0  0  0  0
  -26.6220  -16.5105   19.5687 C   0  0  0  0  0  0  0  0  0  0  0  0
  -22.1586  -13.5447   22.4707 C   0  0  0  0  0  0  0  0  0  0  0  0
  -27.7556  -16.7217   20.3664 C   0  0  0  0  0  0  0  0  0  0  0  0
  -28.6747  -24.5167   21.0874 C   0  0  0  0  0  0  0  0  0  0  0  0
  -29.4651  -25.0625   20.0821 C   0  0  0  0  0  0  0  0  0  0  0  0
  -18.4773  -28.1540   21.9562 C   0  0  0  0  0  0  0  0  0  0  0  0
  -27.6372  -19.1013   19.8830 C   0  0  0  0  0  0  0  0  0  0  0  0
  -16.6089  -29.5792   21.9787 C   0  0  0  0  0  0  0  0  0  0  0  0
  -15.3511  -31.8608   22.9761 C   0  0  0  0  0  0  0  0  0  0  0  0
  -15.3882  -29.4680   22.6443 C   0  0  0  0  0  0  0  0  0  0  0  0
  -22.3392  -27.2415   23.4227 C   0  0  0  0  0  0  0  0  0  0  0  0
  -28.1622  -22.7079   19.6306 C   0  0  0  0  0  0  0  0  0  0  0  0
  -29.5548  -24.3750   18.8825 C   0  0  0  0  0  0  0  0  0  0  0  0
  -24.1151  -26.2170   24.2176 C   0  0  0  0  0  0  0  0  0  0  0  0
  -22.1480  -24.7152   23.8657 C   0  0  0  0  0  0  0  0  0  0  0  0
  -25.6808  -14.3924   21.7439 C   0  0  0  0  0  0  0  0  0  0  0  0
  -28.5802  -13.0683   21.1418 C   0  0  0  0  0  0  0  0  0  0  0  0
  -31.7796  -13.4826   20.0287 C   0  0  0  0  0  0  0  0  0  0  0  0
  -28.1151  -30.4140   22.7220 C   0  0  0  0  0  0  0  0  0  0  0  0
  -22.0976  -11.2408   23.5566 C   0  0  0  0  0  0  0  0  0  0  0  0
  -26.0826  -15.1214   19.3641 C   0  0  0  0  0  0  0  0  0  0  0  0
  -28.4529  -15.5870   21.0698 C   0  0  0  0  0  0  0  0  0  0  0  0
  -23.6145  -11.3568   23.6823 C   0  0  0  0  0  0  0  0  0  0  0  0
  -26.9329  -29.6520   25.9929 C   0  0  0  0  0  0  0  0  0  0  0  0
  -24.0135  -12.7874   24.0300 C   0  0  0  0  0  0  0  0  0  0  0  0
  -25.6647  -28.8342   25.7422 C   0  0  0  0  0  0  0  0  0  0  0  0
  -27.1037  -30.7606   24.9566 C   0  0  0  0  0  0  0  0  0  0  0  0
  -25.7896  -29.4912   23.3026 C   0  0  0  0  0  0  0  0  0  0  0  0
  -23.5846  -13.7632   22.9275 C   0  0  1  0  0  0  0  0  0  0  0  0
  -26.4670  -14.1601   20.4847 C   0  0  1  0  0  0  0  0  0  0  0  0
  -25.6034  -28.3258   24.2892 C   0  0  2  0  0  0  0  0  0  0  0  0
  -28.5287  -25.1945   22.4096 C   0  0  0  0  0  0  0  0  0  0  0  0
  -30.3874  -24.9122   17.7645 C   0  0  0  0  0  0  0  0  0  0  0  0
  -33.9260  -12.2271   19.6911 C   0  0  0  0  0  0  0  0  0  0  0  0
  -29.1161  -13.1821   24.1434 C   0  0  0  0  0  0  0  0  0  0  0  0
  -31.5457  -12.8293   23.6525 C   0  0  0  0  0  0  0  0  0  0  0  0
  -29.8816  -11.0797   23.0260 C   0  0  0  0  0  0  0  0  0  0  0  0
  -31.7466  -13.9796   17.1113 C   0  0  0  0  0  0  0  0  0  0  0  0
  -30.1906  -26.3491   20.2909 C   0  0  0  0  0  0  0  0  0  0  0  0
  -27.4560  -21.4130   19.3549 C   0  0  0  0  0  0  0  0  0  1  0  0
  -29.0001  -29.9726   20.4458 C   0  0  0  0  0  0  0  0  0  0  0  0
  -29.9971  -28.8303   20.5032 C   0  0  0  0  0  0  0  0  0  0  0  0
  -29.9699  -13.2351   21.7074 C   0  0  1  0  0  0  0  0  0  0  0  0
  -32.6197  -12.6762   19.0549 C   0  0  2  0  0  0  0  0  0  0  0  0
  -30.1142  -12.6034   23.1208 C   0  0  0  0  0  0  0  0  0  0  0  0
  -23.2585  -28.2040   23.5350 N   0  0  0  0  0  0  0  0  0  0  0  0
  -28.9214  -23.2076   18.6298 N   0  0  0  0  0  0  0  0  0  0  0  0
  -24.3271  -27.5499   24.0211 N   0  0  0  0  0  0  0  0  0  0  0  0
  -27.8839  -14.2482   20.8436 N   0  0  0  0  0  0  0  0  0  0  0  0
  -27.0374  -30.2118   23.6000 N   0  0  0  0  0  0  0  0  0  0  0  0
  -25.0841  -25.4108   24.7007 N   0  0  0  0  0  0  0  0  0  0  0  0
  -20.8155  -24.6522   23.4360 N   0  0  0  0  0  0  0  0  0  0  0  0
  -24.4937  -13.6876   21.8040 N   0  0  0  0  0  0  0  0  0  0  0  0
  -30.8844  -12.6868   20.7117 N   0  0  0  0  0  0  0  0  0  0  0  0
  -27.9738  -29.8553   21.4576 N   0  0  0  0  0  0  0  0  0  0  0  0
  -32.9401  -13.4910   17.8489 N   0  3  0  0  0  0  0  0  0  0  0  0
  -29.3023  -27.5429   20.2409 N   0  3  0  0  0  0  0  0  0  0  0  0
  -22.7098  -23.6725   24.2791 O   0  0  0  0  0  0  0  0  0  0  0  0
  -26.1194  -15.1534   22.5983 O   0  0  0  0  0  0  0  0  0  0  0  0
  -28.1318  -11.9330   20.9641 O   0  0  0  0  0  0  0  0  0  0  0  0
  -31.9075  -14.6966   20.1720 O   0  0  0  0  0  0  0  0  0  0  0  0
  -29.1303  -31.0410   23.0431 O   0  0  0  0  0  0  0  0  0  0  0  0
  -17.2350  -28.4474   21.4838 O   0  0  0  0  0  0  0  0  0  0  0  0
  -28.1306  -20.3596   20.0416 O   0  0  0  0  0  0  0  0  0  1  0  0
  -14.7480  -32.9562   23.4562 F   0  0  0  0  0  0  0  0  0  0  0  0
  -14.8153  -28.2677   22.8087 F   0  0  0  0  0  0  0  0  0  0  0  0
  1  2  1  0  0  0  0
  1  5  2  0  0  0  0
  2  6  2  0  0  0  0
  3  8  2  0  0  0  0
  3 16  1  0  0  0  0
  4  9  1  0  0  0  0
  4 16  2  0  0  0  0
  5 18  1  0  0  0  0
  6 20  1  0  0  0  0
  7 10  2  0  0  0  0
  7 19  1  0  0  0  0
  8 24  1  0  0  0  0
  9 24  2  0  0  0  0
 10 25  1  0  0  0  0
 11 12  2  0  0  0  0
 11 26  1  0  0  0  0
 12 27  1  0  0  0  0
 13 21  1  0  0  0  0
 13 25  2  0  0  0  0
 14 22  2  0  0  0  0
 14 30  1  0  0  0  0
 15 27  2  0  0  0  0
 15 28  1  0  0  0  0
 16 29  1  0  0  0  0
 17 29  1  0  0  0  0
 17 32  2  0  0  0  0
 17 33  1  0  0  0  0
 18 20  2  0  0  0  0
 18 38  1  0  0  0  0
 19 21  2  0  0  0  0
 19 39  1  0  0  0  0
 20 47  1  0  0  0  0
 21 40  1  0  0  0  0
 22 23  1  0  0  0  0
 22 50  1  0  0  0  0
 23 31  2  0  0  0  0
 23 57  1  0  0  0  0
 24 81  1  0  0  0  0
 25 82  1  0  0  0  0
 26 28  2  0  0  0  0
 26 81  1  0  0  0  0
 27 83  1  0  0  0  0
 28 84  1  0  0  0  0
 29 64  2  0  0  0  0
 30 58  1  0  0  0  0
 30 65  2  0  0  0  0
 31 51  1  0  0  0  0
 31 65  1  0  0  0  0
 32 66  1  0  0  0  0
 32 69  1  0  0  0  0
 33 70  1  0  0  0  0
 33 76  2  0  0  0  0
 34 48  1  0  0  0  0
 34 71  1  0  0  0  0
 34 77  2  0  0  0  0
 35 61  1  0  0  0  0
 35 67  1  0  0  0  0
 35 78  2  0  0  0  0
 36 62  1  0  0  0  0
 36 72  1  0  0  0  0
 36 79  2  0  0  0  0
 37 68  1  0  0  0  0
 37 73  1  0  0  0  0
 37 80  2  0  0  0  0
 38 41  1  0  0  0  0
 39 48  1  0  0  0  0
 40 67  1  0  0  0  0
 41 43  1  0  0  0  0
 42 44  1  0  0  0  0
 42 45  1  0  0  0  0
 43 47  1  0  0  0  0
 44 49  1  0  0  0  0
 45 68  1  0  0  0  0
 46 49  1  0  0  0  0
 46 68  1  0  0  0  0
 47 71  1  0  0  0  0
 48 67  1  0  0  0  0
 49 66  1  0  0  0  0
 52 62  1  0  0  0  0
 53 63  1  0  0  0  0
 54 63  1  0  0  0  0
 55 63  1  0  0  0  0
 56 74  1  0  0  0  0
 57 75  1  0  0  0  0
 58 82  1  0  0  0  0
 59 60  1  0  0  0  0
 59 73  1  0  0  0  0
 60 75  1  0  0  0  0
 61 63  1  0  0  0  0
 61 72  1  0  0  0  0
 62 74  1  0  0  0  0
 64 66  1  0  0  0  0
M  CHG  2  74   1  75   1
M  ISO  4  37 100  58 101  73 100  82 101
M  END
> <Batch ID>
0128

> <Smiles>
CNC(C)C(=O)NC(C(=O)N1Cc2cc([101O:1][101CH2:1]c3cc(C)c(CNCC[100NH:0][100C:0](=O)N4CCCC(n5nc(-c6ccc(Oc7ccc(F)cc7F)cc6)c(C(N)=O)c5N)C4)c(C)n3)ccc2CC1C(=O)NC1CCCc2ccccc21)C(C)(C)C

> <Shape>
0.242

> <Color>
0.066

> <Negative vol penalty>
0.000

$$$$

  -OEChem-04052320423D

 85 94  0     1  0  0  0  0  0999 V2000
  -26.3440  -37.4607   18.7791 C   0  0  0  0  0  0  0  0  0  0  0  0
  -26.9285  -36.2844   18.3208 C   0  0  0  0  0  0  0  0  0  0  0  0
  -23.8787  -11.0041   22.6265 C   0  0  0  0  0  0  0  0  0  0  0  0
  -24.5386   -9.1416   21.2363 C   0  0  0  0  0  0  0  0  0  0  0  0
  -25.7670  -37.5029   20.0476 C   0  0  0  0  0  0  0  0  0  0  0  0
  -26.9373  -35.1498   19.1313 C   0  0  0  0  0  0  0  0  0  0  0  0
  -26.6432  -28.0032   18.7349 C   0  0  0  0  0  0  0  0  0  0  0  0
  -22.6836  -10.3529   22.9317 C   0  0  0  0  0  0  0  0  0  0  0  0
  -23.3435   -8.4903   21.5416 C   0  0  0  0  0  0  0  0  0  0  0  0
  -27.3301  -26.8711   19.1711 C   0  0  0  0  0  0  0  0  0  0  0  0
  -22.0695   -6.7004   24.1095 C   0  0  0  0  0  0  0  0  0  0  0  0
  -22.1366   -5.3464   24.4377 C   0  0  0  0  0  0  0  0  0  0  0  0
  -26.2332  -27.0383   21.3131 C   0  0  0  0  0  0  0  0  0  0  0  0
  -28.9530  -22.1195   20.2371 C   0  0  0  0  0  0  0  0  0  0  0  0
  -20.6946   -4.8226   22.5713 C   0  0  0  0  0  0  0  0  0  0  0  0
  -30.2831  -23.4224   21.5033 C   0  0  0  0  0  0  0  0  0  0  0  0
  -24.8062  -10.3985   21.7787 C   0  0  0  0  0  0  0  0  0  0  0  0
  -27.2601  -10.9819   22.1604 C   0  0  0  0  0  0  0  0  0  0  0  0
  -25.7601  -36.3654   20.8703 C   0  0  0  0  0  0  0  0  0  0  0  0
  -25.7528  -28.6689   19.5896 C   0  0  0  0  0  0  0  0  0  0  0  0
  -26.3608  -35.1771   20.4126 C   0  0  0  0  0  0  0  0  0  0  0  0
  -25.5343  -28.1771   20.8845 C   0  0  0  0  0  0  0  0  0  0  0  0
  -29.2914  -23.4596   20.5481 C   0  0  0  0  0  0  0  0  0  0  0  0
  -22.4160   -9.0960   22.3893 C   0  0  0  0  0  0  0  0  0  0  0  0
  -27.1274  -26.3902   20.4613 C   0  0  0  0  0  0  0  0  0  0  0  0
  -21.3149   -7.1156   23.0122 C   0  0  0  0  0  0  0  0  0  0  0  0
  -21.4492   -4.4075   23.6687 C   0  0  0  0  0  0  0  0  0  0  0  0
  -20.6275   -6.1766   22.2431 C   0  0  0  0  0  0  0  0  0  0  0  0
  -26.0407  -11.0709   21.4626 C   0  0  0  0  0  0  0  0  0  0  0  0
  -29.7481  -21.3041   21.0119 C   0  0  0  0  0  0  0  0  0  0  0  0
  -28.1143  -11.8025   21.4650 C   0  0  0  0  0  0  0  0  0  0  0  0
  -27.5911  -10.2251   23.3323 C   0  0  0  0  0  0  0  0  0  0  0  0
  -25.6041  -31.5861   20.8430 C   0  0  0  0  0  0  0  0  0  0  0  0
  -22.7220  -30.5550   21.9166 C   0  0  0  0  0  0  0  0  0  0  0  0
  -20.7170  -27.9262   22.7629 C   0  0  0  0  0  0  0  0  0  0  0  0
  -29.3049  -16.4314   18.7865 C   0  0  0  0  0  0  0  0  0  0  0  0
  -25.1662  -36.4728   22.2524 C   0  0  0  0  0  0  0  0  0  0  0  0
  -24.9994  -29.8731   19.0950 C   0  0  0  0  0  0  0  0  0  0  0  0
  -24.5739  -28.8434   21.8342 C   0  0  0  0  0  0  0  0  0  0  0  0
  -24.8854  -35.1200   22.9015 C   0  0  0  0  0  0  0  0  0  0  0  0
  -27.6149  -14.0320   16.9603 C   0  0  0  0  0  0  0  0  0  0  0  0
  -26.0822  -34.1891   22.7346 C   0  0  0  0  0  0  0  0  0  0  0  0
  -27.1498  -13.0312   18.0179 C   0  0  0  0  0  0  0  0  0  0  0  0
  -28.4341  -19.1445   20.8356 C   0  0  0  0  0  0  0  0  0  0  0  0
  -30.8650  -19.2067   20.1310 C   0  0  0  0  0  0  0  0  0  0  0  0
  -27.4539  -15.4643   17.4564 C   0  0  0  0  0  0  0  0  0  0  0  0
  -28.5091  -17.6156   20.8806 C   0  0  0  0  0  0  0  0  0  0  0  0
  -30.8900  -17.6834   20.2178 C   0  0  0  0  0  0  0  0  0  0  0  0
  -27.7085  -14.7479   19.8101 C   0  0  0  0  0  0  0  0  0  0  0  0
  -26.3682  -33.9184   21.2526 C   0  0  1  0  0  0  0  0  0  0  0  0
  -29.8087  -19.7901   21.0869 C   0  0  0  0  0  0  0  0  0  0  0  0
  -24.5035  -30.7725   20.2230 C   0  0  1  0  0  0  0  0  0  0  0  0
  -27.8561  -13.2794   19.3626 C   0  0  1  0  0  0  0  0  0  0  0  0
  -18.4267  -27.3989   23.6426 C   0  0  0  0  0  0  0  0  0  0  0  0
  -31.2006  -22.0938   24.1587 C   0  0  0  0  0  0  0  0  0  0  0  0
  -32.9559  -22.0728   22.3354 C   0  0  0  0  0  0  0  0  0  0  0  0
  -23.6103  -31.3798   24.7168 C   0  0  0  0  0  0  0  0  0  0  0  0
  -21.7423  -29.9933   25.6421 C   0  0  0  0  0  0  0  0  0  0  0  0
  -21.2358  -31.9408   24.1680 C   0  0  0  0  0  0  0  0  0  0  0  0
  -20.0013  -26.4129   20.3223 C   0  0  0  0  0  0  0  0  0  0  0  0
  -28.6931  -24.6723   19.9581 C   0  0  0  0  0  0  0  0  0  1  0  0
  -22.2340  -29.8489   23.1585 C   0  0  1  0  0  0  0  0  0  0  0  0
  -19.2802  -27.5975   22.3997 C   0  0  2  0  0  0  0  0  0  0  0  0
  -31.5394  -21.6536   22.7332 C   0  0  0  0  0  0  0  0  0  0  0  0
  -22.2252  -30.7790   24.4044 C   0  0  0  0  0  0  0  0  0  0  0  0
  -26.1098  -11.8840   20.4052 N   0  0  0  0  0  0  0  0  0  0  0  0
  -30.5524  -22.1070   21.7778 N   0  0  0  0  0  0  0  0  0  0  0  0
  -27.3830  -12.3135   20.4334 N   0  0  0  0  0  0  0  0  0  0  0  0
  -23.8658  -30.0213   21.3061 N   0  0  0  0  0  0  0  0  0  0  0  0
  -28.1350  -15.6586   18.7362 N   0  0  0  0  0  0  0  0  0  0  0  0
  -29.5608  -17.1208   19.9814 N   0  0  0  0  0  0  0  0  0  0  0  0
  -29.4121  -12.1296   21.6415 N   0  0  0  0  0  0  0  0  0  0  0  0
  -26.5947   -9.4341   23.9203 N   0  0  0  0  0  0  0  0  0  0  0  0
  -25.4291  -32.9518   20.7250 N   0  0  0  0  0  0  0  0  0  0  0  0
  -20.9301  -29.2872   22.8229 N   0  0  0  0  0  0  0  0  0  0  0  0
  -19.2239  -26.3498   21.5867 N   0  3  0  0  0  0  0  0  0  0  0  0
  -28.7320  -10.2624   23.8523 O   0  0  0  0  0  0  0  0  0  0  0  0
  -26.5419  -31.0171   21.3894 O   0  0  0  0  0  0  0  0  0  0  0  0
  -22.1068  -31.5394   21.4995 O   0  0  0  0  0  0  0  0  0  0  0  0
  -21.5646  -27.0621   22.9761 O   0  0  0  0  0  0  0  0  0  0  0  0
  -30.0762  -16.5014   17.8214 O   0  0  0  0  0  0  0  0  0  0  0  0
  -21.2500   -8.4601   22.6872 O   0  0  0  0  0  0  0  0  0  0  0  0
  -27.8005  -25.2801   20.8920 O   0  0  0  0  0  0  0  0  0  1  0  0
  -21.5149   -3.1071   23.9831 F   0  0  0  0  0  0  0  0  0  0  0  0
  -19.9019   -6.5692   21.1871 F   0  0  0  0  0  0  0  0  0  0  0  0
  1  2  1  0  0  0  0
  1  5  2  0  0  0  0
  2  6  2  0  0  0  0
  3  8  2  0  0  0  0
  3 17  1  0  0  0  0
  4  9  1  0  0  0  0
  4 17  2  0  0  0  0
  5 19  1  0  0  0  0
  6 21  1  0  0  0  0
  7 10  2  0  0  0  0
  7 20  1  0  0  0  0
  8 24  1  0  0  0  0
  9 24  2  0  0  0  0
 10 25  1  0  0  0  0
 11 12  2  0  0  0  0
 11 26  1  0  0  0  0
 12 27  1  0  0  0  0
 13 22  1  0  0  0  0
 13 25  2  0  0  0  0
 14 23  1  0  0  0  0
 14 30  2  0  0  0  0
 15 27  2  0  0  0  0
 15 28  1  0  0  0  0
 16 23  2  0  0  0  0
 16 67  1  0  0  0  0
 17 29  1  0  0  0  0
 18 29  1  0  0  0  0
 18 31  2  0  0  0  0
 18 32  1  0  0  0  0
 19 21  2  0  0  0  0
 19 37  1  0  0  0  0
 20 22  2  0  0  0  0
 20 38  1  0  0  0  0
 21 50  1  0  0  0  0
 22 39  1  0  0  0  0
 23 61  1  0  0  0  0
 24 82  1  0  0  0  0
 25 83  1  0  0  0  0
 26 28  2  0  0  0  0
 26 82  1  0  0  0  0
 27 84  1  0  0  0  0
 28 85  1  0  0  0  0
 29 66  2  0  0  0  0
 30 51  1  0  0  0  0
 30 67  1  0  0  0  0
 31 68  1  0  0  0  0
 31 72  1  0  0  0  0
 32 73  1  0  0  0  0
 32 77  2  0  0  0  0
 33 52  1  0  0  0  0
 33 74  1  0  0  0  0
 33 78  2  0  0  0  0
 34 62  1  0  0  0  0
 34 69  1  0  0  0  0
 34 79  2  0  0  0  0
 35 63  1  0  0  0  0
 35 75  1  0  0  0  0
 35 80  2  0  0  0  0
 36 70  1  0  0  0  0
 36 71  1  0  0  0  0
 36 81  2  0  0  0  0
 37 40  1  0  0  0  0
 38 52  1  0  0  0  0
 39 69  1  0  0  0  0
 40 42  1  0  0  0  0
 41 43  1  0  0  0  0
 41 46  1  0  0  0  0
 42 50  1  0  0  0  0
 43 53  1  0  0  0  0
 44 47  1  0  0  0  0
 44 51  1  0  0  0  0
 45 48  1  0  0  0  0
 45 51  1  0  0  0  0
 46 70  1  0  0  0  0
 47 71  1  0  0  0  0
 48 71  1  0  0  0  0
 49 53  1  0  0  0  0
 49 70  1  0  0  0  0
 50 74  1  0  0  0  0
 52 69  1  0  0  0  0
 53 68  1  0  0  0  0
 54 63  1  0  0  0  0
 55 64  1  0  0  0  0
 56 64  1  0  0  0  0
 57 65  1  0  0  0  0
 58 65  1  0  0  0  0
 59 65  1  0  0  0  0
 60 76  1  0  0  0  0
 61 83  1  0  0  0  0
 62 65  1  0  0  0  0
 62 75  1  0  0  0  0
 63 76  1  0  0  0  0
 64 67  1  0  0  0  0
 66 68  1  0  0  0  0
M  CHG  1  76   1
M  ISO  4  36 100  61 101  71 100  83 101
M  END
> <Batch ID>
0128

> <Smiles>
CNC(C)C(=O)NC(C(=O)N1Cc2cc([101O:1][101CH2:1]c3cc(C4CC[100N:0]([100C:0](=O)N5CCCC(n6nc(-c7ccc(Oc8ccc(F)cc8F)cc7)c(C(N)=O)c6N)C5)CC4)n(C(C)C)c3)ccc2CC1C(=O)NC1CCCc2ccccc21)C(C)(C)C

> <Shape>
0.305

> <Color>
0.069

> <Negative vol penalty>
0.000

$$$$

  -OEChem-04052320423D

 85 93  0     1  0  0  0  0  0999 V2000
  -14.9667  -19.5389   27.7753 C   0  0  0  0  0  0  0  0  0  0  0  0
  -16.1408  -19.2624   27.0822 C   0  0  0  0  0  0  0  0  0  0  0  0
  -23.0746   -9.8686   19.9422 C   0  0  0  0  0  0  0  0  0  0  0  0
  -23.8376   -9.8758   22.2345 C   0  0  0  0  0  0  0  0  0  0  0  0
  -14.5606  -20.8602   27.9571 C   0  0  0  0  0  0  0  0  0  0  0  0
  -16.9090  -20.3071   26.5696 C   0  0  0  0  0  0  0  0  0  0  0  0
  -23.0136  -20.5140   26.1251 C   0  0  0  0  0  0  0  0  0  0  0  0
  -22.3316   -8.7151   20.1931 C   0  0  0  0  0  0  0  0  0  0  0  0
  -23.0945   -8.7223   22.4854 C   0  0  0  0  0  0  0  0  0  0  0  0
  -23.8857  -20.2696   25.0652 C   0  0  0  0  0  0  0  0  0  0  0  0
  -19.8676   -7.9229   23.0923 C   0  0  0  0  0  0  0  0  0  0  0  0
  -19.1123   -7.8826   24.2642 C   0  0  0  0  0  0  0  0  0  0  0  0
  -23.9522  -22.6323   24.5830 C   0  0  0  0  0  0  0  0  0  0  0  0
  -20.3556   -5.9457   24.9988 C   0  0  0  0  0  0  0  0  0  0  0  0
  -23.8276  -10.4490   20.9629 C   0  0  0  0  0  0  0  0  0  0  0  0
  -24.1681  -12.9743   20.8426 C   0  0  0  0  0  0  0  0  0  0  0  0
  -15.3292  -21.9221   27.4548 C   0  0  0  0  0  0  0  0  0  0  0  0
  -22.5950  -21.8204   26.4156 C   0  0  0  0  0  0  0  0  0  0  0  0
  -16.5121  -21.6439   26.7437 C   0  0  0  0  0  0  0  0  0  0  0  0
  -23.0768  -22.8909   25.6488 C   0  0  0  0  0  0  0  0  0  0  0  0
  -22.3416   -8.1420   21.4647 C   0  0  0  0  0  0  0  0  0  0  0  0
  -24.3529  -21.3285   24.2922 C   0  0  0  0  0  0  0  0  0  0  0  0
  -20.8669   -6.9746   22.8736 C   0  0  0  0  0  0  0  0  0  0  0  0
  -19.3563   -6.8940   25.2175 C   0  0  0  0  0  0  0  0  0  0  0  0
  -21.1109   -5.9860   23.8269 C   0  0  0  0  0  0  0  0  0  0  0  0
  -24.5958  -11.6403   20.7042 C   0  0  0  0  0  0  0  0  0  0  0  0
  -25.2594  -13.7243   20.4779 C   0  0  0  0  0  0  0  0  0  0  0  0
  -22.8979  -13.4895   21.2632 C   0  0  0  0  0  0  0  0  0  0  0  0
  -19.7928  -23.3202   26.4606 C   0  0  0  0  0  0  0  0  0  0  0  0
  -21.5567  -25.7567   27.6747 C   0  0  0  0  0  0  0  0  0  0  0  0
  -24.6110  -27.2467   27.9877 C   0  0  0  0  0  0  0  0  0  0  0  0
  -30.7429  -14.7460   20.6589 C   0  0  0  0  0  0  0  0  0  0  0  0
  -14.8251  -23.3321   27.6352 C   0  0  0  0  0  0  0  0  0  0  0  0
  -21.6749  -22.0703   27.5791 C   0  0  0  0  0  0  0  0  0  0  0  0
  -22.6736  -24.3141   25.9321 C   0  0  0  0  0  0  0  0  0  0  0  0
  -15.8904  -24.3964   27.3851 C   0  0  0  0  0  0  0  0  0  0  0  0
  -29.6032  -12.3611   18.2735 C   0  0  0  0  0  0  0  0  0  0  0  0
  -16.6542  -24.0955   26.0995 C   0  0  0  0  0  0  0  0  0  0  0  0
  -25.9033  -21.3503   18.3600 C   0  0  0  0  0  0  0  0  0  0  0  0
  -28.1665  -12.0667   18.7084 C   0  0  0  0  0  0  0  0  0  0  0  0
  -27.3277  -20.8284   18.5305 C   0  0  0  0  0  0  0  0  0  0  0  0
  -26.9854  -20.7124   21.0295 C   0  0  0  0  0  0  0  0  0  0  0  0
  -30.5218  -12.5823   19.4732 C   0  0  0  0  0  0  0  0  0  0  0  0
  -28.6216  -13.3124   20.8624 C   0  0  0  0  0  0  0  0  0  0  0  0
  -17.3853  -22.7509   26.1941 C   0  0  1  0  0  0  0  0  0  0  0  0
  -20.9094  -23.3848   27.4639 C   0  0  1  0  0  0  0  0  0  0  0  0
  -25.4145  -22.1144   19.6037 C   0  0  2  0  0  0  0  0  0  0  0  0
  -25.5461  -21.2396   20.8763 C   0  0  2  0  0  0  0  0  0  0  0  0
  -27.6459  -13.1374   19.6860 C   0  0  2  0  0  0  0  0  0  0  0  0
  -27.4371  -19.9632   19.7797 C   0  0  2  0  0  0  0  0  0  0  0  0
  -25.7319  -29.2468   29.0078 C   0  0  0  0  0  0  0  0  0  0  0  0
  -23.9265  -23.5513   18.1808 C   0  0  0  0  0  0  0  0  0  0  0  0
  -23.0479  -21.4090   19.1515 C   0  0  0  0  0  0  0  0  0  0  0  0
  -20.4032  -27.5240   25.4711 C   0  0  0  0  0  0  0  0  0  0  0  0
  -22.2254  -29.1761   25.9383 C   0  0  0  0  0  0  0  0  0  0  0  0
  -20.5620  -28.6216   27.7126 C   0  0  0  0  0  0  0  0  0  0  0  0
  -26.3608  -25.5533   29.6698 C   0  0  0  0  0  0  0  0  0  0  0  0
  -25.1430  -21.9901   22.1488 C   0  0  0  0  0  0  0  0  0  1  0  0
  -30.5259  -18.0473   20.9363 C   0  0  0  0  0  0  0  0  0  0  0  0
  -30.8093  -16.8966   21.8958 C   0  0  0  0  0  0  0  0  0  0  0  0
  -29.0432  -18.3900   20.8679 C   0  0  0  0  0  0  0  0  0  0  0  0
  -22.3226  -26.9179   27.0881 C   0  0  1  0  0  0  0  0  0  0  0  0
  -25.3485  -27.7877   29.1993 C   0  0  2  0  0  0  0  0  0  0  0  0
  -23.9800  -22.5967   19.3696 C   0  0  0  0  0  0  0  0  0  0  0  0
  -21.3846  -28.0330   26.5457 C   0  0  0  0  0  0  0  0  0  0  0  0
  -25.8601  -11.5451   20.2842 N   0  0  0  0  0  0  0  0  0  0  0  0
  -26.2362  -12.8288   20.1554 N   0  0  0  0  0  0  0  0  0  0  0  0
  -21.7673  -24.5064   27.0763 N   0  0  0  0  0  0  0  0  0  0  0  0
  -29.9720  -13.6105   20.3599 N   0  0  0  0  0  0  0  0  0  0  0  0
  -25.4690  -15.0559   20.4046 N   0  0  0  0  0  0  0  0  0  0  0  0
  -21.8869  -12.5798   21.6018 N   0  0  0  0  0  0  0  0  0  0  0  0
  -18.5903  -22.8853   26.9843 N   0  0  0  0  0  0  0  0  0  0  0  0
  -23.2443  -27.3653   28.1267 N   0  0  0  0  0  0  0  0  0  0  0  0
  -30.1444  -15.6745   21.5018 N   0  0  0  0  0  0  0  0  0  0  0  0
  -28.8544  -19.5472   19.9536 N   0  3  0  0  0  0  0  0  0  0  0  0
  -26.5920  -27.0030   29.4418 N   0  3  0  0  0  0  0  0  0  0  0  0
  -22.6611  -14.7200   21.3210 O   0  0  0  0  0  0  0  0  0  0  0  0
  -20.0060  -23.6426   25.2977 O   0  0  0  0  0  0  0  0  0  0  0  0
  -20.8050  -25.9506   28.6333 O   0  0  0  0  0  0  0  0  0  0  0  0
  -25.1896  -26.7702   27.0137 O   0  0  0  0  0  0  0  0  0  0  0  0
  -31.8781  -14.9221   20.2037 O   0  0  0  0  0  0  0  0  0  0  0  0
  -21.6165   -7.0165   21.7099 O   0  0  0  0  0  0  0  0  0  0  0  0
  -25.2037  -21.0926   23.2566 O   0  0  0  0  0  0  0  0  0  1  0  0
  -18.6319   -6.8563   26.3435 F   0  0  0  0  0  0  0  0  0  0  0  0
  -22.0704   -5.0730   23.6229 F   0  0  0  0  0  0  0  0  0  0  0  0
  1  2  1  0  0  0  0
  1  5  2  0  0  0  0
  2  6  2  0  0  0  0
  3  8  2  0  0  0  0
  3 15  1  0  0  0  0
  4  9  1  0  0  0  0
  4 15  2  0  0  0  0
  5 17  1  0  0  0  0
  6 19  1  0  0  0  0
  7 10  2  0  0  0  0
  7 18  1  0  0  0  0
  8 21  1  0  0  0  0
  9 21  2  0  0  0  0
 10 22  1  0  0  0  0
 11 12  2  0  0  0  0
 11 23  1  0  0  0  0
 12 24  1  0  0  0  0
 13 20  1  0  0  0  0
 13 22  2  0  0  0  0
 14 24  2  0  0  0  0
 14 25  1  0  0  0  0
 15 26  1  0  0  0  0
 16 26  1  0  0  0  0
 16 27  2  0  0  0  0
 16 28  1  0  0  0  0
 17 19  2  0  0  0  0
 17 33  1  0  0  0  0
 18 20  2  0  0  0  0
 18 34  1  0  0  0  0
 19 45  1  0  0  0  0
 20 35  1  0  0  0  0
 21 82  1  0  0  0  0
 22 83  1  0  0  0  0
 23 25  2  0  0  0  0
 23 82  1  0  0  0  0
 24 84  1  0  0  0  0
 25 85  1  0  0  0  0
 26 66  2  0  0  0  0
 27 67  1  0  0  0  0
 27 70  1  0  0  0  0
 28 71  1  0  0  0  0
 28 77  2  0  0  0  0
 29 46  1  0  0  0  0
 29 72  1  0  0  0  0
 29 78  2  0  0  0  0
 30 62  1  0  0  0  0
 30 68  1  0  0  0  0
 30 79  2  0  0  0  0
 31 63  1  0  0  0  0
 31 73  1  0  0  0  0
 31 80  2  0  0  0  0
 32 69  1  0  0  0  0
 32 74  1  0  0  0  0
 32 81  2  0  0  0  0
 33 36  1  0  0  0  0
 34 46  1  0  0  0  0
 35 68  1  0  0  0  0
 36 38  1  0  0  0  0
 37 40  1  0  0  0  0
 37 43  1  0  0  0  0
 38 45  1  0  0  0  0
 39 41  1  0  0  0  0
 39 47  1  0  0  0  0
 40 49  1  0  0  0  0
 41 50  1  0  0  0  0
 42 48  1  0  0  0  0
 42 50  1  0  0  0  0
 43 69  1  0  0  0  0
 44 49  1  0  0  0  0
 44 69  1  0  0  0  0
 45 72  1  0  0  0  0
 46 68  1  0  0  0  0
 47 48  1  0  0  0  0
 47 64  1  0  0  0  0
 48 58  1  0  0  0  0
 49 67  1  0  0  0  0
 50 75  1  0  0  0  0
 51 63  1  0  0  0  0
 52 64  1  0  0  0  0
 53 64  1  0  0  0  0
 54 65  1  0  0  0  0
 55 65  1  0  0  0  0
 56 65  1  0  0  0  0
 57 76  1  0  0  0  0
 58 83  1  0  0  0  0
 59 60  1  0  0  0  0
 59 61  1  0  0  0  0
 60 74  1  0  0  0  0
 61 75  1  0  0  0  0
 62 65  1  0  0  0  0
 62 73  1  0  0  0  0
 63 76  1  0  0  0  0
 66 67  1  0  0  0  0
M  CHG  2  75   1  76   1
M  ISO  4  32 100  58 101  74 100  83 101
M  END
> <Batch ID>
0128

> <Smiles>
CNC(C)C(=O)NC(C(=O)N1Cc2cc([101O:1][101CH2:1]C3CC(NCCC[100NH:0][100C:0](=O)N4CCCC(n5nc(-c6ccc(Oc7ccc(F)cc7F)cc6)c(C(N)=O)c5N)C4)CCC3C(C)C)ccc2CC1C(=O)NC1CCCc2ccccc21)C(C)(C)C

> <Shape>
0.191

> <Color>
0.187

> <Negative vol penalty>
0.000

$$$$

  -OEChem-04052320423D

 84 93  0     1  0  0  0  0  0999 V2000
  -24.2331  -36.8929   20.5471 C   0  0  0  0  0  0  0  0  0  0  0  0
  -25.1079  -35.8462   20.2740 C   0  0  0  0  0  0  0  0  0  0  0  0
  -26.7164  -12.7651   21.6264 C   0  0  0  0  0  0  0  0  0  0  0  0
  -25.7962  -14.3171   20.0197 C   0  0  0  0  0  0  0  0  0  0  0  0
  -23.2845  -36.7607   21.5602 C   0  0  0  0  0  0  0  0  0  0  0  0
  -25.0353  -34.6671   21.0148 C   0  0  0  0  0  0  0  0  0  0  0  0
  -26.0819  -28.9806   18.9961 C   0  0  0  0  0  0  0  0  0  0  0  0
  -25.4679  -12.1564   21.7536 C   0  0  0  0  0  0  0  0  0  0  0  0
  -24.5476  -13.7084   20.1468 C   0  0  0  0  0  0  0  0  0  0  0  0
  -27.1976  -28.1483   19.0737 C   0  0  0  0  0  0  0  0  0  0  0  0
  -23.5870   -9.9446   20.0206 C   0  0  0  0  0  0  0  0  0  0  0  0
  -23.5415   -8.5505   20.0110 C   0  0  0  0  0  0  0  0  0  0  0  0
  -26.2627  -27.0873   21.0280 C   0  0  0  0  0  0  0  0  0  0  0  0
  -22.5617   -8.5673   22.2194 C   0  0  0  0  0  0  0  0  0  0  0  0
  -26.8806  -13.8455   20.7595 C   0  0  0  0  0  0  0  0  0  0  0  0
  -29.3701  -13.8742   20.2037 C   0  0  0  0  0  0  0  0  0  0  0  0
  -23.1938  -35.5757   22.3074 C   0  0  0  0  0  0  0  0  0  0  0  0
  -25.0515  -28.8798   19.9419 C   0  0  0  0  0  0  0  0  0  0  0  0
  -24.0855  -34.5194   22.0399 C   0  0  0  0  0  0  0  0  0  0  0  0
  -25.1338  -27.9178   20.9588 C   0  0  0  0  0  0  0  0  0  0  0  0
  -24.3835  -12.6280   21.0137 C   0  0  0  0  0  0  0  0  0  0  0  0
  -27.2895  -27.2034   20.0914 C   0  0  0  0  0  0  0  0  0  0  0  0
  -23.1199  -10.6500   21.1296 C   0  0  0  0  0  0  0  0  0  0  0  0
  -23.0288   -7.8619   21.1103 C   0  0  0  0  0  0  0  0  0  0  0  0
  -22.6073   -9.9614   22.2290 C   0  0  0  0  0  0  0  0  0  0  0  0
  -28.1700  -14.4751   20.6282 C   0  0  0  0  0  0  0  0  0  0  0  0
  -30.2969  -14.8867   20.2518 C   0  0  0  0  0  0  0  0  0  0  0  0
  -29.6245  -12.5216   19.8017 C   0  0  0  0  0  0  0  0  0  0  0  0
  -23.7987  -30.8363   22.1114 C   0  0  0  0  0  0  0  0  0  0  0  0
  -21.6638  -28.4229   22.4861 C   0  0  0  0  0  0  0  0  0  0  0  0
  -19.9598  -25.4688   22.6129 C   0  0  0  0  0  0  0  0  0  0  0  0
  -31.9095  -19.9315   19.2975 C   0  0  0  0  0  0  0  0  0  0  0  0
  -22.1833  -35.4972   23.4242 C   0  0  0  0  0  0  0  0  0  0  0  0
  -23.8422  -29.7670   19.8287 C   0  0  0  0  0  0  0  0  0  0  0  0
  -24.0452  -27.7557   21.9870 C   0  0  0  0  0  0  0  0  0  0  0  0
  -21.9248  -34.0743   23.9129 C   0  0  0  0  0  0  0  0  0  0  0  0
  -30.0376  -19.5107   22.2624 C   0  0  0  0  0  0  0  0  0  0  0  0
  -23.2421  -33.3336   24.1203 C   0  0  0  0  0  0  0  0  0  0  0  0
  -30.7148  -24.6632   20.2043 C   0  0  0  0  0  0  0  0  0  0  0  0
  -30.2994  -24.2352   17.7485 C   0  0  0  0  0  0  0  0  0  0  0  0
  -29.4691  -18.1063   22.0646 C   0  0  0  0  0  0  0  0  0  0  0  0
  -31.2998  -23.2641   20.4293 C   0  0  0  0  0  0  0  0  0  0  0  0
  -31.4002  -23.1796   17.9043 C   0  0  0  0  0  0  0  0  0  0  0  0
  -33.8367  -21.8230   17.4984 C   0  0  0  0  0  0  0  0  0  0  0  0
  -33.9212  -23.0008   19.7341 C   0  0  0  0  0  0  0  0  0  0  0  0
  -30.0351  -20.3198   20.9641 C   0  0  0  0  0  0  0  0  0  0  0  0
  -30.1382  -18.2344   19.6361 C   0  0  0  0  0  0  0  0  0  0  0  0
  -35.2503  -22.3042   17.2045 C   0  0  0  0  0  0  0  0  0  0  0  0
  -35.3344  -23.4704   19.4204 C   0  0  0  0  0  0  0  0  0  0  0  0
  -24.0215  -33.2154   22.8050 C   0  0  1  0  0  0  0  0  0  0  0  0
  -23.0919  -29.9257   21.1475 C   0  0  1  0  0  0  0  0  0  0  0  0
  -29.6749  -24.6805   19.0820 C   0  0  0  0  0  0  0  0  0  0  0  0
  -30.1849  -17.3802   20.9124 C   0  0  2  0  0  0  0  0  0  0  0  0
  -31.2337  -22.3678   19.1857 C   0  0  0  0  0  0  0  0  0  0  0  0
  -33.5887  -21.6964   19.0038 C   0  0  0  0  0  0  0  0  0  0  0  0
  -18.0665  -24.3366   23.8090 C   0  0  0  0  0  0  0  0  0  0  0  0
  -23.4448  -28.0354   24.9331 C   0  0  0  0  0  0  0  0  0  0  0  0
  -21.9369  -26.1691   25.6484 C   0  0  0  0  0  0  0  0  0  0  0  0
  -21.0411  -28.4890   25.4536 C   0  0  0  0  0  0  0  0  0  0  0  0
  -18.4366  -25.1064   20.1014 C   0  0  0  0  0  0  0  0  0  0  0  0
  -29.0302  -26.0582   18.9449 C   0  0  0  0  0  0  0  0  0  1  0  0
  -21.5853  -27.1902   23.3539 C   0  0  1  0  0  0  0  0  0  0  0  0
  -18.4731  -25.1620   22.5983 C   0  0  2  0  0  0  0  0  0  0  0  0
  -22.0146  -27.4704   24.8217 C   0  0  0  0  0  0  0  0  0  0  0  0
  -28.3178  -15.7691   20.9244 N   0  0  0  0  0  0  0  0  0  0  0  0
  -29.6219  -15.9896   20.6856 N   0  0  0  0  0  0  0  0  0  0  0  0
  -22.8859  -28.6507   21.8376 N   0  0  0  0  0  0  0  0  0  0  0  0
  -30.6852  -19.5714   19.8795 N   0  0  0  0  0  0  0  0  0  0  0  0
  -31.6153  -14.9324   19.9650 N   0  0  0  0  0  0  0  0  0  0  0  0
  -29.4792  -12.1883   18.4482 N   0  0  0  0  0  0  0  0  0  0  0  0
  -23.4603  -32.1693   21.9772 N   0  0  0  0  0  0  0  0  0  0  0  0
  -20.2255  -26.6799   23.2161 N   0  0  0  0  0  0  0  0  0  0  0  0
  -32.2264  -21.2978   19.2615 N   0  0  0  0  0  0  0  0  0  0  0  0
  -35.5009  -23.5788   17.9406 N   0  3  0  0  0  0  0  0  0  0  0  0
  -18.1133  -24.4012   21.3684 N   0  3  0  0  0  0  0  0  0  0  0  0
  -29.9545  -11.6311   20.6213 O   0  0  0  0  0  0  0  0  0  0  0  0
  -24.5912  -30.3642   22.9181 O   0  0  0  0  0  0  0  0  0  0  0  0
  -20.6750  -29.1530   22.3816 O   0  0  0  0  0  0  0  0  0  0  0  0
  -20.8015  -24.7082   22.1401 O   0  0  0  0  0  0  0  0  0  0  0  0
  -32.6754  -19.0802   18.8277 O   0  0  0  0  0  0  0  0  0  0  0  0
  -23.1651  -12.0341   21.1373 O   0  0  0  0  0  0  0  0  0  0  0  0
  -28.3778  -26.3901   20.1698 O   0  0  0  0  0  0  0  0  0  1  0  0
  -22.9838   -6.5232   21.1003 F   0  0  0  0  0  0  0  0  0  0  0  0
  -22.1560  -10.6337   23.2968 F   0  0  0  0  0  0  0  0  0  0  0  0
  1  2  1  0  0  0  0
  1  5  2  0  0  0  0
  2  6  2  0  0  0  0
  3  8  2  0  0  0  0
  3 15  1  0  0  0  0
  4  9  1  0  0  0  0
  4 15  2  0  0  0  0
  5 17  1  0  0  0  0
  6 19  1  0  0  0  0
  7 10  2  0  0  0  0
  7 18  1  0  0  0  0
  8 21  1  0  0  0  0
  9 21  2  0  0  0  0
 10 22  1  0  0  0  0
 11 12  2  0  0  0  0
 11 23  1  0  0  0  0
 12 24  1  0  0  0  0
 13 20  1  0  0  0  0
 13 22  2  0  0  0  0
 14 24  2  0  0  0  0
 14 25  1  0  0  0  0
 15 26  1  0  0  0  0
 16 26  1  0  0  0  0
 16 27  2  0  0  0  0
 16 28  1  0  0  0  0
 17 19  2  0  0  0  0
 17 33  1  0  0  0  0
 18 20  2  0  0  0  0
 18 34  1  0  0  0  0
 19 50  1  0  0  0  0
 20 35  1  0  0  0  0
 21 81  1  0  0  0  0
 22 82  1  0  0  0  0
 23 25  2  0  0  0  0
 23 81  1  0  0  0  0
 24 83  1  0  0  0  0
 25 84  1  0  0  0  0
 26 65  2  0  0  0  0
 27 66  1  0  0  0  0
 27 69  1  0  0  0  0
 28 70  1  0  0  0  0
 28 76  2  0  0  0  0
 29 51  1  0  0  0  0
 29 71  1  0  0  0  0
 29 77  2  0  0  0  0
 30 62  1  0  0  0  0
 30 67  1  0  0  0  0
 30 78  2  0  0  0  0
 31 63  1  0  0  0  0
 31 72  1  0  0  0  0
 31 79  2  0  0  0  0
 32 68  1  0  0  0  0
 32 73  1  0  0  0  0
 32 80  2  0  0  0  0
 33 36  1  0  0  0  0
 34 51  1  0  0  0  0
 35 67  1  0  0  0  0
 36 38  1  0  0  0  0
 37 41  1  0  0  0  0
 37 46  1  0  0  0  0
 38 50  1  0  0  0  0
 39 42  1  0  0  0  0
 39 52  1  0  0  0  0
 40 43  1  0  0  0  0
 40 52  1  0  0  0  0
 41 53  1  0  0  0  0
 42 54  1  0  0  0  0
 43 54  1  0  0  0  0
 44 48  1  0  0  0  0
 44 55  1  0  0  0  0
 45 49  1  0  0  0  0
 45 55  1  0  0  0  0
 46 68  1  0  0  0  0
 47 53  1  0  0  0  0
 47 68  1  0  0  0  0
 48 74  1  0  0  0  0
 49 74  1  0  0  0  0
 50 71  1  0  0  0  0
 51 67  1  0  0  0  0
 52 61  1  0  0  0  0
 53 66  1  0  0  0  0
 54 73  1  0  0  0  0
 55 73  1  0  0  0  0
 56 63  1  0  0  0  0
 57 64  1  0  0  0  0
 58 64  1  0  0  0  0
 59 64  1  0  0  0  0
 60 75  1  0  0  0  0
 61 82  1  0  0  0  0
 62 64  1  0  0  0  0
 62 72  1  0  0  0  0
 63 75  1  0  0  0  0
 65 66  1  0  0  0  0
M  CHG  2  74   1  75   1
M  ISO  4  32 100  61 101  73 100  82 101
M  END
> <Batch ID>
0128

> <Smiles>
CNC(C)C(=O)NC(C(=O)N1Cc2cc([101O:1][101CH2:1]C3CCC([100N:0](C4CCNCC4)[100C:0](=O)N4CCCC(n5nc(-c6ccc(Oc7ccc(F)cc7F)cc6)c(C(N)=O)c5N)C4)CC3)ccc2CC1C(=O)NC1CCCc2ccccc21)C(C)(C)C

> <Shape>
0.293

> <Color>
0.085

> <Negative vol penalty>
0.000

$$$$

  -OEChem-04052320423D

 85 94  0     1  0  0  0  0  0999 V2000
  -16.4740  -29.5714   23.8580 C   0  0  0  0  0  0  0  0  0  0  0  0
  -16.9224  -28.2583   23.9590 C   0  0  0  0  0  0  0  0  0  0  0  0
  -24.6889  -16.4657   21.3932 C   0  0  0  0  0  0  0  0  0  0  0  0
  -26.2221  -15.3594   22.8973 C   0  0  0  0  0  0  0  0  0  0  0  0
  -17.2757  -30.5356   23.2486 C   0  0  0  0  0  0  0  0  0  0  0  0
  -18.1724  -27.9085   23.4496 C   0  0  0  0  0  0  0  0  0  0  0  0
  -23.6564  -23.4656   24.6755 C   0  0  0  0  0  0  0  0  0  0  0  0
  -27.4314  -20.0872   21.0820 C   0  0  0  0  0  0  0  0  0  0  0  0
  -24.8056  -17.6395   22.1375 C   0  0  0  0  0  0  0  0  0  0  0  0
  -26.3388  -16.5333   23.6417 C   0  0  0  0  0  0  0  0  0  0  0  0
  -24.4392  -22.5150   24.0219 C   0  0  0  0  0  0  0  0  0  0  0  0
  -26.7621  -19.1328   26.1464 C   0  0  0  0  0  0  0  0  0  0  0  0
  -26.7015  -19.0280   27.5359 C   0  0  0  0  0  0  0  0  0  0  0  0
  -28.0887  -19.0250   20.4711 C   0  0  0  0  0  0  0  0  0  0  0  0
  -25.7714  -24.2815   23.0607 C   0  0  0  0  0  0  0  0  0  0  0  0
  -24.4826  -18.0870   27.3683 C   0  0  0  0  0  0  0  0  0  0  0  0
  -25.3972  -15.3256   21.7731 C   0  0  0  0  0  0  0  0  0  0  0  0
  -24.1029  -13.3753   20.7588 C   0  0  0  0  0  0  0  0  0  0  0  0
  -18.5402  -30.1995   22.7400 C   0  0  0  0  0  0  0  0  0  0  0  0
  -23.9189  -24.8341   24.5176 C   0  0  0  0  0  0  0  0  0  0  0  0
  -18.9912  -28.8688   22.8315 C   0  0  0  0  0  0  0  0  0  0  0  0
  -24.9921  -25.2474   23.7154 C   0  0  0  0  0  0  0  0  0  0  0  0
  -28.0253  -21.3442   21.1053 C   0  0  0  0  0  0  0  0  0  0  0  0
  -25.6305  -17.6733   23.2618 C   0  0  0  0  0  0  0  0  0  0  0  0
  -25.4951  -22.9229   23.2121 C   0  0  0  0  0  0  0  0  0  0  0  0
  -25.6828  -18.7147   25.3677 C   0  0  0  0  0  0  0  0  0  0  0  0
  -25.5618  -18.5051   28.1469 C   0  0  0  0  0  0  0  0  0  0  0  0
  -24.5431  -18.1918   25.9787 C   0  0  0  0  0  0  0  0  0  0  0  0
  -25.2766  -14.1125   21.0049 C   0  0  0  0  0  0  0  0  0  0  0  0
  -29.2676  -21.4856   20.5084 C   0  0  0  0  0  0  0  0  0  0  0  0
  -29.3282  -19.2704   19.9024 C   0  0  0  0  0  0  0  0  0  0  0  0
  -24.5170  -12.3186   19.9853 C   0  0  0  0  0  0  0  0  0  0  0  0
  -22.7584  -13.6234   21.1907 C   0  0  0  0  0  0  0  0  0  0  0  0
  -22.3000  -27.3087   23.3519 C   0  0  0  0  0  0  0  0  0  0  0  0
  -24.8377  -28.9947   24.4654 C   0  0  0  0  0  0  0  0  0  0  0  0
  -28.1308  -29.0209   25.3607 C   0  0  0  0  0  0  0  0  0  0  0  0
  -29.8182  -13.7369   19.3972 C   0  0  0  0  0  0  0  0  0  0  0  0
  -19.3511  -31.2661   22.0475 C   0  0  0  0  0  0  0  0  0  0  0  0
  -23.0818  -25.8462   25.2507 C   0  0  0  0  0  0  0  0  0  0  0  0
  -25.3280  -26.7038   23.5291 C   0  0  0  0  0  0  0  0  0  0  0  0
  -20.8206  -30.8936   21.8680 C   0  0  0  0  0  0  0  0  0  0  0  0
  -28.4526  -10.7493   20.8029 C   0  0  0  0  0  0  0  0  0  0  0  0
  -30.8799  -15.1784   16.2437 C   0  0  0  0  0  0  0  0  0  0  0  0
  -20.9492  -29.4714   21.3319 C   0  0  0  0  0  0  0  0  0  0  0  0
  -27.2820  -10.3896   19.8946 C   0  0  0  0  0  0  0  0  0  0  0  0
  -30.6265  -16.4634   17.0194 C   0  0  0  0  0  0  0  0  0  0  0  0
  -29.5916  -11.3527   19.9957 C   0  0  0  0  0  0  0  0  0  0  0  0
  -29.9150  -14.2005   16.8962 C   0  0  0  0  0  0  0  0  0  0  0  0
  -27.9875  -12.3059   18.3513 C   0  0  0  0  0  0  0  0  0  0  0  0
  -20.3516  -28.4557   22.3131 C   0  0  1  0  0  0  0  0  0  0  0  0
  -23.1191  -27.2297   24.6091 C   0  0  1  0  0  0  0  0  0  0  0  0
  -26.8108  -11.5785   19.0419 C   0  0  2  0  0  0  0  0  0  0  0  0
  -30.4016  -15.9707   18.4516 C   0  0  1  0  0  0  0  0  0  0  0  0
  -29.9535  -22.8126   20.5035 C   0  0  0  0  0  0  0  0  0  0  0  0
  -29.9332  -30.5547   26.1952 C   0  0  0  0  0  0  0  0  0  0  0  0
  -25.1079  -30.1929   21.6723 C   0  0  0  0  0  0  0  0  0  0  0  0
  -27.4154  -30.9409   22.2922 C   0  0  0  0  0  0  0  0  0  0  0  0
  -25.4434  -31.8194   23.5422 C   0  0  0  0  0  0  0  0  0  0  0  0
  -28.4859  -27.4439   27.8398 C   0  0  0  0  0  0  0  0  0  0  0  0
  -27.3259  -22.4855   21.7585 C   0  0  0  0  0  0  0  0  0  1  0  0
  -29.4449  -16.8732   19.2202 C   0  0  0  0  0  0  0  0  0  0  0  0
  -26.1688  -29.4236   23.8969 C   0  0  1  0  0  0  0  0  0  0  0  0
  -28.8375  -29.5747   26.5848 C   0  0  2  0  0  0  0  0  0  0  0  0
  -26.0266  -30.5668   22.8527 C   0  0  0  0  0  0  0  0  0  0  0  0
  -26.3555  -13.5701   20.4341 N   0  0  0  0  0  0  0  0  0  0  0  0
  -29.9368  -20.4776   19.9054 N   0  0  0  0  0  0  0  0  0  0  0  0
  -25.8613  -12.4806   19.8217 N   0  0  0  0  0  0  0  0  0  0  0  0
  -24.4764  -27.6554   24.2618 N   0  0  0  0  0  0  0  0  0  0  0  0
  -29.1564  -12.5131   19.2181 N   0  0  0  0  0  0  0  0  0  0  0  0
  -29.8905  -14.6026   18.3035 N   0  0  0  0  0  0  0  0  0  0  0  0
  -23.8588  -11.2758   19.4359 N   0  0  0  0  0  0  0  0  0  0  0  0
  -22.3361  -13.0746   22.4092 N   0  0  0  0  0  0  0  0  0  0  0  0
  -29.9754  -18.1943   19.2926 N   0  0  0  0  0  0  0  0  0  0  0  0
  -21.2623  -28.2192   23.4127 N   0  0  0  0  0  0  0  0  0  0  0  0
  -27.0115  -29.7594   25.0394 N   0  0  0  0  0  0  0  0  0  0  0  0
  -29.4537  -28.4691   27.3715 N   0  3  0  0  0  0  0  0  0  0  0  0
  -21.9504  -14.2978   20.5082 O   0  0  0  0  0  0  0  0  0  0  0  0
  -22.5890  -26.5975   22.3967 O   0  0  0  0  0  0  0  0  0  0  0  0
  -24.1472  -29.8159   25.0741 O   0  0  0  0  0  0  0  0  0  0  0  0
  -28.5336  -28.0343   24.7484 O   0  0  0  0  0  0  0  0  0  0  0  0
  -30.3307  -14.0391   20.4830 O   0  0  0  0  0  0  0  0  0  0  0  0
  -25.7448  -18.8186   23.9882 O   0  0  0  0  0  0  0  0  0  0  0  0
  -26.2655  -21.9909   22.5682 O   0  0  0  0  0  0  0  0  0  1  0  0
  -25.5044  -18.4031   29.4813 F   0  0  0  0  0  0  0  0  0  0  0  0
  -23.5037  -17.7874   25.2359 F   0  0  0  0  0  0  0  0  0  0  0  0
  1  2  1  0  0  0  0
  1  5  2  0  0  0  0
  2  6  2  0  0  0  0
  3  9  2  0  0  0  0
  3 17  1  0  0  0  0
  4 10  1  0  0  0  0
  4 17  2  0  0  0  0
  5 19  1  0  0  0  0
  6 21  1  0  0  0  0
  7 11  2  0  0  0  0
  7 20  1  0  0  0  0
  8 14  2  0  0  0  0
  8 23  1  0  0  0  0
  9 24  1  0  0  0  0
 10 24  2  0  0  0  0
 11 25  1  0  0  0  0
 12 13  2  0  0  0  0
 12 26  1  0  0  0  0
 13 27  1  0  0  0  0
 14 31  1  0  0  0  0
 15 22  1  0  0  0  0
 15 25  2  0  0  0  0
 16 27  2  0  0  0  0
 16 28  1  0  0  0  0
 17 29  1  0  0  0  0
 18 29  1  0  0  0  0
 18 32  2  0  0  0  0
 18 33  1  0  0  0  0
 19 21  2  0  0  0  0
 19 38  1  0  0  0  0
 20 22  2  0  0  0  0
 20 39  1  0  0  0  0
 21 50  1  0  0  0  0
 22 40  1  0  0  0  0
 23 30  2  0  0  0  0
 23 60  1  0  0  0  0
 24 82  1  0  0  0  0
 25 83  1  0  0  0  0
 26 28  2  0  0  0  0
 26 82  1  0  0  0  0
 27 84  1  0  0  0  0
 28 85  1  0  0  0  0
 29 65  2  0  0  0  0
 30 54  1  0  0  0  0
 30 66  1  0  0  0  0
 31 66  2  0  0  0  0
 31 73  1  0  0  0  0
 32 67  1  0  0  0  0
 32 71  1  0  0  0  0
 33 72  1  0  0  0  0
 33 77  2  0  0  0  0
 34 51  1  0  0  0  0
 34 74  1  0  0  0  0
 34 78  2  0  0  0  0
 35 62  1  0  0  0  0
 35 68  1  0  0  0  0
 35 79  2  0  0  0  0
 36 63  1  0  0  0  0
 36 75  1  0  0  0  0
 36 80  2  0  0  0  0
 37 69  1  0  0  0  0
 37 70  1  0  0  0  0
 37 81  2  0  0  0  0
 38 41  1  0  0  0  0
 39 51  1  0  0  0  0
 40 68  1  0  0  0  0
 41 44  1  0  0  0  0
 42 45  1  0  0  0  0
 42 47  1  0  0  0  0
 43 46  1  0  0  0  0
 43 48  1  0  0  0  0
 44 50  1  0  0  0  0
 45 52  1  0  0  0  0
 46 53  1  0  0  0  0
 47 69  1  0  0  0  0
 48 70  1  0  0  0  0
 49 52  1  0  0  0  0
 49 69  1  0  0  0  0
 50 74  1  0  0  0  0
 51 68  1  0  0  0  0
 52 67  1  0  0  0  0
 53 61  1  0  0  0  0
 53 70  1  0  0  0  0
 55 63  1  0  0  0  0
 56 64  1  0  0  0  0
 57 64  1  0  0  0  0
 58 64  1  0  0  0  0
 59 76  1  0  0  0  0
 60 83  1  0  0  0  0
 61 73  1  0  0  0  0
 62 64  1  0  0  0  0
 62 75  1  0  0  0  0
 63 76  1  0  0  0  0
 65 67  1  0  0  0  0
M  CHG  1  76   1
M  ISO  4  37 100  60 101  70 100  83 101
M  END
> <Batch ID>
0128

> <Smiles>
CNC(C)C(=O)NC(C(=O)N1Cc2cc([101O:1][101CH2:1]c3ccc(NCC4CCC[100N:0]4[100C:0](=O)N4CCCC(n5nc(-c6ccc(Oc7ccc(F)cc7F)cc6)c(C(N)=O)c5N)C4)nc3C)ccc2CC1C(=O)NC1CCCc2ccccc21)C(C)(C)C

> <Shape>
0.240

> <Color>
0.081

> <Negative vol penalty>
0.000

$$$$

  -OEChem-04052320423D

 87 96  0     1  0  0  0  0  0999 V2000
  -27.0768  -35.2896   13.6840 C   0  0  0  0  0  0  0  0  0  0  0  0
  -26.8452  -33.9689   14.0548 C   0  0  0  0  0  0  0  0  0  0  0  0
  -25.9745  -22.1278   21.8307 C   0  0  0  0  0  0  0  0  0  0  0  0
  -24.6107   -9.7583   21.1651 C   0  0  0  0  0  0  0  0  0  0  0  0
  -24.9465  -10.7519   23.3416 C   0  0  0  0  0  0  0  0  0  0  0  0
  -27.8088  -36.1296   14.5221 C   0  0  0  0  0  0  0  0  0  0  0  0
  -27.3465  -33.4871   15.2635 C   0  0  0  0  0  0  0  0  0  0  0  0
  -24.7215  -29.3673   18.9571 C   0  0  0  0  0  0  0  0  0  0  0  0
  -25.8819  -23.5207   21.8300 C   0  0  0  0  0  0  0  0  0  0  0  0
  -24.3379   -8.5303   21.7678 C   0  0  0  0  0  0  0  0  0  0  0  0
  -24.6737   -9.5239   23.9443 C   0  0  0  0  0  0  0  0  0  0  0  0
  -24.9167  -27.9968   19.1224 C   0  0  0  0  0  0  0  0  0  0  0  0
  -21.9485   -7.6789   24.7123 C   0  0  0  0  0  0  0  0  0  0  0  0
  -21.0944   -7.6755   25.8150 C   0  0  0  0  0  0  0  0  0  0  0  0
  -28.0823  -23.6724   20.8471 C   0  0  0  0  0  0  0  0  0  0  0  0
  -27.2470  -20.0938   21.3259 C   0  0  0  0  0  0  0  0  0  0  0  0
  -26.4031  -28.4375   20.9706 C   0  0  0  0  0  0  0  0  0  0  0  0
  -22.8552   -6.7350   27.1759 C   0  0  0  0  0  0  0  0  0  0  0  0
  -27.1239  -21.4880   21.3388 C   0  0  0  0  0  0  0  0  0  0  0  0
  -28.1863  -22.2716   20.8428 C   0  0  0  0  0  0  0  0  0  0  0  0
  -24.9151  -10.8691   21.9520 C   0  0  0  0  0  0  0  0  0  0  0  0
  -24.2749  -13.1516   21.0097 C   0  0  0  0  0  0  0  0  0  0  0  0
  -28.3111  -35.6606   15.7461 C   0  0  0  0  0  0  0  0  0  0  0  0
  -25.3753  -30.2852   19.7918 C   0  0  0  0  0  0  0  0  0  0  0  0
  -28.0871  -34.3213   16.1181 C   0  0  0  0  0  0  0  0  0  0  0  0
  -26.2125  -29.8191   20.8155 C   0  0  0  0  0  0  0  0  0  0  0  0
  -26.9335  -24.2913   21.3393 C   0  0  0  0  0  0  0  0  0  0  0  0
  -24.3694   -8.4131   23.1573 C   0  0  0  0  0  0  0  0  0  0  0  0
  -25.7599  -27.5318   20.1274 C   0  0  0  0  0  0  0  0  0  0  0  0
  -23.2560   -7.2103   24.8413 C   0  0  0  0  0  0  0  0  0  0  0  0
  -21.5477   -7.2035   27.0468 C   0  0  0  0  0  0  0  0  0  0  0  0
  -23.7093   -6.7383   26.0732 C   0  0  0  0  0  0  0  0  0  0  0  0
  -25.1975  -12.1378   21.3300 C   0  0  0  0  0  0  0  0  0  0  0  0
  -29.3124  -21.6003   20.3624 C   0  0  0  0  0  0  0  0  0  0  0  0
  -28.4138  -19.5377   20.8238 C   0  0  0  0  0  0  0  0  0  0  0  0
  -25.0372  -14.1424   20.4407 C   0  0  0  0  0  0  0  0  0  0  0  0
  -22.8556  -13.1941   21.2088 C   0  0  0  0  0  0  0  0  0  0  0  0
  -27.4878  -32.6171   19.3414 C   0  0  0  0  0  0  0  0  0  0  0  0
  -26.9616  -33.1734   22.4936 C   0  0  0  0  0  0  0  0  0  0  0  0
  -25.9595  -31.9601   25.5219 C   0  0  0  0  0  0  0  0  0  0  0  0
  -29.5849  -17.3543   20.3686 C   0  0  0  0  0  0  0  0  0  0  0  0
  -29.1371  -36.5927   16.5969 C   0  0  0  0  0  0  0  0  0  0  0  0
  -25.1332  -31.7594   19.6176 C   0  0  0  0  0  0  0  0  0  0  0  0
  -26.9218  -30.7625   21.7511 C   0  0  0  0  0  0  0  0  0  0  0  0
  -29.3139  -36.1097   18.0341 C   0  0  0  0  0  0  0  0  0  0  0  0
  -29.8623  -14.1176   18.9111 C   0  0  0  0  0  0  0  0  0  0  0  0
  -29.6950  -34.6329   18.0580 C   0  0  0  0  0  0  0  0  0  0  0  0
  -28.5975  -13.3974   19.3842 C   0  0  0  0  0  0  0  0  0  0  0  0
  -30.4224  -15.0460   19.9873 C   0  0  0  0  0  0  0  0  0  0  0  0
  -28.1954  -15.2878   21.0125 C   0  0  0  0  0  0  0  0  0  0  0  0
  -28.5933  -33.7687   17.4328 C   0  0  1  0  0  0  0  0  0  0  0  0
  -26.2517  -32.6210   20.1956 C   0  0  1  0  0  0  0  0  0  0  0  0
  -27.5577  -14.3905   19.9393 C   0  0  2  0  0  0  0  0  0  0  0  0
  -25.6740  -32.6411   27.9202 C   0  0  0  0  0  0  0  0  0  0  0  0
  -29.9804  -32.9973   22.9004 C   0  0  0  0  0  0  0  0  0  0  0  0
  -29.5640  -32.7305   25.3547 C   0  0  0  0  0  0  0  0  0  0  0  0
  -28.8584  -34.8216   24.1918 C   0  0  0  0  0  0  0  0  0  0  0  0
  -23.0501  -31.4224   25.4492 C   0  0  0  0  0  0  0  0  0  0  0  0
  -26.8298  -25.7881   21.3402 C   0  0  0  0  0  0  0  0  0  1  0  0
  -30.4880  -22.3480   19.8183 C   0  0  0  0  0  0  0  0  0  0  0  0
  -30.2984  -22.8649   18.3823 C   0  0  0  0  0  0  0  0  0  0  0  0
  -31.5448  -23.5641   17.8313 C   0  0  0  0  0  0  0  0  0  0  0  0
  -31.2975  -24.0858   16.4230 C   0  0  0  0  0  0  0  0  0  0  0  0
  -27.5745  -32.6823   23.7828 C   0  0  1  0  0  0  0  0  0  0  0  0
  -25.0021  -32.5134   26.5619 C   0  0  2  0  0  0  0  0  0  0  0  0
  -28.9826  -33.2899   24.0387 C   0  0  0  0  0  0  0  0  0  0  0  0
  -26.4502  -12.4551   20.9924 N   0  0  0  0  0  0  0  0  0  0  0  0
  -29.4505  -20.2554   20.3414 N   0  0  0  0  0  0  0  0  0  0  0  0
  -26.3201  -13.6796   20.4539 N   0  0  0  0  0  0  0  0  0  0  0  0
  -26.6579  -32.1949   21.5364 N   0  0  0  0  0  0  0  0  0  0  0  0
  -29.3825  -15.9611   20.4627 N   0  0  0  0  0  0  0  0  0  0  0  0
  -24.7286  -15.3555   19.9353 N   0  0  0  0  0  0  0  0  0  0  0  0
  -22.2317  -12.0913   21.8077 N   0  0  0  0  0  0  0  0  0  0  0  0
  -28.5142  -18.1244   20.8216 N   0  0  0  0  0  0  0  0  0  0  0  0
  -27.4991  -33.5935   18.3636 N   0  0  0  0  0  0  0  0  0  0  0  0
  -26.6014  -32.9666   24.8318 N   0  0  0  0  0  0  0  0  0  0  0  0
  -32.5106  -24.7931   15.9473 N   0  3  0  0  0  0  0  0  0  0  0  0
  -23.8191  -31.6184   26.7050 N   0  3  0  0  0  0  0  0  0  0  0  0
  -22.1591  -14.1740   20.8508 O   0  0  0  0  0  0  0  0  0  0  0  0
  -28.3670  -31.7905   19.5547 O   0  0  0  0  0  0  0  0  0  0  0  0
  -26.7530  -34.3800   22.3442 O   0  0  0  0  0  0  0  0  0  0  0  0
  -26.1244  -30.7555   25.3423 O   0  0  0  0  0  0  0  0  0  0  0  0
  -30.6200  -17.8291   19.8942 O   0  0  0  0  0  0  0  0  0  0  0  0
  -24.1030   -7.2151   23.7458 O   0  0  0  0  0  0  0  0  0  0  0  0
  -25.9527  -26.1946   20.2905 O   0  0  0  0  0  0  0  0  0  1  0  0
  -20.7278   -7.2017   28.1061 F   0  0  0  0  0  0  0  0  0  0  0  0
  -24.9647   -6.2880   26.2036 F   0  0  0  0  0  0  0  0  0  0  0  0
  1  2  1  0  0  0  0
  1  6  2  0  0  0  0
  2  7  2  0  0  0  0
  3  9  2  0  0  0  0
  3 19  1  0  0  0  0
  4 10  2  0  0  0  0
  4 21  1  0  0  0  0
  5 11  1  0  0  0  0
  5 21  2  0  0  0  0
  6 23  1  0  0  0  0
  7 25  1  0  0  0  0
  8 12  2  0  0  0  0
  8 24  1  0  0  0  0
  9 27  1  0  0  0  0
 10 28  1  0  0  0  0
 11 28  2  0  0  0  0
 12 29  1  0  0  0  0
 13 14  2  0  0  0  0
 13 30  1  0  0  0  0
 14 31  1  0  0  0  0
 15 20  1  0  0  0  0
 15 27  2  0  0  0  0
 16 19  1  0  0  0  0
 16 35  2  0  0  0  0
 17 26  1  0  0  0  0
 17 29  2  0  0  0  0
 18 31  2  0  0  0  0
 18 32  1  0  0  0  0
 19 20  2  0  0  0  0
 20 34  1  0  0  0  0
 21 33  1  0  0  0  0
 22 33  1  0  0  0  0
 22 36  2  0  0  0  0
 22 37  1  0  0  0  0
 23 25  2  0  0  0  0
 23 42  1  0  0  0  0
 24 26  2  0  0  0  0
 24 43  1  0  0  0  0
 25 51  1  0  0  0  0
 26 44  1  0  0  0  0
 27 59  1  0  0  0  0
 28 84  1  0  0  0  0
 29 85  1  0  0  0  0
 30 32  2  0  0  0  0
 30 84  1  0  0  0  0
 31 86  1  0  0  0  0
 32 87  1  0  0  0  0
 33 67  2  0  0  0  0
 34 60  1  0  0  0  0
 34 68  2  0  0  0  0
 35 68  1  0  0  0  0
 35 74  1  0  0  0  0
 36 69  1  0  0  0  0
 36 72  1  0  0  0  0
 37 73  1  0  0  0  0
 37 79  2  0  0  0  0
 38 52  1  0  0  0  0
 38 75  1  0  0  0  0
 38 80  2  0  0  0  0
 39 64  1  0  0  0  0
 39 70  1  0  0  0  0
 39 81  2  0  0  0  0
 40 65  1  0  0  0  0
 40 76  1  0  0  0  0
 40 82  2  0  0  0  0
 41 71  1  0  0  0  0
 41 74  1  0  0  0  0
 41 83  2  0  0  0  0
 42 45  1  0  0  0  0
 43 52  1  0  0  0  0
 44 70  1  0  0  0  0
 45 47  1  0  0  0  0
 46 48  1  0  0  0  0
 46 49  1  0  0  0  0
 47 51  1  0  0  0  0
 48 53  1  0  0  0  0
 49 71  1  0  0  0  0
 50 53  1  0  0  0  0
 50 71  1  0  0  0  0
 51 75  1  0  0  0  0
 52 70  1  0  0  0  0
 53 69  1  0  0  0  0
 54 65  1  0  0  0  0
 55 66  1  0  0  0  0
 56 66  1  0  0  0  0
 57 66  1  0  0  0  0
 58 78  1  0  0  0  0
 59 85  1  0  0  0  0
 60 61  1  0  0  0  0
 61 62  1  0  0  0  0
 62 63  1  0  0  0  0
 63 77  1  0  0  0  0
 64 66  1  0  0  0  0
 64 76  1  0  0  0  0
 65 78  1  0  0  0  0
 67 69  1  0  0  0  0
M  CHG  2  77   1  78   1
M  ISO  4  41 100  59 101  74 100  85 101
M  END
> <Batch ID>
0128

> <Smiles>
CNC(C)C(=O)NC(C(=O)N1Cc2cc([101O:1][101CH2:1]c3ccc4cc([100NH:0][100C:0](=O)N5CCCC(n6nc(-c7ccc(Oc8ccc(F)cc8F)cc7)c(C(N)=O)c6N)C5)nc(CCCCN)c4c3)ccc2CC1C(=O)NC1CCCc2ccccc21)C(C)(C)C

> <Shape>
0.266

> <Color>
0.128

> <Negative vol penalty>
0.000

$$$$

  -OEChem-04052320423D

 85 93  0     1  0  0  0  0  0999 V2000
  -25.2692  -11.2140   21.1237 C   0  0  0  0  0  0  0  0  0  0  0  0
  -25.2722  -12.2885   22.0073 C   0  0  0  0  0  0  0  0  0  0  0  0
  -29.2942  -17.2375   20.3864 C   0  0  0  0  0  0  0  0  0  0  0  0
  -31.4664  -18.0372   21.0784 C   0  0  0  0  0  0  0  0  0  0  0  0
  -25.1462  -11.4402   19.7534 C   0  0  0  0  0  0  0  0  0  0  0  0
  -25.1533  -13.5900   21.5211 C   0  0  0  0  0  0  0  0  0  0  0  0
  -22.4406  -19.9817   23.2827 C   0  0  0  0  0  0  0  0  0  0  0  0
  -26.0585  -28.8149   18.8790 C   0  0  0  0  0  0  0  0  0  0  0  0
  -25.9454  -29.0955   21.2760 C   0  0  0  0  0  0  0  0  0  0  0  0
  -29.8556  -16.0069   20.0461 C   0  0  0  0  0  0  0  0  0  0  0  0
  -32.0279  -16.8065   20.7381 C   0  0  0  0  0  0  0  0  0  0  0  0
  -22.8181  -21.3195   23.3899 C   0  0  0  0  0  0  0  0  0  0  0  0
  -25.1331  -27.7742   18.9571 C   0  0  0  0  0  0  0  0  0  0  0  0
  -25.0199  -28.0548   21.3541 C   0  0  0  0  0  0  0  0  0  0  0  0
  -30.6540  -12.5328   19.3330 C   0  0  0  0  0  0  0  0  0  0  0  0
  -29.9789  -11.3794   19.7324 C   0  0  0  0  0  0  0  0  0  0  0  0
  -22.5319  -21.5849   21.0094 C   0  0  0  0  0  0  0  0  0  0  0  0
  -30.1979  -12.0512   22.0427 C   0  0  0  0  0  0  0  0  0  0  0  0
  -30.0996  -18.2528   20.9024 C   0  0  0  0  0  0  0  0  0  0  0  0
  -28.9853  -19.8996   22.5005 C   0  0  0  0  0  0  0  0  0  0  0  0
  -25.0160  -12.7445   19.2509 C   0  0  0  0  0  0  0  0  0  0  0  0
  -22.1158  -19.4317   22.0343 C   0  0  0  0  0  0  0  0  0  0  0  0
  -25.0298  -13.8339   20.1427 C   0  0  0  0  0  0  0  0  0  0  0  0
  -22.1481  -20.2405   20.8894 C   0  0  0  0  0  0  0  0  0  0  0  0
  -26.4647  -29.4755   20.0385 C   0  0  0  0  0  0  0  0  0  0  0  0
  -31.2224  -15.7913   20.2220 C   0  0  0  0  0  0  0  0  0  0  0  0
  -24.6138  -27.3942   20.1946 C   0  0  0  0  0  0  0  0  0  0  0  0
  -22.8667  -22.1206   22.2528 C   0  0  0  0  0  0  0  0  0  0  0  0
  -31.1011  -13.4454   20.2884 C   0  0  0  0  0  0  0  0  0  0  0  0
  -29.7508  -11.1386   21.0872 C   0  0  0  0  0  0  0  0  0  0  0  0
  -30.8731  -13.2046   21.6433 C   0  0  0  0  0  0  0  0  0  0  0  0
  -29.5204  -19.5245   21.2536 C   0  0  0  0  0  0  0  0  0  0  0  0
  -28.5671  -21.1952   22.3189 C   0  0  0  0  0  0  0  0  0  0  0  0
  -28.8760  -19.1445   23.7144 C   0  0  0  0  0  0  0  0  0  0  0  0
  -23.3098  -17.1030   20.2300 C   0  0  0  0  0  0  0  0  0  0  0  0
  -20.7119  -17.7265   18.3903 C   0  0  0  0  0  0  0  0  0  0  0  0
  -18.3112  -19.9522   17.4262 C   0  0  0  0  0  0  0  0  0  0  0  0
  -30.3532  -25.4205   18.6024 C   0  0  0  0  0  0  0  0  0  0  0  0
  -24.9333  -12.9424   17.7580 C   0  0  0  0  0  0  0  0  0  0  0  0
  -21.6847  -17.9938   21.9393 C   0  0  0  0  0  0  0  0  0  0  0  0
  -21.7893  -19.7035   19.5287 C   0  0  0  0  0  0  0  0  0  0  0  0
  -24.4352  -14.3276   17.3539 C   0  0  0  0  0  0  0  0  0  0  0  0
  -26.9711  -24.1751   18.9306 C   0  0  0  0  0  0  0  0  0  0  0  0
  -25.1546  -15.4082   18.1548 C   0  0  0  0  0  0  0  0  0  0  0  0
  -27.2010  -22.8667   19.6892 C   0  0  0  0  0  0  0  0  0  0  0  0
  -28.0847  -24.4307   17.9192 C   0  0  0  0  0  0  0  0  0  0  0  0
  -29.6887  -23.1250   19.2593 C   0  0  0  0  0  0  0  0  0  0  0  0
  -24.8780  -15.2587   19.6557 C   0  0  1  0  0  0  0  0  0  0  0  0
  -21.8718  -17.4048   20.5445 C   0  0  1  0  0  0  0  0  0  0  0  0
  -28.6084  -22.8207   20.3131 C   0  0  2  0  0  0  0  0  0  0  0  0
  -16.3500  -20.1868   15.8783 C   0  0  0  0  0  0  0  0  0  0  0  0
  -22.6172  -18.0491   16.0290 C   0  0  0  0  0  0  0  0  0  0  0  0
  -20.7681  -19.1868   14.7821 C   0  0  0  0  0  0  0  0  0  0  0  0
  -20.5068  -16.8137   15.5053 C   0  0  0  0  0  0  0  0  0  0  0  0
  -16.4440  -20.4163   19.6750 C   0  0  0  0  0  0  0  0  0  0  0  0
  -27.4537  -30.5886   19.9551 C   0  0  0  0  0  0  0  0  0  0  0  0
  -30.8800  -27.7320   17.8699 C   0  0  0  0  0  0  0  0  0  0  0  0
  -28.9115  -30.1421   20.0766 C   0  0  0  0  0  0  0  0  0  0  0  0
  -30.6507  -28.6924   19.0220 C   0  0  0  0  0  0  0  0  0  0  0  0
  -23.7010  -25.6056   21.4689 C   0  0  0  0  0  0  0  0  0  0  0  0
  -23.2635  -24.1894   21.1489 C   0  0  0  0  0  0  0  0  0  1  0  0
  -20.4168  -18.6541   17.2364 C   0  0  1  0  0  0  0  0  0  0  0  0
  -16.8070  -19.8105   17.2791 C   0  0  2  0  0  0  0  0  0  0  0  0
  -21.0859  -18.1859   15.9134 C   0  0  0  0  0  0  0  0  0  0  0  0
  -29.4497  -20.5026   20.3468 N   0  0  0  0  0  0  0  0  0  0  0  0
  -28.8652  -21.5052   21.0246 N   0  0  0  0  0  0  0  0  0  0  0  0
  -21.3801  -18.2899   19.4866 N   0  0  0  0  0  0  0  0  0  0  0  0
  -29.3966  -24.3919   18.5805 N   0  0  0  0  0  0  0  0  0  0  0  0
  -27.9771  -22.0882   23.1417 N   0  0  0  0  0  0  0  0  0  0  0  0
  -29.3558  -17.8276   23.7275 N   0  0  0  0  0  0  0  0  0  0  0  0
  -23.5628  -15.7676   19.9804 N   0  0  0  0  0  0  0  0  0  0  0  0
  -18.9640  -18.7663   17.1642 N   0  0  0  0  0  0  0  0  0  0  0  0
  -30.0019  -26.5847   17.9302 N   0  0  0  0  0  0  0  0  0  0  0  0
  -16.1058  -20.6921   18.2549 N   0  3  0  0  0  0  0  0  0  0  0  0
  -29.2338  -29.1479   19.0234 N   0  3  0  0  0  0  0  0  0  0  0  0
  -28.3532  -19.6178   24.7518 O   0  0  0  0  0  0  0  0  0  0  0  0
  -24.1288  -18.0143   20.2136 O   0  0  0  0  0  0  0  0  0  0  0  0
  -20.3562  -16.5472   18.3243 O   0  0  0  0  0  0  0  0  0  0  0  0
  -18.8533  -21.0102   17.7384 O   0  0  0  0  0  0  0  0  0  0  0  0
  -31.4386  -25.3115   19.1830 O   0  0  0  0  0  0  0  0  0  0  0  0
  -31.7705  -14.5904   19.8903 O   0  0  0  0  0  0  0  0  0  0  0  0
  -23.7038  -26.3728   20.2710 O   0  0  0  0  0  0  0  0  0  0  0  0
  -23.2355  -23.4265   22.3546 O   0  0  0  0  0  0  0  0  0  1  0  0
  -29.1012  -10.0318   21.4705 F   0  0  0  0  0  0  0  0  0  0  0  0
  -31.2992  -14.0783   22.5658 F   0  0  0  0  0  0  0  0  0  0  0  0
  1  2  1  0  0  0  0
  1  5  2  0  0  0  0
  2  6  2  0  0  0  0
  3 10  2  0  0  0  0
  3 19  1  0  0  0  0
  4 11  1  0  0  0  0
  4 19  2  0  0  0  0
  5 21  1  0  0  0  0
  6 23  1  0  0  0  0
  7 12  2  0  0  0  0
  7 22  1  0  0  0  0
  8 13  2  0  0  0  0
  8 25  1  0  0  0  0
  9 14  1  0  0  0  0
  9 25  2  0  0  0  0
 10 26  1  0  0  0  0
 11 26  2  0  0  0  0
 12 28  1  0  0  0  0
 13 27  1  0  0  0  0
 14 27  2  0  0  0  0
 15 16  2  0  0  0  0
 15 29  1  0  0  0  0
 16 30  1  0  0  0  0
 17 24  1  0  0  0  0
 17 28  2  0  0  0  0
 18 30  2  0  0  0  0
 18 31  1  0  0  0  0
 19 32  1  0  0  0  0
 20 32  1  0  0  0  0
 20 33  2  0  0  0  0
 20 34  1  0  0  0  0
 21 23  2  0  0  0  0
 21 39  1  0  0  0  0
 22 24  2  0  0  0  0
 22 40  1  0  0  0  0
 23 48  1  0  0  0  0
 24 41  1  0  0  0  0
 25 56  1  0  0  0  0
 26 81  1  0  0  0  0
 27 82  1  0  0  0  0
 28 83  1  0  0  0  0
 29 31  2  0  0  0  0
 29 81  1  0  0  0  0
 30 84  1  0  0  0  0
 31 85  1  0  0  0  0
 32 65  2  0  0  0  0
 33 66  1  0  0  0  0
 33 69  1  0  0  0  0
 34 70  1  0  0  0  0
 34 76  2  0  0  0  0
 35 49  1  0  0  0  0
 35 71  1  0  0  0  0
 35 77  2  0  0  0  0
 36 62  1  0  0  0  0
 36 67  1  0  0  0  0
 36 78  2  0  0  0  0
 37 63  1  0  0  0  0
 37 72  1  0  0  0  0
 37 79  2  0  0  0  0
 38 68  1  0  0  0  0
 38 73  1  0  0  0  0
 38 80  2  0  0  0  0
 39 42  1  0  0  0  0
 40 49  1  0  0  0  0
 41 67  1  0  0  0  0
 42 44  1  0  0  0  0
 43 45  1  0  0  0  0
 43 46  1  0  0  0  0
 44 48  1  0  0  0  0
 45 50  1  0  0  0  0
 46 68  1  0  0  0  0
 47 50  1  0  0  0  0
 47 68  1  0  0  0  0
 48 71  1  0  0  0  0
 49 67  1  0  0  0  0
 50 66  1  0  0  0  0
 51 63  1  0  0  0  0
 52 64  1  0  0  0  0
 53 64  1  0  0  0  0
 54 64  1  0  0  0  0
 55 74  1  0  0  0  0
 56 58  1  0  0  0  0
 57 59  1  0  0  0  0
 57 73  1  0  0  0  0
 58 75  1  0  0  0  0
 59 75  1  0  0  0  0
 60 61  1  0  0  0  0
 60 82  1  0  0  0  0
 61 83  1  0  0  0  0
 62 64  1  0  0  0  0
 62 72  1  0  0  0  0
 63 74  1  0  0  0  0
 65 66  1  0  0  0  0
M  CHG  2  74   1  75   1
M  ISO  4  38 100  61 101  73 100  83 101
M  END
> <Batch ID>
0128

> <Smiles>
CNC(C)C(=O)NC(C(=O)N1Cc2cc([101O:1][101CH2:1]COc3ccc(CCNCC[100NH:0][100C:0](=O)N4CCCC(n5nc(-c6ccc(Oc7ccc(F)cc7F)cc6)c(C(N)=O)c5N)C4)cc3)ccc2CC1C(=O)NC1CCCc2ccccc21)C(C)(C)C

> <Shape>
0.177

> <Color>
0.079

> <Negative vol penalty>
0.000

$$$$

  -OEChem-04052320423D

 82 90  0     1  0  0  0  0  0999 V2000
  -22.3386  -29.0371   15.0487 C   0  0  0  0  0  0  0  0  0  0  0  0
  -22.8615  -27.8678   15.5915 C   0  0  0  0  0  0  0  0  0  0  0  0
  -23.1068  -10.3874   22.0747 C   0  0  0  0  0  0  0  0  0  0  0  0
  -24.8581  -10.5336   23.7326 C   0  0  0  0  0  0  0  0  0  0  0  0
  -22.6031  -30.2646   15.6547 C   0  0  0  0  0  0  0  0  0  0  0  0
  -23.6502  -27.9254   16.7400 C   0  0  0  0  0  0  0  0  0  0  0  0
  -23.9011  -23.7845   21.2451 C   0  0  0  0  0  0  0  0  0  0  0  0
  -22.4965   -9.3706   22.8090 C   0  0  0  0  0  0  0  0  0  0  0  0
  -24.2478   -9.5168   24.4669 C   0  0  0  0  0  0  0  0  0  0  0  0
  -24.7933  -22.7487   21.5184 C   0  0  0  0  0  0  0  0  0  0  0  0
  -22.9233   -6.0540   23.3015 C   0  0  0  0  0  0  0  0  0  0  0  0
  -22.4726   -4.9331   22.6043 C   0  0  0  0  0  0  0  0  0  0  0  0
  -26.0002  -24.1942   23.0261 C   0  0  0  0  0  0  0  0  0  0  0  0
  -20.2208   -5.3647   23.3661 C   0  0  0  0  0  0  0  0  0  0  0  0
  -24.2876  -10.9689   22.5365 C   0  0  0  0  0  0  0  0  0  0  0  0
  -24.3676  -13.2675   21.4330 C   0  0  0  0  0  0  0  0  0  0  0  0
  -23.3875  -30.3363   16.8167 C   0  0  0  0  0  0  0  0  0  0  0  0
  -24.0584  -25.0384   21.8529 C   0  0  0  0  0  0  0  0  0  0  0  0
  -23.9266  -29.1551   17.3613 C   0  0  0  0  0  0  0  0  0  0  0  0
  -25.1071  -25.2435   22.7608 C   0  0  0  0  0  0  0  0  0  0  0  0
  -23.0670   -8.9352   24.0051 C   0  0  0  0  0  0  0  0  0  0  0  0
  -25.8448  -22.9543   22.4068 C   0  0  0  0  0  0  0  0  0  0  0  0
  -22.0228   -6.8302   24.0310 C   0  0  0  0  0  0  0  0  0  0  0  0
  -21.1214   -4.5884   22.6366 C   0  0  0  0  0  0  0  0  0  0  0  0
  -20.6716   -6.4856   24.0634 C   0  0  0  0  0  0  0  0  0  0  0  0
  -24.9188  -12.0190   21.7781 C   0  0  0  0  0  0  0  0  0  0  0  0
  -25.3585  -13.8944   20.7178 C   0  0  0  0  0  0  0  0  0  0  0  0
  -23.0754  -13.8120   21.7322 C   0  0  0  0  0  0  0  0  0  0  0  0
  -24.6020  -27.9885   20.8016 C   0  0  0  0  0  0  0  0  0  0  0  0
  -24.1603  -28.7631   23.9204 C   0  0  0  0  0  0  0  0  0  0  0  0
  -24.2206  -27.7772   27.1871 C   0  0  0  0  0  0  0  0  0  0  0  0
  -31.3167  -13.3084   20.6291 C   0  0  0  0  0  0  0  0  0  0  0  0
  -23.6853  -31.6909   17.4091 C   0  0  0  0  0  0  0  0  0  0  0  0
  -23.0717  -26.1374   21.5680 C   0  0  0  0  0  0  0  0  0  0  0  0
  -25.3079  -26.5649   23.4552 C   0  0  0  0  0  0  0  0  0  0  0  0
  -24.2202  -31.6269   18.8374 C   0  0  0  0  0  0  0  0  0  0  0  0
  -29.0896  -12.9559   17.8736 C   0  0  0  0  0  0  0  0  0  0  0  0
  -25.3123  -30.5681   18.9515 C   0  0  0  0  0  0  0  0  0  0  0  0
  -27.7184  -12.7885   18.5307 C   0  0  0  0  0  0  0  0  0  0  0  0
  -28.3986  -21.8065   24.4067 C   0  0  0  0  0  0  0  0  0  0  0  0
  -29.0019  -21.7124   21.9734 C   0  0  0  0  0  0  0  0  0  0  0  0
  -30.1899  -12.2717   18.6817 C   0  0  0  0  0  0  0  0  0  0  0  0
  -28.4985  -20.2783   24.4474 C   0  0  0  0  0  0  0  0  0  0  0  0
  -29.0843  -20.1872   22.0961 C   0  0  0  0  0  0  0  0  0  0  0  0
  -28.8822  -12.5003   20.7581 C   0  0  0  0  0  0  0  0  0  0  0  0
  -24.7661  -29.1741   18.6202 C   0  0  1  0  0  0  0  0  0  0  0  0
  -23.6292  -27.5290   21.8505 C   0  0  1  0  0  0  0  0  0  0  0  0
  -27.7484  -13.2211   20.0090 C   0  0  2  0  0  0  0  0  0  0  0  0
  -28.0538  -22.3142   23.0078 C   0  0  0  0  0  0  0  0  0  1  0  0
  -23.8484  -28.6425   29.5131 C   0  0  0  0  0  0  0  0  0  0  0  0
  -26.8551  -30.1905   23.8179 C   0  0  0  0  0  0  0  0  0  0  0  0
  -26.8685  -30.1965   26.3215 C   0  0  0  0  0  0  0  0  0  0  0  0
  -25.0757  -31.4106   25.0828 C   0  0  0  0  0  0  0  0  0  0  0  0
  -22.0203  -25.8587   27.6735 C   0  0  0  0  0  0  0  0  0  0  0  0
  -29.5903  -18.3301   23.5446 C   0  0  0  0  0  0  0  0  0  0  0  0
  -32.3030  -14.3395   22.6596 C   0  0  0  0  0  0  0  0  0  0  0  0
  -30.9168  -17.8807   22.9618 C   0  0  0  0  0  0  0  0  0  0  0  0
  -32.2996  -15.8497   22.5129 C   0  0  0  0  0  0  0  0  0  0  0  0
  -25.0562  -28.8828   25.1295 C   0  0  1  0  0  0  0  0  0  0  0  0
  -23.2170  -27.9560   28.3119 C   0  0  2  0  0  0  0  0  0  0  0  0
  -25.9615  -30.1457   25.0735 C   0  0  0  0  0  0  0  0  0  0  0  0
  -26.1633  -11.8603   21.3198 N   0  0  0  0  0  0  0  0  0  0  0  0
  -26.4023  -13.0173   20.6793 N   0  0  0  0  0  0  0  0  0  0  0  0
  -24.3205  -27.6102   23.1388 N   0  0  0  0  0  0  0  0  0  0  0  0
  -30.1649  -12.7267   20.0739 N   0  0  0  0  0  0  0  0  0  0  0  0
  -29.4654  -19.7849   23.4570 N   0  0  0  0  0  0  0  0  0  0  0  0
  -25.4302  -15.1049   20.1244 N   0  0  0  0  0  0  0  0  0  0  0  0
  -22.9185  -14.5502   22.9132 N   0  0  0  0  0  0  0  0  0  0  0  0
  -24.0139  -28.6471   19.7387 N   0  0  0  0  0  0  0  0  0  0  0  0
  -24.1796  -28.8272   26.2943 N   0  0  0  0  0  0  0  0  0  0  0  0
  -31.2057  -13.7180   21.9522 N   0  0  0  0  0  0  0  0  0  0  0  0
  -22.6892  -26.6331   28.7504 N   0  3  0  0  0  0  0  0  0  0  0  0
  -31.0544  -16.4102   23.1046 N   0  3  0  0  0  0  0  0  0  0  0  0
  -22.0851  -13.6348   20.9829 O   0  0  0  0  0  0  0  0  0  0  0  0
  -25.7979  -27.7634   20.9466 O   0  0  0  0  0  0  0  0  0  0  0  0
  -23.3432  -29.6561   23.6824 O   0  0  0  0  0  0  0  0  0  0  0  0
  -24.9689  -26.8053   27.1103 O   0  0  0  0  0  0  0  0  0  0  0  0
  -32.3645  -13.4569   19.9911 O   0  0  0  0  0  0  0  0  0  0  0  0
  -22.4717   -7.9432   24.7220 O   0  0  0  0  0  0  0  0  0  0  0  0
  -26.7175  -21.9452   22.6749 O   0  0  0  0  0  0  0  0  0  1  0  0
  -20.6884   -3.5129   21.9658 F   0  0  0  0  0  0  0  0  0  0  0  0
  -19.8015   -7.2281   24.7615 F   0  0  0  0  0  0  0  0  0  0  0  0
  1  2  1  0  0  0  0
  1  5  2  0  0  0  0
  2  6  2  0  0  0  0
  3  8  2  0  0  0  0
  3 15  1  0  0  0  0
  4  9  1  0  0  0  0
  4 15  2  0  0  0  0
  5 17  1  0  0  0  0
  6 19  1  0  0  0  0
  7 10  2  0  0  0  0
  7 18  1  0  0  0  0
  8 21  1  0  0  0  0
  9 21  2  0  0  0  0
 10 22  1  0  0  0  0
 11 12  2  0  0  0  0
 11 23  1  0  0  0  0
 12 24  1  0  0  0  0
 13 20  1  0  0  0  0
 13 22  2  0  0  0  0
 14 24  2  0  0  0  0
 14 25  1  0  0  0  0
 15 26  1  0  0  0  0
 16 26  1  0  0  0  0
 16 27  2  0  0  0  0
 16 28  1  0  0  0  0
 17 19  2  0  0  0  0
 17 33  1  0  0  0  0
 18 20  2  0  0  0  0
 18 34  1  0  0  0  0
 19 46  1  0  0  0  0
 20 35  1  0  0  0  0
 21 79  1  0  0  0  0
 22 80  1  0  0  0  0
 23 25  2  0  0  0  0
 23 79  1  0  0  0  0
 24 81  1  0  0  0  0
 25 82  1  0  0  0  0
 26 62  2  0  0  0  0
 27 63  1  0  0  0  0
 27 67  1  0  0  0  0
 28 68  1  0  0  0  0
 28 74  2  0  0  0  0
 29 47  1  0  0  0  0
 29 69  1  0  0  0  0
 29 75  2  0  0  0  0
 30 59  1  0  0  0  0
 30 64  1  0  0  0  0
 30 76  2  0  0  0  0
 31 60  1  0  0  0  0
 31 70  1  0  0  0  0
 31 77  2  0  0  0  0
 32 65  1  0  0  0  0
 32 71  1  0  0  0  0
 32 78  2  0  0  0  0
 33 36  1  0  0  0  0
 34 47  1  0  0  0  0
 35 64  1  0  0  0  0
 36 38  1  0  0  0  0
 37 39  1  0  0  0  0
 37 42  1  0  0  0  0
 38 46  1  0  0  0  0
 39 48  1  0  0  0  0
 40 43  1  0  0  0  0
 40 49  1  0  0  0  0
 41 44  1  0  0  0  0
 41 49  1  0  0  0  0
 42 65  1  0  0  0  0
 43 66  1  0  0  0  0
 44 66  1  0  0  0  0
 45 48  1  0  0  0  0
 45 65  1  0  0  0  0
 46 69  1  0  0  0  0
 47 64  1  0  0  0  0
 48 63  1  0  0  0  0
 49 80  1  0  0  0  0
 50 60  1  0  0  0  0
 51 61  1  0  0  0  0
 52 61  1  0  0  0  0
 53 61  1  0  0  0  0
 54 72  1  0  0  0  0
 55 57  1  0  0  0  0
 55 66  1  0  0  0  0
 56 58  1  0  0  0  0
 56 71  1  0  0  0  0
 57 73  1  0  0  0  0
 58 73  1  0  0  0  0
 59 61  1  0  0  0  0
 59 70  1  0  0  0  0
 60 72  1  0  0  0  0
 62 63  1  0  0  0  0
M  CHG  2  72   1  73   1
M  ISO  4  32 100  49 101  71 100  80 101
M  END
> <Batch ID>
0128

> <Smiles>
CNC(C)C(=O)NC(C(=O)N1Cc2cc([101O:1][101CH:1]3CCN(CCNCC[100NH:0][100C:0](=O)N4CCCC(n5nc(-c6ccc(Oc7ccc(F)cc7F)cc6)c(C(N)=O)c5N)C4)CC3)ccc2CC1C(=O)NC1CCCc2ccccc21)C(C)(C)C

> <Shape>
0.206

> <Color>
0.117

> <Negative vol penalty>
0.000

$$$$

  -OEChem-04052320423D

 84 92  0     1  0  0  0  0  0999 V2000
  -19.1890  -24.2216   20.4563 C   0  0  0  0  0  0  0  0  0  0  0  0
  -20.4536  -24.6812   20.1025 C   0  0  0  0  0  0  0  0  0  0  0  0
  -25.6952  -13.1990   21.9155 C   0  0  0  0  0  0  0  0  0  0  0  0
  -26.3314  -13.4781   19.6015 C   0  0  0  0  0  0  0  0  0  0  0  0
  -18.4603  -24.8815   21.4450 C   0  0  0  0  0  0  0  0  0  0  0  0
  -20.9896  -25.8015   20.7363 C   0  0  0  0  0  0  0  0  0  0  0  0
  -25.8330  -25.1507   22.0643 C   0  0  0  0  0  0  0  0  0  0  0  0
  -25.2770  -11.8964   21.6434 C   0  0  0  0  0  0  0  0  0  0  0  0
  -25.9132  -12.1755   19.3295 C   0  0  0  0  0  0  0  0  0  0  0  0
  -26.7907  -25.2707   21.0583 C   0  0  0  0  0  0  0  0  0  0  0  0
  -22.5929  -10.3811   20.2565 C   0  0  0  0  0  0  0  0  0  0  0  0
  -21.3673   -9.9717   20.7816 C   0  0  0  0  0  0  0  0  0  0  0  0
  -27.1290  -24.1621   16.6094 C   0  0  0  0  0  0  0  0  0  0  0  0
  -27.6134  -25.2374   17.3943 C   0  0  0  0  0  0  0  0  0  0  0  0
  -27.2754  -27.5158   21.7957 C   0  0  0  0  0  0  0  0  0  0  0  0
  -22.4799   -8.2112   22.0062 C   0  0  0  0  0  0  0  0  0  0  0  0
  -26.2224  -13.9899   20.8945 C   0  0  0  0  0  0  0  0  0  0  0  0
  -27.9377  -15.7502   21.5776 C   0  0  0  0  0  0  0  0  0  0  0  0
  -18.9916  -26.0048   22.0981 C   0  0  0  0  0  0  0  0  0  0  0  0
  -25.5812  -26.2181   22.9382 C   0  0  0  0  0  0  0  0  0  0  0  0
  -20.2667  -26.4778   21.7337 C   0  0  0  0  0  0  0  0  0  0  0  0
  -26.3158  -27.4059   22.8136 C   0  0  0  0  0  0  0  0  0  0  0  0
  -25.3860  -11.3847   20.3504 C   0  0  0  0  0  0  0  0  0  0  0  0
  -27.5100  -26.4543   20.9220 C   0  0  0  0  0  0  0  0  0  0  0  0
  -23.7621   -9.7055   20.6062 C   0  0  0  0  0  0  0  0  0  0  0  0
  -21.3107   -8.8868   21.6564 C   0  0  0  0  0  0  0  0  0  0  0  0
  -23.7056   -8.6206   21.4811 C   0  0  0  0  0  0  0  0  0  0  0  0
  -26.6540  -15.3357   21.1748 C   0  0  0  0  0  0  0  0  0  0  0  0
  -27.6021  -22.9969   17.1713 C   0  0  0  0  0  0  0  0  0  0  0  0
  -28.3680  -24.6967   18.4119 C   0  0  0  0  0  0  0  0  0  0  0  0
  -27.8319  -17.1130   21.7120 C   0  0  0  0  0  0  0  0  0  0  0  0
  -29.1199  -14.9730   21.8093 C   0  0  0  0  0  0  0  0  0  0  0  0
  -23.0557  -28.0345   23.5915 C   0  0  0  0  0  0  0  0  0  0  0  0
  -24.9903  -29.2092   25.9152 C   0  0  0  0  0  0  0  0  0  0  0  0
  -28.1657  -29.7437   27.0457 C   0  0  0  0  0  0  0  0  0  0  0  0
  -24.1807  -21.1803   19.2671 C   0  0  0  0  0  0  0  0  0  0  0  0
  -18.1469  -26.7132   23.1272 C   0  0  0  0  0  0  0  0  0  0  0  0
  -24.5636  -26.0633   24.0351 C   0  0  0  0  0  0  0  0  0  0  0  0
  -26.0977  -28.5741   23.7390 C   0  0  0  0  0  0  0  0  0  0  0  0
  -18.9411  -27.6690   24.0137 C   0  0  0  0  0  0  0  0  0  0  0  0
  -24.6535  -20.5391   22.7373 C   0  0  0  0  0  0  0  0  0  0  0  0
  -19.8694  -28.5348   23.1679 C   0  0  0  0  0  0  0  0  0  0  0  0
  -25.3357  -19.1702   22.7667 C   0  0  0  0  0  0  0  0  0  0  0  0
  -23.6202  -20.6307   21.6166 C   0  0  0  0  0  0  0  0  0  0  0  0
  -24.8107  -18.9171   20.3052 C   0  0  0  0  0  0  0  0  0  0  0  0
  -20.8925  -27.6750   22.4158 C   0  0  1  0  0  0  0  0  0  0  0  0
  -24.0268  -27.3973   24.5447 C   0  0  1  0  0  0  0  0  0  0  0  0
  -25.9010  -18.7956   21.3834 C   0  0  2  0  0  0  0  0  0  0  0  0
  -30.5421  -25.7406   19.1374 C   0  0  0  0  0  0  0  0  0  0  0  0
  -29.4302  -30.7610   28.9597 C   0  0  0  0  0  0  0  0  0  0  0  0
  -30.1107  -21.6040   18.3945 C   0  0  0  0  0  0  0  0  0  0  0  0
  -28.0471  -21.4689   19.8538 C   0  0  0  0  0  0  0  0  0  0  0  0
  -24.4177  -31.9949   24.8097 C   0  0  0  0  0  0  0  0  0  0  0  0
  -26.3899  -32.8370   26.1016 C   0  0  0  0  0  0  0  0  0  0  0  0
  -24.4422  -31.8480   27.3061 C   0  0  0  0  0  0  0  0  0  0  0  0
  -29.4027  -27.1511   27.7581 C   0  0  0  0  0  0  0  0  0  0  0  0
  -27.3987  -21.5942   16.7544 C   0  0  0  0  0  0  0  0  0  0  0  0
  -26.0534  -21.3140   16.0430 C   0  0  0  0  0  0  0  0  0  0  0  0
  -24.8232  -21.5891   16.9051 C   0  0  0  0  0  0  0  0  0  0  0  0
  -29.1152  -25.3823   19.5328 C   0  0  1  0  0  0  0  0  0  1  0  0
  -25.9930  -30.3342   26.0040 C   0  0  1  0  0  0  0  0  0  0  0  0
  -28.8096  -29.4917   28.3971 C   0  0  2  0  0  0  0  0  0  0  0  0
  -29.0308  -22.3947   19.1357 C   0  0  0  0  0  0  0  0  0  0  0  0
  -25.3137  -31.7324   26.0365 C   0  0  0  0  0  0  0  0  0  0  0  0
  -25.7957  -16.3528   21.0611 N   0  0  0  0  0  0  0  0  0  0  0  0
  -28.3544  -23.3340   18.2662 N   0  0  0  0  0  0  0  0  0  0  0  0
  -26.5415  -17.4199   21.3944 N   0  0  0  0  0  0  0  0  0  0  0  0
  -25.0875  -28.3762   24.7915 N   0  0  0  0  0  0  0  0  0  0  0  0
  -24.2206  -20.2646   20.3315 N   0  0  0  0  0  0  0  0  0  0  0  0
  -28.7177  -18.0668   22.0698 N   0  0  0  0  0  0  0  0  0  0  0  0
  -29.0540  -13.5852   21.6245 N   0  0  0  0  0  0  0  0  0  0  0  0
  -21.9515  -27.2536   23.3077 N   0  0  0  0  0  0  0  0  0  0  0  0
  -26.8262  -30.0476   27.1668 N   0  0  0  0  0  0  0  0  0  0  0  0
  -24.7783  -20.7565   18.0864 N   0  0  0  0  0  0  0  0  0  0  0  0
  -29.8776  -28.4593   28.2777 N   0  3  0  0  0  0  0  0  0  0  0  0
  -30.1984  -15.4917   22.1854 O   0  0  0  0  0  0  0  0  0  0  0  0
  -23.2901  -29.1524   23.1476 O   0  0  0  0  0  0  0  0  0  0  0  0
  -24.1563  -29.0702   26.8133 O   0  0  0  0  0  0  0  0  0  0  0  0
  -28.7896  -29.6811   25.9886 O   0  0  0  0  0  0  0  0  0  0  0  0
  -23.6565  -22.2951   19.3636 O   0  0  0  0  0  0  0  0  0  0  0  0
  -24.9783  -10.1136   20.0846 O   0  0  0  0  0  0  0  0  0  0  0  0
  -28.4449  -26.5743   19.9404 O   0  0  0  0  0  0  0  0  0  1  0  0
  -20.1338   -8.4948   22.1618 F   0  0  0  0  0  0  0  0  0  0  0  0
  -24.8256   -7.9683   21.8217 F   0  0  0  0  0  0  0  0  0  0  0  0
  1  2  1  0  0  0  0
  1  5  2  0  0  0  0
  2  6  2  0  0  0  0
  3  8  2  0  0  0  0
  3 17  1  0  0  0  0
  4  9  1  0  0  0  0
  4 17  2  0  0  0  0
  5 19  1  0  0  0  0
  6 21  1  0  0  0  0
  7 10  2  0  0  0  0
  7 20  1  0  0  0  0
  8 23  1  0  0  0  0
  9 23  2  0  0  0  0
 10 24  1  0  0  0  0
 11 12  2  0  0  0  0
 11 25  1  0  0  0  0
 12 26  1  0  0  0  0
 13 14  1  0  0  0  0
 13 29  2  0  0  0  0
 14 30  2  0  0  0  0
 15 22  1  0  0  0  0
 15 24  2  0  0  0  0
 16 26  2  0  0  0  0
 16 27  1  0  0  0  0
 17 28  1  0  0  0  0
 18 28  1  0  0  0  0
 18 31  2  0  0  0  0
 18 32  1  0  0  0  0
 19 21  2  0  0  0  0
 19 37  1  0  0  0  0
 20 22  2  0  0  0  0
 20 38  1  0  0  0  0
 21 46  1  0  0  0  0
 22 39  1  0  0  0  0
 23 81  1  0  0  0  0
 24 82  1  0  0  0  0
 25 27  2  0  0  0  0
 25 81  1  0  0  0  0
 26 83  1  0  0  0  0
 27 84  1  0  0  0  0
 28 65  2  0  0  0  0
 29 57  1  0  0  0  0
 29 66  1  0  0  0  0
 30 60  1  0  0  0  0
 30 66  1  0  0  0  0
 31 67  1  0  0  0  0
 31 70  1  0  0  0  0
 32 71  1  0  0  0  0
 32 76  2  0  0  0  0
 33 47  1  0  0  0  0
 33 72  1  0  0  0  0
 33 77  2  0  0  0  0
 34 61  1  0  0  0  0
 34 68  1  0  0  0  0
 34 78  2  0  0  0  0
 35 62  1  0  0  0  0
 35 73  1  0  0  0  0
 35 79  2  0  0  0  0
 36 69  1  0  0  0  0
 36 74  1  0  0  0  0
 36 80  2  0  0  0  0
 37 40  1  0  0  0  0
 38 47  1  0  0  0  0
 39 68  1  0  0  0  0
 40 42  1  0  0  0  0
 41 43  1  0  0  0  0
 41 44  1  0  0  0  0
 42 46  1  0  0  0  0
 43 48  1  0  0  0  0
 44 69  1  0  0  0  0
 45 48  1  0  0  0  0
 45 69  1  0  0  0  0
 46 72  1  0  0  0  0
 47 68  1  0  0  0  0
 48 67  1  0  0  0  0
 49 60  1  0  0  0  0
 50 62  1  0  0  0  0
 51 63  1  0  0  0  0
 52 63  1  0  0  0  0
 53 64  1  0  0  0  0
 54 64  1  0  0  0  0
 55 64  1  0  0  0  0
 56 75  1  0  0  0  0
 57 58  1  0  0  0  0
 58 59  1  0  0  0  0
 59 74  1  0  0  0  0
 60 82  1  0  0  0  0
 61 64  1  0  0  0  0
 61 73  1  0  0  0  0
 62 75  1  0  0  0  0
 63 66  1  0  0  0  0
 65 67  1  0  0  0  0
M  CHG  1  75   1
M  ISO  4  36 100  60 101  74 100  82 101
M  END
> <Batch ID>
0128

> <Smiles>
CNC(C)C(=O)NC(C(=O)N1Cc2cc([101O:1][101CH:1](C)c3ccc(CCC[100NH:0][100C:0](=O)N4CCCC(n5nc(-c6ccc(Oc7ccc(F)cc7F)cc6)c(C(N)=O)c5N)C4)n3C(C)C)ccc2CC1C(=O)NC1CCCc2ccccc21)C(C)(C)C

> <Shape>
0.226

> <Color>
0.083

> <Negative vol penalty>
0.000

$$$$

  -OEChem-04052320423D

 81 89  0     1  0  0  0  0  0999 V2000
  -24.1195  -31.9208   17.9540 C   0  0  0  0  0  0  0  0  0  0  0  0
  -24.2967  -30.6477   17.4217 C   0  0  0  0  0  0  0  0  0  0  0  0
  -23.0997   -9.8410   19.9939 C   0  0  0  0  0  0  0  0  0  0  0  0
  -23.8101   -9.9553   22.3003 C   0  0  0  0  0  0  0  0  0  0  0  0
  -24.2017  -32.1166   19.3320 C   0  0  0  0  0  0  0  0  0  0  0  0
  -24.5574  -29.5699   18.2671 C   0  0  0  0  0  0  0  0  0  0  0  0
  -23.3512  -22.5351   18.8783 C   0  0  0  0  0  0  0  0  0  0  0  0
  -22.3577   -8.6949   20.2793 C   0  0  0  0  0  0  0  0  0  0  0  0
  -23.0680   -8.8092   22.5857 C   0  0  0  0  0  0  0  0  0  0  0  0
  -24.0365  -21.3390   19.0867 C   0  0  0  0  0  0  0  0  0  0  0  0
  -22.9436   -5.3968   20.7301 C   0  0  0  0  0  0  0  0  0  0  0  0
  -23.0368   -4.3269   19.8400 C   0  0  0  0  0  0  0  0  0  0  0  0
  -24.0778  -21.7825   21.4575 C   0  0  0  0  0  0  0  0  0  0  0  0
  -20.6594   -4.4602   19.4308 C   0  0  0  0  0  0  0  0  0  0  0  0
  -23.8260  -10.4711   21.0044 C   0  0  0  0  0  0  0  0  0  0  0  0
  -24.1551  -12.9908   20.7791 C   0  0  0  0  0  0  0  0  0  0  0  0
  -24.4540  -31.0390   20.1955 C   0  0  0  0  0  0  0  0  0  0  0  0
  -23.0332  -23.3707   19.9587 C   0  0  0  0  0  0  0  0  0  0  0  0
  -24.6445  -29.7517   19.6578 C   0  0  0  0  0  0  0  0  0  0  0  0
  -23.3862  -22.9875   21.2605 C   0  0  0  0  0  0  0  0  0  0  0  0
  -22.3417   -8.1791   21.5752 C   0  0  0  0  0  0  0  0  0  0  0  0
  -24.4024  -20.9639   20.3761 C   0  0  0  0  0  0  0  0  0  0  0  0
  -21.7083   -5.9983   20.9707 C   0  0  0  0  0  0  0  0  0  0  0  0
  -21.8947   -3.8586   19.1904 C   0  0  0  0  0  0  0  0  0  0  0  0
  -20.5662   -5.5301   20.3210 C   0  0  0  0  0  0  0  0  0  0  0  0
  -24.5933  -11.6547   20.7101 C   0  0  0  0  0  0  0  0  0  0  0  0
  -25.2503  -13.7310   20.4059 C   0  0  0  0  0  0  0  0  0  0  0  0
  -22.8729  -13.5158   21.1475 C   0  0  0  0  0  0  0  0  0  0  0  0
  -23.7931  -26.3412   20.7965 C   0  0  0  0  0  0  0  0  0  0  0  0
  -21.6410  -25.8084   23.1644 C   0  0  0  0  0  0  0  0  0  0  0  0
  -19.9853  -23.5557   25.1217 C   0  0  0  0  0  0  0  0  0  0  0  0
  -30.7225  -14.7957   20.6647 C   0  0  0  0  0  0  0  0  0  0  0  0
  -24.5809  -31.3078   21.6741 C   0  0  0  0  0  0  0  0  0  0  0  0
  -22.2702  -24.6448   19.7201 C   0  0  0  0  0  0  0  0  0  0  0  0
  -23.0504  -23.8393   22.4564 C   0  0  0  0  0  0  0  0  0  0  0  0
  -24.4887  -30.0487   22.5322 C   0  0  0  0  0  0  0  0  0  0  0  0
  -29.6508  -12.2994   18.3632 C   0  0  0  0  0  0  0  0  0  0  0  0
  -25.3659  -28.9430   21.9537 C   0  0  0  0  0  0  0  0  0  0  0  0
  -28.2062  -12.0152   18.7783 C   0  0  0  0  0  0  0  0  0  0  0  0
  -27.0588  -19.4084   21.8907 C   0  0  0  0  0  0  0  0  0  0  0  0
  -26.9854  -18.9434   19.4188 C   0  0  0  0  0  0  0  0  0  0  0  0
  -30.5406  -12.5799   19.5722 C   0  0  0  0  0  0  0  0  0  0  0  0
  -28.6051  -13.3586   20.8842 C   0  0  0  0  0  0  0  0  0  0  0  0
  -28.5750  -19.3006   21.8721 C   0  0  0  0  0  0  0  0  0  0  0  0
  -24.9043  -28.5531   20.5443 C   0  0  1  0  0  0  0  0  0  0  0  0
  -22.4507  -25.6675   20.8376 C   0  0  1  0  0  0  0  0  0  0  0  0
  -27.6575  -13.1250   19.6951 C   0  0  2  0  0  0  0  0  0  0  0  0
  -26.4946  -19.8508   20.5443 C   0  0  1  0  0  0  0  0  0  1  0  0
  -28.5113  -18.8229   19.3667 C   0  0  1  0  0  0  0  0  0  0  0  0
  -28.7545  -20.4787   17.5099 C   0  0  0  0  0  0  0  0  0  0  0  0
  -18.3186  -23.4223   26.9929 C   0  0  0  0  0  0  0  0  0  0  0  0
  -23.8044  -26.6426   25.1477 C   0  0  0  0  0  0  0  0  0  0  0  0
  -22.4388  -25.6006   26.9690 C   0  0  0  0  0  0  0  0  0  0  0  0
  -21.5202  -27.5191   25.6659 C   0  0  0  0  0  0  0  0  0  0  0  0
  -18.0662  -22.0355   23.4589 C   0  0  0  0  0  0  0  0  0  0  0  0
  -29.1895  -20.1057   18.8890 C   0  0  0  0  0  0  0  0  0  0  0  0
  -30.7488  -16.9995   21.8055 C   0  0  0  0  0  0  0  0  0  0  0  0
  -30.4804  -18.0969   20.7926 C   0  0  0  0  0  0  0  0  0  0  0  0
  -21.7093  -25.2507   24.5656 C   0  0  1  0  0  0  0  0  0  0  0  0
  -18.5173  -23.4245   25.4852 C   0  0  2  0  0  0  0  0  0  0  0  0
  -22.3764  -26.2379   25.5645 C   0  0  0  0  0  0  0  0  0  0  0  0
  -25.8674  -11.5492   20.3234 N   0  0  0  0  0  0  0  0  0  0  0  0
  -26.2392  -12.8284   20.1459 N   0  0  0  0  0  0  0  0  0  0  0  0
  -22.3090  -25.0788   22.1709 N   0  0  0  0  0  0  0  0  0  0  0  0
  -29.9649  -13.6429   20.3995 N   0  0  0  0  0  0  0  0  0  0  0  0
  -25.4542  -15.0593   20.2780 N   0  0  0  0  0  0  0  0  0  0  0  0
  -21.8594  -12.6155   21.5035 N   0  0  0  0  0  0  0  0  0  0  0  0
  -23.7305  -27.7093   20.6123 N   0  0  0  0  0  0  0  0  0  0  0  0
  -20.3461  -24.8713   24.9208 N   0  0  0  0  0  0  0  0  0  0  0  0
  -30.0998  -15.7568   21.4516 N   0  0  0  0  0  0  0  0  0  0  0  0
  -29.0053  -18.3937   20.7420 N   0  3  1  0  0  0  0  0  0  0  0  0
  -17.9588  -22.1568   24.9357 N   0  3  0  0  0  0  0  0  0  0  0  0
  -22.6280  -14.7461   21.1449 O   0  0  0  0  0  0  0  0  0  0  0  0
  -24.8102  -25.6698   20.9241 O   0  0  0  0  0  0  0  0  0  0  0  0
  -21.0118  -26.8492   22.9578 O   0  0  0  0  0  0  0  0  0  0  0  0
  -20.7376  -22.5883   25.0291 O   0  0  0  0  0  0  0  0  0  0  0  0
  -31.8668  -14.9587   20.2279 O   0  0  0  0  0  0  0  0  0  0  0  0
  -21.6175   -7.0609   21.8541 O   0  0  0  0  0  0  0  0  0  0  0  0
  -25.0719  -19.7972   20.5821 O   0  0  0  0  0  0  0  0  0  1  0  0
  -21.9847   -2.8322   18.3344 F   0  0  0  0  0  0  0  0  0  0  0  0
  -19.3769   -6.1047   20.5471 F   0  0  0  0  0  0  0  0  0  0  0  0
  1  2  1  0  0  0  0
  1  5  2  0  0  0  0
  2  6  2  0  0  0  0
  3  8  2  0  0  0  0
  3 15  1  0  0  0  0
  4  9  1  0  0  0  0
  4 15  2  0  0  0  0
  5 17  1  0  0  0  0
  6 19  1  0  0  0  0
  7 10  2  0  0  0  0
  7 18  1  0  0  0  0
  8 21  1  0  0  0  0
  9 21  2  0  0  0  0
 10 22  1  0  0  0  0
 11 12  2  0  0  0  0
 11 23  1  0  0  0  0
 12 24  1  0  0  0  0
 13 20  1  0  0  0  0
 13 22  2  0  0  0  0
 14 24  2  0  0  0  0
 14 25  1  0  0  0  0
 15 26  1  0  0  0  0
 16 26  1  0  0  0  0
 16 27  2  0  0  0  0
 16 28  1  0  0  0  0
 17 19  2  0  0  0  0
 17 33  1  0  0  0  0
 18 20  2  0  0  0  0
 18 34  1  0  0  0  0
 19 45  1  0  0  0  0
 20 35  1  0  0  0  0
 21 78  1  0  0  0  0
 22 79  1  0  0  0  0
 23 25  2  0  0  0  0
 23 78  1  0  0  0  0
 24 80  1  0  0  0  0
 25 81  1  0  0  0  0
 26 62  2  0  0  0  0
 27 63  1  0  0  0  0
 27 66  1  0  0  0  0
 28 67  1  0  0  0  0
 28 73  2  0  0  0  0
 29 46  1  0  0  0  0
 29 68  1  0  0  0  0
 29 74  2  0  0  0  0
 30 59  1  0  0  0  0
 30 64  1  0  0  0  0
 30 75  2  0  0  0  0
 31 60  1  0  0  0  0
 31 69  1  0  0  0  0
 31 76  2  0  0  0  0
 32 65  1  0  0  0  0
 32 70  1  0  0  0  0
 32 77  2  0  0  0  0
 33 36  1  0  0  0  0
 34 46  1  0  0  0  0
 35 64  1  0  0  0  0
 36 38  1  0  0  0  0
 37 39  1  0  0  0  0
 37 42  1  0  0  0  0
 38 45  1  0  0  0  0
 39 47  1  0  0  0  0
 40 44  1  0  0  0  0
 40 48  1  0  0  0  0
 41 48  1  0  0  0  0
 41 49  1  0  0  0  0
 42 65  1  0  0  0  0
 43 47  1  0  0  0  0
 43 65  1  0  0  0  0
 44 71  1  0  0  0  0
 45 68  1  0  0  0  0
 46 64  1  0  0  0  0
 47 63  1  0  0  0  0
 48 79  1  0  0  0  0
 49 56  1  0  0  0  0
 49 71  1  0  0  0  0
 50 56  1  0  0  0  0
 51 60  1  0  0  0  0
 52 61  1  0  0  0  0
 53 61  1  0  0  0  0
 54 61  1  0  0  0  0
 55 72  1  0  0  0  0
 57 58  1  0  0  0  0
 57 70  1  0  0  0  0
 58 71  1  0  0  0  0
 59 61  1  0  0  0  0
 59 69  1  0  0  0  0
 60 72  1  0  0  0  0
 62 63  1  0  0  0  0
M  CHG  2  71   1  72   1
M  ISO  4  32 100  48 101  70 100  79 101
M  END
> <Batch ID>
0128

> <Smiles>
CCC1C[101CH:1]([101O:1]c2ccc3c(c2)CN(C(=O)C(NC(=O)C(C)NC)C(C)(C)C)C(C(=O)NC2CCCc4ccccc42)C3)CCN1CC[100NH:0][100C:0](=O)N1CCCC(n2nc(-c3ccc(Oc4ccc(F)cc4F)cc3)c(C(N)=O)c2N)C1

> <Shape>
0.243

> <Color>
0.210

> <Negative vol penalty>
0.000

$$$$

  -OEChem-04052320423D

 88 97  0     1  0  0  0  0  0999 V2000
  -31.2765  -32.2317   16.5590 C   0  0  0  0  0  0  0  0  0  0  0  0
  -31.1286  -31.1123   17.3717 C   0  0  0  0  0  0  0  0  0  0  0  0
  -30.4220  -15.8162   25.2693 C   0  0  0  0  0  0  0  0  0  0  0  0
  -29.7453  -16.9714   25.6607 C   0  0  0  0  0  0  0  0  0  0  0  0
  -23.3410  -13.4760   23.5913 C   0  0  0  0  0  0  0  0  0  0  0  0
  -24.2232  -11.2269   23.5753 C   0  0  0  0  0  0  0  0  0  0  0  0
  -30.4850  -33.3588   16.7762 C   0  0  0  0  0  0  0  0  0  0  0  0
  -30.1898  -31.1198   18.4028 C   0  0  0  0  0  0  0  0  0  0  0  0
  -27.4922  -26.8388   18.6050 C   0  0  0  0  0  0  0  0  0  0  0  0
  -31.1958  -15.8207   24.1087 C   0  0  0  0  0  0  0  0  0  0  0  0
  -29.8422  -18.1310   24.8916 C   0  0  0  0  0  0  0  0  0  0  0  0
  -22.7175  -13.2228   24.8131 C   0  0  0  0  0  0  0  0  0  0  0  0
  -23.5998  -10.9736   24.7971 C   0  0  0  0  0  0  0  0  0  0  0  0
  -28.1050  -25.7267   19.1808 C   0  0  0  0  0  0  0  0  0  0  0  0
  -20.4925  -10.2273   25.9011 C   0  0  0  0  0  0  0  0  0  0  0  0
  -19.8070   -9.0206   26.0410 C   0  0  0  0  0  0  0  0  0  0  0  0
  -26.9111  -26.1402   21.2357 C   0  0  0  0  0  0  0  0  0  0  0  0
  -21.2563   -8.4102   27.8752 C   0  0  0  0  0  0  0  0  0  0  0  0
  -24.0938  -12.4780   22.9724 C   0  0  0  0  0  0  0  0  0  0  0  0
  -24.1189  -13.1068   20.5002 C   0  0  0  0  0  0  0  0  0  0  0  0
  -29.5293  -33.3766   17.8043 C   0  0  0  0  0  0  0  0  0  0  0  0
  -26.5910  -27.6177   19.3451 C   0  0  0  0  0  0  0  0  0  0  0  0
  -29.3857  -32.2487   18.6347 C   0  0  0  0  0  0  0  0  0  0  0  0
  -26.2863  -27.2602   20.6663 C   0  0  0  0  0  0  0  0  0  0  0  0
  -31.2928  -16.9803   23.3395 C   0  0  0  0  0  0  0  0  0  0  0  0
  -30.6160  -18.1355   23.7310 C   0  0  0  0  0  0  0  0  0  0  0  0
  -22.8469  -11.9716   25.4160 C   0  0  0  0  0  0  0  0  0  0  0  0
  -27.8167  -25.3789   20.4972 C   0  0  0  0  0  0  0  0  0  0  0  0
  -21.5599  -10.5255   26.7481 C   0  0  0  0  0  0  0  0  0  0  0  0
  -20.1889   -8.1121   27.0281 C   0  0  0  0  0  0  0  0  0  0  0  0
  -21.9417   -9.6169   27.7352 C   0  0  0  0  0  0  0  0  0  0  0  0
  -24.7376  -12.7388   21.7100 C   0  0  0  0  0  0  0  0  0  0  0  0
  -25.1563  -13.2353   19.6093 C   0  0  0  0  0  0  0  0  0  0  0  0
  -22.7307  -13.3140   20.2080 C   0  0  0  0  0  0  0  0  0  0  0  0
  -30.0904  -20.5419   23.2238 C   0  0  0  0  0  0  0  0  0  0  0  0
  -26.5111  -30.6444   20.3126 C   0  0  0  0  0  0  0  0  0  0  0  0
  -23.5356  -29.8359   21.3203 C   0  0  0  0  0  0  0  0  0  0  0  0
  -20.6790  -28.3053   22.3898 C   0  0  0  0  0  0  0  0  0  0  0  0
  -30.9864  -14.4217   20.2828 C   0  0  0  0  0  0  0  0  0  0  0  0
  -28.7298  -34.6353   18.0305 C   0  0  0  0  0  0  0  0  0  0  0  0
  -25.9181  -28.7986   18.7009 C   0  0  0  0  0  0  0  0  0  0  0  0
  -25.3105  -28.0516   21.4969 C   0  0  0  0  0  0  0  0  0  0  0  0
  -27.4976  -34.4249   18.9067 C   0  0  0  0  0  0  0  0  0  0  0  0
  -29.5500  -11.5675   18.7121 C   0  0  0  0  0  0  0  0  0  0  0  0
  -27.8542  -33.6022   20.1407 C   0  0  0  0  0  0  0  0  0  0  0  0
  -30.4633  -22.9443   22.7995 C   0  0  0  0  0  0  0  0  0  0  0  0
  -29.4168  -21.4732   21.0286 C   0  0  0  0  0  0  0  0  0  0  0  0
  -28.0980  -11.5773   19.1932 C   0  0  0  0  0  0  0  0  0  0  0  0
  -30.7169  -24.0274   21.7506 C   0  0  0  0  0  0  0  0  0  0  0  0
  -29.6696  -22.5566   19.9794 C   0  0  0  0  0  0  0  0  0  0  0  0
  -30.5091  -12.0388   19.8030 C   0  0  0  0  0  0  0  0  0  0  0  0
  -28.7256  -13.3577   20.8769 C   0  0  0  0  0  0  0  0  0  0  0  0
  -28.3611  -32.2094   19.7477 C   0  0  1  0  0  0  0  0  0  0  0  0
  -30.4308  -21.5509   22.1704 C   0  0  0  0  0  0  0  0  0  0  0  0
  -25.4074  -29.8203   19.7123 C   0  0  1  0  0  0  0  0  0  0  0  0
  -27.7153  -12.9435   19.7934 C   0  0  2  0  0  0  0  0  0  0  0  0
  -29.7180  -23.9549   20.5949 C   0  0  0  0  0  0  0  0  0  1  0  0
  -18.5556  -28.7558   23.6490 C   0  0  0  0  0  0  0  0  0  0  0  0
  -25.0889  -29.8038   23.9463 C   0  0  0  0  0  0  0  0  0  0  0  0
  -22.9412  -29.2992   25.1299 C   0  0  0  0  0  0  0  0  0  0  0  0
  -23.1977  -31.4385   23.8729 C   0  0  0  0  0  0  0  0  0  0  0  0
  -19.0066  -27.6049   20.0507 C   0  0  0  0  0  0  0  0  0  0  0  0
  -32.1288  -16.9560   22.1012 C   0  0  0  0  0  0  0  0  0  0  0  0
  -31.3096  -16.8246   20.8130 C   0  0  0  0  0  0  0  0  0  0  0  0
  -22.9550  -29.2711   22.5941 C   0  0  1  0  0  0  0  0  0  0  0  0
  -19.2194  -28.7079   22.2815 C   0  0  2  0  0  0  0  0  0  0  0  0
  -23.5551  -29.9362   23.8649 C   0  0  0  0  0  0  0  0  0  0  0  0
  -26.0651  -12.6397   21.6010 N   0  0  0  0  0  0  0  0  0  0  0  0
  -26.2891  -12.9473   20.3121 N   0  0  0  0  0  0  0  0  0  0  0  0
  -24.6833  -29.2013   20.8244 N   0  0  0  0  0  0  0  0  0  0  0  0
  -30.0910  -13.3405   20.3290 N   0  0  0  0  0  0  0  0  0  0  0  0
  -25.2009  -13.5653   18.3010 N   0  0  0  0  0  0  0  0  0  0  0  0
  -21.9702  -12.2220   19.7683 N   0  0  0  0  0  0  0  0  0  0  0  0
  -30.7015  -19.3217   22.9642 N   0  0  0  0  0  0  0  0  0  0  0  0
  -27.2529  -31.3517   19.3859 N   0  0  0  0  0  0  0  0  0  0  0  0
  -21.5069  -29.4045   22.4770 N   0  0  0  0  0  0  0  0  0  0  0  0
  -30.5083  -15.6211   20.7964 N   0  0  0  0  0  0  0  0  0  0  0  0
  -18.4754  -27.7355   21.4319 N   0  3  0  0  0  0  0  0  0  0  0  0
  -22.1847  -14.4381   20.3173 O   0  0  0  0  0  0  0  0  0  0  0  0
  -29.3608  -20.8378   24.1646 O   0  0  0  0  0  0  0  0  0  0  0  0
  -26.6763  -30.6401   21.5268 O   0  0  0  0  0  0  0  0  0  0  0  0
  -22.9868  -30.8001   20.7810 O   0  0  0  0  0  0  0  0  0  0  0  0
  -21.0476  -27.1328   22.3999 O   0  0  0  0  0  0  0  0  0  0  0  0
  -32.1255  -14.3267   19.8135 O   0  0  0  0  0  0  0  0  0  0  0  0
  -22.2389  -11.7242   26.6084 O   0  0  0  0  0  0  0  0  0  0  0  0
  -28.4139  -24.2943   21.0618 O   0  0  0  0  0  0  0  0  0  1  0  0
  -19.5296   -6.9540   27.1635 F   0  0  0  0  0  0  0  0  0  0  0  0
  -22.9656   -9.8983   28.5527 F   0  0  0  0  0  0  0  0  0  0  0  0
  1  2  1  0  0  0  0
  1  7  2  0  0  0  0
  2  8  2  0  0  0  0
  3  4  1  0  0  0  0
  3 10  2  0  0  0  0
  4 11  2  0  0  0  0
  5 12  2  0  0  0  0
  5 19  1  0  0  0  0
  6 13  1  0  0  0  0
  6 19  2  0  0  0  0
  7 21  1  0  0  0  0
  8 23  1  0  0  0  0
  9 14  2  0  0  0  0
  9 22  1  0  0  0  0
 10 25  1  0  0  0  0
 11 26  1  0  0  0  0
 12 27  1  0  0  0  0
 13 27  2  0  0  0  0
 14 28  1  0  0  0  0
 15 16  2  0  0  0  0
 15 29  1  0  0  0  0
 16 30  1  0  0  0  0
 17 24  1  0  0  0  0
 17 28  2  0  0  0  0
 18 30  2  0  0  0  0
 18 31  1  0  0  0  0
 19 32  1  0  0  0  0
 20 32  1  0  0  0  0
 20 33  2  0  0  0  0
 20 34  1  0  0  0  0
 21 23  2  0  0  0  0
 21 40  1  0  0  0  0
 22 24  2  0  0  0  0
 22 41  1  0  0  0  0
 23 53  1  0  0  0  0
 24 42  1  0  0  0  0
 25 26  2  0  0  0  0
 25 63  1  0  0  0  0
 26 74  1  0  0  0  0
 27 85  1  0  0  0  0
 28 86  1  0  0  0  0
 29 31  2  0  0  0  0
 29 85  1  0  0  0  0
 30 87  1  0  0  0  0
 31 88  1  0  0  0  0
 32 68  2  0  0  0  0
 33 69  1  0  0  0  0
 33 72  1  0  0  0  0
 34 73  1  0  0  0  0
 34 79  2  0  0  0  0
 35 54  1  0  0  0  0
 35 74  1  0  0  0  0
 35 80  2  0  0  0  0
 36 55  1  0  0  0  0
 36 75  1  0  0  0  0
 36 81  2  0  0  0  0
 37 65  1  0  0  0  0
 37 70  1  0  0  0  0
 37 82  2  0  0  0  0
 38 66  1  0  0  0  0
 38 76  1  0  0  0  0
 38 83  2  0  0  0  0
 39 71  1  0  0  0  0
 39 77  1  0  0  0  0
 39 84  2  0  0  0  0
 40 43  1  0  0  0  0
 41 55  1  0  0  0  0
 42 70  1  0  0  0  0
 43 45  1  0  0  0  0
 44 48  1  0  0  0  0
 44 51  1  0  0  0  0
 45 53  1  0  0  0  0
 46 49  1  0  0  0  0
 46 54  1  0  0  0  0
 47 50  1  0  0  0  0
 47 54  1  0  0  0  0
 48 56  1  0  0  0  0
 49 57  1  0  0  0  0
 50 57  1  0  0  0  0
 51 71  1  0  0  0  0
 52 56  1  0  0  0  0
 52 71  1  0  0  0  0
 53 75  1  0  0  0  0
 55 70  1  0  0  0  0
 56 69  1  0  0  0  0
 57 86  1  0  0  0  0
 58 66  1  0  0  0  0
 59 67  1  0  0  0  0
 60 67  1  0  0  0  0
 61 67  1  0  0  0  0
 62 78  1  0  0  0  0
 63 64  1  0  0  0  0
 64 77  1  0  0  0  0
 65 67  1  0  0  0  0
 65 76  1  0  0  0  0
 66 78  1  0  0  0  0
 68 69  1  0  0  0  0
M  CHG  1  78   1
M  ISO  4  39 100  57 101  77 100  86 101
M  END
> <Batch ID>
0128

> <Smiles>
CNC(C)C(=O)NC(C(=O)N1Cc2cc([101O:1][101CH:1]3CCC(C(=O)Nc4ccccc4CC[100NH:0][100C:0](=O)N4CCCC(n5nc(-c6ccc(Oc7ccc(F)cc7F)cc6)c(C(N)=O)c5N)C4)CC3)ccc2CC1C(=O)NC1CCCc2ccccc21)C(C)(C)C

> <Shape>
0.240

> <Color>
0.104

> <Negative vol penalty>
0.000

$$$$

  -OEChem-04052320423D

 83 92  0     1  0  0  0  0  0999 V2000
  -27.1636  -37.9496   23.2949 C   0  0  0  0  0  0  0  0  0  0  0  0
  -27.7653  -37.0444   22.4266 C   0  0  0  0  0  0  0  0  0  0  0  0
  -25.1093   -9.3688   20.2340 C   0  0  0  0  0  0  0  0  0  0  0  0
  -24.4516   -9.7984   22.5187 C   0  0  0  0  0  0  0  0  0  0  0  0
  -26.4225  -37.4851   24.3807 C   0  0  0  0  0  0  0  0  0  0  0  0
  -27.6272  -35.6740   22.6443 C   0  0  0  0  0  0  0  0  0  0  0  0
  -31.1830  -22.7784   19.3171 C   0  0  0  0  0  0  0  0  0  0  0  0
  -28.9375  -21.9885   18.9037 C   0  0  0  0  0  0  0  0  0  0  0  0
  -27.1529  -29.4757   19.0845 C   0  0  0  0  0  0  0  0  0  0  0  0
  -30.7335  -24.0966   19.2404 C   0  0  0  0  0  0  0  0  0  0  0  0
  -28.4879  -23.3067   18.8271 C   0  0  0  0  0  0  0  0  0  0  0  0
  -24.9278   -8.0011   20.4389 C   0  0  0  0  0  0  0  0  0  0  0  0
  -24.2701   -8.4306   22.7236 C   0  0  0  0  0  0  0  0  0  0  0  0
  -27.7369  -28.2104   19.0424 C   0  0  0  0  0  0  0  0  0  0  0  0
  -21.9301   -6.0968   22.0175 C   0  0  0  0  0  0  0  0  0  0  0  0
  -20.7744   -5.6908   22.6846 C   0  0  0  0  0  0  0  0  0  0  0  0
  -26.3674  -27.5229   20.9054 C   0  0  0  0  0  0  0  0  0  0  0  0
  -22.1270   -4.6770   24.4108 C   0  0  0  0  0  0  0  0  0  0  0  0
  -24.8712  -10.2674   21.2739 C   0  0  0  0  0  0  0  0  0  0  0  0
  -24.1002  -12.6076   20.6129 C   0  0  0  0  0  0  0  0  0  0  0  0
  -30.2851  -21.7243   19.1486 C   0  0  0  0  0  0  0  0  0  0  0  0
  -26.2672  -36.1083   24.6063 C   0  0  0  0  0  0  0  0  0  0  0  0
  -26.1779  -29.7780   20.0460 C   0  0  0  0  0  0  0  0  0  0  0  0
  -26.8844  -35.1907   23.7349 C   0  0  0  0  0  0  0  0  0  0  0  0
  -25.7707  -28.7920   20.9560 C   0  0  0  0  0  0  0  0  0  0  0  0
  -29.3859  -24.3607   18.9955 C   0  0  0  0  0  0  0  0  0  0  0  0
  -24.5082   -7.5320   21.6837 C   0  0  0  0  0  0  0  0  0  0  0  0
  -27.3463  -27.2347   19.9548 C   0  0  0  0  0  0  0  0  0  0  0  0
  -23.1843   -5.7929   22.5470 C   0  0  0  0  0  0  0  0  0  0  0  0
  -20.8728   -4.9809   23.8813 C   0  0  0  0  0  0  0  0  0  0  0  0
  -23.2827   -5.0830   23.7437 C   0  0  0  0  0  0  0  0  0  0  0  0
  -25.0591  -11.6804   21.0631 C   0  0  0  0  0  0  0  0  0  0  0  0
  -24.7701  -13.8062   20.5813 C   0  0  0  0  0  0  0  0  0  0  0  0
  -22.7268  -12.4036   20.2554 C   0  0  0  0  0  0  0  0  0  0  0  0
  -25.9582  -31.8556   22.4416 C   0  0  0  0  0  0  0  0  0  0  0  0
  -22.9252  -30.7213   22.6321 C   0  0  0  0  0  0  0  0  0  0  0  0
  -20.7385  -28.1776   22.0036 C   0  0  0  0  0  0  0  0  0  0  0  0
  -29.4545  -16.4216   18.9052 C   0  0  0  0  0  0  0  0  0  0  0  0
  -25.4962  -35.6541   25.8203 C   0  0  0  0  0  0  0  0  0  0  0  0
  -25.5384  -31.1393   20.0611 C   0  0  0  0  0  0  0  0  0  0  0  0
  -24.7136  -29.0596   21.9949 C   0  0  0  0  0  0  0  0  0  0  0  0
  -25.0858  -34.1847   25.7666 C   0  0  0  0  0  0  0  0  0  0  0  0
  -29.2869  -15.1222   22.4116 C   0  0  0  0  0  0  0  0  0  0  0  0
  -26.2628  -33.3173   25.3317 C   0  0  0  0  0  0  0  0  0  0  0  0
  -28.1285  -14.1325   22.2992 C   0  0  0  0  0  0  0  0  0  0  0  0
  -30.1195  -19.5256   20.3968 C   0  0  0  0  0  0  0  0  0  0  0  0
  -30.5729  -19.5337   17.9061 C   0  0  0  0  0  0  0  0  0  0  0  0
  -30.0163  -15.2739   21.0819 C   0  0  0  0  0  0  0  0  0  0  0  0
  -30.5920  -18.0703   20.4555 C   0  0  0  0  0  0  0  0  0  0  0  0
  -31.0579  -18.0919   18.0280 C   0  0  0  0  0  0  0  0  0  0  0  0
  -27.9661  -14.6812   19.8288 C   0  0  0  0  0  0  0  0  0  0  0  0
  -30.7732  -20.2903   19.2318 C   0  0  0  0  0  0  0  0  0  0  0  0
  -26.7368  -33.6964   23.9235 C   0  0  1  0  0  0  0  0  0  0  0  0
  -24.9250  -31.4963   21.4115 C   0  0  1  0  0  0  0  0  0  0  0  0
  -27.1879  -14.5165   21.1444 C   0  0  1  0  0  0  0  0  0  0  0  0
  -18.3343  -27.5262   22.3084 C   0  0  0  0  0  0  0  0  0  0  0  0
  -23.4546  -30.1578   25.5837 C   0  0  0  0  0  0  0  0  0  0  0  0
  -21.4340  -28.6795   25.5922 C   0  0  0  0  0  0  0  0  0  0  0  0
  -21.1956  -31.1119   25.0926 C   0  0  0  0  0  0  0  0  0  0  0  0
  -20.3087  -27.9524   19.0841 C   0  0  0  0  0  0  0  0  0  0  0  0
  -28.9057  -25.7705   18.9155 C   0  0  0  0  0  0  0  0  0  1  0  0
  -22.2511  -29.5906   23.3710 C   0  0  1  0  0  0  0  0  0  0  0  0
  -19.3537  -28.1703   21.3817 C   0  0  2  0  0  0  0  0  0  0  0  0
  -22.1052  -29.8802   24.8917 C   0  0  0  0  0  0  0  0  0  0  0  0
  -26.2476  -12.2417   21.3002 N   0  0  0  0  0  0  0  0  0  0  0  0
  -26.0401  -13.5346   20.9978 N   0  0  0  0  0  0  0  0  0  0  0  0
  -24.1225  -30.4079   21.9733 N   0  0  0  0  0  0  0  0  0  0  0  0
  -29.0916  -15.6045   19.9889 N   0  0  0  0  0  0  0  0  0  0  0  0
  -30.4146  -17.4141   19.1533 N   0  0  0  0  0  0  0  0  0  0  0  0
  -24.3907  -15.0555   20.2379 N   0  0  0  0  0  0  0  0  0  0  0  0
  -22.1981  -11.1088   20.3459 N   0  0  0  0  0  0  0  0  0  0  0  0
  -25.8460  -33.1453   22.9249 N   0  0  0  0  0  0  0  0  0  0  0  0
  -20.9864  -29.3508   22.6844 N   0  0  0  0  0  0  0  0  0  0  0  0
  -19.3663  -27.4133   20.0981 N   0  3  0  0  0  0  0  0  0  0  0  0
  -21.9948  -13.3388   19.8516 O   0  0  0  0  0  0  0  0  0  0  0  0
  -26.7944  -31.0239   22.7743 O   0  0  0  0  0  0  0  0  0  0  0  0
  -22.4047  -31.8397   22.6331 O   0  0  0  0  0  0  0  0  0  0  0  0
  -21.5205  -27.2353   21.8992 O   0  0  0  0  0  0  0  0  0  0  0  0
  -28.9481  -16.2747   17.7859 O   0  0  0  0  0  0  0  0  0  0  0  0
  -24.3308   -6.1974   21.8839 O   0  0  0  0  0  0  0  0  0  0  0  0
  -27.9191  -25.9906   19.9160 O   0  0  0  0  0  0  0  0  0  1  0  0
  -19.7629   -4.5924   24.5226 F   0  0  0  0  0  0  0  0  0  0  0  0
  -24.4848   -4.7892   24.2579 F   0  0  0  0  0  0  0  0  0  0  0  0
  1  2  1  0  0  0  0
  1  5  2  0  0  0  0
  2  6  2  0  0  0  0
  3 12  2  0  0  0  0
  3 19  1  0  0  0  0
  4 13  1  0  0  0  0
  4 19  2  0  0  0  0
  5 22  1  0  0  0  0
  6 24  1  0  0  0  0
  7 10  2  0  0  0  0
  7 21  1  0  0  0  0
  8 11  1  0  0  0  0
  8 21  2  0  0  0  0
  9 14  2  0  0  0  0
  9 23  1  0  0  0  0
 10 26  1  0  0  0  0
 11 26  2  0  0  0  0
 12 27  1  0  0  0  0
 13 27  2  0  0  0  0
 14 28  1  0  0  0  0
 15 16  2  0  0  0  0
 15 29  1  0  0  0  0
 16 30  1  0  0  0  0
 17 25  1  0  0  0  0
 17 28  2  0  0  0  0
 18 30  2  0  0  0  0
 18 31  1  0  0  0  0
 19 32  1  0  0  0  0
 20 32  1  0  0  0  0
 20 33  2  0  0  0  0
 20 34  1  0  0  0  0
 21 52  1  0  0  0  0
 22 24  2  0  0  0  0
 22 39  1  0  0  0  0
 23 25  2  0  0  0  0
 23 40  1  0  0  0  0
 24 53  1  0  0  0  0
 25 41  1  0  0  0  0
 26 61  1  0  0  0  0
 27 80  1  0  0  0  0
 28 81  1  0  0  0  0
 29 31  2  0  0  0  0
 29 80  1  0  0  0  0
 30 82  1  0  0  0  0
 31 83  1  0  0  0  0
 32 65  2  0  0  0  0
 33 66  1  0  0  0  0
 33 70  1  0  0  0  0
 34 71  1  0  0  0  0
 34 75  2  0  0  0  0
 35 54  1  0  0  0  0
 35 72  1  0  0  0  0
 35 76  2  0  0  0  0
 36 62  1  0  0  0  0
 36 67  1  0  0  0  0
 36 77  2  0  0  0  0
 37 63  1  0  0  0  0
 37 73  1  0  0  0  0
 37 78  2  0  0  0  0
 38 68  1  0  0  0  0
 38 69  1  0  0  0  0
 38 79  2  0  0  0  0
 39 42  1  0  0  0  0
 40 54  1  0  0  0  0
 41 67  1  0  0  0  0
 42 44  1  0  0  0  0
 43 45  1  0  0  0  0
 43 48  1  0  0  0  0
 44 53  1  0  0  0  0
 45 55  1  0  0  0  0
 46 49  1  0  0  0  0
 46 52  1  0  0  0  0
 47 50  1  0  0  0  0
 47 52  1  0  0  0  0
 48 68  1  0  0  0  0
 49 69  1  0  0  0  0
 50 69  1  0  0  0  0
 51 55  1  0  0  0  0
 51 68  1  0  0  0  0
 53 72  1  0  0  0  0
 54 67  1  0  0  0  0
 55 66  1  0  0  0  0
 56 63  1  0  0  0  0
 57 64  1  0  0  0  0
 58 64  1  0  0  0  0
 59 64  1  0  0  0  0
 60 74  1  0  0  0  0
 61 81  1  0  0  0  0
 62 64  1  0  0  0  0
 62 73  1  0  0  0  0
 63 74  1  0  0  0  0
 65 66  1  0  0  0  0
M  CHG  1  74   1
M  ISO  4  38 100  61 101  69 100  81 101
M  END
> <Batch ID>
0128

> <Smiles>
CNC(C)C(=O)NC(C(=O)N1Cc2cc([101O:1][101CH2:1]c3ccc(C4CC[100N:0]([100C:0](=O)N5CCCC(n6nc(-c7ccc(Oc8ccc(F)cc8F)cc7)c(C(N)=O)c6N)C5)CC4)cc3)ccc2CC1C(=O)NC1CCCc2ccccc21)C(C)(C)C

> <Shape>
0.351

> <Color>
0.116

> <Negative vol penalty>
0.000

$$$$

  -OEChem-04052320423D

 86 95  0     1  0  0  0  0  0999 V2000
  -26.1164  -33.0448   26.7580 C   0  0  0  0  0  0  0  0  0  0  0  0
  -27.1349  -32.3325   26.1330 C   0  0  0  0  0  0  0  0  0  0  0  0
  -19.6564  -16.5388   20.5895 C   0  0  0  0  0  0  0  0  0  0  0  0
  -21.6953  -17.4461   21.5153 C   0  0  0  0  0  0  0  0  0  0  0  0
  -24.8031  -32.5809   26.6959 C   0  0  0  0  0  0  0  0  0  0  0  0
  -26.8408  -31.1550   25.4464 C   0  0  0  0  0  0  0  0  0  0  0  0
  -29.6543  -17.3334   21.9597 C   0  0  0  0  0  0  0  0  0  0  0  0
  -28.9438  -27.3310   19.7656 C   0  0  0  0  0  0  0  0  0  0  0  0
  -29.3260  -16.0022   22.2157 C   0  0  0  0  0  0  0  0  0  0  0  0
  -18.9143  -17.4847   21.2966 C   0  0  0  0  0  0  0  0  0  0  0  0
  -20.9532  -18.3921   22.2224 C   0  0  0  0  0  0  0  0  0  0  0  0
  -29.3340  -26.0371   19.4228 C   0  0  0  0  0  0  0  0  0  0  0  0
  -19.4086  -21.3290   21.5827 C   0  0  0  0  0  0  0  0  0  0  0  0
  -19.8623  -22.6479   21.5698 C   0  0  0  0  0  0  0  0  0  0  0  0
  -27.0172  -25.3736   19.3148 C   0  0  0  0  0  0  0  0  0  0  0  0
  -30.1039  -15.3866   20.0128 C   0  0  0  0  0  0  0  0  0  0  0  0
  -20.0766  -22.5976   23.9758 C   0  0  0  0  0  0  0  0  0  0  0  0
  -21.0469  -16.5194   20.6988 C   0  0  0  0  0  0  0  0  0  0  0  0
  -21.8608  -15.3682   18.5728 C   0  0  0  0  0  0  0  0  0  0  0  0
  -24.4913  -31.4023   26.0000 C   0  0  0  0  0  0  0  0  0  0  0  0
  -27.5854  -27.6536   19.8965 C   0  0  0  0  0  0  0  0  0  0  0  0
  -25.5223  -30.6741   25.3760 C   0  0  0  0  0  0  0  0  0  0  0  0
  -30.2074  -17.6913   20.7301 C   0  0  0  0  0  0  0  0  0  0  0  0
  -26.6124  -26.6729   19.6569 C   0  0  0  0  0  0  0  0  0  0  0  0
  -29.5508  -15.0287   21.2423 C   0  0  0  0  0  0  0  0  0  0  0  0
  -30.4322  -16.7178   19.7567 C   0  0  0  0  0  0  0  0  0  0  0  0
  -19.5627  -18.4114   22.1131 C   0  0  0  0  0  0  0  0  0  0  0  0
  -28.3708  -25.0575   19.2002 C   0  0  0  0  0  0  0  0  0  0  0  0
  -19.2888  -20.6444   22.7921 C   0  0  0  0  0  0  0  0  0  0  0  0
  -20.1964  -23.2822   22.7664 C   0  0  0  0  0  0  0  0  0  0  0  0
  -19.6228  -21.2787   23.9886 C   0  0  0  0  0  0  0  0  0  0  0  0
  -21.8140  -15.5422   19.9690 C   0  0  0  0  0  0  0  0  0  0  0  0
  -22.7271  -14.3188   18.3864 C   0  0  0  0  0  0  0  0  0  0  0  0
  -21.1820  -16.0907   17.5370 C   0  0  0  0  0  0  0  0  0  0  0  0
  -25.7419  -28.6764   22.2754 C   0  0  0  0  0  0  0  0  0  0  0  0
  -23.5074  -28.8889   19.9336 C   0  0  0  0  0  0  0  0  0  0  0  0
  -22.4065  -27.8460   16.8762 C   0  0  0  0  0  0  0  0  0  0  0  0
  -27.2236  -12.1114   21.6667 C   0  0  0  0  0  0  0  0  0  0  0  0
  -23.0640  -30.9150   26.0003 C   0  0  0  0  0  0  0  0  0  0  0  0
  -27.1801  -29.0606   20.2408 C   0  0  0  0  0  0  0  0  0  0  0  0
  -25.1404  -26.9732   19.7647 C   0  0  0  0  0  0  0  0  0  0  0  0
  -22.7809  -29.8582   24.9357 C   0  0  0  0  0  0  0  0  0  0  0  0
  -24.3338  -10.3614   20.5426 C   0  0  0  0  0  0  0  0  0  0  0  0
  -23.8738  -28.7941   24.9359 C   0  0  0  0  0  0  0  0  0  0  0  0
  -23.3645  -11.4751   20.1422 C   0  0  0  0  0  0  0  0  0  0  0  0
  -30.2275  -20.1440   21.5832 C   0  0  0  0  0  0  0  0  0  0  0  0
  -25.1594  -10.7456   21.7685 C   0  0  0  0  0  0  0  0  0  0  0  0
  -24.9079  -13.1427   21.2539 C   0  0  0  0  0  0  0  0  0  0  0  0
  -30.3904  -21.4791   20.8883 C   0  0  0  0  0  0  0  0  0  0  0  0
  -29.8335  -19.7430   19.2631 C   0  0  0  0  0  0  0  0  0  0  0  0
  -30.5558  -19.1420   20.4754 C   0  0  2  0  0  0  0  0  0  0  0  0
  -25.2394  -29.4057   24.6005 C   0  0  1  0  0  0  0  0  0  0  0  0
  -25.7840  -29.1483   20.8495 C   0  0  1  0  0  0  0  0  0  0  0  0
  -24.0927  -12.8240   19.9889 C   0  0  2  0  0  0  0  0  0  0  0  0
  -31.0229  -17.0773   18.4328 C   0  0  0  0  0  0  0  0  0  0  0  0
  -20.5299  -28.1710   15.2422 C   0  0  0  0  0  0  0  0  0  0  0  0
  -21.6869  -27.1810   21.6883 C   0  0  0  0  0  0  0  0  0  0  0  0
  -20.2636  -26.7522   19.6737 C   0  0  0  0  0  0  0  0  0  0  0  0
  -20.5400  -29.0784   20.5311 C   0  0  0  0  0  0  0  0  0  0  0  0
  -24.2477  -28.8351   14.7809 C   0  0  0  0  0  0  0  0  0  0  0  0
  -29.1994  -13.6055   21.5160 C   0  0  0  0  0  0  0  0  0  0  0  0
  -30.3785  -22.0766   18.4435 C   0  0  0  0  0  0  0  0  0  0  0  0
  -30.1494  -23.5411   18.7611 C   0  0  0  0  0  0  0  0  0  1  0  0
  -22.4740  -27.9535   19.3538 C   0  0  1  0  0  0  0  0  0  0  0  0
  -21.9210  -28.6187   15.6631 C   0  0  2  0  0  0  0  0  0  0  0  0
  -21.2688  -27.7348   20.3115 C   0  0  0  0  0  0  0  0  0  0  0  0
  -22.5887  -14.6728   20.6232 N   0  0  0  0  0  0  0  0  0  0  0  0
  -23.1305  -13.9424   19.6338 N   0  0  0  0  0  0  0  0  0  0  0  0
  -24.7946  -28.3619   20.1100 N   0  0  0  0  0  0  0  0  0  0  0  0
  -25.8254  -12.0333   21.5577 N   0  0  0  0  0  0  0  0  0  0  0  0
  -23.1754  -13.6904   17.2789 N   0  0  0  0  0  0  0  0  0  0  0  0
  -21.8087  -17.2175   16.9875 N   0  0  0  0  0  0  0  0  0  0  0  0
  -25.3496  -29.6466   23.1778 N   0  0  0  0  0  0  0  0  0  0  0  0
  -22.1108  -28.5028   18.0520 N   0  0  0  0  0  0  0  0  0  0  0  0
  -27.7749  -13.3675   21.4456 N   0  0  0  0  0  0  0  0  0  0  0  0
  -29.7822  -21.2373   19.5278 N   0  3  2  0  0  0  0  0  0  0  0  0
  -22.8480  -28.4148   14.5141 N   0  3  0  0  0  0  0  0  0  0  0  0
  -20.0460  -15.7568   17.1228 O   0  0  0  0  0  0  0  0  0  0  0  0
  -26.0415  -27.5173   22.5373 O   0  0  0  0  0  0  0  0  0  0  0  0
  -23.1861  -30.0467   20.2127 O   0  0  0  0  0  0  0  0  0  0  0  0
  -22.9865  -26.7659   16.7897 O   0  0  0  0  0  0  0  0  0  0  0  0
  -27.9289  -11.1329   21.9354 O   0  0  0  0  0  0  0  0  0  0  0  0
  -18.8389  -19.3347   22.8031 O   0  0  0  0  0  0  0  0  0  0  0  0
  -28.7489  -23.7936   18.8661 O   0  0  0  0  0  0  0  0  0  1  0  0
  -20.6336  -24.5483   22.7537 F   0  0  0  0  0  0  0  0  0  0  0  0
  -19.5110  -20.6257   25.1535 F   0  0  0  0  0  0  0  0  0  0  0  0
  1  2  1  0  0  0  0
  1  5  2  0  0  0  0
  2  6  2  0  0  0  0
  3 10  2  0  0  0  0
  3 18  1  0  0  0  0
  4 11  1  0  0  0  0
  4 18  2  0  0  0  0
  5 20  1  0  0  0  0
  6 22  1  0  0  0  0
  7  9  2  0  0  0  0
  7 23  1  0  0  0  0
  8 12  2  0  0  0  0
  8 21  1  0  0  0  0
  9 25  1  0  0  0  0
 10 27  1  0  0  0  0
 11 27  2  0  0  0  0
 12 28  1  0  0  0  0
 13 14  2  0  0  0  0
 13 29  1  0  0  0  0
 14 30  1  0  0  0  0
 15 24  1  0  0  0  0
 15 28  2  0  0  0  0
 16 25  2  0  0  0  0
 16 26  1  0  0  0  0
 17 30  2  0  0  0  0
 17 31  1  0  0  0  0
 18 32  1  0  0  0  0
 19 32  1  0  0  0  0
 19 33  2  0  0  0  0
 19 34  1  0  0  0  0
 20 22  2  0  0  0  0
 20 39  1  0  0  0  0
 21 24  2  0  0  0  0
 21 40  1  0  0  0  0
 22 52  1  0  0  0  0
 23 26  2  0  0  0  0
 23 51  1  0  0  0  0
 24 41  1  0  0  0  0
 25 61  1  0  0  0  0
 26 55  1  0  0  0  0
 27 83  1  0  0  0  0
 28 84  1  0  0  0  0
 29 31  2  0  0  0  0
 29 83  1  0  0  0  0
 30 85  1  0  0  0  0
 31 86  1  0  0  0  0
 32 67  2  0  0  0  0
 33 68  1  0  0  0  0
 33 71  1  0  0  0  0
 34 72  1  0  0  0  0
 34 78  2  0  0  0  0
 35 53  1  0  0  0  0
 35 73  1  0  0  0  0
 35 79  2  0  0  0  0
 36 64  1  0  0  0  0
 36 69  1  0  0  0  0
 36 80  2  0  0  0  0
 37 65  1  0  0  0  0
 37 74  1  0  0  0  0
 37 81  2  0  0  0  0
 38 70  1  0  0  0  0
 38 75  1  0  0  0  0
 38 82  2  0  0  0  0
 39 42  1  0  0  0  0
 40 53  1  0  0  0  0
 41 69  1  0  0  0  0
 42 44  1  0  0  0  0
 43 45  1  0  0  0  0
 43 47  1  0  0  0  0
 44 52  1  0  0  0  0
 45 54  1  0  0  0  0
 46 49  1  0  0  0  0
 46 51  1  0  0  0  0
 47 70  1  0  0  0  0
 48 54  1  0  0  0  0
 48 70  1  0  0  0  0
 49 76  1  0  0  0  0
 50 51  1  0  0  0  0
 50 76  1  0  0  0  0
 52 73  1  0  0  0  0
 53 69  1  0  0  0  0
 54 68  1  0  0  0  0
 56 65  1  0  0  0  0
 57 66  1  0  0  0  0
 58 66  1  0  0  0  0
 59 66  1  0  0  0  0
 60 77  1  0  0  0  0
 61 75  1  0  0  0  0
 62 63  1  0  0  0  0
 62 76  1  0  0  0  0
 63 84  1  0  0  0  0
 64 66  1  0  0  0  0
 64 74  1  0  0  0  0
 65 77  1  0  0  0  0
 67 68  1  0  0  0  0
M  CHG  2  76   1  77   1
M  ISO  4  38 100  63 101  75 100  84 101
M  END
> <Batch ID>
0128

> <Smiles>
CNC(C)C(=O)NC(C(=O)N1Cc2cc([101O:1][101CH2:1]CN3CCC(c4ccc(C[100NH:0][100C:0](=O)N5CCCC(n6nc(-c7ccc(Oc8ccc(F)cc8F)cc7)c(C(N)=O)c6N)C5)cc4C)C3)ccc2CC1C(=O)NC1CCCc2ccccc21)C(C)(C)C

> <Shape>
0.234

> <Color>
0.049

> <Negative vol penalty>
0.000

$$$$

  -OEChem-04052320423D

 84 93  0     1  0  0  0  0  0999 V2000
  -27.3358  -31.7473   14.1077 C   0  0  0  0  0  0  0  0  0  0  0  0
  -27.1739  -30.5902   14.8630 C   0  0  0  0  0  0  0  0  0  0  0  0
  -26.1127  -13.7302   21.3414 C   0  0  0  0  0  0  0  0  0  0  0  0
  -25.9345  -14.8337   19.1995 C   0  0  0  0  0  0  0  0  0  0  0  0
  -27.6643  -32.9480   14.7356 C   0  0  0  0  0  0  0  0  0  0  0  0
  -27.3414  -30.6330   16.2466 C   0  0  0  0  0  0  0  0  0  0  0  0
  -23.7014  -28.1301   18.7227 C   0  0  0  0  0  0  0  0  0  0  0  0
  -24.8067  -13.2592   21.2074 C   0  0  0  0  0  0  0  0  0  0  0  0
  -24.6284  -14.3626   19.0655 C   0  0  0  0  0  0  0  0  0  0  0  0
  -23.7979  -26.7398   18.7613 C   0  0  0  0  0  0  0  0  0  0  0  0
  -21.6726  -14.4667   21.5867 C   0  0  0  0  0  0  0  0  0  0  0  0
  -20.8308  -14.5690   22.6941 C   0  0  0  0  0  0  0  0  0  0  0  0
  -24.7112  -26.8710   20.9902 C   0  0  0  0  0  0  0  0  0  0  0  0
  -25.7040  -22.7978   19.5122 C   0  0  0  0  0  0  0  0  0  0  0  0
  -20.5509  -12.1693   22.7030 C   0  0  0  0  0  0  0  0  0  0  0  0
  -26.6766  -14.5175   20.3375 C   0  0  0  0  0  0  0  0  0  0  0  0
  -29.2070  -14.3689   20.0493 C   0  0  0  0  0  0  0  0  0  0  0  0
  -27.8265  -33.0076   16.1288 C   0  0  0  0  0  0  0  0  0  0  0  0
  -24.1200  -28.9032   19.8152 C   0  0  0  0  0  0  0  0  0  0  0  0
  -27.6737  -31.8354   16.8937 C   0  0  0  0  0  0  0  0  0  0  0  0
  -24.6167  -28.2708   20.9639 C   0  0  0  0  0  0  0  0  0  0  0  0
  -26.8945  -22.2438   19.0545 C   0  0  0  0  0  0  0  0  0  0  0  0
  -27.9073  -23.0746   18.5883 C   0  0  0  0  0  0  0  0  0  0  0  0
  -24.0645  -13.5754   20.0695 C   0  0  0  0  0  0  0  0  0  0  0  0
  -24.3055  -26.1102   19.8940 C   0  0  0  0  0  0  0  0  0  0  0  0
  -21.9536  -13.2157   21.0373 C   0  0  0  0  0  0  0  0  0  0  0  0
  -20.2700  -13.4203   23.2523 C   0  0  0  0  0  0  0  0  0  0  0  0
  -21.3927  -12.0670   21.5956 C   0  0  0  0  0  0  0  0  0  0  0  0
  -28.0256  -15.0048   20.4755 C   0  0  0  0  0  0  0  0  0  0  0  0
  -27.6819  -24.4417   18.6004 C   0  0  0  0  0  0  0  0  0  0  0  0
  -25.5771  -24.1772   19.4830 C   0  0  0  0  0  0  0  0  0  1  0  0
  -30.2115  -15.2333   20.4101 C   0  0  0  0  0  0  0  0  0  0  0  0
  -29.3808  -13.1095   19.3865 C   0  0  0  0  0  0  0  0  0  0  0  0
  -26.3467  -31.1259   20.2684 C   0  0  0  0  0  0  0  0  0  0  0  0
  -24.9647  -31.3587   23.1938 C   0  0  0  0  0  0  0  0  0  0  0  0
  -23.1055  -29.8824   25.6455 C   0  0  0  0  0  0  0  0  0  0  0  0
  -30.3609  -21.1438   21.3560 C   0  0  0  0  0  0  0  0  0  0  0  0
  -28.2280  -34.3184   16.7575 C   0  0  0  0  0  0  0  0  0  0  0  0
  -23.9846  -30.4005   19.7682 C   0  0  0  0  0  0  0  0  0  0  0  0
  -25.0607  -29.0543   22.1712 C   0  0  0  0  0  0  0  0  0  0  0  0
  -28.0199  -34.3579   18.2692 C   0  0  0  0  0  0  0  0  0  0  0  0
  -31.2832  -18.5842   23.6526 C   0  0  0  0  0  0  0  0  0  0  0  0
  -27.4187  -20.0502   17.7948 C   0  0  0  0  0  0  0  0  0  0  0  0
  -26.0449  -19.9012   18.3699 C   0  0  0  0  0  0  0  0  0  0  0  0
  -28.5619  -33.0872   18.9161 C   0  0  0  0  0  0  0  0  0  0  0  0
  -30.6595  -17.3193   23.0603 C   0  0  0  0  0  0  0  0  0  0  0  0
  -30.3916  -19.8057   23.4404 C   0  0  0  0  0  0  0  0  0  0  0  0
  -29.3653  -18.7781   21.4493 C   0  0  0  0  0  0  0  0  0  0  0  0
  -27.0615  -20.7609   19.0732 C   0  0  0  0  0  0  0  0  0  0  0  0
  -27.8228  -31.8468   18.3996 C   0  0  1  0  0  0  0  0  0  0  0  0
  -24.9196  -31.1158   20.7385 C   0  0  1  0  0  0  0  0  0  0  0  0
  -30.2536  -17.5301   21.5893 C   0  0  2  0  0  0  0  0  0  0  0  0
  -28.7329  -25.3839   18.1113 C   0  0  0  0  0  0  0  0  0  0  0  0
  -22.1723  -30.3075   27.9359 C   0  0  0  0  0  0  0  0  0  0  0  0
  -31.6667  -22.2487   18.5921 C   0  0  0  0  0  0  0  0  0  0  0  0
  -27.7364  -30.9386   24.3984 C   0  0  0  0  0  0  0  0  0  0  0  0
  -26.6316  -30.4263   26.5859 C   0  0  0  0  0  0  0  0  0  0  0  0
  -26.3525  -32.6767   25.5465 C   0  0  0  0  0  0  0  0  0  0  0  0
  -20.3211  -29.5501   24.6993 C   0  0  0  0  0  0  0  0  0  0  0  0
  -29.1960  -22.5105   18.0910 C   0  0  0  0  0  0  0  0  0  0  0  0
  -25.1702  -30.6866   24.5298 C   0  0  1  0  0  0  0  0  0  0  0  0
  -21.9103  -30.3778   26.4395 C   0  0  2  0  0  0  0  0  0  0  0  0
  -30.2678  -22.3541   19.1913 C   0  0  1  0  0  0  0  0  0  0  0  0
  -26.4662  -31.1671   25.2418 C   0  0  0  0  0  0  0  0  0  0  0  0
  -28.2566  -16.1822   21.0624 N   0  0  0  0  0  0  0  0  0  0  0  0
  -26.5388  -25.0164   19.0373 N   0  0  0  0  0  0  0  0  0  0  0  0
  -29.5948  -16.2930   21.0076 N   0  0  0  0  0  0  0  0  0  0  0  0
  -24.9144  -30.5160   22.0743 N   0  0  0  0  0  0  0  0  0  0  0  0
  -30.0443  -19.9498   22.0246 N   0  0  0  0  0  0  0  0  0  0  0  0
  -31.5534  -15.1826   20.2716 N   0  0  0  0  0  0  0  0  0  0  0  0
  -28.2423  -12.3479   19.0897 N   0  0  0  0  0  0  0  0  0  0  0  0
  -26.5293  -31.7270   19.0376 N   0  0  0  0  0  0  0  0  0  0  0  0
  -23.9487  -30.9153   25.2940 N   0  0  0  0  0  0  0  0  0  0  0  0
  -30.0028  -21.1952   20.0144 N   0  0  0  0  0  0  0  0  0  0  0  0
  -20.7074  -29.5527   26.1338 N   0  3  0  0  0  0  0  0  0  0  0  0
  -30.5134  -12.6649   19.0816 O   0  0  0  0  0  0  0  0  0  0  0  0
  -27.2179  -30.6267   20.9709 O   0  0  0  0  0  0  0  0  0  0  0  0
  -24.8458  -32.5856   23.1460 O   0  0  0  0  0  0  0  0  0  0  0  0
  -23.2762  -28.6973   25.3682 O   0  0  0  0  0  0  0  0  0  0  0  0
  -30.9261  -22.0917   21.9119 O   0  0  0  0  0  0  0  0  0  0  0  0
  -22.7901  -13.1157   19.9383 O   0  0  0  0  0  0  0  0  0  0  0  0
  -24.4013  -24.7533   19.9340 O   0  0  0  0  0  0  0  0  0  1  0  0
  -19.4628  -13.5186   24.3168 F   0  0  0  0  0  0  0  0  0  0  0  0
  -21.6599  -10.8623   21.0729 F   0  0  0  0  0  0  0  0  0  0  0  0
  1  2  1  0  0  0  0
  1  5  2  0  0  0  0
  2  6  2  0  0  0  0
  3  8  2  0  0  0  0
  3 16  1  0  0  0  0
  4  9  1  0  0  0  0
  4 16  2  0  0  0  0
  5 18  1  0  0  0  0
  6 20  1  0  0  0  0
  7 10  2  0  0  0  0
  7 19  1  0  0  0  0
  8 24  1  0  0  0  0
  9 24  2  0  0  0  0
 10 25  1  0  0  0  0
 11 12  2  0  0  0  0
 11 26  1  0  0  0  0
 12 27  1  0  0  0  0
 13 21  1  0  0  0  0
 13 25  2  0  0  0  0
 14 22  2  0  0  0  0
 14 31  1  0  0  0  0
 15 27  2  0  0  0  0
 15 28  1  0  0  0  0
 16 29  1  0  0  0  0
 17 29  1  0  0  0  0
 17 32  2  0  0  0  0
 17 33  1  0  0  0  0
 18 20  2  0  0  0  0
 18 38  1  0  0  0  0
 19 21  2  0  0  0  0
 19 39  1  0  0  0  0
 20 50  1  0  0  0  0
 21 40  1  0  0  0  0
 22 23  1  0  0  0  0
 22 49  1  0  0  0  0
 23 30  2  0  0  0  0
 23 60  1  0  0  0  0
 24 81  1  0  0  0  0
 25 82  1  0  0  0  0
 26 28  2  0  0  0  0
 26 81  1  0  0  0  0
 27 83  1  0  0  0  0
 28 84  1  0  0  0  0
 29 65  2  0  0  0  0
 30 53  1  0  0  0  0
 30 66  1  0  0  0  0
 31 66  2  0  0  0  0
 31 82  1  0  0  0  0
 32 67  1  0  0  0  0
 32 70  1  0  0  0  0
 33 71  1  0  0  0  0
 33 76  2  0  0  0  0
 34 51  1  0  0  0  0
 34 72  1  0  0  0  0
 34 77  2  0  0  0  0
 35 61  1  0  0  0  0
 35 68  1  0  0  0  0
 35 78  2  0  0  0  0
 36 62  1  0  0  0  0
 36 73  1  0  0  0  0
 36 79  2  0  0  0  0
 37 69  1  0  0  0  0
 37 74  1  0  0  0  0
 37 80  2  0  0  0  0
 38 41  1  0  0  0  0
 39 51  1  0  0  0  0
 40 68  1  0  0  0  0
 41 45  1  0  0  0  0
 42 46  1  0  0  0  0
 42 47  1  0  0  0  0
 43 44  1  0  0  0  0
 43 49  1  0  0  0  0
 44 49  1  0  0  0  0
 45 50  1  0  0  0  0
 46 52  1  0  0  0  0
 47 69  1  0  0  0  0
 48 52  1  0  0  0  0
 48 69  1  0  0  0  0
 50 72  1  0  0  0  0
 51 68  1  0  0  0  0
 52 67  1  0  0  0  0
 54 62  1  0  0  0  0
 55 63  1  0  0  0  0
 56 64  1  0  0  0  0
 57 64  1  0  0  0  0
 58 64  1  0  0  0  0
 59 75  1  0  0  0  0
 60 63  1  0  0  0  0
 61 64  1  0  0  0  0
 61 73  1  0  0  0  0
 62 75  1  0  0  0  0
 63 74  1  0  0  0  0
 65 67  1  0  0  0  0
M  CHG  1  75   1
M  ISO  4  31 101  37 100  74 100  82 101
M  END
> <Batch ID>
0128

> <Smiles>
CNC(C)C(=O)NC(C(=O)N1Cc2cc([101O:1][101c:1]3cc(C4CC4)c(CC(C)[100NH:0][100C:0](=O)N4CCCC(n5nc(-c6ccc(Oc7ccc(F)cc7F)cc6)c(C(N)=O)c5N)C4)c(C)n3)ccc2CC1C(=O)NC1CCCc2ccccc21)C(C)(C)C

> <Shape>
0.250

> <Color>
0.053

> <Negative vol penalty>
0.000

$$$$

  -OEChem-04052320423D

 93102  0     1  0  0  0  0  0999 V2000
  -26.6721  -39.3802   21.8903 C   0  0  0  0  0  0  0  0  0  0  0  0
  -27.6692  -38.4465   22.1537 C   0  0  0  0  0  0  0  0  0  0  0  0
  -22.9979  -10.9049   21.9554 C   0  0  0  0  0  0  0  0  0  0  0  0
  -24.4970   -9.0449   21.5947 C   0  0  0  0  0  0  0  0  0  0  0  0
  -25.3941  -39.2013   22.4183 C   0  0  0  0  0  0  0  0  0  0  0  0
  -27.3892  -37.3340   22.9464 C   0  0  0  0  0  0  0  0  0  0  0  0
  -28.2740  -30.6523   20.4040 C   0  0  0  0  0  0  0  0  0  0  0  0
  -29.1431  -18.8880   15.8672 C   0  0  0  0  0  0  0  0  0  0  0  0
  -28.1955  -18.4214   16.7783 C   0  0  0  0  0  0  0  0  0  0  0  0
  -22.3356  -10.1791   22.9454 C   0  0  0  0  0  0  0  0  0  0  0  0
  -23.8347   -8.3191   22.5847 C   0  0  0  0  0  0  0  0  0  0  0  0
  -28.6180  -29.3443   20.0620 C   0  0  0  0  0  0  0  0  0  0  0  0
  -20.9754   -6.5387   22.8765 C   0  0  0  0  0  0  0  0  0  0  0  0
  -20.6630   -5.2069   22.6042 C   0  0  0  0  0  0  0  0  0  0  0  0
  -27.7392  -28.5506   22.1705 C   0  0  0  0  0  0  0  0  0  0  0  0
  -28.7452  -21.1515   16.6125 C   0  0  0  0  0  0  0  0  0  0  0  0
  -21.9985   -4.5075   24.4921 C   0  0  0  0  0  0  0  0  0  0  0  0
  -24.0786  -10.3378   21.2800 C   0  0  0  0  0  0  0  0  0  0  0  0
  -24.2120  -11.6014   19.0680 C   0  0  0  0  0  0  0  0  0  0  0  0
  -25.0958  -38.0810   23.2098 C   0  0  0  0  0  0  0  0  0  0  0  0
  -27.6466  -30.9128   21.6254 C   0  0  0  0  0  0  0  0  0  0  0  0
  -26.1065  -37.1407   23.4866 C   0  0  0  0  0  0  0  0  0  0  0  0
  -27.3810  -29.8572   22.5131 C   0  0  0  0  0  0  0  0  0  0  0  0
  -29.4180  -20.2530   15.7844 C   0  0  0  0  0  0  0  0  0  0  0  0
  -27.5228  -19.3199   17.6064 C   0  0  0  0  0  0  0  0  0  0  0  0
  -27.7976  -20.6849   17.5236 C   0  0  0  0  0  0  0  0  0  0  0  0
  -22.7540   -8.8862   23.2601 C   0  0  0  0  0  0  0  0  0  0  0  0
  -28.3515  -28.2961   20.9433 C   0  0  0  0  0  0  0  0  0  0  0  0
  -21.7994   -6.8550   23.9566 C   0  0  0  0  0  0  0  0  0  0  0  0
  -21.1745   -4.1913   23.4119 C   0  0  0  0  0  0  0  0  0  0  0  0
  -22.3110   -5.8394   24.7644 C   0  0  0  0  0  0  0  0  0  0  0  0
  -24.7629  -11.0869   20.2569 C   0  0  0  0  0  0  0  0  0  0  0  0
  -25.2642  -12.2261   18.4442 C   0  0  0  0  0  0  0  0  0  0  0  0
  -22.8691  -11.5219   18.5718 C   0  0  0  0  0  0  0  0  0  0  0  0
  -27.2900  -22.9908   18.3892 C   0  0  0  0  0  0  0  0  0  0  0  0
  -26.1505  -33.4720   23.9249 C   0  0  0  0  0  0  0  0  0  0  0  0
  -24.3366  -31.0009   24.0413 C   0  0  0  0  0  0  0  0  0  0  0  0
  -22.3793  -28.2479   23.5647 C   0  0  0  0  0  0  0  0  0  0  0  0
  -30.3653  -14.6203   20.4686 C   0  0  0  0  0  0  0  0  0  0  0  0
  -23.7125  -37.9551   23.7975 C   0  0  0  0  0  0  0  0  0  0  0  0
  -27.3140  -32.3138   22.0618 C   0  0  0  0  0  0  0  0  0  0  0  0
  -26.7359  -30.1889   23.8310 C   0  0  0  0  0  0  0  0  0  0  0  0
  -23.3972  -36.5552   24.3185 C   0  0  0  0  0  0  0  0  0  0  0  0
  -30.0280  -12.0351   18.0438 C   0  0  0  0  0  0  0  0  0  0  0  0
  -24.5551  -36.0247   25.1580 C   0  0  0  0  0  0  0  0  0  0  0  0
  -25.9422  -25.0128   18.9710 C   0  0  0  0  0  0  0  0  0  0  0  0
  -27.0732  -23.6200   20.7835 C   0  0  0  0  0  0  0  0  0  0  0  0
  -28.5907  -11.5453   18.2287 C   0  0  0  0  0  0  0  0  0  0  0  0
  -27.0275  -26.0757   19.1286 C   0  0  0  0  0  0  0  0  0  0  0  0
  -28.1553  -24.6895   20.9088 C   0  0  0  0  0  0  0  0  0  0  0  0
  -30.6695  -12.4182   19.3756 C   0  0  0  0  0  0  0  0  0  0  0  0
  -28.4627  -12.8982   20.3623 C   0  0  0  0  0  0  0  0  0  0  0  0
  -25.8349  -35.9080   24.3214 C   0  0  1  0  0  0  0  0  0  0  0  0
  -26.3897  -23.6177   19.4141 C   0  0  0  0  0  0  0  0  0  0  0  0
  -26.0171  -32.3971   22.8867 C   0  0  1  0  0  0  0  0  0  0  0  0
  -27.7551  -12.5531   19.0408 C   0  0  2  0  0  0  0  0  0  0  0  0
  -27.6276  -26.0710   20.5318 C   0  0  0  0  0  0  0  0  0  1  0  0
  -30.4314  -20.7510   14.8101 C   0  0  0  0  0  0  0  0  0  0  0  0
  -20.2196  -27.2128   24.3143 C   0  0  0  0  0  0  0  0  0  0  0  0
  -30.5583  -16.7127   22.9606 C   0  0  0  0  0  0  0  0  0  0  0  0
  -25.6429  -30.1926   26.6764 C   0  0  0  0  0  0  0  0  0  0  0  0
  -23.8766  -28.4367   26.9316 C   0  0  0  0  0  0  0  0  0  0  0  0
  -23.2362  -30.8466   26.8622 C   0  0  0  0  0  0  0  0  0  0  0  0
  -21.2704  -28.2946   20.8211 C   0  0  0  0  0  0  0  0  0  0  0  0
  -26.5121  -18.7918   18.5723 C   0  0  0  0  0  0  0  0  0  0  0  0
  -26.9956  -18.7524   20.0215 C   0  0  0  0  0  0  0  0  0  0  0  0
  -28.7380  -17.7750   21.5207 C   0  0  0  0  0  0  0  0  0  0  0  0
  -24.0052  -29.7068   24.7404 C   0  0  1  0  0  0  0  0  0  0  0  0
  -20.8945  -28.1038   23.2831 C   0  0  2  0  0  0  0  0  0  0  0  0
  -29.9031  -16.7881   21.5849 C   0  0  2  0  0  0  0  0  0  0  0  0
  -24.2068  -29.7963   26.2795 C   0  0  0  0  0  0  0  0  0  0  0  0
  -26.0641  -11.3608   20.3830 N   0  0  0  0  0  0  0  0  0  0  0  0
  -26.3396  -12.0542   19.2652 N   0  0  0  0  0  0  0  0  0  0  0  0
  -25.6637  -31.1764   23.6310 N   0  0  0  0  0  0  0  0  0  0  0  0
  -29.8280  -13.3773   20.0953 N   0  0  0  0  0  0  0  0  0  0  0  0
  -25.3652  -12.9002   17.2789 N   0  0  0  0  0  0  0  0  0  0  0  0
  -21.9126  -10.8430   19.3389 N   0  0  0  0  0  0  0  0  0  0  0  0
  -27.1261  -21.6119   18.3557 N   0  0  0  0  0  0  0  0  0  0  0  0
  -25.7851  -34.7293   23.4832 N   0  0  0  0  0  0  0  0  0  0  0  0
  -22.6475  -29.3598   24.3348 N   0  0  0  0  0  0  0  0  0  0  0  0
  -29.4985  -15.4725   21.1416 N   0  0  0  0  0  0  0  0  0  0  0  0
  -20.6786  -27.5083   21.9341 N   0  3  0  0  0  0  0  0  0  0  0  0
  -28.1570  -17.8382   20.1519 N   0  3  0  0  0  0  0  0  0  0  0  0
  -22.5314  -12.0234   17.4728 O   0  0  0  0  0  0  0  0  0  0  0  0
  -28.0418  -23.6803   17.7077 O   0  0  0  0  0  0  0  0  0  0  0  0
  -26.5538  -33.1831   25.0455 O   0  0  0  0  0  0  0  0  0  0  0  0
  -23.4462  -31.8377   23.8673 O   0  0  0  0  0  0  0  0  0  0  0  0
  -23.2169  -27.4516   23.1466 O   0  0  0  0  0  0  0  0  0  0  0  0
  -31.5295  -14.9484   20.2158 O   0  0  0  0  0  0  0  0  0  0  0  0
  -22.1080   -8.1778   24.2262 O   0  0  0  0  0  0  0  0  0  0  0  0
  -28.6858  -27.0210   20.6012 O   0  0  0  0  0  0  0  0  0  1  0  0
  -20.8732   -2.9125   23.1512 F   0  0  0  0  0  0  0  0  0  0  0  0
  -23.1022   -6.1371   25.8042 F   0  0  0  0  0  0  0  0  0  0  0  0
  1  2  1  0  0  0  0
  1  5  2  0  0  0  0
  2  6  2  0  0  0  0
  3 10  2  0  0  0  0
  3 18  1  0  0  0  0
  4 11  1  0  0  0  0
  4 18  2  0  0  0  0
  5 20  1  0  0  0  0
  6 22  1  0  0  0  0
  7 12  2  0  0  0  0
  7 21  1  0  0  0  0
  8  9  2  0  0  0  0
  8 24  1  0  0  0  0
  9 25  1  0  0  0  0
 10 27  1  0  0  0  0
 11 27  2  0  0  0  0
 12 28  1  0  0  0  0
 13 14  2  0  0  0  0
 13 29  1  0  0  0  0
 14 30  1  0  0  0  0
 15 23  1  0  0  0  0
 15 28  2  0  0  0  0
 16 24  2  0  0  0  0
 16 26  1  0  0  0  0
 17 30  2  0  0  0  0
 17 31  1  0  0  0  0
 18 32  1  0  0  0  0
 19 32  1  0  0  0  0
 19 33  2  0  0  0  0
 19 34  1  0  0  0  0
 20 22  2  0  0  0  0
 20 40  1  0  0  0  0
 21 23  2  0  0  0  0
 21 41  1  0  0  0  0
 22 53  1  0  0  0  0
 23 42  1  0  0  0  0
 24 58  1  0  0  0  0
 25 26  2  0  0  0  0
 25 65  1  0  0  0  0
 26 78  1  0  0  0  0
 27 90  1  0  0  0  0
 28 91  1  0  0  0  0
 29 31  2  0  0  0  0
 29 90  1  0  0  0  0
 30 92  1  0  0  0  0
 31 93  1  0  0  0  0
 32 72  2  0  0  0  0
 33 73  1  0  0  0  0
 33 76  1  0  0  0  0
 34 77  1  0  0  0  0
 34 84  2  0  0  0  0
 35 54  1  0  0  0  0
 35 78  1  0  0  0  0
 35 85  2  0  0  0  0
 36 55  1  0  0  0  0
 36 79  1  0  0  0  0
 36 86  2  0  0  0  0
 37 68  1  0  0  0  0
 37 74  1  0  0  0  0
 37 87  2  0  0  0  0
 38 69  1  0  0  0  0
 38 80  1  0  0  0  0
 38 88  2  0  0  0  0
 39 75  1  0  0  0  0
 39 81  1  0  0  0  0
 39 89  2  0  0  0  0
 40 43  1  0  0  0  0
 41 55  1  0  0  0  0
 42 74  1  0  0  0  0
 43 45  1  0  0  0  0
 44 48  1  0  0  0  0
 44 51  1  0  0  0  0
 45 53  1  0  0  0  0
 46 49  1  0  0  0  0
 46 54  1  0  0  0  0
 47 50  1  0  0  0  0
 47 54  1  0  0  0  0
 48 56  1  0  0  0  0
 49 57  1  0  0  0  0
 50 57  1  0  0  0  0
 51 75  1  0  0  0  0
 52 56  1  0  0  0  0
 52 75  1  0  0  0  0
 53 79  1  0  0  0  0
 55 74  1  0  0  0  0
 56 73  1  0  0  0  0
 57 91  1  0  0  0  0
 59 69  1  0  0  0  0
 60 70  1  0  0  0  0
 61 71  1  0  0  0  0
 62 71  1  0  0  0  0
 63 71  1  0  0  0  0
 64 82  1  0  0  0  0
 65 66  1  0  0  0  0
 66 83  1  0  0  0  0
 67 70  1  0  0  0  0
 67 83  1  0  0  0  0
 68 71  1  0  0  0  0
 68 80  1  0  0  0  0
 69 82  1  0  0  0  0
 70 81  1  0  0  0  0
 72 73  1  0  0  0  0
M  CHG  2  82   1  83   1
M  ISO  4  39 100  57 101  81 100  91 101
M  END
> <Batch ID>
0128

> <Smiles>
CNC(C)C(=O)NC(C(=O)N1Cc2cc([101O:1][101CH:1]3CCC(C(=O)Nc4cc(C)ccc4CCNCC(C)[100NH:0][100C:0](=O)N4CCCC(n5nc(-c6ccc(Oc7ccc(F)cc7F)cc6)c(C(N)=O)c5N)C4)CC3)ccc2CC1C(=O)NC1CCCc2ccccc21)C(C)(C)C

> <Shape>
0.341

> <Color>
0.107

> <Negative vol penalty>
0.000

$$$$

  -OEChem-04052320423D

 86 95  0     1  0  0  0  0  0999 V2000
  -17.3440  -12.4175   22.8369 C   0  0  0  0  0  0  0  0  0  0  0  0
  -17.9345  -13.6363   22.5190 C   0  0  0  0  0  0  0  0  0  0  0  0
  -28.7720  -27.5225   21.1974 C   0  0  0  0  0  0  0  0  0  0  0  0
  -27.1049  -25.7889   21.4265 C   0  0  0  0  0  0  0  0  0  0  0  0
  -18.1208  -11.3819   23.3547 C   0  0  0  0  0  0  0  0  0  0  0  0
  -19.3020  -13.8207   22.7198 C   0  0  0  0  0  0  0  0  0  0  0  0
  -23.1097  -17.1658   19.2821 C   0  0  0  0  0  0  0  0  0  0  0  0
  -29.7600  -26.6262   21.6049 C   0  0  0  0  0  0  0  0  0  0  0  0
  -28.0930  -24.8926   21.8339 C   0  0  0  0  0  0  0  0  0  0  0  0
  -23.6148  -18.4572   19.4271 C   0  0  0  0  0  0  0  0  0  0  0  0
  -30.4970  -23.0104   20.3853 C   0  0  0  0  0  0  0  0  0  0  0  0
  -30.4825  -21.7333   19.8247 C   0  0  0  0  0  0  0  0  0  0  0  0
  -25.6109  -17.5563   20.4387 C   0  0  0  0  0  0  0  0  0  0  0  0
  -23.5277  -24.1129   20.3750 C   0  0  0  0  0  0  0  0  0  0  0  0
  -30.2150  -20.7707   22.0244 C   0  0  0  0  0  0  0  0  0  0  0  0
  -24.5933  -24.0206   18.2507 C   0  0  0  0  0  0  0  0  0  0  0  0
  -27.4444  -27.1038   21.1082 C   0  0  0  0  0  0  0  0  0  0  0  0
  -25.9873  -28.2742   19.3719 C   0  0  0  0  0  0  0  0  0  0  0  0
  -19.5003  -11.5504   23.5529 C   0  0  0  0  0  0  0  0  0  0  0  0
  -23.8479  -16.0589   19.7249 C   0  0  0  0  0  0  0  0  0  0  0  0
  -20.0978  -12.7868   23.2420 C   0  0  0  0  0  0  0  0  0  0  0  0
  -25.1140  -16.2518   20.2958 C   0  0  0  0  0  0  0  0  0  0  0  0
  -24.4435  -23.5010   19.5264 C   0  0  0  0  0  0  0  0  0  0  0  0
  -22.8000  -25.2103   19.9283 C   0  0  0  0  0  0  0  0  0  0  0  0
  -29.4205  -25.3113   21.9231 C   0  0  0  0  0  0  0  0  0  0  0  0
  -24.8643  -18.6528   20.0081 C   0  0  0  0  0  0  0  0  0  0  0  0
  -30.3706  -23.1677   21.7656 C   0  0  0  0  0  0  0  0  0  0  0  0
  -30.3414  -20.6135   20.6442 C   0  0  0  0  0  0  0  0  0  0  0  0
  -30.2296  -22.0479   22.5851 C   0  0  0  0  0  0  0  0  0  0  0  0
  -26.4232  -28.0293   20.6879 C   0  0  0  0  0  0  0  0  0  0  0  0
  -23.0235  -25.6536   18.6347 C   0  0  0  0  0  0  0  0  0  0  0  0
  -25.0104  -29.2303   19.5060 C   0  0  0  0  0  0  0  0  0  0  0  0
  -26.4263  -27.6897   18.1385 C   0  0  0  0  0  0  0  0  0  0  0  0
  -23.3914  -13.7806   21.8939 C   0  0  0  0  0  0  0  0  0  0  0  0
  -26.1338  -12.5819   20.6431 C   0  0  0  0  0  0  0  0  0  0  0  0
  -29.0412  -13.1585   18.9515 C   0  0  0  0  0  0  0  0  0  0  0  0
  -21.9967  -27.9425   23.3821 C   0  0  0  0  0  0  0  0  0  0  0  0
  -20.2902  -10.4178   24.1594 C   0  0  0  0  0  0  0  0  0  0  0  0
  -23.3006  -14.6705   19.5369 C   0  0  0  0  0  0  0  0  0  0  0  0
  -25.9550  -15.0954   20.7690 C   0  0  0  0  0  0  0  0  0  0  0  0
  -21.7999  -10.5695   23.9910 C   0  0  0  0  0  0  0  0  0  0  0  0
  -24.6142  -30.2968   23.9930 C   0  0  0  0  0  0  0  0  0  0  0  0
  -18.5753  -27.7251   22.2004 C   0  0  0  0  0  0  0  0  0  0  0  0
  -22.2373  -11.9861   24.3496 C   0  0  0  0  0  0  0  0  0  0  0  0
  -24.6729  -31.1518   22.7320 C   0  0  0  0  0  0  0  0  0  0  0  0
  -19.0095  -26.2900   21.9377 C   0  0  0  0  0  0  0  0  0  0  0  0
  -23.1793  -29.9023   24.3067 C   0  0  0  0  0  0  0  0  0  0  0  0
  -19.8812  -28.4950   22.0788 C   0  0  0  0  0  0  0  0  0  0  0  0
  -22.5935  -29.9198   21.8896 C   0  0  0  0  0  0  0  0  0  0  0  0
  -21.5825  -13.0171   23.4223 C   0  0  1  0  0  0  0  0  0  0  0  0
  -23.9152  -13.6516   20.4916 C   0  0  1  0  0  0  0  0  0  0  0  0
  -23.9900  -30.4782   21.5310 C   0  0  2  0  0  0  0  0  0  0  0  0
  -20.3748  -26.2043   22.6256 C   0  0  1  0  0  0  0  0  0  0  0  0
  -22.2722  -26.8283   18.0977 C   0  0  0  0  0  0  0  0  0  0  0  0
  -31.0972  -11.9896   18.1125 C   0  0  0  0  0  0  0  0  0  0  0  0
  -27.2538  -12.5204   23.4807 C   0  0  0  0  0  0  0  0  0  0  0  0
  -29.5425  -12.2700   22.4973 C   0  0  0  0  0  0  0  0  0  0  0  0
  -27.8150  -10.5162   22.0940 C   0  0  0  0  0  0  0  0  0  0  0  0
  -28.4211  -13.8386   16.1386 C   0  0  0  0  0  0  0  0  0  0  0  0
  -25.2374  -22.3255   19.9743 C   0  0  0  0  0  0  0  0  0  0  0  0
  -21.3042  -25.2213   21.9253 C   0  0  0  0  0  0  0  0  0  0  0  0
  -24.5466  -20.9875   19.6852 C   0  0  0  0  0  0  0  0  0  1  0  0
  -27.6054  -12.7526   20.9334 C   0  0  1  0  0  0  0  0  0  0  0  0
  -29.6836  -12.4402   17.7786 C   0  0  2  0  0  0  0  0  0  0  0  0
  -28.0377  -12.0369   22.2443 C   0  0  0  0  0  0  0  0  0  0  0  0
  -23.9045  -25.0850   17.7813 N   0  0  0  0  0  0  0  0  0  0  0  0
  -25.7762  -28.7701   21.5916 N   0  0  0  0  0  0  0  0  0  0  0  0
  -24.9240  -29.4900   20.8422 N   0  0  0  0  0  0  0  0  0  0  0  0
  -25.3736  -13.7577   20.5690 N   0  0  0  0  0  0  0  0  0  0  0  0
  -22.5408  -29.2198   23.1811 N   0  0  0  0  0  0  0  0  0  0  0  0
  -20.8913  -27.5783   22.6099 N   0  0  0  0  0  0  0  0  0  0  0  0
  -24.2254  -29.8657   18.6103 N   0  0  0  0  0  0  0  0  0  0  0  0
  -27.4394  -26.7222   18.1809 N   0  0  0  0  0  0  0  0  0  0  0  0
  -21.8787  -25.8324   20.7727 N   0  0  0  0  0  0  0  0  0  0  0  0
  -22.2512  -13.0394   22.1390 N   0  0  0  0  0  0  0  0  0  0  0  0
  -28.3123  -12.2953   19.7419 N   0  0  0  0  0  0  0  0  0  0  0  0
  -29.7449  -13.3389   16.5913 N   0  3  0  0  0  0  0  0  0  0  0  0
  -25.9462  -28.0277   17.0300 O   0  0  0  0  0  0  0  0  0  0  0  0
  -23.9791  -14.4982   22.6948 O   0  0  0  0  0  0  0  0  0  0  0  0
  -25.6771  -11.4476   20.4806 O   0  0  0  0  0  0  0  0  0  0  0  0
  -29.1758  -14.3641   19.1489 O   0  0  0  0  0  0  0  0  0  0  0  0
  -22.4707  -27.1654   24.2213 O   0  0  0  0  0  0  0  0  0  0  0  0
  -30.3845  -24.4364   22.3206 O   0  0  0  0  0  0  0  0  0  0  0  0
  -25.3629  -19.9211   20.1525 O   0  0  0  0  0  0  0  0  0  1  0  0
  -30.3259  -19.3872   20.1055 F   0  0  0  0  0  0  0  0  0  0  0  0
  -30.1065  -22.1927   23.9116 F   0  0  0  0  0  0  0  0  0  0  0  0
  1  2  1  0  0  0  0
  1  5  2  0  0  0  0
  2  6  2  0  0  0  0
  3  8  2  0  0  0  0
  3 17  1  0  0  0  0
  4  9  1  0  0  0  0
  4 17  2  0  0  0  0
  5 19  1  0  0  0  0
  6 21  1  0  0  0  0
  7 10  2  0  0  0  0
  7 20  1  0  0  0  0
  8 25  1  0  0  0  0
  9 25  2  0  0  0  0
 10 26  1  0  0  0  0
 11 12  2  0  0  0  0
 11 27  1  0  0  0  0
 12 28  1  0  0  0  0
 13 22  1  0  0  0  0
 13 26  2  0  0  0  0
 14 23  2  0  0  0  0
 14 24  1  0  0  0  0
 15 28  2  0  0  0  0
 15 29  1  0  0  0  0
 16 23  1  0  0  0  0
 16 66  2  0  0  0  0
 17 30  1  0  0  0  0
 18 30  1  0  0  0  0
 18 32  2  0  0  0  0
 18 33  1  0  0  0  0
 19 21  2  0  0  0  0
 19 38  1  0  0  0  0
 20 22  2  0  0  0  0
 20 39  1  0  0  0  0
 21 50  1  0  0  0  0
 22 40  1  0  0  0  0
 23 60  1  0  0  0  0
 24 31  2  0  0  0  0
 24 74  1  0  0  0  0
 25 83  1  0  0  0  0
 26 84  1  0  0  0  0
 27 29  2  0  0  0  0
 27 83  1  0  0  0  0
 28 85  1  0  0  0  0
 29 86  1  0  0  0  0
 30 67  2  0  0  0  0
 31 54  1  0  0  0  0
 31 66  1  0  0  0  0
 32 68  1  0  0  0  0
 32 72  1  0  0  0  0
 33 73  1  0  0  0  0
 33 78  2  0  0  0  0
 34 51  1  0  0  0  0
 34 75  1  0  0  0  0
 34 79  2  0  0  0  0
 35 63  1  0  0  0  0
 35 69  1  0  0  0  0
 35 80  2  0  0  0  0
 36 64  1  0  0  0  0
 36 76  1  0  0  0  0
 36 81  2  0  0  0  0
 37 70  1  0  0  0  0
 37 71  1  0  0  0  0
 37 82  2  0  0  0  0
 38 41  1  0  0  0  0
 39 51  1  0  0  0  0
 40 69  1  0  0  0  0
 41 44  1  0  0  0  0
 42 45  1  0  0  0  0
 42 47  1  0  0  0  0
 43 46  1  0  0  0  0
 43 48  1  0  0  0  0
 44 50  1  0  0  0  0
 45 52  1  0  0  0  0
 46 53  1  0  0  0  0
 47 70  1  0  0  0  0
 48 71  1  0  0  0  0
 49 52  1  0  0  0  0
 49 70  1  0  0  0  0
 50 75  1  0  0  0  0
 51 69  1  0  0  0  0
 52 68  1  0  0  0  0
 53 61  1  0  0  0  0
 53 71  1  0  0  0  0
 55 64  1  0  0  0  0
 56 65  1  0  0  0  0
 57 65  1  0  0  0  0
 58 65  1  0  0  0  0
 59 77  1  0  0  0  0
 60 62  1  0  0  0  0
 61 74  1  0  0  0  0
 62 84  1  0  0  0  0
 63 65  1  0  0  0  0
 63 76  1  0  0  0  0
 64 77  1  0  0  0  0
 67 68  1  0  0  0  0
M  CHG  1  77   1
M  ISO  4  37 100  62 101  71 100  84 101
M  END
> <Batch ID>
0128

> <Smiles>
CNC(C)C(=O)NC(C(=O)N1Cc2cc([101O:1][101CH2:1]Cc3cnc(C)c(NCC4CCC[100N:0]4[100C:0](=O)N4CCCC(n5nc(-c6ccc(Oc7ccc(F)cc7F)cc6)c(C(N)=O)c5N)C4)c3)ccc2CC1C(=O)NC1CCCc2ccccc21)C(C)(C)C

> <Shape>
0.240

> <Color>
0.059

> <Negative vol penalty>
0.000

$$$$

  -OEChem-04052320423D

 87 96  0     1  0  0  0  0  0999 V2000
  -12.9785  -24.7504   17.7448 C   0  0  0  0  0  0  0  0  0  0  0  0
  -14.2180  -24.4064   18.2748 C   0  0  0  0  0  0  0  0  0  0  0  0
  -23.0742   -9.8696   19.9413 C   0  0  0  0  0  0  0  0  0  0  0  0
  -23.8384   -9.8750   22.2333 C   0  0  0  0  0  0  0  0  0  0  0  0
  -11.9692  -25.2208   18.5838 C   0  0  0  0  0  0  0  0  0  0  0  0
  -14.4492  -24.5338   19.6440 C   0  0  0  0  0  0  0  0  0  0  0  0
  -24.3969  -18.8674   20.9753 C   0  0  0  0  0  0  0  0  0  0  0  0
  -16.8173  -20.5063   21.5973 C   0  0  0  0  0  0  0  0  0  0  0  0
  -23.0031  -18.9185   20.9971 C   0  0  0  0  0  0  0  0  0  0  0  0
  -22.3313   -8.7159   20.1917 C   0  0  0  0  0  0  0  0  0  0  0  0
  -23.0954   -8.7214   22.4837 C   0  0  0  0  0  0  0  0  0  0  0  0
  -18.1913  -20.4090   21.3816 C   0  0  0  0  0  0  0  0  0  0  0  0
  -19.8687   -7.9217   23.0916 C   0  0  0  0  0  0  0  0  0  0  0  0
  -19.1139   -7.8805   24.2638 C   0  0  0  0  0  0  0  0  0  0  0  0
  -18.5941  -21.2597   23.6027 C   0  0  0  0  0  0  0  0  0  0  0  0
  -23.0874  -21.3202   20.7478 C   0  0  0  0  0  0  0  0  0  0  0  0
  -20.3575   -5.9430   24.9964 C   0  0  0  0  0  0  0  0  0  0  0  0
  -23.8278  -10.4491   20.9621 C   0  0  0  0  0  0  0  0  0  0  0  0
  -24.1684  -12.9745   20.8435 C   0  0  0  0  0  0  0  0  0  0  0  0
  -12.1850  -25.3449   19.9653 C   0  0  0  0  0  0  0  0  0  0  0  0
  -16.3207  -20.9921   22.8153 C   0  0  0  0  0  0  0  0  0  0  0  0
  -13.4423  -25.0077   20.5020 C   0  0  0  0  0  0  0  0  0  0  0  0
  -25.1359  -20.0426   20.8399 C   0  0  0  0  0  0  0  0  0  0  0  0
  -17.2134  -21.3598   23.8323 C   0  0  0  0  0  0  0  0  0  0  0  0
  -22.3484  -20.1449   20.8833 C   0  0  0  0  0  0  0  0  0  0  0  0
  -24.4812  -21.2690   20.7261 C   0  0  0  0  0  0  0  0  0  0  0  0
  -22.3419   -8.1418   21.4629 C   0  0  0  0  0  0  0  0  0  0  0  0
  -19.0799  -20.7884   22.3833 C   0  0  0  0  0  0  0  0  0  0  0  0
  -20.8679   -6.9735   22.8717 C   0  0  0  0  0  0  0  0  0  0  0  0
  -19.3584   -6.8912   25.2163 C   0  0  0  0  0  0  0  0  0  0  0  0
  -21.1123   -5.9842   23.8241 C   0  0  0  0  0  0  0  0  0  0  0  0
  -24.5959  -11.6405   20.7039 C   0  0  0  0  0  0  0  0  0  0  0  0
  -25.2595  -13.7247   20.4788 C   0  0  0  0  0  0  0  0  0  0  0  0
  -22.8984  -13.4895   21.2651 C   0  0  0  0  0  0  0  0  0  0  0  0
  -14.5532  -23.4880   23.6815 C   0  0  0  0  0  0  0  0  0  0  0  0
  -14.6583  -22.0581   26.5913 C   0  0  0  0  0  0  0  0  0  0  0  0
  -16.2743  -19.9356   28.7198 C   0  0  0  0  0  0  0  0  0  0  0  0
  -30.7432  -14.7460   20.6578 C   0  0  0  0  0  0  0  0  0  0  0  0
  -11.0790  -25.9028   20.8257 C   0  0  0  0  0  0  0  0  0  0  0  0
  -14.8356  -21.0657   23.0421 C   0  0  0  0  0  0  0  0  0  0  0  0
  -16.7309  -21.8685   25.1653 C   0  0  0  0  0  0  0  0  0  0  0  0
  -11.2834  -25.6537   22.3178 C   0  0  0  0  0  0  0  0  0  0  0  0
  -29.6022  -12.3629   18.2713 C   0  0  0  0  0  0  0  0  0  0  0  0
  -12.7135  -25.9944   22.7249 C   0  0  0  0  0  0  0  0  0  0  0  0
  -28.1657  -12.0682   18.7066 C   0  0  0  0  0  0  0  0  0  0  0  0
  -27.1482  -19.3736   22.1400 C   0  0  0  0  0  0  0  0  0  0  0  0
  -27.0990  -19.1145   19.6266 C   0  0  0  0  0  0  0  0  0  0  0  0
  -30.5214  -12.5831   19.4706 C   0  0  0  0  0  0  0  0  0  0  0  0
  -28.6219  -13.3123   20.8613 C   0  0  0  0  0  0  0  0  0  0  0  0
  -28.6617  -19.2021   22.1183 C   0  0  0  0  0  0  0  0  0  0  0  0
  -28.6129  -18.9454   19.6241 C   0  0  0  0  0  0  0  0  0  0  0  0
  -26.6272  -19.9631   20.8189 C   0  0  0  0  0  0  0  0  0  0  0  0
  -13.7235  -25.1085   21.9856 C   0  0  1  0  0  0  0  0  0  0  0  0
  -14.4462  -22.0588   24.1327 C   0  0  1  0  0  0  0  0  0  0  0  0
  -27.6457  -13.1382   19.6853 C   0  0  2  0  0  0  0  0  0  0  0  0
  -25.2514  -22.5404   20.5806 C   0  0  0  0  0  0  0  0  0  0  0  0
  -16.1412  -18.9969   31.0432 C   0  0  0  0  0  0  0  0  0  0  0  0
  -15.6758  -24.7054   27.7166 C   0  0  0  0  0  0  0  0  0  0  0  0
  -16.4124  -23.4710   29.7664 C   0  0  0  0  0  0  0  0  0  0  0  0
  -13.9951  -23.5380   29.1542 C   0  0  0  0  0  0  0  0  0  0  0  0
  -16.0339  -17.1637   27.7110 C   0  0  0  0  0  0  0  0  0  0  0  0
  -20.8492  -20.1999   20.9070 C   0  0  0  0  0  0  0  0  0  1  0  0
  -30.8104  -16.8956   21.8963 C   0  0  0  0  0  0  0  0  0  0  0  0
  -30.5261  -18.0393   20.9407 C   0  0  0  0  0  0  0  0  0  0  0  0
  -15.5822  -22.1261   27.7832 C   0  0  1  0  0  0  0  0  0  0  0  0
  -15.7662  -18.7951   29.5833 C   0  0  2  0  0  0  0  0  0  0  0  0
  -15.4258  -23.4524   28.5794 C   0  0  0  0  0  0  0  0  0  0  0  0
  -25.8600  -11.5456   20.2832 N   0  0  0  0  0  0  0  0  0  0  0  0
  -26.2362  -12.8294   20.1552 N   0  0  0  0  0  0  0  0  0  0  0  0
  -15.2699  -21.9282   25.3363 N   0  0  0  0  0  0  0  0  0  0  0  0
  -29.9721  -13.6107   20.3584 N   0  0  0  0  0  0  0  0  0  0  0  0
  -25.4692  -15.0564   20.4064 N   0  0  0  0  0  0  0  0  0  0  0  0
  -21.8875  -12.5796   21.6036 N   0  0  0  0  0  0  0  0  0  0  0  0
  -13.7722  -23.7911   22.5826 N   0  0  0  0  0  0  0  0  0  0  0  0
  -15.3247  -20.9239   28.5685 N   0  0  0  0  0  0  0  0  0  0  0  0
  -30.1452  -15.6739   21.5017 N   0  0  0  0  0  0  0  0  0  0  0  0
  -29.0536  -18.3460   20.9380 N   0  3  0  0  0  0  0  0  0  0  0  0
  -16.3444  -17.5005   29.1242 N   0  3  0  0  0  0  0  0  0  0  0  0
  -22.6618  -14.7199   21.3239 O   0  0  0  0  0  0  0  0  0  0  0  0
  -15.2888  -24.2591   24.2866 O   0  0  0  0  0  0  0  0  0  0  0  0
  -13.4386  -22.1109   26.7679 O   0  0  0  0  0  0  0  0  0  0  0  0
  -17.4021  -19.9502   28.2316 O   0  0  0  0  0  0  0  0  0  0  0  0
  -31.8782  -14.9223   20.2023 O   0  0  0  0  0  0  0  0  0  0  0  0
  -21.6168   -7.0162   21.7077 O   0  0  0  0  0  0  0  0  0  0  0  0
  -20.4215  -20.6951   22.1752 O   0  0  0  0  0  0  0  0  0  1  0  0
  -18.6345   -6.8527   26.3427 F   0  0  0  0  0  0  0  0  0  0  0  0
  -22.0716   -5.0713   23.6190 F   0  0  0  0  0  0  0  0  0  0  0  0
  1  2  1  0  0  0  0
  1  5  2  0  0  0  0
  2  6  2  0  0  0  0
  3 10  2  0  0  0  0
  3 18  1  0  0  0  0
  4 11  1  0  0  0  0
  4 18  2  0  0  0  0
  5 20  1  0  0  0  0
  6 22  1  0  0  0  0
  7  9  2  0  0  0  0
  7 23  1  0  0  0  0
  8 12  2  0  0  0  0
  8 21  1  0  0  0  0
  9 25  1  0  0  0  0
 10 27  1  0  0  0  0
 11 27  2  0  0  0  0
 12 28  1  0  0  0  0
 13 14  2  0  0  0  0
 13 29  1  0  0  0  0
 14 30  1  0  0  0  0
 15 24  1  0  0  0  0
 15 28  2  0  0  0  0
 16 25  2  0  0  0  0
 16 26  1  0  0  0  0
 17 30  2  0  0  0  0
 17 31  1  0  0  0  0
 18 32  1  0  0  0  0
 19 32  1  0  0  0  0
 19 33  2  0  0  0  0
 19 34  1  0  0  0  0
 20 22  2  0  0  0  0
 20 39  1  0  0  0  0
 21 24  2  0  0  0  0
 21 40  1  0  0  0  0
 22 53  1  0  0  0  0
 23 26  2  0  0  0  0
 23 52  1  0  0  0  0
 24 41  1  0  0  0  0
 25 62  1  0  0  0  0
 26 56  1  0  0  0  0
 27 84  1  0  0  0  0
 28 85  1  0  0  0  0
 29 31  2  0  0  0  0
 29 84  1  0  0  0  0
 30 86  1  0  0  0  0
 31 87  1  0  0  0  0
 32 68  2  0  0  0  0
 33 69  1  0  0  0  0
 33 72  1  0  0  0  0
 34 73  1  0  0  0  0
 34 79  2  0  0  0  0
 35 54  1  0  0  0  0
 35 74  1  0  0  0  0
 35 80  2  0  0  0  0
 36 65  1  0  0  0  0
 36 70  1  0  0  0  0
 36 81  2  0  0  0  0
 37 66  1  0  0  0  0
 37 75  1  0  0  0  0
 37 82  2  0  0  0  0
 38 71  1  0  0  0  0
 38 76  1  0  0  0  0
 38 83  2  0  0  0  0
 39 42  1  0  0  0  0
 40 54  1  0  0  0  0
 41 70  1  0  0  0  0
 42 44  1  0  0  0  0
 43 45  1  0  0  0  0
 43 48  1  0  0  0  0
 44 53  1  0  0  0  0
 45 55  1  0  0  0  0
 46 50  1  0  0  0  0
 46 52  1  0  0  0  0
 47 51  1  0  0  0  0
 47 52  1  0  0  0  0
 48 71  1  0  0  0  0
 49 55  1  0  0  0  0
 49 71  1  0  0  0  0
 50 77  1  0  0  0  0
 51 77  1  0  0  0  0
 53 74  1  0  0  0  0
 54 70  1  0  0  0  0
 55 69  1  0  0  0  0
 57 66  1  0  0  0  0
 58 67  1  0  0  0  0
 59 67  1  0  0  0  0
 60 67  1  0  0  0  0
 61 78  1  0  0  0  0
 62 85  1  0  0  0  0
 63 64  1  0  0  0  0
 63 76  1  0  0  0  0
 64 77  1  0  0  0  0
 65 67  1  0  0  0  0
 65 75  1  0  0  0  0
 66 78  1  0  0  0  0
 68 69  1  0  0  0  0
M  CHG  2  77   1  78   1
M  ISO  4  38 100  62 101  76 100  85 101
M  END
> <Batch ID>
0128

> <Smiles>
CNC(C)C(=O)NC(C(=O)N1Cc2cc([101O:1][101CH2:1]c3ccc(C4CCN(CC[100NH:0][100C:0](=O)N5CCCC(n6nc(-c7ccc(Oc8ccc(F)cc8F)cc7)c(C(N)=O)c6N)C5)CC4)c(C)c3)ccc2CC1C(=O)NC1CCCc2ccccc21)C(C)(C)C

> <Shape>
0.186

> <Color>
0.187

> <Negative vol penalty>
0.000

$$$$

  -OEChem-04052320423D

 88 97  0     1  0  0  0  0  0999 V2000
  -17.3255  -25.4934   24.3672 C   0  0  0  0  0  0  0  0  0  0  0  0
  -18.5836  -25.2233   23.8384 C   0  0  0  0  0  0  0  0  0  0  0  0
  -26.8113  -13.1497   22.7363 C   0  0  0  0  0  0  0  0  0  0  0  0
  -26.1889  -12.9721   20.4086 C   0  0  0  0  0  0  0  0  0  0  0  0
  -16.8077  -26.7865   24.3057 C   0  0  0  0  0  0  0  0  0  0  0  0
  -19.3242  -26.2460   23.2469 C   0  0  0  0  0  0  0  0  0  0  0  0
  -24.1791  -26.2120   24.6872 C   0  0  0  0  0  0  0  0  0  0  0  0
  -25.6690  -12.4347   23.0963 C   0  0  0  0  0  0  0  0  0  0  0  0
  -25.0466  -12.2571   20.7686 C   0  0  0  0  0  0  0  0  0  0  0  0
  -25.0144  -25.2702   24.0880 C   0  0  0  0  0  0  0  0  0  0  0  0
  -22.1533  -10.0734   21.0481 C   0  0  0  0  0  0  0  0  0  0  0  0
  -21.8437   -8.9303   20.3112 C   0  0  0  0  0  0  0  0  0  0  0  0
  -25.8529  -26.9713   22.5973 C   0  0  0  0  0  0  0  0  0  0  0  0
  -23.9606   -7.9509   20.9411 C   0  0  0  0  0  0  0  0  0  0  0  0
  -27.0713  -13.4184   21.3924 C   0  0  0  0  0  0  0  0  0  0  0  0
  -29.5225  -13.6337   20.7197 C   0  0  0  0  0  0  0  0  0  0  0  0
  -17.5464  -27.8275   23.7217 C   0  0  0  0  0  0  0  0  0  0  0  0
  -24.1664  -27.5403   24.2379 C   0  0  0  0  0  0  0  0  0  0  0  0
  -18.8153  -27.5539   23.1763 C   0  0  0  0  0  0  0  0  0  0  0  0
  -25.0184  -27.9286   23.1941 C   0  0  0  0  0  0  0  0  0  0  0  0
  -24.7867  -11.9884   22.1124 C   0  0  0  0  0  0  0  0  0  0  0  0
  -25.8494  -25.6492   23.0410 C   0  0  0  0  0  0  0  0  0  0  0  0
  -23.3666  -10.1553   21.7315 C   0  0  0  0  0  0  0  0  0  0  0  0
  -22.7473   -7.8690   20.2577 C   0  0  0  0  0  0  0  0  0  0  0  0
  -24.2702   -9.0940   21.6781 C   0  0  0  0  0  0  0  0  0  0  0  0
  -28.2508  -14.1574   21.0199 C   0  0  0  0  0  0  0  0  0  0  0  0
  -30.2883  -14.7364   20.4299 C   0  0  0  0  0  0  0  0  0  0  0  0
  -29.9715  -12.2721   20.7040 C   0  0  0  0  0  0  0  0  0  0  0  0
  -21.9773  -29.4522   22.9509 C   0  0  0  0  0  0  0  0  0  0  0  0
  -24.3084  -31.6862   23.2637 C   0  0  0  0  0  0  0  0  0  0  0  0
  -27.6390  -32.3801   23.5323 C   0  0  0  0  0  0  0  0  0  0  0  0
  -29.1426  -20.1321   18.4288 C   0  0  0  0  0  0  0  0  0  0  0  0
  -16.9252  -29.1992   23.6361 C   0  0  0  0  0  0  0  0  0  0  0  0
  -23.2790  -28.5502   24.9126 C   0  0  0  0  0  0  0  0  0  0  0  0
  -25.0573  -29.3467   22.6882 C   0  0  0  0  0  0  0  0  0  0  0  0
  -17.9311  -30.3053   23.3278 C   0  0  0  0  0  0  0  0  0  0  0  0
  -30.6954  -19.3914   21.4247 C   0  0  0  0  0  0  0  0  0  0  0  0
  -27.6490  -19.4416   14.9887 C   0  0  0  0  0  0  0  0  0  0  0  0
  -18.8471  -29.8894   22.1812 C   0  0  0  0  0  0  0  0  0  0  0  0
  -27.6836  -23.7673   18.9611 C   0  0  0  0  0  0  0  0  0  0  0  0
  -25.3060  -23.0155   19.3827 C   0  0  0  0  0  0  0  0  0  0  0  0
  -30.3768  -17.9129   21.6440 C   0  0  0  0  0  0  0  0  0  0  0  0
  -27.8253  -24.1336   20.4354 C   0  0  0  0  0  0  0  0  0  0  0  0
  -25.4541  -23.3845   20.8558 C   0  0  0  0  0  0  0  0  0  0  0  0
  -26.5788  -20.4676   14.6188 C   0  0  0  0  0  0  0  0  0  0  0  0
  -29.4815  -20.1353   20.8801 C   0  0  0  0  0  0  0  0  0  0  0  0
  -28.6189  -19.9394   16.0511 C   0  0  0  0  0  0  0  0  0  0  0  0
  -26.7230  -19.8490   17.7373 C   0  0  0  0  0  0  0  0  0  0  0  0
  -28.6157  -18.0770   19.8151 C   0  0  0  0  0  0  0  0  0  0  0  0
  -19.6595  -28.6418   22.5487 C   0  0  1  0  0  0  0  0  0  0  0  0
  -22.9733  -29.7589   24.0334 C   0  0  1  0  0  0  0  0  0  0  0  0
  -26.6565  -22.6455   18.7537 C   0  0  0  0  0  0  0  0  0  0  0  0
  -25.8574  -20.9461   17.0758 C   0  0  2  0  0  0  0  0  0  0  0  0
  -29.8128  -17.2737   20.3628 C   0  0  2  0  0  0  0  0  0  0  0  0
  -26.4801  -24.4975   21.0581 C   0  0  0  0  0  0  0  0  0  1  0  0
  -25.4042  -20.6339   15.6102 C   0  0  0  0  0  0  0  0  0  0  0  0
  -23.3511  -22.0117   15.9779 C   0  0  0  0  0  0  0  0  0  0  0  0
  -23.9674  -19.1289   14.2248 C   0  0  0  0  0  0  0  0  0  0  0  0
  -29.2409  -34.3011   23.7352 C   0  0  0  0  0  0  0  0  0  0  0  0
  -23.9458  -32.2989   20.2967 C   0  0  0  0  0  0  0  0  0  0  0  0
  -26.1480  -33.4890   20.3447 C   0  0  0  0  0  0  0  0  0  0  0  0
  -24.2565  -34.3123   21.7473 C   0  0  0  0  0  0  0  0  0  0  0  0
  -28.6315  -31.4267   26.1524 C   0  0  0  0  0  0  0  0  0  0  0  0
  -26.4917  -22.3333   17.2675 C   0  0  0  0  0  0  0  0  0  0  0  0
  -24.5109  -21.7841   15.0786 C   0  0  0  0  0  0  0  0  0  0  0  0
  -24.5199  -19.3619   15.5838 C   0  0  0  0  0  0  0  0  0  0  0  0
  -25.4429  -32.1761   22.3966 C   0  0  1  0  0  0  0  0  0  0  0  0
  -28.4076  -33.2752   24.4875 C   0  0  2  0  0  0  0  0  0  0  0  0
  -24.9464  -33.0419   21.2043 C   0  0  0  0  0  0  0  0  0  0  0  0
  -28.2071  -15.4893   20.9295 N   0  0  0  0  0  0  0  0  0  0  0  0
  -29.4610  -15.8118   20.5692 N   0  0  0  0  0  0  0  0  0  0  0  0
  -24.1665  -30.2959   23.3760 N   0  0  0  0  0  0  0  0  0  0  0  0
  -28.1640  -19.8925   17.4395 N   0  0  0  0  0  0  0  0  0  0  0  0
  -28.9706  -19.4969   19.6673 N   0  0  0  0  0  0  0  0  0  0  0  0
  -31.5819  -14.8815   20.0722 N   0  0  0  0  0  0  0  0  0  0  0  0
  -29.0546  -11.2625   21.0269 N   0  0  0  0  0  0  0  0  0  0  0  0
  -20.7607  -28.9942   23.4192 N   0  0  0  0  0  0  0  0  0  0  0  0
  -26.3709  -32.8633   23.2883 N   0  0  0  0  0  0  0  0  0  0  0  0
  -29.3207  -32.4611   25.3388 N   0  3  0  0  0  0  0  0  0  0  0  0
  -31.1550  -11.9612   20.4282 O   0  0  0  0  0  0  0  0  0  0  0  0
  -22.2891  -29.6202   21.7778 O   0  0  0  0  0  0  0  0  0  0  0  0
  -23.5794  -32.5069   23.8265 O   0  0  0  0  0  0  0  0  0  0  0  0
  -28.1172  -31.3568   23.0478 O   0  0  0  0  0  0  0  0  0  0  0  0
  -30.1133  -20.8682   18.2097 O   0  0  0  0  0  0  0  0  0  0  0  0
  -23.6721  -11.2905   22.4634 O   0  0  0  0  0  0  0  0  0  0  0  0
  -26.6706  -24.7258   22.4501 O   0  0  0  0  0  0  0  0  0  1  0  0
  -22.4492   -6.7707   19.5513 F   0  0  0  0  0  0  0  0  0  0  0  0
  -25.4368   -9.1664   22.3335 F   0  0  0  0  0  0  0  0  0  0  0  0
  1  2  1  0  0  0  0
  1  5  2  0  0  0  0
  2  6  2  0  0  0  0
  3  8  2  0  0  0  0
  3 15  1  0  0  0  0
  4  9  1  0  0  0  0
  4 15  2  0  0  0  0
  5 17  1  0  0  0  0
  6 19  1  0  0  0  0
  7 10  2  0  0  0  0
  7 18  1  0  0  0  0
  8 21  1  0  0  0  0
  9 21  2  0  0  0  0
 10 22  1  0  0  0  0
 11 12  2  0  0  0  0
 11 23  1  0  0  0  0
 12 24  1  0  0  0  0
 13 20  1  0  0  0  0
 13 22  2  0  0  0  0
 14 24  2  0  0  0  0
 14 25  1  0  0  0  0
 15 26  1  0  0  0  0
 16 26  1  0  0  0  0
 16 27  2  0  0  0  0
 16 28  1  0  0  0  0
 17 19  2  0  0  0  0
 17 33  1  0  0  0  0
 18 20  2  0  0  0  0
 18 34  1  0  0  0  0
 19 50  1  0  0  0  0
 20 35  1  0  0  0  0
 21 85  1  0  0  0  0
 22 86  1  0  0  0  0
 23 25  2  0  0  0  0
 23 85  1  0  0  0  0
 24 87  1  0  0  0  0
 25 88  1  0  0  0  0
 26 70  2  0  0  0  0
 27 71  1  0  0  0  0
 27 75  1  0  0  0  0
 28 76  1  0  0  0  0
 28 80  2  0  0  0  0
 29 51  1  0  0  0  0
 29 77  1  0  0  0  0
 29 81  2  0  0  0  0
 30 67  1  0  0  0  0
 30 72  1  0  0  0  0
 30 82  2  0  0  0  0
 31 68  1  0  0  0  0
 31 78  1  0  0  0  0
 31 83  2  0  0  0  0
 32 73  1  0  0  0  0
 32 74  1  0  0  0  0
 32 84  2  0  0  0  0
 33 36  1  0  0  0  0
 34 51  1  0  0  0  0
 35 72  1  0  0  0  0
 36 39  1  0  0  0  0
 37 42  1  0  0  0  0
 37 46  1  0  0  0  0
 38 45  1  0  0  0  0
 38 47  1  0  0  0  0
 39 50  1  0  0  0  0
 40 43  1  0  0  0  0
 40 52  1  0  0  0  0
 41 44  1  0  0  0  0
 41 52  1  0  0  0  0
 42 54  1  0  0  0  0
 43 55  1  0  0  0  0
 44 55  1  0  0  0  0
 45 56  1  0  0  0  0
 46 74  1  0  0  0  0
 47 73  1  0  0  0  0
 48 53  1  0  0  0  0
 48 73  1  0  0  0  0
 49 54  1  0  0  0  0
 49 74  1  0  0  0  0
 50 77  1  0  0  0  0
 51 72  1  0  0  0  0
 52 64  1  0  0  0  0
 53 56  1  0  0  0  0
 53 64  1  0  0  0  0
 54 71  1  0  0  0  0
 55 86  1  0  0  0  0
 56 65  1  0  0  0  0
 56 66  1  0  0  0  0
 57 65  1  0  0  0  0
 58 66  1  0  0  0  0
 59 68  1  0  0  0  0
 60 69  1  0  0  0  0
 61 69  1  0  0  0  0
 62 69  1  0  0  0  0
 63 79  1  0  0  0  0
 67 69  1  0  0  0  0
 67 78  1  0  0  0  0
 68 79  1  0  0  0  0
 70 71  1  0  0  0  0
M  CHG  1  79   1
M  ISO  4  32 100  55 101  73 100  86 101
M  END
> <Batch ID>
0128

> <Smiles>
CCC1(CC)CCC[100N:0]([100C:0](=O)N2CCCC(n3nc(-c4ccc(Oc5ccc(F)cc5F)cc4)c(C(N)=O)c3N)C2)CC1CC1CC[101CH:1]([101O:1]c2ccc3c(c2)CN(C(=O)C(NC(=O)C(C)NC)C(C)(C)C)C(C(=O)NC2CCCc4ccccc42)C3)CC1

> <Shape>
0.256

> <Color>
0.073

> <Negative vol penalty>
0.000

$$$$

  -OEChem-04052320423D

 85 94  0     1  0  0  0  0  0999 V2000
  -30.7247  -32.6997   24.6156 C   0  0  0  0  0  0  0  0  0  0  0  0
  -30.9880  -31.5306   23.9090 C   0  0  0  0  0  0  0  0  0  0  0  0
  -24.9029  -17.2062   21.9930 C   0  0  0  0  0  0  0  0  0  0  0  0
  -24.4166  -17.2215   19.6264 C   0  0  0  0  0  0  0  0  0  0  0  0
  -29.4704  -32.8973   25.1915 C   0  0  0  0  0  0  0  0  0  0  0  0
  -29.9974  -30.5578   23.7788 C   0  0  0  0  0  0  0  0  0  0  0  0
  -29.0313  -26.9100   18.9554 C   0  0  0  0  0  0  0  0  0  0  0  0
  -29.6147  -16.7930   21.6105 C   0  0  0  0  0  0  0  0  0  0  0  0
  -24.4697  -18.5285   22.0905 C   0  0  0  0  0  0  0  0  0  0  0  0
  -23.9834  -18.5438   19.7240 C   0  0  0  0  0  0  0  0  0  0  0  0
  -29.3948  -25.5905   18.6895 C   0  0  0  0  0  0  0  0  0  0  0  0
  -21.2173  -20.1870   20.7579 C   0  0  0  0  0  0  0  0  0  0  0  0
  -20.0282  -20.5270   20.1129 C   0  0  0  0  0  0  0  0  0  0  0  0
  -28.8388  -17.9281   21.4039 C   0  0  0  0  0  0  0  0  0  0  0  0
  -27.2318  -24.8465   19.4555 C   0  0  0  0  0  0  0  0  0  0  0  0
  -21.2187  -22.1464   18.7722 C   0  0  0  0  0  0  0  0  0  0  0  0
  -24.8764  -16.5527   20.7609 C   0  0  0  0  0  0  0  0  0  0  0  0
  -24.5463  -14.0236   20.8115 C   0  0  0  0  0  0  0  0  0  0  0  0
  -28.4608  -31.9307   25.0601 C   0  0  0  0  0  0  0  0  0  0  0  0
  -27.7671  -27.2071   19.4845 C   0  0  0  0  0  0  0  0  0  0  0  0
  -28.7289  -30.7421   24.3546 C   0  0  0  0  0  0  0  0  0  0  0  0
  -30.8853  -16.7149   21.0512 C   0  0  0  0  0  0  0  0  0  0  0  0
  -26.8537  -26.1707   19.7248 C   0  0  0  0  0  0  0  0  0  0  0  0
  -24.0099  -19.1973   20.9561 C   0  0  0  0  0  0  0  0  0  0  0  0
  -28.4961  -24.5583   18.9423 C   0  0  0  0  0  0  0  0  0  0  0  0
  -22.4071  -20.8267   20.4102 C   0  0  0  0  0  0  0  0  0  0  0  0
  -20.0289  -21.5067   19.1200 C   0  0  0  0  0  0  0  0  0  0  0  0
  -22.4077  -21.8064   19.4173 C   0  0  0  0  0  0  0  0  0  0  0  0
  -25.3243  -15.1870   20.6594 C   0  0  0  0  0  0  0  0  0  0  0  0
  -31.3302  -17.7905   20.2995 C   0  0  0  0  0  0  0  0  0  0  0  0
  -29.3753  -18.9494   20.6366 C   0  0  0  0  0  0  0  0  0  0  0  0
  -25.4320  -12.9911   20.6221 C   0  0  0  0  0  0  0  0  0  0  0  0
  -23.1481  -13.8885   21.0984 C   0  0  0  0  0  0  0  0  0  0  0  0
  -26.7171  -28.5425   22.1711 C   0  0  0  0  0  0  0  0  0  0  0  0
  -23.8342  -28.3047   20.7034 C   0  0  0  0  0  0  0  0  0  0  0  0
  -21.8912  -26.7483   18.3690 C   0  0  0  0  0  0  0  0  0  0  0  0
  -31.3039  -12.4666   21.2748 C   0  0  0  0  0  0  0  0  0  0  0  0
  -27.1358  -32.1679   25.7403 C   0  0  0  0  0  0  0  0  0  0  0  0
  -27.3804  -28.6379   19.7407 C   0  0  0  0  0  0  0  0  0  0  0  0
  -25.4768  -26.4385   20.2734 C   0  0  0  0  0  0  0  0  0  0  0  0
  -26.0210  -31.2542   25.2377 C   0  0  0  0  0  0  0  0  0  0  0  0
  -29.4800  -11.8850   18.3494 C   0  0  0  0  0  0  0  0  0  0  0  0
  -26.5083  -29.8108   25.1594 C   0  0  0  0  0  0  0  0  0  0  0  0
  -28.1360  -12.5632   18.6066 C   0  0  0  0  0  0  0  0  0  0  0  0
  -32.7321  -15.4970   22.3850 C   0  0  0  0  0  0  0  0  0  0  0  0
  -30.6251  -12.7196   18.9091 C   0  0  0  0  0  0  0  0  0  0  0  0
  -29.1553  -13.6775   20.6571 C   0  0  0  0  0  0  0  0  0  0  0  0
  -31.7224  -15.5018   21.2678 C   0  0  1  0  0  0  0  0  0  0  0  0
  -27.6723  -29.6745   24.1704 C   0  0  1  0  0  0  0  0  0  0  0  0
  -26.2551  -28.7792   20.7611 C   0  0  1  0  0  0  0  0  0  0  0  0
  -27.9588  -12.8779   20.1015 C   0  0  1  0  0  0  0  0  0  0  0  0
  -31.4908  -14.6631   22.5044 C   0  0  1  0  0  0  0  0  0  0  0  0
  -32.6865  -17.7636   19.6738 C   0  0  0  0  0  0  0  0  0  0  0  0
  -19.5658  -26.7468   17.4256 C   0  0  0  0  0  0  0  0  0  0  0  0
  -22.8296  -26.8466   23.1883 C   0  0  0  0  0  0  0  0  0  0  0  0
  -20.8703  -26.0543   21.8460 C   0  0  0  0  0  0  0  0  0  0  0  0
  -21.2163  -28.4958   22.2228 C   0  0  0  0  0  0  0  0  0  0  0  0
  -32.2130  -12.5684   23.5667 C   0  0  0  0  0  0  0  0  0  0  0  0
  -22.8643  -27.4430   15.6617 C   0  0  0  0  0  0  0  0  0  0  0  0
  -28.2606  -22.2590   19.5025 C   0  0  0  0  0  0  0  0  0  1  0  0
  -29.2267  -21.0967   19.6251 C   0  0  0  0  0  0  0  0  0  0  0  0
  -22.7498  -27.2563   20.6404 C   0  0  1  0  0  0  0  0  0  0  0  0
  -20.9761  -27.2996   17.2905 C   0  0  2  0  0  0  0  0  0  0  0  0
  -21.9431  -27.1577   21.9658 C   0  0  0  0  0  0  0  0  0  0  0  0
  -26.6057  -14.9193   20.3939 N   0  0  0  0  0  0  0  0  0  0  0  0
  -30.6053  -18.9097   20.0769 N   0  0  0  0  0  0  0  0  0  0  0  0
  -26.6396  -13.5759   20.3778 N   0  0  0  0  0  0  0  0  0  0  0  0
  -25.1480  -27.8534   20.5134 N   0  0  0  0  0  0  0  0  0  0  0  0
  -30.4267  -13.0160   20.3285 N   0  0  0  0  0  0  0  0  0  0  0  0
  -25.2877  -11.6490   20.6423 N   0  0  0  0  0  0  0  0  0  0  0  0
  -22.3844  -15.0520   21.2636 N   0  0  0  0  0  0  0  0  0  0  0  0
  -27.1816  -29.6769   22.8089 N   0  0  0  0  0  0  0  0  0  0  0  0
  -21.9397  -27.5767   19.4702 N   0  0  0  0  0  0  0  0  0  0  0  0
  -31.5489  -13.2139   22.4397 N   0  0  0  0  0  0  0  0  0  0  0  0
  -21.4937  -26.9419   15.9395 N   0  3  0  0  0  0  0  0  0  0  0  0
  -22.5957  -12.7690   21.2214 O   0  0  0  0  0  0  0  0  0  0  0  0
  -26.6554  -27.4144   22.6458 O   0  0  0  0  0  0  0  0  0  0  0  0
  -23.5262  -29.4818   20.9063 O   0  0  0  0  0  0  0  0  0  0  0  0
  -22.4991  -25.6870   18.2483 O   0  0  0  0  0  0  0  0  0  0  0  0
  -31.8585  -11.3764   21.0838 O   0  0  0  0  0  0  0  0  0  0  0  0
  -23.5869  -20.4875   21.0509 O   0  0  0  0  0  0  0  0  0  0  0  0
  -28.8486  -23.2695   18.6843 O   0  0  0  0  0  0  0  0  0  1  0  0
  -28.6302  -20.0784   20.4192 O   0  0  0  0  0  0  0  0  0  0  0  0
  -18.8872  -21.8320   18.4996 F   0  0  0  0  0  0  0  0  0  0  0  0
  -23.5478  -22.4236   19.0780 F   0  0  0  0  0  0  0  0  0  0  0  0
  1  2  1  0  0  0  0
  1  5  2  0  0  0  0
  2  6  2  0  0  0  0
  3  9  2  0  0  0  0
  3 17  1  0  0  0  0
  4 10  1  0  0  0  0
  4 17  2  0  0  0  0
  5 19  1  0  0  0  0
  6 21  1  0  0  0  0
  7 11  2  0  0  0  0
  7 20  1  0  0  0  0
  8 14  2  0  0  0  0
  8 22  1  0  0  0  0
  9 24  1  0  0  0  0
 10 24  2  0  0  0  0
 11 25  1  0  0  0  0
 12 13  2  0  0  0  0
 12 26  1  0  0  0  0
 13 27  1  0  0  0  0
 14 31  1  0  0  0  0
 15 23  1  0  0  0  0
 15 25  2  0  0  0  0
 16 27  2  0  0  0  0
 16 28  1  0  0  0  0
 17 29  1  0  0  0  0
 18 29  1  0  0  0  0
 18 32  2  0  0  0  0
 18 33  1  0  0  0  0
 19 21  2  0  0  0  0
 19 38  1  0  0  0  0
 20 23  2  0  0  0  0
 20 39  1  0  0  0  0
 21 49  1  0  0  0  0
 22 30  2  0  0  0  0
 22 48  1  0  0  0  0
 23 40  1  0  0  0  0
 24 81  1  0  0  0  0
 25 82  1  0  0  0  0
 26 28  2  0  0  0  0
 26 81  1  0  0  0  0
 27 84  1  0  0  0  0
 28 85  1  0  0  0  0
 29 65  2  0  0  0  0
 30 53  1  0  0  0  0
 30 66  1  0  0  0  0
 31 66  2  0  0  0  0
 31 83  1  0  0  0  0
 32 67  1  0  0  0  0
 32 70  1  0  0  0  0
 33 71  1  0  0  0  0
 33 76  2  0  0  0  0
 34 50  1  0  0  0  0
 34 72  1  0  0  0  0
 34 77  2  0  0  0  0
 35 62  1  0  0  0  0
 35 68  1  0  0  0  0
 35 78  2  0  0  0  0
 36 63  1  0  0  0  0
 36 73  1  0  0  0  0
 36 79  2  0  0  0  0
 37 69  1  0  0  0  0
 37 74  1  0  0  0  0
 37 80  2  0  0  0  0
 38 41  1  0  0  0  0
 39 50  1  0  0  0  0
 40 68  1  0  0  0  0
 41 43  1  0  0  0  0
 42 44  1  0  0  0  0
 42 46  1  0  0  0  0
 43 49  1  0  0  0  0
 44 51  1  0  0  0  0
 45 48  1  0  0  0  0
 45 52  1  0  0  0  0
 46 69  1  0  0  0  0
 47 51  1  0  0  0  0
 47 69  1  0  0  0  0
 48 52  1  0  0  0  0
 49 72  1  0  0  0  0
 50 68  1  0  0  0  0
 51 67  1  0  0  0  0
 52 74  1  0  0  0  0
 54 63  1  0  0  0  0
 55 64  1  0  0  0  0
 56 64  1  0  0  0  0
 57 64  1  0  0  0  0
 58 74  1  0  0  0  0
 59 75  1  0  0  0  0
 60 61  1  0  0  0  0
 60 82  1  0  0  0  0
 61 83  1  0  0  0  0
 62 64  1  0  0  0  0
 62 73  1  0  0  0  0
 63 75  1  0  0  0  0
 65 67  1  0  0  0  0
M  CHG  1  75   1
M  ISO  4  37 100  60 101  74 100  82 101
M  END
> <Batch ID>
0128

> <Smiles>
CNC(C)C(=O)NC(C(=O)N1Cc2cc([101O:1][101CH2:1]COc3ccc(C4CC4[100N:0](C)[100C:0](=O)N4CCCC(n5nc(-c6ccc(Oc7ccc(F)cc7F)cc6)c(C(N)=O)c5N)C4)c(C)n3)ccc2CC1C(=O)NC1CCCc2ccccc21)C(C)(C)C

> <Shape>
0.280

> <Color>
0.077

> <Negative vol penalty>
0.000

$$$$

  -OEChem-04052320423D

 90 99  0     1  0  0  0  0  0999 V2000
  -32.1290  -35.2500   19.6263 C   0  0  0  0  0  0  0  0  0  0  0  0
  -32.4038  -33.9077   19.8674 C   0  0  0  0  0  0  0  0  0  0  0  0
  -23.0814   -9.8927   19.9723 C   0  0  0  0  0  0  0  0  0  0  0  0
  -23.9712   -9.8887   22.2184 C   0  0  0  0  0  0  0  0  0  0  0  0
  -32.2375  -35.7613   18.3337 C   0  0  0  0  0  0  0  0  0  0  0  0
  -32.7863  -33.0756   18.8159 C   0  0  0  0  0  0  0  0  0  0  0  0
  -36.7073  -30.1044   20.0168 C   0  0  0  0  0  0  0  0  0  0  0  0
  -31.1709  -22.7305   20.5054 C   0  0  0  0  0  0  0  0  0  0  0  0
  -22.3772   -8.7210   20.2491 C   0  0  0  0  0  0  0  0  0  0  0  0
  -23.2669   -8.7169   22.4953 C   0  0  0  0  0  0  0  0  0  0  0  0
  -36.4393  -28.9814   20.7984 C   0  0  0  0  0  0  0  0  0  0  0  0
  -31.9890  -23.8553   20.4002 C   0  0  0  0  0  0  0  0  0  0  0  0
  -20.0959   -7.8430   23.2706 C   0  0  0  0  0  0  0  0  0  0  0  0
  -19.4083   -7.7729   24.4821 C   0  0  0  0  0  0  0  0  0  0  0  0
  -36.4765  -27.6026   18.8193 C   0  0  0  0  0  0  0  0  0  0  0  0
  -32.8871  -23.4075   22.5980 C   0  0  0  0  0  0  0  0  0  0  0  0
  -20.7298   -5.8539   25.1211 C   0  0  0  0  0  0  0  0  0  0  0  0
  -23.8785  -10.4765   20.9569 C   0  0  0  0  0  0  0  0  0  0  0  0
  -24.1605  -13.0097   20.8507 C   0  0  0  0  0  0  0  0  0  0  0  0
  -32.6308  -34.9373   17.2674 C   0  0  0  0  0  0  0  0  0  0  0  0
  -36.8514  -29.9864   18.6270 C   0  0  0  0  0  0  0  0  0  0  0  0
  -32.8988  -33.5761   17.5076 C   0  0  0  0  0  0  0  0  0  0  0  0
  -36.7488  -28.7253   18.0227 C   0  0  0  0  0  0  0  0  0  0  0  0
  -31.2107  -21.9442   21.6569 C   0  0  0  0  0  0  0  0  0  0  0  0
  -32.0689  -22.2827   22.7031 C   0  0  0  0  0  0  0  0  0  0  0  0
  -22.4699   -8.1331   21.5106 C   0  0  0  0  0  0  0  0  0  0  0  0
  -36.3209  -27.7307   20.1993 C   0  0  0  0  0  0  0  0  0  0  0  0
  -32.8471  -24.1938   21.4465 C   0  0  0  0  0  0  0  0  0  0  0  0
  -21.1004   -6.9185   22.9842 C   0  0  0  0  0  0  0  0  0  0  0  0
  -19.7252   -6.7784   25.4074 C   0  0  0  0  0  0  0  0  0  0  0  0
  -21.4173   -5.9240   23.9095 C   0  0  0  0  0  0  0  0  0  0  0  0
  -24.6067  -11.6866   20.6713 C   0  0  0  0  0  0  0  0  0  0  0  0
  -25.2143  -13.7867   20.4355 C   0  0  0  0  0  0  0  0  0  0  0  0
  -22.9057  -13.4931   21.3481 C   0  0  0  0  0  0  0  0  0  0  0  0
  -35.3027  -31.1457   16.1048 C   0  0  0  0  0  0  0  0  0  0  0  0
  -37.7168  -29.7328   14.4623 C   0  0  0  0  0  0  0  0  0  0  0  0
  -40.1460  -27.3375   14.3715 C   0  0  0  0  0  0  0  0  0  0  0  0
  -30.7804  -14.7135   20.6555 C   0  0  0  0  0  0  0  0  0  0  0  0
  -32.6883  -35.5243   15.8794 C   0  0  0  0  0  0  0  0  0  0  0  0
  -37.1668  -31.2033   17.8012 C   0  0  0  0  0  0  0  0  0  0  0  0
  -36.9151  -28.5419   16.5370 C   0  0  0  0  0  0  0  0  0  0  0  0
  -33.4624  -34.6625   14.8852 C   0  0  0  0  0  0  0  0  0  0  0  0
  -29.4631  -12.5648   17.9832 C   0  0  0  0  0  0  0  0  0  0  0  0
  -33.0370  -33.2021   15.0002 C   0  0  0  0  0  0  0  0  0  0  0  0
  -28.0632  -12.2147   18.4891 C   0  0  0  0  0  0  0  0  0  0  0  0
  -29.4826  -18.0808   20.2478 C   0  0  0  0  0  0  0  0  0  0  0  0
  -30.4427  -12.7991   19.1306 C   0  0  0  0  0  0  0  0  0  0  0  0
  -29.1160  -16.6021   20.2879 C   0  0  0  0  0  0  0  0  0  0  0  0
  -28.5916  -13.4391   20.6304 C   0  0  0  0  0  0  0  0  0  0  0  0
  -33.3406  -32.6475   16.3973 C   0  0  1  0  0  0  0  0  0  0  0  0
  -36.7844  -31.0447   16.3329 C   0  0  1  0  0  0  0  0  0  0  0  0
  -27.5637  -13.2591   19.5045 C   0  0  2  0  0  0  0  0  0  0  0  0
  -30.2065  -18.2504   21.5739 C   0  0  1  0  0  0  0  0  0  0  0  0
  -31.0400  -16.9731   21.6957 C   0  0  1  0  0  0  0  0  0  0  0  0
  -32.1278  -21.4566   23.9459 C   0  0  0  0  0  0  0  0  0  0  0  0
  -30.3392  -15.5140   25.2113 C   0  0  0  0  0  0  0  0  0  0  0  0
  -41.9342  -26.4009   12.8807 C   0  0  0  0  0  0  0  0  0  0  0  0
  -35.5878  -28.2955   12.8157 C   0  0  0  0  0  0  0  0  0  0  0  0
  -37.3621  -26.7123   12.0322 C   0  0  0  0  0  0  0  0  0  0  0  0
  -37.5344  -29.1418   11.4932 C   0  0  0  0  0  0  0  0  0  0  0  0
  -42.2802  -28.0312   16.3010 C   0  0  0  0  0  0  0  0  0  0  0  0
  -30.3214  -20.7393   21.7467 C   0  0  0  0  0  0  0  0  0  0  0  0
  -31.2960  -16.5912   23.1489 C   0  0  0  0  0  0  0  0  0  0  0  0
  -30.0749  -15.9192   23.7700 C   0  0  0  0  0  0  0  0  0  0  0  0
  -35.2958  -26.8334   22.1486 C   0  0  0  0  0  0  0  0  0  1  0  0
  -34.4983  -25.5796   22.4511 C   0  0  0  0  0  0  0  0  0  0  0  0
  -37.9462  -28.3660   13.8639 C   0  0  1  0  0  0  0  0  0  0  0  0
  -41.6108  -27.4028   13.9781 C   0  0  2  0  0  0  0  0  0  0  0  0
  -37.1025  -28.1323   12.5790 C   0  0  0  0  0  0  0  0  0  0  0  0
  -25.8472  -11.6229   20.1803 N   0  0  0  0  0  0  0  0  0  0  0  0
  -26.1895  -12.9157   20.0475 N   0  0  0  0  0  0  0  0  0  0  0  0
  -37.2163  -29.7630   15.7716 N   0  0  0  0  0  0  0  0  0  0  0  0
  -29.9124  -13.7733   20.0846 N   0  0  0  0  0  0  0  0  0  0  0  0
  -30.2465  -15.9658   20.9738 N   0  0  0  0  0  0  0  0  0  0  0  0
  -25.3925  -15.1231   20.3680 N   0  0  0  0  0  0  0  0  0  0  0  0
  -21.9338  -12.5585   21.7307 N   0  0  0  0  0  0  0  0  0  0  0  0
  -34.7491  -32.3404   16.5241 N   0  0  0  0  0  0  0  0  0  0  0  0
  -39.3862  -28.2446   13.6635 N   0  0  0  0  0  0  0  0  0  0  0  0
  -31.0575  -19.4544   21.5641 N   0  3  0  0  0  0  0  0  0  0  0  0
  -42.4767  -27.1071   15.1545 N   0  3  0  0  0  0  0  0  0  0  0  0
  -22.6477  -14.7176   21.4350 O   0  0  0  0  0  0  0  0  0  0  0  0
  -34.7061  -30.2098   15.5855 O   0  0  0  0  0  0  0  0  0  0  0  0
  -37.9790  -30.7368   13.7952 O   0  0  0  0  0  0  0  0  0  0  0  0
  -39.7181  -26.5572   15.2191 O   0  0  0  0  0  0  0  0  0  0  0  0
  -31.9772  -14.4586   20.8405 O   0  0  0  0  0  0  0  0  0  0  0  0
  -21.7826   -6.9899   21.7812 O   0  0  0  0  0  0  0  0  0  0  0  0
  -36.0569  -26.6256   20.9649 O   0  0  0  0  0  0  0  0  0  1  0  0
  -33.6452  -25.2915   21.3442 O   0  0  0  0  0  0  0  0  0  0  0  0
  -19.0659   -6.7121   26.5715 F   0  0  0  0  0  0  0  0  0  0  0  0
  -22.3822   -5.0337   23.6405 F   0  0  0  0  0  0  0  0  0  0  0  0
  1  2  1  0  0  0  0
  1  5  2  0  0  0  0
  2  6  2  0  0  0  0
  3  9  2  0  0  0  0
  3 18  1  0  0  0  0
  4 10  1  0  0  0  0
  4 18  2  0  0  0  0
  5 20  1  0  0  0  0
  6 22  1  0  0  0  0
  7 11  2  0  0  0  0
  7 21  1  0  0  0  0
  8 12  2  0  0  0  0
  8 24  1  0  0  0  0
  9 26  1  0  0  0  0
 10 26  2  0  0  0  0
 11 27  1  0  0  0  0
 12 28  1  0  0  0  0
 13 14  2  0  0  0  0
 13 29  1  0  0  0  0
 14 30  1  0  0  0  0
 15 23  1  0  0  0  0
 15 27  2  0  0  0  0
 16 25  1  0  0  0  0
 16 28  2  0  0  0  0
 17 30  2  0  0  0  0
 17 31  1  0  0  0  0
 18 32  1  0  0  0  0
 19 32  1  0  0  0  0
 19 33  2  0  0  0  0
 19 34  1  0  0  0  0
 20 22  2  0  0  0  0
 20 39  1  0  0  0  0
 21 23  2  0  0  0  0
 21 40  1  0  0  0  0
 22 50  1  0  0  0  0
 23 41  1  0  0  0  0
 24 25  2  0  0  0  0
 24 62  1  0  0  0  0
 25 55  1  0  0  0  0
 26 86  1  0  0  0  0
 27 87  1  0  0  0  0
 28 88  1  0  0  0  0
 29 31  2  0  0  0  0
 29 86  1  0  0  0  0
 30 89  1  0  0  0  0
 31 90  1  0  0  0  0
 32 70  2  0  0  0  0
 33 71  1  0  0  0  0
 33 75  1  0  0  0  0
 34 76  1  0  0  0  0
 34 81  2  0  0  0  0
 35 51  1  0  0  0  0
 35 77  1  0  0  0  0
 35 82  2  0  0  0  0
 36 67  1  0  0  0  0
 36 72  1  0  0  0  0
 36 83  2  0  0  0  0
 37 68  1  0  0  0  0
 37 78  1  0  0  0  0
 37 84  2  0  0  0  0
 38 73  1  0  0  0  0
 38 74  1  0  0  0  0
 38 85  2  0  0  0  0
 39 42  1  0  0  0  0
 40 51  1  0  0  0  0
 41 72  1  0  0  0  0
 42 44  1  0  0  0  0
 43 45  1  0  0  0  0
 43 47  1  0  0  0  0
 44 50  1  0  0  0  0
 45 52  1  0  0  0  0
 46 48  1  0  0  0  0
 46 53  1  0  0  0  0
 47 73  1  0  0  0  0
 48 74  1  0  0  0  0
 49 52  1  0  0  0  0
 49 73  1  0  0  0  0
 50 77  1  0  0  0  0
 51 72  1  0  0  0  0
 52 71  1  0  0  0  0
 53 54  1  0  0  0  0
 53 79  1  0  0  0  0
 54 63  1  0  0  0  0
 54 74  1  0  0  0  0
 56 64  1  0  0  0  0
 57 68  1  0  0  0  0
 58 69  1  0  0  0  0
 59 69  1  0  0  0  0
 60 69  1  0  0  0  0
 61 80  1  0  0  0  0
 62 79  1  0  0  0  0
 63 64  1  0  0  0  0
 65 66  1  0  0  0  0
 65 87  1  0  0  0  0
 66 88  1  0  0  0  0
 67 69  1  0  0  0  0
 67 78  1  0  0  0  0
 68 80  1  0  0  0  0
 70 71  1  0  0  0  0
M  CHG  2  79   1  80   1
M  ISO  4  38 100  65 101  74 100  87 101
M  END
> <Batch ID>
0128

> <Smiles>
CCCC1C(NCc2ccc(OC[101CH2:1][101O:1]c3ccc4c(c3)CN(C(=O)C(NC(=O)C(C)NC)C(C)(C)C)C(C(=O)NC3CCCc5ccccc53)C4)cc2C)CC[100N:0]1[100C:0](=O)N1CCCC(n2nc(-c3ccc(Oc4ccc(F)cc4F)cc3)c(C(N)=O)c2N)C1

> <Shape>
0.189

> <Color>
0.169

> <Negative vol penalty>
0.000

$$$$

  -OEChem-04052320423D

 80 88  0     1  0  0  0  0  0999 V2000
  -28.9637  -21.6145   17.0849 C   0  0  0  0  0  0  0  0  0  0  0  0
  -27.7280  -21.5371   17.7172 C   0  0  0  0  0  0  0  0  0  0  0  0
  -27.9352  -17.0223   19.0388 C   0  0  0  0  0  0  0  0  0  0  0  0
  -27.4124  -17.5023   21.3482 C   0  0  0  0  0  0  0  0  0  0  0  0
  -29.7847  -22.7193   17.3005 C   0  0  0  0  0  0  0  0  0  0  0  0
  -27.3077  -22.5699   18.5560 C   0  0  0  0  0  0  0  0  0  0  0  0
  -22.6994  -22.3290   20.2616 C   0  0  0  0  0  0  0  0  0  0  0  0
  -28.6221  -18.2324   18.9427 C   0  0  0  0  0  0  0  0  0  0  0  0
  -28.0994  -18.7125   21.2522 C   0  0  0  0  0  0  0  0  0  0  0  0
  -22.3013  -21.4082   21.2298 C   0  0  0  0  0  0  0  0  0  0  0  0
  -31.3116  -19.7615   21.2950 C   0  0  0  0  0  0  0  0  0  0  0  0
  -32.1784  -20.0972   22.3350 C   0  0  0  0  0  0  0  0  0  0  0  0
  -22.3283  -23.1549   22.8934 C   0  0  0  0  0  0  0  0  0  0  0  0
  -30.8914  -22.0969   22.7620 C   0  0  0  0  0  0  0  0  0  0  0  0
  -27.3303  -16.6572   20.2415 C   0  0  0  0  0  0  0  0  0  0  0  0
  -27.1468  -14.1583   20.7203 C   0  0  0  0  0  0  0  0  0  0  0  0
  -29.3789  -23.7599   18.1523 C   0  0  0  0  0  0  0  0  0  0  0  0
  -22.9260  -23.6696   20.6048 C   0  0  0  0  0  0  0  0  0  0  0  0
  -28.1118  -23.7046   18.7676 C   0  0  0  0  0  0  0  0  0  0  0  0
  -22.7268  -24.0912   21.9272 C   0  0  0  0  0  0  0  0  0  0  0  0
  -28.7043  -19.0775   20.0494 C   0  0  0  0  0  0  0  0  0  0  0  0
  -22.1185  -21.8205   22.5465 C   0  0  0  0  0  0  0  0  0  0  0  0
  -30.2348  -20.5935   20.9884 C   0  0  0  0  0  0  0  0  0  0  0  0
  -31.9683  -21.2649   23.0685 C   0  0  0  0  0  0  0  0  0  0  0  0
  -30.0247  -21.7611   21.7219 C   0  0  0  0  0  0  0  0  0  0  0  0
  -26.6200  -15.4076   20.3412 C   0  0  0  0  0  0  0  0  0  0  0  0
  -26.0758  -13.3006   20.6571 C   0  0  0  0  0  0  0  0  0  0  0  0
  -28.4845  -13.8048   21.0962 C   0  0  0  0  0  0  0  0  0  0  0  0
  -25.4433  -25.6091   20.5326 C   0  0  0  0  0  0  0  0  0  0  0  0
  -23.2574  -27.8424   21.4023 C   0  0  0  0  0  0  0  0  0  0  0  0
  -20.2542  -28.5415   22.8646 C   0  0  0  0  0  0  0  0  0  0  0  0
  -20.1606  -14.1257   21.0821 C   0  0  0  0  0  0  0  0  0  0  0  0
  -30.3037  -24.9360   18.3439 C   0  0  0  0  0  0  0  0  0  0  0  0
  -23.3293  -24.6561   19.5434 C   0  0  0  0  0  0  0  0  0  0  0  0
  -22.9372  -25.5234   22.3431 C   0  0  0  0  0  0  0  0  0  0  0  0
  -29.9700  -25.7588   19.5840 C   0  0  0  0  0  0  0  0  0  0  0  0
  -17.8918  -19.8049   25.3241 C   0  0  0  0  0  0  0  0  0  0  0  0
  -21.9270  -12.6539   18.3636 C   0  0  0  0  0  0  0  0  0  0  0  0
  -28.4838  -26.0831   19.6082 C   0  0  0  0  0  0  0  0  0  0  0  0
  -19.0978  -20.5135   24.6969 C   0  0  0  0  0  0  0  0  0  0  0  0
  -23.3776  -13.0800   18.5964 C   0  0  0  0  0  0  0  0  0  0  0  0
  -18.0474  -18.3187   24.9985 C   0  0  0  0  0  0  0  0  0  0  0  0
  -20.9450  -13.7533   18.7620 C   0  0  0  0  0  0  0  0  0  0  0  0
  -22.5622  -14.6907   20.3682 C   0  0  0  0  0  0  0  0  0  0  0  0
  -27.6468  -24.8016   19.7082 C   0  0  1  0  0  0  0  0  0  0  0  0
  -24.0294  -25.8884   20.1079 C   0  0  1  0  0  0  0  0  0  0  0  0
  -20.0227  -19.3953   24.2063 C   0  0  1  0  0  0  0  0  0  0  0  0
  -23.5874  -13.5938   20.0335 C   0  0  2  0  0  0  0  0  0  0  0  0
  -19.0278  -18.3003   23.8376 C   0  0  1  0  0  0  0  0  0  0  0  0
  -18.7538  -30.4622   23.4622 C   0  0  0  0  0  0  0  0  0  0  0  0
  -25.0856  -28.5389   23.7438 C   0  0  0  0  0  0  0  0  0  0  0  0
  -23.1581  -29.7358   24.8022 C   0  0  0  0  0  0  0  0  0  0  0  0
  -24.0509  -30.5108   22.6056 C   0  0  0  0  0  0  0  0  0  0  0  0
  -18.0677  -27.5170   21.1533 C   0  0  0  0  0  0  0  0  0  0  0  0
  -20.9220  -19.8304   23.0605 C   0  0  0  0  0  0  0  0  0  1  0  0
  -19.5276  -14.5417   23.4454 C   0  0  0  0  0  0  0  0  0  0  0  0
  -18.7429  -15.8369   23.5387 C   0  0  0  0  0  0  0  0  0  0  0  0
  -22.7239  -28.3616   22.7156 C   0  0  1  0  0  0  0  0  0  0  0  0
  -19.0939  -29.4118   22.4164 C   0  0  2  0  0  0  0  0  0  0  0  0
  -23.7525  -29.2593   23.4597 C   0  0  0  0  0  0  0  0  0  0  0  0
  -25.3159  -15.3528   20.0579 N   0  0  0  0  0  0  0  0  0  0  0  0
  -25.0142  -14.0587   20.2590 N   0  0  0  0  0  0  0  0  0  0  0  0
  -23.3372  -26.4488   21.2702 N   0  0  0  0  0  0  0  0  0  0  0  0
  -21.1965  -14.1951   20.1359 N   0  0  0  0  0  0  0  0  0  0  0  0
  -25.9481  -11.9795   20.9035 N   0  0  0  0  0  0  0  0  0  0  0  0
  -29.4625  -14.8085   21.1081 N   0  0  0  0  0  0  0  0  0  0  0  0
  -26.2518  -25.1328   19.5181 N   0  0  0  0  0  0  0  0  0  0  0  0
  -21.4620  -29.0265   22.4093 N   0  0  0  0  0  0  0  0  0  0  0  0
  -20.4851  -14.5582   22.3621 N   0  0  0  0  0  0  0  0  0  0  0  0
  -19.6807  -16.9837   23.7171 N   0  3  0  0  0  0  0  0  0  0  0  0
  -17.8826  -28.5772   22.1773 N   0  3  0  0  0  0  0  0  0  0  0  0
  -28.8066  -12.6301   21.3962 O   0  0  0  0  0  0  0  0  0  0  0  0
  -25.7766  -25.8120   21.6942 O   0  0  0  0  0  0  0  0  0  0  0  0
  -23.5844  -28.6436   20.5232 O   0  0  0  0  0  0  0  0  0  0  0  0
  -20.1044  -27.5345   23.5531 O   0  0  0  0  0  0  0  0  0  0  0  0
  -19.0319  -13.7042   20.8078 O   0  0  0  0  0  0  0  0  0  0  0  0
  -29.3747  -20.2583   19.9561 O   0  0  0  0  0  0  0  0  0  0  0  0
  -21.7305  -20.9236   23.4936 O   0  0  0  0  0  0  0  0  0  1  0  0
  -32.7998  -21.5864   24.0682 F   0  0  0  0  0  0  0  0  0  0  0  0
  -28.9912  -22.5637   21.4328 F   0  0  0  0  0  0  0  0  0  0  0  0
  1  2  1  0  0  0  0
  1  5  2  0  0  0  0
  2  6  2  0  0  0  0
  3  8  2  0  0  0  0
  3 15  1  0  0  0  0
  4  9  1  0  0  0  0
  4 15  2  0  0  0  0
  5 17  1  0  0  0  0
  6 19  1  0  0  0  0
  7 10  2  0  0  0  0
  7 18  1  0  0  0  0
  8 21  1  0  0  0  0
  9 21  2  0  0  0  0
 10 22  1  0  0  0  0
 11 12  2  0  0  0  0
 11 23  1  0  0  0  0
 12 24  1  0  0  0  0
 13 20  1  0  0  0  0
 13 22  2  0  0  0  0
 14 24  2  0  0  0  0
 14 25  1  0  0  0  0
 15 26  1  0  0  0  0
 16 26  1  0  0  0  0
 16 27  2  0  0  0  0
 16 28  1  0  0  0  0
 17 19  2  0  0  0  0
 17 33  1  0  0  0  0
 18 20  2  0  0  0  0
 18 34  1  0  0  0  0
 19 45  1  0  0  0  0
 20 35  1  0  0  0  0
 21 77  1  0  0  0  0
 22 78  1  0  0  0  0
 23 25  2  0  0  0  0
 23 77  1  0  0  0  0
 24 79  1  0  0  0  0
 25 80  1  0  0  0  0
 26 61  2  0  0  0  0
 27 62  1  0  0  0  0
 27 65  1  0  0  0  0
 28 66  1  0  0  0  0
 28 72  2  0  0  0  0
 29 46  1  0  0  0  0
 29 67  1  0  0  0  0
 29 73  2  0  0  0  0
 30 58  1  0  0  0  0
 30 63  1  0  0  0  0
 30 74  2  0  0  0  0
 31 59  1  0  0  0  0
 31 68  1  0  0  0  0
 31 75  2  0  0  0  0
 32 64  1  0  0  0  0
 32 69  1  0  0  0  0
 32 76  2  0  0  0  0
 33 36  1  0  0  0  0
 34 46  1  0  0  0  0
 35 63  1  0  0  0  0
 36 39  1  0  0  0  0
 37 40  1  0  0  0  0
 37 42  1  0  0  0  0
 38 41  1  0  0  0  0
 38 43  1  0  0  0  0
 39 45  1  0  0  0  0
 40 47  1  0  0  0  0
 41 48  1  0  0  0  0
 42 49  1  0  0  0  0
 43 64  1  0  0  0  0
 44 48  1  0  0  0  0
 44 64  1  0  0  0  0
 45 67  1  0  0  0  0
 46 63  1  0  0  0  0
 47 49  1  0  0  0  0
 47 55  1  0  0  0  0
 48 62  1  0  0  0  0
 49 70  1  0  0  0  0
 50 59  1  0  0  0  0
 51 60  1  0  0  0  0
 52 60  1  0  0  0  0
 53 60  1  0  0  0  0
 54 71  1  0  0  0  0
 55 78  1  0  0  0  0
 56 57  1  0  0  0  0
 56 69  1  0  0  0  0
 57 70  1  0  0  0  0
 58 60  1  0  0  0  0
 58 68  1  0  0  0  0
 59 71  1  0  0  0  0
 61 62  1  0  0  0  0
M  CHG  2  70   1  71   1
M  ISO  4  32 100  55 101  69 100  78 101
M  END
> <Batch ID>
0128

> <Smiles>
CNC(C)C(=O)NC(C(=O)N1Cc2cc([101O:1][101CH2:1]C3CCCC3NCC[100NH:0][100C:0](=O)N3CCCC(n4nc(-c5ccc(Oc6ccc(F)cc6F)cc5)c(C(N)=O)c4N)C3)ccc2CC1C(=O)NC1CCCc2ccccc21)C(C)(C)C

> <Shape>
0.204

> <Color>
0.068

> <Negative vol penalty>
0.000

$$$$

  -OEChem-04052320423D

 84 93  0     1  0  0  0  0  0999 V2000
  -22.6099  -26.8126   14.4365 C   0  0  0  0  0  0  0  0  0  0  0  0
  -22.9025  -25.7798   15.3214 C   0  0  0  0  0  0  0  0  0  0  0  0
  -22.9519   -9.9881   19.9809 C   0  0  0  0  0  0  0  0  0  0  0  0
  -23.7129   -9.9640   22.2738 C   0  0  0  0  0  0  0  0  0  0  0  0
  -23.4141  -27.9512   14.4054 C   0  0  0  0  0  0  0  0  0  0  0  0
  -24.0001  -25.8845   16.1750 C   0  0  0  0  0  0  0  0  0  0  0  0
  -26.1849  -23.9629   22.7210 C   0  0  0  0  0  0  0  0  0  0  0  0
  -30.4748  -18.7669   23.1799 C   0  0  0  0  0  0  0  0  0  0  0  0
  -22.1621   -8.8661   20.2312 C   0  0  0  0  0  0  0  0  0  0  0  0
  -22.9230   -8.8419   22.5242 C   0  0  0  0  0  0  0  0  0  0  0  0
  -27.2487  -23.3248   23.3573 C   0  0  0  0  0  0  0  0  0  0  0  0
  -23.0786   -5.5109   21.9663 C   0  0  0  0  0  0  0  0  0  0  0  0
  -23.6525   -4.4614   22.6837 C   0  0  0  0  0  0  0  0  0  0  0  0
  -29.9479  -17.5528   22.7552 C   0  0  0  0  0  0  0  0  0  0  0  0
  -28.5207  -25.3726   23.2711 C   0  0  0  0  0  0  0  0  0  0  0  0
  -21.9606   -4.7037   24.3913 C   0  0  0  0  0  0  0  0  0  0  0  0
  -23.7274  -10.5371   21.0022 C   0  0  0  0  0  0  0  0  0  0  0  0
  -24.1713  -13.0463   20.8823 C   0  0  0  0  0  0  0  0  0  0  0  0
  -24.5164  -28.0741   15.2658 C   0  0  0  0  0  0  0  0  0  0  0  0
  -26.2852  -25.3099   22.3445 C   0  0  0  0  0  0  0  0  0  0  0  0
  -24.8206  -27.0252   16.1545 C   0  0  0  0  0  0  0  0  0  0  0  0
  -31.7548  -19.1677   22.7769 C   0  0  0  0  0  0  0  0  0  0  0  0
  -27.4558  -26.0262   22.6324 C   0  0  0  0  0  0  0  0  0  0  0  0
  -22.1476   -8.2930   21.5029 C   0  0  0  0  0  0  0  0  0  0  0  0
  -28.4179  -24.0289   23.6298 C   0  0  0  0  0  0  0  0  0  0  0  0
  -21.9458   -6.1569   22.4614 C   0  0  0  0  0  0  0  0  0  0  0  0
  -23.0934   -4.0577   23.8962 C   0  0  0  0  0  0  0  0  0  0  0  0
  -21.3867   -5.7532   23.6739 C   0  0  0  0  0  0  0  0  0  0  0  0
  -24.5440  -11.6958   20.7441 C   0  0  0  0  0  0  0  0  0  0  0  0
  -32.4781  -18.2768   21.9735 C   0  0  0  0  0  0  0  0  0  0  0  0
  -30.7318  -16.7593   21.9411 C   0  0  0  0  0  0  0  0  0  0  0  0
  -25.2927  -13.7509   20.5184 C   0  0  0  0  0  0  0  0  0  0  0  0
  -22.9231  -13.6132   21.3021 C   0  0  0  0  0  0  0  0  0  0  0  0
  -26.1925  -26.8799   19.5822 C   0  0  0  0  0  0  0  0  0  0  0  0
  -26.2815  -29.4883   21.5085 C   0  0  0  0  0  0  0  0  0  0  0  0
  -27.1312  -30.8323   24.5281 C   0  0  0  0  0  0  0  0  0  0  0  0
  -30.7969  -14.5739   20.6897 C   0  0  0  0  0  0  0  0  0  0  0  0
  -25.3843  -29.3032   15.1628 C   0  0  0  0  0  0  0  0  0  0  0  0
  -25.1187  -25.9910   21.6829 C   0  0  0  0  0  0  0  0  0  0  0  0
  -27.6062  -27.4796   22.2670 C   0  0  0  0  0  0  0  0  0  0  0  0
  -33.8667  -18.6065   21.4936 C   0  0  0  0  0  0  0  0  0  0  0  0
  -26.3087  -29.4985   16.3618 C   0  0  0  0  0  0  0  0  0  0  0  0
  -34.5521  -19.6757   22.3379 C   0  0  0  0  0  0  0  0  0  0  0  0
  -29.5840  -12.2076   18.3219 C   0  0  0  0  0  0  0  0  0  0  0  0
  -27.0056  -28.1890   16.7174 C   0  0  0  0  0  0  0  0  0  0  0  0
  -33.6250  -20.8729   22.5083 C   0  0  0  0  0  0  0  0  0  0  0  0
  -28.1340  -11.9746   18.7523 C   0  0  0  0  0  0  0  0  0  0  0  0
  -30.5084  -12.3990   19.5229 C   0  0  0  0  0  0  0  0  0  0  0  0
  -28.6333  -13.2000   20.9055 C   0  0  0  0  0  0  0  0  0  0  0  0
  -25.9880  -27.1124   17.1134 C   0  0  1  0  0  0  0  0  0  0  0  0
  -32.3554  -20.4649   23.2673 C   0  0  1  0  0  0  0  0  0  0  0  0
  -25.5229  -27.2251   20.8823 C   0  0  1  0  0  0  0  0  0  0  0  0
  -27.6535  -13.0665   19.7283 C   0  0  2  0  0  0  0  0  0  0  0  0
  -27.1162  -32.9988   25.7944 C   0  0  0  0  0  0  0  0  0  0  0  0
  -28.6764  -30.4525   19.8823 C   0  0  0  0  0  0  0  0  0  0  0  0
  -29.1902  -32.0664   21.7261 C   0  0  0  0  0  0  0  0  0  0  0  0
  -27.0348  -32.2412   20.4826 C   0  0  0  0  0  0  0  0  0  0  0  0
  -25.3609  -29.7274   26.6267 C   0  0  0  0  0  0  0  0  0  0  0  0
  -31.7661  -22.7455   24.1229 C   0  0  0  0  0  0  0  0  0  0  0  0
  -30.7708  -23.8742   23.9401 C   0  0  0  0  0  0  0  0  0  1  0  0
  -27.3760  -30.3365   22.1098 C   0  0  1  0  0  0  0  0  0  0  0  0
  -26.3584  -31.7157   25.4908 C   0  0  2  0  0  0  0  0  0  0  0  0
  -28.0676  -31.2462   21.0555 C   0  0  0  0  0  0  0  0  0  0  0  0
  -25.8037  -11.5488   20.3250 N   0  0  0  0  0  0  0  0  0  0  0  0
  -31.9780  -17.0901   21.5420 N   0  0  0  0  0  0  0  0  0  0  0  0
  -26.2322  -12.8161   20.1966 N   0  0  0  0  0  0  0  0  0  0  0  0
  -26.4402  -28.0994   21.6160 N   0  0  0  0  0  0  0  0  0  0  0  0
  -29.9923  -13.4515   20.4008 N   0  0  0  0  0  0  0  0  0  0  0  0
  -25.5569  -15.0728   20.4454 N   0  0  0  0  0  0  0  0  0  0  0  0
  -21.8753  -12.7457   21.6399 N   0  0  0  0  0  0  0  0  0  0  0  0
  -30.1881  -15.5244   21.5086 N   0  0  0  0  0  0  0  0  0  0  0  0
  -25.5184  -27.3332   18.4644 N   0  0  0  0  0  0  0  0  0  0  0  0
  -26.7669  -31.0631   23.2185 N   0  0  0  0  0  0  0  0  0  0  0  0
  -31.4215  -21.6340   23.2009 N   0  3  0  0  0  0  0  0  0  0  0  0
  -26.1180  -30.9971   26.7741 N   0  3  0  0  0  0  0  0  0  0  0  0
  -22.7369  -14.8524   21.3597 O   0  0  0  0  0  0  0  0  0  0  0  0
  -27.2437  -26.2501   19.5926 O   0  0  0  0  0  0  0  0  0  0  0  0
  -25.3175  -30.0379   20.9697 O   0  0  0  0  0  0  0  0  0  0  0  0
  -27.9764  -30.0214   24.9004 O   0  0  0  0  0  0  0  0  0  0  0  0
  -31.9316  -14.6968   20.2214 O   0  0  0  0  0  0  0  0  0  0  0  0
  -21.3767   -7.1982   21.7475 O   0  0  0  0  0  0  0  0  0  0  0  0
  -29.4581  -23.4083   24.2502 O   0  0  0  0  0  0  0  0  0  1  0  0
  -23.6437   -3.0488   24.5843 F   0  0  0  0  0  0  0  0  0  0  0  0
  -20.2978   -6.3692   24.1540 F   0  0  0  0  0  0  0  0  0  0  0  0
  1  2  1  0  0  0  0
  1  5  2  0  0  0  0
  2  6  2  0  0  0  0
  3  9  2  0  0  0  0
  3 17  1  0  0  0  0
  4 10  1  0  0  0  0
  4 17  2  0  0  0  0
  5 19  1  0  0  0  0
  6 21  1  0  0  0  0
  7 11  2  0  0  0  0
  7 20  1  0  0  0  0
  8 14  2  0  0  0  0
  8 22  1  0  0  0  0
  9 24  1  0  0  0  0
 10 24  2  0  0  0  0
 11 25  1  0  0  0  0
 12 13  2  0  0  0  0
 12 26  1  0  0  0  0
 13 27  1  0  0  0  0
 14 31  1  0  0  0  0
 15 23  1  0  0  0  0
 15 25  2  0  0  0  0
 16 27  2  0  0  0  0
 16 28  1  0  0  0  0
 17 29  1  0  0  0  0
 18 29  1  0  0  0  0
 18 32  2  0  0  0  0
 18 33  1  0  0  0  0
 19 21  2  0  0  0  0
 19 38  1  0  0  0  0
 20 23  2  0  0  0  0
 20 39  1  0  0  0  0
 21 50  1  0  0  0  0
 22 30  2  0  0  0  0
 22 51  1  0  0  0  0
 23 40  1  0  0  0  0
 24 81  1  0  0  0  0
 25 82  1  0  0  0  0
 26 28  2  0  0  0  0
 26 81  1  0  0  0  0
 27 83  1  0  0  0  0
 28 84  1  0  0  0  0
 29 64  2  0  0  0  0
 30 41  1  0  0  0  0
 30 65  1  0  0  0  0
 31 65  2  0  0  0  0
 31 71  1  0  0  0  0
 32 66  1  0  0  0  0
 32 69  1  0  0  0  0
 33 70  1  0  0  0  0
 33 76  2  0  0  0  0
 34 52  1  0  0  0  0
 34 72  1  0  0  0  0
 34 77  2  0  0  0  0
 35 61  1  0  0  0  0
 35 67  1  0  0  0  0
 35 78  2  0  0  0  0
 36 62  1  0  0  0  0
 36 73  1  0  0  0  0
 36 79  2  0  0  0  0
 37 68  1  0  0  0  0
 37 71  1  0  0  0  0
 37 80  2  0  0  0  0
 38 42  1  0  0  0  0
 39 52  1  0  0  0  0
 40 67  1  0  0  0  0
 41 43  1  0  0  0  0
 42 45  1  0  0  0  0
 43 46  1  0  0  0  0
 44 47  1  0  0  0  0
 44 48  1  0  0  0  0
 45 50  1  0  0  0  0
 46 51  1  0  0  0  0
 47 53  1  0  0  0  0
 48 68  1  0  0  0  0
 49 53  1  0  0  0  0
 49 68  1  0  0  0  0
 50 72  1  0  0  0  0
 51 74  1  0  0  0  0
 52 67  1  0  0  0  0
 53 66  1  0  0  0  0
 54 62  1  0  0  0  0
 55 63  1  0  0  0  0
 56 63  1  0  0  0  0
 57 63  1  0  0  0  0
 58 75  1  0  0  0  0
 59 60  1  0  0  0  0
 59 74  1  0  0  0  0
 60 82  1  0  0  0  0
 61 63  1  0  0  0  0
 61 73  1  0  0  0  0
 62 75  1  0  0  0  0
 64 66  1  0  0  0  0
M  CHG  2  74   1  75   1
M  ISO  4  37 100  60 101  71 100  82 101
M  END
> <Batch ID>
0128

> <Smiles>
CNC(C)C(=O)NC(C(=O)N1Cc2cc([101O:1][101CH2:1]CNC3CCCc4nc([100NH:0][100C:0](=O)N5CCCC(n6nc(-c7ccc(Oc8ccc(F)cc8F)cc7)c(C(N)=O)c6N)C5)ccc43)ccc2CC1C(=O)NC1CCCc2ccccc21)C(C)(C)C

> <Shape>
0.280

> <Color>
0.192

> <Negative vol penalty>
0.000

$$$$

  -OEChem-04052320423D

 84 92  0     1  0  0  0  0  0999 V2000
  -26.4496  -31.7873   12.0740 C   0  0  0  0  0  0  0  0  0  0  0  0
  -26.5429  -30.5264   12.6544 C   0  0  0  0  0  0  0  0  0  0  0  0
  -22.9555  -10.0523   19.8682 C   0  0  0  0  0  0  0  0  0  0  0  0
  -23.9572   -9.6538   22.0304 C   0  0  0  0  0  0  0  0  0  0  0  0
  -26.8711  -32.9121   12.7819 C   0  0  0  0  0  0  0  0  0  0  0  0
  -27.0586  -30.3895   13.9427 C   0  0  0  0  0  0  0  0  0  0  0  0
  -25.3247  -26.3331   18.1906 C   0  0  0  0  0  0  0  0  0  0  0  0
  -26.7554  -20.5989   20.6753 C   0  0  0  0  0  0  0  0  0  0  0  0
  -22.2096   -8.8808   19.9979 C   0  0  0  0  0  0  0  0  0  0  0  0
  -23.2112   -8.4823   22.1601 C   0  0  0  0  0  0  0  0  0  0  0  0
  -25.8573  -25.1084   18.5908 C   0  0  0  0  0  0  0  0  0  0  0  0
  -20.0446   -7.6246   22.9710 C   0  0  0  0  0  0  0  0  0  0  0  0
  -19.4170   -7.3899   24.1943 C   0  0  0  0  0  0  0  0  0  0  0  0
  -27.3618  -19.4778   21.2310 C   0  0  0  0  0  0  0  0  0  0  0  0
  -27.0316  -26.2124   20.3856 C   0  0  0  0  0  0  0  0  0  0  0  0
  -20.6735   -5.3417   24.4459 C   0  0  0  0  0  0  0  0  0  0  0  0
  -23.8294  -10.4388   20.8845 C   0  0  0  0  0  0  0  0  0  0  0  0
  -24.2296  -12.9429   21.1616 C   0  0  0  0  0  0  0  0  0  0  0  0
  -27.3833  -32.7900   14.0832 C   0  0  0  0  0  0  0  0  0  0  0  0
  -25.6507  -27.5102   18.8794 C   0  0  0  0  0  0  0  0  0  0  0  0
  -27.4885  -31.5136   14.6681 C   0  0  0  0  0  0  0  0  0  0  0  0
  -26.4998  -27.4504   19.9937 C   0  0  0  0  0  0  0  0  0  0  0  0
  -27.5121  -21.4913   19.9241 C   0  0  0  0  0  0  0  0  0  0  0  0
  -22.3374   -8.0958   21.1438 C   0  0  0  0  0  0  0  0  0  0  0  0
  -26.7132  -25.0483   19.6866 C   0  0  0  0  0  0  0  0  0  0  0  0
  -20.9867   -6.7179   22.4850 C   0  0  0  0  0  0  0  0  0  0  0  0
  -19.7314   -6.2484   24.9318 C   0  0  0  0  0  0  0  0  0  0  0  0
  -21.3011   -5.5764   23.2225 C   0  0  0  0  0  0  0  0  0  0  0  0
  -24.6006  -11.6485   20.7509 C   0  0  0  0  0  0  0  0  0  0  0  0
  -28.8607  -21.2195   19.7594 C   0  0  0  0  0  0  0  0  0  0  0  0
  -28.7171  -19.2961   21.0076 C   0  0  0  0  0  0  0  0  0  0  0  0
  -25.2977  -13.7330   20.8133 C   0  0  0  0  0  0  0  0  0  0  0  0
  -23.0270  -13.3910   21.8008 C   0  0  0  0  0  0  0  0  0  0  0  0
  -27.1101  -30.2276   18.1113 C   0  0  0  0  0  0  0  0  0  0  0  0
  -26.2178  -31.0990   21.1058 C   0  0  0  0  0  0  0  0  0  0  0  0
  -25.3385  -30.1409   24.2611 C   0  0  0  0  0  0  0  0  0  0  0  0
  -30.7973  -14.6487   20.5646 C   0  0  0  0  0  0  0  0  0  0  0  0
  -27.8701  -34.0296   14.7910 C   0  0  0  0  0  0  0  0  0  0  0  0
  -25.0466  -28.8195   18.4514 C   0  0  0  0  0  0  0  0  0  0  0  0
  -26.8649  -28.6824   20.7794 C   0  0  0  0  0  0  0  0  0  0  0  0
  -28.0565  -33.8392   16.2941 C   0  0  0  0  0  0  0  0  0  0  0  0
  -29.3411  -12.7258   17.9457 C   0  0  0  0  0  0  0  0  0  0  0  0
  -28.8065  -32.5419   16.5790 C   0  0  0  0  0  0  0  0  0  0  0  0
  -27.9506  -12.3760   18.4785 C   0  0  0  0  0  0  0  0  0  0  0  0
  -30.3879  -12.7258   19.0575 C   0  0  0  0  0  0  0  0  0  0  0  0
  -28.6681  -13.2244   20.7509 C   0  0  0  0  0  0  0  0  0  0  0  0
  -28.0194  -31.3270   16.0729 C   0  0  1  0  0  0  0  0  0  0  0  0
  -25.8542  -30.0291   18.9120 C   0  0  1  0  0  0  0  0  0  0  0  0
  -27.5685  -13.2665   19.6761 C   0  0  2  0  0  0  0  0  0  0  0  0
  -31.4970  -23.9484   19.0467 C   0  0  0  0  0  0  0  0  0  0  0  0
  -24.7030  -31.0799   26.4998 C   0  0  0  0  0  0  0  0  0  0  0  0
  -29.1379  -31.8086   21.6344 C   0  0  0  0  0  0  0  0  0  0  0  0
  -28.6192  -31.8199   24.0837 C   0  0  0  0  0  0  0  0  0  0  0  0
  -27.4837  -33.4385   22.5627 C   0  0  0  0  0  0  0  0  0  0  0  0
  -22.6844  -28.8337   24.1855 C   0  0  0  0  0  0  0  0  0  0  0  0
  -26.8632  -22.7029   19.3224 C   0  0  0  0  0  0  0  0  0  1  0  0
  -29.7228  -22.1433   18.9628 C   0  0  0  0  0  0  0  0  0  0  0  0
  -30.5959  -23.0325   19.8597 C   0  0  0  0  0  0  0  0  0  0  0  0
  -30.7062  -17.8483   21.4239 C   0  0  0  0  0  0  0  0  0  0  0  0
  -31.0580  -16.5514   22.1365 C   0  0  0  0  0  0  0  0  0  0  0  0
  -26.8373  -30.9957   22.4786 C   0  0  1  0  0  0  0  0  0  0  0  0
  -24.1934  -30.5684   25.1613 C   0  0  2  0  0  0  0  0  0  0  0  0
  -28.0144  -31.9926   22.6741 C   0  0  0  0  0  0  0  0  0  0  0  0
  -25.8099  -11.6139   20.1849 N   0  0  0  0  0  0  0  0  0  0  0  0
  -29.4850  -20.1410   20.2837 N   0  0  0  0  0  0  0  0  0  0  0  0
  -26.2080  -12.8965   20.2373 N   0  0  0  0  0  0  0  0  0  0  0  0
  -26.2538  -29.9398   20.3179 N   0  0  0  0  0  0  0  0  0  0  0  0
  -29.9658  -13.5906   20.1620 N   0  0  0  0  0  0  0  0  0  0  0  0
  -25.5377  -15.0548   20.9465 N   0  0  0  0  0  0  0  0  0  0  0  0
  -22.0311  -12.4474   22.0874 N   0  0  0  0  0  0  0  0  0  0  0  0
  -29.3204  -18.1487   21.5801 N   0  0  0  0  0  0  0  0  0  0  0  0
  -26.9409  -31.0084   16.9838 N   0  0  0  0  0  0  0  0  0  0  0  0
  -25.7465  -31.1647   23.4325 N   0  0  0  0  0  0  0  0  0  0  0  0
  -30.3193  -15.4234   21.6144 N   0  0  0  0  0  0  0  0  0  0  0  0
  -23.2774  -29.4206   25.4147 N   0  3  0  0  0  0  0  0  0  0  0  0
  -22.8341  -14.5954   22.0939 O   0  0  0  0  0  0  0  0  0  0  0  0
  -28.1554  -29.7118   18.4893 O   0  0  0  0  0  0  0  0  0  0  0  0
  -25.7139  -32.1667   20.7485 O   0  0  0  0  0  0  0  0  0  0  0  0
  -25.8251  -29.0127   24.2926 O   0  0  0  0  0  0  0  0  0  0  0  0
  -31.8826  -14.8888   20.0247 O   0  0  0  0  0  0  0  0  0  0  0  0
  -21.6095   -6.9528   21.2707 O   0  0  0  0  0  0  0  0  0  0  0  0
  -27.2350  -23.8543   20.0790 O   0  0  0  0  0  0  0  0  0  1  0  0
  -19.1297   -6.0239   26.1072 F   0  0  0  0  0  0  0  0  0  0  0  0
  -22.2062   -4.7023   22.7614 F   0  0  0  0  0  0  0  0  0  0  0  0
  1  2  1  0  0  0  0
  1  5  2  0  0  0  0
  2  6  2  0  0  0  0
  3  9  2  0  0  0  0
  3 17  1  0  0  0  0
  4 10  1  0  0  0  0
  4 17  2  0  0  0  0
  5 19  1  0  0  0  0
  6 21  1  0  0  0  0
  7 11  2  0  0  0  0
  7 20  1  0  0  0  0
  8 14  2  0  0  0  0
  8 23  1  0  0  0  0
  9 24  1  0  0  0  0
 10 24  2  0  0  0  0
 11 25  1  0  0  0  0
 12 13  2  0  0  0  0
 12 26  1  0  0  0  0
 13 27  1  0  0  0  0
 14 31  1  0  0  0  0
 15 22  1  0  0  0  0
 15 25  2  0  0  0  0
 16 27  2  0  0  0  0
 16 28  1  0  0  0  0
 17 29  1  0  0  0  0
 18 29  1  0  0  0  0
 18 32  2  0  0  0  0
 18 33  1  0  0  0  0
 19 21  2  0  0  0  0
 19 38  1  0  0  0  0
 20 22  2  0  0  0  0
 20 39  1  0  0  0  0
 21 47  1  0  0  0  0
 22 40  1  0  0  0  0
 23 30  2  0  0  0  0
 23 56  1  0  0  0  0
 24 81  1  0  0  0  0
 25 82  1  0  0  0  0
 26 28  2  0  0  0  0
 26 81  1  0  0  0  0
 27 83  1  0  0  0  0
 28 84  1  0  0  0  0
 29 64  2  0  0  0  0
 30 57  1  0  0  0  0
 30 65  1  0  0  0  0
 31 65  2  0  0  0  0
 31 71  1  0  0  0  0
 32 66  1  0  0  0  0
 32 69  1  0  0  0  0
 33 70  1  0  0  0  0
 33 76  2  0  0  0  0
 34 48  1  0  0  0  0
 34 72  1  0  0  0  0
 34 77  2  0  0  0  0
 35 61  1  0  0  0  0
 35 67  1  0  0  0  0
 35 78  2  0  0  0  0
 36 62  1  0  0  0  0
 36 73  1  0  0  0  0
 36 79  2  0  0  0  0
 37 68  1  0  0  0  0
 37 74  1  0  0  0  0
 37 80  2  0  0  0  0
 38 41  1  0  0  0  0
 39 48  1  0  0  0  0
 40 67  1  0  0  0  0
 41 43  1  0  0  0  0
 42 44  1  0  0  0  0
 42 45  1  0  0  0  0
 43 47  1  0  0  0  0
 44 49  1  0  0  0  0
 45 68  1  0  0  0  0
 46 49  1  0  0  0  0
 46 68  1  0  0  0  0
 47 72  1  0  0  0  0
 48 67  1  0  0  0  0
 49 66  1  0  0  0  0
 50 58  1  0  0  0  0
 51 62  1  0  0  0  0
 52 63  1  0  0  0  0
 53 63  1  0  0  0  0
 54 63  1  0  0  0  0
 55 75  1  0  0  0  0
 56 82  1  0  0  0  0
 57 58  1  0  0  0  0
 59 60  1  0  0  0  0
 59 71  1  0  0  0  0
 60 74  1  0  0  0  0
 61 63  1  0  0  0  0
 61 73  1  0  0  0  0
 62 75  1  0  0  0  0
 64 66  1  0  0  0  0
M  CHG  1  75   1
M  ISO  4  37 100  56 101  74 100  82 101
M  END
> <Batch ID>
0128

> <Smiles>
CCCc1nc(NCC[100NH:0][100C:0](=O)N2CCCC(n3nc(-c4ccc(Oc5ccc(F)cc5F)cc4)c(C(N)=O)c3N)C2)ccc1[101CH2:1][101O:1]c1ccc2c(c1)CN(C(=O)C(NC(=O)C(C)NC)C(C)(C)C)C(C(=O)NC1CCCc3ccccc31)C2

> <Shape>
0.331

> <Color>
0.199

> <Negative vol penalty>
0.000

$$$$

  -OEChem-04052320423D

 83 91  0     1  0  0  0  0  0999 V2000
  -31.2358  -24.5539   17.6272 C   0  0  0  0  0  0  0  0  0  0  0  0
  -30.6995  -24.3018   18.8859 C   0  0  0  0  0  0  0  0  0  0  0  0
  -27.2795  -16.0899   19.0397 C   0  0  0  0  0  0  0  0  0  0  0  0
  -27.3986  -16.2894   21.4445 C   0  0  0  0  0  0  0  0  0  0  0  0
  -31.0167  -25.7854   17.0112 C   0  0  0  0  0  0  0  0  0  0  0  0
  -29.9446  -25.2816   19.5298 C   0  0  0  0  0  0  0  0  0  0  0  0
  -25.7192  -23.4225   21.6119 C   0  0  0  0  0  0  0  0  0  0  0  0
  -28.4879  -16.7766   18.9228 C   0  0  0  0  0  0  0  0  0  0  0  0
  -28.6071  -16.9761   21.3276 C   0  0  0  0  0  0  0  0  0  0  0  0
  -25.8518  -22.7405   22.8207 C   0  0  0  0  0  0  0  0  0  0  0  0
  -31.5420  -19.0962   21.6470 C   0  0  0  0  0  0  0  0  0  0  0  0
  -31.7135  -20.2430   22.4221 C   0  0  0  0  0  0  0  0  0  0  0  0
  -25.1267  -24.7124   24.0059 C   0  0  0  0  0  0  0  0  0  0  0  0
  -23.3032  -21.9247   25.0800 C   0  0  0  0  0  0  0  0  0  0  0  0
  -29.8022  -21.2561   21.3461 C   0  0  0  0  0  0  0  0  0  0  0  0
  -24.5547  -21.3168   26.8506 C   0  0  0  0  0  0  0  0  0  0  0  0
  -26.7348  -15.8463   20.3005 C   0  0  0  0  0  0  0  0  0  0  0  0
  -25.3068  -13.7468   20.5463 C   0  0  0  0  0  0  0  0  0  0  0  0
  -30.2507  -26.7772   17.6438 C   0  0  0  0  0  0  0  0  0  0  0  0
  -25.2991  -24.7603   21.5919 C   0  0  0  0  0  0  0  0  0  0  0  0
  -29.7162  -26.5280   18.9223 C   0  0  0  0  0  0  0  0  0  0  0  0
  -24.9871  -25.4084   22.7955 C   0  0  0  0  0  0  0  0  0  0  0  0
  -29.1518  -17.2197   20.0668 C   0  0  0  0  0  0  0  0  0  0  0  0
  -25.5584  -23.3863   24.0181 C   0  0  0  0  0  0  0  0  0  0  0  0
  -30.5006  -19.0293   20.7213 C   0  0  0  0  0  0  0  0  0  0  0  0
  -24.5843  -22.0344   25.6752 C   0  0  0  0  0  0  0  0  0  1  0  0
  -30.8437  -21.3230   22.2717 C   0  0  0  0  0  0  0  0  0  0  0  0
  -29.6307  -20.1092   20.5709 C   0  0  0  0  0  0  0  0  0  0  0  0
  -25.4862  -15.1375   20.4219 C   0  0  0  0  0  0  0  0  0  0  0  0
  -22.5299  -21.1430   25.9095 C   0  0  0  0  0  0  0  0  0  0  0  0
  -23.9457  -13.5821   20.6283 C   0  0  0  0  0  0  0  0  0  0  0  0
  -26.2833  -12.6976   20.5845 C   0  0  0  0  0  0  0  0  0  0  0  0
  -26.5894  -27.5024   20.6331 C   0  0  0  0  0  0  0  0  0  0  0  0
  -23.6502  -28.6811   21.3359 C   0  0  0  0  0  0  0  0  0  0  0  0
  -20.7480  -28.3635   23.1031 C   0  0  0  0  0  0  0  0  0  0  0  0
  -19.5032  -17.1800   22.4088 C   0  0  0  0  0  0  0  0  0  0  0  0
  -30.0807  -28.1101   16.9589 C   0  0  0  0  0  0  0  0  0  0  0  0
  -25.1355  -25.4737   20.2778 C   0  0  0  0  0  0  0  0  0  0  0  0
  -24.5129  -26.8376   22.8267 C   0  0  0  0  0  0  0  0  0  0  0  0
  -28.9557  -28.9579   17.5469 C   0  0  0  0  0  0  0  0  0  0  0  0
  -19.8389  -15.6026   19.2346 C   0  0  0  0  0  0  0  0  0  0  0  0
  -29.0362  -28.9696   19.0702 C   0  0  0  0  0  0  0  0  0  0  0  0
  -21.3081  -15.1791   19.1901 C   0  0  0  0  0  0  0  0  0  0  0  0
  -19.6586  -16.9407   19.9481 C   0  0  0  0  0  0  0  0  0  0  0  0
  -21.7182  -16.5836   21.2536 C   0  0  0  0  0  0  0  0  0  0  0  0
  -28.8711  -27.5564   19.6422 C   0  0  1  0  0  0  0  0  0  0  0  0
  -25.1937  -26.9923   20.4112 C   0  0  1  0  0  0  0  0  0  0  0  0
  -21.9441  -15.2129   20.5929 C   0  0  2  0  0  0  0  0  0  0  0  0
  -18.5467  -29.5023   23.4968 C   0  0  0  0  0  0  0  0  0  0  0  0
  -22.9094  -20.7199   29.4183 C   0  0  0  0  0  0  0  0  0  0  0  0
  -23.6652  -18.6496   28.1738 C   0  0  0  0  0  0  0  0  0  0  0  0
  -25.0388  -30.7519   23.0948 C   0  0  0  0  0  0  0  0  0  0  0  0
  -22.8271  -31.2182   24.1715 C   0  0  0  0  0  0  0  0  0  0  0  0
  -23.1401  -31.6442   21.7336 C   0  0  0  0  0  0  0  0  0  0  0  0
  -19.2299  -26.0355   22.0860 C   0  0  0  0  0  0  0  0  0  0  0  0
  -21.1233  -20.7144   25.7674 C   0  0  0  0  0  0  0  0  0  0  0  0
  -19.5031  -17.3706   24.8832 C   0  0  0  0  0  0  0  0  0  0  0  0
  -19.5528  -18.8348   25.2780 C   0  0  0  0  0  0  0  0  0  0  0  0
  -22.9976  -29.2616   22.5672 C   0  0  1  0  0  0  0  0  0  0  0  0
  -19.2940  -28.4612   22.6780 C   0  0  2  0  0  0  0  0  0  0  0  0
  -22.8740  -19.9565   28.0929 C   0  0  0  0  0  0  0  0  0  0  0  0
  -23.5117  -30.6927   22.8916 C   0  0  0  0  0  0  0  0  0  0  0  0
  -24.3314  -15.8086   20.4240 N   0  0  0  0  0  0  0  0  0  0  0  0
  -23.3008  -20.7796   26.9828 N   0  0  0  0  0  0  0  0  0  0  0  0
  -23.4133  -14.8354   20.5506 N   0  0  0  0  0  0  0  0  0  0  0  0
  -24.3748  -27.4944   21.5164 N   0  0  0  0  0  0  0  0  0  0  0  0
  -20.2827  -16.9058   21.2730 N   0  0  0  0  0  0  0  0  0  0  0  0
  -23.1643  -12.4890   20.7584 N   0  0  0  0  0  0  0  0  0  0  0  0
  -27.6384  -13.0421   20.4880 N   0  0  0  0  0  0  0  0  0  0  0  0
  -27.4777  -27.1657   19.6295 N   0  0  0  0  0  0  0  0  0  0  0  0
  -21.5583  -29.1803   22.3431 N   0  0  0  0  0  0  0  0  0  0  0  0
  -20.1712  -17.1194   23.6257 N   0  0  0  0  0  0  0  0  0  0  0  0
  -18.6133  -27.1472   22.8545 N   0  3  0  0  0  0  0  0  0  0  0  0
  -20.9644  -19.2834   25.3661 N   0  3  0  0  0  0  0  0  0  0  0  0
  -25.9627  -11.4889   20.6842 O   0  0  0  0  0  0  0  0  0  0  0  0
  -26.8415  -28.1546   21.6395 O   0  0  0  0  0  0  0  0  0  0  0  0
  -23.5159  -29.2555   20.2525 O   0  0  0  0  0  0  0  0  0  0  0  0
  -21.1265  -27.6382   24.0203 O   0  0  0  0  0  0  0  0  0  0  0  0
  -18.2998  -17.4531   22.3437 O   0  0  0  0  0  0  0  0  0  0  0  0
  -30.3311  -17.8896   19.9531 O   0  0  0  0  0  0  0  0  0  0  0  0
  -25.6876  -22.7232   25.1994 O   0  0  0  0  0  0  0  0  0  1  0  0
  -31.0076  -22.4237   23.0172 F   0  0  0  0  0  0  0  0  0  0  0  0
  -28.6277  -20.0504   19.6842 F   0  0  0  0  0  0  0  0  0  0  0  0
  1  2  1  0  0  0  0
  1  5  2  0  0  0  0
  2  6  2  0  0  0  0
  3  8  2  0  0  0  0
  3 17  1  0  0  0  0
  4  9  1  0  0  0  0
  4 17  2  0  0  0  0
  5 19  1  0  0  0  0
  6 21  1  0  0  0  0
  7 10  2  0  0  0  0
  7 20  1  0  0  0  0
  8 23  1  0  0  0  0
  9 23  2  0  0  0  0
 10 24  1  0  0  0  0
 11 12  2  0  0  0  0
 11 25  1  0  0  0  0
 12 27  1  0  0  0  0
 13 22  1  0  0  0  0
 13 24  2  0  0  0  0
 14 26  1  0  0  0  0
 14 30  2  0  0  0  0
 15 27  2  0  0  0  0
 15 28  1  0  0  0  0
 16 26  2  0  0  0  0
 16 64  1  0  0  0  0
 17 29  1  0  0  0  0
 18 29  1  0  0  0  0
 18 31  2  0  0  0  0
 18 32  1  0  0  0  0
 19 21  2  0  0  0  0
 19 37  1  0  0  0  0
 20 22  2  0  0  0  0
 20 38  1  0  0  0  0
 21 46  1  0  0  0  0
 22 39  1  0  0  0  0
 23 80  1  0  0  0  0
 24 81  1  0  0  0  0
 25 28  2  0  0  0  0
 25 80  1  0  0  0  0
 26 81  1  0  0  0  0
 27 82  1  0  0  0  0
 28 83  1  0  0  0  0
 29 63  2  0  0  0  0
 30 56  1  0  0  0  0
 30 64  1  0  0  0  0
 31 65  1  0  0  0  0
 31 68  1  0  0  0  0
 32 69  1  0  0  0  0
 32 75  2  0  0  0  0
 33 47  1  0  0  0  0
 33 70  1  0  0  0  0
 33 76  2  0  0  0  0
 34 59  1  0  0  0  0
 34 66  1  0  0  0  0
 34 77  2  0  0  0  0
 35 60  1  0  0  0  0
 35 71  1  0  0  0  0
 35 78  2  0  0  0  0
 36 67  1  0  0  0  0
 36 72  1  0  0  0  0
 36 79  2  0  0  0  0
 37 40  1  0  0  0  0
 38 47  1  0  0  0  0
 39 66  1  0  0  0  0
 40 42  1  0  0  0  0
 41 43  1  0  0  0  0
 41 44  1  0  0  0  0
 42 46  1  0  0  0  0
 43 48  1  0  0  0  0
 44 67  1  0  0  0  0
 45 48  1  0  0  0  0
 45 67  1  0  0  0  0
 46 70  1  0  0  0  0
 47 66  1  0  0  0  0
 48 65  1  0  0  0  0
 49 60  1  0  0  0  0
 50 61  1  0  0  0  0
 51 61  1  0  0  0  0
 52 62  1  0  0  0  0
 53 62  1  0  0  0  0
 54 62  1  0  0  0  0
 55 73  1  0  0  0  0
 56 74  1  0  0  0  0
 57 58  1  0  0  0  0
 57 72  1  0  0  0  0
 58 74  1  0  0  0  0
 59 62  1  0  0  0  0
 59 71  1  0  0  0  0
 60 73  1  0  0  0  0
 61 64  1  0  0  0  0
 63 65  1  0  0  0  0
M  CHG  2  73   1  74   1
M  ISO  4  26 101  36 100  72 100  81 101
M  END
> <Batch ID>
0128

> <Smiles>
CNC(C)C(=O)NC(C(=O)N1Cc2cc([101O:1][101c:1]3cc(CNCC[100NH:0][100C:0](=O)N4CCCC(n5nc(-c6ccc(Oc7ccc(F)cc7F)cc6)c(C(N)=O)c5N)C4)n(C(C)C)c3)ccc2CC1C(=O)NC1CCCc2ccccc21)C(C)(C)C

> <Shape>
0.227

> <Color>
0.059

> <Negative vol penalty>
0.000

$$$$

  -OEChem-04052320423D

 88 97  0     1  0  0  0  0  0999 V2000
  -27.4687  -35.6868   26.0856 C   0  0  0  0  0  0  0  0  0  0  0  0
  -27.6338  -34.4704   26.7403 C   0  0  0  0  0  0  0  0  0  0  0  0
  -23.0003   -9.8918   19.9856 C   0  0  0  0  0  0  0  0  0  0  0  0
  -23.7251   -9.9520   22.2895 C   0  0  0  0  0  0  0  0  0  0  0  0
  -26.7061  -35.7521   24.9203 C   0  0  0  0  0  0  0  0  0  0  0  0
  -27.0354  -33.3187   26.2305 C   0  0  0  0  0  0  0  0  0  0  0  0
  -29.2713  -27.6201   26.4103 C   0  0  0  0  0  0  0  0  0  0  0  0
  -22.2346   -8.7577   20.2561 C   0  0  0  0  0  0  0  0  0  0  0  0
  -22.9594   -8.8179   22.5600 C   0  0  0  0  0  0  0  0  0  0  0  0
  -29.0236  -26.5416   27.2584 C   0  0  0  0  0  0  0  0  0  0  0  0
  -23.2064   -5.4774   22.1008 C   0  0  0  0  0  0  0  0  0  0  0  0
  -23.7947   -4.4635   22.8568 C   0  0  0  0  0  0  0  0  0  0  0  0
  -28.3577  -19.1367   23.4420 C   0  0  0  0  0  0  0  0  0  0  0  0
  -28.7585  -18.3486   22.3351 C   0  0  0  0  0  0  0  0  0  0  0  0
  -27.4266  -25.6704   25.6742 C   0  0  0  0  0  0  0  0  0  0  0  0
  -22.0703   -4.7114   24.5308 C   0  0  0  0  0  0  0  0  0  0  0  0
  -23.7456  -10.4889   21.0023 C   0  0  0  0  0  0  0  0  0  0  0  0
  -24.1289  -13.0041   20.8168 C   0  0  0  0  0  0  0  0  0  0  0  0
  -26.1060  -34.5988   24.3906 C   0  0  0  0  0  0  0  0  0  0  0  0
  -28.5894  -27.7377   25.1907 C   0  0  0  0  0  0  0  0  0  0  0  0
  -26.2629  -33.3689   25.0577 C   0  0  0  0  0  0  0  0  0  0  0  0
  -27.6693  -26.7500   24.8113 C   0  0  0  0  0  0  0  0  0  0  0  0
  -22.2141   -8.2207   21.5433 C   0  0  0  0  0  0  0  0  0  0  0  0
  -28.0990  -25.5681   26.8918 C   0  0  0  0  0  0  0  0  0  0  0  0
  -22.0502   -6.1084   22.5598 C   0  0  0  0  0  0  0  0  0  0  0  0
  -23.2266   -4.0805   24.0718 C   0  0  0  0  0  0  0  0  0  0  0  0
  -21.4821   -5.7253   23.7748 C   0  0  0  0  0  0  0  0  0  0  0  0
  -24.5371  -11.6601   20.7234 C   0  0  0  0  0  0  0  0  0  0  0  0
  -29.3281  -19.0084   24.4111 C   0  0  0  0  0  0  0  0  0  0  0  0
  -29.9616  -17.7625   22.6615 C   0  0  0  0  0  0  0  0  0  0  0  0
  -25.2381  -13.7262   20.4499 C   0  0  0  0  0  0  0  0  0  0  0  0
  -22.8604  -13.5510   21.2011 C   0  0  0  0  0  0  0  0  0  0  0  0
  -26.5849  -29.8626   23.9373 C   0  0  0  0  0  0  0  0  0  0  0  0
  -26.9077  -28.0222   21.2857 C   0  0  0  0  0  0  0  0  0  0  0  0
  -27.6598  -24.9736   19.9489 C   0  0  0  0  0  0  0  0  0  0  0  0
  -30.7337  -14.6662   20.6958 C   0  0  0  0  0  0  0  0  0  0  0  0
  -25.2517  -34.7275   23.1544 C   0  0  0  0  0  0  0  0  0  0  0  0
  -28.8876  -28.8931   24.2749 C   0  0  0  0  0  0  0  0  0  0  0  0
  -26.9257  -26.8193   23.5033 C   0  0  0  0  0  0  0  0  0  0  0  0
  -24.9609  -33.3926   22.4733 C   0  0  0  0  0  0  0  0  0  0  0  0
  -29.5953  -12.2328   18.3593 C   0  0  0  0  0  0  0  0  0  0  0  0
  -24.5344  -32.3502   23.5020 C   0  0  0  0  0  0  0  0  0  0  0  0
  -28.1470  -11.9734   18.7776 C   0  0  0  0  0  0  0  0  0  0  0  0
  -30.1689  -20.9529   25.7053 C   0  0  0  0  0  0  0  0  0  0  0  0
  -28.0020  -19.8211   26.3460 C   0  0  0  0  0  0  0  0  0  0  0  0
  -30.4974  -12.4734   19.5678 C   0  0  0  0  0  0  0  0  0  0  0  0
  -28.5864  -13.2725   20.9032 C   0  0  0  0  0  0  0  0  0  0  0  0
  -30.2047  -21.6338   27.0675 C   0  0  0  0  0  0  0  0  0  0  0  0
  -28.0546  -20.5105   27.7034 C   0  0  0  0  0  0  0  0  0  0  0  0
  -25.6501  -32.0931   24.5221 C   0  0  1  0  0  0  0  0  0  0  0  0
  -29.4093  -19.6176   25.7621 C   0  0  0  0  0  0  0  0  0  0  0  0
  -27.7583  -29.1823   23.2907 C   0  0  1  0  0  0  0  0  0  0  0  0
  -27.6277  -13.0795   19.7158 C   0  0  2  0  0  0  0  0  0  0  0  0
  -27.7987  -23.7651   17.7540 C   0  0  0  0  0  0  0  0  0  0  0  0
  -32.7650  -18.2580   23.9354 C   0  0  0  0  0  0  0  0  0  0  0  0
  -31.5334  -16.2707   24.9049 C   0  0  0  0  0  0  0  0  0  0  0  0
  -23.8640  -27.8250   21.2045 C   0  0  0  0  0  0  0  0  0  0  0  0
  -24.1007  -25.8927   19.6302 C   0  0  0  0  0  0  0  0  0  0  0  0
  -24.9485  -28.1451   18.9738 C   0  0  0  0  0  0  0  0  0  0  0  0
  -30.5496  -24.4366   20.2952 C   0  0  0  0  0  0  0  0  0  0  0  0
  -30.8145  -16.8496   21.8727 C   0  0  0  0  0  0  0  0  0  0  0  0
  -28.7653  -22.6028   28.8575 C   0  0  0  0  0  0  0  0  0  0  0  0
  -28.9300  -24.0778   28.5484 C   0  0  0  0  0  0  0  0  0  1  0  0
  -26.1921  -26.8155   20.7282 C   0  0  1  0  0  0  0  0  0  0  0  0
  -28.5591  -24.5748   18.7927 C   0  0  2  0  0  0  0  0  0  0  0  0
  -31.4947  -17.7768   24.6393 C   0  0  0  0  0  0  0  0  0  0  0  0
  -24.7887  -27.1690   20.1598 C   0  0  0  0  0  0  0  0  0  0  0  0
  -25.8066  -11.5331   20.3279 N   0  0  0  0  0  0  0  0  0  0  0  0
  -30.2980  -18.1705   23.9258 N   0  0  0  0  0  0  0  0  0  0  0  0
  -26.2055  -12.8066   20.1695 N   0  0  0  0  0  0  0  0  0  0  0  0
  -27.2473  -27.9714   22.6451 N   0  0  0  0  0  0  0  0  0  0  0  0
  -29.9496  -13.5349   20.4158 N   0  0  0  0  0  0  0  0  0  0  0  0
  -25.4705  -15.0517   20.3429 N   0  0  0  0  0  0  0  0  0  0  0  0
  -21.8293  -12.6673   21.5478 N   0  0  0  0  0  0  0  0  0  0  0  0
  -26.6713  -31.2417   23.9504 N   0  0  0  0  0  0  0  0  0  0  0  0
  -27.0983  -26.2177   19.7536 N   0  0  0  0  0  0  0  0  0  0  0  0
  -30.1364  -15.6275   21.5019 N   0  0  0  0  0  0  0  0  0  0  0  0
  -28.7940  -21.8304   27.5899 N   0  3  0  0  0  0  0  0  0  0  0  0
  -29.7016  -23.7539   19.2844 N   0  3  0  0  0  0  0  0  0  0  0  0
  -22.6427  -14.7862   21.2202 O   0  0  0  0  0  0  0  0  0  0  0  0
  -25.6684  -29.1864   24.3894 O   0  0  0  0  0  0  0  0  0  0  0  0
  -27.1626  -28.9718   20.5407 O   0  0  0  0  0  0  0  0  0  0  0  0
  -27.4713  -24.2519   20.9257 O   0  0  0  0  0  0  0  0  0  0  0  0
  -31.8791  -14.8113   20.2553 O   0  0  0  0  0  0  0  0  0  0  0  0
  -21.4669   -7.1142   21.8077 O   0  0  0  0  0  0  0  0  0  0  0  0
  -27.8548  -24.5147   27.7180 O   0  0  0  0  0  0  0  0  0  1  0  0
  -23.7907   -3.1058   24.7970 F   0  0  0  0  0  0  0  0  0  0  0  0
  -20.3707   -6.3270   24.2204 F   0  0  0  0  0  0  0  0  0  0  0  0
  1  2  1  0  0  0  0
  1  5  2  0  0  0  0
  2  6  2  0  0  0  0
  3  8  2  0  0  0  0
  3 17  1  0  0  0  0
  4  9  1  0  0  0  0
  4 17  2  0  0  0  0
  5 19  1  0  0  0  0
  6 21  1  0  0  0  0
  7 10  2  0  0  0  0
  7 20  1  0  0  0  0
  8 23  1  0  0  0  0
  9 23  2  0  0  0  0
 10 24  1  0  0  0  0
 11 12  2  0  0  0  0
 11 25  1  0  0  0  0
 12 26  1  0  0  0  0
 13 14  1  0  0  0  0
 13 29  2  0  0  0  0
 14 30  2  0  0  0  0
 15 22  1  0  0  0  0
 15 24  2  0  0  0  0
 16 26  2  0  0  0  0
 16 27  1  0  0  0  0
 17 28  1  0  0  0  0
 18 28  1  0  0  0  0
 18 31  2  0  0  0  0
 18 32  1  0  0  0  0
 19 21  2  0  0  0  0
 19 37  1  0  0  0  0
 20 22  2  0  0  0  0
 20 38  1  0  0  0  0
 21 50  1  0  0  0  0
 22 39  1  0  0  0  0
 23 85  1  0  0  0  0
 24 86  1  0  0  0  0
 25 27  2  0  0  0  0
 25 85  1  0  0  0  0
 26 87  1  0  0  0  0
 27 88  1  0  0  0  0
 28 68  2  0  0  0  0
 29 51  1  0  0  0  0
 29 69  1  0  0  0  0
 30 61  1  0  0  0  0
 30 69  1  0  0  0  0
 31 70  1  0  0  0  0
 31 73  1  0  0  0  0
 32 74  1  0  0  0  0
 32 80  2  0  0  0  0
 33 52  1  0  0  0  0
 33 75  1  0  0  0  0
 33 81  2  0  0  0  0
 34 64  1  0  0  0  0
 34 71  1  0  0  0  0
 34 82  2  0  0  0  0
 35 65  1  0  0  0  0
 35 76  1  0  0  0  0
 35 83  2  0  0  0  0
 36 72  1  0  0  0  0
 36 77  1  0  0  0  0
 36 84  2  0  0  0  0
 37 40  1  0  0  0  0
 38 52  1  0  0  0  0
 39 71  1  0  0  0  0
 40 42  1  0  0  0  0
 41 43  1  0  0  0  0
 41 46  1  0  0  0  0
 42 50  1  0  0  0  0
 43 53  1  0  0  0  0
 44 48  1  0  0  0  0
 44 51  1  0  0  0  0
 45 49  1  0  0  0  0
 45 51  1  0  0  0  0
 46 72  1  0  0  0  0
 47 53  1  0  0  0  0
 47 72  1  0  0  0  0
 48 78  1  0  0  0  0
 49 78  1  0  0  0  0
 50 75  1  0  0  0  0
 52 71  1  0  0  0  0
 53 70  1  0  0  0  0
 54 65  1  0  0  0  0
 55 66  1  0  0  0  0
 56 66  1  0  0  0  0
 57 67  1  0  0  0  0
 58 67  1  0  0  0  0
 59 67  1  0  0  0  0
 60 79  1  0  0  0  0
 61 77  1  0  0  0  0
 62 63  1  0  0  0  0
 62 78  1  0  0  0  0
 63 86  1  0  0  0  0
 64 67  1  0  0  0  0
 64 76  1  0  0  0  0
 65 79  1  0  0  0  0
 66 69  1  0  0  0  0
 68 70  1  0  0  0  0
M  CHG  2  78   1  79   1
M  ISO  4  36 100  63 101  77 100  86 101
M  END
> <Batch ID>
0128

> <Smiles>
CNC(C)C(=O)NC(C(=O)N1Cc2cc([101O:1][101CH2:1]CN3CCC(c4ccc(C[100NH:0][100C:0](=O)N5CCCC(n6nc(-c7ccc(Oc8ccc(F)cc8F)cc7)c(C(N)=O)c6N)C5)n4C(C)C)CC3)ccc2CC1C(=O)NC1CCCc2ccccc21)C(C)(C)C

> <Shape>
0.313

> <Color>
0.189

> <Negative vol penalty>
0.000

$$$$

  -OEChem-04052320423D

 89 97  0     1  0  0  0  0  0999 V2000
  -22.9360  -23.5650   18.4482 C   0  0  0  0  0  0  0  0  0  0  0  0
  -24.0694  -22.8932   18.8949 C   0  0  0  0  0  0  0  0  0  0  0  0
  -21.8826  -30.9282   22.2511 C   0  0  0  0  0  0  0  0  0  0  0  0
  -23.0856  -29.3692   23.6510 C   0  0  0  0  0  0  0  0  0  0  0  0
  -21.6685  -23.0861   18.7765 C   0  0  0  0  0  0  0  0  0  0  0  0
  -23.9359  -21.7427   19.6713 C   0  0  0  0  0  0  0  0  0  0  0  0
  -27.0433  -18.0284   18.1905 C   0  0  0  0  0  0  0  0  0  0  0  0
  -29.3771  -23.7122   18.3272 C   0  0  0  0  0  0  0  0  0  0  0  0
  -20.8208  -30.9211   23.1556 C   0  0  0  0  0  0  0  0  0  0  0  0
  -22.0238  -29.3621   24.5555 C   0  0  0  0  0  0  0  0  0  0  0  0
  -28.3797  -18.1247   18.5760 C   0  0  0  0  0  0  0  0  0  0  0  0
  -30.2856  -22.7183   18.6911 C   0  0  0  0  0  0  0  0  0  0  0  0
  -17.6421  -31.0351   24.9182 C   0  0  0  0  0  0  0  0  0  0  0  0
  -16.3502  -30.9293   24.4032 C   0  0  0  0  0  0  0  0  0  0  0  0
  -27.9688  -16.5638   20.3687 C   0  0  0  0  0  0  0  0  0  0  0  0
  -31.0264  -24.0754   20.5476 C   0  0  0  0  0  0  0  0  0  0  0  0
  -16.9209  -28.8030   23.4081 C   0  0  0  0  0  0  0  0  0  0  0  0
  -23.0150  -30.1522   22.4988 C   0  0  0  0  0  0  0  0  0  0  0  0
  -25.2255  -31.0199   21.5669 C   0  0  0  0  0  0  0  0  0  0  0  0
  -21.5193  -21.9236   19.5492 C   0  0  0  0  0  0  0  0  0  0  0  0
  -26.1556  -17.2061   18.8991 C   0  0  0  0  0  0  0  0  0  0  0  0
  -22.6651  -21.2485   20.0114 C   0  0  0  0  0  0  0  0  0  0  0  0
  -26.6222  -16.4569   19.9887 C   0  0  0  0  0  0  0  0  0  0  0  0
  -30.1180  -25.0693   20.1836 C   0  0  0  0  0  0  0  0  0  0  0  0
  -29.2934  -24.8877   19.0734 C   0  0  0  0  0  0  0  0  0  0  0  0
  -20.8914  -30.1381   24.3078 C   0  0  0  0  0  0  0  0  0  0  0  0
  -28.8420  -17.3946   19.6670 C   0  0  0  0  0  0  0  0  0  0  0  0
  -31.1102  -22.8999   19.8014 C   0  0  0  0  0  0  0  0  0  0  0  0
  -18.5735  -30.0249   24.6781 C   0  0  0  0  0  0  0  0  0  0  0  0
  -15.9895  -29.8133   23.6482 C   0  0  0  0  0  0  0  0  0  0  0  0
  -18.2129  -28.9089   23.9231 C   0  0  0  0  0  0  0  0  0  0  0  0
  -24.1119  -30.1587   21.5645 C   0  0  0  0  0  0  0  0  0  0  0  0
  -25.9703  -30.6211   20.4841 C   0  0  0  0  0  0  0  0  0  0  0  0
  -25.5570  -32.0851   22.4675 C   0  0  0  0  0  0  0  0  0  0  0  0
  -23.4986  -17.6930   20.5745 C   0  0  0  0  0  0  0  0  0  0  0  0
  -23.4415  -14.4518   20.6894 C   0  0  0  0  0  0  0  0  0  0  0  0
  -25.1735  -11.5159   20.5232 C   0  0  0  0  0  0  0  0  0  0  0  0
  -27.4836  -25.8470   17.6068 C   0  0  0  0  0  0  0  0  0  0  0  0
  -20.1288  -21.4708   19.9184 C   0  0  0  0  0  0  0  0  0  0  0  0
  -24.7233  -17.0926   18.4542 C   0  0  0  0  0  0  0  0  0  0  0  0
  -25.7144  -15.5440   20.7703 C   0  0  0  0  0  0  0  0  0  0  0  0
  -20.0721  -20.0339   20.4308 C   0  0  0  0  0  0  0  0  0  0  0  0
  -25.0187  -28.0844   16.3436 C   0  0  0  0  0  0  0  0  0  0  0  0
  -21.1733  -19.7895   21.4576 C   0  0  0  0  0  0  0  0  0  0  0  0
  -24.6414  -28.9326   17.5603 C   0  0  0  0  0  0  0  0  0  0  0  0
  -25.2957  -26.6322   16.7285 C   0  0  0  0  0  0  0  0  0  0  0  0
  -25.9011  -27.2998   19.0213 C   0  0  0  0  0  0  0  0  0  0  0  0
  -22.5612  -19.9831   20.8349 C   0  0  1  0  0  0  0  0  0  0  0  0
  -23.7887  -16.6200   19.5635 C   0  0  1  0  0  0  0  0  0  0  0  0
  -25.6761  -28.7849   18.6931 C   0  0  2  0  0  0  0  0  0  0  0  0
  -24.8604   -9.0318   20.6918 C   0  0  0  0  0  0  0  0  0  0  0  0
  -31.3755  -31.1730   21.6198 C   0  0  0  0  0  0  0  0  0  0  0  0
  -30.8583  -30.3771   19.3047 C   0  0  0  0  0  0  0  0  0  0  0  0
  -23.2212  -14.6879   23.7235 C   0  0  0  0  0  0  0  0  0  0  0  0
  -23.8640  -12.2738   23.8883 C   0  0  0  0  0  0  0  0  0  0  0  0
  -21.7666  -12.9264   22.7059 C   0  0  0  0  0  0  0  0  0  0  0  0
  -26.1210  -11.0915   17.7517 C   0  0  0  0  0  0  0  0  0  0  0  0
  -30.0503  -26.3181   21.0014 C   0  0  0  0  0  0  0  0  0  0  0  0
  -30.7799  -27.5219   20.3780 C   0  0  0  0  0  0  0  0  0  0  0  0
  -30.7494  -28.7637   21.2781 C   0  0  0  0  0  0  0  0  0  0  0  0
  -31.6933  -18.0676   21.7924 C   0  0  0  0  0  0  0  0  0  0  0  0
  -32.6440  -20.3757   21.8785 C   0  0  0  0  0  0  0  0  0  0  0  0
  -30.4341  -17.3046   21.4313 C   0  0  0  0  0  0  0  0  0  1  0  0
  -32.3163  -21.8170   21.5416 C   0  0  0  0  0  0  0  0  0  0  0  0
  -24.0004  -13.4051   21.6228 C   0  0  1  0  0  0  0  0  0  0  0  0
  -24.9079  -10.2316   19.7586 C   0  0  2  0  0  0  0  0  0  0  0  0
  -31.4540  -29.9851   20.6576 C   0  0  0  0  0  0  0  0  0  0  0  0
  -23.2300  -13.3419   22.9718 C   0  0  0  0  0  0  0  0  0  0  0  0
  -24.1424  -29.2793   20.5597 N   0  0  0  0  0  0  0  0  0  0  0  0
  -25.2841  -29.5858   19.9206 N   0  0  0  0  0  0  0  0  0  0  0  0
  -24.3211  -15.4719   20.3002 N   0  0  0  0  0  0  0  0  0  0  0  0
  -26.2882  -26.5702   17.8036 N   0  0  0  0  0  0  0  0  0  0  0  0
  -27.1387  -31.0585   19.9684 N   0  0  0  0  0  0  0  0  0  0  0  0
  -24.6815  -32.3616   23.5265 N   0  0  0  0  0  0  0  0  0  0  0  0
  -28.3656  -25.8863   18.6862 N   0  0  0  0  0  0  0  0  0  0  0  0
  -22.9235  -18.8297   20.0392 N   0  0  0  0  0  0  0  0  0  0  0  0
  -24.0020  -12.1516   20.8763 N   0  0  0  0  0  0  0  0  0  0  0  0
  -25.9788   -9.9992   18.7485 N   0  3  0  0  0  0  0  0  0  0  0  0
  -31.4812  -19.5140   21.5333 N   0  3  0  0  0  0  0  0  0  0  0  0
  -26.5905  -32.7822   22.3275 O   0  0  0  0  0  0  0  0  0  0  0  0
  -23.7748  -17.5031   21.7533 O   0  0  0  0  0  0  0  0  0  0  0  0
  -22.2699  -14.3634   20.3137 O   0  0  0  0  0  0  0  0  0  0  0  0
  -26.3068  -11.9133   20.7845 O   0  0  0  0  0  0  0  0  0  0  0  0
  -27.7203  -25.2604   16.5476 O   0  0  0  0  0  0  0  0  0  0  0  0
  -19.8556  -30.1310   25.1908 O   0  0  0  0  0  0  0  0  0  0  0  0
  -30.1458  -17.4872   20.0457 O   0  0  0  0  0  0  0  0  0  1  0  0
  -32.0024  -21.9230   20.1593 O   0  0  0  0  0  0  0  0  0  0  0  0
  -14.7484  -29.7111   23.1550 F   0  0  0  0  0  0  0  0  0  0  0  0
  -19.1030  -27.9346   23.6902 F   0  0  0  0  0  0  0  0  0  0  0  0
  1  2  1  0  0  0  0
  1  5  2  0  0  0  0
  2  6  2  0  0  0  0
  3  9  2  0  0  0  0
  3 18  1  0  0  0  0
  4 10  1  0  0  0  0
  4 18  2  0  0  0  0
  5 20  1  0  0  0  0
  6 22  1  0  0  0  0
  7 11  2  0  0  0  0
  7 21  1  0  0  0  0
  8 12  2  0  0  0  0
  8 25  1  0  0  0  0
  9 26  1  0  0  0  0
 10 26  2  0  0  0  0
 11 27  1  0  0  0  0
 12 28  1  0  0  0  0
 13 14  2  0  0  0  0
 13 29  1  0  0  0  0
 14 30  1  0  0  0  0
 15 23  1  0  0  0  0
 15 27  2  0  0  0  0
 16 24  1  0  0  0  0
 16 28  2  0  0  0  0
 17 30  2  0  0  0  0
 17 31  1  0  0  0  0
 18 32  1  0  0  0  0
 19 32  1  0  0  0  0
 19 33  2  0  0  0  0
 19 34  1  0  0  0  0
 20 22  2  0  0  0  0
 20 39  1  0  0  0  0
 21 23  2  0  0  0  0
 21 40  1  0  0  0  0
 22 48  1  0  0  0  0
 23 41  1  0  0  0  0
 24 25  2  0  0  0  0
 24 58  1  0  0  0  0
 25 75  1  0  0  0  0
 26 85  1  0  0  0  0
 27 86  1  0  0  0  0
 28 87  1  0  0  0  0
 29 31  2  0  0  0  0
 29 85  1  0  0  0  0
 30 88  1  0  0  0  0
 31 89  1  0  0  0  0
 32 69  2  0  0  0  0
 33 70  1  0  0  0  0
 33 73  1  0  0  0  0
 34 74  1  0  0  0  0
 34 80  2  0  0  0  0
 35 49  1  0  0  0  0
 35 76  1  0  0  0  0
 35 81  2  0  0  0  0
 36 65  1  0  0  0  0
 36 71  1  0  0  0  0
 36 82  2  0  0  0  0
 37 66  1  0  0  0  0
 37 77  1  0  0  0  0
 37 83  2  0  0  0  0
 38 72  1  0  0  0  0
 38 75  1  0  0  0  0
 38 84  2  0  0  0  0
 39 42  1  0  0  0  0
 40 49  1  0  0  0  0
 41 71  1  0  0  0  0
 42 44  1  0  0  0  0
 43 45  1  0  0  0  0
 43 46  1  0  0  0  0
 44 48  1  0  0  0  0
 45 50  1  0  0  0  0
 46 72  1  0  0  0  0
 47 50  1  0  0  0  0
 47 72  1  0  0  0  0
 48 76  1  0  0  0  0
 49 71  1  0  0  0  0
 50 70  1  0  0  0  0
 51 66  1  0  0  0  0
 52 67  1  0  0  0  0
 53 67  1  0  0  0  0
 54 68  1  0  0  0  0
 55 68  1  0  0  0  0
 56 68  1  0  0  0  0
 57 78  1  0  0  0  0
 58 59  1  0  0  0  0
 59 60  1  0  0  0  0
 60 67  1  0  0  0  0
 61 63  1  0  0  0  0
 61 79  1  0  0  0  0
 62 64  1  0  0  0  0
 62 79  1  0  0  0  0
 63 86  1  0  0  0  0
 64 87  1  0  0  0  0
 65 68  1  0  0  0  0
 65 77  1  0  0  0  0
 66 78  1  0  0  0  0
 69 70  1  0  0  0  0
M  CHG  2  78   1  79   1
M  ISO  4  38 100  63 101  75 100  86 101
M  END
> <Batch ID>
0128

> <Smiles>
CNC(C)C(=O)NC(C(=O)N1Cc2cc([101O:1][101CH2:1]CNCCOc3ccc([100NH:0][100C:0](=O)N4CCCC(n5nc(-c6ccc(Oc7ccc(F)cc7F)cc6)c(C(N)=O)c5N)C4)c(CCCC(C)C)c3)ccc2CC1C(=O)NC1CCCc2ccccc21)C(C)(C)C

> <Shape>
0.252

> <Color>
0.070

> <Negative vol penalty>
0.000

$$$$

  -OEChem-04052320423D

 84 93  0     1  0  0  0  0  0999 V2000
  -22.4605  -37.3223   23.9754 C   0  0  0  0  0  0  0  0  0  0  0  0
  -23.5959  -36.5194   24.0143 C   0  0  0  0  0  0  0  0  0  0  0  0
  -23.8504  -13.5092   20.7361 C   0  0  0  0  0  0  0  0  0  0  0  0
  -26.2636  -13.4856   20.8496 C   0  0  0  0  0  0  0  0  0  0  0  0
  -21.1962  -36.7375   23.9177 C   0  0  0  0  0  0  0  0  0  0  0  0
  -23.4676  -35.1310   23.9966 C   0  0  0  0  0  0  0  0  0  0  0  0
  -27.2541  -31.1174   21.3397 C   0  0  0  0  0  0  0  0  0  0  0  0
  -30.8317  -22.4230   21.0264 C   0  0  0  0  0  0  0  0  0  0  0  0
  -23.8511  -12.1469   20.4367 C   0  0  0  0  0  0  0  0  0  0  0  0
  -26.2643  -12.1232   20.5501 C   0  0  0  0  0  0  0  0  0  0  0  0
  -28.2853  -30.3257   21.8433 C   0  0  0  0  0  0  0  0  0  0  0  0
  -24.1924   -9.2288   22.1103 C   0  0  0  0  0  0  0  0  0  0  0  0
  -23.2799   -8.4166   22.7836 C   0  0  0  0  0  0  0  0  0  0  0  0
  -30.4811  -21.4651   20.0832 C   0  0  0  0  0  0  0  0  0  0  0  0
  -26.7551  -28.4718   22.0456 C   0  0  0  0  0  0  0  0  0  0  0  0
  -22.2869   -7.7833   20.6741 C   0  0  0  0  0  0  0  0  0  0  0  0
  -25.0567  -14.1786   20.9425 C   0  0  0  0  0  0  0  0  0  0  0  0
  -25.0026  -16.1761   22.5283 C   0  0  0  0  0  0  0  0  0  0  0  0
  -21.0527  -35.3413   23.8895 C   0  0  0  0  0  0  0  0  0  0  0  0
  -25.9609  -30.5946   21.1953 C   0  0  0  0  0  0  0  0  0  0  0  0
  -22.2001  -34.5269   23.9398 C   0  0  0  0  0  0  0  0  0  0  0  0
  -30.6805  -23.7803   20.7342 C   0  0  0  0  0  0  0  0  0  0  0  0
  -25.7098  -29.2582   21.5376 C   0  0  0  0  0  0  0  0  0  0  0  0
  -25.0580  -11.4539   20.3437 C   0  0  0  0  0  0  0  0  0  0  0  0
  -28.0353  -29.0036   22.1990 C   0  0  0  0  0  0  0  0  0  0  0  0
  -24.1520   -9.3183   20.7188 C   0  0  0  0  0  0  0  0  0  0  0  0
  -22.3272   -7.6938   22.0655 C   0  0  0  0  0  0  0  0  0  0  0  0
  -23.1993   -8.5955   20.0007 C   0  0  0  0  0  0  0  0  0  0  0  0
  -25.0566  -15.5860   21.2514 C   0  0  0  0  0  0  0  0  0  0  0  0
  -30.1920  -24.1259   19.4718 C   0  0  0  0  0  0  0  0  0  0  0  0
  -29.9927  -21.9052   18.8665 C   0  0  0  0  0  0  0  0  0  0  0  0
  -25.0282  -17.5273   22.2835 C   0  0  0  0  0  0  0  0  0  0  0  0
  -24.9353  -15.5581   23.8203 C   0  0  0  0  0  0  0  0  0  0  0  0
  -23.1133  -31.2806   22.4298 C   0  0  0  0  0  0  0  0  0  0  0  0
  -22.0914  -29.0407   20.3176 C   0  0  0  0  0  0  0  0  0  0  0  0
  -22.8241  -26.3016   18.4184 C   0  0  0  0  0  0  0  0  0  0  0  0
  -27.1264  -20.8080   17.7353 C   0  0  0  0  0  0  0  0  0  0  0  0
  -19.6634  -34.7545   23.8747 C   0  0  0  0  0  0  0  0  0  0  0  0
  -24.8656  -31.4537   20.6256 C   0  0  0  0  0  0  0  0  0  0  0  0
  -24.3437  -28.6431   21.3827 C   0  0  0  0  0  0  0  0  0  0  0  0
  -31.0927  -24.8239   21.7303 C   0  0  0  0  0  0  0  0  0  0  0  0
  -29.9731  -25.5704   19.1069 C   0  0  0  0  0  0  0  0  0  0  0  0
  -19.6292  -33.2800   23.4812 C   0  0  0  0  0  0  0  0  0  0  0  0
  -23.7905  -20.7580   18.9787 C   0  0  0  0  0  0  0  0  0  0  0  0
  -20.6999  -32.5005   24.2380 C   0  0  0  0  0  0  0  0  0  0  0  0
  -23.7318  -19.4801   19.8174 C   0  0  0  0  0  0  0  0  0  0  0  0
  -24.6599  -20.5782   17.7362 C   0  0  0  0  0  0  0  0  0  0  0  0
  -25.9638  -18.8015   18.8393 C   0  0  0  0  0  0  0  0  0  0  0  0
  -30.8136  -26.5342   19.9362 C   0  0  0  0  0  0  0  0  0  0  0  0
  -22.1029  -33.0173   23.8973 C   0  0  1  0  0  0  0  0  0  0  0  0
  -23.4690  -30.9698   21.0034 C   0  0  1  0  0  0  0  0  0  0  0  0
  -25.1439  -18.9507   20.1322 C   0  0  2  0  0  0  0  0  0  0  0  0
  -21.7744  -24.6703   16.8264 C   0  0  0  0  0  0  0  0  0  0  0  0
  -20.7361  -27.6309   22.6597 C   0  0  0  0  0  0  0  0  0  0  0  0
  -20.5378  -25.5886   21.2252 C   0  0  0  0  0  0  0  0  0  0  0  0
  -19.3833  -27.6966   20.5573 C   0  0  0  0  0  0  0  0  0  0  0  0
  -24.6504  -27.0878   16.2263 C   0  0  0  0  0  0  0  0  0  0  0  0
  -29.6045  -20.9050   17.8290 C   0  0  0  0  0  0  0  0  0  0  0  0
  -31.2047  -27.2585   22.2984 C   0  0  0  0  0  0  0  0  0  0  0  0
  -30.3630  -28.5181   22.2420 C   0  0  0  0  0  0  0  0  0  1  0  0
  -21.8989  -27.5439   20.3561 C   0  0  1  0  0  0  0  0  0  0  0  0
  -22.5371  -25.9788   16.9631 C   0  0  2  0  0  0  0  0  0  0  0  0
  -20.6644  -27.1269   21.2044 C   0  0  0  0  0  0  0  0  0  0  0  0
  -25.1122  -16.4884   20.2682 N   0  0  0  0  0  0  0  0  0  0  0  0
  -29.8370  -23.2071   18.5396 N   0  0  0  0  0  0  0  0  0  0  0  0
  -25.0931  -17.6593   20.9276 N   0  0  0  0  0  0  0  0  0  0  0  0
  -23.3043  -29.5255   20.8272 N   0  0  0  0  0  0  0  0  0  0  0  0
  -25.9858  -20.0757   18.1039 N   0  0  0  0  0  0  0  0  0  0  0  0
  -25.0011  -18.6036   23.0979 N   0  0  0  0  0  0  0  0  0  0  0  0
  -24.9175  -14.1584   23.8913 N   0  0  0  0  0  0  0  0  0  0  0  0
  -22.5255  -32.5187   22.6061 N   0  0  0  0  0  0  0  0  0  0  0  0
  -21.8453  -27.1033   18.9664 N   0  0  0  0  0  0  0  0  0  0  0  0
  -28.3432  -20.2646   18.1287 N   0  0  0  0  0  0  0  0  0  0  0  0
  -30.6026  -26.2191   21.3967 N   0  3  2  0  0  0  0  0  0  0  0  0
  -23.8104  -25.8629   16.1974 N   0  3  0  0  0  0  0  0  0  0  0  0
  -24.8758  -16.2273   24.8796 O   0  0  0  0  0  0  0  0  0  0  0  0
  -23.3529  -30.4573   23.3053 O   0  0  0  0  0  0  0  0  0  0  0  0
  -21.2016  -29.7530   19.8460 O   0  0  0  0  0  0  0  0  0  0  0  0
  -23.8154  -25.8812   19.0110 O   0  0  0  0  0  0  0  0  0  0  0  0
  -27.0646  -21.8703   17.1071 O   0  0  0  0  0  0  0  0  0  0  0  0
  -25.0591  -10.1245   20.0517 O   0  0  0  0  0  0  0  0  0  0  0  0
  -29.0399  -28.2288   22.6914 O   0  0  0  0  0  0  0  0  0  1  0  0
  -21.4521   -6.9127   22.7122 F   0  0  0  0  0  0  0  0  0  0  0  0
  -23.1565   -8.6766   18.6638 F   0  0  0  0  0  0  0  0  0  0  0  0
  1  2  1  0  0  0  0
  1  5  2  0  0  0  0
  2  6  2  0  0  0  0
  3  9  2  0  0  0  0
  3 17  1  0  0  0  0
  4 10  1  0  0  0  0
  4 17  2  0  0  0  0
  5 19  1  0  0  0  0
  6 21  1  0  0  0  0
  7 11  2  0  0  0  0
  7 20  1  0  0  0  0
  8 14  2  0  0  0  0
  8 22  1  0  0  0  0
  9 24  1  0  0  0  0
 10 24  2  0  0  0  0
 11 25  1  0  0  0  0
 12 13  2  0  0  0  0
 12 26  1  0  0  0  0
 13 27  1  0  0  0  0
 14 31  1  0  0  0  0
 15 23  1  0  0  0  0
 15 25  2  0  0  0  0
 16 27  2  0  0  0  0
 16 28  1  0  0  0  0
 17 29  1  0  0  0  0
 18 29  1  0  0  0  0
 18 32  2  0  0  0  0
 18 33  1  0  0  0  0
 19 21  2  0  0  0  0
 19 38  1  0  0  0  0
 20 23  2  0  0  0  0
 20 39  1  0  0  0  0
 21 50  1  0  0  0  0
 22 30  2  0  0  0  0
 22 41  1  0  0  0  0
 23 40  1  0  0  0  0
 24 81  1  0  0  0  0
 25 82  1  0  0  0  0
 26 28  2  0  0  0  0
 26 81  1  0  0  0  0
 27 83  1  0  0  0  0
 28 84  1  0  0  0  0
 29 64  2  0  0  0  0
 30 42  1  0  0  0  0
 30 65  1  0  0  0  0
 31 58  1  0  0  0  0
 31 65  2  0  0  0  0
 32 66  1  0  0  0  0
 32 69  1  0  0  0  0
 33 70  1  0  0  0  0
 33 76  2  0  0  0  0
 34 51  1  0  0  0  0
 34 71  1  0  0  0  0
 34 77  2  0  0  0  0
 35 61  1  0  0  0  0
 35 67  1  0  0  0  0
 35 78  2  0  0  0  0
 36 62  1  0  0  0  0
 36 72  1  0  0  0  0
 36 79  2  0  0  0  0
 37 68  1  0  0  0  0
 37 73  1  0  0  0  0
 37 80  2  0  0  0  0
 38 43  1  0  0  0  0
 39 51  1  0  0  0  0
 40 67  1  0  0  0  0
 41 74  1  0  0  0  0
 42 49  1  0  0  0  0
 43 45  1  0  0  0  0
 44 46  1  0  0  0  0
 44 47  1  0  0  0  0
 45 50  1  0  0  0  0
 46 52  1  0  0  0  0
 47 68  1  0  0  0  0
 48 52  1  0  0  0  0
 48 68  1  0  0  0  0
 49 74  1  0  0  0  0
 50 71  1  0  0  0  0
 51 67  1  0  0  0  0
 52 66  1  0  0  0  0
 53 62  1  0  0  0  0
 54 63  1  0  0  0  0
 55 63  1  0  0  0  0
 56 63  1  0  0  0  0
 57 75  1  0  0  0  0
 58 73  1  0  0  0  0
 59 60  1  0  0  0  0
 59 74  1  0  0  0  0
 60 82  1  0  0  0  0
 61 63  1  0  0  0  0
 61 72  1  0  0  0  0
 62 75  1  0  0  0  0
 64 66  1  0  0  0  0
M  CHG  2  74   1  75   1
M  ISO  4  37 100  60 101  73 100  82 101
M  END
> <Batch ID>
0128

> <Smiles>
CNC(C)C(=O)NC(C(=O)N1Cc2cc([101O:1][101CH2:1]CN3CCc4nc(C[100NH:0][100C:0](=O)N5CCCC(n6nc(-c7ccc(Oc8ccc(F)cc8F)cc7)c(C(N)=O)c6N)C5)ccc4C3)ccc2CC1C(=O)NC1CCCc2ccccc21)C(C)(C)C

> <Shape>
0.231

> <Color>
0.059

> <Negative vol penalty>
0.000

$$$$

  -OEChem-04052320423D

 81 89  0     1  0  0  0  0  0999 V2000
  -25.9048   -6.9630   23.0526 C   0  0  0  0  0  0  0  0  0  0  0  0
  -26.6941   -8.0531   22.7004 C   0  0  0  0  0  0  0  0  0  0  0  0
  -21.4994  -30.1621   20.9884 C   0  0  0  0  0  0  0  0  0  0  0  0
  -22.5050  -28.9466   22.8183 C   0  0  0  0  0  0  0  0  0  0  0  0
  -24.5699   -6.9124   22.6532 C   0  0  0  0  0  0  0  0  0  0  0  0
  -26.1492   -9.0928   21.9477 C   0  0  0  0  0  0  0  0  0  0  0  0
  -27.5101  -15.0490   22.3698 C   0  0  0  0  0  0  0  0  0  0  0  0
  -30.7400  -23.4308   19.6692 C   0  0  0  0  0  0  0  0  0  0  0  0
  -28.8009  -23.7377   21.0772 C   0  0  0  0  0  0  0  0  0  0  0  0
  -20.2388  -29.7155   21.3846 C   0  0  0  0  0  0  0  0  0  0  0  0
  -21.2443  -28.5001   23.2145 C   0  0  0  0  0  0  0  0  0  0  0  0
  -28.3530  -15.8735   21.6259 C   0  0  0  0  0  0  0  0  0  0  0  0
  -30.4441  -22.0723   19.5577 C   0  0  0  0  0  0  0  0  0  0  0  0
  -28.5049  -22.3792   20.9657 C   0  0  0  0  0  0  0  0  0  0  0  0
  -19.0299  -26.1280   22.2655 C   0  0  0  0  0  0  0  0  0  0  0  0
  -18.8943  -24.7797   22.5960 C   0  0  0  0  0  0  0  0  0  0  0  0
  -26.4719  -16.5840   20.2933 C   0  0  0  0  0  0  0  0  0  0  0  0
  -18.1925  -25.3963   24.8241 C   0  0  0  0  0  0  0  0  0  0  0  0
  -22.6326  -29.7776   21.7053 C   0  0  0  0  0  0  0  0  0  0  0  0
  -24.5922  -31.4108   21.7144 C   0  0  0  0  0  0  0  0  0  0  0  0
  -24.0058   -7.9565   21.9035 C   0  0  0  0  0  0  0  0  0  0  0  0
  -26.1413  -14.9773   22.0735 C   0  0  0  0  0  0  0  0  0  0  0  0
  -24.8059   -9.0555   21.5368 C   0  0  0  0  0  0  0  0  0  0  0  0
  -25.6133  -15.7597   21.0365 C   0  0  0  0  0  0  0  0  0  0  0  0
  -29.9184  -24.2635   20.4290 C   0  0  0  0  0  0  0  0  0  0  0  0
  -20.1112  -28.8845   22.4976 C   0  0  0  0  0  0  0  0  0  0  0  0
  -29.3265  -21.5465   20.2060 C   0  0  0  0  0  0  0  0  0  0  0  0
  -27.8345  -16.6390   20.5856 C   0  0  0  0  0  0  0  0  0  0  0  0
  -18.7468  -27.1106   23.2144 C   0  0  0  0  0  0  0  0  0  0  0  0
  -18.4756  -24.4138   23.8752 C   0  0  0  0  0  0  0  0  0  0  0  0
  -18.3281  -26.7447   24.4936 C   0  0  0  0  0  0  0  0  0  0  0  0
  -23.9351  -30.2381   21.2962 C   0  0  0  0  0  0  0  0  0  0  0  0
  -25.7906  -31.3907   21.0436 C   0  0  0  0  0  0  0  0  0  0  0  0
  -24.1581  -32.4274   22.6275 C   0  0  0  0  0  0  0  0  0  0  0  0
  -24.1692  -12.6719   21.1253 C   0  0  0  0  0  0  0  0  0  0  0  0
  -21.9108  -14.9587   21.5638 C   0  0  0  0  0  0  0  0  0  0  0  0
  -21.1458  -18.2803   21.7335 C   0  0  0  0  0  0  0  0  0  0  0  0
  -29.0951  -26.9655   18.7310 C   0  0  0  0  0  0  0  0  0  0  0  0
  -22.5711   -7.8350   21.4545 C   0  0  0  0  0  0  0  0  0  0  0  0
  -25.2408  -14.1033   22.9026 C   0  0  0  0  0  0  0  0  0  0  0  0
  -24.1475  -15.7341   20.6913 C   0  0  0  0  0  0  0  0  0  0  0  0
  -21.9682   -9.1540   20.9779 C   0  0  0  0  0  0  0  0  0  0  0  0
  -27.7936  -29.7933   17.0029 C   0  0  0  0  0  0  0  0  0  0  0  0
  -22.9289   -9.8697   20.0337 C   0  0  0  0  0  0  0  0  0  0  0  0
  -26.7164  -30.3338   17.9450 C   0  0  0  0  0  0  0  0  0  0  0  0
  -27.8524  -28.2676   17.0291 C   0  0  0  0  0  0  0  0  0  0  0  0
  -26.9294  -28.2171   19.3137 C   0  0  0  0  0  0  0  0  0  0  0  0
  -24.2444  -10.2145   20.7422 C   0  0  1  0  0  0  0  0  0  0  0  0
  -23.9526  -13.7183   22.1816 C   0  0  1  0  0  0  0  0  0  0  0  0
  -26.8698  -29.7534   19.3638 C   0  0  2  0  0  0  0  0  0  0  0  0
  -19.2093  -19.8413   22.0662 C   0  0  0  0  0  0  0  0  0  0  0  0
  -20.9858  -14.4161   18.7072 C   0  0  0  0  0  0  0  0  0  0  0  0
  -19.7392  -16.5864   18.7728 C   0  0  0  0  0  0  0  0  0  0  0  0
  -19.1362  -14.7554   20.3560 C   0  0  0  0  0  0  0  0  0  0  0  0
  -22.3510  -19.4410   24.1746 C   0  0  0  0  0  0  0  0  0  0  0  0
  -30.2343  -25.7161   20.5477 C   0  0  0  0  0  0  0  0  0  0  0  0
  -30.1360  -19.3292   19.9153 C   0  0  0  0  0  0  0  0  0  0  0  0
  -29.7955  -17.9830   20.5249 C   0  0  0  0  0  0  0  0  0  1  0  0
  -21.2924  -16.0303   20.6988 C   0  0  1  0  0  0  0  0  0  0  0  0
  -20.3379  -19.0777   22.7414 C   0  0  2  0  0  0  0  0  0  0  0  0
  -20.3164  -15.4463   19.6387 C   0  0  0  0  0  0  0  0  0  0  0  0
  -24.6562  -29.5250   20.4270 N   0  0  0  0  0  0  0  0  0  0  0  0
  -25.7788  -30.2518   20.2934 N   0  0  0  0  0  0  0  0  0  0  0  0
  -23.3088  -14.8590   21.5269 N   0  0  0  0  0  0  0  0  0  0  0  0
  -27.9999  -27.7815   18.4031 N   0  0  0  0  0  0  0  0  0  0  0  0
  -26.8427  -32.2365   21.0281 N   0  0  0  0  0  0  0  0  0  0  0  0
  -22.8992  -32.2923   23.2286 N   0  0  0  0  0  0  0  0  0  0  0  0
  -24.0725  -11.3743   21.5906 N   0  0  0  0  0  0  0  0  0  0  0  0
  -20.6790  -16.9886   21.6120 N   0  0  0  0  0  0  0  0  0  0  0  0
  -29.1630  -26.5538   20.0564 N   0  0  0  0  0  0  0  0  0  0  0  0
  -21.2117  -20.0572   23.4471 N   0  3  0  0  0  0  0  0  0  0  0  0
  -24.8587  -33.4343   22.8898 O   0  0  0  0  0  0  0  0  0  0  0  0
  -24.4049  -13.0161   19.9731 O   0  0  0  0  0  0  0  0  0  0  0  0
  -21.1808  -14.2414   22.2524 O   0  0  0  0  0  0  0  0  0  0  0  0
  -22.0937  -18.7568   21.1130 O   0  0  0  0  0  0  0  0  0  0  0  0
  -29.9521  -26.6332   17.9051 O   0  0  0  0  0  0  0  0  0  0  0  0
  -18.8812  -28.4488   22.8846 O   0  0  0  0  0  0  0  0  0  0  0  0
  -29.0353  -20.2123   20.0953 O   0  0  0  0  0  0  0  0  0  0  0  0
  -28.6551  -17.4442   19.8575 O   0  0  0  0  0  0  0  0  0  1  0  0
  -18.3439  -23.1190   24.1919 F   0  0  0  0  0  0  0  0  0  0  0  0
  -18.0536  -27.6841   25.4090 F   0  0  0  0  0  0  0  0  0  0  0  0
  1  2  1  0  0  0  0
  1  5  2  0  0  0  0
  2  6  2  0  0  0  0
  3 10  2  0  0  0  0
  3 19  1  0  0  0  0
  4 11  1  0  0  0  0
  4 19  2  0  0  0  0
  5 21  1  0  0  0  0
  6 23  1  0  0  0  0
  7 12  2  0  0  0  0
  7 22  1  0  0  0  0
  8 13  2  0  0  0  0
  8 25  1  0  0  0  0
  9 14  1  0  0  0  0
  9 25  2  0  0  0  0
 10 26  1  0  0  0  0
 11 26  2  0  0  0  0
 12 28  1  0  0  0  0
 13 27  1  0  0  0  0
 14 27  2  0  0  0  0
 15 16  2  0  0  0  0
 15 29  1  0  0  0  0
 16 30  1  0  0  0  0
 17 24  1  0  0  0  0
 17 28  2  0  0  0  0
 18 30  2  0  0  0  0
 18 31  1  0  0  0  0
 19 32  1  0  0  0  0
 20 32  1  0  0  0  0
 20 33  2  0  0  0  0
 20 34  1  0  0  0  0
 21 23  2  0  0  0  0
 21 39  1  0  0  0  0
 22 24  2  0  0  0  0
 22 40  1  0  0  0  0
 23 48  1  0  0  0  0
 24 41  1  0  0  0  0
 25 56  1  0  0  0  0
 26 77  1  0  0  0  0
 27 78  1  0  0  0  0
 28 79  1  0  0  0  0
 29 31  2  0  0  0  0
 29 77  1  0  0  0  0
 30 80  1  0  0  0  0
 31 81  1  0  0  0  0
 32 62  2  0  0  0  0
 33 63  1  0  0  0  0
 33 66  1  0  0  0  0
 34 67  1  0  0  0  0
 34 72  2  0  0  0  0
 35 49  1  0  0  0  0
 35 68  1  0  0  0  0
 35 73  2  0  0  0  0
 36 59  1  0  0  0  0
 36 64  1  0  0  0  0
 36 74  2  0  0  0  0
 37 60  1  0  0  0  0
 37 69  1  0  0  0  0
 37 75  2  0  0  0  0
 38 65  1  0  0  0  0
 38 70  1  0  0  0  0
 38 76  2  0  0  0  0
 39 42  1  0  0  0  0
 40 49  1  0  0  0  0
 41 64  1  0  0  0  0
 42 44  1  0  0  0  0
 43 45  1  0  0  0  0
 43 46  1  0  0  0  0
 44 48  1  0  0  0  0
 45 50  1  0  0  0  0
 46 65  1  0  0  0  0
 47 50  1  0  0  0  0
 47 65  1  0  0  0  0
 48 68  1  0  0  0  0
 49 64  1  0  0  0  0
 50 63  1  0  0  0  0
 51 60  1  0  0  0  0
 52 61  1  0  0  0  0
 53 61  1  0  0  0  0
 54 61  1  0  0  0  0
 55 71  1  0  0  0  0
 56 70  1  0  0  0  0
 57 58  1  0  0  0  0
 57 78  1  0  0  0  0
 58 79  1  0  0  0  0
 59 61  1  0  0  0  0
 59 69  1  0  0  0  0
 60 71  1  0  0  0  0
 62 63  1  0  0  0  0
M  CHG  1  71   1
M  ISO  4  38 100  58 101  70 100  79 101
M  END
> <Batch ID>
0128

> <Smiles>
CNC(C)C(=O)NC(C(=O)N1Cc2cc([101O:1][101CH2:1]COc3ccc(C[100NH:0][100C:0](=O)N4CCCC(n5nc(-c6ccc(Oc7ccc(F)cc7F)cc6)c(C(N)=O)c5N)C4)cc3)ccc2CC1C(=O)NC1CCCc2ccccc21)C(C)(C)C

> <Shape>
0.269

> <Color>
0.051

> <Negative vol penalty>
0.000

$$$$

  -OEChem-04052320423D

 88 97  0     1  0  0  0  0  0999 V2000
  -16.8611  -26.4096   20.2101 C   0  0  0  0  0  0  0  0  0  0  0  0
  -18.0801  -25.8253   19.8814 C   0  0  0  0  0  0  0  0  0  0  0  0
  -28.5544  -23.1451   18.2711 C   0  0  0  0  0  0  0  0  0  0  0  0
  -28.0469  -23.5809   20.5926 C   0  0  0  0  0  0  0  0  0  0  0  0
  -16.7768  -27.2798   21.2962 C   0  0  0  0  0  0  0  0  0  0  0  0
  -19.2158  -26.1118   20.6380 C   0  0  0  0  0  0  0  0  0  0  0  0
  -21.9186  -21.9707   21.7294 C   0  0  0  0  0  0  0  0  0  0  0  0
  -27.6739  -24.1570   17.8886 C   0  0  0  0  0  0  0  0  0  0  0  0
  -27.1664  -24.5929   20.2101 C   0  0  0  0  0  0  0  0  0  0  0  0
  -22.7301  -21.4556   20.7195 C   0  0  0  0  0  0  0  0  0  0  0  0
  -27.3624  -27.8073   19.1857 C   0  0  0  0  0  0  0  0  0  0  0  0
  -27.4238  -29.0148   19.8813 C   0  0  0  0  0  0  0  0  0  0  0  0
  -24.6469  -22.5209   21.7246 C   0  0  0  0  0  0  0  0  0  0  0  0
  -25.1201  -28.7428   20.5568 C   0  0  0  0  0  0  0  0  0  0  0  0
  -28.7409  -22.8570   19.6231 C   0  0  0  0  0  0  0  0  0  0  0  0
  -31.0242  -21.9394   20.2954 C   0  0  0  0  0  0  0  0  0  0  0  0
  -17.9100  -27.5696   22.0724 C   0  0  0  0  0  0  0  0  0  0  0  0
  -22.4642  -22.7752   22.7401 C   0  0  0  0  0  0  0  0  0  0  0  0
  -19.1469  -26.9878   21.7347 C   0  0  0  0  0  0  0  0  0  0  0  0
  -23.8406  -23.0429   22.7476 C   0  0  0  0  0  0  0  0  0  0  0  0
  -26.9799  -24.8809   18.8581 C   0  0  0  0  0  0  0  0  0  0  0  0
  -24.0940  -21.7330   20.7154 C   0  0  0  0  0  0  0  0  0  0  0  0
  -26.1799  -27.0676   19.1756 C   0  0  0  0  0  0  0  0  0  0  0  0
  -26.3027  -29.4825   20.5668 C   0  0  0  0  0  0  0  0  0  0  0  0
  -25.0588  -27.5353   19.8611 C   0  0  0  0  0  0  0  0  0  0  0  0
  -29.6498  -21.8114   20.0188 C   0  0  0  0  0  0  0  0  0  0  0  0
  -31.4283  -20.6684   20.6233 C   0  0  0  0  0  0  0  0  0  0  0  0
  -31.8607  -23.1033   20.2594 C   0  0  0  0  0  0  0  0  0  0  0  0
  -22.0355  -25.7766   23.6947 C   0  0  0  0  0  0  0  0  0  0  0  0
  -26.9015  -13.6251   19.3309 C   0  0  0  0  0  0  0  0  0  0  0  0
  -24.0313  -24.8878   26.0925 C   0  0  0  0  0  0  0  0  0  0  0  0
  -26.4876  -22.7876   27.1890 C   0  0  0  0  0  0  0  0  0  0  0  0
  -29.5954  -15.3802   19.2259 C   0  0  0  0  0  0  0  0  0  0  0  0
  -17.7798  -28.5532   23.2082 C   0  0  0  0  0  0  0  0  0  0  0  0
  -21.5799  -23.3011   23.8372 C   0  0  0  0  0  0  0  0  0  0  0  0
  -24.4789  -23.8844   23.8213 C   0  0  0  0  0  0  0  0  0  0  0  0
  -18.9509  -28.5124   24.1866 C   0  0  0  0  0  0  0  0  0  0  0  0
  -28.8547  -11.1820   19.8612 C   0  0  0  0  0  0  0  0  0  0  0  0
  -30.0684  -11.7129   19.1094 C   0  0  0  0  0  0  0  0  0  0  0  0
  -29.8084  -16.5830   22.5023 C   0  0  0  0  0  0  0  0  0  0  0  0
  -20.2766  -28.5004   23.4321 C   0  0  0  0  0  0  0  0  0  0  0  0
  -28.3167  -12.2155   20.8499 C   0  0  0  0  0  0  0  0  0  0  0  0
  -25.1956  -18.2415   17.4650 C   0  0  0  0  0  0  0  0  0  0  0  0
  -24.1567  -17.5343   19.6597 C   0  0  0  0  0  0  0  0  0  0  0  0
  -29.9307  -18.0883   22.2667 C   0  0  0  0  0  0  0  0  0  0  0  0
  -25.4898  -19.6185   18.0523 C   0  0  0  0  0  0  0  0  0  0  0  0
  -24.4533  -18.9136   20.2408 C   0  0  0  0  0  0  0  0  0  0  0  0
  -28.7923  -15.9369   21.5589 C   0  0  0  0  0  0  0  0  0  0  0  0
  -29.7718  -13.0497   18.4422 C   0  0  0  0  0  0  0  0  0  0  0  0
  -29.1602  -17.7260   19.8909 C   0  0  0  0  0  0  0  0  0  0  0  0
  -20.3960  -27.2544   22.5463 C   0  0  1  0  0  0  0  0  0  0  0  0
  -22.1550  -24.5330   24.5294 C   0  0  1  0  0  0  0  0  0  0  0  0
  -28.1085  -13.5952   20.2268 C   0  0  1  0  0  0  0  0  0  0  0  0
  -25.1532  -17.1602   18.5537 C   0  0  0  0  0  0  0  0  0  0  0  0
  -30.2153  -18.3950   20.7855 C   0  0  1  0  0  0  0  0  0  0  0  0
  -24.4991  -19.9855   19.1539 C   0  0  0  0  0  0  0  0  0  1  0  0
  -27.9451  -22.3308   29.1801 C   0  0  0  0  0  0  0  0  0  0  0  0
  -25.8003  -15.4274   16.8519 C   0  0  0  0  0  0  0  0  0  0  0  0
  -25.7660  -27.2920   25.3711 C   0  0  0  0  0  0  0  0  0  0  0  0
  -27.6211  -26.2649   26.7023 C   0  0  0  0  0  0  0  0  0  0  0  0
  -25.4881  -26.9053   27.8262 C   0  0  0  0  0  0  0  0  0  0  0  0
  -25.3734  -20.0666   27.5261 C   0  0  0  0  0  0  0  0  0  0  0  0
  -24.6838  -14.7044   19.0157 C   0  0  0  0  0  0  0  0  0  0  0  0
  -25.5272  -24.8933   26.2958 C   0  0  1  0  0  0  0  0  0  0  0  0
  -26.6377  -21.9991   28.4775 C   0  0  2  0  0  0  0  0  0  0  0  0
  -24.8040  -15.8009   17.9504 C   0  0  1  0  0  0  0  0  0  0  0  0
  -26.0886  -26.3246   26.5274 C   0  0  0  0  0  0  0  0  0  0  0  0
  -29.2103  -20.5579   20.1586 N   0  0  0  0  0  0  0  0  0  0  0  0
  -30.3149  -19.8866   20.5265 N   0  0  0  0  0  0  0  0  0  0  0  0
  -23.5713  -24.3810   24.8688 N   0  0  0  0  0  0  0  0  0  0  0  0
  -29.0821  -16.2895   20.1625 N   0  0  0  0  0  0  0  0  0  0  0  0
  -29.2504  -14.0271   19.4014 N   0  0  0  0  0  0  0  0  0  0  0  0
  -32.6240  -20.1543   20.9819 N   0  0  0  0  0  0  0  0  0  0  0  0
  -31.2841  -24.3298   19.9023 N   0  0  0  0  0  0  0  0  0  0  0  0
  -20.7376  -26.0971   23.3453 N   0  0  0  0  0  0  0  0  0  0  0  0
  -25.9241  -14.5152   19.7332 N   0  0  0  0  0  0  0  0  0  0  0  0
  -25.7942  -23.9628   27.3872 N   0  0  0  0  0  0  0  0  0  0  0  0
  -26.6138  -20.5360   28.1953 N   0  3  0  0  0  0  0  0  0  0  0  0
  -33.0868  -23.0541   20.5197 O   0  0  0  0  0  0  0  0  0  0  0  0
  -23.0460  -26.4001   23.3914 O   0  0  0  0  0  0  0  0  0  0  0  0
  -26.8612  -12.8956   18.3470 O   0  0  0  0  0  0  0  0  0  0  0  0
  -23.2976  -25.3109   26.9893 O   0  0  0  0  0  0  0  0  0  0  0  0
  -26.9433  -22.4014   26.1149 O   0  0  0  0  0  0  0  0  0  0  0  0
  -30.3181  -15.7485   18.2917 O   0  0  0  0  0  0  0  0  0  0  0  0
  -26.1208  -25.8686   18.4852 O   0  0  0  0  0  0  0  0  0  0  0  0
  -24.8934  -21.2288   19.7240 O   0  0  0  0  0  0  0  0  0  1  0  0
  -26.3622  -30.6413   21.2360 F   0  0  0  0  0  0  0  0  0  0  0  0
  -23.9203  -26.8285   19.8560 F   0  0  0  0  0  0  0  0  0  0  0  0
  1  2  1  0  0  0  0
  1  5  2  0  0  0  0
  2  6  2  0  0  0  0
  3  8  2  0  0  0  0
  3 15  1  0  0  0  0
  4  9  1  0  0  0  0
  4 15  2  0  0  0  0
  5 17  1  0  0  0  0
  6 19  1  0  0  0  0
  7 10  2  0  0  0  0
  7 18  1  0  0  0  0
  8 21  1  0  0  0  0
  9 21  2  0  0  0  0
 10 22  1  0  0  0  0
 11 12  2  0  0  0  0
 11 23  1  0  0  0  0
 12 24  1  0  0  0  0
 13 20  1  0  0  0  0
 13 22  2  0  0  0  0
 14 24  2  0  0  0  0
 14 25  1  0  0  0  0
 15 26  1  0  0  0  0
 16 26  1  0  0  0  0
 16 27  2  0  0  0  0
 16 28  1  0  0  0  0
 17 19  2  0  0  0  0
 17 34  1  0  0  0  0
 18 20  2  0  0  0  0
 18 35  1  0  0  0  0
 19 51  1  0  0  0  0
 20 36  1  0  0  0  0
 21 85  1  0  0  0  0
 22 86  1  0  0  0  0
 23 25  2  0  0  0  0
 23 85  1  0  0  0  0
 24 87  1  0  0  0  0
 25 88  1  0  0  0  0
 26 68  2  0  0  0  0
 27 69  1  0  0  0  0
 27 73  1  0  0  0  0
 28 74  1  0  0  0  0
 28 79  2  0  0  0  0
 29 52  1  0  0  0  0
 29 75  1  0  0  0  0
 29 80  2  0  0  0  0
 30 53  1  0  0  0  0
 30 76  1  0  0  0  0
 30 81  2  0  0  0  0
 31 64  1  0  0  0  0
 31 70  1  0  0  0  0
 31 82  2  0  0  0  0
 32 65  1  0  0  0  0
 32 77  1  0  0  0  0
 32 83  2  0  0  0  0
 33 71  1  0  0  0  0
 33 72  1  0  0  0  0
 33 84  2  0  0  0  0
 34 37  1  0  0  0  0
 35 52  1  0  0  0  0
 36 70  1  0  0  0  0
 37 41  1  0  0  0  0
 38 39  1  0  0  0  0
 38 42  1  0  0  0  0
 39 49  1  0  0  0  0
 40 45  1  0  0  0  0
 40 48  1  0  0  0  0
 41 51  1  0  0  0  0
 42 53  1  0  0  0  0
 43 46  1  0  0  0  0
 43 54  1  0  0  0  0
 44 47  1  0  0  0  0
 44 54  1  0  0  0  0
 45 55  1  0  0  0  0
 46 56  1  0  0  0  0
 47 56  1  0  0  0  0
 48 71  1  0  0  0  0
 49 72  1  0  0  0  0
 50 55  1  0  0  0  0
 50 71  1  0  0  0  0
 51 75  1  0  0  0  0
 52 70  1  0  0  0  0
 53 72  1  0  0  0  0
 54 66  1  0  0  0  0
 55 69  1  0  0  0  0
 56 86  1  0  0  0  0
 57 65  1  0  0  0  0
 58 66  1  0  0  0  0
 59 67  1  0  0  0  0
 60 67  1  0  0  0  0
 61 67  1  0  0  0  0
 62 78  1  0  0  0  0
 63 66  1  0  0  0  0
 63 76  1  0  0  0  0
 64 67  1  0  0  0  0
 64 77  1  0  0  0  0
 65 78  1  0  0  0  0
 68 69  1  0  0  0  0
M  CHG  1  78   1
M  ISO  4  33 100  56 101  72 100  86 101
M  END
> <Batch ID>
0128

> <Smiles>
CNC(C)C(=O)NC(C(=O)N1Cc2cc([101O:1][101CH:1]3CCC(C(C)CNC(=O)C4CCCC[100N:0]4[100C:0](=O)N4CCCC(n5nc(-c6ccc(Oc7ccc(F)cc7F)cc6)c(C(N)=O)c5N)C4)CC3)ccc2CC1C(=O)NC1CCCc2ccccc21)C(C)(C)C

> <Shape>
0.216

> <Color>
0.074

> <Negative vol penalty>
0.000

$$$$

  -OEChem-04052320423D

 84 92  0     1  0  0  0  0  0999 V2000
  -21.5179  -12.6714   19.8531 C   0  0  0  0  0  0  0  0  0  0  0  0
  -21.5662  -13.9596   20.3761 C   0  0  0  0  0  0  0  0  0  0  0  0
  -29.7958  -26.5387   21.4712 C   0  0  0  0  0  0  0  0  0  0  0  0
  -27.8942  -25.5619   22.5969 C   0  0  0  0  0  0  0  0  0  0  0  0
  -22.6745  -11.8941   19.8098 C   0  0  0  0  0  0  0  0  0  0  0  0
  -22.7710  -14.4709   20.8572 C   0  0  0  0  0  0  0  0  0  0  0  0
  -23.6179  -19.2209   19.3193 C   0  0  0  0  0  0  0  0  0  0  0  0
  -30.6561  -25.7988   22.2824 C   0  0  0  0  0  0  0  0  0  0  0  0
  -28.7545  -24.8220   23.4080 C   0  0  0  0  0  0  0  0  0  0  0  0
  -22.9306  -20.2368   19.9820 C   0  0  0  0  0  0  0  0  0  0  0  0
  -30.6699  -25.3513   26.1434 C   0  0  0  0  0  0  0  0  0  0  0  0
  -30.3937  -25.3065   27.5098 C   0  0  0  0  0  0  0  0  0  0  0  0
  -24.8993  -20.7038   21.2954 C   0  0  0  0  0  0  0  0  0  0  0  0
  -19.6900  -24.7182   24.1538 C   0  0  0  0  0  0  0  0  0  0  0  0
  -30.1767  -22.9034   27.3873 C   0  0  0  0  0  0  0  0  0  0  0  0
  -28.4148  -26.4203   21.6285 C   0  0  0  0  0  0  0  0  0  0  0  0
  -27.4307  -27.1391   19.3874 C   0  0  0  0  0  0  0  0  0  0  0  0
  -23.8961  -12.3996   20.2817 C   0  0  0  0  0  0  0  0  0  0  0  0
  -24.9500  -18.9311   19.6478 C   0  0  0  0  0  0  0  0  0  0  0  0
  -23.9448  -13.6991   20.8214 C   0  0  0  0  0  0  0  0  0  0  0  0
  -25.6022  -19.6854   20.6336 C   0  0  0  0  0  0  0  0  0  0  0  0
  -18.7170  -25.6737   24.4251 C   0  0  0  0  0  0  0  0  0  0  0  0
  -18.7969  -26.9277   23.8298 C   0  0  0  0  0  0  0  0  0  0  0  0
  -30.1354  -24.9404   23.2508 C   0  0  0  0  0  0  0  0  0  0  0  0
  -23.5703  -20.9766   20.9722 C   0  0  0  0  0  0  0  0  0  0  0  0
  -30.6994  -24.1721   25.3988 C   0  0  0  0  0  0  0  0  0  0  0  0
  -30.1471  -24.0826   28.1318 C   0  0  0  0  0  0  0  0  0  0  0  0
  -30.4529  -22.9482   26.0208 C   0  0  0  0  0  0  0  0  0  0  0  0
  -27.5256  -27.1848   20.7912 C   0  0  0  0  0  0  0  0  0  0  0  0
  -19.8611  -27.1744   22.9775 C   0  0  0  0  0  0  0  0  0  0  0  0
  -20.7141  -25.0637   23.2868 C   0  0  0  0  0  0  0  0  0  0  0  0
  -26.4458  -28.0458   19.0802 C   0  0  0  0  0  0  0  0  0  0  0  0
  -28.1669  -26.3478   18.4453 C   0  0  0  0  0  0  0  0  0  0  0  0
  -26.4735  -16.3931   20.8061 C   0  0  0  0  0  0  0  0  0  0  0  0
  -29.1061  -18.2028   20.2431 C   0  0  0  0  0  0  0  0  0  0  0  0
  -30.4518  -21.3131   19.8403 C   0  0  0  0  0  0  0  0  0  0  0  0
  -21.7928  -30.2127   22.1633 C   0  0  0  0  0  0  0  0  0  0  0  0
  -25.1099  -11.5047   20.2576 C   0  0  0  0  0  0  0  0  0  0  0  0
  -25.6859  -17.8497   18.9051 C   0  0  0  0  0  0  0  0  0  0  0  0
  -27.0377  -19.4274   21.0094 C   0  0  0  0  0  0  0  0  0  0  0  0
  -26.4251  -12.2570   20.4433 C   0  0  0  0  0  0  0  0  0  0  0  0
  -24.4385  -32.0814   20.6851 C   0  0  0  0  0  0  0  0  0  0  0  0
  -26.3171  -13.2429   21.6022 C   0  0  0  0  0  0  0  0  0  0  0  0
  -25.5211  -31.0342   20.4180 C   0  0  0  0  0  0  0  0  0  0  0  0
  -23.6877  -31.7982   21.9844 C   0  0  0  0  0  0  0  0  0  0  0  0
  -24.2029  -29.3936   21.8215 C   0  0  0  0  0  0  0  0  0  0  0  0
  -25.2381  -14.2980   21.3302 C   0  0  1  0  0  0  0  0  0  0  0  0
  -26.8800  -17.2997   19.6789 C   0  0  1  0  0  0  0  0  0  0  0  0
  -24.9501  -29.6054   20.4936 C   0  0  2  0  0  0  0  0  0  0  0  0
  -17.6008  -25.3314   25.3556 C   0  0  0  0  0  0  0  0  0  0  0  0
  -17.7691  -27.9732   24.1060 C   0  0  0  0  0  0  0  0  0  0  0  0
  -19.2785  -28.5661   20.9563 C   0  0  0  0  0  0  0  0  0  0  0  0
  -32.1915  -23.0500   19.3365 C   0  0  0  0  0  0  0  0  0  0  0  0
  -29.9008  -17.7278   23.1505 C   0  0  0  0  0  0  0  0  0  0  0  0
  -31.5145  -19.6312   22.9476 C   0  0  0  0  0  0  0  0  0  0  0  0
  -31.7920  -17.6054   21.5188 C   0  0  0  0  0  0  0  0  0  0  0  0
  -29.8190  -21.2755   16.9494 C   0  0  0  0  0  0  0  0  0  0  0  0
  -22.8026  -24.3147   22.1453 C   0  0  0  0  0  0  0  0  0  0  0  0
  -23.6740  -23.0710   22.0941 C   0  0  0  0  0  0  0  0  0  1  0  0
  -19.9994  -28.5034   22.3097 C   0  0  2  0  0  0  0  0  0  0  0  0
  -29.8998  -19.2117   21.0377 C   0  0  1  0  0  0  0  0  0  0  0  0
  -31.3955  -21.8742   18.7919 C   0  0  2  0  0  0  0  0  0  0  0  0
  -30.7491  -18.5478   22.1581 C   0  0  0  0  0  0  0  0  0  0  0  0
  -26.6695  -28.0520   21.3380 N   0  0  0  0  0  0  0  0  0  0  0  0
  -20.8252  -26.2715   22.6896 N   0  0  0  0  0  0  0  0  0  0  0  0
  -26.0272  -28.5597   20.2722 N   0  0  0  0  0  0  0  0  0  0  0  0
  -27.7125  -18.3555   20.2590 N   0  0  0  0  0  0  0  0  0  0  0  0
  -23.1702  -30.4277   21.9917 N   0  0  0  0  0  0  0  0  0  0  0  0
  -25.9057  -28.4457   17.9094 N   0  0  0  0  0  0  0  0  0  0  0  0
  -27.6631  -25.0884   18.0926 N   0  0  0  0  0  0  0  0  0  0  0  0
  -21.6768  -24.1027   23.0261 N   0  0  0  0  0  0  0  0  0  0  0  0
  -25.7305  -15.2984   20.4076 N   0  0  0  0  0  0  0  0  0  0  0  0
  -30.6802  -19.9724   20.0678 N   0  0  0  0  0  0  0  0  0  0  0  0
  -21.3853  -28.8843   22.1515 N   0  0  0  0  0  0  0  0  0  0  0  0
  -30.6297  -22.3368   17.6001 N   0  3  0  0  0  0  0  0  0  0  0  0
  -29.2482  -26.7388   17.9440 O   0  0  0  0  0  0  0  0  0  0  0  0
  -26.8104  -16.6659   21.9523 O   0  0  0  0  0  0  0  0  0  0  0  0
  -29.7011  -17.3164   19.6252 O   0  0  0  0  0  0  0  0  0  0  0  0
  -29.6000  -21.9966   20.4039 O   0  0  0  0  0  0  0  0  0  0  0  0
  -20.9852  -31.1363   22.3103 O   0  0  0  0  0  0  0  0  0  0  0  0
  -30.9746  -24.2181   24.0424 O   0  0  0  0  0  0  0  0  0  0  0  0
  -22.9015  -21.9683   21.6210 O   0  0  0  0  0  0  0  0  0  1  0  0
  -29.8834  -24.0396   29.4444 F   0  0  0  0  0  0  0  0  0  0  0  0
  -30.4811  -21.8119   25.3109 F   0  0  0  0  0  0  0  0  0  0  0  0
  1  2  1  0  0  0  0
  1  5  2  0  0  0  0
  2  6  2  0  0  0  0
  3  8  2  0  0  0  0
  3 16  1  0  0  0  0
  4  9  1  0  0  0  0
  4 16  2  0  0  0  0
  5 18  1  0  0  0  0
  6 20  1  0  0  0  0
  7 10  2  0  0  0  0
  7 19  1  0  0  0  0
  8 24  1  0  0  0  0
  9 24  2  0  0  0  0
 10 25  1  0  0  0  0
 11 12  2  0  0  0  0
 11 26  1  0  0  0  0
 12 27  1  0  0  0  0
 13 21  1  0  0  0  0
 13 25  2  0  0  0  0
 14 22  2  0  0  0  0
 14 31  1  0  0  0  0
 15 27  2  0  0  0  0
 15 28  1  0  0  0  0
 16 29  1  0  0  0  0
 17 29  1  0  0  0  0
 17 32  2  0  0  0  0
 17 33  1  0  0  0  0
 18 20  2  0  0  0  0
 18 38  1  0  0  0  0
 19 21  2  0  0  0  0
 19 39  1  0  0  0  0
 20 47  1  0  0  0  0
 21 40  1  0  0  0  0
 22 23  1  0  0  0  0
 22 50  1  0  0  0  0
 23 30  2  0  0  0  0
 23 51  1  0  0  0  0
 24 81  1  0  0  0  0
 25 82  1  0  0  0  0
 26 28  2  0  0  0  0
 26 81  1  0  0  0  0
 27 83  1  0  0  0  0
 28 84  1  0  0  0  0
 29 64  2  0  0  0  0
 30 60  1  0  0  0  0
 30 65  1  0  0  0  0
 31 65  2  0  0  0  0
 31 71  1  0  0  0  0
 32 66  1  0  0  0  0
 32 69  1  0  0  0  0
 33 70  1  0  0  0  0
 33 76  2  0  0  0  0
 34 48  1  0  0  0  0
 34 72  1  0  0  0  0
 34 77  2  0  0  0  0
 35 61  1  0  0  0  0
 35 67  1  0  0  0  0
 35 78  2  0  0  0  0
 36 62  1  0  0  0  0
 36 73  1  0  0  0  0
 36 79  2  0  0  0  0
 37 68  1  0  0  0  0
 37 74  1  0  0  0  0
 37 80  2  0  0  0  0
 38 41  1  0  0  0  0
 39 48  1  0  0  0  0
 40 67  1  0  0  0  0
 41 43  1  0  0  0  0
 42 44  1  0  0  0  0
 42 45  1  0  0  0  0
 43 47  1  0  0  0  0
 44 49  1  0  0  0  0
 45 68  1  0  0  0  0
 46 49  1  0  0  0  0
 46 68  1  0  0  0  0
 47 72  1  0  0  0  0
 48 67  1  0  0  0  0
 49 66  1  0  0  0  0
 52 60  1  0  0  0  0
 53 62  1  0  0  0  0
 54 63  1  0  0  0  0
 55 63  1  0  0  0  0
 56 63  1  0  0  0  0
 57 75  1  0  0  0  0
 58 59  1  0  0  0  0
 58 71  1  0  0  0  0
 59 82  1  0  0  0  0
 60 74  1  0  0  0  0
 61 63  1  0  0  0  0
 61 73  1  0  0  0  0
 62 75  1  0  0  0  0
 64 66  1  0  0  0  0
M  CHG  1  75   1
M  ISO  4  37 100  59 101  74 100  82 101
M  END
> <Batch ID>
0128

> <Smiles>
CNC(C)C(=O)NC(C(=O)N1Cc2cc([101O:1][101CH2:1]CNc3cc(C)c(C)c(C(C)[100NH:0][100C:0](=O)N4CCCC(n5nc(-c6ccc(Oc7ccc(F)cc7F)cc6)c(C(N)=O)c5N)C4)n3)ccc2CC1C(=O)NC1CCCc2ccccc21)C(C)(C)C

> <Shape>
0.222

> <Color>
0.081

> <Negative vol penalty>
0.000

$$$$

  -OEChem-04052320423D

 86 95  0     1  0  0  0  0  0999 V2000
  -26.7701  -37.8710   20.7243 C   0  0  0  0  0  0  0  0  0  0  0  0
  -27.3733  -36.7611   20.1414 C   0  0  0  0  0  0  0  0  0  0  0  0
  -24.0327  -10.9452   22.6829 C   0  0  0  0  0  0  0  0  0  0  0  0
  -23.9984   -9.3394   20.8780 C   0  0  0  0  0  0  0  0  0  0  0  0
  -26.0400  -37.7273   21.9034 C   0  0  0  0  0  0  0  0  0  0  0  0
  -27.2477  -35.5070   20.7379 C   0  0  0  0  0  0  0  0  0  0  0  0
  -26.7999  -28.5535   19.0750 C   0  0  0  0  0  0  0  0  0  0  0  0
  -23.0137  -10.2433   23.3267 C   0  0  0  0  0  0  0  0  0  0  0  0
  -22.9793   -8.6375   21.5219 C   0  0  0  0  0  0  0  0  0  0  0  0
  -27.3938  -27.3312   19.3864 C   0  0  0  0  0  0  0  0  0  0  0  0
  -20.6175   -6.2214   22.8644 C   0  0  0  0  0  0  0  0  0  0  0  0
  -20.7262   -4.8322   22.9286 C   0  0  0  0  0  0  0  0  0  0  0  0
  -26.0423  -27.1891   21.3795 C   0  0  0  0  0  0  0  0  0  0  0  0
  -28.7286  -22.3951   19.7956 C   0  0  0  0  0  0  0  0  0  0  0  0
  -22.8047   -5.0508   24.1406 C   0  0  0  0  0  0  0  0  0  0  0  0
  -24.5250  -10.4933   21.4585 C   0  0  0  0  0  0  0  0  0  0  0  0
  -26.9645  -11.0265   20.9365 C   0  0  0  0  0  0  0  0  0  0  0  0
  -25.8973  -36.4691   22.5094 C   0  0  0  0  0  0  0  0  0  0  0  0
  -25.8289  -29.1090   19.9206 C   0  0  0  0  0  0  0  0  0  0  0  0
  -26.5161  -35.3466   21.9270 C   0  0  0  0  0  0  0  0  0  0  0  0
  -25.4357  -28.4174   21.0753 C   0  0  0  0  0  0  0  0  0  0  0  0
  -29.0683  -23.6421   20.3759 C   0  0  0  0  0  0  0  0  0  0  0  0
  -22.4870   -9.0895   22.7463 C   0  0  0  0  0  0  0  0  0  0  0  0
  -27.0171  -26.6502   20.5403 C   0  0  0  0  0  0  0  0  0  0  0  0
  -21.6025   -7.0252   23.4383 C   0  0  0  0  0  0  0  0  0  0  0  0
  -21.8197   -4.2470   23.5667 C   0  0  0  0  0  0  0  0  0  0  0  0
  -22.6961   -6.4400   24.0764 C   0  0  0  0  0  0  0  0  0  0  0  0
  -25.5773  -11.2182   20.7926 C   0  0  0  0  0  0  0  0  0  0  0  0
  -29.3925  -21.4175   20.5033 C   0  0  0  0  0  0  0  0  0  0  0  0
  -29.9296  -23.3885   21.4206 C   0  0  0  0  0  0  0  0  0  0  0  0
  -27.5284  -11.9562   20.0974 C   0  0  0  0  0  0  0  0  0  0  0  0
  -27.6793  -10.0915   21.7553 C   0  0  0  0  0  0  0  0  0  0  0  0
  -25.6084  -31.7768   21.6348 C   0  0  0  0  0  0  0  0  0  0  0  0
  -22.5859  -30.7244   22.1637 C   0  0  0  0  0  0  0  0  0  0  0  0
  -20.4157  -28.0940   22.2970 C   0  0  0  0  0  0  0  0  0  0  0  0
  -27.8504  -16.9692   17.9098 C   0  0  0  0  0  0  0  0  0  0  0  0
  -25.1381  -36.3713   23.8089 C   0  0  0  0  0  0  0  0  0  0  0  0
  -25.1785  -30.4155   19.5567 C   0  0  0  0  0  0  0  0  0  0  0  0
  -24.3834  -28.9610   22.0056 C   0  0  0  0  0  0  0  0  0  0  0  0
  -24.7392  -34.9440   24.1754 C   0  0  0  0  0  0  0  0  0  0  0  0
  -25.4539  -14.8859   16.5442 C   0  0  0  0  0  0  0  0  0  0  0  0
  -25.9202  -33.9961   23.9926 C   0  0  0  0  0  0  0  0  0  0  0  0
  -25.3780  -13.7224   17.5326 C   0  0  0  0  0  0  0  0  0  0  0  0
  -27.9931  -19.3050   20.5254 C   0  0  0  0  0  0  0  0  0  0  0  0
  -29.9624  -19.5007   18.9464 C   0  0  0  0  0  0  0  0  0  0  0  0
  -25.5780  -16.2169   17.2766 C   0  0  0  0  0  0  0  0  0  0  0  0
  -27.9934  -17.7899   20.3029 C   0  0  0  0  0  0  0  0  0  0  0  0
  -29.9332  -17.9839   18.7822 C   0  0  0  0  0  0  0  0  0  0  0  0
  -26.6813  -15.1285   19.2044 C   0  0  0  0  0  0  0  0  0  0  0  0
  -26.3819  -33.9654   22.5306 C   0  0  1  0  0  0  0  0  0  0  0  0
  -29.3920  -19.9121   20.3159 C   0  0  0  0  0  0  0  0  0  0  0  0
  -24.5712  -31.1354   20.7569 C   0  0  1  0  0  0  0  0  0  0  0  0
  -26.5616  -13.7538   18.5156 C   0  0  1  0  0  0  0  0  0  0  0  0
  -30.5881  -24.3211   22.3601 C   0  0  0  0  0  0  0  0  0  0  0  0
  -18.0189  -27.5408   22.7939 C   0  0  0  0  0  0  0  0  0  0  0  0
  -32.1227  -20.6203   21.7827 C   0  0  0  0  0  0  0  0  0  0  0  0
  -30.1529  -20.4232   23.3598 C   0  0  0  0  0  0  0  0  0  0  0  0
  -23.1394  -31.0196   25.1497 C   0  0  0  0  0  0  0  0  0  0  0  0
  -21.1310  -29.5918   25.5922 C   0  0  0  0  0  0  0  0  0  0  0  0
  -20.8696  -31.7830   24.4290 C   0  0  0  0  0  0  0  0  0  0  0  0
  -19.9684  -27.0518   19.5634 C   0  0  0  0  0  0  0  0  0  0  0  0
  -28.5833  -24.9655   19.9363 C   0  0  0  0  0  0  0  0  0  1  0  0
  -21.9259  -29.8442   23.1973 C   0  0  1  0  0  0  0  0  0  0  0  0
  -19.0269  -27.9034   21.7144 C   0  0  2  0  0  0  0  0  0  0  0  0
  -30.9597  -21.3544   22.4530 C   0  0  0  0  0  0  0  0  0  0  0  0
  -21.7877  -30.5501   24.5758 C   0  0  0  0  0  0  0  0  0  0  0  0
  -25.2782  -12.1932   19.9301 N   0  0  0  0  0  0  0  0  0  0  0  0
  -30.1197  -22.0330   21.4885 N   0  0  0  0  0  0  0  0  0  0  0  0
  -26.4854  -12.6226   19.5246 N   0  0  0  0  0  0  0  0  0  0  0  0
  -23.7814  -30.2449   21.6097 N   0  0  0  0  0  0  0  0  0  0  0  0
  -26.7104  -16.2055   18.2025 N   0  0  0  0  0  0  0  0  0  0  0  0
  -28.5864  -17.4566   19.0003 N   0  0  0  0  0  0  0  0  0  0  0  0
  -28.8098  -12.2606   19.8013 N   0  0  0  0  0  0  0  0  0  0  0  0
  -26.9446   -9.2073   22.5570 N   0  0  0  0  0  0  0  0  0  0  0  0
  -25.4890  -33.1497   21.7357 N   0  0  0  0  0  0  0  0  0  0  0  0
  -20.6587  -29.4130   22.6171 N   0  0  0  0  0  0  0  0  0  0  0  0
  -19.0371  -26.8151   20.6964 N   0  3  0  0  0  0  0  0  0  0  0  0
  -28.9327  -10.0527   21.7879 O   0  0  0  0  0  0  0  0  0  0  0  0
  -26.4534  -31.0776   22.1814 O   0  0  0  0  0  0  0  0  0  0  0  0
  -22.0564  -31.7946   21.8537 O   0  0  0  0  0  0  0  0  0  0  0  0
  -21.2046  -27.1651   22.4559 O   0  0  0  0  0  0  0  0  0  0  0  0
  -28.1916  -17.2016   16.7433 O   0  0  0  0  0  0  0  0  0  0  0  0
  -21.4928   -8.4042   23.3744 O   0  0  0  0  0  0  0  0  0  0  0  0
  -27.5988  -25.4510   20.8486 O   0  0  0  0  0  0  0  0  0  1  0  0
  -21.9231   -2.9130   23.6296 F   0  0  0  0  0  0  0  0  0  0  0  0
  -23.6449   -7.2070   24.6306 F   0  0  0  0  0  0  0  0  0  0  0  0
  1  2  1  0  0  0  0
  1  5  2  0  0  0  0
  2  6  2  0  0  0  0
  3  8  2  0  0  0  0
  3 16  1  0  0  0  0
  4  9  1  0  0  0  0
  4 16  2  0  0  0  0
  5 18  1  0  0  0  0
  6 20  1  0  0  0  0
  7 10  2  0  0  0  0
  7 19  1  0  0  0  0
  8 23  1  0  0  0  0
  9 23  2  0  0  0  0
 10 24  1  0  0  0  0
 11 12  2  0  0  0  0
 11 25  1  0  0  0  0
 12 26  1  0  0  0  0
 13 21  1  0  0  0  0
 13 24  2  0  0  0  0
 14 22  1  0  0  0  0
 14 29  2  0  0  0  0
 15 26  2  0  0  0  0
 15 27  1  0  0  0  0
 16 28  1  0  0  0  0
 17 28  1  0  0  0  0
 17 31  2  0  0  0  0
 17 32  1  0  0  0  0
 18 20  2  0  0  0  0
 18 37  1  0  0  0  0
 19 21  2  0  0  0  0
 19 38  1  0  0  0  0
 20 50  1  0  0  0  0
 21 39  1  0  0  0  0
 22 30  2  0  0  0  0
 22 62  1  0  0  0  0
 23 83  1  0  0  0  0
 24 84  1  0  0  0  0
 25 27  2  0  0  0  0
 25 83  1  0  0  0  0
 26 85  1  0  0  0  0
 27 86  1  0  0  0  0
 28 67  2  0  0  0  0
 29 51  1  0  0  0  0
 29 68  1  0  0  0  0
 30 54  1  0  0  0  0
 30 68  1  0  0  0  0
 31 69  1  0  0  0  0
 31 73  1  0  0  0  0
 32 74  1  0  0  0  0
 32 78  2  0  0  0  0
 33 52  1  0  0  0  0
 33 75  1  0  0  0  0
 33 79  2  0  0  0  0
 34 63  1  0  0  0  0
 34 70  1  0  0  0  0
 34 80  2  0  0  0  0
 35 64  1  0  0  0  0
 35 76  1  0  0  0  0
 35 81  2  0  0  0  0
 36 71  1  0  0  0  0
 36 72  1  0  0  0  0
 36 82  2  0  0  0  0
 37 40  1  0  0  0  0
 38 52  1  0  0  0  0
 39 70  1  0  0  0  0
 40 42  1  0  0  0  0
 41 43  1  0  0  0  0
 41 46  1  0  0  0  0
 42 50  1  0  0  0  0
 43 53  1  0  0  0  0
 44 47  1  0  0  0  0
 44 51  1  0  0  0  0
 45 48  1  0  0  0  0
 45 51  1  0  0  0  0
 46 71  1  0  0  0  0
 47 72  1  0  0  0  0
 48 72  1  0  0  0  0
 49 53  1  0  0  0  0
 49 71  1  0  0  0  0
 50 75  1  0  0  0  0
 52 70  1  0  0  0  0
 53 69  1  0  0  0  0
 55 64  1  0  0  0  0
 56 65  1  0  0  0  0
 57 65  1  0  0  0  0
 58 66  1  0  0  0  0
 59 66  1  0  0  0  0
 60 66  1  0  0  0  0
 61 77  1  0  0  0  0
 62 84  1  0  0  0  0
 63 66  1  0  0  0  0
 63 76  1  0  0  0  0
 64 77  1  0  0  0  0
 65 68  1  0  0  0  0
 67 69  1  0  0  0  0
M  CHG  1  77   1
M  ISO  4  36 100  62 101  72 100  84 101
M  END
> <Batch ID>
0128

> <Smiles>
CNC(C)C(=O)NC(C(=O)N1Cc2cc([101O:1][101CH2:1]c3cc(C4CC[100N:0]([100C:0](=O)N5CCCC(n6nc(-c7ccc(Oc8ccc(F)cc8F)cc7)c(C(N)=O)c6N)C5)CC4)n(C(C)C)c3C)ccc2CC1C(=O)NC1CCCc2ccccc21)C(C)(C)C

> <Shape>
0.323

> <Color>
0.072

> <Negative vol penalty>
0.000

$$$$

  -OEChem-04052320423D

 83 91  0     1  0  0  0  0  0999 V2000
  -34.7927  -32.2280   19.4336 C   0  0  0  0  0  0  0  0  0  0  0  0
  -33.4940  -32.4185   19.8946 C   0  0  0  0  0  0  0  0  0  0  0  0
  -25.8632  -17.0533   20.7460 C   0  0  0  0  0  0  0  0  0  0  0  0
  -23.8647  -16.1148   19.7652 C   0  0  0  0  0  0  0  0  0  0  0  0
  -35.0461  -31.2879   18.4357 C   0  0  0  0  0  0  0  0  0  0  0  0
  -32.4477  -31.6697   19.3571 C   0  0  0  0  0  0  0  0  0  0  0  0
  -26.1824  -28.7162   21.1843 C   0  0  0  0  0  0  0  0  0  0  0  0
  -20.0805  -28.4865   21.2108 C   0  0  0  0  0  0  0  0  0  0  0  0
  -21.3551  -26.7990   22.3790 C   0  0  0  0  0  0  0  0  0  0  0  0
  -26.4271  -15.7795   20.8159 C   0  0  0  0  0  0  0  0  0  0  0  0
  -24.4286  -14.8409   19.8351 C   0  0  0  0  0  0  0  0  0  0  0  0
  -24.8503  -28.6760   20.7746 C   0  0  0  0  0  0  0  0  0  0  0  0
  -21.0641  -28.5459   20.2235 C   0  0  0  0  0  0  0  0  0  0  0  0
  -22.3386  -26.8584   21.3917 C   0  0  0  0  0  0  0  0  0  0  0  0
  -27.9385  -13.6055   18.7129 C   0  0  0  0  0  0  0  0  0  0  0  0
  -29.2631  -13.4595   18.3010 C   0  0  0  0  0  0  0  0  0  0  0  0
  -25.4183  -27.0244   19.1107 C   0  0  0  0  0  0  0  0  0  0  0  0
  -29.8619  -12.6729   20.5056 C   0  0  0  0  0  0  0  0  0  0  0  0
  -24.5819  -17.2210   20.2206 C   0  0  0  0  0  0  0  0  0  0  0  0
  -24.0924  -19.4508   19.0823 C   0  0  0  0  0  0  0  0  0  0  0  0
  -34.0038  -30.5203   17.8924 C   0  0  0  0  0  0  0  0  0  0  0  0
  -27.1460  -27.9175   20.5520 C   0  0  0  0  0  0  0  0  0  0  0  0
  -32.6872  -30.7194   18.3499 C   0  0  0  0  0  0  0  0  0  0  0  0
  -26.7614  -27.0544   19.5160 C   0  0  0  0  0  0  0  0  0  0  0  0
  -20.2260  -27.6131   22.2885 C   0  0  0  0  0  0  0  0  0  0  0  0
  -25.7099  -14.6733   20.3605 C   0  0  0  0  0  0  0  0  0  0  0  0
  -22.1931  -27.7318   20.3139 C   0  0  0  0  0  0  0  0  0  1  0  0
  -24.4687  -27.8321   19.7357 C   0  0  0  0  0  0  0  0  0  0  0  0
  -27.5756  -13.2853   20.0212 C   0  0  0  0  0  0  0  0  0  0  0  0
  -30.2248  -12.9932   19.1973 C   0  0  0  0  0  0  0  0  0  0  0  0
  -28.5372  -12.8190   20.9175 C   0  0  0  0  0  0  0  0  0  0  0  0
  -23.9987  -18.5365   20.1486 C   0  0  0  0  0  0  0  0  0  0  0  0
  -23.3726  -20.5427   19.5019 C   0  0  0  0  0  0  0  0  0  0  0  0
  -24.7694  -19.3243   17.8248 C   0  0  0  0  0  0  0  0  0  0  0  0
  -29.7884  -28.4904   18.8808 C   0  0  0  0  0  0  0  0  0  0  0  0
  -30.1037  -25.2646   19.0120 C   0  0  0  0  0  0  0  0  0  0  0  0
  -28.6063  -22.2196   19.3762 C   0  0  0  0  0  0  0  0  0  0  0  0
  -18.8692  -22.6953   21.7453 C   0  0  0  0  0  0  0  0  0  0  0  0
  -34.3195  -29.5497   16.7821 C   0  0  0  0  0  0  0  0  0  0  0  0
  -28.5738  -27.9527   21.0236 C   0  0  0  0  0  0  0  0  0  0  0  0
  -27.7537  -26.1618   18.8180 C   0  0  0  0  0  0  0  0  0  0  0  0
  -33.2105  -28.5316   16.5293 C   0  0  0  0  0  0  0  0  0  0  0  0
  -21.4723  -21.6869   24.0485 C   0  0  0  0  0  0  0  0  0  0  0  0
  -31.8523  -29.2240   16.4757 C   0  0  0  0  0  0  0  0  0  0  0  0
  -22.3732  -20.8476   23.1407 C   0  0  0  0  0  0  0  0  0  0  0  0
  -19.9993  -21.4832   23.7065 C   0  0  0  0  0  0  0  0  0  0  0  0
  -20.5535  -20.9156   21.3732 C   0  0  0  0  0  0  0  0  0  0  0  0
  -31.5293  -29.9088   17.8092 C   0  0  1  0  0  0  0  0  0  0  0  0
  -29.5644  -27.4756   19.9660 C   0  0  1  0  0  0  0  0  0  0  0  0
  -22.0566  -21.0947   21.6538 C   0  0  2  0  0  0  0  0  0  0  0  0
  -29.1180  -19.7630   19.4001 C   0  0  0  0  0  0  0  0  0  0  0  0
  -30.3640  -25.2917   15.9720 C   0  0  0  0  0  0  0  0  0  0  0  0
  -29.9174  -22.8283   15.9814 C   0  0  0  0  0  0  0  0  0  0  0  0
  -31.9331  -23.7331   17.1395 C   0  0  0  0  0  0  0  0  0  0  0  0
  -27.6413  -21.9276   22.1587 C   0  0  0  0  0  0  0  0  0  0  0  0
  -17.2010  -24.4547   22.2732 C   0  0  0  0  0  0  0  0  0  0  0  0
  -17.8436  -25.8214   22.1268 C   0  0  0  0  0  0  0  0  0  0  0  0
  -19.7099  -27.8503   24.7553 C   0  0  0  0  0  0  0  0  0  0  0  0
  -19.1747  -27.5492   23.3440 C   0  0  2  0  0  0  0  0  0  0  0  0
  -29.6477  -24.1100   18.1529 C   0  0  1  0  0  0  0  0  0  0  0  0
  -28.9575  -21.0212   20.2392 C   0  0  2  0  0  0  0  0  0  0  0  0
  -30.4470  -24.0089   16.8231 C   0  0  0  0  0  0  0  0  0  0  0  0
  -23.2764  -19.0068   21.1691 N   0  0  0  0  0  0  0  0  0  0  0  0
  -22.9099  -20.2285   20.7458 N   0  0  0  0  0  0  0  0  0  0  0  0
  -29.1389  -26.2369   19.3110 N   0  0  0  0  0  0  0  0  0  0  0  0
  -19.7619  -21.7522   22.2813 N   0  0  0  0  0  0  0  0  0  0  0  0
  -23.0968  -21.7314   18.9246 N   0  0  0  0  0  0  0  0  0  0  0  0
  -25.4610  -18.1355   17.5549 N   0  0  0  0  0  0  0  0  0  0  0  0
  -31.0938  -28.9336   18.7858 N   0  0  0  0  0  0  0  0  0  0  0  0
  -29.7306  -22.9194   18.9919 N   0  0  0  0  0  0  0  0  0  0  0  0
  -18.1527  -23.4420   22.6726 N   0  0  0  0  0  0  0  0  0  0  0  0
  -27.8889  -20.7792   21.2493 N   0  3  0  0  0  0  0  0  0  0  0  0
  -18.4801  -26.2145   23.4030 N   0  3  0  0  0  0  0  0  0  0  0  0
  -24.7751  -20.2448   16.9726 O   0  0  0  0  0  0  0  0  0  0  0  0
  -28.8470  -28.8439   18.1805 O   0  0  0  0  0  0  0  0  0  0  0  0
  -31.2711  -25.2987   19.4092 O   0  0  0  0  0  0  0  0  0  0  0  0
  -27.4505  -22.5043   19.0702 O   0  0  0  0  0  0  0  0  0  0  0  0
  -18.7252  -22.8635   20.5296 O   0  0  0  0  0  0  0  0  0  0  0  0
  -18.6576  -28.2421   25.6302 O   0  0  0  0  0  0  0  0  0  0  0  0
  -23.1693  -27.7914   19.3334 O   0  0  0  0  0  0  0  0  0  1  0  0
  -26.2599  -13.4301   20.4283 O   0  0  0  0  0  0  0  0  0  0  0  0
  -31.4965  -12.8515   18.8012 F   0  0  0  0  0  0  0  0  0  0  0  0
  -28.1944  -12.5087   22.1752 F   0  0  0  0  0  0  0  0  0  0  0  0
  1  2  1  0  0  0  0
  1  5  2  0  0  0  0
  2  6  2  0  0  0  0
  3 10  2  0  0  0  0
  3 19  1  0  0  0  0
  4 11  1  0  0  0  0
  4 19  2  0  0  0  0
  5 21  1  0  0  0  0
  6 23  1  0  0  0  0
  7 12  2  0  0  0  0
  7 22  1  0  0  0  0
  8 13  2  0  0  0  0
  8 25  1  0  0  0  0
  9 14  1  0  0  0  0
  9 25  2  0  0  0  0
 10 26  1  0  0  0  0
 11 26  2  0  0  0  0
 12 28  1  0  0  0  0
 13 27  1  0  0  0  0
 14 27  2  0  0  0  0
 15 16  2  0  0  0  0
 15 29  1  0  0  0  0
 16 30  1  0  0  0  0
 17 24  1  0  0  0  0
 17 28  2  0  0  0  0
 18 30  2  0  0  0  0
 18 31  1  0  0  0  0
 19 32  1  0  0  0  0
 20 32  1  0  0  0  0
 20 33  2  0  0  0  0
 20 34  1  0  0  0  0
 21 23  2  0  0  0  0
 21 39  1  0  0  0  0
 22 24  2  0  0  0  0
 22 40  1  0  0  0  0
 23 48  1  0  0  0  0
 24 41  1  0  0  0  0
 25 59  1  0  0  0  0
 26 81  1  0  0  0  0
 27 80  1  0  0  0  0
 28 80  1  0  0  0  0
 29 31  2  0  0  0  0
 29 81  1  0  0  0  0
 30 82  1  0  0  0  0
 31 83  1  0  0  0  0
 32 63  2  0  0  0  0
 33 64  1  0  0  0  0
 33 67  1  0  0  0  0
 34 68  1  0  0  0  0
 34 74  2  0  0  0  0
 35 49  1  0  0  0  0
 35 69  1  0  0  0  0
 35 75  2  0  0  0  0
 36 60  1  0  0  0  0
 36 65  1  0  0  0  0
 36 76  2  0  0  0  0
 37 61  1  0  0  0  0
 37 70  1  0  0  0  0
 37 77  2  0  0  0  0
 38 66  1  0  0  0  0
 38 71  1  0  0  0  0
 38 78  2  0  0  0  0
 39 42  1  0  0  0  0
 40 49  1  0  0  0  0
 41 65  1  0  0  0  0
 42 44  1  0  0  0  0
 43 45  1  0  0  0  0
 43 46  1  0  0  0  0
 44 48  1  0  0  0  0
 45 50  1  0  0  0  0
 46 66  1  0  0  0  0
 47 50  1  0  0  0  0
 47 66  1  0  0  0  0
 48 69  1  0  0  0  0
 49 65  1  0  0  0  0
 50 64  1  0  0  0  0
 51 61  1  0  0  0  0
 52 62  1  0  0  0  0
 53 62  1  0  0  0  0
 54 62  1  0  0  0  0
 55 72  1  0  0  0  0
 56 57  1  0  0  0  0
 56 71  1  0  0  0  0
 57 73  1  0  0  0  0
 58 59  1  0  0  0  0
 58 79  1  0  0  0  0
 59 73  1  0  0  0  0
 60 62  1  0  0  0  0
 60 70  1  0  0  0  0
 61 72  1  0  0  0  0
 63 64  1  0  0  0  0
M  CHG  2  72   1  73   1
M  ISO  4  27 101  38 100  71 100  80 101
M  END
> <Batch ID>
0128

> <Smiles>
CNC(C)C(=O)NC(C(=O)N1Cc2cc([101O:1][101c:1]3ccc(C(CO)NCC[100NH:0][100C:0](=O)N4CCCC(n5nc(-c6ccc(Oc7ccc(F)cc7F)cc6)c(C(N)=O)c5N)C4)cc3)ccc2CC1C(=O)NC1CCCc2ccccc21)C(C)(C)C

> <Shape>
0.230

> <Color>
0.047

> <Negative vol penalty>
0.000

$$$$

  -OEChem-04052320423D

 86 95  0     1  0  0  0  0  0999 V2000
  -24.3305   -8.1708   17.8702 C   0  0  0  0  0  0  0  0  0  0  0  0
  -24.2296   -9.4534   17.3408 C   0  0  0  0  0  0  0  0  0  0  0  0
  -21.7770  -28.5258   20.6839 C   0  0  0  0  0  0  0  0  0  0  0  0
  -23.2970  -28.1275   22.5191 C   0  0  0  0  0  0  0  0  0  0  0  0
  -23.9903   -7.9390   19.2023 C   0  0  0  0  0  0  0  0  0  0  0  0
  -23.7873  -10.5048   18.1430 C   0  0  0  0  0  0  0  0  0  0  0  0
  -27.9031  -16.3131   19.2453 C   0  0  0  0  0  0  0  0  0  0  0  0
  -20.6934  -28.2918   21.5305 C   0  0  0  0  0  0  0  0  0  0  0  0
  -22.2134  -27.8935   23.3658 C   0  0  0  0  0  0  0  0  0  0  0  0
  -28.5432  -17.5495   19.3340 C   0  0  0  0  0  0  0  0  0  0  0  0
  -18.9790  -29.9794   23.9066 C   0  0  0  0  0  0  0  0  0  0  0  0
  -17.9031  -30.8647   23.8422 C   0  0  0  0  0  0  0  0  0  0  0  0
  -26.8097  -18.3527   20.8165 C   0  0  0  0  0  0  0  0  0  0  0  0
  -16.4400  -29.0420   23.2304 C   0  0  0  0  0  0  0  0  0  0  0  0
  -23.0788  -28.4436   21.1781 C   0  0  0  0  0  0  0  0  0  0  0  0
  -24.4799  -29.8638   19.5885 C   0  0  0  0  0  0  0  0  0  0  0  0
  -23.5529   -8.9899   20.0239 C   0  0  0  0  0  0  0  0  0  0  0  0
  -26.7205  -16.0866   19.9550 C   0  0  0  0  0  0  0  0  0  0  0  0
  -23.4397  -10.2865   19.4870 C   0  0  0  0  0  0  0  0  0  0  0  0
  -26.1707  -17.1122   20.7414 C   0  0  0  0  0  0  0  0  0  0  0  0
  -20.9116  -27.9757   22.8714 C   0  0  0  0  0  0  0  0  0  0  0  0
  -27.9977  -18.5668   20.1174 C   0  0  0  0  0  0  0  0  0  0  0  0
  -18.7855  -28.6254   23.6328 C   0  0  0  0  0  0  0  0  0  0  0  0
  -16.6335  -30.3960   23.5041 C   0  0  0  0  0  0  0  0  0  0  0  0
  -17.5160  -28.1567   23.2948 C   0  0  0  0  0  0  0  0  0  0  0  0
  -24.1985  -28.6846   20.3039 C   0  0  0  0  0  0  0  0  0  0  0  0
  -25.6438  -29.5866   18.9138 C   0  0  0  0  0  0  0  0  0  0  0  0
  -23.7543  -31.0994   19.5382 C   0  0  0  0  0  0  0  0  0  0  0  0
  -23.9796  -13.6823   20.8398 C   0  0  0  0  0  0  0  0  0  0  0  0
  -24.6878  -15.2092   23.4044 C   0  0  0  0  0  0  0  0  0  0  0  0
  -26.0530  -16.8095   26.0900 C   0  0  0  0  0  0  0  0  0  0  0  0
  -30.1285  -25.7507   19.9257 C   0  0  0  0  0  0  0  0  0  0  0  0
  -23.1513   -8.6818   21.4446 C   0  0  0  0  0  0  0  0  0  0  0  0
  -25.9642  -14.7909   19.8403 C   0  0  0  0  0  0  0  0  0  0  0  0
  -24.8784  -16.8348   21.4599 C   0  0  0  0  0  0  0  0  0  0  0  0
  -23.0488   -9.9204   22.3309 C   0  0  0  0  0  0  0  0  0  0  0  0
  -28.0921  -25.9428   17.0114 C   0  0  0  0  0  0  0  0  0  0  0  0
  -22.2737  -11.0241   21.6182 C   0  0  0  0  0  0  0  0  0  0  0  0
  -29.7706  -21.5463   23.3115 C   0  0  0  0  0  0  0  0  0  0  0  0
  -27.7362  -22.7184   22.3716 C   0  0  0  0  0  0  0  0  0  0  0  0
  -26.8887  -26.7737   17.4602 C   0  0  0  0  0  0  0  0  0  0  0  0
  -29.8441  -20.6778   22.0592 C   0  0  0  0  0  0  0  0  0  0  0  0
  -27.8150  -21.8463   21.1222 C   0  0  0  0  0  0  0  0  0  0  0  0
  -28.5904  -25.0241   18.1249 C   0  0  0  0  0  0  0  0  0  0  0  0
  -27.6833  -26.5328   19.8497 C   0  0  0  0  0  0  0  0  0  0  0  0
  -31.0876  -25.9334   26.1198 C   0  0  0  0  0  0  0  0  0  0  0  0
  -22.9877  -11.4576   20.3322 C   0  0  1  0  0  0  0  0  0  0  0  0
  -25.2718  -14.3783   21.1516 C   0  0  1  0  0  0  0  0  0  0  0  0
  -29.1151  -22.9034   23.0202 C   0  0  0  0  0  0  0  0  0  0  0  0
  -27.1798  -27.5155   18.7787 C   0  0  2  0  0  0  0  0  0  0  0  0
  -28.4719  -20.4990   21.4153 C   0  0  0  0  0  0  0  0  0  1  0  0
  -30.7382  -26.7097   24.8561 C   0  0  2  0  0  0  0  0  0  0  0  0
  -30.3261  -24.3818   24.6627 C   0  0  1  0  0  0  0  0  0  0  0  0
  -29.4357  -27.4910   24.9918 C   0  0  0  0  0  0  0  0  0  0  0  0
  -25.8079  -17.0450   28.5764 C   0  0  0  0  0  0  0  0  0  0  0  0
  -22.2477  -16.9921   22.9913 C   0  0  0  0  0  0  0  0  0  0  0  0
  -22.6300  -17.9254   25.2828 C   0  0  0  0  0  0  0  0  0  0  0  0
  -22.1229  -15.5001   24.9945 C   0  0  0  0  0  0  0  0  0  0  0  0
  -28.7791  -15.7643   26.5744 C   0  0  0  0  0  0  0  0  0  0  0  0
  -29.0031  -23.7334   24.2977 C   0  0  0  0  0  0  0  0  0  0  0  0
  -31.5502  -26.5758   21.7850 C   0  0  0  0  0  0  0  0  0  0  0  0
  -31.6712  -25.4981   22.8462 C   0  0  0  0  0  0  0  0  0  0  0  0
  -24.3879  -16.3837   24.3010 C   0  0  1  0  0  0  0  0  0  0  0  0
  -26.5005  -16.2977   27.4473 C   0  0  2  0  0  0  0  0  0  0  0  0
  -22.8676  -16.7015   24.3727 C   0  0  0  0  0  0  0  0  0  0  0  0
  -25.1100  -27.7293   20.1025 N   0  0  0  0  0  0  0  0  0  0  0  0
  -25.9756  -28.3079   19.2528 N   0  0  0  0  0  0  0  0  0  0  0  0
  -24.9112  -15.4877   22.0506 N   0  0  0  0  0  0  0  0  0  0  0  0
  -28.8493  -25.7897   19.3467 N   0  0  0  0  0  0  0  0  0  0  0  0
  -26.4054  -30.3144   18.0696 N   0  0  0  0  0  0  0  0  0  0  0  0
  -22.5787  -31.2150   20.2926 N   0  0  0  0  0  0  0  0  0  0  0  0
  -24.1073  -12.3207   20.6421 N   0  0  0  0  0  0  0  0  0  0  0  0
  -24.9959  -16.0779   25.5915 N   0  0  0  0  0  0  0  0  0  0  0  0
  -30.2905  -26.5096   21.0783 N   0  0  0  0  0  0  0  0  0  0  0  0
  -30.5410  -25.6184   23.8217 N   0  3  2  0  0  0  0  0  0  0  0  0
  -27.9727  -16.4672   27.6052 N   0  3  0  0  0  0  0  0  0  0  0  0
  -24.1282  -32.0664   18.8320 O   0  0  0  0  0  0  0  0  0  0  0  0
  -22.9418  -14.3317   20.7838 O   0  0  0  0  0  0  0  0  0  0  0  0
  -24.7182  -14.0739   23.8876 O   0  0  0  0  0  0  0  0  0  0  0  0
  -26.5854  -17.7653   25.5299 O   0  0  0  0  0  0  0  0  0  0  0  0
  -31.0589  -25.0928   19.4477 O   0  0  0  0  0  0  0  0  0  0  0  0
  -30.3302  -24.7182   26.0539 O   0  0  0  0  0  0  0  0  0  0  0  0
  -19.8545  -27.7476   23.6979 O   0  0  0  0  0  0  0  0  0  0  0  0
  -28.6302  -19.7698   20.2031 O   0  0  0  0  0  0  0  0  0  1  0  0
  -15.6001  -31.2460   23.4439 F   0  0  0  0  0  0  0  0  0  0  0  0
  -17.3236  -26.8568   23.0318 F   0  0  0  0  0  0  0  0  0  0  0  0
  1  2  1  0  0  0  0
  1  5  2  0  0  0  0
  2  6  2  0  0  0  0
  3  8  2  0  0  0  0
  3 15  1  0  0  0  0
  4  9  1  0  0  0  0
  4 15  2  0  0  0  0
  5 17  1  0  0  0  0
  6 19  1  0  0  0  0
  7 10  2  0  0  0  0
  7 18  1  0  0  0  0
  8 21  1  0  0  0  0
  9 21  2  0  0  0  0
 10 22  1  0  0  0  0
 11 12  2  0  0  0  0
 11 23  1  0  0  0  0
 12 24  1  0  0  0  0
 13 20  1  0  0  0  0
 13 22  2  0  0  0  0
 14 24  2  0  0  0  0
 14 25  1  0  0  0  0
 15 26  1  0  0  0  0
 16 26  1  0  0  0  0
 16 27  2  0  0  0  0
 16 28  1  0  0  0  0
 17 19  2  0  0  0  0
 17 33  1  0  0  0  0
 18 20  2  0  0  0  0
 18 34  1  0  0  0  0
 19 47  1  0  0  0  0
 20 35  1  0  0  0  0
 21 83  1  0  0  0  0
 22 84  1  0  0  0  0
 23 25  2  0  0  0  0
 23 83  1  0  0  0  0
 24 85  1  0  0  0  0
 25 86  1  0  0  0  0
 26 66  2  0  0  0  0
 27 67  1  0  0  0  0
 27 70  1  0  0  0  0
 28 71  1  0  0  0  0
 28 77  2  0  0  0  0
 29 48  1  0  0  0  0
 29 72  1  0  0  0  0
 29 78  2  0  0  0  0
 30 63  1  0  0  0  0
 30 68  1  0  0  0  0
 30 79  2  0  0  0  0
 31 64  1  0  0  0  0
 31 73  1  0  0  0  0
 31 80  2  0  0  0  0
 32 69  1  0  0  0  0
 32 74  1  0  0  0  0
 32 81  2  0  0  0  0
 33 36  1  0  0  0  0
 34 48  1  0  0  0  0
 35 68  1  0  0  0  0
 36 38  1  0  0  0  0
 37 41  1  0  0  0  0
 37 44  1  0  0  0  0
 38 47  1  0  0  0  0
 39 42  1  0  0  0  0
 39 49  1  0  0  0  0
 40 43  1  0  0  0  0
 40 49  1  0  0  0  0
 41 50  1  0  0  0  0
 42 51  1  0  0  0  0
 43 51  1  0  0  0  0
 44 69  1  0  0  0  0
 45 50  1  0  0  0  0
 45 69  1  0  0  0  0
 46 52  1  0  0  0  0
 46 82  1  0  0  0  0
 47 72  1  0  0  0  0
 48 68  1  0  0  0  0
 49 60  1  0  0  0  0
 50 67  1  0  0  0  0
 51 84  1  0  0  0  0
 52 54  1  0  0  0  0
 52 75  1  0  0  0  0
 53 60  1  0  0  0  0
 53 75  1  0  0  0  0
 53 82  1  0  0  0  0
 55 64  1  0  0  0  0
 56 65  1  0  0  0  0
 57 65  1  0  0  0  0
 58 65  1  0  0  0  0
 59 76  1  0  0  0  0
 61 62  1  0  0  0  0
 61 74  1  0  0  0  0
 62 75  1  0  0  0  0
 63 65  1  0  0  0  0
 63 73  1  0  0  0  0
 64 76  1  0  0  0  0
 66 67  1  0  0  0  0
M  CHG  2  75   1  76   1
M  ISO  4  32 100  51 101  74 100  84 101
M  END
> <Batch ID>
0128

> <Smiles>
CNC(C)C(=O)NC(C(=O)N1Cc2cc([101O:1][101CH:1]3CCC(CC4OCC(C)N4CC[100NH:0][100C:0](=O)N4CCCC(n5nc(-c6ccc(Oc7ccc(F)cc7F)cc6)c(C(N)=O)c5N)C4)CC3)ccc2CC1C(=O)NC1CCCc2ccccc21)C(C)(C)C

> <Shape>
0.233

> <Color>
0.066

> <Negative vol penalty>
0.000

$$$$

  -OEChem-04052320423D

 81 89  0     1  0  0  0  0  0999 V2000
  -18.9573  -33.2334   20.8222 C   0  0  0  0  0  0  0  0  0  0  0  0
  -20.1933  -32.8106   20.3437 C   0  0  0  0  0  0  0  0  0  0  0  0
  -26.1888  -12.9144   21.6695 C   0  0  0  0  0  0  0  0  0  0  0  0
  -25.8736  -13.7661   19.4307 C   0  0  0  0  0  0  0  0  0  0  0  0
  -18.5145  -32.8110   22.0750 C   0  0  0  0  0  0  0  0  0  0  0  0
  -20.9878  -31.9660   21.1182 C   0  0  0  0  0  0  0  0  0  0  0  0
  -24.6901  -27.5230   19.1037 C   0  0  0  0  0  0  0  0  0  0  0  0
  -28.6479  -22.2069   16.2832 C   0  0  0  0  0  0  0  0  0  0  0  0
  -24.9828  -12.2201   21.5752 C   0  0  0  0  0  0  0  0  0  0  0  0
  -24.6675  -13.0718   19.3364 C   0  0  0  0  0  0  0  0  0  0  0  0
  -26.0656  -27.4776   18.8803 C   0  0  0  0  0  0  0  0  0  0  0  0
  -23.8581   -9.3613   20.1625 C   0  0  0  0  0  0  0  0  0  0  0  0
  -23.8358   -8.0381   20.6030 C   0  0  0  0  0  0  0  0  0  0  0  0
  -28.5738  -21.2704   17.3083 C   0  0  0  0  0  0  0  0  0  0  0  0
  -26.3820  -26.5017   21.0635 C   0  0  0  0  0  0  0  0  0  0  0  0
  -22.1420   -8.6080   22.2289 C   0  0  0  0  0  0  0  0  0  0  0  0
  -26.6342  -13.6875   20.5972 C   0  0  0  0  0  0  0  0  0  0  0  0
  -29.1593  -13.9399   20.3367 C   0  0  0  0  0  0  0  0  0  0  0  0
  -19.2997  -31.9531   22.8611 C   0  0  0  0  0  0  0  0  0  0  0  0
  -24.1505  -27.0674   20.3152 C   0  0  0  0  0  0  0  0  0  0  0  0
  -20.5556  -31.5329   22.3833 C   0  0  0  0  0  0  0  0  0  0  0  0
  -24.9992  -26.5401   21.2989 C   0  0  0  0  0  0  0  0  0  0  0  0
  -29.0735  -23.5011   16.5609 C   0  0  0  0  0  0  0  0  0  0  0  0
  -24.2221  -12.2987   20.4087 C   0  0  0  0  0  0  0  0  0  0  0  0
  -26.9120  -26.9695   19.8613 C   0  0  0  0  0  0  0  0  0  0  0  0
  -23.0225  -10.3080   20.7552 C   0  0  0  0  0  0  0  0  0  0  0  0
  -22.9777   -7.6614   21.6362 C   0  0  0  0  0  0  0  0  0  0  0  0
  -22.1644   -9.9313   21.7884 C   0  0  0  0  0  0  0  0  0  0  0  0
  -27.8797  -14.4054   20.6942 C   0  0  0  0  0  0  0  0  0  0  0  0
  -28.9335  -21.6751   18.5837 C   0  0  0  0  0  0  0  0  0  0  0  0
  -29.4107  -23.8060   17.8698 C   0  0  0  0  0  0  0  0  0  0  0  0
  -29.9978  -14.9909   20.6176 C   0  0  0  0  0  0  0  0  0  0  0  0
  -29.5546  -12.6710   19.7988 C   0  0  0  0  0  0  0  0  0  0  0  0
  -22.5010  -28.4055   22.6801 C   0  0  0  0  0  0  0  0  0  0  0  0
  -22.3260  -25.3529   23.7633 C   0  0  0  0  0  0  0  0  0  0  0  0
  -23.6593  -22.2116   23.8023 C   0  0  0  0  0  0  0  0  0  0  0  0
  -29.1639  -20.8973   20.9688 C   0  0  0  0  0  0  0  0  0  0  0  0
  -18.7997  -31.5613   24.2290 C   0  0  0  0  0  0  0  0  0  0  0  0
  -22.6621  -27.0986   20.5302 C   0  0  0  0  0  0  0  0  0  0  0  0
  -24.4678  -26.0195   22.6086 C   0  0  0  0  0  0  0  0  0  0  0  0
  -19.5365  -30.3657   24.8274 C   0  0  0  0  0  0  0  0  0  0  0  0
  -30.4216  -18.7683   23.5305 C   0  0  0  0  0  0  0  0  0  0  0  0
  -21.0441  -30.5317   24.6647 C   0  0  0  0  0  0  0  0  0  0  0  0
  -30.0343  -17.3651   23.0584 C   0  0  0  0  0  0  0  0  0  0  0  0
  -29.3460  -19.7983   23.1900 C   0  0  0  0  0  0  0  0  0  0  0  0
  -28.5499  -18.4227   21.3077 C   0  0  0  0  0  0  0  0  0  0  0  0
  -21.4352  -30.5967   23.1834 C   0  0  1  0  0  0  0  0  0  0  0  0
  -22.2709  -27.0831   22.0047 C   0  0  1  0  0  0  0  0  0  0  0  0
  -29.6315  -17.3622   21.5706 C   0  0  2  0  0  0  0  0  0  0  0  0
  -29.1523  -24.5024   15.4593 C   0  0  0  0  0  0  0  0  0  0  0  0
  -23.3169  -19.9387   24.8094 C   0  0  0  0  0  0  0  0  0  0  0  0
  -23.4433  -26.3629   26.4169 C   0  0  0  0  0  0  0  0  0  0  0  0
  -23.9648  -23.9898   27.0208 C   0  0  0  0  0  0  0  0  0  0  0  0
  -21.6010  -24.6854   26.6316 C   0  0  0  0  0  0  0  0  0  0  0  0
  -23.3002  -20.9605   21.1444 C   0  0  0  0  0  0  0  0  0  0  0  0
  -30.2161  -25.5413   19.4716 C   0  0  0  0  0  0  0  0  0  0  0  0
  -28.9814  -25.8790   20.2904 C   0  0  0  0  0  0  0  0  0  1  0  0
  -23.1749  -24.4874   24.6629 C   0  0  1  0  0  0  0  0  0  0  0  0
  -23.0229  -20.8450   23.6240 C   0  0  2  0  0  0  0  0  0  0  0  0
  -23.0565  -24.8929   26.1592 C   0  0  0  0  0  0  0  0  0  0  0  0
  -27.8988  -15.6547   21.1663 N   0  0  0  0  0  0  0  0  0  0  0  0
  -29.3516  -22.9232   18.8920 N   0  0  0  0  0  0  0  0  0  0  0  0
  -29.2006  -15.9832   21.1075 N   0  0  0  0  0  0  0  0  0  0  0  0
  -23.0061  -26.0772   22.7740 N   0  0  0  0  0  0  0  0  0  0  0  0
  -29.0185  -19.7408   21.7637 N   0  0  0  0  0  0  0  0  0  0  0  0
  -31.3319  -15.1537   20.4909 N   0  0  0  0  0  0  0  0  0  0  0  0
  -28.5655  -11.7045   19.5712 N   0  0  0  0  0  0  0  0  0  0  0  0
  -28.8542  -20.7136   19.6216 N   0  0  0  0  0  0  0  0  0  0  0  0
  -29.8356  -25.0938   18.1513 N   0  0  0  0  0  0  0  0  0  0  0  0
  -21.4278  -29.2723   22.6001 N   0  0  0  0  0  0  0  0  0  0  0  0
  -22.7888  -23.1082   24.3852 N   0  0  0  0  0  0  0  0  0  0  0  0
  -23.5419  -20.1889   22.3907 N   0  3  0  0  0  0  0  0  0  0  0  0
  -30.7516  -12.3965   19.5434 O   0  0  0  0  0  0  0  0  0  0  0  0
  -23.5722  -28.6227   23.2341 O   0  0  0  0  0  0  0  0  0  0  0  0
  -21.1037  -25.3797   23.9276 O   0  0  0  0  0  0  0  0  0  0  0  0
  -24.8143  -22.4581   23.4622 O   0  0  0  0  0  0  0  0  0  0  0  0
  -29.5619  -21.9646   21.4425 O   0  0  0  0  0  0  0  0  0  0  0  0
  -23.0453  -11.6211   20.3162 O   0  0  0  0  0  0  0  0  0  0  0  0
  -28.2549  -26.9247   19.6460 O   0  0  0  0  0  0  0  0  0  1  0  0
  -22.9552   -6.3903   22.0581 F   0  0  0  0  0  0  0  0  0  0  0  0
  -21.3584  -10.8360   22.3609 F   0  0  0  0  0  0  0  0  0  0  0  0
  1  2  1  0  0  0  0
  1  5  2  0  0  0  0
  2  6  2  0  0  0  0
  3  9  2  0  0  0  0
  3 17  1  0  0  0  0
  4 10  1  0  0  0  0
  4 17  2  0  0  0  0
  5 19  1  0  0  0  0
  6 21  1  0  0  0  0
  7 11  2  0  0  0  0
  7 20  1  0  0  0  0
  8 14  2  0  0  0  0
  8 23  1  0  0  0  0
  9 24  1  0  0  0  0
 10 24  2  0  0  0  0
 11 25  1  0  0  0  0
 12 13  2  0  0  0  0
 12 26  1  0  0  0  0
 13 27  1  0  0  0  0
 14 30  1  0  0  0  0
 15 22  1  0  0  0  0
 15 25  2  0  0  0  0
 16 27  2  0  0  0  0
 16 28  1  0  0  0  0
 17 29  1  0  0  0  0
 18 29  1  0  0  0  0
 18 32  2  0  0  0  0
 18 33  1  0  0  0  0
 19 21  2  0  0  0  0
 19 38  1  0  0  0  0
 20 22  2  0  0  0  0
 20 39  1  0  0  0  0
 21 47  1  0  0  0  0
 22 40  1  0  0  0  0
 23 31  2  0  0  0  0
 23 50  1  0  0  0  0
 24 78  1  0  0  0  0
 25 79  1  0  0  0  0
 26 28  2  0  0  0  0
 26 78  1  0  0  0  0
 27 80  1  0  0  0  0
 28 81  1  0  0  0  0
 29 61  2  0  0  0  0
 30 62  2  0  0  0  0
 30 68  1  0  0  0  0
 31 62  1  0  0  0  0
 31 69  1  0  0  0  0
 32 63  1  0  0  0  0
 32 66  1  0  0  0  0
 33 67  1  0  0  0  0
 33 73  2  0  0  0  0
 34 48  1  0  0  0  0
 34 70  1  0  0  0  0
 34 74  2  0  0  0  0
 35 58  1  0  0  0  0
 35 64  1  0  0  0  0
 35 75  2  0  0  0  0
 36 59  1  0  0  0  0
 36 71  1  0  0  0  0
 36 76  2  0  0  0  0
 37 65  1  0  0  0  0
 37 68  1  0  0  0  0
 37 77  2  0  0  0  0
 38 41  1  0  0  0  0
 39 48  1  0  0  0  0
 40 64  1  0  0  0  0
 41 43  1  0  0  0  0
 42 44  1  0  0  0  0
 42 45  1  0  0  0  0
 43 47  1  0  0  0  0
 44 49  1  0  0  0  0
 45 65  1  0  0  0  0
 46 49  1  0  0  0  0
 46 65  1  0  0  0  0
 47 70  1  0  0  0  0
 48 64  1  0  0  0  0
 49 63  1  0  0  0  0
 51 59  1  0  0  0  0
 52 60  1  0  0  0  0
 53 60  1  0  0  0  0
 54 60  1  0  0  0  0
 55 72  1  0  0  0  0
 56 57  1  0  0  0  0
 56 69  1  0  0  0  0
 57 79  1  0  0  0  0
 58 60  1  0  0  0  0
 58 71  1  0  0  0  0
 59 72  1  0  0  0  0
 61 63  1  0  0  0  0
M  CHG  1  72   1
M  ISO  4  37 100  57 101  68 100  79 101
M  END
> <Batch ID>
0128

> <Smiles>
CNC(C)C(=O)NC(C(=O)N1Cc2cc([101O:1][101CH2:1]CNc3nc([100NH:0][100C:0](=O)N4CCCC(n5nc(-c6ccc(Oc7ccc(F)cc7F)cc6)c(C(N)=O)c5N)C4)ccc3C)ccc2CC1C(=O)NC1CCCc2ccccc21)C(C)(C)C

> <Shape>
0.252

> <Color>
0.121

> <Negative vol penalty>
0.000

$$$$

  -OEChem-04052320423D

 80 88  0     1  0  0  0  0  0999 V2000
  -31.3299  -34.2397   25.1323 C   0  0  0  0  0  0  0  0  0  0  0  0
  -31.3678  -33.0918   24.3472 C   0  0  0  0  0  0  0  0  0  0  0  0
  -24.0419   -9.0374   20.2966 C   0  0  0  0  0  0  0  0  0  0  0  0
  -22.8598  -10.9310   21.2207 C   0  0  0  0  0  0  0  0  0  0  0  0
  -30.2809  -34.4346   26.0299 C   0  0  0  0  0  0  0  0  0  0  0  0
  -30.3572  -32.1376   24.4600 C   0  0  0  0  0  0  0  0  0  0  0  0
  -28.0508  -28.6696   19.9702 C   0  0  0  0  0  0  0  0  0  0  0  0
  -27.7352  -18.9079   18.4227 C   0  0  0  0  0  0  0  0  0  0  0  0
  -23.1324   -8.1726   20.9052 C   0  0  0  0  0  0  0  0  0  0  0  0
  -21.9502  -10.0661   21.8292 C   0  0  0  0  0  0  0  0  0  0  0  0
  -28.3001  -27.3551   19.5780 C   0  0  0  0  0  0  0  0  0  0  0  0
  -22.5878   -6.8980   23.9880 C   0  0  0  0  0  0  0  0  0  0  0  0
  -23.0992   -5.7811   24.6487 C   0  0  0  0  0  0  0  0  0  0  0  0
  -27.6636  -20.2847   18.2414 C   0  0  0  0  0  0  0  0  0  0  0  0
  -26.4061  -26.6150   20.8756 C   0  0  0  0  0  0  0  0  0  0  0  0
  -21.8448   -4.3349   23.1748 C   0  0  0  0  0  0  0  0  0  0  0  0
  -29.3763  -19.2673   20.1062 C   0  0  0  0  0  0  0  0  0  0  0  0
  -23.9057  -10.4166   20.4544 C   0  0  0  0  0  0  0  0  0  0  0  0
  -24.7502  -11.8783   18.5418 C   0  0  0  0  0  0  0  0  0  0  0  0
  -29.2519  -33.4869   26.1468 C   0  0  0  0  0  0  0  0  0  0  0  0
  -26.9819  -28.9657   20.8283 C   0  0  0  0  0  0  0  0  0  0  0  0
  -29.2942  -32.3194   25.3610 C   0  0  0  0  0  0  0  0  0  0  0  0
  -26.1437  -27.9343   21.2752 C   0  0  0  0  0  0  0  0  0  0  0  0
  -28.6053  -18.3815   19.3708 C   0  0  0  0  0  0  0  0  0  0  0  0
  -22.0865   -8.6869   21.6715 C   0  0  0  0  0  0  0  0  0  0  0  0
  -27.4795  -26.3272   20.0330 C   0  0  0  0  0  0  0  0  0  0  0  0
  -21.7049   -6.7334   22.9207 C   0  0  0  0  0  0  0  0  0  0  0  0
  -22.7277   -4.4996   24.2421 C   0  0  0  0  0  0  0  0  0  0  0  0
  -21.3334   -5.4519   22.5141 C   0  0  0  0  0  0  0  0  0  0  0  0
  -24.8452  -11.3105   19.8265 C   0  0  0  0  0  0  0  0  0  0  0  0
  -28.4766  -21.0853   19.0275 C   0  0  0  0  0  0  0  0  0  0  0  0
  -25.8829  -12.6456   18.4208 C   0  0  0  0  0  0  0  0  0  0  0  0
  -23.7292  -11.7258   17.5468 C   0  0  0  0  0  0  0  0  0  0  0  0
  -26.7218  -30.2230   23.7360 C   0  0  0  0  0  0  0  0  0  0  0  0
  -23.5460  -30.0746   23.0917 C   0  0  0  0  0  0  0  0  0  0  0  0
  -21.0136  -28.6252   21.3218 C   0  0  0  0  0  0  0  0  0  0  0  0
  -29.5221  -16.3180   20.4878 C   0  0  0  0  0  0  0  0  0  0  0  0
  -28.1637  -33.7188   27.1650 C   0  0  0  0  0  0  0  0  0  0  0  0
  -26.7102  -30.3921   21.2206 C   0  0  0  0  0  0  0  0  0  0  0  0
  -24.9710  -28.2020   22.1815 C   0  0  0  0  0  0  0  0  0  0  0  0
  -26.9349  -32.8379   26.9545 C   0  0  0  0  0  0  0  0  0  0  0  0
  -30.0192  -12.8939   21.3280 C   0  0  0  0  0  0  0  0  0  0  0  0
  -27.3511  -31.3916   26.7060 C   0  0  0  0  0  0  0  0  0  0  0  0
  -28.7096  -12.2234   20.9066 C   0  0  0  0  0  0  0  0  0  0  0  0
  -29.7827  -14.2903   21.9005 C   0  0  0  0  0  0  0  0  0  0  0  0
  -27.6896  -14.5181   20.6214 C   0  0  0  0  0  0  0  0  0  0  0  0
  -28.2035  -31.2732   25.4368 C   0  0  1  0  0  0  0  0  0  0  0  0
  -25.9036  -30.5139   22.5098 C   0  0  1  0  0  0  0  0  0  0  0  0
  -27.8830  -13.1350   19.9785 C   0  0  2  0  0  0  0  0  0  0  0  0
  -18.5209  -28.6875   21.0391 C   0  0  0  0  0  0  0  0  0  0  0  0
  -23.2132  -28.5466   25.7117 C   0  0  0  0  0  0  0  0  0  0  0  0
  -20.9484  -27.8271   24.9235 C   0  0  0  0  0  0  0  0  0  0  0  0
  -21.4371  -30.2494   25.2642 C   0  0  0  0  0  0  0  0  0  0  0  0
  -21.2395  -29.3983   18.4739 C   0  0  0  0  0  0  0  0  0  0  0  0
  -29.0769  -24.6903   19.3813 C   0  0  0  0  0  0  0  0  0  1  0  0
  -29.2790  -23.2212   19.6981 C   0  0  0  0  0  0  0  0  0  0  0  0
  -22.4615  -29.0438   23.2922 C   0  0  1  0  0  0  0  0  0  0  0  0
  -19.8551  -29.2252   20.5457 C   0  0  2  0  0  0  0  0  0  0  0  0
  -22.0382  -28.9111   24.7824 C   0  0  0  0  0  0  0  0  0  0  0  0
  -29.3342  -20.6104   19.9584 N   0  0  0  0  0  0  0  0  0  0  0  0
  -25.9511  -11.6850   20.4752 N   0  0  0  0  0  0  0  0  0  0  0  0
  -26.5614  -12.4963   19.5946 N   0  0  0  0  0  0  0  0  0  0  0  0
  -24.7503  -29.6122   22.5422 N   0  0  0  0  0  0  0  0  0  0  0  0
  -28.9972  -15.0984   20.9652 N   0  0  0  0  0  0  0  0  0  0  0  0
  -26.3549  -13.4266   17.4260 N   0  0  0  0  0  0  0  0  0  0  0  0
  -22.6336  -10.9004   17.8347 N   0  0  0  0  0  0  0  0  0  0  0  0
  -28.7000  -16.9831   19.5788 N   0  0  0  0  0  0  0  0  0  0  0  0
  -27.3655  -31.3287   24.2581 N   0  0  0  0  0  0  0  0  0  0  0  0
  -21.3743  -29.4149   22.3930 N   0  0  0  0  0  0  0  0  0  0  0  0
  -19.9829  -28.9068   19.0955 N   0  3  0  0  0  0  0  0  0  0  0  0
  -23.7948  -12.2914   16.4291 O   0  0  0  0  0  0  0  0  0  0  0  0
  -26.7646  -29.0804   24.1768 O   0  0  0  0  0  0  0  0  0  0  0  0
  -23.3301  -31.2482   23.4042 O   0  0  0  0  0  0  0  0  0  0  0  0
  -21.5429  -27.5604   21.0111 O   0  0  0  0  0  0  0  0  0  0  0  0
  -30.6321  -16.7278   20.8372 O   0  0  0  0  0  0  0  0  0  0  0  0
  -21.1986   -7.8433   22.2653 O   0  0  0  0  0  0  0  0  0  0  0  0
  -27.7211  -25.0433   19.6522 O   0  0  0  0  0  0  0  0  0  1  0  0
  -28.4247  -22.4449   18.8670 O   0  0  0  0  0  0  0  0  0  0  0  0
  -23.2201   -3.4270   24.8757 F   0  0  0  0  0  0  0  0  0  0  0  0
  -20.4865   -5.2874   21.4887 F   0  0  0  0  0  0  0  0  0  0  0  0
  1  2  1  0  0  0  0
  1  5  2  0  0  0  0
  2  6  2  0  0  0  0
  3  9  2  0  0  0  0
  3 18  1  0  0  0  0
  4 10  1  0  0  0  0
  4 18  2  0  0  0  0
  5 20  1  0  0  0  0
  6 22  1  0  0  0  0
  7 11  2  0  0  0  0
  7 21  1  0  0  0  0
  8 14  2  0  0  0  0
  8 24  1  0  0  0  0
  9 25  1  0  0  0  0
 10 25  2  0  0  0  0
 11 26  1  0  0  0  0
 12 13  2  0  0  0  0
 12 27  1  0  0  0  0
 13 28  1  0  0  0  0
 14 31  1  0  0  0  0
 15 23  1  0  0  0  0
 15 26  2  0  0  0  0
 16 28  2  0  0  0  0
 16 29  1  0  0  0  0
 17 24  2  0  0  0  0
 17 60  1  0  0  0  0
 18 30  1  0  0  0  0
 19 30  1  0  0  0  0
 19 32  2  0  0  0  0
 19 33  1  0  0  0  0
 20 22  2  0  0  0  0
 20 38  1  0  0  0  0
 21 23  2  0  0  0  0
 21 39  1  0  0  0  0
 22 47  1  0  0  0  0
 23 40  1  0  0  0  0
 24 67  1  0  0  0  0
 25 76  1  0  0  0  0
 26 77  1  0  0  0  0
 27 29  2  0  0  0  0
 27 76  1  0  0  0  0
 28 79  1  0  0  0  0
 29 80  1  0  0  0  0
 30 61  2  0  0  0  0
 31 60  2  0  0  0  0
 31 78  1  0  0  0  0
 32 62  1  0  0  0  0
 32 65  1  0  0  0  0
 33 66  1  0  0  0  0
 33 71  2  0  0  0  0
 34 48  1  0  0  0  0
 34 68  1  0  0  0  0
 34 72  2  0  0  0  0
 35 57  1  0  0  0  0
 35 63  1  0  0  0  0
 35 73  2  0  0  0  0
 36 58  1  0  0  0  0
 36 69  1  0  0  0  0
 36 74  2  0  0  0  0
 37 64  1  0  0  0  0
 37 67  1  0  0  0  0
 37 75  2  0  0  0  0
 38 41  1  0  0  0  0
 39 48  1  0  0  0  0
 40 63  1  0  0  0  0
 41 43  1  0  0  0  0
 42 44  1  0  0  0  0
 42 45  1  0  0  0  0
 43 47  1  0  0  0  0
 44 49  1  0  0  0  0
 45 64  1  0  0  0  0
 46 49  1  0  0  0  0
 46 64  1  0  0  0  0
 47 68  1  0  0  0  0
 48 63  1  0  0  0  0
 49 62  1  0  0  0  0
 50 58  1  0  0  0  0
 51 59  1  0  0  0  0
 52 59  1  0  0  0  0
 53 59  1  0  0  0  0
 54 70  1  0  0  0  0
 55 56  1  0  0  0  0
 55 77  1  0  0  0  0
 56 78  1  0  0  0  0
 57 59  1  0  0  0  0
 57 69  1  0  0  0  0
 58 70  1  0  0  0  0
 61 62  1  0  0  0  0
M  CHG  1  70   1
M  ISO  4  37 100  55 101  67 100  77 101
M  END
> <Batch ID>
0128

> <Smiles>
CNC(C)C(=O)NC(C(=O)N1Cc2cc([101O:1][101CH2:1]COc3ccc([100NH:0][100C:0](=O)N4CCCC(n5nc(-c6ccc(Oc7ccc(F)cc7F)cc6)c(C(N)=O)c5N)C4)cn3)ccc2CC1C(=O)NC1CCCc2ccccc21)C(C)(C)C

> <Shape>
0.307

> <Color>
0.123

> <Negative vol penalty>
0.000

$$$$

  -OEChem-04052320423D

 85 94  0     1  0  0  0  0  0999 V2000
  -20.3902  -22.8496   20.3669 C   0  0  0  0  0  0  0  0  0  0  0  0
  -21.7557  -22.6287   20.2182 C   0  0  0  0  0  0  0  0  0  0  0  0
  -21.4263  -27.9368   20.7655 C   0  0  0  0  0  0  0  0  0  0  0  0
  -22.2665  -26.4662   22.4885 C   0  0  0  0  0  0  0  0  0  0  0  0
  -19.6193  -21.9620   21.1164 C   0  0  0  0  0  0  0  0  0  0  0  0
  -22.3512  -21.5207   20.8200 C   0  0  0  0  0  0  0  0  0  0  0  0
  -27.0090  -18.2017   18.6301 C   0  0  0  0  0  0  0  0  0  0  0  0
  -31.4228  -20.7928   23.9016 C   0  0  0  0  0  0  0  0  0  0  0  0
  -31.1410  -21.7557   22.9315 C   0  0  0  0  0  0  0  0  0  0  0  0
  -20.2057  -28.0237   21.4349 C   0  0  0  0  0  0  0  0  0  0  0  0
  -21.0458  -26.5532   23.1579 C   0  0  0  0  0  0  0  0  0  0  0  0
  -28.3776  -18.2168   18.8952 C   0  0  0  0  0  0  0  0  0  0  0  0
  -18.9362  -29.6797   24.0955 C   0  0  0  0  0  0  0  0  0  0  0  0
  -18.3602  -30.9427   24.2319 C   0  0  0  0  0  0  0  0  0  0  0  0
  -31.3878  -20.0884   21.2096 C   0  0  0  0  0  0  0  0  0  0  0  0
  -28.0839  -16.4235   20.4818 C   0  0  0  0  0  0  0  0  0  0  0  0
  -16.4150  -30.1870   23.0145 C   0  0  0  0  0  0  0  0  0  0  0  0
  -22.4567  -27.1580   21.2923 C   0  0  0  0  0  0  0  0  0  0  0  0
  -24.8396  -27.9015   20.7662 C   0  0  0  0  0  0  0  0  0  0  0  0
  -20.2039  -20.8373   21.7196 C   0  0  0  0  0  0  0  0  0  0  0  0
  -26.1644  -17.3033   19.2980 C   0  0  0  0  0  0  0  0  0  0  0  0
  -21.5876  -20.6180   21.5794 C   0  0  0  0  0  0  0  0  0  0  0  0
  -31.6739  -19.1129   22.1784 C   0  0  0  0  0  0  0  0  0  0  0  0
  -26.7052  -16.3973   20.2214 C   0  0  0  0  0  0  0  0  0  0  0  0
  -31.6816  -19.4605   23.5447 C   0  0  0  0  0  0  0  0  0  0  0  0
  -31.1217  -21.4031   21.5860 C   0  0  0  0  0  0  0  0  0  0  0  0
  -20.0154  -27.3319   22.6311 C   0  0  0  0  0  0  0  0  0  0  0  0
  -28.9149  -17.3295   19.8233 C   0  0  0  0  0  0  0  0  0  0  0  0
  -18.2517  -28.6703   23.4185 C   0  0  0  0  0  0  0  0  0  0  0  0
  -17.0996  -31.1964   23.6914 C   0  0  0  0  0  0  0  0  0  0  0  0
  -16.9911  -28.9240   22.8780 C   0  0  0  0  0  0  0  0  0  0  0  0
  -23.7177  -27.0674   20.6010 C   0  0  0  0  0  0  0  0  0  0  0  0
  -25.7705  -27.4029   19.8879 C   0  0  0  0  0  0  0  0  0  0  0  0
  -25.0239  -29.0264   21.6358 C   0  0  0  0  0  0  0  0  0  0  0  0
  -23.6905  -17.5954   21.2724 C   0  0  0  0  0  0  0  0  0  0  0  0
  -23.5399  -14.3727   20.9353 C   0  0  0  0  0  0  0  0  0  0  0  0
  -25.1535  -11.4588   20.1923 C   0  0  0  0  0  0  0  0  0  0  0  0
  -28.4604  -23.0957   17.5733 C   0  0  0  0  0  0  0  0  0  0  0  0
  -19.3383  -19.9318   22.5596 C   0  0  0  0  0  0  0  0  0  0  0  0
  -24.6942  -17.2816   18.9811 C   0  0  0  0  0  0  0  0  0  0  0  0
  -25.8445  -15.3992   20.9504 C   0  0  0  0  0  0  0  0  0  0  0  0
  -19.9787  -18.5776   22.8533 C   0  0  0  0  0  0  0  0  0  0  0  0
  -25.3056  -23.9883   16.1851 C   0  0  0  0  0  0  0  0  0  0  0  0
  -21.4265  -18.7571   23.2989 C   0  0  0  0  0  0  0  0  0  0  0  0
  -24.7017  -24.9322   17.2264 C   0  0  0  0  0  0  0  0  0  0  0  0
  -32.7536  -16.9447   22.8344 C   0  0  0  0  0  0  0  0  0  0  0  0
  -26.1059  -22.8641   16.8393 C   0  0  0  0  0  0  0  0  0  0  0  0
  -32.1293  -17.1255   24.2137 C   0  0  0  0  0  0  0  0  0  0  0  0
  -26.5419  -24.2568   18.8252 C   0  0  0  0  0  0  0  0  0  0  0  0
  -31.9601  -17.6870   21.7470 C   0  0  1  0  0  0  0  0  0  0  0  0
  -22.2657  -19.4139   22.1962 C   0  0  1  0  0  0  0  0  0  0  0  0
  -23.8513  -16.6728   20.0974 C   0  0  1  0  0  0  0  0  0  0  0  0
  -25.7721  -25.4389   18.2116 C   0  0  2  0  0  0  0  0  0  0  0  0
  -24.7774   -8.9824   20.0392 C   0  0  0  0  0  0  0  0  0  0  0  0
  -23.6083  -14.1765   23.9794 C   0  0  0  0  0  0  0  0  0  0  0  0
  -24.1854  -11.7520   23.7406 C   0  0  0  0  0  0  0  0  0  0  0  0
  -22.0100  -12.6063   22.8685 C   0  0  0  0  0  0  0  0  0  0  0  0
  -25.8269  -11.4175   17.3107 C   0  0  0  0  0  0  0  0  0  0  0  0
  -30.6594  -16.9582   21.3965 C   0  0  0  0  0  0  0  0  0  1  0  0
  -31.1941  -22.2179   19.2288 C   0  0  0  0  0  0  0  0  0  0  0  0
  -30.7681  -23.4345   18.4213 C   0  0  0  0  0  0  0  0  0  0  0  0
  -24.1485  -13.1930   21.6541 C   0  0  1  0  0  0  0  0  0  0  0  0
  -24.7772  -10.3023   19.2838 C   0  0  2  0  0  0  0  0  0  0  0  0
  -23.5042  -12.9519   23.0485 C   0  0  0  0  0  0  0  0  0  0  0  0
  -23.9156  -26.1115   19.6893 N   0  0  0  0  0  0  0  0  0  0  0  0
  -25.1727  -26.3420   19.2737 N   0  0  0  0  0  0  0  0  0  0  0  0
  -31.9851  -18.5318   24.5313 N   0  0  0  0  0  0  0  0  0  0  0  0
  -24.4121  -15.4213   20.6108 N   0  0  0  0  0  0  0  0  0  0  0  0
  -27.1047  -23.4118   17.7603 N   0  0  0  0  0  0  0  0  0  0  0  0
  -27.0338  -27.7730   19.5887 N   0  0  0  0  0  0  0  0  0  0  0  0
  -23.9653  -29.4040   22.4732 N   0  0  0  0  0  0  0  0  0  0  0  0
  -30.8369  -22.3750   20.6049 N   0  0  0  0  0  0  0  0  0  0  0  0
  -22.6058  -18.4460   21.1756 N   0  0  0  0  0  0  0  0  0  0  0  0
  -24.0408  -12.0593   20.7422 N   0  0  0  0  0  0  0  0  0  0  0  0
  -29.3416  -23.6614   18.4868 N   0  0  0  0  0  0  0  0  0  0  0  0
  -25.7422  -10.1968   18.1530 N   0  3  0  0  0  0  0  0  0  0  0  0
  -26.0897  -29.6876   21.6575 O   0  0  0  0  0  0  0  0  0  0  0  0
  -24.4905  -17.5388   22.1989 O   0  0  0  0  0  0  0  0  0  0  0  0
  -22.3363  -14.3610   20.6650 O   0  0  0  0  0  0  0  0  0  0  0  0
  -26.3183  -11.7934   20.3970 O   0  0  0  0  0  0  0  0  0  0  0  0
  -28.8569  -22.3680   16.6567 O   0  0  0  0  0  0  0  0  0  0  0  0
  -18.8246  -27.4167   23.2846 O   0  0  0  0  0  0  0  0  0  0  0  0
  -30.2504  -17.3425   20.0845 O   0  0  0  0  0  0  0  0  0  1  0  0
  -16.5459  -32.4088   23.8238 F   0  0  0  0  0  0  0  0  0  0  0  0
  -16.3281  -27.9580   22.2276 F   0  0  0  0  0  0  0  0  0  0  0  0
  1  2  1  0  0  0  0
  1  5  2  0  0  0  0
  2  6  2  0  0  0  0
  3 10  2  0  0  0  0
  3 18  1  0  0  0  0
  4 11  1  0  0  0  0
  4 18  2  0  0  0  0
  5 20  1  0  0  0  0
  6 22  1  0  0  0  0
  7 12  2  0  0  0  0
  7 21  1  0  0  0  0
  8  9  2  0  0  0  0
  8 25  1  0  0  0  0
  9 26  1  0  0  0  0
 10 27  1  0  0  0  0
 11 27  2  0  0  0  0
 12 28  1  0  0  0  0
 13 14  2  0  0  0  0
 13 29  1  0  0  0  0
 14 30  1  0  0  0  0
 15 23  1  0  0  0  0
 15 26  2  0  0  0  0
 16 24  1  0  0  0  0
 16 28  2  0  0  0  0
 17 30  2  0  0  0  0
 17 31  1  0  0  0  0
 18 32  1  0  0  0  0
 19 32  1  0  0  0  0
 19 33  2  0  0  0  0
 19 34  1  0  0  0  0
 20 22  2  0  0  0  0
 20 39  1  0  0  0  0
 21 24  2  0  0  0  0
 21 40  1  0  0  0  0
 22 51  1  0  0  0  0
 23 25  2  0  0  0  0
 23 50  1  0  0  0  0
 24 41  1  0  0  0  0
 25 67  1  0  0  0  0
 26 72  1  0  0  0  0
 27 82  1  0  0  0  0
 28 83  1  0  0  0  0
 29 31  2  0  0  0  0
 29 82  1  0  0  0  0
 30 84  1  0  0  0  0
 31 85  1  0  0  0  0
 32 65  2  0  0  0  0
 33 66  1  0  0  0  0
 33 70  1  0  0  0  0
 34 71  1  0  0  0  0
 34 77  2  0  0  0  0
 35 52  1  0  0  0  0
 35 73  1  0  0  0  0
 35 78  2  0  0  0  0
 36 62  1  0  0  0  0
 36 68  1  0  0  0  0
 36 79  2  0  0  0  0
 37 63  1  0  0  0  0
 37 74  1  0  0  0  0
 37 80  2  0  0  0  0
 38 69  1  0  0  0  0
 38 75  1  0  0  0  0
 38 81  2  0  0  0  0
 39 42  1  0  0  0  0
 40 52  1  0  0  0  0
 41 68  1  0  0  0  0
 42 44  1  0  0  0  0
 43 45  1  0  0  0  0
 43 47  1  0  0  0  0
 44 51  1  0  0  0  0
 45 53  1  0  0  0  0
 46 48  1  0  0  0  0
 46 50  1  0  0  0  0
 47 69  1  0  0  0  0
 48 67  1  0  0  0  0
 49 53  1  0  0  0  0
 49 69  1  0  0  0  0
 50 59  1  0  0  0  0
 51 73  1  0  0  0  0
 52 68  1  0  0  0  0
 53 66  1  0  0  0  0
 54 63  1  0  0  0  0
 55 64  1  0  0  0  0
 56 64  1  0  0  0  0
 57 64  1  0  0  0  0
 58 76  1  0  0  0  0
 59 83  1  0  0  0  0
 60 61  1  0  0  0  0
 60 72  1  0  0  0  0
 61 75  1  0  0  0  0
 62 64  1  0  0  0  0
 62 74  1  0  0  0  0
 63 76  1  0  0  0  0
 65 66  1  0  0  0  0
M  CHG  1  76   1
M  ISO  4  38 100  59 101  75 100  83 101
M  END
> <Batch ID>
0128

> <Smiles>
CNC(C)C(=O)NC(C(=O)N1Cc2cc([101O:1][101CH2:1]C3CCNc4ccc(NCC[100NH:0][100C:0](=O)N5CCCC(n6nc(-c7ccc(Oc8ccc(F)cc8F)cc7)c(C(N)=O)c6N)C5)cc43)ccc2CC1C(=O)NC1CCCc2ccccc21)C(C)(C)C

> <Shape>
0.217

> <Color>
0.065

> <Negative vol penalty>
0.000

$$$$

  -OEChem-04052320423D

 81 89  0     1  0  0  0  0  0999 V2000
  -18.7906  -30.4103   24.7667 C   0  0  0  0  0  0  0  0  0  0  0  0
  -20.1713  -30.3291   24.6170 C   0  0  0  0  0  0  0  0  0  0  0  0
  -27.2855  -17.4245   19.4248 C   0  0  0  0  0  0  0  0  0  0  0  0
  -29.2542  -18.4052   20.4244 C   0  0  0  0  0  0  0  0  0  0  0  0
  -17.9678  -29.4617   24.1608 C   0  0  0  0  0  0  0  0  0  0  0  0
  -20.7302  -29.2983   23.8622 C   0  0  0  0  0  0  0  0  0  0  0  0
  -25.7408  -29.6036   20.3542 C   0  0  0  0  0  0  0  0  0  0  0  0
  -27.6258  -16.1862   19.9692 C   0  0  0  0  0  0  0  0  0  0  0  0
  -29.5946  -17.1669   20.9689 C   0  0  0  0  0  0  0  0  0  0  0  0
  -27.0655  -29.2298   20.5763 C   0  0  0  0  0  0  0  0  0  0  0  0
  -28.1683  -12.6874   20.7982 C   0  0  0  0  0  0  0  0  0  0  0  0
  -28.0736  -11.5665   19.9735 C   0  0  0  0  0  0  0  0  0  0  0  0
  -26.6481  -27.1217   19.4805 C   0  0  0  0  0  0  0  0  0  0  0  0
  -29.6803  -12.5457   18.4580 C   0  0  0  0  0  0  0  0  0  0  0  0
  -28.0997  -18.5340   19.6523 C   0  0  0  0  0  0  0  0  0  0  0  0
  -26.9519  -20.8120   19.6803 C   0  0  0  0  0  0  0  0  0  0  0  0
  -18.5164  -28.4244   23.3902 C   0  0  0  0  0  0  0  0  0  0  0  0
  -24.8555  -28.7333   19.7022 C   0  0  0  0  0  0  0  0  0  0  0  0
  -19.9141  -28.3341   23.2466 C   0  0  0  0  0  0  0  0  0  0  0  0
  -25.3134  -27.4879   19.2491 C   0  0  0  0  0  0  0  0  0  0  0  0
  -28.7803  -16.0574   20.7413 C   0  0  0  0  0  0  0  0  0  0  0  0
  -27.5186  -27.9876   20.1420 C   0  0  0  0  0  0  0  0  0  0  0  0
  -29.0190  -13.7375   20.4528 C   0  0  0  0  0  0  0  0  0  0  0  0
  -28.8296  -11.4956   18.8034 C   0  0  0  0  0  0  0  0  0  0  0  0
  -29.7750  -13.6666   19.2827 C   0  0  0  0  0  0  0  0  0  0  0  0
  -27.7490  -19.8132   19.0896 C   0  0  0  0  0  0  0  0  0  0  0  0
  -26.9220  -21.8222   18.7502 C   0  0  0  0  0  0  0  0  0  0  0  0
  -26.2970  -20.8254   20.9557 C   0  0  0  0  0  0  0  0  0  0  0  0
  -22.1504  -27.2696   20.5046 C   0  0  0  0  0  0  0  0  0  0  0  0
  -22.1627  -26.3800   17.3852 C   0  0  0  0  0  0  0  0  0  0  0  0
  -23.9627  -25.8062   14.5432 C   0  0  0  0  0  0  0  0  0  0  0  0
  -30.6420  -23.4117   14.3359 C   0  0  0  0  0  0  0  0  0  0  0  0
  -17.5895  -27.3950   22.7937 C   0  0  0  0  0  0  0  0  0  0  0  0
  -23.4366  -29.1622   19.4466 C   0  0  0  0  0  0  0  0  0  0  0  0
  -24.4083  -26.5253   18.5261 C   0  0  0  0  0  0  0  0  0  0  0  0
  -18.2396  -26.5507   21.7006 C   0  0  0  0  0  0  0  0  0  0  0  0
  -27.1936  -22.5787   14.0337 C   0  0  0  0  0  0  0  0  0  0  0  0
  -19.6146  -26.0650   22.1480 C   0  0  0  0  0  0  0  0  0  0  0  0
  -26.8730  -21.8656   15.3485 C   0  0  0  0  0  0  0  0  0  0  0  0
  -31.4345  -25.5780   20.4816 C   0  0  0  0  0  0  0  0  0  0  0  0
  -30.3114  -26.0596   21.4067 C   0  0  0  0  0  0  0  0  0  0  0  0
  -29.4384  -25.6103   19.1737 C   0  0  0  0  0  0  0  0  0  0  0  0
  -28.6021  -22.2512   13.5430 C   0  0  0  0  0  0  0  0  0  0  0  0
  -29.3524  -21.7799   15.8427 C   0  0  0  0  0  0  0  0  0  0  0  0
  -20.5566  -27.2451   22.4151 C   0  0  1  0  0  0  0  0  0  0  0  0
  -22.4875  -27.9879   19.2287 C   0  0  1  0  0  0  0  0  0  0  0  0
  -27.9628  -22.1233   16.4064 C   0  0  2  0  0  0  0  0  0  0  0  0
  -30.9291  -25.8933   19.0846 C   0  0  2  0  0  0  0  0  0  0  0  0
  -29.0708  -26.2288   20.5207 C   0  0  2  0  0  0  0  0  0  1  0  0
  -23.7010  -25.0508   12.1644 C   0  0  0  0  0  0  0  0  0  0  0  0
  -21.8673  -23.4958   18.3362 C   0  0  0  0  0  0  0  0  0  0  0  0
  -22.5595  -22.7447   16.0504 C   0  0  0  0  0  0  0  0  0  0  0  0
  -20.4760  -24.0848   16.3432 C   0  0  0  0  0  0  0  0  0  0  0  0
  -24.9830  -28.3779   13.4923 C   0  0  0  0  0  0  0  0  0  0  0  0
  -32.6596  -24.5082   15.2774 C   0  0  0  0  0  0  0  0  0  0  0  0
  -32.9219  -25.5084   17.6287 C   0  0  0  0  0  0  0  0  0  0  0  0
  -22.7229  -25.2131   16.6085 C   0  0  1  0  0  0  0  0  0  0  0  0
  -23.7434  -26.2441   13.1063 C   0  0  2  0  0  0  0  0  0  0  0  0
  -33.4991  -24.5729   16.5614 C   0  0  2  0  0  0  0  0  0  0  0  0
  -21.9232  -23.9017   16.8499 C   0  0  0  0  0  0  0  0  0  0  0  0
  -28.1933  -20.1576   17.8780 N   0  0  0  0  0  0  0  0  0  0  0  0
  -27.6735  -21.3840   17.6997 N   0  0  0  0  0  0  0  0  0  0  0  0
  -23.0281  -26.9880   18.3057 N   0  0  0  0  0  0  0  0  0  0  0  0
  -29.5883  -22.5191   14.5926 N   0  0  0  0  0  0  0  0  0  0  0  0
  -26.3264  -23.0336   18.7365 N   0  0  0  0  0  0  0  0  0  0  0  0
  -26.4316  -19.7055   21.7876 N   0  0  0  0  0  0  0  0  0  0  0  0
  -34.8410  -25.0641   16.2262 N   0  0  0  0  0  0  0  0  0  0  0  0
  -21.0545  -27.7866   21.1688 N   0  0  0  0  0  0  0  0  0  0  0  0
  -22.7696  -25.6362   15.2131 N   0  0  0  0  0  0  0  0  0  0  0  0
  -31.5285  -23.6139   15.3866 N   0  0  0  0  0  0  0  0  0  0  0  0
  -31.5772  -25.0384   18.0749 N   0  3  0  0  0  0  0  0  0  0  0  0
  -24.8421  -27.1503   12.6675 N   0  3  0  0  0  0  0  0  0  0  0  0
  -25.5994  -21.7948   21.3392 O   0  0  0  0  0  0  0  0  0  0  0  0
  -22.8332  -26.3159   20.8595 O   0  0  0  0  0  0  0  0  0  0  0  0
  -21.0023  -26.7434   17.1776 O   0  0  0  0  0  0  0  0  0  0  0  0
  -25.0806  -25.6288   15.0222 O   0  0  0  0  0  0  0  0  0  0  0  0
  -30.7794  -23.9899   13.2525 O   0  0  0  0  0  0  0  0  0  0  0  0
  -29.1126  -14.8493   21.2730 O   0  0  0  0  0  0  0  0  0  0  0  0
  -28.8109  -27.6200   20.3580 O   0  0  0  0  0  0  0  0  0  1  0  0
  -28.7397  -10.4184   18.0124 F   0  0  0  0  0  0  0  0  0  0  0  0
  -30.5949  -14.6718   18.9463 F   0  0  0  0  0  0  0  0  0  0  0  0
  1  2  1  0  0  0  0
  1  5  2  0  0  0  0
  2  6  2  0  0  0  0
  3  8  2  0  0  0  0
  3 15  1  0  0  0  0
  4  9  1  0  0  0  0
  4 15  2  0  0  0  0
  5 17  1  0  0  0  0
  6 19  1  0  0  0  0
  7 10  2  0  0  0  0
  7 18  1  0  0  0  0
  8 21  1  0  0  0  0
  9 21  2  0  0  0  0
 10 22  1  0  0  0  0
 11 12  2  0  0  0  0
 11 23  1  0  0  0  0
 12 24  1  0  0  0  0
 13 20  1  0  0  0  0
 13 22  2  0  0  0  0
 14 24  2  0  0  0  0
 14 25  1  0  0  0  0
 15 26  1  0  0  0  0
 16 26  1  0  0  0  0
 16 27  2  0  0  0  0
 16 28  1  0  0  0  0
 17 19  2  0  0  0  0
 17 33  1  0  0  0  0
 18 20  2  0  0  0  0
 18 34  1  0  0  0  0
 19 45  1  0  0  0  0
 20 35  1  0  0  0  0
 21 78  1  0  0  0  0
 22 79  1  0  0  0  0
 23 25  2  0  0  0  0
 23 78  1  0  0  0  0
 24 80  1  0  0  0  0
 25 81  1  0  0  0  0
 26 61  2  0  0  0  0
 27 62  1  0  0  0  0
 27 65  1  0  0  0  0
 28 66  1  0  0  0  0
 28 73  2  0  0  0  0
 29 46  1  0  0  0  0
 29 68  1  0  0  0  0
 29 74  2  0  0  0  0
 30 57  1  0  0  0  0
 30 63  1  0  0  0  0
 30 75  2  0  0  0  0
 31 58  1  0  0  0  0
 31 69  1  0  0  0  0
 31 76  2  0  0  0  0
 32 64  1  0  0  0  0
 32 70  1  0  0  0  0
 32 77  2  0  0  0  0
 33 36  1  0  0  0  0
 34 46  1  0  0  0  0
 35 63  1  0  0  0  0
 36 38  1  0  0  0  0
 37 39  1  0  0  0  0
 37 43  1  0  0  0  0
 38 45  1  0  0  0  0
 39 47  1  0  0  0  0
 40 41  1  0  0  0  0
 40 48  1  0  0  0  0
 41 49  1  0  0  0  0
 42 48  1  0  0  0  0
 42 49  1  0  0  0  0
 43 64  1  0  0  0  0
 44 47  1  0  0  0  0
 44 64  1  0  0  0  0
 45 68  1  0  0  0  0
 46 63  1  0  0  0  0
 47 62  1  0  0  0  0
 48 71  1  0  0  0  0
 49 79  1  0  0  0  0
 50 58  1  0  0  0  0
 51 60  1  0  0  0  0
 52 60  1  0  0  0  0
 53 60  1  0  0  0  0
 54 72  1  0  0  0  0
 55 59  1  0  0  0  0
 55 70  1  0  0  0  0
 56 59  1  0  0  0  0
 56 71  1  0  0  0  0
 57 60  1  0  0  0  0
 57 69  1  0  0  0  0
 58 72  1  0  0  0  0
 59 67  1  0  0  0  0
 61 62  1  0  0  0  0
M  CHG  2  71   1  72   1
M  ISO  4  32 100  49 101  70 100  79 101
M  END
> <Batch ID>
0128

> <Smiles>
CNC(C)C(=O)NC(C(=O)N1Cc2cc([101O:1][101CH:1]3CCC(NCC(N)C[100NH:0][100C:0](=O)N4CCCC(n5nc(-c6ccc(Oc7ccc(F)cc7F)cc6)c(C(N)=O)c5N)C4)C3)ccc2CC1C(=O)NC1CCCc2ccccc21)C(C)(C)C

> <Shape>
0.231

> <Color>
0.058

> <Negative vol penalty>
0.000

$$$$

  -OEChem-04052320423D

 85 95  0     1  0  0  0  0  0999 V2000
  -42.2522  -23.3198   26.7250 C   0  0  0  0  0  0  0  0  0  0  0  0
  -31.0702  -19.1727   25.3335 C   0  0  0  0  0  0  0  0  0  0  0  0
  -31.1468  -17.7806   25.2893 C   0  0  0  0  0  0  0  0  0  0  0  0
  -41.2456  -22.8528   25.8859 C   0  0  0  0  0  0  0  0  0  0  0  0
  -23.0622   -9.8746   19.9540 C   0  0  0  0  0  0  0  0  0  0  0  0
  -23.8587   -9.8780   22.2350 C   0  0  0  0  0  0  0  0  0  0  0  0
  -42.0494  -24.4745   27.4796 C   0  0  0  0  0  0  0  0  0  0  0  0
  -30.8603  -19.8973   24.1602 C   0  0  0  0  0  0  0  0  0  0  0  0
  -31.0136  -17.1132   24.0717 C   0  0  0  0  0  0  0  0  0  0  0  0
  -40.0351  -23.5398   25.8017 C   0  0  0  0  0  0  0  0  0  0  0  0
  -36.5039  -24.1819   20.8394 C   0  0  0  0  0  0  0  0  0  0  0  0
  -22.3243   -8.7196   20.2134 C   0  0  0  0  0  0  0  0  0  0  0  0
  -23.1208   -8.7230   22.4944 C   0  0  0  0  0  0  0  0  0  0  0  0
  -35.3612  -23.5098   20.4080 C   0  0  0  0  0  0  0  0  0  0  0  0
  -19.9460   -5.9750   20.3741 C   0  0  0  0  0  0  0  0  0  0  0  0
  -18.6328   -5.9258   19.9066 C   0  0  0  0  0  0  0  0  0  0  0  0
  -33.9856  -25.2331   21.3863 C   0  0  0  0  0  0  0  0  0  0  0  0
  -18.0856   -7.8650   21.2399 C   0  0  0  0  0  0  0  0  0  0  0  0
  -23.8294  -10.4537   20.9648 C   0  0  0  0  0  0  0  0  0  0  0  0
  -24.1651  -12.9797   20.8448 C   0  0  0  0  0  0  0  0  0  0  0  0
  -40.8393  -25.1814   27.3973 C   0  0  0  0  0  0  0  0  0  0  0  0
  -36.3956  -25.3811   21.5582 C   0  0  0  0  0  0  0  0  0  0  0  0
  -30.7271  -19.2298   22.9427 C   0  0  0  0  0  0  0  0  0  0  0  0
  -30.8037  -17.8378   22.8984 C   0  0  0  0  0  0  0  0  0  0  0  0
  -39.8153  -24.7043   26.5569 C   0  0  0  0  0  0  0  0  0  0  0  0
  -35.1286  -25.9199   21.8235 C   0  0  0  0  0  0  0  0  0  0  0  0
  -22.3536   -8.1439   21.4836 C   0  0  0  0  0  0  0  0  0  0  0  0
  -34.1017  -24.0339   20.6840 C   0  0  0  0  0  0  0  0  0  0  0  0
  -20.3291   -6.9691   21.2745 C   0  0  0  0  0  0  0  0  0  0  0  0
  -17.7026   -6.8708   20.3395 C   0  0  0  0  0  0  0  0  0  0  0  0
  -19.3989   -7.9141   21.7074 C   0  0  0  0  0  0  0  0  0  0  0  0
  -24.5923  -11.6464   20.6974 C   0  0  0  0  0  0  0  0  0  0  0  0
  -25.2501  -13.7318   20.4657 C   0  0  0  0  0  0  0  0  0  0  0  0
  -22.9007  -13.4925   21.2851 C   0  0  0  0  0  0  0  0  0  0  0  0
  -30.7595  -14.6888   20.6789 C   0  0  0  0  0  0  0  0  0  0  0  0
  -37.2365  -26.3337   24.4718 C   0  0  0  0  0  0  0  0  0  0  0  0
  -36.2452  -29.2262   23.3887 C   0  0  0  0  0  0  0  0  0  0  0  0
  -34.3084  -30.9935   21.2041 C   0  0  0  0  0  0  0  0  0  0  0  0
  -40.6487  -26.3981   28.2679 C   0  0  0  0  0  0  0  0  0  0  0  0
  -37.6386  -26.1078   21.9933 C   0  0  0  0  0  0  0  0  0  0  0  0
  -34.9586  -27.2146   22.5740 C   0  0  0  0  0  0  0  0  0  0  0  0
  -39.4767  -27.2769   27.8383 C   0  0  0  0  0  0  0  0  0  0  0  0
  -29.5574  -12.4015   18.1879 C   0  0  0  0  0  0  0  0  0  0  0  0
  -29.2191  -20.8796   21.7879 C   0  0  0  0  0  0  0  0  0  0  0  0
  -38.2423  -26.4238   27.5641 C   0  0  0  0  0  0  0  0  0  0  0  0
  -29.6815  -22.3328   21.7503 C   0  0  0  0  0  0  0  0  0  0  0  0
  -28.1350  -12.0856   18.6489 C   0  0  0  0  0  0  0  0  0  0  0  0
  -29.2885  -16.7731   21.0969 C   0  0  0  0  0  0  0  0  0  0  0  0
  -31.6513  -21.0264   21.4662 C   0  0  0  0  0  0  0  0  0  0  0  0
  -30.4966  -12.6026   19.3730 C   0  0  0  0  0  0  0  0  0  0  0  0
  -28.6123  -13.3311   20.8045 C   0  0  0  0  0  0  0  0  0  0  0  0
  -30.5030  -20.0277   21.7026 C   0  0  1  0  0  0  0  0  0  0  0  0
  -30.6650  -17.1023   21.6068 C   0  0  2  0  0  0  0  0  0  0  0  0
  -38.4976  -25.4357   26.4196 C   0  0  1  0  0  0  0  0  0  0  0  0
  -30.1636  -15.6762   21.6297 C   0  0  2  0  0  0  0  0  0  0  0  0
  -37.3977  -27.0557   23.1641 C   0  0  1  0  0  0  0  0  0  0  0  0
  -30.9634  -22.2788   20.9265 C   0  0  2  0  0  0  0  0  0  0  0  0
  -27.6256  -13.1493   19.6377 C   0  0  2  0  0  0  0  0  0  0  0  0
  -33.6790  -33.3425   20.5851 C   0  0  0  0  0  0  0  0  0  0  0  0
  -34.4390  -29.3863   25.8426 C   0  0  0  0  0  0  0  0  0  0  0  0
  -33.1792  -31.2291   24.7089 C   0  0  0  0  0  0  0  0  0  0  0  0
  -35.5948  -31.5253   25.2567 C   0  0  0  0  0  0  0  0  0  0  0  0
  -35.3868  -30.6842   18.4655 C   0  0  0  0  0  0  0  0  0  0  0  0
  -31.8084  -23.5278   21.0588 C   0  0  0  0  0  0  0  0  0  1  0  0
  -34.9318  -29.9704   23.3765 C   0  0  1  0  0  0  0  0  0  0  0  0
  -34.6228  -32.1815   20.3129 C   0  0  2  0  0  0  0  0  0  0  0  0
  -34.5390  -30.5024   24.7837 C   0  0  0  0  0  0  0  0  0  0  0  0
  -25.8505  -11.5536   20.2587 N   0  0  0  0  0  0  0  0  0  0  0  0
  -26.2232  -12.8381   20.1271 N   0  0  0  0  0  0  0  0  0  0  0  0
  -29.9662  -13.6001   20.3028 N   0  0  0  0  0  0  0  0  0  0  0  0
  -36.2040  -27.8844   22.9839 N   0  0  0  0  0  0  0  0  0  0  0  0
  -25.4571  -15.0637   20.3921 N   0  0  0  0  0  0  0  0  0  0  0  0
  -21.8958  -12.5809   21.6365 N   0  0  0  0  0  0  0  0  0  0  0  0
  -38.4243  -26.1119   25.1422 N   0  0  0  0  0  0  0  0  0  0  0  0
  -35.0605  -31.0087   22.3597 N   0  0  0  0  0  0  0  0  0  0  0  0
  -34.4969  -31.8001   18.8778 N   0  3  0  0  0  0  0  0  0  0  0  0
  -22.6633  -14.7226   21.3488 O   0  0  0  0  0  0  0  0  0  0  0  0
  -31.9048  -14.8906   20.2840 O   0  0  0  0  0  0  0  0  0  0  0  0
  -36.1171  -26.0035   24.8457 O   0  0  0  0  0  0  0  0  0  0  0  0
  -37.2711  -29.8156   23.7375 O   0  0  0  0  0  0  0  0  0  0  0  0
  -33.4760  -30.1395   20.9068 O   0  0  0  0  0  0  0  0  0  0  0  0
  -21.6335   -7.0170   21.7371 O   0  0  0  0  0  0  0  0  0  0  0  0
  -32.9846  -23.3795   20.2646 O   0  0  0  0  0  0  0  0  0  1  0  0
  -16.4419   -6.8244   19.8893 F   0  0  0  0  0  0  0  0  0  0  0  0
  -19.7613   -8.8722   22.5714 F   0  0  0  0  0  0  0  0  0  0  0  0
  1  4  1  0  0  0  0
  1  7  2  0  0  0  0
  2  3  1  0  0  0  0
  2  8  2  0  0  0  0
  3  9  2  0  0  0  0
  4 10  2  0  0  0  0
  5 12  2  0  0  0  0
  5 19  1  0  0  0  0
  6 13  1  0  0  0  0
  6 19  2  0  0  0  0
  7 21  1  0  0  0  0
  8 23  1  0  0  0  0
  9 24  1  0  0  0  0
 10 25  1  0  0  0  0
 11 14  2  0  0  0  0
 11 22  1  0  0  0  0
 12 27  1  0  0  0  0
 13 27  2  0  0  0  0
 14 28  1  0  0  0  0
 15 16  2  0  0  0  0
 15 29  1  0  0  0  0
 16 30  1  0  0  0  0
 17 26  1  0  0  0  0
 17 28  2  0  0  0  0
 18 30  2  0  0  0  0
 18 31  1  0  0  0  0
 19 32  1  0  0  0  0
 20 32  1  0  0  0  0
 20 33  2  0  0  0  0
 20 34  1  0  0  0  0
 21 25  2  0  0  0  0
 21 39  1  0  0  0  0
 22 26  2  0  0  0  0
 22 40  1  0  0  0  0
 23 24  2  0  0  0  0
 23 52  1  0  0  0  0
 24 53  1  0  0  0  0
 25 54  1  0  0  0  0
 26 41  1  0  0  0  0
 27 82  1  0  0  0  0
 28 83  1  0  0  0  0
 29 31  2  0  0  0  0
 29 82  1  0  0  0  0
 30 84  1  0  0  0  0
 31 85  1  0  0  0  0
 32 68  2  0  0  0  0
 33 69  1  0  0  0  0
 33 72  1  0  0  0  0
 34 73  1  0  0  0  0
 34 77  2  0  0  0  0
 35 55  1  0  0  0  0
 35 70  1  0  0  0  0
 35 78  2  0  0  0  0
 36 56  1  0  0  0  0
 36 74  1  0  0  0  0
 36 79  2  0  0  0  0
 37 65  1  0  0  0  0
 37 71  1  0  0  0  0
 37 80  2  0  0  0  0
 38 66  1  0  0  0  0
 38 75  1  0  0  0  0
 38 81  2  0  0  0  0
 39 42  1  0  0  0  0
 40 56  1  0  0  0  0
 41 71  1  0  0  0  0
 42 45  1  0  0  0  0
 43 47  1  0  0  0  0
 43 50  1  0  0  0  0
 44 46  1  0  0  0  0
 44 52  1  0  0  0  0
 45 54  1  0  0  0  0
 46 57  1  0  0  0  0
 47 58  1  0  0  0  0
 48 53  1  0  0  0  0
 48 55  1  0  0  0  0
 49 52  1  0  0  0  0
 49 57  1  0  0  0  0
 50 70  1  0  0  0  0
 51 58  1  0  0  0  0
 51 70  1  0  0  0  0
 53 55  1  0  0  0  0
 54 74  1  0  0  0  0
 56 71  1  0  0  0  0
 57 64  1  0  0  0  0
 58 69  1  0  0  0  0
 59 66  1  0  0  0  0
 60 67  1  0  0  0  0
 61 67  1  0  0  0  0
 62 67  1  0  0  0  0
 63 76  1  0  0  0  0
 64 83  1  0  0  0  0
 65 67  1  0  0  0  0
 65 75  1  0  0  0  0
 66 76  1  0  0  0  0
 68 69  1  0  0  0  0
M  CHG  1  76   1
M  ISO  4  35 100  55 100  64 101  83 101
M  END
> <Batch ID>
0128

> <Smiles>
CNC(C)C(=O)NC(C(=O)N1Cc2cc([101O:1][101CH2:1]C3CCC(c4ccccc4C4C[100CH:0]4[100C:0](=O)N4CCCC(n5nc(-c6ccc(Oc7ccc(F)cc7F)cc6)c(C(N)=O)c5N)C4)C3)ccc2CC1C(=O)NC1CCCc2ccccc21)C(C)(C)C

> <Shape>
0.165

> <Color>
0.198

> <Negative vol penalty>
0.000

$$$$

  -OEChem-04052320423D

 84 92  0     1  0  0  0  0  0999 V2000
  -28.0201  -20.9107   26.9273 C   0  0  0  0  0  0  0  0  0  0  0  0
  -28.1494  -21.5423   25.6945 C   0  0  0  0  0  0  0  0  0  0  0  0
  -26.5222  -14.9180   21.3819 C   0  0  0  0  0  0  0  0  0  0  0  0
  -26.6919  -14.7740   18.9762 C   0  0  0  0  0  0  0  0  0  0  0  0
  -26.7682  -20.8179   27.5339 C   0  0  0  0  0  0  0  0  0  0  0  0
  -27.0265  -22.0806   25.0670 C   0  0  0  0  0  0  0  0  0  0  0  0
  -27.8835  -26.7011   23.1799 C   0  0  0  0  0  0  0  0  0  0  0  0
  -26.2507  -13.5513   21.4446 C   0  0  0  0  0  0  0  0  0  0  0  0
  -26.4203  -13.4073   19.0389 C   0  0  0  0  0  0  0  0  0  0  0  0
  -28.5836  -26.7777   21.9767 C   0  0  0  0  0  0  0  0  0  0  0  0
  -25.1573  -10.1682   22.2079 C   0  0  0  0  0  0  0  0  0  0  0  0
  -24.1164   -9.7496   23.0367 C   0  0  0  0  0  0  0  0  0  0  0  0
  -26.5041  -27.0838   20.7931 C   0  0  0  0  0  0  0  0  0  0  0  0
  -22.5624  -11.0908   21.7625 C   0  0  0  0  0  0  0  0  0  0  0  0
  -26.7428  -15.5294   20.1477 C   0  0  0  0  0  0  0  0  0  0  0  0
  -28.2859  -17.5607   20.1340 C   0  0  0  0  0  0  0  0  0  0  0  0
  -25.6309  -21.3639   26.9180 C   0  0  0  0  0  0  0  0  0  0  0  0
  -26.4851  -26.8046   23.1976 C   0  0  0  0  0  0  0  0  0  0  0  0
  -25.7579  -21.9939   25.6653 C   0  0  0  0  0  0  0  0  0  0  0  0
  -25.7888  -27.0108   21.9981 C   0  0  0  0  0  0  0  0  0  0  0  0
  -26.1998  -12.7959   20.2731 C   0  0  0  0  0  0  0  0  0  0  0  0
  -27.8937  -26.9662   20.7827 C   0  0  0  0  0  0  0  0  0  0  0  0
  -24.9007  -11.0482   21.1564 C   0  0  0  0  0  0  0  0  0  0  0  0
  -22.8190  -10.2108   22.8140 C   0  0  0  0  0  0  0  0  0  0  0  0
  -23.6033  -11.5094   20.9337 C   0  0  0  0  0  0  0  0  0  0  0  0
  -27.0228  -16.9413   20.0822 C   0  0  0  0  0  0  0  0  0  0  0  0
  -28.0142  -18.9034   20.0336 C   0  0  0  0  0  0  0  0  0  0  0  0
  -29.5883  -16.9749   20.2614 C   0  0  0  0  0  0  0  0  0  0  0  0
  -24.1047  -24.8854   24.0656 C   0  0  0  0  0  0  0  0  0  0  0  0
  -22.2904  -27.5059   23.4627 C   0  0  0  0  0  0  0  0  0  0  0  0
  -21.9467  -30.4754   21.8161 C   0  0  0  0  0  0  0  0  0  0  0  0
  -24.3742  -22.5407   17.3814 C   0  0  0  0  0  0  0  0  0  0  0  0
  -24.2910  -21.1974   27.5901 C   0  0  0  0  0  0  0  0  0  0  0  0
  -25.7468  -26.7467   24.5067 C   0  0  0  0  0  0  0  0  0  0  0  0
  -24.2893  -27.1483   21.9653 C   0  0  0  0  0  0  0  0  0  0  0  0
  -23.2119  -22.1235   27.0349 C   0  0  0  0  0  0  0  0  0  0  0  0
  -24.0305  -21.7211   20.8291 C   0  0  0  0  0  0  0  0  0  0  0  0
  -23.2263  -22.1060   25.5097 C   0  0  0  0  0  0  0  0  0  0  0  0
  -31.5044  -24.6562   16.4031 C   0  0  0  0  0  0  0  0  0  0  0  0
  -24.8845  -20.4626   20.9928 C   0  0  0  0  0  0  0  0  0  0  0  0
  -30.3343  -23.7695   15.9846 C   0  0  0  0  0  0  0  0  0  0  0  0
  -28.8391  -24.9673   17.6294 C   0  0  0  0  0  0  0  0  0  0  0  0
  -23.3192  -21.7487   19.4781 C   0  0  0  0  0  0  0  0  0  0  0  0
  -25.0565  -20.3183   18.4732 C   0  0  0  0  0  0  0  0  0  0  0  0
  -24.5674  -22.6120   24.9648 C   0  0  1  0  0  0  0  0  0  0  0  0
  -24.2821  -26.3501   24.3497 C   0  0  1  0  0  0  0  0  0  0  0  0
  -31.3653  -25.1505   17.8543 C   0  0  2  0  0  0  0  0  0  0  0  0
  -30.0089  -25.8699   18.0650 C   0  0  2  0  0  0  0  0  0  0  0  0
  -25.8376  -20.2724   19.7976 C   0  0  2  0  0  0  0  0  0  0  0  0
  -29.0103  -24.4949   16.1889 C   0  0  2  0  0  0  0  0  0  0  0  0
  -20.3381  -32.3742   21.4935 C   0  0  0  0  0  0  0  0  0  0  0  0
  -33.8622  -25.2507   18.0976 C   0  0  0  0  0  0  0  0  0  0  0  0
  -32.5976  -27.2640   17.2906 C   0  0  0  0  0  0  0  0  0  0  0  0
  -20.5992  -25.7571   21.6211 C   0  0  0  0  0  0  0  0  0  0  0  0
  -19.6462  -27.8476   20.6261 C   0  0  0  0  0  0  0  0  0  0  0  0
  -19.2910  -27.3446   23.0434 C   0  0  0  0  0  0  0  0  0  0  0  0
  -23.8625  -32.4396   22.9254 C   0  0  0  0  0  0  0  0  0  0  0  0
  -29.7967  -26.3094   19.5165 C   0  0  0  0  0  0  0  0  0  1  0  0
  -25.5322  -23.2061   15.2897 C   0  0  0  0  0  0  0  0  0  0  0  0
  -26.5945  -24.2420   15.6069 C   0  0  0  0  0  0  0  0  0  0  0  0
  -21.5824  -28.0601   22.2500 C   0  0  1  0  0  0  0  0  0  0  0  0
  -21.5181  -31.8500   22.2969 C   0  0  2  0  0  0  0  0  0  0  0  0
  -32.5616  -26.0412   18.2019 C   0  0  0  0  0  0  0  0  0  0  0  0
  -20.3078  -27.2479   21.8852 C   0  0  0  0  0  0  0  0  0  0  0  0
  -26.0230  -17.8183   19.9588 N   0  0  0  0  0  0  0  0  0  0  0  0
  -26.6577  -19.0026   19.9322 N   0  0  0  0  0  0  0  0  0  0  0  0
  -23.6119  -27.0786   23.2706 N   0  0  0  0  0  0  0  0  0  0  0  0
  -24.2792  -21.5646   18.3870 N   0  0  0  0  0  0  0  0  0  0  0  0
  -28.8057  -19.9969   20.0233 N   0  0  0  0  0  0  0  0  0  0  0  0
  -29.6874  -15.5799   20.3526 N   0  0  0  0  0  0  0  0  0  0  0  0
  -24.6301  -24.0560   25.0380 N   0  0  0  0  0  0  0  0  0  0  0  0
  -21.3325  -29.4695   22.5319 N   0  0  0  0  0  0  0  0  0  0  0  0
  -25.3135  -22.2917   16.3883 N   0  0  0  0  0  0  0  0  0  0  0  0
  -27.8973  -23.5682   15.8506 N   0  3  0  0  0  0  0  0  0  0  0  0
  -22.6431  -32.8186   22.1660 N   0  3  0  0  0  0  0  0  0  0  0  0
  -30.6320  -17.6690   20.3098 O   0  0  0  0  0  0  0  0  0  0  0  0
  -23.5320  -24.5337   23.0409 O   0  0  0  0  0  0  0  0  0  0  0  0
  -21.6954  -27.4607   24.5423 O   0  0  0  0  0  0  0  0  0  0  0  0
  -22.7436  -30.3104   20.8951 O   0  0  0  0  0  0  0  0  0  0  0  0
  -23.6775  -23.5613   17.3725 O   0  0  0  0  0  0  0  0  0  0  0  0
  -25.9351  -11.4622   20.3339 O   0  0  0  0  0  0  0  0  0  0  0  0
  -28.5746  -27.0406   19.6068 O   0  0  0  0  0  0  0  0  0  1  0  0
  -21.8193   -9.8076   23.6091 F   0  0  0  0  0  0  0  0  0  0  0  0
  -23.3505  -12.3540   19.9244 F   0  0  0  0  0  0  0  0  0  0  0  0
  1  2  1  0  0  0  0
  1  5  2  0  0  0  0
  2  6  2  0  0  0  0
  3  8  2  0  0  0  0
  3 15  1  0  0  0  0
  4  9  1  0  0  0  0
  4 15  2  0  0  0  0
  5 17  1  0  0  0  0
  6 19  1  0  0  0  0
  7 10  2  0  0  0  0
  7 18  1  0  0  0  0
  8 21  1  0  0  0  0
  9 21  2  0  0  0  0
 10 22  1  0  0  0  0
 11 12  2  0  0  0  0
 11 23  1  0  0  0  0
 12 24  1  0  0  0  0
 13 20  1  0  0  0  0
 13 22  2  0  0  0  0
 14 24  2  0  0  0  0
 14 25  1  0  0  0  0
 15 26  1  0  0  0  0
 16 26  1  0  0  0  0
 16 27  2  0  0  0  0
 16 28  1  0  0  0  0
 17 19  2  0  0  0  0
 17 33  1  0  0  0  0
 18 20  2  0  0  0  0
 18 34  1  0  0  0  0
 19 45  1  0  0  0  0
 20 35  1  0  0  0  0
 21 81  1  0  0  0  0
 22 82  1  0  0  0  0
 23 25  2  0  0  0  0
 23 81  1  0  0  0  0
 24 83  1  0  0  0  0
 25 84  1  0  0  0  0
 26 65  2  0  0  0  0
 27 66  1  0  0  0  0
 27 69  1  0  0  0  0
 28 70  1  0  0  0  0
 28 76  2  0  0  0  0
 29 46  1  0  0  0  0
 29 71  1  0  0  0  0
 29 77  2  0  0  0  0
 30 61  1  0  0  0  0
 30 67  1  0  0  0  0
 30 78  2  0  0  0  0
 31 62  1  0  0  0  0
 31 72  1  0  0  0  0
 31 79  2  0  0  0  0
 32 68  1  0  0  0  0
 32 73  1  0  0  0  0
 32 80  2  0  0  0  0
 33 36  1  0  0  0  0
 34 46  1  0  0  0  0
 35 67  1  0  0  0  0
 36 38  1  0  0  0  0
 37 40  1  0  0  0  0
 37 43  1  0  0  0  0
 38 45  1  0  0  0  0
 39 41  1  0  0  0  0
 39 47  1  0  0  0  0
 40 49  1  0  0  0  0
 41 50  1  0  0  0  0
 42 48  1  0  0  0  0
 42 50  1  0  0  0  0
 43 68  1  0  0  0  0
 44 49  1  0  0  0  0
 44 68  1  0  0  0  0
 45 71  1  0  0  0  0
 46 67  1  0  0  0  0
 47 48  1  0  0  0  0
 47 63  1  0  0  0  0
 48 58  1  0  0  0  0
 49 66  1  0  0  0  0
 50 74  1  0  0  0  0
 51 62  1  0  0  0  0
 52 63  1  0  0  0  0
 53 63  1  0  0  0  0
 54 64  1  0  0  0  0
 55 64  1  0  0  0  0
 56 64  1  0  0  0  0
 57 75  1  0  0  0  0
 58 82  1  0  0  0  0
 59 60  1  0  0  0  0
 59 73  1  0  0  0  0
 60 74  1  0  0  0  0
 61 64  1  0  0  0  0
 61 72  1  0  0  0  0
 62 75  1  0  0  0  0
 65 66  1  0  0  0  0
M  CHG  2  74   1  75   1
M  ISO  4  32 100  58 101  73 100  82 101
M  END
> <Batch ID>
0128

> <Smiles>
CNC(C)C(=O)NC(C(=O)N1Cc2cc([101O:1][101CH2:1]C3CC(NCC[100NH:0][100C:0](=O)N4CCCC(n5nc(-c6ccc(Oc7ccc(F)cc7F)cc6)c(C(N)=O)c5N)C4)CCC3C(C)C)ccc2CC1C(=O)NC1CCCc2ccccc21)C(C)(C)C

> <Shape>
0.194

> <Color>
0.077

> <Negative vol penalty>
0.000

$$$$

  -OEChem-04052320423D

 86 95  0     1  0  0  0  0  0999 V2000
  -29.3182  -22.5839   19.0842 C   0  0  0  0  0  0  0  0  0  0  0  0
  -27.9660  -22.6405   19.4061 C   0  0  0  0  0  0  0  0  0  0  0  0
  -24.6867  -14.4105   20.4211 C   0  0  0  0  0  0  0  0  0  0  0  0
  -24.9559  -14.5155   22.8198 C   0  0  0  0  0  0  0  0  0  0  0  0
  -30.2335  -23.3695   19.7834 C   0  0  0  0  0  0  0  0  0  0  0  0
  -27.5284  -23.4820   20.4282 C   0  0  0  0  0  0  0  0  0  0  0  0
  -22.2265  -26.5381   20.6647 C   0  0  0  0  0  0  0  0  0  0  0  0
  -25.7050  -13.4600   20.3484 C   0  0  0  0  0  0  0  0  0  0  0  0
  -25.9742  -13.5649   22.7471 C   0  0  0  0  0  0  0  0  0  0  0  0
  -21.0172  -26.2703   21.3047 C   0  0  0  0  0  0  0  0  0  0  0  0
  -28.4795  -11.2705   19.4931 C   0  0  0  0  0  0  0  0  0  0  0  0
  -29.4445  -11.4265   18.4982 C   0  0  0  0  0  0  0  0  0  0  0  0
  -22.5018  -21.1676   26.8440 C   0  0  0  0  0  0  0  0  0  0  0  0
  -21.6939  -27.6642   23.1536 C   0  0  0  0  0  0  0  0  0  0  0  0
  -21.7947  -23.4595   26.6653 C   0  0  0  0  0  0  0  0  0  0  0  0
  -30.0513  -13.5743   19.4236 C   0  0  0  0  0  0  0  0  0  0  0  0
  -21.3226  -20.9133   27.5255 C   0  0  0  0  0  0  0  0  0  0  0  0
  -24.3122  -14.9383   21.6568 C   0  0  0  0  0  0  0  0  0  0  0  0
  -21.8835  -15.6807   21.8979 C   0  0  0  0  0  0  0  0  0  0  0  0
  -29.8057  -24.2283   20.8082 C   0  0  0  0  0  0  0  0  0  0  0  0
  -23.1847  -27.3636   21.2703 C   0  0  0  0  0  0  0  0  0  0  0  0
  -28.4390  -24.2788   21.1427 C   0  0  0  0  0  0  0  0  0  0  0  0
  -22.7348  -22.4676   26.4091 C   0  0  0  0  0  0  0  0  0  0  0  0
  -22.9135  -27.9430   22.5181 C   0  0  0  0  0  0  0  0  0  0  0  0
  -26.3487  -13.0372   21.5114 C   0  0  0  0  0  0  0  0  0  0  0  0
  -20.7519  -26.8310   22.5506 C   0  0  0  0  0  0  0  0  0  0  0  0
  -28.3002  -12.2663   20.4532 C   0  0  0  0  0  0  0  0  0  0  0  0
  -30.2305  -12.5784   18.4635 C   0  0  0  0  0  0  0  0  0  0  0  0
  -29.0861  -13.4182   20.4185 C   0  0  0  0  0  0  0  0  0  0  0  0
  -23.2608  -15.9206   21.7326 C   0  0  0  0  0  0  0  0  0  0  0  0
  -20.6470  -23.1025   27.3547 C   0  0  0  0  0  0  0  0  0  0  0  0
  -21.3159  -16.9313   21.9077 C   0  0  0  0  0  0  0  0  0  0  0  0
  -21.1802  -14.4384   22.0307 C   0  0  0  0  0  0  0  0  0  0  0  0
  -26.1717  -26.9649   22.2817 C   0  0  0  0  0  0  0  0  0  0  0  0
  -26.0147  -30.1653   22.7868 C   0  0  0  0  0  0  0  0  0  0  0  0
  -24.0777  -32.9174   23.3533 C   0  0  0  0  0  0  0  0  0  0  0  0
  -23.3428  -22.3205   23.2988 C   0  0  0  0  0  0  0  0  0  0  0  0
  -30.8383  -25.0231   21.5676 C   0  0  0  0  0  0  0  0  0  0  0  0
  -24.4732  -27.6642   20.5548 C   0  0  0  0  0  0  0  0  0  0  0  0
  -23.9006  -28.8523   23.2016 C   0  0  0  0  0  0  0  0  0  0  0  0
  -30.2454  -26.1675   22.3856 C   0  0  0  0  0  0  0  0  0  0  0  0
  -26.2937  -22.1313   25.3977 C   0  0  0  0  0  0  0  0  0  0  0  0
  -21.9465  -21.3594   20.2400 C   0  0  0  0  0  0  0  0  0  0  0  0
  -25.2666  -22.4699   26.4706 C   0  0  0  0  0  0  0  0  0  0  0  0
  -29.0285  -25.6881   23.1706 C   0  0  0  0  0  0  0  0  0  0  0  0
  -22.0045  -19.8334   20.2695 C   0  0  0  0  0  0  0  0  0  0  0  0
  -23.2031  -21.9622   20.8555 C   0  0  0  0  0  0  0  0  0  0  0  0
  -25.4648  -21.3931   24.3581 C   0  0  0  0  0  0  0  0  0  0  0  0
  -23.5110  -19.9864   22.3164 C   0  0  0  0  0  0  0  0  0  0  0  0
  -24.0057  -22.8005   25.6610 C   0  0  1  0  0  0  0  0  0  0  0  0
  -27.9224  -25.1977   22.2285 C   0  0  1  0  0  0  0  0  0  0  0  0
  -25.5901  -28.1057   21.4956 C   0  0  1  0  0  0  0  0  0  0  0  0
  -22.2630  -19.3244   21.6973 C   0  0  2  0  0  0  0  0  0  0  0  0
  -24.2371  -35.3881   23.7626 C   0  0  0  0  0  0  0  0  0  0  0  0
  -26.9085  -29.6301   25.6547 C   0  0  0  0  0  0  0  0  0  0  0  0
  -26.1420  -31.9379   26.2504 C   0  0  0  0  0  0  0  0  0  0  0  0
  -27.9728  -31.6246   24.5853 C   0  0  0  0  0  0  0  0  0  0  0  0
  -22.5198  -33.5392   20.9151 C   0  0  0  0  0  0  0  0  0  0  0  0
  -19.6163  -24.1413   27.6473 C   0  0  0  0  0  0  0  0  0  0  0  0
  -18.5487  -24.2866   26.5624 C   0  0  0  0  0  0  0  0  0  0  0  0
  -18.2158  -24.8338   24.1482 C   0  0  0  0  0  0  0  0  0  0  0  0
  -18.9614  -25.3091   22.9168 C   0  0  0  0  0  0  0  0  0  1  0  0
  -25.5978  -31.0465   23.9395 C   0  0  1  0  0  0  0  0  0  0  0  0
  -24.0752  -34.2956   22.7171 C   0  0  2  0  0  0  0  0  0  0  0  0
  -26.6373  -31.0411   25.0957 C   0  0  0  0  0  0  0  0  0  0  0  0
  -20.3858  -21.8506   27.7930 N   0  0  0  0  0  0  0  0  0  0  0  0
  -23.5506  -17.2215   21.6436 N   0  0  0  0  0  0  0  0  0  0  0  0
  -22.3474  -17.8101   21.7533 N   0  0  0  0  0  0  0  0  0  0  0  0
  -25.1486  -29.1108   22.4646 N   0  0  0  0  0  0  0  0  0  0  0  0
  -23.4370  -21.4495   22.2060 N   0  0  0  0  0  0  0  0  0  0  0  0
  -24.1601  -22.0561   24.4016 N   0  0  0  0  0  0  0  0  0  0  0  0
  -20.0400  -17.3541   22.0331 N   0  0  0  0  0  0  0  0  0  0  0  0
  -21.9172  -13.2467   21.9994 N   0  0  0  0  0  0  0  0  0  0  0  0
  -27.2176  -26.3209   21.6487 N   0  0  0  0  0  0  0  0  0  0  0  0
  -25.3414  -32.3661   23.3726 N   0  0  0  0  0  0  0  0  0  0  0  0
  -22.7957  -34.5278   21.9891 N   0  3  0  0  0  0  0  0  0  0  0  0
  -19.1689  -24.7184   25.2855 N   0  3  0  0  0  0  0  0  0  0  0  0
  -19.9332  -14.3859   22.1565 O   0  0  0  0  0  0  0  0  0  0  0  0
  -25.7068  -26.6902   23.3818 O   0  0  0  0  0  0  0  0  0  0  0  0
  -27.0664  -30.4080   22.1896 O   0  0  0  0  0  0  0  0  0  0  0  0
  -23.0610  -32.3848   23.7929 O   0  0  0  0  0  0  0  0  0  0  0  0
  -22.5834  -23.2977   23.2830 O   0  0  0  0  0  0  0  0  0  0  0  0
  -27.3422  -12.1096   21.4408 O   0  0  0  0  0  0  0  0  0  0  0  0
  -19.5641  -26.5688   23.1823 O   0  0  0  0  0  0  0  0  0  1  0  0
  -31.1582  -12.7274   17.5089 F   0  0  0  0  0  0  0  0  0  0  0  0
  -28.9193  -14.3778   21.3389 F   0  0  0  0  0  0  0  0  0  0  0  0
  1  2  1  0  0  0  0
  1  5  2  0  0  0  0
  2  6  2  0  0  0  0
  3  8  2  0  0  0  0
  3 18  1  0  0  0  0
  4  9  1  0  0  0  0
  4 18  2  0  0  0  0
  5 20  1  0  0  0  0
  6 22  1  0  0  0  0
  7 10  2  0  0  0  0
  7 21  1  0  0  0  0
  8 25  1  0  0  0  0
  9 25  2  0  0  0  0
 10 26  1  0  0  0  0
 11 12  2  0  0  0  0
 11 27  1  0  0  0  0
 12 28  1  0  0  0  0
 13 17  2  0  0  0  0
 13 23  1  0  0  0  0
 14 24  1  0  0  0  0
 14 26  2  0  0  0  0
 15 23  2  0  0  0  0
 15 31  1  0  0  0  0
 16 28  2  0  0  0  0
 16 29  1  0  0  0  0
 17 66  1  0  0  0  0
 18 30  1  0  0  0  0
 19 30  1  0  0  0  0
 19 32  2  0  0  0  0
 19 33  1  0  0  0  0
 20 22  2  0  0  0  0
 20 38  1  0  0  0  0
 21 24  2  0  0  0  0
 21 39  1  0  0  0  0
 22 51  1  0  0  0  0
 23 50  1  0  0  0  0
 24 40  1  0  0  0  0
 25 83  1  0  0  0  0
 26 84  1  0  0  0  0
 27 29  2  0  0  0  0
 27 83  1  0  0  0  0
 28 85  1  0  0  0  0
 29 86  1  0  0  0  0
 30 67  2  0  0  0  0
 31 59  1  0  0  0  0
 31 66  2  0  0  0  0
 32 68  1  0  0  0  0
 32 72  1  0  0  0  0
 33 73  1  0  0  0  0
 33 78  2  0  0  0  0
 34 52  1  0  0  0  0
 34 74  1  0  0  0  0
 34 79  2  0  0  0  0
 35 63  1  0  0  0  0
 35 69  1  0  0  0  0
 35 80  2  0  0  0  0
 36 64  1  0  0  0  0
 36 75  1  0  0  0  0
 36 81  2  0  0  0  0
 37 70  1  0  0  0  0
 37 71  1  0  0  0  0
 37 82  2  0  0  0  0
 38 41  1  0  0  0  0
 39 52  1  0  0  0  0
 40 69  1  0  0  0  0
 41 45  1  0  0  0  0
 42 44  1  0  0  0  0
 42 48  1  0  0  0  0
 43 46  1  0  0  0  0
 43 47  1  0  0  0  0
 44 50  1  0  0  0  0
 45 51  1  0  0  0  0
 46 53  1  0  0  0  0
 47 70  1  0  0  0  0
 48 71  1  0  0  0  0
 49 53  1  0  0  0  0
 49 70  1  0  0  0  0
 50 71  1  0  0  0  0
 51 74  1  0  0  0  0
 52 69  1  0  0  0  0
 53 68  1  0  0  0  0
 54 64  1  0  0  0  0
 55 65  1  0  0  0  0
 56 65  1  0  0  0  0
 57 65  1  0  0  0  0
 58 76  1  0  0  0  0
 59 60  1  0  0  0  0
 60 77  1  0  0  0  0
 61 62  1  0  0  0  0
 61 77  1  0  0  0  0
 62 84  1  0  0  0  0
 63 65  1  0  0  0  0
 63 75  1  0  0  0  0
 64 76  1  0  0  0  0
 67 68  1  0  0  0  0
M  CHG  2  76   1  77   1
M  ISO  4  37 100  62 101  71 100  84 101
M  END
> <Batch ID>
0128

> <Smiles>
CNC(C)C(=O)NC(C(=O)N1Cc2cc([101O:1][101CH2:1]CNCCc3cc(C4CCC[100N:0]4[100C:0](=O)N4CCCC(n5nc(-c6ccc(Oc7ccc(F)cc7F)cc6)c(C(N)=O)c5N)C4)ccn3)ccc2CC1C(=O)NC1CCCc2ccccc21)C(C)(C)C

> <Shape>
0.209

> <Color>
0.063

> <Negative vol penalty>
0.000

$$$$

  -OEChem-04052320423D

 88 97  0     1  0  0  0  0  0999 V2000
  -32.3693  -15.0846   20.0988 C   0  0  0  0  0  0  0  0  0  0  0  0
  -31.4458  -16.1224   20.0246 C   0  0  0  0  0  0  0  0  0  0  0  0
  -28.5943  -25.7449   20.8358 C   0  0  0  0  0  0  0  0  0  0  0  0
  -26.7046  -24.7963   19.6670 C   0  0  0  0  0  0  0  0  0  0  0  0
  -31.9376  -13.7615   20.0147 C   0  0  0  0  0  0  0  0  0  0  0  0
  -30.0901  -15.8377   19.8652 C   0  0  0  0  0  0  0  0  0  0  0  0
  -25.3723  -18.9559   22.2159 C   0  0  0  0  0  0  0  0  0  0  0  0
  -18.7712  -25.3954   21.5727 C   0  0  0  0  0  0  0  0  0  0  0  0
  -29.2083  -24.4927   20.8594 C   0  0  0  0  0  0  0  0  0  0  0  0
  -27.3186  -23.5441   19.6906 C   0  0  0  0  0  0  0  0  0  0  0  0
  -24.5259  -19.9237   21.6770 C   0  0  0  0  0  0  0  0  0  0  0  0
  -28.5489  -20.1701   19.1240 C   0  0  0  0  0  0  0  0  0  0  0  0
  -28.5358  -19.4184   17.9492 C   0  0  0  0  0  0  0  0  0  0  0  0
  -19.2815  -24.1317   21.2970 C   0  0  0  0  0  0  0  0  0  0  0  0
  -22.9046  -18.2123   21.1653 C   0  0  0  0  0  0  0  0  0  0  0  0
  -29.7384  -21.1773   16.8103 C   0  0  0  0  0  0  0  0  0  0  0  0
  -27.3424  -25.8968   20.2397 C   0  0  0  0  0  0  0  0  0  0  0  0
  -26.8275  -28.1775   19.2194 C   0  0  0  0  0  0  0  0  0  0  0  0
  -30.5748  -13.4602   19.8638 C   0  0  0  0  0  0  0  0  0  0  0  0
  -24.9953  -17.6052   22.2237 C   0  0  0  0  0  0  0  0  0  0  0  0
  -29.6399  -14.5094   19.7776 C   0  0  0  0  0  0  0  0  0  0  0  0
  -23.7470  -17.2296   21.7072 C   0  0  0  0  0  0  0  0  0  0  0  0
  -19.2046  -26.0830   22.7009 C   0  0  0  0  0  0  0  0  0  0  0  0
  -28.5705  -23.3923   20.2868 C   0  0  0  0  0  0  0  0  0  0  0  0
  -23.2931  -19.5517   21.1489 C   0  0  0  0  0  0  0  0  0  0  0  0
  -29.1566  -21.4255   19.1420 C   0  0  0  0  0  0  0  0  0  0  0  0
  -29.1305  -19.9220   16.7923 C   0  0  0  0  0  0  0  0  0  0  0  0
  -29.7514  -21.9291   17.9852 C   0  0  0  0  0  0  0  0  0  0  0  0
  -26.7074  -27.1899   20.2155 C   0  0  0  0  0  0  0  0  0  0  0  0
  -20.1422  -25.4681   23.5149 C   0  0  0  0  0  0  0  0  0  0  0  0
  -20.2158  -23.6042   22.1737 C   0  0  0  0  0  0  0  0  0  0  0  0
  -26.0354  -29.2089   19.6613 C   0  0  0  0  0  0  0  0  0  0  0  0
  -27.5871  -28.1637   18.0035 C   0  0  0  0  0  0  0  0  0  0  0  0
  -26.1554  -14.9450   20.9272 C   0  0  0  0  0  0  0  0  0  0  0  0
  -23.8263  -13.5341   22.6899 C   0  0  0  0  0  0  0  0  0  0  0  0
  -20.8188  -13.8210   24.2772 C   0  0  0  0  0  0  0  0  0  0  0  0
  -21.2970  -29.4345   23.3147 C   0  0  0  0  0  0  0  0  0  0  0  0
  -30.1611  -12.0161   19.7301 C   0  0  0  0  0  0  0  0  0  0  0  0
  -25.9083  -16.5768   22.8330 C   0  0  0  0  0  0  0  0  0  0  0  0
  -23.2866  -15.7955   21.7101 C   0  0  0  0  0  0  0  0  0  0  0  0
  -28.6660  -11.7890   19.9378 C   0  0  0  0  0  0  0  0  0  0  0  0
  -21.7281  -26.2982   27.5136 C   0  0  0  0  0  0  0  0  0  0  0  0
  -22.6219  -26.5583   26.3047 C   0  0  0  0  0  0  0  0  0  0  0  0
  -20.2708  -26.6413   27.2201 C   0  0  0  0  0  0  0  0  0  0  0  0
  -24.3706  -31.1934   23.6838 C   0  0  0  0  0  0  0  0  0  0  0  0
  -27.8560  -12.8150   19.1515 C   0  0  0  0  0  0  0  0  0  0  0  0
  -22.1193  -25.8237   25.0632 C   0  0  0  0  0  0  0  0  0  0  0  0
  -19.7566  -25.9071   25.9831 C   0  0  0  0  0  0  0  0  0  0  0  0
  -25.3288  -30.4559   22.7469 C   0  0  0  0  0  0  0  0  0  0  0  0
  -23.3946  -30.2344   24.3619 C   0  0  0  0  0  0  0  0  0  0  0  0
  -23.5967  -28.6286   22.5034 C   0  0  0  0  0  0  0  0  0  0  0  0
  -28.1581  -14.2403   19.6297 C   0  0  1  0  0  0  0  0  0  0  0  0
  -20.6503  -26.1686   24.7568 C   0  0  0  0  0  0  0  0  0  0  0  0
  -25.6422  -15.1641   22.3223 C   0  0  1  0  0  0  0  0  0  0  0  0
  -24.5638  -29.5607   21.7536 C   0  0  2  0  0  0  0  0  0  0  0  0
  -19.1530  -12.4869   25.5973 C   0  0  0  0  0  0  0  0  0  0  0  0
  -22.8682  -12.1938   20.1218 C   0  0  0  0  0  0  0  0  0  0  0  0
  -20.7130  -11.6683   21.2825 C   0  0  0  0  0  0  0  0  0  0  0  0
  -22.8534  -10.7150   22.1385 C   0  0  0  0  0  0  0  0  0  0  0  0
  -21.1228  -15.5683   26.6465 C   0  0  0  0  0  0  0  0  0  0  0  0
  -18.6612  -27.4369   23.0015 C   0  0  0  0  0  0  0  0  0  0  0  0
  -19.2869  -28.5537   22.1559 C   0  0  0  0  0  0  0  0  0  0  0  0
  -20.3150  -21.5687   20.7342 C   0  0  0  0  0  0  0  0  0  0  0  0
  -21.0624  -20.2460   20.7039 C   0  0  0  0  0  0  0  0  0  1  0  0
  -22.3779  -13.1775   22.4580 C   0  0  1  0  0  0  0  0  0  0  0  0
  -20.3676  -13.3996   25.6641 C   0  0  2  0  0  0  0  0  0  0  0  0
  -22.2123  -11.9655   21.4982 C   0  0  0  0  0  0  0  0  0  0  0  0
  -25.9025  -27.5607   21.2148 N   0  0  0  0  0  0  0  0  0  0  0  0
  -20.6608  -24.2421   23.2795 N   0  0  0  0  0  0  0  0  0  0  0  0
  -25.5097  -28.7928   20.8490 N   0  0  0  0  0  0  0  0  0  0  0  0
  -24.2175  -14.8262   22.3112 N   0  0  0  0  0  0  0  0  0  0  0  0
  -22.7006  -29.4158   23.3648 N   0  0  0  0  0  0  0  0  0  0  0  0
  -25.7443  -30.4221   19.1458 N   0  0  0  0  0  0  0  0  0  0  0  0
  -28.3459  -27.0244   17.7027 N   0  0  0  0  0  0  0  0  0  0  0  0
  -20.7151  -22.3449   21.8855 N   0  0  0  0  0  0  0  0  0  0  0  0
  -27.4671  -14.5138   20.8715 N   0  0  0  0  0  0  0  0  0  0  0  0
  -21.7899  -12.9788   23.7783 N   0  0  0  0  0  0  0  0  0  0  0  0
  -20.7193  -28.6351   22.3360 N   0  0  0  0  0  0  0  0  0  0  0  0
  -20.0124  -14.5958   26.4789 N   0  3  0  0  0  0  0  0  0  0  0  0
  -27.6056  -29.1394   17.2154 O   0  0  0  0  0  0  0  0  0  0  0  0
  -25.4157  -15.1503   19.9721 O   0  0  0  0  0  0  0  0  0  0  0  0
  -24.5811  -12.6996   23.1953 O   0  0  0  0  0  0  0  0  0  0  0  0
  -20.3535  -14.7972   23.6933 O   0  0  0  0  0  0  0  0  0  0  0  0
  -20.6097  -30.1175   24.0817 O   0  0  0  0  0  0  0  0  0  0  0  0
  -29.1695  -22.1703   20.3094 O   0  0  0  0  0  0  0  0  0  0  0  0
  -22.4652  -20.4943   20.6216 O   0  0  0  0  0  0  0  0  0  1  0  0
  -29.1192  -19.1993   15.6646 F   0  0  0  0  0  0  0  0  0  0  0  0
  -30.3379  -23.1340   17.9966 F   0  0  0  0  0  0  0  0  0  0  0  0
  1  2  1  0  0  0  0
  1  5  2  0  0  0  0
  2  6  2  0  0  0  0
  3  9  2  0  0  0  0
  3 17  1  0  0  0  0
  4 10  1  0  0  0  0
  4 17  2  0  0  0  0
  5 19  1  0  0  0  0
  6 21  1  0  0  0  0
  7 11  2  0  0  0  0
  7 20  1  0  0  0  0
  8 14  2  0  0  0  0
  8 23  1  0  0  0  0
  9 24  1  0  0  0  0
 10 24  2  0  0  0  0
 11 25  1  0  0  0  0
 12 13  2  0  0  0  0
 12 26  1  0  0  0  0
 13 27  1  0  0  0  0
 14 31  1  0  0  0  0
 15 22  1  0  0  0  0
 15 25  2  0  0  0  0
 16 27  2  0  0  0  0
 16 28  1  0  0  0  0
 17 29  1  0  0  0  0
 18 29  1  0  0  0  0
 18 32  2  0  0  0  0
 18 33  1  0  0  0  0
 19 21  2  0  0  0  0
 19 38  1  0  0  0  0
 20 22  2  0  0  0  0
 20 39  1  0  0  0  0
 21 52  1  0  0  0  0
 22 40  1  0  0  0  0
 23 30  2  0  0  0  0
 23 61  1  0  0  0  0
 24 85  1  0  0  0  0
 25 86  1  0  0  0  0
 26 28  2  0  0  0  0
 26 85  1  0  0  0  0
 27 87  1  0  0  0  0
 28 88  1  0  0  0  0
 29 68  2  0  0  0  0
 30 53  1  0  0  0  0
 30 69  1  0  0  0  0
 31 69  2  0  0  0  0
 31 75  1  0  0  0  0
 32 70  1  0  0  0  0
 32 73  1  0  0  0  0
 33 74  1  0  0  0  0
 33 80  2  0  0  0  0
 34 54  1  0  0  0  0
 34 76  1  0  0  0  0
 34 81  2  0  0  0  0
 35 65  1  0  0  0  0
 35 71  1  0  0  0  0
 35 82  2  0  0  0  0
 36 66  1  0  0  0  0
 36 77  1  0  0  0  0
 36 83  2  0  0  0  0
 37 72  1  0  0  0  0
 37 78  1  0  0  0  0
 37 84  2  0  0  0  0
 38 41  1  0  0  0  0
 39 54  1  0  0  0  0
 40 71  1  0  0  0  0
 41 46  1  0  0  0  0
 42 43  1  0  0  0  0
 42 44  1  0  0  0  0
 43 47  1  0  0  0  0
 44 48  1  0  0  0  0
 45 49  1  0  0  0  0
 45 50  1  0  0  0  0
 46 52  1  0  0  0  0
 47 53  1  0  0  0  0
 48 53  1  0  0  0  0
 49 55  1  0  0  0  0
 50 72  1  0  0  0  0
 51 55  1  0  0  0  0
 51 72  1  0  0  0  0
 52 76  1  0  0  0  0
 54 71  1  0  0  0  0
 55 70  1  0  0  0  0
 56 66  1  0  0  0  0
 57 67  1  0  0  0  0
 58 67  1  0  0  0  0
 59 67  1  0  0  0  0
 60 79  1  0  0  0  0
 61 62  1  0  0  0  0
 62 78  1  0  0  0  0
 63 64  1  0  0  0  0
 63 75  1  0  0  0  0
 64 86  1  0  0  0  0
 65 67  1  0  0  0  0
 65 77  1  0  0  0  0
 66 79  1  0  0  0  0
 68 70  1  0  0  0  0
M  CHG  1  79   1
M  ISO  4  37 100  64 101  78 100  86 101
M  END
> <Batch ID>
0128

> <Smiles>
CNC(C)C(=O)NC(C(=O)N1Cc2cc([101O:1][101CH2:1]CNc3ccc(CC[100NH:0][100C:0](=O)N4CCCC(n5nc(-c6ccc(Oc7ccc(F)cc7F)cc6)c(C(N)=O)c5N)C4)c(C4CCCCC4)n3)ccc2CC1C(=O)NC1CCCc2ccccc21)C(C)(C)C

> <Shape>
0.231

> <Color>
0.059

> <Negative vol penalty>
0.000

$$$$

  -OEChem-04052320423D

 87 96  0     1  0  0  0  0  0999 V2000
  -26.6319  -38.2990   21.5232 C   0  0  0  0  0  0  0  0  0  0  0  0
  -26.9397  -36.9615   21.2955 C   0  0  0  0  0  0  0  0  0  0  0  0
  -23.9984   -8.9729   19.5808 C   0  0  0  0  0  0  0  0  0  0  0  0
  -25.3155   -8.0501   21.3838 C   0  0  0  0  0  0  0  0  0  0  0  0
  -25.6632  -38.6395   22.4664 C   0  0  0  0  0  0  0  0  0  0  0  0
  -26.2795  -35.9637   22.0117 C   0  0  0  0  0  0  0  0  0  0  0  0
  -28.2578  -23.8243   22.0419 C   0  0  0  0  0  0  0  0  0  0  0  0
  -27.0790  -22.9914   20.1045 C   0  0  0  0  0  0  0  0  0  0  0  0
  -24.7116  -30.4014   19.9849 C   0  0  0  0  0  0  0  0  0  0  0  0
  -27.8052  -25.1139   21.7630 C   0  0  0  0  0  0  0  0  0  0  0  0
  -26.6263  -24.2809   19.8255 C   0  0  0  0  0  0  0  0  0  0  0  0
  -22.8303   -8.6846   20.2865 C   0  0  0  0  0  0  0  0  0  0  0  0
  -24.1474   -7.7619   22.0896 C   0  0  0  0  0  0  0  0  0  0  0  0
  -25.3075  -29.1490   20.1268 C   0  0  0  0  0  0  0  0  0  0  0  0
  -21.7298   -5.3988   22.0470 C   0  0  0  0  0  0  0  0  0  0  0  0
  -21.6284   -4.1439   22.6475 C   0  0  0  0  0  0  0  0  0  0  0  0
  -23.8571  -28.6773   21.9958 C   0  0  0  0  0  0  0  0  0  0  0  0
  -21.3975   -5.1972   24.8095 C   0  0  0  0  0  0  0  0  0  0  0  0
  -25.2410   -8.6555   20.1294 C   0  0  0  0  0  0  0  0  0  0  0  0
  -26.8163   -8.4665   18.1318 C   0  0  0  0  0  0  0  0  0  0  0  0
  -27.8948  -22.7631   21.2127 C   0  0  0  0  0  0  0  0  0  0  0  0
  -24.9840  -37.6449   23.1876 C   0  0  0  0  0  0  0  0  0  0  0  0
  -23.6897  -30.8062   20.8557 C   0  0  0  0  0  0  0  0  0  0  0  0
  -25.3018  -36.2912   22.9664 C   0  0  0  0  0  0  0  0  0  0  0  0
  -23.2481  -29.9344   21.8612 C   0  0  0  0  0  0  0  0  0  0  0  0
  -26.9894  -25.3422   20.6548 C   0  0  0  0  0  0  0  0  0  0  0  0
  -22.9048   -8.0792   21.5409 C   0  0  0  0  0  0  0  0  0  0  0  0
  -24.8823  -28.2879   21.1341 C   0  0  0  0  0  0  0  0  0  0  0  0
  -21.6651   -6.5529   22.8277 C   0  0  0  0  0  0  0  0  0  0  0  0
  -21.4622   -4.0431   24.0287 C   0  0  0  0  0  0  0  0  0  0  0  0
  -21.4989   -6.4521   24.2090 C   0  0  0  0  0  0  0  0  0  0  0  0
  -26.4480   -8.9525   19.4006 C   0  0  0  0  0  0  0  0  0  0  0  0
  -28.0401   -9.0397   17.8864 C   0  0  0  0  0  0  0  0  0  0  0  0
  -26.1148   -7.5764   17.2534 C   0  0  0  0  0  0  0  0  0  0  0  0
  -23.3396  -33.1603   22.9627 C   0  0  0  0  0  0  0  0  0  0  0  0
  -20.3105  -32.0154   23.1528 C   0  0  0  0  0  0  0  0  0  0  0  0
  -18.1773  -29.3829   22.7447 C   0  0  0  0  0  0  0  0  0  0  0  0
  -30.6778  -14.0313   19.8809 C   0  0  0  0  0  0  0  0  0  0  0  0
  -23.9784  -38.0635   24.2307 C   0  0  0  0  0  0  0  0  0  0  0  0
  -23.0388  -32.1498   20.6726 C   0  0  0  0  0  0  0  0  0  0  0  0
  -22.1408  -30.3132   22.8093 C   0  0  0  0  0  0  0  0  0  0  0  0
  -23.0584  -36.9308   24.6790 C   0  0  0  0  0  0  0  0  0  0  0  0
  -31.9160  -10.7035   20.1448 C   0  0  0  0  0  0  0  0  0  0  0  0
  -23.8659  -35.6689   24.9656 C   0  0  0  0  0  0  0  0  0  0  0  0
  -30.6882   -9.8335   19.8695 C   0  0  0  0  0  0  0  0  0  0  0  0
  -29.1596  -20.7087   20.3709 C   0  0  0  0  0  0  0  0  0  0  0  0
  -31.5512  -11.9629   20.9276 C   0  0  0  0  0  0  0  0  0  0  0  0
  -29.2478  -11.9048   20.0531 C   0  0  0  0  0  0  0  0  0  0  0  0
  -27.5670  -19.0951   21.0822 C   0  0  0  0  0  0  0  0  0  0  0  0
  -24.5899  -35.1791   23.7057 C   0  0  1  0  0  0  0  0  0  0  0  0
  -28.3830  -21.3706   21.5131 C   0  0  2  0  0  0  0  0  0  0  0  0
  -22.3593  -32.6620   21.9387 C   0  0  1  0  0  0  0  0  0  0  0  0
  -29.5567  -10.6507   19.2175 C   0  0  2  0  0  0  0  0  0  0  0  0
  -29.0284  -19.2237   20.6899 C   0  0  1  0  0  0  0  0  0  0  0  0
  -15.7669  -28.7401   23.0172 C   0  0  0  0  0  0  0  0  0  0  0  0
  -28.8310  -16.1772   17.5256 C   0  0  0  0  0  0  0  0  0  0  0  0
  -20.7044  -31.8280   26.1727 C   0  0  0  0  0  0  0  0  0  0  0  0
  -18.6981  -30.3336   26.2715 C   0  0  0  0  0  0  0  0  0  0  0  0
  -18.4632  -32.6821   25.4639 C   0  0  0  0  0  0  0  0  0  0  0  0
  -17.8880  -28.7930   19.8590 C   0  0  0  0  0  0  0  0  0  0  0  0
  -26.5015  -26.7293   20.3564 C   0  0  0  0  0  0  0  0  0  1  0  0
  -29.2307  -16.9574   19.9253 C   0  0  0  0  0  0  0  0  0  0  0  0
  -19.6117  -30.9751   23.9945 C   0  0  1  0  0  0  0  0  0  0  0  0
  -16.8236  -29.2793   22.0656 C   0  0  2  0  0  0  0  0  0  0  0  0
  -29.6682  -16.0199   18.7923 C   0  0  1  0  0  0  0  0  0  0  0  0
  -19.3916  -31.4480   25.4592 C   0  0  0  0  0  0  0  0  0  0  0  0
  -27.3638   -9.7714   19.9248 N   0  0  0  0  0  0  0  0  0  0  0  0
  -28.3197   -9.8042   18.9808 N   0  0  0  0  0  0  0  0  0  0  0  0
  -21.5403  -31.6400   22.5937 N   0  0  0  0  0  0  0  0  0  0  0  0
  -30.4737  -12.6929   20.2553 N   0  0  0  0  0  0  0  0  0  0  0  0
  -28.8935   -8.9593   16.8436 N   0  0  0  0  0  0  0  0  0  0  0  0
  -24.8691   -7.0798   17.6608 N   0  0  0  0  0  0  0  0  0  0  0  0
  -23.6663  -34.4959   22.8255 N   0  0  0  0  0  0  0  0  0  0  0  0
  -18.3829  -30.6345   23.2855 N   0  0  0  0  0  0  0  0  0  0  0  0
  -29.6081  -14.6473   19.2430 N   0  0  0  0  0  0  0  0  0  0  0  0
  -29.3830  -18.3638   19.5732 N   0  0  0  0  0  0  0  0  0  0  0  0
  -27.2852  -20.3690   21.8298 N   0  3  0  0  0  0  0  0  0  0  0  0
  -16.9032  -28.3699   20.8876 N   0  3  0  0  0  0  0  0  0  0  0  0
  -26.5865   -7.2187   16.1475 O   0  0  0  0  0  0  0  0  0  0  0  0
  -23.7667  -32.3904   23.8150 O   0  0  0  0  0  0  0  0  0  0  0  0
  -19.7812  -33.1178   22.9913 O   0  0  0  0  0  0  0  0  0  0  0  0
  -18.9713  -28.4460   22.7939 O   0  0  0  0  0  0  0  0  0  0  0  0
  -31.7370  -14.6310   20.0941 O   0  0  0  0  0  0  0  0  0  0  0  0
  -21.7652   -7.7980   22.2300 O   0  0  0  0  0  0  0  0  0  0  0  0
  -25.4626  -27.0651   21.2752 O   0  0  0  0  0  0  0  0  0  1  0  0
  -21.3633   -2.8380   24.6051 F   0  0  0  0  0  0  0  0  0  0  0  0
  -21.4349   -7.5573   24.9641 F   0  0  0  0  0  0  0  0  0  0  0  0
  1  2  1  0  0  0  0
  1  5  2  0  0  0  0
  2  6  2  0  0  0  0
  3 12  2  0  0  0  0
  3 19  1  0  0  0  0
  4 13  1  0  0  0  0
  4 19  2  0  0  0  0
  5 22  1  0  0  0  0
  6 24  1  0  0  0  0
  7 10  2  0  0  0  0
  7 21  1  0  0  0  0
  8 11  1  0  0  0  0
  8 21  2  0  0  0  0
  9 14  2  0  0  0  0
  9 23  1  0  0  0  0
 10 26  1  0  0  0  0
 11 26  2  0  0  0  0
 12 27  1  0  0  0  0
 13 27  2  0  0  0  0
 14 28  1  0  0  0  0
 15 16  2  0  0  0  0
 15 29  1  0  0  0  0
 16 30  1  0  0  0  0
 17 25  1  0  0  0  0
 17 28  2  0  0  0  0
 18 30  2  0  0  0  0
 18 31  1  0  0  0  0
 19 32  1  0  0  0  0
 20 32  1  0  0  0  0
 20 33  2  0  0  0  0
 20 34  1  0  0  0  0
 21 51  1  0  0  0  0
 22 24  2  0  0  0  0
 22 39  1  0  0  0  0
 23 25  2  0  0  0  0
 23 40  1  0  0  0  0
 24 50  1  0  0  0  0
 25 41  1  0  0  0  0
 26 61  1  0  0  0  0
 27 84  1  0  0  0  0
 28 85  1  0  0  0  0
 29 31  2  0  0  0  0
 29 84  1  0  0  0  0
 30 86  1  0  0  0  0
 31 87  1  0  0  0  0
 32 67  2  0  0  0  0
 33 68  1  0  0  0  0
 33 71  1  0  0  0  0
 34 72  1  0  0  0  0
 34 79  2  0  0  0  0
 35 52  1  0  0  0  0
 35 73  1  0  0  0  0
 35 80  2  0  0  0  0
 36 63  1  0  0  0  0
 36 69  1  0  0  0  0
 36 81  2  0  0  0  0
 37 64  1  0  0  0  0
 37 74  1  0  0  0  0
 37 82  2  0  0  0  0
 38 70  1  0  0  0  0
 38 75  1  0  0  0  0
 38 83  2  0  0  0  0
 39 42  1  0  0  0  0
 40 52  1  0  0  0  0
 41 69  1  0  0  0  0
 42 44  1  0  0  0  0
 43 45  1  0  0  0  0
 43 47  1  0  0  0  0
 44 50  1  0  0  0  0
 45 53  1  0  0  0  0
 46 51  1  0  0  0  0
 46 54  1  0  0  0  0
 47 70  1  0  0  0  0
 48 53  1  0  0  0  0
 48 70  1  0  0  0  0
 49 54  1  0  0  0  0
 49 77  1  0  0  0  0
 50 73  1  0  0  0  0
 51 77  1  0  0  0  0
 52 69  1  0  0  0  0
 53 68  1  0  0  0  0
 54 76  1  0  0  0  0
 55 64  1  0  0  0  0
 56 65  1  0  0  0  0
 57 66  1  0  0  0  0
 58 66  1  0  0  0  0
 59 66  1  0  0  0  0
 60 78  1  0  0  0  0
 61 85  1  0  0  0  0
 62 65  1  0  0  0  0
 62 76  1  0  0  0  0
 63 66  1  0  0  0  0
 63 74  1  0  0  0  0
 64 78  1  0  0  0  0
 65 75  1  0  0  0  0
 67 68  1  0  0  0  0
M  CHG  2  77   1  78   1
M  ISO  4  38 100  61 101  75 100  85 101
M  END
> <Batch ID>
0128

> <Smiles>
CNC(C)C(=O)NC(C(=O)N1Cc2cc([101O:1][101CH2:1]c3ccc(C4CC(NCC(C)[100NH:0][100C:0](=O)N5CCCC(n6nc(-c7ccc(Oc8ccc(F)cc8F)cc7)c(C(N)=O)c6N)C5)CN4)cc3)ccc2CC1C(=O)NC1CCCc2ccccc21)C(C)(C)C

> <Shape>
0.270

> <Color>
0.070

> <Negative vol penalty>
0.000

$$$$

  -OEChem-04052320423D

 91100  0     1  0  0  0  0  0999 V2000
  -24.5575  -19.0969   22.8046 C   0  0  0  0  0  0  0  0  0  0  0  0
  -24.9845  -20.2483   22.1507 C   0  0  0  0  0  0  0  0  0  0  0  0
  -23.0717   -9.8731   19.9380 C   0  0  0  0  0  0  0  0  0  0  0  0
  -23.8394   -9.8700   22.2288 C   0  0  0  0  0  0  0  0  0  0  0  0
  -23.5021  -18.3506   22.2820 C   0  0  0  0  0  0  0  0  0  0  0  0
  -24.3569  -20.6534   20.9732 C   0  0  0  0  0  0  0  0  0  0  0  0
  -23.3865  -25.6230   20.8996 C   0  0  0  0  0  0  0  0  0  0  0  0
  -31.4306  -19.3913   19.1475 C   0  0  0  0  0  0  0  0  0  0  0  0
  -31.6199  -18.3572   20.0642 C   0  0  0  0  0  0  0  0  0  0  0  0
  -22.3284   -8.7190   20.1855 C   0  0  0  0  0  0  0  0  0  0  0  0
  -23.0961   -8.7160   22.4763 C   0  0  0  0  0  0  0  0  0  0  0  0
  -24.4525  -26.4758   20.6163 C   0  0  0  0  0  0  0  0  0  0  0  0
  -21.1152   -5.9735   23.8078 C   0  0  0  0  0  0  0  0  0  0  0  0
  -20.3629   -5.9250   24.9814 C   0  0  0  0  0  0  0  0  0  0  0  0
  -23.6855  -26.6677   18.3373 C   0  0  0  0  0  0  0  0  0  0  0  0
  -29.1809  -19.7081   19.9693 C   0  0  0  0  0  0  0  0  0  0  0  0
  -19.1162   -7.8656   24.2625 C   0  0  0  0  0  0  0  0  0  0  0  0
  -23.8272  -10.4486   20.9596 C   0  0  0  0  0  0  0  0  0  0  0  0
  -24.1691  -12.9742   20.8493 C   0  0  0  0  0  0  0  0  0  0  0  0
  -22.8550  -18.7521   21.1027 C   0  0  0  0  0  0  0  0  0  0  0  0
  -22.4667  -25.2769   19.8993 C   0  0  0  0  0  0  0  0  0  0  0  0
  -23.2928  -19.9110   20.4337 C   0  0  0  0  0  0  0  0  0  0  0  0
  -22.6073  -25.8124   18.6110 C   0  0  0  0  0  0  0  0  0  0  0  0
  -30.2111  -20.0668   19.1000 C   0  0  0  0  0  0  0  0  0  0  0  0
  -30.5897  -17.9985   20.9334 C   0  0  0  0  0  0  0  0  0  0  0  0
  -29.3701  -18.6740   20.8860 C   0  0  0  0  0  0  0  0  0  0  0  0
  -22.3406   -8.1405   21.4546 C   0  0  0  0  0  0  0  0  0  0  0  0
  -24.6038  -26.9960   19.3343 C   0  0  0  0  0  0  0  0  0  0  0  0
  -20.8680   -6.9681   22.8616 C   0  0  0  0  0  0  0  0  0  0  0  0
  -19.3634   -6.8710   25.2088 C   0  0  0  0  0  0  0  0  0  0  0  0
  -19.8686   -7.9142   23.0889 C   0  0  0  0  0  0  0  0  0  0  0  0
  -24.5956  -11.6404   20.7044 C   0  0  0  0  0  0  0  0  0  0  0  0
  -25.2602  -13.7250   20.4856 C   0  0  0  0  0  0  0  0  0  0  0  0
  -22.9002  -13.4884   21.2748 C   0  0  0  0  0  0  0  0  0  0  0  0
  -21.5879  -22.5601   18.5027 C   0  0  0  0  0  0  0  0  0  0  0  0
  -19.3705  -24.4587   17.0882 C   0  0  0  0  0  0  0  0  0  0  0  0
  -18.4472  -27.5904   16.0950 C   0  0  0  0  0  0  0  0  0  0  0  0
  -30.7448  -14.7422   20.6596 C   0  0  0  0  0  0  0  0  0  0  0  0
  -21.7498  -17.8870   20.5506 C   0  0  0  0  0  0  0  0  0  0  0  0
  -21.3070  -24.3771   20.2277 C   0  0  0  0  0  0  0  0  0  0  0  0
  -21.6356  -25.4880   17.5070 C   0  0  0  0  0  0  0  0  0  0  0  0
  -20.8929  -18.5899   19.5008 C   0  0  0  0  0  0  0  0  0  0  0  0
  -29.5985  -12.3682   18.2664 C   0  0  0  0  0  0  0  0  0  0  0  0
  -21.7755  -19.3125   18.4880 C   0  0  0  0  0  0  0  0  0  0  0  0
  -30.5934  -25.4168   19.2393 C   0  0  0  0  0  0  0  0  0  0  0  0
  -28.1625  -12.0729   18.7030 C   0  0  0  0  0  0  0  0  0  0  0  0
  -30.3490  -26.7102   20.0063 C   0  0  0  0  0  0  0  0  0  0  0  0
  -30.5198  -12.5837   19.4651 C   0  0  0  0  0  0  0  0  0  0  0  0
  -28.6230  -13.3091   20.8614 C   0  0  0  0  0  0  0  0  0  0  0  0
  -28.6407  -25.9533   17.7508 C   0  0  0  0  0  0  0  0  0  0  0  0
  -22.6211  -20.3964   19.1674 C   0  0  1  0  0  0  0  0  0  0  0  0
  -20.7230  -23.6832   19.0010 C   0  0  1  0  0  0  0  0  0  0  0  0
  -29.2932  -24.8894   18.6311 C   0  0  1  0  0  0  0  0  0  0  0  0
  -27.6447  -13.1398   19.6863 C   0  0  2  0  0  0  0  0  0  0  0  0
  -29.6842  -27.7848   19.1378 C   0  0  2  0  0  0  0  0  0  0  0  0
  -28.2527  -18.3071   21.8066 C   0  0  0  0  0  0  0  0  0  0  0  0
  -29.3956  -29.0250   19.9813 C   0  0  0  0  0  0  0  0  0  0  0  0
  -16.5965  -28.8224   14.9311 C   0  0  0  0  0  0  0  0  0  0  0  0
  -20.3525  -23.3923   14.4034 C   0  0  0  0  0  0  0  0  0  0  0  0
  -19.1761  -25.3032   13.2930 C   0  0  0  0  0  0  0  0  0  0  0  0
  -17.8690  -23.6204   14.5900 C   0  0  0  0  0  0  0  0  0  0  0  0
  -17.8976  -29.2538   18.4803 C   0  0  0  0  0  0  0  0  0  0  0  0
  -30.8153  -16.8874   21.9055 C   0  0  0  0  0  0  0  0  0  0  0  0
  -30.0076  -21.1788   18.1136 C   0  0  0  0  0  0  0  0  0  0  0  0
  -29.5534  -23.6179   17.8253 C   0  0  0  0  0  0  0  0  0  0  0  0
  -27.6124  -28.2064   17.7270 C   0  0  0  0  0  0  0  0  0  0  0  0
  -26.1490  -27.8109   17.7205 C   0  0  0  0  0  0  0  0  0  1  0  0
  -19.3186  -25.2835   15.8249 C   0  0  1  0  0  0  0  0  0  0  0  0
  -17.1514  -28.3616   16.2700 C   0  0  2  0  0  0  0  0  0  0  0  0
  -19.1986  -24.4046   14.5479 C   0  0  0  0  0  0  0  0  0  0  0  0
  -25.8590  -11.5462   20.2814 N   0  0  0  0  0  0  0  0  0  0  0  0
  -26.2358  -12.8302   20.1573 N   0  0  0  0  0  0  0  0  0  0  0  0
  -20.5218  -24.5987   17.8760 N   0  0  0  0  0  0  0  0  0  0  0  0
  -29.9725  -13.6085   20.3574 N   0  0  0  0  0  0  0  0  0  0  0  0
  -25.4706  -15.0567   20.4176 N   0  0  0  0  0  0  0  0  0  0  0  0
  -21.8893  -12.5780   21.6116 N   0  0  0  0  0  0  0  0  0  0  0  0
  -21.8173  -21.5691   19.4380 N   0  0  0  0  0  0  0  0  0  0  0  0
  -18.2250  -26.2328   16.0018 N   0  0  0  0  0  0  0  0  0  0  0  0
  -30.1487  -15.6675   21.5077 N   0  0  0  0  0  0  0  0  0  0  0  0
  -28.3798  -27.2318   18.5428 N   0  3  1  0  0  0  0  0  0  0  0  0
  -17.3743  -29.5620   17.1245 N   0  3  0  0  0  0  0  0  0  0  0  0
  -29.6921  -22.4842   18.7615 N   0  3  0  0  0  0  0  0  0  0  0  0
  -22.6644  -14.7188   21.3383 O   0  0  0  0  0  0  0  0  0  0  0  0
  -22.0143  -22.5898   17.3543 O   0  0  0  0  0  0  0  0  0  0  0  0
  -18.4212  -23.7229   17.3695 O   0  0  0  0  0  0  0  0  0  0  0  0
  -19.5463  -28.1380   16.0423 O   0  0  0  0  0  0  0  0  0  0  0  0
  -31.8792  -14.9194   20.2029 O   0  0  0  0  0  0  0  0  0  0  0  0
  -21.6152   -7.0145   21.6966 O   0  0  0  0  0  0  0  0  0  0  0  0
  -25.6437  -27.8281   19.0550 O   0  0  0  0  0  0  0  0  0  1  0  0
  -18.6400   -6.8234   26.3351 F   0  0  0  0  0  0  0  0  0  0  0  0
  -19.6257   -8.8713   22.1830 F   0  0  0  0  0  0  0  0  0  0  0  0
  1  2  1  0  0  0  0
  1  5  2  0  0  0  0
  2  6  2  0  0  0  0
  3 10  2  0  0  0  0
  3 18  1  0  0  0  0
  4 11  1  0  0  0  0
  4 18  2  0  0  0  0
  5 20  1  0  0  0  0
  6 22  1  0  0  0  0
  7 12  2  0  0  0  0
  7 21  1  0  0  0  0
  8  9  2  0  0  0  0
  8 24  1  0  0  0  0
  9 25  1  0  0  0  0
 10 27  1  0  0  0  0
 11 27  2  0  0  0  0
 12 28  1  0  0  0  0
 13 14  2  0  0  0  0
 13 29  1  0  0  0  0
 14 30  1  0  0  0  0
 15 23  1  0  0  0  0
 15 28  2  0  0  0  0
 16 24  2  0  0  0  0
 16 26  1  0  0  0  0
 17 30  2  0  0  0  0
 17 31  1  0  0  0  0
 18 32  1  0  0  0  0
 19 32  1  0  0  0  0
 19 33  2  0  0  0  0
 19 34  1  0  0  0  0
 20 22  2  0  0  0  0
 20 39  1  0  0  0  0
 21 23  2  0  0  0  0
 21 40  1  0  0  0  0
 22 51  1  0  0  0  0
 23 41  1  0  0  0  0
 24 64  1  0  0  0  0
 25 26  2  0  0  0  0
 25 63  1  0  0  0  0
 26 56  1  0  0  0  0
 27 88  1  0  0  0  0
 28 89  1  0  0  0  0
 29 31  2  0  0  0  0
 29 88  1  0  0  0  0
 30 90  1  0  0  0  0
 31 91  1  0  0  0  0
 32 71  2  0  0  0  0
 33 72  1  0  0  0  0
 33 75  1  0  0  0  0
 34 76  1  0  0  0  0
 34 83  2  0  0  0  0
 35 52  1  0  0  0  0
 35 77  1  0  0  0  0
 35 84  2  0  0  0  0
 36 68  1  0  0  0  0
 36 73  1  0  0  0  0
 36 85  2  0  0  0  0
 37 69  1  0  0  0  0
 37 78  1  0  0  0  0
 37 86  2  0  0  0  0
 38 74  1  0  0  0  0
 38 79  1  0  0  0  0
 38 87  2  0  0  0  0
 39 42  1  0  0  0  0
 40 52  1  0  0  0  0
 41 73  1  0  0  0  0
 42 44  1  0  0  0  0
 43 46  1  0  0  0  0
 43 48  1  0  0  0  0
 44 51  1  0  0  0  0
 45 47  1  0  0  0  0
 45 53  1  0  0  0  0
 46 54  1  0  0  0  0
 47 55  1  0  0  0  0
 48 74  1  0  0  0  0
 49 54  1  0  0  0  0
 49 74  1  0  0  0  0
 50 53  1  0  0  0  0
 50 80  1  0  0  0  0
 51 77  1  0  0  0  0
 52 73  1  0  0  0  0
 53 65  1  0  0  0  0
 54 72  1  0  0  0  0
 55 57  1  0  0  0  0
 55 80  1  0  0  0  0
 58 69  1  0  0  0  0
 59 70  1  0  0  0  0
 60 70  1  0  0  0  0
 61 70  1  0  0  0  0
 62 81  1  0  0  0  0
 63 79  1  0  0  0  0
 64 82  1  0  0  0  0
 65 82  1  0  0  0  0
 66 67  1  0  0  0  0
 66 80  1  0  0  0  0
 67 89  1  0  0  0  0
 68 70  1  0  0  0  0
 68 78  1  0  0  0  0
 69 81  1  0  0  0  0
 71 72  1  0  0  0  0
M  CHG  3  80   1  81   1  82   1
M  ISO  4  38 100  67 101  79 100  89 101
M  END
> <Batch ID>
0128

> <Smiles>
CNC(C)C(=O)NC(C(=O)N1Cc2cc([101O:1][101CH2:1]CN3CC(CNCc4ccc(C[100NH:0][100C:0](=O)N5CCCC(n6nc(-c7ccc(Oc8ccc(F)cc8F)cc7)c(C(N)=O)c6N)C5)c(C)c4)CCC3C)ccc2CC1C(=O)NC1CCCc2ccccc21)C(C)(C)C

> <Shape>
0.247

> <Color>
0.180

> <Negative vol penalty>
0.000

$$$$

  -OEChem-04052320423D

 85 93  0     1  0  0  0  0  0999 V2000
  -26.9266  -33.0875   10.3496 C   0  0  0  0  0  0  0  0  0  0  0  0
  -26.7278  -31.7211   10.5195 C   0  0  0  0  0  0  0  0  0  0  0  0
  -23.1665   -9.8010   19.8616 C   0  0  0  0  0  0  0  0  0  0  0  0
  -23.8618   -9.7841   22.1754 C   0  0  0  0  0  0  0  0  0  0  0  0
  -27.4678  -33.8463   11.3865 C   0  0  0  0  0  0  0  0  0  0  0  0
  -27.0710  -31.1125   11.7263 C   0  0  0  0  0  0  0  0  0  0  0  0
  -25.0440  -25.7879   16.0686 C   0  0  0  0  0  0  0  0  0  0  0  0
  -26.3484  -20.5765   19.5673 C   0  0  0  0  0  0  0  0  0  0  0  0
  -22.4613   -8.6149   20.0648 C   0  0  0  0  0  0  0  0  0  0  0  0
  -23.1565   -8.5979   22.3786 C   0  0  0  0  0  0  0  0  0  0  0  0
  -25.5659  -24.6706   16.7191 C   0  0  0  0  0  0  0  0  0  0  0  0
  -23.5912   -5.3032   21.7569 C   0  0  0  0  0  0  0  0  0  0  0  0
  -24.2259   -4.2858   22.4694 C   0  0  0  0  0  0  0  0  0  0  0  0
  -26.9164  -19.5887   20.3643 C   0  0  0  0  0  0  0  0  0  0  0  0
  -26.4197  -26.0954   18.4684 C   0  0  0  0  0  0  0  0  0  0  0  0
  -22.4724   -4.3550   24.1300 C   0  0  0  0  0  0  0  0  0  0  0  0
  -23.8668  -10.3856   20.9169 C   0  0  0  0  0  0  0  0  0  0  0  0
  -24.1137  -12.9241   20.8622 C   0  0  0  0  0  0  0  0  0  0  0  0
  -27.8089  -33.2484   12.6100 C   0  0  0  0  0  0  0  0  0  0  0  0
  -25.2157  -27.0706   16.6085 C   0  0  0  0  0  0  0  0  0  0  0  0
  -27.6185  -31.8638   12.7801 C   0  0  0  0  0  0  0  0  0  0  0  0
  -25.8968  -27.2271   17.8242 C   0  0  0  0  0  0  0  0  0  0  0  0
  -27.1663  -21.3980   18.7995 C   0  0  0  0  0  0  0  0  0  0  0  0
  -22.4562   -8.0134   21.3233 C   0  0  0  0  0  0  0  0  0  0  0  0
  -26.2564  -24.8246   17.9177 C   0  0  0  0  0  0  0  0  0  0  0  0
  -22.3972   -5.8466   22.2310 C   0  0  0  0  0  0  0  0  0  0  0  0
  -23.6665   -3.8117   23.6560 C   0  0  0  0  0  0  0  0  0  0  0  0
  -21.8378   -5.3725   23.4175 C   0  0  0  0  0  0  0  0  0  0  0  0
  -24.5960  -11.6106   20.7075 C   0  0  0  0  0  0  0  0  0  0  0  0
  -28.5351  -21.1928   18.8634 C   0  0  0  0  0  0  0  0  0  0  0  0
  -28.2963  -19.4643   20.3580 C   0  0  0  0  0  0  0  0  0  0  0  0
  -25.1856  -13.7228   20.5468 C   0  0  0  0  0  0  0  0  0  0  0  0
  -22.8131  -13.3813   21.2559 C   0  0  0  0  0  0  0  0  0  0  0  0
  -26.6513  -29.7371   15.6427 C   0  0  0  0  0  0  0  0  0  0  0  0
  -29.5023  -21.6874   16.5825 C   0  0  0  0  0  0  0  0  0  0  0  0
  -25.2990  -30.9721   18.3201 C   0  0  0  0  0  0  0  0  0  0  0  0
  -24.0157  -30.4246   21.4346 C   0  0  0  0  0  0  0  0  0  0  0  0
  -30.6185  -14.9456   20.9141 C   0  0  0  0  0  0  0  0  0  0  0  0
  -28.4349  -34.1011   13.6851 C   0  0  0  0  0  0  0  0  0  0  0  0
  -24.6235  -28.2628   15.9082 C   0  0  0  0  0  0  0  0  0  0  0  0
  -26.0908  -28.5805   18.4560 C   0  0  0  0  0  0  0  0  0  0  0  0
  -28.4236  -33.4474   15.0645 C   0  0  0  0  0  0  0  0  0  0  0  0
  -29.6406  -12.5751   18.4439 C   0  0  0  0  0  0  0  0  0  0  0  0
  -28.8916  -31.9985   14.9725 C   0  0  0  0  0  0  0  0  0  0  0  0
  -28.2042  -12.2169   18.8291 C   0  0  0  0  0  0  0  0  0  0  0  0
  -30.5149  -12.8030   19.6751 C   0  0  0  0  0  0  0  0  0  0  0  0
  -28.5486  -13.4288   21.0225 C   0  0  0  0  0  0  0  0  0  0  0  0
  -27.9553  -31.1717   14.0831 C   0  0  1  0  0  0  0  0  0  0  0  0
  -25.3028  -29.5757   16.2855 C   0  0  1  0  0  0  0  0  0  0  0  0
  -27.6149  -13.2444   19.8140 C   0  0  2  0  0  0  0  0  0  0  0  0
  -29.8564  -22.8014   15.6313 C   0  0  0  0  0  0  0  0  0  0  0  0
  -23.0234  -31.6339   23.3968 C   0  0  0  0  0  0  0  0  0  0  0  0
  -28.0786  -31.9372   19.1278 C   0  0  0  0  0  0  0  0  0  0  0  0
  -27.2116  -32.2684   21.4531 C   0  0  0  0  0  0  0  0  0  0  0  0
  -26.2385  -33.5740   19.5634 C   0  0  0  0  0  0  0  0  0  0  0  0
  -21.4596  -28.9519   21.1974 C   0  0  0  0  0  0  0  0  0  0  0  0
  -26.5591  -22.4658   17.9379 C   0  0  0  0  0  0  0  0  0  1  0  0
  -29.4622  -22.0456   18.0607 C   0  0  0  0  0  0  0  0  0  0  0  0
  -30.2654  -18.2231   21.2566 C   0  0  0  0  0  0  0  0  0  0  0  0
  -30.5666  -17.0680   22.1993 C   0  0  0  0  0  0  0  0  0  0  0  0
  -25.7177  -31.1081   19.7641 C   0  0  1  0  0  0  0  0  0  0  0  0
  -22.7352  -30.9029   22.0948 C   0  0  2  0  0  0  0  0  0  0  0  0
  -26.8098  -32.1965   19.9645 C   0  0  0  0  0  0  0  0  0  0  0  0
  -25.8747  -11.5727   20.3234 N   0  0  0  0  0  0  0  0  0  0  0  0
  -29.1233  -20.2437   19.6256 N   0  0  0  0  0  0  0  0  0  0  0  0
  -26.2050  -12.8723   20.2342 N   0  0  0  0  0  0  0  0  0  0  0  0
  -25.4987  -29.7161   17.7298 N   0  0  0  0  0  0  0  0  0  0  0  0
  -29.9006  -13.7890   20.5674 N   0  0  0  0  0  0  0  0  0  0  0  0
  -25.3462  -15.0627   20.5092 N   0  0  0  0  0  0  0  0  0  0  0  0
  -21.8282  -12.4266   21.5441 N   0  0  0  0  0  0  0  0  0  0  0  0
  -28.8599  -18.4529   21.1751 N   0  0  0  0  0  0  0  0  0  0  0  0
  -26.7467  -30.8296   14.8020 N   0  0  0  0  0  0  0  0  0  0  0  0
  -24.4942  -31.3423   20.5235 N   0  0  0  0  0  0  0  0  0  0  0  0
  -29.9607  -15.8312   21.7589 N   0  0  0  0  0  0  0  0  0  0  0  0
  -21.8428  -29.7470   22.3924 N   0  3  0  0  0  0  0  0  0  0  0  0
  -22.5278  -14.6003   21.3335 O   0  0  0  0  0  0  0  0  0  0  0  0
  -27.5400  -28.9310   15.8922 O   0  0  0  0  0  0  0  0  0  0  0  0
  -29.2617  -20.5548   16.1663 O   0  0  0  0  0  0  0  0  0  0  0  0
  -24.8061  -31.9424   17.7394 O   0  0  0  0  0  0  0  0  0  0  0  0
  -24.5412  -29.3465   21.7032 O   0  0  0  0  0  0  0  0  0  0  0  0
  -31.7589  -15.1746   20.4970 O   0  0  0  0  0  0  0  0  0  0  0  0
  -21.7679   -6.8561   21.5220 O   0  0  0  0  0  0  0  0  0  0  0  0
  -26.7674  -23.7358   18.5543 O   0  0  0  0  0  0  0  0  0  1  0  0
  -24.2753   -2.8336   24.3393 F   0  0  0  0  0  0  0  0  0  0  0  0
  -20.6903   -5.8898   23.8773 F   0  0  0  0  0  0  0  0  0  0  0  0
  1  2  1  0  0  0  0
  1  5  2  0  0  0  0
  2  6  2  0  0  0  0
  3  9  2  0  0  0  0
  3 17  1  0  0  0  0
  4 10  1  0  0  0  0
  4 17  2  0  0  0  0
  5 19  1  0  0  0  0
  6 21  1  0  0  0  0
  7 11  2  0  0  0  0
  7 20  1  0  0  0  0
  8 14  2  0  0  0  0
  8 23  1  0  0  0  0
  9 24  1  0  0  0  0
 10 24  2  0  0  0  0
 11 25  1  0  0  0  0
 12 13  2  0  0  0  0
 12 26  1  0  0  0  0
 13 27  1  0  0  0  0
 14 31  1  0  0  0  0
 15 22  1  0  0  0  0
 15 25  2  0  0  0  0
 16 27  2  0  0  0  0
 16 28  1  0  0  0  0
 17 29  1  0  0  0  0
 18 29  1  0  0  0  0
 18 32  2  0  0  0  0
 18 33  1  0  0  0  0
 19 21  2  0  0  0  0
 19 39  1  0  0  0  0
 20 22  2  0  0  0  0
 20 40  1  0  0  0  0
 21 48  1  0  0  0  0
 22 41  1  0  0  0  0
 23 30  2  0  0  0  0
 23 57  1  0  0  0  0
 24 82  1  0  0  0  0
 25 83  1  0  0  0  0
 26 28  2  0  0  0  0
 26 82  1  0  0  0  0
 27 84  1  0  0  0  0
 28 85  1  0  0  0  0
 29 64  2  0  0  0  0
 30 58  1  0  0  0  0
 30 65  1  0  0  0  0
 31 65  2  0  0  0  0
 31 71  1  0  0  0  0
 32 66  1  0  0  0  0
 32 69  1  0  0  0  0
 33 70  1  0  0  0  0
 33 76  2  0  0  0  0
 34 49  1  0  0  0  0
 34 72  1  0  0  0  0
 34 77  2  0  0  0  0
 35 51  1  0  0  0  0
 35 58  1  0  0  0  0
 35 78  2  0  0  0  0
 36 61  1  0  0  0  0
 36 67  1  0  0  0  0
 36 79  2  0  0  0  0
 37 62  1  0  0  0  0
 37 73  1  0  0  0  0
 37 80  2  0  0  0  0
 38 68  1  0  0  0  0
 38 74  1  0  0  0  0
 38 81  2  0  0  0  0
 39 42  1  0  0  0  0
 40 49  1  0  0  0  0
 41 67  1  0  0  0  0
 42 44  1  0  0  0  0
 43 45  1  0  0  0  0
 43 46  1  0  0  0  0
 44 48  1  0  0  0  0
 45 50  1  0  0  0  0
 46 68  1  0  0  0  0
 47 50  1  0  0  0  0
 47 68  1  0  0  0  0
 48 72  1  0  0  0  0
 49 67  1  0  0  0  0
 50 66  1  0  0  0  0
 52 62  1  0  0  0  0
 53 63  1  0  0  0  0
 54 63  1  0  0  0  0
 55 63  1  0  0  0  0
 56 75  1  0  0  0  0
 57 83  1  0  0  0  0
 59 60  1  0  0  0  0
 59 71  1  0  0  0  0
 60 74  1  0  0  0  0
 61 63  1  0  0  0  0
 61 73  1  0  0  0  0
 62 75  1  0  0  0  0
 64 66  1  0  0  0  0
M  CHG  1  75   1
M  ISO  4  38 100  57 101  74 100  83 101
M  END
> <Batch ID>
0128

> <Smiles>
CNC(C)C(=O)NC(C(=O)N1Cc2cc([101O:1][101CH2:1]c3ccc(NCC[100NH:0][100C:0](=O)N4CCCC(n5nc(-c6ccc(Oc7ccc(F)cc7F)cc6)c(C(N)=O)c5N)C4)nc3CC(C)=O)ccc2CC1C(=O)NC1CCCc2ccccc21)C(C)(C)C

> <Shape>
0.269

> <Color>
0.220

> <Negative vol penalty>
0.000

$$$$

  -OEChem-04052320423D

 85 94  0     1  0  0  0  0  0999 V2000
  -29.4130  -33.7767   26.8236 C   0  0  0  0  0  0  0  0  0  0  0  0
  -29.1035  -32.5883   26.1699 C   0  0  0  0  0  0  0  0  0  0  0  0
  -24.5590   -8.7762   21.4348 C   0  0  0  0  0  0  0  0  0  0  0  0
  -23.3201  -10.7646   22.0250 C   0  0  0  0  0  0  0  0  0  0  0  0
  -28.4176  -34.7267   27.0489 C   0  0  0  0  0  0  0  0  0  0  0  0
  -27.7981  -32.3487   25.7421 C   0  0  0  0  0  0  0  0  0  0  0  0
  -27.6070  -30.4784   21.0400 C   0  0  0  0  0  0  0  0  0  0  0  0
  -28.3513  -24.1366   21.4000 C   0  0  0  0  0  0  0  0  0  0  0  0
  -23.9289   -8.0779   22.4648 C   0  0  0  0  0  0  0  0  0  0  0  0
  -22.6899  -10.0663   23.0550 C   0  0  0  0  0  0  0  0  0  0  0  0
  -27.9000  -29.1246   20.8808 C   0  0  0  0  0  0  0  0  0  0  0  0
  -20.9371   -6.5979   23.0044 C   0  0  0  0  0  0  0  0  0  0  0  0
  -20.4526   -5.3211   22.7203 C   0  0  0  0  0  0  0  0  0  0  0  0
  -28.4572  -22.7679   21.1787 C   0  0  0  0  0  0  0  0  0  0  0  0
  -25.5407  -28.6326   20.7756 C   0  0  0  0  0  0  0  0  0  0  0  0
  -21.8936   -4.3952   24.4242 C   0  0  0  0  0  0  0  0  0  0  0  0
  -29.0121  -24.4998   19.1444 C   0  0  0  0  0  0  0  0  0  0  0  0
  -24.2546  -10.1196   21.2149 C   0  0  0  0  0  0  0  0  0  0  0  0
  -24.4707  -10.9667   18.8184 C   0  0  0  0  0  0  0  0  0  0  0  0
  -27.1014  -34.5028   26.6151 C   0  0  0  0  0  0  0  0  0  0  0  0
  -26.2763  -30.9188   21.0791 C   0  0  0  0  0  0  0  0  0  0  0  0
  -26.7839  -33.2960   25.9631 C   0  0  0  0  0  0  0  0  0  0  0  0
  -25.2336  -29.9928   20.9328 C   0  0  0  0  0  0  0  0  0  0  0  0
  -28.6322  -25.0257   20.3686 C   0  0  0  0  0  0  0  0  0  0  0  0
  -22.9944   -8.7229   23.2749 C   0  0  0  0  0  0  0  0  0  0  0  0
  -26.8667  -28.2012   20.7515 C   0  0  0  0  0  0  0  0  0  0  0  0
  -21.8998   -6.7733   23.9984 C   0  0  0  0  0  0  0  0  0  0  0  0
  -20.9309   -4.2198   23.4302 C   0  0  0  0  0  0  0  0  0  0  0  0
  -22.3781   -5.6720   24.7083 C   0  0  0  0  0  0  0  0  0  0  0  0
  -24.9055  -10.8417   20.1514 C   0  0  0  0  0  0  0  0  0  0  0  0
  -28.8447  -22.3430   19.9181 C   0  0  0  0  0  0  0  0  0  0  0  0
  -25.4295  -11.7440   18.2159 C   0  0  0  0  0  0  0  0  0  0  0  0
  -23.3043  -10.4284   18.1816 C   0  0  0  0  0  0  0  0  0  0  0  0
  -24.4608  -32.3833   23.2386 C   0  0  0  0  0  0  0  0  0  0  0  0
  -22.3119  -32.4580   20.8098 C   0  0  0  0  0  0  0  0  0  0  0  0
  -21.2094  -31.1109   17.8744 C   0  0  0  0  0  0  0  0  0  0  0  0
  -29.3129  -15.7878   20.3178 C   0  0  0  0  0  0  0  0  0  0  0  0
  -26.0494  -35.5386   26.9234 C   0  0  0  0  0  0  0  0  0  0  0  0
  -25.9774  -32.3858   21.2246 C   0  0  0  0  0  0  0  0  0  0  0  0
  -23.7884  -30.4169   20.9478 C   0  0  0  0  0  0  0  0  0  0  0  0
  -24.7711  -35.3704   26.1061 C   0  0  0  0  0  0  0  0  0  0  0  0
  -30.0806  -12.8327   18.4862 C   0  0  0  0  0  0  0  0  0  0  0  0
  -26.1345  -19.4707   18.1269 C   0  0  0  0  0  0  0  0  0  0  0  0
  -24.3250  -33.9117   26.1070 C   0  0  0  0  0  0  0  0  0  0  0  0
  -28.8021  -11.9986   18.5850 C   0  0  0  0  0  0  0  0  0  0  0  0
  -26.4541  -18.2683   18.9913 C   0  0  0  0  0  0  0  0  0  0  0  0
  -30.3515  -13.6052   19.7753 C   0  0  0  0  0  0  0  0  0  0  0  0
  -27.9528  -13.6093   20.3409 C   0  0  0  0  0  0  0  0  0  0  0  0
  -26.5395  -20.6481   18.9930 C   0  0  0  0  0  0  0  0  0  0  0  0
  -25.3848  -33.0103   25.4620 C   0  0  1  0  0  0  0  0  0  0  0  0
  -24.5777  -32.6595   21.7663 C   0  0  1  0  0  0  0  0  0  0  0  0
  -27.6075  -12.8558   19.0449 C   0  0  2  0  0  0  0  0  0  0  0  0
  -27.8081  -18.6338   19.5820 C   0  0  2  0  0  0  0  0  0  0  0  0
  -19.4080  -31.3621   16.1455 C   0  0  0  0  0  0  0  0  0  0  0  0
  -20.3146  -31.1400   22.7028 C   0  0  0  0  0  0  0  0  0  0  0  0
  -18.9137  -30.5613   20.7101 C   0  0  0  0  0  0  0  0  0  0  0  0
  -19.3552  -32.9517   21.2705 C   0  0  0  0  0  0  0  0  0  0  0  0
  -23.1780  -31.6722   15.7370 C   0  0  0  0  0  0  0  0  0  0  0  0
  -28.5276  -26.5081   20.5756 C   0  0  0  0  0  0  0  0  0  1  0  0
  -28.9683  -20.8812   19.6451 C   0  0  0  0  0  0  0  0  0  0  0  0
  -28.1284  -17.8976   20.8698 C   0  0  0  0  0  0  0  0  0  0  0  0
  -21.2215  -31.5368   20.3183 C   0  0  1  0  0  0  0  0  0  0  0  0
  -20.8194  -31.7528   16.5551 C   0  0  2  0  0  0  0  0  0  0  0  0
  -19.9783  -31.5389   21.2521 C   0  0  0  0  0  0  0  0  0  0  0  0
  -29.1260  -23.1766   18.8916 N   0  0  0  0  0  0  0  0  0  0  0  0
  -26.0515  -11.4877   20.3827 N   0  0  0  0  0  0  0  0  0  0  0  0
  -26.3449  -12.0261   19.1868 N   0  0  0  0  0  0  0  0  0  0  0  0
  -23.5473  -31.8613   21.0989 N   0  0  0  0  0  0  0  0  0  0  0  0
  -29.1804  -14.3988   20.1556 N   0  0  0  0  0  0  0  0  0  0  0  0
  -25.5705  -12.2068   16.9556 N   0  0  0  0  0  0  0  0  0  0  0  0
  -22.4237   -9.6517   18.9469 N   0  0  0  0  0  0  0  0  0  0  0  0
  -25.3311  -33.1191   24.0199 N   0  0  0  0  0  0  0  0  0  0  0  0
  -20.9376  -31.9370   18.9444 N   0  0  0  0  0  0  0  0  0  0  0  0
  -28.1529  -16.4654   20.6728 N   0  0  0  0  0  0  0  0  0  0  0  0
  -27.6876  -20.1295   19.8436 N   0  3  1  0  0  0  0  0  0  0  0  0
  -21.7562  -31.3294   15.4762 N   0  3  0  0  0  0  0  0  0  0  0  0
  -23.0590  -10.6166   16.9659 O   0  0  0  0  0  0  0  0  0  0  0  0
  -23.6406  -31.5643   23.6363 O   0  0  0  0  0  0  0  0  0  0  0  0
  -22.0783  -33.6636   20.9259 O   0  0  0  0  0  0  0  0  0  0  0  0
  -21.7022  -29.9874   17.9485 O   0  0  0  0  0  0  0  0  0  0  0  0
  -30.3844  -16.3808   20.1529 O   0  0  0  0  0  0  0  0  0  0  0  0
  -22.3792   -8.0417   24.2799 O   0  0  0  0  0  0  0  0  0  0  0  0
  -27.1499  -26.8791   20.5967 O   0  0  0  0  0  0  0  0  0  1  0  0
  -20.4644   -2.9939   23.1582 F   0  0  0  0  0  0  0  0  0  0  0  0
  -23.3021   -5.8344   25.6652 F   0  0  0  0  0  0  0  0  0  0  0  0
  1  2  1  0  0  0  0
  1  5  2  0  0  0  0
  2  6  2  0  0  0  0
  3  9  2  0  0  0  0
  3 18  1  0  0  0  0
  4 10  1  0  0  0  0
  4 18  2  0  0  0  0
  5 20  1  0  0  0  0
  6 22  1  0  0  0  0
  7 11  2  0  0  0  0
  7 21  1  0  0  0  0
  8 14  2  0  0  0  0
  8 24  1  0  0  0  0
  9 25  1  0  0  0  0
 10 25  2  0  0  0  0
 11 26  1  0  0  0  0
 12 13  2  0  0  0  0
 12 27  1  0  0  0  0
 13 28  1  0  0  0  0
 14 31  1  0  0  0  0
 15 23  1  0  0  0  0
 15 26  2  0  0  0  0
 16 28  2  0  0  0  0
 16 29  1  0  0  0  0
 17 24  2  0  0  0  0
 17 65  1  0  0  0  0
 18 30  1  0  0  0  0
 19 30  1  0  0  0  0
 19 32  2  0  0  0  0
 19 33  1  0  0  0  0
 20 22  2  0  0  0  0
 20 38  1  0  0  0  0
 21 23  2  0  0  0  0
 21 39  1  0  0  0  0
 22 50  1  0  0  0  0
 23 40  1  0  0  0  0
 24 59  1  0  0  0  0
 25 82  1  0  0  0  0
 26 83  1  0  0  0  0
 27 29  2  0  0  0  0
 27 82  1  0  0  0  0
 28 84  1  0  0  0  0
 29 85  1  0  0  0  0
 30 66  2  0  0  0  0
 31 60  1  0  0  0  0
 31 65  2  0  0  0  0
 32 67  1  0  0  0  0
 32 70  1  0  0  0  0
 33 71  1  0  0  0  0
 33 77  2  0  0  0  0
 34 51  1  0  0  0  0
 34 72  1  0  0  0  0
 34 78  2  0  0  0  0
 35 62  1  0  0  0  0
 35 68  1  0  0  0  0
 35 79  2  0  0  0  0
 36 63  1  0  0  0  0
 36 73  1  0  0  0  0
 36 80  2  0  0  0  0
 37 69  1  0  0  0  0
 37 74  1  0  0  0  0
 37 81  2  0  0  0  0
 38 41  1  0  0  0  0
 39 51  1  0  0  0  0
 40 68  1  0  0  0  0
 41 44  1  0  0  0  0
 42 45  1  0  0  0  0
 42 47  1  0  0  0  0
 43 46  1  0  0  0  0
 43 49  1  0  0  0  0
 44 50  1  0  0  0  0
 45 52  1  0  0  0  0
 46 53  1  0  0  0  0
 47 69  1  0  0  0  0
 48 52  1  0  0  0  0
 48 69  1  0  0  0  0
 49 75  1  0  0  0  0
 50 72  1  0  0  0  0
 51 68  1  0  0  0  0
 52 67  1  0  0  0  0
 53 61  1  0  0  0  0
 53 75  1  0  0  0  0
 54 63  1  0  0  0  0
 55 64  1  0  0  0  0
 56 64  1  0  0  0  0
 57 64  1  0  0  0  0
 58 76  1  0  0  0  0
 59 83  1  0  0  0  0
 60 75  1  0  0  0  0
 61 74  1  0  0  0  0
 62 64  1  0  0  0  0
 62 73  1  0  0  0  0
 63 76  1  0  0  0  0
 66 67  1  0  0  0  0
M  CHG  2  75   1  76   1
M  ISO  4  37 100  59 101  74 100  83 101
M  END
> <Batch ID>
0128

> <Smiles>
CNC(C)C(=O)NC(C(=O)N1Cc2cc([101O:1][101CH2:1]c3ccc(CN4CCCC4C[100NH:0][100C:0](=O)N4CCCC(n5nc(-c6ccc(Oc7ccc(F)cc7F)cc6)c(C(N)=O)c5N)C4)nc3)ccc2CC1C(=O)NC1CCCc2ccccc21)C(C)(C)C

> <Shape>
0.295

> <Color>
0.108

> <Negative vol penalty>
0.000

$$$$

  -OEChem-04052320423D

 86 95  0     1  0  0  0  0  0999 V2000
  -26.7743  -38.0622   24.4230 C   0  0  0  0  0  0  0  0  0  0  0  0
  -27.4519  -37.2630   23.5079 C   0  0  0  0  0  0  0  0  0  0  0  0
  -24.7710  -11.5380   20.3295 C   0  0  0  0  0  0  0  0  0  0  0  0
  -25.4004  -12.3502   22.5161 C   0  0  0  0  0  0  0  0  0  0  0  0
  -25.9916  -37.4737   25.4155 C   0  0  0  0  0  0  0  0  0  0  0  0
  -27.3482  -35.8746   23.5854 C   0  0  0  0  0  0  0  0  0  0  0  0
  -27.2744  -30.0409   19.4285 C   0  0  0  0  0  0  0  0  0  0  0  0
  -24.9394  -10.2249   20.7688 C   0  0  0  0  0  0  0  0  0  0  0  0
  -25.5688  -11.0370   22.9554 C   0  0  0  0  0  0  0  0  0  0  0  0
  -27.9019  -28.8027   19.2991 C   0  0  0  0  0  0  0  0  0  0  0  0
  -23.2092   -7.9694   22.5996 C   0  0  0  0  0  0  0  0  0  0  0  0
  -22.2224   -7.0422   22.2648 C   0  0  0  0  0  0  0  0  0  0  0  0
  -26.4575  -27.8990   21.0068 C   0  0  0  0  0  0  0  0  0  0  0  0
  -29.4253  -23.8271   21.4591 C   0  0  0  0  0  0  0  0  0  0  0  0
  -23.8646   -5.7205   21.0846 C   0  0  0  0  0  0  0  0  0  0  0  0
  -25.0015  -12.6007   21.2032 C   0  0  0  0  0  0  0  0  0  0  0  0
  -23.6511  -14.7275   20.8029 C   0  0  0  0  0  0  0  0  0  0  0  0
  -25.8704  -36.0776   25.4993 C   0  0  0  0  0  0  0  0  0  0  0  0
  -26.2394  -30.2208   20.3574 C   0  0  0  0  0  0  0  0  0  0  0  0
  -26.5642  -35.2668   24.5808 C   0  0  0  0  0  0  0  0  0  0  0  0
  -25.8168  -29.1399   21.1444 C   0  0  0  0  0  0  0  0  0  0  0  0
  -28.2594  -23.4721   19.4062 C   0  0  0  0  0  0  0  0  0  0  0  0
  -29.0104  -22.3129   19.1786 C   0  0  0  0  0  0  0  0  0  0  0  0
  -28.4514  -24.2357   20.5453 C   0  0  0  0  0  0  0  0  0  0  0  0
  -30.1788  -22.6647   21.2305 C   0  0  0  0  0  0  0  0  0  0  0  0
  -29.9692  -21.8936   20.0850 C   0  0  0  0  0  0  0  0  0  0  0  0
  -25.3383   -9.9744   22.0817 C   0  0  0  0  0  0  0  0  0  0  0  0
  -27.4954  -27.7322   20.0903 C   0  0  0  0  0  0  0  0  0  0  0  0
  -24.5238   -7.7722   22.1769 C   0  0  0  0  0  0  0  0  0  0  0  0
  -22.5501   -5.9178   21.5073 C   0  0  0  0  0  0  0  0  0  0  0  0
  -24.8515   -6.6477   21.4193 C   0  0  0  0  0  0  0  0  0  0  0  0
  -24.8283  -13.9573   20.7499 C   0  0  0  0  0  0  0  0  0  0  0  0
  -24.0059  -15.9352   20.2531 C   0  0  0  0  0  0  0  0  0  0  0  0
  -22.3530  -14.3823   21.3043 C   0  0  0  0  0  0  0  0  0  0  0  0
  -25.8213  -32.0486   22.9241 C   0  0  0  0  0  0  0  0  0  0  0  0
  -22.8221  -30.8164   22.8323 C   0  0  0  0  0  0  0  0  0  0  0  0
  -20.7588  -28.2855   21.8401 C   0  0  0  0  0  0  0  0  0  0  0  0
  -29.2043  -18.7073   19.8704 C   0  0  0  0  0  0  0  0  0  0  0  0
  -25.0507  -35.4860   26.6185 C   0  0  0  0  0  0  0  0  0  0  0  0
  -25.5548  -31.5556   20.4660 C   0  0  0  0  0  0  0  0  0  0  0  0
  -27.2608  -23.6834   18.3124 C   0  0  0  0  0  0  0  0  0  0  0  0
  -28.5826  -21.6409   17.9123 C   0  0  0  0  0  0  0  0  0  0  0  0
  -24.6968  -29.2754   22.1422 C   0  0  0  0  0  0  0  0  0  0  0  0
  -24.6932  -34.0178   26.4013 C   0  0  0  0  0  0  0  0  0  0  0  0
  -27.8346  -22.7828   17.2080 C   0  0  0  0  0  0  0  0  0  0  0  0
  -27.0403  -17.8650   17.0947 C   0  0  0  0  0  0  0  0  0  0  0  0
  -25.9203  -33.2302   25.9533 C   0  0  0  0  0  0  0  0  0  0  0  0
  -26.1114  -16.8323   17.7357 C   0  0  0  0  0  0  0  0  0  0  0  0
  -28.4673  -17.7239   17.6160 C   0  0  0  0  0  0  0  0  0  0  0  0
  -27.6644  -16.7696   19.7417 C   0  0  0  0  0  0  0  0  0  0  0  0
  -26.4567  -33.7577   24.6170 C   0  0  1  0  0  0  0  0  0  0  0  0
  -24.8578  -31.7623   21.8073 C   0  0  1  0  0  0  0  0  0  0  0  0
  -26.2019  -16.8749   19.2726 C   0  0  2  0  0  0  0  0  0  0  0  0
  -30.5834  -21.9548   23.6151 C   0  0  0  0  0  0  0  0  0  0  0  0
  -32.3171  -23.3183   22.3943 C   0  0  0  0  0  0  0  0  0  0  0  0
  -32.0504  -20.9007   19.0631 C   0  0  0  0  0  0  0  0  0  0  0  0
  -18.3648  -27.5402   21.9439 C   0  0  0  0  0  0  0  0  0  0  0  0
  -23.2099  -29.9836   25.7419 C   0  0  0  0  0  0  0  0  0  0  0  0
  -21.2425  -28.4553   25.4940 C   0  0  0  0  0  0  0  0  0  0  0  0
  -20.9501  -30.9170   25.2164 C   0  0  0  0  0  0  0  0  0  0  0  0
  -20.4950  -28.3332   18.8927 C   0  0  0  0  0  0  0  0  0  0  0  0
  -27.6395  -25.4697   20.8087 C   0  0  0  0  0  0  0  0  0  1  0  0
  -31.2048  -22.2655   22.2415 C   0  0  0  0  0  0  0  0  0  0  0  0
  -30.7510  -20.6474   19.8415 C   0  0  2  0  0  0  0  0  0  0  0  0
  -22.1473  -29.6007   23.4203 C   0  0  1  0  0  0  0  0  0  0  0  0
  -19.4106  -28.2997   21.1425 C   0  0  2  0  0  0  0  0  0  0  0  0
  -21.9099  -29.7368   24.9508 C   0  0  0  0  0  0  0  0  0  0  0  0
  -25.8541  -14.6200   20.2090 N   0  0  0  0  0  0  0  0  0  0  0  0
  -25.3226  -15.8193   19.9170 N   0  0  0  0  0  0  0  0  0  0  0  0
  -24.0630  -30.6022   22.2159 N   0  0  0  0  0  0  0  0  0  0  0  0
  -28.4859  -17.7914   19.0841 N   0  0  0  0  0  0  0  0  0  0  0  0
  -23.3168  -17.0742   20.0291 N   0  0  0  0  0  0  0  0  0  0  0  0
  -22.1613  -13.0994   21.8351 N   0  0  0  0  0  0  0  0  0  0  0  0
  -25.6401  -33.2815   23.5212 N   0  0  0  0  0  0  0  0  0  0  0  0
  -20.9302  -29.3933   22.6429 N   0  0  0  0  0  0  0  0  0  0  0  0
  -29.9628  -19.6377   19.1705 N   0  0  0  0  0  0  0  0  0  0  0  0
  -19.5178  -27.6718   19.7953 N   0  3  0  0  0  0  0  0  0  0  0  0
  -21.3872  -15.1819   21.2672 O   0  0  0  0  0  0  0  0  0  0  0  0
  -26.6656  -31.2123   23.2229 O   0  0  0  0  0  0  0  0  0  0  0  0
  -22.2652  -31.9143   22.9105 O   0  0  0  0  0  0  0  0  0  0  0  0
  -21.5765  -27.3801   21.6909 O   0  0  0  0  0  0  0  0  0  0  0  0
  -29.1684  -18.7001   21.1056 O   0  0  0  0  0  0  0  0  0  0  0  0
  -25.5025   -8.6932   22.5107 O   0  0  0  0  0  0  0  0  0  0  0  0
  -28.1066  -26.5227   19.9664 O   0  0  0  0  0  0  0  0  0  1  0  0
  -21.6026   -5.0267   21.1872 F   0  0  0  0  0  0  0  0  0  0  0  0
  -26.1129   -6.4522   21.0113 F   0  0  0  0  0  0  0  0  0  0  0  0
  1  2  1  0  0  0  0
  1  5  2  0  0  0  0
  2  6  2  0  0  0  0
  3  8  2  0  0  0  0
  3 16  1  0  0  0  0
  4  9  1  0  0  0  0
  4 16  2  0  0  0  0
  5 18  1  0  0  0  0
  6 20  1  0  0  0  0
  7 10  2  0  0  0  0
  7 19  1  0  0  0  0
  8 27  1  0  0  0  0
  9 27  2  0  0  0  0
 10 28  1  0  0  0  0
 11 12  2  0  0  0  0
 11 29  1  0  0  0  0
 12 30  1  0  0  0  0
 13 21  1  0  0  0  0
 13 28  2  0  0  0  0
 14 24  1  0  0  0  0
 14 25  2  0  0  0  0
 15 30  2  0  0  0  0
 15 31  1  0  0  0  0
 16 32  1  0  0  0  0
 17 32  1  0  0  0  0
 17 33  2  0  0  0  0
 17 34  1  0  0  0  0
 18 20  2  0  0  0  0
 18 39  1  0  0  0  0
 19 21  2  0  0  0  0
 19 40  1  0  0  0  0
 20 51  1  0  0  0  0
 21 43  1  0  0  0  0
 22 23  1  0  0  0  0
 22 24  2  0  0  0  0
 22 41  1  0  0  0  0
 23 26  2  0  0  0  0
 23 42  1  0  0  0  0
 24 62  1  0  0  0  0
 25 26  1  0  0  0  0
 25 63  1  0  0  0  0
 26 64  1  0  0  0  0
 27 83  1  0  0  0  0
 28 84  1  0  0  0  0
 29 31  2  0  0  0  0
 29 83  1  0  0  0  0
 30 85  1  0  0  0  0
 31 86  1  0  0  0  0
 32 68  2  0  0  0  0
 33 69  1  0  0  0  0
 33 72  1  0  0  0  0
 34 73  1  0  0  0  0
 34 78  2  0  0  0  0
 35 52  1  0  0  0  0
 35 74  1  0  0  0  0
 35 79  2  0  0  0  0
 36 65  1  0  0  0  0
 36 70  1  0  0  0  0
 36 80  2  0  0  0  0
 37 66  1  0  0  0  0
 37 75  1  0  0  0  0
 37 81  2  0  0  0  0
 38 71  1  0  0  0  0
 38 76  1  0  0  0  0
 38 82  2  0  0  0  0
 39 44  1  0  0  0  0
 40 52  1  0  0  0  0
 41 45  1  0  0  0  0
 42 45  1  0  0  0  0
 43 70  1  0  0  0  0
 44 47  1  0  0  0  0
 46 48  1  0  0  0  0
 46 49  1  0  0  0  0
 47 51  1  0  0  0  0
 48 53  1  0  0  0  0
 49 71  1  0  0  0  0
 50 53  1  0  0  0  0
 50 71  1  0  0  0  0
 51 74  1  0  0  0  0
 52 70  1  0  0  0  0
 53 69  1  0  0  0  0
 54 63  1  0  0  0  0
 55 63  1  0  0  0  0
 56 64  1  0  0  0  0
 57 66  1  0  0  0  0
 58 67  1  0  0  0  0
 59 67  1  0  0  0  0
 60 67  1  0  0  0  0
 61 77  1  0  0  0  0
 62 84  1  0  0  0  0
 64 76  1  0  0  0  0
 65 67  1  0  0  0  0
 65 75  1  0  0  0  0
 66 77  1  0  0  0  0
 68 69  1  0  0  0  0
M  CHG  1  77   1
M  ISO  4  38 100  62 101  76 100  84 101
M  END
> <Batch ID>
0128

> <Smiles>
CNC(C)C(=O)NC(C(=O)N1Cc2cc([101O:1][101CH2:1]c3cc(C(C)C)c(C(C)[100NH:0][100C:0](=O)N4CCCC(n5nc(-c6ccc(Oc7ccc(F)cc7F)cc6)c(C(N)=O)c5N)C4)c4c3CCC4)ccc2CC1C(=O)NC1CCCc2ccccc21)C(C)(C)C

> <Shape>
0.317

> <Color>
0.094

> <Negative vol penalty>
0.000

$$$$

  -OEChem-04052320423D

 89 99  0     1  0  0  0  0  0999 V2000
  -27.2749  -36.8624   23.5540 C   0  0  0  0  0  0  0  0  0  0  0  0
  -27.7550  -35.5971   23.2318 C   0  0  0  0  0  0  0  0  0  0  0  0
  -22.5884  -10.4723   20.2452 C   0  0  0  0  0  0  0  0  0  0  0  0
  -24.2577   -9.4924   21.6909 C   0  0  0  0  0  0  0  0  0  0  0  0
  -25.9671  -37.0145   24.0129 C   0  0  0  0  0  0  0  0  0  0  0  0
  -26.9279  -34.4829   23.3693 C   0  0  0  0  0  0  0  0  0  0  0  0
  -26.8499  -29.4950   19.8168 C   0  0  0  0  0  0  0  0  0  0  0  0
  -29.1142  -23.5133   19.3380 C   0  0  0  0  0  0  0  0  0  0  0  0
  -29.5000  -22.1868   19.5304 C   0  0  0  0  0  0  0  0  0  0  0  0
  -21.7829   -9.3458   20.4116 C   0  0  0  0  0  0  0  0  0  0  0  0
  -23.4523   -8.3659   21.8574 C   0  0  0  0  0  0  0  0  0  0  0  0
  -27.4191  -28.2306   19.9625 C   0  0  0  0  0  0  0  0  0  0  0  0
  -20.7319   -7.4958   23.6640 C   0  0  0  0  0  0  0  0  0  0  0  0
  -20.5816   -6.9938   24.9566 C   0  0  0  0  0  0  0  0  0  0  0  0
  -29.2536  -23.8992   21.7189 C   0  0  0  0  0  0  0  0  0  0  0  0
  -25.3374  -27.4033   20.8576 C   0  0  0  0  0  0  0  0  0  0  0  0
  -21.5270   -4.8864   24.2481 C   0  0  0  0  0  0  0  0  0  0  0  0
  -23.8258  -10.5456   20.8848 C   0  0  0  0  0  0  0  0  0  0  0  0
  -24.3399  -13.0391   21.0451 C   0  0  0  0  0  0  0  0  0  0  0  0
  -25.1205  -35.9028   24.1469 C   0  0  0  0  0  0  0  0  0  0  0  0
  -25.5212  -29.7260   20.2012 C   0  0  0  0  0  0  0  0  0  0  0  0
  -25.6080  -34.6201   23.8317 C   0  0  0  0  0  0  0  0  0  0  0  0
  -29.6394  -22.5726   21.9113 C   0  0  0  0  0  0  0  0  0  0  0  0
  -24.7529  -28.6708   20.7134 C   0  0  0  0  0  0  0  0  0  0  0  0
  -28.9910  -24.3696   20.4322 C   0  0  0  0  0  0  0  0  0  0  0  0
  -29.7626  -21.7164   20.8170 C   0  0  0  0  0  0  0  0  0  0  0  0
  -22.2148   -8.2926   21.2178 C   0  0  0  0  0  0  0  0  0  0  0  0
  -26.6637  -27.1852   20.4856 C   0  0  0  0  0  0  0  0  0  0  0  0
  -21.2797   -6.6931   22.6633 C   0  0  0  0  0  0  0  0  0  0  0  0
  -20.9791   -5.6891   25.2487 C   0  0  0  0  0  0  0  0  0  0  0  0
  -21.6772   -5.3884   22.9554 C   0  0  0  0  0  0  0  0  0  0  0  0
  -24.6586  -11.7088   20.7128 C   0  0  0  0  0  0  0  0  0  0  0  0
  -25.4546  -13.7584   20.6893 C   0  0  0  0  0  0  0  0  0  0  0  0
  -23.1433  -13.5766   21.6239 C   0  0  0  0  0  0  0  0  0  0  0  0
  -24.0986  -31.5930   22.3446 C   0  0  0  0  0  0  0  0  0  0  0  0
  -21.3935  -30.4853   20.9382 C   0  0  0  0  0  0  0  0  0  0  0  0
  -19.8695  -28.0331   19.1186 C   0  0  0  0  0  0  0  0  0  0  0  0
  -30.9970  -14.3987   20.5604 C   0  0  0  0  0  0  0  0  0  0  0  0
  -23.7296  -36.1110   24.6918 C   0  0  0  0  0  0  0  0  0  0  0  0
  -24.9138  -31.0890   20.0128 C   0  0  0  0  0  0  0  0  0  0  0  0
  -23.3159  -28.8618   21.1222 C   0  0  0  0  0  0  0  0  0  0  0  0
  -22.7981  -34.9254   24.4530 C   0  0  0  0  0  0  0  0  0  0  0  0
  -29.2529  -21.7103   25.3839 C   0  0  0  0  0  0  0  0  0  0  0  0
  -29.5220  -12.4116   18.0006 C   0  0  0  0  0  0  0  0  0  0  0  0
  -29.5777  -22.9874   24.5860 C   0  0  0  0  0  0  0  0  0  0  0  0
  -28.9551  -21.0349   24.0314 C   0  0  0  0  0  0  0  0  0  0  0  0
  -23.4940  -33.6179   24.8177 C   0  0  0  0  0  0  0  0  0  0  0  0
  -28.1017  -12.1564   18.5083 C   0  0  0  0  0  0  0  0  0  0  0  0
  -29.5424  -18.0191   21.3307 C   0  0  0  0  0  0  0  0  0  0  0  0
  -31.8869  -18.7979   21.7243 C   0  0  0  0  0  0  0  0  0  0  0  0
  -30.5363  -12.4207   19.1421 C   0  0  0  0  0  0  0  0  0  0  0  0
  -29.2456  -19.3081   20.5644 C   0  0  0  0  0  0  0  0  0  0  0  0
  -31.5850  -20.0813   20.9524 C   0  0  0  0  0  0  0  0  0  0  0  0
  -28.7966  -13.0885   20.7549 C   0  0  0  0  0  0  0  0  0  0  0  0
  -29.9309  -22.0624   23.3821 C   0  0  0  0  0  0  0  0  0  0  0  0
  -24.7334  -33.3902   23.9439 C   0  0  1  0  0  0  0  0  0  0  0  0
  -23.7096  -31.3366   20.9161 C   0  0  1  0  0  0  0  0  0  0  0  0
  -31.0214  -17.6323   21.2344 C   0  0  0  0  0  0  0  0  0  0  0  0
  -27.7305  -13.1259   19.6466 C   0  0  2  0  0  0  0  0  0  0  0  0
  -17.6427  -27.3886   18.1576 C   0  0  0  0  0  0  0  0  0  0  0  0
  -20.4351  -29.6638   23.7161 C   0  0  0  0  0  0  0  0  0  0  0  0
  -18.7130  -28.2161   22.6176 C   0  0  0  0  0  0  0  0  0  0  0  0
  -18.6733  -30.6852   22.2644 C   0  0  0  0  0  0  0  0  0  0  0  0
  -20.9235  -28.0648   16.3533 C   0  0  0  0  0  0  0  0  0  0  0  0
  -28.5766  -25.7965   20.2241 C   0  0  0  0  0  0  0  0  0  1  0  0
  -31.3066  -16.3671   22.0398 C   0  0  0  0  0  0  0  0  0  0  0  0
  -20.4800  -29.3040   21.1598 C   0  0  1  0  0  0  0  0  0  0  0  0
  -18.9640  -28.0968   17.9019 C   0  0  2  0  0  0  0  0  0  0  0  0
  -19.6030  -29.4638   22.4337 C   0  0  0  0  0  0  0  0  0  0  0  0
  -25.8800  -11.5874   20.1860 N   0  0  0  0  0  0  0  0  0  0  0  0
  -26.3386  -12.8506   20.1847 N   0  0  0  0  0  0  0  0  0  0  0  0
  -30.1475  -20.3820   20.9936 N   0  0  0  0  0  0  0  0  0  0  0  0
  -22.7691  -30.2143   20.9245 N   0  0  0  0  0  0  0  0  0  0  0  0
  -30.1264  -13.3614   20.1876 N   0  0  0  0  0  0  0  0  0  0  0  0
  -25.7549  -15.0725   20.7618 N   0  0  0  0  0  0  0  0  0  0  0  0
  -23.0547  -13.6579   23.0203 N   0  0  0  0  0  0  0  0  0  0  0  0
  -24.3466  -32.9220   22.6303 N   0  0  0  0  0  0  0  0  0  0  0  0
  -19.7181  -29.1402   19.9265 N   0  0  0  0  0  0  0  0  0  0  0  0
  -30.5284  -15.2494   21.5541 N   0  0  0  0  0  0  0  0  0  0  0  0
  -19.6236  -27.4527   16.7310 N   0  3  0  0  0  0  0  0  0  0  0  0
  -22.1746  -13.9578   20.9240 O   0  0  0  0  0  0  0  0  0  0  0  0
  -24.1671  -30.6547   23.1298 O   0  0  0  0  0  0  0  0  0  0  0  0
  -20.9043  -31.6060   20.7759 O   0  0  0  0  0  0  0  0  0  0  0  0
  -20.6319  -27.0933   19.3330 O   0  0  0  0  0  0  0  0  0  0  0  0
  -32.1073  -14.5584   20.0419 O   0  0  0  0  0  0  0  0  0  0  0  0
  -21.4290   -7.1932   21.3806 O   0  0  0  0  0  0  0  0  0  0  0  0
  -27.2171  -25.9503   20.6295 O   0  0  0  0  0  0  0  0  0  1  0  0
  -20.8362   -5.2077   26.4904 F   0  0  0  0  0  0  0  0  0  0  0  0
  -22.2052   -4.6128   21.9985 F   0  0  0  0  0  0  0  0  0  0  0  0
  1  2  1  0  0  0  0
  1  5  2  0  0  0  0
  2  6  2  0  0  0  0
  3 10  2  0  0  0  0
  3 18  1  0  0  0  0
  4 11  1  0  0  0  0
  4 18  2  0  0  0  0
  5 20  1  0  0  0  0
  6 22  1  0  0  0  0
  7 12  2  0  0  0  0
  7 21  1  0  0  0  0
  8  9  2  0  0  0  0
  8 25  1  0  0  0  0
  9 26  1  0  0  0  0
 10 27  1  0  0  0  0
 11 27  2  0  0  0  0
 12 28  1  0  0  0  0
 13 14  2  0  0  0  0
 13 29  1  0  0  0  0
 14 30  1  0  0  0  0
 15 23  1  0  0  0  0
 15 25  2  0  0  0  0
 16 24  1  0  0  0  0
 16 28  2  0  0  0  0
 17 30  2  0  0  0  0
 17 31  1  0  0  0  0
 18 32  1  0  0  0  0
 19 32  1  0  0  0  0
 19 33  2  0  0  0  0
 19 34  1  0  0  0  0
 20 22  2  0  0  0  0
 20 39  1  0  0  0  0
 21 24  2  0  0  0  0
 21 40  1  0  0  0  0
 22 56  1  0  0  0  0
 23 26  2  0  0  0  0
 23 55  1  0  0  0  0
 24 41  1  0  0  0  0
 25 65  1  0  0  0  0
 26 72  1  0  0  0  0
 27 86  1  0  0  0  0
 28 87  1  0  0  0  0
 29 31  2  0  0  0  0
 29 86  1  0  0  0  0
 30 88  1  0  0  0  0
 31 89  1  0  0  0  0
 32 70  2  0  0  0  0
 33 71  1  0  0  0  0
 33 75  1  0  0  0  0
 34 76  1  0  0  0  0
 34 81  2  0  0  0  0
 35 57  1  0  0  0  0
 35 77  1  0  0  0  0
 35 82  2  0  0  0  0
 36 67  1  0  0  0  0
 36 73  1  0  0  0  0
 36 83  2  0  0  0  0
 37 68  1  0  0  0  0
 37 78  1  0  0  0  0
 37 84  2  0  0  0  0
 38 74  1  0  0  0  0
 38 79  1  0  0  0  0
 38 85  2  0  0  0  0
 39 42  1  0  0  0  0
 40 57  1  0  0  0  0
 41 73  1  0  0  0  0
 42 47  1  0  0  0  0
 43 45  1  0  0  0  0
 43 46  1  0  0  0  0
 44 48  1  0  0  0  0
 44 51  1  0  0  0  0
 45 55  1  0  0  0  0
 46 55  1  0  0  0  0
 47 56  1  0  0  0  0
 48 59  1  0  0  0  0
 49 52  1  0  0  0  0
 49 58  1  0  0  0  0
 50 53  1  0  0  0  0
 50 58  1  0  0  0  0
 51 74  1  0  0  0  0
 52 72  1  0  0  0  0
 53 72  1  0  0  0  0
 54 59  1  0  0  0  0
 54 74  1  0  0  0  0
 56 77  1  0  0  0  0
 57 73  1  0  0  0  0
 58 66  1  0  0  0  0
 59 71  1  0  0  0  0
 60 68  1  0  0  0  0
 61 69  1  0  0  0  0
 62 69  1  0  0  0  0
 63 69  1  0  0  0  0
 64 80  1  0  0  0  0
 65 87  1  0  0  0  0
 66 79  1  0  0  0  0
 67 69  1  0  0  0  0
 67 78  1  0  0  0  0
 68 80  1  0  0  0  0
 70 71  1  0  0  0  0
M  CHG  1  80   1
M  ISO  4  38 100  65 101  79 100  87 101
M  END
> <Batch ID>
0128

> <Smiles>
CNC(C)C(=O)NC(C(=O)N1Cc2cc([101O:1][101CH2:1]c3ccc(N4CCC(C[100NH:0][100C:0](=O)N5CCCC(n6nc(-c7ccc(Oc8ccc(F)cc8F)cc7)c(C(N)=O)c6N)C5)CC4)c(C4CCC4)c3)ccc2CC1C(=O)NC1CCCc2ccccc21)C(C)(C)C

> <Shape>
0.420

> <Color>
0.208

> <Negative vol penalty>
0.000

$$$$

  -OEChem-04052320423D

 85 95  0     1  0  0  0  0  0999 V2000
  -33.2346  -10.8547   19.6265 C   0  0  0  0  0  0  0  0  0  0  0  0
  -32.8523  -12.1909   19.6895 C   0  0  0  0  0  0  0  0  0  0  0  0
  -26.1403  -27.6980   21.2564 C   0  0  0  0  0  0  0  0  0  0  0  0
  -25.4688  -29.1692   19.4616 C   0  0  0  0  0  0  0  0  0  0  0  0
  -32.3124   -9.8846   19.2362 C   0  0  0  0  0  0  0  0  0  0  0  0
  -31.5477  -12.5578   19.3611 C   0  0  0  0  0  0  0  0  0  0  0  0
  -28.2364  -17.0431   21.8955 C   0  0  0  0  0  0  0  0  0  0  0  0
  -26.9766  -27.0085   20.3785 C   0  0  0  0  0  0  0  0  0  0  0  0
  -26.3052  -28.4798   18.5836 C   0  0  0  0  0  0  0  0  0  0  0  0
  -27.9706  -18.3525   21.4974 C   0  0  0  0  0  0  0  0  0  0  0  0
  -30.0284  -27.4411   18.9884 C   0  0  0  0  0  0  0  0  0  0  0  0
  -31.3159  -27.1326   19.4273 C   0  0  0  0  0  0  0  0  0  0  0  0
  -25.8936  -17.6244   20.5101 C   0  0  0  0  0  0  0  0  0  0  0  0
  -30.8526  -24.7798   19.1321 C   0  0  0  0  0  0  0  0  0  0  0  0
  -25.3863  -28.7783   20.7980 C   0  0  0  0  0  0  0  0  0  0  0  0
  -24.8537  -30.6070   22.4950 C   0  0  0  0  0  0  0  0  0  0  0  0
  -30.9932  -10.2386   18.9122 C   0  0  0  0  0  0  0  0  0  0  0  0
  -27.3365  -16.0109   21.5938 C   0  0  0  0  0  0  0  0  0  0  0  0
  -30.6074  -11.5917   18.9648 C   0  0  0  0  0  0  0  0  0  0  0  0
  -26.1491  -16.3031   20.9077 C   0  0  0  0  0  0  0  0  0  0  0  0
  -27.0591  -27.3994   19.0421 C   0  0  0  0  0  0  0  0  0  0  0  0
  -26.8005  -18.6429   20.8020 C   0  0  0  0  0  0  0  0  0  0  0  0
  -29.1529  -26.4190   18.6214 C   0  0  0  0  0  0  0  0  0  0  0  0
  -31.7280  -25.8019   19.4991 C   0  0  0  0  0  0  0  0  0  0  0  0
  -29.5651  -25.0884   18.6933 C   0  0  0  0  0  0  0  0  0  0  0  0
  -24.5218  -29.4905   21.7043 C   0  0  0  0  0  0  0  0  0  0  0  0
  -23.6960  -30.9051   23.1713 C   0  0  0  0  0  0  0  0  0  0  0  0
  -26.0972  -31.3116   22.6080 C   0  0  0  0  0  0  0  0  0  0  0  0
  -27.4822  -13.3371   19.8811 C   0  0  0  0  0  0  0  0  0  0  0  0
  -24.5216  -12.8480   21.1133 C   0  0  0  0  0  0  0  0  0  0  0  0
  -21.6890  -14.1871   22.4661 C   0  0  0  0  0  0  0  0  0  0  0  0
  -20.8540  -26.8173   21.3084 C   0  0  0  0  0  0  0  0  0  0  0  0
  -30.0449   -9.1607   18.4503 C   0  0  0  0  0  0  0  0  0  0  0  0
  -27.6250  -14.6081   22.0537 C   0  0  0  0  0  0  0  0  0  0  0  0
  -25.1407  -15.2343   20.5770 C   0  0  0  0  0  0  0  0  0  0  0  0
  -28.5790   -9.5854   18.4799 C   0  0  0  0  0  0  0  0  0  0  0  0
  -19.8508  -30.1521   21.1186 C   0  0  0  0  0  0  0  0  0  0  0  0
  -28.4107  -10.9670   17.8557 C   0  0  0  0  0  0  0  0  0  0  0  0
  -24.4627  -21.9457   22.8061 C   0  0  0  0  0  0  0  0  0  0  0  0
  -23.5965  -22.2834   20.4542 C   0  0  0  0  0  0  0  0  0  0  0  0
  -20.3747  -30.7791   22.4088 C   0  0  0  0  0  0  0  0  0  0  0  0
  -24.4610  -26.0037   24.9586 C   0  0  0  0  0  0  0  0  0  0  0  0
  -25.3854  -25.0278   24.2875 C   0  0  0  0  0  0  0  0  0  0  0  0
  -25.6672  -21.1919   22.2503 C   0  0  0  0  0  0  0  0  0  0  0  0
  -24.8031  -21.5282   19.9049 C   0  0  0  0  0  0  0  0  0  0  0  0
  -19.3126  -28.7499   21.3656 C   0  0  0  0  0  0  0  0  0  0  0  0
  -20.6763  -25.2859   23.3174 C   0  0  0  0  0  0  0  0  0  0  0  0
  -20.8269  -28.4102   23.2909 C   0  0  0  0  0  0  0  0  0  0  0  0
  -22.0946  -24.6942   21.3814 C   0  0  0  0  0  0  0  0  0  0  0  0
  -21.7097  -24.8322   24.3464 C   0  0  0  0  0  0  0  0  0  0  0  0
  -29.1945  -12.0260   18.6403 C   0  0  1  0  0  0  0  0  0  0  0  0
  -26.8840  -13.5493   21.2431 C   0  0  1  0  0  0  0  0  0  0  0  0
  -23.9155  -22.9616   21.7938 C   0  0  0  0  0  0  0  0  0  0  0  0
  -21.3256  -29.8691   23.2080 C   0  0  1  0  0  0  0  0  0  0  0  0
  -24.0668  -25.3703   23.6550 C   0  0  0  0  0  0  0  0  0  0  0  0
  -22.6824  -23.6627   22.3487 C   0  0  1  0  0  0  0  0  0  0  0  0
  -25.3472  -20.5219   20.9167 C   0  0  0  0  0  0  0  0  0  1  0  0
  -19.4267  -13.5406   23.3385 C   0  0  0  0  0  0  0  0  0  0  0  0
  -23.5313  -12.4631   18.2531 C   0  0  0  0  0  0  0  0  0  0  0  0
  -21.1937  -12.7715   19.0950 C   0  0  0  0  0  0  0  0  0  0  0  0
  -22.5705  -10.8596   19.9144 C   0  0  0  0  0  0  0  0  0  0  0  0
  -22.2963  -15.2496   25.1608 C   0  0  0  0  0  0  0  0  0  0  0  0
  -23.1162  -13.2027   20.6917 C   0  0  1  0  0  0  0  0  0  0  0  0
  -20.8814  -13.8059   23.6936 C   0  0  2  0  0  0  0  0  0  0  0  0
  -22.6226  -12.3443   19.4929 C   0  0  0  0  0  0  0  0  0  0  0  0
  -23.2527  -29.1054   21.8627 N   0  0  0  0  0  0  0  0  0  0  0  0
  -22.7770  -29.9847   22.7608 N   0  0  0  0  0  0  0  0  0  0  0  0
  -25.4711  -13.8773   21.0425 N   0  0  0  0  0  0  0  0  0  0  0  0
  -20.3116  -27.9017   22.0129 N   0  0  0  0  0  0  0  0  0  0  0  0
  -21.2815  -25.7093   22.0537 N   0  0  0  0  0  0  0  0  0  0  0  0
  -23.3847  -31.8620   24.0712 N   0  0  0  0  0  0  0  0  0  0  0  0
  -27.1858  -30.8728   21.8420 N   0  0  0  0  0  0  0  0  0  0  0  0
  -28.4853  -12.3873   19.8489 N   0  0  0  0  0  0  0  0  0  0  0  0
  -22.2898  -13.0886   21.8886 N   0  0  0  0  0  0  0  0  0  0  0  0
  -22.9754  -24.3162   23.6842 N   0  3  2  0  0  0  0  0  0  0  0  0
  -20.9265  -14.9006   24.7039 N   0  3  0  0  0  0  0  0  0  0  0  0
  -26.2434  -32.2910   23.3780 O   0  0  0  0  0  0  0  0  0  0  0  0
  -27.0635  -13.9860   18.9296 O   0  0  0  0  0  0  0  0  0  0  0  0
  -24.7665  -11.7020   21.4984 O   0  0  0  0  0  0  0  0  0  0  0  0
  -21.7750  -15.3433   22.0580 O   0  0  0  0  0  0  0  0  0  0  0  0
  -20.9698  -26.8406   20.0759 O   0  0  0  0  0  0  0  0  0  0  0  0
  -27.8752  -26.7271   18.1851 O   0  0  0  0  0  0  0  0  0  0  0  0
  -26.5372  -19.9284   20.4092 O   0  0  0  0  0  0  0  0  0  1  0  0
  -32.9650  -25.5058   19.9192 F   0  0  0  0  0  0  0  0  0  0  0  0
  -28.7289  -24.1022   18.3409 F   0  0  0  0  0  0  0  0  0  0  0  0
  1  2  1  0  0  0  0
  1  5  2  0  0  0  0
  2  6  2  0  0  0  0
  3  8  2  0  0  0  0
  3 15  1  0  0  0  0
  4  9  1  0  0  0  0
  4 15  2  0  0  0  0
  5 17  1  0  0  0  0
  6 19  1  0  0  0  0
  7 10  2  0  0  0  0
  7 18  1  0  0  0  0
  8 21  1  0  0  0  0
  9 21  2  0  0  0  0
 10 22  1  0  0  0  0
 11 12  2  0  0  0  0
 11 23  1  0  0  0  0
 12 24  1  0  0  0  0
 13 20  1  0  0  0  0
 13 22  2  0  0  0  0
 14 24  2  0  0  0  0
 14 25  1  0  0  0  0
 15 26  1  0  0  0  0
 16 26  1  0  0  0  0
 16 27  2  0  0  0  0
 16 28  1  0  0  0  0
 17 19  2  0  0  0  0
 17 33  1  0  0  0  0
 18 20  2  0  0  0  0
 18 34  1  0  0  0  0
 19 51  1  0  0  0  0
 20 35  1  0  0  0  0
 21 82  1  0  0  0  0
 22 83  1  0  0  0  0
 23 25  2  0  0  0  0
 23 82  1  0  0  0  0
 24 84  1  0  0  0  0
 25 85  1  0  0  0  0
 26 66  2  0  0  0  0
 27 67  1  0  0  0  0
 27 71  1  0  0  0  0
 28 72  1  0  0  0  0
 28 77  2  0  0  0  0
 29 52  1  0  0  0  0
 29 73  1  0  0  0  0
 29 78  2  0  0  0  0
 30 63  1  0  0  0  0
 30 68  1  0  0  0  0
 30 79  2  0  0  0  0
 31 64  1  0  0  0  0
 31 74  1  0  0  0  0
 31 80  2  0  0  0  0
 32 69  1  0  0  0  0
 32 70  1  0  0  0  0
 32 81  2  0  0  0  0
 33 36  1  0  0  0  0
 34 52  1  0  0  0  0
 35 68  1  0  0  0  0
 36 38  1  0  0  0  0
 37 41  1  0  0  0  0
 37 46  1  0  0  0  0
 38 51  1  0  0  0  0
 39 44  1  0  0  0  0
 39 53  1  0  0  0  0
 40 45  1  0  0  0  0
 40 53  1  0  0  0  0
 41 54  1  0  0  0  0
 42 43  1  0  0  0  0
 42 55  1  0  0  0  0
 43 55  1  0  0  0  0
 44 57  1  0  0  0  0
 45 57  1  0  0  0  0
 46 69  1  0  0  0  0
 47 50  1  0  0  0  0
 47 70  1  0  0  0  0
 48 54  1  0  0  0  0
 48 69  1  0  0  0  0
 49 56  1  0  0  0  0
 49 70  1  0  0  0  0
 50 75  1  0  0  0  0
 51 73  1  0  0  0  0
 52 68  1  0  0  0  0
 53 56  1  0  0  0  0
 54 67  1  0  0  0  0
 55 75  1  0  0  0  0
 56 75  1  0  0  0  0
 57 83  1  0  0  0  0
 58 64  1  0  0  0  0
 59 65  1  0  0  0  0
 60 65  1  0  0  0  0
 61 65  1  0  0  0  0
 62 76  1  0  0  0  0
 63 65  1  0  0  0  0
 63 74  1  0  0  0  0
 64 76  1  0  0  0  0
 66 67  1  0  0  0  0
M  CHG  2  75   1  76   1
M  ISO  4  32 100  57 101  70 100  83 101
M  END
> <Batch ID>
0128

> <Smiles>
CNC(C)C(=O)NC(C(=O)N1Cc2cc([101O:1][101CH:1]3CCC(C4C[100N:0]([100C:0](=O)N5CCCC(n6nc(-c7ccc(Oc8ccc(F)cc8F)cc7)c(C(N)=O)c6N)C5)CCN4C4CC4)CC3)ccc2CC1C(=O)NC1CCCc2ccccc21)C(C)(C)C

> <Shape>
0.266

> <Color>
0.057

> <Negative vol penalty>
0.000

$$$$

  -OEChem-04052320423D

 84 93  0     1  0  0  0  0  0999 V2000
  -16.9969  -26.4215   21.9744 C   0  0  0  0  0  0  0  0  0  0  0  0
  -18.2747  -26.0849   21.5394 C   0  0  0  0  0  0  0  0  0  0  0  0
  -24.8721  -13.7871   22.4768 C   0  0  0  0  0  0  0  0  0  0  0  0
  -25.9135  -14.3792   20.3787 C   0  0  0  0  0  0  0  0  0  0  0  0
  -16.8008  -27.5763   22.7306 C   0  0  0  0  0  0  0  0  0  0  0  0
  -19.3572  -26.9036   21.8596 C   0  0  0  0  0  0  0  0  0  0  0  0
  -23.3881  -24.2697   23.4277 C   0  0  0  0  0  0  0  0  0  0  0  0
  -24.9378  -12.4380   22.1287 C   0  0  0  0  0  0  0  0  0  0  0  0
  -25.9792  -13.0301   20.0306 C   0  0  0  0  0  0  0  0  0  0  0  0
  -24.1599  -23.6442   22.4495 C   0  0  0  0  0  0  0  0  0  0  0  0
  -23.2280  -10.2881   20.1590 C   0  0  0  0  0  0  0  0  0  0  0  0
  -22.0944   -9.5064   20.3809 C   0  0  0  0  0  0  0  0  0  0  0  0
  -25.7570  -25.4484   22.5642 C   0  0  0  0  0  0  0  0  0  0  0  0
  -23.3673   -8.0795   21.8576 C   0  0  0  0  0  0  0  0  0  0  0  0
  -28.0442  -22.4315   17.4173 C   0  0  0  0  0  0  0  0  0  0  0  0
  -25.3599  -14.7577   21.6018 C   0  0  0  0  0  0  0  0  0  0  0  0
  -26.2626  -16.8994   22.6533 C   0  0  0  0  0  0  0  0  0  0  0  0
  -17.8828  -28.4045   23.0683 C   0  0  0  0  0  0  0  0  0  0  0  0
  -23.7902  -25.4968   23.9746 C   0  0  0  0  0  0  0  0  0  0  0  0
  -19.1752  -28.0713   22.6198 C   0  0  0  0  0  0  0  0  0  0  0  0
  -24.9899  -26.0862   23.5511 C   0  0  0  0  0  0  0  0  0  0  0  0
  -29.2329  -22.9916   19.7711 C   0  0  0  0  0  0  0  0  0  0  0  0
  -27.3494  -23.1929   18.3701 C   0  0  0  0  0  0  0  0  0  0  0  0
  -27.9686  -23.4816   19.5895 C   0  0  0  0  0  0  0  0  0  0  0  0
  -25.4914  -12.0594   20.9056 C   0  0  0  0  0  0  0  0  0  0  0  0
  -25.3430  -24.2349   22.0155 C   0  0  0  0  0  0  0  0  0  0  0  0
  -24.4314   -9.9655   20.7864 C   0  0  0  0  0  0  0  0  0  0  0  0
  -22.1640   -8.4021   21.2302 C   0  0  0  0  0  0  0  0  0  0  0  0
  -24.5010   -8.8612   21.6357 C   0  0  0  0  0  0  0  0  0  0  0  0
  -25.2918  -16.1515   21.9606 C   0  0  0  0  0  0  0  0  0  0  0  0
  -29.8066  -22.2642   18.7742 C   0  0  0  0  0  0  0  0  0  0  0  0
  -25.7258  -18.1606   22.7418 C   0  0  0  0  0  0  0  0  0  0  0  0
  -27.5359  -16.4907   23.1705 C   0  0  0  0  0  0  0  0  0  0  0  0
  -22.5621  -28.4276   24.0533 C   0  0  0  0  0  0  0  0  0  0  0  0
  -25.0771  -29.0076   26.0181 C   0  0  0  0  0  0  0  0  0  0  0  0
  -28.2175  -28.1431   27.0367 C   0  0  0  0  0  0  0  0  0  0  0  0
  -21.6956  -21.1171   19.4452 C   0  0  0  0  0  0  0  0  0  0  0  0
  -17.6146  -29.6676   23.8476 C   0  0  0  0  0  0  0  0  0  0  0  0
  -22.9602  -26.1456   25.0482 C   0  0  0  0  0  0  0  0  0  0  0  0
  -30.4283  -22.8670   20.6659 C   0  0  0  0  0  0  0  0  0  0  0  0
  -25.4761  -27.3928   24.1211 C   0  0  0  0  0  0  0  0  0  0  0  0
  -31.0829  -22.0255   19.5040 C   0  0  0  0  0  0  0  0  0  0  0  0
  -18.8697  -30.2826   24.4614 C   0  0  0  0  0  0  0  0  0  0  0  0
  -21.5211  -20.4352   22.9354 C   0  0  0  0  0  0  0  0  0  0  0  0
  -19.9973  -30.3307   23.4353 C   0  0  0  0  0  0  0  0  0  0  0  0
  -22.5553  -19.3275   23.1439 C   0  0  0  0  0  0  0  0  0  0  0  0
  -20.7968  -20.2869   21.5992 C   0  0  0  0  0  0  0  0  0  0  0  0
  -22.7154  -19.0801   20.6315 C   0  0  0  0  0  0  0  0  0  0  0  0
  -20.3783  -28.9208   22.9678 C   0  0  1  0  0  0  0  0  0  0  0  0
  -23.2031  -27.6471   25.1658 C   0  0  1  0  0  0  0  0  0  0  0  0
  -23.5112  -19.2192   21.9406 C   0  0  2  0  0  0  0  0  0  0  0  0
  -30.0283  -28.8266   28.6340 C   0  0  0  0  0  0  0  0  0  0  0  0
  -25.8089  -31.3368   24.1881 C   0  0  0  0  0  0  0  0  0  0  0  0
  -28.0757  -31.3685   25.2506 C   0  0  0  0  0  0  0  0  0  0  0  0
  -26.0466  -31.8152   26.6312 C   0  0  0  0  0  0  0  0  0  0  0  0
  -28.1096  -25.5461   28.4519 C   0  0  0  0  0  0  0  0  0  0  0  0
  -25.9722  -23.6759   18.0649 C   0  0  0  0  0  0  0  0  0  0  0  0
  -27.2982  -24.2879   20.6626 C   0  0  0  0  0  0  0  0  0  1  0  0
  -22.7151  -21.8376   17.3004 C   0  0  0  0  0  0  0  0  0  0  0  0
  -23.6149  -23.0347   17.5447 C   0  0  0  0  0  0  0  0  0  0  0  0
  -26.5031  -29.4633   25.8234 C   0  0  1  0  0  0  0  0  0  0  0  0
  -28.8084  -27.9439   28.4208 C   0  0  2  0  0  0  0  0  0  0  0  0
  -26.5987  -30.9723   25.4610 C   0  0  0  0  0  0  0  0  0  0  0  0
  -29.2968  -21.9419   17.5890 N   0  0  0  0  0  0  0  0  0  0  0  0
  -24.2194  -16.8770   21.6324 N   0  0  0  0  0  0  0  0  0  0  0  0
  -24.5131  -18.0939   22.1212 N   0  0  0  0  0  0  0  0  0  0  0  0
  -24.6264  -27.9913   25.1639 N   0  0  0  0  0  0  0  0  0  0  0  0
  -21.7599  -20.1911   20.4995 N   0  0  0  0  0  0  0  0  0  0  0  0
  -26.1775  -19.3089   23.2893 N   0  0  0  0  0  0  0  0  0  0  0  0
  -27.9329  -15.1585   22.9925 N   0  0  0  0  0  0  0  0  0  0  0  0
  -21.1932  -28.2607   23.9650 N   0  0  0  0  0  0  0  0  0  0  0  0
  -27.2193  -29.0944   27.0396 N   0  0  0  0  0  0  0  0  0  0  0  0
  -22.6491  -20.9591   18.4469 N   0  0  0  0  0  0  0  0  0  0  0  0
  -29.2173  -26.5234   28.6099 N   0  3  0  0  0  0  0  0  0  0  0  0
  -25.0058  -22.5755   17.7950 N   0  3  0  0  0  0  0  0  0  0  0  0
  -28.2917  -17.2794   23.7871 O   0  0  0  0  0  0  0  0  0  0  0  0
  -23.2578  -29.1304   23.3295 O   0  0  0  0  0  0  0  0  0  0  0  0
  -24.3908  -29.5290   26.9006 O   0  0  0  0  0  0  0  0  0  0  0  0
  -28.6054  -27.5201   26.0509 O   0  0  0  0  0  0  0  0  0  0  0  0
  -20.8544  -22.0211   19.3999 O   0  0  0  0  0  0  0  0  0  0  0  0
  -25.5559  -10.7431   20.5657 O   0  0  0  0  0  0  0  0  0  0  0  0
  -26.0978  -23.6267   21.0604 O   0  0  0  0  0  0  0  0  0  1  0  0
  -21.0748   -7.6524   21.4443 F   0  0  0  0  0  0  0  0  0  0  0  0
  -25.6540   -8.5470   22.2421 F   0  0  0  0  0  0  0  0  0  0  0  0
  1  2  1  0  0  0  0
  1  5  2  0  0  0  0
  2  6  2  0  0  0  0
  3  8  2  0  0  0  0
  3 16  1  0  0  0  0
  4  9  1  0  0  0  0
  4 16  2  0  0  0  0
  5 18  1  0  0  0  0
  6 20  1  0  0  0  0
  7 10  2  0  0  0  0
  7 19  1  0  0  0  0
  8 25  1  0  0  0  0
  9 25  2  0  0  0  0
 10 26  1  0  0  0  0
 11 12  2  0  0  0  0
 11 27  1  0  0  0  0
 12 28  1  0  0  0  0
 13 21  1  0  0  0  0
 13 26  2  0  0  0  0
 14 28  2  0  0  0  0
 14 29  1  0  0  0  0
 15 23  2  0  0  0  0
 15 64  1  0  0  0  0
 16 30  1  0  0  0  0
 17 30  1  0  0  0  0
 17 32  2  0  0  0  0
 17 33  1  0  0  0  0
 18 20  2  0  0  0  0
 18 38  1  0  0  0  0
 19 21  2  0  0  0  0
 19 39  1  0  0  0  0
 20 49  1  0  0  0  0
 21 41  1  0  0  0  0
 22 24  2  0  0  0  0
 22 31  1  0  0  0  0
 22 40  1  0  0  0  0
 23 24  1  0  0  0  0
 23 57  1  0  0  0  0
 24 58  1  0  0  0  0
 25 81  1  0  0  0  0
 26 82  1  0  0  0  0
 27 29  2  0  0  0  0
 27 81  1  0  0  0  0
 28 83  1  0  0  0  0
 29 84  1  0  0  0  0
 30 65  2  0  0  0  0
 31 42  1  0  0  0  0
 31 64  2  0  0  0  0
 32 66  1  0  0  0  0
 32 69  1  0  0  0  0
 33 70  1  0  0  0  0
 33 76  2  0  0  0  0
 34 50  1  0  0  0  0
 34 71  1  0  0  0  0
 34 77  2  0  0  0  0
 35 61  1  0  0  0  0
 35 67  1  0  0  0  0
 35 78  2  0  0  0  0
 36 62  1  0  0  0  0
 36 72  1  0  0  0  0
 36 79  2  0  0  0  0
 37 68  1  0  0  0  0
 37 73  1  0  0  0  0
 37 80  2  0  0  0  0
 38 43  1  0  0  0  0
 39 50  1  0  0  0  0
 40 42  1  0  0  0  0
 41 67  1  0  0  0  0
 43 45  1  0  0  0  0
 44 46  1  0  0  0  0
 44 47  1  0  0  0  0
 45 49  1  0  0  0  0
 46 51  1  0  0  0  0
 47 68  1  0  0  0  0
 48 51  1  0  0  0  0
 48 68  1  0  0  0  0
 49 71  1  0  0  0  0
 50 67  1  0  0  0  0
 51 66  1  0  0  0  0
 52 62  1  0  0  0  0
 53 63  1  0  0  0  0
 54 63  1  0  0  0  0
 55 63  1  0  0  0  0
 56 74  1  0  0  0  0
 57 75  1  0  0  0  0
 58 82  1  0  0  0  0
 59 60  1  0  0  0  0
 59 73  1  0  0  0  0
 60 75  1  0  0  0  0
 61 63  1  0  0  0  0
 61 72  1  0  0  0  0
 62 74  1  0  0  0  0
 65 66  1  0  0  0  0
M  CHG  2  74   1  75   1
M  ISO  4  37 100  58 101  73 100  82 101
M  END
> <Batch ID>
0128

> <Smiles>
CNC(C)C(=O)NC(C(=O)N1Cc2cc([101O:1][101CH2:1]c3c(CNCC[100NH:0][100C:0](=O)N4CCCC(n5nc(-c6ccc(Oc7ccc(F)cc7F)cc6)c(C(N)=O)c5N)C4)cnc4c3CC4)ccc2CC1C(=O)NC1CCCc2ccccc21)C(C)(C)C

> <Shape>
0.198

> <Color>
0.076

> <Negative vol penalty>
0.000

$$$$

  -OEChem-04052320423D

 84 92  0     1  0  0  0  0  0999 V2000
  -26.3305  -18.6674   18.5730 C   0  0  0  0  0  0  0  0  0  0  0  0
  -25.5487  -19.8066   18.7354 C   0  0  0  0  0  0  0  0  0  0  0  0
  -24.8425  -15.1174   20.7673 C   0  0  0  0  0  0  0  0  0  0  0  0
  -23.5169  -14.2740   22.6026 C   0  0  0  0  0  0  0  0  0  0  0  0
  -27.5971  -18.6042   19.1525 C   0  0  0  0  0  0  0  0  0  0  0  0
  -26.0325  -20.8829   19.4783 C   0  0  0  0  0  0  0  0  0  0  0  0
  -24.9952  -26.8300   18.4480 C   0  0  0  0  0  0  0  0  0  0  0  0
  -20.6821  -26.8533   23.1125 C   0  0  0  0  0  0  0  0  0  0  0  0
  -22.5469  -27.8007   24.3217 C   0  0  0  0  0  0  0  0  0  0  0  0
  -25.2830  -13.8231   20.4906 C   0  0  0  0  0  0  0  0  0  0  0  0
  -23.9573  -12.9797   22.3259 C   0  0  0  0  0  0  0  0  0  0  0  0
  -24.0969  -27.7365   19.0093 C   0  0  0  0  0  0  0  0  0  0  0  0
  -20.7185  -25.7289   23.9371 C   0  0  0  0  0  0  0  0  0  0  0  0
  -22.5832  -26.6763   25.1464 C   0  0  0  0  0  0  0  0  0  0  0  0
  -23.2523  -10.5319   20.1051 C   0  0  0  0  0  0  0  0  0  0  0  0
  -22.3002   -9.5126   20.0985 C   0  0  0  0  0  0  0  0  0  0  0  0
  -25.8127  -28.4858   20.5304 C   0  0  0  0  0  0  0  0  0  0  0  0
  -23.4949   -8.3854   21.8703 C   0  0  0  0  0  0  0  0  0  0  0  0
  -23.9595  -15.3428   21.8233 C   0  0  0  0  0  0  0  0  0  0  0  0
  -22.3676  -17.3218   21.5841 C   0  0  0  0  0  0  0  0  0  0  0  0
  -28.1006  -19.6841   19.8948 C   0  0  0  0  0  0  0  0  0  0  0  0
  -26.3081  -26.7368   18.9318 C   0  0  0  0  0  0  0  0  0  0  0  0
  -27.3064  -20.8335   20.0694 C   0  0  0  0  0  0  0  0  0  0  0  0
  -26.7265  -27.5791   19.9718 C   0  0  0  0  0  0  0  0  0  0  0  0
  -21.5963  -27.8892   23.3047 C   0  0  0  0  0  0  0  0  0  0  0  0
  -24.8403  -12.7543   21.2698 C   0  0  0  0  0  0  0  0  0  0  0  0
  -21.6691  -25.6404   24.9541 C   0  0  0  0  0  0  0  0  0  0  0  0
  -24.5047  -28.5625   20.0526 C   0  0  0  0  0  0  0  0  0  0  0  0
  -24.3257  -10.4780   20.9942 C   0  0  0  0  0  0  0  0  0  0  0  0
  -22.4215   -8.4393   20.9812 C   0  0  0  0  0  0  0  0  0  0  0  0
  -24.4470   -9.4047   21.8768 C   0  0  0  0  0  0  0  0  0  0  0  0
  -23.5047  -16.6796   22.1100 C   0  0  0  0  0  0  0  0  0  0  0  0
  -22.3773  -18.5667   22.1642 C   0  0  0  0  0  0  0  0  0  0  0  0
  -21.3901  -16.8363   20.6543 C   0  0  0  0  0  0  0  0  0  0  0  0
  -28.0366  -24.4482   20.3023 C   0  0  0  0  0  0  0  0  0  0  0  0
  -30.4287  -26.6196   20.0111 C   0  0  0  0  0  0  0  0  0  0  0  0
  -31.3505  -29.8915   19.7082 C   0  0  0  0  0  0  0  0  0  0  0  0
  -23.0045  -21.8478   26.6348 C   0  0  0  0  0  0  0  0  0  0  0  0
  -29.4564  -19.5508   20.5419 C   0  0  0  0  0  0  0  0  0  0  0  0
  -27.2728  -25.7726   18.2976 C   0  0  0  0  0  0  0  0  0  0  0  0
  -28.1310  -27.5325   20.5137 C   0  0  0  0  0  0  0  0  0  0  0  0
  -30.0463  -20.8822   20.9998 C   0  0  0  0  0  0  0  0  0  0  0  0
  -25.9512  -20.9104   24.8699 C   0  0  0  0  0  0  0  0  0  0  0  0
  -29.0000  -21.6995   21.7509 C   0  0  0  0  0  0  0  0  0  0  0  0
  -25.4849  -19.7755   23.9563 C   0  0  0  0  0  0  0  0  0  0  0  0
  -25.2440  -20.8724   26.2229 C   0  0  0  0  0  0  0  0  0  0  0  0
  -23.3048  -19.7137   25.2377 C   0  0  0  0  0  0  0  0  0  0  0  0
  -27.8063  -22.0314   20.8474 C   0  0  1  0  0  0  0  0  0  0  0  0
  -28.4360  -25.4025   19.2126 C   0  0  1  0  0  0  0  0  0  0  0  0
  -23.9490  -19.7435   23.8411 C   0  0  2  0  0  0  0  0  0  0  0  0
  -33.3788  -31.3583   19.5301 C   0  0  0  0  0  0  0  0  0  0  0  0
  -21.8479  -31.3448   21.9564 C   0  0  0  0  0  0  0  0  0  0  0  0
  -30.9418  -26.2688   22.9983 C   0  0  0  0  0  0  0  0  0  0  0  0
  -32.2774  -28.3858   22.9466 C   0  0  0  0  0  0  0  0  0  0  0  0
  -33.0069  -26.4196   21.5958 C   0  0  0  0  0  0  0  0  0  0  0  0
  -30.5311  -30.8994   17.0489 C   0  0  0  0  0  0  0  0  0  0  0  0
  -20.6990  -22.7115   26.9475 C   0  0  0  0  0  0  0  0  0  0  0  0
  -20.4688  -23.8700   25.9937 C   0  0  0  0  0  0  0  0  0  0  0  0
  -23.8120  -29.7700   21.9808 C   0  0  0  0  0  0  0  0  0  1  0  0
  -30.9718  -27.7340   20.8726 C   0  0  1  0  0  0  0  0  0  0  0  0
  -32.3185  -30.5821   18.7646 C   0  0  2  0  0  0  0  0  0  0  0  0
  -22.4707  -30.1234   22.6198 C   0  0  2  0  0  0  0  0  0  0  0  0
  -31.7724  -27.2018   22.0946 C   0  0  0  0  0  0  0  0  0  0  0  0
  -24.1871  -17.4527   22.9588 N   0  0  0  0  0  0  0  0  0  0  0  0
  -23.4769  -18.5936   22.9707 N   0  0  0  0  0  0  0  0  0  0  0  0
  -29.0352  -26.5687   19.8649 N   0  0  0  0  0  0  0  0  0  0  0  0
  -23.7904  -20.8450   26.0434 N   0  0  0  0  0  0  0  0  0  0  0  0
  -21.5524  -19.6300   22.0580 N   0  0  0  0  0  0  0  0  0  0  0  0
  -21.5306  -15.5338   20.1563 N   0  0  0  0  0  0  0  0  0  0  0  0
  -21.5602  -29.0037   22.4872 N   0  0  0  0  0  0  0  0  0  0  0  0
  -28.1388  -23.1162   19.9489 N   0  0  0  0  0  0  0  0  0  0  0  0
  -31.7414  -28.5985   19.9846 N   0  0  0  0  0  0  0  0  0  0  0  0
  -21.6367  -21.7510   26.4101 N   0  0  0  0  0  0  0  0  0  0  0  0
  -31.5888  -31.5323   17.8782 N   0  3  0  0  0  0  0  0  0  0  0  0
  -20.4298  -17.5426   20.2638 O   0  0  0  0  0  0  0  0  0  0  0  0
  -27.6646  -24.8877   21.3840 O   0  0  0  0  0  0  0  0  0  0  0  0
  -31.2125  -25.8280   19.4813 O   0  0  0  0  0  0  0  0  0  0  0  0
  -30.3497  -30.4451   20.1583 O   0  0  0  0  0  0  0  0  0  0  0  0
  -23.4866  -22.7646   27.3085 O   0  0  0  0  0  0  0  0  0  0  0  0
  -25.2697  -11.4912   21.0000 O   0  0  0  0  0  0  0  0  0  0  0  0
  -21.7046  -24.5433   25.7588 O   0  0  0  0  0  0  0  0  0  0  0  0
  -23.6297  -29.4477   20.6027 O   0  0  0  0  0  0  0  0  0  1  0  0
  -21.5063   -7.4613   20.9758 F   0  0  0  0  0  0  0  0  0  0  0  0
  -25.4754   -9.3480   22.7341 F   0  0  0  0  0  0  0  0  0  0  0  0
  1  2  1  0  0  0  0
  1  5  2  0  0  0  0
  2  6  2  0  0  0  0
  3 10  2  0  0  0  0
  3 19  1  0  0  0  0
  4 11  1  0  0  0  0
  4 19  2  0  0  0  0
  5 21  1  0  0  0  0
  6 23  1  0  0  0  0
  7 12  2  0  0  0  0
  7 22  1  0  0  0  0
  8 13  2  0  0  0  0
  8 25  1  0  0  0  0
  9 14  1  0  0  0  0
  9 25  2  0  0  0  0
 10 26  1  0  0  0  0
 11 26  2  0  0  0  0
 12 28  1  0  0  0  0
 13 27  1  0  0  0  0
 14 27  2  0  0  0  0
 15 16  2  0  0  0  0
 15 29  1  0  0  0  0
 16 30  1  0  0  0  0
 17 24  1  0  0  0  0
 17 28  2  0  0  0  0
 18 30  2  0  0  0  0
 18 31  1  0  0  0  0
 19 32  1  0  0  0  0
 20 32  1  0  0  0  0
 20 33  2  0  0  0  0
 20 34  1  0  0  0  0
 21 23  2  0  0  0  0
 21 39  1  0  0  0  0
 22 24  2  0  0  0  0
 22 40  1  0  0  0  0
 23 48  1  0  0  0  0
 24 41  1  0  0  0  0
 25 70  1  0  0  0  0
 26 80  1  0  0  0  0
 27 81  1  0  0  0  0
 28 82  1  0  0  0  0
 29 31  2  0  0  0  0
 29 80  1  0  0  0  0
 30 83  1  0  0  0  0
 31 84  1  0  0  0  0
 32 64  2  0  0  0  0
 33 65  1  0  0  0  0
 33 68  1  0  0  0  0
 34 69  1  0  0  0  0
 34 75  2  0  0  0  0
 35 49  1  0  0  0  0
 35 71  1  0  0  0  0
 35 76  2  0  0  0  0
 36 60  1  0  0  0  0
 36 66  1  0  0  0  0
 36 77  2  0  0  0  0
 37 61  1  0  0  0  0
 37 72  1  0  0  0  0
 37 78  2  0  0  0  0
 38 67  1  0  0  0  0
 38 73  1  0  0  0  0
 38 79  2  0  0  0  0
 39 42  1  0  0  0  0
 40 49  1  0  0  0  0
 41 66  1  0  0  0  0
 42 44  1  0  0  0  0
 43 45  1  0  0  0  0
 43 46  1  0  0  0  0
 44 48  1  0  0  0  0
 45 50  1  0  0  0  0
 46 67  1  0  0  0  0
 47 50  1  0  0  0  0
 47 67  1  0  0  0  0
 48 71  1  0  0  0  0
 49 66  1  0  0  0  0
 50 65  1  0  0  0  0
 51 61  1  0  0  0  0
 52 62  1  0  0  0  0
 53 63  1  0  0  0  0
 54 63  1  0  0  0  0
 55 63  1  0  0  0  0
 56 74  1  0  0  0  0
 57 58  1  0  0  0  0
 57 73  1  0  0  0  0
 58 81  1  0  0  0  0
 59 62  1  0  0  0  0
 59 82  1  0  0  0  0
 60 63  1  0  0  0  0
 60 72  1  0  0  0  0
 61 74  1  0  0  0  0
 62 70  1  0  0  0  0
 64 65  1  0  0  0  0
M  CHG  1  74   1
M  ISO  4  38 100  59 101  73 100  82 101
M  END
> <Batch ID>
0128

> <Smiles>
CNC(C)C(=O)NC(C(=O)N1Cc2cc([101O:1][101CH2:1]C(C)Nc3ccc(OCC[100NH:0][100C:0](=O)N4CCCC(n5nc(-c6ccc(Oc7ccc(F)cc7F)cc6)c(C(N)=O)c5N)C4)cc3)ccc2CC1C(=O)NC1CCCc2ccccc21)C(C)(C)C

> <Shape>
0.224

> <Color>
0.062

> <Negative vol penalty>
0.000

$$$$

  -OEChem-04052320423D

 81 89  0     1  0  0  0  0  0999 V2000
  -27.7233  -33.3371   14.1423 C   0  0  0  0  0  0  0  0  0  0  0  0
  -27.9160  -31.9994   14.4722 C   0  0  0  0  0  0  0  0  0  0  0  0
  -22.9304  -10.1423   19.9274 C   0  0  0  0  0  0  0  0  0  0  0  0
  -23.8598   -9.8617   22.1397 C   0  0  0  0  0  0  0  0  0  0  0  0
  -27.2363  -34.2267   15.0990 C   0  0  0  0  0  0  0  0  0  0  0  0
  -27.6228  -31.5507   15.7595 C   0  0  0  0  0  0  0  0  0  0  0  0
  -25.3861  -26.0694   17.3275 C   0  0  0  0  0  0  0  0  0  0  0  0
  -26.9680  -20.6279   20.1709 C   0  0  0  0  0  0  0  0  0  0  0  0
  -22.1520   -8.9993   20.1093 C   0  0  0  0  0  0  0  0  0  0  0  0
  -23.0813   -8.7186   22.3217 C   0  0  0  0  0  0  0  0  0  0  0  0
  -25.9947  -24.9100   17.8062 C   0  0  0  0  0  0  0  0  0  0  0  0
  -19.8725   -7.9887   23.0905 C   0  0  0  0  0  0  0  0  0  0  0  0
  -19.2045   -7.8482   24.3069 C   0  0  0  0  0  0  0  0  0  0  0  0
  -27.5304  -19.5317   20.8153 C   0  0  0  0  0  0  0  0  0  0  0  0
  -25.4631  -25.5706   20.0645 C   0  0  0  0  0  0  0  0  0  0  0  0
  -20.4017   -5.7921   24.7268 C   0  0  0  0  0  0  0  0  0  0  0  0
  -29.1132  -21.1393   19.2803 C   0  0  0  0  0  0  0  0  0  0  0  0
  -23.7843  -10.5735   20.9426 C   0  0  0  0  0  0  0  0  0  0  0  0
  -24.2390  -13.0804   21.0705 C   0  0  0  0  0  0  0  0  0  0  0  0
  -26.9278  -33.7867   16.3959 C   0  0  0  0  0  0  0  0  0  0  0  0
  -24.8201  -26.9950   18.2159 C   0  0  0  0  0  0  0  0  0  0  0  0
  -27.1324  -32.4355   16.7349 C   0  0  0  0  0  0  0  0  0  0  0  0
  -24.8456  -26.7397   19.5944 C   0  0  0  0  0  0  0  0  0  0  0  0
  -27.7676  -21.4520   19.3868 C   0  0  0  0  0  0  0  0  0  0  0  0
  -22.2274   -8.2874   21.3065 C   0  0  0  0  0  0  0  0  0  0  0  0
  -26.0358  -24.6619   19.1751 C   0  0  0  0  0  0  0  0  0  0  0  0
  -20.8050   -7.0308   22.6921 C   0  0  0  0  0  0  0  0  0  0  0  0
  -19.4692   -6.7500   25.1251 C   0  0  0  0  0  0  0  0  0  0  0  0
  -21.0696   -5.9326   23.5103 C   0  0  0  0  0  0  0  0  0  0  0  0
  -24.5891  -11.7539   20.7550 C   0  0  0  0  0  0  0  0  0  0  0  0
  -28.8866  -19.3048   20.6446 C   0  0  0  0  0  0  0  0  0  0  0  0
  -25.3360  -13.8214   20.7046 C   0  0  0  0  0  0  0  0  0  0  0  0
  -23.0302  -13.5967   21.6433 C   0  0  0  0  0  0  0  0  0  0  0  0
  -25.3690  -30.0433   18.9304 C   0  0  0  0  0  0  0  0  0  0  0  0
  -22.7052  -29.6921   20.7479 C   0  0  0  0  0  0  0  0  0  0  0  0
  -20.6140  -27.5998   22.4496 C   0  0  0  0  0  0  0  0  0  0  0  0
  -30.8616  -14.5916   20.5630 C   0  0  0  0  0  0  0  0  0  0  0  0
  -26.4485  -34.7951   17.4098 C   0  0  0  0  0  0  0  0  0  0  0  0
  -24.1437  -28.2278   17.6819 C   0  0  0  0  0  0  0  0  0  0  0  0
  -24.2345  -27.6918   20.5887 C   0  0  0  0  0  0  0  0  0  0  0  0
  -25.8079  -34.1623   18.6425 C   0  0  0  0  0  0  0  0  0  0  0  0
  -29.4330  -12.5373   18.0301 C   0  0  0  0  0  0  0  0  0  0  0  0
  -26.6694  -33.0160   19.1627 C   0  0  0  0  0  0  0  0  0  0  0  0
  -28.0195  -12.2549   18.5422 C   0  0  0  0  0  0  0  0  0  0  0  0
  -30.4474  -12.5851   19.1706 C   0  0  0  0  0  0  0  0  0  0  0  0
  -28.6931  -13.2320   20.7761 C   0  0  0  0  0  0  0  0  0  0  0  0
  -26.8025  -31.9057   18.1135 C   0  0  1  0  0  0  0  0  0  0  0  0
  -24.0533  -29.3522   18.7091 C   0  0  1  0  0  0  0  0  0  0  0  0
  -27.6259  -13.2298   19.6683 C   0  0  2  0  0  0  0  0  0  0  0  0
  -18.5433  -27.6092   23.8671 C   0  0  0  0  0  0  0  0  0  0  0  0
  -24.3283  -30.7441   23.1077 C   0  0  0  0  0  0  0  0  0  0  0  0
  -22.5574  -29.8498   24.6348 C   0  0  0  0  0  0  0  0  0  0  0  0
  -21.9909  -31.6234   22.9746 C   0  0  0  0  0  0  0  0  0  0  0  0
  -19.1471  -25.8987   20.5226 C   0  0  0  0  0  0  0  0  0  0  0  0
  -27.1907  -22.6429   18.6794 C   0  0  0  0  0  0  0  0  0  1  0  0
  -30.8262  -17.8414   21.2123 C   0  0  0  0  0  0  0  0  0  0  0  0
  -31.1250  -16.5856   22.0169 C   0  0  0  0  0  0  0  0  0  0  0  0
  -22.4296  -29.2671   22.1700 C   0  0  1  0  0  0  0  0  0  0  0  0
  -19.1011  -27.4763   22.4586 C   0  0  2  0  0  0  0  0  0  0  0  0
  -22.8399  -30.3539   23.2034 C   0  0  0  0  0  0  0  0  0  0  0  0
  -29.6954  -20.0831   19.8912 N   0  0  0  0  0  0  0  0  0  0  0  0
  -25.8127  -11.6548   20.2289 N   0  0  0  0  0  0  0  0  0  0  0  0
  -26.2411  -12.9284   20.2110 N   0  0  0  0  0  0  0  0  0  0  0  0
  -23.5903  -28.8862   20.0178 N   0  0  0  0  0  0  0  0  0  0  0  0
  -30.0158  -13.5291   20.2043 N   0  0  0  0  0  0  0  0  0  0  0  0
  -25.6051  -15.1431   20.7600 N   0  0  0  0  0  0  0  0  0  0  0  0
  -22.0033  -12.6968   21.9598 N   0  0  0  0  0  0  0  0  0  0  0  0
  -29.4445  -18.1832   21.3074 N   0  0  0  0  0  0  0  0  0  0  0  0
  -25.5997  -31.1019   18.0728 N   0  0  0  0  0  0  0  0  0  0  0  0
  -21.0192  -28.8976   22.2195 N   0  0  0  0  0  0  0  0  0  0  0  0
  -30.3734  -15.4435   21.5462 N   0  0  0  0  0  0  0  0  0  0  0  0
  -18.6861  -26.1535   21.9117 N   0  3  0  0  0  0  0  0  0  0  0  0
  -22.8593  -14.8216   21.8527 O   0  0  0  0  0  0  0  0  0  0  0  0
  -26.1187  -29.6464   19.8148 O   0  0  0  0  0  0  0  0  0  0  0  0
  -22.1499  -30.6980   20.2989 O   0  0  0  0  0  0  0  0  0  0  0  0
  -21.3617  -26.6416   22.6324 O   0  0  0  0  0  0  0  0  0  0  0  0
  -31.9675  -14.7710   20.0417 O   0  0  0  0  0  0  0  0  0  0  0  0
  -21.4678   -7.1721   21.4845 O   0  0  0  0  0  0  0  0  0  0  0  0
  -26.6298  -23.5313   19.6450 O   0  0  0  0  0  0  0  0  0  1  0  0
  -18.8288   -6.6160   26.2939 F   0  0  0  0  0  0  0  0  0  0  0  0
  -21.9653   -5.0097   23.1336 F   0  0  0  0  0  0  0  0  0  0  0  0
  1  2  1  0  0  0  0
  1  5  2  0  0  0  0
  2  6  2  0  0  0  0
  3  9  2  0  0  0  0
  3 18  1  0  0  0  0
  4 10  1  0  0  0  0
  4 18  2  0  0  0  0
  5 20  1  0  0  0  0
  6 22  1  0  0  0  0
  7 11  2  0  0  0  0
  7 21  1  0  0  0  0
  8 14  2  0  0  0  0
  8 24  1  0  0  0  0
  9 25  1  0  0  0  0
 10 25  2  0  0  0  0
 11 26  1  0  0  0  0
 12 13  2  0  0  0  0
 12 27  1  0  0  0  0
 13 28  1  0  0  0  0
 14 31  1  0  0  0  0
 15 23  1  0  0  0  0
 15 26  2  0  0  0  0
 16 28  2  0  0  0  0
 16 29  1  0  0  0  0
 17 24  2  0  0  0  0
 17 61  1  0  0  0  0
 18 30  1  0  0  0  0
 19 30  1  0  0  0  0
 19 32  2  0  0  0  0
 19 33  1  0  0  0  0
 20 22  2  0  0  0  0
 20 38  1  0  0  0  0
 21 23  2  0  0  0  0
 21 39  1  0  0  0  0
 22 47  1  0  0  0  0
 23 40  1  0  0  0  0
 24 55  1  0  0  0  0
 25 78  1  0  0  0  0
 26 79  1  0  0  0  0
 27 29  2  0  0  0  0
 27 78  1  0  0  0  0
 28 80  1  0  0  0  0
 29 81  1  0  0  0  0
 30 62  2  0  0  0  0
 31 61  2  0  0  0  0
 31 68  1  0  0  0  0
 32 63  1  0  0  0  0
 32 66  1  0  0  0  0
 33 67  1  0  0  0  0
 33 73  2  0  0  0  0
 34 48  1  0  0  0  0
 34 69  1  0  0  0  0
 34 74  2  0  0  0  0
 35 58  1  0  0  0  0
 35 64  1  0  0  0  0
 35 75  2  0  0  0  0
 36 59  1  0  0  0  0
 36 70  1  0  0  0  0
 36 76  2  0  0  0  0
 37 65  1  0  0  0  0
 37 71  1  0  0  0  0
 37 77  2  0  0  0  0
 38 41  1  0  0  0  0
 39 48  1  0  0  0  0
 40 64  1  0  0  0  0
 41 43  1  0  0  0  0
 42 44  1  0  0  0  0
 42 45  1  0  0  0  0
 43 47  1  0  0  0  0
 44 49  1  0  0  0  0
 45 65  1  0  0  0  0
 46 49  1  0  0  0  0
 46 65  1  0  0  0  0
 47 69  1  0  0  0  0
 48 64  1  0  0  0  0
 49 63  1  0  0  0  0
 50 59  1  0  0  0  0
 51 60  1  0  0  0  0
 52 60  1  0  0  0  0
 53 60  1  0  0  0  0
 54 72  1  0  0  0  0
 55 79  1  0  0  0  0
 56 57  1  0  0  0  0
 56 68  1  0  0  0  0
 57 71  1  0  0  0  0
 58 60  1  0  0  0  0
 58 70  1  0  0  0  0
 59 72  1  0  0  0  0
 62 63  1  0  0  0  0
M  CHG  1  72   1
M  ISO  4  37 100  55 101  71 100  79 101
M  END
> <Batch ID>
0128

> <Smiles>
CNC(C)C(=O)NC(C(=O)N1Cc2cc([101O:1][101CH2:1]c3ccc(NCC[100NH:0][100C:0](=O)N4CCCC(n5nc(-c6ccc(Oc7ccc(F)cc7F)cc6)c(C(N)=O)c5N)C4)nc3)ccc2CC1C(=O)NC1CCCc2ccccc21)C(C)(C)C

> <Shape>
0.337

> <Color>
0.216

> <Negative vol penalty>
0.000

$$$$

  -OEChem-04052320423D

 86 95  0     1  0  0  0  0  0999 V2000
  -17.8624  -26.7394   22.6097 C   0  0  0  0  0  0  0  0  0  0  0  0
  -18.9967  -26.1082   23.1102 C   0  0  0  0  0  0  0  0  0  0  0  0
  -26.5012  -15.6274   19.6227 C   0  0  0  0  0  0  0  0  0  0  0  0
  -27.0986  -15.4504   21.9570 C   0  0  0  0  0  0  0  0  0  0  0  0
  -17.9943  -27.8436   21.7688 C   0  0  0  0  0  0  0  0  0  0  0  0
  -20.2636  -26.5803   22.7691 C   0  0  0  0  0  0  0  0  0  0  0  0
  -26.8777  -27.2480   25.4382 C   0  0  0  0  0  0  0  0  0  0  0  0
  -26.1947  -14.2669   19.5979 C   0  0  0  0  0  0  0  0  0  0  0  0
  -26.7921  -14.0899   21.9323 C   0  0  0  0  0  0  0  0  0  0  0  0
  -28.2021  -26.9480   25.1222 C   0  0  0  0  0  0  0  0  0  0  0  0
  -24.0192  -12.1608   22.0343 C   0  0  0  0  0  0  0  0  0  0  0  0
  -23.2677  -11.6480   23.0916 C   0  0  0  0  0  0  0  0  0  0  0  0
  -28.3073  -28.9120   23.7254 C   0  0  0  0  0  0  0  0  0  0  0  0
  -25.0692  -10.1335   23.6375 C   0  0  0  0  0  0  0  0  0  0  0  0
  -26.9532  -16.2192   20.8022 C   0  0  0  0  0  0  0  0  0  0  0  0
  -28.2362  -18.2924   20.0517 C   0  0  0  0  0  0  0  0  0  0  0  0
  -19.2634  -28.3355   21.4250 C   0  0  0  0  0  0  0  0  0  0  0  0
  -26.2537  -28.3782   24.8907 C   0  0  0  0  0  0  0  0  0  0  0  0
  -20.4127  -27.6914   21.9217 C   0  0  0  0  0  0  0  0  0  0  0  0
  -26.9757  -29.2255   24.0381 C   0  0  0  0  0  0  0  0  0  0  0  0
  -26.3401  -13.4981   20.7527 C   0  0  0  0  0  0  0  0  0  0  0  0
  -28.9162  -27.7785   24.2634 C   0  0  0  0  0  0  0  0  0  0  0  0
  -25.2957  -11.6599   21.7785 C   0  0  0  0  0  0  0  0  0  0  0  0
  -23.7927  -10.6344   23.8932 C   0  0  0  0  0  0  0  0  0  0  0  0
  -25.8207  -10.6463   22.5802 C   0  0  0  0  0  0  0  0  0  0  0  0
  -27.2705  -17.6244   20.8283 C   0  0  0  0  0  0  0  0  0  0  0  0
  -28.1480  -19.6045   20.4482 C   0  0  0  0  0  0  0  0  0  0  0  0
  -29.1327  -17.7733   19.0605 C   0  0  0  0  0  0  0  0  0  0  0  0
  -23.7513  -28.8593   22.9907 C   0  0  0  0  0  0  0  0  0  0  0  0
  -24.3529  -31.9804   23.6381 C   0  0  0  0  0  0  0  0  0  0  0  0
  -27.2613  -34.0943   23.9385 C   0  0  0  0  0  0  0  0  0  0  0  0
  -25.1098  -24.0963   21.7667 C   0  0  0  0  0  0  0  0  0  0  0  0
  -19.3565  -29.5030   20.4748 C   0  0  0  0  0  0  0  0  0  0  0  0
  -24.8329  -28.7026   25.2626 C   0  0  0  0  0  0  0  0  0  0  0  0
  -26.3581  -30.4621   23.4398 C   0  0  0  0  0  0  0  0  0  0  0  0
  -20.7294  -30.1704   20.4627 C   0  0  0  0  0  0  0  0  0  0  0  0
  -35.6307  -25.5999   20.8610 C   0  0  0  0  0  0  0  0  0  0  0  0
  -25.7000  -21.7097   24.3420 C   0  0  0  0  0  0  0  0  0  0  0  0
  -21.8326  -29.1205   20.3768 C   0  0  0  0  0  0  0  0  0  0  0  0
  -26.2346  -20.4879   23.5929 C   0  0  0  0  0  0  0  0  0  0  0  0
  -34.6357  -25.6736   19.6833 C   0  0  0  0  0  0  0  0  0  0  0  0
  -34.4062  -25.5255   21.7976 C   0  0  0  0  0  0  0  0  0  0  0  0
  -30.4235  -25.5205   18.8126 C   0  0  0  0  0  0  0  0  0  0  0  0
  -29.8679  -25.8306   21.2498 C   0  0  0  0  0  0  0  0  0  0  0  0
  -24.6228  -22.4366   23.5400 C   0  0  0  0  0  0  0  0  0  0  0  0
  -25.5531  -21.5903   21.4206 C   0  0  0  0  0  0  0  0  0  0  0  0
  -31.8360  -26.0225   19.0735 C   0  0  0  0  0  0  0  0  0  0  0  0
  -21.8039  -28.1891   21.5946 C   0  0  1  0  0  0  0  0  0  0  0  0
  -24.1373  -29.5973   24.2413 C   0  0  1  0  0  0  0  0  0  0  0  0
  -26.6815  -20.8566   22.1654 C   0  0  2  0  0  0  0  0  0  0  0  0
  -33.6106  -26.2469   20.6870 C   0  0  0  0  0  0  0  0  0  0  0  0
  -29.4471  -26.1231   19.8138 C   0  0  2  0  0  0  0  0  0  0  0  0
  -31.2966  -26.3222   21.5344 C   0  0  1  0  0  0  0  0  0  0  0  0
  -27.6191  -36.1992   25.2571 C   0  0  0  0  0  0  0  0  0  0  0  0
  -23.5619  -33.3914   21.0510 C   0  0  0  0  0  0  0  0  0  0  0  0
  -25.3014  -35.1229   21.5453 C   0  0  0  0  0  0  0  0  0  0  0  0
  -23.3823  -34.8042   23.1068 C   0  0  0  0  0  0  0  0  0  0  0  0
  -29.6240  -32.9661   25.3183 C   0  0  0  0  0  0  0  0  0  0  0  0
  -31.7094  -25.9098   22.9468 C   0  0  0  0  0  0  0  0  0  0  0  0
  -25.6626  -25.6378   19.9019 C   0  0  0  0  0  0  0  0  0  0  0  0
  -26.9856  -26.3236   20.1874 C   0  0  0  0  0  0  0  0  0  0  0  0
  -30.5812  -26.1101   23.9472 C   0  0  0  0  0  0  0  0  0  1  0  0
  -25.2069  -33.0566   23.0126 C   0  0  1  0  0  0  0  0  0  0  0  0
  -27.8219  -34.6925   25.2161 C   0  0  2  0  0  0  0  0  0  0  0  0
  -24.3702  -34.0663   22.1772 C   0  0  0  0  0  0  0  0  0  0  0  0
  -26.6170  -18.4444   21.6556 N   0  0  0  0  0  0  0  0  0  0  0  0
  -27.1730  -19.6412   21.4012 N   0  0  0  0  0  0  0  0  0  0  0  0
  -24.9643  -30.7331   23.8288 N   0  0  0  0  0  0  0  0  0  0  0  0
  -25.1107  -22.7592   22.1969 N   0  0  0  0  0  0  0  0  0  0  0  0
  -28.8100  -20.7189   20.0711 N   0  0  0  0  0  0  0  0  0  0  0  0
  -29.0916  -16.4018   18.7751 N   0  0  0  0  0  0  0  0  0  0  0  0
  -22.3917  -28.8422   22.7445 N   0  0  0  0  0  0  0  0  0  0  0  0
  -25.9616  -33.6643   24.1033 N   0  0  0  0  0  0  0  0  0  0  0  0
  -25.5944  -24.3155   20.4830 N   0  0  0  0  0  0  0  0  0  0  0  0
  -32.2266  -25.7105   20.4994 N   0  3  1  0  0  0  0  0  0  0  0  0
  -28.0972  -25.5458   19.5787 N   0  3  0  0  0  0  0  0  0  0  0  0
  -29.2816  -34.4117   25.3226 N   0  3  0  0  0  0  0  0  0  0  0  0
  -29.9576  -18.5013   18.4579 O   0  0  0  0  0  0  0  0  0  0  0  0
  -24.6226  -28.3447   22.2995 O   0  0  0  0  0  0  0  0  0  0  0  0
  -23.1885  -32.2389   23.9528 O   0  0  0  0  0  0  0  0  0  0  0  0
  -27.9101  -34.0195   22.8974 O   0  0  0  0  0  0  0  0  0  0  0  0
  -24.7120  -25.0266   22.4761 O   0  0  0  0  0  0  0  0  0  0  0  0
  -26.0409  -12.1706   20.7290 O   0  0  0  0  0  0  0  0  0  0  0  0
  -30.2088  -27.4876   23.9528 O   0  0  0  0  0  0  0  0  0  1  0  0
  -23.0715  -10.1432   24.9095 F   0  0  0  0  0  0  0  0  0  0  0  0
  -27.0469  -10.1619   22.3401 F   0  0  0  0  0  0  0  0  0  0  0  0
  1  2  1  0  0  0  0
  1  5  2  0  0  0  0
  2  6  2  0  0  0  0
  3  8  2  0  0  0  0
  3 15  1  0  0  0  0
  4  9  1  0  0  0  0
  4 15  2  0  0  0  0
  5 17  1  0  0  0  0
  6 19  1  0  0  0  0
  7 10  2  0  0  0  0
  7 18  1  0  0  0  0
  8 21  1  0  0  0  0
  9 21  2  0  0  0  0
 10 22  1  0  0  0  0
 11 12  2  0  0  0  0
 11 23  1  0  0  0  0
 12 24  1  0  0  0  0
 13 20  1  0  0  0  0
 13 22  2  0  0  0  0
 14 24  2  0  0  0  0
 14 25  1  0  0  0  0
 15 26  1  0  0  0  0
 16 26  1  0  0  0  0
 16 27  2  0  0  0  0
 16 28  1  0  0  0  0
 17 19  2  0  0  0  0
 17 33  1  0  0  0  0
 18 20  2  0  0  0  0
 18 34  1  0  0  0  0
 19 48  1  0  0  0  0
 20 35  1  0  0  0  0
 21 83  1  0  0  0  0
 22 84  1  0  0  0  0
 23 25  2  0  0  0  0
 23 83  1  0  0  0  0
 24 85  1  0  0  0  0
 25 86  1  0  0  0  0
 26 66  2  0  0  0  0
 27 67  1  0  0  0  0
 27 70  1  0  0  0  0
 28 71  1  0  0  0  0
 28 78  2  0  0  0  0
 29 49  1  0  0  0  0
 29 72  1  0  0  0  0
 29 79  2  0  0  0  0
 30 63  1  0  0  0  0
 30 68  1  0  0  0  0
 30 80  2  0  0  0  0
 31 64  1  0  0  0  0
 31 73  1  0  0  0  0
 31 81  2  0  0  0  0
 32 69  1  0  0  0  0
 32 74  1  0  0  0  0
 32 82  2  0  0  0  0
 33 36  1  0  0  0  0
 34 49  1  0  0  0  0
 35 68  1  0  0  0  0
 36 39  1  0  0  0  0
 37 41  1  0  0  0  0
 37 42  1  0  0  0  0
 38 40  1  0  0  0  0
 38 45  1  0  0  0  0
 39 48  1  0  0  0  0
 40 50  1  0  0  0  0
 41 51  1  0  0  0  0
 42 51  1  0  0  0  0
 43 47  1  0  0  0  0
 43 52  1  0  0  0  0
 44 52  1  0  0  0  0
 44 53  1  0  0  0  0
 45 69  1  0  0  0  0
 46 50  1  0  0  0  0
 46 69  1  0  0  0  0
 47 75  1  0  0  0  0
 48 72  1  0  0  0  0
 49 68  1  0  0  0  0
 50 67  1  0  0  0  0
 51 75  1  0  0  0  0
 52 76  1  0  0  0  0
 53 59  1  0  0  0  0
 53 75  1  0  0  0  0
 54 64  1  0  0  0  0
 55 65  1  0  0  0  0
 56 65  1  0  0  0  0
 57 65  1  0  0  0  0
 58 77  1  0  0  0  0
 59 62  1  0  0  0  0
 60 61  1  0  0  0  0
 60 74  1  0  0  0  0
 61 76  1  0  0  0  0
 62 84  1  0  0  0  0
 63 65  1  0  0  0  0
 63 73  1  0  0  0  0
 64 77  1  0  0  0  0
 66 67  1  0  0  0  0
M  CHG  3  75   1  76   1  77   1
M  ISO  4  32 100  62 101  74 100  84 101
M  END
> <Batch ID>
0128

> <Smiles>
CNC(C)C(=O)NC(C(=O)N1Cc2cc([101O:1][101CH2:1]CC3CC(NCC[100NH:0][100C:0](=O)N4CCCC(n5nc(-c6ccc(Oc7ccc(F)cc7F)cc6)c(C(N)=O)c5N)C4)CCN3C3CCC3)ccc2CC1C(=O)NC1CCCc2ccccc21)C(C)(C)C

> <Shape>
0.232

> <Color>
0.078

> <Negative vol penalty>
0.000

$$$$

  -OEChem-04052320423D

 86 94  0     1  0  0  0  0  0999 V2000
  -22.0949   -7.6741   20.8627 C   0  0  0  0  0  0  0  0  0  0  0  0
  -21.6286   -8.9419   21.1951 C   0  0  0  0  0  0  0  0  0  0  0  0
  -28.7983  -26.4962   19.9353 C   0  0  0  0  0  0  0  0  0  0  0  0
  -26.7930  -25.8268   18.7659 C   0  0  0  0  0  0  0  0  0  0  0  0
  -23.4597   -7.3960   20.9253 C   0  0  0  0  0  0  0  0  0  0  0  0
  -22.5268   -9.9322   21.5914 C   0  0  0  0  0  0  0  0  0  0  0  0
  -22.1268  -15.9357   20.4496 C   0  0  0  0  0  0  0  0  0  0  0  0
  -29.3530  -25.2373   19.7049 C   0  0  0  0  0  0  0  0  0  0  0  0
  -27.3477  -24.5678   18.5354 C   0  0  0  0  0  0  0  0  0  0  0  0
  -21.6728  -17.0081   21.2162 C   0  0  0  0  0  0  0  0  0  0  0  0
  -31.1545  -22.0787   19.7360 C   0  0  0  0  0  0  0  0  0  0  0  0
  -31.7970  -21.4467   20.8006 C   0  0  0  0  0  0  0  0  0  0  0  0
  -23.9398  -17.4734   21.8971 C   0  0  0  0  0  0  0  0  0  0  0  0
  -20.5035  -23.5004   22.8622 C   0  0  0  0  0  0  0  0  0  0  0  0
  -29.7411  -21.4930   22.0688 C   0  0  0  0  0  0  0  0  0  0  0  0
  -19.7662  -22.8414   20.8393 C   0  0  0  0  0  0  0  0  0  0  0  0
  -27.5182  -26.7909   19.4658 C   0  0  0  0  0  0  0  0  0  0  0  0
  -27.0448  -29.2283   18.8805 C   0  0  0  0  0  0  0  0  0  0  0  0
  -24.3761   -8.3862   21.3133 C   0  0  0  0  0  0  0  0  0  0  0  0
  -23.4918  -15.6169   20.4096 C   0  0  0  0  0  0  0  0  0  0  0  0
  -23.9050   -9.6667   21.6606 C   0  0  0  0  0  0  0  0  0  0  0  0
  -24.4089  -16.3980   21.1272 C   0  0  0  0  0  0  0  0  0  0  0  0
  -28.6277  -24.2731   19.0049 C   0  0  0  0  0  0  0  0  0  0  0  0
  -22.5790  -17.7753   21.9424 C   0  0  0  0  0  0  0  0  0  0  0  0
  -29.8053  -22.4180   19.8378 C   0  0  0  0  0  0  0  0  0  0  0  0
  -20.6172  -22.4987   21.8668 C   0  0  0  0  0  0  0  0  0  0  0  0
  -31.0903  -21.1538   21.9670 C   0  0  0  0  0  0  0  0  0  0  0  0
  -29.0986  -22.1251   21.0042 C   0  0  0  0  0  0  0  0  0  0  0  0
  -26.9445  -28.0910   19.7040 C   0  0  0  0  0  0  0  0  0  0  0  0
  -19.5863  -24.4246   22.4128 C   0  0  0  0  0  0  0  0  0  0  0  0
  -26.3330  -30.1971   19.5447 C   0  0  0  0  0  0  0  0  0  0  0  0
  -27.7210  -29.3942   17.6270 C   0  0  0  0  0  0  0  0  0  0  0  0
  -25.2307  -13.0906   21.2452 C   0  0  0  0  0  0  0  0  0  0  0  0
  -27.6331  -14.7754   19.8624 C   0  0  0  0  0  0  0  0  0  0  0  0
  -28.8705  -17.8115   18.9150 C   0  0  0  0  0  0  0  0  0  0  0  0
  -21.8622  -29.9666   23.5208 C   0  0  0  0  0  0  0  0  0  0  0  0
  -25.8371   -8.0248   21.4115 C   0  0  0  0  0  0  0  0  0  0  0  0
  -23.9686  -14.4734   19.5567 C   0  0  0  0  0  0  0  0  0  0  0  0
  -25.8869  -16.1097   21.1017 C   0  0  0  0  0  0  0  0  0  0  0  0
  -26.7612   -9.2378   21.4803 C   0  0  0  0  0  0  0  0  0  0  0  0
  -25.0327  -31.5281   23.9525 C   0  0  0  0  0  0  0  0  0  0  0  0
  -26.2325  -10.2554   22.4862 C   0  0  0  0  0  0  0  0  0  0  0  0
  -25.8912  -30.9269   22.8383 C   0  0  0  0  0  0  0  0  0  0  0  0
  -24.0596  -30.5029   24.5307 C   0  0  0  0  0  0  0  0  0  0  0  0
  -24.0628  -29.2295   22.4207 C   0  0  0  0  0  0  0  0  0  0  0  0
  -24.8506  -10.7746   22.0712 C   0  0  1  0  0  0  0  0  0  0  0  0
  -25.3213  -13.9227   19.9974 C   0  0  1  0  0  0  0  0  0  0  0  0
  -25.0210  -30.2406   21.7682 C   0  0  2  0  0  0  0  0  0  0  0  0
  -30.8750  -18.8741   17.8425 C   0  0  0  0  0  0  0  0  0  0  0  0
  -16.9140  -23.8579   20.1388 C   0  0  0  0  0  0  0  0  0  0  0  0
  -18.7757  -25.1687   19.0333 C   0  0  0  0  0  0  0  0  0  0  0  0
  -29.2033  -14.4242   22.4549 C   0  0  0  0  0  0  0  0  0  0  0  0
  -30.7310  -16.2568   21.6962 C   0  0  0  0  0  0  0  0  0  0  0  0
  -30.5573  -14.1511   20.3701 C   0  0  0  0  0  0  0  0  0  0  0  0
  -27.2537  -18.8742   16.6755 C   0  0  0  0  0  0  0  0  0  0  0  0
  -19.0962  -25.6622   23.0534 C   0  0  0  0  0  0  0  0  0  0  0  0
  -19.7407  -29.3664   22.3813 C   0  0  0  0  0  0  0  0  0  0  0  0
  -19.1236  -28.1598   23.0636 C   0  0  0  0  0  0  0  0  0  0  0  0
  -23.0336  -19.9202   22.8638 C   0  0  0  0  0  0  0  0  0  1  0  0
  -22.2283  -21.1940   23.0320 C   0  0  0  0  0  0  0  0  0  0  0  0
  -28.6371  -15.7956   20.3419 C   0  0  1  0  0  0  0  0  0  0  0  0
  -29.4922  -18.2841   17.6132 C   0  0  2  0  0  0  0  0  0  0  0  0
  -18.1730  -24.6990   20.3587 C   0  0  0  0  0  0  0  0  0  0  0  0
  -29.7542  -15.1614   21.2180 C   0  0  0  0  0  0  0  0  0  0  0  0
  -26.2257  -28.3151   20.8073 N   0  0  0  0  0  0  0  0  0  0  0  0
  -19.1445  -24.0137   21.1823 N   0  0  0  0  0  0  0  0  0  0  0  0
  -25.8680  -29.6044   20.6816 N   0  0  0  0  0  0  0  0  0  0  0  0
  -26.3032  -14.9773   20.2579 N   0  0  0  0  0  0  0  0  0  0  0  0
  -23.2636  -29.8903   23.4644 N   0  0  0  0  0  0  0  0  0  0  0  0
  -26.0658  -31.4897   19.2614 N   0  0  0  0  0  0  0  0  0  0  0  0
  -28.4039  -28.2965   17.0859 N   0  0  0  0  0  0  0  0  0  0  0  0
  -24.9753  -11.7527   21.0120 N   0  0  0  0  0  0  0  0  0  0  0  0
  -29.1280  -16.4773   19.1491 N   0  0  0  0  0  0  0  0  0  0  0  0
  -21.1841  -29.3656   22.4674 N   0  0  0  0  0  0  0  0  0  0  0  0
  -28.6361  -19.3259   16.9785 N   0  3  0  0  0  0  0  0  0  0  0  0
  -19.6575  -26.9140   22.4598 N   0  3  0  0  0  0  0  0  0  0  0  0
  -27.7333  -30.4882   17.0134 O   0  0  0  0  0  0  0  0  0  0  0  0
  -25.3827  -13.6227   22.3386 O   0  0  0  0  0  0  0  0  0  0  0  0
  -28.0135  -13.8378   19.1568 O   0  0  0  0  0  0  0  0  0  0  0  0
  -28.2245  -18.5527   19.6524 O   0  0  0  0  0  0  0  0  0  0  0  0
  -21.2599  -30.5334   24.4390 O   0  0  0  0  0  0  0  0  0  0  0  0
  -29.1687  -23.0447   18.7797 O   0  0  0  0  0  0  0  0  0  0  0  0
  -22.1384  -18.8222   22.6919 O   0  0  0  0  0  0  0  0  0  1  0  0
  -21.4121  -21.3830   21.8825 O   0  0  0  0  0  0  0  0  0  0  0  0
  -31.7069  -20.5455   22.9887 F   0  0  0  0  0  0  0  0  0  0  0  0
  -27.8020  -22.4475   21.1074 F   0  0  0  0  0  0  0  0  0  0  0  0
  1  2  1  0  0  0  0
  1  5  2  0  0  0  0
  2  6  2  0  0  0  0
  3  8  2  0  0  0  0
  3 17  1  0  0  0  0
  4  9  1  0  0  0  0
  4 17  2  0  0  0  0
  5 19  1  0  0  0  0
  6 21  1  0  0  0  0
  7 10  2  0  0  0  0
  7 20  1  0  0  0  0
  8 23  1  0  0  0  0
  9 23  2  0  0  0  0
 10 24  1  0  0  0  0
 11 12  2  0  0  0  0
 11 25  1  0  0  0  0
 12 27  1  0  0  0  0
 13 22  1  0  0  0  0
 13 24  2  0  0  0  0
 14 26  1  0  0  0  0
 14 30  2  0  0  0  0
 15 27  2  0  0  0  0
 15 28  1  0  0  0  0
 16 26  2  0  0  0  0
 16 66  1  0  0  0  0
 17 29  1  0  0  0  0
 18 29  1  0  0  0  0
 18 31  2  0  0  0  0
 18 32  1  0  0  0  0
 19 21  2  0  0  0  0
 19 37  1  0  0  0  0
 20 22  2  0  0  0  0
 20 38  1  0  0  0  0
 21 46  1  0  0  0  0
 22 39  1  0  0  0  0
 23 82  1  0  0  0  0
 24 83  1  0  0  0  0
 25 28  2  0  0  0  0
 25 82  1  0  0  0  0
 26 84  1  0  0  0  0
 27 85  1  0  0  0  0
 28 86  1  0  0  0  0
 29 65  2  0  0  0  0
 30 56  1  0  0  0  0
 30 66  1  0  0  0  0
 31 67  1  0  0  0  0
 31 70  1  0  0  0  0
 32 71  1  0  0  0  0
 32 77  2  0  0  0  0
 33 47  1  0  0  0  0
 33 72  1  0  0  0  0
 33 78  2  0  0  0  0
 34 61  1  0  0  0  0
 34 68  1  0  0  0  0
 34 79  2  0  0  0  0
 35 62  1  0  0  0  0
 35 73  1  0  0  0  0
 35 80  2  0  0  0  0
 36 69  1  0  0  0  0
 36 74  1  0  0  0  0
 36 81  2  0  0  0  0
 37 40  1  0  0  0  0
 38 47  1  0  0  0  0
 39 68  1  0  0  0  0
 40 42  1  0  0  0  0
 41 43  1  0  0  0  0
 41 44  1  0  0  0  0
 42 46  1  0  0  0  0
 43 48  1  0  0  0  0
 44 69  1  0  0  0  0
 45 48  1  0  0  0  0
 45 69  1  0  0  0  0
 46 72  1  0  0  0  0
 47 68  1  0  0  0  0
 48 67  1  0  0  0  0
 49 62  1  0  0  0  0
 50 63  1  0  0  0  0
 51 63  1  0  0  0  0
 52 64  1  0  0  0  0
 53 64  1  0  0  0  0
 54 64  1  0  0  0  0
 55 75  1  0  0  0  0
 56 76  1  0  0  0  0
 57 58  1  0  0  0  0
 57 74  1  0  0  0  0
 58 76  1  0  0  0  0
 59 60  1  0  0  0  0
 59 83  1  0  0  0  0
 60 84  1  0  0  0  0
 61 64  1  0  0  0  0
 61 73  1  0  0  0  0
 62 75  1  0  0  0  0
 63 66  1  0  0  0  0
 65 67  1  0  0  0  0
M  CHG  2  75   1  76   1
M  ISO  4  36 100  59 101  74 100  83 101
M  END
> <Batch ID>
0128

> <Smiles>
CNC(C)C(=O)NC(C(=O)N1Cc2cc([101O:1][101CH2:1]COc3cc(CNCC[100NH:0][100C:0](=O)N4CCCC(n5nc(-c6ccc(Oc7ccc(F)cc7F)cc6)c(C(N)=O)c5N)C4)n(C(C)C)c3)ccc2CC1C(=O)NC1CCCc2ccccc21)C(C)(C)C

> <Shape>
0.273

> <Color>
0.055

> <Negative vol penalty>
0.000

$$$$

  -OEChem-04052320423D

 82 90  0     1  0  0  0  0  0999 V2000
  -23.2946   -7.8419   21.2609 C   0  0  0  0  0  0  0  0  0  0  0  0
  -24.1135   -8.8455   20.7534 C   0  0  0  0  0  0  0  0  0  0  0  0
  -21.4891  -27.9941   19.1532 C   0  0  0  0  0  0  0  0  0  0  0  0
  -21.6894  -26.1945   20.7528 C   0  0  0  0  0  0  0  0  0  0  0  0
  -21.9908   -8.1401   21.6547 C   0  0  0  0  0  0  0  0  0  0  0  0
  -23.6287  -10.1479   20.6385 C   0  0  0  0  0  0  0  0  0  0  0  0
  -26.9446  -13.6069   22.2771 C   0  0  0  0  0  0  0  0  0  0  0  0
  -30.3415  -18.2299   19.3994 C   0  0  0  0  0  0  0  0  0  0  0  0
  -31.8128  -17.7597   21.2572 C   0  0  0  0  0  0  0  0  0  0  0  0
  -30.1907  -19.5411   19.8506 C   0  0  0  0  0  0  0  0  0  0  0  0
  -31.6620  -19.0710   21.7084 C   0  0  0  0  0  0  0  0  0  0  0  0
  -20.2527  -27.4937   18.7452 C   0  0  0  0  0  0  0  0  0  0  0  0
  -20.4529  -25.6942   20.3448 C   0  0  0  0  0  0  0  0  0  0  0  0
  -27.9991  -13.9319   21.4249 C   0  0  0  0  0  0  0  0  0  0  0  0
  -19.2282  -23.8725   17.7734 C   0  0  0  0  0  0  0  0  0  0  0  0
  -19.1243  -22.4983   17.5578 C   0  0  0  0  0  0  0  0  0  0  0  0
  -26.8231  -15.9234   20.7393 C   0  0  0  0  0  0  0  0  0  0  0  0
  -17.4123  -22.3612   19.2571 C   0  0  0  0  0  0  0  0  0  0  0  0
  -22.2075  -27.3444   20.1570 C   0  0  0  0  0  0  0  0  0  0  0  0
  -23.7282  -28.7965   21.6015 C   0  0  0  0  0  0  0  0  0  0  0  0
  -21.4929   -9.4488   21.5536 C   0  0  0  0  0  0  0  0  0  0  0  0
  -25.8148  -14.4334   22.3588 C   0  0  0  0  0  0  0  0  0  0  0  0
  -22.3166  -10.4637   21.0302 C   0  0  0  0  0  0  0  0  0  0  0  0
  -25.7568  -15.6080   21.5952 C   0  0  0  0  0  0  0  0  0  0  0  0
  -31.1525  -17.3392   20.1027 C   0  0  0  0  0  0  0  0  0  0  0  0
  -30.8510  -19.9617   21.0051 C   0  0  0  0  0  0  0  0  0  0  0  0
  -19.7346  -26.3438   19.3410 C   0  0  0  0  0  0  0  0  0  0  0  0
  -27.9372  -15.0888   20.6536 C   0  0  0  0  0  0  0  0  0  0  0  0
  -18.4242  -24.4910   18.7309 C   0  0  0  0  0  0  0  0  0  0  0  0
  -18.2163  -21.7427   18.2996 C   0  0  0  0  0  0  0  0  0  0  0  0
  -17.5163  -23.7354   19.4727 C   0  0  0  0  0  0  0  0  0  0  0  0
  -23.4851  -27.8604   20.5785 C   0  0  0  0  0  0  0  0  0  0  0  0
  -25.0928  -28.9523   21.6071 C   0  0  0  0  0  0  0  0  0  0  0  0
  -22.8033  -29.4654   22.4691 C   0  0  0  0  0  0  0  0  0  0  0  0
  -22.7183  -14.0672   21.7415 C   0  0  0  0  0  0  0  0  0  0  0  0
  -22.5100  -17.0405   23.0216 C   0  0  0  0  0  0  0  0  0  0  0  0
  -24.0532  -19.9961   23.7492 C   0  0  0  0  0  0  0  0  0  0  0  0
  -29.6067  -25.4241   19.8670 C   0  0  0  0  0  0  0  0  0  0  0  0
  -20.0614   -9.7134   21.9479 C   0  0  0  0  0  0  0  0  0  0  0  0
  -24.6976  -14.0827   23.3029 C   0  0  0  0  0  0  0  0  0  0  0  0
  -24.5751  -16.5395   21.6616 C   0  0  0  0  0  0  0  0  0  0  0  0
  -19.7473  -11.1943   22.1437 C   0  0  0  0  0  0  0  0  0  0  0  0
  -28.9001  -28.7194   18.7189 C   0  0  0  0  0  0  0  0  0  0  0  0
  -20.3083  -12.0164   20.9876 C   0  0  0  0  0  0  0  0  0  0  0  0
  -27.4541  -28.9574   19.1576 C   0  0  0  0  0  0  0  0  0  0  0  0
  -29.1283  -27.2721   18.2884 C   0  0  0  0  0  0  0  0  0  0  0  0
  -27.2780  -26.4975   19.7202 C   0  0  0  0  0  0  0  0  0  0  0  0
  -21.8350  -11.8936   20.9133 C   0  0  1  0  0  0  0  0  0  0  0  0
  -23.3691  -14.7293   22.9229 C   0  0  1  0  0  0  0  0  0  0  0  0
  -27.0129  -27.9291   20.2166 C   0  0  2  0  0  0  0  0  0  0  0  0
  -23.6154  -22.2498   24.7625 C   0  0  0  0  0  0  0  0  0  0  0  0
  -21.0471  -17.8946   20.4838 C   0  0  0  0  0  0  0  0  0  0  0  0
  -21.4807  -20.2772   21.1192 C   0  0  0  0  0  0  0  0  0  0  0  0
  -20.0946  -18.8256   22.6005 C   0  0  0  0  0  0  0  0  0  0  0  0
  -26.0597  -19.5566   25.8799 C   0  0  0  0  0  0  0  0  0  0  0  0
  -31.3159  -15.9200   19.6154 C   0  0  0  0  0  0  0  0  0  0  0  0
  -29.8867  -22.2526   20.7877 C   0  0  0  0  0  0  0  0  0  0  0  0
  -29.9349  -23.5914   21.5080 C   0  0  0  0  0  0  0  0  0  0  0  0
  -30.2703  -14.9802   20.2059 C   0  0  0  0  0  0  0  0  0  1  0  0
  -22.5912  -18.4465   22.4781 C   0  0  1  0  0  0  0  0  0  0  0  0
  -24.0895  -20.8277   25.0187 C   0  0  2  0  0  0  0  0  0  0  0  0
  -21.3249  -18.8426   21.6675 C   0  0  0  0  0  0  0  0  0  0  0  0
  -24.6054  -27.4505   19.9778 N   0  0  0  0  0  0  0  0  0  0  0  0
  -25.5657  -28.1323   20.6252 N   0  0  0  0  0  0  0  0  0  0  0  0
  -23.5053  -16.1499   22.5949 N   0  0  0  0  0  0  0  0  0  0  0  0
  -28.6907  -26.3479   19.3373 N   0  0  0  0  0  0  0  0  0  0  0  0
  -25.9224  -29.7095   22.3560 N   0  0  0  0  0  0  0  0  0  0  0  0
  -21.4363  -29.1894   22.3287 N   0  0  0  0  0  0  0  0  0  0  0  0
  -30.7003  -21.2878   21.4606 N   0  0  0  0  0  0  0  0  0  0  0  0
  -22.4585  -12.7222   21.9228 N   0  0  0  0  0  0  0  0  0  0  0  0
  -22.8635  -19.3110   23.6213 N   0  0  0  0  0  0  0  0  0  0  0  0
  -29.1120  -24.5894   20.8617 N   0  0  0  0  0  0  0  0  0  0  0  0
  -25.4766  -20.8852   25.5608 N   0  3  0  0  0  0  0  0  0  0  0  0
  -23.1764  -30.2959   23.3320 O   0  0  0  0  0  0  0  0  0  0  0  0
  -22.4688  -14.7281   20.7402 O   0  0  0  0  0  0  0  0  0  0  0  0
  -21.6013  -16.7453   23.8018 O   0  0  0  0  0  0  0  0  0  0  0  0
  -24.9854  -19.9610   22.9490 O   0  0  0  0  0  0  0  0  0  0  0  0
  -30.7799  -25.3522   19.4858 O   0  0  0  0  0  0  0  0  0  0  0  0
  -18.5280  -25.8555   18.9432 O   0  0  0  0  0  0  0  0  0  0  0  0
  -28.9647  -15.4081   19.8205 O   0  0  0  0  0  0  0  0  0  1  0  0
  -18.1156  -20.4233   18.0914 F   0  0  0  0  0  0  0  0  0  0  0  0
  -16.7404  -24.3242   20.3931 F   0  0  0  0  0  0  0  0  0  0  0  0
  1  2  1  0  0  0  0
  1  5  2  0  0  0  0
  2  6  2  0  0  0  0
  3 12  2  0  0  0  0
  3 19  1  0  0  0  0
  4 13  1  0  0  0  0
  4 19  2  0  0  0  0
  5 21  1  0  0  0  0
  6 23  1  0  0  0  0
  7 14  2  0  0  0  0
  7 22  1  0  0  0  0
  8 10  2  0  0  0  0
  8 25  1  0  0  0  0
  9 11  1  0  0  0  0
  9 25  2  0  0  0  0
 10 26  1  0  0  0  0
 11 26  2  0  0  0  0
 12 27  1  0  0  0  0
 13 27  2  0  0  0  0
 14 28  1  0  0  0  0
 15 16  2  0  0  0  0
 15 29  1  0  0  0  0
 16 30  1  0  0  0  0
 17 24  1  0  0  0  0
 17 28  2  0  0  0  0
 18 30  2  0  0  0  0
 18 31  1  0  0  0  0
 19 32  1  0  0  0  0
 20 32  1  0  0  0  0
 20 33  2  0  0  0  0
 20 34  1  0  0  0  0
 21 23  2  0  0  0  0
 21 39  1  0  0  0  0
 22 24  2  0  0  0  0
 22 40  1  0  0  0  0
 23 48  1  0  0  0  0
 24 41  1  0  0  0  0
 25 56  1  0  0  0  0
 26 69  1  0  0  0  0
 27 79  1  0  0  0  0
 28 80  1  0  0  0  0
 29 31  2  0  0  0  0
 29 79  1  0  0  0  0
 30 81  1  0  0  0  0
 31 82  1  0  0  0  0
 32 63  2  0  0  0  0
 33 64  1  0  0  0  0
 33 67  1  0  0  0  0
 34 68  1  0  0  0  0
 34 74  2  0  0  0  0
 35 49  1  0  0  0  0
 35 70  1  0  0  0  0
 35 75  2  0  0  0  0
 36 60  1  0  0  0  0
 36 65  1  0  0  0  0
 36 76  2  0  0  0  0
 37 61  1  0  0  0  0
 37 71  1  0  0  0  0
 37 77  2  0  0  0  0
 38 66  1  0  0  0  0
 38 72  1  0  0  0  0
 38 78  2  0  0  0  0
 39 42  1  0  0  0  0
 40 49  1  0  0  0  0
 41 65  1  0  0  0  0
 42 44  1  0  0  0  0
 43 45  1  0  0  0  0
 43 46  1  0  0  0  0
 44 48  1  0  0  0  0
 45 50  1  0  0  0  0
 46 66  1  0  0  0  0
 47 50  1  0  0  0  0
 47 66  1  0  0  0  0
 48 70  1  0  0  0  0
 49 65  1  0  0  0  0
 50 64  1  0  0  0  0
 51 61  1  0  0  0  0
 52 62  1  0  0  0  0
 53 62  1  0  0  0  0
 54 62  1  0  0  0  0
 55 73  1  0  0  0  0
 56 59  1  0  0  0  0
 57 58  1  0  0  0  0
 57 69  1  0  0  0  0
 58 72  1  0  0  0  0
 59 80  1  0  0  0  0
 60 62  1  0  0  0  0
 60 71  1  0  0  0  0
 61 73  1  0  0  0  0
 63 64  1  0  0  0  0
M  CHG  1  73   1
M  ISO  4  38 100  59 101  72 100  80 101
M  END
> <Batch ID>
0128

> <Smiles>
CNC(C)C(=O)NC(C(=O)N1Cc2cc([101O:1][101CH2:1]Cc3ccc(NCC[100NH:0][100C:0](=O)N4CCCC(n5nc(-c6ccc(Oc7ccc(F)cc7F)cc6)c(C(N)=O)c5N)C4)cc3)ccc2CC1C(=O)NC1CCCc2ccccc21)C(C)(C)C

> <Shape>
0.186

> <Color>
0.097

> <Negative vol penalty>
0.000

$$$$

  -OEChem-04052320423D

 81 89  0     1  0  0  0  0  0999 V2000
  -21.6800  -12.9797   19.0422 C   0  0  0  0  0  0  0  0  0  0  0  0
  -21.6975  -14.2880   19.5148 C   0  0  0  0  0  0  0  0  0  0  0  0
  -20.3243  -24.6248   24.9873 C   0  0  0  0  0  0  0  0  0  0  0  0
  -29.8213  -27.6445   20.6463 C   0  0  0  0  0  0  0  0  0  0  0  0
  -28.5480  -25.7504   21.4389 C   0  0  0  0  0  0  0  0  0  0  0  0
  -22.7816  -12.1503   19.2488 C   0  0  0  0  0  0  0  0  0  0  0  0
  -22.8162  -14.7675   20.1952 C   0  0  0  0  0  0  0  0  0  0  0  0
  -24.1858  -19.3959   18.6631 C   0  0  0  0  0  0  0  0  0  0  0  0
  -20.2898  -26.0106   24.8328 C   0  0  0  0  0  0  0  0  0  0  0  0
  -20.5208  -23.8039   23.8767 C   0  0  0  0  0  0  0  0  0  0  0  0
  -30.9610  -27.1407   21.2732 C   0  0  0  0  0  0  0  0  0  0  0  0
  -29.6876  -25.2465   22.0657 C   0  0  0  0  0  0  0  0  0  0  0  0
  -23.4412  -20.4720   19.1439 C   0  0  0  0  0  0  0  0  0  0  0  0
  -31.4347  -25.8288   24.9011 C   0  0  0  0  0  0  0  0  0  0  0  0
  -31.3000  -25.3525   26.2052 C   0  0  0  0  0  0  0  0  0  0  0  0
  -25.1510  -20.9132   20.7874 C   0  0  0  0  0  0  0  0  0  0  0  0
  -20.6482  -25.7547   22.4572 C   0  0  0  0  0  0  0  0  0  0  0  0
  -32.0404  -23.1687   25.4841 C   0  0  0  0  0  0  0  0  0  0  0  0
  -28.6148  -26.9494   20.7292 C   0  0  0  0  0  0  0  0  0  0  0  0
  -27.0043  -27.2104   18.7681 C   0  0  0  0  0  0  0  0  0  0  0  0
  -23.9182  -12.6229   19.9237 C   0  0  0  0  0  0  0  0  0  0  0  0
  -25.4156  -19.0631   19.2490 C   0  0  0  0  0  0  0  0  0  0  0  0
  -23.9335  -13.9433   20.4122 C   0  0  0  0  0  0  0  0  0  0  0  0
  -25.9106  -19.8340   20.3105 C   0  0  0  0  0  0  0  0  0  0  0  0
  -20.4517  -26.5756   23.5678 C   0  0  0  0  0  0  0  0  0  0  0  0
  -30.8941  -25.9417   21.9828 C   0  0  0  0  0  0  0  0  0  0  0  0
  -23.9223  -21.2291   20.2080 C   0  0  0  0  0  0  0  0  0  0  0  0
  -20.6827  -24.3689   22.6117 C   0  0  0  0  0  0  0  0  0  0  0  0
  -31.8721  -24.9750   23.8885 C   0  0  0  0  0  0  0  0  0  0  0  0
  -31.6029  -24.0225   26.4967 C   0  0  0  0  0  0  0  0  0  0  0  0
  -32.1750  -23.6450   24.1800 C   0  0  0  0  0  0  0  0  0  0  0  0
  -27.4371  -27.4697   20.0824 C   0  0  0  0  0  0  0  0  0  0  0  0
  -25.8447  -27.9350   18.6392 C   0  0  0  0  0  0  0  0  0  0  0  0
  -27.5975  -26.3880   17.7545 C   0  0  0  0  0  0  0  0  0  0  0  0
  -26.5591  -16.5181   20.7720 C   0  0  0  0  0  0  0  0  0  0  0  0
  -29.3424  -18.1796   20.6483 C   0  0  0  0  0  0  0  0  0  0  0  0
  -30.9021  -21.2039   20.3876 C   0  0  0  0  0  0  0  0  0  0  0  0
  -21.8248  -29.9351   22.6005 C   0  0  0  0  0  0  0  0  0  0  0  0
  -25.0661  -11.6746   20.1645 C   0  0  0  0  0  0  0  0  0  0  0  0
  -26.2194  -17.9157   18.7013 C   0  0  0  0  0  0  0  0  0  0  0  0
  -27.2346  -19.5305   20.9611 C   0  0  0  0  0  0  0  0  0  0  0  0
  -26.3611  -12.3756   20.5667 C   0  0  0  0  0  0  0  0  0  0  0  0
  -23.6939  -31.8820   20.2782 C   0  0  0  0  0  0  0  0  0  0  0  0
  -26.0902  -13.4198   21.6452 C   0  0  0  0  0  0  0  0  0  0  0  0
  -24.8261  -30.9485   19.8461 C   0  0  0  0  0  0  0  0  0  0  0  0
  -23.3437  -31.6992   21.7533 C   0  0  0  0  0  0  0  0  0  0  0  0
  -24.1717  -29.3782   21.7182 C   0  0  0  0  0  0  0  0  0  0  0  0
  -25.1384  -14.5076   21.1332 C   0  0  1  0  0  0  0  0  0  0  0  0
  -27.2168  -17.3506   19.7080 C   0  0  1  0  0  0  0  0  0  0  0  0
  -24.5225  -29.4863   20.2243 C   0  0  2  0  0  0  0  0  0  0  0  0
  -33.1842  -22.2470   20.3548 C   0  0  0  0  0  0  0  0  0  0  0  0
  -29.5524  -17.8094   23.6697 C   0  0  0  0  0  0  0  0  0  0  0  0
  -31.2738  -19.6271   23.7026 C   0  0  0  0  0  0  0  0  0  0  0  0
  -31.7066  -17.5248   22.4315 C   0  0  0  0  0  0  0  0  0  0  0  0
  -30.4955  -22.2857   17.6630 C   0  0  0  0  0  0  0  0  0  0  0  0
  -20.4143  -28.0573   23.4027 C   0  0  0  0  0  0  0  0  0  0  0  0
  -22.3673  -22.9678   19.7448 C   0  0  0  0  0  0  0  0  0  1  0  0
  -21.6523  -24.0998   20.4569 C   0  0  0  0  0  0  0  0  0  0  0  0
  -30.0254  -19.1889   21.5391 C   0  0  1  0  0  0  0  0  0  0  0  0
  -32.0537  -21.6715   19.5161 C   0  0  2  0  0  0  0  0  0  0  0  0
  -30.6136  -18.5423   22.8250 C   0  0  0  0  0  0  0  0  0  0  0  0
  -26.6190  -28.2947   20.7413 N   0  0  0  0  0  0  0  0  0  0  0  0
  -25.6607  -28.5602   19.8373 N   0  0  0  0  0  0  0  0  0  0  0  0
  -27.9805  -18.3948   20.3940 N   0  0  0  0  0  0  0  0  0  0  0  0
  -23.0652  -30.2910   22.0456 N   0  0  0  0  0  0  0  0  0  0  0  0
  -24.9747  -28.0921   17.6190 N   0  0  0  0  0  0  0  0  0  0  0  0
  -28.7889  -25.7133   18.0540 N   0  0  0  0  0  0  0  0  0  0  0  0
  -25.8471  -15.4397   20.2826 N   0  0  0  0  0  0  0  0  0  0  0  0
  -31.0127  -19.8668   20.7059 N   0  0  0  0  0  0  0  0  0  0  0  0
  -21.6402  -28.5790   22.8406 N   0  0  0  0  0  0  0  0  0  0  0  0
  -31.5909  -22.7227   18.5665 N   0  3  0  0  0  0  0  0  0  0  0  0
  -27.0950  -26.2684   16.6114 O   0  0  0  0  0  0  0  0  0  0  0  0
  -26.6893  -16.8302   21.9498 O   0  0  0  0  0  0  0  0  0  0  0  0
  -29.9949  -17.2390   20.1889 O   0  0  0  0  0  0  0  0  0  0  0  0
  -29.9970  -21.9509   20.7529 O   0  0  0  0  0  0  0  0  0  0  0  0
  -20.9450  -30.7638   22.8575 O   0  0  0  0  0  0  0  0  0  0  0  0
  -32.0061  -25.4496   22.5944 O   0  0  0  0  0  0  0  0  0  0  0  0
  -23.1972  -22.2796   20.6797 O   0  0  0  0  0  0  0  0  0  1  0  0
  -20.8763  -23.5625   21.5211 O   0  0  0  0  0  0  0  0  0  0  0  0
  -31.4750  -23.5657   27.7493 F   0  0  0  0  0  0  0  0  0  0  0  0
  -32.5968  -22.8204   23.2115 F   0  0  0  0  0  0  0  0  0  0  0  0
  1  2  1  0  0  0  0
  1  6  2  0  0  0  0
  2  7  2  0  0  0  0
  3  9  1  0  0  0  0
  3 10  2  0  0  0  0
  4 11  2  0  0  0  0
  4 19  1  0  0  0  0
  5 12  1  0  0  0  0
  5 19  2  0  0  0  0
  6 21  1  0  0  0  0
  7 23  1  0  0  0  0
  8 13  2  0  0  0  0
  8 22  1  0  0  0  0
  9 25  2  0  0  0  0
 10 28  1  0  0  0  0
 11 26  1  0  0  0  0
 12 26  2  0  0  0  0
 13 27  1  0  0  0  0
 14 15  2  0  0  0  0
 14 29  1  0  0  0  0
 15 30  1  0  0  0  0
 16 24  1  0  0  0  0
 16 27  2  0  0  0  0
 17 25  1  0  0  0  0
 17 28  2  0  0  0  0
 18 30  2  0  0  0  0
 18 31  1  0  0  0  0
 19 32  1  0  0  0  0
 20 32  1  0  0  0  0
 20 33  2  0  0  0  0
 20 34  1  0  0  0  0
 21 23  2  0  0  0  0
 21 39  1  0  0  0  0
 22 24  2  0  0  0  0
 22 40  1  0  0  0  0
 23 48  1  0  0  0  0
 24 41  1  0  0  0  0
 25 56  1  0  0  0  0
 26 77  1  0  0  0  0
 27 78  1  0  0  0  0
 28 79  1  0  0  0  0
 29 31  2  0  0  0  0
 29 77  1  0  0  0  0
 30 80  1  0  0  0  0
 31 81  1  0  0  0  0
 32 62  2  0  0  0  0
 33 63  1  0  0  0  0
 33 66  1  0  0  0  0
 34 67  1  0  0  0  0
 34 72  2  0  0  0  0
 35 49  1  0  0  0  0
 35 68  1  0  0  0  0
 35 73  2  0  0  0  0
 36 59  1  0  0  0  0
 36 64  1  0  0  0  0
 36 74  2  0  0  0  0
 37 60  1  0  0  0  0
 37 69  1  0  0  0  0
 37 75  2  0  0  0  0
 38 65  1  0  0  0  0
 38 70  1  0  0  0  0
 38 76  2  0  0  0  0
 39 42  1  0  0  0  0
 40 49  1  0  0  0  0
 41 64  1  0  0  0  0
 42 44  1  0  0  0  0
 43 45  1  0  0  0  0
 43 46  1  0  0  0  0
 44 48  1  0  0  0  0
 45 50  1  0  0  0  0
 46 65  1  0  0  0  0
 47 50  1  0  0  0  0
 47 65  1  0  0  0  0
 48 68  1  0  0  0  0
 49 64  1  0  0  0  0
 50 63  1  0  0  0  0
 51 60  1  0  0  0  0
 52 61  1  0  0  0  0
 53 61  1  0  0  0  0
 54 61  1  0  0  0  0
 55 71  1  0  0  0  0
 56 70  1  0  0  0  0
 57 58  1  0  0  0  0
 57 78  1  0  0  0  0
 58 79  1  0  0  0  0
 59 61  1  0  0  0  0
 59 69  1  0  0  0  0
 60 71  1  0  0  0  0
 62 63  1  0  0  0  0
M  CHG  1  71   1
M  ISO  4  38 100  57 101  70 100  78 101
M  END
> <Batch ID>
0128

> <Smiles>
CNC(C)C(=O)NC(C(=O)N1Cc2cc([101O:1][101CH2:1]COc3cccc(C[100NH:0][100C:0](=O)N4CCCC(n5nc(-c6ccc(Oc7ccc(F)cc7F)cc6)c(C(N)=O)c5N)C4)c3)ccc2CC1C(=O)NC1CCCc2ccccc21)C(C)(C)C

> <Shape>
0.209

> <Color>
0.071

> <Negative vol penalty>
0.000

$$$$

  -OEChem-04052320423D

 90 99  0     1  0  0  0  0  0999 V2000
  -16.8981  -29.8210   24.4052 C   0  0  0  0  0  0  0  0  0  0  0  0
  -16.9656  -28.4500   24.1786 C   0  0  0  0  0  0  0  0  0  0  0  0
  -23.2165   -9.6847   20.5022 C   0  0  0  0  0  0  0  0  0  0  0  0
  -23.7675  -10.2809   22.7778 C   0  0  0  0  0  0  0  0  0  0  0  0
  -17.8988  -30.6578   23.9130 C   0  0  0  0  0  0  0  0  0  0  0  0
  -18.0334  -27.9152   23.4588 C   0  0  0  0  0  0  0  0  0  0  0  0
  -22.3505  -22.9405   26.3754 C   0  0  0  0  0  0  0  0  0  0  0  0
  -22.4958   -8.5839   20.9651 C   0  0  0  0  0  0  0  0  0  0  0  0
  -23.0467   -9.1801   23.2407 C   0  0  0  0  0  0  0  0  0  0  0  0
  -23.0928  -21.8337   26.7877 C   0  0  0  0  0  0  0  0  0  0  0  0
  -23.1603   -5.4683   22.0946 C   0  0  0  0  0  0  0  0  0  0  0  0
  -23.3482   -4.2503   21.4414 C   0  0  0  0  0  0  0  0  0  0  0  0
  -24.3869  -21.9280   24.7470 C   0  0  0  0  0  0  0  0  0  0  0  0
  -21.0003   -4.1917   20.8750 C   0  0  0  0  0  0  0  0  0  0  0  0
  -23.8525  -10.5332   21.4085 C   0  0  0  0  0  0  0  0  0  0  0  0
  -24.1115  -12.9724   20.7077 C   0  0  0  0  0  0  0  0  0  0  0  0
  -18.9845  -30.1318   23.1951 C   0  0  0  0  0  0  0  0  0  0  0  0
  -22.6341  -23.5555   25.1528 C   0  0  0  0  0  0  0  0  0  0  0  0
  -19.0489  -28.7459   22.9554 C   0  0  0  0  0  0  0  0  0  0  0  0
  -23.6549  -23.0446   24.3344 C   0  0  0  0  0  0  0  0  0  0  0  0
  -22.4108   -8.3316   22.3343 C   0  0  0  0  0  0  0  0  0  0  0  0
  -24.1083  -21.3286   25.9753 C   0  0  0  0  0  0  0  0  0  0  0  0
  -21.8923   -6.0480   22.1381 C   0  0  0  0  0  0  0  0  0  0  0  0
  -22.2683   -3.6120   20.8315 C   0  0  0  0  0  0  0  0  0  0  0  0
  -20.8123   -5.4097   21.5283 C   0  0  0  0  0  0  0  0  0  0  0  0
  -24.5976  -11.6702   20.9310 C   0  0  0  0  0  0  0  0  0  0  0  0
  -25.2037  -13.6746   20.2602 C   0  0  0  0  0  0  0  0  0  0  0  0
  -30.6359  -19.5939   24.2447 C   0  0  0  0  0  0  0  0  0  0  0  0
  -22.7907  -13.5000   20.8888 C   0  0  0  0  0  0  0  0  0  0  0  0
  -21.8130  -26.3038   22.7344 C   0  0  0  0  0  0  0  0  0  0  0  0
  -24.8700  -26.0577   22.7992 C   0  0  0  0  0  0  0  0  0  0  0  0
  -28.1996  -25.7503   23.4751 C   0  0  0  0  0  0  0  0  0  0  0  0
  -30.6079  -15.0194   20.6236 C   0  0  0  0  0  0  0  0  0  0  0  0
  -20.0175  -31.0814   22.6422 C   0  0  0  0  0  0  0  0  0  0  0  0
  -21.8195  -24.7122   24.6406 C   0  0  0  0  0  0  0  0  0  0  0  0
  -23.9019  -23.7172   23.0117 C   0  0  0  0  0  0  0  0  0  0  0  0
  -21.3096  -30.3921   22.2112 C   0  0  0  0  0  0  0  0  0  0  0  0
  -29.7759  -12.0743   18.8039 C   0  0  0  0  0  0  0  0  0  0  0  0
  -21.0008  -29.1491   21.3828 C   0  0  0  0  0  0  0  0  0  0  0  0
  -28.3172  -11.8109   19.1815 C   0  0  0  0  0  0  0  0  0  0  0  0
  -30.9269  -22.5499   23.6218 C   0  0  0  0  0  0  0  0  0  0  0  0
  -30.5376  -22.0711   22.2230 C   0  0  0  0  0  0  0  0  0  0  0  0
  -30.1712  -17.3583   23.7907 C   0  0  0  0  0  0  0  0  0  0  0  0
  -30.5733  -12.6266   19.9834 C   0  0  0  0  0  0  0  0  0  0  0  0
  -28.5298  -13.5575   20.9990 C   0  0  0  0  0  0  0  0  0  0  0  0
  -20.2042  -28.1252   22.2004 C   0  0  1  0  0  0  0  0  0  0  0  0
  -30.5193  -19.5562   22.7270 C   0  0  1  0  0  0  0  0  0  0  0  0
  -30.0732  -18.3718   24.9134 C   0  0  2  0  0  0  0  0  0  0  0  0
  -22.6518  -25.7274   23.8369 C   0  0  1  0  0  0  0  0  0  0  0  0
  -29.8929  -18.1467   22.5011 C   0  0  1  0  0  0  0  0  0  0  0  0
  -27.6719  -13.0524   19.8263 C   0  0  2  0  0  0  0  0  0  0  0  0
  -31.8985  -21.6046   24.3242 C   0  0  1  0  0  0  0  0  0  0  0  0
  -29.7157  -20.7570   22.1305 C   0  0  0  0  0  0  0  0  0  0  0  0
  -32.6387  -22.3467   25.4397 C   0  0  0  0  0  0  0  0  0  0  0  0
  -28.3438  -20.9638   22.8075 C   0  0  0  0  0  0  0  0  0  0  0  0
  -29.4471  -20.5263   20.6243 C   0  0  0  0  0  0  0  0  0  0  0  0
  -30.4355  -26.6889   22.8293 C   0  0  0  0  0  0  0  0  0  0  0  0
  -24.7766  -24.4768   20.1923 C   0  0  0  0  0  0  0  0  0  0  0  0
  -27.2708  -24.6588   20.0751 C   0  0  0  0  0  0  0  0  0  0  0  0
  -25.8674  -26.7202   20.0138 C   0  0  0  0  0  0  0  0  0  0  0  0
  -28.7325  -26.6866   26.2316 C   0  0  0  0  0  0  0  0  0  0  0  0
  -30.4845  -17.4028   21.3042 C   0  0  0  0  0  0  0  0  0  0  0  0
  -28.4905  -19.2963   26.6105 C   0  0  0  0  0  0  0  0  0  0  0  0
  -26.1840  -20.1663   25.9321 C   0  0  0  0  0  0  0  0  0  1  0  0
  -26.1031  -25.4454   22.1843 C   0  0  1  0  0  0  0  0  0  0  0  0
  -29.2630  -26.7860   23.7928 C   0  0  2  0  0  0  0  0  0  0  0  0
  -27.0130  -19.4199   26.9724 C   0  0  1  0  0  0  0  0  0  0  0  0
  -25.9918  -25.3137   20.6391 C   0  0  0  0  0  0  0  0  0  0  0  0
  -25.8975  -11.5496   20.6484 N   0  0  0  0  0  0  0  0  0  0  0  0
  -31.1963  -20.4978   24.9640 N   0  0  0  0  0  0  0  0  0  0  0  0
  -26.2374  -12.7850   20.2429 N   0  0  0  0  0  0  0  0  0  0  0  0
  -23.8464  -25.1786   23.1731 N   0  0  0  0  0  0  0  0  0  0  0  0
  -29.9086  -13.8035   20.5482 N   0  0  0  0  0  0  0  0  0  0  0  0
  -25.3712  -14.9601   19.8836 N   0  0  0  0  0  0  0  0  0  0  0  0
  -21.7864  -12.6413   21.3562 N   0  0  0  0  0  0  0  0  0  0  0  0
  -21.0781  -27.4128   23.1078 N   0  0  0  0  0  0  0  0  0  0  0  0
  -27.2295  -26.2554   22.6355 N   0  0  0  0  0  0  0  0  0  0  0  0
  -29.9024  -16.0864   21.1663 N   0  0  0  0  0  0  0  0  0  0  0  0
  -28.6641  -18.5795   25.3160 N   0  3  0  0  0  0  0  0  0  0  0  0
  -29.7762  -26.5931   25.1786 N   0  3  0  0  0  0  0  0  0  0  0  0
  -22.5056  -14.6934   20.6279 O   0  0  0  0  0  0  0  0  0  0  0  0
  -21.8314  -25.7825   21.6256 O   0  0  0  0  0  0  0  0  0  0  0  0
  -24.8110  -27.2824   22.9401 O   0  0  0  0  0  0  0  0  0  0  0  0
  -28.2288  -24.6064   23.9236 O   0  0  0  0  0  0  0  0  0  0  0  0
  -31.7727  -15.1461   20.2311 O   0  0  0  0  0  0  0  0  0  0  0  0
  -26.4535  -18.1171   27.1461 O   0  0  0  0  0  0  0  0  0  0  0  0
  -21.7074   -7.2576   22.7864 O   0  0  0  0  0  0  0  0  0  0  0  0
  -24.8366  -20.2439   26.3885 O   0  0  0  0  0  0  0  0  0  1  0  0
  -22.4493   -2.4431   20.2029 F   0  0  0  0  0  0  0  0  0  0  0  0
  -19.5920   -5.9623   21.5657 F   0  0  0  0  0  0  0  0  0  0  0  0
  1  2  1  0  0  0  0
  1  5  2  0  0  0  0
  2  6  2  0  0  0  0
  3  8  2  0  0  0  0
  3 15  1  0  0  0  0
  4  9  1  0  0  0  0
  4 15  2  0  0  0  0
  5 17  1  0  0  0  0
  6 19  1  0  0  0  0
  7 10  2  0  0  0  0
  7 18  1  0  0  0  0
  8 21  1  0  0  0  0
  9 21  2  0  0  0  0
 10 22  1  0  0  0  0
 11 12  2  0  0  0  0
 11 23  1  0  0  0  0
 12 24  1  0  0  0  0
 13 20  1  0  0  0  0
 13 22  2  0  0  0  0
 14 24  2  0  0  0  0
 14 25  1  0  0  0  0
 15 26  1  0  0  0  0
 16 26  1  0  0  0  0
 16 27  2  0  0  0  0
 16 29  1  0  0  0  0
 17 19  2  0  0  0  0
 17 34  1  0  0  0  0
 18 20  2  0  0  0  0
 18 35  1  0  0  0  0
 19 46  1  0  0  0  0
 20 36  1  0  0  0  0
 21 87  1  0  0  0  0
 22 88  1  0  0  0  0
 23 25  2  0  0  0  0
 23 87  1  0  0  0  0
 24 89  1  0  0  0  0
 25 90  1  0  0  0  0
 26 69  2  0  0  0  0
 27 71  1  0  0  0  0
 27 74  1  0  0  0  0
 28 47  1  0  0  0  0
 28 48  1  0  0  0  0
 28 70  2  0  0  0  0
 29 75  1  0  0  0  0
 29 81  2  0  0  0  0
 30 49  1  0  0  0  0
 30 76  1  0  0  0  0
 30 82  2  0  0  0  0
 31 65  1  0  0  0  0
 31 72  1  0  0  0  0
 31 83  2  0  0  0  0
 32 66  1  0  0  0  0
 32 77  1  0  0  0  0
 32 84  2  0  0  0  0
 33 73  1  0  0  0  0
 33 78  1  0  0  0  0
 33 85  2  0  0  0  0
 34 37  1  0  0  0  0
 35 49  1  0  0  0  0
 36 72  1  0  0  0  0
 37 39  1  0  0  0  0
 38 40  1  0  0  0  0
 38 44  1  0  0  0  0
 39 46  1  0  0  0  0
 40 51  1  0  0  0  0
 41 42  1  0  0  0  0
 41 52  1  0  0  0  0
 42 53  1  0  0  0  0
 43 48  1  0  0  0  0
 43 50  1  0  0  0  0
 44 73  1  0  0  0  0
 45 51  1  0  0  0  0
 45 73  1  0  0  0  0
 46 76  1  0  0  0  0
 47 50  1  0  0  0  0
 47 53  1  0  0  0  0
 48 79  1  0  0  0  0
 49 72  1  0  0  0  0
 50 62  1  0  0  0  0
 51 71  1  0  0  0  0
 52 54  1  0  0  0  0
 52 70  1  0  0  0  0
 53 55  1  0  0  0  0
 53 56  1  0  0  0  0
 57 66  1  0  0  0  0
 58 68  1  0  0  0  0
 59 68  1  0  0  0  0
 60 68  1  0  0  0  0
 61 80  1  0  0  0  0
 62 78  1  0  0  0  0
 63 67  1  0  0  0  0
 63 79  1  0  0  0  0
 64 67  1  0  0  0  0
 64 88  1  0  0  0  0
 65 68  1  0  0  0  0
 65 77  1  0  0  0  0
 66 80  1  0  0  0  0
 67 86  1  0  0  0  0
 69 71  1  0  0  0  0
M  CHG  2  79   1  80   1
M  ISO  4  33 100  64 101  78 100  88 101
M  END
> <Batch ID>
0128

> <Smiles>
CNC(C)C(=O)NC(C(=O)N1Cc2cc([101O:1][101CH2:1]C(O)CNC3CC(C[100NH:0][100C:0](=O)N4CCCC(n5nc(-c6ccc(Oc7ccc(F)cc7F)cc6)c(C(N)=O)c5N)C4)C4=C3NC(C)CCC4(C)C)ccc2CC1C(=O)NC1CCCc2ccccc21)C(C)(C)C

> <Shape>
0.245

> <Color>
0.159

> <Negative vol penalty>
0.000

$$$$

  -OEChem-04052320423D

 83 92  0     1  0  0  0  0  0999 V2000
  -29.9101  -13.5625   21.7973 C   0  0  0  0  0  0  0  0  0  0  0  0
  -29.5776  -14.7491   22.4429 C   0  0  0  0  0  0  0  0  0  0  0  0
  -30.1765  -23.8547   20.0037 C   0  0  0  0  0  0  0  0  0  0  0  0
  -28.0815  -23.5949   18.8288 C   0  0  0  0  0  0  0  0  0  0  0  0
  -29.2879  -13.2258   20.5959 C   0  0  0  0  0  0  0  0  0  0  0  0
  -28.6234  -15.6003   21.8868 C   0  0  0  0  0  0  0  0  0  0  0  0
  -23.4911  -20.2268   23.7767 C   0  0  0  0  0  0  0  0  0  0  0  0
  -30.3261  -22.4685   20.0434 C   0  0  0  0  0  0  0  0  0  0  0  0
  -28.2311  -22.2087   18.8685 C   0  0  0  0  0  0  0  0  0  0  0  0
  -23.0780  -21.5359   23.5329 C   0  0  0  0  0  0  0  0  0  0  0  0
  -31.0823  -18.9868   20.7710 C   0  0  0  0  0  0  0  0  0  0  0  0
  -31.4854  -18.4107   21.9757 C   0  0  0  0  0  0  0  0  0  0  0  0
  -22.0108  -20.8130   21.4938 C   0  0  0  0  0  0  0  0  0  0  0  0
  -22.2390  -26.2461   21.6428 C   0  0  0  0  0  0  0  0  0  0  0  0
  -29.5208  -19.3053   23.0608 C   0  0  0  0  0  0  0  0  0  0  0  0
  -20.6573  -26.0627   23.2347 C   0  0  0  0  0  0  0  0  0  0  0  0
  -29.0541  -24.4180   19.3964 C   0  0  0  0  0  0  0  0  0  0  0  0
  -29.3529  -26.7259   18.3515 C   0  0  0  0  0  0  0  0  0  0  0  0
  -28.3185  -14.0687   20.0297 C   0  0  0  0  0  0  0  0  0  0  0  0
  -23.1759  -19.2011   22.8738 C   0  0  0  0  0  0  0  0  0  0  0  0
  -27.9885  -15.2753   20.6760 C   0  0  0  0  0  0  0  0  0  0  0  0
  -22.4189  -19.4913   21.7298 C   0  0  0  0  0  0  0  0  0  0  0  0
  -21.7454  -25.4222   22.6843 C   0  0  0  0  0  0  0  0  0  0  0  0
  -29.3535  -21.6455   19.4758 C   0  0  0  0  0  0  0  0  0  0  0  0
  -22.3403  -21.8297   22.3898 C   0  0  0  0  0  0  0  0  0  0  0  0
  -29.8985  -19.7222   20.7112 C   0  0  0  0  0  0  0  0  0  0  0  0
  -30.7046  -18.5700   23.1206 C   0  0  0  0  0  0  0  0  0  0  0  0
  -29.1178  -19.8814   21.8561 C   0  0  0  0  0  0  0  0  0  0  0  0
  -28.8987  -25.8498   19.3555 C   0  0  0  0  0  0  0  0  0  0  0  0
  -21.4375  -27.3650   21.5886 C   0  0  0  0  0  0  0  0  0  0  0  0
  -28.9586  -27.9706   18.7778 C   0  0  0  0  0  0  0  0  0  0  0  0
  -30.0673  -26.4401   17.1417 C   0  0  0  0  0  0  0  0  0  0  0  0
  -24.8658  -17.2130   21.0585 C   0  0  0  0  0  0  0  0  0  0  0  0
  -21.9552  -15.9179   20.4473 C   0  0  0  0  0  0  0  0  0  0  0  0
  -18.5697  -16.3294   20.3211 C   0  0  0  0  0  0  0  0  0  0  0  0
  -24.5663  -29.8406   22.3920 C   0  0  0  0  0  0  0  0  0  0  0  0
  -27.7074  -13.6852   18.7053 C   0  0  0  0  0  0  0  0  0  0  0  0
  -23.6060  -17.7895   23.1648 C   0  0  0  0  0  0  0  0  0  0  0  0
  -22.0371  -18.4226   20.7395 C   0  0  0  0  0  0  0  0  0  0  0  0
  -26.4350  -14.4609   18.3742 C   0  0  0  0  0  0  0  0  0  0  0  0
  -17.2507  -28.7633   23.0230 C   0  0  0  0  0  0  0  0  0  0  0  0
  -28.0541  -30.4491   22.7690 C   0  0  0  0  0  0  0  0  0  0  0  0
  -26.6339  -15.9502   18.6375 C   0  0  0  0  0  0  0  0  0  0  0  0
  -18.1920  -28.4941   21.8334 C   0  0  0  0  0  0  0  0  0  0  0  0
  -18.2051  -27.9022   23.8724 C   0  0  0  0  0  0  0  0  0  0  0  0
  -28.7070  -29.4184   21.8464 C   0  0  0  0  0  0  0  0  0  0  0  0
  -26.8065  -29.8883   23.4482 C   0  0  0  0  0  0  0  0  0  0  0  0
  -26.4562  -28.2892   21.6059 C   0  0  0  0  0  0  0  0  0  0  0  0
  -26.9403  -16.2127   20.1170 C   0  0  1  0  0  0  0  0  0  0  0  0
  -23.6689  -16.9147   21.9166 C   0  0  1  0  0  0  0  0  0  0  0  0
  -19.3356  -28.2929   22.8731 C   0  0  0  0  0  0  0  0  0  0  0  0
  -27.6866  -28.8269   20.8553 C   0  0  2  0  0  0  0  0  0  0  0  0
  -16.4562  -15.1033   19.7490 C   0  0  0  0  0  0  0  0  0  0  0  0
  -22.5722  -16.2453   17.4771 C   0  0  0  0  0  0  0  0  0  0  0  0
  -20.1354  -15.9158   17.0059 C   0  0  0  0  0  0  0  0  0  0  0  0
  -21.4544  -14.0906   18.0791 C   0  0  0  0  0  0  0  0  0  0  0  0
  -17.5147  -16.6285   23.0700 C   0  0  0  0  0  0  0  0  0  0  0  0
  -22.3036  -24.0960   23.1097 C   0  0  0  0  0  0  0  0  0  1  0  0
  -21.5063  -28.5373   20.6922 C   0  0  0  0  0  0  0  0  0  0  0  0
  -22.3812  -29.6857   21.2256 C   0  0  0  0  0  0  0  0  0  0  0  0
  -20.8744  -16.1540   19.4200 C   0  0  1  0  0  0  0  0  0  0  0  0
  -17.4310  -15.4787   20.8542 C   0  0  2  0  0  0  0  0  0  0  0  0
  -21.2678  -15.6221   18.0130 C   0  0  0  0  0  0  0  0  0  0  0  0
  -28.2645  -26.4842   20.3452 N   0  0  0  0  0  0  0  0  0  0  0  0
  -20.4796  -27.2428   22.5610 N   0  0  0  0  0  0  0  0  0  0  0  0
  -28.3174  -27.7722   19.9651 N   0  0  0  0  0  0  0  0  0  0  0  0
  -22.4864  -17.0589   21.0651 N   0  0  0  0  0  0  0  0  0  0  0  0
  -25.8790  -29.3446   22.4532 N   0  0  0  0  0  0  0  0  0  0  0  0
  -29.1012  -29.2045   18.2491 N   0  0  0  0  0  0  0  0  0  0  0  0
  -30.3930  -25.1070   16.8572 N   0  0  0  0  0  0  0  0  0  0  0  0
  -25.7278  -16.1442   20.9041 N   0  0  0  0  0  0  0  0  0  0  0  0
  -19.6575  -15.5610   19.9642 N   0  0  0  0  0  0  0  0  0  0  0  0
  -23.7546  -29.2754   21.4161 N   0  0  0  0  0  0  0  0  0  0  0  0
  -16.6826  -16.2178   21.9100 N   0  3  0  0  0  0  0  0  0  0  0  0
  -30.4211  -27.3420   16.3449 O   0  0  0  0  0  0  0  0  0  0  0  0
  -24.9966  -18.3298   20.5712 O   0  0  0  0  0  0  0  0  0  0  0  0
  -22.3098  -14.7633   20.6976 O   0  0  0  0  0  0  0  0  0  0  0  0
  -18.4996  -17.5528   20.2269 O   0  0  0  0  0  0  0  0  0  0  0  0
  -24.1502  -30.7257   23.1473 O   0  0  0  0  0  0  0  0  0  0  0  0
  -29.4993  -20.2928   19.5142 O   0  0  0  0  0  0  0  0  0  0  0  0
  -21.9364  -23.1067   22.1491 O   0  0  0  0  0  0  0  0  0  1  0  0
  -31.0911  -18.0155   24.2770 F   0  0  0  0  0  0  0  0  0  0  0  0
  -27.9789  -20.5858   21.8045 F   0  0  0  0  0  0  0  0  0  0  0  0
  1  2  1  0  0  0  0
  1  5  2  0  0  0  0
  2  6  2  0  0  0  0
  3  8  2  0  0  0  0
  3 17  1  0  0  0  0
  4  9  1  0  0  0  0
  4 17  2  0  0  0  0
  5 19  1  0  0  0  0
  6 21  1  0  0  0  0
  7 10  2  0  0  0  0
  7 20  1  0  0  0  0
  8 24  1  0  0  0  0
  9 24  2  0  0  0  0
 10 25  1  0  0  0  0
 11 12  2  0  0  0  0
 11 26  1  0  0  0  0
 12 27  1  0  0  0  0
 13 22  1  0  0  0  0
 13 25  2  0  0  0  0
 14 23  1  0  0  0  0
 14 30  2  0  0  0  0
 15 27  2  0  0  0  0
 15 28  1  0  0  0  0
 16 23  2  0  0  0  0
 16 65  1  0  0  0  0
 17 29  1  0  0  0  0
 18 29  1  0  0  0  0
 18 31  2  0  0  0  0
 18 32  1  0  0  0  0
 19 21  2  0  0  0  0
 19 37  1  0  0  0  0
 20 22  2  0  0  0  0
 20 38  1  0  0  0  0
 21 49  1  0  0  0  0
 22 39  1  0  0  0  0
 23 58  1  0  0  0  0
 24 80  1  0  0  0  0
 25 81  1  0  0  0  0
 26 28  2  0  0  0  0
 26 80  1  0  0  0  0
 27 82  1  0  0  0  0
 28 83  1  0  0  0  0
 29 64  2  0  0  0  0
 30 59  1  0  0  0  0
 30 65  1  0  0  0  0
 31 66  1  0  0  0  0
 31 69  1  0  0  0  0
 32 70  1  0  0  0  0
 32 75  2  0  0  0  0
 33 50  1  0  0  0  0
 33 71  1  0  0  0  0
 33 76  2  0  0  0  0
 34 61  1  0  0  0  0
 34 67  1  0  0  0  0
 34 77  2  0  0  0  0
 35 62  1  0  0  0  0
 35 72  1  0  0  0  0
 35 78  2  0  0  0  0
 36 68  1  0  0  0  0
 36 73  1  0  0  0  0
 36 79  2  0  0  0  0
 37 40  1  0  0  0  0
 38 50  1  0  0  0  0
 39 67  1  0  0  0  0
 40 43  1  0  0  0  0
 41 44  1  0  0  0  0
 41 45  1  0  0  0  0
 42 46  1  0  0  0  0
 42 47  1  0  0  0  0
 43 49  1  0  0  0  0
 44 51  1  0  0  0  0
 45 51  1  0  0  0  0
 46 52  1  0  0  0  0
 47 68  1  0  0  0  0
 48 52  1  0  0  0  0
 48 68  1  0  0  0  0
 49 71  1  0  0  0  0
 50 67  1  0  0  0  0
 51 65  1  0  0  0  0
 52 66  1  0  0  0  0
 53 62  1  0  0  0  0
 54 63  1  0  0  0  0
 55 63  1  0  0  0  0
 56 63  1  0  0  0  0
 57 74  1  0  0  0  0
 58 81  1  0  0  0  0
 59 60  1  0  0  0  0
 60 73  1  0  0  0  0
 61 63  1  0  0  0  0
 61 72  1  0  0  0  0
 62 74  1  0  0  0  0
 64 66  1  0  0  0  0
M  CHG  1  74   1
M  ISO  4  36 100  58 101  73 100  81 101
M  END
> <Batch ID>
0128

> <Smiles>
CNC(C)C(=O)NC(C(=O)N1Cc2cc([101O:1][101CH2:1]c3cc(CC[100NH:0][100C:0](=O)N4CCCC(n5nc(-c6ccc(Oc7ccc(F)cc7F)cc6)c(C(N)=O)c5N)C4)n(C4CCC4)c3)ccc2CC1C(=O)NC1CCCc2ccccc21)C(C)(C)C

> <Shape>
0.209

> <Color>
0.064

> <Negative vol penalty>
0.000

$$$$

  -OEChem-04052320423D

 86 95  0     1  0  0  0  0  0999 V2000
  -20.3875   -7.7657   19.0964 C   0  0  0  0  0  0  0  0  0  0  0  0
  -20.1001   -9.1249   19.1708 C   0  0  0  0  0  0  0  0  0  0  0  0
  -28.5639  -26.3317   19.1272 C   0  0  0  0  0  0  0  0  0  0  0  0
  -26.4217  -25.3227   18.6477 C   0  0  0  0  0  0  0  0  0  0  0  0
  -21.5265   -7.2600   19.7216 C   0  0  0  0  0  0  0  0  0  0  0  0
  -20.9510   -9.9790   19.8715 C   0  0  0  0  0  0  0  0  0  0  0  0
  -20.1038  -21.8964   22.7608 C   0  0  0  0  0  0  0  0  0  0  0  0
  -22.0648  -23.1678   22.1485 C   0  0  0  0  0  0  0  0  0  0  0  0
  -22.2836  -15.7947   18.4906 C   0  0  0  0  0  0  0  0  0  0  0  0
  -20.7503  -20.7187   22.3861 C   0  0  0  0  0  0  0  0  0  0  0  0
  -22.7114  -21.9900   21.7737 C   0  0  0  0  0  0  0  0  0  0  0  0
  -29.1560  -25.0688   19.1397 C   0  0  0  0  0  0  0  0  0  0  0  0
  -27.0138  -24.0598   18.6602 C   0  0  0  0  0  0  0  0  0  0  0  0
  -21.7949  -17.0086   18.9716 C   0  0  0  0  0  0  0  0  0  0  0  0
  -28.0565  -21.8199   20.9680 C   0  0  0  0  0  0  0  0  0  0  0  0
  -27.3978  -20.8021   21.6579 C   0  0  0  0  0  0  0  0  0  0  0  0
  -23.6495  -17.1394   20.5086 C   0  0  0  0  0  0  0  0  0  0  0  0
  -27.2335  -19.5234   19.6146 C   0  0  0  0  0  0  0  0  0  0  0  0
  -27.1968  -26.4587   18.8813 C   0  0  0  0  0  0  0  0  0  0  0  0
  -26.4291  -28.6185   17.7617 C   0  0  0  0  0  0  0  0  0  0  0  0
  -20.7610  -23.1210   22.6420 C   0  0  0  0  0  0  0  0  0  0  0  0
  -22.3970   -8.1099   20.4221 C   0  0  0  0  0  0  0  0  0  0  0  0
  -23.4550  -15.2377   19.0235 C   0  0  0  0  0  0  0  0  0  0  0  0
  -22.1020   -9.4839   20.5078 C   0  0  0  0  0  0  0  0  0  0  0  0
  -24.1524  -15.9195   20.0309 C   0  0  0  0  0  0  0  0  0  0  0  0
  -22.0541  -20.7654   21.8926 C   0  0  0  0  0  0  0  0  0  0  0  0
  -28.3809  -23.9329   18.9062 C   0  0  0  0  0  0  0  0  0  0  0  0
  -22.4763  -17.6797   19.9827 C   0  0  0  0  0  0  0  0  0  0  0  0
  -28.3036  -21.6895   19.6014 C   0  0  0  0  0  0  0  0  0  0  0  0
  -26.9863  -19.6539   20.9812 C   0  0  0  0  0  0  0  0  0  0  0  0
  -27.8921  -20.5412   18.9247 C   0  0  0  0  0  0  0  0  0  0  0  0
  -26.5845  -27.7629   18.8688 C   0  0  0  0  0  0  0  0  0  0  0  0
  -25.7933  -29.7251   18.2695 C   0  0  0  0  0  0  0  0  0  0  0  0
  -26.8240  -28.4299   16.3964 C   0  0  0  0  0  0  0  0  0  0  0  0
  -24.1588  -12.5528   20.5726 C   0  0  0  0  0  0  0  0  0  0  0  0
  -27.2036  -13.6236   20.2485 C   0  0  0  0  0  0  0  0  0  0  0  0
  -29.3122  -16.2699   19.8036 C   0  0  0  0  0  0  0  0  0  0  0  0
  -22.2463  -30.5685   23.0191 C   0  0  0  0  0  0  0  0  0  0  0  0
  -23.5907   -7.5097   21.1216 C   0  0  0  0  0  0  0  0  0  0  0  0
  -23.9836  -13.9407   18.4752 C   0  0  0  0  0  0  0  0  0  0  0  0
  -25.4255  -15.3741   20.6225 C   0  0  0  0  0  0  0  0  0  0  0  0
  -24.6406   -8.5407   21.5279 C   0  0  0  0  0  0  0  0  0  0  0  0
  -25.3091  -32.2401   22.3107 C   0  0  0  0  0  0  0  0  0  0  0  0
  -23.9789   -9.7407   22.1980 C   0  0  0  0  0  0  0  0  0  0  0  0
  -25.9692  -31.3594   21.2484 C   0  0  0  0  0  0  0  0  0  0  0  0
  -20.8362  -25.0712   24.1841 C   0  0  0  0  0  0  0  0  0  0  0  0
  -19.9383  -25.3256   21.8356 C   0  0  0  0  0  0  0  0  0  0  0  0
  -24.5543  -31.4074   23.3446 C   0  0  0  0  0  0  0  0  0  0  0  0
  -24.2303  -29.5837   21.7190 C   0  0  0  0  0  0  0  0  0  0  0  0
  -20.2018  -26.4040   24.5606 C   0  0  0  0  0  0  0  0  0  0  0  0
  -19.3105  -26.6562   22.2301 C   0  0  0  0  0  0  0  0  0  0  0  0
  -20.0705  -24.3807   23.0424 C   0  0  0  0  0  0  0  0  0  0  0  0
  -23.0139  -10.4462   21.2376 C   0  0  1  0  0  0  0  0  0  0  0  0
  -24.9058  -13.2124   19.4481 C   0  0  1  0  0  0  0  0  0  0  0  0
  -24.9567  -30.3814   20.6225 C   0  0  2  0  0  0  0  0  0  0  0  0
  -31.4731  -17.4861   19.4184 C   0  0  0  0  0  0  0  0  0  0  0  0
  -27.5091  -13.2906   23.2661 C   0  0  0  0  0  0  0  0  0  0  0  0
  -29.5545  -14.7295   23.1476 C   0  0  0  0  0  0  0  0  0  0  0  0
  -29.4901  -12.5537   21.9293 C   0  0  0  0  0  0  0  0  0  0  0  0
  -29.0340  -16.0715   16.8638 C   0  0  0  0  0  0  0  0  0  0  0  0
  -22.7495  -19.4979   21.4913 C   0  0  0  0  0  0  0  0  0  1  0  0
  -19.9914  -29.6325   22.5735 C   0  0  0  0  0  0  0  0  0  0  0  0
  -19.6191  -28.6617   23.6786 C   0  0  0  0  0  0  0  0  0  0  0  0
  -28.1224  -14.4976   21.0676 C   0  0  1  0  0  0  0  0  0  0  0  0
  -30.4816  -16.4782   18.8583 C   0  0  2  0  0  0  0  0  0  0  0  0
  -28.6440  -13.7774   22.3431 C   0  0  0  0  0  0  0  0  0  0  0  0
  -26.0876  -28.2815   19.9950 N   0  0  0  0  0  0  0  0  0  0  0  0
  -25.6138  -29.4749   19.5982 N   0  0  0  0  0  0  0  0  0  0  0  0
  -25.8987  -14.0996   20.0574 N   0  0  0  0  0  0  0  0  0  0  0  0
  -23.6093  -30.5023   22.6861 N   0  0  0  0  0  0  0  0  0  0  0  0
  -25.3759  -30.8779   17.7047 N   0  0  0  0  0  0  0  0  0  0  0  0
  -27.4664  -27.2346   16.0457 N   0  0  0  0  0  0  0  0  0  0  0  0
  -23.7468  -11.2635   20.2945 N   0  0  0  0  0  0  0  0  0  0  0  0
  -29.1746  -14.9455   20.1618 N   0  0  0  0  0  0  0  0  0  0  0  0
  -21.4183  -29.6801   22.3440 N   0  0  0  0  0  0  0  0  0  0  0  0
  -20.1214  -27.2856   23.3375 N   0  3  0  0  0  0  0  0  0  0  0  0
  -29.9990  -16.9767   17.5394 N   0  3  0  0  0  0  0  0  0  0  0  0
  -26.6283  -29.3026   15.5169 O   0  0  0  0  0  0  0  0  0  0  0  0
  -23.9714  -13.1677   21.6160 O   0  0  0  0  0  0  0  0  0  0  0  0
  -27.6301  -12.5613   19.7890 O   0  0  0  0  0  0  0  0  0  0  0  0
  -28.5949  -17.1906   20.1889 O   0  0  0  0  0  0  0  0  0  0  0  0
  -21.7996  -31.3644   23.8522 O   0  0  0  0  0  0  0  0  0  0  0  0
  -28.9583  -22.7004   18.9181 O   0  0  0  0  0  0  0  0  0  0  0  0
  -22.0011  -18.8645   20.4545 O   0  0  0  0  0  0  0  0  0  1  0  0
  -26.3552  -18.6760   21.6442 F   0  0  0  0  0  0  0  0  0  0  0  0
  -28.1278  -20.4097   17.6121 F   0  0  0  0  0  0  0  0  0  0  0  0
  1  2  1  0  0  0  0
  1  5  2  0  0  0  0
  2  6  2  0  0  0  0
  3 12  2  0  0  0  0
  3 19  1  0  0  0  0
  4 13  1  0  0  0  0
  4 19  2  0  0  0  0
  5 22  1  0  0  0  0
  6 24  1  0  0  0  0
  7 10  2  0  0  0  0
  7 21  1  0  0  0  0
  8 11  1  0  0  0  0
  8 21  2  0  0  0  0
  9 14  2  0  0  0  0
  9 23  1  0  0  0  0
 10 26  1  0  0  0  0
 11 26  2  0  0  0  0
 12 27  1  0  0  0  0
 13 27  2  0  0  0  0
 14 28  1  0  0  0  0
 15 16  2  0  0  0  0
 15 29  1  0  0  0  0
 16 30  1  0  0  0  0
 17 25  1  0  0  0  0
 17 28  2  0  0  0  0
 18 30  2  0  0  0  0
 18 31  1  0  0  0  0
 19 32  1  0  0  0  0
 20 32  1  0  0  0  0
 20 33  2  0  0  0  0
 20 34  1  0  0  0  0
 21 52  1  0  0  0  0
 22 24  2  0  0  0  0
 22 39  1  0  0  0  0
 23 25  2  0  0  0  0
 23 40  1  0  0  0  0
 24 53  1  0  0  0  0
 25 41  1  0  0  0  0
 26 61  1  0  0  0  0
 27 83  1  0  0  0  0
 28 84  1  0  0  0  0
 29 31  2  0  0  0  0
 29 83  1  0  0  0  0
 30 85  1  0  0  0  0
 31 86  1  0  0  0  0
 32 67  2  0  0  0  0
 33 68  1  0  0  0  0
 33 71  1  0  0  0  0
 34 72  1  0  0  0  0
 34 78  2  0  0  0  0
 35 54  1  0  0  0  0
 35 73  1  0  0  0  0
 35 79  2  0  0  0  0
 36 64  1  0  0  0  0
 36 69  1  0  0  0  0
 36 80  2  0  0  0  0
 37 65  1  0  0  0  0
 37 74  1  0  0  0  0
 37 81  2  0  0  0  0
 38 70  1  0  0  0  0
 38 75  1  0  0  0  0
 38 82  2  0  0  0  0
 39 42  1  0  0  0  0
 40 54  1  0  0  0  0
 41 69  1  0  0  0  0
 42 44  1  0  0  0  0
 43 45  1  0  0  0  0
 43 48  1  0  0  0  0
 44 53  1  0  0  0  0
 45 55  1  0  0  0  0
 46 50  1  0  0  0  0
 46 52  1  0  0  0  0
 47 51  1  0  0  0  0
 47 52  1  0  0  0  0
 48 70  1  0  0  0  0
 49 55  1  0  0  0  0
 49 70  1  0  0  0  0
 50 76  1  0  0  0  0
 51 76  1  0  0  0  0
 53 73  1  0  0  0  0
 54 69  1  0  0  0  0
 55 68  1  0  0  0  0
 56 65  1  0  0  0  0
 57 66  1  0  0  0  0
 58 66  1  0  0  0  0
 59 66  1  0  0  0  0
 60 77  1  0  0  0  0
 61 84  1  0  0  0  0
 62 63  1  0  0  0  0
 62 75  1  0  0  0  0
 63 76  1  0  0  0  0
 64 66  1  0  0  0  0
 64 74  1  0  0  0  0
 65 77  1  0  0  0  0
 67 68  1  0  0  0  0
M  CHG  2  76   1  77   1
M  ISO  4  38 100  61 101  75 100  84 101
M  END
> <Batch ID>
0128

> <Smiles>
CNC(C)C(=O)NC(C(=O)N1Cc2cc([101O:1][101CH2:1]c3ccc(C4CCN(CC[100NH:0][100C:0](=O)N5CCCC(n6nc(-c7ccc(Oc8ccc(F)cc8F)cc7)c(C(N)=O)c6N)C5)CC4)cc3)ccc2CC1C(=O)NC1CCCc2ccccc21)C(C)(C)C

> <Shape>
0.266

> <Color>
0.060

> <Negative vol penalty>
0.000

$$$$

  -OEChem-04052320423D

 85 94  0     1  0  0  0  0  0999 V2000
  -23.9231  -22.0518   17.7095 C   0  0  0  0  0  0  0  0  0  0  0  0
  -24.6019  -20.8760   18.0128 C   0  0  0  0  0  0  0  0  0  0  0  0
  -26.5285  -28.1306   19.0482 C   0  0  0  0  0  0  0  0  0  0  0  0
  -26.0203  -26.9759   21.1086 C   0  0  0  0  0  0  0  0  0  0  0  0
  -23.4524  -22.8685   18.7369 C   0  0  0  0  0  0  0  0  0  0  0  0
  -24.8114  -20.5166   19.3437 C   0  0  0  0  0  0  0  0  0  0  0  0
  -30.9451  -14.3449   21.1052 C   0  0  0  0  0  0  0  0  0  0  0  0
  -23.8374  -15.6234   20.2112 C   0  0  0  0  0  0  0  0  0  0  0  0
  -30.7545  -15.6354   21.5977 C   0  0  0  0  0  0  0  0  0  0  0  0
  -25.4137  -28.9487   19.2316 C   0  0  0  0  0  0  0  0  0  0  0  0
  -24.9055  -27.7940   21.2921 C   0  0  0  0  0  0  0  0  0  0  0  0
  -24.8064  -14.7017   19.8173 C   0  0  0  0  0  0  0  0  0  0  0  0
  -24.2722  -30.9329   22.3724 C   0  0  0  0  0  0  0  0  0  0  0  0
  -24.0642  -31.4666   23.6441 C   0  0  0  0  0  0  0  0  0  0  0  0
  -28.5365  -15.6624   20.6517 C   0  0  0  0  0  0  0  0  0  0  0  0
  -25.5947  -14.5670   22.0932 C   0  0  0  0  0  0  0  0  0  0  0  0
  -21.9243  -30.3512   23.7622 C   0  0  0  0  0  0  0  0  0  0  0  0
  -26.8318  -27.1442   19.9866 C   0  0  0  0  0  0  0  0  0  0  0  0
  -29.3277  -26.7028   19.6980 C   0  0  0  0  0  0  0  0  0  0  0  0
  -23.6478  -22.5141   20.0811 C   0  0  0  0  0  0  0  0  0  0  0  0
  -29.9302  -13.6947   20.3859 C   0  0  0  0  0  0  0  0  0  0  0  0
  -23.7466  -16.0327   21.5494 C   0  0  0  0  0  0  0  0  0  0  0  0
  -24.3441  -21.3300   20.3900 C   0  0  0  0  0  0  0  0  0  0  0  0
  -28.7162  -14.3645   20.1453 C   0  0  0  0  0  0  0  0  0  0  0  0
  -24.6219  -15.4921   22.5020 C   0  0  0  0  0  0  0  0  0  0  0  0
  -29.5499  -16.2936   21.3719 C   0  0  0  0  0  0  0  0  0  0  0  0
  -24.6023  -28.7804   20.3536 C   0  0  0  0  0  0  0  0  0  0  0  0
  -25.6872  -14.1755   20.7579 C   0  0  0  0  0  0  0  0  0  0  0  0
  -23.3062  -30.1084   21.7954 C   0  0  0  0  0  0  0  0  0  0  0  0
  -22.8903  -31.1758   24.3391 C   0  0  0  0  0  0  0  0  0  0  0  0
  -22.1323  -29.8175   22.4904 C   0  0  0  0  0  0  0  0  0  0  0  0
  -27.9829  -26.2985   19.7974 C   0  0  0  0  0  0  0  0  0  0  0  0
  -30.0262  -25.5327   19.5259 C   0  0  0  0  0  0  0  0  0  0  0  0
  -29.8948  -28.0183   19.7562 C   0  0  0  0  0  0  0  0  0  0  0  0
  -24.0537  -18.8056   23.0726 C   0  0  0  0  0  0  0  0  0  0  0  0
  -23.0811  -17.0634   25.6301 C   0  0  0  0  0  0  0  0  0  0  0  0
  -22.8043  -14.0029   27.1147 C   0  0  0  0  0  0  0  0  0  0  0  0
  -28.8373  -19.9721   21.1138 C   0  0  0  0  0  0  0  0  0  0  0  0
  -23.1622  -23.4526   21.1572 C   0  0  0  0  0  0  0  0  0  0  0  0
  -30.1999  -12.3167   19.8368 C   0  0  0  0  0  0  0  0  0  0  0  0
  -22.6784  -17.0076   21.9630 C   0  0  0  0  0  0  0  0  0  0  0  0
  -24.5530  -15.8835   23.9548 C   0  0  0  0  0  0  0  0  0  0  0  0
  -23.0974  -22.8112   22.5410 C   0  0  0  0  0  0  0  0  0  0  0  0
  -28.9423  -11.5883   19.3652 C   0  0  0  0  0  0  0  0  0  0  0  0
  -29.5488  -21.1125   17.7537 C   0  0  0  0  0  0  0  0  0  0  0  0
  -24.3775  -22.0333   22.8293 C   0  0  0  0  0  0  0  0  0  0  0  0
  -29.3522  -22.6228   17.8970 C   0  0  0  0  0  0  0  0  0  0  0  0
  -28.5331  -20.3409   18.5911 C   0  0  0  0  0  0  0  0  0  0  0  0
  -28.3283  -22.2117   20.1823 C   0  0  0  0  0  0  0  0  0  0  0  0
  -24.5693  -20.8936   21.8215 C   0  0  1  0  0  0  0  0  0  0  0  0
  -27.5822  -13.7062   19.3957 C   0  0  1  0  0  0  0  0  0  1  0  0
  -23.0089  -17.7419   23.2587 C   0  0  1  0  0  0  0  0  0  0  0  0
  -28.0138  -12.4957   18.5465 C   0  0  1  0  0  0  0  0  0  0  0  0
  -29.3394  -23.0482   19.3772 C   0  0  2  0  0  0  0  0  0  0  0  0
  -22.0005  -12.9006   29.2209 C   0  0  0  0  0  0  0  0  0  0  0  0
  -29.0167  -11.7130   16.3819 C   0  0  0  0  0  0  0  0  0  0  0  0
  -27.7143  -13.8581   16.4591 C   0  0  0  0  0  0  0  0  0  0  0  0
  -25.5598  -18.0677   27.0989 C   0  0  0  0  0  0  0  0  0  0  0  0
  -25.2187  -16.2426   28.7785 C   0  0  0  0  0  0  0  0  0  0  0  0
  -23.4791  -18.0063   28.4851 C   0  0  0  0  0  0  0  0  0  0  0  0
  -20.8193  -12.3745   25.6426 C   0  0  0  0  0  0  0  0  0  0  0  0
  -29.3425  -17.6732   21.8992 C   0  0  0  0  0  0  0  0  0  0  0  0
  -23.7748  -16.2469   26.6937 C   0  0  1  0  0  0  0  0  0  0  0  0
  -21.6374  -13.3200   27.8049 C   0  0  2  0  0  0  0  0  0  0  0  0
  -28.6534  -12.9314   17.2248 C   0  0  0  0  0  0  0  0  0  0  0  0
  -24.5109  -17.1348   27.7364 C   0  0  0  0  0  0  0  0  0  0  0  0
  -27.8336  -24.9750   19.6966 N   0  0  0  0  0  0  0  0  0  0  0  0
  -29.0936  -24.5375   19.5320 N   0  0  0  0  0  0  0  0  0  0  0  0
  -23.4954  -16.8446   24.3087 N   0  0  0  0  0  0  0  0  0  0  0  0
  -28.5849  -20.7801   19.9927 N   0  0  0  0  0  0  0  0  0  0  0  0
  -31.3410  -25.2684   19.3713 N   0  0  0  0  0  0  0  0  0  0  0  0
  -30.2814  -28.5246   21.0046 N   0  0  0  0  0  0  0  0  0  0  0  0
  -23.7100  -19.7769   22.1518 N   0  0  0  0  0  0  0  0  0  0  0  0
  -22.7567  -15.3726   27.2660 N   0  0  0  0  0  0  0  0  0  0  0  0
  -29.0634  -18.6270   20.8488 N   0  0  0  0  0  0  0  0  0  0  0  0
  -21.2255  -12.1054   27.0460 N   0  3  0  0  0  0  0  0  0  0  0  0
  -30.0389  -28.7304   18.7336 O   0  0  0  0  0  0  0  0  0  0  0  0
  -25.0940  -18.7501   23.7179 O   0  0  0  0  0  0  0  0  0  0  0  0
  -22.1991  -17.8605   25.9590 O   0  0  0  0  0  0  0  0  0  0  0  0
  -23.6734  -13.3830   26.5056 O   0  0  0  0  0  0  0  0  0  0  0  0
  -28.8645  -20.4176   22.2662 O   0  0  0  0  0  0  0  0  0  0  0  0
  -23.5145  -29.5786   20.5331 O   0  0  0  0  0  0  0  0  0  0  0  0
  -26.6344  -13.2763   20.3760 O   0  0  0  0  0  0  0  0  0  1  0  0
  -22.6914  -31.6871   25.5610 F   0  0  0  0  0  0  0  0  0  0  0  0
  -21.2012  -29.0251   21.9419 F   0  0  0  0  0  0  0  0  0  0  0  0
  1  2  1  0  0  0  0
  1  5  2  0  0  0  0
  2  6  2  0  0  0  0
  3 10  2  0  0  0  0
  3 18  1  0  0  0  0
  4 11  1  0  0  0  0
  4 18  2  0  0  0  0
  5 20  1  0  0  0  0
  6 23  1  0  0  0  0
  7  9  2  0  0  0  0
  7 21  1  0  0  0  0
  8 12  2  0  0  0  0
  8 22  1  0  0  0  0
  9 26  1  0  0  0  0
 10 27  1  0  0  0  0
 11 27  2  0  0  0  0
 12 28  1  0  0  0  0
 13 14  2  0  0  0  0
 13 29  1  0  0  0  0
 14 30  1  0  0  0  0
 15 24  1  0  0  0  0
 15 26  2  0  0  0  0
 16 25  1  0  0  0  0
 16 28  2  0  0  0  0
 17 30  2  0  0  0  0
 17 31  1  0  0  0  0
 18 32  1  0  0  0  0
 19 32  1  0  0  0  0
 19 33  2  0  0  0  0
 19 34  1  0  0  0  0
 20 23  2  0  0  0  0
 20 39  1  0  0  0  0
 21 24  2  0  0  0  0
 21 40  1  0  0  0  0
 22 25  2  0  0  0  0
 22 41  1  0  0  0  0
 23 50  1  0  0  0  0
 24 51  1  0  0  0  0
 25 42  1  0  0  0  0
 26 62  1  0  0  0  0
 27 82  1  0  0  0  0
 28 83  1  0  0  0  0
 29 31  2  0  0  0  0
 29 82  1  0  0  0  0
 30 84  1  0  0  0  0
 31 85  1  0  0  0  0
 32 67  2  0  0  0  0
 33 68  1  0  0  0  0
 33 71  1  0  0  0  0
 34 72  1  0  0  0  0
 34 77  2  0  0  0  0
 35 52  1  0  0  0  0
 35 73  1  0  0  0  0
 35 78  2  0  0  0  0
 36 63  1  0  0  0  0
 36 69  1  0  0  0  0
 36 79  2  0  0  0  0
 37 64  1  0  0  0  0
 37 74  1  0  0  0  0
 37 80  2  0  0  0  0
 38 70  1  0  0  0  0
 38 75  1  0  0  0  0
 38 81  2  0  0  0  0
 39 43  1  0  0  0  0
 40 44  1  0  0  0  0
 41 52  1  0  0  0  0
 42 69  1  0  0  0  0
 43 46  1  0  0  0  0
 44 53  1  0  0  0  0
 45 47  1  0  0  0  0
 45 48  1  0  0  0  0
 46 50  1  0  0  0  0
 47 54  1  0  0  0  0
 48 70  1  0  0  0  0
 49 54  1  0  0  0  0
 49 70  1  0  0  0  0
 50 73  1  0  0  0  0
 51 53  1  0  0  0  0
 51 83  1  0  0  0  0
 52 69  1  0  0  0  0
 53 65  1  0  0  0  0
 54 68  1  0  0  0  0
 55 64  1  0  0  0  0
 56 65  1  0  0  0  0
 57 65  1  0  0  0  0
 58 66  1  0  0  0  0
 59 66  1  0  0  0  0
 60 66  1  0  0  0  0
 61 76  1  0  0  0  0
 62 75  1  0  0  0  0
 63 66  1  0  0  0  0
 63 74  1  0  0  0  0
 64 76  1  0  0  0  0
 67 68  1  0  0  0  0
M  CHG  1  76   1
M  ISO  4  38 100  51 101  75 100  83 101
M  END
> <Batch ID>
0128

> <Smiles>
CNC(C)C(=O)NC(C(=O)N1Cc2cc([101O:1][101CH:1]3c4cc(C[100NH:0][100C:0](=O)N5CCCC(n6nc(-c7ccc(Oc8ccc(F)cc8F)cc7)c(C(N)=O)c6N)C5)ccc4CCC3C(C)C)ccc2CC1C(=O)NC1CCCc2ccccc21)C(C)(C)C

> <Shape>
0.238

> <Color>
0.048

> <Negative vol penalty>
0.000

$$$$

  -OEChem-04052320423D

 86 95  0     1  0  0  0  0  0999 V2000
  -29.2926  -18.7351   19.1643 C   0  0  0  0  0  0  0  0  0  0  0  0
  -28.9622  -19.2972   20.3932 C   0  0  0  0  0  0  0  0  0  0  0  0
  -24.3341  -14.9600   21.6464 C   0  0  0  0  0  0  0  0  0  0  0  0
  -25.4903  -16.0156   19.8063 C   0  0  0  0  0  0  0  0  0  0  0  0
  -29.6193  -19.5585   18.0877 C   0  0  0  0  0  0  0  0  0  0  0  0
  -28.9594  -20.6831   20.5466 C   0  0  0  0  0  0  0  0  0  0  0  0
  -20.6787  -22.3969   26.4602 C   0  0  0  0  0  0  0  0  0  0  0  0
  -21.1055  -24.5673   25.4884 C   0  0  0  0  0  0  0  0  0  0  0  0
  -24.8832  -22.3531   23.0448 C   0  0  0  0  0  0  0  0  0  0  0  0
  -20.6857  -21.8258   25.1877 C   0  0  0  0  0  0  0  0  0  0  0  0
  -21.1126  -23.9961   24.2159 C   0  0  0  0  0  0  0  0  0  0  0  0
  -25.5017  -14.2780   21.9888 C   0  0  0  0  0  0  0  0  0  0  0  0
  -26.6579  -15.3337   20.1487 C   0  0  0  0  0  0  0  0  0  0  0  0
  -24.8821  -22.2070   24.4313 C   0  0  0  0  0  0  0  0  0  0  0  0
  -27.9350  -12.2278   19.7565 C   0  0  0  0  0  0  0  0  0  0  0  0
  -28.6630  -11.6317   18.7268 C   0  0  0  0  0  0  0  0  0  0  0  0
  -25.5188  -24.5215   24.6697 C   0  0  0  0  0  0  0  0  0  0  0  0
  -30.5748  -12.9984   19.2872 C   0  0  0  0  0  0  0  0  0  0  0  0
  -24.3284  -15.8288   20.5551 C   0  0  0  0  0  0  0  0  0  0  0  0
  -21.8850  -15.9699   19.8357 C   0  0  0  0  0  0  0  0  0  0  0  0
  -20.8885  -23.7677   26.6106 C   0  0  0  0  0  0  0  0  0  0  0  0
  -29.6111  -20.9556   18.2252 C   0  0  0  0  0  0  0  0  0  0  0  0
  -25.2133  -23.5838   22.4591 C   0  0  0  0  0  0  0  0  0  0  0  0
  -29.2876  -21.5260   19.4711 C   0  0  0  0  0  0  0  0  0  0  0  0
  -25.5209  -24.6814   23.2756 C   0  0  0  0  0  0  0  0  0  0  0  0
  -20.9027  -22.6253   24.0655 C   0  0  0  0  0  0  0  0  0  0  0  0
  -26.6636  -14.4648   21.2400 C   0  0  0  0  0  0  0  0  0  0  0  0
  -25.2027  -23.2905   25.2439 C   0  0  0  0  0  0  0  0  0  0  0  0
  -28.5269  -13.2093   20.5515 C   0  0  0  0  0  0  0  0  0  0  0  0
  -29.9829  -12.0170   18.4922 C   0  0  0  0  0  0  0  0  0  0  0  0
  -29.8468  -13.5946   20.3169 C   0  0  0  0  0  0  0  0  0  0  0  0
  -23.1225  -16.5332   20.2006 C   0  0  0  0  0  0  0  0  0  0  0  0
  -21.0724  -17.0512   19.5975 C   0  0  0  0  0  0  0  0  0  0  0  0
  -24.2555  -23.8630   28.6554 C   0  0  0  0  0  0  0  0  0  0  0  0
  -21.5041  -14.5923   19.7225 C   0  0  0  0  0  0  0  0  0  0  0  0
  -23.0406  -24.1880   29.1308 C   0  0  0  0  0  0  0  0  0  0  0  0
  -27.5086  -24.5947   20.5062 C   0  0  0  0  0  0  0  0  0  0  0  0
  -25.7930  -27.3474   20.5468 C   0  0  0  0  0  0  0  0  0  0  0  0
  -23.5509  -29.3401   22.1743 C   0  0  0  0  0  0  0  0  0  0  0  0
  -21.1106  -22.6964   21.5560 C   0  0  0  0  0  0  0  0  0  0  0  0
  -30.0173  -21.8035   17.0460 C   0  0  0  0  0  0  0  0  0  0  0  0
  -25.1840  -23.7322   20.9626 C   0  0  0  0  0  0  0  0  0  0  0  0
  -25.8626  -26.0292   22.6969 C   0  0  0  0  0  0  0  0  0  0  0  0
  -29.6265  -23.2723   17.1885 C   0  0  0  0  0  0  0  0  0  0  0  0
  -21.2400  -21.6179   18.1652 C   0  0  0  0  0  0  0  0  0  0  0  0
  -20.6365  -26.7889   28.3880 C   0  0  0  0  0  0  0  0  0  0  0  0
  -29.9990  -23.7918   18.5734 C   0  0  0  0  0  0  0  0  0  0  0  0
  -19.8397  -25.5074   28.1833 C   0  0  0  0  0  0  0  0  0  0  0  0
  -21.6188  -20.1388   18.2694 C   0  0  0  0  0  0  0  0  0  0  0  0
  -21.9448  -22.4601   19.2271 C   0  0  0  0  0  0  0  0  0  0  0  0
  -22.1593  -20.5052   20.7109 C   0  0  0  0  0  0  0  0  0  0  0  0
  -21.8878  -26.3186   29.0974 C   0  0  0  0  0  0  0  0  0  0  0  0
  -29.2493  -23.0257   19.6701 C   0  0  1  0  0  0  0  0  0  0  0  0
  -20.8808  -24.3869   27.9902 C   0  0  2  0  0  0  0  0  0  0  0  0
  -26.0367  -24.8933   20.4604 C   0  0  1  0  0  0  0  0  0  0  0  0
  -21.4241  -19.6068   19.7028 C   0  0  2  0  0  0  0  0  0  0  0  0
  -22.5199  -23.6836   30.4412 C   0  0  0  0  0  0  0  0  0  0  0  0
  -22.3711  -31.5463   21.9785 C   0  0  0  0  0  0  0  0  0  0  0  0
  -28.3602  -28.7886   21.3484 C   0  0  0  0  0  0  0  0  0  0  0  0
  -26.9614  -30.7426   22.0509 C   0  0  0  0  0  0  0  0  0  0  0  0
  -26.9625  -30.0042   19.6682 C   0  0  0  0  0  0  0  0  0  0  0  0
  -20.8893  -28.0461   22.1489 C   0  0  0  0  0  0  0  0  0  0  0  0
  -24.8834  -24.3067   27.3702 C   0  0  0  0  0  0  0  0  0  1  0  0
  -25.7865  -28.5905   21.4033 C   0  0  1  0  0  0  0  0  0  0  0  0
  -22.3018  -30.0546   21.6908 C   0  0  2  0  0  0  0  0  0  0  0  0
  -27.0131  -29.5057   21.1289 C   0  0  0  0  0  0  0  0  0  0  0  0
  -23.1025  -17.8687   20.1957 N   0  0  0  0  0  0  0  0  0  0  0  0
  -21.8426  -18.1536   19.8249 N   0  0  0  0  0  0  0  0  0  0  0  0
  -25.8263  -26.1224   21.2281 N   0  0  0  0  0  0  0  0  0  0  0  0
  -21.7124  -21.8988   20.5597 N   0  0  0  0  0  0  0  0  0  0  0  0
  -19.7813  -17.1572   19.2176 N   0  0  0  0  0  0  0  0  0  0  0  0
  -21.6745  -13.9513   18.4878 N   0  0  0  0  0  0  0  0  0  0  0  0
  -20.9102  -22.0454   22.7727 N   0  0  0  0  0  0  0  0  0  0  0  0
  -27.8817  -23.4893   19.7657 N   0  0  0  0  0  0  0  0  0  0  0  0
  -24.4975  -29.2353   21.1772 N   0  0  0  0  0  0  0  0  0  0  0  0
  -22.2084  -25.0464   28.3625 N   0  3  2  0  0  0  0  0  0  0  0  0
  -21.0942  -29.5013   22.3667 N   0  3  0  0  0  0  0  0  0  0  0  0
  -21.0114  -13.9534   20.6830 O   0  0  0  0  0  0  0  0  0  0  0  0
  -28.2510  -25.3148   21.1634 O   0  0  0  0  0  0  0  0  0  0  0  0
  -25.7622  -27.4590   19.3187 O   0  0  0  0  0  0  0  0  0  0  0  0
  -23.6759  -28.9205   23.3227 O   0  0  0  0  0  0  0  0  0  0  0  0
  -20.7714  -23.8621   21.3368 O   0  0  0  0  0  0  0  0  0  0  0  0
  -27.8031  -13.7997   21.5739 O   0  0  0  0  0  0  0  0  0  0  0  0
  -25.2030  -23.1503   26.5975 O   0  0  0  0  0  0  0  0  0  1  0  0
  -30.6823  -11.4433   17.5043 F   0  0  0  0  0  0  0  0  0  0  0  0
  -30.4212  -14.5361   21.0781 F   0  0  0  0  0  0  0  0  0  0  0  0
  1  2  1  0  0  0  0
  1  5  2  0  0  0  0
  2  6  2  0  0  0  0
  3 12  2  0  0  0  0
  3 19  1  0  0  0  0
  4 13  1  0  0  0  0
  4 19  2  0  0  0  0
  5 22  1  0  0  0  0
  6 24  1  0  0  0  0
  7 10  2  0  0  0  0
  7 21  1  0  0  0  0
  8 11  1  0  0  0  0
  8 21  2  0  0  0  0
  9 14  2  0  0  0  0
  9 23  1  0  0  0  0
 10 26  1  0  0  0  0
 11 26  2  0  0  0  0
 12 27  1  0  0  0  0
 13 27  2  0  0  0  0
 14 28  1  0  0  0  0
 15 16  2  0  0  0  0
 15 29  1  0  0  0  0
 16 30  1  0  0  0  0
 17 25  1  0  0  0  0
 17 28  2  0  0  0  0
 18 30  2  0  0  0  0
 18 31  1  0  0  0  0
 19 32  1  0  0  0  0
 20 32  1  0  0  0  0
 20 33  2  0  0  0  0
 20 35  1  0  0  0  0
 21 54  1  0  0  0  0
 22 24  2  0  0  0  0
 22 41  1  0  0  0  0
 23 25  2  0  0  0  0
 23 42  1  0  0  0  0
 24 53  1  0  0  0  0
 25 43  1  0  0  0  0
 26 73  1  0  0  0  0
 27 83  1  0  0  0  0
 28 84  1  0  0  0  0
 29 31  2  0  0  0  0
 29 83  1  0  0  0  0
 30 85  1  0  0  0  0
 31 86  1  0  0  0  0
 32 67  2  0  0  0  0
 33 68  1  0  0  0  0
 33 71  1  0  0  0  0
 34 36  2  0  0  0  0
 34 63  1  0  0  0  0
 35 72  1  0  0  0  0
 35 78  2  0  0  0  0
 36 57  1  0  0  0  0
 36 76  1  0  0  0  0
 37 55  1  0  0  0  0
 37 74  1  0  0  0  0
 37 79  2  0  0  0  0
 38 64  1  0  0  0  0
 38 69  1  0  0  0  0
 38 80  2  0  0  0  0
 39 65  1  0  0  0  0
 39 75  1  0  0  0  0
 39 81  2  0  0  0  0
 40 70  1  0  0  0  0
 40 73  1  0  0  0  0
 40 82  2  0  0  0  0
 41 44  1  0  0  0  0
 42 55  1  0  0  0  0
 43 69  1  0  0  0  0
 44 47  1  0  0  0  0
 45 49  1  0  0  0  0
 45 50  1  0  0  0  0
 46 48  1  0  0  0  0
 46 52  1  0  0  0  0
 47 53  1  0  0  0  0
 48 54  1  0  0  0  0
 49 56  1  0  0  0  0
 50 70  1  0  0  0  0
 51 56  1  0  0  0  0
 51 70  1  0  0  0  0
 52 76  1  0  0  0  0
 53 74  1  0  0  0  0
 54 76  1  0  0  0  0
 55 69  1  0  0  0  0
 56 68  1  0  0  0  0
 58 65  1  0  0  0  0
 59 66  1  0  0  0  0
 60 66  1  0  0  0  0
 61 66  1  0  0  0  0
 62 77  1  0  0  0  0
 63 84  1  0  0  0  0
 64 66  1  0  0  0  0
 64 75  1  0  0  0  0
 65 77  1  0  0  0  0
 67 68  1  0  0  0  0
M  CHG  2  76   1  77   1
M  ISO  4  40 100  63 101  73 100  84 101
M  END
> <Batch ID>
0128

> <Smiles>
CNC(C)C(=O)NC(C(=O)N1Cc2cc([101O:1][101CH2:1]C=C(C)N3CCCC3c3ccc([100NH:0][100C:0](=O)N4CCCC(n5nc(-c6ccc(Oc7ccc(F)cc7F)cc6)c(C(N)=O)c5N)C4)cc3)ccc2CC1C(=O)NC1CCCc2ccccc21)C(C)(C)C

> <Shape>
0.199

> <Color>
0.053

> <Negative vol penalty>
0.000

$$$$

  -OEChem-04052320423D

 86 95  0     1  0  0  0  0  0999 V2000
  -24.7002  -11.0720   20.2152 C   0  0  0  0  0  0  0  0  0  0  0  0
  -23.9527  -12.2453   20.2199 C   0  0  0  0  0  0  0  0  0  0  0  0
  -30.4110  -26.7777   18.4419 C   0  0  0  0  0  0  0  0  0  0  0  0
  -30.9741  -27.9507   20.4776 C   0  0  0  0  0  0  0  0  0  0  0  0
  -26.0145  -11.0822   20.6802 C   0  0  0  0  0  0  0  0  0  0  0  0
  -24.5189  -13.4295   20.6907 C   0  0  0  0  0  0  0  0  0  0  0  0
  -23.4714  -19.0932   18.6096 C   0  0  0  0  0  0  0  0  0  0  0  0
  -20.1144  -27.8776   20.9903 C   0  0  0  0  0  0  0  0  0  0  0  0
  -31.6942  -27.0159   17.9497 C   0  0  0  0  0  0  0  0  0  0  0  0
  -32.2574  -28.1889   19.9854 C   0  0  0  0  0  0  0  0  0  0  0  0
  -22.6423  -20.1195   19.0600 C   0  0  0  0  0  0  0  0  0  0  0  0
  -33.3828  -29.5797   16.5354 C   0  0  0  0  0  0  0  0  0  0  0  0
  -33.4991  -30.0161   15.2157 C   0  0  0  0  0  0  0  0  0  0  0  0
  -20.4049  -26.5925   20.5458 C   0  0  0  0  0  0  0  0  0  0  0  0
  -24.5035  -21.0950   20.2448 C   0  0  0  0  0  0  0  0  0  0  0  0
  -34.8235  -28.0657   14.6875 C   0  0  0  0  0  0  0  0  0  0  0  0
  -30.0510  -27.2451   19.7059 C   0  0  0  0  0  0  0  0  0  0  0  0
  -28.2967  -25.8929   20.9714 C   0  0  0  0  0  0  0  0  0  0  0  0
  -26.6003  -12.2691   21.1480 C   0  0  0  0  0  0  0  0  0  0  0  0
  -24.8225  -19.0539   18.9830 C   0  0  0  0  0  0  0  0  0  0  0  0
  -25.8419  -13.4553   21.1637 C   0  0  0  0  0  0  0  0  0  0  0  0
  -19.7798  -28.0869   22.3235 C   0  0  0  0  0  0  0  0  0  0  0  0
  -25.3482  -20.0684   19.7957 C   0  0  0  0  0  0  0  0  0  0  0  0
  -32.6174  -27.7215   18.7214 C   0  0  0  0  0  0  0  0  0  0  0  0
  -23.1576  -21.1191   19.8801 C   0  0  0  0  0  0  0  0  0  0  0  0
  -33.9868  -28.3863   16.9312 C   0  0  0  0  0  0  0  0  0  0  0  0
  -34.2195  -29.2591   14.2917 C   0  0  0  0  0  0  0  0  0  0  0  0
  -34.7071  -27.6293   16.0072 C   0  0  0  0  0  0  0  0  0  0  0  0
  -28.7254  -26.9998   20.2147 C   0  0  0  0  0  0  0  0  0  0  0  0
  -19.7500  -26.9867   23.1652 C   0  0  0  0  0  0  0  0  0  0  0  0
  -20.3474  -25.5592   21.4671 C   0  0  0  0  0  0  0  0  0  0  0  0
  -26.9641  -26.1311   21.2037 C   0  0  0  0  0  0  0  0  0  0  0  0
  -29.0368  -24.7513   21.4239 C   0  0  0  0  0  0  0  0  0  0  0  0
  -26.6403  -17.0212   20.6161 C   0  0  0  0  0  0  0  0  0  0  0  0
  -29.0242  -19.0174   19.6916 C   0  0  0  0  0  0  0  0  0  0  0  0
  -29.9584  -22.1371   18.6710 C   0  0  0  0  0  0  0  0  0  0  0  0
  -22.9292  -29.4997   22.7268 C   0  0  0  0  0  0  0  0  0  0  0  0
  -28.0089  -12.2209   21.6848 C   0  0  0  0  0  0  0  0  0  0  0  0
  -25.7100  -17.9546   18.4669 C   0  0  0  0  0  0  0  0  0  0  0  0
  -26.7966  -20.0832   20.2085 C   0  0  0  0  0  0  0  0  0  0  0  0
  -28.6574  -13.5964   21.8178 C   0  0  0  0  0  0  0  0  0  0  0  0
  -17.8950  -31.0813   22.9326 C   0  0  0  0  0  0  0  0  0  0  0  0
  -23.8410  -29.5843   19.2255 C   0  0  0  0  0  0  0  0  0  0  0  0
  -27.6977  -14.5770   22.4843 C   0  0  0  0  0  0  0  0  0  0  0  0
  -25.1670  -28.8217   19.2380 C   0  0  0  0  0  0  0  0  0  0  0  0
  -18.8079  -30.5564   21.8108 C   0  0  0  0  0  0  0  0  0  0  0  0
  -18.1174  -29.7452   23.6627 C   0  0  0  0  0  0  0  0  0  0  0  0
  -23.6926  -30.4556   20.4694 C   0  0  0  0  0  0  0  0  0  0  0  0
  -25.1507  -28.9554   21.7721 C   0  0  0  0  0  0  0  0  0  0  0  0
  -26.4291  -14.7650   21.6435 C   0  0  1  0  0  0  0  0  0  0  0  0
  -26.9488  -17.7325   19.3291 C   0  0  1  0  0  0  0  0  0  0  0  0
  -25.3508  -28.0387   20.5516 C   0  0  2  0  0  0  0  0  0  0  0  0
  -19.4427  -29.5641   22.8452 C   0  0  0  0  0  0  0  0  0  0  0  0
  -19.3944  -27.1548   24.6058 C   0  0  0  0  0  0  0  0  0  0  0  0
  -31.9811  -23.4759   18.0278 C   0  0  0  0  0  0  0  0  0  0  0  0
  -29.8106  -19.2373   22.6315 C   0  0  0  0  0  0  0  0  0  0  0  0
  -31.1645  -21.2603   22.0460 C   0  0  0  0  0  0  0  0  0  0  0  0
  -31.7368  -19.0469   21.0478 C   0  0  0  0  0  0  0  0  0  0  0  0
  -28.9069  -22.6348   15.9497 C   0  0  0  0  0  0  0  0  0  0  0  0
  -20.6783  -30.1347   23.5558 C   0  0  0  0  0  0  0  0  0  0  0  0
  -20.9913  -23.9868   19.6399 C   0  0  0  0  0  0  0  0  0  0  0  0
  -21.2644  -22.5009   19.4770 C   0  0  0  0  0  0  0  0  0  1  0  0
  -29.6611  -20.2600   20.2655 C   0  0  1  0  0  0  0  0  0  0  0  0
  -30.8429  -22.6000   17.5275 C   0  0  2  0  0  0  0  0  0  0  0  0
  -30.5655  -19.9501   21.4917 C   0  0  0  0  0  0  0  0  0  0  0  0
  -27.7447  -27.8761   19.9817 N   0  0  0  0  0  0  0  0  0  0  0  0
  -20.0262  -25.7238   22.7699 N   0  0  0  0  0  0  0  0  0  0  0  0
  -26.6864  -27.3199   20.5954 N   0  0  0  0  0  0  0  0  0  0  0  0
  -27.6226  -18.9834   19.6834 N   0  0  0  0  0  0  0  0  0  0  0  0
  -23.8600  -29.6466   21.6849 N   0  0  0  0  0  0  0  0  0  0  0  0
  -26.0145  -25.4377   21.8668 N   0  0  0  0  0  0  0  0  0  0  0  0
  -30.3968  -24.6643   21.0969 N   0  0  0  0  0  0  0  0  0  0  0  0
  -20.6376  -24.2848   21.0089 N   0  0  0  0  0  0  0  0  0  0  0  0
  -26.6906  -15.6434   20.5235 N   0  0  0  0  0  0  0  0  0  0  0  0
  -30.3558  -20.9105   19.1598 N   0  0  0  0  0  0  0  0  0  0  0  0
  -21.7350  -30.1925   22.5704 N   0  0  0  0  0  0  0  0  0  0  0  0
  -30.0464  -23.3827   16.5406 N   0  3  0  0  0  0  0  0  0  0  0  0
  -28.5038  -23.8275   22.0842 O   0  0  0  0  0  0  0  0  0  0  0  0
  -26.3777  -17.6741   21.6193 O   0  0  0  0  0  0  0  0  0  0  0  0
  -29.7438  -18.1134   19.2597 O   0  0  0  0  0  0  0  0  0  0  0  0
  -29.0121  -22.7992   19.0913 O   0  0  0  0  0  0  0  0  0  0  0  0
  -23.1443  -28.7981   23.7212 O   0  0  0  0  0  0  0  0  0  0  0  0
  -33.8697  -27.9539   18.2415 O   0  0  0  0  0  0  0  0  0  0  0  0
  -22.3503  -22.1217   20.3216 O   0  0  0  0  0  0  0  0  0  1  0  0
  -34.3299  -29.6776   13.0241 F   0  0  0  0  0  0  0  0  0  0  0  0
  -35.2886  -26.4813   16.3812 F   0  0  0  0  0  0  0  0  0  0  0  0
  1  2  1  0  0  0  0
  1  5  2  0  0  0  0
  2  6  2  0  0  0  0
  3  9  2  0  0  0  0
  3 17  1  0  0  0  0
  4 10  1  0  0  0  0
  4 17  2  0  0  0  0
  5 19  1  0  0  0  0
  6 21  1  0  0  0  0
  7 11  2  0  0  0  0
  7 20  1  0  0  0  0
  8 14  2  0  0  0  0
  8 22  1  0  0  0  0
  9 24  1  0  0  0  0
 10 24  2  0  0  0  0
 11 25  1  0  0  0  0
 12 13  2  0  0  0  0
 12 26  1  0  0  0  0
 13 27  1  0  0  0  0
 14 31  1  0  0  0  0
 15 23  1  0  0  0  0
 15 25  2  0  0  0  0
 16 27  2  0  0  0  0
 16 28  1  0  0  0  0
 17 29  1  0  0  0  0
 18 29  1  0  0  0  0
 18 32  2  0  0  0  0
 18 33  1  0  0  0  0
 19 21  2  0  0  0  0
 19 38  1  0  0  0  0
 20 23  2  0  0  0  0
 20 39  1  0  0  0  0
 21 50  1  0  0  0  0
 22 30  2  0  0  0  0
 22 53  1  0  0  0  0
 23 40  1  0  0  0  0
 24 83  1  0  0  0  0
 25 84  1  0  0  0  0
 26 28  2  0  0  0  0
 26 83  1  0  0  0  0
 27 85  1  0  0  0  0
 28 86  1  0  0  0  0
 29 66  2  0  0  0  0
 30 54  1  0  0  0  0
 30 67  1  0  0  0  0
 31 67  2  0  0  0  0
 31 73  1  0  0  0  0
 32 68  1  0  0  0  0
 32 71  1  0  0  0  0
 33 72  1  0  0  0  0
 33 78  2  0  0  0  0
 34 51  1  0  0  0  0
 34 74  1  0  0  0  0
 34 79  2  0  0  0  0
 35 63  1  0  0  0  0
 35 69  1  0  0  0  0
 35 80  2  0  0  0  0
 36 64  1  0  0  0  0
 36 75  1  0  0  0  0
 36 81  2  0  0  0  0
 37 70  1  0  0  0  0
 37 76  1  0  0  0  0
 37 82  2  0  0  0  0
 38 41  1  0  0  0  0
 39 51  1  0  0  0  0
 40 69  1  0  0  0  0
 41 44  1  0  0  0  0
 42 46  1  0  0  0  0
 42 47  1  0  0  0  0
 43 45  1  0  0  0  0
 43 48  1  0  0  0  0
 44 50  1  0  0  0  0
 45 52  1  0  0  0  0
 46 53  1  0  0  0  0
 47 53  1  0  0  0  0
 48 70  1  0  0  0  0
 49 52  1  0  0  0  0
 49 70  1  0  0  0  0
 50 74  1  0  0  0  0
 51 69  1  0  0  0  0
 52 68  1  0  0  0  0
 53 60  1  0  0  0  0
 55 64  1  0  0  0  0
 56 65  1  0  0  0  0
 57 65  1  0  0  0  0
 58 65  1  0  0  0  0
 59 77  1  0  0  0  0
 60 76  1  0  0  0  0
 61 62  1  0  0  0  0
 61 73  1  0  0  0  0
 62 84  1  0  0  0  0
 63 65  1  0  0  0  0
 63 75  1  0  0  0  0
 64 77  1  0  0  0  0
 66 68  1  0  0  0  0
M  CHG  1  77   1
M  ISO  4  37 100  62 101  76 100  84 101
M  END
> <Batch ID>
0128

> <Smiles>
CNC(C)C(=O)NC(C(=O)N1Cc2cc([101O:1][101CH2:1]CNc3ccc(C4(C[100NH:0][100C:0](=O)N5CCCC(n6nc(-c7ccc(Oc8ccc(F)cc8F)cc7)c(C(N)=O)c6N)C5)CCC4)c(C)n3)ccc2CC1C(=O)NC1CCCc2ccccc21)C(C)(C)C

> <Shape>
0.253

> <Color>
0.084

> <Negative vol penalty>
0.000

$$$$

  -OEChem-04052320423D

 88 97  0     1  0  0  0  0  0999 V2000
  -19.9050   -9.5146   19.7792 C   0  0  0  0  0  0  0  0  0  0  0  0
  -20.1177  -10.8149   20.2260 C   0  0  0  0  0  0  0  0  0  0  0  0
  -29.4689  -28.4436   19.8433 C   0  0  0  0  0  0  0  0  0  0  0  0
  -27.7428  -26.9543   19.0435 C   0  0  0  0  0  0  0  0  0  0  0  0
  -20.9082   -8.5570   19.9217 C   0  0  0  0  0  0  0  0  0  0  0  0
  -21.3334  -11.1579   20.8165 C   0  0  0  0  0  0  0  0  0  0  0  0
  -23.1469  -15.5670   19.1089 C   0  0  0  0  0  0  0  0  0  0  0  0
  -22.3511  -24.7624   21.9699 C   0  0  0  0  0  0  0  0  0  0  0  0
  -30.4025  -27.4115   19.7503 C   0  0  0  0  0  0  0  0  0  0  0  0
  -28.6764  -25.9222   18.9504 C   0  0  0  0  0  0  0  0  0  0  0  0
  -22.5773  -16.7314   19.6221 C   0  0  0  0  0  0  0  0  0  0  0  0
  -30.5294  -22.7973   18.8439 C   0  0  0  0  0  0  0  0  0  0  0  0
  -30.1608  -21.5436   19.3317 C   0  0  0  0  0  0  0  0  0  0  0  0
  -22.6219  -23.5256   21.3951 C   0  0  0  0  0  0  0  0  0  0  0  0
  -24.4435  -16.9717   21.1318 C   0  0  0  0  0  0  0  0  0  0  0  0
  -29.8365  -22.4941   21.5291 C   0  0  0  0  0  0  0  0  0  0  0  0
  -20.3365  -23.8542   22.8492 C   0  0  0  0  0  0  0  0  0  0  0  0
  -28.1390  -28.2150   19.4900 C   0  0  0  0  0  0  0  0  0  0  0  0
  -26.8331  -30.2119   18.5873 C   0  0  0  0  0  0  0  0  0  0  0  0
  -22.1405   -8.8909   20.5054 C   0  0  0  0  0  0  0  0  0  0  0  0
  -24.3658  -15.0894   19.6116 C   0  0  0  0  0  0  0  0  0  0  0  0
  -22.3536  -10.2035   20.9681 C   0  0  0  0  0  0  0  0  0  0  0  0
  -25.0277  -15.8024   20.6214 C   0  0  0  0  0  0  0  0  0  0  0  0
  -21.1887  -24.9381   22.7123 C   0  0  0  0  0  0  0  0  0  0  0  0
  -30.0063  -26.1508   19.3038 C   0  0  0  0  0  0  0  0  0  0  0  0
  -23.2241  -17.4323   20.6357 C   0  0  0  0  0  0  0  0  0  0  0  0
  -30.5517  -23.8994   19.6987 C   0  0  0  0  0  0  0  0  0  0  0  0
  -29.8143  -21.3920   20.6743 C   0  0  0  0  0  0  0  0  0  0  0  0
  -30.2052  -23.7478   21.0413 C   0  0  0  0  0  0  0  0  0  0  0  0
  -27.1739  -29.2806   19.5865 C   0  0  0  0  0  0  0  0  0  0  0  0
  -21.7057  -22.5049   21.5911 C   0  0  0  0  0  0  0  0  0  0  0  0
  -25.8763  -31.0063   19.1703 C   0  0  0  0  0  0  0  0  0  0  0  0
  -27.3363  -30.3467   17.2515 C   0  0  0  0  0  0  0  0  0  0  0  0
  -25.2952  -12.4359   21.0944 C   0  0  0  0  0  0  0  0  0  0  0  0
  -28.2453  -13.7383   20.7436 C   0  0  0  0  0  0  0  0  0  0  0  0
  -30.1421  -16.5434   20.3190 C   0  0  0  0  0  0  0  0  0  0  0  0
  -21.9959  -30.1022   23.6398 C   0  0  0  0  0  0  0  0  0  0  0  0
  -23.1773   -7.8098   20.6808 C   0  0  0  0  0  0  0  0  0  0  0  0
  -24.9803  -13.8464   19.0287 C   0  0  0  0  0  0  0  0  0  0  0  0
  -26.3482  -15.3428   21.1814 C   0  0  0  0  0  0  0  0  0  0  0  0
  -24.5746   -8.3483   20.9774 C   0  0  0  0  0  0  0  0  0  0  0  0
  -24.4693  -32.6551   23.4356 C   0  0  0  0  0  0  0  0  0  0  0  0
  -24.5135   -9.4275   22.0537 C   0  0  0  0  0  0  0  0  0  0  0  0
  -25.4122  -32.1638   22.3358 C   0  0  0  0  0  0  0  0  0  0  0  0
  -18.5645  -26.7070   22.4569 C   0  0  0  0  0  0  0  0  0  0  0  0
  -23.9380  -31.4998   24.2812 C   0  0  0  0  0  0  0  0  0  0  0  0
  -24.2458  -29.9206   22.4144 C   0  0  0  0  0  0  0  0  0  0  0  0
  -17.6766  -27.6196   21.6263 C   0  0  0  0  0  0  0  0  0  0  0  0
  -19.2285  -29.5391   22.0356 C   0  0  0  0  0  0  0  0  0  0  0  0
  -23.6680  -10.6204   21.5914 C   0  0  1  0  0  0  0  0  0  0  0  0
  -25.9711  -13.1710   19.9717 C   0  0  1  0  0  0  0  0  0  0  0  0
  -20.0324  -27.1659   22.4455 C   0  0  1  0  0  0  0  0  0  0  0  0
  -24.7635  -31.0440   21.5000 C   0  0  2  0  0  0  0  0  0  0  0  0
  -20.1391  -28.6453   22.8723 C   0  0  1  0  0  0  0  0  0  0  0  0
  -32.1991  -17.9255   19.9241 C   0  0  0  0  0  0  0  0  0  0  0  0
  -28.6274  -13.3716   23.7485 C   0  0  0  0  0  0  0  0  0  0  0  0
  -30.5572  -14.9620   23.6267 C   0  0  0  0  0  0  0  0  0  0  0  0
  -30.6344  -12.8111   22.3656 C   0  0  0  0  0  0  0  0  0  0  0  0
  -29.8284  -16.3808   17.3806 C   0  0  0  0  0  0  0  0  0  0  0  0
  -21.4241  -18.9857   20.5820 C   0  0  0  0  0  0  0  0  0  1  0  0
  -20.9789  -20.2640   21.2657 C   0  0  0  0  0  0  0  0  0  0  0  0
  -20.8706  -26.2486   23.3397 C   0  0  1  0  0  0  0  0  0  0  0  0
  -29.1104  -14.6630   21.5655 C   0  0  1  0  0  0  0  0  0  0  0  0
  -31.2760  -16.8569   19.3596 C   0  0  2  0  0  0  0  0  0  0  0  0
  -29.7065  -13.9598   22.8176 C   0  0  0  0  0  0  0  0  0  0  0  0
  -20.5658  -22.6378   22.3058 N   0  0  0  0  0  0  0  0  0  0  0  0
  -26.4894  -29.4652   20.7185 N   0  0  0  0  0  0  0  0  0  0  0  0
  -25.7090  -30.5217   20.4342 N   0  0  0  0  0  0  0  0  0  0  0  0
  -26.9054  -14.1185   20.5830 N   0  0  0  0  0  0  0  0  0  0  0  0
  -23.3342  -30.4730   23.4286 N   0  0  0  0  0  0  0  0  0  0  0  0
  -25.1703  -32.0652   18.7201 N   0  0  0  0  0  0  0  0  0  0  0  0
  -28.3171  -29.4466   16.8130 N   0  0  0  0  0  0  0  0  0  0  0  0
  -24.4222  -11.4498   20.6761 N   0  0  0  0  0  0  0  0  0  0  0  0
  -30.1102  -15.2058   20.6523 N   0  0  0  0  0  0  0  0  0  0  0  0
  -21.4997  -29.1266   22.7837 N   0  0  0  0  0  0  0  0  0  0  0  0
  -17.8293  -29.0226   22.1076 N   0  3  0  0  0  0  0  0  0  0  0  0
  -20.1455  -26.1262   24.6526 N   0  3  0  0  0  0  0  0  0  0  0  0
  -30.7347  -17.3428   18.0589 N   0  3  0  0  0  0  0  0  0  0  0  0
  -26.9402  -31.2491   16.4755 O   0  0  0  0  0  0  0  0  0  0  0  0
  -25.5482  -12.7398   22.2543 O   0  0  0  0  0  0  0  0  0  0  0  0
  -28.7420  -12.7199   20.2558 O   0  0  0  0  0  0  0  0  0  0  0  0
  -29.3649  -17.4001   20.7343 O   0  0  0  0  0  0  0  0  0  0  0  0
  -21.2936  -30.6073   24.5221 O   0  0  0  0  0  0  0  0  0  0  0  0
  -30.9171  -25.1435   19.2126 O   0  0  0  0  0  0  0  0  0  0  0  0
  -22.6700  -18.5688   21.1390 O   0  0  0  0  0  0  0  0  0  1  0  0
  -21.9503  -21.2770   21.0347 O   0  0  0  0  0  0  0  0  0  0  0  0
  -29.4588  -20.1884   21.1423 F   0  0  0  0  0  0  0  0  0  0  0  0
  -30.2236  -24.8031   21.8670 F   0  0  0  0  0  0  0  0  0  0  0  0
  1  2  1  0  0  0  0
  1  5  2  0  0  0  0
  2  6  2  0  0  0  0
  3  9  2  0  0  0  0
  3 18  1  0  0  0  0
  4 10  1  0  0  0  0
  4 18  2  0  0  0  0
  5 20  1  0  0  0  0
  6 22  1  0  0  0  0
  7 11  2  0  0  0  0
  7 21  1  0  0  0  0
  8 14  2  0  0  0  0
  8 24  1  0  0  0  0
  9 25  1  0  0  0  0
 10 25  2  0  0  0  0
 11 26  1  0  0  0  0
 12 13  2  0  0  0  0
 12 27  1  0  0  0  0
 13 28  1  0  0  0  0
 14 31  1  0  0  0  0
 15 23  1  0  0  0  0
 15 26  2  0  0  0  0
 16 28  2  0  0  0  0
 16 29  1  0  0  0  0
 17 24  2  0  0  0  0
 17 66  1  0  0  0  0
 18 30  1  0  0  0  0
 19 30  1  0  0  0  0
 19 32  2  0  0  0  0
 19 33  1  0  0  0  0
 20 22  2  0  0  0  0
 20 38  1  0  0  0  0
 21 23  2  0  0  0  0
 21 39  1  0  0  0  0
 22 50  1  0  0  0  0
 23 40  1  0  0  0  0
 24 62  1  0  0  0  0
 25 84  1  0  0  0  0
 26 85  1  0  0  0  0
 27 29  2  0  0  0  0
 27 84  1  0  0  0  0
 28 87  1  0  0  0  0
 29 88  1  0  0  0  0
 30 67  2  0  0  0  0
 31 66  2  0  0  0  0
 31 86  1  0  0  0  0
 32 68  1  0  0  0  0
 32 71  1  0  0  0  0
 33 72  1  0  0  0  0
 33 79  2  0  0  0  0
 34 51  1  0  0  0  0
 34 73  1  0  0  0  0
 34 80  2  0  0  0  0
 35 63  1  0  0  0  0
 35 69  1  0  0  0  0
 35 81  2  0  0  0  0
 36 64  1  0  0  0  0
 36 74  1  0  0  0  0
 36 82  2  0  0  0  0
 37 70  1  0  0  0  0
 37 75  1  0  0  0  0
 37 83  2  0  0  0  0
 38 41  1  0  0  0  0
 39 51  1  0  0  0  0
 40 69  1  0  0  0  0
 41 43  1  0  0  0  0
 42 44  1  0  0  0  0
 42 46  1  0  0  0  0
 43 50  1  0  0  0  0
 44 53  1  0  0  0  0
 45 48  1  0  0  0  0
 45 52  1  0  0  0  0
 46 70  1  0  0  0  0
 47 53  1  0  0  0  0
 47 70  1  0  0  0  0
 48 76  1  0  0  0  0
 49 54  1  0  0  0  0
 49 76  1  0  0  0  0
 50 73  1  0  0  0  0
 51 69  1  0  0  0  0
 52 54  1  0  0  0  0
 52 62  1  0  0  0  0
 53 68  1  0  0  0  0
 54 75  1  0  0  0  0
 55 64  1  0  0  0  0
 56 65  1  0  0  0  0
 57 65  1  0  0  0  0
 58 65  1  0  0  0  0
 59 78  1  0  0  0  0
 60 61  1  0  0  0  0
 60 85  1  0  0  0  0
 61 86  1  0  0  0  0
 62 77  1  0  0  0  0
 63 65  1  0  0  0  0
 63 74  1  0  0  0  0
 64 78  1  0  0  0  0
 67 68  1  0  0  0  0
M  CHG  3  76   1  77   1  78   1
M  ISO  4  37 100  60 101  75 100  85 101
M  END
> <Batch ID>
0128

> <Smiles>
CNC(C)C(=O)NC(C(=O)N1Cc2cc([101O:1][101CH2:1]COc3ccc(C(N)C4CCNCC4[100NH:0][100C:0](=O)N4CCCC(n5nc(-c6ccc(Oc7ccc(F)cc7F)cc6)c(C(N)=O)c5N)C4)cn3)ccc2CC1C(=O)NC1CCCc2ccccc21)C(C)(C)C

> <Shape>
0.301

> <Color>
0.061

> <Negative vol penalty>
0.000

$$$$

  -OEChem-04052320423D

 80 88  0     1  0  0  0  0  0999 V2000
  -18.6006  -32.9232   23.9645 C   0  0  0  0  0  0  0  0  0  0  0  0
  -19.9377  -32.5405   23.9945 C   0  0  0  0  0  0  0  0  0  0  0  0
  -26.4824  -18.5641   20.4168 C   0  0  0  0  0  0  0  0  0  0  0  0
  -28.6375  -18.0127   21.3594 C   0  0  0  0  0  0  0  0  0  0  0  0
  -17.6085  -31.9693   23.7412 C   0  0  0  0  0  0  0  0  0  0  0  0
  -20.2836  -31.2034   23.8022 C   0  0  0  0  0  0  0  0  0  0  0  0
  -24.1997  -30.6450   20.6404 C   0  0  0  0  0  0  0  0  0  0  0  0
  -30.4192  -29.0991   22.8916 C   0  0  0  0  0  0  0  0  0  0  0  0
  -31.3335  -30.2256   20.9597 C   0  0  0  0  0  0  0  0  0  0  0  0
  -31.2645  -28.0142   22.6591 C   0  0  0  0  0  0  0  0  0  0  0  0
  -32.1789  -29.1407   20.7272 C   0  0  0  0  0  0  0  0  0  0  0  0
  -26.1803  -17.2063   20.3132 C   0  0  0  0  0  0  0  0  0  0  0  0
  -28.3354  -16.6549   21.2560 C   0  0  0  0  0  0  0  0  0  0  0  0
  -25.4723  -30.8929   21.1530 C   0  0  0  0  0  0  0  0  0  0  0  0
  -28.2863  -14.2908   18.8395 C   0  0  0  0  0  0  0  0  0  0  0  0
  -29.2709  -13.4449   18.3290 C   0  0  0  0  0  0  0  0  0  0  0  0
  -25.8222  -28.5206   21.4153 C   0  0  0  0  0  0  0  0  0  0  0  0
  -29.2634  -12.1903   20.3938 C   0  0  0  0  0  0  0  0  0  0  0  0
  -27.7110  -18.9673   20.9398 C   0  0  0  0  0  0  0  0  0  0  0  0
  -27.7633  -21.2182   22.1392 C   0  0  0  0  0  0  0  0  0  0  0  0
  -17.9430  -30.6214   23.5364 C   0  0  0  0  0  0  0  0  0  0  0  0
  -23.7238  -29.3313   20.5213 C   0  0  0  0  0  0  0  0  0  0  0  0
  -19.2950  -30.2304   23.5772 C   0  0  0  0  0  0  0  0  0  0  0  0
  -24.5442  -28.2586   20.8984 C   0  0  0  0  0  0  0  0  0  0  0  0
  -30.4536  -30.2047   22.0418 C   0  0  0  0  0  0  0  0  0  0  0  0
  -32.1444  -28.0350   21.5769 C   0  0  0  0  0  0  0  0  0  0  0  0
  -27.1067  -16.2517   20.7328 C   0  0  0  0  0  0  0  0  0  0  0  0
  -26.2827  -29.8308   21.5432 C   0  0  0  0  0  0  0  0  0  0  0  0
  -27.7902  -14.0865   20.1271 C   0  0  0  0  0  0  0  0  0  0  0  0
  -29.7594  -12.3946   19.1061 C   0  0  0  0  0  0  0  0  0  0  0  0
  -28.2788  -13.0362   20.9042 C   0  0  0  0  0  0  0  0  0  0  0  0
  -28.0239  -20.3698   21.0465 C   0  0  0  0  0  0  0  0  0  0  0  0
  -28.2487  -22.4418   21.7473 C   0  0  0  0  0  0  0  0  0  0  0  0
  -27.1383  -20.9263   23.3961 C   0  0  0  0  0  0  0  0  0  0  0  0
  -21.2934  -27.7045   21.7664 C   0  0  0  0  0  0  0  0  0  0  0  0
  -22.2971  -25.3969   19.7194 C   0  0  0  0  0  0  0  0  0  0  0  0
  -24.8440  -24.0633   17.8805 C   0  0  0  0  0  0  0  0  0  0  0  0
  -32.2196  -25.5733   19.3870 C   0  0  0  0  0  0  0  0  0  0  0  0
  -16.8326  -29.6188   23.3458 C   0  0  0  0  0  0  0  0  0  0  0  0
  -22.3590  -29.0793   19.9415 C   0  0  0  0  0  0  0  0  0  0  0  0
  -24.0881  -26.8287   20.7719 C   0  0  0  0  0  0  0  0  0  0  0  0
  -17.3082  -28.2838   22.7783 C   0  0  0  0  0  0  0  0  0  0  0  0
  -29.8302  -24.0609   17.2236 C   0  0  0  0  0  0  0  0  0  0  0  0
  -18.5533  -27.8030   23.5168 C   0  0  0  0  0  0  0  0  0  0  0  0
  -29.1306  -23.0321   18.1135 C   0  0  0  0  0  0  0  0  0  0  0  0
  -31.3171  -24.1739   17.5530 C   0  0  0  0  0  0  0  0  0  0  0  0
  -30.9190  -23.4102   19.8621 C   0  0  0  0  0  0  0  0  0  0  0  0
  -19.7116  -28.7937   23.3483 C   0  0  1  0  0  0  0  0  0  0  0  0
  -21.7789  -27.7272   20.3446 C   0  0  1  0  0  0  0  0  0  0  0  0
  -29.4063  -23.3012   19.6051 C   0  0  2  0  0  0  0  0  0  0  0  0
  -25.3711  -22.1545   16.3390 C   0  0  0  0  0  0  0  0  0  0  0  0
  -22.4095  -23.5020   22.1083 C   0  0  0  0  0  0  0  0  0  0  0  0
  -23.8102  -21.9542   20.7260 C   0  0  0  0  0  0  0  0  0  0  0  0
  -21.4793  -22.4917   20.0182 C   0  0  0  0  0  0  0  0  0  0  0  0
  -25.5083  -25.8943   15.6522 C   0  0  0  0  0  0  0  0  0  0  0  0
  -29.5392  -31.3791   22.2927 C   0  0  0  0  0  0  0  0  0  0  0  0
  -33.0492  -26.8754   21.3301 C   0  0  0  0  0  0  0  0  0  0  0  0
  -28.2013  -31.2358   21.5754 C   0  0  0  0  0  0  0  0  0  1  0  0
  -23.2794  -24.2532   19.7963 C   0  0  1  0  0  0  0  0  0  0  0  0
  -24.9084  -23.5999   16.4364 C   0  0  2  0  0  0  0  0  0  0  0  0
  -22.7527  -23.0772   20.6665 C   0  0  0  0  0  0  0  0  0  0  0  0
  -28.6279  -21.0010   20.0362 N   0  0  0  0  0  0  0  0  0  0  0  0
  -28.7507  -22.2591   20.4924 N   0  0  0  0  0  0  0  0  0  0  0  0
  -22.7433  -26.6342   20.2052 N   0  0  0  0  0  0  0  0  0  0  0  0
  -31.5097  -24.4309   18.9823 N   0  0  0  0  0  0  0  0  0  0  0  0
  -28.2907  -23.6455   22.3570 N   0  0  0  0  0  0  0  0  0  0  0  0
  -26.6979  -19.6174   23.6354 N   0  0  0  0  0  0  0  0  0  0  0  0
  -20.3187  -28.6441   22.0431 N   0  0  0  0  0  0  0  0  0  0  0  0
  -23.5868  -23.8858   18.4183 N   0  0  0  0  0  0  0  0  0  0  0  0
  -32.3509  -25.7450   20.7596 N   0  0  0  0  0  0  0  0  0  0  0  0
  -25.8559  -24.4499   15.6614 N   0  3  0  0  0  0  0  0  0  0  0  0
  -26.9604  -21.8041   24.2744 O   0  0  0  0  0  0  0  0  0  0  0  0
  -21.7669  -26.8935   22.5536 O   0  0  0  0  0  0  0  0  0  0  0  0
  -21.1778  -25.2016   19.2393 O   0  0  0  0  0  0  0  0  0  0  0  0
  -25.8131  -24.5322   18.4734 O   0  0  0  0  0  0  0  0  0  0  0  0
  -32.6962  -26.3833   18.5847 O   0  0  0  0  0  0  0  0  0  0  0  0
  -26.8122  -14.9267   20.6322 O   0  0  0  0  0  0  0  0  0  0  0  0
  -27.5250  -30.0701   22.0445 O   0  0  0  0  0  0  0  0  0  1  0  0
  -30.7038  -11.5814   18.6152 F   0  0  0  0  0  0  0  0  0  0  0  0
  -27.8053  -12.8342   22.1415 F   0  0  0  0  0  0  0  0  0  0  0  0
  1  2  1  0  0  0  0
  1  5  2  0  0  0  0
  2  6  2  0  0  0  0
  3 12  2  0  0  0  0
  3 19  1  0  0  0  0
  4 13  1  0  0  0  0
  4 19  2  0  0  0  0
  5 21  1  0  0  0  0
  6 23  1  0  0  0  0
  7 14  2  0  0  0  0
  7 22  1  0  0  0  0
  8 10  2  0  0  0  0
  8 25  1  0  0  0  0
  9 11  1  0  0  0  0
  9 25  2  0  0  0  0
 10 26  1  0  0  0  0
 11 26  2  0  0  0  0
 12 27  1  0  0  0  0
 13 27  2  0  0  0  0
 14 28  1  0  0  0  0
 15 16  2  0  0  0  0
 15 29  1  0  0  0  0
 16 30  1  0  0  0  0
 17 24  1  0  0  0  0
 17 28  2  0  0  0  0
 18 30  2  0  0  0  0
 18 31  1  0  0  0  0
 19 32  1  0  0  0  0
 20 32  1  0  0  0  0
 20 33  2  0  0  0  0
 20 34  1  0  0  0  0
 21 23  2  0  0  0  0
 21 39  1  0  0  0  0
 22 24  2  0  0  0  0
 22 40  1  0  0  0  0
 23 48  1  0  0  0  0
 24 41  1  0  0  0  0
 25 56  1  0  0  0  0
 26 57  1  0  0  0  0
 27 77  1  0  0  0  0
 28 78  1  0  0  0  0
 29 31  2  0  0  0  0
 29 77  1  0  0  0  0
 30 79  1  0  0  0  0
 31 80  1  0  0  0  0
 32 62  2  0  0  0  0
 33 63  1  0  0  0  0
 33 66  1  0  0  0  0
 34 67  1  0  0  0  0
 34 72  2  0  0  0  0
 35 49  1  0  0  0  0
 35 68  1  0  0  0  0
 35 73  2  0  0  0  0
 36 59  1  0  0  0  0
 36 64  1  0  0  0  0
 36 74  2  0  0  0  0
 37 60  1  0  0  0  0
 37 69  1  0  0  0  0
 37 75  2  0  0  0  0
 38 65  1  0  0  0  0
 38 70  1  0  0  0  0
 38 76  2  0  0  0  0
 39 42  1  0  0  0  0
 40 49  1  0  0  0  0
 41 64  1  0  0  0  0
 42 44  1  0  0  0  0
 43 45  1  0  0  0  0
 43 46  1  0  0  0  0
 44 48  1  0  0  0  0
 45 50  1  0  0  0  0
 46 65  1  0  0  0  0
 47 50  1  0  0  0  0
 47 65  1  0  0  0  0
 48 68  1  0  0  0  0
 49 64  1  0  0  0  0
 50 63  1  0  0  0  0
 51 60  1  0  0  0  0
 52 61  1  0  0  0  0
 53 61  1  0  0  0  0
 54 61  1  0  0  0  0
 55 71  1  0  0  0  0
 56 58  1  0  0  0  0
 57 70  1  0  0  0  0
 58 78  1  0  0  0  0
 59 61  1  0  0  0  0
 59 69  1  0  0  0  0
 60 71  1  0  0  0  0
 62 63  1  0  0  0  0
M  CHG  1  71   1
M  ISO  4  38 100  58 101  70 100  78 101
M  END
> <Batch ID>
0128

> <Smiles>
CNC(C)C(=O)NC(C(=O)N1Cc2cc([101O:1][101CH2:1]Cc3ccc(C[100NH:0][100C:0](=O)N4CCCC(n5nc(-c6ccc(Oc7ccc(F)cc7F)cc6)c(C(N)=O)c5N)C4)cc3)ccc2CC1C(=O)NC1CCCc2ccccc21)C(C)(C)C

> <Shape>
0.240

> <Color>
0.058

> <Negative vol penalty>
0.000

$$$$

  -OEChem-04052320423D

 85 94  0     1  0  0  0  0  0999 V2000
  -33.6017  -32.0224   27.9581 C   0  0  0  0  0  0  0  0  0  0  0  0
  -33.2935  -30.9721   27.0994 C   0  0  0  0  0  0  0  0  0  0  0  0
  -23.0554   -9.8716   19.9729 C   0  0  0  0  0  0  0  0  0  0  0  0
  -23.9053   -9.8780   22.2345 C   0  0  0  0  0  0  0  0  0  0  0  0
  -34.4955  -31.8225   29.0093 C   0  0  0  0  0  0  0  0  0  0  0  0
  -33.8798  -29.7215   27.2909 C   0  0  0  0  0  0  0  0  0  0  0  0
  -30.5462  -25.9308   26.8871 C   0  0  0  0  0  0  0  0  0  0  0  0
  -29.9102  -19.5740   21.3861 C   0  0  0  0  0  0  0  0  0  0  0  0
  -22.3332   -8.7104   20.2476 C   0  0  0  0  0  0  0  0  0  0  0  0
  -23.1831   -8.7167   22.5092 C   0  0  0  0  0  0  0  0  0  0  0  0
  -30.1690  -25.5490   25.6004 C   0  0  0  0  0  0  0  0  0  0  0  0
  -19.9892   -7.8851   23.2357 C   0  0  0  0  0  0  0  0  0  0  0  0
  -19.2796   -7.8336   24.4354 C   0  0  0  0  0  0  0  0  0  0  0  0
  -29.4533  -18.2865   21.1274 C   0  0  0  0  0  0  0  0  0  0  0  0
  -31.7066  -23.6932   25.7069 C   0  0  0  0  0  0  0  0  0  0  0  0
  -20.5678   -5.9059   25.1147 C   0  0  0  0  0  0  0  0  0  0  0  0
  -23.8415  -10.4554   20.9664 C   0  0  0  0  0  0  0  0  0  0  0  0
  -24.1539  -12.9842   20.8428 C   0  0  0  0  0  0  0  0  0  0  0  0
  -35.0856  -30.5662   29.2196 C   0  0  0  0  0  0  0  0  0  0  0  0
  -31.5160  -25.2019   27.5904 C   0  0  0  0  0  0  0  0  0  0  0  0
  -34.7833  -29.5050   28.3452 C   0  0  0  0  0  0  0  0  0  0  0  0
  -31.2770  -19.8271   21.4194 C   0  0  0  0  0  0  0  0  0  0  0  0
  -32.0925  -24.0664   27.0034 C   0  0  0  0  0  0  0  0  0  0  0  0
  -22.3970   -8.1329   21.5157 C   0  0  0  0  0  0  0  0  0  0  0  0
  -30.7513  -24.4317   25.0090 C   0  0  0  0  0  0  0  0  0  0  0  0
  -20.9881   -6.9469   22.9754 C   0  0  0  0  0  0  0  0  0  0  0  0
  -19.5689   -6.8440   25.3749 C   0  0  0  0  0  0  0  0  0  0  0  0
  -21.2774   -5.9573   23.9149 C   0  0  0  0  0  0  0  0  0  0  0  0
  -24.5882  -11.6547   20.6831 C   0  0  0  0  0  0  0  0  0  0  0  0
  -32.1387  -18.7667   21.1895 C   0  0  0  0  0  0  0  0  0  0  0  0
  -30.3967  -17.2951   20.9104 C   0  0  0  0  0  0  0  0  0  0  0  0
  -25.2235  -13.7457   20.4396 C   0  0  0  0  0  0  0  0  0  0  0  0
  -22.8960  -13.4861   21.3136 C   0  0  0  0  0  0  0  0  0  0  0  0
  -34.3925  -25.8558   28.7743 C   0  0  0  0  0  0  0  0  0  0  0  0
  -34.1373  -22.8650   30.0040 C   0  0  0  0  0  0  0  0  0  0  0  0
  -32.7297  -19.7623   29.8081 C   0  0  0  0  0  0  0  0  0  0  0  0
  -30.6819  -14.8443   20.4021 C   0  0  0  0  0  0  0  0  0  0  0  0
  -36.0821  -30.4109   30.3410 C   0  0  0  0  0  0  0  0  0  0  0  0
  -31.8924  -25.6112   28.9879 C   0  0  0  0  0  0  0  0  0  0  0  0
  -33.1235  -23.2380   27.7240 C   0  0  0  0  0  0  0  0  0  0  0  0
  -36.3725  -28.9560   30.7006 C   0  0  0  0  0  0  0  0  0  0  0  0
  -29.4981  -12.4280   18.0703 C   0  0  0  0  0  0  0  0  0  0  0  0
  -32.0118  -22.0278   20.4076 C   0  0  0  0  0  0  0  0  0  0  0  0
  -36.6180  -28.1332   29.4398 C   0  0  0  0  0  0  0  0  0  0  0  0
  -28.0794  -12.1208   18.5553 C   0  0  0  0  0  0  0  0  0  0  0  0
  -32.5434  -23.4292   20.7063 C   0  0  0  0  0  0  0  0  0  0  0  0
  -30.8494  -21.9927   22.6558 C   0  0  0  0  0  0  0  0  0  0  0  0
  -30.4578  -12.6615   19.2357 C   0  0  0  0  0  0  0  0  0  0  0  0
  -28.6001  -13.3624   20.6941 C   0  0  0  0  0  0  0  0  0  0  0  0
  -31.7828  -21.2299   21.7026 C   0  0  1  0  0  0  0  0  0  0  0  0
  -35.3798  -28.1272   28.5352 C   0  0  1  0  0  0  0  0  0  0  0  0
  -33.2642  -25.0960   29.4124 C   0  0  1  0  0  0  0  0  0  0  0  0
  -27.5831  -13.1837   19.5550 C   0  0  2  0  0  0  0  0  0  0  0  0
  -31.6192  -24.1795   21.6636 C   0  0  1  0  0  0  0  0  0  0  0  0
  -31.3707  -23.4012   22.9587 C   0  0  1  0  0  0  0  0  0  1  0  0
  -33.6169  -18.9805   21.2146 C   0  0  0  0  0  0  0  0  0  0  0  0
  -32.7451  -17.5177   30.9303 C   0  0  0  0  0  0  0  0  0  0  0  0
  -36.8256  -22.2366   28.7048 C   0  0  0  0  0  0  0  0  0  0  0  0
  -36.3370  -19.8032   29.0338 C   0  0  0  0  0  0  0  0  0  0  0  0
  -36.5396  -21.3113   31.0105 C   0  0  0  0  0  0  0  0  0  0  0  0
  -29.8522  -19.9467   30.4749 C   0  0  0  0  0  0  0  0  0  0  0  0
  -34.4987  -21.4788   29.5278 C   0  0  1  0  0  0  0  0  0  0  0  0
  -32.0790  -18.8831   30.8607 C   0  0  2  0  0  0  0  0  0  0  0  0
  -36.0323  -21.2240   29.5546 C   0  0  0  0  0  0  0  0  0  0  0  0
  -25.8364  -11.5728   20.2147 N   0  0  0  0  0  0  0  0  0  0  0  0
  -31.7323  -17.5027   20.9349 N   0  0  0  0  0  0  0  0  0  0  0  0
  -26.1955  -12.8604   20.0766 N   0  0  0  0  0  0  0  0  0  0  0  0
  -33.4629  -23.6824   29.0860 N   0  0  0  0  0  0  0  0  0  0  0  0
  -29.9240  -13.6837   20.1385 N   0  0  0  0  0  0  0  0  0  0  0  0
  -25.4179  -15.0794   20.3635 N   0  0  0  0  0  0  0  0  0  0  0  0
  -21.9071  -12.5658   21.6871 N   0  0  0  0  0  0  0  0  0  0  0  0
  -29.9208  -15.9866   20.6477 N   0  0  0  0  0  0  0  0  0  0  0  0
  -34.3841  -27.2104   29.0475 N   0  0  0  0  0  0  0  0  0  0  0  0
  -33.7245  -20.5515   30.3457 N   0  0  0  0  0  0  0  0  0  0  0  0
  -32.2536  -25.4895   21.9884 N   0  3  0  0  0  0  0  0  0  0  0  0
  -30.6347  -18.6862   30.5504 N   0  3  0  0  0  0  0  0  0  0  0  0
  -22.6503  -14.7141   21.3851 O   0  0  0  0  0  0  0  0  0  0  0  0
  -35.2111  -25.2573   28.0863 O   0  0  0  0  0  0  0  0  0  0  0  0
  -34.4359  -23.2074   31.1509 O   0  0  0  0  0  0  0  0  0  0  0  0
  -32.3921  -19.7475   28.6264 O   0  0  0  0  0  0  0  0  0  0  0  0
  -31.9154  -14.8321   20.3825 O   0  0  0  0  0  0  0  0  0  0  0  0
  -21.6922   -6.9999   21.7841 O   0  0  0  0  0  0  0  0  0  0  0  0
  -30.3855  -24.0572   23.7529 O   0  0  0  0  0  0  0  0  0  1  0  0
  -18.8884   -6.7956   26.5277 F   0  0  0  0  0  0  0  0  0  0  0  0
  -22.2367   -5.0540   23.6709 F   0  0  0  0  0  0  0  0  0  0  0  0
  1  2  1  0  0  0  0
  1  5  2  0  0  0  0
  2  6  2  0  0  0  0
  3  9  2  0  0  0  0
  3 17  1  0  0  0  0
  4 10  1  0  0  0  0
  4 17  2  0  0  0  0
  5 19  1  0  0  0  0
  6 21  1  0  0  0  0
  7 11  2  0  0  0  0
  7 20  1  0  0  0  0
  8 14  2  0  0  0  0
  8 22  1  0  0  0  0
  9 24  1  0  0  0  0
 10 24  2  0  0  0  0
 11 25  1  0  0  0  0
 12 13  2  0  0  0  0
 12 26  1  0  0  0  0
 13 27  1  0  0  0  0
 14 31  1  0  0  0  0
 15 23  1  0  0  0  0
 15 25  2  0  0  0  0
 16 27  2  0  0  0  0
 16 28  1  0  0  0  0
 17 29  1  0  0  0  0
 18 29  1  0  0  0  0
 18 32  2  0  0  0  0
 18 33  1  0  0  0  0
 19 21  2  0  0  0  0
 19 38  1  0  0  0  0
 20 23  2  0  0  0  0
 20 39  1  0  0  0  0
 21 51  1  0  0  0  0
 22 30  2  0  0  0  0
 22 50  1  0  0  0  0
 23 40  1  0  0  0  0
 24 82  1  0  0  0  0
 25 83  1  0  0  0  0
 26 28  2  0  0  0  0
 26 82  1  0  0  0  0
 27 84  1  0  0  0  0
 28 85  1  0  0  0  0
 29 65  2  0  0  0  0
 30 56  1  0  0  0  0
 30 66  1  0  0  0  0
 31 66  2  0  0  0  0
 31 72  1  0  0  0  0
 32 67  1  0  0  0  0
 32 70  1  0  0  0  0
 33 71  1  0  0  0  0
 33 77  2  0  0  0  0
 34 52  1  0  0  0  0
 34 73  1  0  0  0  0
 34 78  2  0  0  0  0
 35 62  1  0  0  0  0
 35 68  1  0  0  0  0
 35 79  2  0  0  0  0
 36 63  1  0  0  0  0
 36 74  1  0  0  0  0
 36 80  2  0  0  0  0
 37 69  1  0  0  0  0
 37 72  1  0  0  0  0
 37 81  2  0  0  0  0
 38 41  1  0  0  0  0
 39 52  1  0  0  0  0
 40 68  1  0  0  0  0
 41 44  1  0  0  0  0
 42 45  1  0  0  0  0
 42 48  1  0  0  0  0
 43 46  1  0  0  0  0
 43 50  1  0  0  0  0
 44 51  1  0  0  0  0
 45 53  1  0  0  0  0
 46 54  1  0  0  0  0
 47 50  1  0  0  0  0
 47 55  1  0  0  0  0
 48 69  1  0  0  0  0
 49 53  1  0  0  0  0
 49 69  1  0  0  0  0
 51 73  1  0  0  0  0
 52 68  1  0  0  0  0
 53 67  1  0  0  0  0
 54 55  1  0  0  0  0
 54 75  1  0  0  0  0
 55 83  1  0  0  0  0
 57 63  1  0  0  0  0
 58 64  1  0  0  0  0
 59 64  1  0  0  0  0
 60 64  1  0  0  0  0
 61 76  1  0  0  0  0
 62 64  1  0  0  0  0
 62 74  1  0  0  0  0
 63 76  1  0  0  0  0
 65 67  1  0  0  0  0
M  CHG  2  75   1  76   1
M  ISO  4  37 100  55 101  72 100  83 101
M  END
> <Batch ID>
0128

> <Smiles>
CNC(C)C(=O)NC(C(=O)N1Cc2cc([101O:1][101CH:1]3CC(c4ccc([100NH:0][100C:0](=O)N5CCCC(n6nc(-c7ccc(Oc8ccc(F)cc8F)cc7)c(C(N)=O)c6N)C5)nc4C)CCC3N)ccc2CC1C(=O)NC1CCCc2ccccc21)C(C)(C)C

> <Shape>
0.176

> <Color>
0.181

> <Negative vol penalty>
0.000

$$$$

  -OEChem-04052320423D

 88 97  0     1  0  0  0  0  0999 V2000
  -33.8157  -33.4852   15.1500 C   0  0  0  0  0  0  0  0  0  0  0  0
  -33.3162  -32.2502   14.7490 C   0  0  0  0  0  0  0  0  0  0  0  0
  -23.0000   -9.8976   19.9807 C   0  0  0  0  0  0  0  0  0  0  0  0
  -23.7303   -9.9425   22.2833 C   0  0  0  0  0  0  0  0  0  0  0  0
  -34.2002  -33.6833   16.4754 C   0  0  0  0  0  0  0  0  0  0  0  0
  -33.2020  -31.2122   15.6731 C   0  0  0  0  0  0  0  0  0  0  0  0
  -28.8510  -26.9062   15.8538 C   0  0  0  0  0  0  0  0  0  0  0  0
  -22.2337   -8.7626   20.2459 C   0  0  0  0  0  0  0  0  0  0  0  0
  -22.9640   -8.8076   22.5485 C   0  0  0  0  0  0  0  0  0  0  0  0
  -28.8178  -25.5868   15.4044 C   0  0  0  0  0  0  0  0  0  0  0  0
  -23.2064   -5.4698   22.0676 C   0  0  0  0  0  0  0  0  0  0  0  0
  -23.7953   -4.4505   22.8158 C   0  0  0  0  0  0  0  0  0  0  0  0
  -29.4086  -24.8250   17.6157 C   0  0  0  0  0  0  0  0  0  0  0  0
  -22.0752   -4.6897   24.4955 C   0  0  0  0  0  0  0  0  0  0  0  0
  -23.7483  -10.4875   20.9994 C   0  0  0  0  0  0  0  0  0  0  0  0
  -24.1339  -13.0034   20.8289 C   0  0  0  0  0  0  0  0  0  0  0  0
  -34.0816  -32.6502   17.4184 C   0  0  0  0  0  0  0  0  0  0  0  0
  -29.1745  -27.1960   17.1871 C   0  0  0  0  0  0  0  0  0  0  0  0
  -33.5866  -31.3963   17.0121 C   0  0  0  0  0  0  0  0  0  0  0  0
  -29.4428  -26.1487   18.0801 C   0  0  0  0  0  0  0  0  0  0  0  0
  -22.2157   -8.2176   21.5298 C   0  0  0  0  0  0  0  0  0  0  0  0
  -29.0995  -24.5462   16.2846 C   0  0  0  0  0  0  0  0  0  0  0  0
  -22.0519   -6.0991   22.5333 C   0  0  0  0  0  0  0  0  0  0  0  0
  -23.2298   -4.0604   24.0297 C   0  0  0  0  0  0  0  0  0  0  0  0
  -21.4863   -5.7090   23.7472 C   0  0  0  0  0  0  0  0  0  0  0  0
  -24.5405  -11.6596   20.7260 C   0  0  0  0  0  0  0  0  0  0  0  0
  -25.2430  -13.7267   20.4639 C   0  0  0  0  0  0  0  0  0  0  0  0
  -22.8670  -13.5492   21.2196 C   0  0  0  0  0  0  0  0  0  0  0  0
  -31.5000  -28.8119   18.6308 C   0  0  0  0  0  0  0  0  0  0  0  0
  -29.7371  -28.2123   21.2869 C   0  0  0  0  0  0  0  0  0  0  0  0
  -27.4213  -26.2484   22.8448 C   0  0  0  0  0  0  0  0  0  0  0  0
  -30.7402  -14.6592   20.7025 C   0  0  0  0  0  0  0  0  0  0  0  0
  -34.5544  -32.8971   18.8291 C   0  0  0  0  0  0  0  0  0  0  0  0
  -29.1799  -28.6229   17.6628 C   0  0  0  0  0  0  0  0  0  0  0  0
  -29.7757  -26.4055   19.5264 C   0  0  0  0  0  0  0  0  0  0  0  0
  -34.0509  -31.8608   19.8305 C   0  0  0  0  0  0  0  0  0  0  0  0
  -32.3294  -21.8011   14.6575 C   0  0  0  0  0  0  0  0  0  0  0  0
  -31.9584  -20.3356   14.8639 C   0  0  0  0  0  0  0  0  0  0  0  0
  -29.5936  -12.2418   18.3535 C   0  0  0  0  0  0  0  0  0  0  0  0
  -34.2345  -30.4510   19.2776 C   0  0  0  0  0  0  0  0  0  0  0  0
  -28.1460  -11.9813   18.7736 C   0  0  0  0  0  0  0  0  0  0  0  0
  -27.3821  -19.9103   20.2897 C   0  0  0  0  0  0  0  0  0  0  0  0
  -26.9058  -20.9490   19.2718 C   0  0  0  0  0  0  0  0  0  0  0  0
  -31.0960  -22.6963   14.6809 C   0  0  0  0  0  0  0  0  0  0  0  0
  -31.1548  -20.1399   16.1441 C   0  0  0  0  0  0  0  0  0  0  0  0
  -28.8167  -18.8173   18.4984 C   0  0  0  0  0  0  0  0  0  0  0  0
  -30.4988  -12.4738   19.5613 C   0  0  0  0  0  0  0  0  0  0  0  0
  -28.5919  -13.2665   20.9063 C   0  0  0  0  0  0  0  0  0  0  0  0
  -33.4244  -30.2534   17.9906 C   0  0  1  0  0  0  0  0  0  0  0  0
  -30.0249  -28.8319   18.9157 C   0  0  1  0  0  0  0  0  0  0  0  0
  -27.6302  -13.0821   19.7200 C   0  0  2  0  0  0  0  0  0  0  0  0
  -28.7658  -19.3744   19.9245 C   0  0  2  0  0  0  0  0  0  0  0  0
  -26.9524  -20.3740   17.8556 C   0  0  2  0  0  0  0  0  0  0  0  0
  -30.2764  -22.5059   15.9568 C   0  0  2  0  0  0  0  0  0  1  0  0
  -29.9175  -21.0362   16.1844 C   0  0  2  0  0  0  0  0  0  0  0  0
  -28.3457  -19.8590   17.4759 C   0  0  1  0  0  0  0  0  0  0  0  0
  -26.2092  -25.9849   25.0262 C   0  0  0  0  0  0  0  0  0  0  0  0
  -32.2584  -27.0403   22.5436 C   0  0  0  0  0  0  0  0  0  0  0  0
  -30.8093  -25.9629   24.2778 C   0  0  0  0  0  0  0  0  0  0  0  0
  -30.8824  -28.4489   24.0852 C   0  0  0  0  0  0  0  0  0  0  0  0
  -24.7838  -26.6338   21.5587 C   0  0  0  0  0  0  0  0  0  0  0  0
  -30.8261  -16.8351   21.8930 C   0  0  0  0  0  0  0  0  0  0  0  0
  -30.5756  -17.9613   20.9076 C   0  0  0  0  0  0  0  0  0  0  0  0
  -29.6880  -27.1028   22.3095 C   0  0  1  0  0  0  0  0  0  0  0  0
  -26.1725  -26.5969   23.6345 C   0  0  2  0  0  0  0  0  0  0  0  0
  -30.9052  -27.1337   23.2764 C   0  0  0  0  0  0  0  0  0  0  0  0
  -25.8088  -11.5338   20.3267 N   0  0  0  0  0  0  0  0  0  0  0  0
  -26.2088  -12.8078   20.1754 N   0  0  0  0  0  0  0  0  0  0  0  0
  -29.7744  -27.8179   19.9420 N   0  0  0  0  0  0  0  0  0  0  0  0
  -29.9542  -13.5306   20.4172 N   0  0  0  0  0  0  0  0  0  0  0  0
  -25.4766  -15.0526   20.3646 N   0  0  0  0  0  0  0  0  0  0  0  0
  -21.8357  -12.6645   21.5632 N   0  0  0  0  0  0  0  0  0  0  0  0
  -32.0260  -30.0463   18.3005 N   0  0  0  0  0  0  0  0  0  0  0  0
  -28.3941  -27.2170   22.9738 N   0  0  0  0  0  0  0  0  0  0  0  0
  -30.1459  -15.6161   21.5161 N   0  0  0  0  0  0  0  0  0  0  0  0
  -26.5233  -21.4285   16.8986 N   0  3  0  0  0  0  0  0  0  0  0  0
  -29.1258  -18.2888   20.8761 N   0  3  0  0  0  0  0  0  0  0  0  0
  -24.9582  -26.0942   22.9318 N   0  3  0  0  0  0  0  0  0  0  0  0
  -22.6506  -14.7845   21.2470 O   0  0  0  0  0  0  0  0  0  0  0  0
  -32.1158  -27.7551   18.7067 O   0  0  0  0  0  0  0  0  0  0  0  0
  -29.7350  -29.3857   21.6672 O   0  0  0  0  0  0  0  0  0  0  0  0
  -27.5249  -25.2180   22.1828 O   0  0  0  0  0  0  0  0  0  0  0  0
  -31.8847  -14.8059   20.2602 O   0  0  0  0  0  0  0  0  0  0  0  0
  -21.4679   -7.1103   21.7889 O   0  0  0  0  0  0  0  0  0  0  0  0
  -29.0684  -23.2575   15.8484 O   0  0  0  0  0  0  0  0  0  1  0  0
  -29.2967  -20.9124   17.4632 O   0  0  0  0  0  0  0  0  0  0  0  0
  -23.7946   -3.0806   24.7474 F   0  0  0  0  0  0  0  0  0  0  0  0
  -20.3766   -6.3090   24.1992 F   0  0  0  0  0  0  0  0  0  0  0  0
  1  2  1  0  0  0  0
  1  5  2  0  0  0  0
  2  6  2  0  0  0  0
  3  8  2  0  0  0  0
  3 15  1  0  0  0  0
  4  9  1  0  0  0  0
  4 15  2  0  0  0  0
  5 17  1  0  0  0  0
  6 19  1  0  0  0  0
  7 10  2  0  0  0  0
  7 18  1  0  0  0  0
  8 21  1  0  0  0  0
  9 21  2  0  0  0  0
 10 22  1  0  0  0  0
 11 12  2  0  0  0  0
 11 23  1  0  0  0  0
 12 24  1  0  0  0  0
 13 20  1  0  0  0  0
 13 22  2  0  0  0  0
 14 24  2  0  0  0  0
 14 25  1  0  0  0  0
 15 26  1  0  0  0  0
 16 26  1  0  0  0  0
 16 27  2  0  0  0  0
 16 28  1  0  0  0  0
 17 19  2  0  0  0  0
 17 33  1  0  0  0  0
 18 20  2  0  0  0  0
 18 34  1  0  0  0  0
 19 49  1  0  0  0  0
 20 35  1  0  0  0  0
 21 84  1  0  0  0  0
 22 85  1  0  0  0  0
 23 25  2  0  0  0  0
 23 84  1  0  0  0  0
 24 87  1  0  0  0  0
 25 88  1  0  0  0  0
 26 67  2  0  0  0  0
 27 68  1  0  0  0  0
 27 71  1  0  0  0  0
 28 72  1  0  0  0  0
 28 79  2  0  0  0  0
 29 50  1  0  0  0  0
 29 73  1  0  0  0  0
 29 80  2  0  0  0  0
 30 64  1  0  0  0  0
 30 69  1  0  0  0  0
 30 81  2  0  0  0  0
 31 65  1  0  0  0  0
 31 74  1  0  0  0  0
 31 82  2  0  0  0  0
 32 70  1  0  0  0  0
 32 75  1  0  0  0  0
 32 83  2  0  0  0  0
 33 36  1  0  0  0  0
 34 50  1  0  0  0  0
 35 69  1  0  0  0  0
 36 40  1  0  0  0  0
 37 38  1  0  0  0  0
 37 44  1  0  0  0  0
 38 45  1  0  0  0  0
 39 41  1  0  0  0  0
 39 47  1  0  0  0  0
 40 49  1  0  0  0  0
 41 51  1  0  0  0  0
 42 43  1  0  0  0  0
 42 52  1  0  0  0  0
 43 53  1  0  0  0  0
 44 54  1  0  0  0  0
 45 55  1  0  0  0  0
 46 52  1  0  0  0  0
 46 56  1  0  0  0  0
 47 70  1  0  0  0  0
 48 51  1  0  0  0  0
 48 70  1  0  0  0  0
 49 73  1  0  0  0  0
 50 69  1  0  0  0  0
 51 68  1  0  0  0  0
 52 77  1  0  0  0  0
 53 56  1  0  0  0  0
 53 76  1  0  0  0  0
 54 55  1  0  0  0  0
 54 85  1  0  0  0  0
 55 86  1  0  0  0  0
 56 86  1  0  0  0  0
 57 65  1  0  0  0  0
 58 66  1  0  0  0  0
 59 66  1  0  0  0  0
 60 66  1  0  0  0  0
 61 78  1  0  0  0  0
 62 63  1  0  0  0  0
 62 75  1  0  0  0  0
 63 77  1  0  0  0  0
 64 66  1  0  0  0  0
 64 74  1  0  0  0  0
 65 78  1  0  0  0  0
 67 68  1  0  0  0  0
M  CHG  3  76   1  77   1  78   1
M  ISO  4  32 100  54 101  75 100  85 101
M  END
> <Batch ID>
0128

> <Smiles>
CNC(C)C(=O)NC(C(=O)N1Cc2cc([101O:1][101CH:1]3CCCCC3OC3CC(NCC[100NH:0][100C:0](=O)N4CCCC(n5nc(-c6ccc(Oc7ccc(F)cc7F)cc6)c(C(N)=O)c5N)C4)CCC3N)ccc2CC1C(=O)NC1CCCc2ccccc21)C(C)(C)C

> <Shape>
0.253

> <Color>
0.182

> <Negative vol penalty>
0.000

$$$$

  -OEChem-04052320423D

 87 96  0     1  0  0  0  0  0999 V2000
  -24.0116   -8.3644   21.3778 C   0  0  0  0  0  0  0  0  0  0  0  0
  -24.7036   -9.5023   20.9756 C   0  0  0  0  0  0  0  0  0  0  0  0
  -19.4966  -27.9574   21.4222 C   0  0  0  0  0  0  0  0  0  0  0  0
  -20.5140  -26.3320   22.8918 C   0  0  0  0  0  0  0  0  0  0  0  0
  -22.6375   -8.4293   21.6047 C   0  0  0  0  0  0  0  0  0  0  0  0
  -24.0215  -10.7057   20.7990 C   0  0  0  0  0  0  0  0  0  0  0  0
  -26.4697  -14.6432   22.8356 C   0  0  0  0  0  0  0  0  0  0  0  0
  -31.2695  -20.8724   19.9697 C   0  0  0  0  0  0  0  0  0  0  0  0
  -29.4106  -21.3760   21.4284 C   0  0  0  0  0  0  0  0  0  0  0  0
  -18.2317  -27.5388   21.8347 C   0  0  0  0  0  0  0  0  0  0  0  0
  -19.2490  -25.9133   23.3044 C   0  0  0  0  0  0  0  0  0  0  0  0
  -27.5504  -15.1593   22.1218 C   0  0  0  0  0  0  0  0  0  0  0  0
  -31.2969  -22.2009   19.5458 C   0  0  0  0  0  0  0  0  0  0  0  0
  -29.4380  -22.7047   21.0045 C   0  0  0  0  0  0  0  0  0  0  0  0
  -16.2834  -24.1700   24.4775 C   0  0  0  0  0  0  0  0  0  0  0  0
  -16.0495  -22.7974   24.5592 C   0  0  0  0  0  0  0  0  0  0  0  0
  -26.1457  -16.9360   21.2915 C   0  0  0  0  0  0  0  0  0  0  0  0
  -16.5308  -22.5751   22.2020 C   0  0  0  0  0  0  0  0  0  0  0  0
  -20.6378  -27.3540   21.9507 C   0  0  0  0  0  0  0  0  0  0  0  0
  -22.7346  -28.7994   22.0993 C   0  0  0  0  0  0  0  0  0  0  0  0
  -21.9399   -9.6364   21.4402 C   0  0  0  0  0  0  0  0  0  0  0  0
  -25.2140  -15.2644   22.7739 C   0  0  0  0  0  0  0  0  0  0  0  0
  -22.6365  -10.7865   21.0227 C   0  0  0  0  0  0  0  0  0  0  0  0
  -25.0513  -16.4272   22.0074 C   0  0  0  0  0  0  0  0  0  0  0  0
  -30.3263  -20.4599   20.9109 C   0  0  0  0  0  0  0  0  0  0  0  0
  -18.1079  -26.5167   22.7758 C   0  0  0  0  0  0  0  0  0  0  0  0
  -30.3812  -23.1171   20.0632 C   0  0  0  0  0  0  0  0  0  0  0  0
  -27.3878  -16.3042   21.3473 C   0  0  0  0  0  0  0  0  0  0  0  0
  -16.6410  -24.7453   23.2581 C   0  0  0  0  0  0  0  0  0  0  0  0
  -16.1732  -21.9999   23.4215 C   0  0  0  0  0  0  0  0  0  0  0  0
  -16.7647  -23.9478   22.1204 C   0  0  0  0  0  0  0  0  0  0  0  0
  -21.9448  -27.7857   21.5245 C   0  0  0  0  0  0  0  0  0  0  0  0
  -23.8754  -28.8209   21.3348 C   0  0  0  0  0  0  0  0  0  0  0  0
  -22.4614  -29.6459   23.2238 C   0  0  0  0  0  0  0  0  0  0  0  0
  -22.3260  -14.3910   21.7738 C   0  0  0  0  0  0  0  0  0  0  0  0
  -21.4565  -17.2596   23.0136 C   0  0  0  0  0  0  0  0  0  0  0  0
  -22.3704  -20.4189   23.9248 C   0  0  0  0  0  0  0  0  0  0  0  0
  -27.9823  -26.1987   18.8439 C   0  0  0  0  0  0  0  0  0  0  0  0
  -20.4466   -9.6465   21.6515 C   0  0  0  0  0  0  0  0  0  0  0  0
  -24.0650  -14.7105   23.5709 C   0  0  0  0  0  0  0  0  0  0  0  0
  -23.7290  -17.1434   21.9238 C   0  0  0  0  0  0  0  0  0  0  0  0
  -19.8625  -11.0485   21.8043 C   0  0  0  0  0  0  0  0  0  0  0  0
  -24.9327  -26.5680   16.9305 C   0  0  0  0  0  0  0  0  0  0  0  0
  -20.4136  -11.9768   20.7266 C   0  0  0  0  0  0  0  0  0  0  0  0
  -23.9449  -27.0046   18.0139 C   0  0  0  0  0  0  0  0  0  0  0  0
  -25.9198  -25.5350   17.4662 C   0  0  0  0  0  0  0  0  0  0  0  0
  -25.6886  -26.4091   19.7588 C   0  0  0  0  0  0  0  0  0  0  0  0
  -30.6661  -17.9652   20.6163 C   0  0  0  0  0  0  0  0  0  0  0  0
  -21.9362  -12.1161   20.8444 C   0  0  1  0  0  0  0  0  0  0  0  0
  -22.7030  -15.1300   23.0266 C   0  0  1  0  0  0  0  0  0  0  0  0
  -24.6780  -27.4698   19.2860 C   0  0  2  0  0  0  0  0  0  0  0  0
  -29.5873  -17.2073   21.4001 C   0  0  1  0  0  0  0  0  0  1  0  0
  -29.4272  -18.4828   22.2532 C   0  0  1  0  0  0  0  0  0  0  0  0
  -21.4323  -22.5450   24.8721 C   0  0  0  0  0  0  0  0  0  0  0  0
  -29.7444  -19.6972   24.4386 C   0  0  0  0  0  0  0  0  0  0  0  0
  -20.1947  -17.9041   20.3113 C   0  0  0  0  0  0  0  0  0  0  0  0
  -20.1331  -20.3125   20.9927 C   0  0  0  0  0  0  0  0  0  0  0  0
  -18.8427  -18.6175   22.2906 C   0  0  0  0  0  0  0  0  0  0  0  0
  -24.1431  -20.2833   26.2908 C   0  0  0  0  0  0  0  0  0  0  0  0
  -30.2151  -25.9312   17.7951 C   0  0  0  0  0  0  0  0  0  0  0  0
  -30.8616  -24.6617   18.3199 C   0  0  0  0  0  0  0  0  0  0  0  0
  -21.3631  -18.6697   22.4826 C   0  0  1  0  0  0  0  0  0  0  0  0
  -22.1068  -21.2190   25.1877 C   0  0  2  0  0  0  0  0  0  0  0  0
  -29.9829  -18.4087   23.6644 C   0  0  1  0  0  0  0  0  0  0  0  0
  -20.1580  -18.8616   21.5191 C   0  0  0  0  0  0  0  0  0  0  0  0
  -22.5339  -27.2053   20.4757 N   0  0  0  0  0  0  0  0  0  0  0  0
  -23.7060  -27.8566   20.3853 N   0  0  0  0  0  0  0  0  0  0  0  0
  -30.2990  -19.1382   21.3325 N   0  0  2  0  0  0  0  0  0  0  0  0
  -22.6342  -16.5594   22.7162 N   0  0  0  0  0  0  0  0  0  0  0  0
  -26.5971  -26.0471   18.6658 N   0  0  0  0  0  0  0  0  0  0  0  0
  -24.9968  -29.5705   21.3887 N   0  0  0  0  0  0  0  0  0  0  0  0
  -21.2413  -29.4911   23.8959 N   0  0  0  0  0  0  0  0  0  0  0  0
  -22.2793  -13.0180   21.9229 N   0  0  0  0  0  0  0  0  0  0  0  0
  -21.3402  -19.5447   23.6497 N   0  0  0  0  0  0  0  0  0  0  0  0
  -28.7732  -25.8267   17.7637 N   0  0  0  0  0  0  0  0  0  0  0  0
  -23.3858  -21.4999   25.8993 N   0  3  0  0  0  0  0  0  0  0  0  0
  -23.2682  -30.5250   23.6108 O   0  0  0  0  0  0  0  0  0  0  0  0
  -22.0932  -15.0200   20.7481 O   0  0  0  0  0  0  0  0  0  0  0  0
  -20.5220  -16.7990   23.6741 O   0  0  0  0  0  0  0  0  0  0  0  0
  -23.3866  -20.5584   23.2478 O   0  0  0  0  0  0  0  0  0  0  0  0
  -28.4778  -26.6384   19.8871 O   0  0  0  0  0  0  0  0  0  0  0  0
  -29.3665  -17.3266   24.3575 O   0  0  0  0  0  0  0  0  0  0  0  0
  -16.8737  -26.1081   23.1788 O   0  0  0  0  0  0  0  0  0  0  0  0
  -28.4408  -16.8097   20.6491 O   0  0  0  0  0  0  0  0  0  1  0  0
  -30.4079  -24.4136   19.6496 O   0  0  0  0  0  0  0  0  0  0  0  0
  -15.9500  -20.6815   23.5004 F   0  0  0  0  0  0  0  0  0  0  0  0
  -17.1091  -24.4945   20.9464 F   0  0  0  0  0  0  0  0  0  0  0  0
  1  2  1  0  0  0  0
  1  5  2  0  0  0  0
  2  6  2  0  0  0  0
  3 10  2  0  0  0  0
  3 19  1  0  0  0  0
  4 11  1  0  0  0  0
  4 19  2  0  0  0  0
  5 21  1  0  0  0  0
  6 23  1  0  0  0  0
  7 12  2  0  0  0  0
  7 22  1  0  0  0  0
  8 13  2  0  0  0  0
  8 25  1  0  0  0  0
  9 14  1  0  0  0  0
  9 25  2  0  0  0  0
 10 26  1  0  0  0  0
 11 26  2  0  0  0  0
 12 28  1  0  0  0  0
 13 27  1  0  0  0  0
 14 27  2  0  0  0  0
 15 16  2  0  0  0  0
 15 29  1  0  0  0  0
 16 30  1  0  0  0  0
 17 24  1  0  0  0  0
 17 28  2  0  0  0  0
 18 30  2  0  0  0  0
 18 31  1  0  0  0  0
 19 32  1  0  0  0  0
 20 32  1  0  0  0  0
 20 33  2  0  0  0  0
 20 34  1  0  0  0  0
 21 23  2  0  0  0  0
 21 39  1  0  0  0  0
 22 24  2  0  0  0  0
 22 40  1  0  0  0  0
 23 49  1  0  0  0  0
 24 41  1  0  0  0  0
 25 68  1  0  0  0  0
 26 83  1  0  0  0  0
 27 85  1  0  0  0  0
 28 84  1  0  0  0  0
 29 31  2  0  0  0  0
 29 83  1  0  0  0  0
 30 86  1  0  0  0  0
 31 87  1  0  0  0  0
 32 66  2  0  0  0  0
 33 67  1  0  0  0  0
 33 71  1  0  0  0  0
 34 72  1  0  0  0  0
 34 77  2  0  0  0  0
 35 50  1  0  0  0  0
 35 73  1  0  0  0  0
 35 78  2  0  0  0  0
 36 62  1  0  0  0  0
 36 69  1  0  0  0  0
 36 79  2  0  0  0  0
 37 63  1  0  0  0  0
 37 74  1  0  0  0  0
 37 80  2  0  0  0  0
 38 70  1  0  0  0  0
 38 75  1  0  0  0  0
 38 81  2  0  0  0  0
 39 42  1  0  0  0  0
 40 50  1  0  0  0  0
 41 69  1  0  0  0  0
 42 44  1  0  0  0  0
 43 45  1  0  0  0  0
 43 46  1  0  0  0  0
 44 49  1  0  0  0  0
 45 51  1  0  0  0  0
 46 70  1  0  0  0  0
 47 51  1  0  0  0  0
 47 70  1  0  0  0  0
 48 52  1  0  0  0  0
 48 68  1  0  0  0  0
 49 73  1  0  0  0  0
 50 69  1  0  0  0  0
 51 67  1  0  0  0  0
 52 53  1  0  0  0  0
 52 84  1  0  0  0  0
 53 64  1  0  0  0  0
 53 68  1  0  0  0  0
 54 63  1  0  0  0  0
 55 64  1  0  0  0  0
 56 65  1  0  0  0  0
 57 65  1  0  0  0  0
 58 65  1  0  0  0  0
 59 76  1  0  0  0  0
 60 61  1  0  0  0  0
 60 75  1  0  0  0  0
 61 85  1  0  0  0  0
 62 65  1  0  0  0  0
 62 74  1  0  0  0  0
 63 76  1  0  0  0  0
 64 82  1  0  0  0  0
 66 67  1  0  0  0  0
M  CHG  1  76   1
M  ISO  4  38 100  52 101  75 100  84 101
M  END
> <Batch ID>
0128

> <Smiles>
CNC(C)C(=O)NC(C(=O)N1Cc2cc([101O:1][101CH:1]3CN(c4ccc(OCC[100NH:0][100C:0](=O)N5CCCC(n6nc(-c7ccc(Oc8ccc(F)cc8F)cc7)c(C(N)=O)c6N)C5)cc4)C3C(C)O)ccc2CC1C(=O)NC1CCCc2ccccc21)C(C)(C)C

> <Shape>
0.216

> <Color>
0.087

> <Negative vol penalty>
0.000

$$$$

  -OEChem-04052320423D

 88 98  0     1  0  0  0  0  0999 V2000
  -30.1938  -23.7212   16.7469 C   0  0  0  0  0  0  0  0  0  0  0  0
  -28.9878  -23.2125   17.2156 C   0  0  0  0  0  0  0  0  0  0  0  0
  -28.0981  -17.0274   21.2605 C   0  0  0  0  0  0  0  0  0  0  0  0
  -26.8194  -17.4994   19.2657 C   0  0  0  0  0  0  0  0  0  0  0  0
  -30.7625  -24.8344   17.3622 C   0  0  0  0  0  0  0  0  0  0  0  0
  -28.3441  -23.8239   18.2921 C   0  0  0  0  0  0  0  0  0  0  0  0
  -23.2860  -22.2437   21.2997 C   0  0  0  0  0  0  0  0  0  0  0  0
  -28.6782  -18.2938   21.1883 C   0  0  0  0  0  0  0  0  0  0  0  0
  -27.3994  -18.7658   19.1935 C   0  0  0  0  0  0  0  0  0  0  0  0
  -22.9497  -21.4870   22.4213 C   0  0  0  0  0  0  0  0  0  0  0  0
  -27.8187  -21.4744   21.9490 C   0  0  0  0  0  0  0  0  0  0  0  0
  -27.9028  -22.2170   23.1267 C   0  0  0  0  0  0  0  0  0  0  0  0
  -22.8975  -23.4970   23.7542 C   0  0  0  0  0  0  0  0  0  0  0  0
  -30.3085  -22.2824   22.9138 C   0  0  0  0  0  0  0  0  0  0  0  0
  -27.1687  -16.6301   20.2991 C   0  0  0  0  0  0  0  0  0  0  0  0
  -27.2318  -14.0801   20.3334 C   0  0  0  0  0  0  0  0  0  0  0  0
  -30.1310  -25.4516   18.4546 C   0  0  0  0  0  0  0  0  0  0  0  0
  -23.4416  -23.6338   21.3994 C   0  0  0  0  0  0  0  0  0  0  0  0
  -28.8901  -24.9629   18.9112 C   0  0  0  0  0  0  0  0  0  0  0  0
  -23.2334  -24.2693   22.6318 C   0  0  0  0  0  0  0  0  0  0  0  0
  -28.3288  -19.1631   20.1548 C   0  0  0  0  0  0  0  0  0  0  0  0
  -22.7582  -22.1133   23.6494 C   0  0  0  0  0  0  0  0  0  0  0  0
  -28.9796  -21.1357   21.2537 C   0  0  0  0  0  0  0  0  0  0  0  0
  -29.1476  -22.6210   23.6092 C   0  0  0  0  0  0  0  0  0  0  0  0
  -30.2245  -21.5398   21.7361 C   0  0  0  0  0  0  0  0  0  0  0  0
  -26.5696  -15.3218   20.3728 C   0  0  0  0  0  0  0  0  0  0  0  0
  -26.2256  -13.1510   20.4375 C   0  0  0  0  0  0  0  0  0  0  0  0
  -28.6312  -13.7923   20.2135 C   0  0  0  0  0  0  0  0  0  0  0  0
  -25.8468  -25.6604   20.9397 C   0  0  0  0  0  0  0  0  0  0  0  0
  -23.5499  -27.8933   21.4505 C   0  0  0  0  0  0  0  0  0  0  0  0
  -20.5282  -28.6785   22.8286 C   0  0  0  0  0  0  0  0  0  0  0  0
  -20.7186  -13.3493   22.7794 C   0  0  0  0  0  0  0  0  0  0  0  0
  -30.7869  -26.6585   19.0780 C   0  0  0  0  0  0  0  0  0  0  0  0
  -23.7784  -24.4389   20.1743 C   0  0  0  0  0  0  0  0  0  0  0  0
  -23.3685  -25.7613   22.7874 C   0  0  0  0  0  0  0  0  0  0  0  0
  -30.2629  -26.9633   20.4776 C   0  0  0  0  0  0  0  0  0  0  0  0
  -21.9828  -12.8769   30.7205 C   0  0  0  0  0  0  0  0  0  0  0  0
  -21.5914  -12.5211   19.4284 C   0  0  0  0  0  0  0  0  0  0  0  0
  -28.7416  -26.9739   20.4721 C   0  0  0  0  0  0  0  0  0  0  0  0
  -23.0260  -13.0329   19.2869 C   0  0  0  0  0  0  0  0  0  0  0  0
  -22.0733  -13.8549   29.5267 C   0  0  0  0  0  0  0  0  0  0  0  0
  -21.3265  -11.8709   29.7476 C   0  0  0  0  0  0  0  0  0  0  0  0
  -23.5878  -17.8006   24.7054 C   0  0  0  0  0  0  0  0  0  0  0  0
  -21.1791  -17.8991   25.4859 C   0  0  0  0  0  0  0  0  0  0  0  0
  -23.6683  -19.3237   24.7719 C   0  0  0  0  0  0  0  0  0  0  0  0
  -21.2652  -19.4221   25.5500 C   0  0  0  0  0  0  0  0  0  0  0  0
  -20.4928  -11.8353   25.4243 C   0  0  0  0  0  0  0  0  0  0  0  0
  -20.7468  -13.4439   20.3042 C   0  0  0  0  0  0  0  0  0  0  0  0
  -20.7812  -11.5374   26.8935 C   0  0  0  0  0  0  0  0  0  0  0  0
  -22.7531  -14.2429   21.4915 C   0  0  0  0  0  0  0  0  0  0  0  0
  -28.1872  -25.5929   20.1001 C   0  0  1  0  0  0  0  0  0  0  0  0
  -24.4151  -25.7862   20.5013 C   0  0  1  0  0  0  0  0  0  0  0  0
  -23.6587  -13.3158   20.6628 C   0  0  2  0  0  0  0  0  0  0  0  0
  -22.0780  -12.6070   28.6172 C   0  0  0  0  0  0  0  0  0  0  0  0
  -20.8500  -13.3061   25.2487 C   0  0  1  0  0  0  0  0  0  0  0  0
  -22.5540  -17.2682   25.6957 C   0  0  0  0  0  0  0  0  0  0  0  0
  -22.2994  -19.9709   24.5667 C   0  0  0  0  0  0  0  0  0  1  0  0
  -21.8049  -13.5933   26.4083 C   0  0  1  0  0  0  0  0  0  0  0  0
  -18.9301  -30.5925   23.1123 C   0  0  0  0  0  0  0  0  0  0  0  0
  -25.3614  -29.0843   23.5976 C   0  0  0  0  0  0  0  0  0  0  0  0
  -23.3818  -30.3449   24.4698 C   0  0  0  0  0  0  0  0  0  0  0  0
  -24.2072  -30.7692   22.1543 C   0  0  0  0  0  0  0  0  0  0  0  0
  -18.3838  -27.2565   21.3663 C   0  0  0  0  0  0  0  0  0  0  0  0
  -21.9009  -15.0838   26.7157 C   0  0  0  0  0  0  0  0  0  0  0  0
  -23.0024  -28.6056   22.6637 C   0  0  1  0  0  0  0  0  0  0  0  0
  -19.3168  -29.3945   22.2590 C   0  0  2  0  0  0  0  0  0  0  0  0
  -23.9875  -29.6727   23.2192 C   0  0  0  0  0  0  0  0  0  0  0  0
  -25.2452  -15.1963   20.4924 N   0  0  0  0  0  0  0  0  0  0  0  0
  -25.0671  -13.8648   20.5290 N   0  0  0  0  0  0  0  0  0  0  0  0
  -23.7054  -26.5043   21.5618 N   0  0  0  0  0  0  0  0  0  0  0  0
  -21.4017  -13.6705   21.5948 N   0  0  0  0  0  0  0  0  0  0  0  0
  -21.1615  -12.8264   27.4886 N   0  0  1  0  0  0  0  0  0  0  0  0
  -26.2278  -11.8012   20.4587 N   0  0  0  0  0  0  0  0  0  0  0  0
  -29.1743  -13.6390   18.9306 N   0  0  0  0  0  0  0  0  0  0  0  0
  -26.7582  -25.6957   19.9016 N   0  0  0  0  0  0  0  0  0  0  0  0
  -21.7024  -29.1392   22.2716 N   0  0  0  0  0  0  0  0  0  0  0  0
  -21.4136  -13.5892   23.9584 N   0  0  0  0  0  0  0  0  0  0  0  0
  -22.4388  -15.7955   25.5260 N   0  3  0  0  0  0  0  0  0  0  0  0
  -18.1511  -28.4684   22.1934 N   0  3  0  0  0  0  0  0  0  0  0  0
  -29.3747  -13.6584   21.2149 O   0  0  0  0  0  0  0  0  0  0  0  0
  -26.1055  -25.5417   22.1316 O   0  0  0  0  0  0  0  0  0  0  0  0
  -23.8227  -28.5442   20.4389 O   0  0  0  0  0  0  0  0  0  0  0  0
  -20.4417  -27.8012   23.6849 O   0  0  0  0  0  0  0  0  0  0  0  0
  -19.5762  -12.8784   22.7856 O   0  0  0  0  0  0  0  0  0  0  0  0
  -28.8945  -20.3990   20.0842 O   0  0  0  0  0  0  0  0  0  0  0  0
  -22.4305  -21.3770   24.7459 O   0  0  0  0  0  0  0  0  0  1  0  0
  -29.2280  -23.3355   24.7393 F   0  0  0  0  0  0  0  0  0  0  0  0
  -31.3431  -21.2185   21.0719 F   0  0  0  0  0  0  0  0  0  0  0  0
  1  2  1  0  0  0  0
  1  5  2  0  0  0  0
  2  6  2  0  0  0  0
  3  8  2  0  0  0  0
  3 15  1  0  0  0  0
  4  9  1  0  0  0  0
  4 15  2  0  0  0  0
  5 17  1  0  0  0  0
  6 19  1  0  0  0  0
  7 10  2  0  0  0  0
  7 18  1  0  0  0  0
  8 21  1  0  0  0  0
  9 21  2  0  0  0  0
 10 22  1  0  0  0  0
 11 12  2  0  0  0  0
 11 23  1  0  0  0  0
 12 24  1  0  0  0  0
 13 20  1  0  0  0  0
 13 22  2  0  0  0  0
 14 24  2  0  0  0  0
 14 25  1  0  0  0  0
 15 26  1  0  0  0  0
 16 26  1  0  0  0  0
 16 27  2  0  0  0  0
 16 28  1  0  0  0  0
 17 19  2  0  0  0  0
 17 33  1  0  0  0  0
 18 20  2  0  0  0  0
 18 34  1  0  0  0  0
 19 51  1  0  0  0  0
 20 35  1  0  0  0  0
 21 85  1  0  0  0  0
 22 86  1  0  0  0  0
 23 25  2  0  0  0  0
 23 85  1  0  0  0  0
 24 87  1  0  0  0  0
 25 88  1  0  0  0  0
 26 68  2  0  0  0  0
 27 69  1  0  0  0  0
 27 73  1  0  0  0  0
 28 74  1  0  0  0  0
 28 80  2  0  0  0  0
 29 52  1  0  0  0  0
 29 75  1  0  0  0  0
 29 81  2  0  0  0  0
 30 65  1  0  0  0  0
 30 70  1  0  0  0  0
 30 82  2  0  0  0  0
 31 66  1  0  0  0  0
 31 76  1  0  0  0  0
 31 83  2  0  0  0  0
 32 71  1  0  0  0  0
 32 77  1  0  0  0  0
 32 84  2  0  0  0  0
 33 36  1  0  0  0  0
 34 52  1  0  0  0  0
 35 70  1  0  0  0  0
 36 39  1  0  0  0  0
 37 41  1  0  0  0  0
 37 42  1  0  0  0  0
 38 40  1  0  0  0  0
 38 48  1  0  0  0  0
 39 51  1  0  0  0  0
 40 53  1  0  0  0  0
 41 54  1  0  0  0  0
 42 54  1  0  0  0  0
 43 45  1  0  0  0  0
 43 56  1  0  0  0  0
 44 46  1  0  0  0  0
 44 56  1  0  0  0  0
 45 57  1  0  0  0  0
 46 57  1  0  0  0  0
 47 49  1  0  0  0  0
 47 55  1  0  0  0  0
 48 71  1  0  0  0  0
 49 72  1  0  0  0  0
 50 53  1  0  0  0  0
 50 71  1  0  0  0  0
 51 75  1  0  0  0  0
 52 70  1  0  0  0  0
 53 69  1  0  0  0  0
 54 72  1  0  0  0  0
 55 58  1  0  0  0  0
 55 77  1  0  0  0  0
 56 78  1  0  0  0  0
 57 86  1  0  0  0  0
 58 64  1  0  0  0  0
 58 72  1  0  0  0  0
 59 66  1  0  0  0  0
 60 67  1  0  0  0  0
 61 67  1  0  0  0  0
 62 67  1  0  0  0  0
 63 79  1  0  0  0  0
 64 78  1  0  0  0  0
 65 67  1  0  0  0  0
 65 76  1  0  0  0  0
 66 79  1  0  0  0  0
 68 69  1  0  0  0  0
M  CHG  2  78   1  79   1
M  ISO  4  32 100  57 101  77 100  86 101
M  END
> <Batch ID>
0128

> <Smiles>
CNC(C)C(=O)NC(C(=O)N1Cc2cc([101O:1][101CH:1]3CCC(NCC4C([100NH:0][100C:0](=O)N5CCCC(n6nc(-c7ccc(Oc8ccc(F)cc8F)cc7)c(C(N)=O)c6N)C5)CCN4C4CCC4)CC3)ccc2CC1C(=O)NC1CCCc2ccccc21)C(C)(C)C

> <Shape>
0.232

> <Color>
0.064

> <Negative vol penalty>
0.000

$$$$

  -OEChem-04052320423D

 80 88  0     1  0  0  0  0  0999 V2000
  -27.0169  -29.7593   18.7559 C   0  0  0  0  0  0  0  0  0  0  0  0
  -27.2753  -28.4486   19.1439 C   0  0  0  0  0  0  0  0  0  0  0  0
  -27.8002  -16.9674   18.9931 C   0  0  0  0  0  0  0  0  0  0  0  0
  -27.6706  -17.2487   21.3892 C   0  0  0  0  0  0  0  0  0  0  0  0
  -25.9806  -30.4718   19.3578 C   0  0  0  0  0  0  0  0  0  0  0  0
  -26.4981  -27.8499   20.1348 C   0  0  0  0  0  0  0  0  0  0  0  0
  -23.8527  -21.4792   22.0668 C   0  0  0  0  0  0  0  0  0  0  0  0
  -28.5053  -18.1665   18.8905 C   0  0  0  0  0  0  0  0  0  0  0  0
  -28.3757  -18.4478   21.2866 C   0  0  0  0  0  0  0  0  0  0  0  0
  -23.7983  -20.6242   23.1668 C   0  0  0  0  0  0  0  0  0  0  0  0
  -29.8281  -21.7629   21.6190 C   0  0  0  0  0  0  0  0  0  0  0  0
  -29.3582  -22.8558   22.3472 C   0  0  0  0  0  0  0  0  0  0  0  0
  -21.9838  -21.9250   24.0805 C   0  0  0  0  0  0  0  0  0  0  0  0
  -21.8998  -18.0475   26.2478 C   0  0  0  0  0  0  0  0  0  0  0  0
  -27.2591  -22.7470   21.1558 C   0  0  0  0  0  0  0  0  0  0  0  0
  -20.4701  -17.6762   23.9536 C   0  0  0  0  0  0  0  0  0  0  0  0
  -27.3827  -16.5085   20.2425 C   0  0  0  0  0  0  0  0  0  0  0  0
  -27.1898  -13.9811   20.5296 C   0  0  0  0  0  0  0  0  0  0  0  0
  -25.1841  -29.8783   20.3498 C   0  0  0  0  0  0  0  0  0  0  0  0
  -22.9788  -22.5717   21.9706 C   0  0  0  0  0  0  0  0  0  0  0  0
  -25.4510  -28.5555   20.7515 C   0  0  0  0  0  0  0  0  0  0  0  0
  -22.0274  -22.7908   22.9771 C   0  0  0  0  0  0  0  0  0  0  0  0
  -21.0544  -16.9487   26.1413 C   0  0  0  0  0  0  0  0  0  0  0  0
  -20.3219  -16.7526   24.9757 C   0  0  0  0  0  0  0  0  0  0  0  0
  -28.7931  -18.9067   20.0372 C   0  0  0  0  0  0  0  0  0  0  0  0
  -22.8657  -20.8487   24.1752 C   0  0  0  0  0  0  0  0  0  0  0  0
  -29.0136  -21.1621   20.6591 C   0  0  0  0  0  0  0  0  0  0  0  0
  -28.0737  -23.3478   22.1157 C   0  0  0  0  0  0  0  0  0  0  0  0
  -27.7292  -21.6542   20.4276 C   0  0  0  0  0  0  0  0  0  0  0  0
  -26.6538  -15.2702   20.3491 C   0  0  0  0  0  0  0  0  0  0  0  0
  -21.9767  -18.9137   25.1691 C   0  0  0  0  0  0  0  0  0  1  0  0
  -26.0929  -13.1554   20.5680 C   0  0  0  0  0  0  0  0  0  0  0  0
  -28.5570  -13.5670   20.6517 C   0  0  0  0  0  0  0  0  0  0  0  0
  -23.3384  -25.7273   21.8429 C   0  0  0  0  0  0  0  0  0  0  0  0
  -20.1348  -25.6807   21.3355 C   0  0  0  0  0  0  0  0  0  0  0  0
  -17.1678  -24.0339   21.6979 C   0  0  0  0  0  0  0  0  0  0  0  0
  -20.3546  -14.0637   22.0165 C   0  0  0  0  0  0  0  0  0  0  0  0
  -24.1054  -30.7040   21.0050 C   0  0  0  0  0  0  0  0  0  0  0  0
  -23.0324  -23.4690   20.7647 C   0  0  0  0  0  0  0  0  0  0  0  0
  -21.0533  -23.9376   22.9114 C   0  0  0  0  0  0  0  0  0  0  0  0
  -23.0888  -29.8717   21.7822 C   0  0  0  0  0  0  0  0  0  0  0  0
  -21.6106  -12.8054   18.9318 C   0  0  0  0  0  0  0  0  0  0  0  0
  -23.7982  -28.8430   22.6571 C   0  0  0  0  0  0  0  0  0  0  0  0
  -23.0939  -13.1781   18.9615 C   0  0  0  0  0  0  0  0  0  0  0  0
  -20.7443  -13.8851   19.5767 C   0  0  0  0  0  0  0  0  0  0  0  0
  -22.6296  -14.6398   20.9731 C   0  0  0  0  0  0  0  0  0  0  0  0
  -24.6141  -27.8632   21.8052 C   0  0  1  0  0  0  0  0  0  0  0  0
  -22.4371  -24.8501   21.0207 C   0  0  1  0  0  0  0  0  0  0  0  0
  -23.5487  -13.5560   20.3840 C   0  0  2  0  0  0  0  0  0  0  0  0
  -20.9489  -15.9956   27.2852 C   0  0  0  0  0  0  0  0  0  0  0  0
  -14.7157  -24.2637   21.2165 C   0  0  0  0  0  0  0  0  0  0  0  0
  -19.8644  -27.6385   23.6602 C   0  0  0  0  0  0  0  0  0  0  0  0
  -17.4222  -27.0940   23.7436 C   0  0  0  0  0  0  0  0  0  0  0  0
  -18.3961  -28.1390   21.6986 C   0  0  0  0  0  0  0  0  0  0  0  0
  -17.1630  -21.6299   19.9718 C   0  0  0  0  0  0  0  0  0  0  0  0
  -19.4027  -15.5927   24.8081 C   0  0  0  0  0  0  0  0  0  0  0  0
  -20.1226  -14.2787   24.4781 C   0  0  0  0  0  0  0  0  0  0  0  0
  -18.9117  -25.7194   22.2196 C   0  0  1  0  0  0  0  0  0  0  0  0
  -16.0515  -23.7407   20.7118 C   0  0  2  0  0  0  0  0  0  0  0  0
  -18.6681  -27.1272   22.8330 C   0  0  0  0  0  0  0  0  0  0  0  0
  -21.2814  -18.7556   24.0205 N   0  0  0  0  0  0  0  0  0  0  0  0
  -25.3200  -15.2687   20.2776 N   0  0  0  0  0  0  0  0  0  0  0  0
  -25.0087  -13.9685   20.4139 N   0  0  0  0  0  0  0  0  0  0  0  0
  -21.1494  -24.7907   21.7154 N   0  0  0  0  0  0  0  0  0  0  0  0
  -21.2277  -14.1960   20.9242 N   0  0  0  0  0  0  0  0  0  0  0  0
  -25.9595  -11.8205   20.7182 N   0  0  0  0  0  0  0  0  0  0  0  0
  -29.5593  -14.5447   20.5904 N   0  0  0  0  0  0  0  0  0  0  0  0
  -23.7458  -26.8786   21.1962 N   0  0  0  0  0  0  0  0  0  0  0  0
  -17.8060  -25.2214   21.4086 N   0  0  0  0  0  0  0  0  0  0  0  0
  -20.8946  -14.3723   23.2591 N   0  0  0  0  0  0  0  0  0  0  0  0
  -15.9281  -22.2721   20.4908 N   0  3  0  0  0  0  0  0  0  0  0  0
  -28.8812  -12.3636   20.7941 O   0  0  0  0  0  0  0  0  0  0  0  0
  -23.6406  -25.3857   22.9803 O   0  0  0  0  0  0  0  0  0  0  0  0
  -20.1850  -26.4081   20.3405 O   0  0  0  0  0  0  0  0  0  0  0  0
  -17.4434  -23.2862   22.6336 O   0  0  0  0  0  0  0  0  0  0  0  0
  -19.1823  -13.6926   21.8942 O   0  0  0  0  0  0  0  0  0  0  0  0
  -29.4814  -20.0767   19.9375 O   0  0  0  0  0  0  0  0  0  0  0  0
  -22.8110  -20.0161   25.2502 O   0  0  0  0  0  0  0  0  0  1  0  0
  -27.6219  -24.3964   22.8162 F   0  0  0  0  0  0  0  0  0  0  0  0
  -26.9416  -21.0804   19.5075 F   0  0  0  0  0  0  0  0  0  0  0  0
  1  2  1  0  0  0  0
  1  5  2  0  0  0  0
  2  6  2  0  0  0  0
  3  8  2  0  0  0  0
  3 17  1  0  0  0  0
  4  9  1  0  0  0  0
  4 17  2  0  0  0  0
  5 19  1  0  0  0  0
  6 21  1  0  0  0  0
  7 10  2  0  0  0  0
  7 20  1  0  0  0  0
  8 25  1  0  0  0  0
  9 25  2  0  0  0  0
 10 26  1  0  0  0  0
 11 12  2  0  0  0  0
 11 27  1  0  0  0  0
 12 28  1  0  0  0  0
 13 22  1  0  0  0  0
 13 26  2  0  0  0  0
 14 23  2  0  0  0  0
 14 31  1  0  0  0  0
 15 28  2  0  0  0  0
 15 29  1  0  0  0  0
 16 24  2  0  0  0  0
 16 61  1  0  0  0  0
 17 30  1  0  0  0  0
 18 30  1  0  0  0  0
 18 32  2  0  0  0  0
 18 33  1  0  0  0  0
 19 21  2  0  0  0  0
 19 38  1  0  0  0  0
 20 22  2  0  0  0  0
 20 39  1  0  0  0  0
 21 47  1  0  0  0  0
 22 40  1  0  0  0  0
 23 24  1  0  0  0  0
 23 50  1  0  0  0  0
 24 56  1  0  0  0  0
 25 77  1  0  0  0  0
 26 78  1  0  0  0  0
 27 29  2  0  0  0  0
 27 77  1  0  0  0  0
 28 79  1  0  0  0  0
 29 80  1  0  0  0  0
 30 62  2  0  0  0  0
 31 61  2  0  0  0  0
 31 78  1  0  0  0  0
 32 63  1  0  0  0  0
 32 66  1  0  0  0  0
 33 67  1  0  0  0  0
 33 72  2  0  0  0  0
 34 48  1  0  0  0  0
 34 68  1  0  0  0  0
 34 73  2  0  0  0  0
 35 58  1  0  0  0  0
 35 64  1  0  0  0  0
 35 74  2  0  0  0  0
 36 59  1  0  0  0  0
 36 69  1  0  0  0  0
 36 75  2  0  0  0  0
 37 65  1  0  0  0  0
 37 70  1  0  0  0  0
 37 76  2  0  0  0  0
 38 41  1  0  0  0  0
 39 48  1  0  0  0  0
 40 64  1  0  0  0  0
 41 43  1  0  0  0  0
 42 44  1  0  0  0  0
 42 45  1  0  0  0  0
 43 47  1  0  0  0  0
 44 49  1  0  0  0  0
 45 65  1  0  0  0  0
 46 49  1  0  0  0  0
 46 65  1  0  0  0  0
 47 68  1  0  0  0  0
 48 64  1  0  0  0  0
 49 63  1  0  0  0  0
 51 59  1  0  0  0  0
 52 60  1  0  0  0  0
 53 60  1  0  0  0  0
 54 60  1  0  0  0  0
 55 71  1  0  0  0  0
 56 57  1  0  0  0  0
 57 70  1  0  0  0  0
 58 60  1  0  0  0  0
 58 69  1  0  0  0  0
 59 71  1  0  0  0  0
 62 63  1  0  0  0  0
M  CHG  1  71   1
M  ISO  4  31 101  37 100  70 100  78 101
M  END
> <Batch ID>
0128

> <Smiles>
CNC(C)C(=O)NC(C(=O)N1Cc2cc([101O:1][101c:1]3cc(C)c(CC[100NH:0][100C:0](=O)N4CCCC(n5nc(-c6ccc(Oc7ccc(F)cc7F)cc6)c(C(N)=O)c5N)C4)cn3)ccc2CC1C(=O)NC1CCCc2ccccc21)C(C)(C)C

> <Shape>
0.199

> <Color>
0.070

> <Negative vol penalty>
0.000

$$$$

  -OEChem-04052320423D

 92102  0     1  0  0  0  0  0999 V2000
  -16.1893  -26.2222   23.0076 C   0  0  0  0  0  0  0  0  0  0  0  0
  -17.4055  -25.6003   22.7440 C   0  0  0  0  0  0  0  0  0  0  0  0
  -22.9916  -10.1950   21.1213 C   0  0  0  0  0  0  0  0  0  0  0  0
  -23.2189  -11.8557   22.8611 C   0  0  0  0  0  0  0  0  0  0  0  0
  -16.1546  -27.5825   23.3115 C   0  0  0  0  0  0  0  0  0  0  0  0
  -18.5877  -26.3387   22.7829 C   0  0  0  0  0  0  0  0  0  0  0  0
  -22.2984  -23.9361   25.2535 C   0  0  0  0  0  0  0  0  0  0  0  0
  -31.7820  -17.5975   20.2796 C   0  0  0  0  0  0  0  0  0  0  0  0
  -22.1033   -9.4774   21.9222 C   0  0  0  0  0  0  0  0  0  0  0  0
  -22.3305  -11.1382   23.6621 C   0  0  0  0  0  0  0  0  0  0  0  0
  -22.9642  -22.9196   24.5700 C   0  0  0  0  0  0  0  0  0  0  0  0
  -32.2546  -18.9017   20.4252 C   0  0  0  0  0  0  0  0  0  0  0  0
  -22.2742   -7.3543   24.5466 C   0  0  0  0  0  0  0  0  0  0  0  0
  -22.4489   -5.9729   24.6302 C   0  0  0  0  0  0  0  0  0  0  0  0
  -24.7738  -24.4393   24.0851 C   0  0  0  0  0  0  0  0  0  0  0  0
  -30.0987  -19.7584   19.7505 C   0  0  0  0  0  0  0  0  0  0  0  0
  -20.2298   -5.6382   23.7353 C   0  0  0  0  0  0  0  0  0  0  0  0
  -23.5495  -11.3841   21.5907 C   0  0  0  0  0  0  0  0  0  0  0  0
  -24.1509  -13.1383   19.8390 C   0  0  0  0  0  0  0  0  0  0  0  0
  -17.3380  -28.3358   23.3636 C   0  0  0  0  0  0  0  0  0  0  0  0
  -22.8612  -25.2170   25.3487 C   0  0  0  0  0  0  0  0  0  0  0  0
  -18.5688  -27.7107   23.0864 C   0  0  0  0  0  0  0  0  0  0  0  0
  -24.1143  -25.4696   24.7726 C   0  0  0  0  0  0  0  0  0  0  0  0
  -29.6260  -18.4541   19.6049 C   0  0  0  0  0  0  0  0  0  0  0  0
  -30.4677  -17.3737   19.8694 C   0  0  0  0  0  0  0  0  0  0  0  0
  -21.7727   -9.9490   23.1926 C   0  0  0  0  0  0  0  0  0  0  0  0
  -24.2008  -23.1719   23.9832 C   0  0  0  0  0  0  0  0  0  0  0  0
  -31.4130  -19.9822   20.1607 C   0  0  0  0  0  0  0  0  0  0  0  0
  -21.0773   -7.8776   24.0575 C   0  0  0  0  0  0  0  0  0  0  0  0
  -21.4267   -5.1149   24.2245 C   0  0  0  0  0  0  0  0  0  0  0  0
  -20.0551   -7.0195   23.6517 C   0  0  0  0  0  0  0  0  0  0  0  0
  -24.4676  -12.1255   20.7640 C   0  0  0  0  0  0  0  0  0  0  0  0
  -25.3635  -13.5191   19.3182 C   0  0  0  0  0  0  0  0  0  0  0  0
  -22.8748  -13.6860   19.4823 C   0  0  0  0  0  0  0  0  0  0  0  0
  -27.1620  -19.3893   21.1389 C   0  0  0  0  0  0  0  0  0  0  0  0
  -22.0060  -28.1207   24.3788 C   0  0  0  0  0  0  0  0  0  0  0  0
  -24.6180  -29.0309   26.0731 C   0  0  0  0  0  0  0  0  0  0  0  0
  -27.5867  -29.2998   27.7349 C   0  0  0  0  0  0  0  0  0  0  0  0
  -30.7282  -14.8693   19.9504 C   0  0  0  0  0  0  0  0  0  0  0  0
  -17.2457  -29.8137   23.6500 C   0  0  0  0  0  0  0  0  0  0  0  0
  -22.1425  -26.2953   26.1124 C   0  0  0  0  0  0  0  0  0  0  0  0
  -24.7709  -26.8220   24.8637 C   0  0  0  0  0  0  0  0  0  0  0  0
  -18.5809  -30.4434   24.0387 C   0  0  0  0  0  0  0  0  0  0  0  0
  -29.9419  -11.4029   19.7439 C   0  0  0  0  0  0  0  0  0  0  0  0
  -19.6818  -29.9925   23.0840 C   0  0  0  0  0  0  0  0  0  0  0  0
  -28.4216  -11.3652   19.9148 C   0  0  0  0  0  0  0  0  0  0  0  0
  -26.7739  -22.9590   22.0663 C   0  0  0  0  0  0  0  0  0  0  0  0
  -28.1168  -18.0707   17.6257 C   0  0  0  0  0  0  0  0  0  0  0  0
  -30.5842  -12.4797   20.6167 C   0  0  0  0  0  0  0  0  0  0  0  0
  -26.7286  -21.8858   20.9859 C   0  0  0  0  0  0  0  0  0  0  0  0
  -28.4965  -13.7874   20.6318 C   0  0  0  0  0  0  0  0  0  0  0  0
  -26.8210  -20.8201   23.1439 C   0  0  0  0  0  0  0  0  0  0  0  0
  -26.6879  -17.8774   17.1431 C   0  0  0  0  0  0  0  0  0  0  0  0
  -25.8179  -19.1572   19.1060 C   0  0  0  0  0  0  0  0  0  0  0  0
  -28.1879  -18.2407   19.1559 C   0  0  2  0  0  0  0  0  0  0  0  0
  -19.8751  -28.4724   23.1433 C   0  0  1  0  0  0  0  0  0  0  0  0
  -27.2360  -19.3610   19.6333 C   0  0  2  0  0  0  0  0  0  0  0  0
  -22.5714  -27.7020   25.7064 C   0  0  1  0  0  0  0  0  0  0  0  0
  -27.7982  -12.7618   19.7239 C   0  0  2  0  0  0  0  0  0  0  0  0
  -26.2744  -22.2305   23.3108 C   0  0  2  0  0  0  0  0  0  1  0  0
  -29.2935  -30.9916   28.4577 C   0  0  0  0  0  0  0  0  0  0  0  0
  -25.6724  -29.1851   23.2140 C   0  0  0  0  0  0  0  0  0  0  0  0
  -27.8330  -30.0555   24.1319 C   0  0  0  0  0  0  0  0  0  0  0  0
  -25.7270  -31.3504   24.4642 C   0  0  0  0  0  0  0  0  0  0  0  0
  -27.1698  -28.6695   30.5963 C   0  0  0  0  0  0  0  0  0  0  0  0
  -30.9605  -22.3124   20.0163 C   0  0  0  0  0  0  0  0  0  0  0  0
  -26.0844  -29.2107   25.7627 C   0  0  1  0  0  0  0  0  0  0  0  0
  -28.0374  -30.2283   28.8482 C   0  0  2  0  0  0  0  0  0  0  0  0
  -26.3188  -29.9254   24.4019 C   0  0  0  0  0  0  0  0  0  0  0  0
  -25.7786  -11.8784   20.8294 N   0  0  0  0  0  0  0  0  0  0  0  0
  -26.2964  -12.7413   19.9387 N   0  0  0  0  0  0  0  0  0  0  0  0
  -26.9208  -20.6299   21.7019 N   0  0  0  0  0  0  0  0  0  0  0  0
  -24.0258  -27.8453   25.6155 N   0  0  0  0  0  0  0  0  0  0  0  0
  -29.9459  -13.7761   20.3790 N   0  0  0  0  0  0  0  0  0  0  0  0
  -25.7121  -14.4399   18.3947 N   0  0  0  0  0  0  0  0  0  0  0  0
  -21.7305  -13.1799   20.1138 N   0  0  0  0  0  0  0  0  0  0  0  0
  -30.0070  -16.0414   19.7255 N   0  0  0  0  0  0  0  0  0  0  0  0
  -20.6253  -28.1041   24.3248 N   0  0  0  0  0  0  0  0  0  0  0  0
  -26.6624  -29.9038   26.9090 N   0  0  0  0  0  0  0  0  0  0  0  0
  -25.8529  -19.0166   17.6220 N   0  3  0  0  0  0  0  0  0  0  0  0
  -28.3259  -29.4506   30.0863 N   0  3  0  0  0  0  0  0  0  0  0  0
  -22.7513  -14.5857   18.6169 O   0  0  0  0  0  0  0  0  0  0  0  0
  -27.3178  -18.3552   21.7906 O   0  0  0  0  0  0  0  0  0  0  0  0
  -22.7661  -28.4369   23.4710 O   0  0  0  0  0  0  0  0  0  0  0  0
  -24.0218  -29.9068   26.7048 O   0  0  0  0  0  0  0  0  0  0  0  0
  -28.0148  -28.1548   27.6082 O   0  0  0  0  0  0  0  0  0  0  0  0
  -31.9440  -14.7654   19.7682 O   0  0  0  0  0  0  0  0  0  0  0  0
  -20.9057   -9.2492   23.9744 O   0  0  0  0  0  0  0  0  0  0  0  0
  -24.8526  -22.1817   23.3149 O   0  0  0  0  0  0  0  0  0  1  0  0
  -31.8741  -21.2549   20.3033 O   0  0  0  0  0  0  0  0  0  0  0  0
  -21.5952   -3.7884   24.3033 F   0  0  0  0  0  0  0  0  0  0  0  0
  -18.9035   -7.5164   23.1798 F   0  0  0  0  0  0  0  0  0  0  0  0
  1  2  1  0  0  0  0
  1  5  2  0  0  0  0
  2  6  2  0  0  0  0
  3  9  2  0  0  0  0
  3 18  1  0  0  0  0
  4 10  1  0  0  0  0
  4 18  2  0  0  0  0
  5 20  1  0  0  0  0
  6 22  1  0  0  0  0
  7 11  2  0  0  0  0
  7 21  1  0  0  0  0
  8 12  2  0  0  0  0
  8 25  1  0  0  0  0
  9 26  1  0  0  0  0
 10 26  2  0  0  0  0
 11 27  1  0  0  0  0
 12 28  1  0  0  0  0
 13 14  2  0  0  0  0
 13 29  1  0  0  0  0
 14 30  1  0  0  0  0
 15 23  1  0  0  0  0
 15 27  2  0  0  0  0
 16 24  1  0  0  0  0
 16 28  2  0  0  0  0
 17 30  2  0  0  0  0
 17 31  1  0  0  0  0
 18 32  1  0  0  0  0
 19 32  1  0  0  0  0
 19 33  2  0  0  0  0
 19 34  1  0  0  0  0
 20 22  2  0  0  0  0
 20 40  1  0  0  0  0
 21 23  2  0  0  0  0
 21 41  1  0  0  0  0
 22 56  1  0  0  0  0
 23 42  1  0  0  0  0
 24 25  2  0  0  0  0
 24 55  1  0  0  0  0
 25 77  1  0  0  0  0
 26 88  1  0  0  0  0
 27 89  1  0  0  0  0
 28 90  1  0  0  0  0
 29 31  2  0  0  0  0
 29 88  1  0  0  0  0
 30 91  1  0  0  0  0
 31 92  1  0  0  0  0
 32 70  2  0  0  0  0
 33 71  1  0  0  0  0
 33 75  1  0  0  0  0
 34 76  1  0  0  0  0
 34 82  2  0  0  0  0
 35 57  1  0  0  0  0
 35 72  1  0  0  0  0
 35 83  2  0  0  0  0
 36 58  1  0  0  0  0
 36 78  1  0  0  0  0
 36 84  2  0  0  0  0
 37 67  1  0  0  0  0
 37 73  1  0  0  0  0
 37 85  2  0  0  0  0
 38 68  1  0  0  0  0
 38 79  1  0  0  0  0
 38 86  2  0  0  0  0
 39 74  1  0  0  0  0
 39 77  1  0  0  0  0
 39 87  2  0  0  0  0
 40 43  1  0  0  0  0
 41 58  1  0  0  0  0
 42 73  1  0  0  0  0
 43 45  1  0  0  0  0
 44 46  1  0  0  0  0
 44 49  1  0  0  0  0
 45 56  1  0  0  0  0
 46 59  1  0  0  0  0
 47 50  1  0  0  0  0
 47 60  1  0  0  0  0
 48 53  1  0  0  0  0
 48 55  1  0  0  0  0
 49 74  1  0  0  0  0
 50 72  1  0  0  0  0
 51 59  1  0  0  0  0
 51 74  1  0  0  0  0
 52 60  1  0  0  0  0
 52 72  1  0  0  0  0
 53 80  1  0  0  0  0
 54 57  1  0  0  0  0
 54 80  1  0  0  0  0
 55 57  1  0  0  0  0
 56 78  1  0  0  0  0
 58 73  1  0  0  0  0
 59 71  1  0  0  0  0
 60 89  1  0  0  0  0
 61 68  1  0  0  0  0
 62 69  1  0  0  0  0
 63 69  1  0  0  0  0
 64 69  1  0  0  0  0
 65 81  1  0  0  0  0
 66 90  1  0  0  0  0
 67 69  1  0  0  0  0
 67 79  1  0  0  0  0
 68 81  1  0  0  0  0
 70 71  1  0  0  0  0
M  CHG  2  80   1  81   1
M  ISO  4  39 100  60 101  77 100  89 101
M  END
> <Batch ID>
0128

> <Smiles>
CNC(C)C(=O)NC(C(=O)N1Cc2cc([101O:1][101CH:1]3CCN(C(=O)C4CNCCC4c4cc(OC)ccc4[100NH:0][100C:0](=O)N4CCCC(n5nc(-c6ccc(Oc7ccc(F)cc7F)cc6)c(C(N)=O)c5N)C4)C3)ccc2CC1C(=O)NC1CCCc2ccccc21)C(C)(C)C

> <Shape>
0.253

> <Color>
0.083

> <Negative vol penalty>
0.000

$$$$

  -OEChem-04052320423D

 86 94  0     1  0  0  0  0  0999 V2000
  -16.2066  -24.2228   23.2296 C   0  0  0  0  0  0  0  0  0  0  0  0
  -17.2092  -23.6965   22.4215 C   0  0  0  0  0  0  0  0  0  0  0  0
  -25.8506  -13.1184   20.4394 C   0  0  0  0  0  0  0  0  0  0  0  0
  -23.9475  -14.5941   20.6333 C   0  0  0  0  0  0  0  0  0  0  0  0
  -16.1452  -25.5971   23.4565 C   0  0  0  0  0  0  0  0  0  0  0  0
  -18.1505  -24.5444   21.8388 C   0  0  0  0  0  0  0  0  0  0  0  0
  -24.0577  -23.3180   20.7867 C   0  0  0  0  0  0  0  0  0  0  0  0
  -32.3140  -25.3038   20.1313 C   0  0  0  0  0  0  0  0  0  0  0  0
  -31.0759  -25.2387   20.7702 C   0  0  0  0  0  0  0  0  0  0  0  0
  -25.1472  -12.1222   21.1165 C   0  0  0  0  0  0  0  0  0  0  0  0
  -23.2440  -13.5979   21.3103 C   0  0  0  0  0  0  0  0  0  0  0  0
  -24.7407  -22.9042   19.6439 C   0  0  0  0  0  0  0  0  0  0  0  0
  -22.7448   -9.8503   20.4094 C   0  0  0  0  0  0  0  0  0  0  0  0
  -22.7951   -8.5558   19.8925 C   0  0  0  0  0  0  0  0  0  0  0  0
  -25.3195  -25.1970   19.1670 C   0  0  0  0  0  0  0  0  0  0  0  0
  -31.5403  -23.7282   18.4712 C   0  0  0  0  0  0  0  0  0  0  0  0
  -23.7727   -7.7693   21.9572 C   0  0  0  0  0  0  0  0  0  0  0  0
  -25.2508  -14.3544   20.1979 C   0  0  0  0  0  0  0  0  0  0  0  0
  -26.0090  -15.6081   18.1096 C   0  0  0  0  0  0  0  0  0  0  0  0
  -17.0919  -26.4612   22.8841 C   0  0  0  0  0  0  0  0  0  0  0  0
  -23.9911  -24.6778   21.1229 C   0  0  0  0  0  0  0  0  0  0  0  0
  -18.1009  -25.9317   22.0571 C   0  0  0  0  0  0  0  0  0  0  0  0
  -24.6372  -25.6252   20.3160 C   0  0  0  0  0  0  0  0  0  0  0  0
  -32.5462  -24.5486   18.9817 C   0  0  0  0  0  0  0  0  0  0  0  0
  -30.0699  -24.4183   20.2598 C   0  0  0  0  0  0  0  0  0  0  0  0
  -23.8439  -12.3619   21.5519 C   0  0  0  0  0  0  0  0  0  0  0  0
  -25.3693  -23.8440   18.8323 C   0  0  0  0  0  0  0  0  0  0  0  0
  -23.2085  -10.1044   21.7003 C   0  0  0  0  0  0  0  0  0  0  0  0
  -30.3021  -23.6630   19.1102 C   0  0  0  0  0  0  0  0  0  0  0  0
  -23.3090   -7.5153   20.6663 C   0  0  0  0  0  0  0  0  0  0  0  0
  -23.7224   -9.0639   22.4741 C   0  0  0  0  0  0  0  0  0  0  0  0
  -25.9771  -15.3841   19.4991 C   0  0  0  0  0  0  0  0  0  0  0  0
  -26.8349  -16.6948   17.9560 C   0  0  0  0  0  0  0  0  0  0  0  0
  -25.3510  -14.8976   17.0524 C   0  0  0  0  0  0  0  0  0  0  0  0
  -21.6428  -26.7943   21.4540 C   0  0  0  0  0  0  0  0  0  0  0  0
  -24.0432  -28.7115   22.4955 C   0  0  0  0  0  0  0  0  0  0  0  0
  -27.3795  -29.4299   22.5073 C   0  0  0  0  0  0  0  0  0  0  0  0
  -28.1942  -21.1468   21.5874 C   0  0  0  0  0  0  0  0  0  0  0  0
  -16.9568  -27.9448   23.1198 C   0  0  0  0  0  0  0  0  0  0  0  0
  -23.2731  -25.1052   22.3736 C   0  0  0  0  0  0  0  0  0  0  0  0
  -24.6127  -27.0950   20.6440 C   0  0  0  0  0  0  0  0  0  0  0  0
  -18.2151  -28.7344   22.7687 C   0  0  0  0  0  0  0  0  0  0  0  0
  -30.5522  -18.8944   20.0176 C   0  0  0  0  0  0  0  0  0  0  0  0
  -18.7583  -28.2975   21.4119 C   0  0  0  0  0  0  0  0  0  0  0  0
  -29.6342  -17.7541   19.5737 C   0  0  0  0  0  0  0  0  0  0  0  0
  -30.1179  -19.4606   21.3663 C   0  0  0  0  0  0  0  0  0  0  0  0
  -27.7819  -18.7820   20.9709 C   0  0  0  0  0  0  0  0  0  0  0  0
  -19.1549  -26.8163   21.4274 C   0  0  1  0  0  0  0  0  0  0  0  0
  -22.8341  -26.5659   22.3409 C   0  0  1  0  0  0  0  0  0  0  0  0
  -28.1549  -18.1818   19.6031 C   0  0  2  0  0  0  0  0  0  0  0  0
  -33.7635  -25.1689   16.8634 C   0  0  0  0  0  0  0  0  0  0  0  0
  -34.5990  -23.2622   18.2851 C   0  0  0  0  0  0  0  0  0  0  0  0
  -29.0359  -31.0803   23.4183 C   0  0  0  0  0  0  0  0  0  0  0  0
  -23.1358  -30.7612   20.4254 C   0  0  0  0  0  0  0  0  0  0  0  0
  -25.3343  -31.9235   20.7147 C   0  0  0  0  0  0  0  0  0  0  0  0
  -23.7655  -31.7280   22.6443 C   0  0  0  0  0  0  0  0  0  0  0  0
  -28.8307  -27.3258   23.9991 C   0  0  0  0  0  0  0  0  0  0  0  0
  -28.7515  -24.3600   20.9576 C   0  0  0  0  0  0  0  0  0  0  0  0
  -27.8489  -22.1124   16.8412 C   0  0  0  0  0  0  0  0  0  0  0  0
  -28.7609  -23.4802   22.2128 C   0  0  0  0  0  0  0  0  0  0  0  0
  -26.6247  -22.1433   17.7427 C   0  0  0  0  0  0  0  0  0  1  0  0
  -28.8956  -23.1295   17.2682 C   0  0  0  0  0  0  0  0  0  0  0  0
  -33.8701  -24.6192   18.2984 C   0  0  0  0  0  0  0  0  0  0  0  0
  -25.0027  -29.6751   21.8399 C   0  0  1  0  0  0  0  0  0  0  0  0
  -28.3373  -29.7480   23.6413 C   0  0  2  0  0  0  0  0  0  0  0  0
  -24.3086  -30.9945   21.3986 C   0  0  0  0  0  0  0  0  0  0  0  0
  -26.7235  -16.2580   20.1796 N   0  0  0  0  0  0  0  0  0  0  0  0
  -27.2322  -17.0418   19.2137 N   0  0  0  0  0  0  0  0  0  0  0  0
  -23.8924  -27.4638   21.8739 N   0  0  0  0  0  0  0  0  0  0  0  0
  -28.7058  -19.8658   21.3215 N   0  0  0  0  0  0  0  0  0  0  0  0
  -27.2528  -17.3777   16.8690 N   0  0  0  0  0  0  0  0  0  0  0  0
  -24.5388  -13.8051   17.3860 N   0  0  0  0  0  0  0  0  0  0  0  0
  -20.4276  -26.6409   22.0937 N   0  0  0  0  0  0  0  0  0  0  0  0
  -26.0999  -29.8636   22.7828 N   0  0  0  0  0  0  0  0  0  0  0  0
  -29.1346  -22.1146   21.9186 N   0  0  0  0  0  0  0  0  0  0  0  0
  -29.3764  -28.6858   23.7550 N   0  3  0  0  0  0  0  0  0  0  0  0
  -25.4924  -15.2117   15.8462 O   0  0  0  0  0  0  0  0  0  0  0  0
  -21.8136  -27.0893   20.2770 O   0  0  0  0  0  0  0  0  0  0  0  0
  -23.4548  -29.0506   23.5253 O   0  0  0  0  0  0  0  0  0  0  0  0
  -27.7319  -28.8576   21.4784 O   0  0  0  0  0  0  0  0  0  0  0  0
  -26.9883  -21.4103   21.5286 O   0  0  0  0  0  0  0  0  0  0  0  0
  -23.1571  -11.3900   22.2124 O   0  0  0  0  0  0  0  0  0  0  0  0
  -26.0361  -23.4429   17.7158 O   0  0  0  0  0  0  0  0  0  1  0  0
  -29.3243  -22.8527   18.5947 O   0  0  0  0  0  0  0  0  0  0  0  0
  -23.3559   -6.2719   20.1703 F   0  0  0  0  0  0  0  0  0  0  0  0
  -24.1682   -9.3016   23.7153 F   0  0  0  0  0  0  0  0  0  0  0  0
  1  2  1  0  0  0  0
  1  5  2  0  0  0  0
  2  6  2  0  0  0  0
  3 10  2  0  0  0  0
  3 18  1  0  0  0  0
  4 11  1  0  0  0  0
  4 18  2  0  0  0  0
  5 20  1  0  0  0  0
  6 22  1  0  0  0  0
  7 12  2  0  0  0  0
  7 21  1  0  0  0  0
  8  9  2  0  0  0  0
  8 24  1  0  0  0  0
  9 25  1  0  0  0  0
 10 26  1  0  0  0  0
 11 26  2  0  0  0  0
 12 27  1  0  0  0  0
 13 14  2  0  0  0  0
 13 28  1  0  0  0  0
 14 30  1  0  0  0  0
 15 23  1  0  0  0  0
 15 27  2  0  0  0  0
 16 24  2  0  0  0  0
 16 29  1  0  0  0  0
 17 30  2  0  0  0  0
 17 31  1  0  0  0  0
 18 32  1  0  0  0  0
 19 32  1  0  0  0  0
 19 33  2  0  0  0  0
 19 34  1  0  0  0  0
 20 22  2  0  0  0  0
 20 39  1  0  0  0  0
 21 23  2  0  0  0  0
 21 40  1  0  0  0  0
 22 48  1  0  0  0  0
 23 41  1  0  0  0  0
 24 63  1  0  0  0  0
 25 29  2  0  0  0  0
 25 58  1  0  0  0  0
 26 82  1  0  0  0  0
 27 83  1  0  0  0  0
 28 31  2  0  0  0  0
 28 82  1  0  0  0  0
 29 84  1  0  0  0  0
 30 85  1  0  0  0  0
 31 86  1  0  0  0  0
 32 67  2  0  0  0  0
 33 68  1  0  0  0  0
 33 71  1  0  0  0  0
 34 72  1  0  0  0  0
 34 77  2  0  0  0  0
 35 49  1  0  0  0  0
 35 73  1  0  0  0  0
 35 78  2  0  0  0  0
 36 64  1  0  0  0  0
 36 69  1  0  0  0  0
 36 79  2  0  0  0  0
 37 65  1  0  0  0  0
 37 74  1  0  0  0  0
 37 80  2  0  0  0  0
 38 70  1  0  0  0  0
 38 75  1  0  0  0  0
 38 81  2  0  0  0  0
 39 42  1  0  0  0  0
 40 49  1  0  0  0  0
 41 69  1  0  0  0  0
 42 44  1  0  0  0  0
 43 45  1  0  0  0  0
 43 46  1  0  0  0  0
 44 48  1  0  0  0  0
 45 50  1  0  0  0  0
 46 70  1  0  0  0  0
 47 50  1  0  0  0  0
 47 70  1  0  0  0  0
 48 73  1  0  0  0  0
 49 69  1  0  0  0  0
 50 68  1  0  0  0  0
 51 63  1  0  0  0  0
 52 63  1  0  0  0  0
 53 65  1  0  0  0  0
 54 66  1  0  0  0  0
 55 66  1  0  0  0  0
 56 66  1  0  0  0  0
 57 76  1  0  0  0  0
 58 60  1  0  0  0  0
 59 61  1  0  0  0  0
 59 62  1  0  0  0  0
 60 75  1  0  0  0  0
 61 83  1  0  0  0  0
 62 84  1  0  0  0  0
 64 66  1  0  0  0  0
 64 74  1  0  0  0  0
 65 76  1  0  0  0  0
 67 68  1  0  0  0  0
M  CHG  1  76   1
M  ISO  4  38 100  61 101  75 100  83 101
M  END
> <Batch ID>
0128

> <Smiles>
CNC(C)C(=O)NC(C(=O)N1Cc2cc([101O:1][101CH2:1]CCOc3cc(C(C)C)ccc3CC[100NH:0][100C:0](=O)N3CCCC(n4nc(-c5ccc(Oc6ccc(F)cc6F)cc5)c(C(N)=O)c4N)C3)ccc2CC1C(=O)NC1CCCc2ccccc21)C(C)(C)C

> <Shape>
0.259

> <Color>
0.059

> <Negative vol penalty>
0.000

$$$$

  -OEChem-04052320423D

 83 91  0     1  0  0  0  0  0999 V2000
  -23.2171   -7.9305   21.0516 C   0  0  0  0  0  0  0  0  0  0  0  0
  -23.3559   -8.7687   19.9500 C   0  0  0  0  0  0  0  0  0  0  0  0
  -28.6014  -27.3691   20.8640 C   0  0  0  0  0  0  0  0  0  0  0  0
  -27.5859  -26.4457   18.8758 C   0  0  0  0  0  0  0  0  0  0  0  0
  -22.9641   -8.4724   22.3110 C   0  0  0  0  0  0  0  0  0  0  0  0
  -23.2407  -10.1495   20.1070 C   0  0  0  0  0  0  0  0  0  0  0  0
  -25.7946  -16.3005   17.4691 C   0  0  0  0  0  0  0  0  0  0  0  0
  -29.7130  -26.5474   20.6780 C   0  0  0  0  0  0  0  0  0  0  0  0
  -28.6976  -25.6239   18.6897 C   0  0  0  0  0  0  0  0  0  0  0  0
  -25.3515  -17.5139   16.9447 C   0  0  0  0  0  0  0  0  0  0  0  0
  -29.8985  -22.7314   19.9632 C   0  0  0  0  0  0  0  0  0  0  0  0
  -29.6690  -21.3936   19.6420 C   0  0  0  0  0  0  0  0  0  0  0  0
  -24.9921  -18.3426   19.1815 C   0  0  0  0  0  0  0  0  0  0  0  0
  -22.2416  -19.4927   18.0804 C   0  0  0  0  0  0  0  0  0  0  0  0
  -30.8787  -21.6833   17.5708 C   0  0  0  0  0  0  0  0  0  0  0  0
  -23.3029  -21.6202   18.1503 C   0  0  0  0  0  0  0  0  0  0  0  0
  -27.5378  -27.3182   19.9629 C   0  0  0  0  0  0  0  0  0  0  0  0
  -26.1977  -29.4660   19.6487 C   0  0  0  0  0  0  0  0  0  0  0  0
  -22.8554   -9.8611   22.4852 C   0  0  0  0  0  0  0  0  0  0  0  0
  -25.8295  -16.0948   18.8558 C   0  0  0  0  0  0  0  0  0  0  0  0
  -22.9847  -10.7104   21.3698 C   0  0  0  0  0  0  0  0  0  0  0  0
  -25.4385  -17.1266   19.7211 C   0  0  0  0  0  0  0  0  0  0  0  0
  -21.1040  -20.0761   18.6271 C   0  0  0  0  0  0  0  0  0  0  0  0
  -29.7611  -25.6748   19.5908 C   0  0  0  0  0  0  0  0  0  0  0  0
  -24.9474  -18.5342   17.8008 C   0  0  0  0  0  0  0  0  0  0  0  0
  -30.6181  -23.5452   19.0882 C   0  0  0  0  0  0  0  0  0  0  0  0
  -23.3664  -20.2725   17.8349 C   0  0  0  0  0  0  0  0  0  1  0  0
  -30.1591  -20.8695   18.4459 C   0  0  0  0  0  0  0  0  0  0  0  0
  -31.1082  -23.0211   17.8920 C   0  0  0  0  0  0  0  0  0  0  0  0
  -26.3890  -28.1664   20.1549 C   0  0  0  0  0  0  0  0  0  0  0  0
  -21.1416  -21.4326   18.9073 C   0  0  0  0  0  0  0  0  0  0  0  0
  -24.9576  -29.8350   20.1097 C   0  0  0  0  0  0  0  0  0  0  0  0
  -27.0636  -30.2680   18.8345 C   0  0  0  0  0  0  0  0  0  0  0  0
  -24.4014  -14.0851   20.8621 C   0  0  0  0  0  0  0  0  0  0  0  0
  -26.3786  -15.4622   23.0339 C   0  0  0  0  0  0  0  0  0  0  0  0
  -28.2632  -18.1613   23.9340 C   0  0  0  0  0  0  0  0  0  0  0  0
  -20.1317  -26.7084   21.7786 C   0  0  0  0  0  0  0  0  0  0  0  0
  -22.5343  -10.3976   23.8578 C   0  0  0  0  0  0  0  0  0  0  0  0
  -26.3354  -14.7897   19.4063 C   0  0  0  0  0  0  0  0  0  0  0  0
  -25.4763  -16.9634   21.2179 C   0  0  0  0  0  0  0  0  0  0  0  0
  -22.7988  -11.8939   24.0041 C   0  0  0  0  0  0  0  0  0  0  0  0
  -21.9325  -29.0741   23.7374 C   0  0  0  0  0  0  0  0  0  0  0  0
  -22.2260  -12.6562   22.8134 C   0  0  0  0  0  0  0  0  0  0  0  0
  -23.2616  -29.2270   22.9957 C   0  0  0  0  0  0  0  0  0  0  0  0
  -21.4170  -27.6378   23.6814 C   0  0  0  0  0  0  0  0  0  0  0  0
  -22.6403  -27.2231   21.5825 C   0  0  0  0  0  0  0  0  0  0  0  0
  -22.8911  -12.2149   21.5041 C   0  0  1  0  0  0  0  0  0  0  0  0
  -25.8429  -14.5074   20.8224 C   0  0  1  0  0  0  0  0  0  0  0  0
  -23.1723  -28.6663   21.5636 C   0  0  2  0  0  0  0  0  0  0  0  0
  -19.1084  -18.9391   17.6215 C   0  0  0  0  0  0  0  0  0  0  0  0
  -29.7338  -19.0088   25.7824 C   0  0  0  0  0  0  0  0  0  0  0  0
  -23.9094  -16.0347   24.7326 C   0  0  0  0  0  0  0  0  0  0  0  0
  -25.2772  -17.6702   26.0450 C   0  0  0  0  0  0  0  0  0  0  0  0
  -25.9055  -15.2561   26.0225 C   0  0  0  0  0  0  0  0  0  0  0  0
  -30.6036  -18.3675   22.1343 C   0  0  0  0  0  0  0  0  0  0  0  0
  -19.8962  -19.2460   18.8933 C   0  0  0  0  0  0  0  0  0  0  0  0
  -19.9488  -22.1130   19.4950 C   0  0  0  0  0  0  0  0  0  0  0  0
  -18.9784  -25.7934   19.7806 C   0  0  0  0  0  0  0  0  0  0  0  0
  -18.8122  -24.2932   19.9350 C   0  0  0  0  0  0  0  0  0  0  0  0
  -26.2910  -16.6565   23.9531 C   0  0  1  0  0  0  0  0  0  0  0  0
  -29.6850  -18.2684   24.4549 C   0  0  2  0  0  0  0  0  0  0  0  0
  -25.3431  -16.4071   25.1601 C   0  0  0  0  0  0  0  0  0  0  0  0
  -22.2154  -22.2224   18.6819 N   0  0  0  0  0  0  0  0  0  0  0  0
  -25.3534  -27.7387   20.8819 N   0  0  0  0  0  0  0  0  0  0  0  0
  -24.4995  -28.7754   20.8360 N   0  0  0  0  0  0  0  0  0  0  0  0
  -25.9727  -15.6667   21.7075 N   0  0  0  0  0  0  0  0  0  0  0  0
  -21.3546  -27.1669   22.2957 N   0  0  0  0  0  0  0  0  0  0  0  0
  -24.2253  -30.9593   19.9606 N   0  0  0  0  0  0  0  0  0  0  0  0
  -28.3018  -29.7355   18.4503 N   0  0  0  0  0  0  0  0  0  0  0  0
  -24.2005  -12.8175   21.3743 N   0  0  0  0  0  0  0  0  0  0  0  0
  -27.6622  -16.9845   24.3280 N   0  0  0  0  0  0  0  0  0  0  0  0
  -20.1587  -26.2860   20.4551 N   0  0  0  0  0  0  0  0  0  0  0  0
  -30.5411  -18.9986   23.4777 N   0  3  0  0  0  0  0  0  0  0  0  0
  -20.0150  -23.5970   19.4074 N   0  3  0  0  0  0  0  0  0  0  0  0
  -26.7555  -31.4288   18.4725 O   0  0  0  0  0  0  0  0  0  0  0  0
  -23.5355  -14.8530   20.4593 O   0  0  0  0  0  0  0  0  0  0  0  0
  -26.7986  -14.3894   23.4746 O   0  0  0  0  0  0  0  0  0  0  0  0
  -27.7370  -19.0358   23.2493 O   0  0  0  0  0  0  0  0  0  0  0  0
  -19.0916  -26.6827   22.4453 O   0  0  0  0  0  0  0  0  0  0  0  0
  -30.8458  -24.8730   19.4088 O   0  0  0  0  0  0  0  0  0  0  0  0
  -24.5138  -19.7193   17.2915 O   0  0  0  0  0  0  0  0  0  1  0  0
  -29.9400  -19.5844   18.1383 F   0  0  0  0  0  0  0  0  0  0  0  0
  -31.8012  -23.7977   17.0479 F   0  0  0  0  0  0  0  0  0  0  0  0
  1  2  1  0  0  0  0
  1  5  2  0  0  0  0
  2  6  2  0  0  0  0
  3  8  2  0  0  0  0
  3 17  1  0  0  0  0
  4  9  1  0  0  0  0
  4 17  2  0  0  0  0
  5 19  1  0  0  0  0
  6 21  1  0  0  0  0
  7 10  2  0  0  0  0
  7 20  1  0  0  0  0
  8 24  1  0  0  0  0
  9 24  2  0  0  0  0
 10 25  1  0  0  0  0
 11 12  2  0  0  0  0
 11 26  1  0  0  0  0
 12 28  1  0  0  0  0
 13 22  1  0  0  0  0
 13 25  2  0  0  0  0
 14 23  1  0  0  0  0
 14 27  2  0  0  0  0
 15 28  2  0  0  0  0
 15 29  1  0  0  0  0
 16 27  1  0  0  0  0
 16 63  2  0  0  0  0
 17 30  1  0  0  0  0
 18 30  1  0  0  0  0
 18 32  2  0  0  0  0
 18 33  1  0  0  0  0
 19 21  2  0  0  0  0
 19 38  1  0  0  0  0
 20 22  2  0  0  0  0
 20 39  1  0  0  0  0
 21 47  1  0  0  0  0
 22 40  1  0  0  0  0
 23 31  2  0  0  0  0
 23 56  1  0  0  0  0
 24 80  1  0  0  0  0
 25 81  1  0  0  0  0
 26 29  2  0  0  0  0
 26 80  1  0  0  0  0
 27 81  1  0  0  0  0
 28 82  1  0  0  0  0
 29 83  1  0  0  0  0
 30 64  2  0  0  0  0
 31 57  1  0  0  0  0
 31 63  1  0  0  0  0
 32 65  1  0  0  0  0
 32 68  1  0  0  0  0
 33 69  1  0  0  0  0
 33 75  2  0  0  0  0
 34 48  1  0  0  0  0
 34 70  1  0  0  0  0
 34 76  2  0  0  0  0
 35 60  1  0  0  0  0
 35 66  1  0  0  0  0
 35 77  2  0  0  0  0
 36 61  1  0  0  0  0
 36 71  1  0  0  0  0
 36 78  2  0  0  0  0
 37 67  1  0  0  0  0
 37 72  1  0  0  0  0
 37 79  2  0  0  0  0
 38 41  1  0  0  0  0
 39 48  1  0  0  0  0
 40 66  1  0  0  0  0
 41 43  1  0  0  0  0
 42 44  1  0  0  0  0
 42 45  1  0  0  0  0
 43 47  1  0  0  0  0
 44 49  1  0  0  0  0
 45 67  1  0  0  0  0
 46 49  1  0  0  0  0
 46 67  1  0  0  0  0
 47 70  1  0  0  0  0
 48 66  1  0  0  0  0
 49 65  1  0  0  0  0
 50 56  1  0  0  0  0
 51 61  1  0  0  0  0
 52 62  1  0  0  0  0
 53 62  1  0  0  0  0
 54 62  1  0  0  0  0
 55 73  1  0  0  0  0
 57 74  1  0  0  0  0
 58 59  1  0  0  0  0
 58 72  1  0  0  0  0
 59 74  1  0  0  0  0
 60 62  1  0  0  0  0
 60 71  1  0  0  0  0
 61 73  1  0  0  0  0
 64 65  1  0  0  0  0
M  CHG  2  73   1  74   1
M  ISO  4  27 101  37 100  72 100  81 101
M  END
> <Batch ID>
0128

> <Smiles>
CCc1c[101c:1]([101O:1]c2ccc3c(c2)CN(C(=O)C(NC(=O)C(C)NC)C(C)(C)C)C(C(=O)NC2CCCc4ccccc42)C3)cnc1CNCC[100NH:0][100C:0](=O)N1CCCC(n2nc(-c3ccc(Oc4ccc(F)cc4F)cc3)c(C(N)=O)c2N)C1

> <Shape>
0.216

> <Color>
0.048

> <Negative vol penalty>
0.000

$$$$

  -OEChem-04052320423D

 84 92  0     1  0  0  0  0  0999 V2000
  -23.2628  -30.8829   24.3678 C   0  0  0  0  0  0  0  0  0  0  0  0
  -23.8183  -29.6302   24.6076 C   0  0  0  0  0  0  0  0  0  0  0  0
  -23.2349   -9.8056   20.7661 C   0  0  0  0  0  0  0  0  0  0  0  0
  -23.8282  -10.4189   23.0264 C   0  0  0  0  0  0  0  0  0  0  0  0
  -23.4076  -31.4804   23.1164 C   0  0  0  0  0  0  0  0  0  0  0  0
  -24.5180  -28.9737   23.5957 C   0  0  0  0  0  0  0  0  0  0  0  0
  -29.4082  -25.3468   24.2570 C   0  0  0  0  0  0  0  0  0  0  0  0
  -31.2679  -19.3149   23.8870 C   0  0  0  0  0  0  0  0  0  0  0  0
  -31.4762  -17.9427   23.7490 C   0  0  0  0  0  0  0  0  0  0  0  0
  -22.5019   -8.7231   21.2522 C   0  0  0  0  0  0  0  0  0  0  0  0
  -23.0951   -9.3363   23.5125 C   0  0  0  0  0  0  0  0  0  0  0  0
  -29.5481  -23.9606   24.3063 C   0  0  0  0  0  0  0  0  0  0  0  0
  -20.7697   -5.5876   21.8787 C   0  0  0  0  0  0  0  0  0  0  0  0
  -20.9238   -4.3582   21.2382 C   0  0  0  0  0  0  0  0  0  0  0  0
  -28.9968  -18.8987   24.5982 C   0  0  0  0  0  0  0  0  0  0  0  0
  -30.0749  -23.9360   21.9524 C   0  0  0  0  0  0  0  0  0  0  0  0
  -23.2808   -4.3774   21.7684 C   0  0  0  0  0  0  0  0  0  0  0  0
  -23.8981  -10.6535   21.6532 C   0  0  0  0  0  0  0  0  0  0  0  0
  -29.2051  -17.5264   24.4601 C   0  0  0  0  0  0  0  0  0  0  0  0
  -24.1893  -13.0793   20.9195 C   0  0  0  0  0  0  0  0  0  0  0  0
  -24.1176  -30.8352   22.0917 C   0  0  0  0  0  0  0  0  0  0  0  0
  -29.5903  -26.0381   23.0505 C   0  0  0  0  0  0  0  0  0  0  0  0
  -24.6712  -29.5626   22.3290 C   0  0  0  0  0  0  0  0  0  0  0  0
  -29.9393  -25.3313   21.8909 C   0  0  0  0  0  0  0  0  0  0  0  0
  -30.0282  -19.7930   24.3117 C   0  0  0  0  0  0  0  0  0  0  0  0
  -30.4448  -17.0484   24.0355 C   0  0  0  0  0  0  0  0  0  0  0  0
  -22.4319   -8.4884   22.6254 C   0  0  0  0  0  0  0  0  0  0  0  0
  -29.8786  -23.2546   23.1533 C   0  0  0  0  0  0  0  0  0  0  0  0
  -21.8712   -6.2121   22.4639 C   0  0  0  0  0  0  0  0  0  0  0  0
  -22.1793   -3.7530   21.1831 C   0  0  0  0  0  0  0  0  0  0  0  0
  -23.1267   -5.6069   22.4089 C   0  0  0  0  0  0  0  0  0  0  0  0
  -24.6560  -11.7716   21.1516 C   0  0  0  0  0  0  0  0  0  0  0  0
  -25.2871  -13.7571   20.4484 C   0  0  0  0  0  0  0  0  0  0  0  0
  -28.1036  -16.6220   24.7680 C   0  0  0  0  0  0  0  0  0  0  0  0
  -27.1590  -16.2043   23.8981 C   0  0  0  0  0  0  0  0  0  0  0  0
  -22.8805  -13.6320   21.1126 C   0  0  0  0  0  0  0  0  0  0  0  0
  -27.7437  -27.8476   21.2013 C   0  0  0  0  0  0  0  0  0  0  0  0
  -30.5070  -28.3164   19.5682 C   0  0  0  0  0  0  0  0  0  0  0  0
  -33.6226  -27.1824   18.7597 C   0  0  0  0  0  0  0  0  0  0  0  0
  -31.1809  -12.9293   21.1037 C   0  0  0  0  0  0  0  0  0  0  0  0
  -24.2072  -31.4999   20.7408 C   0  0  0  0  0  0  0  0  0  0  0  0
  -29.4620  -27.5364   23.0197 C   0  0  0  0  0  0  0  0  0  0  0  0
  -30.1655  -26.0285   20.5751 C   0  0  0  0  0  0  0  0  0  0  0  0
  -25.2839  -30.9026   19.8383 C   0  0  0  0  0  0  0  0  0  0  0  0
  -29.3656  -13.0678   18.0439 C   0  0  0  0  0  0  0  0  0  0  0  0
  -25.2094  -29.3791   19.8547 C   0  0  0  0  0  0  0  0  0  0  0  0
  -27.9106  -12.8693   18.4725 C   0  0  0  0  0  0  0  0  0  0  0  0
  -30.3221  -12.2286   18.8882 C   0  0  0  0  0  0  0  0  0  0  0  0
  -28.7350  -12.2184   20.7736 C   0  0  0  0  0  0  0  0  0  0  0  0
  -25.4585  -28.8297   21.2645 C   0  0  1  0  0  0  0  0  0  0  0  0
  -29.1657  -28.0822   21.6263 C   0  0  1  0  0  0  0  0  0  0  0  0
  -27.7378  -13.0868   19.9877 C   0  0  2  0  0  0  0  0  0  0  0  0
  -26.0407  -15.2821   24.2611 C   0  0  0  0  0  0  0  0  0  0  0  0
  -35.6319  -27.7633   17.3730 C   0  0  0  0  0  0  0  0  0  0  0  0
  -29.0245  -27.4297   17.0530 C   0  0  0  0  0  0  0  0  0  0  0  0
  -31.2447  -27.1162   15.9392 C   0  0  0  0  0  0  0  0  0  0  0  0
  -30.5558  -29.3801   16.7284 C   0  0  0  0  0  0  0  0  0  0  0  0
  -35.3696  -27.3303   21.1440 C   0  0  0  0  0  0  0  0  0  0  0  0
  -29.8053  -21.2693   24.4606 C   0  0  0  0  0  0  0  0  0  1  0  0
  -31.9403  -15.1370   23.4559 C   0  0  0  0  0  0  0  0  0  0  0  0
  -31.8886  -13.6187   23.3803 C   0  0  0  0  0  0  0  0  0  0  0  0
  -31.2039  -27.6204   18.4242 C   0  0  1  0  0  0  0  0  0  0  0  0
  -34.9729  -27.8757   18.7390 C   0  0  2  0  0  0  0  0  0  0  0  0
  -30.5012  -27.8730   17.0604 C   0  0  0  0  0  0  0  0  0  0  0  0
  -25.9495  -11.6250   20.8525 N   0  0  0  0  0  0  0  0  0  0  0  0
  -26.3049  -12.8494   20.4274 N   0  0  0  0  0  0  0  0  0  0  0  0
  -30.0223  -27.4936   20.5948 N   0  0  0  0  0  0  0  0  0  0  0  0
  -30.1077  -12.4829   20.3149 N   0  0  0  0  0  0  0  0  0  0  0  0
  -25.4714  -15.0350   20.0541 N   0  0  0  0  0  0  0  0  0  0  0  0
  -21.8683  -12.7965   21.6042 N   0  0  0  0  0  0  0  0  0  0  0  0
  -30.6842  -15.6633   23.8875 N   0  0  0  0  0  0  0  0  0  0  0  0
  -26.8721  -28.8532   21.5736 N   0  0  0  0  0  0  0  0  0  0  0  0
  -32.5957  -28.0555   18.4688 N   0  0  0  0  0  0  0  0  0  0  0  0
  -30.8903  -13.1521   22.4441 N   0  0  0  0  0  0  0  0  0  0  0  0
  -35.8826  -27.2683   19.7511 N   0  3  0  0  0  0  0  0  0  0  0  0
  -22.6124  -14.8270   20.8413 O   0  0  0  0  0  0  0  0  0  0  0  0
  -27.4587  -26.8304   20.5804 O   0  0  0  0  0  0  0  0  0  0  0  0
  -30.4029  -29.5455   19.5551 O   0  0  0  0  0  0  0  0  0  0  0  0
  -33.4921  -25.9853   19.0054 O   0  0  0  0  0  0  0  0  0  0  0  0
  -32.3127  -13.1205   20.6461 O   0  0  0  0  0  0  0  0  0  0  0  0
  -21.7165   -7.4323   23.1001 O   0  0  0  0  0  0  0  0  0  0  0  0
  -30.0151  -21.9014   23.1986 O   0  0  0  0  0  0  0  0  0  1  0  0
  -22.3269   -2.5716   20.5694 F   0  0  0  0  0  0  0  0  0  0  0  0
  -24.1884   -6.2014   22.9704 F   0  0  0  0  0  0  0  0  0  0  0  0
  1  2  1  0  0  0  0
  1  5  2  0  0  0  0
  2  6  2  0  0  0  0
  3 10  2  0  0  0  0
  3 18  1  0  0  0  0
  4 11  1  0  0  0  0
  4 18  2  0  0  0  0
  5 21  1  0  0  0  0
  6 23  1  0  0  0  0
  7 12  2  0  0  0  0
  7 22  1  0  0  0  0
  8  9  2  0  0  0  0
  8 25  1  0  0  0  0
  9 26  1  0  0  0  0
 10 27  1  0  0  0  0
 11 27  2  0  0  0  0
 12 28  1  0  0  0  0
 13 14  2  0  0  0  0
 13 29  1  0  0  0  0
 14 30  1  0  0  0  0
 15 19  1  0  0  0  0
 15 25  2  0  0  0  0
 16 24  1  0  0  0  0
 16 28  2  0  0  0  0
 17 30  2  0  0  0  0
 17 31  1  0  0  0  0
 18 32  1  0  0  0  0
 19 26  2  0  0  0  0
 19 34  1  0  0  0  0
 20 32  1  0  0  0  0
 20 33  2  0  0  0  0
 20 36  1  0  0  0  0
 21 23  2  0  0  0  0
 21 41  1  0  0  0  0
 22 24  2  0  0  0  0
 22 42  1  0  0  0  0
 23 50  1  0  0  0  0
 24 43  1  0  0  0  0
 25 59  1  0  0  0  0
 26 71  1  0  0  0  0
 27 81  1  0  0  0  0
 28 82  1  0  0  0  0
 29 31  2  0  0  0  0
 29 81  1  0  0  0  0
 30 83  1  0  0  0  0
 31 84  1  0  0  0  0
 32 65  2  0  0  0  0
 33 66  1  0  0  0  0
 33 69  1  0  0  0  0
 34 35  2  0  0  0  0
 35 53  1  0  0  0  0
 36 70  1  0  0  0  0
 36 76  2  0  0  0  0
 37 51  1  0  0  0  0
 37 72  1  0  0  0  0
 37 77  2  0  0  0  0
 38 62  1  0  0  0  0
 38 67  1  0  0  0  0
 38 78  2  0  0  0  0
 39 63  1  0  0  0  0
 39 73  1  0  0  0  0
 39 79  2  0  0  0  0
 40 68  1  0  0  0  0
 40 74  1  0  0  0  0
 40 80  2  0  0  0  0
 41 44  1  0  0  0  0
 42 51  1  0  0  0  0
 43 67  1  0  0  0  0
 44 46  1  0  0  0  0
 45 47  1  0  0  0  0
 45 48  1  0  0  0  0
 46 50  1  0  0  0  0
 47 52  1  0  0  0  0
 48 68  1  0  0  0  0
 49 52  1  0  0  0  0
 49 68  1  0  0  0  0
 50 72  1  0  0  0  0
 51 67  1  0  0  0  0
 52 66  1  0  0  0  0
 54 63  1  0  0  0  0
 55 64  1  0  0  0  0
 56 64  1  0  0  0  0
 57 64  1  0  0  0  0
 58 75  1  0  0  0  0
 59 82  1  0  0  0  0
 60 61  1  0  0  0  0
 60 71  1  0  0  0  0
 61 74  1  0  0  0  0
 62 64  1  0  0  0  0
 62 73  1  0  0  0  0
 63 75  1  0  0  0  0
 65 66  1  0  0  0  0
M  CHG  1  75   1
M  ISO  4  40 100  59 101  74 100  82 101
M  END
> <Batch ID>
0128

> <Smiles>
CC=Cc1cc([101CH2:1][101O:1]c2ccc3c(c2)CN(C(=O)C(NC(=O)C(C)NC)C(C)(C)C)C(C(=O)NC2CCCc4ccccc42)C3)ccc1NCC[100NH:0][100C:0](=O)N1CCCC(n2nc(-c3ccc(Oc4ccc(F)cc4F)cc3)c(C(N)=O)c2N)C1

> <Shape>
0.241

> <Color>
0.168

> <Negative vol penalty>
0.000

$$$$

  -OEChem-04052320423D

 83 91  0     1  0  0  0  0  0999 V2000
  -16.7251  -30.8723   23.1692 C   0  0  0  0  0  0  0  0  0  0  0  0
  -17.9370  -31.5122   23.4028 C   0  0  0  0  0  0  0  0  0  0  0  0
  -21.3788  -19.8065   21.7560 C   0  0  0  0  0  0  0  0  0  0  0  0
  -23.0503  -20.3003   20.0828 C   0  0  0  0  0  0  0  0  0  0  0  0
  -16.7062  -29.5120   22.8681 C   0  0  0  0  0  0  0  0  0  0  0  0
  -19.1313  -30.7950   23.3237 C   0  0  0  0  0  0  0  0  0  0  0  0
  -26.9580  -28.1623   22.2225 C   0  0  0  0  0  0  0  0  0  0  0  0
  -20.9414  -21.1302   21.7096 C   0  0  0  0  0  0  0  0  0  0  0  0
  -22.6128  -21.6240   20.0364 C   0  0  0  0  0  0  0  0  0  0  0  0
  -27.5400  -26.9842   21.7566 C   0  0  0  0  0  0  0  0  0  0  0  0
  -20.0657  -23.3565   18.6468 C   0  0  0  0  0  0  0  0  0  0  0  0
  -19.8983  -23.9385   17.3903 C   0  0  0  0  0  0  0  0  0  0  0  0
  -25.8421  -26.8271   20.0504 C   0  0  0  0  0  0  0  0  0  0  0  0
  -21.5312  -25.6272   17.9548 C   0  0  0  0  0  0  0  0  0  0  0  0
  -22.4333  -19.3916   20.9426 C   0  0  0  0  0  0  0  0  0  0  0  0
  -22.1331  -16.8693   20.7072 C   0  0  0  0  0  0  0  0  0  0  0  0
  -17.9004  -28.7758   22.7978 C   0  0  0  0  0  0  0  0  0  0  0  0
  -25.8054  -28.6767   21.6116 C   0  0  0  0  0  0  0  0  0  0  0  0
  -19.1348  -29.4267   22.9977 C   0  0  0  0  0  0  0  0  0  0  0  0
  -25.2488  -28.0133   20.5087 C   0  0  0  0  0  0  0  0  0  0  0  0
  -21.5583  -22.0389   20.8499 C   0  0  0  0  0  0  0  0  0  0  0  0
  -26.9804  -26.3148   20.6723 C   0  0  0  0  0  0  0  0  0  0  0  0
  -20.9659  -23.9100   19.5574 C   0  0  0  0  0  0  0  0  0  0  0  0
  -20.6310  -25.0738   17.0442 C   0  0  0  0  0  0  0  0  0  0  0  0
  -21.6986  -25.0453   19.2114 C   0  0  0  0  0  0  0  0  0  0  0  0
  -22.8860  -18.0245   20.9905 C   0  0  0  0  0  0  0  0  0  0  0  0
  -23.0126  -15.8313   20.8961 C   0  0  0  0  0  0  0  0  0  0  0  0
  -20.7614  -16.7455   20.3088 C   0  0  0  0  0  0  0  0  0  0  0  0
  -22.8289  -29.2550   22.5655 C   0  0  0  0  0  0  0  0  0  0  0  0
  -29.0117  -15.5639   20.6713 C   0  0  0  0  0  0  0  0  0  0  0  0
  -29.2972  -17.3922   18.9993 C   0  0  0  0  0  0  0  0  0  0  0  0
  -22.5554  -30.5780   19.6165 C   0  0  0  0  0  0  0  0  0  0  0  0
  -23.6209  -29.7799   16.2631 C   0  0  0  0  0  0  0  0  0  0  0  0
  -17.8226  -27.3076   22.4605 C   0  0  0  0  0  0  0  0  0  0  0  0
  -25.2051  -29.9630   22.1092 C   0  0  0  0  0  0  0  0  0  0  0  0
  -24.0236  -28.5349   19.8050 C   0  0  0  0  0  0  0  0  0  0  0  0
  -19.0886  -26.5438   22.8347 C   0  0  0  0  0  0  0  0  0  0  0  0
  -26.8933  -14.6099   23.3993 C   0  0  0  0  0  0  0  0  0  0  0  0
  -27.0920  -18.7616   16.3386 C   0  0  0  0  0  0  0  0  0  0  0  0
  -20.3127  -27.2743   22.3031 C   0  0  0  0  0  0  0  0  0  0  0  0
  -25.5656  -15.2957   23.0797 C   0  0  0  0  0  0  0  0  0  0  0  0
  -28.3515  -19.6141   16.2249 C   0  0  0  0  0  0  0  0  0  0  0  0
  -28.0811  -15.4603   22.9598 C   0  0  0  0  0  0  0  0  0  0  0  0
  -27.5434  -17.5773   17.1782 C   0  0  0  0  0  0  0  0  0  0  0  0
  -26.7209  -16.5376   21.1960 C   0  0  0  0  0  0  0  0  0  0  0  0
  -20.4441  -28.6602   22.9473 C   0  0  1  0  0  0  0  0  0  0  0  0
  -23.7345  -30.1201   21.7353 C   0  0  1  0  0  0  0  0  0  0  0  0
  -25.4945  -15.6983   21.5960 C   0  0  2  0  0  0  0  0  0  0  0  0
  -29.0340  -19.4340   17.5823 C   0  0  1  0  0  0  0  0  0  0  0  0
  -24.0839  -31.2724   14.2996 C   0  0  0  0  0  0  0  0  0  0  0  0
  -19.6563  -29.9989   18.8615 C   0  0  0  0  0  0  0  0  0  0  0  0
  -20.3701  -29.9179   16.4631 C   0  0  0  0  0  0  0  0  0  0  0  0
  -20.6335  -32.0260   17.7705 C   0  0  0  0  0  0  0  0  0  0  0  0
  -26.3512  -28.6877   15.9290 C   0  0  0  0  0  0  0  0  0  0  0  0
  -28.8173  -15.9822   19.2355 C   0  0  0  0  0  0  0  0  0  0  0  0
  -28.5839  -20.4867   18.5938 C   0  0  0  0  0  0  0  0  0  0  0  0
  -29.2822  -21.8154   18.3524 C   0  0  0  0  0  0  0  0  0  0  0  0
  -29.5057  -24.1172   19.2961 C   0  0  0  0  0  0  0  0  0  0  0  0
  -28.9570  -25.0252   20.3790 C   0  0  0  0  0  0  0  0  0  1  0  0
  -22.1636  -30.0712   18.2495 C   0  0  1  0  0  0  0  0  0  0  0  0
  -24.6907  -30.4925   15.4556 C   0  0  2  0  0  0  0  0  0  0  0  0
  -20.7180  -30.4864   17.8554 C   0  0  0  0  0  0  0  0  0  0  0  0
  -24.1468  -17.7471   21.3334 N   0  0  0  0  0  0  0  0  0  0  0  0
  -24.1928  -16.4056   21.2669 N   0  0  0  0  0  0  0  0  0  0  0  0
  -23.4698  -29.7928   20.3328 N   0  0  0  0  0  0  0  0  0  0  0  0
  -27.9650  -15.8407   21.5509 N   0  0  0  0  0  0  0  0  0  0  0  0
  -28.6355  -18.0890   18.0008 N   0  0  0  0  0  0  0  0  0  0  0  0
  -22.8837  -14.4926   20.7796 N   0  0  0  0  0  0  0  0  0  0  0  0
  -20.4593  -16.7581   18.9402 N   0  0  0  0  0  0  0  0  0  0  0  0
  -21.4868  -29.3987   22.2697 N   0  0  0  0  0  0  0  0  0  0  0  0
  -23.1926  -30.5426   17.3290 N   0  0  0  0  0  0  0  0  0  0  0  0
  -25.6621  -29.5083   14.9001 N   0  3  0  0  0  0  0  0  0  0  0  0
  -28.8454  -22.7906   19.3878 N   0  3  0  0  0  0  0  0  0  0  0  0
  -19.8294  -16.6437   21.1422 O   0  0  0  0  0  0  0  0  0  0  0  0
  -23.3122  -28.5110   23.4109 O   0  0  0  0  0  0  0  0  0  0  0  0
  -30.0620  -15.0054   20.9987 O   0  0  0  0  0  0  0  0  0  0  0  0
  -30.2167  -17.8573   19.6748 O   0  0  0  0  0  0  0  0  0  0  0  0
  -22.0736  -31.6354   20.0304 O   0  0  0  0  0  0  0  0  0  0  0  0
  -23.2040  -28.6602   15.9748 O   0  0  0  0  0  0  0  0  0  0  0  0
  -21.1315  -23.3306   20.8042 O   0  0  0  0  0  0  0  0  0  0  0  0
  -27.5461  -25.1643   20.2160 O   0  0  0  0  0  0  0  0  0  1  0  0
  -20.4713  -25.6317   15.8370 F   0  0  0  0  0  0  0  0  0  0  0  0
  -22.5658  -25.5808   20.0815 F   0  0  0  0  0  0  0  0  0  0  0  0
  1  2  1  0  0  0  0
  1  5  2  0  0  0  0
  2  6  2  0  0  0  0
  3  8  2  0  0  0  0
  3 15  1  0  0  0  0
  4  9  1  0  0  0  0
  4 15  2  0  0  0  0
  5 17  1  0  0  0  0
  6 19  1  0  0  0  0
  7 10  2  0  0  0  0
  7 18  1  0  0  0  0
  8 21  1  0  0  0  0
  9 21  2  0  0  0  0
 10 22  1  0  0  0  0
 11 12  2  0  0  0  0
 11 23  1  0  0  0  0
 12 24  1  0  0  0  0
 13 20  1  0  0  0  0
 13 22  2  0  0  0  0
 14 24  2  0  0  0  0
 14 25  1  0  0  0  0
 15 26  1  0  0  0  0
 16 26  1  0  0  0  0
 16 27  2  0  0  0  0
 16 28  1  0  0  0  0
 17 19  2  0  0  0  0
 17 34  1  0  0  0  0
 18 20  2  0  0  0  0
 18 35  1  0  0  0  0
 19 46  1  0  0  0  0
 20 36  1  0  0  0  0
 21 80  1  0  0  0  0
 22 81  1  0  0  0  0
 23 25  2  0  0  0  0
 23 80  1  0  0  0  0
 24 82  1  0  0  0  0
 25 83  1  0  0  0  0
 26 63  2  0  0  0  0
 27 64  1  0  0  0  0
 27 68  1  0  0  0  0
 28 69  1  0  0  0  0
 28 74  2  0  0  0  0
 29 47  1  0  0  0  0
 29 70  1  0  0  0  0
 29 75  2  0  0  0  0
 30 55  1  0  0  0  0
 30 66  1  0  0  0  0
 30 76  2  0  0  0  0
 31 55  1  0  0  0  0
 31 67  1  0  0  0  0
 31 77  2  0  0  0  0
 32 60  1  0  0  0  0
 32 65  1  0  0  0  0
 32 78  2  0  0  0  0
 33 61  1  0  0  0  0
 33 71  1  0  0  0  0
 33 79  2  0  0  0  0
 34 37  1  0  0  0  0
 35 47  1  0  0  0  0
 36 65  1  0  0  0  0
 37 40  1  0  0  0  0
 38 41  1  0  0  0  0
 38 43  1  0  0  0  0
 39 42  1  0  0  0  0
 39 44  1  0  0  0  0
 40 46  1  0  0  0  0
 41 48  1  0  0  0  0
 42 49  1  0  0  0  0
 43 66  1  0  0  0  0
 44 67  1  0  0  0  0
 45 48  1  0  0  0  0
 45 66  1  0  0  0  0
 46 70  1  0  0  0  0
 47 65  1  0  0  0  0
 48 64  1  0  0  0  0
 49 56  1  0  0  0  0
 49 67  1  0  0  0  0
 50 61  1  0  0  0  0
 51 62  1  0  0  0  0
 52 62  1  0  0  0  0
 53 62  1  0  0  0  0
 54 72  1  0  0  0  0
 56 57  1  0  0  0  0
 57 73  1  0  0  0  0
 58 59  1  0  0  0  0
 58 73  1  0  0  0  0
 59 81  1  0  0  0  0
 60 62  1  0  0  0  0
 60 71  1  0  0  0  0
 61 72  1  0  0  0  0
 63 64  1  0  0  0  0
M  CHG  2  72   1  73   1
M  ISO  4  30 100  55 100  59 101  81 101
M  END
> <Batch ID>
0128

> <Smiles>
CNC(C)C(=O)NC(C(=O)N1Cc2cc([101O:1][101CH2:1]CNCCC3CCCN3C(=O)[100CH2:0][100C:0](=O)N3CCCC(n4nc(-c5ccc(Oc6ccc(F)cc6F)cc5)c(C(N)=O)c4N)C3)ccc2CC1C(=O)NC1CCCc2ccccc21)C(C)(C)C

> <Shape>
0.187

> <Color>
0.107

> <Negative vol penalty>
0.000

$$$$

  -OEChem-04052320423D

 86 95  0     1  0  0  0  0  0999 V2000
  -16.8435  -25.5463   24.6326 C   0  0  0  0  0  0  0  0  0  0  0  0
  -17.5236  -24.6141   23.8556 C   0  0  0  0  0  0  0  0  0  0  0  0
  -26.5959  -12.1166   21.4157 C   0  0  0  0  0  0  0  0  0  0  0  0
  -25.8702  -13.8953   19.9505 C   0  0  0  0  0  0  0  0  0  0  0  0
  -17.1232  -26.9051   24.4934 C   0  0  0  0  0  0  0  0  0  0  0  0
  -18.4831  -25.0403   22.9380 C   0  0  0  0  0  0  0  0  0  0  0  0
  -23.6501  -22.1357   21.3978 C   0  0  0  0  0  0  0  0  0  0  0  0
  -25.3241  -11.5471   21.3543 C   0  0  0  0  0  0  0  0  0  0  0  0
  -24.5984  -13.3258   19.8891 C   0  0  0  0  0  0  0  0  0  0  0  0
  -23.9800  -21.3171   20.3186 C   0  0  0  0  0  0  0  0  0  0  0  0
  -21.8335  -13.1893   21.8302 C   0  0  0  0  0  0  0  0  0  0  0  0
  -20.7358  -14.0388   21.9671 C   0  0  0  0  0  0  0  0  0  0  0  0
  -24.9218  -23.2188   19.1716 C   0  0  0  0  0  0  0  0  0  0  0  0
  -31.3398  -19.5808   18.3655 C   0  0  0  0  0  0  0  0  0  0  0  0
  -19.9593  -13.3892   19.7734 C   0  0  0  0  0  0  0  0  0  0  0  0
  -30.0236  -21.3426   18.8486 C   0  0  0  0  0  0  0  0  0  0  0  0
  -26.8690  -13.2907   20.7138 C   0  0  0  0  0  0  0  0  0  0  0  0
  -29.2719  -13.6217   19.9239 C   0  0  0  0  0  0  0  0  0  0  0  0
  -18.0936  -27.3474   23.5805 C   0  0  0  0  0  0  0  0  0  0  0  0
  -23.9443  -23.5065   21.3674 C   0  0  0  0  0  0  0  0  0  0  0  0
  -18.7752  -26.4063   22.7854 C   0  0  0  0  0  0  0  0  0  0  0  0
  -24.5970  -24.0522   20.2528 C   0  0  0  0  0  0  0  0  0  0  0  0
  -30.3265  -20.4322   17.8603 C   0  0  0  0  0  0  0  0  0  0  0  0
  -24.3253  -12.1517   20.5910 C   0  0  0  0  0  0  0  0  0  0  0  0
  -24.6133  -21.8591   19.2041 C   0  0  0  0  0  0  0  0  0  0  0  0
  -21.9943  -12.4397   20.6649 C   0  0  0  0  0  0  0  0  0  0  0  0
  -19.7987  -14.1388   20.9388 C   0  0  0  0  0  0  0  0  0  0  0  0
  -21.0572  -12.5396   19.6365 C   0  0  0  0  0  0  0  0  0  0  0  0
  -28.1824  -13.8798   20.7772 C   0  0  0  0  0  0  0  0  0  0  0  0
  -31.6252  -19.9966   19.6473 C   0  0  0  0  0  0  0  0  0  0  0  0
  -30.2787  -14.4256   20.3999 C   0  0  0  0  0  0  0  0  0  0  0  0
  -29.3655  -12.7346   18.8014 C   0  0  0  0  0  0  0  0  0  0  0  0
  -22.2182  -26.1739   21.4647 C   0  0  0  0  0  0  0  0  0  0  0  0
  -25.1325  -27.5922   21.5983 C   0  0  0  0  0  0  0  0  0  0  0  0
  -28.4748  -27.4136   20.9319 C   0  0  0  0  0  0  0  0  0  0  0  0
  -30.2858  -19.5256   23.5369 C   0  0  0  0  0  0  0  0  0  0  0  0
  -18.3279  -28.8298   23.4315 C   0  0  0  0  0  0  0  0  0  0  0  0
  -23.6060  -24.3710   22.5509 C   0  0  0  0  0  0  0  0  0  0  0  0
  -24.9529  -25.5138   20.1793 C   0  0  0  0  0  0  0  0  0  0  0  0
  -19.6256  -29.1713   22.7037 C   0  0  0  0  0  0  0  0  0  0  0  0
  -31.8569  -16.4588   24.4330 C   0  0  0  0  0  0  0  0  0  0  0  0
  -19.7730  -28.3192   21.4471 C   0  0  0  0  0  0  0  0  0  0  0  0
  -34.0565  -19.9554   20.6265 C   0  0  0  0  0  0  0  0  0  0  0  0
  -33.8356  -18.6255   19.9764 C   0  0  0  0  0  0  0  0  0  0  0  0
  -31.1916  -15.4268   23.5207 C   0  0  0  0  0  0  0  0  0  0  0  0
  -30.8690  -17.5316   24.8860 C   0  0  0  0  0  0  0  0  0  0  0  0
  -29.4806  -17.1766   22.8811 C   0  0  0  0  0  0  0  0  0  0  0  0
  -19.8406  -26.8277   21.7967 C   0  0  1  0  0  0  0  0  0  0  0  0
  -32.6605  -19.3679   20.5801 C   0  0  0  0  0  0  0  0  0  0  0  0
  -23.4900  -25.8503   22.1965 C   0  0  1  0  0  0  0  0  0  0  0  0
  -30.4503  -16.1056   22.3532 C   0  0  2  0  0  0  0  0  0  0  0  0
  -30.5948  -28.7430   21.1206 C   0  0  0  0  0  0  0  0  0  0  0  0
  -24.2754  -29.2928   19.2144 C   0  0  0  0  0  0  0  0  0  0  0  0
  -26.6821  -29.8856   18.8609 C   0  0  0  0  0  0  0  0  0  0  0  0
  -25.5381  -30.5336   20.9808 C   0  0  0  0  0  0  0  0  0  0  0  0
  -29.7210  -25.3935   22.6998 C   0  0  0  0  0  0  0  0  0  0  0  0
  -29.6980  -20.3575   16.4989 C   0  0  0  0  0  0  0  0  0  0  0  0
  -30.8033  -21.8023   21.1755 C   0  0  0  0  0  0  0  0  0  0  0  0
  -29.6313  -21.4229   22.0770 C   0  0  0  0  0  0  0  0  0  0  0  0
  -28.4647  -19.4620   16.4374 C   0  0  0  0  0  0  0  0  0  0  0  0
  -26.1738  -19.1488   17.3820 C   0  0  0  0  0  0  0  0  0  0  0  0
  -25.2278  -19.6948   18.4333 C   0  0  0  0  0  0  0  0  0  1  0  0
  -26.1191  -28.1063   20.5779 C   0  0  1  0  0  0  0  0  0  0  0  0
  -29.6904  -27.7189   21.7884 C   0  0  2  0  0  0  0  0  0  0  0  0
  -25.6454  -29.4274   19.9087 C   0  0  0  0  0  0  0  0  0  0  0  0
  -28.4700  -14.7773   21.7236 N   0  0  0  0  0  0  0  0  0  0  0  0
  -30.8190  -21.0680   19.9304 N   0  0  0  0  0  0  0  0  0  0  0  0
  -29.7517  -15.0902   21.4679 N   0  0  0  0  0  0  0  0  0  0  0  0
  -24.5958  -26.3192   21.3588 N   0  0  0  0  0  0  0  0  0  0  0  0
  -30.2012  -18.1371   23.7313 N   0  0  0  0  0  0  0  0  0  0  0  0
  -31.5546  -14.6217   20.0048 N   0  0  0  0  0  0  0  0  0  0  0  0
  -28.2369  -11.9823   18.4484 N   0  0  0  0  0  0  0  0  0  0  0  0
  -21.1561  -26.4839   22.2924 N   0  0  0  0  0  0  0  0  0  0  0  0
  -27.4010  -28.2114   21.2664 N   0  0  0  0  0  0  0  0  0  0  0  0
  -29.6299  -20.0170   22.4148 N   0  0  0  0  0  0  0  0  0  0  0  0
  -30.4809  -26.4782   22.0268 N   0  3  0  0  0  0  0  0  0  0  0  0
  -27.4389  -19.9252   17.4106 N   0  3  0  0  0  0  0  0  0  0  0  0
  -30.4238  -12.6005   18.1414 O   0  0  0  0  0  0  0  0  0  0  0  0
  -22.2022  -26.1458   20.2397 O   0  0  0  0  0  0  0  0  0  0  0  0
  -24.8539  -28.2912   22.5758 O   0  0  0  0  0  0  0  0  0  0  0  0
  -28.4786  -26.5560   20.0516 O   0  0  0  0  0  0  0  0  0  0  0  0
  -30.9049  -20.2715   24.3033 O   0  0  0  0  0  0  0  0  0  0  0  0
  -23.0842  -11.5961   20.5308 O   0  0  0  0  0  0  0  0  0  0  0  0
  -24.9358  -21.0623   18.1490 O   0  0  0  0  0  0  0  0  0  1  0  0
  -18.7437  -14.9535   21.0711 F   0  0  0  0  0  0  0  0  0  0  0  0
  -21.2056  -11.8211   18.5151 F   0  0  0  0  0  0  0  0  0  0  0  0
  1  2  1  0  0  0  0
  1  5  2  0  0  0  0
  2  6  2  0  0  0  0
  3  8  2  0  0  0  0
  3 17  1  0  0  0  0
  4  9  1  0  0  0  0
  4 17  2  0  0  0  0
  5 19  1  0  0  0  0
  6 21  1  0  0  0  0
  7 10  2  0  0  0  0
  7 20  1  0  0  0  0
  8 24  1  0  0  0  0
  9 24  2  0  0  0  0
 10 25  1  0  0  0  0
 11 12  2  0  0  0  0
 11 26  1  0  0  0  0
 12 27  1  0  0  0  0
 13 22  1  0  0  0  0
 13 25  2  0  0  0  0
 14 23  1  0  0  0  0
 14 30  2  0  0  0  0
 15 27  2  0  0  0  0
 15 28  1  0  0  0  0
 16 23  2  0  0  0  0
 16 67  1  0  0  0  0
 17 29  1  0  0  0  0
 18 29  1  0  0  0  0
 18 31  2  0  0  0  0
 18 32  1  0  0  0  0
 19 21  2  0  0  0  0
 19 37  1  0  0  0  0
 20 22  2  0  0  0  0
 20 38  1  0  0  0  0
 21 48  1  0  0  0  0
 22 39  1  0  0  0  0
 23 57  1  0  0  0  0
 24 83  1  0  0  0  0
 25 84  1  0  0  0  0
 26 28  2  0  0  0  0
 26 83  1  0  0  0  0
 27 85  1  0  0  0  0
 28 86  1  0  0  0  0
 29 66  2  0  0  0  0
 30 49  1  0  0  0  0
 30 67  1  0  0  0  0
 31 68  1  0  0  0  0
 31 71  1  0  0  0  0
 32 72  1  0  0  0  0
 32 78  2  0  0  0  0
 33 50  1  0  0  0  0
 33 73  1  0  0  0  0
 33 79  2  0  0  0  0
 34 63  1  0  0  0  0
 34 69  1  0  0  0  0
 34 80  2  0  0  0  0
 35 64  1  0  0  0  0
 35 74  1  0  0  0  0
 35 81  2  0  0  0  0
 36 70  1  0  0  0  0
 36 75  1  0  0  0  0
 36 82  2  0  0  0  0
 37 40  1  0  0  0  0
 38 50  1  0  0  0  0
 39 69  1  0  0  0  0
 40 42  1  0  0  0  0
 41 45  1  0  0  0  0
 41 46  1  0  0  0  0
 42 48  1  0  0  0  0
 43 44  1  0  0  0  0
 43 49  1  0  0  0  0
 44 49  1  0  0  0  0
 45 51  1  0  0  0  0
 46 70  1  0  0  0  0
 47 51  1  0  0  0  0
 47 70  1  0  0  0  0
 48 73  1  0  0  0  0
 50 69  1  0  0  0  0
 51 68  1  0  0  0  0
 52 64  1  0  0  0  0
 53 65  1  0  0  0  0
 54 65  1  0  0  0  0
 55 65  1  0  0  0  0
 56 76  1  0  0  0  0
 57 60  1  0  0  0  0
 58 59  1  0  0  0  0
 58 67  1  0  0  0  0
 59 75  1  0  0  0  0
 60 77  1  0  0  0  0
 61 62  1  0  0  0  0
 61 77  1  0  0  0  0
 62 84  1  0  0  0  0
 63 65  1  0  0  0  0
 63 74  1  0  0  0  0
 64 76  1  0  0  0  0
 66 68  1  0  0  0  0
M  CHG  2  76   1  77   1
M  ISO  4  36 100  62 101  75 100  84 101
M  END
> <Batch ID>
0128

> <Smiles>
CNC(C)C(=O)NC(C(=O)N1Cc2cc([101O:1][101CH2:1]CNCCc3cc(C4CC4)n(CC[100NH:0][100C:0](=O)N4CCCC(n5nc(-c6ccc(Oc7ccc(F)cc7F)cc6)c(C(N)=O)c5N)C4)c3)ccc2CC1C(=O)NC1CCCc2ccccc21)C(C)(C)C

> <Shape>
0.229

> <Color>
0.072

> <Negative vol penalty>
0.000

$$$$

  -OEChem-04052320423D

 84 92  0     1  0  0  0  0  0999 V2000
  -21.5447  -12.2549   20.2022 C   0  0  0  0  0  0  0  0  0  0  0  0
  -21.5540  -13.5098   20.8027 C   0  0  0  0  0  0  0  0  0  0  0  0
  -18.6159  -26.1800   24.5073 C   0  0  0  0  0  0  0  0  0  0  0  0
  -30.0012  -24.0258   23.7726 C   0  0  0  0  0  0  0  0  0  0  0  0
  -29.2423  -25.5614   25.4765 C   0  0  0  0  0  0  0  0  0  0  0  0
  -22.7459  -11.5880   19.9650 C   0  0  0  0  0  0  0  0  0  0  0  0
  -22.7645  -14.0980   21.1673 C   0  0  0  0  0  0  0  0  0  0  0  0
  -23.0185  -18.9859   19.8676 C   0  0  0  0  0  0  0  0  0  0  0  0
  -18.8139  -27.3437   23.7642 C   0  0  0  0  0  0  0  0  0  0  0  0
  -19.3647  -25.0372   24.2264 C   0  0  0  0  0  0  0  0  0  0  0  0
  -31.1668  -23.7923   24.5021 C   0  0  0  0  0  0  0  0  0  0  0  0
  -30.4079  -25.3279   26.2061 C   0  0  0  0  0  0  0  0  0  0  0  0
  -22.3406  -19.8961   20.6773 C   0  0  0  0  0  0  0  0  0  0  0  0
  -34.1780  -22.5173   26.0902 C   0  0  0  0  0  0  0  0  0  0  0  0
  -34.6017  -21.1957   26.2302 C   0  0  0  0  0  0  0  0  0  0  0  0
  -24.4159  -20.4605   21.7700 C   0  0  0  0  0  0  0  0  0  0  0  0
  -20.5096  -26.2218   22.4592 C   0  0  0  0  0  0  0  0  0  0  0  0
  -32.5233  -20.6461   27.3327 C   0  0  0  0  0  0  0  0  0  0  0  0
  -29.0389  -24.9104   24.2597 C   0  0  0  0  0  0  0  0  0  0  0  0
  -26.6186  -24.4495   23.5984 C   0  0  0  0  0  0  0  0  0  0  0  0
  -23.9724  -12.1726   20.3181 C   0  0  0  0  0  0  0  0  0  0  0  0
  -24.4008  -18.7979   20.0107 C   0  0  0  0  0  0  0  0  0  0  0  0
  -23.9832  -13.4377   20.9358 C   0  0  0  0  0  0  0  0  0  0  0  0
  -25.1094  -19.5492   20.9591 C   0  0  0  0  0  0  0  0  0  0  0  0
  -19.7608  -27.3646   22.7402 C   0  0  0  0  0  0  0  0  0  0  0  0
  -31.3702  -24.4433   25.7189 C   0  0  0  0  0  0  0  0  0  0  0  0
  -23.0387  -20.6315   21.6307 C   0  0  0  0  0  0  0  0  0  0  0  0
  -20.3116  -25.0581   23.2023 C   0  0  0  0  0  0  0  0  0  0  0  0
  -32.9270  -22.9033   26.5716 C   0  0  0  0  0  0  0  0  0  0  0  0
  -33.7744  -20.2602   26.8514 C   0  0  0  0  0  0  0  0  0  0  0  0
  -32.0997  -21.9677   27.1928 C   0  0  0  0  0  0  0  0  0  0  0  0
  -27.8348  -25.1524   23.5063 C   0  0  0  0  0  0  0  0  0  0  0  0
  -25.7981  -25.0615   22.6826 C   0  0  0  0  0  0  0  0  0  0  0  0
  -26.2624  -23.3423   24.4368 C   0  0  0  0  0  0  0  0  0  0  0  0
  -26.2612  -16.3437   20.7975 C   0  0  0  0  0  0  0  0  0  0  0  0
  -28.6443  -18.4113   20.0435 C   0  0  0  0  0  0  0  0  0  0  0  0
  -29.6695  -21.6476   19.6943 C   0  0  0  0  0  0  0  0  0  0  0  0
  -24.6439  -30.3051   20.5178 C   0  0  0  0  0  0  0  0  0  0  0  0
  -25.2421  -11.3928   20.0848 C   0  0  0  0  0  0  0  0  0  0  0  0
  -25.1218  -17.8316   19.1112 C   0  0  0  0  0  0  0  0  0  0  0  0
  -26.5973  -19.3993   21.1385 C   0  0  0  0  0  0  0  0  0  0  0  0
  -26.5045  -12.2478   20.1600 C   0  0  0  0  0  0  0  0  0  0  0  0
  -26.5272  -27.8941   18.6967 C   0  0  0  0  0  0  0  0  0  0  0  0
  -26.4649  -13.1513   21.3884 C   0  0  0  0  0  0  0  0  0  0  0  0
  -26.9433  -26.8759   19.7598 C   0  0  0  0  0  0  0  0  0  0  0  0
  -26.5281  -29.3181   19.2481 C   0  0  0  0  0  0  0  0  0  0  0  0
  -26.1473  -28.4897   21.5377 C   0  0  0  0  0  0  0  0  0  0  0  0
  -25.2775  -14.1195   21.3231 C   0  0  1  0  0  0  0  0  0  0  0  0
  -26.4456  -17.3468   19.6941 C   0  0  1  0  0  0  0  0  0  0  0  0
  -26.1076  -27.0332   21.0444 C   0  0  2  0  0  0  0  0  0  0  0  0
  -31.6832  -23.0230   19.1022 C   0  0  0  0  0  0  0  0  0  0  0  0
  -29.8387  -17.8415   22.7928 C   0  0  0  0  0  0  0  0  0  0  0  0
  -31.2528  -19.8903   22.5260 C   0  0  0  0  0  0  0  0  0  0  0  0
  -31.5105  -17.9836   20.9382 C   0  0  0  0  0  0  0  0  0  0  0  0
  -28.2987  -22.8656   17.3713 C   0  0  0  0  0  0  0  0  0  0  0  0
  -19.9721  -28.6087   21.9455 C   0  0  0  0  0  0  0  0  0  0  0  0
  -22.7873  -31.1865   21.9090 C   0  0  0  0  0  0  0  0  0  0  0  0
  -21.4826  -30.5424   21.4787 C   0  0  0  0  0  0  0  0  0  0  0  0
  -20.9722  -21.6486   22.2232 C   0  0  0  0  0  0  0  0  0  1  0  0
  -20.4274  -22.6827   23.1892 C   0  0  0  0  0  0  0  0  0  0  0  0
  -29.4478  -19.4393   20.8028 C   0  0  1  0  0  0  0  0  0  0  0  0
  -30.4231  -22.3507   18.5798 C   0  0  2  0  0  0  0  0  0  0  0  0
  -30.4841  -18.7903   21.7632 C   0  0  0  0  0  0  0  0  0  0  0  0
  -27.7949  -26.1357   22.6031 N   0  0  0  0  0  0  0  0  0  0  0  0
  -26.5437  -26.0549   22.1193 N   0  0  0  0  0  0  0  0  0  0  0  0
  -27.2562  -18.4374   20.2396 N   0  0  0  0  0  0  0  0  0  0  0  0
  -25.7163  -29.3995   20.4648 N   0  0  0  0  0  0  0  0  0  0  0  0
  -24.5187  -24.8413   22.3121 N   0  0  0  0  0  0  0  0  0  0  0  0
  -27.2254  -22.8365   25.3206 N   0  0  0  0  0  0  0  0  0  0  0  0
  -25.5653  -15.2117   20.4183 N   0  0  0  0  0  0  0  0  0  0  0  0
  -30.0336  -20.3218   19.7996 N   0  0  0  0  0  0  0  0  0  0  0  0
  -23.9222  -30.3141   21.7052 N   0  0  0  0  0  0  0  0  0  0  0  0
  -29.5626  -23.3910   17.9487 N   0  3  0  0  0  0  0  0  0  0  0  0
  -21.2257  -29.3303   22.2992 N   0  3  0  0  0  0  0  0  0  0  0  0
  -25.1290  -22.8066   24.3917 O   0  0  0  0  0  0  0  0  0  0  0  0
  -26.7179  -16.5786   21.9101 O   0  0  0  0  0  0  0  0  0  0  0  0
  -29.2261  -17.6190   19.2983 O   0  0  0  0  0  0  0  0  0  0  0  0
  -28.8435  -22.2183   20.4031 O   0  0  0  0  0  0  0  0  0  0  0  0
  -24.3479  -31.0467   19.5747 O   0  0  0  0  0  0  0  0  0  0  0  0
  -32.5075  -24.2155   26.4312 O   0  0  0  0  0  0  0  0  0  0  0  0
  -22.3794  -21.5201   22.4228 O   0  0  0  0  0  0  0  0  0  1  0  0
  -21.0475  -23.9357   22.9269 O   0  0  0  0  0  0  0  0  0  0  0  0
  -34.1808  -18.9908   26.9843 F   0  0  0  0  0  0  0  0  0  0  0  0
  -30.8963  -22.3324   27.6561 F   0  0  0  0  0  0  0  0  0  0  0  0
  1  2  1  0  0  0  0
  1  6  2  0  0  0  0
  2  7  2  0  0  0  0
  3  9  1  0  0  0  0
  3 10  2  0  0  0  0
  4 11  2  0  0  0  0
  4 19  1  0  0  0  0
  5 12  1  0  0  0  0
  5 19  2  0  0  0  0
  6 21  1  0  0  0  0
  7 23  1  0  0  0  0
  8 13  2  0  0  0  0
  8 22  1  0  0  0  0
  9 25  2  0  0  0  0
 10 28  1  0  0  0  0
 11 26  1  0  0  0  0
 12 26  2  0  0  0  0
 13 27  1  0  0  0  0
 14 15  2  0  0  0  0
 14 29  1  0  0  0  0
 15 30  1  0  0  0  0
 16 24  1  0  0  0  0
 16 27  2  0  0  0  0
 17 25  1  0  0  0  0
 17 28  2  0  0  0  0
 18 30  2  0  0  0  0
 18 31  1  0  0  0  0
 19 32  1  0  0  0  0
 20 32  1  0  0  0  0
 20 33  2  0  0  0  0
 20 34  1  0  0  0  0
 21 23  2  0  0  0  0
 21 39  1  0  0  0  0
 22 24  2  0  0  0  0
 22 40  1  0  0  0  0
 23 48  1  0  0  0  0
 24 41  1  0  0  0  0
 25 56  1  0  0  0  0
 26 80  1  0  0  0  0
 27 81  1  0  0  0  0
 28 82  1  0  0  0  0
 29 31  2  0  0  0  0
 29 80  1  0  0  0  0
 30 83  1  0  0  0  0
 31 84  1  0  0  0  0
 32 64  2  0  0  0  0
 33 65  1  0  0  0  0
 33 68  1  0  0  0  0
 34 69  1  0  0  0  0
 34 75  2  0  0  0  0
 35 49  1  0  0  0  0
 35 70  1  0  0  0  0
 35 76  2  0  0  0  0
 36 61  1  0  0  0  0
 36 66  1  0  0  0  0
 36 77  2  0  0  0  0
 37 62  1  0  0  0  0
 37 71  1  0  0  0  0
 37 78  2  0  0  0  0
 38 67  1  0  0  0  0
 38 72  1  0  0  0  0
 38 79  2  0  0  0  0
 39 42  1  0  0  0  0
 40 49  1  0  0  0  0
 41 66  1  0  0  0  0
 42 44  1  0  0  0  0
 43 45  1  0  0  0  0
 43 46  1  0  0  0  0
 44 48  1  0  0  0  0
 45 50  1  0  0  0  0
 46 67  1  0  0  0  0
 47 50  1  0  0  0  0
 47 67  1  0  0  0  0
 48 70  1  0  0  0  0
 49 66  1  0  0  0  0
 50 65  1  0  0  0  0
 51 62  1  0  0  0  0
 52 63  1  0  0  0  0
 53 63  1  0  0  0  0
 54 63  1  0  0  0  0
 55 73  1  0  0  0  0
 56 74  1  0  0  0  0
 57 58  1  0  0  0  0
 57 72  1  0  0  0  0
 58 74  1  0  0  0  0
 59 60  1  0  0  0  0
 59 81  1  0  0  0  0
 60 82  1  0  0  0  0
 61 63  1  0  0  0  0
 61 71  1  0  0  0  0
 62 73  1  0  0  0  0
 64 65  1  0  0  0  0
M  CHG  2  73   1  74   1
M  ISO  4  38 100  59 101  72 100  81 101
M  END
> <Batch ID>
0128

> <Smiles>
CNC(C)C(=O)NC(C(=O)N1Cc2cc([101O:1][101CH2:1]COc3cccc(CNCC[100NH:0][100C:0](=O)N4CCCC(n5nc(-c6ccc(Oc7ccc(F)cc7F)cc6)c(C(N)=O)c5N)C4)c3)ccc2CC1C(=O)NC1CCCc2ccccc21)C(C)(C)C

> <Shape>
0.199

> <Color>
0.079

> <Negative vol penalty>
0.000

$$$$

  -OEChem-04052320423D

 87 96  0     1  0  0  0  0  0999 V2000
  -27.6533  -24.4408   17.1440 C   0  0  0  0  0  0  0  0  0  0  0  0
  -26.4556  -24.8071   17.7496 C   0  0  0  0  0  0  0  0  0  0  0  0
  -26.8865  -17.4376   22.3764 C   0  0  0  0  0  0  0  0  0  0  0  0
  -24.7221  -18.1705   21.5922 C   0  0  0  0  0  0  0  0  0  0  0  0
  -28.8671  -24.8083   17.7234 C   0  0  0  0  0  0  0  0  0  0  0  0
  -26.4710  -25.5403   18.9357 C   0  0  0  0  0  0  0  0  0  0  0  0
  -23.1504  -29.3635   18.8994 C   0  0  0  0  0  0  0  0  0  0  0  0
  -26.7219  -16.2285   21.7008 C   0  0  0  0  0  0  0  0  0  0  0  0
  -24.5575  -16.9614   20.9165 C   0  0  0  0  0  0  0  0  0  0  0  0
  -21.8112  -29.0459   19.1216 C   0  0  0  0  0  0  0  0  0  0  0  0
  -27.0278  -13.0933   19.8865 C   0  0  0  0  0  0  0  0  0  0  0  0
  -28.1082  -12.6109   19.1476 C   0  0  0  0  0  0  0  0  0  0  0  0
  -22.0322  -29.7476   21.4189 C   0  0  0  0  0  0  0  0  0  0  0  0
  -28.0702  -14.6080   17.7884 C   0  0  0  0  0  0  0  0  0  0  0  0
  -19.2044  -27.2558   23.0342 C   0  0  0  0  0  0  0  0  0  0  0  0
  -25.8865  -18.4086   22.3222 C   0  0  0  0  0  0  0  0  0  0  0  0
  -26.6364  -20.8388   22.5210 C   0  0  0  0  0  0  0  0  0  0  0  0
  -28.8973  -25.5546   18.9120 C   0  0  0  0  0  0  0  0  0  0  0  0
  -23.9448  -29.8662   19.9399 C   0  0  0  0  0  0  0  0  0  0  0  0
  -27.6863  -25.9170   19.5322 C   0  0  0  0  0  0  0  0  0  0  0  0
  -23.3806  -30.0733   21.2067 C   0  0  0  0  0  0  0  0  0  0  0  0
  -19.7194  -25.0933   23.3920 C   0  0  0  0  0  0  0  0  0  0  0  0
  -19.7073  -26.3845   23.9750 C   0  0  0  0  0  0  0  0  0  0  0  0
  -25.5574  -15.9904   20.9708 C   0  0  0  0  0  0  0  0  0  0  0  0
  -21.2527  -29.2352   20.3822 C   0  0  0  0  0  0  0  0  0  0  0  0
  -26.4686  -14.3329   19.5762 C   0  0  0  0  0  0  0  0  0  0  0  0
  -28.6293  -13.3683   18.0986 C   0  0  0  0  0  0  0  0  0  0  0  0
  -26.9898  -15.0903   18.5272 C   0  0  0  0  0  0  0  0  0  0  0  0
  -26.0557  -19.6576   23.0204 C   0  0  0  0  0  0  0  0  0  0  0  0
  -19.2237  -25.2149   22.1126 C   0  0  0  0  0  0  0  0  0  0  0  0
  -26.5582  -21.7279   23.5650 C   0  0  0  0  0  0  0  0  0  0  0  0
  -27.1963  -21.1083   21.2289 C   0  0  0  0  0  0  0  0  0  0  0  0
  -26.5638  -28.8736   21.4430 C   0  0  0  0  0  0  0  0  0  0  0  0
  -26.3700  -31.7768   22.8769 C   0  0  0  0  0  0  0  0  0  0  0  0
  -24.4278  -34.4232   23.8105 C   0  0  0  0  0  0  0  0  0  0  0  0
  -23.7127  -24.0846   27.7476 C   0  0  0  0  0  0  0  0  0  0  0  0
  -30.2339  -25.8881   19.5260 C   0  0  0  0  0  0  0  0  0  0  0  0
  -25.3807  -30.2291   19.6770 C   0  0  0  0  0  0  0  0  0  0  0  0
  -24.1853  -30.6293   22.3520 C   0  0  0  0  0  0  0  0  0  0  0  0
  -30.1613  -26.9864   20.5837 C   0  0  0  0  0  0  0  0  0  0  0  0
  -19.7773  -22.0155   25.2563 C   0  0  0  0  0  0  0  0  0  0  0  0
  -25.3592  -21.0013   28.4251 C   0  0  0  0  0  0  0  0  0  0  0  0
  -19.8815  -23.5165   25.5868 C   0  0  0  0  0  0  0  0  0  0  0  0
  -19.4200  -22.4369   23.8180 C   0  0  0  0  0  0  0  0  0  0  0  0
  -29.0055  -26.7265   21.5447 C   0  0  0  0  0  0  0  0  0  0  0  0
  -25.7292  -20.4718   27.0385 C   0  0  0  0  0  0  0  0  0  0  0  0
  -24.0105  -21.7175   28.4144 C   0  0  0  0  0  0  0  0  0  0  0  0
  -24.2570  -22.2607   26.0231 C   0  0  0  0  0  0  0  0  0  0  0  0
  -20.2098  -23.7545   24.0818 C   0  0  0  0  0  0  0  0  0  0  0  0
  -27.6617  -26.7335   20.8060 C   0  0  1  0  0  0  0  0  0  0  0  0
  -26.2327  -30.2510   20.9423 C   0  0  1  0  0  0  0  0  0  0  0  0
  -25.6352  -21.5794   25.9719 C   0  0  2  0  0  0  0  0  0  0  0  0
  -19.0177  -24.1885   21.0686 C   0  0  0  0  0  0  0  0  0  0  0  0
  -24.5445  -36.6293   25.0007 C   0  0  0  0  0  0  0  0  0  0  0  0
  -26.4892  -30.3222   25.5564 C   0  0  0  0  0  0  0  0  0  0  0  0
  -25.6590  -32.4153   26.6506 C   0  0  0  0  0  0  0  0  0  0  0  0
  -27.8443  -32.4213   25.4477 C   0  0  0  0  0  0  0  0  0  0  0  0
  -23.5596  -35.9020   21.3984 C   0  0  0  0  0  0  0  0  0  0  0  0
  -20.1483  -26.7420   25.3375 C   0  0  0  0  0  0  0  0  0  0  0  0
  -18.3413  -27.1210   20.6389 C   0  0  0  0  0  0  0  0  0  0  0  0
  -23.4575  -26.4132   26.9280 C   0  0  0  0  0  0  0  0  0  0  0  0
  -19.3888  -27.8688   19.8212 C   0  0  0  0  0  0  0  0  0  1  0  0
  -21.9794  -26.7395   26.8106 C   0  0  0  0  0  0  0  0  0  0  0  0
  -25.6973  -32.3139   24.1170 C   0  0  1  0  0  0  0  0  0  0  0  0
  -24.6247  -35.9206   23.6576 C   0  0  2  0  0  0  0  0  0  0  0  0
  -26.4076  -31.8559   25.4221 C   0  0  0  0  0  0  0  0  0  0  0  0
  -25.6395  -19.7817   24.2835 N   0  0  0  0  0  0  0  0  0  0  0  0
  -18.9142  -26.5339   21.9060 N   0  0  0  0  0  0  0  0  0  0  0  0
  -25.9591  -21.0514   24.5866 N   0  0  0  0  0  0  0  0  0  0  0  0
  -25.5864  -30.9629   22.0467 N   0  0  0  0  0  0  0  0  0  0  0  0
  -23.9876  -22.7565   27.3820 N   0  0  0  0  0  0  0  0  0  0  0  0
  -26.9443  -23.0144   23.6997 N   0  0  0  0  0  0  0  0  0  0  0  0
  -27.1961  -20.0829   20.2735 N   0  0  0  0  0  0  0  0  0  0  0  0
  -27.2441  -28.0913   20.5294 N   0  0  0  0  0  0  0  0  0  0  0  0
  -25.6296  -33.7617   23.9502 N   0  0  0  0  0  0  0  0  0  0  0  0
  -23.7167  -25.0076   26.7089 N   0  0  0  0  0  0  0  0  0  0  0  0
  -23.5795  -36.4916   22.7618 N   0  3  0  0  0  0  0  0  0  0  0  0
  -27.6973  -22.2204   20.9358 O   0  0  0  0  0  0  0  0  0  0  0  0
  -26.2283  -28.5454   22.5750 O   0  0  0  0  0  0  0  0  0  0  0  0
  -27.5453  -32.0745   22.6493 O   0  0  0  0  0  0  0  0  0  0  0  0
  -23.3187  -33.8937   23.8101 O   0  0  0  0  0  0  0  0  0  0  0  0
  -23.4861  -24.4236   28.9141 O   0  0  0  0  0  0  0  0  0  0  0  0
  -25.3966  -14.8107   20.3111 O   0  0  0  0  0  0  0  0  0  0  0  0
  -19.9459  -28.9253   20.6020 O   0  0  0  0  0  0  0  0  0  1  0  0
  -21.5254  -26.4070   25.5080 O   0  0  0  0  0  0  0  0  0  0  0  0
  -29.6678  -12.9057   17.3902 F   0  0  0  0  0  0  0  0  0  0  0  0
  -26.4575  -16.2825   18.2252 F   0  0  0  0  0  0  0  0  0  0  0  0
  1  2  1  0  0  0  0
  1  5  2  0  0  0  0
  2  6  2  0  0  0  0
  3  8  2  0  0  0  0
  3 16  1  0  0  0  0
  4  9  1  0  0  0  0
  4 16  2  0  0  0  0
  5 18  1  0  0  0  0
  6 20  1  0  0  0  0
  7 10  2  0  0  0  0
  7 19  1  0  0  0  0
  8 24  1  0  0  0  0
  9 24  2  0  0  0  0
 10 25  1  0  0  0  0
 11 12  2  0  0  0  0
 11 26  1  0  0  0  0
 12 27  1  0  0  0  0
 13 21  1  0  0  0  0
 13 25  2  0  0  0  0
 14 27  2  0  0  0  0
 14 28  1  0  0  0  0
 15 23  2  0  0  0  0
 15 68  1  0  0  0  0
 16 29  1  0  0  0  0
 17 29  1  0  0  0  0
 17 31  2  0  0  0  0
 17 32  1  0  0  0  0
 18 20  2  0  0  0  0
 18 37  1  0  0  0  0
 19 21  2  0  0  0  0
 19 38  1  0  0  0  0
 20 50  1  0  0  0  0
 21 39  1  0  0  0  0
 22 23  1  0  0  0  0
 22 30  2  0  0  0  0
 22 49  1  0  0  0  0
 23 59  1  0  0  0  0
 24 83  1  0  0  0  0
 25 84  1  0  0  0  0
 26 28  2  0  0  0  0
 26 83  1  0  0  0  0
 27 86  1  0  0  0  0
 28 87  1  0  0  0  0
 29 67  2  0  0  0  0
 30 53  1  0  0  0  0
 30 68  1  0  0  0  0
 31 69  1  0  0  0  0
 31 72  1  0  0  0  0
 32 73  1  0  0  0  0
 32 78  2  0  0  0  0
 33 51  1  0  0  0  0
 33 74  1  0  0  0  0
 33 79  2  0  0  0  0
 34 64  1  0  0  0  0
 34 70  1  0  0  0  0
 34 80  2  0  0  0  0
 35 65  1  0  0  0  0
 35 75  1  0  0  0  0
 35 81  2  0  0  0  0
 36 71  1  0  0  0  0
 36 76  1  0  0  0  0
 36 82  2  0  0  0  0
 37 40  1  0  0  0  0
 38 51  1  0  0  0  0
 39 70  1  0  0  0  0
 40 45  1  0  0  0  0
 41 43  1  0  0  0  0
 41 44  1  0  0  0  0
 42 46  1  0  0  0  0
 42 47  1  0  0  0  0
 43 49  1  0  0  0  0
 44 49  1  0  0  0  0
 45 50  1  0  0  0  0
 46 52  1  0  0  0  0
 47 71  1  0  0  0  0
 48 52  1  0  0  0  0
 48 71  1  0  0  0  0
 50 74  1  0  0  0  0
 51 70  1  0  0  0  0
 52 69  1  0  0  0  0
 54 65  1  0  0  0  0
 55 66  1  0  0  0  0
 56 66  1  0  0  0  0
 57 66  1  0  0  0  0
 58 77  1  0  0  0  0
 59 85  1  0  0  0  0
 60 62  1  0  0  0  0
 60 68  1  0  0  0  0
 61 63  1  0  0  0  0
 61 76  1  0  0  0  0
 62 84  1  0  0  0  0
 63 85  1  0  0  0  0
 64 66  1  0  0  0  0
 64 75  1  0  0  0  0
 65 77  1  0  0  0  0
 67 69  1  0  0  0  0
M  CHG  1  77   1
M  ISO  4  36 100  62 101  76 100  84 101
M  END
> <Batch ID>
0128

> <Smiles>
CNC(C)C(=O)NC(C(=O)N1Cc2cc([101O:1][101CH2:1]Cn3cc(COCC[100NH:0][100C:0](=O)N4CCCC(n5nc(-c6ccc(Oc7ccc(F)cc7F)cc6)c(C(N)=O)c5N)C4)c(C4CCC4)c3C)ccc2CC1C(=O)NC1CCCc2ccccc21)C(C)(C)C

> <Shape>
0.268

> <Color>
0.070

> <Negative vol penalty>
0.000

$$$$

  -OEChem-04052320423D

 81 89  0     1  0  0  0  0  0999 V2000
  -25.0403  -11.2663   20.0696 C   0  0  0  0  0  0  0  0  0  0  0  0
  -24.0807  -12.2246   19.7595 C   0  0  0  0  0  0  0  0  0  0  0  0
  -18.1770  -26.4570   23.8185 C   0  0  0  0  0  0  0  0  0  0  0  0
  -29.3549  -26.2076   21.2051 C   0  0  0  0  0  0  0  0  0  0  0  0
  -27.5429  -25.7431   22.7341 C   0  0  0  0  0  0  0  0  0  0  0  0
  -26.1465  -11.6143   20.8437 C   0  0  0  0  0  0  0  0  0  0  0  0
  -24.2262  -13.5313   20.2242 C   0  0  0  0  0  0  0  0  0  0  0  0
  -22.8206  -20.3059   18.3680 C   0  0  0  0  0  0  0  0  0  0  0  0
  -30.2437  -25.5569   22.0607 C   0  0  0  0  0  0  0  0  0  0  0  0
  -28.4317  -25.0924   23.5897 C   0  0  0  0  0  0  0  0  0  0  0  0
  -22.2085  -21.4546   18.8674 C   0  0  0  0  0  0  0  0  0  0  0  0
  -31.8931  -26.2443   24.9298 C   0  0  0  0  0  0  0  0  0  0  0  0
  -33.1153  -26.8651   25.1875 C   0  0  0  0  0  0  0  0  0  0  0  0
  -18.4788  -27.7970   23.6025 C   0  0  0  0  0  0  0  0  0  0  0  0
  -19.0467  -25.4722   23.3636 C   0  0  0  0  0  0  0  0  0  0  0  0
  -24.2008  -21.9599   20.1302 C   0  0  0  0  0  0  0  0  0  0  0  0
  -34.2782  -24.9548   24.2735 C   0  0  0  0  0  0  0  0  0  0  0  0
  -28.0044  -26.3008   21.5418 C   0  0  0  0  0  0  0  0  0  0  0  0
  -26.7922  -26.6394   19.3229 C   0  0  0  0  0  0  0  0  0  0  0  0
  -26.3106  -12.9282   21.3101 C   0  0  0  0  0  0  0  0  0  0  0  0
  -24.1257  -19.9692   18.7550 C   0  0  0  0  0  0  0  0  0  0  0  0
  -25.3349  -13.8968   21.0064 C   0  0  0  0  0  0  0  0  0  0  0  0
  -24.8282  -20.8077   19.6322 C   0  0  0  0  0  0  0  0  0  0  0  0
  -29.7822  -24.9993   23.2530 C   0  0  0  0  0  0  0  0  0  0  0  0
  -22.8975  -22.2803   19.7509 C   0  0  0  0  0  0  0  0  0  0  0  0
  -31.8634  -24.9787   24.3440 C   0  0  0  0  0  0  0  0  0  0  0  0
  -34.3079  -26.2203   24.8593 C   0  0  0  0  0  0  0  0  0  0  0  0
  -33.0560  -24.3340   24.0159 C   0  0  0  0  0  0  0  0  0  0  0  0
  -27.0859  -26.9733   20.6586 C   0  0  0  0  0  0  0  0  0  0  0  0
  -19.6534  -28.0973   22.9318 C   0  0  0  0  0  0  0  0  0  0  0  0
  -20.1958  -25.8766   22.7033 C   0  0  0  0  0  0  0  0  0  0  0  0
  -25.8670  -27.5756   18.9304 C   0  0  0  0  0  0  0  0  0  0  0  0
  -27.3094  -25.5778   18.5097 C   0  0  0  0  0  0  0  0  0  0  0  0
  -25.4491  -17.5196   20.2886 C   0  0  0  0  0  0  0  0  0  0  0  0
  -28.2126  -19.0303   19.5121 C   0  0  0  0  0  0  0  0  0  0  0  0
  -29.7899  -21.9422   18.6876 C   0  0  0  0  0  0  0  0  0  0  0  0
  -21.9223  -30.9230   21.9446 C   0  0  0  0  0  0  0  0  0  0  0  0
  -27.4987  -13.2455   22.1832 C   0  0  0  0  0  0  0  0  0  0  0  0
  -24.7816  -18.7408   18.1865 C   0  0  0  0  0  0  0  0  0  0  0  0
  -26.2385  -20.5016   20.0630 C   0  0  0  0  0  0  0  0  0  0  0  0
  -27.7700  -14.7413   22.3224 C   0  0  0  0  0  0  0  0  0  0  0  0
  -24.5052  -32.0817   19.7853 C   0  0  0  0  0  0  0  0  0  0  0  0
  -26.4760  -15.4934   22.6171 C   0  0  0  0  0  0  0  0  0  0  0  0
  -25.4330  -30.8738   19.6438 C   0  0  0  0  0  0  0  0  0  0  0  0
  -23.9189  -32.1813   21.1919 C   0  0  0  0  0  0  0  0  0  0  0  0
  -24.1700  -29.7526   21.5270 C   0  0  0  0  0  0  0  0  0  0  0  0
  -25.4701  -15.3306   21.4713 C   0  0  1  0  0  0  0  0  0  0  0  0
  -25.9276  -18.2216   19.0493 C   0  0  1  0  0  0  0  0  0  0  0  0
  -24.7418  -29.5782   20.1096 C   0  0  2  0  0  0  0  0  0  0  0  0
  -31.6574  -23.4554   17.9665 C   0  0  0  0  0  0  0  0  0  0  0  0
  -28.9563  -18.9223   22.4694 C   0  0  0  0  0  0  0  0  0  0  0  0
  -30.7093  -20.6525   22.0201 C   0  0  0  0  0  0  0  0  0  0  0  0
  -30.8403  -18.4268   20.9011 C   0  0  0  0  0  0  0  0  0  0  0  0
  -29.1691  -21.5348   15.8228 C   0  0  0  0  0  0  0  0  0  0  0  0
  -20.0091  -29.5250   22.6826 C   0  0  0  0  0  0  0  0  0  0  0  0
  -23.0662  -24.2022   21.1415 C   0  0  0  0  0  0  0  0  0  1  0  0
  -22.2327  -25.3924   21.5753 C   0  0  0  0  0  0  0  0  0  0  0  0
  -29.0763  -20.0819   20.1657 C   0  0  1  0  0  0  0  0  0  0  0  0
  -30.7778  -22.2752   17.5842 C   0  0  2  0  0  0  0  0  0  0  0  0
  -29.8683  -19.5259   21.3826 C   0  0  0  0  0  0  0  0  0  0  0  0
  -26.4028  -28.0385   21.0859 N   0  0  0  0  0  0  0  0  0  0  0  0
  -20.5228  -27.1683   22.4750 N   0  0  0  0  0  0  0  0  0  0  0  0
  -25.6707  -28.3821   20.0126 N   0  0  0  0  0  0  0  0  0  0  0  0
  -26.8343  -19.2859   19.4846 N   0  0  0  0  0  0  0  0  0  0  0  0
  -23.2767  -30.9208   21.5723 N   0  0  0  0  0  0  0  0  0  0  0  0
  -25.2104  -27.7793   17.7686 N   0  0  0  0  0  0  0  0  0  0  0  0
  -26.6411  -24.3458   18.5150 N   0  0  0  0  0  0  0  0  0  0  0  0
  -25.8231  -16.1914   20.3627 N   0  0  0  0  0  0  0  0  0  0  0  0
  -29.9159  -20.6352   19.1086 N   0  0  0  0  0  0  0  0  0  0  0  0
  -21.3899  -29.6853   22.2843 N   0  0  0  0  0  0  0  0  0  0  0  0
  -30.0542  -22.6162   16.3267 N   0  3  0  0  0  0  0  0  0  0  0  0
  -28.3431  -25.7125   17.8121 O   0  0  0  0  0  0  0  0  0  0  0  0
  -24.7907  -18.1376   21.1171 O   0  0  0  0  0  0  0  0  0  0  0  0
  -28.7422  -18.0226   19.0369 O   0  0  0  0  0  0  0  0  0  0  0  0
  -28.9892  -22.7607   19.1342 O   0  0  0  0  0  0  0  0  0  0  0  0
  -21.2368  -31.9509   21.9671 O   0  0  0  0  0  0  0  0  0  0  0  0
  -30.6492  -24.3641   24.0881 O   0  0  0  0  0  0  0  0  0  0  0  0
  -22.3022  -23.4018   20.2404 O   0  0  0  0  0  0  0  0  0  1  0  0
  -21.0688  -24.9248   22.2460 O   0  0  0  0  0  0  0  0  0  0  0  0
  -35.4814  -26.8173   25.1054 F   0  0  0  0  0  0  0  0  0  0  0  0
  -33.0338  -23.1186   23.4519 F   0  0  0  0  0  0  0  0  0  0  0  0
  1  2  1  0  0  0  0
  1  6  2  0  0  0  0
  2  7  2  0  0  0  0
  3 14  1  0  0  0  0
  3 15  2  0  0  0  0
  4  9  2  0  0  0  0
  4 18  1  0  0  0  0
  5 10  1  0  0  0  0
  5 18  2  0  0  0  0
  6 20  1  0  0  0  0
  7 22  1  0  0  0  0
  8 11  2  0  0  0  0
  8 21  1  0  0  0  0
  9 24  1  0  0  0  0
 10 24  2  0  0  0  0
 11 25  1  0  0  0  0
 12 13  2  0  0  0  0
 12 26  1  0  0  0  0
 13 27  1  0  0  0  0
 14 30  2  0  0  0  0
 15 31  1  0  0  0  0
 16 23  1  0  0  0  0
 16 25  2  0  0  0  0
 17 27  2  0  0  0  0
 17 28  1  0  0  0  0
 18 29  1  0  0  0  0
 19 29  1  0  0  0  0
 19 32  2  0  0  0  0
 19 33  1  0  0  0  0
 20 22  2  0  0  0  0
 20 38  1  0  0  0  0
 21 23  2  0  0  0  0
 21 39  1  0  0  0  0
 22 47  1  0  0  0  0
 23 40  1  0  0  0  0
 24 77  1  0  0  0  0
 25 78  1  0  0  0  0
 26 28  2  0  0  0  0
 26 77  1  0  0  0  0
 27 80  1  0  0  0  0
 28 81  1  0  0  0  0
 29 61  2  0  0  0  0
 30 55  1  0  0  0  0
 30 62  1  0  0  0  0
 31 62  2  0  0  0  0
 31 79  1  0  0  0  0
 32 63  1  0  0  0  0
 32 66  1  0  0  0  0
 33 67  1  0  0  0  0
 33 72  2  0  0  0  0
 34 48  1  0  0  0  0
 34 68  1  0  0  0  0
 34 73  2  0  0  0  0
 35 58  1  0  0  0  0
 35 64  1  0  0  0  0
 35 74  2  0  0  0  0
 36 59  1  0  0  0  0
 36 69  1  0  0  0  0
 36 75  2  0  0  0  0
 37 65  1  0  0  0  0
 37 70  1  0  0  0  0
 37 76  2  0  0  0  0
 38 41  1  0  0  0  0
 39 48  1  0  0  0  0
 40 64  1  0  0  0  0
 41 43  1  0  0  0  0
 42 44  1  0  0  0  0
 42 45  1  0  0  0  0
 43 47  1  0  0  0  0
 44 49  1  0  0  0  0
 45 65  1  0  0  0  0
 46 49  1  0  0  0  0
 46 65  1  0  0  0  0
 47 68  1  0  0  0  0
 48 64  1  0  0  0  0
 49 63  1  0  0  0  0
 50 59  1  0  0  0  0
 51 60  1  0  0  0  0
 52 60  1  0  0  0  0
 53 60  1  0  0  0  0
 54 71  1  0  0  0  0
 55 70  1  0  0  0  0
 56 57  1  0  0  0  0
 56 78  1  0  0  0  0
 57 79  1  0  0  0  0
 58 60  1  0  0  0  0
 58 69  1  0  0  0  0
 59 71  1  0  0  0  0
 61 63  1  0  0  0  0
M  CHG  1  71   1
M  ISO  4  37 100  56 101  70 100  78 101
M  END
> <Batch ID>
0128

> <Smiles>
CNC(C)C(=O)NC(C(=O)N1Cc2cc([101O:1][101CH2:1]COc3cccc(C[100NH:0][100C:0](=O)N4CCCC(n5nc(-c6ccc(Oc7ccc(F)cc7F)cc6)c(C(N)=O)c5N)C4)n3)ccc2CC1C(=O)NC1CCCc2ccccc21)C(C)(C)C

> <Shape>
0.214

> <Color>
0.085

> <Negative vol penalty>
0.000

$$$$

  -OEChem-04052320423D

 84 93  0     1  0  0  0  0  0999 V2000
  -19.8015  -34.1954   21.3502 C   0  0  0  0  0  0  0  0  0  0  0  0
  -21.0546  -33.7134   20.9855 C   0  0  0  0  0  0  0  0  0  0  0  0
  -28.7030   -9.8172   19.0251 C   0  0  0  0  0  0  0  0  0  0  0  0
  -28.7322  -11.0746   16.9623 C   0  0  0  0  0  0  0  0  0  0  0  0
  -19.0856  -33.5707   22.3706 C   0  0  0  0  0  0  0  0  0  0  0  0
  -21.5928  -32.6070   21.6417 C   0  0  0  0  0  0  0  0  0  0  0  0
  -25.1222  -28.2371   19.2017 C   0  0  0  0  0  0  0  0  0  0  0  0
  -28.5764   -8.6319   18.3008 C   0  0  0  0  0  0  0  0  0  0  0  0
  -28.6056   -9.8893   16.2380 C   0  0  0  0  0  0  0  0  0  0  0  0
  -26.5023  -28.0399   19.1969 C   0  0  0  0  0  0  0  0  0  0  0  0
  -26.1420   -7.7273   15.4090 C   0  0  0  0  0  0  0  0  0  0  0  0
  -25.2228   -7.7037   14.3602 C   0  0  0  0  0  0  0  0  0  0  0  0
  -26.2912  -26.5589   21.0893 C   0  0  0  0  0  0  0  0  0  0  0  0
  -30.0337  -24.2678   20.4368 C   0  0  0  0  0  0  0  0  0  0  0  0
  -27.0058   -7.2024   12.8088 C   0  0  0  0  0  0  0  0  0  0  0  0
  -29.8232  -23.9159   18.0940 C   0  0  0  0  0  0  0  0  0  0  0  0
  -28.7809  -11.0386   18.3558 C   0  0  0  0  0  0  0  0  0  0  0  0
  -30.1054  -12.8923   19.5034 C   0  0  0  0  0  0  0  0  0  0  0  0
  -19.6112  -32.4502   23.0330 C   0  0  0  0  0  0  0  0  0  0  0  0
  -24.3160  -27.6042   20.1587 C   0  0  0  0  0  0  0  0  0  0  0  0
  -20.8838  -31.9676   22.6727 C   0  0  0  0  0  0  0  0  0  0  0  0
  -24.9008  -26.7477   21.1024 C   0  0  0  0  0  0  0  0  0  0  0  0
  -30.0692  -24.7834   19.1460 C   0  0  0  0  0  0  0  0  0  0  0  0
  -29.7572  -22.9194   20.6334 C   0  0  0  0  0  0  0  0  0  0  0  0
  -28.5277   -8.6679   16.9073 C   0  0  0  0  0  0  0  0  0  0  0  0
  -27.0874  -27.2030   20.1426 C   0  0  0  0  0  0  0  0  0  0  0  0
  -27.4931   -7.4885   15.1577 C   0  0  0  0  0  0  0  0  0  0  0  0
  -25.6546   -7.4413   13.0601 C   0  0  0  0  0  0  0  0  0  0  0  0
  -27.9250   -7.2261   13.8576 C   0  0  0  0  0  0  0  0  0  0  0  0
  -28.9111  -12.2634   19.1034 C   0  0  0  0  0  0  0  0  0  0  0  0
  -29.5251  -22.1353   19.5149 C   0  0  0  0  0  0  0  0  0  0  0  0
  -29.6928  -14.0140   20.1803 C   0  0  0  0  0  0  0  0  0  0  0  0
  -31.4661  -12.4979   19.2828 C   0  0  0  0  0  0  0  0  0  0  0  0
  -22.3957  -28.6012   22.4872 C   0  0  0  0  0  0  0  0  0  0  0  0
  -21.6961  -25.4432   22.7323 C   0  0  0  0  0  0  0  0  0  0  0  0
  -22.6585  -22.2126   22.1993 C   0  0  0  0  0  0  0  0  0  0  0  0
  -26.3615  -18.4674   20.5887 C   0  0  0  0  0  0  0  0  0  0  0  0
  -18.8206  -31.8373   24.1618 C   0  0  0  0  0  0  0  0  0  0  0  0
  -22.8258  -27.8063   20.1337 C   0  0  0  0  0  0  0  0  0  0  0  0
  -24.0772  -26.0287   22.1385 C   0  0  0  0  0  0  0  0  0  0  0  0
  -19.2993  -30.4415   24.5529 C   0  0  0  0  0  0  0  0  0  0  0  0
  -25.1335  -15.3945   21.8266 C   0  0  0  0  0  0  0  0  0  0  0  0
  -20.8191  -30.4144   24.6800 C   0  0  0  0  0  0  0  0  0  0  0  0
  -26.0773  -14.3484   21.2399 C   0  0  0  0  0  0  0  0  0  0  0  0
  -28.9266  -19.8772   18.3781 C   0  0  0  0  0  0  0  0  0  0  0  0
  -24.8728  -16.5107   20.8241 C   0  0  0  0  0  0  0  0  0  0  0  0
  -28.2783  -18.5994   18.8938 C   0  0  0  0  0  0  0  0  0  0  0  0
  -27.9627  -20.3540   20.4951 C   0  0  0  0  0  0  0  0  0  0  0  0
  -27.0972  -16.1718   19.7812 C   0  0  0  0  0  0  0  0  0  0  0  0
  -21.4906  -30.7546   23.3441 C   0  0  1  0  0  0  0  0  0  0  0  0
  -29.2185  -20.6618   19.6675 C   0  0  2  0  0  0  0  0  0  0  0  0
  -22.1607  -27.5154   21.4755 C   0  0  1  0  0  0  0  0  0  0  0  0
  -27.3775  -15.0053   20.7510 C   0  0  2  0  0  0  0  0  0  0  0  0
  -29.7194  -22.3601   22.0136 C   0  0  0  0  0  0  0  0  0  0  0  0
  -21.8923  -19.8473   22.5394 C   0  0  0  0  0  0  0  0  0  0  0  0
  -22.3861  -25.6485   25.6974 C   0  0  0  0  0  0  0  0  0  0  0  0
  -22.5294  -23.1499   25.7656 C   0  0  0  0  0  0  0  0  0  0  0  0
  -20.3703  -24.2583   25.1893 C   0  0  0  0  0  0  0  0  0  0  0  0
  -22.6838  -21.6637   19.2912 C   0  0  0  0  0  0  0  0  0  0  0  0
  -30.3610  -26.2212   18.9019 C   0  0  0  0  0  0  0  0  0  0  0  0
  -29.1020  -27.0963   18.8833 C   0  0  0  0  0  0  0  0  0  1  0  0
  -22.2614  -24.2803   23.5114 C   0  0  1  0  0  0  0  0  0  0  0  0
  -21.9274  -21.0319   21.5863 C   0  0  2  0  0  0  0  0  0  0  0  0
  -21.9028  -24.3492   25.0228 C   0  0  0  0  0  0  0  0  0  0  0  0
  -29.5511  -22.6004   18.2458 N   0  0  0  0  0  0  0  0  0  0  0  0
  -27.8215  -12.9301   19.4938 N   0  0  0  0  0  0  0  0  0  0  0  0
  -28.3296  -13.9895   20.1462 N   0  0  0  0  0  0  0  0  0  0  0  0
  -22.6251  -26.2636   22.0769 N   0  0  0  0  0  0  0  0  0  0  0  0
  -26.1182  -17.1116   20.3429 N   0  0  0  0  0  0  0  0  0  0  0  0
  -27.5343  -19.0226   20.0783 N   0  0  0  0  0  0  0  0  0  0  0  0
  -30.3667  -15.0089   20.7954 N   0  0  0  0  0  0  0  0  0  0  0  0
  -31.7121  -11.3179   18.5678 N   0  0  0  0  0  0  0  0  0  0  0  0
  -21.4551  -29.6130   22.4554 N   0  0  0  0  0  0  0  0  0  0  0  0
  -21.7922  -23.0728   22.8405 N   0  0  0  0  0  0  0  0  0  0  0  0
  -22.6002  -20.6028   20.3277 N   0  3  0  0  0  0  0  0  0  0  0  0
  -32.4348  -13.1634   19.7212 O   0  0  0  0  0  0  0  0  0  0  0  0
  -23.3582  -28.5258   23.2419 O   0  0  0  0  0  0  0  0  0  0  0  0
  -20.4747  -25.6131   22.7004 O   0  0  0  0  0  0  0  0  0  0  0  0
  -23.8766  -22.3556   22.1207 O   0  0  0  0  0  0  0  0  0  0  0  0
  -25.5445  -19.1658   21.2041 O   0  0  0  0  0  0  0  0  0  0  0  0
  -28.4044   -7.5115   16.2002 O   0  0  0  0  0  0  0  0  0  0  0  0
  -28.4438  -27.0079   20.1406 O   0  0  0  0  0  0  0  0  0  1  0  0
  -24.7716   -7.4171   12.0532 F   0  0  0  0  0  0  0  0  0  0  0  0
  -29.2216   -6.9947   13.6103 F   0  0  0  0  0  0  0  0  0  0  0  0
  1  2  1  0  0  0  0
  1  5  2  0  0  0  0
  2  6  2  0  0  0  0
  3  8  2  0  0  0  0
  3 17  1  0  0  0  0
  4  9  1  0  0  0  0
  4 17  2  0  0  0  0
  5 19  1  0  0  0  0
  6 21  1  0  0  0  0
  7 10  2  0  0  0  0
  7 20  1  0  0  0  0
  8 25  1  0  0  0  0
  9 25  2  0  0  0  0
 10 26  1  0  0  0  0
 11 12  2  0  0  0  0
 11 27  1  0  0  0  0
 12 28  1  0  0  0  0
 13 22  1  0  0  0  0
 13 26  2  0  0  0  0
 14 23  2  0  0  0  0
 14 24  1  0  0  0  0
 15 28  2  0  0  0  0
 15 29  1  0  0  0  0
 16 23  1  0  0  0  0
 16 65  2  0  0  0  0
 17 30  1  0  0  0  0
 18 30  1  0  0  0  0
 18 32  2  0  0  0  0
 18 33  1  0  0  0  0
 19 21  2  0  0  0  0
 19 38  1  0  0  0  0
 20 22  2  0  0  0  0
 20 39  1  0  0  0  0
 21 50  1  0  0  0  0
 22 40  1  0  0  0  0
 23 60  1  0  0  0  0
 24 31  2  0  0  0  0
 24 54  1  0  0  0  0
 25 81  1  0  0  0  0
 26 82  1  0  0  0  0
 27 29  2  0  0  0  0
 27 81  1  0  0  0  0
 28 83  1  0  0  0  0
 29 84  1  0  0  0  0
 30 66  2  0  0  0  0
 31 51  1  0  0  0  0
 31 65  1  0  0  0  0
 32 67  1  0  0  0  0
 32 71  1  0  0  0  0
 33 72  1  0  0  0  0
 33 76  2  0  0  0  0
 34 52  1  0  0  0  0
 34 73  1  0  0  0  0
 34 77  2  0  0  0  0
 35 62  1  0  0  0  0
 35 68  1  0  0  0  0
 35 78  2  0  0  0  0
 36 63  1  0  0  0  0
 36 74  1  0  0  0  0
 36 79  2  0  0  0  0
 37 69  1  0  0  0  0
 37 70  1  0  0  0  0
 37 80  2  0  0  0  0
 38 41  1  0  0  0  0
 39 52  1  0  0  0  0
 40 68  1  0  0  0  0
 41 43  1  0  0  0  0
 42 44  1  0  0  0  0
 42 46  1  0  0  0  0
 43 50  1  0  0  0  0
 44 53  1  0  0  0  0
 45 47  1  0  0  0  0
 45 51  1  0  0  0  0
 46 69  1  0  0  0  0
 47 70  1  0  0  0  0
 48 51  1  0  0  0  0
 48 70  1  0  0  0  0
 49 53  1  0  0  0  0
 49 69  1  0  0  0  0
 50 73  1  0  0  0  0
 52 68  1  0  0  0  0
 53 67  1  0  0  0  0
 55 63  1  0  0  0  0
 56 64  1  0  0  0  0
 57 64  1  0  0  0  0
 58 64  1  0  0  0  0
 59 75  1  0  0  0  0
 60 61  1  0  0  0  0
 61 82  1  0  0  0  0
 62 64  1  0  0  0  0
 62 74  1  0  0  0  0
 63 75  1  0  0  0  0
 66 67  1  0  0  0  0
M  CHG  1  75   1
M  ISO  4  37 100  61 101  70 100  82 101
M  END
> <Batch ID>
0128

> <Smiles>
CNC(C)C(=O)NC(C(=O)N1Cc2cc([101O:1][101CH2:1]Cc3cnc(C4CC[100N:0]([100C:0](=O)N5CCCC(n6nc(-c7ccc(Oc8ccc(F)cc8F)cc7)c(C(N)=O)c6N)C5)C4)c(C)c3)ccc2CC1C(=O)NC1CCCc2ccccc21)C(C)(C)C

> <Shape>
0.216

> <Color>
0.090

> <Negative vol penalty>
0.000

$$$$

  -OEChem-04052320423D

 85 94  0     1  0  0  0  0  0999 V2000
  -17.0299  -25.2007   24.2652 C   0  0  0  0  0  0  0  0  0  0  0  0
  -17.7234  -24.3685   23.3923 C   0  0  0  0  0  0  0  0  0  0  0  0
  -28.1193  -13.9849   21.6286 C   0  0  0  0  0  0  0  0  0  0  0  0
  -27.8283  -14.1079   19.2334 C   0  0  0  0  0  0  0  0  0  0  0  0
  -17.3002  -26.5683   24.2852 C   0  0  0  0  0  0  0  0  0  0  0  0
  -18.6869  -24.9037   22.5380 C   0  0  0  0  0  0  0  0  0  0  0  0
  -23.8883  -22.2304   20.7201 C   0  0  0  0  0  0  0  0  0  0  0  0
  -27.2298  -12.9117   21.6816 C   0  0  0  0  0  0  0  0  0  0  0  0
  -26.9388  -13.0347   19.2863 C   0  0  0  0  0  0  0  0  0  0  0  0
  -24.2330  -21.5433   19.5570 C   0  0  0  0  0  0  0  0  0  0  0  0
  -24.7584  -10.3702   22.4919 C   0  0  0  0  0  0  0  0  0  0  0  0
  -23.7858  -10.3808   23.4916 C   0  0  0  0  0  0  0  0  0  0  0  0
  -28.5656  -22.2281   14.0309 C   0  0  0  0  0  0  0  0  0  0  0  0
  -25.1691  -23.5706   18.6441 C   0  0  0  0  0  0  0  0  0  0  0  0
  -22.9081  -12.4543   22.6156 C   0  0  0  0  0  0  0  0  0  0  0  0
  -29.6243  -23.1208   14.0749 C   0  0  0  0  0  0  0  0  0  0  0  0
  -28.4185  -14.5830   20.4045 C   0  0  0  0  0  0  0  0  0  0  0  0
  -30.7326  -15.6320   20.1764 C   0  0  0  0  0  0  0  0  0  0  0  0
  -18.2743  -27.1191   23.4376 C   0  0  0  0  0  0  0  0  0  0  0  0
  -24.1721  -23.5976   20.8498 C   0  0  0  0  0  0  0  0  0  0  0  0
  -18.9695  -26.2802   22.5458 C   0  0  0  0  0  0  0  0  0  0  0  0
  -24.8292  -24.2721   19.8109 C   0  0  0  0  0  0  0  0  0  0  0  0
  -28.1267  -21.6793   15.2306 C   0  0  0  0  0  0  0  0  0  0  0  0
  -28.7511  -22.0349   16.4210 C   0  0  0  0  0  0  0  0  0  0  0  0
  -26.6396  -12.4366   20.5105 C   0  0  0  0  0  0  0  0  0  0  0  0
  -24.8709  -22.2140   18.5176 C   0  0  0  0  0  0  0  0  0  0  0  0
  -24.8060  -11.4017   21.5541 C   0  0  0  0  0  0  0  0  0  0  0  0
  -22.8606  -11.4228   23.5534 C   0  0  0  0  0  0  0  0  0  0  0  0
  -23.8808  -12.4437   21.6159 C   0  0  0  0  0  0  0  0  0  0  0  0
  -29.3368  -15.6919   20.3492 C   0  0  0  0  0  0  0  0  0  0  0  0
  -29.8017  -22.9361   16.3580 C   0  0  0  0  0  0  0  0  0  0  0  0
  -31.1374  -16.9444   20.1938 C   0  0  0  0  0  0  0  0  0  0  0  0
  -31.5869  -14.4920   20.0145 C   0  0  0  0  0  0  0  0  0  0  0  0
  -22.4246  -26.2244   21.2373 C   0  0  0  0  0  0  0  0  0  0  0  0
  -25.3266  -27.6377   21.5584 C   0  0  0  0  0  0  0  0  0  0  0  0
  -28.6753  -27.5596   20.9052 C   0  0  0  0  0  0  0  0  0  0  0  0
  -28.3753  -22.0856   18.9115 C   0  0  0  0  0  0  0  0  0  0  0  0
  -18.4982  -28.6104   23.4617 C   0  0  0  0  0  0  0  0  0  0  0  0
  -23.8177  -24.3182   22.1216 C   0  0  0  0  0  0  0  0  0  0  0  0
  -25.1744  -25.7349   19.9087 C   0  0  0  0  0  0  0  0  0  0  0  0
  -19.7990  -29.0420   22.7893 C   0  0  0  0  0  0  0  0  0  0  0  0
  -29.9265  -21.2132   21.9953 C   0  0  0  0  0  0  0  0  0  0  0  0
  -19.9630  -28.3408   21.4446 C   0  0  0  0  0  0  0  0  0  0  0  0
  -33.0138  -23.8481   19.4600 C   0  0  0  0  0  0  0  0  0  0  0  0
  -33.0951  -25.3385   19.2811 C   0  0  0  0  0  0  0  0  0  0  0  0
  -30.0838  -19.6936   21.9048 C   0  0  0  0  0  0  0  0  0  0  0  0
  -28.6249  -21.6879   21.3517 C   0  0  0  0  0  0  0  0  0  0  0  0
  -28.5690  -19.7115   19.8820 C   0  0  0  0  0  0  0  0  0  0  0  0
  -20.0394  -26.8195   21.6214 C   0  0  1  0  0  0  0  0  0  0  0  0
  -23.6930  -25.8276   21.9383 C   0  0  1  0  0  0  0  0  0  0  0  0
  -31.7893  -24.6256   19.0637 C   0  0  0  0  0  0  0  0  0  0  0  0
  -29.8961  -19.1926   20.4594 C   0  0  2  0  0  0  0  0  0  0  0  0
  -31.0842  -28.2560   21.0058 C   0  0  0  0  0  0  0  0  0  0  0  0
  -24.4753  -29.5949   19.3779 C   0  0  0  0  0  0  0  0  0  0  0  0
  -26.8799  -30.2407   19.1158 C   0  0  0  0  0  0  0  0  0  0  0  0
  -25.7143  -30.6334   21.2860 C   0  0  0  0  0  0  0  0  0  0  0  0
  -29.1674  -25.9248   23.3227 C   0  0  0  0  0  0  0  0  0  0  0  0
  -26.9770  -20.7039   15.2091 C   0  0  0  0  0  0  0  0  0  0  0  0
  -31.2269  -24.4923   17.6894 C   0  0  0  0  0  0  0  0  0  0  0  0
  -25.6104  -21.3667   15.0226 C   0  0  0  0  0  0  0  0  0  0  0  0
  -25.2293  -22.2973   16.1681 C   0  0  0  0  0  0  0  0  0  1  0  0
  -26.3172  -28.2723   20.6123 C   0  0  1  0  0  0  0  0  0  0  0  0
  -29.8817  -27.7728   21.8017 C   0  0  2  0  0  0  0  0  0  0  0  0
  -25.8386  -29.6582   20.0951 C   0  0  0  0  0  0  0  0  0  0  0  0
  -30.2559  -23.4903   15.2116 N   0  0  0  0  0  0  0  0  0  0  0  0
  -28.8851  -16.9433   20.4678 N   0  0  0  0  0  0  0  0  0  0  0  0
  -30.0036  -17.6819   20.3695 N   0  0  0  0  0  0  0  0  0  0  0  0
  -24.8017  -26.3971   21.1697 N   0  0  0  0  0  0  0  0  0  0  0  0
  -28.5178  -21.1785   19.9828 N   0  0  0  0  0  0  0  0  0  0  0  0
  -32.3490  -17.5279   20.0758 N   0  0  0  0  0  0  0  0  0  0  0  0
  -31.0067  -13.2162   20.0202 N   0  0  0  0  0  0  0  0  0  0  0  0
  -28.3162  -21.4872   17.6533 N   0  0  0  0  0  0  0  0  0  0  0  0
  -30.4461  -23.3053   17.5658 N   0  0  0  0  0  0  0  0  0  0  0  0
  -21.3536  -26.4301   22.0859 N   0  0  0  0  0  0  0  0  0  0  0  0
  -27.5928  -28.3064   21.3195 N   0  0  0  0  0  0  0  0  0  0  0  0
  -30.2506  -26.5008   22.4849 N   0  3  0  0  0  0  0  0  0  0  0  0
  -32.8299  -14.6006   19.8856 O   0  0  0  0  0  0  0  0  0  0  0  0
  -22.4185  -26.3370   20.0171 O   0  0  0  0  0  0  0  0  0  0  0  0
  -25.0349  -28.2180   22.6071 O   0  0  0  0  0  0  0  0  0  0  0  0
  -28.6928  -26.8088   19.9323 O   0  0  0  0  0  0  0  0  0  0  0  0
  -28.3379  -23.3051   19.0943 O   0  0  0  0  0  0  0  0  0  0  0  0
  -25.7718  -11.3893   20.5617 O   0  0  0  0  0  0  0  0  0  0  0  0
  -25.2080  -21.5459   17.3810 O   0  0  0  0  0  0  0  0  0  1  0  0
  -21.9256  -11.4321   24.5126 F   0  0  0  0  0  0  0  0  0  0  0  0
  -23.9208  -13.4368   20.7171 F   0  0  0  0  0  0  0  0  0  0  0  0
  1  2  1  0  0  0  0
  1  5  2  0  0  0  0
  2  6  2  0  0  0  0
  3  8  2  0  0  0  0
  3 17  1  0  0  0  0
  4  9  1  0  0  0  0
  4 17  2  0  0  0  0
  5 19  1  0  0  0  0
  6 21  1  0  0  0  0
  7 10  2  0  0  0  0
  7 20  1  0  0  0  0
  8 25  1  0  0  0  0
  9 25  2  0  0  0  0
 10 26  1  0  0  0  0
 11 12  2  0  0  0  0
 11 27  1  0  0  0  0
 12 28  1  0  0  0  0
 13 16  2  0  0  0  0
 13 23  1  0  0  0  0
 14 22  1  0  0  0  0
 14 26  2  0  0  0  0
 15 28  2  0  0  0  0
 15 29  1  0  0  0  0
 16 65  1  0  0  0  0
 17 30  1  0  0  0  0
 18 30  1  0  0  0  0
 18 32  2  0  0  0  0
 18 33  1  0  0  0  0
 19 21  2  0  0  0  0
 19 38  1  0  0  0  0
 20 22  2  0  0  0  0
 20 39  1  0  0  0  0
 21 49  1  0  0  0  0
 22 40  1  0  0  0  0
 23 24  2  0  0  0  0
 23 58  1  0  0  0  0
 24 31  1  0  0  0  0
 24 72  1  0  0  0  0
 25 82  1  0  0  0  0
 26 83  1  0  0  0  0
 27 29  2  0  0  0  0
 27 82  1  0  0  0  0
 28 84  1  0  0  0  0
 29 85  1  0  0  0  0
 30 66  2  0  0  0  0
 31 65  2  0  0  0  0
 31 73  1  0  0  0  0
 32 67  1  0  0  0  0
 32 70  1  0  0  0  0
 33 71  1  0  0  0  0
 33 77  2  0  0  0  0
 34 50  1  0  0  0  0
 34 74  1  0  0  0  0
 34 78  2  0  0  0  0
 35 62  1  0  0  0  0
 35 68  1  0  0  0  0
 35 79  2  0  0  0  0
 36 63  1  0  0  0  0
 36 75  1  0  0  0  0
 36 80  2  0  0  0  0
 37 69  1  0  0  0  0
 37 72  1  0  0  0  0
 37 81  2  0  0  0  0
 38 41  1  0  0  0  0
 39 50  1  0  0  0  0
 40 68  1  0  0  0  0
 41 43  1  0  0  0  0
 42 46  1  0  0  0  0
 42 47  1  0  0  0  0
 43 49  1  0  0  0  0
 44 45  1  0  0  0  0
 44 51  1  0  0  0  0
 45 51  1  0  0  0  0
 46 52  1  0  0  0  0
 47 69  1  0  0  0  0
 48 52  1  0  0  0  0
 48 69  1  0  0  0  0
 49 74  1  0  0  0  0
 50 68  1  0  0  0  0
 51 59  1  0  0  0  0
 52 67  1  0  0  0  0
 53 63  1  0  0  0  0
 54 64  1  0  0  0  0
 55 64  1  0  0  0  0
 56 64  1  0  0  0  0
 57 76  1  0  0  0  0
 58 60  1  0  0  0  0
 59 73  1  0  0  0  0
 60 61  1  0  0  0  0
 61 83  1  0  0  0  0
 62 64  1  0  0  0  0
 62 75  1  0  0  0  0
 63 76  1  0  0  0  0
 66 67  1  0  0  0  0
M  CHG  1  76   1
M  ISO  4  37 100  61 101  72 100  83 101
M  END
> <Batch ID>
0128

> <Smiles>
CNC(C)C(=O)NC(C(=O)N1Cc2cc([101O:1][101CH2:1]CCc3ccnc(NCC4CC4)c3[100NH:0][100C:0](=O)N3CCCC(n4nc(-c5ccc(Oc6ccc(F)cc6F)cc5)c(C(N)=O)c4N)C3)ccc2CC1C(=O)NC1CCCc2ccccc21)C(C)(C)C

> <Shape>
0.258

> <Color>
0.073

> <Negative vol penalty>
0.000

$$$$

  -OEChem-04052320423D

 83 91  0     1  0  0  0  0  0999 V2000
  -32.1949  -21.4355   23.4953 C   0  0  0  0  0  0  0  0  0  0  0  0
  -30.9706  -21.8837   23.9808 C   0  0  0  0  0  0  0  0  0  0  0  0
  -29.7293  -28.8145   18.6842 C   0  0  0  0  0  0  0  0  0  0  0  0
  -29.3047  -27.0996   20.3322 C   0  0  0  0  0  0  0  0  0  0  0  0
  -32.2532  -20.7447   22.2856 C   0  0  0  0  0  0  0  0  0  0  0  0
  -29.8039  -21.6423   23.2562 C   0  0  0  0  0  0  0  0  0  0  0  0
  -22.8220  -20.3389   24.1887 C   0  0  0  0  0  0  0  0  0  0  0  0
  -18.6162  -25.9794   22.7717 C   0  0  0  0  0  0  0  0  0  0  0  0
  -19.0820  -27.1667   23.3364 C   0  0  0  0  0  0  0  0  0  0  0  0
  -31.0698  -28.4328   18.6323 C   0  0  0  0  0  0  0  0  0  0  0  0
  -30.6453  -26.7179   20.2803 C   0  0  0  0  0  0  0  0  0  0  0  0
  -21.5747  -20.8032   23.7733 C   0  0  0  0  0  0  0  0  0  0  0  0
  -32.6382  -24.8979   18.2464 C   0  0  0  0  0  0  0  0  0  0  0  0
  -32.9198  -23.5334   18.1794 C   0  0  0  0  0  0  0  0  0  0  0  0
  -21.7866  -19.5303   21.7351 C   0  0  0  0  0  0  0  0  0  0  0  0
  -19.2261  -26.7841   20.5768 C   0  0  0  0  0  0  0  0  0  0  0  0
  -34.1588  -23.6874   20.2478 C   0  0  0  0  0  0  0  0  0  0  0  0
  -28.8467  -28.1480   19.5342 C   0  0  0  0  0  0  0  0  0  0  0  0
  -26.4053  -28.0467   18.8013 C   0  0  0  0  0  0  0  0  0  0  0  0
  -31.0854  -20.4863   21.5507 C   0  0  0  0  0  0  0  0  0  0  0  0
  -23.5670  -19.4740   23.3743 C   0  0  0  0  0  0  0  0  0  0  0  0
  -29.8468  -20.9485   22.0349 C   0  0  0  0  0  0  0  0  0  0  0  0
  -23.0419  -19.0545   22.1436 C   0  0  0  0  0  0  0  0  0  0  0  0
  -18.6883  -25.7881   21.3918 C   0  0  0  0  0  0  0  0  0  0  0  0
  -19.6198  -28.1628   22.5213 C   0  0  0  0  0  0  0  0  0  0  0  0
  -31.5279  -27.3845   19.4303 C   0  0  0  0  0  0  0  0  0  0  0  0
  -21.0581  -20.4012   22.5450 C   0  0  0  0  0  0  0  0  0  0  0  0
  -33.1170  -25.6572   19.3141 C   0  0  0  0  0  0  0  0  0  0  0  0
  -33.6800  -22.9282   19.1800 C   0  0  0  0  0  0  0  0  0  0  0  0
  -33.8772  -25.0519   20.3148 C   0  0  0  0  0  0  0  0  0  0  0  0
  -19.6919  -27.9714   21.1415 C   0  0  0  0  0  0  0  0  0  0  0  0
  -27.4619  -28.5422   19.5887 C   0  0  0  0  0  0  0  0  0  0  0  0
  -25.3002  -28.7369   19.2360 C   0  0  0  0  0  0  0  0  0  0  0  0
  -26.4214  -27.0516   17.7693 C   0  0  0  0  0  0  0  0  0  0  0  0
  -26.3964  -19.6304   21.9343 C   0  0  0  0  0  0  0  0  0  0  0  0
  -25.7615  -16.5335   21.2075 C   0  0  0  0  0  0  0  0  0  0  0  0
  -23.4287  -14.0868   20.7400 C   0  0  0  0  0  0  0  0  0  0  0  0
  -22.1624  -30.7966   23.3660 C   0  0  0  0  0  0  0  0  0  0  0  0
  -31.2041  -19.7769   20.2250 C   0  0  0  0  0  0  0  0  0  0  0  0
  -24.8989  -18.9610   23.8488 C   0  0  0  0  0  0  0  0  0  0  0  0
  -23.7930  -18.1111   21.2412 C   0  0  0  0  0  0  0  0  0  0  0  0
  -29.8759  -19.2349   19.7031 C   0  0  0  0  0  0  0  0  0  0  0  0
  -24.9182  -32.7665   22.2696 C   0  0  0  0  0  0  0  0  0  0  0  0
  -28.7830  -20.2920   19.8252 C   0  0  0  0  0  0  0  0  0  0  0  0
  -25.7411  -31.8008   21.4151 C   0  0  0  0  0  0  0  0  0  0  0  0
  -24.2892  -32.0624   23.4699 C   0  0  0  0  0  0  0  0  0  0  0  0
  -24.3131  -29.9022   22.2839 C   0  0  0  0  0  0  0  0  0  0  0  0
  -28.5562  -20.6844   21.2901 C   0  0  1  0  0  0  0  0  0  0  0  0
  -25.7983  -18.4908   22.7098 C   0  0  1  0  0  0  0  0  0  0  0  0
  -24.9214  -30.5544   21.0306 C   0  0  2  0  0  0  0  0  0  0  0  0
  -23.2109  -11.6661   20.1152 C   0  0  0  0  0  0  0  0  0  0  0  0
  -26.2794  -17.2436   18.2856 C   0  0  0  0  0  0  0  0  0  0  0  0
  -25.1464  -15.1069   17.6380 C   0  0  0  0  0  0  0  0  0  0  0  0
  -27.2293  -15.0463   19.0093 C   0  0  0  0  0  0  0  0  0  0  0  0
  -22.1847  -13.4082   23.3383 C   0  0  0  0  0  0  0  0  0  0  0  0
  -20.1070  -29.4204   23.1652 C   0  0  0  0  0  0  0  0  0  0  0  0
  -18.1872  -24.5111   20.7843 C   0  0  0  0  0  0  0  0  0  0  0  0
  -18.6064  -22.0690   20.4694 C   0  0  0  0  0  0  0  0  0  0  0  0
  -19.6366  -20.9881   20.7309 C   0  0  0  0  0  0  0  0  0  1  0  0
  -25.0695  -15.8226   20.0697 C   0  0  1  0  0  0  0  0  0  0  0  0
  -23.3461  -12.6618   21.2568 C   0  0  2  0  0  0  0  0  0  0  0  0
  -25.9176  -15.8241   18.7665 C   0  0  0  0  0  0  0  0  0  0  0  0
  -27.0638  -29.4752   20.4577 N   0  0  0  0  0  0  0  0  0  0  0  0
  -25.7448  -29.5715   20.2188 N   0  0  0  0  0  0  0  0  0  0  0  0
  -25.0938  -17.6422   21.7466 N   0  0  0  0  0  0  0  0  0  0  0  0
  -23.5247  -30.8904   23.0367 N   0  0  0  0  0  0  0  0  0  0  0  0
  -24.0014  -28.7052   18.8695 N   0  0  0  0  0  0  0  0  0  0  0  0
  -27.6418  -26.4418   17.4480 N   0  0  0  0  0  0  0  0  0  0  0  0
  -27.7771  -19.6718   21.9698 N   0  0  0  0  0  0  0  0  0  0  0  0
  -24.7351  -14.4911   20.5634 N   0  0  0  0  0  0  0  0  0  0  0  0
  -21.5107  -29.6567   22.9114 N   0  0  0  0  0  0  0  0  0  0  0  0
  -22.1701  -12.5052   22.1587 N   0  3  0  0  0  0  0  0  0  0  0  0
  -19.1036  -23.3603   21.0075 N   0  3  0  0  0  0  0  0  0  0  0  0
  -25.3872  -26.7249   17.1390 O   0  0  0  0  0  0  0  0  0  0  0  0
  -25.6597  -20.4133   21.3459 O   0  0  0  0  0  0  0  0  0  0  0  0
  -26.8510  -16.1160   21.6080 O   0  0  0  0  0  0  0  0  0  0  0  0
  -22.4338  -14.7714   20.5121 O   0  0  0  0  0  0  0  0  0  0  0  0
  -21.5694  -31.6671   24.0122 O   0  0  0  0  0  0  0  0  0  0  0  0
  -32.8359  -27.0116   19.3797 O   0  0  0  0  0  0  0  0  0  0  0  0
  -19.8413  -20.8534   22.1368 O   0  0  0  0  0  0  0  0  0  1  0  0
  -33.9491  -21.6175   19.1163 F   0  0  0  0  0  0  0  0  0  0  0  0
  -34.3389  -25.7760   21.3436 F   0  0  0  0  0  0  0  0  0  0  0  0
  -20.3500  -29.1821   20.1019 Cl  0  0  0  0  0  0  0  0  0  0  0  0
  1  2  1  0  0  0  0
  1  5  2  0  0  0  0
  2  6  2  0  0  0  0
  3 10  2  0  0  0  0
  3 18  1  0  0  0  0
  4 11  1  0  0  0  0
  4 18  2  0  0  0  0
  5 20  1  0  0  0  0
  6 22  1  0  0  0  0
  7 12  2  0  0  0  0
  7 21  1  0  0  0  0
  8  9  2  0  0  0  0
  8 24  1  0  0  0  0
  9 25  1  0  0  0  0
 10 26  1  0  0  0  0
 11 26  2  0  0  0  0
 12 27  1  0  0  0  0
 13 14  2  0  0  0  0
 13 28  1  0  0  0  0
 14 29  1  0  0  0  0
 15 23  1  0  0  0  0
 15 27  2  0  0  0  0
 16 24  2  0  0  0  0
 16 31  1  0  0  0  0
 17 29  2  0  0  0  0
 17 30  1  0  0  0  0
 18 32  1  0  0  0  0
 19 32  1  0  0  0  0
 19 33  2  0  0  0  0
 19 34  1  0  0  0  0
 20 22  2  0  0  0  0
 20 39  1  0  0  0  0
 21 23  2  0  0  0  0
 21 40  1  0  0  0  0
 22 48  1  0  0  0  0
 23 41  1  0  0  0  0
 24 57  1  0  0  0  0
 25 31  2  0  0  0  0
 25 56  1  0  0  0  0
 26 79  1  0  0  0  0
 27 80  1  0  0  0  0
 28 30  2  0  0  0  0
 28 79  1  0  0  0  0
 29 81  1  0  0  0  0
 30 82  1  0  0  0  0
 31 83  1  0  0  0  0
 32 63  2  0  0  0  0
 33 64  1  0  0  0  0
 33 67  1  0  0  0  0
 34 68  1  0  0  0  0
 34 74  2  0  0  0  0
 35 49  1  0  0  0  0
 35 69  1  0  0  0  0
 35 75  2  0  0  0  0
 36 60  1  0  0  0  0
 36 65  1  0  0  0  0
 36 76  2  0  0  0  0
 37 61  1  0  0  0  0
 37 70  1  0  0  0  0
 37 77  2  0  0  0  0
 38 66  1  0  0  0  0
 38 71  1  0  0  0  0
 38 78  2  0  0  0  0
 39 42  1  0  0  0  0
 40 49  1  0  0  0  0
 41 65  1  0  0  0  0
 42 44  1  0  0  0  0
 43 45  1  0  0  0  0
 43 46  1  0  0  0  0
 44 48  1  0  0  0  0
 45 50  1  0  0  0  0
 46 66  1  0  0  0  0
 47 50  1  0  0  0  0
 47 66  1  0  0  0  0
 48 69  1  0  0  0  0
 49 65  1  0  0  0  0
 50 64  1  0  0  0  0
 51 61  1  0  0  0  0
 52 62  1  0  0  0  0
 53 62  1  0  0  0  0
 54 62  1  0  0  0  0
 55 72  1  0  0  0  0
 56 71  1  0  0  0  0
 57 73  1  0  0  0  0
 58 59  1  0  0  0  0
 58 73  1  0  0  0  0
 59 80  1  0  0  0  0
 60 62  1  0  0  0  0
 60 70  1  0  0  0  0
 61 72  1  0  0  0  0
 63 64  1  0  0  0  0
M  CHG  2  72   1  73   1
M  ISO  4  38 100  59 101  71 100  80 101
M  END
> <Batch ID>
0128

> <Smiles>
CNC(C)C(=O)NC(C(=O)N1Cc2cc([101O:1][101CH2:1]CNCc3ccc(C[100NH:0][100C:0](=O)N4CCCC(n5nc(-c6ccc(Oc7ccc(F)cc7F)cc6)c(C(N)=O)c5N)C4)c(Cl)c3)ccc2CC1C(=O)NC1CCCc2ccccc21)C(C)(C)C

> <Shape>
0.206

> <Color>
0.074

> <Negative vol penalty>
0.000

$$$$

  -OEChem-04052320423D

 80 88  0     1  0  0  0  0  0999 V2000
  -27.1144  -30.7874   22.2080 C   0  0  0  0  0  0  0  0  0  0  0  0
  -27.7029  -29.5274   22.2487 C   0  0  0  0  0  0  0  0  0  0  0  0
  -22.8491  -10.1021   20.1097 C   0  0  0  0  0  0  0  0  0  0  0  0
  -24.2752   -9.5514   21.9806 C   0  0  0  0  0  0  0  0  0  0  0  0
  -26.6927  -31.3971   23.3888 C   0  0  0  0  0  0  0  0  0  0  0  0
  -27.8710  -28.8769   23.4706 C   0  0  0  0  0  0  0  0  0  0  0  0
  -27.5085  -22.8533   24.5149 C   0  0  0  0  0  0  0  0  0  0  0  0
  -22.1412   -8.9154   20.3000 C   0  0  0  0  0  0  0  0  0  0  0  0
  -23.5673   -8.3646   22.1709 C   0  0  0  0  0  0  0  0  0  0  0  0
  -28.4815  -21.8623   24.6374 C   0  0  0  0  0  0  0  0  0  0  0  0
  -20.6337   -7.4101   23.5505 C   0  0  0  0  0  0  0  0  0  0  0  0
  -20.2720   -7.0751   24.8553 C   0  0  0  0  0  0  0  0  0  0  0  0
  -28.4112  -22.0984   27.0371 C   0  0  0  0  0  0  0  0  0  0  0  0
  -21.5446   -5.0287   24.6826 C   0  0  0  0  0  0  0  0  0  0  0  0
  -23.9162  -10.4201   20.9500 C   0  0  0  0  0  0  0  0  0  0  0  0
  -24.1392  -12.9571   20.8034 C   0  0  0  0  0  0  0  0  0  0  0  0
  -26.8469  -30.7495   24.6248 C   0  0  0  0  0  0  0  0  0  0  0  0
  -26.9865  -23.4830   25.6539 C   0  0  0  0  0  0  0  0  0  0  0  0
  -27.4522  -29.4791   24.6692 C   0  0  0  0  0  0  0  0  0  0  0  0
  -27.4298  -23.0953   26.9264 C   0  0  0  0  0  0  0  0  0  0  0  0
  -22.5003   -8.0467   21.3305 C   0  0  0  0  0  0  0  0  0  0  0  0
  -28.9351  -21.4868   25.8984 C   0  0  0  0  0  0  0  0  0  0  0  0
  -21.4507   -6.5543   22.8117 C   0  0  0  0  0  0  0  0  0  0  0  0
  -20.7275   -5.8844   25.4214 C   0  0  0  0  0  0  0  0  0  0  0  0
  -21.9062   -5.3637   23.3778 C   0  0  0  0  0  0  0  0  0  0  0  0
  -24.6482  -11.6455   20.7536 C   0  0  0  0  0  0  0  0  0  0  0  0
  -25.2270  -13.7573   20.5527 C   0  0  0  0  0  0  0  0  0  0  0  0
  -22.8026  -13.4114   21.0541 C   0  0  0  0  0  0  0  0  0  0  0  0
  -26.9501  -26.4667   26.7492 C   0  0  0  0  0  0  0  0  0  0  0  0
  -25.0155  -25.1953   29.0215 C   0  0  0  0  0  0  0  0  0  0  0  0
  -24.0064  -22.4327   30.7525 C   0  0  0  0  0  0  0  0  0  0  0  0
  -31.1181  -12.9772   21.2855 C   0  0  0  0  0  0  0  0  0  0  0  0
  -26.4186  -31.4686   25.8794 C   0  0  0  0  0  0  0  0  0  0  0  0
  -25.9181  -24.5313   25.5062 C   0  0  0  0  0  0  0  0  0  0  0  0
  -26.8867  -23.7262   28.1816 C   0  0  0  0  0  0  0  0  0  0  0  0
  -26.2922  -30.5521   27.0937 C   0  0  0  0  0  0  0  0  0  0  0  0
  -29.4230  -13.7600   18.2539 C   0  0  0  0  0  0  0  0  0  0  0  0
  -27.5094  -29.6391   27.2024 C   0  0  0  0  0  0  0  0  0  0  0  0
  -27.9611  -13.4252   18.5553 C   0  0  0  0  0  0  0  0  0  0  0  0
  -30.5666  -18.8575   24.4104 C   0  0  0  0  0  0  0  0  0  0  0  0
  -29.6027  -18.2236   26.6469 C   0  0  0  0  0  0  0  0  0  0  0  0
  -30.3777  -12.7784   18.9299 C   0  0  0  0  0  0  0  0  0  0  0  0
  -28.7179  -12.2884   20.6846 C   0  0  0  0  0  0  0  0  0  0  0  0
  -30.3577  -17.4334   23.9198 C   0  0  0  0  0  0  0  0  0  0  0  0
  -29.3953  -16.8010   26.1517 C   0  0  0  0  0  0  0  0  0  0  0  0
  -27.6293  -28.7309   25.9727 C   0  0  1  0  0  0  0  0  0  0  0  0
  -25.8290  -25.4671   26.7077 C   0  0  1  0  0  0  0  0  0  0  0  0
  -27.7190  -13.2839   20.0701 C   0  0  2  0  0  0  0  0  0  0  0  0
  -29.5698  -19.2327   25.5035 C   0  0  0  0  0  0  0  0  0  1  0  0
  -22.4356  -21.7134   32.5726 C   0  0  0  0  0  0  0  0  0  0  0  0
  -26.8921  -26.3901   31.1098 C   0  0  0  0  0  0  0  0  0  0  0  0
  -25.8480  -24.8789   32.8111 C   0  0  0  0  0  0  0  0  0  0  0  0
  -24.4596  -26.5974   31.6527 C   0  0  0  0  0  0  0  0  0  0  0  0
  -22.5447  -20.6140   28.9318 C   0  0  0  0  0  0  0  0  0  0  0  0
  -31.6970  -14.6105   24.1174 C   0  0  0  0  0  0  0  0  0  0  0  0
  -31.7057  -13.1466   23.6907 C   0  0  0  0  0  0  0  0  0  0  0  0
  -30.3383  -15.0489   24.6486 C   0  0  0  0  0  0  0  0  0  0  0  0
  -25.2294  -24.5574   30.3729 C   0  0  1  0  0  0  0  0  0  0  0  0
  -22.6237  -21.8952   31.0745 C   0  0  2  0  0  0  0  0  0  0  0  0
  -25.6191  -25.5952   31.4631 C   0  0  0  0  0  0  0  0  0  0  0  0
  -25.9574  -11.6101   20.4916 N   0  0  0  0  0  0  0  0  0  0  0  0
  -26.2803  -12.9094   20.3745 N   0  0  0  0  0  0  0  0  0  0  0  0
  -25.8481  -24.7508   27.9847 N   0  0  0  0  0  0  0  0  0  0  0  0
  -30.0962  -12.6920   20.3649 N   0  0  0  0  0  0  0  0  0  0  0  0
  -25.3756  -15.0964   20.4694 N   0  0  0  0  0  0  0  0  0  0  0  0
  -21.8057  -12.4556   21.2929 N   0  0  0  0  0  0  0  0  0  0  0  0
  -26.6879  -27.6352   26.0598 N   0  0  0  0  0  0  0  0  0  0  0  0
  -24.0124  -23.8090   30.6683 N   0  0  0  0  0  0  0  0  0  0  0  0
  -30.7653  -12.8777   22.6258 N   0  0  0  0  0  0  0  0  0  0  0  0
  -30.4243  -16.4834   25.0923 N   0  3  0  0  0  0  0  0  0  0  0  0
  -22.4127  -20.5775   30.4111 N   0  3  0  0  0  0  0  0  0  0  0  0
  -22.4980  -14.6283   21.0497 O   0  0  0  0  0  0  0  0  0  0  0  0
  -27.9764  -26.1983   27.3627 O   0  0  0  0  0  0  0  0  0  0  0  0
  -24.1371  -26.0511   28.8890 O   0  0  0  0  0  0  0  0  0  0  0  0
  -24.9841  -21.7047   30.5954 O   0  0  0  0  0  0  0  0  0  0  0  0
  -32.2588  -13.3020   20.9387 O   0  0  0  0  0  0  0  0  0  0  0  0
  -21.8096   -6.8887   21.5166 O   0  0  0  0  0  0  0  0  0  0  0  0
  -29.8853  -20.5203   26.0208 O   0  0  0  0  0  0  0  0  0  1  0  0
  -20.3813   -5.5636   26.6749 F   0  0  0  0  0  0  0  0  0  0  0  0
  -22.6924   -4.5381   22.6733 F   0  0  0  0  0  0  0  0  0  0  0  0
  1  2  1  0  0  0  0
  1  5  2  0  0  0  0
  2  6  2  0  0  0  0
  3  8  2  0  0  0  0
  3 15  1  0  0  0  0
  4  9  1  0  0  0  0
  4 15  2  0  0  0  0
  5 17  1  0  0  0  0
  6 19  1  0  0  0  0
  7 10  2  0  0  0  0
  7 18  1  0  0  0  0
  8 21  1  0  0  0  0
  9 21  2  0  0  0  0
 10 22  1  0  0  0  0
 11 12  2  0  0  0  0
 11 23  1  0  0  0  0
 12 24  1  0  0  0  0
 13 20  1  0  0  0  0
 13 22  2  0  0  0  0
 14 24  2  0  0  0  0
 14 25  1  0  0  0  0
 15 26  1  0  0  0  0
 16 26  1  0  0  0  0
 16 27  2  0  0  0  0
 16 28  1  0  0  0  0
 17 19  2  0  0  0  0
 17 33  1  0  0  0  0
 18 20  2  0  0  0  0
 18 34  1  0  0  0  0
 19 46  1  0  0  0  0
 20 35  1  0  0  0  0
 21 77  1  0  0  0  0
 22 78  1  0  0  0  0
 23 25  2  0  0  0  0
 23 77  1  0  0  0  0
 24 79  1  0  0  0  0
 25 80  1  0  0  0  0
 26 61  2  0  0  0  0
 27 62  1  0  0  0  0
 27 65  1  0  0  0  0
 28 66  1  0  0  0  0
 28 72  2  0  0  0  0
 29 47  1  0  0  0  0
 29 67  1  0  0  0  0
 29 73  2  0  0  0  0
 30 58  1  0  0  0  0
 30 63  1  0  0  0  0
 30 74  2  0  0  0  0
 31 59  1  0  0  0  0
 31 68  1  0  0  0  0
 31 75  2  0  0  0  0
 32 64  1  0  0  0  0
 32 69  1  0  0  0  0
 32 76  2  0  0  0  0
 33 36  1  0  0  0  0
 34 47  1  0  0  0  0
 35 63  1  0  0  0  0
 36 38  1  0  0  0  0
 37 39  1  0  0  0  0
 37 42  1  0  0  0  0
 38 46  1  0  0  0  0
 39 48  1  0  0  0  0
 40 44  1  0  0  0  0
 40 49  1  0  0  0  0
 41 45  1  0  0  0  0
 41 49  1  0  0  0  0
 42 64  1  0  0  0  0
 43 48  1  0  0  0  0
 43 64  1  0  0  0  0
 44 70  1  0  0  0  0
 45 70  1  0  0  0  0
 46 67  1  0  0  0  0
 47 63  1  0  0  0  0
 48 62  1  0  0  0  0
 49 78  1  0  0  0  0
 50 59  1  0  0  0  0
 51 60  1  0  0  0  0
 52 60  1  0  0  0  0
 53 60  1  0  0  0  0
 54 71  1  0  0  0  0
 55 56  1  0  0  0  0
 55 57  1  0  0  0  0
 56 69  1  0  0  0  0
 57 70  1  0  0  0  0
 58 60  1  0  0  0  0
 58 68  1  0  0  0  0
 59 71  1  0  0  0  0
 61 62  1  0  0  0  0
M  CHG  2  70   1  71   1
M  ISO  4  32 100  49 101  69 100  78 101
M  END
> <Batch ID>
0128

> <Smiles>
CNC(C)C(=O)NC(C(=O)N1Cc2cc([101O:1][101CH:1]3CCN(CCC[100NH:0][100C:0](=O)N4CCCC(n5nc(-c6ccc(Oc7ccc(F)cc7F)cc6)c(C(N)=O)c5N)C4)CC3)ccc2CC1C(=O)NC1CCCc2ccccc21)C(C)(C)C

> <Shape>
0.208

> <Color>
0.177

> <Negative vol penalty>
0.000

$$$$

  -OEChem-04052320423D

 82 90  0     1  0  0  0  0  0999 V2000
  -21.6787  -12.9938   19.0638 C   0  0  0  0  0  0  0  0  0  0  0  0
  -21.6928  -14.3035   19.5327 C   0  0  0  0  0  0  0  0  0  0  0  0
  -29.8244  -27.7643   20.7933 C   0  0  0  0  0  0  0  0  0  0  0  0
  -28.5836  -25.8798   21.6571 C   0  0  0  0  0  0  0  0  0  0  0  0
  -22.7842  -12.1693   19.2687 C   0  0  0  0  0  0  0  0  0  0  0  0
  -22.8121  -14.7892   20.2077 C   0  0  0  0  0  0  0  0  0  0  0  0
  -24.1581  -19.4186   18.6579 C   0  0  0  0  0  0  0  0  0  0  0  0
  -30.9653  -27.3193   21.4610 C   0  0  0  0  0  0  0  0  0  0  0  0
  -29.7245  -25.4347   22.3248 C   0  0  0  0  0  0  0  0  0  0  0  0
  -23.4110  -20.4932   19.1384 C   0  0  0  0  0  0  0  0  0  0  0  0
  -20.4948  -23.8269   23.8727 C   0  0  0  0  0  0  0  0  0  0  0  0
  -31.4107  -26.1950   25.1550 C   0  0  0  0  0  0  0  0  0  0  0  0
  -20.2976  -24.6501   24.9813 C   0  0  0  0  0  0  0  0  0  0  0  0
  -31.2661  -25.7786   26.4783 C   0  0  0  0  0  0  0  0  0  0  0  0
  -25.1250  -20.9456   20.7745 C   0  0  0  0  0  0  0  0  0  0  0  0
  -20.6077  -25.7740   22.4469 C   0  0  0  0  0  0  0  0  0  0  0  0
  -32.0699  -23.5816   25.8749 C   0  0  0  0  0  0  0  0  0  0  0  0
  -28.6335  -27.0447   20.8914 C   0  0  0  0  0  0  0  0  0  0  0  0
  -27.0496  -27.1717   18.8958 C   0  0  0  0  0  0  0  0  0  0  0  0
  -23.9215  -12.6482   19.9381 C   0  0  0  0  0  0  0  0  0  0  0  0
  -25.3913  -19.0922   19.2402 C   0  0  0  0  0  0  0  0  0  0  0  0
  -23.9333  -13.9700   20.4229 C   0  0  0  0  0  0  0  0  0  0  0  0
  -25.8870  -19.8679   20.2979 C   0  0  0  0  0  0  0  0  0  0  0  0
  -20.4104  -26.5973   23.5555 C   0  0  0  0  0  0  0  0  0  0  0  0
  -30.9154  -26.1544   22.2268 C   0  0  0  0  0  0  0  0  0  0  0  0
  -23.8931  -21.2551   20.1987 C   0  0  0  0  0  0  0  0  0  0  0  0
  -20.6499  -24.3888   22.6055 C   0  0  0  0  0  0  0  0  0  0  0  0
  -31.8848  -25.3046   24.1915 C   0  0  0  0  0  0  0  0  0  0  0  0
  -31.5957  -24.4720   26.8383 C   0  0  0  0  0  0  0  0  0  0  0  0
  -20.2553  -26.0353   24.8227 C   0  0  0  0  0  0  0  0  0  0  0  0
  -32.2144  -23.9979   24.5515 C   0  0  0  0  0  0  0  0  0  0  0  0
  -27.4545  -27.5042   20.2024 C   0  0  0  0  0  0  0  0  0  0  0  0
  -25.8753  -27.8606   18.7144 C   0  0  0  0  0  0  0  0  0  0  0  0
  -27.6786  -26.3164   17.9322 C   0  0  0  0  0  0  0  0  0  0  0  0
  -26.5502  -16.5560   20.7661 C   0  0  0  0  0  0  0  0  0  0  0  0
  -29.3265  -18.2279   20.6277 C   0  0  0  0  0  0  0  0  0  0  0  0
  -30.8734  -21.2575   20.3531 C   0  0  0  0  0  0  0  0  0  0  0  0
  -21.7448  -29.9492   22.5129 C   0  0  0  0  0  0  0  0  0  0  0  0
  -25.0738  -11.7050   20.1773 C   0  0  0  0  0  0  0  0  0  0  0  0
  -26.1975  -17.9464   18.6929 C   0  0  0  0  0  0  0  0  0  0  0  0
  -27.2146  -19.5714   20.9444 C   0  0  0  0  0  0  0  0  0  0  0  0
  -26.3676  -12.4121   20.5729 C   0  0  0  0  0  0  0  0  0  0  0  0
  -23.6048  -31.8277   20.1278 C   0  0  0  0  0  0  0  0  0  0  0  0
  -26.0965  -13.4582   21.6495 C   0  0  0  0  0  0  0  0  0  0  0  0
  -24.7658  -30.9027   19.7586 C   0  0  0  0  0  0  0  0  0  0  0  0
  -23.2349  -31.7073   21.6046 C   0  0  0  0  0  0  0  0  0  0  0  0
  -24.1184  -29.4084   21.6942 C   0  0  0  0  0  0  0  0  0  0  0  0
  -25.1387  -14.5410   21.1380 C   0  0  1  0  0  0  0  0  0  0  0  0
  -27.2008  -17.3880   19.6974 C   0  0  1  0  0  0  0  0  0  0  0  0
  -24.4909  -29.4533   20.2024 C   0  0  2  0  0  0  0  0  0  0  0  0
  -33.1513  -22.3094   20.3091 C   0  0  0  0  0  0  0  0  0  0  0  0
  -29.5488  -17.8669   23.6493 C   0  0  0  0  0  0  0  0  0  0  0  0
  -31.2633  -19.6913   23.6710 C   0  0  0  0  0  0  0  0  0  0  0  0
  -31.6996  -17.5872   22.4042 C   0  0  0  0  0  0  0  0  0  0  0  0
  -30.4528  -22.3301   17.6270 C   0  0  0  0  0  0  0  0  0  0  0  0
  -20.3664  -28.0780   23.3835 C   0  0  0  0  0  0  0  0  0  0  0  0
  -22.3296  -22.9865   19.7364 C   0  0  0  0  0  0  0  0  0  1  0  0
  -21.6127  -24.1176   20.4479 C   0  0  0  0  0  0  0  0  0  0  0  0
  -30.0088  -19.2423   21.5133 C   0  0  1  0  0  0  0  0  0  0  0  0
  -32.0200  -21.7272   19.4761 C   0  0  2  0  0  0  0  0  0  0  0  0
  -30.6042  -18.6016   22.7988 C   0  0  0  0  0  0  0  0  0  0  0  0
  -26.6064  -28.3396   20.8081 N   0  0  0  0  0  0  0  0  0  0  0  0
  -25.6569  -28.5378   19.8780 N   0  0  0  0  0  0  0  0  0  0  0  0
  -27.9628  -18.4371   20.3778 N   0  0  0  0  0  0  0  0  0  0  0  0
  -22.9853  -30.3084   21.9604 N   0  0  0  0  0  0  0  0  0  0  0  0
  -25.0186  -27.9472   17.6747 N   0  0  0  0  0  0  0  0  0  0  0  0
  -28.8807  -25.6863   18.2820 N   0  0  0  0  0  0  0  0  0  0  0  0
  -25.8406  -15.4734   20.2822 N   0  0  0  0  0  0  0  0  0  0  0  0
  -30.9904  -19.9217   20.6746 N   0  0  0  0  0  0  0  0  0  0  0  0
  -21.5885  -28.6021   22.8155 N   0  0  0  0  0  0  0  0  0  0  0  0
  -31.5497  -22.7739   18.5252 N   0  3  0  0  0  0  0  0  0  0  0  0
  -27.1978  -26.1298   16.7887 O   0  0  0  0  0  0  0  0  0  0  0  0
  -26.6834  -16.8718   21.9426 O   0  0  0  0  0  0  0  0  0  0  0  0
  -29.9810  -17.2885   20.1686 O   0  0  0  0  0  0  0  0  0  0  0  0
  -29.9668  -22.0020   20.7195 O   0  0  0  0  0  0  0  0  0  0  0  0
  -20.8415  -30.7674   22.7162 O   0  0  0  0  0  0  0  0  0  0  0  0
  -32.0285  -25.7197   22.8782 O   0  0  0  0  0  0  0  0  0  0  0  0
  -23.1655  -22.3041   20.6701 O   0  0  0  0  0  0  0  0  0  1  0  0
  -20.8427  -23.5803   21.5164 O   0  0  0  0  0  0  0  0  0  0  0  0
  -31.4583  -24.0727   28.1095 F   0  0  0  0  0  0  0  0  0  0  0  0
  -20.0652  -26.8186   25.8937 F   0  0  0  0  0  0  0  0  0  0  0  0
  -32.6715  -23.1384   23.6306 F   0  0  0  0  0  0  0  0  0  0  0  0
  1  2  1  0  0  0  0
  1  5  2  0  0  0  0
  2  6  2  0  0  0  0
  3  8  2  0  0  0  0
  3 18  1  0  0  0  0
  4  9  1  0  0  0  0
  4 18  2  0  0  0  0
  5 20  1  0  0  0  0
  6 22  1  0  0  0  0
  7 10  2  0  0  0  0
  7 21  1  0  0  0  0
  8 25  1  0  0  0  0
  9 25  2  0  0  0  0
 10 26  1  0  0  0  0
 11 13  2  0  0  0  0
 11 27  1  0  0  0  0
 12 14  2  0  0  0  0
 12 28  1  0  0  0  0
 13 30  1  0  0  0  0
 14 29  1  0  0  0  0
 15 23  1  0  0  0  0
 15 26  2  0  0  0  0
 16 24  1  0  0  0  0
 16 27  2  0  0  0  0
 17 29  2  0  0  0  0
 17 31  1  0  0  0  0
 18 32  1  0  0  0  0
 19 32  1  0  0  0  0
 19 33  2  0  0  0  0
 19 34  1  0  0  0  0
 20 22  2  0  0  0  0
 20 39  1  0  0  0  0
 21 23  2  0  0  0  0
 21 40  1  0  0  0  0
 22 48  1  0  0  0  0
 23 41  1  0  0  0  0
 24 30  2  0  0  0  0
 24 56  1  0  0  0  0
 25 77  1  0  0  0  0
 26 78  1  0  0  0  0
 27 79  1  0  0  0  0
 28 31  2  0  0  0  0
 28 77  1  0  0  0  0
 29 80  1  0  0  0  0
 30 81  1  0  0  0  0
 31 82  1  0  0  0  0
 32 62  2  0  0  0  0
 33 63  1  0  0  0  0
 33 66  1  0  0  0  0
 34 67  1  0  0  0  0
 34 72  2  0  0  0  0
 35 49  1  0  0  0  0
 35 68  1  0  0  0  0
 35 73  2  0  0  0  0
 36 59  1  0  0  0  0
 36 64  1  0  0  0  0
 36 74  2  0  0  0  0
 37 60  1  0  0  0  0
 37 69  1  0  0  0  0
 37 75  2  0  0  0  0
 38 65  1  0  0  0  0
 38 70  1  0  0  0  0
 38 76  2  0  0  0  0
 39 42  1  0  0  0  0
 40 49  1  0  0  0  0
 41 64  1  0  0  0  0
 42 44  1  0  0  0  0
 43 45  1  0  0  0  0
 43 46  1  0  0  0  0
 44 48  1  0  0  0  0
 45 50  1  0  0  0  0
 46 65  1  0  0  0  0
 47 50  1  0  0  0  0
 47 65  1  0  0  0  0
 48 68  1  0  0  0  0
 49 64  1  0  0  0  0
 50 63  1  0  0  0  0
 51 60  1  0  0  0  0
 52 61  1  0  0  0  0
 53 61  1  0  0  0  0
 54 61  1  0  0  0  0
 55 71  1  0  0  0  0
 56 70  1  0  0  0  0
 57 58  1  0  0  0  0
 57 78  1  0  0  0  0
 58 79  1  0  0  0  0
 59 61  1  0  0  0  0
 59 69  1  0  0  0  0
 60 71  1  0  0  0  0
 62 63  1  0  0  0  0
M  CHG  1  71   1
M  ISO  4  38 100  57 101  70 100  78 101
M  END
> <Batch ID>
0128

> <Smiles>
CNC(C)C(=O)NC(C(=O)N1Cc2cc([101O:1][101CH2:1]COc3ccc(F)c(C[100NH:0][100C:0](=O)N4CCCC(n5nc(-c6ccc(Oc7ccc(F)cc7F)cc6)c(C(N)=O)c5N)C4)c3)ccc2CC1C(=O)NC1CCCc2ccccc21)C(C)(C)C

> <Shape>
0.209

> <Color>
0.072

> <Negative vol penalty>
0.000

$$$$

  -OEChem-04052320423D

 79 87  0     1  0  0  0  0  0999 V2000
  -29.0141  -37.2255   24.1426 C   0  0  0  0  0  0  0  0  0  0  0  0
  -29.3526  -35.9866   24.6774 C   0  0  0  0  0  0  0  0  0  0  0  0
  -22.2750  -12.2670   21.6560 C   0  0  0  0  0  0  0  0  0  0  0  0
  -23.8384  -11.6865   23.4041 C   0  0  0  0  0  0  0  0  0  0  0  0
  -27.6777  -37.5334   23.8913 C   0  0  0  0  0  0  0  0  0  0  0  0
  -28.3547  -35.0552   24.9622 C   0  0  0  0  0  0  0  0  0  0  0  0
  -28.3847  -28.5349   21.9001 C   0  0  0  0  0  0  0  0  0  0  0  0
  -21.2131  -12.0532   22.5347 C   0  0  0  0  0  0  0  0  0  0  0  0
  -22.7764  -11.4727   24.2829 C   0  0  0  0  0  0  0  0  0  0  0  0
  -28.4367  -27.1943   21.5178 C   0  0  0  0  0  0  0  0  0  0  0  0
  -20.4996   -9.0497   24.8964 C   0  0  0  0  0  0  0  0  0  0  0  0
  -20.5352   -7.9025   25.6889 C   0  0  0  0  0  0  0  0  0  0  0  0
  -26.3462  -26.7766   22.6594 C   0  0  0  0  0  0  0  0  0  0  0  0
  -20.4990   -9.2748   27.6770 C   0  0  0  0  0  0  0  0  0  0  0  0
  -23.5877  -12.0836   22.0907 C   0  0  0  0  0  0  0  0  0  0  0  0
  -24.9302  -11.6369   19.9680 C   0  0  0  0  0  0  0  0  0  0  0  0
  -26.6638  -36.6017   24.1642 C   0  0  0  0  0  0  0  0  0  0  0  0
  -27.3041  -29.0055   22.6513 C   0  0  0  0  0  0  0  0  0  0  0  0
  -27.0034  -35.3514   24.7155 C   0  0  0  0  0  0  0  0  0  0  0  0
  -26.2824  -28.1212   23.0346 C   0  0  0  0  0  0  0  0  0  0  0  0
  -21.4637  -11.6561   23.8481 C   0  0  0  0  0  0  0  0  0  0  0  0
  -27.4201  -26.3173   21.8968 C   0  0  0  0  0  0  0  0  0  0  0  0
  -20.4638  -10.3095   25.4941 C   0  0  0  0  0  0  0  0  0  0  0  0
  -20.5349   -8.0150   27.0792 C   0  0  0  0  0  0  0  0  0  0  0  0
  -20.4635  -10.4220   26.8844 C   0  0  0  0  0  0  0  0  0  0  0  0
  -24.6851  -12.3038   21.1833 C   0  0  0  0  0  0  0  0  0  0  0  0
  -26.0852  -12.2066   19.4906 C   0  0  0  0  0  0  0  0  0  0  0  0
  -24.1808  -10.5956   19.3279 C   0  0  0  0  0  0  0  0  0  0  0  0
  -28.6170  -17.5679   20.4694 C   0  0  0  0  0  0  0  0  0  0  0  0
  -25.6640  -31.9286   24.3369 C   0  0  0  0  0  0  0  0  0  0  0  0
  -23.4333  -30.3105   22.9892 C   0  0  0  0  0  0  0  0  0  0  0  0
  -20.5823  -29.2655   21.4347 C   0  0  0  0  0  0  0  0  0  0  0  0
  -25.2291  -36.9976   23.9198 C   0  0  0  0  0  0  0  0  0  0  0  0
  -27.2374  -30.4278   23.1375 C   0  0  0  0  0  0  0  0  0  0  0  0
  -25.1568  -28.6641   23.8721 C   0  0  0  0  0  0  0  0  0  0  0  0
  -24.2655  -35.8139   23.9001 C   0  0  0  0  0  0  0  0  0  0  0  0
  -30.0993  -14.3420   20.9551 C   0  0  0  0  0  0  0  0  0  0  0  0
  -24.5343  -34.8869   25.0814 C   0  0  0  0  0  0  0  0  0  0  0  0
  -27.6522  -19.0464   18.7009 C   0  0  0  0  0  0  0  0  0  0  0  0
  -26.4804  -18.7444   20.9472 C   0  0  0  0  0  0  0  0  0  0  0  0
  -28.8992  -13.3965   20.9868 C   0  0  0  0  0  0  0  0  0  0  0  0
  -28.1315  -20.4284   19.1494 C   0  0  0  0  0  0  0  0  0  0  0  0
  -26.9856  -20.1215   21.3804 C   0  0  0  0  0  0  0  0  0  0  0  0
  -29.7667  -15.6880   21.5912 C   0  0  0  0  0  0  0  0  0  0  0  0
  -27.3729  -15.4199   21.0258 C   0  0  0  0  0  0  0  0  0  0  0  0
  -25.9516  -34.3053   25.0148 C   0  0  1  0  0  0  0  0  0  0  0  0
  -27.3497  -18.0993   19.8649 C   0  0  0  0  0  0  0  0  0  0  0  0
  -25.8031  -30.9848   23.1787 C   0  0  1  0  0  0  0  0  0  0  0  0
  -27.6570  -14.0592   20.3654 C   0  0  2  0  0  0  0  0  0  0  0  0
  -27.1790  -21.0347   20.1744 C   0  0  0  0  0  0  0  0  0  0  0  0
  -18.0835  -29.3179   21.6598 C   0  0  0  0  0  0  0  0  0  0  0  0
  -23.5879  -28.1753   25.1621 C   0  0  0  0  0  0  0  0  0  0  0  0
  -21.2010  -27.6023   24.6696 C   0  0  0  0  0  0  0  0  0  0  0  0
  -21.7893  -29.8798   25.5000 C   0  0  0  0  0  0  0  0  0  0  0  0
  -20.2666  -30.7236   18.8787 C   0  0  0  0  0  0  0  0  0  0  0  0
  -27.5523  -23.4548   19.6845 C   0  0  0  0  0  0  0  0  0  0  0  0
  -28.1317  -24.7214   20.2830 C   0  0  0  0  0  0  0  0  0  1  0  0
  -22.3913  -29.2301   23.1319 C   0  0  1  0  0  0  0  0  0  0  0  0
  -19.3064  -30.0020   21.0687 C   0  0  2  0  0  0  0  0  0  0  0  0
  -22.2620  -28.7210   24.5953 C   0  0  0  0  0  0  0  0  0  0  0  0
  -25.6101  -13.2265   21.4608 N   0  0  0  0  0  0  0  0  0  0  0  0
  -26.4478  -13.1433   20.4132 N   0  0  0  0  0  0  0  0  0  0  0  0
  -28.5680  -16.2742   20.9890 N   0  0  0  0  0  0  0  0  0  0  0  0
  -24.7417  -29.9806   23.3631 N   0  0  0  0  0  0  0  0  0  0  0  0
  -26.8159  -11.9925   18.3759 N   0  0  0  0  0  0  0  0  0  0  0  0
  -24.4966   -9.2636   19.6283 N   0  0  0  0  0  0  0  0  0  0  0  0
  -26.0129  -33.2333   24.0444 N   0  0  0  0  0  0  0  0  0  0  0  0
  -21.1574  -29.7775   22.5785 N   0  0  0  0  0  0  0  0  0  0  0  0
  -27.7364  -22.3329   20.6393 N   0  3  0  0  0  0  0  0  0  0  0  0
  -19.1455  -30.0551   19.5881 N   0  3  0  0  0  0  0  0  0  0  0  0
  -23.2693  -10.8390   18.5011 O   0  0  0  0  0  0  0  0  0  0  0  0
  -29.6246  -18.2798   20.4780 O   0  0  0  0  0  0  0  0  0  0  0  0
  -25.2678  -31.5058   25.4166 O   0  0  0  0  0  0  0  0  0  0  0  0
  -23.0981  -31.4193   22.5635 O   0  0  0  0  0  0  0  0  0  0  0  0
  -21.0226  -28.3271   20.7742 O   0  0  0  0  0  0  0  0  0  0  0  0
  -20.4277  -11.4475   24.7059 O   0  0  0  0  0  0  0  0  0  0  0  0
  -27.4749  -25.0107   21.5164 O   0  0  0  0  0  0  0  0  0  1  0  0
  -20.5675   -6.9131   27.8402 F   0  0  0  0  0  0  0  0  0  0  0  0
  -20.4279  -11.6296   27.4645 F   0  0  0  0  0  0  0  0  0  0  0  0
  1  2  1  0  0  0  0
  1  5  2  0  0  0  0
  2  6  2  0  0  0  0
  3  8  2  0  0  0  0
  3 15  1  0  0  0  0
  4  9  1  0  0  0  0
  4 15  2  0  0  0  0
  5 17  1  0  0  0  0
  6 19  1  0  0  0  0
  7 10  2  0  0  0  0
  7 18  1  0  0  0  0
  8 21  1  0  0  0  0
  9 21  2  0  0  0  0
 10 22  1  0  0  0  0
 11 12  2  0  0  0  0
 11 23  1  0  0  0  0
 12 24  1  0  0  0  0
 13 20  1  0  0  0  0
 13 22  2  0  0  0  0
 14 24  2  0  0  0  0
 14 25  1  0  0  0  0
 15 26  1  0  0  0  0
 16 26  1  0  0  0  0
 16 27  2  0  0  0  0
 16 28  1  0  0  0  0
 17 19  2  0  0  0  0
 17 33  1  0  0  0  0
 18 20  2  0  0  0  0
 18 34  1  0  0  0  0
 19 46  1  0  0  0  0
 20 35  1  0  0  0  0
 21 76  1  0  0  0  0
 22 77  1  0  0  0  0
 23 25  2  0  0  0  0
 23 76  1  0  0  0  0
 24 78  1  0  0  0  0
 25 79  1  0  0  0  0
 26 61  2  0  0  0  0
 27 62  1  0  0  0  0
 27 65  1  0  0  0  0
 28 66  1  0  0  0  0
 28 71  2  0  0  0  0
 29 47  1  0  0  0  0
 29 63  1  0  0  0  0
 29 72  2  0  0  0  0
 30 48  1  0  0  0  0
 30 67  1  0  0  0  0
 30 73  2  0  0  0  0
 31 58  1  0  0  0  0
 31 64  1  0  0  0  0
 31 74  2  0  0  0  0
 32 59  1  0  0  0  0
 32 68  1  0  0  0  0
 32 75  2  0  0  0  0
 33 36  1  0  0  0  0
 34 48  1  0  0  0  0
 35 64  1  0  0  0  0
 36 38  1  0  0  0  0
 37 41  1  0  0  0  0
 37 44  1  0  0  0  0
 38 46  1  0  0  0  0
 39 42  1  0  0  0  0
 39 47  1  0  0  0  0
 40 43  1  0  0  0  0
 40 47  1  0  0  0  0
 41 49  1  0  0  0  0
 42 50  1  0  0  0  0
 43 50  1  0  0  0  0
 44 63  1  0  0  0  0
 45 49  1  0  0  0  0
 45 63  1  0  0  0  0
 46 67  1  0  0  0  0
 48 64  1  0  0  0  0
 49 62  1  0  0  0  0
 50 69  1  0  0  0  0
 51 59  1  0  0  0  0
 52 60  1  0  0  0  0
 53 60  1  0  0  0  0
 54 60  1  0  0  0  0
 55 70  1  0  0  0  0
 56 57  1  0  0  0  0
 56 69  1  0  0  0  0
 57 77  1  0  0  0  0
 58 60  1  0  0  0  0
 58 68  1  0  0  0  0
 59 70  1  0  0  0  0
 61 62  1  0  0  0  0
M  CHG  2  69   1  70   1
M  ISO  4  29 100  47 100  57 101  77 101
M  END
> <Batch ID>
0128

> <Smiles>
CNC(C)C(=O)NC(C(=O)N1Cc2cc([101O:1][101CH2:1]CNC3CC[100CH:0]([100C:0](=O)N4CCCC(n5nc(-c6ccc(Oc7ccc(F)cc7F)cc6)c(C(N)=O)c5N)C4)CC3)ccc2CC1C(=O)NC1CCCc2ccccc21)C(C)(C)C

> <Shape>
0.263

> <Color>
0.050

> <Negative vol penalty>
0.000

$$$$

  -OEChem-04052320423D

 82 90  0     1  0  0  0  0  0999 V2000
  -32.2863  -21.7237   22.3400 C   0  0  0  0  0  0  0  0  0  0  0  0
  -31.1143  -22.1578   22.9510 C   0  0  0  0  0  0  0  0  0  0  0  0
  -29.8275  -27.6994   20.2072 C   0  0  0  0  0  0  0  0  0  0  0  0
  -28.7228  -26.3480   21.8777 C   0  0  0  0  0  0  0  0  0  0  0  0
  -32.2250  -21.0183   21.1389 C   0  0  0  0  0  0  0  0  0  0  0  0
  -29.8802  -21.8876   22.3606 C   0  0  0  0  0  0  0  0  0  0  0  0
  -23.0656  -20.4807   24.0631 C   0  0  0  0  0  0  0  0  0  0  0  0
  -19.1345  -27.2321   23.5484 C   0  0  0  0  0  0  0  0  0  0  0  0
  -19.4897  -28.0188   21.2918 C   0  0  0  0  0  0  0  0  0  0  0  0
  -18.6299  -26.0309   23.0502 C   0  0  0  0  0  0  0  0  0  0  0  0
  -18.9851  -26.8176   20.7936 C   0  0  0  0  0  0  0  0  0  0  0  0
  -31.0674  -27.2649   20.6757 C   0  0  0  0  0  0  0  0  0  0  0  0
  -29.9627  -25.9135   22.3461 C   0  0  0  0  0  0  0  0  0  0  0  0
  -21.7725  -20.9188   23.7809 C   0  0  0  0  0  0  0  0  0  0  0  0
  -33.0152  -24.5161   20.3879 C   0  0  0  0  0  0  0  0  0  0  0  0
  -33.9660  -24.1298   19.4433 C   0  0  0  0  0  0  0  0  0  0  0  0
  -21.7841  -19.6232   21.7460 C   0  0  0  0  0  0  0  0  0  0  0  0
  -35.4654  -25.8429   20.2520 C   0  0  0  0  0  0  0  0  0  0  0  0
  -28.6552  -27.2409   20.8082 C   0  0  0  0  0  0  0  0  0  0  0  0
  -26.5871  -27.0929   19.3221 C   0  0  0  0  0  0  0  0  0  0  0  0
  -30.9890  -20.7310   20.5385 C   0  0  0  0  0  0  0  0  0  0  0  0
  -23.7330  -19.6178   23.1819 C   0  0  0  0  0  0  0  0  0  0  0  0
  -29.8024  -21.1789   21.1497 C   0  0  0  0  0  0  0  0  0  0  0  0
  -23.0847  -19.1736   22.0206 C   0  0  0  0  0  0  0  0  0  0  0  0
  -19.5644  -28.2260   22.6692 C   0  0  0  0  0  0  0  0  0  0  0  0
  -18.5552  -25.8237   21.6729 C   0  0  0  0  0  0  0  0  0  0  0  0
  -31.1350  -26.3720   21.7451 C   0  0  0  0  0  0  0  0  0  0  0  0
  -21.1326  -20.4924   22.6208 C   0  0  0  0  0  0  0  0  0  0  0  0
  -33.2894  -25.5658   21.2646 C   0  0  0  0  0  0  0  0  0  0  0  0
  -35.1911  -24.7932   19.3753 C   0  0  0  0  0  0  0  0  0  0  0  0
  -34.5146  -26.2292   21.1966 C   0  0  0  0  0  0  0  0  0  0  0  0
  -27.3741  -27.6898   20.3251 C   0  0  0  0  0  0  0  0  0  0  0  0
  -25.4748  -27.8942   19.2360 C   0  0  0  0  0  0  0  0  0  0  0  0
  -26.8388  -25.9190   18.5383 C   0  0  0  0  0  0  0  0  0  0  0  0
  -26.3857  -19.8024   21.4404 C   0  0  0  0  0  0  0  0  0  0  0  0
  -25.7311  -16.6862   20.8217 C   0  0  0  0  0  0  0  0  0  0  0  0
  -23.4055  -14.1952   20.6386 C   0  0  0  0  0  0  0  0  0  0  0  0
  -21.9620  -31.0400   22.5943 C   0  0  0  0  0  0  0  0  0  0  0  0
  -30.9755  -20.0065   19.2158 C   0  0  0  0  0  0  0  0  0  0  0  0
  -25.1176  -19.1332   23.5141 C   0  0  0  0  0  0  0  0  0  0  0  0
  -23.7500  -18.2312   21.0522 C   0  0  0  0  0  0  0  0  0  0  0  0
  -29.6084  -19.4357   18.8478 C   0  0  0  0  0  0  0  0  0  0  0  0
  -24.4288  -32.5525   20.5197 C   0  0  0  0  0  0  0  0  0  0  0  0
  -28.5165  -20.4760   19.0765 C   0  0  0  0  0  0  0  0  0  0  0  0
  -25.3666  -31.3973   20.1648 C   0  0  0  0  0  0  0  0  0  0  0  0
  -23.9047  -32.4351   21.9492 C   0  0  0  0  0  0  0  0  0  0  0  0
  -24.2054  -29.9893   21.9163 C   0  0  0  0  0  0  0  0  0  0  0  0
  -28.4434  -20.8837   20.5530 C   0  0  1  0  0  0  0  0  0  0  0  0
  -25.8961  -18.6633   22.2891 C   0  0  1  0  0  0  0  0  0  0  0  0
  -24.7156  -30.0339   20.4658 C   0  0  2  0  0  0  0  0  0  0  0  0
  -23.1645  -11.7633   20.0682 C   0  0  0  0  0  0  0  0  0  0  0  0
  -25.9152  -17.3667   17.8530 C   0  0  0  0  0  0  0  0  0  0  0  0
  -24.7570  -15.2033   17.3566 C   0  0  0  0  0  0  0  0  0  0  0  0
  -26.9775  -15.1950   18.4933 C   0  0  0  0  0  0  0  0  0  0  0  0
  -22.4639  -13.5300   23.3643 C   0  0  0  0  0  0  0  0  0  0  0  0
  -20.1040  -29.5105   23.2009 C   0  0  0  0  0  0  0  0  0  0  0  0
  -18.0139  -24.5307   21.1379 C   0  0  0  0  0  0  0  0  0  0  0  0
  -18.4401  -22.0920   20.8064 C   0  0  0  0  0  0  0  0  0  0  0  0
  -19.5119  -21.0319   20.9661 C   0  0  0  0  0  0  0  0  0  1  0  0
  -24.9322  -15.9491   19.7741 C   0  0  1  0  0  0  0  0  0  0  0  0
  -23.4052  -12.7759   21.1771 C   0  0  2  0  0  0  0  0  0  0  0  0
  -25.6334  -15.9478   18.3863 C   0  0  0  0  0  0  0  0  0  0  0  0
  -26.8098  -28.7858   20.8393 N   0  0  0  0  0  0  0  0  0  0  0  0
  -25.6564  -28.8839   20.1566 N   0  0  0  0  0  0  0  0  0  0  0  0
  -25.1062  -17.7906   21.4181 N   0  0  0  0  0  0  0  0  0  0  0  0
  -23.2983  -31.1198   22.1688 N   0  0  0  0  0  0  0  0  0  0  0  0
  -24.3691  -27.8416   18.4633 N   0  0  0  0  0  0  0  0  0  0  0  0
  -28.0306  -25.2139   18.7549 N   0  0  0  0  0  0  0  0  0  0  0  0
  -27.7611  -19.8672   21.3248 N   0  0  0  0  0  0  0  0  0  0  0  0
  -24.6775  -14.6188   20.3161 N   0  0  0  0  0  0  0  0  0  0  0  0
  -21.4631  -29.7554   22.7723 N   0  0  0  0  0  0  0  0  0  0  0  0
  -22.3373  -12.6116   22.2035 N   0  3  0  0  0  0  0  0  0  0  0  0
  -18.9696  -23.3983   21.2726 N   0  3  0  0  0  0  0  0  0  0  0  0
  -26.0385  -25.5168   17.6601 O   0  0  0  0  0  0  0  0  0  0  0  0
  -25.5755  -20.5652   20.9272 O   0  0  0  0  0  0  0  0  0  0  0  0
  -26.8650  -16.2921   21.1057 O   0  0  0  0  0  0  0  0  0  0  0  0
  -22.3796  -14.8602   20.5128 O   0  0  0  0  0  0  0  0  0  0  0  0
  -21.2635  -32.0393   22.7950 O   0  0  0  0  0  0  0  0  0  0  0  0
  -32.3448  -25.9477   22.2024 O   0  0  0  0  0  0  0  0  0  0  0  0
  -19.8706  -20.9189   22.3426 O   0  0  0  0  0  0  0  0  0  1  0  0
  -36.1046  -24.4211   18.4692 F   0  0  0  0  0  0  0  0  0  0  0  0
  -34.7843  -27.2377   22.0369 F   0  0  0  0  0  0  0  0  0  0  0  0
  1  2  1  0  0  0  0
  1  5  2  0  0  0  0
  2  6  2  0  0  0  0
  3 12  2  0  0  0  0
  3 19  1  0  0  0  0
  4 13  1  0  0  0  0
  4 19  2  0  0  0  0
  5 21  1  0  0  0  0
  6 23  1  0  0  0  0
  7 14  2  0  0  0  0
  7 22  1  0  0  0  0
  8 10  2  0  0  0  0
  8 25  1  0  0  0  0
  9 11  1  0  0  0  0
  9 25  2  0  0  0  0
 10 26  1  0  0  0  0
 11 26  2  0  0  0  0
 12 27  1  0  0  0  0
 13 27  2  0  0  0  0
 14 28  1  0  0  0  0
 15 16  2  0  0  0  0
 15 29  1  0  0  0  0
 16 30  1  0  0  0  0
 17 24  1  0  0  0  0
 17 28  2  0  0  0  0
 18 30  2  0  0  0  0
 18 31  1  0  0  0  0
 19 32  1  0  0  0  0
 20 32  1  0  0  0  0
 20 33  2  0  0  0  0
 20 34  1  0  0  0  0
 21 23  2  0  0  0  0
 21 39  1  0  0  0  0
 22 24  2  0  0  0  0
 22 40  1  0  0  0  0
 23 48  1  0  0  0  0
 24 41  1  0  0  0  0
 25 56  1  0  0  0  0
 26 57  1  0  0  0  0
 27 79  1  0  0  0  0
 28 80  1  0  0  0  0
 29 31  2  0  0  0  0
 29 79  1  0  0  0  0
 30 81  1  0  0  0  0
 31 82  1  0  0  0  0
 32 63  2  0  0  0  0
 33 64  1  0  0  0  0
 33 67  1  0  0  0  0
 34 68  1  0  0  0  0
 34 74  2  0  0  0  0
 35 49  1  0  0  0  0
 35 69  1  0  0  0  0
 35 75  2  0  0  0  0
 36 60  1  0  0  0  0
 36 65  1  0  0  0  0
 36 76  2  0  0  0  0
 37 61  1  0  0  0  0
 37 70  1  0  0  0  0
 37 77  2  0  0  0  0
 38 66  1  0  0  0  0
 38 71  1  0  0  0  0
 38 78  2  0  0  0  0
 39 42  1  0  0  0  0
 40 49  1  0  0  0  0
 41 65  1  0  0  0  0
 42 44  1  0  0  0  0
 43 45  1  0  0  0  0
 43 46  1  0  0  0  0
 44 48  1  0  0  0  0
 45 50  1  0  0  0  0
 46 66  1  0  0  0  0
 47 50  1  0  0  0  0
 47 66  1  0  0  0  0
 48 69  1  0  0  0  0
 49 65  1  0  0  0  0
 50 64  1  0  0  0  0
 51 61  1  0  0  0  0
 52 62  1  0  0  0  0
 53 62  1  0  0  0  0
 54 62  1  0  0  0  0
 55 72  1  0  0  0  0
 56 71  1  0  0  0  0
 57 73  1  0  0  0  0
 58 59  1  0  0  0  0
 58 73  1  0  0  0  0
 59 80  1  0  0  0  0
 60 62  1  0  0  0  0
 60 70  1  0  0  0  0
 61 72  1  0  0  0  0
 63 64  1  0  0  0  0
M  CHG  2  72   1  73   1
M  ISO  4  38 100  59 101  71 100  80 101
M  END
> <Batch ID>
0128

> <Smiles>
CNC(C)C(=O)NC(C(=O)N1Cc2cc([101O:1][101CH2:1]CNCc3ccc(C[100NH:0][100C:0](=O)N4CCCC(n5nc(-c6ccc(Oc7ccc(F)cc7F)cc6)c(C(N)=O)c5N)C4)cc3)ccc2CC1C(=O)NC1CCCc2ccccc21)C(C)(C)C

> <Shape>
0.208

> <Color>
0.088

> <Negative vol penalty>
0.000

$$$$

  -OEChem-04052320423D

 86 95  0     1  0  0  0  0  0999 V2000
  -16.6030  -29.8706   23.6087 C   0  0  0  0  0  0  0  0  0  0  0  0
  -17.6815  -30.5302   24.1893 C   0  0  0  0  0  0  0  0  0  0  0  0
  -27.6988  -17.5357   20.1076 C   0  0  0  0  0  0  0  0  0  0  0  0
  -29.1379  -18.0794   21.9705 C   0  0  0  0  0  0  0  0  0  0  0  0
  -16.8136  -28.7028   22.8767 C   0  0  0  0  0  0  0  0  0  0  0  0
  -18.9712  -30.0218   24.0391 C   0  0  0  0  0  0  0  0  0  0  0  0
  -25.7825  -32.1615   23.4516 C   0  0  0  0  0  0  0  0  0  0  0  0
  -32.5796  -31.7682   21.0538 C   0  0  0  0  0  0  0  0  0  0  0  0
  -27.8048  -16.1807   20.4212 C   0  0  0  0  0  0  0  0  0  0  0  0
  -29.2439  -16.7244   22.2841 C   0  0  0  0  0  0  0  0  0  0  0  0
  -27.0350  -31.9367   24.0213 C   0  0  0  0  0  0  0  0  0  0  0  0
  -27.9877  -12.5501   20.5160 C   0  0  0  0  0  0  0  0  0  0  0  0
  -28.2140  -11.6564   19.4692 C   0  0  0  0  0  0  0  0  0  0  0  0
  -32.1543  -32.1185   22.3304 C   0  0  0  0  0  0  0  0  0  0  0  0
  -27.2880  -29.9555   22.6685 C   0  0  0  0  0  0  0  0  0  0  0  0
  -30.2781  -12.7962   18.9423 C   0  0  0  0  0  0  0  0  0  0  0  0
  -28.3654  -18.4851   20.8822 C   0  0  0  0  0  0  0  0  0  0  0  0
  -27.2953  -20.7957   21.0356 C   0  0  0  0  0  0  0  0  0  0  0  0
  -18.1076  -28.1850   22.7094 C   0  0  0  0  0  0  0  0  0  0  0  0
  -25.2678  -31.2774   22.4925 C   0  0  0  0  0  0  0  0  0  0  0  0
  -19.1992  -28.8452   23.3053 C   0  0  0  0  0  0  0  0  0  0  0  0
  -32.5508  -30.4354   20.6587 C   0  0  0  0  0  0  0  0  0  0  0  0
  -26.0298  -30.1727   22.0864 C   0  0  0  0  0  0  0  0  0  0  0  0
  -28.5773  -15.7751   21.5095 C   0  0  0  0  0  0  0  0  0  0  0  0
  -27.7867  -30.8320   23.6319 C   0  0  0  0  0  0  0  0  0  0  0  0
  -28.9065  -13.5670   20.7759 C   0  0  0  0  0  0  0  0  0  0  0  0
  -29.3592  -11.7794   18.6824 C   0  0  0  0  0  0  0  0  0  0  0  0
  -30.0517  -13.6900   19.9891 C   0  0  0  0  0  0  0  0  0  0  0  0
  -28.2568  -19.8849   20.5584 C   0  0  0  0  0  0  0  0  0  0  0  0
  -31.7129  -31.1064   23.1674 C   0  0  0  0  0  0  0  0  0  0  0  0
  -32.0918  -29.4986   21.5706 C   0  0  0  0  0  0  0  0  0  0  0  0
  -27.6232  -21.9869   20.4357 C   0  0  0  0  0  0  0  0  0  0  0  0
  -26.2033  -20.5839   21.9404 C   0  0  0  0  0  0  0  0  0  0  0  0
  -22.7214  -29.3821   22.3263 C   0  0  0  0  0  0  0  0  0  0  0  0
  -23.7477  -28.9211   19.2839 C   0  0  0  0  0  0  0  0  0  0  0  0
  -26.3375  -28.9658   17.0617 C   0  0  0  0  0  0  0  0  0  0  0  0
  -31.4212  -25.7650   18.8716 C   0  0  0  0  0  0  0  0  0  0  0  0
  -18.2802  -26.8939   21.9493 C   0  0  0  0  0  0  0  0  0  0  0  0
  -23.9265  -31.5486   21.8680 C   0  0  0  0  0  0  0  0  0  0  0  0
  -25.5312  -29.2047   21.0457 C   0  0  0  0  0  0  0  0  0  0  0  0
  -19.7212  -26.6264   21.5223 C   0  0  0  0  0  0  0  0  0  0  0  0
  -30.8696  -23.0040   16.6923 C   0  0  0  0  0  0  0  0  0  0  0  0
  -20.6775  -26.8768   22.6841 C   0  0  0  0  0  0  0  0  0  0  0  0
  -30.0672  -22.0196   17.5450 C   0  0  0  0  0  0  0  0  0  0  0  0
  -34.4433  -30.4327   18.8822 C   0  0  0  0  0  0  0  0  0  0  0  0
  -31.9144  -23.7475   17.5215 C   0  0  0  0  0  0  0  0  0  0  0  0
  -30.5838  -23.4405   19.5730 C   0  0  0  0  0  0  0  0  0  0  0  0
  -34.4680  -30.2195   17.3826 C   0  0  0  0  0  0  0  0  0  0  0  0
  -32.2052  -30.7000   18.1474 C   0  0  0  0  0  0  0  0  0  0  0  0
  -33.0136  -30.0477   19.2710 C   0  0  2  0  0  0  0  0  0  0  0  0
  -20.6159  -28.3384   23.1440 C   0  0  1  0  0  0  0  0  0  0  0  0
  -23.2797  -30.3002   21.2760 C   0  0  1  0  0  0  0  0  0  0  0  0
  -29.4797  -22.7073   18.7921 C   0  0  2  0  0  0  0  0  0  0  0  0
  -26.8761  -28.5034   14.6548 C   0  0  0  0  0  0  0  0  0  0  0  0
  -23.6713  -25.9230   19.8453 C   0  0  0  0  0  0  0  0  0  0  0  0
  -25.0861  -25.5762   17.8090 C   0  0  0  0  0  0  0  0  0  0  0  0
  -22.8148  -26.5843   17.5906 C   0  0  0  0  0  0  0  0  0  0  0  0
  -27.1786  -31.7641   16.5918 C   0  0  0  0  0  0  0  0  0  0  0  0
  -31.2423  -31.4507   24.5596 C   0  0  0  0  0  0  0  0  0  0  0  0
  -32.0357  -28.0527   21.2003 C   0  0  0  0  0  0  0  0  0  0  0  0
  -30.8338  -27.6925   20.3203 C   0  0  0  0  0  0  0  0  0  0  0  0
  -29.7490  -31.7553   24.6081 C   0  0  0  0  0  0  0  0  0  1  0  0
  -24.6842  -27.9495   18.6072 C   0  0  1  0  0  0  0  0  0  0  0  0
  -26.4596  -29.5573   15.6690 C   0  0  2  0  0  0  0  0  0  0  0  0
  -24.0729  -26.5252   18.4841 C   0  0  0  0  0  0  0  0  0  0  0  0
  -29.1300  -20.4491   19.7199 N   0  0  0  0  0  0  0  0  0  0  0  0
  -31.6705  -29.8008   22.8192 N   0  0  0  0  0  0  0  0  0  0  0  0
  -28.7183  -21.7273   19.6654 N   0  0  0  0  0  0  0  0  0  0  0  0
  -24.2113  -29.5094   20.4691 N   0  0  0  0  0  0  0  0  0  0  0  0
  -31.2922  -24.3784   18.6880 N   0  0  0  0  0  0  0  0  0  0  0  0
  -27.0786  -23.2206   20.4972 N   0  0  0  0  0  0  0  0  0  0  0  0
  -26.0095  -19.2985   22.4643 N   0  0  0  0  0  0  0  0  0  0  0  0
  -21.3566  -29.1861   22.2344 N   0  0  0  0  0  0  0  0  0  0  0  0
  -25.0489  -28.5556   17.3312 N   0  0  0  0  0  0  0  0  0  0  0  0
  -30.7959  -26.2832   19.9990 N   0  0  0  0  0  0  0  0  0  0  0  0
  -33.0912  -30.6068   16.9383 N   0  3  0  0  0  0  0  0  0  0  0  0
  -27.4747  -30.6483   15.6568 N   0  3  0  0  0  0  0  0  0  0  0  0
  -25.4128  -21.5034   22.2615 O   0  0  0  0  0  0  0  0  0  0  0  0
  -23.4734  -28.8870   23.1576 O   0  0  0  0  0  0  0  0  0  0  0  0
  -22.6483  -29.1551   18.7756 O   0  0  0  0  0  0  0  0  0  0  0  0
  -27.2906  -28.8733   17.8321 O   0  0  0  0  0  0  0  0  0  0  0  0
  -32.0427  -26.4884   18.0858 O   0  0  0  0  0  0  0  0  0  0  0  0
  -28.6808  -14.4530   21.8159 O   0  0  0  0  0  0  0  0  0  0  0  0
  -29.0093  -30.6100   24.1868 O   0  0  0  0  0  0  0  0  0  1  0  0
  -29.5772  -10.9202   17.6783 F   0  0  0  0  0  0  0  0  0  0  0  0
  -30.9386  -14.6641   20.2347 F   0  0  0  0  0  0  0  0  0  0  0  0
  1  2  1  0  0  0  0
  1  5  2  0  0  0  0
  2  6  2  0  0  0  0
  3  9  2  0  0  0  0
  3 17  1  0  0  0  0
  4 10  1  0  0  0  0
  4 17  2  0  0  0  0
  5 19  1  0  0  0  0
  6 21  1  0  0  0  0
  7 11  2  0  0  0  0
  7 20  1  0  0  0  0
  8 14  2  0  0  0  0
  8 22  1  0  0  0  0
  9 24  1  0  0  0  0
 10 24  2  0  0  0  0
 11 25  1  0  0  0  0
 12 13  2  0  0  0  0
 12 26  1  0  0  0  0
 13 27  1  0  0  0  0
 14 30  1  0  0  0  0
 15 23  1  0  0  0  0
 15 25  2  0  0  0  0
 16 27  2  0  0  0  0
 16 28  1  0  0  0  0
 17 29  1  0  0  0  0
 18 29  1  0  0  0  0
 18 32  2  0  0  0  0
 18 33  1  0  0  0  0
 19 21  2  0  0  0  0
 19 38  1  0  0  0  0
 20 23  2  0  0  0  0
 20 39  1  0  0  0  0
 21 51  1  0  0  0  0
 22 31  2  0  0  0  0
 22 50  1  0  0  0  0
 23 40  1  0  0  0  0
 24 83  1  0  0  0  0
 25 84  1  0  0  0  0
 26 28  2  0  0  0  0
 26 83  1  0  0  0  0
 27 85  1  0  0  0  0
 28 86  1  0  0  0  0
 29 66  2  0  0  0  0
 30 59  1  0  0  0  0
 30 67  2  0  0  0  0
 31 60  1  0  0  0  0
 31 67  1  0  0  0  0
 32 68  1  0  0  0  0
 32 71  1  0  0  0  0
 33 72  1  0  0  0  0
 33 78  2  0  0  0  0
 34 52  1  0  0  0  0
 34 73  1  0  0  0  0
 34 79  2  0  0  0  0
 35 63  1  0  0  0  0
 35 69  1  0  0  0  0
 35 80  2  0  0  0  0
 36 64  1  0  0  0  0
 36 74  1  0  0  0  0
 36 81  2  0  0  0  0
 37 70  1  0  0  0  0
 37 75  1  0  0  0  0
 37 82  2  0  0  0  0
 38 41  1  0  0  0  0
 39 52  1  0  0  0  0
 40 69  1  0  0  0  0
 41 43  1  0  0  0  0
 42 44  1  0  0  0  0
 42 46  1  0  0  0  0
 43 51  1  0  0  0  0
 44 53  1  0  0  0  0
 45 48  1  0  0  0  0
 45 50  1  0  0  0  0
 46 70  1  0  0  0  0
 47 53  1  0  0  0  0
 47 70  1  0  0  0  0
 48 76  1  0  0  0  0
 49 50  1  0  0  0  0
 49 76  1  0  0  0  0
 51 73  1  0  0  0  0
 52 69  1  0  0  0  0
 53 68  1  0  0  0  0
 54 64  1  0  0  0  0
 55 65  1  0  0  0  0
 56 65  1  0  0  0  0
 57 65  1  0  0  0  0
 58 77  1  0  0  0  0
 59 62  1  0  0  0  0
 60 61  1  0  0  0  0
 61 75  1  0  0  0  0
 62 84  1  0  0  0  0
 63 65  1  0  0  0  0
 63 74  1  0  0  0  0
 64 77  1  0  0  0  0
 66 68  1  0  0  0  0
M  CHG  2  76   1  77   1
M  ISO  4  37 100  62 101  75 100  84 101
M  END
> <Batch ID>
0128

> <Smiles>
CNC(C)C(=O)NC(C(=O)N1Cc2cc([101O:1][101CH2:1]Cc3ccc(C4CCNC4)c(CC[100NH:0][100C:0](=O)N4CCCC(n5nc(-c6ccc(Oc7ccc(F)cc7F)cc6)c(C(N)=O)c5N)C4)n3)ccc2CC1C(=O)NC1CCCc2ccccc21)C(C)(C)C

> <Shape>
0.318

> <Color>
0.126

> <Negative vol penalty>
0.000

$$$$

  -OEChem-04052320423D

 82 90  0     1  0  0  0  0  0999 V2000
  -36.1439  -26.0359   21.8140 C   0  0  0  0  0  0  0  0  0  0  0  0
  -35.0840  -25.1397   21.7192 C   0  0  0  0  0  0  0  0  0  0  0  0
  -25.0068  -19.0097   19.2540 C   0  0  0  0  0  0  0  0  0  0  0  0
  -24.4540  -20.1187   19.8942 C   0  0  0  0  0  0  0  0  0  0  0  0
  -23.0726   -9.8702   19.9440 C   0  0  0  0  0  0  0  0  0  0  0  0
  -23.8348   -9.8793   22.2366 C   0  0  0  0  0  0  0  0  0  0  0  0
  -36.9308  -26.0639   22.9645 C   0  0  0  0  0  0  0  0  0  0  0  0
  -34.8111  -24.2702   22.7746 C   0  0  0  0  0  0  0  0  0  0  0  0
  -29.8709  -24.0220   23.8596 C   0  0  0  0  0  0  0  0  0  0  0  0
  -26.3846  -18.7957   19.2949 C   0  0  0  0  0  0  0  0  0  0  0  0
  -25.2789  -21.0140   20.5752 C   0  0  0  0  0  0  0  0  0  0  0  0
  -22.3288   -8.7174   20.1958 C   0  0  0  0  0  0  0  0  0  0  0  0
  -23.0910   -8.7264   22.4884 C   0  0  0  0  0  0  0  0  0  0  0  0
  -29.0733  -23.2438   23.0217 C   0  0  0  0  0  0  0  0  0  0  0  0
  -19.3820   -7.9224   21.6507 C   0  0  0  0  0  0  0  0  0  0  0  0
  -18.0746   -7.8759   21.1668 C   0  0  0  0  0  0  0  0  0  0  0  0
  -29.1398  -21.4506   24.6340 C   0  0  0  0  0  0  0  0  0  0  0  0
  -18.6328   -5.9315   19.8459 C   0  0  0  0  0  0  0  0  0  0  0  0
  -23.8256  -10.4511   20.9644 C   0  0  0  0  0  0  0  0  0  0  0  0
  -24.1676  -12.9761   20.8416 C   0  0  0  0  0  0  0  0  0  0  0  0
  -36.6615  -25.2009   24.0385 C   0  0  0  0  0  0  0  0  0  0  0  0
  -30.3187  -23.5155   25.0881 C   0  0  0  0  0  0  0  0  0  0  0  0
  -35.5961  -24.2857   23.9401 C   0  0  0  0  0  0  0  0  0  0  0  0
  -29.9408  -22.2254   25.4867 C   0  0  0  0  0  0  0  0  0  0  0  0
  -27.2095  -19.6909   19.9758 C   0  0  0  0  0  0  0  0  0  0  0  0
  -26.6567  -20.8000   20.6160 C   0  0  0  0  0  0  0  0  0  0  0  0
  -22.3380   -8.1455   21.4680 C   0  0  0  0  0  0  0  0  0  0  0  0
  -28.7100  -21.9569   23.4076 C   0  0  0  0  0  0  0  0  0  0  0  0
  -20.3148   -6.9736   21.2322 C   0  0  0  0  0  0  0  0  0  0  0  0
  -17.7000   -6.8804   20.2644 C   0  0  0  0  0  0  0  0  0  0  0  0
  -19.9402   -5.9781   20.3298 C   0  0  0  0  0  0  0  0  0  0  0  0
  -24.5945  -11.6417   20.7047 C   0  0  0  0  0  0  0  0  0  0  0  0
  -25.2594  -13.7252   20.4766 C   0  0  0  0  0  0  0  0  0  0  0  0
  -22.8976  -13.4925   21.2613 C   0  0  0  0  0  0  0  0  0  0  0  0
  -33.1678  -22.9019   26.3570 C   0  0  0  0  0  0  0  0  0  0  0  0
  -31.4164  -22.2774   29.0150 C   0  0  0  0  0  0  0  0  0  0  0  0
  -28.4100  -21.3824   30.3595 C   0  0  0  0  0  0  0  0  0  0  0  0
  -30.7435  -14.7438   20.6585 C   0  0  0  0  0  0  0  0  0  0  0  0
  -37.5691  -25.2352   25.2426 C   0  0  0  0  0  0  0  0  0  0  0  0
  -31.1564  -24.3775   25.9925 C   0  0  0  0  0  0  0  0  0  0  0  0
  -30.3786  -21.6425   26.8047 C   0  0  0  0  0  0  0  0  0  0  0  0
  -36.9821  -24.5391   26.4678 C   0  0  0  0  0  0  0  0  0  0  0  0
  -29.6032  -12.3572   18.2751 C   0  0  0  0  0  0  0  0  0  0  0  0
  -36.3969  -23.1841   26.0827 C   0  0  0  0  0  0  0  0  0  0  0  0
  -28.1662  -12.0640   18.7097 C   0  0  0  0  0  0  0  0  0  0  0  0
  -30.5216  -12.5790   19.4749 C   0  0  0  0  0  0  0  0  0  0  0  0
  -28.6213  -13.3116   20.8627 C   0  0  0  0  0  0  0  0  0  0  0  0
  -35.2532  -23.3438   25.0738 C   0  0  1  0  0  0  0  0  0  0  0  0
  -31.9812  -23.5711   26.9909 C   0  0  1  0  0  0  0  0  0  0  0  0
  -27.6459  -13.1360   19.6862 C   0  0  2  0  0  0  0  0  0  0  0  0
  -27.2965  -20.9166   32.5596 C   0  0  0  0  0  0  0  0  0  0  0  0
  -32.8059  -19.5639   29.1410 C   0  0  0  0  0  0  0  0  0  0  0  0
  -31.0219  -18.8018   30.7235 C   0  0  0  0  0  0  0  0  0  0  0  0
  -32.5207  -20.6936   31.3538 C   0  0  0  0  0  0  0  0  0  0  0  0
  -26.4693  -23.5835   29.9752 C   0  0  0  0  0  0  0  0  0  0  0  0
  -28.6817  -19.4410   20.0072 C   0  0  0  0  0  0  0  0  0  0  0  0
  -27.5239  -21.7770   21.3541 C   0  0  0  0  0  0  0  0  0  1  0  0
  -30.8108  -16.8955   21.8933 C   0  0  0  0  0  0  0  0  0  0  0  0
  -30.5278  -18.0377   20.9354 C   0  0  0  0  0  0  0  0  0  0  0  0
  -30.7454  -21.0534   29.5900 C   0  0  1  0  0  0  0  0  0  0  0  0
  -27.6046  -21.9682   31.5052 C   0  0  2  0  0  0  0  0  0  0  0  0
  -31.7667  -20.0382   30.1763 C   0  0  0  0  0  0  0  0  0  0  0  0
  -25.8590  -11.5453   20.2853 N   0  0  0  0  0  0  0  0  0  0  0  0
  -26.2359  -12.8287   20.1554 N   0  0  0  0  0  0  0  0  0  0  0  0
  -31.2016  -22.5220   27.6512 N   0  0  0  0  0  0  0  0  0  0  0  0
  -29.9720  -13.6084   20.3604 N   0  0  0  0  0  0  0  0  0  0  0  0
  -25.4699  -15.0565   20.4021 N   0  0  0  0  0  0  0  0  0  0  0  0
  -21.8859  -12.5837   21.6005 N   0  0  0  0  0  0  0  0  0  0  0  0
  -34.0451  -23.7756   25.7434 N   0  0  0  0  0  0  0  0  0  0  0  0
  -29.7658  -21.5404   30.5552 N   0  0  0  0  0  0  0  0  0  0  0  0
  -30.1452  -15.6735   21.5002 N   0  0  0  0  0  0  0  0  0  0  0  0
  -26.3153  -22.5213   31.0023 N   0  3  0  0  0  0  0  0  0  0  0  0
  -29.0728  -18.3416   20.9309 N   0  3  0  0  0  0  0  0  0  0  0  0
  -22.6615  -14.7232   21.3177 O   0  0  0  0  0  0  0  0  0  0  0  0
  -33.2799  -21.6833   26.4212 O   0  0  0  0  0  0  0  0  0  0  0  0
  -32.0998  -22.9942   29.7504 O   0  0  0  0  0  0  0  0  0  0  0  0
  -27.8888  -20.8358   29.3899 O   0  0  0  0  0  0  0  0  0  0  0  0
  -31.8790  -14.9187   20.2036 O   0  0  0  0  0  0  0  0  0  0  0  0
  -21.6122   -7.0207   21.7141 O   0  0  0  0  0  0  0  0  0  0  0  0
  -27.9321  -21.1949   22.5914 O   0  0  0  0  0  0  0  0  0  1  0  0
  -16.4440   -6.8349   19.8010 F   0  0  0  0  0  0  0  0  0  0  0  0
  -20.8316   -5.0631   19.9249 F   0  0  0  0  0  0  0  0  0  0  0  0
  1  2  1  0  0  0  0
  1  7  2  0  0  0  0
  2  8  2  0  0  0  0
  3  4  1  0  0  0  0
  3 10  2  0  0  0  0
  4 11  2  0  0  0  0
  5 12  2  0  0  0  0
  5 19  1  0  0  0  0
  6 13  1  0  0  0  0
  6 19  2  0  0  0  0
  7 21  1  0  0  0  0
  8 23  1  0  0  0  0
  9 14  2  0  0  0  0
  9 22  1  0  0  0  0
 10 25  1  0  0  0  0
 11 26  1  0  0  0  0
 12 27  1  0  0  0  0
 13 27  2  0  0  0  0
 14 28  1  0  0  0  0
 15 16  2  0  0  0  0
 15 29  1  0  0  0  0
 16 30  1  0  0  0  0
 17 24  1  0  0  0  0
 17 28  2  0  0  0  0
 18 30  2  0  0  0  0
 18 31  1  0  0  0  0
 19 32  1  0  0  0  0
 20 32  1  0  0  0  0
 20 33  2  0  0  0  0
 20 34  1  0  0  0  0
 21 23  2  0  0  0  0
 21 39  1  0  0  0  0
 22 24  2  0  0  0  0
 22 40  1  0  0  0  0
 23 48  1  0  0  0  0
 24 41  1  0  0  0  0
 25 26  2  0  0  0  0
 25 56  1  0  0  0  0
 26 57  1  0  0  0  0
 27 79  1  0  0  0  0
 28 80  1  0  0  0  0
 29 31  2  0  0  0  0
 29 79  1  0  0  0  0
 30 81  1  0  0  0  0
 31 82  1  0  0  0  0
 32 63  2  0  0  0  0
 33 64  1  0  0  0  0
 33 67  1  0  0  0  0
 34 68  1  0  0  0  0
 34 74  2  0  0  0  0
 35 49  1  0  0  0  0
 35 69  1  0  0  0  0
 35 75  2  0  0  0  0
 36 60  1  0  0  0  0
 36 65  1  0  0  0  0
 36 76  2  0  0  0  0
 37 61  1  0  0  0  0
 37 70  1  0  0  0  0
 37 77  2  0  0  0  0
 38 66  1  0  0  0  0
 38 71  1  0  0  0  0
 38 78  2  0  0  0  0
 39 42  1  0  0  0  0
 40 49  1  0  0  0  0
 41 65  1  0  0  0  0
 42 44  1  0  0  0  0
 43 45  1  0  0  0  0
 43 46  1  0  0  0  0
 44 48  1  0  0  0  0
 45 50  1  0  0  0  0
 46 66  1  0  0  0  0
 47 50  1  0  0  0  0
 47 66  1  0  0  0  0
 48 69  1  0  0  0  0
 49 65  1  0  0  0  0
 50 64  1  0  0  0  0
 51 61  1  0  0  0  0
 52 62  1  0  0  0  0
 53 62  1  0  0  0  0
 54 62  1  0  0  0  0
 55 72  1  0  0  0  0
 56 73  1  0  0  0  0
 57 80  1  0  0  0  0
 58 59  1  0  0  0  0
 58 71  1  0  0  0  0
 59 73  1  0  0  0  0
 60 62  1  0  0  0  0
 60 70  1  0  0  0  0
 61 72  1  0  0  0  0
 63 64  1  0  0  0  0
M  CHG  2  72   1  73   1
M  ISO  4  38 100  57 101  71 100  80 101
M  END
> <Batch ID>
0128

> <Smiles>
CNC(C)C(=O)NC(C(=O)N1Cc2cc([101O:1][101CH2:1]c3ccccc3CNCC[100NH:0][100C:0](=O)N3CCCC(n4nc(-c5ccc(Oc6ccc(F)cc6F)cc5)c(C(N)=O)c4N)C3)ccc2CC1C(=O)NC1CCCc2ccccc21)C(C)(C)C

> <Shape>
0.175

> <Color>
0.191

> <Negative vol penalty>
0.000

$$$$

  -OEChem-04052320423D

 90 99  0     1  0  0  0  0  0999 V2000
  -21.6834  -11.8485   21.9982 C   0  0  0  0  0  0  0  0  0  0  0  0
  -21.7258  -13.2036   22.3099 C   0  0  0  0  0  0  0  0  0  0  0  0
  -25.1422  -28.3288   23.2464 C   0  0  0  0  0  0  0  0  0  0  0  0
  -24.2147  -27.9723   21.0442 C   0  0  0  0  0  0  0  0  0  0  0  0
  -22.8009  -11.2269   21.4425 C   0  0  0  0  0  0  0  0  0  0  0  0
  -22.8862  -13.9378   22.0671 C   0  0  0  0  0  0  0  0  0  0  0  0
  -23.2381  -19.8003   20.3315 C   0  0  0  0  0  0  0  0  0  0  0  0
  -23.8808  -28.6905   23.7192 C   0  0  0  0  0  0  0  0  0  0  0  0
  -22.9532  -28.3340   21.5170 C   0  0  0  0  0  0  0  0  0  0  0  0
  -23.4681  -20.9770   21.0430 C   0  0  0  0  0  0  0  0  0  0  0  0
  -20.4554  -26.9054   23.2892 C   0  0  0  0  0  0  0  0  0  0  0  0
  -19.3725  -26.1094   22.9161 C   0  0  0  0  0  0  0  0  0  0  0  0
  -25.8090  -20.8570   20.4730 C   0  0  0  0  0  0  0  0  0  0  0  0
  -18.3365  -28.0165   21.8546 C   0  0  0  0  0  0  0  0  0  0  0  0
  -25.3092  -27.9697   21.9089 C   0  0  0  0  0  0  0  0  0  0  0  0
  -27.7772  -28.3868   21.4161 C   0  0  0  0  0  0  0  0  0  0  0  0
  -23.9723  -11.9559   21.1839 C   0  0  0  0  0  0  0  0  0  0  0  0
  -24.2955  -19.1361   19.6934 C   0  0  0  0  0  0  0  0  0  0  0  0
  -24.0209  -13.3250   21.5087 C   0  0  0  0  0  0  0  0  0  0  0  0
  -25.5894  -19.6734   19.7519 C   0  0  0  0  0  0  0  0  0  0  0  0
  -29.0161  -23.0704   26.7226 C   0  0  0  0  0  0  0  0  0  0  0  0
  -22.7863  -28.6930   22.8545 C   0  0  0  0  0  0  0  0  0  0  0  0
  -24.7542  -21.5040   21.1163 C   0  0  0  0  0  0  0  0  0  0  0  0
  -20.4789  -28.2569   22.9451 C   0  0  0  0  0  0  0  0  0  0  0  0
  -18.3130  -26.6649   22.1988 C   0  0  0  0  0  0  0  0  0  0  0  0
  -19.4195  -28.8125   22.2277 C   0  0  0  0  0  0  0  0  0  0  0  0
  -26.6121  -27.5966   21.4198 C   0  0  0  0  0  0  0  0  0  0  0  0
  -29.4103  -23.6960   27.8878 C   0  0  0  0  0  0  0  0  0  0  0  0
  -30.0334  -22.5380   25.9572 C   0  0  0  0  0  0  0  0  0  0  0  0
  -28.7363  -27.5818   20.8517 C   0  0  0  0  0  0  0  0  0  0  0  0
  -31.5944  -23.2403   27.4529 C   0  0  0  0  0  0  0  0  0  0  0  0
  -27.9748  -29.7285   21.8814 C   0  0  0  0  0  0  0  0  0  0  0  0
  -25.6429  -16.2714   19.9787 C   0  0  0  0  0  0  0  0  0  0  0  0
  -27.3161  -17.2293   17.3701 C   0  0  0  0  0  0  0  0  0  0  0  0
  -29.1043  -19.6812   15.4186 C   0  0  0  0  0  0  0  0  0  0  0  0
  -29.3449  -21.6396   20.4384 C   0  0  0  0  0  0  0  0  0  0  0  0
  -25.1708  -11.2300   20.6259 C   0  0  0  0  0  0  0  0  0  0  0  0
  -24.0262  -17.8822   18.9075 C   0  0  0  0  0  0  0  0  0  0  0  0
  -26.7553  -19.0097   19.0675 C   0  0  0  0  0  0  0  0  0  0  0  0
  -26.2352  -12.1622   20.0529 C   0  0  0  0  0  0  0  0  0  0  0  0
  -29.2455  -23.9735   17.7514 C   0  0  0  0  0  0  0  0  0  0  0  0
  -26.5113  -13.3128   21.0155 C   0  0  0  0  0  0  0  0  0  0  0  0
  -28.6644  -25.2380   18.3866 C   0  0  0  0  0  0  0  0  0  0  0  0
  -27.0396  -21.5542   26.1648 C   0  0  0  0  0  0  0  0  0  0  0  0
  -28.6113  -22.7097   18.3281 C   0  0  0  0  0  0  0  0  0  0  0  0
  -28.0772  -23.8734   20.4339 C   0  0  0  0  0  0  0  0  0  0  0  0
  -25.7345  -21.7654   25.4263 C   0  0  0  0  0  0  0  0  0  0  0  0
  -27.2417  -23.6404   24.9782 C   0  0  0  0  0  0  0  0  0  0  0  0
  -27.5644  -22.9800   26.3208 C   0  0  2  0  0  0  0  0  0  0  0  0
  -25.2530  -14.1607   21.2372 C   0  0  1  0  0  0  0  0  0  0  0  0
  -25.2664  -17.0123   18.7270 C   0  0  1  0  0  0  0  0  0  0  0  0
  -28.7256  -25.1720   19.9245 C   0  0  2  0  0  0  0  0  0  0  0  0
  -28.3977  -24.3102   28.7976 C   0  0  0  0  0  0  0  0  0  0  0  0
  -33.0262  -23.3346   27.8584 C   0  0  0  0  0  0  0  0  0  0  0  0
  -30.1522  -19.5081   13.1450 C   0  0  0  0  0  0  0  0  0  0  0  0
  -29.0371  -19.5824   22.9495 C   0  0  0  0  0  0  0  0  0  0  0  0
  -29.8624  -16.5617   18.9130 C   0  0  0  0  0  0  0  0  0  0  0  0
  -31.1469  -17.9093   17.2391 C   0  0  0  0  0  0  0  0  0  0  0  0
  -29.8922  -15.8815   16.5066 C   0  0  0  0  0  0  0  0  0  0  0  0
  -27.5644  -21.9965   14.4050 C   0  0  0  0  0  0  0  0  0  0  0  0
  -30.6681  -21.2993   23.8864 C   0  0  0  0  0  0  0  0  0  0  0  0
  -24.9082  -23.6635   23.9911 C   0  0  0  0  0  0  0  0  0  0  0  0
  -24.1309  -22.9160   22.9256 C   0  0  0  0  0  0  0  0  0  1  0  0
  -28.6134  -17.9674   17.1438 C   0  0  1  0  0  0  0  0  0  0  0  0
  -28.9353  -19.9618   13.9363 C   0  0  2  0  0  0  0  0  0  0  0  0
  -30.0261  -20.6999   22.6320 C   0  0  2  0  0  0  0  0  0  0  0  0
  -29.8573  -17.0917   17.4653 C   0  0  0  0  0  0  0  0  0  0  0  0
  -26.8107  -26.3828   20.8989 N   0  0  0  0  0  0  0  0  0  0  0  0
  -30.6955  -23.7996   28.2851 N   0  0  0  0  0  0  0  0  0  0  0  0
  -31.3384  -22.6052   26.2933 N   0  0  0  0  0  0  0  0  0  0  0  0
  -28.1117  -26.4044   20.5625 N   0  0  0  0  0  0  0  0  0  0  0  0
  -26.4423  -17.7826   18.3167 N   0  0  0  0  0  0  0  0  0  0  0  0
  -28.7040  -22.7083   19.7901 N   0  0  0  0  0  0  0  0  0  0  0  0
  -30.0445  -27.7735   20.5793 N   0  0  0  0  0  0  0  0  0  0  0  0
  -27.7713  -30.7842   20.9823 N   0  0  0  0  0  0  0  0  0  0  0  0
  -29.6923  -21.8827   24.7483 N   0  0  0  0  0  0  0  0  0  0  0  0
  -25.0305  -15.0396   20.1091 N   0  0  0  0  0  0  0  0  0  0  0  0
  -28.5685  -18.4607   15.7716 N   0  0  0  0  0  0  0  0  0  0  0  0
  -29.3944  -21.7197   21.8247 N   0  0  0  0  0  0  0  0  0  0  0  0
  -26.0784  -22.8378   24.4184 N   0  3  2  0  0  0  0  0  0  0  0  0
  -28.7412  -21.4211   13.7043 N   0  3  0  0  0  0  0  0  0  0  0  0
  -28.3374  -29.9829   23.0550 O   0  0  0  0  0  0  0  0  0  0  0  0
  -26.4319  -16.7790   20.7671 O   0  0  0  0  0  0  0  0  0  0  0  0
  -27.0834  -16.2038   16.7253 O   0  0  0  0  0  0  0  0  0  0  0  0
  -29.6595  -20.4645   16.1858 O   0  0  0  0  0  0  0  0  0  0  0  0
  -29.8411  -20.6875   19.8268 O   0  0  0  0  0  0  0  0  0  0  0  0
  -21.5551  -29.0457   23.3155 O   0  0  0  0  0  0  0  0  0  0  0  0
  -24.9815  -22.6520   21.8106 O   0  0  0  0  0  0  0  0  0  1  0  0
  -17.2739  -25.9001   21.8392 F   0  0  0  0  0  0  0  0  0  0  0  0
  -19.4369  -30.1100   21.8932 F   0  0  0  0  0  0  0  0  0  0  0  0
  1  2  1  0  0  0  0
  1  5  2  0  0  0  0
  2  6  2  0  0  0  0
  3  8  2  0  0  0  0
  3 15  1  0  0  0  0
  4  9  1  0  0  0  0
  4 15  2  0  0  0  0
  5 17  1  0  0  0  0
  6 19  1  0  0  0  0
  7 10  2  0  0  0  0
  7 18  1  0  0  0  0
  8 22  1  0  0  0  0
  9 22  2  0  0  0  0
 10 23  1  0  0  0  0
 11 12  2  0  0  0  0
 11 24  1  0  0  0  0
 12 25  1  0  0  0  0
 13 20  1  0  0  0  0
 13 23  2  0  0  0  0
 14 25  2  0  0  0  0
 14 26  1  0  0  0  0
 15 27  1  0  0  0  0
 16 27  1  0  0  0  0
 16 30  2  0  0  0  0
 16 32  1  0  0  0  0
 17 19  2  0  0  0  0
 17 37  1  0  0  0  0
 18 20  2  0  0  0  0
 18 38  1  0  0  0  0
 19 50  1  0  0  0  0
 20 39  1  0  0  0  0
 21 28  1  0  0  0  0
 21 29  2  0  0  0  0
 21 49  1  0  0  0  0
 22 87  1  0  0  0  0
 23 88  1  0  0  0  0
 24 26  2  0  0  0  0
 24 87  1  0  0  0  0
 25 89  1  0  0  0  0
 26 90  1  0  0  0  0
 27 68  2  0  0  0  0
 28 53  1  0  0  0  0
 28 69  2  0  0  0  0
 29 70  1  0  0  0  0
 29 76  1  0  0  0  0
 30 71  1  0  0  0  0
 30 74  1  0  0  0  0
 31 54  1  0  0  0  0
 31 69  1  0  0  0  0
 31 70  2  0  0  0  0
 32 75  1  0  0  0  0
 32 82  2  0  0  0  0
 33 51  1  0  0  0  0
 33 77  1  0  0  0  0
 33 83  2  0  0  0  0
 34 64  1  0  0  0  0
 34 72  1  0  0  0  0
 34 84  2  0  0  0  0
 35 65  1  0  0  0  0
 35 78  1  0  0  0  0
 35 85  2  0  0  0  0
 36 73  1  0  0  0  0
 36 79  1  0  0  0  0
 36 86  2  0  0  0  0
 37 40  1  0  0  0  0
 38 51  1  0  0  0  0
 39 72  1  0  0  0  0
 40 42  1  0  0  0  0
 41 43  1  0  0  0  0
 41 45  1  0  0  0  0
 42 50  1  0  0  0  0
 43 52  1  0  0  0  0
 44 47  1  0  0  0  0
 44 49  1  0  0  0  0
 45 73  1  0  0  0  0
 46 52  1  0  0  0  0
 46 73  1  0  0  0  0
 47 80  1  0  0  0  0
 48 49  1  0  0  0  0
 48 80  1  0  0  0  0
 50 77  1  0  0  0  0
 51 72  1  0  0  0  0
 52 71  1  0  0  0  0
 55 65  1  0  0  0  0
 56 66  1  0  0  0  0
 57 67  1  0  0  0  0
 58 67  1  0  0  0  0
 59 67  1  0  0  0  0
 60 81  1  0  0  0  0
 61 66  1  0  0  0  0
 61 76  1  0  0  0  0
 62 63  1  0  0  0  0
 62 80  1  0  0  0  0
 63 88  1  0  0  0  0
 64 67  1  0  0  0  0
 64 78  1  0  0  0  0
 65 81  1  0  0  0  0
 66 79  1  0  0  0  0
 68 71  1  0  0  0  0
M  CHG  2  80   1  81   1
M  ISO  4  36 100  63 101  79 100  88 101
M  END
> <Batch ID>
0128

> <Smiles>
CNC(C)C(=O)NC(C(=O)N1Cc2cc([101O:1][101CH2:1]CN3CCC(c4c(C)nc(C)nc4NCC(C)[100NH:0][100C:0](=O)N4CCCC(n5nc(-c6ccc(Oc7ccc(F)cc7F)cc6)c(C(N)=O)c5N)C4)C3)ccc2CC1C(=O)NC1CCCc2ccccc21)C(C)(C)C

> <Shape>
0.207

> <Color>
0.062

> <Negative vol penalty>
0.000

$$$$

  -OEChem-04052320423D

 82 90  0     1  0  0  0  0  0999 V2000
  -28.3345  -25.0229   24.1444 C   0  0  0  0  0  0  0  0  0  0  0  0
  -27.0592  -24.6830   23.7044 C   0  0  0  0  0  0  0  0  0  0  0  0
  -29.7242  -27.9487   18.9372 C   0  0  0  0  0  0  0  0  0  0  0  0
  -29.5423  -27.2168   21.2325 C   0  0  0  0  0  0  0  0  0  0  0  0
  -29.4459  -24.3419   23.6496 C   0  0  0  0  0  0  0  0  0  0  0  0
  -26.8948  -23.6626   22.7683 C   0  0  0  0  0  0  0  0  0  0  0  0
  -23.1193  -20.5103   23.9740 C   0  0  0  0  0  0  0  0  0  0  0  0
  -18.9671  -26.8204   20.7467 C   0  0  0  0  0  0  0  0  0  0  0  0
  -31.1059  -27.7645   18.9879 C   0  0  0  0  0  0  0  0  0  0  0  0
  -30.9240  -27.0325   21.2832 C   0  0  0  0  0  0  0  0  0  0  0  0
  -21.8199  -20.9455   23.7171 C   0  0  0  0  0  0  0  0  0  0  0  0
  -34.3617  -26.0253   21.9046 C   0  0  0  0  0  0  0  0  0  0  0  0
  -34.8391  -24.8518   22.4879 C   0  0  0  0  0  0  0  0  0  0  0  0
  -19.4768  -28.0141   21.2453 C   0  0  0  0  0  0  0  0  0  0  0  0
  -21.7833  -19.6254   21.6984 C   0  0  0  0  0  0  0  0  0  0  0  0
  -33.6466  -23.5476   20.8404 C   0  0  0  0  0  0  0  0  0  0  0  0
  -18.6715  -26.0722   22.9848 C   0  0  0  0  0  0  0  0  0  0  0  0
  -28.9424  -27.6750   20.0595 C   0  0  0  0  0  0  0  0  0  0  0  0
  -26.5442  -26.9192   19.6293 C   0  0  0  0  0  0  0  0  0  0  0  0
  -29.2943  -23.3061   22.7143 C   0  0  0  0  0  0  0  0  0  0  0  0
  -23.7655  -19.6365   23.0879 C   0  0  0  0  0  0  0  0  0  0  0  0
  -28.0054  -22.9680   22.2595 C   0  0  0  0  0  0  0  0  0  0  0  0
  -23.0899  -19.1786   21.9477 C   0  0  0  0  0  0  0  0  0  0  0  0
  -18.5545  -25.8259   21.6264 C   0  0  0  0  0  0  0  0  0  0  0  0
  -31.7058  -27.3063   20.1609 C   0  0  0  0  0  0  0  0  0  0  0  0
  -21.1527  -20.5053   22.5777 C   0  0  0  0  0  0  0  0  0  0  0  0
  -33.5266  -25.9601   20.7892 C   0  0  0  0  0  0  0  0  0  0  0  0
  -34.4816  -23.6129   21.9559 C   0  0  0  0  0  0  0  0  0  0  0  0
  -33.1691  -24.7213   20.2571 C   0  0  0  0  0  0  0  0  0  0  0  0
  -27.5151  -27.8657   20.0079 C   0  0  0  0  0  0  0  0  0  0  0  0
  -19.5523  -28.1626   22.6208 C   0  0  0  0  0  0  0  0  0  0  0  0
  -25.3496  -27.5865   19.7483 C   0  0  0  0  0  0  0  0  0  0  0  0
  -26.7075  -25.5586   19.2079 C   0  0  0  0  0  0  0  0  0  0  0  0
  -26.3763  -19.7988   21.2821 C   0  0  0  0  0  0  0  0  0  0  0  0
  -25.7069  -16.6755   20.7169 C   0  0  0  0  0  0  0  0  0  0  0  0
  -23.3772  -14.1836   20.6189 C   0  0  0  0  0  0  0  0  0  0  0  0
  -21.9298  -30.9794   22.5659 C   0  0  0  0  0  0  0  0  0  0  0  0
  -30.5292  -22.6305   22.1727 C   0  0  0  0  0  0  0  0  0  0  0  0
  -25.1575  -19.1553   23.3931 C   0  0  0  0  0  0  0  0  0  0  0  0
  -23.7319  -18.2242   20.9753 C   0  0  0  0  0  0  0  0  0  0  0  0
  -30.2397  -21.3097   21.4641 C   0  0  0  0  0  0  0  0  0  0  0  0
  -24.3798  -32.4974   20.4756 C   0  0  0  0  0  0  0  0  0  0  0  0
  -29.0614  -21.4640   20.5078 C   0  0  0  0  0  0  0  0  0  0  0  0
  -25.3366  -31.3515   20.1418 C   0  0  0  0  0  0  0  0  0  0  0  0
  -23.8528  -32.3943   21.9051 C   0  0  0  0  0  0  0  0  0  0  0  0
  -24.1915  -29.9532   21.9116 C   0  0  0  0  0  0  0  0  0  0  0  0
  -27.7843  -21.8502   21.2637 C   0  0  1  0  0  0  0  0  0  0  0  0
  -25.9067  -18.6702   22.1559 C   0  0  1  0  0  0  0  0  0  0  0  0
  -24.7059  -29.9830   20.4622 C   0  0  2  0  0  0  0  0  0  0  0  0
  -23.1224  -11.7451   20.0840 C   0  0  0  0  0  0  0  0  0  0  0  0
  -25.8209  -17.3199   17.7366 C   0  0  0  0  0  0  0  0  0  0  0  0
  -24.6509  -15.1511   17.2940 C   0  0  0  0  0  0  0  0  0  0  0  0
  -26.8977  -15.1557   18.3779 C   0  0  0  0  0  0  0  0  0  0  0  0
  -22.5002  -13.5518   23.3741 C   0  0  0  0  0  0  0  0  0  0  0  0
  -18.0005  -24.5268   21.1200 C   0  0  0  0  0  0  0  0  0  0  0  0
  -20.0938  -29.4309   23.1908 C   0  0  0  0  0  0  0  0  0  0  0  0
  -18.4183  -22.0840   20.8082 C   0  0  0  0  0  0  0  0  0  0  0  0
  -19.4934  -21.0254   20.9553 C   0  0  0  0  0  0  0  0  0  1  0  0
  -24.8833  -15.9262   19.6974 C   0  0  1  0  0  0  0  0  0  0  0  0
  -23.3894  -12.7709   21.1745 C   0  0  2  0  0  0  0  0  0  0  0  0
  -25.5515  -15.9078   18.2936 C   0  0  0  0  0  0  0  0  0  0  0  0
  -19.1615  -27.2190   23.5066 N   0  0  0  0  0  0  0  0  0  0  0  0
  -26.9834  -29.0445   20.3422 N   0  0  0  0  0  0  0  0  0  0  0  0
  -25.6653  -28.8432   20.1740 N   0  0  0  0  0  0  0  0  0  0  0  0
  -25.0964  -17.7874   21.3144 N   0  0  0  0  0  0  0  0  0  0  0  0
  -23.2661  -31.0734   22.1435 N   0  0  0  0  0  0  0  0  0  0  0  0
  -24.0703  -27.2151   19.5292 N   0  0  0  0  0  0  0  0  0  0  0  0
  -28.0041  -25.0307   19.1416 N   0  0  0  0  0  0  0  0  0  0  0  0
  -27.2157  -20.6923   21.9198 N   0  0  0  0  0  0  0  0  0  0  0  0
  -24.6412  -14.6027   20.2614 N   0  0  0  0  0  0  0  0  0  0  0  0
  -21.4504  -29.6901   22.7626 N   0  0  0  0  0  0  0  0  0  0  0  0
  -22.3460  -12.6195   22.2278 N   0  3  0  0  0  0  0  0  0  0  0  0
  -18.9590  -23.3957   21.2459 N   0  3  0  0  0  0  0  0  0  0  0  0
  -25.7337  -24.8374   18.8835 O   0  0  0  0  0  0  0  0  0  0  0  0
  -26.0059  -19.8540   20.1153 O   0  0  0  0  0  0  0  0  0  0  0  0
  -26.8471  -16.2844   20.9788 O   0  0  0  0  0  0  0  0  0  0  0  0
  -22.3487  -14.8474   20.5094 O   0  0  0  0  0  0  0  0  0  0  0  0
  -21.2152  -31.9708   22.7488 O   0  0  0  0  0  0  0  0  0  0  0  0
  -33.0540  -27.1262   20.2107 O   0  0  0  0  0  0  0  0  0  0  0  0
  -19.8846  -20.9290   22.3243 O   0  0  0  0  0  0  0  0  0  1  0  0
  -34.9415  -22.4860   22.5152 F   0  0  0  0  0  0  0  0  0  0  0  0
  -32.3681  -24.6523   19.1850 F   0  0  0  0  0  0  0  0  0  0  0  0
  1  2  1  0  0  0  0
  1  5  2  0  0  0  0
  2  6  2  0  0  0  0
  3  9  2  0  0  0  0
  3 18  1  0  0  0  0
  4 10  1  0  0  0  0
  4 18  2  0  0  0  0
  5 20  1  0  0  0  0
  6 22  1  0  0  0  0
  7 11  2  0  0  0  0
  7 21  1  0  0  0  0
  8 14  2  0  0  0  0
  8 24  1  0  0  0  0
  9 25  1  0  0  0  0
 10 25  2  0  0  0  0
 11 26  1  0  0  0  0
 12 13  2  0  0  0  0
 12 27  1  0  0  0  0
 13 28  1  0  0  0  0
 14 31  1  0  0  0  0
 15 23  1  0  0  0  0
 15 26  2  0  0  0  0
 16 28  2  0  0  0  0
 16 29  1  0  0  0  0
 17 24  2  0  0  0  0
 17 62  1  0  0  0  0
 18 30  1  0  0  0  0
 19 30  1  0  0  0  0
 19 32  2  0  0  0  0
 19 33  1  0  0  0  0
 20 22  2  0  0  0  0
 20 38  1  0  0  0  0
 21 23  2  0  0  0  0
 21 39  1  0  0  0  0
 22 47  1  0  0  0  0
 23 40  1  0  0  0  0
 24 55  1  0  0  0  0
 25 79  1  0  0  0  0
 26 80  1  0  0  0  0
 27 29  2  0  0  0  0
 27 79  1  0  0  0  0
 28 81  1  0  0  0  0
 29 82  1  0  0  0  0
 30 63  2  0  0  0  0
 31 56  1  0  0  0  0
 31 62  2  0  0  0  0
 32 64  1  0  0  0  0
 32 67  1  0  0  0  0
 33 68  1  0  0  0  0
 33 74  2  0  0  0  0
 34 48  1  0  0  0  0
 34 69  1  0  0  0  0
 34 75  2  0  0  0  0
 35 59  1  0  0  0  0
 35 65  1  0  0  0  0
 35 76  2  0  0  0  0
 36 60  1  0  0  0  0
 36 70  1  0  0  0  0
 36 77  2  0  0  0  0
 37 66  1  0  0  0  0
 37 71  1  0  0  0  0
 37 78  2  0  0  0  0
 38 41  1  0  0  0  0
 39 48  1  0  0  0  0
 40 65  1  0  0  0  0
 41 43  1  0  0  0  0
 42 44  1  0  0  0  0
 42 45  1  0  0  0  0
 43 47  1  0  0  0  0
 44 49  1  0  0  0  0
 45 66  1  0  0  0  0
 46 49  1  0  0  0  0
 46 66  1  0  0  0  0
 47 69  1  0  0  0  0
 48 65  1  0  0  0  0
 49 64  1  0  0  0  0
 50 60  1  0  0  0  0
 51 61  1  0  0  0  0
 52 61  1  0  0  0  0
 53 61  1  0  0  0  0
 54 72  1  0  0  0  0
 55 73  1  0  0  0  0
 56 71  1  0  0  0  0
 57 58  1  0  0  0  0
 57 73  1  0  0  0  0
 58 80  1  0  0  0  0
 59 61  1  0  0  0  0
 59 70  1  0  0  0  0
 60 72  1  0  0  0  0
 63 64  1  0  0  0  0
M  CHG  2  72   1  73   1
M  ISO  4  37 100  58 101  71 100  80 101
M  END
> <Batch ID>
0128

> <Smiles>
CNC(C)C(=O)NC(C(=O)N1Cc2cc([101O:1][101CH2:1]CNCc3ccc(C[100NH:0][100C:0](=O)N4CCCC(n5nc(-c6ccc(Oc7ccc(F)cc7F)cc6)c(C(N)=O)c5N)C4)nc3)ccc2CC1C(=O)NC1CCCc2ccccc21)C(C)(C)C

> <Shape>
0.205

> <Color>
0.086

> <Negative vol penalty>
0.000

$$$$

  -OEChem-04052320423D

 82 90  0     1  0  0  0  0  0999 V2000
  -27.6499  -11.0287   23.0963 C   0  0  0  0  0  0  0  0  0  0  0  0
  -28.1540  -12.3171   22.9501 C   0  0  0  0  0  0  0  0  0  0  0  0
  -20.1170  -27.1274   23.4861 C   0  0  0  0  0  0  0  0  0  0  0  0
  -20.3316  -28.6927   21.6583 C   0  0  0  0  0  0  0  0  0  0  0  0
  -26.5563  -10.6187   22.3349 C   0  0  0  0  0  0  0  0  0  0  0  0
  -27.5654  -13.1960   22.0416 C   0  0  0  0  0  0  0  0  0  0  0  0
  -26.9600  -19.2598   22.6493 C   0  0  0  0  0  0  0  0  0  0  0  0
  -18.7392  -27.3435   23.5093 C   0  0  0  0  0  0  0  0  0  0  0  0
  -18.9538  -28.9087   21.6814 C   0  0  0  0  0  0  0  0  0  0  0  0
  -27.7005  -20.3310   22.1513 C   0  0  0  0  0  0  0  0  0  0  0  0
  -15.5407  -30.1443   21.4957 C   0  0  0  0  0  0  0  0  0  0  0  0
  -15.0896  -31.4616   21.4148 C   0  0  0  0  0  0  0  0  0  0  0  0
  -30.5383  -23.4051   19.3785 C   0  0  0  0  0  0  0  0  0  0  0  0
  -26.1488  -20.5429   20.3165 C   0  0  0  0  0  0  0  0  0  0  0  0
  -29.6840  -24.8558   21.0962 C   0  0  0  0  0  0  0  0  0  0  0  0
  -16.2878  -31.9967   23.4434 C   0  0  0  0  0  0  0  0  0  0  0  0
  -31.1079  -24.5239   18.7922 C   0  0  0  0  0  0  0  0  0  0  0  0
  -20.9132  -27.8021   22.5606 C   0  0  0  0  0  0  0  0  0  0  0  0
  -23.0333  -26.6115   21.7889 C   0  0  0  0  0  0  0  0  0  0  0  0
  -25.9479  -11.4962   21.4235 C   0  0  0  0  0  0  0  0  0  0  0  0
  -25.8125  -18.8144   21.9776 C   0  0  0  0  0  0  0  0  0  0  0  0
  -26.4634  -12.7969   21.2663 C   0  0  0  0  0  0  0  0  0  0  0  0
  -25.3940  -19.4675   20.8094 C   0  0  0  0  0  0  0  0  0  0  0  0
  -29.8144  -23.5828   20.5522 C   0  0  0  0  0  0  0  0  0  0  0  0
  -18.1576  -28.2341   22.6070 C   0  0  0  0  0  0  0  0  0  0  0  0
  -27.2966  -20.9708   20.9832 C   0  0  0  0  0  0  0  0  0  0  0  0
  -16.3654  -29.7530   22.5506 C   0  0  0  0  0  0  0  0  0  0  0  0
  -15.4631  -32.3878   22.3885 C   0  0  0  0  0  0  0  0  0  0  0  0
  -16.7389  -30.6792   23.5244 C   0  0  0  0  0  0  0  0  0  0  0  0
  -22.3366  -27.5798   22.5365 C   0  0  0  0  0  0  0  0  0  0  0  0
  -30.2920  -25.9095   20.4331 C   0  0  0  0  0  0  0  0  0  0  0  0
  -24.3529  -26.8110   22.1136 C   0  0  0  0  0  0  0  0  0  0  0  0
  -22.5324  -25.6205   20.8819 C   0  0  0  0  0  0  0  0  0  0  0  0
  -24.9458  -16.0949   20.5786 C   0  0  0  0  0  0  0  0  0  0  0  0
  -22.0924  -17.6095   20.2843 C   0  0  0  0  0  0  0  0  0  0  0  0
  -20.3797  -20.5571   20.1260 C   0  0  0  0  0  0  0  0  0  0  0  0
  -28.6813  -30.2158   23.0177 C   0  0  0  0  0  0  0  0  0  0  0  0
  -24.7975  -10.9924   20.5884 C   0  0  0  0  0  0  0  0  0  0  0  0
  -25.0097  -17.6747   22.5423 C   0  0  0  0  0  0  0  0  0  0  0  0
  -24.1581  -19.0409   20.0618 C   0  0  0  0  0  0  0  0  0  0  0  0
  -23.9969  -12.1067   19.9191 C   0  0  0  0  0  0  0  0  0  0  0  0
  -26.4598  -29.6392   25.7397 C   0  0  0  0  0  0  0  0  0  0  0  0
  -24.9332  -13.1185   19.2661 C   0  0  0  0  0  0  0  0  0  0  0  0
  -25.2448  -28.9782   25.0865 C   0  0  0  0  0  0  0  0  0  0  0  0
  -27.0742  -30.7073   24.8377 C   0  0  0  0  0  0  0  0  0  0  0  0
  -26.1984  -29.5879   22.8243 C   0  0  0  0  0  0  0  0  0  0  0  0
  -25.8366  -13.7874   20.3091 C   0  0  1  0  0  0  0  0  0  0  0  0
  -24.1464  -16.9759   21.4964 C   0  0  1  0  0  0  0  0  0  0  0  0
  -25.5781  -28.4647   23.6728 C   0  0  2  0  0  0  0  0  0  0  0  0
  -18.0614  -21.4757   19.8445 C   0  0  0  0  0  0  0  0  0  0  0  0
  -30.4041  -30.9411   20.3460 C   0  0  0  0  0  0  0  0  0  0  0  0
  -22.2081  -16.9806   17.3008 C   0  0  0  0  0  0  0  0  0  0  0  0
  -20.4189  -18.6946   16.9411 C   0  0  0  0  0  0  0  0  0  0  0  0
  -19.9540  -16.6841   18.3428 C   0  0  0  0  0  0  0  0  0  0  0  0
  -20.4576  -21.8802   22.7722 C   0  0  0  0  0  0  0  0  0  0  0  0
  -29.1778  -22.4048   21.2294 C   0  0  0  0  0  0  0  0  0  1  0  0
  -30.3450  -28.3971   20.2465 C   0  0  0  0  0  0  0  0  0  0  0  0
  -21.4589  -18.5039   19.2462 C   0  0  1  0  0  0  0  0  0  0  0  0
  -19.1255  -21.0327   20.8367 C   0  0  2  0  0  0  0  0  0  0  0  0
  -30.1708  -29.6452   21.1165 C   0  0  2  0  0  0  0  0  0  0  0  0
  -21.0344  -17.7229   17.9705 C   0  0  0  0  0  0  0  0  0  0  0  0
  -31.0031  -25.7760   19.2911 N   0  0  0  0  0  0  0  0  0  0  0  0
  -23.1466  -28.3380   23.2803 N   0  0  0  0  0  0  0  0  0  0  0  0
  -24.3658  -27.8461   23.0017 N   0  0  0  0  0  0  0  0  0  0  0  0
  -23.4103  -17.9176   20.6504 N   0  0  0  0  0  0  0  0  0  0  0  0
  -27.3682  -30.1554   23.5129 N   0  0  0  0  0  0  0  0  0  0  0  0
  -25.4917  -26.2002   21.7233 N   0  0  0  0  0  0  0  0  0  0  0  0
  -21.1497  -25.5531   20.6629 N   0  0  0  0  0  0  0  0  0  0  0  0
  -30.1488  -27.2010   20.9987 N   0  0  0  0  0  0  0  0  0  0  0  0
  -25.1036  -14.8010   21.0370 N   0  0  0  0  0  0  0  0  0  0  0  0
  -20.3624  -19.1944   19.9166 N   0  0  0  0  0  0  0  0  0  0  0  0
  -28.8747  -29.6642   21.7571 N   0  0  0  0  0  0  0  0  0  0  0  0
  -19.4413  -22.1819   21.7314 N   0  3  0  0  0  0  0  0  0  0  0  0
  -23.2871  -24.8076   20.2961 O   0  0  0  0  0  0  0  0  0  0  0  0
  -25.3856  -16.5547   19.5312 O   0  0  0  0  0  0  0  0  0  0  0  0
  -21.4395  -16.6764   20.7582 O   0  0  0  0  0  0  0  0  0  0  0  0
  -21.2826  -21.3189   19.7869 O   0  0  0  0  0  0  0  0  0  0  0  0
  -29.6133  -30.7189   23.6542 O   0  0  0  0  0  0  0  0  0  0  0  0
  -16.8131  -28.4450   22.6292 O   0  0  0  0  0  0  0  0  0  0  0  0
  -28.0180  -22.0162   20.4945 O   0  0  0  0  0  0  0  0  0  1  0  0
  -15.0311  -33.6533   22.3098 F   0  0  0  0  0  0  0  0  0  0  0  0
  -17.5319  -30.3096   24.5394 F   0  0  0  0  0  0  0  0  0  0  0  0
  1  2  1  0  0  0  0
  1  5  2  0  0  0  0
  2  6  2  0  0  0  0
  3  8  2  0  0  0  0
  3 18  1  0  0  0  0
  4  9  1  0  0  0  0
  4 18  2  0  0  0  0
  5 20  1  0  0  0  0
  6 22  1  0  0  0  0
  7 10  2  0  0  0  0
  7 21  1  0  0  0  0
  8 25  1  0  0  0  0
  9 25  2  0  0  0  0
 10 26  1  0  0  0  0
 11 12  2  0  0  0  0
 11 27  1  0  0  0  0
 12 28  1  0  0  0  0
 13 17  2  0  0  0  0
 13 24  1  0  0  0  0
 14 23  1  0  0  0  0
 14 26  2  0  0  0  0
 15 24  2  0  0  0  0
 15 31  1  0  0  0  0
 16 28  2  0  0  0  0
 16 29  1  0  0  0  0
 17 62  1  0  0  0  0
 18 30  1  0  0  0  0
 19 30  1  0  0  0  0
 19 32  2  0  0  0  0
 19 33  1  0  0  0  0
 20 22  2  0  0  0  0
 20 38  1  0  0  0  0
 21 23  2  0  0  0  0
 21 39  1  0  0  0  0
 22 47  1  0  0  0  0
 23 40  1  0  0  0  0
 24 56  1  0  0  0  0
 25 79  1  0  0  0  0
 26 80  1  0  0  0  0
 27 29  2  0  0  0  0
 27 79  1  0  0  0  0
 28 81  1  0  0  0  0
 29 82  1  0  0  0  0
 30 63  2  0  0  0  0
 31 62  2  0  0  0  0
 31 69  1  0  0  0  0
 32 64  1  0  0  0  0
 32 67  1  0  0  0  0
 33 68  1  0  0  0  0
 33 74  2  0  0  0  0
 34 48  1  0  0  0  0
 34 70  1  0  0  0  0
 34 75  2  0  0  0  0
 35 58  1  0  0  0  0
 35 65  1  0  0  0  0
 35 76  2  0  0  0  0
 36 59  1  0  0  0  0
 36 71  1  0  0  0  0
 36 77  2  0  0  0  0
 37 66  1  0  0  0  0
 37 72  1  0  0  0  0
 37 78  2  0  0  0  0
 38 41  1  0  0  0  0
 39 48  1  0  0  0  0
 40 65  1  0  0  0  0
 41 43  1  0  0  0  0
 42 44  1  0  0  0  0
 42 45  1  0  0  0  0
 43 47  1  0  0  0  0
 44 49  1  0  0  0  0
 45 66  1  0  0  0  0
 46 49  1  0  0  0  0
 46 66  1  0  0  0  0
 47 70  1  0  0  0  0
 48 65  1  0  0  0  0
 49 64  1  0  0  0  0
 50 59  1  0  0  0  0
 51 60  1  0  0  0  0
 52 61  1  0  0  0  0
 53 61  1  0  0  0  0
 54 61  1  0  0  0  0
 55 73  1  0  0  0  0
 56 80  1  0  0  0  0
 57 60  1  0  0  0  0
 57 69  1  0  0  0  0
 58 61  1  0  0  0  0
 58 71  1  0  0  0  0
 59 73  1  0  0  0  0
 60 72  1  0  0  0  0
 63 64  1  0  0  0  0
M  CHG  1  73   1
M  ISO  4  37 100  56 101  72 100  80 101
M  END
> <Batch ID>
0128

> <Smiles>
CNC(C)C(=O)NC(C(=O)N1Cc2cc([101O:1][101CH2:1]c3ccnc(NCC(C)[100NH:0][100C:0](=O)N4CCCC(n5nc(-c6ccc(Oc7ccc(F)cc7F)cc6)c(C(N)=O)c5N)C4)c3)ccc2CC1C(=O)NC1CCCc2ccccc21)C(C)(C)C

> <Shape>
0.198

> <Color>
0.074

> <Negative vol penalty>
0.000

$$$$

  -OEChem-04052320423D

 91101  0     1  0  0  0  0  0999 V2000
  -17.3761  -30.9101   23.9330 C   0  0  0  0  0  0  0  0  0  0  0  0
  -18.7475  -31.1434   23.9272 C   0  0  0  0  0  0  0  0  0  0  0  0
  -23.4606  -14.0732   18.9093 C   0  0  0  0  0  0  0  0  0  0  0  0
  -25.1012  -15.2966   20.1933 C   0  0  0  0  0  0  0  0  0  0  0  0
  -16.8791  -29.6714   23.5300 C   0  0  0  0  0  0  0  0  0  0  0  0
  -19.6230  -30.1376   23.5193 C   0  0  0  0  0  0  0  0  0  0  0  0
  -25.9035  -29.2100   20.2009 C   0  0  0  0  0  0  0  0  0  0  0  0
  -24.0622  -12.8722   19.2849 C   0  0  0  0  0  0  0  0  0  0  0  0
  -25.7028  -14.0956   20.5690 C   0  0  0  0  0  0  0  0  0  0  0  0
  -27.1307  -28.5723   20.3768 C   0  0  0  0  0  0  0  0  0  0  0  0
  -24.1088  -10.8503   21.9947 C   0  0  0  0  0  0  0  0  0  0  0  0
  -23.2767   -9.8102   22.4086 C   0  0  0  0  0  0  0  0  0  0  0  0
  -29.6904  -22.4620   16.7513 C   0  0  0  0  0  0  0  0  0  0  0  0
  -26.1537  -26.4983   19.6261 C   0  0  0  0  0  0  0  0  0  0  0  0
  -24.1155   -8.4256   20.6151 C   0  0  0  0  0  0  0  0  0  0  0  0
  -30.4483  -22.1592   17.8608 C   0  0  0  0  0  0  0  0  0  0  0  0
  -28.3050  -22.2070   18.5079 C   0  0  0  0  0  0  0  0  0  0  0  0
  -23.9802  -15.2855   19.3634 C   0  0  0  0  0  0  0  0  0  0  0  0
  -22.3265  -17.2071   19.6471 C   0  0  0  0  0  0  0  0  0  0  0  0
  -17.7483  -28.6531   23.1077 C   0  0  0  0  0  0  0  0  0  0  0  0
  -24.7875  -28.4930   19.7459 C   0  0  0  0  0  0  0  0  0  0  0  0
  -19.1373  -28.8836   23.1115 C   0  0  0  0  0  0  0  0  0  0  0  0
  -24.9141  -27.1298   19.4429 C   0  0  0  0  0  0  0  0  0  0  0  0
  -28.3344  -22.4921   17.1606 C   0  0  0  0  0  0  0  0  0  0  0  0
  -25.1832  -12.8833   20.1149 C   0  0  0  0  0  0  0  0  0  0  0  0
  -27.2553  -27.2156   20.0922 C   0  0  0  0  0  0  0  0  0  0  0  0
  -24.9443  -10.6781   20.8910 C   0  0  0  0  0  0  0  0  0  0  0  0
  -23.2801   -8.5978   21.7188 C   0  0  0  0  0  0  0  0  0  0  0  0
  -24.9476   -9.4658   20.2013 C   0  0  0  0  0  0  0  0  0  0  0  0
  -23.3596  -16.5265   18.9752 C   0  0  0  0  0  0  0  0  0  0  0  0
  -22.0953  -18.3231   18.8806 C   0  0  0  0  0  0  0  0  0  0  0  0
  -21.6375  -16.8613   20.8559 C   0  0  0  0  0  0  0  0  0  0  0  0
  -21.9263  -27.7989   20.9440 C   0  0  0  0  0  0  0  0  0  0  0  0
  -21.4228  -26.5550   17.9908 C   0  0  0  0  0  0  0  0  0  0  0  0
  -22.4457  -24.7226   15.0560 C   0  0  0  0  0  0  0  0  0  0  0  0
  -25.5048  -21.4200   15.0549 C   0  0  0  0  0  0  0  0  0  0  0  0
  -17.1673  -27.3147   22.7260 C   0  0  0  0  0  0  0  0  0  0  0  0
  -23.4774  -29.2015   19.5360 C   0  0  0  0  0  0  0  0  0  0  0  0
  -23.7516  -26.3196   18.9325 C   0  0  0  0  0  0  0  0  0  0  0  0
  -18.1387  -26.4275   21.9516 C   0  0  0  0  0  0  0  0  0  0  0  0
  -22.3654  -19.8877   14.3673 C   0  0  0  0  0  0  0  0  0  0  0  0
  -19.5072  -26.4193   22.6254 C   0  0  0  0  0  0  0  0  0  0  0  0
  -34.7064  -26.7906   21.0686 C   0  0  0  0  0  0  0  0  0  0  0  0
  -33.5167  -27.6820   21.2924 C   0  0  0  0  0  0  0  0  0  0  0  0
  -28.9303  -24.0612   21.7042 C   0  0  0  0  0  0  0  0  0  0  0  0
  -22.1710  -18.9140   15.5309 C   0  0  0  0  0  0  0  0  0  0  0  0
  -28.4998  -25.3824   22.3478 C   0  0  0  0  0  0  0  0  0  0  0  0
  -30.5334  -26.6116   21.4714 C   0  0  0  0  0  0  0  0  0  0  0  0
  -23.8296  -19.9738   13.9420 C   0  0  0  0  0  0  0  0  0  0  0  0
  -24.5790  -19.3129   16.1949 C   0  0  0  0  0  0  0  0  0  0  0  0
  -20.1174  -27.8259   22.6522 C   0  0  1  0  0  0  0  0  0  0  0  0
  -22.2781  -28.2589   19.5576 C   0  0  1  0  0  0  0  0  0  0  0  0
  -33.4652  -26.2397   21.7143 C   0  0  0  0  0  0  0  0  0  0  0  0
  -30.2817  -24.1316   20.9624 C   0  0  1  0  0  0  0  0  0  0  0  0
  -31.1893  -25.2154   21.5816 C   0  0  1  0  0  0  0  0  0  0  0  0
  -23.1267  -19.2343   16.6959 C   0  0  2  0  0  0  0  0  0  0  0  0
  -29.0051  -26.5959   21.5797 C   0  0  1  0  0  0  0  0  0  1  0  0
  -26.3640  -24.0124   16.7509 C   0  0  0  0  0  0  0  0  0  0  0  0
  -21.2224  -24.2561   12.9152 C   0  0  0  0  0  0  0  0  0  0  0  0
  -30.6495  -20.2920   20.3654 C   0  0  0  0  0  0  0  0  0  0  0  0
  -20.6065  -23.9545   19.3623 C   0  0  0  0  0  0  0  0  0  0  0  0
  -20.8790  -22.7903   17.1627 C   0  0  0  0  0  0  0  0  0  0  0  0
  -19.1788  -24.5984   17.4126 C   0  0  0  0  0  0  0  0  0  0  0  0
  -24.6253  -25.8805   13.4227 C   0  0  0  0  0  0  0  0  0  0  0  0
  -32.5920  -25.2627   20.9703 C   0  0  0  0  0  0  0  0  0  0  0  0
  -30.9195  -22.7407   20.9300 C   0  0  0  0  0  0  0  0  0  0  0  0
  -27.1677  -22.7752   16.3029 C   0  0  2  0  0  0  0  0  0  0  0  0
  -21.6325  -25.2045   17.3497 C   0  0  1  0  0  0  0  0  0  0  0  0
  -22.2475  -25.1390   13.6097 C   0  0  2  0  0  0  0  0  0  0  0  0
  -30.0032  -21.6797   20.2963 C   0  0  1  0  0  0  0  0  0  0  0  0
  -20.5958  -24.1514   17.8333 C   0  0  0  0  0  0  0  0  0  0  0  0
  -23.7571  -17.1574   17.8670 N   0  0  0  0  0  0  0  0  0  0  0  0
  -29.5957  -22.0067   18.9229 N   0  0  0  0  0  0  0  0  0  0  0  0
  -22.9697  -18.2461   17.8367 N   0  0  0  0  0  0  0  0  0  0  0  0
  -22.4900  -27.0561   18.7496 N   0  0  0  0  0  0  0  0  0  0  0  0
  -24.6825  -20.2818   15.0925 N   0  0  0  0  0  0  0  0  0  0  0  0
  -21.2314  -19.3530   19.0045 N   0  0  0  0  0  0  0  0  0  0  0  0
  -22.0000  -15.6799   21.5171 N   0  0  0  0  0  0  0  0  0  0  0  0
  -20.6590  -28.1667   21.3542 N   0  0  0  0  0  0  0  0  0  0  0  0
  -21.6259  -25.4314   15.9085 N   0  0  0  0  0  0  0  0  0  0  0  0
  -26.2765  -21.6422   16.1889 N   0  0  0  0  0  0  0  0  0  0  0  0
  -23.5333  -25.0436   12.8623 N   0  3  0  0  0  0  0  0  0  0  0  0
  -20.7161  -17.5704   21.3269 O   0  0  0  0  0  0  0  0  0  0  0  0
  -22.7435  -27.1566   21.5931 O   0  0  0  0  0  0  0  0  0  0  0  0
  -20.3542  -27.1467   17.8187 O   0  0  0  0  0  0  0  0  0  0  0  0
  -23.2450  -23.8527   15.3952 O   0  0  0  0  0  0  0  0  0  0  0  0
  -25.5441  -22.1846   14.0850 O   0  0  0  0  0  0  0  0  0  0  0  0
  -25.7704  -11.7115   20.4819 O   0  0  0  0  0  0  0  0  0  0  0  0
  -28.4519  -26.5905   20.2636 O   0  0  0  0  0  0  0  0  0  1  0  0
  -22.4821   -7.5985   22.1173 F   0  0  0  0  0  0  0  0  0  0  0  0
  -25.7489   -9.2940   19.1409 F   0  0  0  0  0  0  0  0  0  0  0  0
  1  2  1  0  0  0  0
  1  5  2  0  0  0  0
  2  6  2  0  0  0  0
  3  8  2  0  0  0  0
  3 18  1  0  0  0  0
  4  9  1  0  0  0  0
  4 18  2  0  0  0  0
  5 20  1  0  0  0  0
  6 22  1  0  0  0  0
  7 10  2  0  0  0  0
  7 21  1  0  0  0  0
  8 25  1  0  0  0  0
  9 25  2  0  0  0  0
 10 26  1  0  0  0  0
 11 12  2  0  0  0  0
 11 27  1  0  0  0  0
 12 28  1  0  0  0  0
 13 16  2  0  0  0  0
 13 24  1  0  0  0  0
 14 23  1  0  0  0  0
 14 26  2  0  0  0  0
 15 28  2  0  0  0  0
 15 29  1  0  0  0  0
 16 73  1  0  0  0  0
 17 24  2  0  0  0  0
 17 73  1  0  0  0  0
 18 30  1  0  0  0  0
 19 30  1  0  0  0  0
 19 31  2  0  0  0  0
 19 32  1  0  0  0  0
 20 22  2  0  0  0  0
 20 37  1  0  0  0  0
 21 23  2  0  0  0  0
 21 38  1  0  0  0  0
 22 51  1  0  0  0  0
 23 39  1  0  0  0  0
 24 67  1  0  0  0  0
 25 88  1  0  0  0  0
 26 89  1  0  0  0  0
 27 29  2  0  0  0  0
 27 88  1  0  0  0  0
 28 90  1  0  0  0  0
 29 91  1  0  0  0  0
 30 72  2  0  0  0  0
 31 74  1  0  0  0  0
 31 77  1  0  0  0  0
 32 78  1  0  0  0  0
 32 83  2  0  0  0  0
 33 52  1  0  0  0  0
 33 79  1  0  0  0  0
 33 84  2  0  0  0  0
 34 68  1  0  0  0  0
 34 75  1  0  0  0  0
 34 85  2  0  0  0  0
 35 69  1  0  0  0  0
 35 80  1  0  0  0  0
 35 86  2  0  0  0  0
 36 76  1  0  0  0  0
 36 81  1  0  0  0  0
 36 87  2  0  0  0  0
 37 40  1  0  0  0  0
 38 52  1  0  0  0  0
 39 75  1  0  0  0  0
 40 42  1  0  0  0  0
 41 46  1  0  0  0  0
 41 49  1  0  0  0  0
 42 51  1  0  0  0  0
 43 44  1  0  0  0  0
 43 53  1  0  0  0  0
 44 53  1  0  0  0  0
 45 47  1  0  0  0  0
 45 54  1  0  0  0  0
 46 56  1  0  0  0  0
 47 57  1  0  0  0  0
 48 55  1  0  0  0  0
 48 57  1  0  0  0  0
 49 76  1  0  0  0  0
 50 56  1  0  0  0  0
 50 76  1  0  0  0  0
 51 79  1  0  0  0  0
 52 75  1  0  0  0  0
 53 65  1  0  0  0  0
 54 55  1  0  0  0  0
 54 66  1  0  0  0  0
 55 65  1  0  0  0  0
 56 74  1  0  0  0  0
 57 89  1  0  0  0  0
 58 67  1  0  0  0  0
 59 69  1  0  0  0  0
 60 70  1  0  0  0  0
 61 71  1  0  0  0  0
 62 71  1  0  0  0  0
 63 71  1  0  0  0  0
 64 82  1  0  0  0  0
 66 70  1  0  0  0  0
 67 81  1  0  0  0  0
 68 71  1  0  0  0  0
 68 80  1  0  0  0  0
 69 82  1  0  0  0  0
 70 73  1  0  0  0  0
 72 74  1  0  0  0  0
M  CHG  1  82   1
M  ISO  4  36 100  57 101  81 100  89 101
M  END
> <Batch ID>
0128

> <Smiles>
CNC(C)C(=O)NC(C(=O)N1Cc2cc([101O:1][101CH:1]3CCC(CC(C)n4ccc(C(C)[100NH:0][100C:0](=O)N5CCCC(n6nc(-c7ccc(Oc8ccc(F)cc8F)cc7)c(C(N)=O)c6N)C5)c4)C(CC4CC4)C3)ccc2CC1C(=O)NC1CCCc2ccccc21)C(C)(C)C

> <Shape>
0.210

> <Color>
0.087

> <Negative vol penalty>
0.000

$$$$

  -OEChem-04052320423D

 86 94  0     1  0  0  0  0  0999 V2000
  -24.2151  -35.4459   21.5357 C   0  0  0  0  0  0  0  0  0  0  0  0
  -24.6454  -34.2852   20.9009 C   0  0  0  0  0  0  0  0  0  0  0  0
  -23.0668   -9.9051   19.8994 C   0  0  0  0  0  0  0  0  0  0  0  0
  -23.8839   -9.8054   22.1709 C   0  0  0  0  0  0  0  0  0  0  0  0
  -23.6365  -35.3731   22.8021 C   0  0  0  0  0  0  0  0  0  0  0  0
  -24.4982  -33.0508   21.5328 C   0  0  0  0  0  0  0  0  0  0  0  0
  -23.2927  -27.6708   18.8668 C   0  0  0  0  0  0  0  0  0  0  0  0
  -29.3192  -20.2044   19.5734 C   0  0  0  0  0  0  0  0  0  0  0  0
  -22.3365   -8.7357   20.1108 C   0  0  0  0  0  0  0  0  0  0  0  0
  -23.1535   -8.6360   22.3823 C   0  0  0  0  0  0  0  0  0  0  0  0
  -24.1103  -26.6055   18.4923 C   0  0  0  0  0  0  0  0  0  0  0  0
  -28.7494  -21.2362   18.8276 C   0  0  0  0  0  0  0  0  0  0  0  0
  -19.9463   -7.7861   23.0245 C   0  0  0  0  0  0  0  0  0  0  0  0
  -19.2192   -7.6834   24.2104 C   0  0  0  0  0  0  0  0  0  0  0  0
  -23.5933  -25.4874   20.5663 C   0  0  0  0  0  0  0  0  0  0  0  0
  -27.1341  -19.6023   20.4100 C   0  0  0  0  0  0  0  0  0  0  0  0
  -20.4904   -5.7213   24.8199 C   0  0  0  0  0  0  0  0  0  0  0  0
  -23.8406  -10.4399   20.9295 C   0  0  0  0  0  0  0  0  0  0  0  0
  -24.1640  -12.9703   20.9252 C   0  0  0  0  0  0  0  0  0  0  0  0
  -23.4733  -34.1362   23.4457 C   0  0  0  0  0  0  0  0  0  0  0  0
  -22.6267  -27.6573   20.1008 C   0  0  0  0  0  0  0  0  0  0  0  0
  -23.9180  -32.9615   22.8096 C   0  0  0  0  0  0  0  0  0  0  0  0
  -22.7658  -26.5526   20.9531 C   0  0  0  0  0  0  0  0  0  0  0  0
  -26.5642  -20.6342   19.6642 C   0  0  0  0  0  0  0  0  0  0  0  0
  -28.5115  -19.3874   20.3646 C   0  0  0  0  0  0  0  0  0  0  0  0
  -22.3797   -8.1011   21.3522 C   0  0  0  0  0  0  0  0  0  0  0  0
  -24.2630  -25.5148   19.3433 C   0  0  0  0  0  0  0  0  0  0  0  0
  -27.3719  -21.4511   18.8730 C   0  0  0  0  0  0  0  0  0  0  0  0
  -20.9454   -6.8564   22.7362 C   0  0  0  0  0  0  0  0  0  0  0  0
  -19.4912   -6.6510   25.1081 C   0  0  0  0  0  0  0  0  0  0  0  0
  -21.2175   -5.8240   23.6339 C   0  0  0  0  0  0  0  0  0  0  0  0
  -24.5957  -11.6475   20.7116 C   0  0  0  0  0  0  0  0  0  0  0  0
  -25.2421  -13.7446   20.5723 C   0  0  0  0  0  0  0  0  0  0  0  0
  -22.9013  -13.4557   21.4002 C   0  0  0  0  0  0  0  0  0  0  0  0
  -22.6949  -29.4764   22.7066 C   0  0  0  0  0  0  0  0  0  0  0  0
  -20.2248  -27.5825   23.6198 C   0  0  0  0  0  0  0  0  0  0  0  0
  -18.6034  -24.5938   23.3270 C   0  0  0  0  0  0  0  0  0  0  0  0
  -30.7226  -14.7932   20.6748 C   0  0  0  0  0  0  0  0  0  0  0  0
  -22.8854  -34.1125   24.8343 C   0  0  0  0  0  0  0  0  0  0  0  0
  -21.7272  -28.8022   20.4784 C   0  0  0  0  0  0  0  0  0  0  0  0
  -22.0564  -26.4803   22.2797 C   0  0  0  0  0  0  0  0  0  0  0  0
  -22.4241  -32.7262   25.2769 C   0  0  0  0  0  0  0  0  0  0  0  0
  -29.5400  -12.5201   18.2027 C   0  0  0  0  0  0  0  0  0  0  0  0
  -23.4907  -31.6826   24.9607 C   0  0  0  0  0  0  0  0  0  0  0  0
  -28.1157  -12.1951   18.6561 C   0  0  0  0  0  0  0  0  0  0  0  0
  -30.4856  -12.6886   19.3899 C   0  0  0  0  0  0  0  0  0  0  0  0
  -28.6148  -13.3370   20.8573 C   0  0  0  0  0  0  0  0  0  0  0  0
  -23.7530  -31.6013   23.4521 C   0  0  1  0  0  0  0  0  0  0  0  0
  -21.5035  -28.9152   21.9832 C   0  0  1  0  0  0  0  0  0  0  0  0
  -27.6125  -13.2132   19.6970 C   0  0  2  0  0  0  0  0  0  0  0  0
  -24.6042  -21.2139   21.1392 C   0  0  0  0  0  0  0  0  0  0  0  0
  -24.2962  -19.6391   19.1949 C   0  0  0  0  0  0  0  0  0  0  0  0
  -16.6363  -23.3232   24.2290 C   0  0  0  0  0  0  0  0  0  0  0  0
  -21.7692  -27.0212   26.1907 C   0  0  0  0  0  0  0  0  0  0  0  0
  -20.2539  -25.0692   26.5925 C   0  0  0  0  0  0  0  0  0  0  0  0
  -19.3141  -27.3782   26.5054 C   0  0  0  0  0  0  0  0  0  0  0  0
  -17.3435  -24.4190   20.6547 C   0  0  0  0  0  0  0  0  0  0  0  0
  -30.4917  -18.0695   21.1181 C   0  0  0  0  0  0  0  0  0  0  0  0
  -30.8063  -16.8810   22.0138 C   0  0  0  0  0  0  0  0  0  0  0  0
  -26.1722  -24.7711   18.1359 C   0  0  0  0  0  0  0  0  0  1  0  0
  -27.2880  -23.7843   18.4201 C   0  0  0  0  0  0  0  0  0  0  0  0
  -25.0878  -20.8494   19.7236 C   0  0  0  0  0  0  0  0  0  0  0  0
  -20.0980  -26.2778   24.3685 C   0  0  1  0  0  0  0  0  0  0  0  0
  -17.1348  -24.2588   23.1386 C   0  0  2  0  0  0  0  0  0  0  0  0
  -20.3738  -26.4385   25.8902 C   0  0  0  0  0  0  0  0  0  0  0  0
  -25.8503  -11.5815   20.2580 N   0  0  0  0  0  0  0  0  0  0  0  0
  -26.2160  -12.8726   20.1835 N   0  0  0  0  0  0  0  0  0  0  0  0
  -21.1931  -27.6271   22.6068 N   0  0  0  0  0  0  0  0  0  0  0  0
  -29.9512  -13.6685   20.3387 N   0  0  0  0  0  0  0  0  0  0  0  0
  -25.4425  -15.0796   20.5596 N   0  0  0  0  0  0  0  0  0  0  0  0
  -21.9037  -12.5238   21.7174 N   0  0  0  0  0  0  0  0  0  0  0  0
  -29.0881  -18.3443   21.1187 N   0  0  0  0  0  0  0  0  0  0  0  0
  -22.7009  -30.8553   22.7956 N   0  0  0  0  0  0  0  0  0  0  0  0
  -18.7736  -25.7533   24.0535 N   0  0  0  0  0  0  0  0  0  0  0  0
  -30.1391  -15.6753   21.5760 N   0  0  0  0  0  0  0  0  0  0  0  0
  -16.9189  -23.6001   21.8193 N   0  3  0  0  0  0  0  0  0  0  0  0
  -22.6591  -14.6803   21.5238 O   0  0  0  0  0  0  0  0  0  0  0  0
  -23.5451  -28.7146   23.1523 O   0  0  0  0  0  0  0  0  0  0  0  0
  -19.4868  -28.5249   23.9177 O   0  0  0  0  0  0  0  0  0  0  0  0
  -19.5090  -23.8947   22.8781 O   0  0  0  0  0  0  0  0  0  0  0  0
  -31.8457  -14.9989   20.2024 O   0  0  0  0  0  0  0  0  0  0  0  0
  -21.6670   -6.9602   21.5588 O   0  0  0  0  0  0  0  0  0  0  0  0
  -25.0610  -24.4739   18.9805 O   0  0  0  0  0  0  0  0  0  1  0  0
  -26.8289  -22.4688   18.1337 O   0  0  0  0  0  0  0  0  0  0  0  0
  -18.7940   -6.5534   26.2476 F   0  0  0  0  0  0  0  0  0  0  0  0
  -22.1770   -4.9286   23.3630 F   0  0  0  0  0  0  0  0  0  0  0  0
  1  2  1  0  0  0  0
  1  5  2  0  0  0  0
  2  6  2  0  0  0  0
  3  9  2  0  0  0  0
  3 18  1  0  0  0  0
  4 10  1  0  0  0  0
  4 18  2  0  0  0  0
  5 20  1  0  0  0  0
  6 22  1  0  0  0  0
  7 11  2  0  0  0  0
  7 21  1  0  0  0  0
  8 12  2  0  0  0  0
  8 25  1  0  0  0  0
  9 26  1  0  0  0  0
 10 26  2  0  0  0  0
 11 27  1  0  0  0  0
 12 28  1  0  0  0  0
 13 14  2  0  0  0  0
 13 29  1  0  0  0  0
 14 30  1  0  0  0  0
 15 23  1  0  0  0  0
 15 27  2  0  0  0  0
 16 24  1  0  0  0  0
 16 25  2  0  0  0  0
 17 30  2  0  0  0  0
 17 31  1  0  0  0  0
 18 32  1  0  0  0  0
 19 32  1  0  0  0  0
 19 33  2  0  0  0  0
 19 34  1  0  0  0  0
 20 22  2  0  0  0  0
 20 39  1  0  0  0  0
 21 23  2  0  0  0  0
 21 40  1  0  0  0  0
 22 48  1  0  0  0  0
 23 41  1  0  0  0  0
 24 28  2  0  0  0  0
 24 62  1  0  0  0  0
 25 72  1  0  0  0  0
 26 82  1  0  0  0  0
 27 83  1  0  0  0  0
 28 84  1  0  0  0  0
 29 31  2  0  0  0  0
 29 82  1  0  0  0  0
 30 85  1  0  0  0  0
 31 86  1  0  0  0  0
 32 66  2  0  0  0  0
 33 67  1  0  0  0  0
 33 70  1  0  0  0  0
 34 71  1  0  0  0  0
 34 77  2  0  0  0  0
 35 49  1  0  0  0  0
 35 73  1  0  0  0  0
 35 78  2  0  0  0  0
 36 63  1  0  0  0  0
 36 68  1  0  0  0  0
 36 79  2  0  0  0  0
 37 64  1  0  0  0  0
 37 74  1  0  0  0  0
 37 80  2  0  0  0  0
 38 69  1  0  0  0  0
 38 75  1  0  0  0  0
 38 81  2  0  0  0  0
 39 42  1  0  0  0  0
 40 49  1  0  0  0  0
 41 68  1  0  0  0  0
 42 44  1  0  0  0  0
 43 45  1  0  0  0  0
 43 46  1  0  0  0  0
 44 48  1  0  0  0  0
 45 50  1  0  0  0  0
 46 69  1  0  0  0  0
 47 50  1  0  0  0  0
 47 69  1  0  0  0  0
 48 73  1  0  0  0  0
 49 68  1  0  0  0  0
 50 67  1  0  0  0  0
 51 62  1  0  0  0  0
 52 62  1  0  0  0  0
 53 64  1  0  0  0  0
 54 65  1  0  0  0  0
 55 65  1  0  0  0  0
 56 65  1  0  0  0  0
 57 76  1  0  0  0  0
 58 59  1  0  0  0  0
 58 72  1  0  0  0  0
 59 75  1  0  0  0  0
 60 61  1  0  0  0  0
 60 83  1  0  0  0  0
 61 84  1  0  0  0  0
 63 65  1  0  0  0  0
 63 74  1  0  0  0  0
 64 76  1  0  0  0  0
 66 67  1  0  0  0  0
M  CHG  1  76   1
M  ISO  4  38 100  60 101  75 100  83 101
M  END
> <Batch ID>
0128

> <Smiles>
CNC(C)C(=O)NC(C(=O)N1Cc2cc([101O:1][101CH2:1]COc3ccc(NCC[100NH:0][100C:0](=O)N4CCCC(n5nc(-c6ccc(Oc7ccc(F)cc7F)cc6)c(C(N)=O)c5N)C4)cc3C(C)C)ccc2CC1C(=O)NC1CCCc2ccccc21)C(C)(C)C

> <Shape>
0.305

> <Color>
0.209

> <Negative vol penalty>
0.000

$$$$
